
  -OEChem-04052300463D

 82 91  0     1  0  0  0  0  0999 V2000
  -18.0682  -24.7054   21.4631 C   0  0  0  0  0  0  0  0  0  0  0  0
  -19.4274  -24.5422   21.2153 C   0  0  0  0  0  0  0  0  0  0  0  0
  -24.7308  -13.2555   21.7485 C   0  0  0  0  0  0  0  0  0  0  0  0
  -26.1331  -12.5135   19.9264 C   0  0  0  0  0  0  0  0  0  0  0  0
  -17.6050  -25.8787   22.0569 C   0  0  0  0  0  0  0  0  0  0  0  0
  -20.3241  -25.5528   21.5603 C   0  0  0  0  0  0  0  0  0  0  0  0
  -24.4695  -23.7705   23.8591 C   0  0  0  0  0  0  0  0  0  0  0  0
  -24.1433  -11.9919   21.8110 C   0  0  0  0  0  0  0  0  0  0  0  0
  -25.5457  -11.2498   19.9889 C   0  0  0  0  0  0  0  0  0  0  0  0
  -25.4459  -23.1899   23.0508 C   0  0  0  0  0  0  0  0  0  0  0  0
  -21.7917  -10.2523   20.1174 C   0  0  0  0  0  0  0  0  0  0  0  0
  -20.4031  -10.1890   20.2319 C   0  0  0  0  0  0  0  0  0  0  0  0
  -30.8213  -21.1149   20.3824 C   0  0  0  0  0  0  0  0  0  0  0  0
  -26.7254  -25.2331   23.1393 C   0  0  0  0  0  0  0  0  0  0  0  0
  -28.2439  -21.1497   19.3382 C   0  0  0  0  0  0  0  0  0  0  0  0
  -20.6296   -9.0043   22.3252 C   0  0  0  0  0  0  0  0  0  0  0  0
  -25.7256  -13.5163   20.8061 C   0  0  0  0  0  0  0  0  0  0  0  0
  -27.4726  -15.2648   21.4374 C   0  0  0  0  0  0  0  0  0  0  0  0
  -18.4976  -26.9002   22.4181 C   0  0  0  0  0  0  0  0  0  0  0  0
  -24.6086  -25.0926   24.3053 C   0  0  0  0  0  0  0  0  0  0  0  0
  -19.8723  -26.7414   22.1583 C   0  0  0  0  0  0  0  0  0  0  0  0
  -30.6057  -20.6979   19.0582 C   0  0  0  0  0  0  0  0  0  0  0  0
  -25.7505  -25.8272   23.9552 C   0  0  0  0  0  0  0  0  0  0  0  0
  -28.4718  -21.5531   20.6556 C   0  0  0  0  0  0  0  0  0  0  0  0
  -29.2978  -20.6958   18.5280 C   0  0  0  0  0  0  0  0  0  0  0  0
  -29.7584  -21.5297   21.1800 C   0  0  0  0  0  0  0  0  0  0  0  0
  -24.5508  -10.9891   20.9312 C   0  0  0  0  0  0  0  0  0  0  0  0
  -26.5727  -23.9222   22.6885 C   0  0  0  0  0  0  0  0  0  0  0  0
  -22.5994   -9.6916   21.1068 C   0  0  0  0  0  0  0  0  0  0  0  0
  -19.8220   -9.5650   21.3358 C   0  0  0  0  0  0  0  0  0  0  0  0
  -22.0184   -9.0676   22.2107 C   0  0  0  0  0  0  0  0  0  0  0  0
  -26.3324  -14.8215   20.7407 C   0  0  0  0  0  0  0  0  0  0  0  0
  -27.6374  -16.5670   21.0329 C   0  0  0  0  0  0  0  0  0  0  0  0
  -28.3080  -14.5623   22.3671 C   0  0  0  0  0  0  0  0  0  0  0  0
  -22.9541  -27.7782   23.9134 C   0  0  0  0  0  0  0  0  0  0  0  0
  -25.0791  -28.9426   26.0700 C   0  0  0  0  0  0  0  0  0  0  0  0
  -28.1562  -28.7012   27.5261 C   0  0  0  0  0  0  0  0  0  0  0  0
  -27.8104  -20.1080   16.5896 C   0  0  0  0  0  0  0  0  0  0  0  0
  -17.9445  -28.1703   23.0144 C   0  0  0  0  0  0  0  0  0  0  0  0
  -23.5593  -25.6954   25.1986 C   0  0  0  0  0  0  0  0  0  0  0  0
  -31.8061  -20.3200   18.2272 C   0  0  0  0  0  0  0  0  0  0  0  0
  -25.9572  -27.2433   24.4248 C   0  0  0  0  0  0  0  0  0  0  0  0
  -19.0032  -29.0366   23.6918 C   0  0  0  0  0  0  0  0  0  0  0  0
  -31.4232  -19.5747   16.9576 C   0  0  0  0  0  0  0  0  0  0  0  0
  -24.6198  -19.6468   18.4140 C   0  0  0  0  0  0  0  0  0  0  0  0
  -20.2334  -29.1712   22.8000 C   0  0  0  0  0  0  0  0  0  0  0  0
  -24.8490  -18.3393   19.1692 C   0  0  0  0  0  0  0  0  0  0  0  0
  -30.2436  -20.2571   16.2872 C   0  0  0  0  0  0  0  0  0  0  0  0
  -25.4304  -19.7036   17.1230 C   0  0  0  0  0  0  0  0  0  0  0  0
  -27.1281  -18.1772   18.0899 C   0  0  0  0  0  0  0  0  0  0  0  0
  -20.8790  -27.8046   22.5407 C   0  0  1  0  0  0  0  0  0  0  0  0
  -23.5565  -27.2208   25.1720 C   0  0  1  0  0  0  0  0  0  0  0  0
  -26.3495  -18.1100   19.4124 C   0  0  2  0  0  0  0  0  0  0  0  0
  -29.6227  -29.8178   29.2290 C   0  0  0  0  0  0  0  0  0  0  0  0
  -25.6818  -31.1774   24.0820 C   0  0  0  0  0  0  0  0  0  0  0  0
  -27.7622  -31.6780   25.3819 C   0  0  0  0  0  0  0  0  0  0  0  0
  -25.5284  -31.9157   26.4665 C   0  0  0  0  0  0  0  0  0  0  0  0
  -28.2587  -26.2661   29.2049 C   0  0  0  0  0  0  0  0  0  0  0  0
  -27.3115  -22.0133   21.4776 C   0  0  0  0  0  0  0  0  0  1  0  0
  -26.4334  -29.6043   25.9863 C   0  0  1  0  0  0  0  0  0  0  0  0
  -28.5871  -28.7320   28.9814 C   0  0  2  0  0  0  0  0  0  0  0  0
  -26.3469  -31.0678   25.4686 C   0  0  0  0  0  0  0  0  0  0  0  0
  -25.8098  -15.7655   19.9534 N   0  0  0  0  0  0  0  0  0  0  0  0
  -26.6252  -16.8149   20.1530 N   0  0  0  0  0  0  0  0  0  0  0  0
  -29.0775  -20.2735   17.1710 N   0  0  0  0  0  0  0  0  0  0  0  0
  -24.9001  -27.7906   25.2911 N   0  0  0  0  0  0  0  0  0  0  0  0
  -26.8476  -19.4229   17.3571 N   0  0  0  0  0  0  0  0  0  0  0  0
  -30.0082  -21.9359   22.5084 N   0  0  0  0  0  0  0  0  0  0  0  0
  -28.5479  -17.5127   21.3476 N   0  0  0  0  0  0  0  0  0  0  0  0
  -27.9964  -13.2301   22.6708 N   0  0  0  0  0  0  0  0  0  0  0  0
  -21.6487  -27.3828   23.6914 N   0  0  0  0  0  0  0  0  0  0  0  0
  -27.0343  -29.4730   27.3092 N   0  0  0  0  0  0  0  0  0  0  0  0
  -29.1772  -27.4213   29.3747 N   0  3  0  0  0  0  0  0  0  0  0  0
  -29.2917  -15.1052   22.9248 O   0  0  0  0  0  0  0  0  0  0  0  0
  -23.6234  -28.5139   23.1976 O   0  0  0  0  0  0  0  0  0  0  0  0
  -24.2143  -29.4258   26.8051 O   0  0  0  0  0  0  0  0  0  0  0  0
  -28.7570  -28.0599   26.6669 O   0  0  0  0  0  0  0  0  0  0  0  0
  -27.5816  -20.4879   15.4346 O   0  0  0  0  0  0  0  0  0  0  0  0
  -23.9780   -9.7559   20.9921 O   0  0  0  0  0  0  0  0  0  0  0  0
  -27.5339  -23.3540   21.8934 O   0  0  0  0  0  0  0  0  0  1  0  0
  -18.4884   -9.5057   21.4464 F   0  0  0  0  0  0  0  0  0  0  0  0
  -22.7891   -8.5281   23.1650 F   0  0  0  0  0  0  0  0  0  0  0  0
  1  2  1  0  0  0  0
  1  5  2  0  0  0  0
  2  6  2  0  0  0  0
  3  8  2  0  0  0  0
  3 17  1  0  0  0  0
  4  9  1  0  0  0  0
  4 17  2  0  0  0  0
  5 19  1  0  0  0  0
  6 21  1  0  0  0  0
  7 10  2  0  0  0  0
  7 20  1  0  0  0  0
  8 27  1  0  0  0  0
  9 27  2  0  0  0  0
 10 28  1  0  0  0  0
 11 12  2  0  0  0  0
 11 29  1  0  0  0  0
 12 30  1  0  0  0  0
 13 22  2  0  0  0  0
 13 26  1  0  0  0  0
 14 23  1  0  0  0  0
 14 28  2  0  0  0  0
 15 24  1  0  0  0  0
 15 25  2  0  0  0  0
 16 30  2  0  0  0  0
 16 31  1  0  0  0  0
 17 32  1  0  0  0  0
 18 32  1  0  0  0  0
 18 33  2  0  0  0  0
 18 34  1  0  0  0  0
 19 21  2  0  0  0  0
 19 39  1  0  0  0  0
 20 23  2  0  0  0  0
 20 40  1  0  0  0  0
 21 51  1  0  0  0  0
 22 25  1  0  0  0  0
 22 41  1  0  0  0  0
 23 42  1  0  0  0  0
 24 26  2  0  0  0  0
 24 59  1  0  0  0  0
 25 65  1  0  0  0  0
 26 68  1  0  0  0  0
 27 79  1  0  0  0  0
 28 80  1  0  0  0  0
 29 31  2  0  0  0  0
 29 79  1  0  0  0  0
 30 81  1  0  0  0  0
 31 82  1  0  0  0  0
 32 63  2  0  0  0  0
 33 64  1  0  0  0  0
 33 69  1  0  0  0  0
 34 70  1  0  0  0  0
 34 74  2  0  0  0  0
 35 52  1  0  0  0  0
 35 71  1  0  0  0  0
 35 75  2  0  0  0  0
 36 60  1  0  0  0  0
 36 66  1  0  0  0  0
 36 76  2  0  0  0  0
 37 61  1  0  0  0  0
 37 72  1  0  0  0  0
 37 77  2  0  0  0  0
 38 65  1  0  0  0  0
 38 67  1  0  0  0  0
 38 78  2  0  0  0  0
 39 43  1  0  0  0  0
 40 52  1  0  0  0  0
 41 44  1  0  0  0  0
 42 66  1  0  0  0  0
 43 46  1  0  0  0  0
 44 48  1  0  0  0  0
 45 47  1  0  0  0  0
 45 49  1  0  0  0  0
 46 51  1  0  0  0  0
 47 53  1  0  0  0  0
 48 65  1  0  0  0  0
 49 67  1  0  0  0  0
 50 53  1  0  0  0  0
 50 67  1  0  0  0  0
 51 71  1  0  0  0  0
 52 66  1  0  0  0  0
 53 64  1  0  0  0  0
 54 61  1  0  0  0  0
 55 62  1  0  0  0  0
 56 62  1  0  0  0  0
 57 62  1  0  0  0  0
 58 73  1  0  0  0  0
 59 80  1  0  0  0  0
 60 62  1  0  0  0  0
 60 72  1  0  0  0  0
 61 73  1  0  0  0  0
 63 64  1  0  0  0  0
M  CHG  1  73   1
M  ISO  4  38 100  59 101  65 100  80 101
M  END
> <Batch ID>
0096

> <Smiles>
CNC(C)C(=O)NC(C(=O)N1Cc2cc([101O:1][101CH2:1]c3cc4c(cc3N)CCC[100N:0]4[100C:0](=O)N3CCCC(n4nc(-c5ccc(Oc6ccc(F)cc6F)cc5)c(C(N)=O)c4N)C3)ccc2CC1C(=O)NC1CCCc2ccccc21)C(C)(C)C

> <Shape>
0.208

> <Color>
0.077

> <Negative vol penalty>
0.000

$$$$

  -OEChem-04052300463D

 86 95  0     1  0  0  0  0  0999 V2000
  -19.9591  -28.7360   28.3188 C   0  0  0  0  0  0  0  0  0  0  0  0
  -20.7759  -28.1576   27.3525 C   0  0  0  0  0  0  0  0  0  0  0  0
  -22.6502  -10.2335   20.1862 C   0  0  0  0  0  0  0  0  0  0  0  0
  -24.3477   -9.3925   21.6857 C   0  0  0  0  0  0  0  0  0  0  0  0
  -29.2936  -17.0063   20.1085 C   0  0  0  0  0  0  0  0  0  0  0  0
  -28.9861  -17.4316   22.4668 C   0  0  0  0  0  0  0  0  0  0  0  0
  -20.4839  -29.0639   29.5681 C   0  0  0  0  0  0  0  0  0  0  0  0
  -22.1185  -27.9079   27.6347 C   0  0  0  0  0  0  0  0  0  0  0  0
  -23.6058  -23.3180   26.0967 C   0  0  0  0  0  0  0  0  0  0  0  0
  -28.5690  -18.1591   19.8061 C   0  0  0  0  0  0  0  0  0  0  0  0
  -28.2616  -18.5845   22.1644 C   0  0  0  0  0  0  0  0  0  0  0  0
  -21.9139   -9.0621   20.3628 C   0  0  0  0  0  0  0  0  0  0  0  0
  -23.6113   -8.2211   21.8623 C   0  0  0  0  0  0  0  0  0  0  0  0
  -23.8690  -23.1564   24.7371 C   0  0  0  0  0  0  0  0  0  0  0  0
  -20.9144   -7.2199   23.6357 C   0  0  0  0  0  0  0  0  0  0  0  0
  -20.7694   -6.7374   24.9364 C   0  0  0  0  0  0  0  0  0  0  0  0
  -26.2316  -23.3686   25.1754 C   0  0  0  0  0  0  0  0  0  0  0  0
  -21.8596   -4.6791   24.2943 C   0  0  0  0  0  0  0  0  0  0  0  0
  -23.8672  -10.3987   20.8476 C   0  0  0  0  0  0  0  0  0  0  0  0
  -29.5021  -16.6425   21.4388 C   0  0  0  0  0  0  0  0  0  0  0  0
  -24.2203  -12.9226   20.9609 C   0  0  0  0  0  0  0  0  0  0  0  0
  -21.8312  -28.8092   29.8691 C   0  0  0  0  0  0  0  0  0  0  0  0
  -24.6546  -23.5174   27.0059 C   0  0  0  0  0  0  0  0  0  0  0  0
  -22.6622  -28.2340   28.8888 C   0  0  0  0  0  0  0  0  0  0  0  0
  -25.9793  -23.5300   26.5463 C   0  0  0  0  0  0  0  0  0  0  0  0
  -28.0530  -18.9483   20.8340 C   0  0  0  0  0  0  0  0  0  0  0  0
  -22.3944   -8.0560   21.2009 C   0  0  0  0  0  0  0  0  0  0  0  0
  -25.1818  -23.1845   24.2759 C   0  0  0  0  0  0  0  0  0  0  0  0
  -21.5320   -6.4321   22.6643 C   0  0  0  0  0  0  0  0  0  0  0  0
  -21.2420   -5.4670   25.2657 C   0  0  0  0  0  0  0  0  0  0  0  0
  -22.0046   -5.1617   22.9936 C   0  0  0  0  0  0  0  0  0  0  0  0
  -24.6286  -11.6083   20.6651 C   0  0  0  0  0  0  0  0  0  0  0  0
  -25.2946  -13.7031   20.6102 C   0  0  0  0  0  0  0  0  0  0  0  0
  -27.5724  -20.8762   19.3500 C   0  0  0  0  0  0  0  0  0  0  0  0
  -30.2574  -15.4404   21.7542 C   0  0  0  0  0  0  0  0  0  0  0  0
  -22.9806  -13.3957   21.5043 C   0  0  0  0  0  0  0  0  0  0  0  0
  -30.8187  -14.5804   20.6872 C   0  0  0  0  0  0  0  0  0  0  0  0
  -25.4880  -25.8556   28.9914 C   0  0  0  0  0  0  0  0  0  0  0  0
  -27.7430  -23.7231   29.9345 C   0  0  0  0  0  0  0  0  0  0  0  0
  -29.9589  -21.3589   28.3477 C   0  0  0  0  0  0  0  0  0  0  0  0
  -22.3649  -29.2245   31.2172 C   0  0  0  0  0  0  0  0  0  0  0  0
  -24.3559  -23.6634   28.4728 C   0  0  0  0  0  0  0  0  0  0  0  0
  -27.1423  -23.7206   27.4841 C   0  0  0  0  0  0  0  0  0  0  0  0
  -26.5423  -21.9161   18.9513 C   0  0  0  0  0  0  0  0  0  0  0  0
  -23.7059  -28.5834   31.5652 C   0  0  0  0  0  0  0  0  0  0  0  0
  -25.8783  -22.6161   20.1166 C   0  0  0  0  0  0  0  0  0  0  0  0
  -29.4848  -12.5863   18.0224 C   0  0  0  0  0  0  0  0  0  0  0  0
  -24.6657  -28.6783   30.3835 C   0  0  0  0  0  0  0  0  0  0  0  0
  -28.0828  -12.2302   18.5156 C   0  0  0  0  0  0  0  0  0  0  0  0
  -30.4794  -12.6646   19.1761 C   0  0  0  0  0  0  0  0  0  0  0  0
  -26.4032  -20.6725   21.5622 C   0  0  0  0  0  0  0  0  0  0  0  0
  -28.6650  -13.2546   20.7600 C   0  0  0  0  0  0  0  0  0  0  0  0
  -24.1175  -27.9249   29.1656 C   0  0  1  0  0  0  0  0  0  0  0  0
  -25.4661  -24.3740   29.2408 C   0  0  1  0  0  0  0  0  0  0  0  0
  -25.2808  -21.5694   21.0424 C   0  0  1  0  0  0  0  0  0  0  0  0
  -27.6268  -13.1935   19.6260 C   0  0  2  0  0  0  0  0  0  0  0  0
  -30.9740  -19.2357   29.2190 C   0  0  0  0  0  0  0  0  0  0  0  0
  -30.1156  -25.4978   30.6633 C   0  0  0  0  0  0  0  0  0  0  0  0
  -31.6345  -23.6277   29.9821 C   0  0  0  0  0  0  0  0  0  0  0  0
  -30.0387  -23.3103   31.8730 C   0  0  0  0  0  0  0  0  0  0  0  0
  -28.8705  -19.7774   26.0953 C   0  0  0  0  0  0  0  0  0  0  0  0
  -24.5302  -22.2252   22.1996 C   0  0  0  0  0  0  0  0  0  1  0  0
  -29.1541  -23.3995   29.5063 C   0  0  1  0  0  0  0  0  0  0  0  0
  -29.8539  -19.8450   28.3903 C   0  0  2  0  0  0  0  0  0  0  0  0
  -30.2167  -23.9694   30.4879 C   0  0  0  0  0  0  0  0  0  0  0  0
  -25.8658  -11.5530   20.1648 N   0  0  0  0  0  0  0  0  0  0  0  0
  -30.4924  -15.0412   22.9750 N   0  0  0  0  0  0  0  0  0  0  0  0
  -26.2441  -12.8424   20.1435 N   0  0  0  0  0  0  0  0  0  0  0  0
  -27.3014  -20.1445   20.5191 N   0  0  0  0  0  0  0  0  0  0  0  0
  -29.9994  -13.5586   20.2280 N   0  0  0  0  0  0  0  0  0  0  0  0
  -26.7983  -23.8653   28.9083 N   0  0  0  0  0  0  0  0  0  0  0  0
  -25.5103  -15.0349   20.6585 N   0  0  0  0  0  0  0  0  0  0  0  0
  -22.8584  -13.5013   22.8965 N   0  0  0  0  0  0  0  0  0  0  0  0
  -24.3114  -26.4995   29.3237 N   0  0  0  0  0  0  0  0  0  0  0  0
  -29.2087  -21.9510   29.3416 N   0  0  0  0  0  0  0  0  0  0  0  0
  -29.9286  -19.2817   27.0126 N   0  3  0  0  0  0  0  0  0  0  0  0
  -28.5380  -20.7003   18.6021 O   0  0  0  0  0  0  0  0  0  0  0  0
  -22.0045  -13.6997   20.7774 O   0  0  0  0  0  0  0  0  0  0  0  0
  -31.9523  -14.8643   20.3227 O   0  0  0  0  0  0  0  0  0  0  0  0
  -26.4981  -26.3762   28.5328 O   0  0  0  0  0  0  0  0  0  0  0  0
  -27.4870  -23.8381   31.1357 O   0  0  0  0  0  0  0  0  0  0  0  0
  -30.6413  -21.9562   27.5183 O   0  0  0  0  0  0  0  0  0  0  0  0
  -21.6760   -6.9129   21.3737 O   0  0  0  0  0  0  0  0  0  0  0  0
  -25.4414  -23.0277   22.9493 O   0  0  0  0  0  0  0  0  0  1  0  0
  -21.1040   -5.0043   26.5151 F   0  0  0  0  0  0  0  0  0  0  0  0
  -22.5998   -4.4007   22.0650 F   0  0  0  0  0  0  0  0  0  0  0  0
  1  2  1  0  0  0  0
  1  7  2  0  0  0  0
  2  8  2  0  0  0  0
  3 12  2  0  0  0  0
  3 19  1  0  0  0  0
  4 13  1  0  0  0  0
  4 19  2  0  0  0  0
  5 10  2  0  0  0  0
  5 20  1  0  0  0  0
  6 11  1  0  0  0  0
  6 20  2  0  0  0  0
  7 22  1  0  0  0  0
  8 24  1  0  0  0  0
  9 14  2  0  0  0  0
  9 23  1  0  0  0  0
 10 26  1  0  0  0  0
 11 26  2  0  0  0  0
 12 27  1  0  0  0  0
 13 27  2  0  0  0  0
 14 28  1  0  0  0  0
 15 16  2  0  0  0  0
 15 29  1  0  0  0  0
 16 30  1  0  0  0  0
 17 25  1  0  0  0  0
 17 28  2  0  0  0  0
 18 30  2  0  0  0  0
 18 31  1  0  0  0  0
 19 32  1  0  0  0  0
 20 35  1  0  0  0  0
 21 32  1  0  0  0  0
 21 33  2  0  0  0  0
 21 36  1  0  0  0  0
 22 24  2  0  0  0  0
 22 41  1  0  0  0  0
 23 25  2  0  0  0  0
 23 42  1  0  0  0  0
 24 53  1  0  0  0  0
 25 43  1  0  0  0  0
 26 69  1  0  0  0  0
 27 83  1  0  0  0  0
 28 84  1  0  0  0  0
 29 31  2  0  0  0  0
 29 83  1  0  0  0  0
 30 85  1  0  0  0  0
 31 86  1  0  0  0  0
 32 66  2  0  0  0  0
 33 68  1  0  0  0  0
 33 72  1  0  0  0  0
 34 44  1  0  0  0  0
 34 69  1  0  0  0  0
 34 77  2  0  0  0  0
 35 37  1  0  0  0  0
 35 67  2  0  0  0  0
 36 73  1  0  0  0  0
 36 78  2  0  0  0  0
 37 70  1  0  0  0  0
 37 79  2  0  0  0  0
 38 54  1  0  0  0  0
 38 74  1  0  0  0  0
 38 80  2  0  0  0  0
 39 63  1  0  0  0  0
 39 71  1  0  0  0  0
 39 81  2  0  0  0  0
 40 64  1  0  0  0  0
 40 75  1  0  0  0  0
 40 82  2  0  0  0  0
 41 45  1  0  0  0  0
 42 54  1  0  0  0  0
 43 71  1  0  0  0  0
 44 46  1  0  0  0  0
 45 48  1  0  0  0  0
 46 55  1  0  0  0  0
 47 49  1  0  0  0  0
 47 50  1  0  0  0  0
 48 53  1  0  0  0  0
 49 56  1  0  0  0  0
 50 70  1  0  0  0  0
 51 55  1  0  0  0  0
 51 69  1  0  0  0  0
 52 56  1  0  0  0  0
 52 70  1  0  0  0  0
 53 74  1  0  0  0  0
 54 71  1  0  0  0  0
 55 62  1  0  0  0  0
 56 68  1  0  0  0  0
 57 64  1  0  0  0  0
 58 65  1  0  0  0  0
 59 65  1  0  0  0  0
 60 65  1  0  0  0  0
 61 76  1  0  0  0  0
 62 84  1  0  0  0  0
 63 65  1  0  0  0  0
 63 75  1  0  0  0  0
 64 76  1  0  0  0  0
 66 68  1  0  0  0  0
M  CHG  1  76   1
M  ISO  4  35 100  37 100  62 101  84 101
M  END
> <Batch ID>
0096

> <Smiles>
CNC(C)C(=O)NC(C(=O)N1Cc2cc([101O:1][101CH2:1]C3CCC(=O)N(c4ccc([100C:0](=N)[100C:0](=O)N5CCCC(n6nc(-c7ccc(Oc8ccc(F)cc8F)cc7)c(C(N)=O)c6N)C5)cc4)C3)ccc2CC1C(=O)NC1CCCc2ccccc21)C(C)(C)C

> <Shape>
0.215

> <Color>
0.175

> <Negative vol penalty>
0.000

$$$$

  -OEChem-04052300463D

 86 95  0     1  0  0  0  0  0999 V2000
  -25.8089  -38.9243   21.8721 C   0  0  0  0  0  0  0  0  0  0  0  0
  -26.3106  -38.0138   20.9477 C   0  0  0  0  0  0  0  0  0  0  0  0
  -23.7130   -9.5225   20.6423 C   0  0  0  0  0  0  0  0  0  0  0  0
  -24.2169  -10.1963   22.9071 C   0  0  0  0  0  0  0  0  0  0  0  0
  -25.6853  -38.5592   23.2120 C   0  0  0  0  0  0  0  0  0  0  0  0
  -26.6901  -36.7379   21.3629 C   0  0  0  0  0  0  0  0  0  0  0  0
  -26.9226  -29.9575   19.0631 C   0  0  0  0  0  0  0  0  0  0  0  0
  -23.1843   -8.3222   21.1170 C   0  0  0  0  0  0  0  0  0  0  0  0
  -23.6882   -8.9960   23.3818 C   0  0  0  0  0  0  0  0  0  0  0  0
  -27.8140  -28.8930   18.9367 C   0  0  0  0  0  0  0  0  0  0  0  0
  -20.3121   -7.2595   22.5502 C   0  0  0  0  0  0  0  0  0  0  0  0
  -19.0958   -6.8315   22.0181 C   0  0  0  0  0  0  0  0  0  0  0  0
  -27.4818  -28.3465   21.2627 C   0  0  0  0  0  0  0  0  0  0  0  0
  -30.0218  -18.8107   19.8664 C   0  0  0  0  0  0  0  0  0  0  0  0
  -28.1206  -20.4299   21.1100 C   0  0  0  0  0  0  0  0  0  0  0  0
  -20.1536   -4.8084   21.2275 C   0  0  0  0  0  0  0  0  0  0  0  0
  -24.2293  -10.4596   21.5373 C   0  0  0  0  0  0  0  0  0  0  0  0
  -24.0872  -12.9096   20.8410 C   0  0  0  0  0  0  0  0  0  0  0  0
  -26.0545  -37.2749   23.6421 C   0  0  0  0  0  0  0  0  0  0  0  0
  -26.3114  -30.2316   20.2950 C   0  0  0  0  0  0  0  0  0  0  0  0
  -26.5726  -36.3556   22.7100 C   0  0  0  0  0  0  0  0  0  0  0  0
  -26.5810  -29.4135   21.4014 C   0  0  0  0  0  0  0  0  0  0  0  0
  -29.9349  -20.1633   19.5370 C   0  0  0  0  0  0  0  0  0  0  0  0
  -28.9844  -20.9729   20.1588 C   0  0  0  0  0  0  0  0  0  0  0  0
  -29.1579  -18.2676   20.8175 C   0  0  0  0  0  0  0  0  0  0  0  0
  -28.2074  -19.0772   21.4393 C   0  0  0  0  0  0  0  0  0  0  0  0
  -23.1718   -8.0590   22.4867 C   0  0  0  0  0  0  0  0  0  0  0  0
  -28.0960  -28.0891   20.0373 C   0  0  0  0  0  0  0  0  0  0  0  0
  -21.4492   -6.4620   22.4208 C   0  0  0  0  0  0  0  0  0  0  0  0
  -19.0166   -5.6059   21.3568 C   0  0  0  0  0  0  0  0  0  0  0  0
  -21.3699   -5.2364   21.7595 C   0  0  0  0  0  0  0  0  0  0  0  0
  -24.7761  -11.6994   21.0476 C   0  0  0  0  0  0  0  0  0  0  0  0
  -25.0454  -13.7744   20.3715 C   0  0  0  0  0  0  0  0  0  0  0  0
  -28.6007  -22.9079   18.5714 C   0  0  0  0  0  0  0  0  0  0  0  0
  -22.7047  -13.2239   21.0547 C   0  0  0  0  0  0  0  0  0  0  0  0
  -26.3273  -32.6907   22.3091 C   0  0  0  0  0  0  0  0  0  0  0  0
  -24.0712  -30.9417   23.8496 C   0  0  0  0  0  0  0  0  0  0  0  0
  -22.7060  -27.8761   24.4703 C   0  0  0  0  0  0  0  0  0  0  0  0
  -30.1589  -15.9665   20.5957 C   0  0  0  0  0  0  0  0  0  0  0  0
  -25.9471  -36.9418   25.1092 C   0  0  0  0  0  0  0  0  0  0  0  0
  -25.3317  -31.3673   20.4082 C   0  0  0  0  0  0  0  0  0  0  0  0
  -25.9356  -29.6532   22.7410 C   0  0  0  0  0  0  0  0  0  0  0  0
  -28.4953  -24.4062   18.7423 C   0  0  0  0  0  0  0  0  0  0  0  0
  -26.0206  -35.4453   25.4010 C   0  0  0  0  0  0  0  0  0  0  0  0
  -29.7819  -12.9096   18.8094 C   0  0  0  0  0  0  0  0  0  0  0  0
  -27.1721  -34.8071   24.6305 C   0  0  0  0  0  0  0  0  0  0  0  0
  -28.3893  -12.4218   19.2155 C   0  0  0  0  0  0  0  0  0  0  0  0
  -30.5068  -13.5865   19.9713 C   0  0  0  0  0  0  0  0  0  0  0  0
  -28.9874  -23.3961   20.8459 C   0  0  0  0  0  0  0  0  0  0  0  0
  -28.3639  -14.1771   21.0336 C   0  0  0  0  0  0  0  0  0  0  0  0
  -26.9718  -34.9539   23.1173 C   0  0  1  0  0  0  0  0  0  0  0  0
  -25.1608  -31.8686   21.8389 C   0  0  1  0  0  0  0  0  0  0  0  0
  -29.2296  -24.6690   20.0493 C   0  0  2  0  0  0  0  0  0  0  0  0
  -27.5695  -13.5461   19.8784 C   0  0  2  0  0  0  0  0  0  0  0  0
  -30.8721  -20.7181   18.5138 C   0  0  0  0  0  0  0  0  0  0  0  0
  -20.8957  -26.7589   25.8016 C   0  0  0  0  0  0  0  0  0  0  0  0
  -25.7626  -31.2149   26.3744 C   0  0  0  0  0  0  0  0  0  0  0  0
  -24.4410  -29.3406   27.3787 C   0  0  0  0  0  0  0  0  0  0  0  0
  -23.3006  -31.4641   26.7360 C   0  0  0  0  0  0  0  0  0  0  0  0
  -21.3579  -26.8898   22.0273 C   0  0  0  0  0  0  0  0  0  0  0  0
  -28.7513  -25.9213   20.7634 C   0  0  0  0  0  0  0  0  0  1  0  0
  -24.0894  -29.8841   24.9268 C   0  0  1  0  0  0  0  0  0  0  0  0
  -21.2657  -27.3963   24.4714 C   0  0  2  0  0  0  0  0  0  0  0  0
  -24.4122  -30.4724   26.3294 C   0  0  0  0  0  0  0  0  0  0  0  0
  -26.0719  -11.7838   20.7346 N   0  0  0  0  0  0  0  0  0  0  0  0
  -26.2048  -13.0574   20.3267 N   0  0  0  0  0  0  0  0  0  0  0  0
  -28.8817  -22.3592   19.8366 N   0  0  0  0  0  0  0  0  0  0  0  0
  -24.9897  -30.7796   22.8027 N   0  0  0  0  0  0  0  0  0  0  0  0
  -29.6718  -14.6431   20.5469 N   0  0  0  0  0  0  0  0  0  0  0  0
  -27.3206  -18.5470   22.4034 N   0  0  0  0  0  0  0  0  0  0  0  0
  -25.0009  -15.0704   19.9966 N   0  0  0  0  0  0  0  0  0  0  0  0
  -21.8584  -12.2184   21.5413 N   0  0  0  0  0  0  0  0  0  0  0  0
  -29.2641  -16.8906   21.1343 N   0  0  0  0  0  0  0  0  0  0  0  0
  -26.0014  -33.9920   22.6403 N   0  0  0  0  0  0  0  0  0  0  0  0
  -22.8040  -29.1987   24.8477 N   0  0  0  0  0  0  0  0  0  0  0  0
  -21.0543  -26.3898   23.3929 N   0  3  0  0  0  0  0  0  0  0  0  0
  -28.4018  -22.3545   17.4995 O   0  0  0  0  0  0  0  0  0  0  0  0
  -22.2305  -14.3582   20.8054 O   0  0  0  0  0  0  0  0  0  0  0  0
  -27.4404  -32.1815   22.3685 O   0  0  0  0  0  0  0  0  0  0  0  0
  -23.2666  -31.8732   23.9303 O   0  0  0  0  0  0  0  0  0  0  0  0
  -23.6500  -27.1492   24.1689 O   0  0  0  0  0  0  0  0  0  0  0  0
  -31.2761  -16.2631   20.1647 O   0  0  0  0  0  0  0  0  0  0  0  0
  -22.6558   -6.8879   22.9503 O   0  0  0  0  0  0  0  0  0  0  0  0
  -28.9662  -27.0498   19.9168 O   0  0  0  0  0  0  0  0  0  1  0  0
  -17.8482   -5.1944   20.8473 F   0  0  0  0  0  0  0  0  0  0  0  0
  -22.4587   -4.4653   21.6331 F   0  0  0  0  0  0  0  0  0  0  0  0
  1  2  1  0  0  0  0
  1  5  2  0  0  0  0
  2  6  2  0  0  0  0
  3  8  2  0  0  0  0
  3 17  1  0  0  0  0
  4  9  1  0  0  0  0
  4 17  2  0  0  0  0
  5 19  1  0  0  0  0
  6 21  1  0  0  0  0
  7 10  2  0  0  0  0
  7 20  1  0  0  0  0
  8 27  1  0  0  0  0
  9 27  2  0  0  0  0
 10 28  1  0  0  0  0
 11 12  2  0  0  0  0
 11 29  1  0  0  0  0
 12 30  1  0  0  0  0
 13 22  1  0  0  0  0
 13 28  2  0  0  0  0
 14 23  1  0  0  0  0
 14 25  2  0  0  0  0
 15 24  1  0  0  0  0
 15 26  2  0  0  0  0
 16 30  2  0  0  0  0
 16 31  1  0  0  0  0
 17 32  1  0  0  0  0
 18 32  1  0  0  0  0
 18 33  2  0  0  0  0
 18 35  1  0  0  0  0
 19 21  2  0  0  0  0
 19 40  1  0  0  0  0
 20 22  2  0  0  0  0
 20 41  1  0  0  0  0
 21 51  1  0  0  0  0
 22 42  1  0  0  0  0
 23 24  2  0  0  0  0
 23 55  1  0  0  0  0
 24 67  1  0  0  0  0
 25 26  1  0  0  0  0
 25 73  1  0  0  0  0
 26 70  1  0  0  0  0
 27 83  1  0  0  0  0
 28 84  1  0  0  0  0
 29 31  2  0  0  0  0
 29 83  1  0  0  0  0
 30 85  1  0  0  0  0
 31 86  1  0  0  0  0
 32 65  2  0  0  0  0
 33 66  1  0  0  0  0
 33 71  1  0  0  0  0
 34 43  1  0  0  0  0
 34 67  1  0  0  0  0
 34 77  2  0  0  0  0
 35 72  1  0  0  0  0
 35 78  2  0  0  0  0
 36 52  1  0  0  0  0
 36 74  1  0  0  0  0
 36 79  2  0  0  0  0
 37 62  1  0  0  0  0
 37 68  1  0  0  0  0
 37 80  2  0  0  0  0
 38 63  1  0  0  0  0
 38 75  1  0  0  0  0
 38 81  2  0  0  0  0
 39 69  1  0  0  0  0
 39 73  1  0  0  0  0
 39 82  2  0  0  0  0
 40 44  1  0  0  0  0
 41 52  1  0  0  0  0
 42 68  1  0  0  0  0
 43 53  1  0  0  0  0
 44 46  1  0  0  0  0
 45 47  1  0  0  0  0
 45 48  1  0  0  0  0
 46 51  1  0  0  0  0
 47 54  1  0  0  0  0
 48 69  1  0  0  0  0
 49 53  1  0  0  0  0
 49 67  1  0  0  0  0
 50 54  1  0  0  0  0
 50 69  1  0  0  0  0
 51 74  1  0  0  0  0
 52 68  1  0  0  0  0
 53 61  1  0  0  0  0
 54 66  1  0  0  0  0
 56 63  1  0  0  0  0
 57 64  1  0  0  0  0
 58 64  1  0  0  0  0
 59 64  1  0  0  0  0
 60 76  1  0  0  0  0
 61 84  1  0  0  0  0
 62 64  1  0  0  0  0
 62 75  1  0  0  0  0
 63 76  1  0  0  0  0
 65 66  1  0  0  0  0
M  CHG  1  76   1
M  ISO  4  39 100  61 101  73 100  84 101
M  END
> <Batch ID>
0096

> <Smiles>
CNC(C)C(=O)NC(C(=O)N1Cc2cc([101O:1][101CH2:1]C3CC(=O)N(c4cc(N)c([100NH:0][100C:0](=O)N5CCCC(n6nc(-c7ccc(Oc8ccc(F)cc8F)cc7)c(C(N)=O)c6N)C5)cc4C)C3)ccc2CC1C(=O)NC1CCCc2ccccc21)C(C)(C)C

> <Shape>
0.377

> <Color>
0.157

> <Negative vol penalty>
0.000

$$$$

  -OEChem-04052300463D

 86 95  0     1  0  0  0  0  0999 V2000
  -25.5951  -21.9612   30.3273 C   0  0  0  0  0  0  0  0  0  0  0  0
  -25.7950  -21.9554   28.9505 C   0  0  0  0  0  0  0  0  0  0  0  0
  -22.5777  -10.4582   20.3042 C   0  0  0  0  0  0  0  0  0  0  0  0
  -24.2203   -9.6290   21.8699 C   0  0  0  0  0  0  0  0  0  0  0  0
  -24.4143  -22.4800   30.8569 C   0  0  0  0  0  0  0  0  0  0  0  0
  -24.8136  -22.4674   28.1025 C   0  0  0  0  0  0  0  0  0  0  0  0
  -26.7344  -25.4380   24.4788 C   0  0  0  0  0  0  0  0  0  0  0  0
  -21.7811   -9.3393   20.5474 C   0  0  0  0  0  0  0  0  0  0  0  0
  -23.4236   -8.5101   22.1131 C   0  0  0  0  0  0  0  0  0  0  0  0
  -27.3355  -24.8071   23.3905 C   0  0  0  0  0  0  0  0  0  0  0  0
  -19.6317   -8.2831   22.9344 C   0  0  0  0  0  0  0  0  0  0  0  0
  -18.2664   -8.4898   23.1310 C   0  0  0  0  0  0  0  0  0  0  0  0
  -25.3308  -25.1488   22.0930 C   0  0  0  0  0  0  0  0  0  0  0  0
  -29.1036  -18.8443   21.5507 C   0  0  0  0  0  0  0  0  0  0  0  0
  -17.7795   -7.0871   21.2251 C   0  0  0  0  0  0  0  0  0  0  0  0
  -28.4162  -17.6032   19.6418 C   0  0  0  0  0  0  0  0  0  0  0  0
  -23.7973  -10.6030   20.9654 C   0  0  0  0  0  0  0  0  0  0  0  0
  -24.2787  -13.1078   20.9225 C   0  0  0  0  0  0  0  0  0  0  0  0
  -23.4221  -23.0074   30.0155 C   0  0  0  0  0  0  0  0  0  0  0  0
  -25.4209  -25.9201   24.3858 C   0  0  0  0  0  0  0  0  0  0  0  0
  -23.6178  -22.9925   28.6213 C   0  0  0  0  0  0  0  0  0  0  0  0
  -24.7162  -25.7876   23.1808 C   0  0  0  0  0  0  0  0  0  0  0  0
  -29.7888  -17.7198   21.9972 C   0  0  0  0  0  0  0  0  0  0  0  0
  -28.4017  -18.7931   20.3515 C   0  0  0  0  0  0  0  0  0  0  0  0
  -22.2040   -8.3653   21.4519 C   0  0  0  0  0  0  0  0  0  0  0  0
  -26.6327  -24.6599   22.1983 C   0  0  0  0  0  0  0  0  0  0  0  0
  -20.0710   -7.4784   21.8831 C   0  0  0  0  0  0  0  0  0  0  0  0
  -17.3402   -7.8918   22.2764 C   0  0  0  0  0  0  0  0  0  0  0  0
  -19.1449   -6.8804   21.0285 C   0  0  0  0  0  0  0  0  0  0  0  0
  -24.6210  -11.7583   20.7142 C   0  0  0  0  0  0  0  0  0  0  0  0
  -29.7410  -16.5779   21.2140 C   0  0  0  0  0  0  0  0  0  0  0  0
  -25.3939  -13.8088   20.5335 C   0  0  0  0  0  0  0  0  0  0  0  0
  -26.9428  -20.0080   18.6761 C   0  0  0  0  0  0  0  0  0  0  0  0
  -23.0616  -13.6768   21.4231 C   0  0  0  0  0  0  0  0  0  0  0  0
  -30.4320  -15.3608   21.6128 C   0  0  0  0  0  0  0  0  0  0  0  0
  -30.9552  -14.4073   20.6076 C   0  0  0  0  0  0  0  0  0  0  0  0
  -22.6856  -25.2791   25.8726 C   0  0  0  0  0  0  0  0  0  0  0  0
  -21.6019  -27.7934   24.1329 C   0  0  0  0  0  0  0  0  0  0  0  0
  -21.9444  -29.7671   21.3700 C   0  0  0  0  0  0  0  0  0  0  0  0
  -22.1421  -23.5141   30.6315 C   0  0  0  0  0  0  0  0  0  0  0  0
  -24.7963  -26.6220   25.5603 C   0  0  0  0  0  0  0  0  0  0  0  0
  -23.3109  -26.3059   23.0229 C   0  0  0  0  0  0  0  0  0  0  0  0
  -26.2899  -21.3709   18.6403 C   0  0  0  0  0  0  0  0  0  0  0  0
  -21.3125  -24.3800   29.6868 C   0  0  0  0  0  0  0  0  0  0  0  0
  -29.5374  -12.3184   18.0614 C   0  0  0  0  0  0  0  0  0  0  0  0
  -21.2053  -23.7216   28.3150 C   0  0  0  0  0  0  0  0  0  0  0  0
  -28.1159  -12.0660   18.5628 C   0  0  0  0  0  0  0  0  0  0  0  0
  -30.5275  -12.4192   19.2173 C   0  0  0  0  0  0  0  0  0  0  0  0
  -27.5900  -21.1613   20.6285 C   0  0  0  0  0  0  0  0  0  0  0  0
  -28.7358  -13.2000   20.7434 C   0  0  0  0  0  0  0  0  0  0  0  0
  -22.5874  -23.5617   27.6703 C   0  0  1  0  0  0  0  0  0  0  0  0
  -23.2713  -26.6165   25.5178 C   0  0  1  0  0  0  0  0  0  0  0  0
  -27.1251  -22.1926   19.6117 C   0  0  2  0  0  0  0  0  0  0  0  0
  -27.7030  -13.1198   19.6057 C   0  0  2  0  0  0  0  0  0  0  0  0
  -30.5438  -17.7693   23.2808 C   0  0  0  0  0  0  0  0  0  0  0  0
  -20.8856  -31.7177   20.1990 C   0  0  0  0  0  0  0  0  0  0  0  0
  -19.3676  -25.9745   23.1283 C   0  0  0  0  0  0  0  0  0  0  0  0
  -18.9385  -27.6285   21.2986 C   0  0  0  0  0  0  0  0  0  0  0  0
  -18.6466  -28.3043   23.6820 C   0  0  0  0  0  0  0  0  0  0  0  0
  -24.3964  -31.4036   21.6313 C   0  0  0  0  0  0  0  0  0  0  0  0
  -26.3566  -23.3440   20.2366 C   0  0  0  0  0  0  0  0  0  1  0  0
  -20.9786  -27.9596   22.7681 C   0  0  1  0  0  0  0  0  0  0  0  0
  -21.9390  -31.2759   21.2029 C   0  0  2  0  0  0  0  0  0  0  0  0
  -19.5086  -27.4551   22.7225 C   0  0  0  0  0  0  0  0  0  0  0  0
  -29.0701  -16.4903   20.0436 N   0  0  0  0  0  0  0  0  0  0  0  0
  -25.8568  -11.6085   20.2302 N   0  0  0  0  0  0  0  0  0  0  0  0
  -30.6378  -15.0300   22.8585 N   0  0  0  0  0  0  0  0  0  0  0  0
  -26.3009  -12.8730   20.1311 N   0  0  0  0  0  0  0  0  0  0  0  0
  -27.6880  -19.9300   19.8675 N   0  0  0  0  0  0  0  0  0  0  0  0
  -30.0874  -13.4014   20.2060 N   0  0  0  0  0  0  0  0  0  0  0  0
  -22.7413  -26.9792   24.2018 N   0  0  0  0  0  0  0  0  0  0  0  0
  -25.6774  -15.1283   20.4996 N   0  0  0  0  0  0  0  0  0  0  0  0
  -22.9362  -13.8768   22.8046 N   0  0  0  0  0  0  0  0  0  0  0  0
  -23.0414  -24.8244   27.1281 N   0  0  0  0  0  0  0  0  0  0  0  0
  -21.1389  -29.3660   22.4147 N   0  0  0  0  0  0  0  0  0  0  0  0
  -23.2696  -31.7491   20.7269 N   0  3  0  0  0  0  0  0  0  0  0  0
  -26.7516  -19.1663   17.8102 O   0  0  0  0  0  0  0  0  0  0  0  0
  -22.1070  -13.9833   20.6692 O   0  0  0  0  0  0  0  0  0  0  0  0
  -32.1040  -14.6096   20.2367 O   0  0  0  0  0  0  0  0  0  0  0  0
  -21.9631  -24.7032   25.0677 O   0  0  0  0  0  0  0  0  0  0  0  0
  -21.1007  -28.3706   25.1011 O   0  0  0  0  0  0  0  0  0  0  0  0
  -22.5950  -29.0188   20.6437 O   0  0  0  0  0  0  0  0  0  0  0  0
  -21.4268   -7.2735   21.6896 O   0  0  0  0  0  0  0  0  0  0  0  0
  -27.2168  -24.0439   21.1346 O   0  0  0  0  0  0  0  0  0  1  0  0
  -16.0291   -8.0892   22.4663 F   0  0  0  0  0  0  0  0  0  0  0  0
  -19.5608   -6.1054   20.0175 F   0  0  0  0  0  0  0  0  0  0  0  0
  1  2  1  0  0  0  0
  1  5  2  0  0  0  0
  2  6  2  0  0  0  0
  3  8  2  0  0  0  0
  3 17  1  0  0  0  0
  4  9  1  0  0  0  0
  4 17  2  0  0  0  0
  5 19  1  0  0  0  0
  6 21  1  0  0  0  0
  7 10  2  0  0  0  0
  7 20  1  0  0  0  0
  8 25  1  0  0  0  0
  9 25  2  0  0  0  0
 10 26  1  0  0  0  0
 11 12  2  0  0  0  0
 11 27  1  0  0  0  0
 12 28  1  0  0  0  0
 13 22  1  0  0  0  0
 13 26  2  0  0  0  0
 14 23  1  0  0  0  0
 14 24  2  0  0  0  0
 15 28  2  0  0  0  0
 15 29  1  0  0  0  0
 16 24  1  0  0  0  0
 16 65  2  0  0  0  0
 17 30  1  0  0  0  0
 18 30  1  0  0  0  0
 18 32  2  0  0  0  0
 18 34  1  0  0  0  0
 19 21  2  0  0  0  0
 19 40  1  0  0  0  0
 20 22  2  0  0  0  0
 20 41  1  0  0  0  0
 21 51  1  0  0  0  0
 22 42  1  0  0  0  0
 23 31  2  0  0  0  0
 23 55  1  0  0  0  0
 24 69  1  0  0  0  0
 25 83  1  0  0  0  0
 26 84  1  0  0  0  0
 27 29  2  0  0  0  0
 27 83  1  0  0  0  0
 28 85  1  0  0  0  0
 29 86  1  0  0  0  0
 30 66  2  0  0  0  0
 31 35  1  0  0  0  0
 31 65  1  0  0  0  0
 32 68  1  0  0  0  0
 32 72  1  0  0  0  0
 33 43  1  0  0  0  0
 33 69  1  0  0  0  0
 33 77  2  0  0  0  0
 34 73  1  0  0  0  0
 34 78  2  0  0  0  0
 35 36  1  0  0  0  0
 35 67  2  0  0  0  0
 36 70  1  0  0  0  0
 36 79  2  0  0  0  0
 37 52  1  0  0  0  0
 37 74  1  0  0  0  0
 37 80  2  0  0  0  0
 38 62  1  0  0  0  0
 38 71  1  0  0  0  0
 38 81  2  0  0  0  0
 39 63  1  0  0  0  0
 39 75  1  0  0  0  0
 39 82  2  0  0  0  0
 40 44  1  0  0  0  0
 41 52  1  0  0  0  0
 42 71  1  0  0  0  0
 43 53  1  0  0  0  0
 44 46  1  0  0  0  0
 45 47  1  0  0  0  0
 45 48  1  0  0  0  0
 46 51  1  0  0  0  0
 47 54  1  0  0  0  0
 48 70  1  0  0  0  0
 49 53  1  0  0  0  0
 49 69  1  0  0  0  0
 50 54  1  0  0  0  0
 50 70  1  0  0  0  0
 51 74  1  0  0  0  0
 52 71  1  0  0  0  0
 53 61  1  0  0  0  0
 54 68  1  0  0  0  0
 56 63  1  0  0  0  0
 57 64  1  0  0  0  0
 58 64  1  0  0  0  0
 59 64  1  0  0  0  0
 60 76  1  0  0  0  0
 61 84  1  0  0  0  0
 62 64  1  0  0  0  0
 62 75  1  0  0  0  0
 63 76  1  0  0  0  0
 66 68  1  0  0  0  0
M  CHG  1  76   1
M  ISO  4  35 100  36 100  61 101  84 101
M  END
> <Batch ID>
0096

> <Smiles>
CNC(C)C(=O)NC(C(=O)N1Cc2cc([101O:1][101CH2:1]C3CC(=O)N(c4cnc([100C:0](=N)[100C:0](=O)N5CCCC(n6nc(-c7ccc(Oc8ccc(F)cc8F)cc7)c(C(N)=O)c6N)C5)c(C)c4)C3)ccc2CC1C(=O)NC1CCCc2ccccc21)C(C)(C)C

> <Shape>
0.267

> <Color>
0.182

> <Negative vol penalty>
0.000

$$$$

  -OEChem-04052300463D

 88 97  0     1  0  0  0  0  0999 V2000
  -20.1502   -9.8103   19.7460 C   0  0  0  0  0  0  0  0  0  0  0  0
  -20.1713  -11.0678   20.3407 C   0  0  0  0  0  0  0  0  0  0  0  0
  -24.5819  -29.0549   19.1212 C   0  0  0  0  0  0  0  0  0  0  0  0
  -26.8676  -28.8603   19.8792 C   0  0  0  0  0  0  0  0  0  0  0  0
  -21.2710   -8.9848   19.8236 C   0  0  0  0  0  0  0  0  0  0  0  0
  -21.3131  -11.5000   21.0144 C   0  0  0  0  0  0  0  0  0  0  0  0
  -24.7407  -17.5145   19.0221 C   0  0  0  0  0  0  0  0  0  0  0  0
  -29.7543  -24.4527   17.2287 C   0  0  0  0  0  0  0  0  0  0  0  0
  -30.5717  -25.0364   16.2609 C   0  0  0  0  0  0  0  0  0  0  0  0
  -24.3174  -29.9583   20.1505 C   0  0  0  0  0  0  0  0  0  0  0  0
  -26.6031  -29.7637   20.9085 C   0  0  0  0  0  0  0  0  0  0  0  0
  -25.3301  -18.7651   18.8356 C   0  0  0  0  0  0  0  0  0  0  0  0
  -25.1191  -29.7150   23.9460 C   0  0  0  0  0  0  0  0  0  0  0  0
  -25.5916  -29.4018   25.2204 C   0  0  0  0  0  0  0  0  0  0  0  0
  -26.9632  -18.2625   20.5469 C   0  0  0  0  0  0  0  0  0  0  0  0
  -30.3389  -26.2087   18.7817 C   0  0  0  0  0  0  0  0  0  0  0  0
  -26.9080  -31.4277   25.2301 C   0  0  0  0  0  0  0  0  0  0  0  0
  -25.8570  -28.5058   18.9855 C   0  0  0  0  0  0  0  0  0  0  0  0
  -25.5062  -26.3302   17.7006 C   0  0  0  0  0  0  0  0  0  0  0  0
  -22.4305   -9.4110   20.4904 C   0  0  0  0  0  0  0  0  0  0  0  0
  -25.2704  -16.6260   19.9621 C   0  0  0  0  0  0  0  0  0  0  0  0
  -22.4501  -10.6789   21.1022 C   0  0  0  0  0  0  0  0  0  0  0  0
  -26.3847  -17.0036   20.7293 C   0  0  0  0  0  0  0  0  0  0  0  0
  -29.6378  -25.0388   18.4891 C   0  0  0  0  0  0  0  0  0  0  0  0
  -31.2727  -26.2063   16.5534 C   0  0  0  0  0  0  0  0  0  0  0  0
  -31.1563  -26.7924   17.8138 C   0  0  0  0  0  0  0  0  0  0  0  0
  -25.3280  -30.3127   21.0442 C   0  0  0  0  0  0  0  0  0  0  0  0
  -26.4385  -19.1382   19.5963 C   0  0  0  0  0  0  0  0  0  0  0  0
  -25.5410  -30.8845   23.3135 C   0  0  0  0  0  0  0  0  0  0  0  0
  -26.4860  -30.2582   25.8625 C   0  0  0  0  0  0  0  0  0  0  0  0
  -26.4355  -31.7409   23.9556 C   0  0  0  0  0  0  0  0  0  0  0  0
  -26.1306  -27.5722   17.9228 C   0  0  0  0  0  0  0  0  0  0  0  0
  -26.1176  -25.8351   16.5747 C   0  0  0  0  0  0  0  0  0  0  0  0
  -28.1807  -25.2872   20.4449 C   0  0  0  0  0  0  0  0  0  0  0  0
  -28.6352  -23.0197   19.4613 C   0  0  0  0  0  0  0  0  0  0  0  0
  -24.4664  -25.6821   18.4452 C   0  0  0  0  0  0  0  0  0  0  0  0
  -25.0543  -13.2539   21.5924 C   0  0  0  0  0  0  0  0  0  0  0  0
  -28.0323  -13.8371   21.1428 C   0  0  0  0  0  0  0  0  0  0  0  0
  -31.3918  -13.6468   20.5818 C   0  0  0  0  0  0  0  0  0  0  0  0
  -31.6233  -27.2274   14.2895 C   0  0  0  0  0  0  0  0  0  0  0  0
  -23.6008   -8.4646   20.5886 C   0  0  0  0  0  0  0  0  0  0  0  0
  -24.6305  -15.2929   20.2398 C   0  0  0  0  0  0  0  0  0  0  0  0
  -26.8993  -16.0290   21.7532 C   0  0  0  0  0  0  0  0  0  0  0  0
  -27.4345  -24.6261   21.5853 C   0  0  0  0  0  0  0  0  0  0  0  0
  -24.9031   -9.1469   20.9992 C   0  0  0  0  0  0  0  0  0  0  0  0
  -27.7334  -23.1539   21.7463 C   0  0  0  0  0  0  0  0  0  0  0  0
  -28.3428  -27.2194   12.5773 C   0  0  0  0  0  0  0  0  0  0  0  0
  -24.6672  -10.0786   22.1838 C   0  0  0  0  0  0  0  0  0  0  0  0
  -27.3535  -27.2888   13.7391 C   0  0  0  0  0  0  0  0  0  0  0  0
  -29.6699  -27.8881   12.9227 C   0  0  0  0  0  0  0  0  0  0  0  0
  -29.3119  -27.4190   15.3296 C   0  0  0  0  0  0  0  0  0  0  0  0
  -23.6787  -11.1932   21.8207 C   0  0  1  0  0  0  0  0  0  0  0  0
  -27.5616  -22.4811   20.3962 C   0  0  2  0  0  0  0  0  0  0  0  0
  -25.6511  -14.1942   20.5869 C   0  0  1  0  0  0  0  0  0  0  0  0
  -27.9812  -26.7166   15.0209 C   0  0  1  0  0  0  0  0  0  0  0  0
  -33.4779  -12.5661   21.4635 C   0  0  0  0  0  0  0  0  0  0  0  0
  -28.0605  -15.8028   23.4750 C   0  0  0  0  0  0  0  0  0  0  0  0
  -30.5098  -15.3524   23.7326 C   0  0  0  0  0  0  0  0  0  0  0  0
  -28.8643  -13.5027   24.0390 C   0  0  0  0  0  0  0  0  0  0  0  0
  -33.5597  -26.6900   15.7012 C   0  0  0  0  0  0  0  0  0  0  0  0
  -31.8822  -12.2393   18.0250 C   0  0  0  0  0  0  0  0  0  0  0  0
  -27.6416  -20.9626   20.5351 C   0  0  0  0  0  0  0  0  0  1  0  0
  -29.3133  -14.3897   21.7144 C   0  0  1  0  0  0  0  0  0  0  0  0
  -32.3293  -12.4579   20.4727 C   0  0  2  0  0  0  0  0  0  0  0  0
  -29.1765  -14.7712   23.2155 C   0  0  0  0  0  0  0  0  0  0  0  0
  -27.0670  -27.8489   17.0114 N   0  0  0  0  0  0  0  0  0  0  0  0
  -27.0355  -26.7738   16.2056 N   0  0  0  0  0  0  0  0  0  0  0  0
  -28.7881  -24.4320   19.4945 N   0  0  0  0  0  0  0  0  0  0  0  0
  -26.9069  -14.6687   21.1926 N   0  0  0  0  0  0  0  0  0  0  0  0
  -30.2257  -27.3761   14.1763 N   0  0  0  0  0  0  0  0  0  0  0  0
  -31.8573  -27.9776   18.1313 N   0  0  0  0  0  0  0  0  0  0  0  0
  -25.9542  -24.6926   15.8744 N   0  0  0  0  0  0  0  0  0  0  0  0
  -23.9506  -26.3304   19.5757 N   0  0  0  0  0  0  0  0  0  0  0  0
  -24.3355  -12.2146   21.0333 N   0  0  0  0  0  0  0  0  0  0  0  0
  -30.3445  -13.3942   21.4425 N   0  0  0  0  0  0  0  0  0  0  0  0
  -32.1114  -26.7912   15.5359 N   0  0  0  0  0  0  0  0  0  0  0  0
  -32.9002  -12.3728   19.0987 N   0  3  0  0  0  0  0  0  0  0  0  0
  -28.1423  -26.5196   20.3682 O   0  0  0  0  0  0  0  0  0  0  0  0
  -29.3016  -22.2504   18.7659 O   0  0  0  0  0  0  0  0  0  0  0  0
  -24.0196  -24.5539   18.1272 O   0  0  0  0  0  0  0  0  0  0  0  0
  -25.2334  -13.4545   22.7879 O   0  0  0  0  0  0  0  0  0  0  0  0
  -28.0253  -12.6972   20.6695 O   0  0  0  0  0  0  0  0  0  0  0  0
  -31.5725  -14.6962   19.9681 O   0  0  0  0  0  0  0  0  0  0  0  0
  -32.3893  -27.5166   13.3620 O   0  0  0  0  0  0  0  0  0  0  0  0
  -25.0704  -31.1944   22.0486 O   0  0  0  0  0  0  0  0  0  0  0  0
  -27.0118  -20.3588   19.4060 O   0  0  0  0  0  0  0  0  0  1  0  0
  -26.9386  -29.9581   27.0870 F   0  0  0  0  0  0  0  0  0  0  0  0
  -26.8435  -32.8664   23.3536 F   0  0  0  0  0  0  0  0  0  0  0  0
  1  2  1  0  0  0  0
  1  5  2  0  0  0  0
  2  6  2  0  0  0  0
  3 10  2  0  0  0  0
  3 18  1  0  0  0  0
  4 11  1  0  0  0  0
  4 18  2  0  0  0  0
  5 20  1  0  0  0  0
  6 22  1  0  0  0  0
  7 12  2  0  0  0  0
  7 21  1  0  0  0  0
  8  9  2  0  0  0  0
  8 24  1  0  0  0  0
  9 25  1  0  0  0  0
 10 27  1  0  0  0  0
 11 27  2  0  0  0  0
 12 28  1  0  0  0  0
 13 14  2  0  0  0  0
 13 29  1  0  0  0  0
 14 30  1  0  0  0  0
 15 23  1  0  0  0  0
 15 28  2  0  0  0  0
 16 24  2  0  0  0  0
 16 26  1  0  0  0  0
 17 30  2  0  0  0  0
 17 31  1  0  0  0  0
 18 32  1  0  0  0  0
 19 32  1  0  0  0  0
 19 33  2  0  0  0  0
 19 36  1  0  0  0  0
 20 22  2  0  0  0  0
 20 41  1  0  0  0  0
 21 23  2  0  0  0  0
 21 42  1  0  0  0  0
 22 52  1  0  0  0  0
 23 43  1  0  0  0  0
 24 68  1  0  0  0  0
 25 26  2  0  0  0  0
 25 76  1  0  0  0  0
 26 71  1  0  0  0  0
 27 85  1  0  0  0  0
 28 86  1  0  0  0  0
 29 31  2  0  0  0  0
 29 85  1  0  0  0  0
 30 87  1  0  0  0  0
 31 88  1  0  0  0  0
 32 66  2  0  0  0  0
 33 67  1  0  0  0  0
 33 72  1  0  0  0  0
 34 44  1  0  0  0  0
 34 68  1  0  0  0  0
 34 78  2  0  0  0  0
 35 53  1  0  0  0  0
 35 68  1  0  0  0  0
 35 79  2  0  0  0  0
 36 73  1  0  0  0  0
 36 80  2  0  0  0  0
 37 54  1  0  0  0  0
 37 74  1  0  0  0  0
 37 81  2  0  0  0  0
 38 63  1  0  0  0  0
 38 69  1  0  0  0  0
 38 82  2  0  0  0  0
 39 64  1  0  0  0  0
 39 75  1  0  0  0  0
 39 83  2  0  0  0  0
 40 70  1  0  0  0  0
 40 76  1  0  0  0  0
 40 84  2  0  0  0  0
 41 45  1  0  0  0  0
 42 54  1  0  0  0  0
 43 69  1  0  0  0  0
 44 46  1  0  0  0  0
 45 48  1  0  0  0  0
 46 53  1  0  0  0  0
 47 49  1  0  0  0  0
 47 50  1  0  0  0  0
 48 52  1  0  0  0  0
 49 55  1  0  0  0  0
 50 70  1  0  0  0  0
 51 55  1  0  0  0  0
 51 70  1  0  0  0  0
 52 74  1  0  0  0  0
 53 62  1  0  0  0  0
 54 69  1  0  0  0  0
 55 67  1  0  0  0  0
 56 64  1  0  0  0  0
 57 65  1  0  0  0  0
 58 65  1  0  0  0  0
 59 65  1  0  0  0  0
 60 76  1  0  0  0  0
 61 77  1  0  0  0  0
 62 86  1  0  0  0  0
 63 65  1  0  0  0  0
 63 75  1  0  0  0  0
 64 77  1  0  0  0  0
 66 67  1  0  0  0  0
M  CHG  1  77   1
M  ISO  4  40 100  62 101  76 100  86 101
M  END
> <Batch ID>
0096

> <Smiles>
CNC(C)C(=O)NC(C(=O)N1Cc2cc([101O:1][101CH2:1]C3CCC(=O)N(c4ccc([100N:0](C)[100C:0](=O)N5CCCC(n6nc(-c7ccc(Oc8ccc(F)cc8F)cc7)c(C(N)=O)c6N)C5)c(N)c4)C3=O)ccc2CC1C(=O)NC1CCCc2ccccc21)C(C)(C)C

> <Shape>
0.259

> <Color>
0.058

> <Negative vol penalty>
0.000

$$$$

  -OEChem-04052300463D

 90 99  0     1  0  0  0  0  0999 V2000
  -21.0154  -34.1138   24.5598 C   0  0  0  0  0  0  0  0  0  0  0  0
  -22.2377  -33.5565   24.1979 C   0  0  0  0  0  0  0  0  0  0  0  0
  -20.8424  -10.5776   21.5924 C   0  0  0  0  0  0  0  0  0  0  0  0
  -23.0215  -10.0677   22.5027 C   0  0  0  0  0  0  0  0  0  0  0  0
  -19.8894  -33.3010   24.6840 C   0  0  0  0  0  0  0  0  0  0  0  0
  -22.3348  -32.1858   23.9609 C   0  0  0  0  0  0  0  0  0  0  0  0
  -25.9184  -29.4061   19.8455 C   0  0  0  0  0  0  0  0  0  0  0  0
  -20.6248   -9.2208   21.3531 C   0  0  0  0  0  0  0  0  0  0  0  0
  -22.8039   -8.7108   22.2634 C   0  0  0  0  0  0  0  0  0  0  0  0
  -27.1575  -28.7763   19.9540 C   0  0  0  0  0  0  0  0  0  0  0  0
  -21.1109   -6.1684   23.7092 C   0  0  0  0  0  0  0  0  0  0  0  0
  -21.4455   -5.2713   24.7235 C   0  0  0  0  0  0  0  0  0  0  0  0
  -29.8592  -20.5767   19.8536 C   0  0  0  0  0  0  0  0  0  0  0  0
  -26.0488  -26.6438   20.1594 C   0  0  0  0  0  0  0  0  0  0  0  0
  -28.2279  -22.1756   18.2521 C   0  0  0  0  0  0  0  0  0  0  0  0
  -23.0109   -4.1799   23.2417 C   0  0  0  0  0  0  0  0  0  0  0  0
  -22.0407  -11.0011   22.1672 C   0  0  0  0  0  0  0  0  0  0  0  0
  -28.4741  -20.5407   20.0138 C   0  0  0  0  0  0  0  0  0  0  0  0
  -21.9474  -13.1223   23.5812 C   0  0  0  0  0  0  0  0  0  0  0  0
  -19.9707  -31.9211   24.4390 C   0  0  0  0  0  0  0  0  0  0  0  0
  -24.7329  -28.6595   19.9041 C   0  0  0  0  0  0  0  0  0  0  0  0
  -21.2092  -31.3535   24.0832 C   0  0  0  0  0  0  0  0  0  0  0  0
  -24.7960  -27.2662   20.0488 C   0  0  0  0  0  0  0  0  0  0  0  0
  -27.6584  -21.3401   19.2130 C   0  0  0  0  0  0  0  0  0  0  0  0
  -29.6130  -22.2116   18.0919 C   0  0  0  0  0  0  0  0  0  0  0  0
  -30.4287  -21.4122   18.8927 C   0  0  0  0  0  0  0  0  0  0  0  0
  -21.6055   -8.2874   21.6886 C   0  0  0  0  0  0  0  0  0  0  0  0
  -27.2228  -27.3953   20.1139 C   0  0  0  0  0  0  0  0  0  0  0  0
  -21.7262   -6.0713   22.4612 C   0  0  0  0  0  0  0  0  0  0  0  0
  -22.3955   -4.2770   24.4897 C   0  0  0  0  0  0  0  0  0  0  0  0
  -22.6762   -5.0771   22.2274 C   0  0  0  0  0  0  0  0  0  0  0  0
  -22.2663  -12.4026   22.4141 C   0  0  0  0  0  0  0  0  0  0  0  0
  -22.3592  -14.4056   23.3165 C   0  0  0  0  0  0  0  0  0  0  0  0
  -32.1462  -24.5855   17.4072 C   0  0  0  0  0  0  0  0  0  0  0  0
  -27.8910  -19.6494   21.0383 C   0  0  0  0  0  0  0  0  0  0  0  0
  -21.3339  -12.6711   24.7960 C   0  0  0  0  0  0  0  0  0  0  0  0
  -22.2202  -28.5891   21.8496 C   0  0  0  0  0  0  0  0  0  0  0  0
  -21.0706  -26.4955   19.6548 C   0  0  0  0  0  0  0  0  0  0  0  0
  -21.7288  -24.2396   17.1801 C   0  0  0  0  0  0  0  0  0  0  0  0
  -26.3710  -17.7339   21.4824 C   0  0  0  0  0  0  0  0  0  0  0  0
  -18.7368  -31.0756   24.6319 C   0  0  0  0  0  0  0  0  0  0  0  0
  -23.4050  -29.3508   19.7587 C   0  0  0  0  0  0  0  0  0  0  0  0
  -23.5532  -26.4168   20.0973 C   0  0  0  0  0  0  0  0  0  0  0  0
  -32.7254  -25.7960   18.1130 C   0  0  0  0  0  0  0  0  0  0  0  0
  -18.8421  -29.6908   23.9983 C   0  0  0  0  0  0  0  0  0  0  0  0
  -31.7221  -26.8931   18.4097 C   0  0  0  0  0  0  0  0  0  0  0  0
  -23.8344  -16.5921   19.0288 C   0  0  0  0  0  0  0  0  0  0  0  0
  -20.1813  -29.0466   24.3428 C   0  0  0  0  0  0  0  0  0  0  0  0
  -23.2322  -15.4051   19.7725 C   0  0  0  0  0  0  0  0  0  0  0  0
  -25.3130  -16.7912   19.3593 C   0  0  0  0  0  0  0  0  0  0  0  0
  -29.8683  -25.2583   18.2482 C   0  0  0  0  0  0  0  0  0  0  0  0
  -24.9733  -15.7107   21.5713 C   0  0  0  0  0  0  0  0  0  0  0  0
  -21.3493  -29.8748   23.7937 C   0  0  1  0  0  0  0  0  0  0  0  0
  -22.2472  -28.5509   20.3478 C   0  0  1  0  0  0  0  0  0  0  0  0
  -30.5293  -26.2989   19.1466 C   0  0  2  0  0  0  0  0  0  0  0  0
  -23.4749  -15.5399   21.2826 C   0  0  2  0  0  0  0  0  0  0  0  0
  -26.1728  -21.3194   19.3666 C   0  0  0  0  0  0  0  0  0  0  0  0
  -20.5866  -22.6608   15.5989 C   0  0  0  0  0  0  0  0  0  0  0  0
  -20.6005  -24.5407   21.9500 C   0  0  0  0  0  0  0  0  0  0  0  0
  -20.3766  -22.7122   20.2545 C   0  0  0  0  0  0  0  0  0  0  0  0
  -18.7657  -24.6169   20.2523 C   0  0  0  0  0  0  0  0  0  0  0  0
  -22.7866  -25.6633   14.8109 C   0  0  0  0  0  0  0  0  0  0  0  0
  -30.1989  -23.1197   17.0496 C   0  0  0  0  0  0  0  0  0  0  0  0
  -29.5319  -27.3841   19.5447 C   0  0  0  0  0  0  0  0  0  1  0  0
  -21.1382  -24.9991   19.4667 C   0  0  1  0  0  0  0  0  0  0  0  0
  -21.1375  -24.0650   15.7929 C   0  0  2  0  0  0  0  0  0  0  0  0
  -20.2438  -24.2331   20.4819 C   0  0  0  0  0  0  0  0  0  0  0  0
  -22.8365  -13.1654   21.4776 N   0  0  0  0  0  0  0  0  0  0  0  0
  -22.8791  -14.3777   22.0560 N   0  0  0  0  0  0  0  0  0  0  0  0
  -30.8004  -24.3088   17.6384 N   0  0  0  0  0  0  0  0  0  0  0  0
  -22.2785  -27.1400   19.9571 N   0  0  0  0  0  0  0  0  0  0  0  0
  -25.5564  -16.8194   20.8081 N   0  0  0  0  0  0  0  0  0  0  0  0
  -31.8330  -21.4360   18.7444 N   0  0  0  0  0  0  0  0  0  0  0  0
  -22.3235  -15.5439   24.0414 N   0  0  0  0  0  0  0  0  0  0  0  0
  -20.9733  -11.3208   24.9009 N   0  0  0  0  0  0  0  0  0  0  0  0
  -27.0388  -18.6956   20.6319 N   0  0  0  0  0  0  0  0  0  0  0  0
  -21.5047  -29.6493   22.3726 N   0  0  0  0  0  0  0  0  0  0  0  0
  -20.8052  -24.7480   18.0687 N   0  0  0  0  0  0  0  0  0  0  0  0
  -28.2453  -19.8532   22.3069 N   0  3  0  0  0  0  0  0  0  0  0  0
  -22.1759  -24.3103   14.7525 N   0  3  0  0  0  0  0  0  0  0  0  0
  -32.8956  -23.8682   16.7386 O   0  0  0  0  0  0  0  0  0  0  0  0
  -21.0971  -13.4459   25.7536 O   0  0  0  0  0  0  0  0  0  0  0  0
  -22.8040  -27.7203   22.4868 O   0  0  0  0  0  0  0  0  0  0  0  0
  -19.9872  -27.0722   19.5309 O   0  0  0  0  0  0  0  0  0  0  0  0
  -22.8925  -23.9501   17.4494 O   0  0  0  0  0  0  0  0  0  0  0  0
  -26.5715  -17.7540   22.6920 O   0  0  0  0  0  0  0  0  0  0  0  0
  -21.3935   -6.9633   21.4555 O   0  0  0  0  0  0  0  0  0  0  0  0
  -28.4309  -26.7781   20.2207 O   0  0  0  0  0  0  0  0  0  1  0  0
  -22.7178   -3.4165   25.4643 F   0  0  0  0  0  0  0  0  0  0  0  0
  -23.2716   -4.9796   21.0308 F   0  0  0  0  0  0  0  0  0  0  0  0
  1  2  1  0  0  0  0
  1  5  2  0  0  0  0
  2  6  2  0  0  0  0
  3  8  2  0  0  0  0
  3 17  1  0  0  0  0
  4  9  1  0  0  0  0
  4 17  2  0  0  0  0
  5 20  1  0  0  0  0
  6 22  1  0  0  0  0
  7 10  2  0  0  0  0
  7 21  1  0  0  0  0
  8 27  1  0  0  0  0
  9 27  2  0  0  0  0
 10 28  1  0  0  0  0
 11 12  2  0  0  0  0
 11 29  1  0  0  0  0
 12 30  1  0  0  0  0
 13 18  2  0  0  0  0
 13 26  1  0  0  0  0
 14 23  1  0  0  0  0
 14 28  2  0  0  0  0
 15 24  2  0  0  0  0
 15 25  1  0  0  0  0
 16 30  2  0  0  0  0
 16 31  1  0  0  0  0
 17 32  1  0  0  0  0
 18 24  1  0  0  0  0
 18 35  1  0  0  0  0
 19 32  1  0  0  0  0
 19 33  2  0  0  0  0
 19 36  1  0  0  0  0
 20 22  2  0  0  0  0
 20 41  1  0  0  0  0
 21 23  2  0  0  0  0
 21 42  1  0  0  0  0
 22 53  1  0  0  0  0
 23 43  1  0  0  0  0
 24 57  1  0  0  0  0
 25 26  2  0  0  0  0
 25 63  1  0  0  0  0
 26 73  1  0  0  0  0
 27 87  1  0  0  0  0
 28 88  1  0  0  0  0
 29 31  2  0  0  0  0
 29 87  1  0  0  0  0
 30 89  1  0  0  0  0
 31 90  1  0  0  0  0
 32 68  2  0  0  0  0
 33 69  1  0  0  0  0
 33 74  1  0  0  0  0
 34 44  1  0  0  0  0
 34 70  1  0  0  0  0
 34 81  2  0  0  0  0
 35 76  1  0  0  0  0
 35 79  2  0  0  0  0
 36 75  1  0  0  0  0
 36 82  2  0  0  0  0
 37 54  1  0  0  0  0
 37 77  1  0  0  0  0
 37 83  2  0  0  0  0
 38 65  1  0  0  0  0
 38 71  1  0  0  0  0
 38 84  2  0  0  0  0
 39 66  1  0  0  0  0
 39 78  1  0  0  0  0
 39 85  2  0  0  0  0
 40 72  1  0  0  0  0
 40 76  1  0  0  0  0
 40 86  2  0  0  0  0
 41 45  1  0  0  0  0
 42 54  1  0  0  0  0
 43 71  1  0  0  0  0
 44 46  1  0  0  0  0
 45 48  1  0  0  0  0
 46 55  1  0  0  0  0
 47 49  1  0  0  0  0
 47 50  1  0  0  0  0
 48 53  1  0  0  0  0
 49 56  1  0  0  0  0
 50 72  1  0  0  0  0
 51 55  1  0  0  0  0
 51 70  1  0  0  0  0
 52 56  1  0  0  0  0
 52 72  1  0  0  0  0
 53 77  1  0  0  0  0
 54 71  1  0  0  0  0
 55 64  1  0  0  0  0
 56 69  1  0  0  0  0
 58 66  1  0  0  0  0
 59 67  1  0  0  0  0
 60 67  1  0  0  0  0
 61 67  1  0  0  0  0
 62 80  1  0  0  0  0
 63 70  1  0  0  0  0
 64 88  1  0  0  0  0
 65 67  1  0  0  0  0
 65 78  1  0  0  0  0
 66 80  1  0  0  0  0
 68 69  1  0  0  0  0
M  CHG  2  79   1  80   1
M  ISO  4  40 100  64 101  76 100  88 101
M  END
> <Batch ID>
0096

> <Smiles>
CNC(C)C(=O)NC(C(=O)N1Cc2cc([101O:1][101CH2:1]C3CCC(=O)N(Cc4cc(C)c(C(=N)[100NH:0][100C:0](=O)N5CCCC(n6nc(-c7ccc(Oc8ccc(F)cc8F)cc7)c(C(N)=O)c6N)C5)cc4N)C3)ccc2CC1C(=O)NC1CCCc2ccccc21)C(C)(C)C

> <Shape>
0.243

> <Color>
0.088

> <Negative vol penalty>
0.000

$$$$

  -OEChem-04052300463D

 87 96  0     1  0  0  0  0  0999 V2000
  -18.3748  -28.1866   18.7636 C   0  0  0  0  0  0  0  0  0  0  0  0
  -19.7561  -28.0589   18.6578 C   0  0  0  0  0  0  0  0  0  0  0  0
  -24.8514   -8.7631   21.9274 C   0  0  0  0  0  0  0  0  0  0  0  0
  -23.2298  -10.3532   21.1032 C   0  0  0  0  0  0  0  0  0  0  0  0
  -17.8251  -29.0056   19.7489 C   0  0  0  0  0  0  0  0  0  0  0  0
  -20.5885  -28.7512   19.5366 C   0  0  0  0  0  0  0  0  0  0  0  0
  -24.3374  -25.8647   21.3419 C   0  0  0  0  0  0  0  0  0  0  0  0
  -30.8462  -20.8032   18.4453 C   0  0  0  0  0  0  0  0  0  0  0  0
  -28.8920  -21.2133   19.8054 C   0  0  0  0  0  0  0  0  0  0  0  0
  -30.3969  -19.5076   18.1902 C   0  0  0  0  0  0  0  0  0  0  0  0
  -28.4426  -19.9176   19.5502 C   0  0  0  0  0  0  0  0  0  0  0  0
  -23.8949   -7.7505   21.8558 C   0  0  0  0  0  0  0  0  0  0  0  0
  -22.2732   -9.3405   21.0316 C   0  0  0  0  0  0  0  0  0  0  0  0
  -25.4263  -25.6364   20.5017 C   0  0  0  0  0  0  0  0  0  0  0  0
  -21.2565   -6.6835   23.6792 C   0  0  0  0  0  0  0  0  0  0  0  0
  -21.1524   -5.8135   24.7645 C   0  0  0  0  0  0  0  0  0  0  0  0
  -26.6748  -27.3402   21.6668 C   0  0  0  0  0  0  0  0  0  0  0  0
  -21.6723   -3.9485   23.3193 C   0  0  0  0  0  0  0  0  0  0  0  0
  -24.5189  -10.0645   21.5511 C   0  0  0  0  0  0  0  0  0  0  0  0
  -26.1918  -11.5533   22.7728 C   0  0  0  0  0  0  0  0  0  0  0  0
  -18.6510  -29.7007   20.6464 C   0  0  0  0  0  0  0  0  0  0  0  0
  -24.4053  -26.8417   22.3455 C   0  0  0  0  0  0  0  0  0  0  0  0
  -20.0493  -29.5814   20.5340 C   0  0  0  0  0  0  0  0  0  0  0  0
  -25.5863  -27.5772   22.5201 C   0  0  0  0  0  0  0  0  0  0  0  0
  -30.0938  -21.6560   19.2529 C   0  0  0  0  0  0  0  0  0  0  0  0
  -29.1950  -19.0648   18.7426 C   0  0  0  0  0  0  0  0  0  0  0  0
  -22.6058   -8.0392   21.4079 C   0  0  0  0  0  0  0  0  0  0  0  0
  -26.5942  -26.3762   20.6622 C   0  0  0  0  0  0  0  0  0  0  0  0
  -21.5684   -6.1861   22.4139 C   0  0  0  0  0  0  0  0  0  0  0  0
  -21.3603   -4.4460   24.5845 C   0  0  0  0  0  0  0  0  0  0  0  0
  -21.7764   -4.8186   22.2340 C   0  0  0  0  0  0  0  0  0  0  0  0
  -25.5064  -11.1112   21.6254 C   0  0  0  0  0  0  0  0  0  0  0  0
  -27.0120  -12.5565   22.3174 C   0  0  0  0  0  0  0  0  0  0  0  0
  -31.9350  -23.2911   19.5477 C   0  0  0  0  0  0  0  0  0  0  0  0
  -26.0958  -11.0978   24.1289 C   0  0  0  0  0  0  0  0  0  0  0  0
  -22.8264  -29.5287   22.9708 C   0  0  0  0  0  0  0  0  0  0  0  0
  -24.5966  -29.4771   25.6885 C   0  0  0  0  0  0  0  0  0  0  0  0
  -28.0072  -28.7275   26.5959 C   0  0  0  0  0  0  0  0  0  0  0  0
  -27.9450  -17.0228   19.4198 C   0  0  0  0  0  0  0  0  0  0  0  0
  -18.0118  -30.6113   21.6648 C   0  0  0  0  0  0  0  0  0  0  0  0
  -23.2313  -27.0573   23.2608 C   0  0  0  0  0  0  0  0  0  0  0  0
  -25.7172  -28.6235   23.5955 C   0  0  0  0  0  0  0  0  0  0  0  0
  -32.3145  -24.7596   19.5193 C   0  0  0  0  0  0  0  0  0  0  0  0
  -18.9539  -31.0169   22.7954 C   0  0  0  0  0  0  0  0  0  0  0  0
  -31.3576  -25.6663   20.2618 C   0  0  0  0  0  0  0  0  0  0  0  0
  -28.2049  -13.9686   17.6177 C   0  0  0  0  0  0  0  0  0  0  0  0
  -20.3055  -31.4485   22.2351 C   0  0  0  0  0  0  0  0  0  0  0  0
  -27.5675  -12.9834   18.5968 C   0  0  0  0  0  0  0  0  0  0  0  0
  -27.4708  -15.3097   17.5958 C   0  0  0  0  0  0  0  0  0  0  0  0
  -29.5587  -23.9883   19.9593 C   0  0  0  0  0  0  0  0  0  0  0  0
  -26.6760  -14.9454   19.9109 C   0  0  0  0  0  0  0  0  0  0  0  0
  -20.9847  -30.2967   21.4845 C   0  0  1  0  0  0  0  0  0  0  0  0
  -23.2307  -28.4343   23.9176 C   0  0  1  0  0  0  0  0  0  0  0  0
  -29.9538  -25.4452   19.7230 C   0  0  1  0  0  0  0  0  0  0  0  0
  -27.4278  -13.6079   19.9963 C   0  0  1  0  0  0  0  0  0  0  0  0
  -27.7947  -17.7051   16.1945 C   0  0  0  0  0  0  0  0  0  0  0  0
  -28.9767  -27.9049   28.7594 C   0  0  0  0  0  0  0  0  0  0  0  0
  -25.0647  -32.4359   26.2688 C   0  0  0  0  0  0  0  0  0  0  0  0
  -27.2459  -31.8115   27.3275 C   0  0  0  0  0  0  0  0  0  0  0  0
  -25.1068  -30.9578   28.2857 C   0  0  0  0  0  0  0  0  0  0  0  0
  -29.2858  -26.4080   25.2752 C   0  0  0  0  0  0  0  0  0  0  0  0
  -28.9564  -26.3925   20.3866 C   0  0  0  0  0  0  0  0  0  1  0  0
  -28.8755  -17.1866   17.1215 C   0  0  0  0  0  0  0  0  0  0  0  0
  -25.9470  -30.0156   26.0952 C   0  0  1  0  0  0  0  0  0  0  0  0
  -28.4965  -27.5166   27.3697 C   0  0  2  0  0  0  0  0  0  0  0  0
  -25.8355  -31.2979   26.9674 C   0  0  0  0  0  0  0  0  0  0  0  0
  -25.8602  -11.7789   20.5240 N   0  0  0  0  0  0  0  0  0  0  0  0
  -26.7769  -12.6509   20.9773 N   0  0  0  0  0  0  0  0  0  0  0  0
  -30.5601  -23.0004   19.5181 N   0  0  0  0  0  0  0  0  0  0  0  0
  -24.5398  -28.8018   24.4611 N   0  0  0  0  0  0  0  0  0  0  0  0
  -27.3258  -15.8467   18.9562 N   0  0  0  0  0  0  0  0  0  0  0  0
  -27.9042  -13.3584   22.9367 N   0  0  0  0  0  0  0  0  0  0  0  0
  -25.1611  -11.7102   24.9747 N   0  0  0  0  0  0  0  0  0  0  0  0
  -21.5707  -29.3601   22.4193 N   0  0  0  0  0  0  0  0  0  0  0  0
  -26.6486  -28.9121   26.7421 N   0  0  0  0  0  0  0  0  0  0  0  0
  -28.7295  -17.7236   18.4787 N   0  0  0  0  0  0  0  0  0  0  0  0
  -29.6246  -26.8622   26.6484 N   0  3  0  0  0  0  0  0  0  0  0  0
  -32.8443  -22.4570   19.5348 O   0  0  0  0  0  0  0  0  0  0  0  0
  -26.8290  -10.1863   24.5817 O   0  0  0  0  0  0  0  0  0  0  0  0
  -23.5962  -30.4581   22.7576 O   0  0  0  0  0  0  0  0  0  0  0  0
  -23.6293  -29.6431   26.4358 O   0  0  0  0  0  0  0  0  0  0  0  0
  -28.7559  -29.4405   25.9315 O   0  0  0  0  0  0  0  0  0  0  0  0
  -27.7880  -17.4297   20.5773 O   0  0  0  0  0  0  0  0  0  0  0  0
  -21.6722   -7.0512   21.3376 O   0  0  0  0  0  0  0  0  0  0  0  0
  -27.6583  -26.1558   19.8431 O   0  0  0  0  0  0  0  0  0  1  0  0
  -21.2618   -3.6108   25.6271 F   0  0  0  0  0  0  0  0  0  0  0  0
  -22.0775   -4.3349   21.0210 F   0  0  0  0  0  0  0  0  0  0  0  0
  1  2  1  0  0  0  0
  1  5  2  0  0  0  0
  2  6  2  0  0  0  0
  3 12  2  0  0  0  0
  3 19  1  0  0  0  0
  4 13  1  0  0  0  0
  4 19  2  0  0  0  0
  5 21  1  0  0  0  0
  6 23  1  0  0  0  0
  7 14  2  0  0  0  0
  7 22  1  0  0  0  0
  8 10  2  0  0  0  0
  8 25  1  0  0  0  0
  9 11  1  0  0  0  0
  9 25  2  0  0  0  0
 10 26  1  0  0  0  0
 11 26  2  0  0  0  0
 12 27  1  0  0  0  0
 13 27  2  0  0  0  0
 14 28  1  0  0  0  0
 15 16  2  0  0  0  0
 15 29  1  0  0  0  0
 16 30  1  0  0  0  0
 17 24  1  0  0  0  0
 17 28  2  0  0  0  0
 18 30  2  0  0  0  0
 18 31  1  0  0  0  0
 19 32  1  0  0  0  0
 20 32  1  0  0  0  0
 20 33  2  0  0  0  0
 20 35  1  0  0  0  0
 21 23  2  0  0  0  0
 21 40  1  0  0  0  0
 22 24  2  0  0  0  0
 22 41  1  0  0  0  0
 23 52  1  0  0  0  0
 24 42  1  0  0  0  0
 25 69  1  0  0  0  0
 26 76  1  0  0  0  0
 27 84  1  0  0  0  0
 28 85  1  0  0  0  0
 29 31  2  0  0  0  0
 29 84  1  0  0  0  0
 30 86  1  0  0  0  0
 31 87  1  0  0  0  0
 32 67  2  0  0  0  0
 33 68  1  0  0  0  0
 33 72  1  0  0  0  0
 34 43  1  0  0  0  0
 34 69  1  0  0  0  0
 34 78  2  0  0  0  0
 35 73  1  0  0  0  0
 35 79  2  0  0  0  0
 36 53  1  0  0  0  0
 36 74  1  0  0  0  0
 36 80  2  0  0  0  0
 37 64  1  0  0  0  0
 37 70  1  0  0  0  0
 37 81  2  0  0  0  0
 38 65  1  0  0  0  0
 38 75  1  0  0  0  0
 38 82  2  0  0  0  0
 39 71  1  0  0  0  0
 39 76  1  0  0  0  0
 39 83  2  0  0  0  0
 40 44  1  0  0  0  0
 41 53  1  0  0  0  0
 42 70  1  0  0  0  0
 43 45  1  0  0  0  0
 44 47  1  0  0  0  0
 45 54  1  0  0  0  0
 46 48  1  0  0  0  0
 46 49  1  0  0  0  0
 47 52  1  0  0  0  0
 48 55  1  0  0  0  0
 49 71  1  0  0  0  0
 50 54  1  0  0  0  0
 50 69  1  0  0  0  0
 51 55  1  0  0  0  0
 51 71  1  0  0  0  0
 52 74  1  0  0  0  0
 53 70  1  0  0  0  0
 54 62  1  0  0  0  0
 55 68  1  0  0  0  0
 56 63  1  0  0  0  0
 57 65  1  0  0  0  0
 58 66  1  0  0  0  0
 59 66  1  0  0  0  0
 60 66  1  0  0  0  0
 61 77  1  0  0  0  0
 62 85  1  0  0  0  0
 63 76  1  0  0  0  0
 64 66  1  0  0  0  0
 64 75  1  0  0  0  0
 65 77  1  0  0  0  0
 67 68  1  0  0  0  0
M  CHG  1  77   1
M  ISO  4  39 100  62 101  76 100  85 101
M  END
> <Batch ID>
0096

> <Smiles>
CC[100N:0](c1ccc(N2CC([101CH2:1][101O:1]c3ccc4c(c3)CN(C(=O)C(NC(=O)C(C)NC)C(C)(C)C)C(C(=O)NC3CCCc5ccccc53)C4)CCC2=O)cc1)[100C:0](=O)N1CCCC(n2nc(-c3ccc(Oc4ccc(F)cc4F)cc3)c(C(N)=O)c2N)C1

> <Shape>
0.265

> <Color>
0.105

> <Negative vol penalty>
0.000

$$$$

  -OEChem-04052300463D

 83 91  0     1  0  0  0  0  0999 V2000
  -29.3049  -35.6964   25.9994 C   0  0  0  0  0  0  0  0  0  0  0  0
  -29.7622  -34.9421   24.9236 C   0  0  0  0  0  0  0  0  0  0  0  0
  -22.4503  -10.1350   20.3955 C   0  0  0  0  0  0  0  0  0  0  0  0
  -24.3084   -9.3901   21.7481 C   0  0  0  0  0  0  0  0  0  0  0  0
  -28.3347  -35.1737   26.8535 C   0  0  0  0  0  0  0  0  0  0  0  0
  -29.2504  -33.6640   24.7020 C   0  0  0  0  0  0  0  0  0  0  0  0
  -27.6710  -29.1266   19.3885 C   0  0  0  0  0  0  0  0  0  0  0  0
  -30.0603  -19.4273   20.0400 C   0  0  0  0  0  0  0  0  0  0  0  0
  -29.4262  -20.6674   19.9646 C   0  0  0  0  0  0  0  0  0  0  0  0
  -21.8984   -8.8551   20.4487 C   0  0  0  0  0  0  0  0  0  0  0  0
  -23.7565   -8.1101   21.8013 C   0  0  0  0  0  0  0  0  0  0  0  0
  -27.9116  -27.8136   18.9861 C   0  0  0  0  0  0  0  0  0  0  0  0
  -21.3036   -6.5259   23.5024 C   0  0  0  0  0  0  0  0  0  0  0  0
  -21.2804   -5.8827   24.7399 C   0  0  0  0  0  0  0  0  0  0  0  0
  -26.1813  -27.0448   20.4808 C   0  0  0  0  0  0  0  0  0  0  0  0
  -28.6933  -18.8441   21.9448 C   0  0  0  0  0  0  0  0  0  0  0  0
  -22.6309   -4.0949   23.8360 C   0  0  0  0  0  0  0  0  0  0  0  0
  -23.6553  -10.4025   21.0452 C   0  0  0  0  0  0  0  0  0  0  0  0
  -23.9998  -12.7861   21.8863 C   0  0  0  0  0  0  0  0  0  0  0  0
  -27.8038  -33.8924   26.6366 C   0  0  0  0  0  0  0  0  0  0  0  0
  -26.6895  -29.4079   20.3497 C   0  0  0  0  0  0  0  0  0  0  0  0
  -28.2732  -33.1231   25.5548 C   0  0  0  0  0  0  0  0  0  0  0  0
  -25.9284  -28.3625   20.8918 C   0  0  0  0  0  0  0  0  0  0  0  0
  -29.6938  -18.5156   21.0301 C   0  0  0  0  0  0  0  0  0  0  0  0
  -28.4257  -20.9959   20.8794 C   0  0  0  0  0  0  0  0  0  0  0  0
  -28.0592  -20.0842   21.8695 C   0  0  0  0  0  0  0  0  0  0  0  0
  -22.5515   -7.8427   21.1516 C   0  0  0  0  0  0  0  0  0  0  0  0
  -27.1687  -26.7722   19.5344 C   0  0  0  0  0  0  0  0  0  0  0  0
  -21.9903   -5.9535   22.4317 C   0  0  0  0  0  0  0  0  0  0  0  0
  -21.9440   -4.6673   24.9068 C   0  0  0  0  0  0  0  0  0  0  0  0
  -22.6540   -4.7381   22.5985 C   0  0  0  0  0  0  0  0  0  0  0  0
  -24.2262  -11.7243   20.9901 C   0  0  0  0  0  0  0  0  0  0  0  0
  -24.7678  -13.8156   21.3998 C   0  0  0  0  0  0  0  0  0  0  0  0
  -23.1696  -12.8371   23.0541 C   0  0  0  0  0  0  0  0  0  0  0  0
  -26.6998  -30.6960   23.2556 C   0  0  0  0  0  0  0  0  0  0  0  0
  -23.4793  -30.4628   22.9457 C   0  0  0  0  0  0  0  0  0  0  0  0
  -28.0533  -23.2651   19.8566 C   0  0  0  0  0  0  0  0  0  0  0  0
  -20.8148  -28.9301   21.4632 C   0  0  0  0  0  0  0  0  0  0  0  0
  -29.5605  -15.7292   19.2752 C   0  0  0  0  0  0  0  0  0  0  0  0
  -26.7910  -33.3512   27.6144 C   0  0  0  0  0  0  0  0  0  0  0  0
  -26.4238  -30.8323   20.7534 C   0  0  0  0  0  0  0  0  0  0  0  0
  -24.8493  -28.6135   21.9121 C   0  0  0  0  0  0  0  0  0  0  0  0
  -26.0284  -32.1365   27.0918 C   0  0  0  0  0  0  0  0  0  0  0  0
  -27.2214  -14.3000   17.0030 C   0  0  0  0  0  0  0  0  0  0  0  0
  -26.9901  -31.1311   26.4663 C   0  0  0  0  0  0  0  0  0  0  0  0
  -26.2192  -13.5853   17.9111 C   0  0  0  0  0  0  0  0  0  0  0  0
  -28.6444  -14.2065   17.5493 C   0  0  0  0  0  0  0  0  0  0  0  0
  -27.8019  -13.9481   19.8508 C   0  0  0  0  0  0  0  0  0  0  0  0
  -27.7245  -31.7425   25.2670 C   0  0  1  0  0  0  0  0  0  0  0  0
  -25.7521  -30.9513   22.1179 C   0  0  1  0  0  0  0  0  0  0  0  0
  -26.3450  -14.0628   19.3704 C   0  0  2  0  0  0  0  0  0  0  0  0
  -18.3054  -28.9287   21.4400 C   0  0  0  0  0  0  0  0  0  0  0  0
  -23.4580  -28.9612   25.6018 C   0  0  0  0  0  0  0  0  0  0  0  0
  -21.1427  -28.1772   25.0603 C   0  0  0  0  0  0  0  0  0  0  0  0
  -21.6026  -30.6148   25.3234 C   0  0  0  0  0  0  0  0  0  0  0  0
  -20.7252  -29.6717   18.5994 C   0  0  0  0  0  0  0  0  0  0  0  0
  -30.3720  -17.1898   21.1102 C   0  0  0  0  0  0  0  0  0  0  0  0
  -27.1558  -24.4633   20.1043 C   0  0  0  0  0  0  0  0  0  1  0  0
  -22.4477  -29.4088   23.2683 C   0  0  1  0  0  0  0  0  0  0  0  0
  -19.5674  -29.4920   20.8053 C   0  0  2  0  0  0  0  0  0  0  0  0
  -22.1844  -29.2852   24.7957 C   0  0  0  0  0  0  0  0  0  0  0  0
  -25.0717  -12.0494   20.0085 N   0  0  0  0  0  0  0  0  0  0  0  0
  -25.3833  -13.3271   20.2850 N   0  0  0  0  0  0  0  0  0  0  0  0
  -24.6315  -30.0225   22.2792 N   0  0  0  0  0  0  0  0  0  0  0  0
  -28.6953  -14.6759   18.9360 N   0  0  0  0  0  0  0  0  0  0  0  0
  -27.0485  -20.3964   22.8063 N   0  0  0  0  0  0  0  0  0  0  0  0
  -24.9699  -15.0822   21.8211 N   0  0  0  0  0  0  0  0  0  0  0  0
  -22.4483  -11.6899   23.4118 N   0  0  0  0  0  0  0  0  0  0  0  0
  -27.7971  -22.2600   20.7830 N   0  0  0  0  0  0  0  0  0  0  0  0
  -26.8599  -31.7727   24.1068 N   0  0  0  0  0  0  0  0  0  0  0  0
  -21.2643  -29.7420   22.4829 N   0  0  0  0  0  0  0  0  0  0  0  0
  -29.5423  -16.1166   20.6095 N   0  0  0  0  0  0  0  0  0  0  0  0
  -19.5525  -29.1581   19.3530 N   0  3  0  0  0  0  0  0  0  0  0  0
  -23.0576  -13.8746   23.7503 O   0  0  0  0  0  0  0  0  0  0  0  0
  -27.2443  -29.6027   23.3547 O   0  0  0  0  0  0  0  0  0  0  0  0
  -23.2672  -31.6348   23.2668 O   0  0  0  0  0  0  0  0  0  0  0  0
  -28.8724  -23.2536   18.9436 O   0  0  0  0  0  0  0  0  0  0  0  0
  -21.3359  -27.8744   21.1103 O   0  0  0  0  0  0  0  0  0  0  0  0
  -30.2908  -16.2868   18.4490 O   0  0  0  0  0  0  0  0  0  0  0  0
  -22.0131   -6.5937   21.2039 O   0  0  0  0  0  0  0  0  0  0  0  0
  -27.4020  -25.4896   19.1439 O   0  0  0  0  0  0  0  0  0  1  0  0
  -21.9230   -4.0505   26.0956 F   0  0  0  0  0  0  0  0  0  0  0  0
  -23.3165   -4.1839   21.5739 F   0  0  0  0  0  0  0  0  0  0  0  0
  1  2  1  0  0  0  0
  1  5  2  0  0  0  0
  2  6  2  0  0  0  0
  3 10  2  0  0  0  0
  3 18  1  0  0  0  0
  4 11  1  0  0  0  0
  4 18  2  0  0  0  0
  5 20  1  0  0  0  0
  6 22  1  0  0  0  0
  7 12  2  0  0  0  0
  7 21  1  0  0  0  0
  8  9  2  0  0  0  0
  8 24  1  0  0  0  0
  9 25  1  0  0  0  0
 10 27  1  0  0  0  0
 11 27  2  0  0  0  0
 12 28  1  0  0  0  0
 13 14  2  0  0  0  0
 13 29  1  0  0  0  0
 14 30  1  0  0  0  0
 15 23  1  0  0  0  0
 15 28  2  0  0  0  0
 16 24  2  0  0  0  0
 16 26  1  0  0  0  0
 17 30  2  0  0  0  0
 17 31  1  0  0  0  0
 18 32  1  0  0  0  0
 19 32  1  0  0  0  0
 19 33  2  0  0  0  0
 19 34  1  0  0  0  0
 20 22  2  0  0  0  0
 20 40  1  0  0  0  0
 21 23  2  0  0  0  0
 21 41  1  0  0  0  0
 22 49  1  0  0  0  0
 23 42  1  0  0  0  0
 24 57  1  0  0  0  0
 25 26  2  0  0  0  0
 25 69  1  0  0  0  0
 26 66  1  0  0  0  0
 27 80  1  0  0  0  0
 28 81  1  0  0  0  0
 29 31  2  0  0  0  0
 29 80  1  0  0  0  0
 30 82  1  0  0  0  0
 31 83  1  0  0  0  0
 32 62  2  0  0  0  0
 33 63  1  0  0  0  0
 33 67  1  0  0  0  0
 34 68  1  0  0  0  0
 34 74  2  0  0  0  0
 35 50  1  0  0  0  0
 35 70  1  0  0  0  0
 35 75  2  0  0  0  0
 36 59  1  0  0  0  0
 36 64  1  0  0  0  0
 36 76  2  0  0  0  0
 37 58  1  0  0  0  0
 37 69  1  0  0  0  0
 37 77  2  0  0  0  0
 38 60  1  0  0  0  0
 38 71  1  0  0  0  0
 38 78  2  0  0  0  0
 39 65  1  0  0  0  0
 39 72  1  0  0  0  0
 39 79  2  0  0  0  0
 40 43  1  0  0  0  0
 41 50  1  0  0  0  0
 42 64  1  0  0  0  0
 43 45  1  0  0  0  0
 44 46  1  0  0  0  0
 44 47  1  0  0  0  0
 45 49  1  0  0  0  0
 46 51  1  0  0  0  0
 47 65  1  0  0  0  0
 48 51  1  0  0  0  0
 48 65  1  0  0  0  0
 49 70  1  0  0  0  0
 50 64  1  0  0  0  0
 51 63  1  0  0  0  0
 52 60  1  0  0  0  0
 53 61  1  0  0  0  0
 54 61  1  0  0  0  0
 55 61  1  0  0  0  0
 56 73  1  0  0  0  0
 57 72  1  0  0  0  0
 58 81  1  0  0  0  0
 59 61  1  0  0  0  0
 59 71  1  0  0  0  0
 60 73  1  0  0  0  0
 62 63  1  0  0  0  0
M  CHG  1  73   1
M  ISO  4  39 100  58 101  72 100  81 101
M  END
> <Batch ID>
0096

> <Smiles>
CNC(C)C(=O)NC(C(=O)N1Cc2cc([101O:1][101CH2:1]C(=O)Nc3ccc(C[100NH:0][100C:0](=O)N4CCCC(n5nc(-c6ccc(Oc7ccc(F)cc7F)cc6)c(C(N)=O)c5N)C4)cc3N)ccc2CC1C(=O)NC1CCCc2ccccc21)C(C)(C)C

> <Shape>
0.342

> <Color>
0.136

> <Negative vol penalty>
0.000

$$$$

  -OEChem-04052300463D

 87 96  0     1  0  0  0  0  0999 V2000
  -28.4130  -33.4339   25.4049 C   0  0  0  0  0  0  0  0  0  0  0  0
  -28.4544  -32.1735   24.8174 C   0  0  0  0  0  0  0  0  0  0  0  0
  -23.6173  -10.7307   21.2108 C   0  0  0  0  0  0  0  0  0  0  0  0
  -24.5536   -9.8015   23.2350 C   0  0  0  0  0  0  0  0  0  0  0  0
  -27.1966  -33.9606   25.8373 C   0  0  0  0  0  0  0  0  0  0  0  0
  -27.2795  -31.4386   24.6628 C   0  0  0  0  0  0  0  0  0  0  0  0
  -26.9062  -29.3128   20.0817 C   0  0  0  0  0  0  0  0  0  0  0  0
  -22.4926   -9.9190   21.3585 C   0  0  0  0  0  0  0  0  0  0  0  0
  -23.4289   -8.9899   23.3827 C   0  0  0  0  0  0  0  0  0  0  0  0
  -27.6509  -28.1564   19.8538 C   0  0  0  0  0  0  0  0  0  0  0  0
  -22.2482   -6.1060   22.0713 C   0  0  0  0  0  0  0  0  0  0  0  0
  -22.4544   -4.7667   22.4022 C   0  0  0  0  0  0  0  0  0  0  0  0
  -25.6781  -26.8195   20.2277 C   0  0  0  0  0  0  0  0  0  0  0  0
  -29.5240  -19.7056   18.8303 C   0  0  0  0  0  0  0  0  0  0  0  0
  -29.2753  -19.9658   21.5968 C   0  0  0  0  0  0  0  0  0  0  0  0
  -21.1747   -5.0704   24.4289 C   0  0  0  0  0  0  0  0  0  0  0  0
  -24.6479  -10.6719   22.1491 C   0  0  0  0  0  0  0  0  0  0  0  0
  -26.7128  -11.5231   20.9164 C   0  0  0  0  0  0  0  0  0  0  0  0
  -26.0048  -33.2358   25.6791 C   0  0  0  0  0  0  0  0  0  0  0  0
  -25.5420  -29.2305   20.3956 C   0  0  0  0  0  0  0  0  0  0  0  0
  -26.0462  -31.9556   25.0946 C   0  0  0  0  0  0  0  0  0  0  0  0
  -24.9177  -27.9764   20.4566 C   0  0  0  0  0  0  0  0  0  0  0  0
  -29.3437  -18.5728   19.6239 C   0  0  0  0  0  0  0  0  0  0  0  0
  -29.5801  -20.9686   19.4199 C   0  0  0  0  0  0  0  0  0  0  0  0
  -29.2193  -18.7029   21.0071 C   0  0  0  0  0  0  0  0  0  0  0  0
  -22.3983   -9.0487   22.4444 C   0  0  0  0  0  0  0  0  0  0  0  0
  -27.0376  -26.9093   19.9296 C   0  0  0  0  0  0  0  0  0  0  0  0
  -21.5053   -6.9275   22.9193 C   0  0  0  0  0  0  0  0  0  0  0  0
  -21.9176   -4.2489   23.5809 C   0  0  0  0  0  0  0  0  0  0  0  0
  -29.4557  -21.0987   20.8031 C   0  0  0  0  0  0  0  0  0  0  0  0
  -20.9686   -6.4097   24.0980 C   0  0  0  0  0  0  0  0  0  0  0  0
  -25.8102  -11.5097   21.9967 C   0  0  0  0  0  0  0  0  0  0  0  0
  -27.6328  -12.4869   21.2497 C   0  0  0  0  0  0  0  0  0  0  0  0
  -30.4888  -22.0670   17.3907 C   0  0  0  0  0  0  0  0  0  0  0  0
  -26.7189  -10.7349   19.7188 C   0  0  0  0  0  0  0  0  0  0  0  0
  -23.7607  -30.0626   22.8932 C   0  0  0  0  0  0  0  0  0  0  0  0
  -21.3181  -29.1691   20.9548 C   0  0  0  0  0  0  0  0  0  0  0  0
  -20.6444  -26.4930   18.6306 C   0  0  0  0  0  0  0  0  0  0  0  0
  -28.8986  -17.5392   23.2183 C   0  0  0  0  0  0  0  0  0  0  0  0
  -24.7207  -33.8267   26.2050 C   0  0  0  0  0  0  0  0  0  0  0  0
  -24.7466  -30.4886   20.6123 C   0  0  0  0  0  0  0  0  0  0  0  0
  -23.4514  -27.8349   20.7700 C   0  0  0  0  0  0  0  0  0  0  0  0
  -30.3654  -23.2546   16.4548 C   0  0  0  0  0  0  0  0  0  0  0  0
  -23.4685  -33.1412   25.6642 C   0  0  0  0  0  0  0  0  0  0  0  0
  -30.2449  -24.5908   17.1540 C   0  0  0  0  0  0  0  0  0  0  0  0
  -28.3943  -14.9476   25.6071 C   0  0  0  0  0  0  0  0  0  0  0  0
  -23.6139  -31.6248   25.7428 C   0  0  0  0  0  0  0  0  0  0  0  0
  -27.7513  -13.8232   24.7919 C   0  0  0  0  0  0  0  0  0  0  0  0
  -27.9155  -16.3245   25.1504 C   0  0  0  0  0  0  0  0  0  0  0  0
  -29.3623  -23.4408   19.1644 C   0  0  0  0  0  0  0  0  0  0  0  0
  -27.4161  -15.4620   22.8974 C   0  0  0  0  0  0  0  0  0  0  0  0
  -24.7896  -31.1383   24.8870 C   0  0  1  0  0  0  0  0  0  0  0  0
  -23.4794  -30.2608   21.4306 C   0  0  1  0  0  0  0  0  0  0  0  0
  -29.0822  -24.5308   18.1308 C   0  0  1  0  0  0  0  0  0  0  0  0
  -27.9170  -14.0591   23.2778 C   0  0  2  0  0  0  0  0  0  0  0  0
  -29.2877  -17.2324   18.9656 C   0  0  0  0  0  0  0  0  0  0  0  0
  -19.1371  -26.4139   16.6258 C   0  0  0  0  0  0  0  0  0  0  0  0
  -19.2661  -28.0285   22.9038 C   0  0  0  0  0  0  0  0  0  0  0  0
  -18.5008  -26.4858   21.0865 C   0  0  0  0  0  0  0  0  0  0  0  0
  -18.2972  -28.9546   20.7924 C   0  0  0  0  0  0  0  0  0  0  0  0
  -22.8563  -25.6457   16.8563 C   0  0  0  0  0  0  0  0  0  0  0  0
  -28.8672  -25.8812   18.8109 C   0  0  0  0  0  0  0  0  0  1  0  0
  -20.5825  -27.8782   20.6877 C   0  0  1  0  0  0  0  0  0  0  0  0
  -20.5636  -26.6013   17.1186 C   0  0  2  0  0  0  0  0  0  0  0  0
  -19.1889  -27.8369   21.3759 C   0  0  0  0  0  0  0  0  0  0  0  0
  -26.1282  -12.3946   22.9454 N   0  0  0  0  0  0  0  0  0  0  0  0
  -27.2409  -12.9730   22.4622 N   0  0  0  0  0  0  0  0  0  0  0  0
  -29.7676  -22.1428   18.5947 N   0  0  0  0  0  0  0  0  0  0  0  0
  -22.7179  -29.0940   20.9803 N   0  0  0  0  0  0  0  0  0  0  0  0
  -28.1075  -16.4779   23.7066 N   0  0  0  0  0  0  0  0  0  0  0  0
  -28.7308  -12.9575   20.6209 N   0  0  0  0  0  0  0  0  0  0  0  0
  -27.4098   -9.5155   19.7249 N   0  0  0  0  0  0  0  0  0  0  0  0
  -29.0364  -17.5646   21.8309 N   0  0  0  0  0  0  0  0  0  0  0  0
  -24.4225  -31.1203   23.4872 N   0  0  0  0  0  0  0  0  0  0  0  0
  -20.5374  -27.7265   19.2374 N   0  0  0  0  0  0  0  0  0  0  0  0
  -21.4219  -25.5647   16.4784 N   0  3  0  0  0  0  0  0  0  0  0  0
  -31.1563  -21.0996   17.0148 O   0  0  0  0  0  0  0  0  0  0  0  0
  -26.1428  -11.1088   18.6691 O   0  0  0  0  0  0  0  0  0  0  0  0
  -23.4025  -29.0274   23.4425 O   0  0  0  0  0  0  0  0  0  0  0  0
  -20.6746  -30.2073   21.1271 O   0  0  0  0  0  0  0  0  0  0  0  0
  -20.7844  -25.4209   19.2151 O   0  0  0  0  0  0  0  0  0  0  0  0
  -29.4382  -18.3488   23.9769 O   0  0  0  0  0  0  0  0  0  0  0  0
  -21.3009   -8.2567   22.5890 O   0  0  0  0  0  0  0  0  0  0  0  0
  -27.7623  -25.7790   19.7082 O   0  0  0  0  0  0  0  0  0  1  0  0
  -22.1144   -2.9624   23.8978 F   0  0  0  0  0  0  0  0  0  0  0  0
  -29.5074  -22.3079   21.3796 F   0  0  0  0  0  0  0  0  0  0  0  0
  -20.2531   -7.1938   24.9160 F   0  0  0  0  0  0  0  0  0  0  0  0
  1  2  1  0  0  0  0
  1  5  2  0  0  0  0
  2  6  2  0  0  0  0
  3  8  2  0  0  0  0
  3 17  1  0  0  0  0
  4  9  1  0  0  0  0
  4 17  2  0  0  0  0
  5 19  1  0  0  0  0
  6 21  1  0  0  0  0
  7 10  2  0  0  0  0
  7 20  1  0  0  0  0
  8 26  1  0  0  0  0
  9 26  2  0  0  0  0
 10 27  1  0  0  0  0
 11 12  2  0  0  0  0
 11 28  1  0  0  0  0
 12 29  1  0  0  0  0
 13 22  1  0  0  0  0
 13 27  2  0  0  0  0
 14 23  2  0  0  0  0
 14 24  1  0  0  0  0
 15 25  2  0  0  0  0
 15 30  1  0  0  0  0
 16 29  2  0  0  0  0
 16 31  1  0  0  0  0
 17 32  1  0  0  0  0
 18 32  1  0  0  0  0
 18 33  2  0  0  0  0
 18 35  1  0  0  0  0
 19 21  2  0  0  0  0
 19 40  1  0  0  0  0
 20 22  2  0  0  0  0
 20 41  1  0  0  0  0
 21 52  1  0  0  0  0
 22 42  1  0  0  0  0
 23 25  1  0  0  0  0
 23 56  1  0  0  0  0
 24 30  2  0  0  0  0
 24 68  1  0  0  0  0
 25 73  1  0  0  0  0
 26 83  1  0  0  0  0
 27 84  1  0  0  0  0
 28 31  2  0  0  0  0
 28 83  1  0  0  0  0
 29 85  1  0  0  0  0
 30 86  1  0  0  0  0
 31 87  1  0  0  0  0
 32 66  2  0  0  0  0
 33 67  1  0  0  0  0
 33 71  1  0  0  0  0
 34 43  1  0  0  0  0
 34 68  1  0  0  0  0
 34 77  2  0  0  0  0
 35 72  1  0  0  0  0
 35 78  2  0  0  0  0
 36 53  1  0  0  0  0
 36 74  1  0  0  0  0
 36 79  2  0  0  0  0
 37 63  1  0  0  0  0
 37 69  1  0  0  0  0
 37 80  2  0  0  0  0
 38 64  1  0  0  0  0
 38 75  1  0  0  0  0
 38 81  2  0  0  0  0
 39 70  1  0  0  0  0
 39 73  1  0  0  0  0
 39 82  2  0  0  0  0
 40 44  1  0  0  0  0
 41 53  1  0  0  0  0
 42 69  1  0  0  0  0
 43 45  1  0  0  0  0
 44 47  1  0  0  0  0
 45 54  1  0  0  0  0
 46 48  1  0  0  0  0
 46 49  1  0  0  0  0
 47 52  1  0  0  0  0
 48 55  1  0  0  0  0
 49 70  1  0  0  0  0
 50 54  1  0  0  0  0
 50 68  1  0  0  0  0
 51 55  1  0  0  0  0
 51 70  1  0  0  0  0
 52 74  1  0  0  0  0
 53 69  1  0  0  0  0
 54 62  1  0  0  0  0
 55 67  1  0  0  0  0
 57 64  1  0  0  0  0
 58 65  1  0  0  0  0
 59 65  1  0  0  0  0
 60 65  1  0  0  0  0
 61 76  1  0  0  0  0
 62 84  1  0  0  0  0
 63 65  1  0  0  0  0
 63 75  1  0  0  0  0
 64 76  1  0  0  0  0
 66 67  1  0  0  0  0
M  CHG  1  76   1
M  ISO  4  39 100  62 101  73 100  84 101
M  END
> <Batch ID>
0096

> <Smiles>
CNC(C)C(=O)NC(C(=O)N1Cc2cc([101O:1][101CH2:1]C3CCC(=O)N(c4cc(C)c([100NH:0][100C:0](=O)N5CCCC(n6nc(-c7ccc(Oc8ccc(F)cc8F)cc7)c(C(N)=O)c6N)C5)cc4F)C3)ccc2CC1C(=O)NC1CCCc2ccccc21)C(C)(C)C

> <Shape>
0.336

> <Color>
0.064

> <Negative vol penalty>
0.000

$$$$

  -OEChem-04052300463D

 89 97  0     1  0  0  0  0  0999 V2000
  -22.2796  -30.9579   29.5074 C   0  0  0  0  0  0  0  0  0  0  0  0
  -23.4454  -30.6198   28.8275 C   0  0  0  0  0  0  0  0  0  0  0  0
  -24.5197   -8.5403   21.4450 C   0  0  0  0  0  0  0  0  0  0  0  0
  -23.5726  -10.4461   22.5887 C   0  0  0  0  0  0  0  0  0  0  0  0
  -21.0394  -30.7683   28.8992 C   0  0  0  0  0  0  0  0  0  0  0  0
  -23.3715  -30.0909   27.5394 C   0  0  0  0  0  0  0  0  0  0  0  0
  -27.3251  -31.0041   22.9524 C   0  0  0  0  0  0  0  0  0  0  0  0
  -31.7163  -22.9570   20.0855 C   0  0  0  0  0  0  0  0  0  0  0  0
  -31.4365  -24.2590   20.5003 C   0  0  0  0  0  0  0  0  0  0  0  0
  -24.0060   -7.6949   22.4283 C   0  0  0  0  0  0  0  0  0  0  0  0
  -23.0589   -9.6006   23.5721 C   0  0  0  0  0  0  0  0  0  0  0  0
  -28.3840  -30.2418   22.4610 C   0  0  0  0  0  0  0  0  0  0  0  0
  -21.0227   -6.3098   23.2123 C   0  0  0  0  0  0  0  0  0  0  0  0
  -20.3882   -5.1400   22.7946 C   0  0  0  0  0  0  0  0  0  0  0  0
  -26.9265  -29.3131   20.7780 C   0  0  0  0  0  0  0  0  0  0  0  0
  -29.1152  -23.6629   20.8060 C   0  0  0  0  0  0  0  0  0  0  0  0
  -21.9992   -3.8264   24.0259 C   0  0  0  0  0  0  0  0  0  0  0  0
  -24.3030   -9.9160   21.5252 C   0  0  0  0  0  0  0  0  0  0  0  0
  -24.2014  -11.1912   19.3182 C   0  0  0  0  0  0  0  0  0  0  0  0
  -20.9508  -30.2458   27.5993 C   0  0  0  0  0  0  0  0  0  0  0  0
  -26.0541  -30.9183   22.3662 C   0  0  0  0  0  0  0  0  0  0  0  0
  -22.1289  -29.8929   26.9138 C   0  0  0  0  0  0  0  0  0  0  0  0
  -25.8538  -30.0772   21.2623 C   0  0  0  0  0  0  0  0  0  0  0  0
  -30.6955  -22.0079   20.0309 C   0  0  0  0  0  0  0  0  0  0  0  0
  -29.3950  -22.3609   20.3911 C   0  0  0  0  0  0  0  0  0  0  0  0
  -30.1360  -24.6120   20.8605 C   0  0  0  0  0  0  0  0  0  0  0  0
  -23.2755   -8.2250   23.4918 C   0  0  0  0  0  0  0  0  0  0  0  0
  -28.1841  -29.3940   21.3755 C   0  0  0  0  0  0  0  0  0  0  0  0
  -22.1456   -6.2380   24.0368 C   0  0  0  0  0  0  0  0  0  0  0  0
  -20.8764   -3.8983   23.2014 C   0  0  0  0  0  0  0  0  0  0  0  0
  -22.6338   -4.9963   24.4437 C   0  0  0  0  0  0  0  0  0  0  0  0
  -24.8339  -10.7899   20.5101 C   0  0  0  0  0  0  0  0  0  0  0  0
  -25.1145  -12.0139   18.7051 C   0  0  0  0  0  0  0  0  0  0  0  0
  -22.9044  -10.8507   18.8106 C   0  0  0  0  0  0  0  0  0  0  0  0
  -23.1758  -30.0205   23.3725 C   0  0  0  0  0  0  0  0  0  0  0  0
  -29.5239  -15.2957   20.9550 C   0  0  0  0  0  0  0  0  0  0  0  0
  -22.2527  -31.0755   20.4472 C   0  0  0  0  0  0  0  0  0  0  0  0
  -30.9880  -17.3233   21.3406 C   0  0  0  0  0  0  0  0  0  0  0  0
  -32.8821  -19.8852   21.1140 C   0  0  0  0  0  0  0  0  0  0  0  0
  -23.1013  -31.7579   17.2129 C   0  0  0  0  0  0  0  0  0  0  0  0
  -19.5856  -30.0146   27.0013 C   0  0  0  0  0  0  0  0  0  0  0  0
  -24.9289  -31.7672   22.8912 C   0  0  0  0  0  0  0  0  0  0  0  0
  -24.5136  -29.9641   20.5844 C   0  0  0  0  0  0  0  0  0  0  0  0
  -19.6110  -29.7988   25.4904 C   0  0  0  0  0  0  0  0  0  0  0  0
  -29.8144  -12.7879   18.3370 C   0  0  0  0  0  0  0  0  0  0  0  0
  -20.7076  -28.8087   25.1109 C   0  0  0  0  0  0  0  0  0  0  0  0
  -28.5122  -12.0084   18.5147 C   0  0  0  0  0  0  0  0  0  0  0  0
  -30.3685  -13.2677   19.6760 C   0  0  0  0  0  0  0  0  0  0  0  0
  -28.0952  -13.2984   20.6536 C   0  0  0  0  0  0  0  0  0  0  0  0
  -22.0910  -29.3397   25.5057 C   0  0  1  0  0  0  0  0  0  0  0  0
  -23.5504  -31.2150   22.5415 C   0  0  1  0  0  0  0  0  0  0  0  0
  -27.4874  -12.8228   19.3235 C   0  0  2  0  0  0  0  0  0  0  0  0
  -28.2857  -21.3621   20.3392 C   0  0  0  0  0  0  0  0  0  0  0  0
  -22.1241  -32.5723   15.0498 C   0  0  0  0  0  0  0  0  0  0  0  0
  -20.9420  -28.3539   20.0175 C   0  0  0  0  0  0  0  0  0  0  0  0
  -20.8308  -28.8716   17.5705 C   0  0  0  0  0  0  0  0  0  0  0  0
  -19.5980  -30.2993   19.2029 C   0  0  0  0  0  0  0  0  0  0  0  0
  -24.9063  -34.1023   17.1460 C   0  0  0  0  0  0  0  0  0  0  0  0
  -31.0191  -20.6207   19.5825 C   0  0  0  0  0  0  0  0  0  0  0  0
  -30.8624  -15.9501   20.7224 C   0  0  0  0  0  0  0  0  0  0  0  0
  -30.8542  -26.9487   21.3602 C   0  0  0  0  0  0  0  0  0  0  0  0
  -30.2177  -28.2469   21.8277 C   0  0  0  0  0  0  0  0  0  1  0  0
  -22.1186  -30.4517   19.0791 C   0  0  1  0  0  0  0  0  0  0  0  0
  -31.4214  -19.6858   20.7372 C   0  0  1  0  0  0  0  0  0  0  0  0
  -22.8344  -32.9673   16.3351 C   0  0  2  0  0  0  0  0  0  0  0  0
  -20.8972  -29.4946   18.9813 C   0  0  0  0  0  0  0  0  0  0  0  0
  -26.0545  -11.3144   20.6479 N   0  0  0  0  0  0  0  0  0  0  0  0
  -26.1964  -12.0536   19.5346 N   0  0  0  0  0  0  0  0  0  0  0  0
  -23.4432  -30.8096   21.1385 N   0  0  0  0  0  0  0  0  0  0  0  0
  -29.3534  -14.0155   20.4276 N   0  0  0  0  0  0  0  0  0  0  0  0
  -25.0895  -12.7000   17.5427 N   0  0  0  0  0  0  0  0  0  0  0  0
  -22.0947   -9.9931   19.5676 N   0  0  0  0  0  0  0  0  0  0  0  0
  -33.0559  -20.8461   22.0879 N   0  0  0  0  0  0  0  0  0  0  0  0
  -29.8589  -25.9047   21.2733 N   0  0  0  0  0  0  0  0  0  0  0  0
  -22.5391  -30.3369   24.5575 N   0  0  0  0  0  0  0  0  0  0  0  0
  -22.0892  -31.5572   18.1275 N   0  0  0  0  0  0  0  0  0  0  0  0
  -31.2589  -18.2968   20.3894 N   0  0  0  0  0  0  0  0  0  0  0  0
  -24.1150  -33.6401   15.9768 N   0  3  0  0  0  0  0  0  0  0  0  0
  -22.4828  -11.2809   17.7102 O   0  0  0  0  0  0  0  0  0  0  0  0
  -23.4430  -28.8951   22.9679 O   0  0  0  0  0  0  0  0  0  0  0  0
  -28.6564  -15.9068   21.5843 O   0  0  0  0  0  0  0  0  0  0  0  0
  -21.3380  -31.7788   20.8835 O   0  0  0  0  0  0  0  0  0  0  0  0
  -30.8607  -17.5293   22.5448 O   0  0  0  0  0  0  0  0  0  0  0  0
  -33.8136  -19.2890   20.5786 O   0  0  0  0  0  0  0  0  0  0  0  0
  -24.1054  -31.0587   17.0961 O   0  0  0  0  0  0  0  0  0  0  0  0
  -22.7739   -7.4003   24.4514 O   0  0  0  0  0  0  0  0  0  0  0  0
  -29.2158  -28.6484   20.8943 O   0  0  0  0  0  0  0  0  0  1  0  0
  -20.2661   -2.7751   22.8014 F   0  0  0  0  0  0  0  0  0  0  0  0
  -23.7114   -4.9210   25.2367 F   0  0  0  0  0  0  0  0  0  0  0  0
  1  2  1  0  0  0  0
  1  5  2  0  0  0  0
  2  6  2  0  0  0  0
  3 10  2  0  0  0  0
  3 18  1  0  0  0  0
  4 11  1  0  0  0  0
  4 18  2  0  0  0  0
  5 20  1  0  0  0  0
  6 22  1  0  0  0  0
  7 12  2  0  0  0  0
  7 21  1  0  0  0  0
  8  9  2  0  0  0  0
  8 24  1  0  0  0  0
  9 26  1  0  0  0  0
 10 27  1  0  0  0  0
 11 27  2  0  0  0  0
 12 28  1  0  0  0  0
 13 14  2  0  0  0  0
 13 29  1  0  0  0  0
 14 30  1  0  0  0  0
 15 23  1  0  0  0  0
 15 28  2  0  0  0  0
 16 25  1  0  0  0  0
 16 26  2  0  0  0  0
 17 30  2  0  0  0  0
 17 31  1  0  0  0  0
 18 32  1  0  0  0  0
 19 32  1  0  0  0  0
 19 33  2  0  0  0  0
 19 34  1  0  0  0  0
 20 22  2  0  0  0  0
 20 41  1  0  0  0  0
 21 23  2  0  0  0  0
 21 42  1  0  0  0  0
 22 50  1  0  0  0  0
 23 43  1  0  0  0  0
 24 25  2  0  0  0  0
 24 59  1  0  0  0  0
 25 53  1  0  0  0  0
 26 74  1  0  0  0  0
 27 86  1  0  0  0  0
 28 87  1  0  0  0  0
 29 31  2  0  0  0  0
 29 86  1  0  0  0  0
 30 88  1  0  0  0  0
 31 89  1  0  0  0  0
 32 67  2  0  0  0  0
 33 68  1  0  0  0  0
 33 71  1  0  0  0  0
 34 72  1  0  0  0  0
 34 79  2  0  0  0  0
 35 51  1  0  0  0  0
 35 75  1  0  0  0  0
 35 80  2  0  0  0  0
 36 60  1  0  0  0  0
 36 70  1  0  0  0  0
 36 81  2  0  0  0  0
 37 63  1  0  0  0  0
 37 69  1  0  0  0  0
 37 82  2  0  0  0  0
 38 60  1  0  0  0  0
 38 77  1  0  0  0  0
 38 83  2  0  0  0  0
 39 64  1  0  0  0  0
 39 73  1  0  0  0  0
 39 84  2  0  0  0  0
 40 65  1  0  0  0  0
 40 76  1  0  0  0  0
 40 85  2  0  0  0  0
 41 44  1  0  0  0  0
 42 51  1  0  0  0  0
 43 69  1  0  0  0  0
 44 46  1  0  0  0  0
 45 47  1  0  0  0  0
 45 48  1  0  0  0  0
 46 50  1  0  0  0  0
 47 52  1  0  0  0  0
 48 70  1  0  0  0  0
 49 52  1  0  0  0  0
 49 70  1  0  0  0  0
 50 75  1  0  0  0  0
 51 69  1  0  0  0  0
 52 68  1  0  0  0  0
 54 65  1  0  0  0  0
 55 66  1  0  0  0  0
 56 66  1  0  0  0  0
 57 66  1  0  0  0  0
 58 78  1  0  0  0  0
 59 64  1  0  0  0  0
 61 62  1  0  0  0  0
 61 74  1  0  0  0  0
 62 87  1  0  0  0  0
 63 66  1  0  0  0  0
 63 76  1  0  0  0  0
 64 77  1  0  0  0  0
 65 78  1  0  0  0  0
 67 68  1  0  0  0  0
M  CHG  1  78   1
M  ISO  4  36 100  60 100  62 101  87 101
M  END
> <Batch ID>
0096

> <Smiles>
CNC(C)C(=O)NC(C(=O)N1Cc2cc([101O:1][101CH2:1]CNc3ccc(CC(NC(=O)[100CH2:0][100C:0](=O)N4CCCC(n5nc(-c6ccc(Oc7ccc(F)cc7F)cc6)c(C(N)=O)c5N)C4)C(N)=O)c(C)c3)ccc2CC1C(=O)NC1CCCc2ccccc21)C(C)(C)C

> <Shape>
0.271

> <Color>
0.077

> <Negative vol penalty>
0.000

$$$$

  -OEChem-04052300463D

 86 95  0     1  0  0  0  0  0999 V2000
  -32.2452  -31.8746   19.9660 C   0  0  0  0  0  0  0  0  0  0  0  0
  -31.4793  -30.7133   19.9846 C   0  0  0  0  0  0  0  0  0  0  0  0
  -23.2803   -9.4354   19.5923 C   0  0  0  0  0  0  0  0  0  0  0  0
  -24.6865   -8.9664   21.5002 C   0  0  0  0  0  0  0  0  0  0  0  0
  -32.0004  -32.8846   20.8955 C   0  0  0  0  0  0  0  0  0  0  0  0
  -30.4688  -30.5610   20.9334 C   0  0  0  0  0  0  0  0  0  0  0  0
  -26.1859  -28.7419   18.9353 C   0  0  0  0  0  0  0  0  0  0  0  0
  -24.8786  -18.7416   17.9581 C   0  0  0  0  0  0  0  0  0  0  0  0
  -25.5570  -17.5286   18.0761 C   0  0  0  0  0  0  0  0  0  0  0  0
  -22.1802   -8.9179   20.2759 C   0  0  0  0  0  0  0  0  0  0  0  0
  -23.5862   -8.4489   22.1839 C   0  0  0  0  0  0  0  0  0  0  0  0
  -26.1365  -27.3734   18.6734 C   0  0  0  0  0  0  0  0  0  0  0  0
  -21.8044   -5.5759   22.2246 C   0  0  0  0  0  0  0  0  0  0  0  0
  -21.9739   -4.3719   22.9082 C   0  0  0  0  0  0  0  0  0  0  0  0
  -24.8935  -27.0342   20.7128 C   0  0  0  0  0  0  0  0  0  0  0  0
  -27.1703  -18.5733   19.5401 C   0  0  0  0  0  0  0  0  0  0  0  0
  -21.3909   -5.4670   24.9814 C   0  0  0  0  0  0  0  0  0  0  0  0
  -24.5335   -9.4596   20.2045 C   0  0  0  0  0  0  0  0  0  0  0  0
  -26.2071   -9.5348   18.2806 C   0  0  0  0  0  0  0  0  0  0  0  0
  -30.9801  -32.7487   21.8500 C   0  0  0  0  0  0  0  0  0  0  0  0
  -25.5980  -29.2663   20.0953 C   0  0  0  0  0  0  0  0  0  0  0  0
  -30.2111  -31.5696   21.8773 C   0  0  0  0  0  0  0  0  0  0  0  0
  -24.9346  -28.4101   20.9858 C   0  0  0  0  0  0  0  0  0  0  0  0
  -25.3461  -19.8705   18.6310 C   0  0  0  0  0  0  0  0  0  0  0  0
  -26.7029  -17.4444   18.8671 C   0  0  0  0  0  0  0  0  0  0  0  0
  -22.3331   -8.4247   21.5717 C   0  0  0  0  0  0  0  0  0  0  0  0
  -25.4927  -26.5190   19.5637 C   0  0  0  0  0  0  0  0  0  0  0  0
  -21.4283   -6.7255   22.9194 C   0  0  0  0  0  0  0  0  0  0  0  0
  -21.7671   -4.3174   24.2866 C   0  0  0  0  0  0  0  0  0  0  0  0
  -26.4919  -19.7863   19.4220 C   0  0  0  0  0  0  0  0  0  0  0  0
  -21.2214   -6.6710   24.2978 C   0  0  0  0  0  0  0  0  0  0  0  0
  -25.6705   -9.9935   19.4986 C   0  0  0  0  0  0  0  0  0  0  0  0
  -27.2704  -10.3696   18.0378 C   0  0  0  0  0  0  0  0  0  0  0  0
  -23.2481  -23.6081   18.2971 C   0  0  0  0  0  0  0  0  0  0  0  0
  -25.7823   -8.4511   17.4435 C   0  0  0  0  0  0  0  0  0  0  0  0
  -26.6739  -30.8278   22.6463 C   0  0  0  0  0  0  0  0  0  0  0  0
  -23.5165  -31.0581   23.3534 C   0  0  0  0  0  0  0  0  0  0  0  0
  -20.6227  -28.9079   23.2120 C   0  0  0  0  0  0  0  0  0  0  0  0
  -28.5435  -15.9569   19.7307 C   0  0  0  0  0  0  0  0  0  0  0  0
  -30.7840  -33.8474   22.8644 C   0  0  0  0  0  0  0  0  0  0  0  0
  -25.6368  -30.7483   20.3498 C   0  0  0  0  0  0  0  0  0  0  0  0
  -24.2700  -28.9256   22.2351 C   0  0  0  0  0  0  0  0  0  0  0  0
  -22.5899  -22.3685   18.8531 C   0  0  0  0  0  0  0  0  0  0  0  0
  -29.4478  -33.7674   23.5983 C   0  0  0  0  0  0  0  0  0  0  0  0
  -30.5201  -13.0531   20.3121 C   0  0  0  0  0  0  0  0  0  0  0  0
  -29.1800  -32.3403   24.0656 C   0  0  0  0  0  0  0  0  0  0  0  0
  -29.5513  -11.8972   20.0527 C   0  0  0  0  0  0  0  0  0  0  0  0
  -23.2197  -21.1039   18.2815 C   0  0  0  0  0  0  0  0  0  0  0  0
  -29.8249  -14.2359   20.9841 C   0  0  0  0  0  0  0  0  0  0  0  0
  -25.3923  -22.3541   18.6022 C   0  0  0  0  0  0  0  0  0  0  0  0
  -27.6517  -13.5641   20.0379 C   0  0  0  0  0  0  0  0  0  0  0  0
  -29.0897  -31.3778   22.8753 C   0  0  1  0  0  0  0  0  0  0  0  0
  -24.6824  -23.4619   17.8128 C   0  0  2  0  0  0  0  0  0  0  0  0
  -25.4499  -31.1070   21.8207 C   0  0  1  0  0  0  0  0  0  0  0  0
  -28.2919  -12.3748   19.3035 C   0  0  2  0  0  0  0  0  0  0  0  0
  -18.1882  -29.4631   22.9628 C   0  0  0  0  0  0  0  0  0  0  0  0
  -23.4781  -30.9535   26.4025 C   0  0  0  0  0  0  0  0  0  0  0  0
  -21.2246  -29.8710   26.2676 C   0  0  0  0  0  0  0  0  0  0  0  0
  -21.5537  -32.1775   25.3764 C   0  0  0  0  0  0  0  0  0  0  0  0
  -20.3465  -27.1560   20.8427 C   0  0  0  0  0  0  0  0  0  0  0  0
  -25.4404  -24.7804   17.9418 C   0  0  0  0  0  0  0  0  0  1  0  0
  -22.5280  -30.2123   24.1191 C   0  0  1  0  0  0  0  0  0  0  0  0
  -19.4548  -29.0181   22.2485 C   0  0  2  0  0  0  0  0  0  0  0  0
  -22.2185  -30.7920   25.5283 C   0  0  0  0  0  0  0  0  0  0  0  0
  -26.3380  -11.0385   19.9950 N   0  0  0  0  0  0  0  0  0  0  0  0
  -27.3050  -11.2433   19.0845 N   0  0  0  0  0  0  0  0  0  0  0  0
  -24.6666  -21.0823   18.5098 N   0  0  3  0  0  0  0  0  0  0  0  0
  -24.3406  -30.3814   22.4430 N   0  0  0  0  0  0  0  0  0  0  0  0
  -28.6436  -14.6360   20.2164 N   0  0  0  0  0  0  0  0  0  0  0  0
  -28.1700  -10.4340   17.0333 N   0  0  0  0  0  0  0  0  0  0  0  0
  -26.3266   -7.1794   17.6692 N   0  0  0  0  0  0  0  0  0  0  0  0
  -27.3918  -16.2120   18.9869 N   0  0  0  0  0  0  0  0  0  0  0  0
  -27.8040  -31.5006   22.2223 N   0  0  0  0  0  0  0  0  0  0  0  0
  -21.3573  -30.0738   23.2597 N   0  0  0  0  0  0  0  0  0  0  0  0
  -19.1915  -27.7019   21.6010 N   0  3  0  0  0  0  0  0  0  0  0  0
  -22.6381  -24.6757   18.2464 O   0  0  0  0  0  0  0  0  0  0  0  0
  -24.9571   -8.6091   16.5121 O   0  0  0  0  0  0  0  0  0  0  0  0
  -26.5983  -30.0601   23.5984 O   0  0  0  0  0  0  0  0  0  0  0  0
  -23.5511  -32.2753   23.5503 O   0  0  0  0  0  0  0  0  0  0  0  0
  -20.8575  -27.8906   23.8605 O   0  0  0  0  0  0  0  0  0  0  0  0
  -29.4282  -16.7922   19.9347 O   0  0  0  0  0  0  0  0  0  0  0  0
  -21.2597   -7.9198   22.2392 O   0  0  0  0  0  0  0  0  0  0  0  0
  -25.4435  -25.1827   19.3109 O   0  0  0  0  0  0  0  0  0  1  0  0
  -21.9283   -3.1609   24.9427 F   0  0  0  0  0  0  0  0  0  0  0  0
  -26.9504  -20.8656   20.0717 F   0  0  0  0  0  0  0  0  0  0  0  0
  -20.8588   -7.7718   24.9705 F   0  0  0  0  0  0  0  0  0  0  0  0
  1  2  1  0  0  0  0
  1  5  2  0  0  0  0
  2  6  2  0  0  0  0
  3 10  2  0  0  0  0
  3 18  1  0  0  0  0
  4 11  1  0  0  0  0
  4 18  2  0  0  0  0
  5 20  1  0  0  0  0
  6 22  1  0  0  0  0
  7 12  2  0  0  0  0
  7 21  1  0  0  0  0
  8  9  2  0  0  0  0
  8 24  1  0  0  0  0
  9 25  1  0  0  0  0
 10 26  1  0  0  0  0
 11 26  2  0  0  0  0
 12 27  1  0  0  0  0
 13 14  2  0  0  0  0
 13 28  1  0  0  0  0
 14 29  1  0  0  0  0
 15 23  1  0  0  0  0
 15 27  2  0  0  0  0
 16 25  2  0  0  0  0
 16 30  1  0  0  0  0
 17 29  2  0  0  0  0
 17 31  1  0  0  0  0
 18 32  1  0  0  0  0
 19 32  1  0  0  0  0
 19 33  2  0  0  0  0
 19 35  1  0  0  0  0
 20 22  2  0  0  0  0
 20 40  1  0  0  0  0
 21 23  2  0  0  0  0
 21 41  1  0  0  0  0
 22 52  1  0  0  0  0
 23 42  1  0  0  0  0
 24 30  2  0  0  0  0
 24 67  1  0  0  0  0
 25 72  1  0  0  0  0
 26 82  1  0  0  0  0
 27 83  1  0  0  0  0
 28 31  2  0  0  0  0
 28 82  1  0  0  0  0
 29 84  1  0  0  0  0
 30 85  1  0  0  0  0
 31 86  1  0  0  0  0
 32 65  2  0  0  0  0
 33 66  1  0  0  0  0
 33 70  1  0  0  0  0
 34 43  1  0  0  0  0
 34 53  1  0  0  0  0
 34 76  2  0  0  0  0
 35 71  1  0  0  0  0
 35 77  2  0  0  0  0
 36 54  1  0  0  0  0
 36 73  1  0  0  0  0
 36 78  2  0  0  0  0
 37 62  1  0  0  0  0
 37 68  1  0  0  0  0
 37 79  2  0  0  0  0
 38 63  1  0  0  0  0
 38 74  1  0  0  0  0
 38 80  2  0  0  0  0
 39 69  1  0  0  0  0
 39 72  1  0  0  0  0
 39 81  2  0  0  0  0
 40 44  1  0  0  0  0
 41 54  1  0  0  0  0
 42 68  1  0  0  0  0
 43 48  1  0  0  0  0
 44 46  1  0  0  0  0
 45 47  1  0  0  0  0
 45 49  1  0  0  0  0
 46 52  1  0  0  0  0
 47 55  1  0  0  0  0
 48 67  1  0  0  0  0
 49 69  1  0  0  0  0
 50 53  1  0  0  0  0
 50 67  1  0  0  0  0
 51 55  1  0  0  0  0
 51 69  1  0  0  0  0
 52 73  1  0  0  0  0
 53 61  1  0  0  0  0
 54 68  1  0  0  0  0
 55 66  1  0  0  0  0
 56 63  1  0  0  0  0
 57 64  1  0  0  0  0
 58 64  1  0  0  0  0
 59 64  1  0  0  0  0
 60 75  1  0  0  0  0
 61 83  1  0  0  0  0
 62 64  1  0  0  0  0
 62 74  1  0  0  0  0
 63 75  1  0  0  0  0
 65 66  1  0  0  0  0
M  CHG  1  75   1
M  ISO  4  39 100  61 101  72 100  83 101
M  END
> <Batch ID>
0096

> <Smiles>
CNC(C)C(=O)NC(C(=O)N1Cc2cc([101O:1][101CH2:1]C3CN(c4ccc([100NH:0][100C:0](=O)N5CCCC(n6nc(-c7ccc(Oc8ccc(F)cc8F)cc7)c(C(N)=O)c6N)C5)cc4F)CCC3=O)ccc2CC1C(=O)NC1CCCc2ccccc21)C(C)(C)C

> <Shape>
0.252

> <Color>
0.110

> <Negative vol penalty>
0.000

$$$$

  -OEChem-04052300463D

 83 91  0     1  0  0  0  0  0999 V2000
  -28.5125  -31.9890   26.5479 C   0  0  0  0  0  0  0  0  0  0  0  0
  -28.5845  -31.0150   25.5572 C   0  0  0  0  0  0  0  0  0  0  0  0
  -24.4761   -9.2575   22.2451 C   0  0  0  0  0  0  0  0  0  0  0  0
  -23.5212   -9.8252   20.0997 C   0  0  0  0  0  0  0  0  0  0  0  0
  -30.1687  -21.1116   18.6527 C   0  0  0  0  0  0  0  0  0  0  0  0
  -27.3076  -32.2201   27.2104 C   0  0  0  0  0  0  0  0  0  0  0  0
  -27.4518  -30.2707   25.2291 C   0  0  0  0  0  0  0  0  0  0  0  0
  -26.8098  -29.8130   20.2268 C   0  0  0  0  0  0  0  0  0  0  0  0
  -23.3550   -8.4815   22.5389 C   0  0  0  0  0  0  0  0  0  0  0  0
  -22.4000   -9.0490   20.3934 C   0  0  0  0  0  0  0  0  0  0  0  0
  -30.2552  -22.4542   19.0209 C   0  0  0  0  0  0  0  0  0  0  0  0
  -27.6062  -28.8791   19.5655 C   0  0  0  0  0  0  0  0  0  0  0  0
  -22.1725   -5.4138   21.7491 C   0  0  0  0  0  0  0  0  0  0  0  0
  -22.3850   -4.1510   22.3022 C   0  0  0  0  0  0  0  0  0  0  0  0
  -27.7587  -21.2343   18.7714 C   0  0  0  0  0  0  0  0  0  0  0  0
  -25.7683  -27.3167   19.5713 C   0  0  0  0  0  0  0  0  0  0  0  0
  -21.1195   -4.7944   24.2571 C   0  0  0  0  0  0  0  0  0  0  0  0
  -24.5592   -9.9294   21.0255 C   0  0  0  0  0  0  0  0  0  0  0  0
  -28.9204  -20.5016   18.5279 C   0  0  0  0  0  0  0  0  0  0  0  0
  -26.8992  -10.3109   20.0839 C   0  0  0  0  0  0  0  0  0  0  0  0
  -26.1573  -31.4850   26.8836 C   0  0  0  0  0  0  0  0  0  0  0  0
  -25.4879  -29.5013   20.5756 C   0  0  0  0  0  0  0  0  0  0  0  0
  -26.2308  -30.4913   25.8888 C   0  0  0  0  0  0  0  0  0  0  0  0
  -24.9564  -28.2493   20.2348 C   0  0  0  0  0  0  0  0  0  0  0  0
  -27.8452  -22.5769   19.1396 C   0  0  0  0  0  0  0  0  0  0  0  0
  -22.3169   -8.3772   21.6130 C   0  0  0  0  0  0  0  0  0  0  0  0
  -27.0864  -27.6297   19.2402 C   0  0  0  0  0  0  0  0  0  0  0  0
  -29.0935  -23.1868   19.2643 C   0  0  0  0  0  0  0  0  0  0  0  0
  -21.4336   -6.3669   22.4501 C   0  0  0  0  0  0  0  0  0  0  0  0
  -21.8585   -3.8413   23.5562 C   0  0  0  0  0  0  0  0  0  0  0  0
  -20.9071   -6.0572   23.7040 C   0  0  0  0  0  0  0  0  0  0  0  0
  -25.7169  -10.7317   20.7218 C   0  0  0  0  0  0  0  0  0  0  0  0
  -27.6818  -11.4385   20.0329 C   0  0  0  0  0  0  0  0  0  0  0  0
  -28.8297  -19.0791   18.1377 C   0  0  0  0  0  0  0  0  0  0  0  0
  -27.2579   -9.0165   19.5823 C   0  0  0  0  0  0  0  0  0  0  0  0
  -23.8873  -29.2596   23.3112 C   0  0  0  0  0  0  0  0  0  0  0  0
  -21.3449  -28.8580   21.3371 C   0  0  0  0  0  0  0  0  0  0  0  0
  -20.1791  -27.9312   18.2665 C   0  0  0  0  0  0  0  0  0  0  0  0
  -28.0522  -16.8085   18.7833 C   0  0  0  0  0  0  0  0  0  0  0  0
  -24.8892  -31.7378   27.6600 C   0  0  0  0  0  0  0  0  0  0  0  0
  -24.6334  -30.5294   21.2651 C   0  0  0  0  0  0  0  0  0  0  0  0
  -23.5369  -27.8728   20.5689 C   0  0  0  0  0  0  0  0  0  0  0  0
  -23.6418  -31.1645   26.9926 C   0  0  0  0  0  0  0  0  0  0  0  0
  -27.1875  -15.9169   22.2783 C   0  0  0  0  0  0  0  0  0  0  0  0
  -23.8941  -29.7332   26.5296 C   0  0  0  0  0  0  0  0  0  0  0  0
  -26.7507  -14.4666   22.1029 C   0  0  0  0  0  0  0  0  0  0  0  0
  -26.8748  -16.7672   21.0477 C   0  0  0  0  0  0  0  0  0  0  0  0
  -26.9961  -14.7449   19.6084 C   0  0  0  0  0  0  0  0  0  0  0  0
  -25.0177  -29.6805   25.4874 C   0  0  1  0  0  0  0  0  0  0  0  0
  -23.4629  -29.9184   22.0292 C   0  0  1  0  0  0  0  0  0  0  0  0
  -27.3565  -13.8758   20.8218 C   0  0  2  0  0  0  0  0  0  0  0  0
  -18.0502  -27.6731   16.9633 C   0  0  0  0  0  0  0  0  0  0  0  0
  -20.7257  -26.2887   22.8620 C   0  0  0  0  0  0  0  0  0  0  0  0
  -19.2287  -25.6108   20.9732 C   0  0  0  0  0  0  0  0  0  0  0  0
  -18.7214  -27.6696   22.2873 C   0  0  0  0  0  0  0  0  0  0  0  0
  -21.0358  -29.9212   16.2504 C   0  0  0  0  0  0  0  0  0  0  0  0
  -29.2663  -26.7662   18.8424 C   0  0  0  0  0  0  0  0  0  1  0  0
  -29.8444  -25.3716   18.6996 C   0  0  0  0  0  0  0  0  0  0  0  0
  -20.6757  -27.6732   20.6833 C   0  0  1  0  0  0  0  0  0  0  0  0
  -19.2030  -28.6002   17.3156 C   0  0  2  0  0  0  0  0  0  0  0  0
  -19.8653  -26.8167   21.6968 C   0  0  0  0  0  0  0  0  0  0  0  0
  -25.7418  -12.0256   21.0524 N   0  0  0  0  0  0  0  0  0  0  0  0
  -26.9494  -12.4275   20.6207 N   0  0  0  0  0  0  0  0  0  0  0  0
  -22.7432  -28.9098   21.2488 N   0  0  0  0  0  0  0  0  0  0  0  0
  -27.3686  -16.1494   19.8093 N   0  0  0  0  0  0  0  0  0  0  0  0
  -26.6612  -23.3072   19.3822 N   0  0  0  0  0  0  0  0  0  0  0  0
  -28.9182  -11.6705   19.5432 N   0  0  0  0  0  0  0  0  0  0  0  0
  -26.3363   -7.9691   19.7163 N   0  0  0  0  0  0  0  0  0  0  0  0
  -28.2346  -18.2293   18.9890 N   0  0  0  0  0  0  0  0  0  0  0  0
  -24.5282  -30.1076   24.1943 N   0  0  0  0  0  0  0  0  0  0  0  0
  -19.8806  -28.2090   19.5837 N   0  0  0  0  0  0  0  0  0  0  0  0
  -29.3514  -18.7274   16.9627 N   0  3  0  0  0  0  0  0  0  0  0  0
  -19.8941  -28.9911   16.0544 N   0  3  0  0  0  0  0  0  0  0  0  0
  -28.3695   -8.7914   19.0464 O   0  0  0  0  0  0  0  0  0  0  0  0
  -23.6496  -28.0703   23.4869 O   0  0  0  0  0  0  0  0  0  0  0  0
  -20.6520  -29.7099   21.8991 O   0  0  0  0  0  0  0  0  0  0  0  0
  -21.1108  -27.2291   17.8796 O   0  0  0  0  0  0  0  0  0  0  0  0
  -28.4627  -16.2891   17.7510 O   0  0  0  0  0  0  0  0  0  0  0  0
  -21.2228   -7.6198   21.8993 O   0  0  0  0  0  0  0  0  0  0  0  0
  -27.8618  -26.7160   18.5953 O   0  0  0  0  0  0  0  0  0  1  0  0
  -29.1995  -24.5044   19.6246 O   0  0  0  0  0  0  0  0  0  0  0  0
  -22.0613   -2.6281   24.0865 F   0  0  0  0  0  0  0  0  0  0  0  0
  -20.1954   -6.9683   24.3817 F   0  0  0  0  0  0  0  0  0  0  0  0
  1  2  1  0  0  0  0
  1  6  2  0  0  0  0
  2  7  2  0  0  0  0
  3  9  2  0  0  0  0
  3 18  1  0  0  0  0
  4 10  1  0  0  0  0
  4 18  2  0  0  0  0
  5 11  2  0  0  0  0
  5 19  1  0  0  0  0
  6 21  1  0  0  0  0
  7 23  1  0  0  0  0
  8 12  2  0  0  0  0
  8 22  1  0  0  0  0
  9 26  1  0  0  0  0
 10 26  2  0  0  0  0
 11 28  1  0  0  0  0
 12 27  1  0  0  0  0
 13 14  2  0  0  0  0
 13 29  1  0  0  0  0
 14 30  1  0  0  0  0
 15 19  2  0  0  0  0
 15 25  1  0  0  0  0
 16 24  1  0  0  0  0
 16 27  2  0  0  0  0
 17 30  2  0  0  0  0
 17 31  1  0  0  0  0
 18 32  1  0  0  0  0
 19 34  1  0  0  0  0
 20 32  1  0  0  0  0
 20 33  2  0  0  0  0
 20 35  1  0  0  0  0
 21 23  2  0  0  0  0
 21 40  1  0  0  0  0
 22 24  2  0  0  0  0
 22 41  1  0  0  0  0
 23 49  1  0  0  0  0
 24 42  1  0  0  0  0
 25 28  2  0  0  0  0
 25 66  1  0  0  0  0
 26 79  1  0  0  0  0
 27 80  1  0  0  0  0
 28 81  1  0  0  0  0
 29 31  2  0  0  0  0
 29 79  1  0  0  0  0
 30 82  1  0  0  0  0
 31 83  1  0  0  0  0
 32 62  2  0  0  0  0
 33 63  1  0  0  0  0
 33 67  1  0  0  0  0
 34 69  1  0  0  0  0
 34 72  2  0  0  0  0
 35 68  1  0  0  0  0
 35 74  2  0  0  0  0
 36 50  1  0  0  0  0
 36 70  1  0  0  0  0
 36 75  2  0  0  0  0
 37 59  1  0  0  0  0
 37 64  1  0  0  0  0
 37 76  2  0  0  0  0
 38 60  1  0  0  0  0
 38 71  1  0  0  0  0
 38 77  2  0  0  0  0
 39 65  1  0  0  0  0
 39 69  1  0  0  0  0
 39 78  2  0  0  0  0
 40 43  1  0  0  0  0
 41 50  1  0  0  0  0
 42 64  1  0  0  0  0
 43 45  1  0  0  0  0
 44 46  1  0  0  0  0
 44 47  1  0  0  0  0
 45 49  1  0  0  0  0
 46 51  1  0  0  0  0
 47 65  1  0  0  0  0
 48 51  1  0  0  0  0
 48 65  1  0  0  0  0
 49 70  1  0  0  0  0
 50 64  1  0  0  0  0
 51 63  1  0  0  0  0
 52 60  1  0  0  0  0
 53 61  1  0  0  0  0
 54 61  1  0  0  0  0
 55 61  1  0  0  0  0
 56 73  1  0  0  0  0
 57 58  1  0  0  0  0
 57 80  1  0  0  0  0
 58 81  1  0  0  0  0
 59 61  1  0  0  0  0
 59 71  1  0  0  0  0
 60 73  1  0  0  0  0
 62 63  1  0  0  0  0
M  CHG  2  72   1  73   1
M  ISO  4  39 100  57 101  69 100  80 101
M  END
> <Batch ID>
0096

> <Smiles>
CNC(C)C(=O)NC(C(=O)N1Cc2cc([101O:1][101CH2:1]COc3ccc(C(=N)[100NH:0][100C:0](=O)N4CCCC(n5nc(-c6ccc(Oc7ccc(F)cc7F)cc6)c(C(N)=O)c5N)C4)cc3N)ccc2CC1C(=O)NC1CCCc2ccccc21)C(C)(C)C

> <Shape>
0.332

> <Color>
0.085

> <Negative vol penalty>
0.000

$$$$

  -OEChem-04052300463D

 86 94  0     1  0  0  0  0  0999 V2000
  -23.0941  -29.8536   23.9955 C   0  0  0  0  0  0  0  0  0  0  0  0
  -22.7337  -28.5314   23.7561 C   0  0  0  0  0  0  0  0  0  0  0  0
  -28.7269  -12.9693   21.0139 C   0  0  0  0  0  0  0  0  0  0  0  0
  -28.3093  -12.4621   18.6889 C   0  0  0  0  0  0  0  0  0  0  0  0
  -24.0063  -30.4896   23.1544 C   0  0  0  0  0  0  0  0  0  0  0  0
  -23.2845  -27.8447   22.6747 C   0  0  0  0  0  0  0  0  0  0  0  0
  -24.7788  -23.1646   23.9030 C   0  0  0  0  0  0  0  0  0  0  0  0
  -23.1818  -12.6589   25.3965 C   0  0  0  0  0  0  0  0  0  0  0  0
  -23.0091  -14.0046   25.0726 C   0  0  0  0  0  0  0  0  0  0  0  0
  -30.1001  -12.9582   20.7697 C   0  0  0  0  0  0  0  0  0  0  0  0
  -29.6826  -12.4511   18.4447 C   0  0  0  0  0  0  0  0  0  0  0  0
  -23.7896  -22.1879   24.0101 C   0  0  0  0  0  0  0  0  0  0  0  0
  -33.7274  -12.7081   20.8328 C   0  0  0  0  0  0  0  0  0  0  0  0
  -34.5437  -12.0339   21.7409 C   0  0  0  0  0  0  0  0  0  0  0  0
  -24.3484  -21.3886   21.8037 C   0  0  0  0  0  0  0  0  0  0  0  0
  -21.3925  -12.0655   23.8855 C   0  0  0  0  0  0  0  0  0  0  0  0
  -33.3595   -9.9791   21.2798 C   0  0  0  0  0  0  0  0  0  0  0  0
  -27.8315  -12.7212   19.9735 C   0  0  0  0  0  0  0  0  0  0  0  0
  -25.5427  -13.8353   20.1406 C   0  0  0  0  0  0  0  0  0  0  0  0
  -24.5759  -29.8072   22.0679 C   0  0  0  0  0  0  0  0  0  0  0  0
  -25.5541  -23.2677   22.7391 C   0  0  0  0  0  0  0  0  0  0  0  0
  -24.2042  -28.4725   21.8175 C   0  0  0  0  0  0  0  0  0  0  0  0
  -25.3485  -22.3658   21.6853 C   0  0  0  0  0  0  0  0  0  0  0  0
  -22.3735  -11.6893   24.8029 C   0  0  0  0  0  0  0  0  0  0  0  0
  -22.0281  -14.3807   24.1551 C   0  0  0  0  0  0  0  0  0  0  0  0
  -30.5780  -12.6992   19.4852 C   0  0  0  0  0  0  0  0  0  0  0  0
  -23.5723  -21.3016   22.9592 C   0  0  0  0  0  0  0  0  0  0  0  0
  -32.7271  -12.0179   20.1483 C   0  0  0  0  0  0  0  0  0  0  0  0
  -34.3598  -10.6694   21.9644 C   0  0  0  0  0  0  0  0  0  0  0  0
  -21.2197  -13.4112   23.5615 C   0  0  0  0  0  0  0  0  0  0  0  0
  -32.5432  -10.6534   20.3717 C   0  0  0  0  0  0  0  0  0  0  0  0
  -26.4128  -12.7319   20.2253 C   0  0  0  0  0  0  0  0  0  0  0  0
  -24.3105  -13.3272   20.4719 C   0  0  0  0  0  0  0  0  0  0  0  0
  -22.9541  -19.1346   23.5857 C   0  0  0  0  0  0  0  0  0  1  0  0
  -25.8233  -15.1979   19.7935 C   0  0  0  0  0  0  0  0  0  0  0  0
  -22.0867  -18.1257   23.7319 C   0  0  0  0  0  0  0  0  0  0  0  0
  -22.5670  -16.8328   24.3201 C   0  0  0  0  0  0  0  0  0  0  0  0
  -25.9923  -25.5077   20.5268 C   0  0  0  0  0  0  0  0  0  0  0  0
  -28.2557  -23.4494   19.4487 C   0  0  0  0  0  0  0  0  0  0  0  0
  -29.4139  -20.2434   19.2842 C   0  0  0  0  0  0  0  0  0  0  0  0
  -22.2809   -9.2465   24.2417 C   0  0  0  0  0  0  0  0  0  0  0  0
  -25.5216  -30.5512   21.1586 C   0  0  0  0  0  0  0  0  0  0  0  0
  -26.6352  -24.3097   22.6499 C   0  0  0  0  0  0  0  0  0  0  0  0
  -26.1675  -22.4215   20.4226 C   0  0  0  0  0  0  0  0  0  0  0  0
  -26.3441  -29.6362   20.2550 C   0  0  0  0  0  0  0  0  0  0  0  0
  -22.2675   -8.8365   20.5641 C   0  0  0  0  0  0  0  0  0  0  0  0
  -25.4515  -28.5813   19.6089 C   0  0  0  0  0  0  0  0  0  0  0  0
  -23.3190   -9.8457   20.1064 C   0  0  0  0  0  0  0  0  0  0  0  0
  -22.5579   -8.3131   21.9674 C   0  0  0  0  0  0  0  0  0  0  0  0
  -23.7592  -10.4064   22.5299 C   0  0  0  0  0  0  0  0  0  0  0  0
  -24.7988  -27.6863   20.6693 C   0  0  1  0  0  0  0  0  0  0  0  0
  -27.0185  -24.6515   21.2133 C   0  0  1  0  0  0  0  0  0  0  0  0
  -23.4670  -10.9790   21.1349 C   0  0  1  0  0  0  0  0  0  0  0  0
  -21.4787   -9.9636   27.3307 C   0  0  0  0  0  0  0  0  0  0  0  0
  -31.2662  -18.8662   18.2995 C   0  0  0  0  0  0  0  0  0  0  0  0
  -26.9079  -23.5954   16.7152 C   0  0  0  0  0  0  0  0  0  0  0  0
  -28.1722  -21.5364   16.0593 C   0  0  0  0  0  0  0  0  0  0  0  0
  -29.4077  -23.6218   16.6485 C   0  0  0  0  0  0  0  0  0  0  0  0
  -30.3701  -19.4074   21.9574 C   0  0  0  0  0  0  0  0  0  0  0  0
  -22.7723   -9.9546   26.5414 C   0  0  0  0  0  0  0  0  0  0  0  0
  -28.2744  -22.2940   18.4773 C   0  0  1  0  0  0  0  0  0  0  0  0
  -30.7969  -19.6592   19.5093 C   0  0  2  0  0  0  0  0  0  0  0  0
  -28.1737  -22.7618   16.9980 C   0  0  0  0  0  0  0  0  0  0  0  0
  -25.7864  -11.6076   20.5825 N   0  0  0  0  0  0  0  0  0  0  0  0
  -24.5097  -12.0019   20.7253 N   0  0  0  0  0  0  0  0  0  0  0  0
  -27.2083  -23.4620   20.3807 N   0  0  0  0  0  0  0  0  0  0  0  0
  -22.7559   -9.4037   22.9234 N   0  0  0  0  0  0  0  0  0  0  0  0
  -23.0868  -13.8891   20.5683 N   0  0  0  0  0  0  0  0  0  0  0  0
  -27.1434  -15.5494   19.4805 N   0  0  0  0  0  0  0  0  0  0  0  0
  -21.8548  -15.7474   23.8287 N   0  0  0  0  0  0  0  0  0  0  0  0
  -25.7481  -26.7109   21.1611 N   0  0  0  0  0  0  0  0  0  0  0  0
  -29.4769  -21.5253   18.7803 N   0  0  0  0  0  0  0  0  0  0  0  0
  -22.5515  -10.2977   25.1383 N   0  0  0  0  0  0  0  0  0  0  0  0
  -30.7899  -18.7523   20.6919 N   0  3  0  0  0  0  0  0  0  0  0  0
  -24.9326  -16.0811   19.7778 O   0  0  0  0  0  0  0  0  0  0  0  0
  -23.4848  -16.8131   25.1332 O   0  0  0  0  0  0  0  0  0  0  0  0
  -25.4623  -25.1072   19.4971 O   0  0  0  0  0  0  0  0  0  0  0  0
  -29.1420  -24.3052   19.3877 O   0  0  0  0  0  0  0  0  0  0  0  0
  -28.3812  -19.6231   19.5273 O   0  0  0  0  0  0  0  0  0  0  0  0
  -21.7039   -8.2162   24.6108 O   0  0  0  0  0  0  0  0  0  0  0  0
  -20.7608  -18.2274   23.3626 O   0  0  0  0  0  0  0  0  0  0  0  0
  -31.9180  -12.6885   19.2465 O   0  0  0  0  0  0  0  0  0  0  0  0
  -22.6071  -20.3478   23.0609 O   0  0  0  0  0  0  0  0  0  1  0  0
  -35.1448  -10.0218   22.8353 F   0  0  0  0  0  0  0  0  0  0  0  0
  -20.2726  -13.7612   22.6794 F   0  0  0  0  0  0  0  0  0  0  0  0
  -31.5846   -9.9847   19.7162 F   0  0  0  0  0  0  0  0  0  0  0  0
  1  2  1  0  0  0  0
  1  5  2  0  0  0  0
  2  6  2  0  0  0  0
  3 10  2  0  0  0  0
  3 18  1  0  0  0  0
  4 11  1  0  0  0  0
  4 18  2  0  0  0  0
  5 20  1  0  0  0  0
  6 22  1  0  0  0  0
  7 12  2  0  0  0  0
  7 21  1  0  0  0  0
  8  9  2  0  0  0  0
  8 24  1  0  0  0  0
  9 25  1  0  0  0  0
 10 26  1  0  0  0  0
 11 26  2  0  0  0  0
 12 27  1  0  0  0  0
 13 14  2  0  0  0  0
 13 28  1  0  0  0  0
 14 29  1  0  0  0  0
 15 23  1  0  0  0  0
 15 27  2  0  0  0  0
 16 24  2  0  0  0  0
 16 30  1  0  0  0  0
 17 29  2  0  0  0  0
 17 31  1  0  0  0  0
 18 32  1  0  0  0  0
 19 32  1  0  0  0  0
 19 33  2  0  0  0  0
 19 35  1  0  0  0  0
 20 22  2  0  0  0  0
 20 42  1  0  0  0  0
 21 23  2  0  0  0  0
 21 43  1  0  0  0  0
 22 51  1  0  0  0  0
 23 44  1  0  0  0  0
 24 73  1  0  0  0  0
 25 30  2  0  0  0  0
 25 70  1  0  0  0  0
 26 82  1  0  0  0  0
 27 83  1  0  0  0  0
 28 31  2  0  0  0  0
 28 82  1  0  0  0  0
 29 84  1  0  0  0  0
 30 85  1  0  0  0  0
 31 86  1  0  0  0  0
 32 64  2  0  0  0  0
 33 65  1  0  0  0  0
 33 68  1  0  0  0  0
 34 36  2  0  0  0  0
 34 83  1  0  0  0  0
 35 69  1  0  0  0  0
 35 75  2  0  0  0  0
 36 37  1  0  0  0  0
 36 81  1  0  0  0  0
 37 70  1  0  0  0  0
 37 76  2  0  0  0  0
 38 52  1  0  0  0  0
 38 71  1  0  0  0  0
 38 77  2  0  0  0  0
 39 61  1  0  0  0  0
 39 66  1  0  0  0  0
 39 78  2  0  0  0  0
 40 62  1  0  0  0  0
 40 72  1  0  0  0  0
 40 79  2  0  0  0  0
 41 67  1  0  0  0  0
 41 73  1  0  0  0  0
 41 80  2  0  0  0  0
 42 45  1  0  0  0  0
 43 52  1  0  0  0  0
 44 66  1  0  0  0  0
 45 47  1  0  0  0  0
 46 48  1  0  0  0  0
 46 49  1  0  0  0  0
 47 51  1  0  0  0  0
 48 53  1  0  0  0  0
 49 67  1  0  0  0  0
 50 53  1  0  0  0  0
 50 67  1  0  0  0  0
 51 71  1  0  0  0  0
 52 66  1  0  0  0  0
 53 65  1  0  0  0  0
 54 60  1  0  0  0  0
 55 62  1  0  0  0  0
 56 63  1  0  0  0  0
 57 63  1  0  0  0  0
 58 63  1  0  0  0  0
 59 74  1  0  0  0  0
 60 73  1  0  0  0  0
 61 63  1  0  0  0  0
 61 72  1  0  0  0  0
 62 74  1  0  0  0  0
 64 65  1  0  0  0  0
M  CHG  1  74   1
M  ISO  4  34 101  41 100  73 100  83 101
M  END
> <Batch ID>
0096

> <Smiles>
CC[100N:0](c1ccc(NC(=O)C(=O)[101CH2:1][101O:1]c2ccc3c(c2)CN(C(=O)C(NC(=O)C(C)NC)C(C)(C)C)C(C(=O)NC2CCCc4ccccc42)C3)c(F)c1)[100C:0](=O)N1CCCC(n2nc(-c3ccc(Oc4ccc(F)cc4F)cc3)c(C(N)=O)c2N)C1

> <Shape>
0.213

> <Color>
0.099

> <Negative vol penalty>
0.000

$$$$

  -OEChem-04052300463D

 88 97  0     1  0  0  0  0  0999 V2000
  -18.1802  -28.8094   19.6501 C   0  0  0  0  0  0  0  0  0  0  0  0
  -19.4032  -29.4659   19.7290 C   0  0  0  0  0  0  0  0  0  0  0  0
  -25.3020  -13.3462   21.9571 C   0  0  0  0  0  0  0  0  0  0  0  0
  -25.9626  -13.6819   19.6576 C   0  0  0  0  0  0  0  0  0  0  0  0
  -17.9150  -27.7338   20.4950 C   0  0  0  0  0  0  0  0  0  0  0  0
  -20.3659  -29.0396   20.6446 C   0  0  0  0  0  0  0  0  0  0  0  0
  -24.6915  -24.3535   21.2047 C   0  0  0  0  0  0  0  0  0  0  0  0
  -26.9567  -18.4922   18.7801 C   0  0  0  0  0  0  0  0  0  0  0  0
  -28.0581  -17.6932   19.0868 C   0  0  0  0  0  0  0  0  0  0  0  0
  -25.1502  -11.9811   21.7143 C   0  0  0  0  0  0  0  0  0  0  0  0
  -25.8109  -12.3168   19.4147 C   0  0  0  0  0  0  0  0  0  0  0  0
  -24.0286  -23.4293   20.3984 C   0  0  0  0  0  0  0  0  0  0  0  0
  -22.8594   -9.9447   20.2897 C   0  0  0  0  0  0  0  0  0  0  0  0
  -21.7146   -9.3220   20.7870 C   0  0  0  0  0  0  0  0  0  0  0  0
  -23.2680  -25.2240   18.9771 C   0  0  0  0  0  0  0  0  0  0  0  0
  -26.6648  -17.2927   16.7033 C   0  0  0  0  0  0  0  0  0  0  0  0
  -23.0937   -7.8393   22.1050 C   0  0  0  0  0  0  0  0  0  0  0  0
  -25.7082  -14.1967   20.9287 C   0  0  0  0  0  0  0  0  0  0  0  0
  -24.8746  -16.5080   21.6148 C   0  0  0  0  0  0  0  0  0  0  0  0
  -18.8707  -27.3026   21.4297 C   0  0  0  0  0  0  0  0  0  0  0  0
  -24.6385  -25.7233   20.9090 C   0  0  0  0  0  0  0  0  0  0  0  0
  -20.1263  -27.9408   21.4896 C   0  0  0  0  0  0  0  0  0  0  0  0
  -23.9332  -26.1632   19.7798 C   0  0  0  0  0  0  0  0  0  0  0  0
  -26.2600  -18.2920   17.5883 C   0  0  0  0  0  0  0  0  0  0  0  0
  -28.4629  -16.6939   18.2018 C   0  0  0  0  0  0  0  0  0  0  0  0
  -27.7662  -16.4937   17.0100 C   0  0  0  0  0  0  0  0  0  0  0  0
  -25.4047  -11.4664   20.4431 C   0  0  0  0  0  0  0  0  0  0  0  0
  -23.3143  -23.8647   19.2861 C   0  0  0  0  0  0  0  0  0  0  0  0
  -24.1214   -9.5146   20.6999 C   0  0  0  0  0  0  0  0  0  0  0  0
  -21.8317   -8.2694   21.6947 C   0  0  0  0  0  0  0  0  0  0  0  0
  -24.2385   -8.4620   21.6076 C   0  0  0  0  0  0  0  0  0  0  0  0
  -25.8646  -15.6070   21.1788 C   0  0  0  0  0  0  0  0  0  0  0  0
  -25.5228  -17.7160   21.6989 C   0  0  0  0  0  0  0  0  0  0  0  0
  -23.0395  -19.1228   15.9762 C   0  0  0  0  0  0  0  0  0  0  0  0
  -24.6959  -20.1345   18.1545 C   0  0  0  0  0  0  0  0  0  0  0  0
  -23.4928  -16.2738   21.9169 C   0  0  0  0  0  0  0  0  0  0  0  0
  -23.5349  -28.3004   22.4070 C   0  0  0  0  0  0  0  0  0  0  0  0
  -24.9110  -29.8583   19.9167 C   0  0  0  0  0  0  0  0  0  0  0  0
  -28.1326  -30.6790   20.6881 C   0  0  0  0  0  0  0  0  0  0  0  0
  -30.3137  -16.0772   19.7451 C   0  0  0  0  0  0  0  0  0  0  0  0
  -18.5342  -26.1282   22.3145 C   0  0  0  0  0  0  0  0  0  0  0  0
  -25.3812  -26.7048   21.7735 C   0  0  0  0  0  0  0  0  0  0  0  0
  -23.8622  -27.6209   19.4074 C   0  0  0  0  0  0  0  0  0  0  0  0
  -22.4290  -19.7417   17.2060 C   0  0  0  0  0  0  0  0  0  0  0  0
  -24.5502  -19.0397   15.9223 C   0  0  0  0  0  0  0  0  0  0  0  0
  -19.4319  -26.0336   23.5439 C   0  0  0  0  0  0  0  0  0  0  0  0
  -29.7426  -17.6532   22.8772 C   0  0  0  0  0  0  0  0  0  0  0  0
  -20.8919  -26.1460   23.1313 C   0  0  0  0  0  0  0  0  0  0  0  0
  -28.6530  -18.6841   22.5946 C   0  0  0  0  0  0  0  0  0  0  0  0
  -30.7105  -17.5415   21.7077 C   0  0  0  0  0  0  0  0  0  0  0  0
  -28.9482  -18.2067   20.0940 C   0  0  0  0  0  0  0  0  0  0  0  0
  -21.1769  -27.5141   22.4988 C   0  0  1  0  0  0  0  0  0  0  0  0
  -23.3919  -20.8074   17.7214 C   0  0  1  0  0  0  0  0  0  0  0  0
  -24.8333  -28.1250   21.6713 C   0  0  1  0  0  0  0  0  0  0  0  0
  -27.9513  -18.4814   21.2404 C   0  0  1  0  0  0  0  0  0  0  0  0
  -29.2434  -28.4700   20.2592 C   0  0  0  0  0  0  0  0  0  0  0  0
  -24.5266  -32.3062   22.5866 C   0  0  0  0  0  0  0  0  0  0  0  0
  -25.7084  -30.2691   23.4361 C   0  0  0  0  0  0  0  0  0  0  0  0
  -23.5638  -30.0335   22.1840 C   0  0  0  0  0  0  0  0  0  0  0  0
  -29.8794  -14.6837   17.7397 C   0  0  0  0  0  0  0  0  0  0  0  0
  -30.7881  -30.1094   22.9774 C   0  0  0  0  0  0  0  0  0  0  0  0
  -22.7593  -21.5901   18.8689 C   0  0  0  0  0  0  0  0  0  1  0  0
  -25.6640  -30.6809   20.9342 C   0  0  1  0  0  0  0  0  0  0  0  0
  -29.3554  -29.8191   20.9521 C   0  0  2  0  0  0  0  0  0  0  0  0
  -24.8783  -30.8397   22.2665 C   0  0  0  0  0  0  0  0  0  0  0  0
  -27.0514  -16.1927   20.9983 N   0  0  0  0  0  0  0  0  0  0  0  0
  -26.8113  -17.4746   21.3225 N   0  0  0  0  0  0  0  0  0  0  0  0
  -25.1219  -19.1176   17.2719 N   0  0  0  0  0  0  0  0  0  0  0  0
  -24.5997  -28.5425   20.2874 N   0  0  0  0  0  0  0  0  0  0  0  0
  -30.0094  -17.2553   20.4570 N   0  0  0  0  0  0  0  0  0  0  0  0
  -28.1588  -15.4870   16.0994 N   0  0  0  0  0  0  0  0  0  0  0  0
  -25.1106  -18.9505   22.0572 N   0  0  0  0  0  0  0  0  0  0  0  0
  -22.5520  -16.4054   20.8864 N   0  0  0  0  0  0  0  0  0  0  0  0
  -22.5085  -27.5050   21.9343 N   0  0  0  0  0  0  0  0  0  0  0  0
  -26.9709  -30.0497   21.0829 N   0  0  0  0  0  0  0  0  0  0  0  0
  -29.6054  -15.8799   18.5416 N   0  0  0  0  0  0  0  0  0  0  0  0
  -29.5175  -29.5842   22.4148 N   0  3  0  0  0  0  0  0  0  0  0  0
  -22.3443  -18.7667   15.0252 O   0  0  0  0  0  0  0  0  0  0  0  0
  -25.2954  -20.5109   19.1616 O   0  0  0  0  0  0  0  0  0  0  0  0
  -23.1019  -15.9734   23.0704 O   0  0  0  0  0  0  0  0  0  0  0  0
  -23.4696  -29.0973   23.3356 O   0  0  0  0  0  0  0  0  0  0  0  0
  -24.6040  -30.3669   18.8356 O   0  0  0  0  0  0  0  0  0  0  0  0
  -28.2013  -31.7984   20.1855 O   0  0  0  0  0  0  0  0  0  0  0  0
  -31.1608  -15.2699   20.1454 O   0  0  0  0  0  0  0  0  0  0  0  0
  -25.2569  -10.1343   20.2058 O   0  0  0  0  0  0  0  0  0  0  0  0
  -22.6658  -22.9648   18.4977 O   0  0  0  0  0  0  0  0  0  1  0  0
  -20.7323   -7.6726   22.1735 F   0  0  0  0  0  0  0  0  0  0  0  0
  -25.4481   -8.0452   22.0063 F   0  0  0  0  0  0  0  0  0  0  0  0
  1  2  1  0  0  0  0
  1  5  2  0  0  0  0
  2  6  2  0  0  0  0
  3 10  2  0  0  0  0
  3 18  1  0  0  0  0
  4 11  1  0  0  0  0
  4 18  2  0  0  0  0
  5 20  1  0  0  0  0
  6 22  1  0  0  0  0
  7 12  2  0  0  0  0
  7 21  1  0  0  0  0
  8  9  2  0  0  0  0
  8 24  1  0  0  0  0
  9 25  1  0  0  0  0
 10 27  1  0  0  0  0
 11 27  2  0  0  0  0
 12 28  1  0  0  0  0
 13 14  2  0  0  0  0
 13 29  1  0  0  0  0
 14 30  1  0  0  0  0
 15 23  1  0  0  0  0
 15 28  2  0  0  0  0
 16 24  2  0  0  0  0
 16 26  1  0  0  0  0
 17 30  2  0  0  0  0
 17 31  1  0  0  0  0
 18 32  1  0  0  0  0
 19 32  1  0  0  0  0
 19 33  2  0  0  0  0
 19 36  1  0  0  0  0
 20 22  2  0  0  0  0
 20 41  1  0  0  0  0
 21 23  2  0  0  0  0
 21 42  1  0  0  0  0
 22 52  1  0  0  0  0
 23 43  1  0  0  0  0
 24 68  1  0  0  0  0
 25 26  2  0  0  0  0
 25 76  1  0  0  0  0
 26 71  1  0  0  0  0
 27 85  1  0  0  0  0
 28 86  1  0  0  0  0
 29 31  2  0  0  0  0
 29 85  1  0  0  0  0
 30 87  1  0  0  0  0
 31 88  1  0  0  0  0
 32 66  2  0  0  0  0
 33 67  1  0  0  0  0
 33 72  1  0  0  0  0
 34 44  1  0  0  0  0
 34 45  1  0  0  0  0
 34 78  2  0  0  0  0
 35 53  1  0  0  0  0
 35 68  1  0  0  0  0
 35 79  2  0  0  0  0
 36 73  1  0  0  0  0
 36 80  2  0  0  0  0
 37 54  1  0  0  0  0
 37 74  1  0  0  0  0
 37 81  2  0  0  0  0
 38 63  1  0  0  0  0
 38 69  1  0  0  0  0
 38 82  2  0  0  0  0
 39 64  1  0  0  0  0
 39 75  1  0  0  0  0
 39 83  2  0  0  0  0
 40 70  1  0  0  0  0
 40 76  1  0  0  0  0
 40 84  2  0  0  0  0
 41 46  1  0  0  0  0
 42 54  1  0  0  0  0
 43 69  1  0  0  0  0
 44 53  1  0  0  0  0
 45 68  1  0  0  0  0
 46 48  1  0  0  0  0
 47 49  1  0  0  0  0
 47 50  1  0  0  0  0
 48 52  1  0  0  0  0
 49 55  1  0  0  0  0
 50 70  1  0  0  0  0
 51 55  1  0  0  0  0
 51 70  1  0  0  0  0
 52 74  1  0  0  0  0
 53 62  1  0  0  0  0
 54 69  1  0  0  0  0
 55 67  1  0  0  0  0
 56 64  1  0  0  0  0
 57 65  1  0  0  0  0
 58 65  1  0  0  0  0
 59 65  1  0  0  0  0
 60 76  1  0  0  0  0
 61 77  1  0  0  0  0
 62 86  1  0  0  0  0
 63 65  1  0  0  0  0
 63 75  1  0  0  0  0
 64 77  1  0  0  0  0
 66 67  1  0  0  0  0
M  CHG  1  77   1
M  ISO  4  40 100  62 101  76 100  86 101
M  END
> <Batch ID>
0096

> <Smiles>
CNC(C)C(=O)NC(C(=O)N1Cc2cc([101O:1][101CH2:1]C3CC(=O)CN(c4ccc([100N:0](C)[100C:0](=O)N5CCCC(n6nc(-c7ccc(Oc8ccc(F)cc8F)cc7)c(C(N)=O)c6N)C5)c(N)c4)C3=O)ccc2CC1C(=O)NC1CCCc2ccccc21)C(C)(C)C

> <Shape>
0.237

> <Color>
0.067

> <Negative vol penalty>
0.000

$$$$

  -OEChem-04052300463D

 86 95  0     1  0  0  0  0  0999 V2000
  -24.6595  -27.5665   12.5376 C   0  0  0  0  0  0  0  0  0  0  0  0
  -25.7192  -27.2535   13.3828 C   0  0  0  0  0  0  0  0  0  0  0  0
  -22.9918  -11.6279   22.5750 C   0  0  0  0  0  0  0  0  0  0  0  0
  -23.6160   -9.8354   21.0802 C   0  0  0  0  0  0  0  0  0  0  0  0
  -23.8264  -28.6440   12.8357 C   0  0  0  0  0  0  0  0  0  0  0  0
  -25.9470  -28.0184   14.5262 C   0  0  0  0  0  0  0  0  0  0  0  0
  -26.9070  -25.1758   18.6059 C   0  0  0  0  0  0  0  0  0  0  0  0
  -32.3538  -18.8526   21.1988 C   0  0  0  0  0  0  0  0  0  0  0  0
  -31.8752  -17.5966   20.8261 C   0  0  0  0  0  0  0  0  0  0  0  0
  -22.1627  -10.7534   23.2775 C   0  0  0  0  0  0  0  0  0  0  0  0
  -22.7870   -8.9608   21.7827 C   0  0  0  0  0  0  0  0  0  0  0  0
  -28.1880  -24.6374   18.7196 C   0  0  0  0  0  0  0  0  0  0  0  0
  -19.0911   -9.3933   22.9039 C   0  0  0  0  0  0  0  0  0  0  0  0
  -17.8149   -9.8429   23.2428 C   0  0  0  0  0  0  0  0  0  0  0  0
  -28.7831  -26.3947   20.2614 C   0  0  0  0  0  0  0  0  0  0  0  0
  -30.1480  -19.7867   20.8836 C   0  0  0  0  0  0  0  0  0  0  0  0
  -18.3259   -9.5293   25.5832 C   0  0  0  0  0  0  0  0  0  0  0  0
  -23.7185  -11.1689   21.4763 C   0  0  0  0  0  0  0  0  0  0  0  0
  -24.1947  -13.2516   20.0824 C   0  0  0  0  0  0  0  0  0  0  0  0
  -24.0382  -29.4166   13.9884 C   0  0  0  0  0  0  0  0  0  0  0  0
  -26.5572  -26.3359   19.3117 C   0  0  0  0  0  0  0  0  0  0  0  0
  -25.1167  -29.1080   14.8394 C   0  0  0  0  0  0  0  0  0  0  0  0
  -27.4962  -26.9444   20.1568 C   0  0  0  0  0  0  0  0  0  0  0  0
  -31.4902  -19.9477   21.2276 C   0  0  0  0  0  0  0  0  0  0  0  0
  -30.5331  -17.4356   20.4820 C   0  0  0  0  0  0  0  0  0  0  0  0
  -22.0603   -9.4199   22.8814 C   0  0  0  0  0  0  0  0  0  0  0  0
  -29.1271  -25.2485   19.5452 C   0  0  0  0  0  0  0  0  0  0  0  0
  -19.9847   -9.0116   23.9047 C   0  0  0  0  0  0  0  0  0  0  0  0
  -17.4323   -9.9109   24.5824 C   0  0  0  0  0  0  0  0  0  0  0  0
  -29.6695  -18.5306   20.5107 C   0  0  0  0  0  0  0  0  0  0  0  0
  -19.6021   -9.0796   25.2444 C   0  0  0  0  0  0  0  0  0  0  0  0
  -24.5746  -12.0719   20.7499 C   0  0  0  0  0  0  0  0  0  0  0  0
  -25.3653  -13.7408   19.5563 C   0  0  0  0  0  0  0  0  0  0  0  0
  -33.0553  -21.3739   22.5186 C   0  0  0  0  0  0  0  0  0  0  0  0
  -22.8993  -13.8518   19.9498 C   0  0  0  0  0  0  0  0  0  0  0  0
  -25.6295  -29.2645   18.4952 C   0  0  0  0  0  0  0  0  0  0  0  0
  -25.2200  -29.6055   21.6950 C   0  0  0  0  0  0  0  0  0  0  0  0
  -26.9990  -28.6717   24.6918 C   0  0  0  0  0  0  0  0  0  0  0  0
  -30.7758  -14.9706   20.0227 C   0  0  0  0  0  0  0  0  0  0  0  0
  -23.1397  -30.6006   14.2440 C   0  0  0  0  0  0  0  0  0  0  0  0
  -25.1630  -26.8889   19.1989 C   0  0  0  0  0  0  0  0  0  0  0  0
  -27.1644  -28.1799   20.9517 C   0  0  0  0  0  0  0  0  0  0  0  0
  -33.7014  -22.7429   22.6176 C   0  0  0  0  0  0  0  0  0  0  0  0
  -23.2226  -31.1310   15.6730 C   0  0  0  0  0  0  0  0  0  0  0  0
  -32.7400  -23.9001   22.4579 C   0  0  0  0  0  0  0  0  0  0  0  0
  -29.9431  -11.6160   19.1680 C   0  0  0  0  0  0  0  0  0  0  0  0
  -24.6782  -31.2617   16.1102 C   0  0  0  0  0  0  0  0  0  0  0  0
  -28.4410  -11.5326   19.4484 C   0  0  0  0  0  0  0  0  0  0  0  0
  -30.6630  -12.4938   20.1901 C   0  0  0  0  0  0  0  0  0  0  0  0
  -31.2009  -22.4256   21.1929 C   0  0  0  0  0  0  0  0  0  0  0  0
  -28.5955  -13.7548   20.6421 C   0  0  0  0  0  0  0  0  0  0  0  0
  -25.3811  -29.8989   16.1022 C   0  0  1  0  0  0  0  0  0  0  0  0
  -25.0750  -28.3672   19.5654 C   0  0  1  0  0  0  0  0  0  0  0  0
  -31.9865  -23.7353   21.1483 C   0  0  1  0  0  0  0  0  0  0  0  0
  -27.8175  -12.9339   19.6007 C   0  0  2  0  0  0  0  0  0  0  0  0
  -26.1626  -28.2398   27.0180 C   0  0  0  0  0  0  0  0  0  0  0  0
  -25.9012  -32.5409   22.1736 C   0  0  0  0  0  0  0  0  0  0  0  0
  -26.7040  -31.9098   24.4595 C   0  0  0  0  0  0  0  0  0  0  0  0
  -24.3150  -31.5537   23.8360 C   0  0  0  0  0  0  0  0  0  0  0  0
  -28.2284  -25.9804   24.7588 C   0  0  0  0  0  0  0  0  0  0  0  0
  -31.0542  -24.9191   20.8994 C   0  0  0  0  0  0  0  0  0  1  0  0
  -26.0920  -30.0545   22.8426 C   0  0  1  0  0  0  0  0  0  0  0  0
  -26.5888  -27.6131   25.6995 C   0  0  2  0  0  0  0  0  0  0  0  0
  -25.7641  -31.5024   23.3048 C   0  0  0  0  0  0  0  0  0  0  0  0
  -25.8843  -11.8262   20.6577 N   0  0  0  0  0  0  0  0  0  0  0  0
  -26.3374  -12.8584   19.9260 N   0  0  0  0  0  0  0  0  0  0  0  0
  -31.9867  -21.2513   21.6138 N   0  0  0  0  0  0  0  0  0  0  0  0
  -25.7900  -28.6863   20.8028 N   0  0  0  0  0  0  0  0  0  0  0  0
  -30.0199  -13.8067   20.2773 N   0  0  0  0  0  0  0  0  0  0  0  0
  -25.6477  -14.8352   18.8181 N   0  0  0  0  0  0  0  0  0  0  0  0
  -22.1020  -13.4856   18.8569 N   0  0  0  0  0  0  0  0  0  0  0  0
  -30.0500  -16.1585   20.1032 N   0  0  0  0  0  0  0  0  0  0  0  0
  -25.0061  -29.1298   17.2694 N   0  0  0  0  0  0  0  0  0  0  0  0
  -25.9442  -29.0461   23.8864 N   0  0  0  0  0  0  0  0  0  0  0  0
  -27.7233  -26.6841   25.9658 N   0  3  0  0  0  0  0  0  0  0  0  0
  -33.5399  -20.4547   23.1841 O   0  0  0  0  0  0  0  0  0  0  0  0
  -22.4685  -14.7003   20.7671 O   0  0  0  0  0  0  0  0  0  0  0  0
  -26.5535  -30.0239   18.7623 O   0  0  0  0  0  0  0  0  0  0  0  0
  -24.0728  -30.0483   21.5979 O   0  0  0  0  0  0  0  0  0  0  0  0
  -28.1400  -29.1241   24.6280 O   0  0  0  0  0  0  0  0  0  0  0  0
  -31.9721  -14.9155   19.7263 O   0  0  0  0  0  0  0  0  0  0  0  0
  -21.2516   -8.5662   23.5667 O   0  0  0  0  0  0  0  0  0  0  0  0
  -30.3784  -24.7254   19.6576 O   0  0  0  0  0  0  0  0  0  1  0  0
  -16.2073  -10.3441   24.9078 F   0  0  0  0  0  0  0  0  0  0  0  0
  -28.3778  -18.3880   20.1806 F   0  0  0  0  0  0  0  0  0  0  0  0
  -20.4566   -8.7155   26.2103 F   0  0  0  0  0  0  0  0  0  0  0  0
  1  2  1  0  0  0  0
  1  5  2  0  0  0  0
  2  6  2  0  0  0  0
  3 10  2  0  0  0  0
  3 18  1  0  0  0  0
  4 11  1  0  0  0  0
  4 18  2  0  0  0  0
  5 20  1  0  0  0  0
  6 22  1  0  0  0  0
  7 12  2  0  0  0  0
  7 21  1  0  0  0  0
  8  9  2  0  0  0  0
  8 24  1  0  0  0  0
  9 25  1  0  0  0  0
 10 26  1  0  0  0  0
 11 26  2  0  0  0  0
 12 27  1  0  0  0  0
 13 14  2  0  0  0  0
 13 28  1  0  0  0  0
 14 29  1  0  0  0  0
 15 23  1  0  0  0  0
 15 27  2  0  0  0  0
 16 24  2  0  0  0  0
 16 30  1  0  0  0  0
 17 29  2  0  0  0  0
 17 31  1  0  0  0  0
 18 32  1  0  0  0  0
 19 32  1  0  0  0  0
 19 33  2  0  0  0  0
 19 35  1  0  0  0  0
 20 22  2  0  0  0  0
 20 40  1  0  0  0  0
 21 23  2  0  0  0  0
 21 41  1  0  0  0  0
 22 52  1  0  0  0  0
 23 42  1  0  0  0  0
 24 67  1  0  0  0  0
 25 30  2  0  0  0  0
 25 72  1  0  0  0  0
 26 82  1  0  0  0  0
 27 83  1  0  0  0  0
 28 31  2  0  0  0  0
 28 82  1  0  0  0  0
 29 84  1  0  0  0  0
 30 85  1  0  0  0  0
 31 86  1  0  0  0  0
 32 65  2  0  0  0  0
 33 66  1  0  0  0  0
 33 70  1  0  0  0  0
 34 43  1  0  0  0  0
 34 67  1  0  0  0  0
 34 76  2  0  0  0  0
 35 71  1  0  0  0  0
 35 77  2  0  0  0  0
 36 53  1  0  0  0  0
 36 73  1  0  0  0  0
 36 78  2  0  0  0  0
 37 62  1  0  0  0  0
 37 68  1  0  0  0  0
 37 79  2  0  0  0  0
 38 63  1  0  0  0  0
 38 74  1  0  0  0  0
 38 80  2  0  0  0  0
 39 69  1  0  0  0  0
 39 72  1  0  0  0  0
 39 81  2  0  0  0  0
 40 44  1  0  0  0  0
 41 53  1  0  0  0  0
 42 68  1  0  0  0  0
 43 45  1  0  0  0  0
 44 47  1  0  0  0  0
 45 54  1  0  0  0  0
 46 48  1  0  0  0  0
 46 49  1  0  0  0  0
 47 52  1  0  0  0  0
 48 55  1  0  0  0  0
 49 69  1  0  0  0  0
 50 54  1  0  0  0  0
 50 67  1  0  0  0  0
 51 55  1  0  0  0  0
 51 69  1  0  0  0  0
 52 73  1  0  0  0  0
 53 68  1  0  0  0  0
 54 61  1  0  0  0  0
 55 66  1  0  0  0  0
 56 63  1  0  0  0  0
 57 64  1  0  0  0  0
 58 64  1  0  0  0  0
 59 64  1  0  0  0  0
 60 75  1  0  0  0  0
 61 83  1  0  0  0  0
 62 64  1  0  0  0  0
 62 74  1  0  0  0  0
 63 75  1  0  0  0  0
 65 66  1  0  0  0  0
M  CHG  1  75   1
M  ISO  4  39 100  61 101  72 100  83 101
M  END
> <Batch ID>
0096

> <Smiles>
CNC(C)C(=O)NC(C(=O)N1Cc2cc([101O:1][101CH2:1]C3CCC(=O)N(c4ccc([100NH:0][100C:0](=O)N5CCCC(n6nc(-c7ccc(Oc8ccc(F)cc8F)cc7)c(C(N)=O)c6N)C5)c(F)c4)C3)ccc2CC1C(=O)NC1CCCc2ccccc21)C(C)(C)C

> <Shape>
0.240

> <Color>
0.117

> <Negative vol penalty>
0.000

$$$$

  -OEChem-04052300463D

 87 96  0     1  0  0  0  0  0999 V2000
  -15.8056  -27.2308   24.1390 C   0  0  0  0  0  0  0  0  0  0  0  0
  -16.8686  -26.7557   23.3777 C   0  0  0  0  0  0  0  0  0  0  0  0
  -24.5817   -8.8063   21.3173 C   0  0  0  0  0  0  0  0  0  0  0  0
  -22.7229  -10.1953   20.6446 C   0  0  0  0  0  0  0  0  0  0  0  0
  -15.6798  -28.5980   24.3819 C   0  0  0  0  0  0  0  0  0  0  0  0
  -17.8059  -27.6476   22.8578 C   0  0  0  0  0  0  0  0  0  0  0  0
  -22.5682  -26.0402   23.4759 C   0  0  0  0  0  0  0  0  0  0  0  0
  -27.5406  -19.0750   21.7055 C   0  0  0  0  0  0  0  0  0  0  0  0
  -27.4184  -18.1071   22.7025 C   0  0  0  0  0  0  0  0  0  0  0  0
  -23.7153   -7.7253   21.4795 C   0  0  0  0  0  0  0  0  0  0  0  0
  -21.8565   -9.1143   20.8067 C   0  0  0  0  0  0  0  0  0  0  0  0
  -23.0275  -25.0580   22.5996 C   0  0  0  0  0  0  0  0  0  0  0  0
  -21.4910   -6.6401   23.7814 C   0  0  0  0  0  0  0  0  0  0  0  0
  -21.6302   -5.8660   24.9333 C   0  0  0  0  0  0  0  0  0  0  0  0
  -24.1585  -26.7504   21.3051 C   0  0  0  0  0  0  0  0  0  0  0  0
  -26.6342  -20.7364   23.2073 C   0  0  0  0  0  0  0  0  0  0  0  0
  -22.0774   -3.9207   23.5720 C   0  0  0  0  0  0  0  0  0  0  0  0
  -24.0855  -10.0414   20.8999 C   0  0  0  0  0  0  0  0  0  0  0  0
  -26.0846  -11.2406   19.8640 C   0  0  0  0  0  0  0  0  0  0  0  0
  -16.6215  -29.5062   23.8728 C   0  0  0  0  0  0  0  0  0  0  0  0
  -22.8922  -27.3885   23.2669 C   0  0  0  0  0  0  0  0  0  0  0  0
  -17.6919  -29.0283   23.0930 C   0  0  0  0  0  0  0  0  0  0  0  0
  -23.7042  -27.7475   22.1817 C   0  0  0  0  0  0  0  0  0  0  0  0
  -27.1485  -20.3896   21.9580 C   0  0  0  0  0  0  0  0  0  0  0  0
  -26.9041  -18.4538   23.9519 C   0  0  0  0  0  0  0  0  0  0  0  0
  -22.3527   -7.8793   21.2242 C   0  0  0  0  0  0  0  0  0  0  0  0
  -23.8204  -25.4134   21.5123 C   0  0  0  0  0  0  0  0  0  0  0  0
  -21.6448   -6.0545   22.5247 C   0  0  0  0  0  0  0  0  0  0  0  0
  -21.9235   -4.5063   24.8286 C   0  0  0  0  0  0  0  0  0  0  0  0
  -26.5120  -19.7685   24.2043 C   0  0  0  0  0  0  0  0  0  0  0  0
  -21.9381   -4.6949   22.4201 C   0  0  0  0  0  0  0  0  0  0  0  0
  -24.9800  -11.1586   20.7328 C   0  0  0  0  0  0  0  0  0  0  0  0
  -26.5991  -12.4956   20.0802 C   0  0  0  0  0  0  0  0  0  0  0  0
  -28.2869  -21.3022   19.9526 C   0  0  0  0  0  0  0  0  0  0  0  0
  -26.5996  -10.2692   18.9437 C   0  0  0  0  0  0  0  0  0  0  0  0
  -21.2249  -30.0328   22.6908 C   0  0  0  0  0  0  0  0  0  0  0  0
  -24.1213  -31.4600   23.0017 C   0  0  0  0  0  0  0  0  0  0  0  0
  -27.5122  -30.7890   21.9678 C   0  0  0  0  0  0  0  0  0  0  0  0
  -26.5499  -16.0946   24.6587 C   0  0  0  0  0  0  0  0  0  0  0  0
  -16.4174  -30.9796   24.1222 C   0  0  0  0  0  0  0  0  0  0  0  0
  -22.4110  -28.4329   24.2366 C   0  0  0  0  0  0  0  0  0  0  0  0
  -24.0972  -29.1786   21.9246 C   0  0  0  0  0  0  0  0  0  0  0  0
  -28.1481  -22.2106   18.7456 C   0  0  0  0  0  0  0  0  0  0  0  0
  -17.6613  -31.8214   23.8496 C   0  0  0  0  0  0  0  0  0  0  0  0
  -27.5442  -23.5642   19.0490 C   0  0  0  0  0  0  0  0  0  0  0  0
  -25.3162  -16.8970   21.4219 C   0  0  0  0  0  0  0  0  0  0  0  0
  -18.2912  -31.4274   22.5174 C   0  0  0  0  0  0  0  0  0  0  0  0
  -25.1872  -15.5097   20.7938 C   0  0  0  0  0  0  0  0  0  0  0  0
  -24.9003  -16.9001   22.8933 C   0  0  0  0  0  0  0  0  0  0  0  0
  -26.4471  -22.6070   21.0548 C   0  0  0  0  0  0  0  0  0  0  0  0
  -25.4714  -14.5002   23.0897 C   0  0  0  0  0  0  0  0  0  0  0  0
  -18.7428  -29.9620   22.5327 C   0  0  1  0  0  0  0  0  0  0  0  0
  -22.3760  -29.8348   23.6361 C   0  0  1  0  0  0  0  0  0  0  0  0
  -26.2097  -23.3612   19.7473 C   0  0  1  0  0  0  0  0  0  0  0  0
  -25.9373  -14.4548   21.6261 C   0  0  1  0  0  0  0  0  0  0  0  0
  -29.6968  -31.4854   22.9874 C   0  0  0  0  0  0  0  0  0  0  0  0
  -23.9587  -33.7952   21.0447 C   0  0  0  0  0  0  0  0  0  0  0  0
  -26.4314  -33.5944   20.7078 C   0  0  0  0  0  0  0  0  0  0  0  0
  -25.5227  -34.1493   22.9637 C   0  0  0  0  0  0  0  0  0  0  0  0
  -27.1323  -17.8110   26.3587 C   0  0  0  0  0  0  0  0  0  0  0  0
  -28.4565  -27.9895   22.1412 C   0  0  0  0  0  0  0  0  0  0  0  0
  -25.5191  -24.6979   20.0095 C   0  0  0  0  0  0  0  0  0  1  0  0
  -25.2503  -31.8037   22.0604 C   0  0  1  0  0  0  0  0  0  0  0  0
  -28.6684  -30.3725   22.8589 C   0  0  2  0  0  0  0  0  0  0  0  0
  -25.2737  -33.3135   21.6894 C   0  0  0  0  0  0  0  0  0  0  0  0
  -24.8025  -12.2727   21.4478 N   0  0  0  0  0  0  0  0  0  0  0  0
  -25.8025  -13.0667   21.0287 N   0  0  0  0  0  0  0  0  0  0  0  0
  -27.2746  -21.3940   20.9234 N   0  0  0  0  0  0  0  0  0  0  0  0
  -23.5967  -30.1639   22.8973 N   0  0  0  0  0  0  0  0  0  0  0  0
  -25.6116  -15.8514   23.6380 N   0  0  0  0  0  0  0  0  0  0  0  0
  -27.6506  -13.1554   19.5497 N   0  0  0  0  0  0  0  0  0  0  0  0
  -26.1104  -10.2680   17.6303 N   0  0  0  0  0  0  0  0  0  0  0  0
  -19.9846  -29.8235   23.2629 N   0  0  0  0  0  0  0  0  0  0  0  0
  -26.4727  -31.3260   22.6975 N   0  0  0  0  0  0  0  0  0  0  0  0
  -26.7784  -17.4495   24.9818 N   0  0  0  0  0  0  0  0  0  0  0  0
  -29.3460  -29.1687   22.2996 N   0  3  0  0  0  0  0  0  0  0  0  0
  -29.2331  -20.5104   19.9764 O   0  0  0  0  0  0  0  0  0  0  0  0
  -27.4559   -9.4168   19.2807 O   0  0  0  0  0  0  0  0  0  0  0  0
  -21.4457  -30.3531   21.5287 O   0  0  0  0  0  0  0  0  0  0  0  0
  -23.7244  -32.3077   23.8051 O   0  0  0  0  0  0  0  0  0  0  0  0
  -27.5308  -30.6550   20.7462 O   0  0  0  0  0  0  0  0  0  0  0  0
  -27.1200  -15.1722   25.2537 O   0  0  0  0  0  0  0  0  0  0  0  0
  -21.5070   -6.8246   21.3821 O   0  0  0  0  0  0  0  0  0  0  0  0
  -24.2695  -24.4567   20.6550 O   0  0  0  0  0  0  0  0  0  1  0  0
  -22.0587   -3.7634   25.9350 F   0  0  0  0  0  0  0  0  0  0  0  0
  -26.0148  -20.1129   25.4009 F   0  0  0  0  0  0  0  0  0  0  0  0
  -22.0882   -4.1270   21.2156 F   0  0  0  0  0  0  0  0  0  0  0  0
  1  2  1  0  0  0  0
  1  5  2  0  0  0  0
  2  6  2  0  0  0  0
  3 10  2  0  0  0  0
  3 18  1  0  0  0  0
  4 11  1  0  0  0  0
  4 18  2  0  0  0  0
  5 20  1  0  0  0  0
  6 22  1  0  0  0  0
  7 12  2  0  0  0  0
  7 21  1  0  0  0  0
  8  9  2  0  0  0  0
  8 24  1  0  0  0  0
  9 25  1  0  0  0  0
 10 26  1  0  0  0  0
 11 26  2  0  0  0  0
 12 27  1  0  0  0  0
 13 14  2  0  0  0  0
 13 28  1  0  0  0  0
 14 29  1  0  0  0  0
 15 23  1  0  0  0  0
 15 27  2  0  0  0  0
 16 24  2  0  0  0  0
 16 30  1  0  0  0  0
 17 29  2  0  0  0  0
 17 31  1  0  0  0  0
 18 32  1  0  0  0  0
 19 32  1  0  0  0  0
 19 33  2  0  0  0  0
 19 35  1  0  0  0  0
 20 22  2  0  0  0  0
 20 40  1  0  0  0  0
 21 23  2  0  0  0  0
 21 41  1  0  0  0  0
 22 52  1  0  0  0  0
 23 42  1  0  0  0  0
 24 68  1  0  0  0  0
 25 30  2  0  0  0  0
 25 75  1  0  0  0  0
 26 83  1  0  0  0  0
 27 84  1  0  0  0  0
 28 31  2  0  0  0  0
 28 83  1  0  0  0  0
 29 85  1  0  0  0  0
 30 86  1  0  0  0  0
 31 87  1  0  0  0  0
 32 66  2  0  0  0  0
 33 67  1  0  0  0  0
 33 71  1  0  0  0  0
 34 43  1  0  0  0  0
 34 68  1  0  0  0  0
 34 77  2  0  0  0  0
 35 72  1  0  0  0  0
 35 78  2  0  0  0  0
 36 53  1  0  0  0  0
 36 73  1  0  0  0  0
 36 79  2  0  0  0  0
 37 63  1  0  0  0  0
 37 69  1  0  0  0  0
 37 80  2  0  0  0  0
 38 64  1  0  0  0  0
 38 74  1  0  0  0  0
 38 81  2  0  0  0  0
 39 70  1  0  0  0  0
 39 75  1  0  0  0  0
 39 82  2  0  0  0  0
 40 44  1  0  0  0  0
 41 53  1  0  0  0  0
 42 69  1  0  0  0  0
 43 45  1  0  0  0  0
 44 47  1  0  0  0  0
 45 54  1  0  0  0  0
 46 48  1  0  0  0  0
 46 49  1  0  0  0  0
 47 52  1  0  0  0  0
 48 55  1  0  0  0  0
 49 70  1  0  0  0  0
 50 54  1  0  0  0  0
 50 68  1  0  0  0  0
 51 55  1  0  0  0  0
 51 70  1  0  0  0  0
 52 73  1  0  0  0  0
 53 69  1  0  0  0  0
 54 62  1  0  0  0  0
 55 67  1  0  0  0  0
 56 64  1  0  0  0  0
 57 65  1  0  0  0  0
 58 65  1  0  0  0  0
 59 65  1  0  0  0  0
 60 75  1  0  0  0  0
 61 76  1  0  0  0  0
 62 84  1  0  0  0  0
 63 65  1  0  0  0  0
 63 74  1  0  0  0  0
 64 76  1  0  0  0  0
 66 67  1  0  0  0  0
M  CHG  1  76   1
M  ISO  4  39 100  62 101  75 100  84 101
M  END
> <Batch ID>
0096

> <Smiles>
CNC(C)C(=O)NC(C(=O)N1Cc2cc([101O:1][101CH2:1]C3CCC(=O)N(c4ccc([100N:0](C)[100C:0](=O)N5CCCC(n6nc(-c7ccc(Oc8ccc(F)cc8F)cc7)c(C(N)=O)c6N)C5)c(F)c4)C3)ccc2CC1C(=O)NC1CCCc2ccccc21)C(C)(C)C

> <Shape>
0.270

> <Color>
0.119

> <Negative vol penalty>
0.000

$$$$

  -OEChem-04052300463D

 83 91  0     1  0  0  0  0  0999 V2000
  -31.6105  -11.7636   20.9060 C   0  0  0  0  0  0  0  0  0  0  0  0
  -31.2551  -13.0378   20.4754 C   0  0  0  0  0  0  0  0  0  0  0  0
  -22.1418  -26.0607   24.9784 C   0  0  0  0  0  0  0  0  0  0  0  0
  -21.1342  -28.1242   25.7294 C   0  0  0  0  0  0  0  0  0  0  0  0
  -30.6203  -10.8327   21.2170 C   0  0  0  0  0  0  0  0  0  0  0  0
  -29.9091  -13.3815   20.3545 C   0  0  0  0  0  0  0  0  0  0  0  0
  -28.8906  -17.9520   22.2828 C   0  0  0  0  0  0  0  0  0  0  0  0
  -21.8690  -25.4772   26.2156 C   0  0  0  0  0  0  0  0  0  0  0  0
  -20.8613  -27.5406   26.9666 C   0  0  0  0  0  0  0  0  0  0  0  0
  -29.2355  -19.0602   21.5104 C   0  0  0  0  0  0  0  0  0  0  0  0
  -19.2047  -24.1247   27.7985 C   0  0  0  0  0  0  0  0  0  0  0  0
  -18.6650  -22.8386   27.8036 C   0  0  0  0  0  0  0  0  0  0  0  0
  -26.9429  -19.2625   20.7877 C   0  0  0  0  0  0  0  0  0  0  0  0
  -29.3136  -26.3804   19.5131 C   0  0  0  0  0  0  0  0  0  0  0  0
  -20.5717  -22.0435   29.0566 C   0  0  0  0  0  0  0  0  0  0  0  0
  -21.7745  -27.3843   24.7353 C   0  0  0  0  0  0  0  0  0  0  0  0
  -21.2272  -27.9970   22.3202 C   0  0  0  0  0  0  0  0  0  0  0  0
  -29.2614  -11.1683   21.1092 C   0  0  0  0  0  0  0  0  0  0  0  0
  -27.5691  -17.4833   22.3050 C   0  0  0  0  0  0  0  0  0  0  0  0
  -28.8998  -12.4538   20.6632 C   0  0  0  0  0  0  0  0  0  0  0  0
  -26.5833  -18.1497   21.5632 C   0  0  0  0  0  0  0  0  0  0  0  0
  -30.6509  -26.0040   19.7837 C   0  0  0  0  0  0  0  0  0  0  0  0
  -21.2287  -26.2171   27.2097 C   0  0  0  0  0  0  0  0  0  0  0  0
  -28.2622  -19.7139   20.7604 C   0  0  0  0  0  0  0  0  0  0  0  0
  -20.4280  -24.3703   28.4223 C   0  0  0  0  0  0  0  0  0  0  0  0
  -19.3484  -21.7980   28.4327 C   0  0  0  0  0  0  0  0  0  0  0  0
  -21.1114  -23.3297   29.0513 C   0  0  0  0  0  0  0  0  0  0  0  0
  -22.0566  -27.9878   23.4577 C   0  0  0  0  0  0  0  0  0  0  0  0
  -31.1675  -26.9869   20.5955 C   0  0  0  0  0  0  0  0  0  0  0  0
  -21.9450  -28.6916   21.3775 C   0  0  0  0  0  0  0  0  0  0  0  0
  -29.1083  -27.5663   20.1791 C   0  0  0  0  0  0  0  0  0  0  0  0
  -19.9244  -27.4286   22.1326 C   0  0  0  0  0  0  0  0  0  0  0  0
  -26.1372  -14.7701   21.4730 C   0  0  0  0  0  0  0  0  0  0  0  0
  -23.5385  -16.1907   22.7963 C   0  0  0  0  0  0  0  0  0  0  0  0
  -29.9036  -22.7781   19.5423 C   0  0  0  0  0  0  0  0  0  0  0  0
  -21.9545  -19.0796   23.6862 C   0  0  0  0  0  0  0  0  0  0  0  0
  -27.9786  -29.6129   21.0337 C   0  0  0  0  0  0  0  0  0  0  0  0
  -28.2269  -10.1132   21.4114 C   0  0  0  0  0  0  0  0  0  0  0  0
  -27.2081  -16.3028   23.1643 C   0  0  0  0  0  0  0  0  0  0  0  0
  -25.1463  -17.6985   21.5687 C   0  0  0  0  0  0  0  0  0  0  0  0
  -26.8232  -10.6774   21.6156 C   0  0  0  0  0  0  0  0  0  0  0  0
  -25.2603  -32.1055   20.9451 C   0  0  0  0  0  0  0  0  0  0  0  0
  -26.4860  -11.6804   20.5170 C   0  0  0  0  0  0  0  0  0  0  0  0
  -24.0798  -31.3434   21.5446 C   0  0  0  0  0  0  0  0  0  0  0  0
  -26.5936  -31.6131   21.5000 C   0  0  0  0  0  0  0  0  0  0  0  0
  -25.6200  -29.3813   21.9487 C   0  0  0  0  0  0  0  0  0  0  0  0
  -27.4504  -12.8723   20.5432 C   0  0  1  0  0  0  0  0  0  0  0  0
  -25.9329  -15.6000   22.7088 C   0  0  1  0  0  0  0  0  0  0  0  0
  -24.2649  -29.8252   21.3773 C   0  0  1  0  0  0  0  0  0  0  0  0
  -32.4813  -27.1896   21.2245 C   0  0  0  0  0  0  0  0  0  0  0  0
  -19.8259  -19.9232   24.7132 C   0  0  0  0  0  0  0  0  0  0  0  0
  -22.0622  -15.6393   20.1836 C   0  0  0  0  0  0  0  0  0  0  0  0
  -20.3270  -17.2979   20.8951 C   0  0  0  0  0  0  0  0  0  0  0  0
  -20.7113  -15.2388   22.2498 C   0  0  0  0  0  0  0  0  0  0  0  0
  -26.8159  -28.1691   19.3803 C   0  0  0  0  0  0  0  0  0  0  0  0
  -23.4040  -20.3396   25.9379 C   0  0  0  0  0  0  0  0  0  0  0  0
  -31.3587  -24.7783   19.2828 C   0  0  0  0  0  0  0  0  0  0  0  0
  -29.6779  -21.6024   20.4689 C   0  0  0  0  0  0  0  0  0  1  0  0
  -22.4355  -17.0875   22.2882 C   0  0  1  0  0  0  0  0  0  0  0  0
  -21.2616  -19.4936   24.9719 C   0  0  2  0  0  0  0  0  0  0  0  0
  -21.4114  -16.3235   21.4023 C   0  0  0  0  0  0  0  0  0  0  0  0
  -23.2129  -28.6257   23.2579 N   0  0  0  0  0  0  0  0  0  0  0  0
  -23.1153  -29.0423   21.9839 N   0  0  0  0  0  0  0  0  0  0  0  0
  -24.8443  -16.5357   22.4197 N   0  0  0  0  0  0  0  0  0  0  0  0
  -26.7246  -30.1614   21.3699 N   0  0  0  0  0  0  0  0  0  0  0  0
  -21.6831  -29.0305   20.0973 N   0  0  0  0  0  0  0  0  0  0  0  0
  -19.3316  -26.7480   23.2048 N   0  0  0  0  0  0  0  0  0  0  0  0
  -27.0969  -13.7852   21.6090 N   0  0  0  0  0  0  0  0  0  0  0  0
  -30.9388  -23.5871   19.9840 N   0  0  0  0  0  0  0  0  0  0  0  0
  -21.8513  -17.7226   23.4645 N   0  0  0  0  0  0  0  0  0  0  0  0
  -27.9495  -28.4223   20.2757 N   0  0  0  0  0  0  0  0  0  0  0  0
  -21.9853  -20.6310   25.6072 N   0  3  0  0  0  0  0  0  0  0  0  0
  -19.3112  -27.5073   21.0411 O   0  0  0  0  0  0  0  0  0  0  0  0
  -25.4723  -15.0050   20.4708 O   0  0  0  0  0  0  0  0  0  0  0  0
  -23.2528  -15.2241   23.5073 O   0  0  0  0  0  0  0  0  0  0  0  0
  -29.2330  -22.9651   18.5308 O   0  0  0  0  0  0  0  0  0  0  0  0
  -22.5266  -19.8805   22.9501 O   0  0  0  0  0  0  0  0  0  0  0  0
  -29.0387  -30.1602   21.3596 O   0  0  0  0  0  0  0  0  0  0  0  0
  -30.2335  -27.9428   20.8414 O   0  0  0  0  0  0  0  0  0  0  0  0
  -20.9621  -25.6480   28.4169 O   0  0  0  0  0  0  0  0  0  0  0  0
  -28.5962  -20.7954   20.0051 O   0  0  0  0  0  0  0  0  0  1  0  0
  -18.8293  -20.5632   28.4389 F   0  0  0  0  0  0  0  0  0  0  0  0
  -22.2863  -23.5598   29.6533 F   0  0  0  0  0  0  0  0  0  0  0  0
  1  2  1  0  0  0  0
  1  5  2  0  0  0  0
  2  6  2  0  0  0  0
  3  8  2  0  0  0  0
  3 16  1  0  0  0  0
  4  9  1  0  0  0  0
  4 16  2  0  0  0  0
  5 18  1  0  0  0  0
  6 20  1  0  0  0  0
  7 10  2  0  0  0  0
  7 19  1  0  0  0  0
  8 23  1  0  0  0  0
  9 23  2  0  0  0  0
 10 24  1  0  0  0  0
 11 12  2  0  0  0  0
 11 25  1  0  0  0  0
 12 26  1  0  0  0  0
 13 21  1  0  0  0  0
 13 24  2  0  0  0  0
 14 22  1  0  0  0  0
 14 31  2  0  0  0  0
 15 26  2  0  0  0  0
 15 27  1  0  0  0  0
 16 28  1  0  0  0  0
 17 28  1  0  0  0  0
 17 30  2  0  0  0  0
 17 32  1  0  0  0  0
 18 20  2  0  0  0  0
 18 38  1  0  0  0  0
 19 21  2  0  0  0  0
 19 39  1  0  0  0  0
 20 47  1  0  0  0  0
 21 40  1  0  0  0  0
 22 29  2  0  0  0  0
 22 57  1  0  0  0  0
 23 80  1  0  0  0  0
 24 81  1  0  0  0  0
 25 27  2  0  0  0  0
 25 80  1  0  0  0  0
 26 82  1  0  0  0  0
 27 83  1  0  0  0  0
 28 62  2  0  0  0  0
 29 50  1  0  0  0  0
 29 79  1  0  0  0  0
 30 63  1  0  0  0  0
 30 66  1  0  0  0  0
 31 71  1  0  0  0  0
 31 79  1  0  0  0  0
 32 67  1  0  0  0  0
 32 73  2  0  0  0  0
 33 48  1  0  0  0  0
 33 68  1  0  0  0  0
 33 74  2  0  0  0  0
 34 59  1  0  0  0  0
 34 64  1  0  0  0  0
 34 75  2  0  0  0  0
 35 58  1  0  0  0  0
 35 69  1  0  0  0  0
 35 76  2  0  0  0  0
 36 60  1  0  0  0  0
 36 70  1  0  0  0  0
 36 77  2  0  0  0  0
 37 65  1  0  0  0  0
 37 71  1  0  0  0  0
 37 78  2  0  0  0  0
 38 41  1  0  0  0  0
 39 48  1  0  0  0  0
 40 64  1  0  0  0  0
 41 43  1  0  0  0  0
 42 44  1  0  0  0  0
 42 45  1  0  0  0  0
 43 47  1  0  0  0  0
 44 49  1  0  0  0  0
 45 65  1  0  0  0  0
 46 49  1  0  0  0  0
 46 65  1  0  0  0  0
 47 68  1  0  0  0  0
 48 64  1  0  0  0  0
 49 63  1  0  0  0  0
 51 60  1  0  0  0  0
 52 61  1  0  0  0  0
 53 61  1  0  0  0  0
 54 61  1  0  0  0  0
 55 71  1  0  0  0  0
 56 72  1  0  0  0  0
 57 69  1  0  0  0  0
 58 81  1  0  0  0  0
 59 61  1  0  0  0  0
 59 70  1  0  0  0  0
 60 72  1  0  0  0  0
 62 63  1  0  0  0  0
M  CHG  1  72   1
M  ISO  4  37 100  58 101  71 100  81 101
M  END
> <Batch ID>
0096

> <Smiles>
CNC(C)C(=O)NC(C(=O)N1Cc2cc([101O:1][101CH2:1]C(=O)NCc3cc([100N:0](C)[100C:0](=O)N4CCCC(n5nc(-c6ccc(Oc7ccc(F)cc7F)cc6)c(C(N)=O)c5N)C4)oc3C)ccc2CC1C(=O)NC1CCCc2ccccc21)C(C)(C)C

> <Shape>
0.229

> <Color>
0.069

> <Negative vol penalty>
0.000

$$$$

  -OEChem-04052300463D

 86 94  0     1  0  0  0  0  0999 V2000
  -26.7164  -30.9168   13.1810 C   0  0  0  0  0  0  0  0  0  0  0  0
  -26.1367  -29.9259   13.9667 C   0  0  0  0  0  0  0  0  0  0  0  0
  -24.3720   -8.9981   21.5081 C   0  0  0  0  0  0  0  0  0  0  0  0
  -23.4703  -11.0504   22.4091 C   0  0  0  0  0  0  0  0  0  0  0  0
  -27.6455  -31.7934   13.7397 C   0  0  0  0  0  0  0  0  0  0  0  0
  -26.4867  -29.8103   15.3115 C   0  0  0  0  0  0  0  0  0  0  0  0
  -22.8400  -28.1215   19.9327 C   0  0  0  0  0  0  0  0  0  0  0  0
  -23.7458   -8.2767   22.5245 C   0  0  0  0  0  0  0  0  0  0  0  0
  -22.8440  -10.3291   23.4255 C   0  0  0  0  0  0  0  0  0  0  0  0
  -22.6584  -26.9042   20.5876 C   0  0  0  0  0  0  0  0  0  0  0  0
  -20.6399   -7.1347   23.2187 C   0  0  0  0  0  0  0  0  0  0  0  0
  -19.9640   -5.9675   22.8634 C   0  0  0  0  0  0  0  0  0  0  0  0
  -27.7471  -17.9696   22.3606 C   0  0  0  0  0  0  0  0  0  0  0  0
  -29.0643  -19.5092   23.6764 C   0  0  0  0  0  0  0  0  0  0  0  0
  -24.2039  -27.6034   22.3028 C   0  0  0  0  0  0  0  0  0  0  0  0
  -30.1541  -17.7670   22.4059 C   0  0  0  0  0  0  0  0  0  0  0  0
  -21.4098   -4.6882   24.3161 C   0  0  0  0  0  0  0  0  0  0  0  0
  -24.2344  -10.3849   21.4504 C   0  0  0  0  0  0  0  0  0  0  0  0
  -27.8229  -19.0635   23.2227 C   0  0  0  0  0  0  0  0  0  0  0  0
  -24.3526  -11.4534   19.1370 C   0  0  0  0  0  0  0  0  0  0  0  0
  -27.9999  -31.6946   15.0945 C   0  0  0  0  0  0  0  0  0  0  0  0
  -23.7146  -29.0862   20.4530 C   0  0  0  0  0  0  0  0  0  0  0  0
  -27.4225  -30.6855   15.8886 C   0  0  0  0  0  0  0  0  0  0  0  0
  -24.3928  -28.8331   21.6539 C   0  0  0  0  0  0  0  0  0  0  0  0
  -28.9127  -17.3213   21.9523 C   0  0  0  0  0  0  0  0  0  0  0  0
  -22.9818   -8.9422   23.4832 C   0  0  0  0  0  0  0  0  0  0  0  0
  -23.3426  -26.6438   21.7713 C   0  0  0  0  0  0  0  0  0  0  0  0
  -21.7008   -7.0787   24.1226 C   0  0  0  0  0  0  0  0  0  0  0  0
  -20.3489   -4.7442   23.4121 C   0  0  0  0  0  0  0  0  0  0  0  0
  -30.2300  -18.8610   23.2680 C   0  0  0  0  0  0  0  0  0  0  0  0
  -22.0857   -5.8555   24.6713 C   0  0  0  0  0  0  0  0  0  0  0  0
  -24.8815  -11.1307   20.4011 C   0  0  0  0  0  0  0  0  0  0  0  0
  -25.3514  -12.1648   18.5183 C   0  0  0  0  0  0  0  0  0  0  0  0
  -23.9058  -23.2166   22.6551 C   0  0  0  0  0  0  0  0  0  0  0  0
  -23.9961  -24.4199   22.0842 C   0  0  0  0  0  0  0  0  0  1  0  0
  -26.5757  -19.7560   23.6622 C   0  0  0  0  0  0  0  0  0  0  0  0
  -23.0728  -11.1384   18.5725 C   0  0  0  0  0  0  0  0  0  0  0  0
  -24.8399  -22.1325   22.2515 C   0  0  0  0  0  0  0  0  0  0  0  0
  -26.3783  -30.4849   19.4273 C   0  0  0  0  0  0  0  0  0  0  0  0
  -26.0135  -32.2670   22.1131 C   0  0  0  0  0  0  0  0  0  0  0  0
  -24.7141  -32.5359   25.2573 C   0  0  0  0  0  0  0  0  0  0  0  0
  -29.8957  -15.4547   20.5753 C   0  0  0  0  0  0  0  0  0  0  0  0
  -29.0443  -32.6349   15.6421 C   0  0  0  0  0  0  0  0  0  0  0  0
  -23.8791  -30.4050   19.7487 C   0  0  0  0  0  0  0  0  0  0  0  0
  -25.3277  -29.8437   22.2648 C   0  0  0  0  0  0  0  0  0  0  0  0
  -29.0809  -32.6828   17.1674 C   0  0  0  0  0  0  0  0  0  0  0  0
  -30.1175  -12.6239   18.4272 C   0  0  0  0  0  0  0  0  0  0  0  0
  -29.0501  -31.2721   17.7468 C   0  0  0  0  0  0  0  0  0  0  0  0
  -28.7497  -11.9525   18.5699 C   0  0  0  0  0  0  0  0  0  0  0  0
  -30.5981  -13.2186   19.7498 C   0  0  0  0  0  0  0  0  0  0  0  0
  -28.2791  -13.4544   20.5472 C   0  0  0  0  0  0  0  0  0  0  0  0
  -27.7579  -30.5439   17.3575 C   0  0  1  0  0  0  0  0  0  0  0  0
  -25.1868  -31.1093   20.0967 C   0  0  1  0  0  0  0  0  0  0  0  0
  -27.7239  -12.8972   19.2263 C   0  0  2  0  0  0  0  0  0  0  0  0
  -24.6166  -34.0942   27.2219 C   0  0  0  0  0  0  0  0  0  0  0  0
  -28.8723  -31.5035   22.8575 C   0  0  0  0  0  0  0  0  0  0  0  0
  -28.3933  -32.2651   25.1939 C   0  0  0  0  0  0  0  0  0  0  0  0
  -28.2799  -33.8915   23.3059 C   0  0  0  0  0  0  0  0  0  0  0  0
  -21.7676  -32.7540   25.0857 C   0  0  0  0  0  0  0  0  0  0  0  0
  -25.3839  -19.7664   22.7256 C   0  0  0  0  0  0  0  0  0  0  0  0
  -26.4683  -32.1445   23.5474 C   0  0  1  0  0  0  0  0  0  0  0  0
  -23.9385  -33.6512   25.9348 C   0  0  2  0  0  0  0  0  0  0  0  0
  -27.9874  -32.4311   23.7139 C   0  0  0  0  0  0  0  0  0  0  0  0
  -26.1202  -11.5985   20.5765 N   0  0  0  0  0  0  0  0  0  0  0  0
  -26.3780  -12.2224   19.4144 N   0  0  0  0  0  0  0  0  0  0  0  0
  -25.4599  -31.1157   21.5353 N   0  0  0  0  0  0  0  0  0  0  0  0
  -29.5768  -14.1060   20.3105 N   0  0  0  0  0  0  0  0  0  0  0  0
  -25.4430  -12.7404   17.3007 N   0  0  0  0  0  0  0  0  0  0  0  0
  -22.1656  -10.4000   19.3445 N   0  0  0  0  0  0  0  0  0  0  0  0
  -28.8360  -16.2101   21.0764 N   0  0  0  0  0  0  0  0  0  0  0  0
  -24.6000  -20.9590   22.9455 N   0  0  0  0  0  0  0  0  0  0  0  0
  -26.6546  -31.0003   18.1753 N   0  0  0  0  0  0  0  0  0  0  0  0
  -25.6051  -33.0259   24.3261 N   0  0  0  0  0  0  0  0  0  0  0  0
  -22.5578  -33.1966   26.2633 N   0  3  0  0  0  0  0  0  0  0  0  0
  -26.5471  -20.2955   24.7663 O   0  0  0  0  0  0  0  0  0  0  0  0
  -22.7498  -11.4869   17.4116 O   0  0  0  0  0  0  0  0  0  0  0  0
  -25.7110  -22.2921   21.4024 O   0  0  0  0  0  0  0  0  0  0  0  0
  -27.0019  -29.6020   20.0047 O   0  0  0  0  0  0  0  0  0  0  0  0
  -26.1380  -33.3464   21.5293 O   0  0  0  0  0  0  0  0  0  0  0  0
  -24.5489  -31.3489   25.5299 O   0  0  0  0  0  0  0  0  0  0  0  0
  -31.0181  -15.9131   20.3469 O   0  0  0  0  0  0  0  0  0  0  0  0
  -22.3703   -8.2386   24.4750 O   0  0  0  0  0  0  0  0  0  0  0  0
  -23.1677  -25.4562   22.4123 O   0  0  0  0  0  0  0  0  0  1  0  0
  -19.6988   -3.6236   23.0720 F   0  0  0  0  0  0  0  0  0  0  0  0
  -31.4219  -19.2871   23.7059 F   0  0  0  0  0  0  0  0  0  0  0  0
  -23.1034   -5.7956   25.5411 F   0  0  0  0  0  0  0  0  0  0  0  0
  1  2  1  0  0  0  0
  1  5  2  0  0  0  0
  2  6  2  0  0  0  0
  3  8  2  0  0  0  0
  3 18  1  0  0  0  0
  4  9  1  0  0  0  0
  4 18  2  0  0  0  0
  5 21  1  0  0  0  0
  6 23  1  0  0  0  0
  7 10  2  0  0  0  0
  7 22  1  0  0  0  0
  8 26  1  0  0  0  0
  9 26  2  0  0  0  0
 10 27  1  0  0  0  0
 11 12  2  0  0  0  0
 11 28  1  0  0  0  0
 12 29  1  0  0  0  0
 13 19  2  0  0  0  0
 13 25  1  0  0  0  0
 14 19  1  0  0  0  0
 14 30  2  0  0  0  0
 15 24  1  0  0  0  0
 15 27  2  0  0  0  0
 16 25  2  0  0  0  0
 16 30  1  0  0  0  0
 17 29  2  0  0  0  0
 17 31  1  0  0  0  0
 18 32  1  0  0  0  0
 19 36  1  0  0  0  0
 20 32  1  0  0  0  0
 20 33  2  0  0  0  0
 20 37  1  0  0  0  0
 21 23  2  0  0  0  0
 21 43  1  0  0  0  0
 22 24  2  0  0  0  0
 22 44  1  0  0  0  0
 23 52  1  0  0  0  0
 24 45  1  0  0  0  0
 25 70  1  0  0  0  0
 26 82  1  0  0  0  0
 27 83  1  0  0  0  0
 28 31  2  0  0  0  0
 28 82  1  0  0  0  0
 29 84  1  0  0  0  0
 30 85  1  0  0  0  0
 31 86  1  0  0  0  0
 32 64  2  0  0  0  0
 33 65  1  0  0  0  0
 33 68  1  0  0  0  0
 34 35  2  0  0  0  0
 34 38  1  0  0  0  0
 35 83  1  0  0  0  0
 36 60  1  0  0  0  0
 36 75  2  0  0  0  0
 37 69  1  0  0  0  0
 37 76  2  0  0  0  0
 38 71  1  0  0  0  0
 38 77  2  0  0  0  0
 39 53  1  0  0  0  0
 39 72  1  0  0  0  0
 39 78  2  0  0  0  0
 40 61  1  0  0  0  0
 40 66  1  0  0  0  0
 40 79  2  0  0  0  0
 41 62  1  0  0  0  0
 41 73  1  0  0  0  0
 41 80  2  0  0  0  0
 42 67  1  0  0  0  0
 42 70  1  0  0  0  0
 42 81  2  0  0  0  0
 43 46  1  0  0  0  0
 44 53  1  0  0  0  0
 45 66  1  0  0  0  0
 46 48  1  0  0  0  0
 47 49  1  0  0  0  0
 47 50  1  0  0  0  0
 48 52  1  0  0  0  0
 49 54  1  0  0  0  0
 50 67  1  0  0  0  0
 51 54  1  0  0  0  0
 51 67  1  0  0  0  0
 52 72  1  0  0  0  0
 53 66  1  0  0  0  0
 54 65  1  0  0  0  0
 55 62  1  0  0  0  0
 56 63  1  0  0  0  0
 57 63  1  0  0  0  0
 58 63  1  0  0  0  0
 59 74  1  0  0  0  0
 60 71  1  0  0  0  0
 61 63  1  0  0  0  0
 61 73  1  0  0  0  0
 62 74  1  0  0  0  0
 64 65  1  0  0  0  0
M  CHG  1  74   1
M  ISO  4  35 101  42 100  70 100  83 101
M  END
> <Batch ID>
0096

> <Smiles>
CNC(C)C(=O)NC(C(=O)N1Cc2cc([101O:1][101CH:1]=CC(=O)NCC(=O)c3cc(F)cc([100NH:0][100C:0](=O)N4CCCC(n5nc(-c6ccc(Oc7ccc(F)cc7F)cc6)c(C(N)=O)c5N)C4)c3)ccc2CC1C(=O)NC1CCCc2ccccc21)C(C)(C)C

> <Shape>
0.226

> <Color>
0.079

> <Negative vol penalty>
0.000

$$$$

  -OEChem-04052300463D

 87 96  0     1  0  0  0  0  0999 V2000
  -28.7274  -37.3659   21.1799 C   0  0  0  0  0  0  0  0  0  0  0  0
  -29.0823  -36.0640   20.8414 C   0  0  0  0  0  0  0  0  0  0  0  0
  -23.2605  -10.3319   21.1553 C   0  0  0  0  0  0  0  0  0  0  0  0
  -24.8073   -8.7432   22.1147 C   0  0  0  0  0  0  0  0  0  0  0  0
  -27.7698  -37.5917   22.1677 C   0  0  0  0  0  0  0  0  0  0  0  0
  -28.4803  -34.9871   21.4913 C   0  0  0  0  0  0  0  0  0  0  0  0
  -27.0845  -29.5383   19.0689 C   0  0  0  0  0  0  0  0  0  0  0  0
  -30.3661  -20.0248   19.0384 C   0  0  0  0  0  0  0  0  0  0  0  0
  -28.1295  -20.5657   19.7745 C   0  0  0  0  0  0  0  0  0  0  0  0
  -30.0343  -18.6701   19.0256 C   0  0  0  0  0  0  0  0  0  0  0  0
  -27.7976  -19.2110   19.7616 C   0  0  0  0  0  0  0  0  0  0  0  0
  -22.3030   -9.3251   21.0319 C   0  0  0  0  0  0  0  0  0  0  0  0
  -23.8498   -7.7364   21.9913 C   0  0  0  0  0  0  0  0  0  0  0  0
  -27.7330  -28.3045   19.0991 C   0  0  0  0  0  0  0  0  0  0  0  0
  -21.0828   -6.7171   23.6421 C   0  0  0  0  0  0  0  0  0  0  0  0
  -20.8965   -5.8650   24.7307 C   0  0  0  0  0  0  0  0  0  0  0  0
  -26.3494  -27.6296   20.9564 C   0  0  0  0  0  0  0  0  0  0  0  0
  -30.9210  -24.2088   19.5921 C   0  0  0  0  0  0  0  0  0  0  0  0
  -21.5011   -3.9740   23.3539 C   0  0  0  0  0  0  0  0  0  0  0  0
  -24.5127  -10.0409   21.6967 C   0  0  0  0  0  0  0  0  0  0  0  0
  -25.6996  -11.9363   22.9239 C   0  0  0  0  0  0  0  0  0  0  0  0
  -27.1487  -36.5169   22.8233 C   0  0  0  0  0  0  0  0  0  0  0  0
  -26.0693  -29.8316   19.9907 C   0  0  0  0  0  0  0  0  0  0  0  0
  -27.5144  -35.1988   22.4897 C   0  0  0  0  0  0  0  0  0  0  0  0
  -25.6879  -28.8669   20.9341 C   0  0  0  0  0  0  0  0  0  0  0  0
  -29.5774  -24.5414   19.2902 C   0  0  0  0  0  0  0  0  0  0  0  0
  -29.4137  -20.9726   19.4129 C   0  0  0  0  0  0  0  0  0  0  0  0
  -28.7500  -18.2631   19.3871 C   0  0  0  0  0  0  0  0  0  0  0  0
  -22.5976   -8.0274   21.4499 C   0  0  0  0  0  0  0  0  0  0  0  0
  -27.3675  -27.3510   20.0448 C   0  0  0  0  0  0  0  0  0  0  0  0
  -21.4781   -6.1975   22.4094 C   0  0  0  0  0  0  0  0  0  0  0  0
  -21.1057   -4.4935   24.5866 C   0  0  0  0  0  0  0  0  0  0  0  0
  -21.6873   -4.8260   22.2654 C   0  0  0  0  0  0  0  0  0  0  0  0
  -25.5024  -11.0803   21.8239 C   0  0  0  0  0  0  0  0  0  0  0  0
  -26.7527  -12.7359   22.5523 C   0  0  0  0  0  0  0  0  0  0  0  0
  -30.9974  -22.8356   19.6694 C   0  0  0  0  0  0  0  0  0  0  0  0
  -28.8735  -23.3614   19.1924 C   0  0  0  0  0  0  0  0  0  0  0  0
  -24.9941  -12.0027   24.1703 C   0  0  0  0  0  0  0  0  0  0  0  0
  -25.6785  -31.9988   22.2830 C   0  0  0  0  0  0  0  0  0  0  0  0
  -22.7030  -30.7178   22.4484 C   0  0  0  0  0  0  0  0  0  0  0  0
  -20.6665  -28.0386   21.8815 C   0  0  0  0  0  0  0  0  0  0  0  0
  -29.0240  -15.9633   18.4756 C   0  0  0  0  0  0  0  0  0  0  0  0
  -26.1535  -36.8113   23.9176 C   0  0  0  0  0  0  0  0  0  0  0  0
  -25.3613  -31.1572   19.9278 C   0  0  0  0  0  0  0  0  0  0  0  0
  -24.5903  -29.1249   21.9328 C   0  0  0  0  0  0  0  0  0  0  0  0
  -25.2906  -35.6101   24.2955 C   0  0  0  0  0  0  0  0  0  0  0  0
  -29.9530  -12.3979   18.6615 C   0  0  0  0  0  0  0  0  0  0  0  0
  -26.1546  -34.3644   24.4647 C   0  0  0  0  0  0  0  0  0  0  0  0
  -28.8518  -11.8044   19.5385 C   0  0  0  0  0  0  0  0  0  0  0  0
  -29.4570  -13.6016   17.8659 C   0  0  0  0  0  0  0  0  0  0  0  0
  -27.7407  -14.0734   19.5869 C   0  0  0  0  0  0  0  0  0  0  0  0
  -26.8658  -34.0041   23.1547 C   0  0  1  0  0  0  0  0  0  0  0  0
  -24.6936  -31.5411   21.2447 C   0  0  1  0  0  0  0  0  0  0  0  0
  -28.2211  -12.8851   20.4337 C   0  0  1  0  0  0  0  0  0  0  0  0
  -26.1387  -16.1740   20.0611 C   0  0  0  0  0  0  0  0  0  0  0  0
  -18.2910  -27.2771   22.1550 C   0  0  0  0  0  0  0  0  0  0  0  0
  -23.1790  -30.3135   25.4351 C   0  0  0  0  0  0  0  0  0  0  0  0
  -21.2367  -28.7339   25.4599 C   0  0  0  0  0  0  0  0  0  0  0  0
  -20.8888  -31.1262   24.8443 C   0  0  0  0  0  0  0  0  0  0  0  0
  -20.3292  -27.6626   18.9654 C   0  0  0  0  0  0  0  0  0  0  0  0
  -29.0275  -25.9260   19.1122 C   0  0  0  0  0  0  0  0  0  1  0  0
  -27.5895  -16.3299   20.4699 C   0  0  0  0  0  0  0  0  0  0  0  0
  -22.0672  -29.5873   23.2209 C   0  0  1  0  0  0  0  0  0  0  0  0
  -19.3015  -27.9318   21.2259 C   0  0  2  0  0  0  0  0  0  0  0  0
  -21.8650  -29.9358   24.7226 C   0  0  0  0  0  0  0  0  0  0  0  0
  -26.3612  -11.3142   20.8280 N   0  0  0  0  0  0  0  0  0  0  0  0
  -29.7468  -22.3311   19.4251 N   0  0  0  0  0  0  0  0  0  0  0  0
  -27.1082  -12.3264   21.3008 N   0  0  0  0  0  0  0  0  0  0  0  0
  -23.9324  -30.4383   21.8350 N   0  0  0  0  0  0  0  0  0  0  0  0
  -28.8213  -14.5929   18.7347 N   0  0  0  0  0  0  0  0  0  0  0  0
  -27.4000  -13.7424   23.1771 N   0  0  0  0  0  0  0  0  0  0  0  0
  -23.9380  -11.1075   24.3887 N   0  0  0  0  0  0  0  0  0  0  0  0
  -25.9484  -33.3535   22.2439 N   0  0  0  0  0  0  0  0  0  0  0  0
  -20.8357  -29.2520   22.5142 N   0  0  0  0  0  0  0  0  0  0  0  0
  -28.4076  -16.8605   19.3745 N   0  0  0  0  0  0  0  0  0  0  0  0
  -19.3878  -27.1206   19.9788 N   0  3  0  0  0  0  0  0  0  0  0  0
  -25.2807  -12.8422   25.0572 O   0  0  0  0  0  0  0  0  0  0  0  0
  -26.1570  -31.1836   23.0628 O   0  0  0  0  0  0  0  0  0  0  0  0
  -22.1265  -31.8066   22.3855 O   0  0  0  0  0  0  0  0  0  0  0  0
  -21.4980  -27.1345   21.8398 O   0  0  0  0  0  0  0  0  0  0  0  0
  -29.7247  -16.3525   17.5336 O   0  0  0  0  0  0  0  0  0  0  0  0
  -32.0321  -22.0442   19.9258 O   0  0  0  0  0  0  0  0  0  0  0  0
  -27.5905  -23.1388   18.9304 O   0  0  0  0  0  0  0  0  0  0  0  0
  -21.6634   -7.0448   21.3299 O   0  0  0  0  0  0  0  0  0  0  0  0
  -27.9993  -26.1462   20.0769 O   0  0  0  0  0  0  0  0  0  1  0  0
  -20.9282   -3.6756   25.6324 F   0  0  0  0  0  0  0  0  0  0  0  0
  -22.0684   -4.3212   21.0839 F   0  0  0  0  0  0  0  0  0  0  0  0
  1  2  1  0  0  0  0
  1  5  2  0  0  0  0
  2  6  2  0  0  0  0
  3 12  2  0  0  0  0
  3 20  1  0  0  0  0
  4 13  1  0  0  0  0
  4 20  2  0  0  0  0
  5 22  1  0  0  0  0
  6 24  1  0  0  0  0
  7 14  2  0  0  0  0
  7 23  1  0  0  0  0
  8 10  2  0  0  0  0
  8 27  1  0  0  0  0
  9 11  1  0  0  0  0
  9 27  2  0  0  0  0
 10 28  1  0  0  0  0
 11 28  2  0  0  0  0
 12 29  1  0  0  0  0
 13 29  2  0  0  0  0
 14 30  1  0  0  0  0
 15 16  2  0  0  0  0
 15 31  1  0  0  0  0
 16 32  1  0  0  0  0
 17 25  1  0  0  0  0
 17 30  2  0  0  0  0
 18 26  1  0  0  0  0
 18 36  2  0  0  0  0
 19 32  2  0  0  0  0
 19 33  1  0  0  0  0
 20 34  1  0  0  0  0
 21 34  1  0  0  0  0
 21 35  2  0  0  0  0
 21 38  1  0  0  0  0
 22 24  2  0  0  0  0
 22 43  1  0  0  0  0
 23 25  2  0  0  0  0
 23 44  1  0  0  0  0
 24 52  1  0  0  0  0
 25 45  1  0  0  0  0
 26 37  2  0  0  0  0
 26 61  1  0  0  0  0
 27 67  1  0  0  0  0
 28 75  1  0  0  0  0
 29 84  1  0  0  0  0
 30 85  1  0  0  0  0
 31 33  2  0  0  0  0
 31 84  1  0  0  0  0
 32 86  1  0  0  0  0
 33 87  1  0  0  0  0
 34 66  2  0  0  0  0
 35 68  1  0  0  0  0
 35 71  1  0  0  0  0
 36 67  1  0  0  0  0
 36 82  1  0  0  0  0
 37 67  1  0  0  0  0
 37 83  1  0  0  0  0
 38 72  1  0  0  0  0
 38 77  2  0  0  0  0
 39 53  1  0  0  0  0
 39 73  1  0  0  0  0
 39 78  2  0  0  0  0
 40 63  1  0  0  0  0
 40 69  1  0  0  0  0
 40 79  2  0  0  0  0
 41 64  1  0  0  0  0
 41 74  1  0  0  0  0
 41 80  2  0  0  0  0
 42 70  1  0  0  0  0
 42 75  1  0  0  0  0
 42 81  2  0  0  0  0
 43 46  1  0  0  0  0
 44 53  1  0  0  0  0
 45 69  1  0  0  0  0
 46 48  1  0  0  0  0
 47 49  1  0  0  0  0
 47 50  1  0  0  0  0
 48 52  1  0  0  0  0
 49 54  1  0  0  0  0
 50 70  1  0  0  0  0
 51 54  1  0  0  0  0
 51 70  1  0  0  0  0
 52 73  1  0  0  0  0
 53 69  1  0  0  0  0
 54 68  1  0  0  0  0
 55 62  1  0  0  0  0
 56 64  1  0  0  0  0
 57 65  1  0  0  0  0
 58 65  1  0  0  0  0
 59 65  1  0  0  0  0
 60 76  1  0  0  0  0
 61 85  1  0  0  0  0
 62 75  1  0  0  0  0
 63 65  1  0  0  0  0
 63 74  1  0  0  0  0
 64 76  1  0  0  0  0
 66 68  1  0  0  0  0
M  CHG  1  76   1
M  ISO  4  42 100  61 101  75 100  85 101
M  END
> <Batch ID>
0096

> <Smiles>
CC[100N:0](c1ccc(N2C(=O)CC([101CH2:1][101O:1]c3ccc4c(c3)CN(C(=O)C(NC(=O)C(C)NC)C(C)(C)C)C(C(=O)NC3CCCc5ccccc53)C4)C2=O)cc1)[100C:0](=O)N1CCCC(n2nc(-c3ccc(Oc4ccc(F)cc4F)cc3)c(C(N)=O)c2N)C1

> <Shape>
0.377

> <Color>
0.134

> <Negative vol penalty>
0.000

$$$$

  -OEChem-04052300463D

 83 91  0     1  0  0  0  0  0999 V2000
  -27.7933  -33.4875   26.4746 C   0  0  0  0  0  0  0  0  0  0  0  0
  -28.0010  -32.3528   25.6971 C   0  0  0  0  0  0  0  0  0  0  0  0
  -27.0243  -12.8108   21.0607 C   0  0  0  0  0  0  0  0  0  0  0  0
  -26.9527  -13.2099   18.6789 C   0  0  0  0  0  0  0  0  0  0  0  0
  -26.5070  -33.8107   26.9045 C   0  0  0  0  0  0  0  0  0  0  0  0
  -26.9226  -31.5399   25.3499 C   0  0  0  0  0  0  0  0  0  0  0  0
  -27.0076  -30.1774   20.4733 C   0  0  0  0  0  0  0  0  0  0  0  0
  -29.4338  -22.4639   15.5909 C   0  0  0  0  0  0  0  0  0  0  0  0
  -26.3425  -11.6075   20.8795 C   0  0  0  0  0  0  0  0  0  0  0  0
  -26.2709  -12.0065   18.4978 C   0  0  0  0  0  0  0  0  0  0  0  0
  -27.8847  -29.1553   20.1129 C   0  0  0  0  0  0  0  0  0  0  0  0
  -29.5706  -23.7969   15.9781 C   0  0  0  0  0  0  0  0  0  0  0  0
  -24.3035   -8.6032   21.0816 C   0  0  0  0  0  0  0  0  0  0  0  0
  -23.2515   -8.3149   21.9509 C   0  0  0  0  0  0  0  0  0  0  0  0
  -26.0544  -27.5842   20.1374 C   0  0  0  0  0  0  0  0  0  0  0  0
  -22.1040  -10.3134   21.2250 C   0  0  0  0  0  0  0  0  0  0  0  0
  -27.3293  -13.6120   19.9604 C   0  0  0  0  0  0  0  0  0  0  0  0
  -29.4269  -15.0530   20.1379 C   0  0  0  0  0  0  0  0  0  0  0  0
  -25.4108  -33.0066   26.5544 C   0  0  0  0  0  0  0  0  0  0  0  0
  -25.6469  -29.9080   20.6794 C   0  0  0  0  0  0  0  0  0  0  0  0
  -25.6205  -31.8518   25.7767 C   0  0  0  0  0  0  0  0  0  0  0  0
  -25.1616  -28.6050   20.4978 C   0  0  0  0  0  0  0  0  0  0  0  0
  -27.2437  -22.3931   16.6085 C   0  0  0  0  0  0  0  0  0  0  0  0
  -28.2703  -21.7620   15.9060 C   0  0  0  0  0  0  0  0  0  0  0  0
  -25.9658  -11.2053   19.5981 C   0  0  0  0  0  0  0  0  0  0  0  0
  -27.4087  -27.8580   19.9477 C   0  0  0  0  0  0  0  0  0  0  0  0
  -24.2558   -9.7467   20.2841 C   0  0  0  0  0  0  0  0  0  0  0  0
  -28.5440  -24.4280   16.6806 C   0  0  0  0  0  0  0  0  0  0  0  0
  -22.1517   -9.1700   22.0226 C   0  0  0  0  0  0  0  0  0  0  0  0
  -23.1561  -10.6017   20.3558 C   0  0  0  0  0  0  0  0  0  0  0  0
  -27.3805  -23.7261   16.9958 C   0  0  0  0  0  0  0  0  0  0  0  0
  -28.0331  -14.8554   20.1469 C   0  0  0  0  0  0  0  0  0  0  0  0
  -29.5842  -16.3996   20.3580 C   0  0  0  0  0  0  0  0  0  0  0  0
  -30.4848  -14.1041   19.9476 C   0  0  0  0  0  0  0  0  0  0  0  0
  -23.6659  -30.1314   23.1551 C   0  0  0  0  0  0  0  0  0  0  0  0
  -21.4330  -29.3320   20.9421 C   0  0  0  0  0  0  0  0  0  0  0  0
  -20.7171  -27.8456   17.9547 C   0  0  0  0  0  0  0  0  0  0  0  0
  -26.0479  -21.1314   19.3805 C   0  0  0  0  0  0  0  0  0  0  0  0
  -24.0456  -33.3704   27.0822 C   0  0  0  0  0  0  0  0  0  0  0  0
  -24.7090  -31.0266   21.0417 C   0  0  0  0  0  0  0  0  0  0  0  0
  -23.7061  -28.2673   20.6873 C   0  0  0  0  0  0  0  0  0  0  0  0
  -22.9039  -32.6624   26.3575 C   0  0  0  0  0  0  0  0  0  0  0  0
  -27.4588  -20.1189   22.4887 C   0  0  0  0  0  0  0  0  0  0  0  0
  -23.2105  -31.1762   26.2019 C   0  0  0  0  0  0  0  0  0  0  0  0
  -27.8917  -18.6730   22.2402 C   0  0  0  0  0  0  0  0  0  0  0  0
  -26.1587  -20.4520   21.7601 C   0  0  0  0  0  0  0  0  0  0  0  0
  -26.6013  -18.7186   20.0650 C   0  0  0  0  0  0  0  0  0  0  0  0
  -24.4727  -30.9587   25.3587 C   0  0  1  0  0  0  0  0  0  0  0  0
  -23.4360  -30.5404   21.7278 C   0  0  1  0  0  0  0  0  0  0  0  0
  -27.9371  -18.3522   20.7341 C   0  0  2  0  0  0  0  0  0  0  0  0
  -18.7972  -27.3161   16.4279 C   0  0  0  0  0  0  0  0  0  0  0  0
  -20.5819  -27.0675   22.8016 C   0  0  0  0  0  0  0  0  0  0  0  0
  -19.3691  -26.0320   20.8715 C   0  0  0  0  0  0  0  0  0  0  0  0
  -18.6914  -28.2834   21.7051 C   0  0  0  0  0  0  0  0  0  0  0  0
  -21.8702  -29.4567   15.7561 C   0  0  0  0  0  0  0  0  0  0  0  0
  -25.9879  -21.6620   16.9568 C   0  0  0  0  0  0  0  0  0  0  0  0
  -29.3921  -27.2182   18.8020 C   0  0  0  0  0  0  0  0  0  1  0  0
  -29.7715  -26.0442   17.9203 C   0  0  0  0  0  0  0  0  0  0  0  0
  -20.8571  -28.0362   20.4242 C   0  0  1  0  0  0  0  0  0  0  0  0
  -19.8935  -28.3136   16.7685 C   0  0  2  0  0  0  0  0  0  0  0  0
  -19.9027  -27.3605   21.4488 C   0  0  0  0  0  0  0  0  0  0  0  0
  -27.3534  -15.9860   20.3563 N   0  0  0  0  0  0  0  0  0  0  0  0
  -28.3242  -16.9069   20.4810 N   0  0  0  0  0  0  0  0  0  0  0  0
  -22.8297  -29.3942   21.0474 N   0  0  0  0  0  0  0  0  0  0  0  0
  -26.2685  -20.1259   20.3361 N   0  0  0  0  0  0  0  0  0  0  0  0
  -28.1493  -20.4134   15.5049 N   0  0  0  0  0  0  0  0  0  0  0  0
  -30.6761  -17.1873   20.4565 N   0  0  0  0  0  0  0  0  0  0  0  0
  -30.1470  -12.7609   19.7334 N   0  0  0  0  0  0  0  0  0  0  0  0
  -24.1782  -31.1366   23.9530 N   0  0  0  0  0  0  0  0  0  0  0  0
  -20.2332  -28.3499   19.1433 N   0  0  0  0  0  0  0  0  0  0  0  0
  -26.1781  -20.7393   18.0538 N   0  0  0  0  0  0  0  0  0  0  0  0
  -20.7624  -28.4846   15.5698 N   0  3  0  0  0  0  0  0  0  0  0  0
  -31.6943  -14.4348   19.9832 O   0  0  0  0  0  0  0  0  0  0  0  0
  -23.3970  -28.9887   23.5070 O   0  0  0  0  0  0  0  0  0  0  0  0
  -20.6721  -30.2575   21.2355 O   0  0  0  0  0  0  0  0  0  0  0  0
  -21.6900  -27.1035   17.8389 O   0  0  0  0  0  0  0  0  0  0  0  0
  -25.7618  -22.2938   19.6869 O   0  0  0  0  0  0  0  0  0  0  0  0
  -25.3007  -10.0311   19.4210 O   0  0  0  0  0  0  0  0  0  0  0  0
  -28.2628  -26.8584   19.5967 O   0  0  0  0  0  0  0  0  0  1  0  0
  -28.6807  -25.7372   17.0606 O   0  0  0  0  0  0  0  0  0  0  0  0
  -21.1408   -8.8922   22.8563 F   0  0  0  0  0  0  0  0  0  0  0  0
  -23.1041  -11.7010   19.5912 F   0  0  0  0  0  0  0  0  0  0  0  0
  -26.3959  -24.3372   17.6709 F   0  0  0  0  0  0  0  0  0  0  0  0
  1  2  1  0  0  0  0
  1  5  2  0  0  0  0
  2  6  2  0  0  0  0
  3  9  2  0  0  0  0
  3 17  1  0  0  0  0
  4 10  1  0  0  0  0
  4 17  2  0  0  0  0
  5 19  1  0  0  0  0
  6 21  1  0  0  0  0
  7 11  2  0  0  0  0
  7 20  1  0  0  0  0
  8 12  2  0  0  0  0
  8 24  1  0  0  0  0
  9 25  1  0  0  0  0
 10 25  2  0  0  0  0
 11 26  1  0  0  0  0
 12 28  1  0  0  0  0
 13 14  2  0  0  0  0
 13 27  1  0  0  0  0
 14 29  1  0  0  0  0
 15 22  1  0  0  0  0
 15 26  2  0  0  0  0
 16 29  2  0  0  0  0
 16 30  1  0  0  0  0
 17 32  1  0  0  0  0
 18 32  1  0  0  0  0
 18 33  2  0  0  0  0
 18 34  1  0  0  0  0
 19 21  2  0  0  0  0
 19 39  1  0  0  0  0
 20 22  2  0  0  0  0
 20 40  1  0  0  0  0
 21 48  1  0  0  0  0
 22 41  1  0  0  0  0
 23 24  2  0  0  0  0
 23 31  1  0  0  0  0
 23 56  1  0  0  0  0
 24 66  1  0  0  0  0
 25 78  1  0  0  0  0
 26 79  1  0  0  0  0
 27 30  2  0  0  0  0
 27 78  1  0  0  0  0
 28 31  2  0  0  0  0
 28 80  1  0  0  0  0
 29 81  1  0  0  0  0
 30 82  1  0  0  0  0
 31 83  1  0  0  0  0
 32 62  2  0  0  0  0
 33 63  1  0  0  0  0
 33 67  1  0  0  0  0
 34 68  1  0  0  0  0
 34 73  2  0  0  0  0
 35 49  1  0  0  0  0
 35 69  1  0  0  0  0
 35 74  2  0  0  0  0
 36 59  1  0  0  0  0
 36 64  1  0  0  0  0
 36 75  2  0  0  0  0
 37 60  1  0  0  0  0
 37 70  1  0  0  0  0
 37 76  2  0  0  0  0
 38 65  1  0  0  0  0
 38 71  1  0  0  0  0
 38 77  2  0  0  0  0
 39 42  1  0  0  0  0
 40 49  1  0  0  0  0
 41 64  1  0  0  0  0
 42 44  1  0  0  0  0
 43 45  1  0  0  0  0
 43 46  1  0  0  0  0
 44 48  1  0  0  0  0
 45 50  1  0  0  0  0
 46 65  1  0  0  0  0
 47 50  1  0  0  0  0
 47 65  1  0  0  0  0
 48 69  1  0  0  0  0
 49 64  1  0  0  0  0
 50 63  1  0  0  0  0
 51 60  1  0  0  0  0
 52 61  1  0  0  0  0
 53 61  1  0  0  0  0
 54 61  1  0  0  0  0
 55 72  1  0  0  0  0
 56 71  1  0  0  0  0
 57 58  1  0  0  0  0
 57 79  1  0  0  0  0
 58 80  1  0  0  0  0
 59 61  1  0  0  0  0
 59 70  1  0  0  0  0
 60 72  1  0  0  0  0
 62 63  1  0  0  0  0
M  CHG  1  72   1
M  ISO  4  38 100  57 101  71 100  79 101
M  END
> <Batch ID>
0096

> <Smiles>
CNC(C)C(=O)NC(C(=O)N1Cc2cc([101O:1][101CH2:1]COc3ccc(N)c(C[100NH:0][100C:0](=O)N4CCCC(n5nc(-c6ccc(Oc7ccc(F)cc7F)cc6)c(C(N)=O)c5N)C4)c3F)ccc2CC1C(=O)NC1CCCc2ccccc21)C(C)(C)C

> <Shape>
0.283

> <Color>
0.104

> <Negative vol penalty>
0.000

$$$$

  -OEChem-04052300463D

 87 95  0     1  0  0  0  0  0999 V2000
  -21.4801  -25.4129   22.8094 C   0  0  0  0  0  0  0  0  0  0  0  0
  -21.7898  -24.2656   22.0860 C   0  0  0  0  0  0  0  0  0  0  0  0
  -26.3255  -27.7182   18.7169 C   0  0  0  0  0  0  0  0  0  0  0  0
  -26.2477  -27.1458   21.0628 C   0  0  0  0  0  0  0  0  0  0  0  0
  -22.0041  -25.5913   24.0890 C   0  0  0  0  0  0  0  0  0  0  0  0
  -22.6246  -23.2966   22.6414 C   0  0  0  0  0  0  0  0  0  0  0  0
  -22.2665  -17.2348   21.8466 C   0  0  0  0  0  0  0  0  0  0  0  0
  -25.8099  -28.9811   19.0080 C   0  0  0  0  0  0  0  0  0  0  0  0
  -25.7321  -28.4087   21.3539 C   0  0  0  0  0  0  0  0  0  0  0  0
  -22.9521  -16.3565   21.0086 C   0  0  0  0  0  0  0  0  0  0  0  0
  -26.9082  -31.5577   21.7023 C   0  0  0  0  0  0  0  0  0  0  0  0
  -27.4533  -32.2442   22.7873 C   0  0  0  0  0  0  0  0  0  0  0  0
  -24.4818  -15.8478   22.8033 C   0  0  0  0  0  0  0  0  0  0  0  0
  -28.5219  -16.6884   19.3783 C   0  0  0  0  0  0  0  0  0  0  0  0
  -30.8744  -17.0882   20.8234 C   0  0  0  0  0  0  0  0  0  0  0  0
  -25.2816  -32.2975   23.8446 C   0  0  0  0  0  0  0  0  0  0  0  0
  -26.5444  -26.8005   19.7443 C   0  0  0  0  0  0  0  0  0  0  0  0
  -28.4325  -25.1204   19.3979 C   0  0  0  0  0  0  0  0  0  0  0  0
  -22.8380  -24.6195   24.6643 C   0  0  0  0  0  0  0  0  0  0  0  0
  -22.6906  -17.4347   23.1682 C   0  0  0  0  0  0  0  0  0  0  0  0
  -23.1613  -23.4629   23.9295 C   0  0  0  0  0  0  0  0  0  0  0  0
  -23.7982  -16.7272   23.6568 C   0  0  0  0  0  0  0  0  0  0  0  0
  -29.5770  -15.7842   19.2571 C   0  0  0  0  0  0  0  0  0  0  0  0
  -28.6430  -17.7926   20.2220 C   0  0  0  0  0  0  0  0  0  0  0  0
  -30.7533  -15.9841   19.9797 C   0  0  0  0  0  0  0  0  0  0  0  0
  -25.5132  -29.3264   20.3265 C   0  0  0  0  0  0  0  0  0  0  0  0
  -24.0617  -15.6650   21.4860 C   0  0  0  0  0  0  0  0  0  0  0  0
  -25.5498  -31.2411   21.6884 C   0  0  0  0  0  0  0  0  0  0  0  0
  -26.6400  -32.6141   23.8584 C   0  0  0  0  0  0  0  0  0  0  0  0
  -29.8193  -17.9924   20.9446 C   0  0  0  0  0  0  0  0  0  0  0  0
  -24.7365  -31.6110   22.7596 C   0  0  0  0  0  0  0  0  0  0  0  0
  -27.0764  -25.4955   19.4442 C   0  0  0  0  0  0  0  0  0  0  0  0
  -28.4088  -23.7863   19.0724 C   0  0  0  0  0  0  0  0  0  0  0  0
  -29.6084  -25.9076   19.6285 C   0  0  0  0  0  0  0  0  0  0  0  0
  -23.7489  -19.9282   24.8315 C   0  0  0  0  0  0  0  0  0  0  0  0
  -23.6038  -17.8412   27.3105 C   0  0  0  0  0  0  0  0  0  0  0  0
  -27.5805  -13.2094   19.2563 C   0  0  0  0  0  0  0  0  0  0  0  0
  -23.6159  -14.5976   28.3716 C   0  0  0  0  0  0  0  0  0  0  0  0
  -26.3357  -18.6564   19.6963 C   0  0  0  0  0  0  0  0  0  0  0  0
  -23.4186  -24.8787   26.0319 C   0  0  0  0  0  0  0  0  0  0  0  0
  -21.9240  -18.3654   24.0675 C   0  0  0  0  0  0  0  0  0  0  0  0
  -24.2818  -16.8911   25.0738 C   0  0  0  0  0  0  0  0  0  0  0  0
  -23.9934  -23.6302   26.6961 C   0  0  0  0  0  0  0  0  0  0  0  0
  -24.6022  -20.8487   17.4905 C   0  0  0  0  0  0  0  0  0  0  0  0
  -24.8635  -22.8546   25.7122 C   0  0  0  0  0  0  0  0  0  0  0  0
  -25.2030  -22.2222   17.7983 C   0  0  0  0  0  0  0  0  0  0  0  0
  -24.4676  -19.9936   18.7492 C   0  0  0  0  0  0  0  0  0  0  0  0
  -26.2992  -21.2239   19.8449 C   0  0  0  0  0  0  0  0  0  0  0  0
  -24.0433  -22.3775   24.5076 C   0  0  1  0  0  0  0  0  0  0  0  0
  -22.7527  -18.8803   25.2404 C   0  0  1  0  0  0  0  0  0  0  0  0
  -26.5146  -22.0973   18.5981 C   0  0  2  0  0  0  0  0  0  0  0  0
  -29.8968  -14.8898   16.9141 C   0  0  0  0  0  0  0  0  0  0  0  0
  -23.5216  -13.2073   30.4586 C   0  0  0  0  0  0  0  0  0  0  0  0
  -26.5170  -18.5316   27.8992 C   0  0  0  0  0  0  0  0  0  0  0  0
  -26.6418  -16.4797   29.3283 C   0  0  0  0  0  0  0  0  0  0  0  0
  -25.0655  -18.3188   29.9246 C   0  0  0  0  0  0  0  0  0  0  0  0
  -21.1090  -13.2767   27.5174 C   0  0  0  0  0  0  0  0  0  0  0  0
  -26.1180  -12.8772   19.0200 C   0  0  0  0  0  0  0  0  0  0  0  0
  -25.3841  -12.5266   20.3093 C   0  0  0  0  0  0  0  0  0  0  0  0
  -25.3758  -13.6929   21.2869 C   0  0  0  0  0  0  0  0  0  1  0  0
  -29.4184  -14.5951   18.3343 C   0  0  2  0  0  0  0  0  0  0  0  0
  -24.5584  -16.8496   27.9305 C   0  0  1  0  0  0  0  0  0  0  0  0
  -22.7166  -13.8514   29.3406 C   0  0  2  0  0  0  0  0  0  0  0  0
  -25.6880  -17.5431   28.7433 C   0  0  0  0  0  0  0  0  0  0  0  0
  -26.2513  -24.4816   19.1700 N   0  0  0  0  0  0  0  0  0  0  0  0
  -27.0913  -23.4563   18.9481 N   0  0  0  0  0  0  0  0  0  0  0  0
  -23.5028  -17.8172   25.9123 N   0  0  0  0  0  0  0  0  0  0  0  0
  -25.7498  -19.9166   19.4526 N   0  0  0  0  0  0  0  0  0  0  0  0
  -31.8319  -15.0792   19.8693 N   0  0  0  0  0  0  0  0  0  0  0  0
  -29.3867  -22.8750   18.8832 N   0  0  0  0  0  0  0  0  0  0  0  0
  -29.4527  -27.2621   19.9531 N   0  0  0  0  0  0  0  0  0  0  0  0
  -27.5698  -18.7097   20.3434 N   0  0  0  0  0  0  0  0  0  0  0  0
  -23.2533  -21.2177   24.8615 N   0  0  0  0  0  0  0  0  0  0  0  0
  -28.0556  -14.1189   18.3227 N   0  0  0  0  0  0  0  0  0  0  0  0
  -23.7399  -15.9282   28.7112 N   0  0  0  0  0  0  0  0  0  0  0  0
  -21.9623  -12.7816   28.6282 N   0  3  0  0  0  0  0  0  0  0  0  0
  -30.7636  -25.4281   19.5330 O   0  0  0  0  0  0  0  0  0  0  0  0
  -24.8836  -19.5918   24.5137 O   0  0  0  0  0  0  0  0  0  0  0  0
  -22.9657  -18.6039   28.0404 O   0  0  0  0  0  0  0  0  0  0  0  0
  -28.2442  -12.7228   20.1679 O   0  0  0  0  0  0  0  0  0  0  0  0
  -24.1574  -14.0536   27.4117 O   0  0  0  0  0  0  0  0  0  0  0  0
  -25.7962  -17.6085   19.3318 O   0  0  0  0  0  0  0  0  0  0  0  0
  -25.0103  -30.5588   20.6109 O   0  0  0  0  0  0  0  0  0  0  0  0
  -24.7332  -14.8077   20.6699 O   0  0  0  0  0  0  0  0  0  1  0  0
  -27.1639  -33.2720   24.9010 F   0  0  0  0  0  0  0  0  0  0  0  0
  -29.9468  -19.0502   21.7585 F   0  0  0  0  0  0  0  0  0  0  0  0
  -23.4310  -31.3086   22.7524 F   0  0  0  0  0  0  0  0  0  0  0  0
  1  2  1  0  0  0  0
  1  5  2  0  0  0  0
  2  6  2  0  0  0  0
  3  8  2  0  0  0  0
  3 17  1  0  0  0  0
  4  9  1  0  0  0  0
  4 17  2  0  0  0  0
  5 19  1  0  0  0  0
  6 21  1  0  0  0  0
  7 10  2  0  0  0  0
  7 20  1  0  0  0  0
  8 26  1  0  0  0  0
  9 26  2  0  0  0  0
 10 27  1  0  0  0  0
 11 12  2  0  0  0  0
 11 28  1  0  0  0  0
 12 29  1  0  0  0  0
 13 22  1  0  0  0  0
 13 27  2  0  0  0  0
 14 23  1  0  0  0  0
 14 24  2  0  0  0  0
 15 25  1  0  0  0  0
 15 30  2  0  0  0  0
 16 29  2  0  0  0  0
 16 31  1  0  0  0  0
 17 32  1  0  0  0  0
 18 32  1  0  0  0  0
 18 33  2  0  0  0  0
 18 34  1  0  0  0  0
 19 21  2  0  0  0  0
 19 40  1  0  0  0  0
 20 22  2  0  0  0  0
 20 41  1  0  0  0  0
 21 49  1  0  0  0  0
 22 42  1  0  0  0  0
 23 25  2  0  0  0  0
 23 61  1  0  0  0  0
 24 30  1  0  0  0  0
 24 72  1  0  0  0  0
 25 69  1  0  0  0  0
 26 83  1  0  0  0  0
 27 84  1  0  0  0  0
 28 31  2  0  0  0  0
 28 83  1  0  0  0  0
 29 85  1  0  0  0  0
 30 86  1  0  0  0  0
 31 87  1  0  0  0  0
 32 65  2  0  0  0  0
 33 66  1  0  0  0  0
 33 70  1  0  0  0  0
 34 71  1  0  0  0  0
 34 77  2  0  0  0  0
 35 50  1  0  0  0  0
 35 73  1  0  0  0  0
 35 78  2  0  0  0  0
 36 62  1  0  0  0  0
 36 67  1  0  0  0  0
 36 79  2  0  0  0  0
 37 58  1  0  0  0  0
 37 74  1  0  0  0  0
 37 80  2  0  0  0  0
 38 63  1  0  0  0  0
 38 75  1  0  0  0  0
 38 81  2  0  0  0  0
 39 68  1  0  0  0  0
 39 72  1  0  0  0  0
 39 82  2  0  0  0  0
 40 43  1  0  0  0  0
 41 50  1  0  0  0  0
 42 67  1  0  0  0  0
 43 45  1  0  0  0  0
 44 46  1  0  0  0  0
 44 47  1  0  0  0  0
 45 49  1  0  0  0  0
 46 51  1  0  0  0  0
 47 68  1  0  0  0  0
 48 51  1  0  0  0  0
 48 68  1  0  0  0  0
 49 73  1  0  0  0  0
 50 67  1  0  0  0  0
 51 66  1  0  0  0  0
 52 61  1  0  0  0  0
 53 63  1  0  0  0  0
 54 64  1  0  0  0  0
 55 64  1  0  0  0  0
 56 64  1  0  0  0  0
 57 76  1  0  0  0  0
 58 59  1  0  0  0  0
 59 60  1  0  0  0  0
 60 84  1  0  0  0  0
 61 74  1  0  0  0  0
 62 64  1  0  0  0  0
 62 75  1  0  0  0  0
 63 76  1  0  0  0  0
 65 66  1  0  0  0  0
M  CHG  1  76   1
M  ISO  4  39 100  60 101  72 100  84 101
M  END
> <Batch ID>
0096

> <Smiles>
CNC(C)C(=O)NC(C(=O)N1Cc2cc([101O:1][101CH2:1]CCC(=O)NC(C)c3cc([100NH:0][100C:0](=O)N4CCCC(n5nc(-c6ccc(Oc7ccc(F)cc7F)cc6)c(C(N)=O)c5N)C4)c(F)cc3N)ccc2CC1C(=O)NC1CCCc2ccccc21)C(C)(C)C

> <Shape>
0.193

> <Color>
0.076

> <Negative vol penalty>
0.000

$$$$

  -OEChem-04052300463D

 87 96  0     1  0  0  0  0  0999 V2000
  -30.8297  -22.9852   17.2707 C   0  0  0  0  0  0  0  0  0  0  0  0
  -30.5116  -22.7022   18.5951 C   0  0  0  0  0  0  0  0  0  0  0  0
  -22.6719  -10.1806   20.1917 C   0  0  0  0  0  0  0  0  0  0  0  0
  -24.3100   -9.4540   21.8121 C   0  0  0  0  0  0  0  0  0  0  0  0
  -31.9982  -22.4707   16.7104 C   0  0  0  0  0  0  0  0  0  0  0  0
  -31.3613  -21.9035   19.3598 C   0  0  0  0  0  0  0  0  0  0  0  0
  -32.1479  -23.7861   23.9946 C   0  0  0  0  0  0  0  0  0  0  0  0
  -29.8464  -17.2328   24.2511 C   0  0  0  0  0  0  0  0  0  0  0  0
  -29.0693  -17.9746   25.1407 C   0  0  0  0  0  0  0  0  0  0  0  0
  -21.9402   -9.0129   20.4077 C   0  0  0  0  0  0  0  0  0  0  0  0
  -23.5782   -8.2863   22.0282 C   0  0  0  0  0  0  0  0  0  0  0  0
  -31.1374  -23.6008   24.9371 C   0  0  0  0  0  0  0  0  0  0  0  0
  -21.9542   -5.2803   23.2710 C   0  0  0  0  0  0  0  0  0  0  0  0
  -21.7570   -4.8724   24.5902 C   0  0  0  0  0  0  0  0  0  0  0  0
  -32.3659  -21.7522   25.8820 C   0  0  0  0  0  0  0  0  0  0  0  0
  -29.3353  -18.8075   22.4915 C   0  0  0  0  0  0  0  0  0  0  0  0
  -20.6183   -6.9502   25.0624 C   0  0  0  0  0  0  0  0  0  0  0  0
  -23.8569  -10.4011   20.8938 C   0  0  0  0  0  0  0  0  0  0  0  0
  -24.1794  -12.9315   20.8673 C   0  0  0  0  0  0  0  0  0  0  0  0
  -32.8675  -21.6733   17.4714 C   0  0  0  0  0  0  0  0  0  0  0  0
  -33.2718  -22.9476   23.9819 C   0  0  0  0  0  0  0  0  0  0  0  0
  -32.5418  -21.3768   18.8087 C   0  0  0  0  0  0  0  0  0  0  0  0
  -33.3905  -21.9306   24.9399 C   0  0  0  0  0  0  0  0  0  0  0  0
  -29.9794  -17.6493   22.9264 C   0  0  0  0  0  0  0  0  0  0  0  0
  -28.4251  -19.1329   24.7057 C   0  0  0  0  0  0  0  0  0  0  0  0
  -28.5581  -19.5493   23.3811 C   0  0  0  0  0  0  0  0  0  0  0  0
  -22.3933   -8.0658   21.3260 C   0  0  0  0  0  0  0  0  0  0  0  0
  -31.2449  -22.5819   25.8791 C   0  0  0  0  0  0  0  0  0  0  0  0
  -21.4835   -6.5232   22.8475 C   0  0  0  0  0  0  0  0  0  0  0  0
  -21.0890   -5.7073   25.4859 C   0  0  0  0  0  0  0  0  0  0  0  0
  -20.8156   -7.3581   23.7432 C   0  0  0  0  0  0  0  0  0  0  0  0
  -24.6135  -11.6069   20.6707 C   0  0  0  0  0  0  0  0  0  0  0  0
  -25.2603  -13.7027   20.5163 C   0  0  0  0  0  0  0  0  0  0  0  0
  -26.2501  -20.1141   25.4550 C   0  0  0  0  0  0  0  0  0  0  0  0
  -22.9124  -13.4211   21.3263 C   0  0  0  0  0  0  0  0  0  0  0  0
  -34.5244  -20.9071   21.8912 C   0  0  0  0  0  0  0  0  0  0  0  0
  -36.9238  -20.7537   24.0687 C   0  0  0  0  0  0  0  0  0  0  0  0
  -37.2132  -20.5982   27.6617 C   0  0  0  0  0  0  0  0  0  0  0  0
  -30.7393  -14.7547   20.6569 C   0  0  0  0  0  0  0  0  0  0  0  0
  -34.0951  -21.1007   16.8083 C   0  0  0  0  0  0  0  0  0  0  0  0
  -34.3658  -23.1775   22.9755 C   0  0  0  0  0  0  0  0  0  0  0  0
  -34.5865  -21.0161   24.9816 C   0  0  0  0  0  0  0  0  0  0  0  0
  -25.6363  -20.9694   26.5508 C   0  0  0  0  0  0  0  0  0  0  0  0
  -35.1308  -20.5717   17.7971 C   0  0  0  0  0  0  0  0  0  0  0  0
  -26.4932  -22.2111   26.7621 C   0  0  0  0  0  0  0  0  0  0  0  0
  -29.5795  -12.4567   18.1970 C   0  0  0  0  0  0  0  0  0  0  0  0
  -34.4598  -19.7143   18.8654 C   0  0  0  0  0  0  0  0  0  0  0  0
  -28.1513  -12.1355   18.6410 C   0  0  0  0  0  0  0  0  0  0  0  0
  -30.5144  -12.6373   19.3909 C   0  0  0  0  0  0  0  0  0  0  0  0
  -28.2396  -20.3693   26.8854 C   0  0  0  0  0  0  0  0  0  0  0  0
  -28.6305  -13.2995   20.8352 C   0  0  0  0  0  0  0  0  0  0  0  0
  -33.4506  -20.5348   19.6778 C   0  0  1  0  0  0  0  0  0  0  0  0
  -35.2225  -21.9392   22.7309 C   0  0  1  0  0  0  0  0  0  0  0  0
  -27.9403  -21.8525   27.1407 C   0  0  1  0  0  0  0  0  0  0  0  0
  -27.6385  -13.1637   19.6673 C   0  0  2  0  0  0  0  0  0  0  0  0
  -39.0636  -21.3454   29.1833 C   0  0  0  0  0  0  0  0  0  0  0  0
  -37.8862  -17.8673   23.8398 C   0  0  0  0  0  0  0  0  0  0  0  0
  -38.5164  -17.9588   26.2611 C   0  0  0  0  0  0  0  0  0  0  0  0
  -39.6218  -19.4863   24.6278 C   0  0  0  0  0  0  0  0  0  0  0  0
  -35.3803  -22.2970   29.2470 C   0  0  0  0  0  0  0  0  0  0  0  0
  -30.8105  -16.8557   21.9758 C   0  0  0  0  0  0  0  0  0  0  0  0
  -28.9340  -22.7576   26.4127 C   0  0  0  0  0  0  0  0  0  1  0  0
  -37.2149  -19.9019   25.2806 C   0  0  1  0  0  0  0  0  0  0  0  0
  -37.7121  -21.6978   28.5817 C   0  0  2  0  0  0  0  0  0  0  0  0
  -38.2832  -18.8091   24.9941 C   0  0  0  0  0  0  0  0  0  0  0  0
  -25.8720  -11.5369   20.2288 N   0  0  0  0  0  0  0  0  0  0  0  0
  -26.2380  -12.8273   20.1448 N   0  0  0  0  0  0  0  0  0  0  0  0
  -27.6291  -19.8809   25.6418 N   0  0  0  0  0  0  0  0  0  0  0  0
  -35.6266  -21.2770   23.9728 N   0  0  0  0  0  0  0  0  0  0  0  0
  -29.9713  -13.6263   20.3251 N   0  0  0  0  0  0  0  0  0  0  0  0
  -27.9143  -20.7193   22.9192 N   0  0  0  0  0  0  0  0  0  0  0  0
  -25.4604  -15.0376   20.4921 N   0  0  0  0  0  0  0  0  0  0  0  0
  -21.9123  -12.4919   21.6438 N   0  0  0  0  0  0  0  0  0  0  0  0
  -34.1360  -21.3636   20.6461 N   0  0  0  0  0  0  0  0  0  0  0  0
  -37.5765  -20.8249   26.3510 N   0  0  0  0  0  0  0  0  0  0  0  0
  -30.1475  -15.6454   21.5441 N   0  0  0  0  0  0  0  0  0  0  0  0
  -36.7459  -21.9203   29.6943 N   0  3  0  0  0  0  0  0  0  0  0  0
  -25.5511  -19.7384   24.5158 O   0  0  0  0  0  0  0  0  0  0  0  0
  -22.6686  -14.6467   21.4355 O   0  0  0  0  0  0  0  0  0  0  0  0
  -34.3522  -19.7795   22.3391 O   0  0  0  0  0  0  0  0  0  0  0  0
  -37.8167  -20.9536   23.2413 O   0  0  0  0  0  0  0  0  0  0  0  0
  -36.5692  -19.6326   28.0659 O   0  0  0  0  0  0  0  0  0  0  0  0
  -31.8665  -14.9562   20.1924 O   0  0  0  0  0  0  0  0  0  0  0  0
  -21.6794   -6.9263   21.5373 O   0  0  0  0  0  0  0  0  0  0  0  0
  -30.2597  -22.3984   26.7998 O   0  0  0  0  0  0  0  0  0  1  0  0
  -20.8984   -5.3149   26.7523 F   0  0  0  0  0  0  0  0  0  0  0  0
  -20.3600   -8.5528   23.3419 F   0  0  0  0  0  0  0  0  0  0  0  0
  1  2  1  0  0  0  0
  1  5  2  0  0  0  0
  2  6  2  0  0  0  0
  3 10  2  0  0  0  0
  3 18  1  0  0  0  0
  4 11  1  0  0  0  0
  4 18  2  0  0  0  0
  5 20  1  0  0  0  0
  6 22  1  0  0  0  0
  7 12  2  0  0  0  0
  7 21  1  0  0  0  0
  8  9  2  0  0  0  0
  8 24  1  0  0  0  0
  9 25  1  0  0  0  0
 10 27  1  0  0  0  0
 11 27  2  0  0  0  0
 12 28  1  0  0  0  0
 13 14  2  0  0  0  0
 13 29  1  0  0  0  0
 14 30  1  0  0  0  0
 15 23  1  0  0  0  0
 15 28  2  0  0  0  0
 16 24  2  0  0  0  0
 16 26  1  0  0  0  0
 17 30  2  0  0  0  0
 17 31  1  0  0  0  0
 18 32  1  0  0  0  0
 19 32  1  0  0  0  0
 19 33  2  0  0  0  0
 19 35  1  0  0  0  0
 20 22  2  0  0  0  0
 20 40  1  0  0  0  0
 21 23  2  0  0  0  0
 21 41  1  0  0  0  0
 22 52  1  0  0  0  0
 23 42  1  0  0  0  0
 24 61  1  0  0  0  0
 25 26  2  0  0  0  0
 25 68  1  0  0  0  0
 26 71  1  0  0  0  0
 27 84  1  0  0  0  0
 28 85  1  0  0  0  0
 29 31  2  0  0  0  0
 29 84  1  0  0  0  0
 30 86  1  0  0  0  0
 31 87  1  0  0  0  0
 32 66  2  0  0  0  0
 33 67  1  0  0  0  0
 33 72  1  0  0  0  0
 34 43  1  0  0  0  0
 34 68  1  0  0  0  0
 34 78  2  0  0  0  0
 35 73  1  0  0  0  0
 35 79  2  0  0  0  0
 36 53  1  0  0  0  0
 36 74  1  0  0  0  0
 36 80  2  0  0  0  0
 37 63  1  0  0  0  0
 37 69  1  0  0  0  0
 37 81  2  0  0  0  0
 38 64  1  0  0  0  0
 38 75  1  0  0  0  0
 38 82  2  0  0  0  0
 39 70  1  0  0  0  0
 39 76  1  0  0  0  0
 39 83  2  0  0  0  0
 40 44  1  0  0  0  0
 41 53  1  0  0  0  0
 42 69  1  0  0  0  0
 43 45  1  0  0  0  0
 44 47  1  0  0  0  0
 45 54  1  0  0  0  0
 46 48  1  0  0  0  0
 46 49  1  0  0  0  0
 47 52  1  0  0  0  0
 48 55  1  0  0  0  0
 49 70  1  0  0  0  0
 50 54  1  0  0  0  0
 50 68  1  0  0  0  0
 51 55  1  0  0  0  0
 51 70  1  0  0  0  0
 52 74  1  0  0  0  0
 53 69  1  0  0  0  0
 54 62  1  0  0  0  0
 55 67  1  0  0  0  0
 56 64  1  0  0  0  0
 57 65  1  0  0  0  0
 58 65  1  0  0  0  0
 59 65  1  0  0  0  0
 60 77  1  0  0  0  0
 61 76  1  0  0  0  0
 62 85  1  0  0  0  0
 63 65  1  0  0  0  0
 63 75  1  0  0  0  0
 64 77  1  0  0  0  0
 66 67  1  0  0  0  0
M  CHG  1  77   1
M  ISO  4  39 100  62 101  76 100  85 101
M  END
> <Batch ID>
0096

> <Smiles>
CNC(C)C(=O)NC(C(=O)N1Cc2cc([101O:1][101CH2:1]C3CCC(=O)N(c4ccc(C[100NH:0][100C:0](=O)N5CCCC(n6nc(-c7ccc(Oc8ccc(F)cc8F)cc7)c(C(N)=O)c6N)C5)cc4N)C3)ccc2CC1C(=O)NC1CCCc2ccccc21)C(C)(C)C

> <Shape>
0.194

> <Color>
0.188

> <Negative vol penalty>
0.000

$$$$

  -OEChem-04052300463D

 86 95  0     1  0  0  0  0  0999 V2000
  -24.0782  -26.7191   19.2653 C   0  0  0  0  0  0  0  0  0  0  0  0
  -24.9128  -25.9504   20.0702 C   0  0  0  0  0  0  0  0  0  0  0  0
  -22.8004  -10.1446   20.0971 C   0  0  0  0  0  0  0  0  0  0  0  0
  -24.1816   -9.5731   21.9953 C   0  0  0  0  0  0  0  0  0  0  0  0
  -23.3535  -27.7729   19.8205 C   0  0  0  0  0  0  0  0  0  0  0  0
  -25.0241  -26.2358   21.4306 C   0  0  0  0  0  0  0  0  0  0  0  0
  -24.8310  -22.0749   24.3107 C   0  0  0  0  0  0  0  0  0  0  0  0
  -30.6109  -14.9777   24.9980 C   0  0  0  0  0  0  0  0  0  0  0  0
  -32.7214  -15.2867   23.8633 C   0  0  0  0  0  0  0  0  0  0  0  0
  -30.6216  -16.3184   25.3829 C   0  0  0  0  0  0  0  0  0  0  0  0
  -32.7321  -16.6274   24.2482 C   0  0  0  0  0  0  0  0  0  0  0  0
  -22.0660   -8.9727   20.2786 C   0  0  0  0  0  0  0  0  0  0  0  0
  -23.4471   -8.4012   22.1768 C   0  0  0  0  0  0  0  0  0  0  0  0
  -25.9867  -21.2988   24.3864 C   0  0  0  0  0  0  0  0  0  0  0  0
  -23.2903   -5.3199   20.7940 C   0  0  0  0  0  0  0  0  0  0  0  0
  -23.9981   -4.1423   21.0346 C   0  0  0  0  0  0  0  0  0  0  0  0
  -26.5128  -22.3006   26.5168 C   0  0  0  0  0  0  0  0  0  0  0  0
  -22.8755   -3.9019   23.1604 C   0  0  0  0  0  0  0  0  0  0  0  0
  -23.8583  -10.4447   20.9554 C   0  0  0  0  0  0  0  0  0  0  0  0
  -24.1337  -12.9763   20.8042 C   0  0  0  0  0  0  0  0  0  0  0  0
  -23.4485  -28.0653   21.1902 C   0  0  0  0  0  0  0  0  0  0  0  0
  -24.5127  -22.9792   25.3341 C   0  0  0  0  0  0  0  0  0  0  0  0
  -24.3010  -27.2954   22.0043 C   0  0  0  0  0  0  0  0  0  0  0  0
  -25.3512  -23.0853   26.4530 C   0  0  0  0  0  0  0  0  0  0  0  0
  -31.6609  -14.4618   24.2383 C   0  0  0  0  0  0  0  0  0  0  0  0
  -31.6821  -17.1432   25.0080 C   0  0  0  0  0  0  0  0  0  0  0  0
  -22.3894   -8.1010   21.3185 C   0  0  0  0  0  0  0  0  0  0  0  0
  -26.8293  -21.4136   25.4882 C   0  0  0  0  0  0  0  0  0  0  0  0
  -22.3752   -5.7886   21.7367 C   0  0  0  0  0  0  0  0  0  0  0  0
  -23.7906   -3.4333   22.2177 C   0  0  0  0  0  0  0  0  0  0  0  0
  -22.1678   -5.0796   22.9198 C   0  0  0  0  0  0  0  0  0  0  0  0
  -24.6176  -11.6548   20.7681 C   0  0  0  0  0  0  0  0  0  0  0  0
  -25.2413  -13.7541   20.5704 C   0  0  0  0  0  0  0  0  0  0  0  0
  -32.9068  -19.2109   25.6202 C   0  0  0  0  0  0  0  0  0  0  0  0
  -22.8020  -13.4577   21.0291 C   0  0  0  0  0  0  0  0  0  0  0  0
  -24.1456  -26.1318   25.5078 C   0  0  0  0  0  0  0  0  0  0  0  0
  -23.2004  -25.4633   28.5380 C   0  0  0  0  0  0  0  0  0  0  0  0
  -24.2564  -23.2724   31.2030 C   0  0  0  0  0  0  0  0  0  0  0  0
  -31.1019  -12.8615   21.4120 C   0  0  0  0  0  0  0  0  0  0  0  0
  -22.6821  -29.2442   21.7357 C   0  0  0  0  0  0  0  0  0  0  0  0
  -23.2485  -23.7899   25.2501 C   0  0  0  0  0  0  0  0  0  0  0  0
  -25.0438  -24.0264   27.5879 C   0  0  0  0  0  0  0  0  0  0  0  0
  -32.8270  -20.7222   25.7253 C   0  0  0  0  0  0  0  0  0  0  0  0
  -22.5687  -29.2452   23.2580 C   0  0  0  0  0  0  0  0  0  0  0  0
  -31.5734  -21.2360   26.3987 C   0  0  0  0  0  0  0  0  0  0  0  0
  -29.4772  -13.6659   18.3477 C   0  0  0  0  0  0  0  0  0  0  0  0
  -23.9227  -28.9477   23.8944 C   0  0  0  0  0  0  0  0  0  0  0  0
  -28.0039  -13.3610   18.6238 C   0  0  0  0  0  0  0  0  0  0  0  0
  -30.4001  -12.6683   19.0441 C   0  0  0  0  0  0  0  0  0  0  0  0
  -30.4025  -19.1405   25.7813 C   0  0  0  0  0  0  0  0  0  0  0  0
  -28.6998  -12.2176   20.7702 C   0  0  0  0  0  0  0  0  0  0  0  0
  -24.4294  -27.5583   23.4890 C   0  0  1  0  0  0  0  0  0  0  0  0
  -23.2897  -25.0517   26.1066 C   0  0  1  0  0  0  0  0  0  0  0  0
  -30.3614  -20.6647   25.6815 C   0  0  1  0  0  0  0  0  0  0  0  0
  -27.7319  -13.2302   20.1345 C   0  0  2  0  0  0  0  0  0  0  0  0
  -22.9551  -22.2591   33.0944 C   0  0  0  0  0  0  0  0  0  0  0  0
  -24.1619  -27.8907   30.1170 C   0  0  0  0  0  0  0  0  0  0  0  0
  -24.4383  -26.3986   32.1084 C   0  0  0  0  0  0  0  0  0  0  0  0
  -22.1799  -26.7248   31.1003 C   0  0  0  0  0  0  0  0  0  0  0  0
  -25.0870  -20.5309   30.4591 C   0  0  0  0  0  0  0  0  0  0  0  0
  -31.6494  -13.0284   23.8268 C   0  0  0  0  0  0  0  0  0  0  0  0
  -29.0649  -21.2125   26.2742 C   0  0  0  0  0  0  0  0  0  1  0  0
  -23.8968  -25.3343   29.8712 C   0  0  1  0  0  0  0  0  0  0  0  0
  -23.5314  -22.0366   31.7047 C   0  0  2  0  0  0  0  0  0  0  0  0
  -23.6826  -26.5813   30.7748 C   0  0  0  0  0  0  0  0  0  0  0  0
  -25.9304  -11.5928   20.5299 N   0  0  0  0  0  0  0  0  0  0  0  0
  -26.2808  -12.8851   20.4141 N   0  0  0  0  0  0  0  0  0  0  0  0
  -31.6933  -18.5345   25.4070 N   0  0  0  0  0  0  0  0  0  0  0  0
  -23.7994  -24.8021   27.4564 N   0  0  0  0  0  0  0  0  0  0  0  0
  -30.0913  -12.5929   20.4741 N   0  0  0  0  0  0  0  0  0  0  0  0
  -25.4178  -15.0898   20.4852 N   0  0  0  0  0  0  0  0  0  0  0  0
  -22.4034  -13.7302   22.3449 N   0  0  0  0  0  0  0  0  0  0  0  0
  -23.7472  -26.5308   24.2463 N   0  0  0  0  0  0  0  0  0  0  0  0
  -23.4272  -24.0837   30.4577 N   0  0  0  0  0  0  0  0  0  0  0  0
  -30.7232  -12.7740   22.7460 N   0  0  0  0  0  0  0  0  0  0  0  0
  -24.4648  -20.8763   31.7631 N   0  3  0  0  0  0  0  0  0  0  0  0
  -34.0219  -18.6846   25.6683 O   0  0  0  0  0  0  0  0  0  0  0  0
  -21.9843  -13.6252   20.0928 O   0  0  0  0  0  0  0  0  0  0  0  0
  -25.0961  -26.5718   26.1440 O   0  0  0  0  0  0  0  0  0  0  0  0
  -22.1594  -26.1204   28.4606 O   0  0  0  0  0  0  0  0  0  0  0  0
  -25.4390  -23.4974   31.4508 O   0  0  0  0  0  0  0  0  0  0  0  0
  -32.2548  -13.1625   21.0847 O   0  0  0  0  0  0  0  0  0  0  0  0
  -21.6728   -6.9575   21.4960 O   0  0  0  0  0  0  0  0  0  0  0  0
  -27.9583  -20.6577   25.5643 O   0  0  0  0  0  0  0  0  0  1  0  0
  -24.4692   -2.3016   22.4479 F   0  0  0  0  0  0  0  0  0  0  0  0
  -21.2890   -5.5243   23.8287 F   0  0  0  0  0  0  0  0  0  0  0  0
  1  2  1  0  0  0  0
  1  5  2  0  0  0  0
  2  6  2  0  0  0  0
  3 12  2  0  0  0  0
  3 19  1  0  0  0  0
  4 13  1  0  0  0  0
  4 19  2  0  0  0  0
  5 21  1  0  0  0  0
  6 23  1  0  0  0  0
  7 14  2  0  0  0  0
  7 22  1  0  0  0  0
  8 10  2  0  0  0  0
  8 25  1  0  0  0  0
  9 11  1  0  0  0  0
  9 25  2  0  0  0  0
 10 26  1  0  0  0  0
 11 26  2  0  0  0  0
 12 27  1  0  0  0  0
 13 27  2  0  0  0  0
 14 28  1  0  0  0  0
 15 16  2  0  0  0  0
 15 29  1  0  0  0  0
 16 30  1  0  0  0  0
 17 24  1  0  0  0  0
 17 28  2  0  0  0  0
 18 30  2  0  0  0  0
 18 31  1  0  0  0  0
 19 32  1  0  0  0  0
 20 32  1  0  0  0  0
 20 33  2  0  0  0  0
 20 35  1  0  0  0  0
 21 23  2  0  0  0  0
 21 40  1  0  0  0  0
 22 24  2  0  0  0  0
 22 41  1  0  0  0  0
 23 52  1  0  0  0  0
 24 42  1  0  0  0  0
 25 61  1  0  0  0  0
 26 68  1  0  0  0  0
 27 83  1  0  0  0  0
 28 84  1  0  0  0  0
 29 31  2  0  0  0  0
 29 83  1  0  0  0  0
 30 85  1  0  0  0  0
 31 86  1  0  0  0  0
 32 66  2  0  0  0  0
 33 67  1  0  0  0  0
 33 71  1  0  0  0  0
 34 43  1  0  0  0  0
 34 68  1  0  0  0  0
 34 77  2  0  0  0  0
 35 72  1  0  0  0  0
 35 78  2  0  0  0  0
 36 53  1  0  0  0  0
 36 73  1  0  0  0  0
 36 79  2  0  0  0  0
 37 63  1  0  0  0  0
 37 69  1  0  0  0  0
 37 80  2  0  0  0  0
 38 64  1  0  0  0  0
 38 74  1  0  0  0  0
 38 81  2  0  0  0  0
 39 70  1  0  0  0  0
 39 75  1  0  0  0  0
 39 82  2  0  0  0  0
 40 44  1  0  0  0  0
 41 53  1  0  0  0  0
 42 69  1  0  0  0  0
 43 45  1  0  0  0  0
 44 47  1  0  0  0  0
 45 54  1  0  0  0  0
 46 48  1  0  0  0  0
 46 49  1  0  0  0  0
 47 52  1  0  0  0  0
 48 55  1  0  0  0  0
 49 70  1  0  0  0  0
 50 54  1  0  0  0  0
 50 68  1  0  0  0  0
 51 55  1  0  0  0  0
 51 70  1  0  0  0  0
 52 73  1  0  0  0  0
 53 69  1  0  0  0  0
 54 62  1  0  0  0  0
 55 67  1  0  0  0  0
 56 64  1  0  0  0  0
 57 65  1  0  0  0  0
 58 65  1  0  0  0  0
 59 65  1  0  0  0  0
 60 76  1  0  0  0  0
 61 75  1  0  0  0  0
 62 84  1  0  0  0  0
 63 65  1  0  0  0  0
 63 74  1  0  0  0  0
 64 76  1  0  0  0  0
 66 67  1  0  0  0  0
M  CHG  1  76   1
M  ISO  4  39 100  62 101  75 100  84 101
M  END
> <Batch ID>
0096

> <Smiles>
CNC(C)C(=O)NC(C(=O)N1Cc2cc([101O:1][101CH2:1]C3CCC(=O)N(c4ccc(C[100NH:0][100C:0](=O)N5CCCC(n6nc(-c7ccc(Oc8ccc(F)cc8F)cc7)c(C(N)=O)c6N)C5)cc4)C3)ccc2CC1C(=O)NC1CCCc2ccccc21)C(C)(C)C

> <Shape>
0.169

> <Color>
0.155

> <Negative vol penalty>
0.000

$$$$

  -OEChem-04052300463D

 86 94  0     1  0  0  0  0  0999 V2000
  -17.9401  -30.7716   22.2327 C   0  0  0  0  0  0  0  0  0  0  0  0
  -19.3193  -30.9507   22.2002 C   0  0  0  0  0  0  0  0  0  0  0  0
  -30.1517  -22.5779   16.4530 C   0  0  0  0  0  0  0  0  0  0  0  0
  -26.2542  -12.7905   21.6401 C   0  0  0  0  0  0  0  0  0  0  0  0
  -25.3649  -14.0039   19.7497 C   0  0  0  0  0  0  0  0  0  0  0  0
  -30.6257  -23.8177   16.8815 C   0  0  0  0  0  0  0  0  0  0  0  0
  -17.4080  -29.4953   22.4113 C   0  0  0  0  0  0  0  0  0  0  0  0
  -20.1674  -29.8536   22.3473 C   0  0  0  0  0  0  0  0  0  0  0  0
  -25.5924  -29.0044   19.6356 C   0  0  0  0  0  0  0  0  0  0  0  0
  -29.7679  -21.6167   17.3883 C   0  0  0  0  0  0  0  0  0  0  0  0
  -25.0892  -12.0257   21.6974 C   0  0  0  0  0  0  0  0  0  0  0  0
  -24.1998  -13.2391   19.8069 C   0  0  0  0  0  0  0  0  0  0  0  0
  -26.9012  -29.2016   20.0738 C   0  0  0  0  0  0  0  0  0  0  0  0
  -21.9293  -12.3832   22.8427 C   0  0  0  0  0  0  0  0  0  0  0  0
  -21.3528  -12.1745   24.0955 C   0  0  0  0  0  0  0  0  0  0  0  0
  -30.3324  -23.1353   19.1805 C   0  0  0  0  0  0  0  0  0  0  0  0
  -27.0434  -26.8708   20.6791 C   0  0  0  0  0  0  0  0  0  0  0  0
  -21.6223   -9.7892   23.8223 C   0  0  0  0  0  0  0  0  0  0  0  0
  -26.3921  -13.7797   20.6663 C   0  0  0  0  0  0  0  0  0  0  0  0
  -30.7161  -24.0964   18.2453 C   0  0  0  0  0  0  0  0  0  0  0  0
  -28.7636  -14.2868   19.8750 C   0  0  0  0  0  0  0  0  0  0  0  0
  -18.2499  -28.3807   22.5509 C   0  0  0  0  0  0  0  0  0  0  0  0
  -24.9946  -27.7392   19.7261 C   0  0  0  0  0  0  0  0  0  0  0  0
  -19.6461  -28.5614   22.5292 C   0  0  0  0  0  0  0  0  0  0  0  0
  -25.7278  -26.6596   20.2390 C   0  0  0  0  0  0  0  0  0  0  0  0
  -29.8583  -21.8954   18.7520 C   0  0  0  0  0  0  0  0  0  0  0  0
  -24.0620  -12.2500   20.7808 C   0  0  0  0  0  0  0  0  0  0  0  0
  -27.6259  -28.1354   20.5983 C   0  0  0  0  0  0  0  0  0  0  0  0
  -22.3522  -11.2948   22.0795 C   0  0  0  0  0  0  0  0  0  0  0  0
  -21.1994  -10.8775   24.5854 C   0  0  0  0  0  0  0  0  0  0  0  0
  -22.1988   -9.9978   22.5693 C   0  0  0  0  0  0  0  0  0  0  0  0
  -27.5951  -14.5704   20.6070 C   0  0  0  0  0  0  0  0  0  0  0  0
  -29.6053  -15.3363   20.1516 C   0  0  0  0  0  0  0  0  0  0  0  0
  -31.2212  -25.4174   18.7002 C   0  0  0  0  0  0  0  0  0  0  0  0
  -29.0616  -13.1741   19.0212 C   0  0  0  0  0  0  0  0  0  0  0  0
  -22.4760  -26.5529   21.2601 C   0  0  0  0  0  0  0  0  0  0  0  0
  -31.2180  -27.6924   20.7079 C   0  0  0  0  0  0  0  0  0  0  0  0
  -23.1854  -23.8848   19.5570 C   0  0  0  0  0  0  0  0  0  0  0  0
  -25.5271  -22.0582   17.8758 C   0  0  0  0  0  0  0  0  0  0  0  0
  -29.4948  -21.0341   21.0913 C   0  0  0  0  0  0  0  0  0  0  0  0
  -17.6288  -27.0271   22.7890 C   0  0  0  0  0  0  0  0  0  0  0  0
  -23.5911  -27.5370   19.2244 C   0  0  0  0  0  0  0  0  0  0  0  0
  -25.1387  -25.2771   20.3390 C   0  0  0  0  0  0  0  0  0  0  0  0
  -18.5934  -25.8659   22.5621 C   0  0  0  0  0  0  0  0  0  0  0  0
  -29.8992  -18.7106   23.7587 C   0  0  0  0  0  0  0  0  0  0  0  0
  -19.9302  -26.1416   23.2431 C   0  0  0  0  0  0  0  0  0  0  0  0
  -29.4609  -17.3776   23.1479 C   0  0  0  0  0  0  0  0  0  0  0  0
  -29.0543  -19.8750   23.2448 C   0  0  0  0  0  0  0  0  0  0  0  0
  -28.5322  -18.6504   21.1719 C   0  0  0  0  0  0  0  0  0  0  0  0
  -20.5985  -27.3927   22.6604 C   0  0  1  0  0  0  0  0  0  0  0  0
  -22.9062  -26.3204   19.8393 C   0  0  1  0  0  0  0  0  0  0  0  0
  -29.3962  -17.4566   21.6100 C   0  0  2  0  0  0  0  0  0  0  0  0
  -25.8181  -19.9025   16.6245 C   0  0  0  0  0  0  0  0  0  0  0  0
  -32.9036  -26.3379   21.9297 C   0  0  0  0  0  0  0  0  0  0  0  0
  -33.4301  -27.2228   19.6344 C   0  0  0  0  0  0  0  0  0  0  0  0
  -23.2169  -22.3584   22.1988 C   0  0  0  0  0  0  0  0  0  0  0  0
  -24.4162  -20.4978   21.0292 C   0  0  0  0  0  0  0  0  0  0  0  0
  -22.1184  -21.1467   20.3069 C   0  0  0  0  0  0  0  0  0  0  0  0
  -26.2688  -23.4707   15.3830 C   0  0  0  0  0  0  0  0  0  0  0  0
  -29.7933  -27.2142   20.9294 C   0  0  0  0  0  0  0  0  0  1  0  0
  -24.0615  -22.6758   19.7797 C   0  0  1  0  0  0  0  0  0  0  0  0
  -25.4931  -21.3842   16.5160 C   0  0  2  0  0  0  0  0  0  0  0  0
  -32.3384  -26.6503   20.5409 C   0  0  0  0  0  0  0  0  0  0  0  0
  -23.4640  -21.6960   20.8287 C   0  0  0  0  0  0  0  0  0  0  0  0
  -27.6829  -15.7107   21.2970 N   0  0  0  0  0  0  0  0  0  0  0  0
  -28.9167  -16.1528   20.9997 N   0  0  0  0  0  0  0  0  0  0  0  0
  -23.7609  -25.1314   19.8412 N   0  0  0  0  0  0  0  0  0  0  0  0
  -29.0426  -19.8889   21.7803 N   0  0  0  0  0  0  0  0  0  0  0  0
  -30.8599  -15.6311   19.7497 N   0  0  0  0  0  0  0  0  0  0  0  0
  -28.0840  -12.1850   18.8472 N   0  0  0  0  0  0  0  0  0  0  0  0
  -29.4681  -20.9191   19.7018 N   0  0  0  0  0  0  0  0  0  0  0  0
  -31.8194  -25.4361   19.9491 N   0  0  0  0  0  0  0  0  0  0  0  0
  -21.2093  -27.0912   21.3834 N   0  0  0  0  0  0  0  0  0  0  0  0
  -24.2807  -22.0828   18.4650 N   0  0  0  0  0  0  0  0  0  0  0  0
  -26.4835  -22.0167   15.5994 N   0  3  0  0  0  0  0  0  0  0  0  0
  -31.0691  -26.3991   17.9779 O   0  0  0  0  0  0  0  0  0  0  0  0
  -30.1681  -13.0521   18.4432 O   0  0  0  0  0  0  0  0  0  0  0  0
  -23.2363  -26.2639   22.1766 O   0  0  0  0  0  0  0  0  0  0  0  0
  -31.4818  -28.8987   20.7120 O   0  0  0  0  0  0  0  0  0  0  0  0
  -22.0352  -23.7294   19.1392 O   0  0  0  0  0  0  0  0  0  0  0  0
  -26.5571  -22.5138   18.3678 O   0  0  0  0  0  0  0  0  0  0  0  0
  -29.9032  -22.0326   21.6899 O   0  0  0  0  0  0  0  0  0  0  0  0
  -22.9250  -11.5037   20.8362 O   0  0  0  0  0  0  0  0  0  0  0  0
  -28.9033  -28.3253   21.0273 O   0  0  0  0  0  0  0  0  0  1  0  0
  -20.6472  -10.6774   25.7892 F   0  0  0  0  0  0  0  0  0  0  0  0
  -22.6042   -8.9484   21.8413 F   0  0  0  0  0  0  0  0  0  0  0  0
  1  2  1  0  0  0  0
  1  7  2  0  0  0  0
  2  8  2  0  0  0  0
  3  6  2  0  0  0  0
  3 10  1  0  0  0  0
  4 11  2  0  0  0  0
  4 19  1  0  0  0  0
  5 12  1  0  0  0  0
  5 19  2  0  0  0  0
  6 20  1  0  0  0  0
  7 22  1  0  0  0  0
  8 24  1  0  0  0  0
  9 13  2  0  0  0  0
  9 23  1  0  0  0  0
 10 26  2  0  0  0  0
 11 27  1  0  0  0  0
 12 27  2  0  0  0  0
 13 28  1  0  0  0  0
 14 15  2  0  0  0  0
 14 29  1  0  0  0  0
 15 30  1  0  0  0  0
 16 20  2  0  0  0  0
 16 26  1  0  0  0  0
 17 25  1  0  0  0  0
 17 28  2  0  0  0  0
 18 30  2  0  0  0  0
 18 31  1  0  0  0  0
 19 32  1  0  0  0  0
 20 34  1  0  0  0  0
 21 32  1  0  0  0  0
 21 33  2  0  0  0  0
 21 35  1  0  0  0  0
 22 24  2  0  0  0  0
 22 41  1  0  0  0  0
 23 25  2  0  0  0  0
 23 42  1  0  0  0  0
 24 50  1  0  0  0  0
 25 43  1  0  0  0  0
 26 71  1  0  0  0  0
 27 83  1  0  0  0  0
 28 84  1  0  0  0  0
 29 31  2  0  0  0  0
 29 83  1  0  0  0  0
 30 85  1  0  0  0  0
 31 86  1  0  0  0  0
 32 65  2  0  0  0  0
 33 66  1  0  0  0  0
 33 69  1  0  0  0  0
 34 72  1  0  0  0  0
 34 76  2  0  0  0  0
 35 70  1  0  0  0  0
 35 77  2  0  0  0  0
 36 51  1  0  0  0  0
 36 73  1  0  0  0  0
 36 78  2  0  0  0  0
 37 60  1  0  0  0  0
 37 63  1  0  0  0  0
 37 79  2  0  0  0  0
 38 61  1  0  0  0  0
 38 67  1  0  0  0  0
 38 80  2  0  0  0  0
 39 62  1  0  0  0  0
 39 74  1  0  0  0  0
 39 81  2  0  0  0  0
 40 68  1  0  0  0  0
 40 71  1  0  0  0  0
 40 82  2  0  0  0  0
 41 44  1  0  0  0  0
 42 51  1  0  0  0  0
 43 67  1  0  0  0  0
 44 46  1  0  0  0  0
 45 47  1  0  0  0  0
 45 48  1  0  0  0  0
 46 50  1  0  0  0  0
 47 52  1  0  0  0  0
 48 68  1  0  0  0  0
 49 52  1  0  0  0  0
 49 68  1  0  0  0  0
 50 73  1  0  0  0  0
 51 67  1  0  0  0  0
 52 66  1  0  0  0  0
 53 62  1  0  0  0  0
 54 63  1  0  0  0  0
 55 63  1  0  0  0  0
 56 64  1  0  0  0  0
 57 64  1  0  0  0  0
 58 64  1  0  0  0  0
 59 75  1  0  0  0  0
 60 84  1  0  0  0  0
 61 64  1  0  0  0  0
 61 74  1  0  0  0  0
 62 75  1  0  0  0  0
 63 72  1  0  0  0  0
 65 66  1  0  0  0  0
M  CHG  1  75   1
M  ISO  4  40 100  60 101  71 100  84 101
M  END
> <Batch ID>
0096

> <Smiles>
CNC(C)C(=O)NC(C(=O)N1Cc2cc([101O:1][101CH2:1]C(=O)C(C)(C)NC(=O)c3cccc([100NH:0][100C:0](=O)N4CCCC(n5nc(-c6ccc(Oc7ccc(F)cc7F)cc6)c(C(N)=O)c5N)C4)c3)ccc2CC1C(=O)NC1CCCc2ccccc21)C(C)(C)C

> <Shape>
0.277

> <Color>
0.052

> <Negative vol penalty>
0.000

$$$$

  -OEChem-04052300463D

 84 92  0     1  0  0  0  0  0999 V2000
  -30.2723  -24.7535   16.7155 C   0  0  0  0  0  0  0  0  0  0  0  0
  -29.5906  -24.2633   17.8246 C   0  0  0  0  0  0  0  0  0  0  0  0
  -28.9989  -16.7272   19.3305 C   0  0  0  0  0  0  0  0  0  0  0  0
  -28.0179  -17.2547   21.4744 C   0  0  0  0  0  0  0  0  0  0  0  0
  -30.3527  -26.1286   16.4997 C   0  0  0  0  0  0  0  0  0  0  0  0
  -28.9897  -25.1480   18.7194 C   0  0  0  0  0  0  0  0  0  0  0  0
  -24.3186  -23.7035   20.0384 C   0  0  0  0  0  0  0  0  0  0  0  0
  -21.5564  -14.5528   25.8145 C   0  0  0  0  0  0  0  0  0  0  0  0
  -29.3354  -18.0693   19.1542 C   0  0  0  0  0  0  0  0  0  0  0  0
  -28.3545  -18.5969   21.2981 C   0  0  0  0  0  0  0  0  0  0  0  0
  -24.2104  -22.6849   20.9841 C   0  0  0  0  0  0  0  0  0  0  0  0
  -21.5374  -15.9475   25.8094 C   0  0  0  0  0  0  0  0  0  0  0  0
  -31.1121  -20.5296   21.5821 C   0  0  0  0  0  0  0  0  0  0  0  0
  -31.6844  -21.2000   22.6631 C   0  0  0  0  0  0  0  0  0  0  0  0
  -21.5347  -15.9386   23.3934 C   0  0  0  0  0  0  0  0  0  0  0  0
  -23.7863  -24.3290   22.6976 C   0  0  0  0  0  0  0  0  0  0  0  0
  -29.8506  -22.7730   22.6584 C   0  0  0  0  0  0  0  0  0  0  0  0
  -28.3401  -16.3199   20.4906 C   0  0  0  0  0  0  0  0  0  0  0  0
  -21.5538  -14.5438   23.3985 C   0  0  0  0  0  0  0  0  0  0  0  0
  -28.7752  -13.9328   21.2780 C   0  0  0  0  0  0  0  0  0  0  0  0
  -29.7442  -27.0303   17.3871 C   0  0  0  0  0  0  0  0  0  0  0  0
  -24.1721  -25.0455   20.4178 C   0  0  0  0  0  0  0  0  0  0  0  0
  -29.0631  -26.5365   18.5161 C   0  0  0  0  0  0  0  0  0  0  0  0
  -23.8906  -25.3627   21.7543 C   0  0  0  0  0  0  0  0  0  0  0  0
  -21.5647  -13.8509   24.6090 C   0  0  0  0  0  0  0  0  0  0  0  0
  -29.0132  -19.0041   20.1380 C   0  0  0  0  0  0  0  0  0  0  0  0
  -21.5265  -16.6404   24.5988 C   0  0  0  0  0  0  0  0  0  0  0  0
  -23.9471  -22.9977   22.3145 C   0  0  0  0  0  0  0  0  0  0  0  0
  -29.9090  -20.9809   21.0391 C   0  0  0  0  0  0  0  0  0  0  0  0
  -31.0536  -22.3217   23.2012 C   0  0  0  0  0  0  0  0  0  0  0  0
  -29.2783  -22.1026   21.5773 C   0  0  0  0  0  0  0  0  0  0  0  0
  -27.9917  -14.9337   20.6730 C   0  0  0  0  0  0  0  0  0  0  0  0
  -28.0020  -12.8000   21.2040 C   0  0  0  0  0  0  0  0  0  0  0  0
  -21.5638  -13.8254   22.0962 C   0  0  0  0  0  0  0  0  0  0  0  0
  -30.0847  -14.0193   21.8554 C   0  0  0  0  0  0  0  0  0  0  0  0
  -26.0524  -27.6080   20.3709 C   0  0  0  0  0  0  0  0  0  0  0  0
  -23.3517  -29.1257   21.3328 C   0  0  0  0  0  0  0  0  0  0  0  0
  -20.3022  -28.9286   22.8522 C   0  0  0  0  0  0  0  0  0  0  0  0
  -22.1176  -11.9673   20.8482 C   0  0  0  0  0  0  0  0  0  0  0  0
  -29.8983  -28.5098   17.1378 C   0  0  0  0  0  0  0  0  0  0  0  0
  -24.2652  -26.1310   19.3807 C   0  0  0  0  0  0  0  0  0  0  0  0
  -23.7047  -26.7864   22.2093 C   0  0  0  0  0  0  0  0  0  0  0  0
  -28.9148  -29.3667   17.9307 C   0  0  0  0  0  0  0  0  0  0  0  0
  -24.5781  -10.7522   18.5613 C   0  0  0  0  0  0  0  0  0  0  0  0
  -28.8646  -28.9133   19.3863 C   0  0  0  0  0  0  0  0  0  0  0  0
  -25.8041  -11.6084   18.8855 C   0  0  0  0  0  0  0  0  0  0  0  0
  -23.2842  -11.5527   18.6853 C   0  0  0  0  0  0  0  0  0  0  0  0
  -24.3334  -13.0832   20.3236 C   0  0  0  0  0  0  0  0  0  0  0  0
  -28.3771  -27.4635   19.4960 C   0  0  1  0  0  0  0  0  0  0  0  0
  -24.6081  -27.4947   19.9723 C   0  0  1  0  0  0  0  0  0  0  0  0
  -25.6545  -12.2995   20.2537 C   0  0  2  0  0  0  0  0  0  0  0  0
  -20.8856  -14.4868   20.9122 C   0  0  0  0  0  0  0  0  0  0  0  0
  -18.3412  -30.3428   23.5244 C   0  0  0  0  0  0  0  0  0  0  0  0
  -24.9623  -30.2437   23.6707 C   0  0  0  0  0  0  0  0  0  0  0  0
  -22.8005  -30.8330   24.7876 C   0  0  0  0  0  0  0  0  0  0  0  0
  -23.3997  -31.8790   22.6037 C   0  0  0  0  0  0  0  0  0  0  0  0
  -18.4508  -27.3806   21.1390 C   0  0  0  0  0  0  0  0  0  0  0  0
  -22.6618  -20.0152   23.9244 C   0  0  0  0  0  0  0  0  0  0  0  0
  -22.1312  -18.6570   23.4929 C   0  0  0  0  0  0  0  0  0  0  0  0
  -23.3587  -20.7420   22.7849 C   0  0  0  0  0  0  0  0  0  1  0  0
  -22.7218  -29.4441   22.6672 C   0  0  1  0  0  0  0  0  0  0  0  0
  -18.9377  -29.4539   22.4442 C   0  0  2  0  0  0  0  0  0  0  0  0
  -23.4764  -30.5731   23.4244 C   0  0  0  0  0  0  0  0  0  0  0  0
  -26.8114  -14.4769   20.2459 N   0  0  0  0  0  0  0  0  0  0  0  0
  -22.1308  -12.6556   22.0413 N   0  0  0  0  0  0  0  0  0  0  0  0
  -26.8476  -13.1765   20.5830 N   0  0  0  0  0  0  0  0  0  0  0  0
  -23.8114  -27.8125   21.1591 N   0  0  0  0  0  0  0  0  0  0  0  0
  -23.2044  -12.2061   19.9911 N   0  0  0  0  0  0  0  0  0  0  0  0
  -21.5864  -12.4387   24.6358 N   0  0  0  0  0  0  0  0  0  0  0  0
  -28.2040  -11.5284   21.6100 N   0  0  0  0  0  0  0  0  0  0  0  0
  -30.7375  -15.2595   21.8481 N   0  0  0  0  0  0  0  0  0  0  0  0
  -26.9405  -27.3997   19.3330 N   0  0  0  0  0  0  0  0  0  0  0  0
  -21.3193  -29.7404   22.3963 N   0  0  0  0  0  0  0  0  0  0  0  0
  -18.0001  -28.3224   22.1959 N   0  3  0  0  0  0  0  0  0  0  0  0
  -30.6656  -13.0226   22.3481 O   0  0  0  0  0  0  0  0  0  0  0  0
  -26.3397  -27.8667   21.5338 O   0  0  0  0  0  0  0  0  0  0  0  0
  -23.4264  -30.0075   20.4735 O   0  0  0  0  0  0  0  0  0  0  0  0
  -20.4509  -27.9029   23.5128 O   0  0  0  0  0  0  0  0  0  0  0  0
  -21.1939  -11.2093   20.5488 O   0  0  0  0  0  0  0  0  0  0  0  0
  -29.3417  -20.3138   19.9664 O   0  0  0  0  0  0  0  0  0  0  0  0
  -21.5071  -18.0109   24.5941 O   0  0  0  0  0  0  0  0  0  0  0  0
  -23.8416  -22.0054   23.2397 O   0  0  0  0  0  0  0  0  0  1  0  0
  -31.6025  -22.9645   24.2403 F   0  0  0  0  0  0  0  0  0  0  0  0
  -28.1218  -22.5402   21.0608 F   0  0  0  0  0  0  0  0  0  0  0  0
  1  2  1  0  0  0  0
  1  5  2  0  0  0  0
  2  6  2  0  0  0  0
  3  9  2  0  0  0  0
  3 18  1  0  0  0  0
  4 10  1  0  0  0  0
  4 18  2  0  0  0  0
  5 21  1  0  0  0  0
  6 23  1  0  0  0  0
  7 11  2  0  0  0  0
  7 22  1  0  0  0  0
  8 12  2  0  0  0  0
  8 25  1  0  0  0  0
  9 26  1  0  0  0  0
 10 26  2  0  0  0  0
 11 28  1  0  0  0  0
 12 27  1  0  0  0  0
 13 14  2  0  0  0  0
 13 29  1  0  0  0  0
 14 30  1  0  0  0  0
 15 19  1  0  0  0  0
 15 27  2  0  0  0  0
 16 24  1  0  0  0  0
 16 28  2  0  0  0  0
 17 30  2  0  0  0  0
 17 31  1  0  0  0  0
 18 32  1  0  0  0  0
 19 25  2  0  0  0  0
 19 34  1  0  0  0  0
 20 32  1  0  0  0  0
 20 33  2  0  0  0  0
 20 35  1  0  0  0  0
 21 23  2  0  0  0  0
 21 40  1  0  0  0  0
 22 24  2  0  0  0  0
 22 41  1  0  0  0  0
 23 49  1  0  0  0  0
 24 42  1  0  0  0  0
 25 69  1  0  0  0  0
 26 80  1  0  0  0  0
 27 81  1  0  0  0  0
 28 82  1  0  0  0  0
 29 31  2  0  0  0  0
 29 80  1  0  0  0  0
 30 83  1  0  0  0  0
 31 84  1  0  0  0  0
 32 64  2  0  0  0  0
 33 66  1  0  0  0  0
 33 70  1  0  0  0  0
 34 52  1  0  0  0  0
 34 65  2  0  0  0  0
 35 71  1  0  0  0  0
 35 75  2  0  0  0  0
 36 50  1  0  0  0  0
 36 72  1  0  0  0  0
 36 76  2  0  0  0  0
 37 61  1  0  0  0  0
 37 67  1  0  0  0  0
 37 77  2  0  0  0  0
 38 62  1  0  0  0  0
 38 73  1  0  0  0  0
 38 78  2  0  0  0  0
 39 65  1  0  0  0  0
 39 68  1  0  0  0  0
 39 79  2  0  0  0  0
 40 43  1  0  0  0  0
 41 50  1  0  0  0  0
 42 67  1  0  0  0  0
 43 45  1  0  0  0  0
 44 46  1  0  0  0  0
 44 47  1  0  0  0  0
 45 49  1  0  0  0  0
 46 51  1  0  0  0  0
 47 68  1  0  0  0  0
 48 51  1  0  0  0  0
 48 68  1  0  0  0  0
 49 72  1  0  0  0  0
 50 67  1  0  0  0  0
 51 66  1  0  0  0  0
 53 62  1  0  0  0  0
 54 63  1  0  0  0  0
 55 63  1  0  0  0  0
 56 63  1  0  0  0  0
 57 74  1  0  0  0  0
 58 59  1  0  0  0  0
 58 60  1  0  0  0  0
 59 81  1  0  0  0  0
 60 82  1  0  0  0  0
 61 63  1  0  0  0  0
 61 73  1  0  0  0  0
 62 74  1  0  0  0  0
 64 66  1  0  0  0  0
M  CHG  1  74   1
M  ISO  4  39 100  60 101  65 100  82 101
M  END
> <Batch ID>
0096

> <Smiles>
CNC(C)C(=O)NC(C(=O)N1Cc2cc([101O:1][101CH2:1]CCOc3ccc(N)c(C(C)=[100N:0][100C:0](=O)N4CCCC(n5nc(-c6ccc(Oc7ccc(F)cc7F)cc6)c(C(N)=O)c5N)C4)c3)ccc2CC1C(=O)NC1CCCc2ccccc21)C(C)(C)C

> <Shape>
0.255

> <Color>
0.054

> <Negative vol penalty>
0.000

$$$$

  -OEChem-04052300463D

 85 93  0     1  0  0  0  0  0999 V2000
  -29.7448  -32.5490   24.6580 C   0  0  0  0  0  0  0  0  0  0  0  0
  -29.5315  -31.3454   23.9936 C   0  0  0  0  0  0  0  0  0  0  0  0
  -23.5189  -12.4710   15.7367 C   0  0  0  0  0  0  0  0  0  0  0  0
  -22.7713  -11.0074   17.5076 C   0  0  0  0  0  0  0  0  0  0  0  0
  -28.7206  -33.1177   25.4139 C   0  0  0  0  0  0  0  0  0  0  0  0
  -28.2940  -30.7093   24.0857 C   0  0  0  0  0  0  0  0  0  0  0  0
  -26.6370  -29.0259   19.6062 C   0  0  0  0  0  0  0  0  0  0  0  0
  -22.7174  -11.7806   14.8277 C   0  0  0  0  0  0  0  0  0  0  0  0
  -21.9697  -10.3170   16.5985 C   0  0  0  0  0  0  0  0  0  0  0  0
  -27.1995  -27.8458   19.1219 C   0  0  0  0  0  0  0  0  0  0  0  0
  -20.0021   -7.9423   14.6751 C   0  0  0  0  0  0  0  0  0  0  0  0
  -20.0195   -6.5485   14.7237 C   0  0  0  0  0  0  0  0  0  0  0  0
  -25.2659  -26.6196   19.8814 C   0  0  0  0  0  0  0  0  0  0  0  0
  -29.5441  -20.8452   19.5365 C   0  0  0  0  0  0  0  0  0  0  0  0
  -27.7791  -19.8050   20.8171 C   0  0  0  0  0  0  0  0  0  0  0  0
  -22.3905   -6.5617   14.2601 C   0  0  0  0  0  0  0  0  0  0  0  0
  -23.5459  -12.0844   17.0767 C   0  0  0  0  0  0  0  0  0  0  0  0
  -29.8090  -18.5834   20.3434 C   0  0  0  0  0  0  0  0  0  0  0  0
  -24.0130  -13.9165   18.7893 C   0  0  0  0  0  0  0  0  0  0  0  0
  -27.4669  -32.4931   25.5074 C   0  0  0  0  0  0  0  0  0  0  0  0
  -25.3875  -29.0101   20.2427 C   0  0  0  0  0  0  0  0  0  0  0  0
  -27.2525  -31.2696   24.8446 C   0  0  0  0  0  0  0  0  0  0  0  0
  -24.6886  -27.8013   20.3707 C   0  0  0  0  0  0  0  0  0  0  0  0
  -30.3090  -19.6841   19.6476 C   0  0  0  0  0  0  0  0  0  0  0  0
  -28.2791  -20.9056   20.1213 C   0  0  0  0  0  0  0  0  0  0  0  0
  -21.9428  -10.7036   15.2585 C   0  0  0  0  0  0  0  0  0  0  0  0
  -26.5153  -26.6419   19.2620 C   0  0  0  0  0  0  0  0  0  0  0  0
  -21.1790   -8.6460   14.4189 C   0  0  0  0  0  0  0  0  0  0  0  0
  -21.2136   -5.8581   14.5162 C   0  0  0  0  0  0  0  0  0  0  0  0
  -28.5441  -18.6438   20.9281 C   0  0  0  0  0  0  0  0  0  0  0  0
  -22.3732   -7.9557   14.2114 C   0  0  0  0  0  0  0  0  0  0  0  0
  -24.3742  -12.7969   18.0162 C   0  0  0  0  0  0  0  0  0  0  0  0
  -25.1423  -14.2132   19.5125 C   0  0  0  0  0  0  0  0  0  0  0  0
  -30.6059  -17.3367   20.4754 C   0  0  0  0  0  0  0  0  0  0  0  0
  -22.7679  -14.6250   18.8486 C   0  0  0  0  0  0  0  0  0  0  0  0
  -24.3444  -29.7391   23.1554 C   0  0  0  0  0  0  0  0  0  0  0  0
  -21.4362  -29.1895   21.8277 C   0  0  0  0  0  0  0  0  0  0  0  0
  -27.8431  -23.2635   19.3568 C   0  0  0  0  0  0  0  0  0  0  0  0
  -19.6076  -27.6503   19.3917 C   0  0  0  0  0  0  0  0  0  0  0  0
  -30.6218  -14.9250   19.9211 C   0  0  0  0  0  0  0  0  0  0  0  0
  -26.4054  -33.1221   26.3749 C   0  0  0  0  0  0  0  0  0  0  0  0
  -24.7824  -30.2958   20.7358 C   0  0  0  0  0  0  0  0  0  0  0  0
  -23.3352  -27.7336   21.0280 C   0  0  0  0  0  0  0  0  0  0  0  0
  -25.0042  -32.5744   26.1164 C   0  0  0  0  0  0  0  0  0  0  0  0
  -29.4366  -11.6016   20.1395 C   0  0  0  0  0  0  0  0  0  0  0  0
  -25.0300  -31.0506   26.0523 C   0  0  0  0  0  0  0  0  0  0  0  0
  -27.9805  -11.7064   19.6780 C   0  0  0  0  0  0  0  0  0  0  0  0
  -30.3526  -12.5294   19.3427 C   0  0  0  0  0  0  0  0  0  0  0  0
  -28.4741  -14.0345   18.8292 C   0  0  0  0  0  0  0  0  0  0  0  0
  -25.9160  -30.5618   24.9001 C   0  0  1  0  0  0  0  0  0  0  0  0
  -23.7360  -30.0842   21.8256 C   0  0  1  0  0  0  0  0  0  0  0  0
  -27.5006  -13.1715   19.6481 C   0  0  1  0  0  0  0  0  0  0  0  0
  -31.6603  -19.6465   19.0113 C   0  0  0  0  0  0  0  0  0  0  0  0
  -17.2486  -27.3583   18.5873 C   0  0  0  0  0  0  0  0  0  0  0  0
  -20.9020  -27.2370   24.1108 C   0  0  0  0  0  0  0  0  0  0  0  0
  -19.0062  -26.2983   22.7717 C   0  0  0  0  0  0  0  0  0  0  0  0
  -18.9562  -28.6840   23.4988 C   0  0  0  0  0  0  0  0  0  0  0  0
  -20.2243  -28.8857   16.7740 C   0  0  0  0  0  0  0  0  0  0  0  0
  -26.7251  -24.2826   19.4751 C   0  0  0  0  0  0  0  0  0  1  0  0
  -20.5470  -27.9806   21.6639 C   0  0  1  0  0  0  0  0  0  0  0  0
  -18.5271  -28.1722   18.4619 C   0  0  2  0  0  0  0  0  0  0  0  0
  -19.8792  -27.5506   23.0006 C   0  0  0  0  0  0  0  0  0  0  0  0
  -25.6345  -12.4087   18.2282 N   0  0  0  0  0  0  0  0  0  0  0  0
  -26.0751  -13.2894   19.1427 N   0  0  0  0  0  0  0  0  0  0  0  0
  -22.7883  -29.0166   21.4996 N   0  0  0  0  0  0  0  0  0  0  0  0
  -29.8343  -13.8982   19.3716 N   0  0  0  0  0  0  0  0  0  0  0  0
  -25.4186  -15.1715   20.4222 N   0  0  0  0  0  0  0  0  0  0  0  0
  -21.7108  -14.1870   18.0392 N   0  0  0  0  0  0  0  0  0  0  0  0
  -27.5027  -22.0834   20.0092 N   0  0  0  0  0  0  0  0  0  0  0  0
  -30.0206  -16.1884   19.9411 N   0  0  0  0  0  0  0  0  0  0  0  0
  -25.2209  -30.6924   23.6375 N   0  0  0  0  0  0  0  0  0  0  0  0
  -19.6017  -28.3099   20.6026 N   0  0  0  0  0  0  0  0  0  0  0  0
  -18.9874  -28.1092   17.0459 N   0  3  0  0  0  0  0  0  0  0  0  0
  -31.7174  -17.3895   20.9946 O   0  0  0  0  0  0  0  0  0  0  0  0
  -22.6029  -15.6270   19.5849 O   0  0  0  0  0  0  0  0  0  0  0  0
  -24.0400  -28.6866   23.7042 O   0  0  0  0  0  0  0  0  0  0  0  0
  -20.9477  -30.2502   22.2251 O   0  0  0  0  0  0  0  0  0  0  0  0
  -28.8804  -23.5149   18.7524 O   0  0  0  0  0  0  0  0  0  0  0  0
  -20.3773  -26.7454   19.0769 O   0  0  0  0  0  0  0  0  0  0  0  0
  -31.7477  -14.7272   20.3886 O   0  0  0  0  0  0  0  0  0  0  0  0
  -21.1603  -10.0298   14.3718 O   0  0  0  0  0  0  0  0  0  0  0  0
  -27.0623  -25.4885   18.7906 O   0  0  0  0  0  0  0  0  0  1  0  0
  -21.2304   -4.5197   14.5644 F   0  0  0  0  0  0  0  0  0  0  0  0
  -28.0525  -17.5927   21.5998 F   0  0  0  0  0  0  0  0  0  0  0  0
  -23.5072   -8.6262   13.9661 F   0  0  0  0  0  0  0  0  0  0  0  0
  1  2  1  0  0  0  0
  1  5  2  0  0  0  0
  2  6  2  0  0  0  0
  3  8  2  0  0  0  0
  3 17  1  0  0  0  0
  4  9  1  0  0  0  0
  4 17  2  0  0  0  0
  5 20  1  0  0  0  0
  6 22  1  0  0  0  0
  7 10  2  0  0  0  0
  7 21  1  0  0  0  0
  8 26  1  0  0  0  0
  9 26  2  0  0  0  0
 10 27  1  0  0  0  0
 11 12  2  0  0  0  0
 11 28  1  0  0  0  0
 12 29  1  0  0  0  0
 13 23  1  0  0  0  0
 13 27  2  0  0  0  0
 14 24  2  0  0  0  0
 14 25  1  0  0  0  0
 15 25  2  0  0  0  0
 15 30  1  0  0  0  0
 16 29  2  0  0  0  0
 16 31  1  0  0  0  0
 17 32  1  0  0  0  0
 18 24  1  0  0  0  0
 18 30  2  0  0  0  0
 18 34  1  0  0  0  0
 19 32  1  0  0  0  0
 19 33  2  0  0  0  0
 19 35  1  0  0  0  0
 20 22  2  0  0  0  0
 20 41  1  0  0  0  0
 21 23  2  0  0  0  0
 21 42  1  0  0  0  0
 22 50  1  0  0  0  0
 23 43  1  0  0  0  0
 24 53  1  0  0  0  0
 25 69  1  0  0  0  0
 26 81  1  0  0  0  0
 27 82  1  0  0  0  0
 28 31  2  0  0  0  0
 28 81  1  0  0  0  0
 29 83  1  0  0  0  0
 30 84  1  0  0  0  0
 31 85  1  0  0  0  0
 32 63  2  0  0  0  0
 33 64  1  0  0  0  0
 33 67  1  0  0  0  0
 34 70  1  0  0  0  0
 34 74  2  0  0  0  0
 35 68  1  0  0  0  0
 35 75  2  0  0  0  0
 36 51  1  0  0  0  0
 36 71  1  0  0  0  0
 36 76  2  0  0  0  0
 37 60  1  0  0  0  0
 37 65  1  0  0  0  0
 37 77  2  0  0  0  0
 38 59  1  0  0  0  0
 38 69  1  0  0  0  0
 38 78  2  0  0  0  0
 39 61  1  0  0  0  0
 39 72  1  0  0  0  0
 39 79  2  0  0  0  0
 40 66  1  0  0  0  0
 40 70  1  0  0  0  0
 40 80  2  0  0  0  0
 41 44  1  0  0  0  0
 42 51  1  0  0  0  0
 43 65  1  0  0  0  0
 44 46  1  0  0  0  0
 45 47  1  0  0  0  0
 45 48  1  0  0  0  0
 46 50  1  0  0  0  0
 47 52  1  0  0  0  0
 48 66  1  0  0  0  0
 49 52  1  0  0  0  0
 49 66  1  0  0  0  0
 50 71  1  0  0  0  0
 51 65  1  0  0  0  0
 52 64  1  0  0  0  0
 54 61  1  0  0  0  0
 55 62  1  0  0  0  0
 56 62  1  0  0  0  0
 57 62  1  0  0  0  0
 58 73  1  0  0  0  0
 59 82  1  0  0  0  0
 60 62  1  0  0  0  0
 60 72  1  0  0  0  0
 61 73  1  0  0  0  0
 63 64  1  0  0  0  0
M  CHG  1  73   1
M  ISO  4  40 100  59 101  70 100  82 101
M  END
> <Batch ID>
0096

> <Smiles>
CNC(C)C(=O)NC(C(=O)N1Cc2cc([101O:1][101CH2:1]C(=O)Nc3cc(C)c(C(=O)[100NH:0][100C:0](=O)N4CCCC(n5nc(-c6ccc(Oc7ccc(F)cc7F)cc6)c(C(N)=O)c5N)C4)c(F)c3)ccc2CC1C(=O)NC1CCCc2ccccc21)C(C)(C)C

> <Shape>
0.281

> <Color>
0.124

> <Negative vol penalty>
0.000

$$$$

  -OEChem-04052300463D

 85 93  0     1  0  0  0  0  0999 V2000
  -34.5902  -12.9177   20.1054 C   0  0  0  0  0  0  0  0  0  0  0  0
  -33.8751  -14.1001   19.9441 C   0  0  0  0  0  0  0  0  0  0  0  0
  -24.8161  -31.1401   21.6200 C   0  0  0  0  0  0  0  0  0  0  0  0
  -24.4536  -30.1914   23.8122 C   0  0  0  0  0  0  0  0  0  0  0  0
  -34.0178  -11.7020   19.7335 C   0  0  0  0  0  0  0  0  0  0  0  0
  -32.5875  -14.0675   19.4097 C   0  0  0  0  0  0  0  0  0  0  0  0
  -27.8904  -17.7041   20.8989 C   0  0  0  0  0  0  0  0  0  0  0  0
  -23.4604  -30.9874   21.3297 C   0  0  0  0  0  0  0  0  0  0  0  0
  -23.0978  -30.0387   23.5219 C   0  0  0  0  0  0  0  0  0  0  0  0
  -27.3650  -18.8494   20.3023 C   0  0  0  0  0  0  0  0  0  0  0  0
  -21.1494  -27.8947   21.7789 C   0  0  0  0  0  0  0  0  0  0  0  0
  -20.5470  -26.6827   22.1159 C   0  0  0  0  0  0  0  0  0  0  0  0
  -26.7785  -23.9676   19.8409 C   0  0  0  0  0  0  0  0  0  0  0  0
  -25.7217  -17.4968   19.1669 C   0  0  0  0  0  0  0  0  0  0  0  0
  -25.7706  -26.1349   20.1932 C   0  0  0  0  0  0  0  0  0  0  0  0
  -19.0049  -27.8514   23.5628 C   0  0  0  0  0  0  0  0  0  0  0  0
  -25.3127  -30.7421   22.8612 C   0  0  0  0  0  0  0  0  0  0  0  0
  -25.7032  -23.5989   19.0327 C   0  0  0  0  0  0  0  0  0  0  0  0
  -27.3367  -32.0164   23.7485 C   0  0  0  0  0  0  0  0  0  0  0  0
  -32.7189  -11.6534   19.2033 C   0  0  0  0  0  0  0  0  0  0  0  0
  -27.3414  -16.4432   20.6251 C   0  0  0  0  0  0  0  0  0  0  0  0
  -31.9978  -12.8501   19.0291 C   0  0  0  0  0  0  0  0  0  0  0  0
  -26.2403  -16.3373   19.7634 C   0  0  0  0  0  0  0  0  0  0  0  0
  -26.8122  -25.2356   20.4213 C   0  0  0  0  0  0  0  0  0  0  0  0
  -24.6616  -24.4982   18.8046 C   0  0  0  0  0  0  0  0  0  0  0  0
  -22.6012  -30.4367   22.2806 C   0  0  0  0  0  0  0  0  0  0  0  0
  -26.2823  -18.7456   19.4339 C   0  0  0  0  0  0  0  0  0  0  0  0
  -20.6796  -29.0852   22.3339 C   0  0  0  0  0  0  0  0  0  0  0  0
  -24.6953  -25.7662   19.3849 C   0  0  0  0  0  0  0  0  0  0  0  0
  -19.4747  -26.6610   23.0079 C   0  0  0  0  0  0  0  0  0  0  0  0
  -19.6074  -29.0635   23.2258 C   0  0  0  0  0  0  0  0  0  0  0  0
  -26.7132  -30.8991   23.1615 C   0  0  0  0  0  0  0  0  0  0  0  0
  -28.6642  -31.6710   23.8194 C   0  0  0  0  0  0  0  0  0  0  0  0
  -25.6993  -22.2356   18.4282 C   0  0  0  0  0  0  0  0  0  0  0  0
  -26.7669  -33.2558   24.1901 C   0  0  0  0  0  0  0  0  0  0  0  0
  -28.4279  -13.7611   19.3100 C   0  0  0  0  0  0  0  0  0  0  0  0
  -25.5353  -12.6055   20.2154 C   0  0  0  0  0  0  0  0  0  0  0  0
  -28.6427  -24.6823   22.0155 C   0  0  0  0  0  0  0  0  0  0  0  0
  -22.2803  -13.2472   21.0155 C   0  0  0  0  0  0  0  0  0  0  0  0
  -28.4596  -26.9118   21.0734 C   0  0  0  0  0  0  0  0  0  0  0  0
  -32.1603  -10.3206   18.7718 C   0  0  0  0  0  0  0  0  0  0  0  0
  -27.9026  -15.2204   21.2976 C   0  0  0  0  0  0  0  0  0  0  0  0
  -25.6016  -15.0093   19.4522 C   0  0  0  0  0  0  0  0  0  0  0  0
  -30.6484  -10.3331   18.5617 C   0  0  0  0  0  0  0  0  0  0  0  0
  -29.5380  -27.5090   24.5547 C   0  0  0  0  0  0  0  0  0  0  0  0
  -30.2328  -11.5528   17.7454 C   0  0  0  0  0  0  0  0  0  0  0  0
  -30.3446  -28.7944   24.4153 C   0  0  0  0  0  0  0  0  0  0  0  0
  -29.6507  -26.6314   23.3124 C   0  0  0  0  0  0  0  0  0  0  0  0
  -30.0235  -28.6494   21.8986 C   0  0  0  0  0  0  0  0  0  0  0  0
  -30.5891  -12.8531   18.4761 C   0  0  1  0  0  0  0  0  0  0  0  0
  -27.5912  -13.9295   20.5466 C   0  0  1  0  0  0  0  0  0  0  0  0
  -30.0066  -29.5696   23.1326 C   0  0  1  0  0  0  0  0  0  0  0  0
  -27.8324  -23.6797   22.8083 C   0  0  0  0  0  0  0  0  0  0  0  0
  -20.1502  -12.0963   21.6751 C   0  0  0  0  0  0  0  0  0  0  0  0
  -25.1329  -11.7012   17.3292 C   0  0  0  0  0  0  0  0  0  0  0  0
  -22.6924  -11.4420   17.8241 C   0  0  0  0  0  0  0  0  0  0  0  0
  -24.3661  -10.0598   19.0532 C   0  0  0  0  0  0  0  0  0  0  0  0
  -22.1703  -14.6813   23.6020 C   0  0  0  0  0  0  0  0  0  0  0  0
  -26.3866  -21.1070   19.1712 C   0  0  0  0  0  0  0  0  0  1  0  0
  -24.1691  -12.5250   19.5783 C   0  0  1  0  0  0  0  0  0  0  0  0
  -21.4158  -12.7778   22.1716 C   0  0  2  0  0  0  0  0  0  0  0  0
  -24.1031  -11.4570   18.4503 C   0  0  0  0  0  0  0  0  0  0  0  0
  -27.5738  -29.9173   22.8795 N   0  0  0  0  0  0  0  0  0  0  0  0
  -28.7517  -30.4167   23.2909 N   0  0  0  0  0  0  0  0  0  0  0  0
  -26.1903  -13.8422   20.1295 N   0  0  0  0  0  0  0  0  0  0  0  0
  -29.3327  -27.3697   22.0834 N   0  0  0  0  0  0  0  0  0  0  0  0
  -23.5683  -24.1307   17.9864 N   0  0  0  0  0  0  0  0  0  0  0  0
  -29.7534  -32.3209   24.2816 N   0  0  0  0  0  0  0  0  0  0  0  0
  -25.3862  -33.4462   24.0434 N   0  0  0  0  0  0  0  0  0  0  0  0
  -29.6323  -13.1199   19.5286 N   0  0  0  0  0  0  0  0  0  0  0  0
  -23.2234  -12.3036   20.6669 N   0  0  0  0  0  0  0  0  0  0  0  0
  -27.9245  -25.6173   21.2574 N   0  0  0  0  0  0  0  0  0  0  0  0
  -21.0229  -13.9331   23.0270 N   0  3  0  0  0  0  0  0  0  0  0  0
  -25.1428  -22.0526   17.3479 O   0  0  0  0  0  0  0  0  0  0  0  0
  -27.4641  -34.1738   24.6847 O   0  0  0  0  0  0  0  0  0  0  0  0
  -28.0109  -14.1804   18.2367 O   0  0  0  0  0  0  0  0  0  0  0  0
  -26.0011  -11.6098   20.7752 O   0  0  0  0  0  0  0  0  0  0  0  0
  -29.8743  -24.6703   22.0953 O   0  0  0  0  0  0  0  0  0  0  0  0
  -22.1313  -14.3400   20.4732 O   0  0  0  0  0  0  0  0  0  0  0  0
  -28.2207  -27.5689   20.0527 O   0  0  0  0  0  0  0  0  0  0  0  0
  -23.6875  -26.6602   19.1757 O   0  0  0  0  0  0  0  0  0  0  0  0
  -21.2782  -30.2878   21.9977 O   0  0  0  0  0  0  0  0  0  0  0  0
  -25.7680  -19.8619   18.8497 O   0  0  0  0  0  0  0  0  0  1  0  0
  -18.8954  -25.4971   23.3302 F   0  0  0  0  0  0  0  0  0  0  0  0
  -19.1509  -30.2039   23.7613 F   0  0  0  0  0  0  0  0  0  0  0  0
  1  2  1  0  0  0  0
  1  5  2  0  0  0  0
  2  6  2  0  0  0  0
  3  8  2  0  0  0  0
  3 17  1  0  0  0  0
  4  9  1  0  0  0  0
  4 17  2  0  0  0  0
  5 20  1  0  0  0  0
  6 22  1  0  0  0  0
  7 10  2  0  0  0  0
  7 21  1  0  0  0  0
  8 26  1  0  0  0  0
  9 26  2  0  0  0  0
 10 27  1  0  0  0  0
 11 12  2  0  0  0  0
 11 28  1  0  0  0  0
 12 30  1  0  0  0  0
 13 18  1  0  0  0  0
 13 24  2  0  0  0  0
 14 23  1  0  0  0  0
 14 27  2  0  0  0  0
 15 24  1  0  0  0  0
 15 29  2  0  0  0  0
 16 30  2  0  0  0  0
 16 31  1  0  0  0  0
 17 32  1  0  0  0  0
 18 25  2  0  0  0  0
 18 34  1  0  0  0  0
 19 32  1  0  0  0  0
 19 33  2  0  0  0  0
 19 35  1  0  0  0  0
 20 22  2  0  0  0  0
 20 41  1  0  0  0  0
 21 23  2  0  0  0  0
 21 42  1  0  0  0  0
 22 50  1  0  0  0  0
 23 43  1  0  0  0  0
 24 72  1  0  0  0  0
 25 29  1  0  0  0  0
 25 67  1  0  0  0  0
 26 82  1  0  0  0  0
 27 83  1  0  0  0  0
 28 31  2  0  0  0  0
 28 82  1  0  0  0  0
 29 81  1  0  0  0  0
 30 84  1  0  0  0  0
 31 85  1  0  0  0  0
 32 63  2  0  0  0  0
 33 64  1  0  0  0  0
 33 68  1  0  0  0  0
 34 59  1  0  0  0  0
 34 74  2  0  0  0  0
 35 69  1  0  0  0  0
 35 75  2  0  0  0  0
 36 51  1  0  0  0  0
 36 70  1  0  0  0  0
 36 76  2  0  0  0  0
 37 60  1  0  0  0  0
 37 65  1  0  0  0  0
 37 77  2  0  0  0  0
 38 53  1  0  0  0  0
 38 72  1  0  0  0  0
 38 78  2  0  0  0  0
 39 61  1  0  0  0  0
 39 71  1  0  0  0  0
 39 79  2  0  0  0  0
 40 66  1  0  0  0  0
 40 72  1  0  0  0  0
 40 80  2  0  0  0  0
 41 44  1  0  0  0  0
 42 51  1  0  0  0  0
 43 65  1  0  0  0  0
 44 46  1  0  0  0  0
 45 47  1  0  0  0  0
 45 48  1  0  0  0  0
 46 50  1  0  0  0  0
 47 52  1  0  0  0  0
 48 66  1  0  0  0  0
 49 52  1  0  0  0  0
 49 66  1  0  0  0  0
 50 70  1  0  0  0  0
 51 65  1  0  0  0  0
 52 64  1  0  0  0  0
 54 61  1  0  0  0  0
 55 62  1  0  0  0  0
 56 62  1  0  0  0  0
 57 62  1  0  0  0  0
 58 73  1  0  0  0  0
 59 83  1  0  0  0  0
 60 62  1  0  0  0  0
 60 71  1  0  0  0  0
 61 73  1  0  0  0  0
 63 64  1  0  0  0  0
M  CHG  1  73   1
M  ISO  4  40 100  59 101  72 100  83 101
M  END
> <Batch ID>
0096

> <Smiles>
CNC(C)C(=O)NC(C(=O)N1Cc2cc([101O:1][101CH2:1]C(=O)c3cc([100N:0](C(C)=O)[100C:0](=O)N4CCCC(n5nc(-c6ccc(Oc7ccc(F)cc7F)cc6)c(C(N)=O)c5N)C4)cc(O)c3N)ccc2CC1C(=O)NC1CCCc2ccccc21)C(C)(C)C

> <Shape>
0.261

> <Color>
0.068

> <Negative vol penalty>
0.000

$$$$

  -OEChem-04052300463D

 83 91  0     1  0  0  0  0  0999 V2000
  -16.6220  -28.0476   23.6655 C   0  0  0  0  0  0  0  0  0  0  0  0
  -17.5553  -27.5543   22.7594 C   0  0  0  0  0  0  0  0  0  0  0  0
  -23.8142  -13.3473   24.6198 C   0  0  0  0  0  0  0  0  0  0  0  0
  -23.1004  -15.4664   23.7050 C   0  0  0  0  0  0  0  0  0  0  0  0
  -30.6184  -21.2318   19.4987 C   0  0  0  0  0  0  0  0  0  0  0  0
  -16.9471  -29.1330   24.4779 C   0  0  0  0  0  0  0  0  0  0  0  0
  -18.8140  -28.1469   22.6645 C   0  0  0  0  0  0  0  0  0  0  0  0
  -24.1253  -25.3389   21.4767 C   0  0  0  0  0  0  0  0  0  0  0  0
  -30.4590  -19.8556   19.6605 C   0  0  0  0  0  0  0  0  0  0  0  0
  -23.0729  -13.5962   25.7748 C   0  0  0  0  0  0  0  0  0  0  0  0
  -22.3589  -15.7153   24.8600 C   0  0  0  0  0  0  0  0  0  0  0  0
  -24.8672  -25.1919   20.3055 C   0  0  0  0  0  0  0  0  0  0  0  0
  -19.8366  -13.4337   26.7407 C   0  0  0  0  0  0  0  0  0  0  0  0
  -19.0552  -12.3946   27.2459 C   0  0  0  0  0  0  0  0  0  0  0  0
  -28.2515  -21.4556   19.0692 C   0  0  0  0  0  0  0  0  0  0  0  0
  -26.2191  -27.0894   20.9310 C   0  0  0  0  0  0  0  0  0  0  0  0
  -20.2946  -12.4702   29.3184 C   0  0  0  0  0  0  0  0  0  0  0  0
  -23.8280  -14.2825   23.5849 C   0  0  0  0  0  0  0  0  0  0  0  0
  -29.5147  -22.0318   19.2031 C   0  0  0  0  0  0  0  0  0  0  0  0
  -24.1556  -13.3744   21.2236 C   0  0  0  0  0  0  0  0  0  0  0  0
  -18.2137  -29.7332   24.3997 C   0  0  0  0  0  0  0  0  0  0  0  0
  -24.4182  -26.3706   22.3801 C   0  0  0  0  0  0  0  0  0  0  0  0
  -19.1558  -29.2423   23.4756 C   0  0  0  0  0  0  0  0  0  0  0  0
  -25.4810  -27.2457   22.1141 C   0  0  0  0  0  0  0  0  0  0  0  0
  -29.1958  -19.2794   19.5266 C   0  0  0  0  0  0  0  0  0  0  0  0
  -22.3452  -14.7801   25.8949 C   0  0  0  0  0  0  0  0  0  0  0  0
  -25.9124  -26.0690   20.0310 C   0  0  0  0  0  0  0  0  0  0  0  0
  -20.8471  -13.9911   27.5244 C   0  0  0  0  0  0  0  0  0  0  0  0
  -19.2842  -11.9129   28.5347 C   0  0  0  0  0  0  0  0  0  0  0  0
  -28.0920  -20.0794   19.2310 C   0  0  0  0  0  0  0  0  0  0  0  0
  -21.0760  -13.5093   28.8132 C   0  0  0  0  0  0  0  0  0  0  0  0
  -24.5941  -14.0262   22.3918 C   0  0  0  0  0  0  0  0  0  0  0  0
  -25.2495  -13.3853   20.3931 C   0  0  0  0  0  0  0  0  0  0  0  0
  -29.6847  -23.4976   19.0306 C   0  0  0  0  0  0  0  0  0  0  0  0
  -22.8740  -12.8096   20.9166 C   0  0  0  0  0  0  0  0  0  0  0  0
  -22.8337  -28.8880   23.5007 C   0  0  0  0  0  0  0  0  0  0  0  0
  -25.4402  -29.1894   25.4079 C   0  0  0  0  0  0  0  0  0  0  0  0
  -28.7543  -28.5462   25.9078 C   0  0  0  0  0  0  0  0  0  0  0  0
  -30.0300  -16.9470   19.9856 C   0  0  0  0  0  0  0  0  0  0  0  0
  -18.5026  -30.9342   25.2650 C   0  0  0  0  0  0  0  0  0  0  0  0
  -23.6256  -26.4993   23.6519 C   0  0  0  0  0  0  0  0  0  0  0  0
  -25.8489  -28.3574   23.0614 C   0  0  0  0  0  0  0  0  0  0  0  0
  -19.9887  -31.2681   25.3670 C   0  0  0  0  0  0  0  0  0  0  0  0
  -30.0370  -13.4248   20.5064 C   0  0  0  0  0  0  0  0  0  0  0  0
  -20.6384  -31.2388   23.9872 C   0  0  0  0  0  0  0  0  0  0  0  0
  -28.6005  -13.1192   20.9368 C   0  0  0  0  0  0  0  0  0  0  0  0
  -30.5231  -14.7623   21.0620 C   0  0  0  0  0  0  0  0  0  0  0  0
  -28.2115  -15.6014   21.2094 C   0  0  0  0  0  0  0  0  0  0  0  0
  -20.5402  -29.8426   23.3607 C   0  0  1  0  0  0  0  0  0  0  0  0
  -23.6817  -27.9008   24.2518 C   0  0  1  0  0  0  0  0  0  0  0  0
  -27.6552  -14.2947   20.6205 C   0  0  2  0  0  0  0  0  0  0  0  0
  -30.6152  -28.9524   27.5417 C   0  0  0  0  0  0  0  0  0  0  0  0
  -25.6706  -32.0691   24.4260 C   0  0  0  0  0  0  0  0  0  0  0  0
  -28.0111  -32.1111   25.3141 C   0  0  0  0  0  0  0  0  0  0  0  0
  -26.0939  -31.7639   26.8718 C   0  0  0  0  0  0  0  0  0  0  0  0
  -29.1314  -25.6484   26.3762 C   0  0  0  0  0  0  0  0  0  0  0  0
  -28.8052  -25.5368   17.9241 C   0  0  0  0  0  0  0  0  0  0  0  0
  -28.0028  -26.3422   18.9303 C   0  0  0  0  0  0  0  0  0  1  0  0
  -26.7671  -29.9013   25.3003 C   0  0  1  0  0  0  0  0  0  0  0  0
  -29.5052  -28.0060   27.1115 C   0  0  2  0  0  0  0  0  0  0  0  0
  -26.6277  -31.4417   25.4591 C   0  0  0  0  0  0  0  0  0  0  0  0
  -25.8674  -14.4223   22.3142 N   0  0  0  0  0  0  0  0  0  0  0  0
  -26.2383  -14.0181   21.0874 N   0  0  0  0  0  0  0  0  0  0  0  0
  -25.0403  -28.4459   24.2885 N   0  0  0  0  0  0  0  0  0  0  0  0
  -29.5802  -15.8293   20.7199 N   0  0  0  0  0  0  0  0  0  0  0  0
  -25.4525  -12.9153   19.1440 N   0  0  0  0  0  0  0  0  0  0  0  0
  -21.8618  -12.8850   21.8831 N   0  0  0  0  0  0  0  0  0  0  0  0
  -29.0373  -17.8809   19.6910 N   0  0  0  0  0  0  0  0  0  0  0  0
  -28.7585  -24.1270   18.2083 N   0  0  0  0  0  0  0  0  0  0  0  0
  -21.5262  -28.9571   23.9424 N   0  0  0  0  0  0  0  0  0  0  0  0
  -27.6464  -29.2765   26.2826 N   0  0  0  0  0  0  0  0  0  0  0  0
  -30.1128  -26.6833   26.7921 N   0  3  0  0  0  0  0  0  0  0  0  0
  -30.6205  -24.0630   19.5901 O   0  0  0  0  0  0  0  0  0  0  0  0
  -22.6385  -12.2400   19.8241 O   0  0  0  0  0  0  0  0  0  0  0  0
  -23.3293  -29.5398   22.5890 O   0  0  0  0  0  0  0  0  0  0  0  0
  -24.7862  -29.2834   26.4496 O   0  0  0  0  0  0  0  0  0  0  0  0
  -29.1166  -28.3439   24.7510 O   0  0  0  0  0  0  0  0  0  0  0  0
  -31.2035  -17.0537   19.6200 O   0  0  0  0  0  0  0  0  0  0  0  0
  -21.6215  -15.0232   27.0217 O   0  0  0  0  0  0  0  0  0  0  0  0
  -26.6378  -25.9282   18.8883 O   0  0  0  0  0  0  0  0  0  1  0  0
  -18.5327  -10.9160   29.0203 F   0  0  0  0  0  0  0  0  0  0  0  0
  -26.8730  -19.5365   19.0994 F   0  0  0  0  0  0  0  0  0  0  0  0
  -22.0445  -14.0415   29.5712 F   0  0  0  0  0  0  0  0  0  0  0  0
  1  2  1  0  0  0  0
  1  6  2  0  0  0  0
  2  7  2  0  0  0  0
  3 10  2  0  0  0  0
  3 18  1  0  0  0  0
  4 11  1  0  0  0  0
  4 18  2  0  0  0  0
  5  9  2  0  0  0  0
  5 19  1  0  0  0  0
  6 21  1  0  0  0  0
  7 23  1  0  0  0  0
  8 12  2  0  0  0  0
  8 22  1  0  0  0  0
  9 25  1  0  0  0  0
 10 26  1  0  0  0  0
 11 26  2  0  0  0  0
 12 27  1  0  0  0  0
 13 14  2  0  0  0  0
 13 28  1  0  0  0  0
 14 29  1  0  0  0  0
 15 19  2  0  0  0  0
 15 30  1  0  0  0  0
 16 24  1  0  0  0  0
 16 27  2  0  0  0  0
 17 29  2  0  0  0  0
 17 31  1  0  0  0  0
 18 32  1  0  0  0  0
 19 34  1  0  0  0  0
 20 32  1  0  0  0  0
 20 33  2  0  0  0  0
 20 35  1  0  0  0  0
 21 23  2  0  0  0  0
 21 40  1  0  0  0  0
 22 24  2  0  0  0  0
 22 41  1  0  0  0  0
 23 49  1  0  0  0  0
 24 42  1  0  0  0  0
 25 30  2  0  0  0  0
 25 68  1  0  0  0  0
 26 79  1  0  0  0  0
 27 80  1  0  0  0  0
 28 31  2  0  0  0  0
 28 79  1  0  0  0  0
 29 81  1  0  0  0  0
 30 82  1  0  0  0  0
 31 83  1  0  0  0  0
 32 62  2  0  0  0  0
 33 63  1  0  0  0  0
 33 66  1  0  0  0  0
 34 69  1  0  0  0  0
 34 73  2  0  0  0  0
 35 67  1  0  0  0  0
 35 74  2  0  0  0  0
 36 50  1  0  0  0  0
 36 70  1  0  0  0  0
 36 75  2  0  0  0  0
 37 59  1  0  0  0  0
 37 64  1  0  0  0  0
 37 76  2  0  0  0  0
 38 60  1  0  0  0  0
 38 71  1  0  0  0  0
 38 77  2  0  0  0  0
 39 65  1  0  0  0  0
 39 68  1  0  0  0  0
 39 78  2  0  0  0  0
 40 43  1  0  0  0  0
 41 50  1  0  0  0  0
 42 64  1  0  0  0  0
 43 45  1  0  0  0  0
 44 46  1  0  0  0  0
 44 47  1  0  0  0  0
 45 49  1  0  0  0  0
 46 51  1  0  0  0  0
 47 65  1  0  0  0  0
 48 51  1  0  0  0  0
 48 65  1  0  0  0  0
 49 70  1  0  0  0  0
 50 64  1  0  0  0  0
 51 63  1  0  0  0  0
 52 60  1  0  0  0  0
 53 61  1  0  0  0  0
 54 61  1  0  0  0  0
 55 61  1  0  0  0  0
 56 72  1  0  0  0  0
 57 58  1  0  0  0  0
 57 69  1  0  0  0  0
 58 80  1  0  0  0  0
 59 61  1  0  0  0  0
 59 71  1  0  0  0  0
 60 72  1  0  0  0  0
 62 63  1  0  0  0  0
M  CHG  1  72   1
M  ISO  4  39 100  58 101  68 100  80 101
M  END
> <Batch ID>
0096

> <Smiles>
CNC(C)C(=O)NC(C(=O)N1Cc2cc([101O:1][101CH2:1]CNC(=O)c3ccc([100NH:0][100C:0](=O)N4CCCC(n5nc(-c6ccc(Oc7ccc(F)cc7F)cc6)c(C(N)=O)c5N)C4)c(F)c3)ccc2CC1C(=O)NC1CCCc2ccccc21)C(C)(C)C

> <Shape>
0.250

> <Color>
0.066

> <Negative vol penalty>
0.000

$$$$

  -OEChem-04052300463D

 87 96  0     1  0  0  0  0  0999 V2000
  -32.4776  -34.4220   19.5912 C   0  0  0  0  0  0  0  0  0  0  0  0
  -31.1423  -34.1551   19.8759 C   0  0  0  0  0  0  0  0  0  0  0  0
  -27.0983  -15.1739   20.6504 C   0  0  0  0  0  0  0  0  0  0  0  0
  -26.9656  -14.2714   22.8875 C   0  0  0  0  0  0  0  0  0  0  0  0
  -33.1822  -33.5939   18.7184 C   0  0  0  0  0  0  0  0  0  0  0  0
  -30.5104  -33.0604   19.2869 C   0  0  0  0  0  0  0  0  0  0  0  0
  -26.2003  -29.5077   21.7983 C   0  0  0  0  0  0  0  0  0  0  0  0
  -21.1011  -23.7542   23.4650 C   0  0  0  0  0  0  0  0  0  0  0  0
  -22.1924  -23.1113   24.0493 C   0  0  0  0  0  0  0  0  0  0  0  0
  -26.6297  -13.9654   20.1350 C   0  0  0  0  0  0  0  0  0  0  0  0
  -26.4970  -13.0629   22.3722 C   0  0  0  0  0  0  0  0  0  0  0  0
  -24.8108  -29.4960   21.6844 C   0  0  0  0  0  0  0  0  0  0  0  0
  -24.9234   -9.8605   21.6744 C   0  0  0  0  0  0  0  0  0  0  0  0
  -23.8373   -9.2606   22.3116 C   0  0  0  0  0  0  0  0  0  0  0  0
  -24.9704  -27.7898   19.9865 C   0  0  0  0  0  0  0  0  0  0  0  0
  -21.9842  -23.2597   21.2713 C   0  0  0  0  0  0  0  0  0  0  0  0
  -22.4896  -11.2126   21.8526 C   0  0  0  0  0  0  0  0  0  0  0  0
  -27.2663  -15.3269   22.0266 C   0  0  0  0  0  0  0  0  0  0  0  0
  -28.9812  -17.1985   22.2788 C   0  0  0  0  0  0  0  0  0  0  0  0
  -32.5613  -32.4829   18.1260 C   0  0  0  0  0  0  0  0  0  0  0  0
  -26.9872  -28.6670   20.9981 C   0  0  0  0  0  0  0  0  0  0  0  0
  -31.2069  -32.2175   18.4043 C   0  0  0  0  0  0  0  0  0  0  0  0
  -26.3695  -27.7910   20.0940 C   0  0  0  0  0  0  0  0  0  0  0  0
  -20.9969  -23.8283   22.0760 C   0  0  0  0  0  0  0  0  0  0  0  0
  -23.1796  -22.5427   23.2445 C   0  0  0  0  0  0  0  0  0  0  0  0
  -26.3291  -12.9099   20.9959 C   0  0  0  0  0  0  0  0  0  0  0  0
  -24.1958  -28.6390   20.7764 C   0  0  0  0  0  0  0  0  0  0  0  0
  -24.7926  -11.1366   21.1264 C   0  0  0  0  0  0  0  0  0  0  0  0
  -22.6204   -9.9366   22.4007 C   0  0  0  0  0  0  0  0  0  0  0  0
  -23.0755  -22.6168   21.8555 C   0  0  0  0  0  0  0  0  0  0  0  0
  -23.5758  -11.8126   21.2154 C   0  0  0  0  0  0  0  0  0  0  0  0
  -27.7508  -16.5748   22.5595 C   0  0  0  0  0  0  0  0  0  0  0  0
  -28.9617  -18.3494   23.0282 C   0  0  0  0  0  0  0  0  0  0  0  0
  -18.6167  -26.3629   22.5524 C   0  0  0  0  0  0  0  0  0  0  0  0
  -30.0466  -16.7754   21.4176 C   0  0  0  0  0  0  0  0  0  0  0  0
  -29.2217  -29.1243   18.7841 C   0  0  0  0  0  0  0  0  0  0  0  0
  -29.4839  -25.8948   18.9390 C   0  0  0  0  0  0  0  0  0  0  0  0
  -28.0302  -22.9034   19.7040 C   0  0  0  0  0  0  0  0  0  0  0  0
  -24.5406  -21.7303   25.2026 C   0  0  0  0  0  0  0  0  0  0  0  0
  -33.3503  -31.6440   17.1522 C   0  0  0  0  0  0  0  0  0  0  0  0
  -28.4834  -28.6725   21.1520 C   0  0  0  0  0  0  0  0  0  0  0  0
  -27.1681  -26.8541   19.2263 C   0  0  0  0  0  0  0  0  0  0  0  0
  -18.5551  -27.8438   22.8717 C   0  0  0  0  0  0  0  0  0  0  0  0
  -32.7134  -30.2875   16.8615 C   0  0  0  0  0  0  0  0  0  0  0  0
  -19.9069  -28.5159   23.0103 C   0  0  0  0  0  0  0  0  0  0  0  0
  -27.1328  -20.1566   27.0684 C   0  0  0  0  0  0  0  0  0  0  0  0
  -31.2216  -30.4463   16.5854 C   0  0  0  0  0  0  0  0  0  0  0  0
  -27.7015  -19.1205   26.0963 C   0  0  0  0  0  0  0  0  0  0  0  0
  -25.6186  -20.2987   26.9241 C   0  0  0  0  0  0  0  0  0  0  0  0
  -20.9558  -26.7078   21.6815 C   0  0  0  0  0  0  0  0  0  0  0  0
  -25.7159  -19.5269   24.5866 C   0  0  0  0  0  0  0  0  0  0  0  0
  -30.4935  -31.0252   17.8045 C   0  0  1  0  0  0  0  0  0  0  0  0
  -29.2126  -28.1423   19.9213 C   0  0  1  0  0  0  0  0  0  0  0  0
  -20.7474  -28.2160   21.7765 C   0  0  2  0  0  0  0  0  0  0  0  0
  -27.2464  -19.3956   24.6496 C   0  0  2  0  0  0  0  0  0  0  0  0
  -28.4787  -20.4344   19.6897 C   0  0  0  0  0  0  0  0  0  0  0  0
  -29.0860  -25.8426   15.9143 C   0  0  0  0  0  0  0  0  0  0  0  0
  -28.5956  -23.3939   16.0911 C   0  0  0  0  0  0  0  0  0  0  0  0
  -30.8330  -24.2677   16.7641 C   0  0  0  0  0  0  0  0  0  0  0  0
  -27.6785  -22.7050   22.6359 C   0  0  0  0  0  0  0  0  0  0  0  0
  -19.8229  -24.5213   21.4469 C   0  0  0  0  0  0  0  0  0  0  0  0
  -22.0869  -28.9464   21.8319 C   0  0  0  0  0  0  0  0  0  1  0  0
  -28.8277  -24.7338   18.2316 C   0  0  1  0  0  0  0  0  0  0  0  0
  -28.5309  -21.7161   20.5065 C   0  0  2  0  0  0  0  0  0  0  0  0
  -29.3204  -24.5784   16.7651 C   0  0  0  0  0  0  0  0  0  0  0  0
  -27.0040  -17.2716   23.4202 N   0  0  0  0  0  0  0  0  0  0  0  0
  -27.7674  -18.3451   23.6869 N   0  0  0  0  0  0  0  0  0  0  0  0
  -19.7347  -25.9186   21.8496 N   0  0  0  0  0  0  0  0  0  0  0  0
  -28.6282  -26.9012   19.4091 N   0  0  0  0  0  0  0  0  0  0  0  0
  -25.2622  -20.5623   25.5283 N   0  0  0  0  0  0  0  0  0  0  0  0
  -29.8498  -19.3544   23.1815 N   0  0  0  0  0  0  0  0  0  0  0  0
  -31.0632  -15.9749   21.9561 N   0  0  0  0  0  0  0  0  0  0  0  0
  -24.2874  -21.8906   23.8407 N   0  0  0  0  0  0  0  0  0  0  0  0
  -30.2903  -30.0001   18.8056 N   0  0  0  0  0  0  0  0  0  0  0  0
  -29.0615  -23.5614   19.0678 N   0  0  0  0  0  0  0  0  0  0  0  0
  -27.6988  -21.5289   21.7286 N   0  3  0  0  0  0  0  0  0  0  0  0
  -17.6571  -25.6467   22.8512 O   0  0  0  0  0  0  0  0  0  0  0  0
  -30.1041  -17.1112   20.2103 O   0  0  0  0  0  0  0  0  0  0  0  0
  -28.3263  -29.0890   17.9482 O   0  0  0  0  0  0  0  0  0  0  0  0
  -30.7097  -25.9049   19.0761 O   0  0  0  0  0  0  0  0  0  0  0  0
  -26.8424  -23.2138   19.6443 O   0  0  0  0  0  0  0  0  0  0  0  0
  -24.1979  -22.5430   26.0652 O   0  0  0  0  0  0  0  0  0  0  0  0
  -25.8716  -11.7306   20.4934 O   0  0  0  0  0  0  0  0  0  0  0  0
  -22.8398  -28.6261   20.6628 O   0  0  0  0  0  0  0  0  0  1  0  0
  -21.5771   -9.3596   23.0112 F   0  0  0  0  0  0  0  0  0  0  0  0
  -24.0192  -22.0750   21.0723 F   0  0  0  0  0  0  0  0  0  0  0  0
  -23.4438  -13.0382   20.6898 F   0  0  0  0  0  0  0  0  0  0  0  0
  1  2  1  0  0  0  0
  1  5  2  0  0  0  0
  2  6  2  0  0  0  0
  3 10  2  0  0  0  0
  3 18  1  0  0  0  0
  4 11  1  0  0  0  0
  4 18  2  0  0  0  0
  5 20  1  0  0  0  0
  6 22  1  0  0  0  0
  7 12  2  0  0  0  0
  7 21  1  0  0  0  0
  8  9  2  0  0  0  0
  8 24  1  0  0  0  0
  9 25  1  0  0  0  0
 10 26  1  0  0  0  0
 11 26  2  0  0  0  0
 12 27  1  0  0  0  0
 13 14  2  0  0  0  0
 13 28  1  0  0  0  0
 14 29  1  0  0  0  0
 15 23  1  0  0  0  0
 15 27  2  0  0  0  0
 16 24  2  0  0  0  0
 16 30  1  0  0  0  0
 17 29  2  0  0  0  0
 17 31  1  0  0  0  0
 18 32  1  0  0  0  0
 19 32  1  0  0  0  0
 19 33  2  0  0  0  0
 19 35  1  0  0  0  0
 20 22  2  0  0  0  0
 20 40  1  0  0  0  0
 21 23  2  0  0  0  0
 21 41  1  0  0  0  0
 22 52  1  0  0  0  0
 23 42  1  0  0  0  0
 24 61  1  0  0  0  0
 25 30  2  0  0  0  0
 25 73  1  0  0  0  0
 26 83  1  0  0  0  0
 27 84  1  0  0  0  0
 28 31  2  0  0  0  0
 28 83  1  0  0  0  0
 29 85  1  0  0  0  0
 30 86  1  0  0  0  0
 31 87  1  0  0  0  0
 32 66  2  0  0  0  0
 33 67  1  0  0  0  0
 33 71  1  0  0  0  0
 34 43  1  0  0  0  0
 34 68  1  0  0  0  0
 34 77  2  0  0  0  0
 35 72  1  0  0  0  0
 35 78  2  0  0  0  0
 36 53  1  0  0  0  0
 36 74  1  0  0  0  0
 36 79  2  0  0  0  0
 37 63  1  0  0  0  0
 37 69  1  0  0  0  0
 37 80  2  0  0  0  0
 38 64  1  0  0  0  0
 38 75  1  0  0  0  0
 38 81  2  0  0  0  0
 39 70  1  0  0  0  0
 39 73  1  0  0  0  0
 39 82  2  0  0  0  0
 40 44  1  0  0  0  0
 41 53  1  0  0  0  0
 42 69  1  0  0  0  0
 43 45  1  0  0  0  0
 44 47  1  0  0  0  0
 45 54  1  0  0  0  0
 46 48  1  0  0  0  0
 46 49  1  0  0  0  0
 47 52  1  0  0  0  0
 48 55  1  0  0  0  0
 49 70  1  0  0  0  0
 50 54  1  0  0  0  0
 50 68  1  0  0  0  0
 51 55  1  0  0  0  0
 51 70  1  0  0  0  0
 52 74  1  0  0  0  0
 53 69  1  0  0  0  0
 54 62  1  0  0  0  0
 55 67  1  0  0  0  0
 56 64  1  0  0  0  0
 57 65  1  0  0  0  0
 58 65  1  0  0  0  0
 59 65  1  0  0  0  0
 60 76  1  0  0  0  0
 61 68  1  0  0  0  0
 62 84  1  0  0  0  0
 63 65  1  0  0  0  0
 63 75  1  0  0  0  0
 64 76  1  0  0  0  0
 66 67  1  0  0  0  0
M  CHG  1  76   1
M  ISO  4  39 100  62 101  73 100  84 101
M  END
> <Batch ID>
0096

> <Smiles>
CNC(C)C(=O)NC(C(=O)N1Cc2cc([101O:1][101CH2:1]C3CCC(=O)N(Cc4ccc([100NH:0][100C:0](=O)N5CCCC(n6nc(-c7ccc(Oc8ccc(F)cc8F)cc7)c(C(N)=O)c6N)C5)c(F)c4)C3)ccc2CC1C(=O)NC1CCCc2ccccc21)C(C)(C)C

> <Shape>
0.238

> <Color>
0.067

> <Negative vol penalty>
0.000

$$$$

  -OEChem-04052300463D

 88 97  0     1  0  0  0  0  0999 V2000
  -27.9624  -33.7911   26.0560 C   0  0  0  0  0  0  0  0  0  0  0  0
  -28.0642  -32.5343   25.4683 C   0  0  0  0  0  0  0  0  0  0  0  0
  -22.2513  -11.5493   20.8674 C   0  0  0  0  0  0  0  0  0  0  0  0
  -24.2366  -12.5527   19.9246 C   0  0  0  0  0  0  0  0  0  0  0  0
  -26.7067  -34.3436   26.3044 C   0  0  0  0  0  0  0  0  0  0  0  0
  -26.9101  -31.8287   25.1297 C   0  0  0  0  0  0  0  0  0  0  0  0
  -27.1889  -29.7443   20.5229 C   0  0  0  0  0  0  0  0  0  0  0  0
  -27.0641  -21.9505   17.7509 C   0  0  0  0  0  0  0  0  0  0  0  0
  -25.8966  -21.4054   18.2850 C   0  0  0  0  0  0  0  0  0  0  0  0
  -22.5458  -10.3526   20.2141 C   0  0  0  0  0  0  0  0  0  0  0  0
  -24.5312  -11.3560   19.2714 C   0  0  0  0  0  0  0  0  0  0  0  0
  -27.9334  -28.5721   20.3984 C   0  0  0  0  0  0  0  0  0  0  0  0
  -24.6269   -7.7235   20.6500 C   0  0  0  0  0  0  0  0  0  0  0  0
  -24.5104   -6.5407   21.3800 C   0  0  0  0  0  0  0  0  0  0  0  0
  -25.8971  -27.2799   20.4548 C   0  0  0  0  0  0  0  0  0  0  0  0
  -27.2174  -19.8961   19.6321 C   0  0  0  0  0  0  0  0  0  0  0  0
  -22.8531   -5.7383   19.8159 C   0  0  0  0  0  0  0  0  0  0  0  0
  -23.0966  -12.6493   20.7226 C   0  0  0  0  0  0  0  0  0  0  0  0
  -22.6662  -14.0891   22.7840 C   0  0  0  0  0  0  0  0  0  0  0  0
  -25.5367  -33.6486   25.9598 C   0  0  0  0  0  0  0  0  0  0  0  0
  -25.7913  -29.6923   20.6254 C   0  0  0  0  0  0  0  0  0  0  0  0
  -25.6375  -32.3719   25.3749 C   0  0  0  0  0  0  0  0  0  0  0  0
  -25.1370  -28.4531   20.5779 C   0  0  0  0  0  0  0  0  0  0  0  0
  -28.3084  -21.4683   18.1573 C   0  0  0  0  0  0  0  0  0  0  0  0
  -25.9732  -20.3782   19.2256 C   0  0  0  0  0  0  0  0  0  0  0  0
  -23.6858  -10.2559   19.4161 C   0  0  0  0  0  0  0  0  0  0  0  0
  -27.2877  -27.3395   20.3673 C   0  0  0  0  0  0  0  0  0  0  0  0
  -23.8563   -7.9138   19.5029 C   0  0  0  0  0  0  0  0  0  0  0  0
  -28.3850  -20.4412   19.0979 C   0  0  0  0  0  0  0  0  0  0  0  0
  -23.6236   -5.5481   20.9630 C   0  0  0  0  0  0  0  0  0  0  0  0
  -22.9695   -6.9212   19.0858 C   0  0  0  0  0  0  0  0  0  0  0  0
  -22.7926  -13.8860   21.3967 C   0  0  0  0  0  0  0  0  0  0  0  0
  -22.3739  -15.4252   22.9101 C   0  0  0  0  0  0  0  0  0  0  0  0
  -31.5448  -22.7060   18.8748 C   0  0  0  0  0  0  0  0  0  0  0  0
  -22.8010  -13.1538   23.8623 C   0  0  0  0  0  0  0  0  0  0  0  0
  -23.6707  -30.5492   22.8328 C   0  0  0  0  0  0  0  0  0  0  0  0
  -21.5312  -29.7277   20.5371 C   0  0  0  0  0  0  0  0  0  0  0  0
  -20.8495  -27.9144   17.7276 C   0  0  0  0  0  0  0  0  0  0  0  0
  -23.4734  -20.1867   19.4715 C   0  0  0  0  0  0  0  0  0  0  0  0
  -24.2012  -34.2663   26.2911 C   0  0  0  0  0  0  0  0  0  0  0  0
  -25.0008  -30.9675   20.7323 C   0  0  0  0  0  0  0  0  0  0  0  0
  -23.6372  -28.3443   20.6640 C   0  0  0  0  0  0  0  0  0  0  0  0
  -32.1540  -23.6281   19.9128 C   0  0  0  0  0  0  0  0  0  0  0  0
  -23.0305  -33.6146   25.5596 C   0  0  0  0  0  0  0  0  0  0  0  0
  -31.5710  -25.0274   19.9332 C   0  0  0  0  0  0  0  0  0  0  0  0
  -20.2846  -19.0392   20.5633 C   0  0  0  0  0  0  0  0  0  0  0  0
  -23.1281  -32.0947   25.6434 C   0  0  0  0  0  0  0  0  0  0  0  0
  -20.5555  -17.6081   21.0328 C   0  0  0  0  0  0  0  0  0  0  0  0
  -21.1197  -19.4013   19.3364 C   0  0  0  0  0  0  0  0  0  0  0  0
  -29.5174  -24.2012   18.8216 C   0  0  0  0  0  0  0  0  0  0  0  0
  -22.8342  -17.7413   19.9480 C   0  0  0  0  0  0  0  0  0  0  0  0
  -24.4089  -31.5862   24.9707 C   0  0  1  0  0  0  0  0  0  0  0  0
  -23.6192  -30.7643   21.3466 C   0  0  1  0  0  0  0  0  0  0  0  0
  -30.0548  -24.9398   20.0435 C   0  0  2  0  0  0  0  0  0  0  0  0
  -22.0639  -17.3526   21.2205 C   0  0  2  0  0  0  0  0  0  0  0  0
  -19.0026  -27.4195   16.1023 C   0  0  0  0  0  0  0  0  0  0  0  0
  -20.2106  -27.9043   22.5966 C   0  0  0  0  0  0  0  0  0  0  0  0
  -19.0195  -26.7588   20.7158 C   0  0  0  0  0  0  0  0  0  0  0  0
  -18.6131  -29.1803   21.1564 C   0  0  0  0  0  0  0  0  0  0  0  0
  -22.3996  -29.0063   15.4552 C   0  0  0  0  0  0  0  0  0  0  0  0
  -29.5783  -18.9083   20.4698 C   0  0  0  0  0  0  0  0  0  0  0  0
  -29.5544  -22.0669   17.5715 C   0  0  0  0  0  0  0  0  0  0  0  0
  -29.4298  -26.3282   20.1564 C   0  0  0  0  0  0  0  0  0  1  0  0
  -20.8158  -28.4566   20.1482 C   0  0  1  0  0  0  0  0  0  0  0  0
  -20.2017  -28.3025   16.4106 C   0  0  2  0  0  0  0  0  0  0  0  0
  -19.6931  -28.0766   21.1545 C   0  0  0  0  0  0  0  0  0  0  0  0
  -22.5965  -15.0035   20.6920 N   0  0  0  0  0  0  0  0  0  0  0  0
  -22.3438  -15.9217   21.6402 N   0  0  0  0  0  0  0  0  0  0  0  0
  -30.2242  -22.9581   18.5094 N   0  0  0  0  0  0  0  0  0  0  0  0
  -22.9089  -29.6191   20.7738 N   0  0  0  0  0  0  0  0  0  0  0  0
  -22.5379  -19.1371   19.5891 N   0  0  0  0  0  0  0  0  0  0  0  0
  -22.1422  -16.2120   23.9824 N   0  0  0  0  0  0  0  0  0  0  0  0
  -23.1037  -11.8200   23.5559 N   0  0  0  0  0  0  0  0  0  0  0  0
  -24.7870  -19.8242   19.7674 N   0  0  0  0  0  0  0  0  0  0  0  0
  -24.2583  -31.5867   23.5313 N   0  0  0  0  0  0  0  0  0  0  0  0
  -20.3501  -28.6527   18.7796 N   0  0  0  0  0  0  0  0  0  0  0  0
  -21.1803  -28.1730   15.2941 N   0  3  0  0  0  0  0  0  0  0  0  0
  -32.2042  -21.7452   18.4685 O   0  0  0  0  0  0  0  0  0  0  0  0
  -22.6412  -13.4872   25.0609 O   0  0  0  0  0  0  0  0  0  0  0  0
  -23.2100  -29.5191   23.3105 O   0  0  0  0  0  0  0  0  0  0  0  0
  -20.8925  -30.7797   20.6208 O   0  0  0  0  0  0  0  0  0  0  0  0
  -21.7095  -27.0408   17.8149 O   0  0  0  0  0  0  0  0  0  0  0  0
  -23.1302  -21.3300   19.1597 O   0  0  0  0  0  0  0  0  0  0  0  0
  -23.9737   -9.0883   18.7787 O   0  0  0  0  0  0  0  0  0  0  0  0
  -29.5924  -19.9587   19.5053 O   0  0  0  0  0  0  0  0  0  0  0  0
  -28.0120  -26.1938   20.2465 O   0  0  0  0  0  0  0  0  0  1  0  0
  -23.5130   -4.4117   21.6633 F   0  0  0  0  0  0  0  0  0  0  0  0
  -22.2275   -7.0978   17.9840 F   0  0  0  0  0  0  0  0  0  0  0  0
  1  2  1  0  0  0  0
  1  5  2  0  0  0  0
  2  6  2  0  0  0  0
  3 10  2  0  0  0  0
  3 18  1  0  0  0  0
  4 11  1  0  0  0  0
  4 18  2  0  0  0  0
  5 20  1  0  0  0  0
  6 22  1  0  0  0  0
  7 12  2  0  0  0  0
  7 21  1  0  0  0  0
  8  9  2  0  0  0  0
  8 24  1  0  0  0  0
  9 25  1  0  0  0  0
 10 26  1  0  0  0  0
 11 26  2  0  0  0  0
 12 27  1  0  0  0  0
 13 14  2  0  0  0  0
 13 28  1  0  0  0  0
 14 30  1  0  0  0  0
 15 23  1  0  0  0  0
 15 27  2  0  0  0  0
 16 25  2  0  0  0  0
 16 29  1  0  0  0  0
 17 30  2  0  0  0  0
 17 31  1  0  0  0  0
 18 32  1  0  0  0  0
 19 32  1  0  0  0  0
 19 33  2  0  0  0  0
 19 35  1  0  0  0  0
 20 22  2  0  0  0  0
 20 40  1  0  0  0  0
 21 23  2  0  0  0  0
 21 41  1  0  0  0  0
 22 52  1  0  0  0  0
 23 42  1  0  0  0  0
 24 29  2  0  0  0  0
 24 62  1  0  0  0  0
 25 74  1  0  0  0  0
 26 84  1  0  0  0  0
 27 86  1  0  0  0  0
 28 31  2  0  0  0  0
 28 84  1  0  0  0  0
 29 85  1  0  0  0  0
 30 87  1  0  0  0  0
 31 88  1  0  0  0  0
 32 67  2  0  0  0  0
 33 68  1  0  0  0  0
 33 72  1  0  0  0  0
 34 43  1  0  0  0  0
 34 69  1  0  0  0  0
 34 78  2  0  0  0  0
 35 73  1  0  0  0  0
 35 79  2  0  0  0  0
 36 53  1  0  0  0  0
 36 75  1  0  0  0  0
 36 80  2  0  0  0  0
 37 64  1  0  0  0  0
 37 70  1  0  0  0  0
 37 81  2  0  0  0  0
 38 65  1  0  0  0  0
 38 76  1  0  0  0  0
 38 82  2  0  0  0  0
 39 71  1  0  0  0  0
 39 74  1  0  0  0  0
 39 83  2  0  0  0  0
 40 44  1  0  0  0  0
 41 53  1  0  0  0  0
 42 70  1  0  0  0  0
 43 45  1  0  0  0  0
 44 47  1  0  0  0  0
 45 54  1  0  0  0  0
 46 48  1  0  0  0  0
 46 49  1  0  0  0  0
 47 52  1  0  0  0  0
 48 55  1  0  0  0  0
 49 71  1  0  0  0  0
 50 54  1  0  0  0  0
 50 69  1  0  0  0  0
 51 55  1  0  0  0  0
 51 71  1  0  0  0  0
 52 75  1  0  0  0  0
 53 70  1  0  0  0  0
 54 63  1  0  0  0  0
 55 68  1  0  0  0  0
 56 65  1  0  0  0  0
 57 66  1  0  0  0  0
 58 66  1  0  0  0  0
 59 66  1  0  0  0  0
 60 77  1  0  0  0  0
 61 85  1  0  0  0  0
 62 69  1  0  0  0  0
 63 86  1  0  0  0  0
 64 66  1  0  0  0  0
 64 76  1  0  0  0  0
 65 77  1  0  0  0  0
 67 68  1  0  0  0  0
M  CHG  1  77   1
M  ISO  4  39 100  63 101  74 100  86 101
M  END
> <Batch ID>
0096

> <Smiles>
CNC(C)C(=O)NC(C(=O)N1Cc2cc([101O:1][101CH2:1]C3CCC(=O)N(Cc4ccc([100NH:0][100C:0](=O)N5CCCC(n6nc(-c7ccc(Oc8ccc(F)cc8F)cc7)c(C(N)=O)c6N)C5)cc4OC)C3)ccc2CC1C(=O)NC1CCCc2ccccc21)C(C)(C)C

> <Shape>
0.240

> <Color>
0.074

> <Negative vol penalty>
0.000

$$$$

  -OEChem-04052300463D

 85 93  0     1  0  0  0  0  0999 V2000
  -16.0829  -29.3591   23.5652 C   0  0  0  0  0  0  0  0  0  0  0  0
  -16.9380  -28.3750   24.0508 C   0  0  0  0  0  0  0  0  0  0  0  0
  -23.3906  -10.3121   21.2951 C   0  0  0  0  0  0  0  0  0  0  0  0
  -24.8033   -8.5613   22.1759 C   0  0  0  0  0  0  0  0  0  0  0  0
  -29.3864  -19.6047   21.1102 C   0  0  0  0  0  0  0  0  0  0  0  0
  -16.5747  -30.3533   22.7204 C   0  0  0  0  0  0  0  0  0  0  0  0
  -18.2852  -28.3839   23.6911 C   0  0  0  0  0  0  0  0  0  0  0  0
  -23.0347  -26.6866   27.1648 C   0  0  0  0  0  0  0  0  0  0  0  0
  -28.7324  -20.3567   22.0861 C   0  0  0  0  0  0  0  0  0  0  0  0
  -22.3362   -9.4057   21.1845 C   0  0  0  0  0  0  0  0  0  0  0  0
  -23.7489   -7.6549   22.0653 C   0  0  0  0  0  0  0  0  0  0  0  0
  -23.7719  -25.5052   27.2333 C   0  0  0  0  0  0  0  0  0  0  0  0
  -20.9468   -6.8743   23.7856 C   0  0  0  0  0  0  0  0  0  0  0  0
  -20.7112   -6.0218   24.8642 C   0  0  0  0  0  0  0  0  0  0  0  0
  -25.4252  -26.4586   25.7579 C   0  0  0  0  0  0  0  0  0  0  0  0
  -28.0424  -18.3222   23.1914 C   0  0  0  0  0  0  0  0  0  0  0  0
  -21.0867   -4.1102   23.4352 C   0  0  0  0  0  0  0  0  0  0  0  0
  -24.6242   -9.8899   21.7907 C   0  0  0  0  0  0  0  0  0  0  0  0
  -29.3683  -18.2114   21.1748 C   0  0  0  0  0  0  0  0  0  0  0  0
  -26.0269  -11.6353   23.0129 C   0  0  0  0  0  0  0  0  0  0  0  0
  -17.9306  -30.3800   22.3578 C   0  0  0  0  0  0  0  0  0  0  0  0
  -23.4825  -27.7607   26.3824 C   0  0  0  0  0  0  0  0  0  0  0  0
  -18.7952  -29.3787   22.8395 C   0  0  0  0  0  0  0  0  0  0  0  0
  -24.6932  -27.6534   25.6832 C   0  0  0  0  0  0  0  0  0  0  0  0
  -28.0604  -19.7155   23.1267 C   0  0  0  0  0  0  0  0  0  0  0  0
  -22.5153   -8.0771   21.5697 C   0  0  0  0  0  0  0  0  0  0  0  0
  -24.9659  -25.3900   26.5275 C   0  0  0  0  0  0  0  0  0  0  0  0
  -21.2522   -6.3447   22.5318 C   0  0  0  0  0  0  0  0  0  0  0  0
  -20.7812   -4.6397   24.6890 C   0  0  0  0  0  0  0  0  0  0  0  0
  -28.6964  -17.5702   22.2155 C   0  0  0  0  0  0  0  0  0  0  0  0
  -21.3222   -4.9627   22.3566 C   0  0  0  0  0  0  0  0  0  0  0  0
  -25.7140  -10.8256   21.9046 C   0  0  0  0  0  0  0  0  0  0  0  0
  -27.1412  -12.3367   22.6220 C   0  0  0  0  0  0  0  0  0  0  0  0
  -30.0657  -17.4146   20.1330 C   0  0  0  0  0  0  0  0  0  0  0  0
  -25.3691  -11.7437   24.2823 C   0  0  0  0  0  0  0  0  0  0  0  0
  -22.3463  -29.3247   23.8592 C   0  0  0  0  0  0  0  0  0  0  0  0
  -26.5794  -22.3891   25.3040 C   0  0  0  0  0  0  0  0  0  0  0  0
  -24.9075  -31.2447   24.3852 C   0  0  0  0  0  0  0  0  0  0  0  0
  -28.0349  -31.6069   25.7024 C   0  0  0  0  0  0  0  0  0  0  0  0
  -29.9885  -15.2774   18.8880 C   0  0  0  0  0  0  0  0  0  0  0  0
  -18.4061  -31.4473   21.4041 C   0  0  0  0  0  0  0  0  0  0  0  0
  -22.6892  -29.0379   26.3403 C   0  0  0  0  0  0  0  0  0  0  0  0
  -25.2278  -28.7848   24.8450 C   0  0  0  0  0  0  0  0  0  0  0  0
  -19.9244  -31.6022   21.3714 C   0  0  0  0  0  0  0  0  0  0  0  0
  -30.1556  -11.7586   18.5930 C   0  0  0  0  0  0  0  0  0  0  0  0
  -20.5983  -30.2374   21.2720 C   0  0  0  0  0  0  0  0  0  0  0  0
  -29.0460  -11.2649   19.5253 C   0  0  0  0  0  0  0  0  0  0  0  0
  -29.7521  -13.0354   17.8569 C   0  0  0  0  0  0  0  0  0  0  0  0
  -28.1675  -13.6310   19.6436 C   0  0  0  0  0  0  0  0  0  0  0  0
  -20.2680  -29.3689   22.4919 C   0  0  1  0  0  0  0  0  0  0  0  0
  -22.9798  -29.8813   25.1028 C   0  0  1  0  0  0  0  0  0  0  0  0
  -28.5522  -12.3869   20.4606 C   0  0  1  0  0  0  0  0  0  0  0  0
  -29.8898  -33.2800   25.9420 C   0  0  0  0  0  0  0  0  0  0  0  0
  -25.6827  -30.7994   21.4679 C   0  0  0  0  0  0  0  0  0  0  0  0
  -27.9652  -31.6713   22.0139 C   0  0  0  0  0  0  0  0  0  0  0  0
  -25.9720  -33.1479   22.2774 C   0  0  0  0  0  0  0  0  0  0  0  0
  -27.8687  -31.5415   28.6565 C   0  0  0  0  0  0  0  0  0  0  0  0
  -27.3756  -21.9034   24.1115 C   0  0  0  0  0  0  0  0  0  0  0  0
  -26.4665  -23.8944   25.4471 C   0  0  0  0  0  0  0  0  0  1  0  0
  -26.3436  -31.2626   23.9204 C   0  0  1  0  0  0  0  0  0  0  0  0
  -28.6403  -32.6900   26.5770 C   0  0  2  0  0  0  0  0  0  0  0  0
  -26.4801  -31.6981   22.4341 C   0  0  0  0  0  0  0  0  0  0  0  0
  -26.5610  -10.9960   20.8861 N   0  0  0  0  0  0  0  0  0  0  0  0
  -27.4171  -11.9209   21.3527 N   0  0  0  0  0  0  0  0  0  0  0  0
  -24.4128  -30.0108   24.8308 N   0  0  0  0  0  0  0  0  0  0  0  0
  -29.3064  -14.0505   18.8130 N   0  0  0  0  0  0  0  0  0  0  0  0
  -27.9022  -13.2624   23.2437 N   0  0  0  0  0  0  0  0  0  0  0  0
  -24.2378  -10.9508   24.5184 N   0  0  0  0  0  0  0  0  0  0  0  0
  -27.4099  -20.4633   24.0977 N   0  0  0  0  0  0  0  0  0  0  0  0
  -29.5130  -16.1627   19.8617 N   0  0  0  0  0  0  0  0  0  0  0  0
  -21.0604  -29.7768   23.6321 N   0  0  0  0  0  0  0  0  0  0  0  0
  -27.0665  -32.1120   24.8607 N   0  0  0  0  0  0  0  0  0  0  0  0
  -29.0082  -32.1340   27.9099 N   0  3  0  0  0  0  0  0  0  0  0  0
  -31.0353  -17.9010   19.5573 O   0  0  0  0  0  0  0  0  0  0  0  0
  -25.7628  -12.5328   25.1744 O   0  0  0  0  0  0  0  0  0  0  0  0
  -22.9780  -28.5442   23.1568 O   0  0  0  0  0  0  0  0  0  0  0  0
  -26.0544  -21.6223   26.1104 O   0  0  0  0  0  0  0  0  0  0  0  0
  -24.2509  -32.2887   24.3608 O   0  0  0  0  0  0  0  0  0  0  0  0
  -28.3885  -30.4311   25.7575 O   0  0  0  0  0  0  0  0  0  0  0  0
  -30.9611  -15.5467   18.1761 O   0  0  0  0  0  0  0  0  0  0  0  0
  -21.4865   -7.1924   21.4621 O   0  0  0  0  0  0  0  0  0  0  0  0
  -25.6871  -24.2378   26.5921 O   0  0  0  0  0  0  0  0  0  1  0  0
  -20.5565   -3.8212   25.7252 F   0  0  0  0  0  0  0  0  0  0  0  0
  -28.6707  -16.2317   22.2858 F   0  0  0  0  0  0  0  0  0  0  0  0
  -21.6163   -4.4481   21.1547 F   0  0  0  0  0  0  0  0  0  0  0  0
  1  2  1  0  0  0  0
  1  6  2  0  0  0  0
  2  7  2  0  0  0  0
  3 10  2  0  0  0  0
  3 18  1  0  0  0  0
  4 11  1  0  0  0  0
  4 18  2  0  0  0  0
  5  9  2  0  0  0  0
  5 19  1  0  0  0  0
  6 21  1  0  0  0  0
  7 23  1  0  0  0  0
  8 12  2  0  0  0  0
  8 22  1  0  0  0  0
  9 25  1  0  0  0  0
 10 26  1  0  0  0  0
 11 26  2  0  0  0  0
 12 27  1  0  0  0  0
 13 14  2  0  0  0  0
 13 28  1  0  0  0  0
 14 29  1  0  0  0  0
 15 24  1  0  0  0  0
 15 27  2  0  0  0  0
 16 25  2  0  0  0  0
 16 30  1  0  0  0  0
 17 29  2  0  0  0  0
 17 31  1  0  0  0  0
 18 32  1  0  0  0  0
 19 30  2  0  0  0  0
 19 34  1  0  0  0  0
 20 32  1  0  0  0  0
 20 33  2  0  0  0  0
 20 35  1  0  0  0  0
 21 23  2  0  0  0  0
 21 41  1  0  0  0  0
 22 24  2  0  0  0  0
 22 42  1  0  0  0  0
 23 50  1  0  0  0  0
 24 43  1  0  0  0  0
 25 69  1  0  0  0  0
 26 81  1  0  0  0  0
 27 82  1  0  0  0  0
 28 31  2  0  0  0  0
 28 81  1  0  0  0  0
 29 83  1  0  0  0  0
 30 84  1  0  0  0  0
 31 85  1  0  0  0  0
 32 63  2  0  0  0  0
 33 64  1  0  0  0  0
 33 67  1  0  0  0  0
 34 70  1  0  0  0  0
 34 74  2  0  0  0  0
 35 68  1  0  0  0  0
 35 75  2  0  0  0  0
 36 51  1  0  0  0  0
 36 71  1  0  0  0  0
 36 76  2  0  0  0  0
 37 58  1  0  0  0  0
 37 59  1  0  0  0  0
 37 77  2  0  0  0  0
 38 60  1  0  0  0  0
 38 65  1  0  0  0  0
 38 78  2  0  0  0  0
 39 61  1  0  0  0  0
 39 72  1  0  0  0  0
 39 79  2  0  0  0  0
 40 66  1  0  0  0  0
 40 70  1  0  0  0  0
 40 80  2  0  0  0  0
 41 44  1  0  0  0  0
 42 51  1  0  0  0  0
 43 65  1  0  0  0  0
 44 46  1  0  0  0  0
 45 47  1  0  0  0  0
 45 48  1  0  0  0  0
 46 50  1  0  0  0  0
 47 52  1  0  0  0  0
 48 66  1  0  0  0  0
 49 52  1  0  0  0  0
 49 66  1  0  0  0  0
 50 71  1  0  0  0  0
 51 65  1  0  0  0  0
 52 64  1  0  0  0  0
 53 61  1  0  0  0  0
 54 62  1  0  0  0  0
 55 62  1  0  0  0  0
 56 62  1  0  0  0  0
 57 73  1  0  0  0  0
 58 69  1  0  0  0  0
 59 82  1  0  0  0  0
 60 62  1  0  0  0  0
 60 72  1  0  0  0  0
 61 73  1  0  0  0  0
 63 64  1  0  0  0  0
M  CHG  1  73   1
M  ISO  4  40 100  59 101  70 100  82 101
M  END
> <Batch ID>
0096

> <Smiles>
CNC(C)C(=O)NC(C(=O)N1Cc2cc([101O:1][101CH2:1]C(=O)CNc3ccc(C(=O)[100NH:0][100C:0](=O)N4CCCC(n5nc(-c6ccc(Oc7ccc(F)cc7F)cc6)c(C(N)=O)c5N)C4)c(F)c3)ccc2CC1C(=O)NC1CCCc2ccccc21)C(C)(C)C

> <Shape>
0.272

> <Color>
0.117

> <Negative vol penalty>
0.000

$$$$

  -OEChem-04052300463D

 85 93  0     1  0  0  0  0  0999 V2000
  -29.8586  -11.6536   19.1765 C   0  0  0  0  0  0  0  0  0  0  0  0
  -30.1447  -12.9654   18.8125 C   0  0  0  0  0  0  0  0  0  0  0  0
  -19.3403  -21.8725   25.3868 C   0  0  0  0  0  0  0  0  0  0  0  0
  -17.3065  -21.6004   24.1113 C   0  0  0  0  0  0  0  0  0  0  0  0
  -28.6619  -11.3573   19.8277 C   0  0  0  0  0  0  0  0  0  0  0  0
  -29.2338  -13.9817   19.0985 C   0  0  0  0  0  0  0  0  0  0  0  0
  -30.5331  -19.7725   20.6098 C   0  0  0  0  0  0  0  0  0  0  0  0
  -18.9142  -20.8865   26.2766 C   0  0  0  0  0  0  0  0  0  0  0  0
  -16.8804  -20.6143   25.0011 C   0  0  0  0  0  0  0  0  0  0  0  0
  -30.5635  -20.9517   19.8665 C   0  0  0  0  0  0  0  0  0  0  0  0
  -18.7739  -17.5095   26.3721 C   0  0  0  0  0  0  0  0  0  0  0  0
  -19.6991  -16.5386   26.7555 C   0  0  0  0  0  0  0  0  0  0  0  0
  -28.3186  -21.4583   20.5894 C   0  0  0  0  0  0  0  0  0  0  0  0
  -26.5359  -28.4963   20.3660 C   0  0  0  0  0  0  0  0  0  0  0  0
  -24.9612  -27.1113   19.1663 C   0  0  0  0  0  0  0  0  0  0  0  0
  -19.4508  -17.2127   29.0622 C   0  0  0  0  0  0  0  0  0  0  0  0
  -18.5364  -22.2295   24.3041 C   0  0  0  0  0  0  0  0  0  0  0  0
  -24.1726  -28.9868   20.4692 C   0  0  0  0  0  0  0  0  0  0  0  0
  -19.7347  -23.0662   22.2133 C   0  0  0  0  0  0  0  0  0  0  0  0
  -27.7401  -12.3718   20.1305 C   0  0  0  0  0  0  0  0  0  0  0  0
  -29.3892  -19.4214   21.3410 C   0  0  0  0  0  0  0  0  0  0  0  0
  -28.0230  -13.6985   19.7532 C   0  0  0  0  0  0  0  0  0  0  0  0
  -28.2771  -20.2754   21.3433 C   0  0  0  0  0  0  0  0  0  0  0  0
  -25.4853  -29.2850   20.8346 C   0  0  0  0  0  0  0  0  0  0  0  0
  -26.2739  -27.4095   19.5318 C   0  0  0  0  0  0  0  0  0  0  0  0
  -17.6843  -20.2574   26.0838 C   0  0  0  0  0  0  0  0  0  0  0  0
  -29.4551  -21.7933   19.8539 C   0  0  0  0  0  0  0  0  0  0  0  0
  -18.1872  -18.3321   27.3338 C   0  0  0  0  0  0  0  0  0  0  0  0
  -20.0375  -16.3902   28.1005 C   0  0  0  0  0  0  0  0  0  0  0  0
  -23.9105  -27.9000   19.6351 C   0  0  0  0  0  0  0  0  0  0  0  0
  -18.5256  -18.1837   28.6789 C   0  0  0  0  0  0  0  0  0  0  0  0
  -18.9758  -23.2484   23.3849 C   0  0  0  0  0  0  0  0  0  0  0  0
  -19.8853  -24.3319   21.7016 C   0  0  0  0  0  0  0  0  0  0  0  0
  -23.0377  -29.8128   20.9557 C   0  0  0  0  0  0  0  0  0  0  0  0
  -20.2568  -21.8608   21.6389 C   0  0  0  0  0  0  0  0  0  0  0  0
  -27.3313  -17.0002   21.2609 C   0  0  0  0  0  0  0  0  0  0  0  0
  -26.1556  -18.4210   23.9295 C   0  0  0  0  0  0  0  0  0  0  0  0
  -25.8024  -21.2661   25.7809 C   0  0  0  0  0  0  0  0  0  0  0  0
  -20.9597  -29.7346   22.2972 C   0  0  0  0  0  0  0  0  0  0  0  0
  -26.4386  -11.9960   20.7934 C   0  0  0  0  0  0  0  0  0  0  0  0
  -29.3821  -18.1593   22.1591 C   0  0  0  0  0  0  0  0  0  0  0  0
  -27.0322  -19.9541   22.1277 C   0  0  0  0  0  0  0  0  0  0  0  0
  -25.6952  -13.1861   21.3944 C   0  0  0  0  0  0  0  0  0  0  0  0
  -17.6516  -28.6936   22.9825 C   0  0  0  0  0  0  0  0  0  0  0  0
  -25.6562  -14.3463   20.4048 C   0  0  0  0  0  0  0  0  0  0  0  0
  -17.7588  -27.1675   23.0447 C   0  0  0  0  0  0  0  0  0  0  0  0
  -18.8766  -29.3738   23.5919 C   0  0  0  0  0  0  0  0  0  0  0  0
  -20.2733  -27.4018   23.1245 C   0  0  0  0  0  0  0  0  0  0  0  0
  -27.0712  -14.8321   20.0682 C   0  0  1  0  0  0  0  0  0  0  0  0
  -27.9760  -17.6465   22.4544 C   0  0  1  0  0  0  0  0  0  0  0  0
  -19.0960  -26.6701   22.4599 C   0  0  1  0  0  0  0  0  0  0  0  0
  -25.7941  -30.4430   21.7266 C   0  0  0  0  0  0  0  0  0  0  0  0
  -24.7577  -22.1233   27.8953 C   0  0  0  0  0  0  0  0  0  0  0  0
  -23.4184  -18.4033   22.5814 C   0  0  0  0  0  0  0  0  0  0  0  0
  -22.6498  -20.0773   24.2771 C   0  0  0  0  0  0  0  0  0  0  0  0
  -23.3886  -17.8105   25.0108 C   0  0  0  0  0  0  0  0  0  0  0  0
  -28.4297  -22.0387   26.9029 C   0  0  0  0  0  0  0  0  0  0  0  0
  -29.3875  -25.3405   19.2269 C   0  0  0  0  0  0  0  0  0  0  0  0
  -28.6204  -26.5750   19.6847 C   0  0  0  0  0  0  0  0  0  0  0  0
  -28.7008  -24.0359   19.6135 C   0  0  0  0  0  0  0  0  0  1  0  0
  -25.1125  -19.4763   24.2076 C   0  0  1  0  0  0  0  0  0  0  0  0
  -26.0090  -21.5374   27.2601 C   0  0  2  0  0  0  0  0  0  0  0  0
  -23.6649  -18.9472   24.0028 C   0  0  0  0  0  0  0  0  0  0  0  0
  -18.6660  -24.5289   23.6048 N   0  0  0  0  0  0  0  0  0  0  0  0
  -19.2331  -25.1629   22.5643 N   0  0  0  0  0  0  0  0  0  0  0  0
  -27.0716  -18.7056   22.9069 N   0  0  0  0  0  0  0  0  0  0  0  0
  -20.1003  -28.8549   22.9783 N   0  0  0  0  0  0  0  0  0  0  0  0
  -20.5107  -24.8040   20.6023 N   0  0  0  0  0  0  0  0  0  0  0  0
  -20.0093  -20.6467   22.2940 N   0  0  0  0  0  0  0  0  0  0  0  0
  -27.3178  -26.6255   19.0658 N   0  0  0  0  0  0  0  0  0  0  0  0
  -22.0793  -29.1350   21.7096 N   0  0  0  0  0  0  0  0  0  0  0  0
  -27.5941  -15.6488   21.1425 N   0  0  0  0  0  0  0  0  0  0  0  0
  -25.3826  -19.9726   25.5526 N   0  0  0  0  0  0  0  0  0  0  0  0
  -27.1309  -22.4981   27.4587 N   0  3  0  0  0  0  0  0  0  0  0  0
  -23.0252  -31.0159   20.7102 O   0  0  0  0  0  0  0  0  0  0  0  0
  -20.9370  -21.8621   20.5849 O   0  0  0  0  0  0  0  0  0  0  0  0
  -26.6451  -17.6772   20.5043 O   0  0  0  0  0  0  0  0  0  0  0  0
  -26.1619  -17.3855   24.5998 O   0  0  0  0  0  0  0  0  0  0  0  0
  -25.9907  -22.1175   24.9148 O   0  0  0  0  0  0  0  0  0  0  0  0
  -20.7307  -30.9433   22.1885 O   0  0  0  0  0  0  0  0  0  0  0  0
  -17.2683  -19.2950   26.9518 O   0  0  0  0  0  0  0  0  0  0  0  0
  -29.4820  -22.9445   19.1287 O   0  0  0  0  0  0  0  0  0  1  0  0
  -20.9248  -15.4567   28.4686 F   0  0  0  0  0  0  0  0  0  0  0  0
  -22.6531  -27.6031   19.2767 F   0  0  0  0  0  0  0  0  0  0  0  0
  -17.9644  -18.9702   29.6074 F   0  0  0  0  0  0  0  0  0  0  0  0
  1  2  1  0  0  0  0
  1  5  2  0  0  0  0
  2  6  2  0  0  0  0
  3  8  2  0  0  0  0
  3 17  1  0  0  0  0
  4  9  1  0  0  0  0
  4 17  2  0  0  0  0
  5 20  1  0  0  0  0
  6 22  1  0  0  0  0
  7 10  2  0  0  0  0
  7 21  1  0  0  0  0
  8 26  1  0  0  0  0
  9 26  2  0  0  0  0
 10 27  1  0  0  0  0
 11 12  2  0  0  0  0
 11 28  1  0  0  0  0
 12 29  1  0  0  0  0
 13 23  1  0  0  0  0
 13 27  2  0  0  0  0
 14 24  2  0  0  0  0
 14 25  1  0  0  0  0
 15 25  2  0  0  0  0
 15 30  1  0  0  0  0
 16 29  2  0  0  0  0
 16 31  1  0  0  0  0
 17 32  1  0  0  0  0
 18 24  1  0  0  0  0
 18 30  2  0  0  0  0
 18 34  1  0  0  0  0
 19 32  1  0  0  0  0
 19 33  2  0  0  0  0
 19 35  1  0  0  0  0
 20 22  2  0  0  0  0
 20 40  1  0  0  0  0
 21 23  2  0  0  0  0
 21 41  1  0  0  0  0
 22 49  1  0  0  0  0
 23 42  1  0  0  0  0
 24 52  1  0  0  0  0
 25 70  1  0  0  0  0
 26 81  1  0  0  0  0
 27 82  1  0  0  0  0
 28 31  2  0  0  0  0
 28 81  1  0  0  0  0
 29 83  1  0  0  0  0
 30 84  1  0  0  0  0
 31 85  1  0  0  0  0
 32 64  2  0  0  0  0
 33 65  1  0  0  0  0
 33 68  1  0  0  0  0
 34 71  1  0  0  0  0
 34 75  2  0  0  0  0
 35 69  1  0  0  0  0
 35 76  2  0  0  0  0
 36 50  1  0  0  0  0
 36 72  1  0  0  0  0
 36 77  2  0  0  0  0
 37 61  1  0  0  0  0
 37 66  1  0  0  0  0
 37 78  2  0  0  0  0
 38 62  1  0  0  0  0
 38 73  1  0  0  0  0
 38 79  2  0  0  0  0
 39 67  1  0  0  0  0
 39 71  1  0  0  0  0
 39 80  2  0  0  0  0
 40 43  1  0  0  0  0
 41 50  1  0  0  0  0
 42 66  1  0  0  0  0
 43 45  1  0  0  0  0
 44 46  1  0  0  0  0
 44 47  1  0  0  0  0
 45 49  1  0  0  0  0
 46 51  1  0  0  0  0
 47 67  1  0  0  0  0
 48 51  1  0  0  0  0
 48 67  1  0  0  0  0
 49 72  1  0  0  0  0
 50 66  1  0  0  0  0
 51 65  1  0  0  0  0
 53 62  1  0  0  0  0
 54 63  1  0  0  0  0
 55 63  1  0  0  0  0
 56 63  1  0  0  0  0
 57 74  1  0  0  0  0
 58 59  1  0  0  0  0
 58 60  1  0  0  0  0
 59 70  1  0  0  0  0
 60 82  1  0  0  0  0
 61 63  1  0  0  0  0
 61 73  1  0  0  0  0
 62 74  1  0  0  0  0
 64 65  1  0  0  0  0
M  CHG  1  74   1
M  ISO  4  39 100  60 101  71 100  82 101
M  END
> <Batch ID>
0096

> <Smiles>
CNC(C)C(=O)NC(C(=O)N1Cc2cc([101O:1][101CH2:1]CCNc3cc(C)c(C(=O)[100NH:0][100C:0](=O)N4CCCC(n5nc(-c6ccc(Oc7ccc(F)cc7F)cc6)c(C(N)=O)c5N)C4)c(F)c3)ccc2CC1C(=O)NC1CCCc2ccccc21)C(C)(C)C

> <Shape>
0.227

> <Color>
0.062

> <Negative vol penalty>
0.000

$$$$

  -OEChem-04052300463D

 89 98  0     1  0  0  0  0  0999 V2000
  -24.7855  -35.2142   21.8912 C   0  0  0  0  0  0  0  0  0  0  0  0
  -25.5299  -34.0403   21.8362 C   0  0  0  0  0  0  0  0  0  0  0  0
  -23.0697  -15.5313   24.1304 C   0  0  0  0  0  0  0  0  0  0  0  0
  -22.5511  -16.5172   21.9865 C   0  0  0  0  0  0  0  0  0  0  0  0
  -23.5144  -35.2061   22.4640 C   0  0  0  0  0  0  0  0  0  0  0  0
  -25.0040  -32.8576   22.3551 C   0  0  0  0  0  0  0  0  0  0  0  0
  -25.7264  -28.8977   19.2823 C   0  0  0  0  0  0  0  0  0  0  0  0
  -31.1811  -19.8288   17.3074 C   0  0  0  0  0  0  0  0  0  0  0  0
  -31.3364  -21.2110   17.4115 C   0  0  0  0  0  0  0  0  0  0  0  0
  -22.0444  -16.2716   24.7189 C   0  0  0  0  0  0  0  0  0  0  0  0
  -21.5257  -17.2575   22.5750 C   0  0  0  0  0  0  0  0  0  0  0  0
  -26.9959  -28.3212   19.2743 C   0  0  0  0  0  0  0  0  0  0  0  0
  -18.5373  -19.1366   23.4447 C   0  0  0  0  0  0  0  0  0  0  0  0
  -17.3116  -19.1899   22.7811 C   0  0  0  0  0  0  0  0  0  0  0  0
  -26.2042  -26.5722   20.7350 C   0  0  0  0  0  0  0  0  0  0  0  0
  -28.9545  -21.4543   17.7347 C   0  0  0  0  0  0  0  0  0  0  0  0
  -17.1214  -16.7866   22.9392 C   0  0  0  0  0  0  0  0  0  0  0  0
  -23.3231  -15.6541   22.7642 C   0  0  0  0  0  0  0  0  0  0  0  0
  -24.2861  -13.6055   21.5881 C   0  0  0  0  0  0  0  0  0  0  0  0
  -22.9687  -34.0207   22.9815 C   0  0  0  0  0  0  0  0  0  0  0  0
  -24.6875  -28.3208   20.0267 C   0  0  0  0  0  0  0  0  0  0  0  0
  -23.7250  -32.8339   22.9366 C   0  0  0  0  0  0  0  0  0  0  0  0
  -24.9219  -27.1419   20.7487 C   0  0  0  0  0  0  0  0  0  0  0  0
  -29.9124  -19.2593   17.4169 C   0  0  0  0  0  0  0  0  0  0  0  0
  -30.2231  -22.0238   17.6252 C   0  0  0  0  0  0  0  0  0  0  0  0
  -21.2724  -17.1347   23.9412 C   0  0  0  0  0  0  0  0  0  0  0  0
  -27.2357  -27.1600   20.0030 C   0  0  0  0  0  0  0  0  0  0  0  0
  -19.0551  -17.9082   23.8556 C   0  0  0  0  0  0  0  0  0  0  0  0
  -16.6037  -18.0150   22.5283 C   0  0  0  0  0  0  0  0  0  0  0  0
  -28.7992  -20.0720   17.6306 C   0  0  0  0  0  0  0  0  0  0  0  0
  -18.3471  -16.7333   23.6029 C   0  0  0  0  0  0  0  0  0  0  0  0
  -24.3824  -14.8901   22.1558 C   0  0  0  0  0  0  0  0  0  0  0  0
  -25.5581  -13.3269   21.1513 C   0  0  0  0  0  0  0  0  0  0  0  0
  -31.3685  -24.2204   17.1012 C   0  0  0  0  0  0  0  0  0  0  0  0
  -23.1485  -12.7413   21.4663 C   0  0  0  0  0  0  0  0  0  0  0  0
  -22.8813  -29.2676   22.4650 C   0  0  0  0  0  0  0  0  0  0  0  0
  -21.3369  -26.4714   21.9006 C   0  0  0  0  0  0  0  0  0  0  0  0
  -21.4435  -23.3102   20.6191 C   0  0  0  0  0  0  0  0  0  0  0  0
  -30.1685  -16.7934   19.5452 C   0  0  0  0  0  0  0  0  0  0  0  0
  -21.6098  -34.0712   23.6336 C   0  0  0  0  0  0  0  0  0  0  0  0
  -23.3169  -28.9400   20.0035 C   0  0  0  0  0  0  0  0  0  0  0  0
  -23.8351  -26.4720   21.5478 C   0  0  0  0  0  0  0  0  0  0  0  0
  -31.0739  -25.6666   17.4278 C   0  0  0  0  0  0  0  0  0  0  0  0
  -20.9736  -32.6966   23.8231 C   0  0  0  0  0  0  0  0  0  0  0  0
  -30.1428  -14.3131   22.0995 C   0  0  0  0  0  0  0  0  0  0  0  0
  -21.9848  -31.7166   24.4094 C   0  0  0  0  0  0  0  0  0  0  0  0
  -28.6549  -14.0638   22.3524 C   0  0  0  0  0  0  0  0  0  0  0  0
  -30.4246  -15.7822   21.7921 C   0  0  0  0  0  0  0  0  0  0  0  0
  -29.4502  -24.2664   18.4721 C   0  0  0  0  0  0  0  0  0  0  0  0
  -28.1313  -16.1016   20.9480 C   0  0  0  0  0  0  0  0  0  0  0  0
  -23.1789  -31.5258   23.4664 C   0  0  1  0  0  0  0  0  0  0  0  0
  -22.4663  -28.5538   21.2096 C   0  0  1  0  0  0  0  0  0  0  0  0
  -30.1912  -25.5807   18.6647 C   0  0  2  0  0  0  0  0  0  0  0  0
  -27.7899  -14.6243   21.2073 C   0  0  2  0  0  0  0  0  0  0  0  0
  -28.4633  -17.1607   13.6678 C   0  0  0  0  0  0  0  0  0  0  0  0
  -20.0391  -21.2494   20.3399 C   0  0  0  0  0  0  0  0  0  0  0  0
  -21.7539  -25.7912   24.8457 C   0  0  0  0  0  0  0  0  0  0  0  0
  -21.2121  -23.4085   24.3002 C   0  0  0  0  0  0  0  0  0  0  0  0
  -19.5004  -25.1879   23.9446 C   0  0  0  0  0  0  0  0  0  0  0  0
  -21.6135  -23.4533   17.6679 C   0  0  0  0  0  0  0  0  0  0  0  0
  -29.2632  -26.7728   18.8218 C   0  0  0  0  0  0  0  0  0  1  0  0
  -29.3543  -17.7004   14.7760 C   0  0  0  0  0  0  0  0  0  0  0  0
  -28.8215  -17.3135   16.1589 C   0  0  0  0  0  0  0  0  0  0  0  0
  -29.7510  -17.7805   17.3068 C   0  0  2  0  0  0  0  0  0  0  0  0
  -21.4870  -25.0501   22.3869 C   0  0  1  0  0  0  0  0  0  0  0  0
  -20.4875  -22.5590   19.7102 C   0  0  2  0  0  0  0  0  0  0  0  0
  -21.0095  -24.8729   23.8559 C   0  0  0  0  0  0  0  0  0  0  0  0
  -25.6180  -15.3927   22.0875 N   0  0  0  0  0  0  0  0  0  0  0  0
  -26.3098  -14.4189   21.4718 N   0  0  0  0  0  0  0  0  0  0  0  0
  -30.3817  -23.4380   17.7298 N   0  0  0  0  0  0  0  0  0  0  0  0
  -22.5136  -27.1191   21.4986 N   0  0  0  0  0  0  0  0  0  0  0  0
  -29.5732  -16.2513   20.6962 N   0  0  0  0  0  0  0  0  0  0  0  0
  -26.0958  -12.2568   20.5283 N   0  0  0  0  0  0  0  0  0  0  0  0
  -21.9169  -13.1834   21.9684 N   0  0  0  0  0  0  0  0  0  0  0  0
  -22.8245  -30.6452   22.3740 N   0  0  0  0  0  0  0  0  0  0  0  0
  -20.7805  -24.2124   21.4238 N   0  0  0  0  0  0  0  0  0  0  0  0
  -29.2897  -17.2080   18.5519 N   0  0  0  0  0  0  0  0  0  0  0  0
  -21.1435  -22.2536   18.4074 N   0  3  0  0  0  0  0  0  0  0  0  0
  -32.2860  -23.8881   16.3646 O   0  0  0  0  0  0  0  0  0  0  0  0
  -23.2256  -11.6039   20.9430 O   0  0  0  0  0  0  0  0  0  0  0  0
  -23.2261  -28.6165   23.4443 O   0  0  0  0  0  0  0  0  0  0  0  0
  -20.2160  -26.9854   21.8715 O   0  0  0  0  0  0  0  0  0  0  0  0
  -22.6567  -23.1134   20.6181 O   0  0  0  0  0  0  0  0  0  0  0  0
  -31.3926  -16.8950   19.4104 O   0  0  0  0  0  0  0  0  0  0  0  0
  -20.2717  -17.8570   24.5151 O   0  0  0  0  0  0  0  0  0  0  0  0
  -28.4740  -26.5956   19.9974 O   0  0  0  0  0  0  0  0  0  1  0  0
  -15.4259  -18.0665   21.8924 F   0  0  0  0  0  0  0  0  0  0  0  0
  -27.5762  -19.5341   17.7372 F   0  0  0  0  0  0  0  0  0  0  0  0
  -18.8389  -15.5504   23.9963 F   0  0  0  0  0  0  0  0  0  0  0  0
  1  2  1  0  0  0  0
  1  5  2  0  0  0  0
  2  6  2  0  0  0  0
  3 10  2  0  0  0  0
  3 18  1  0  0  0  0
  4 11  1  0  0  0  0
  4 18  2  0  0  0  0
  5 20  1  0  0  0  0
  6 22  1  0  0  0  0
  7 12  2  0  0  0  0
  7 21  1  0  0  0  0
  8  9  2  0  0  0  0
  8 24  1  0  0  0  0
  9 25  1  0  0  0  0
 10 26  1  0  0  0  0
 11 26  2  0  0  0  0
 12 27  1  0  0  0  0
 13 14  2  0  0  0  0
 13 28  1  0  0  0  0
 14 29  1  0  0  0  0
 15 23  1  0  0  0  0
 15 27  2  0  0  0  0
 16 25  2  0  0  0  0
 16 30  1  0  0  0  0
 17 29  2  0  0  0  0
 17 31  1  0  0  0  0
 18 32  1  0  0  0  0
 19 32  1  0  0  0  0
 19 33  2  0  0  0  0
 19 35  1  0  0  0  0
 20 22  2  0  0  0  0
 20 40  1  0  0  0  0
 21 23  2  0  0  0  0
 21 41  1  0  0  0  0
 22 51  1  0  0  0  0
 23 42  1  0  0  0  0
 24 30  2  0  0  0  0
 24 64  1  0  0  0  0
 25 70  1  0  0  0  0
 26 85  1  0  0  0  0
 27 86  1  0  0  0  0
 28 31  2  0  0  0  0
 28 85  1  0  0  0  0
 29 87  1  0  0  0  0
 30 88  1  0  0  0  0
 31 89  1  0  0  0  0
 32 68  2  0  0  0  0
 33 69  1  0  0  0  0
 33 73  1  0  0  0  0
 34 43  1  0  0  0  0
 34 70  1  0  0  0  0
 34 79  2  0  0  0  0
 35 74  1  0  0  0  0
 35 80  2  0  0  0  0
 36 52  1  0  0  0  0
 36 75  1  0  0  0  0
 36 81  2  0  0  0  0
 37 65  1  0  0  0  0
 37 71  1  0  0  0  0
 37 82  2  0  0  0  0
 38 66  1  0  0  0  0
 38 76  1  0  0  0  0
 38 83  2  0  0  0  0
 39 72  1  0  0  0  0
 39 77  1  0  0  0  0
 39 84  2  0  0  0  0
 40 44  1  0  0  0  0
 41 52  1  0  0  0  0
 42 71  1  0  0  0  0
 43 53  1  0  0  0  0
 44 46  1  0  0  0  0
 45 47  1  0  0  0  0
 45 48  1  0  0  0  0
 46 51  1  0  0  0  0
 47 54  1  0  0  0  0
 48 72  1  0  0  0  0
 49 53  1  0  0  0  0
 49 70  1  0  0  0  0
 50 54  1  0  0  0  0
 50 72  1  0  0  0  0
 51 75  1  0  0  0  0
 52 71  1  0  0  0  0
 53 61  1  0  0  0  0
 54 69  1  0  0  0  0
 55 62  1  0  0  0  0
 56 66  1  0  0  0  0
 57 67  1  0  0  0  0
 58 67  1  0  0  0  0
 59 67  1  0  0  0  0
 60 78  1  0  0  0  0
 61 86  1  0  0  0  0
 62 63  1  0  0  0  0
 63 64  1  0  0  0  0
 64 77  1  0  0  0  0
 65 67  1  0  0  0  0
 65 76  1  0  0  0  0
 66 78  1  0  0  0  0
 68 69  1  0  0  0  0
M  CHG  1  78   1
M  ISO  4  39 100  61 101  77 100  86 101
M  END
> <Batch ID>
0096

> <Smiles>
CCCC([100NH:0][100C:0](=O)N1CCCC(n2nc(-c3ccc(Oc4ccc(F)cc4F)cc3)c(C(N)=O)c2N)C1)c1ccc(N2CC([101CH2:1][101O:1]c3ccc4c(c3)CN(C(=O)C(NC(=O)C(C)NC)C(C)(C)C)C(C(=O)NC3CCCc5ccccc53)C4)CC2=O)cc1F

> <Shape>
0.207

> <Color>
0.084

> <Negative vol penalty>
0.000

$$$$

  -OEChem-04052300463D

 88 97  0     1  0  0  0  0  0999 V2000
  -16.5876  -15.2845   33.6472 C   0  0  0  0  0  0  0  0  0  0  0  0
  -17.3320  -14.5932   32.6967 C   0  0  0  0  0  0  0  0  0  0  0  0
  -22.8458  -10.1057   20.1094 C   0  0  0  0  0  0  0  0  0  0  0  0
  -24.2749   -9.5474   21.9757 C   0  0  0  0  0  0  0  0  0  0  0  0
  -16.9376  -16.5896   33.9907 C   0  0  0  0  0  0  0  0  0  0  0  0
  -18.4262  -15.2071   32.0883 C   0  0  0  0  0  0  0  0  0  0  0  0
  -25.0179  -12.3387   32.5501 C   0  0  0  0  0  0  0  0  0  0  0  0
  -32.3510  -11.3593   25.3283 C   0  0  0  0  0  0  0  0  0  0  0  0
  -32.0846  -10.5929   26.4628 C   0  0  0  0  0  0  0  0  0  0  0  0
  -22.1365   -8.9195   20.2976 C   0  0  0  0  0  0  0  0  0  0  0  0
  -23.5655   -8.3612   22.1640 C   0  0  0  0  0  0  0  0  0  0  0  0
  -26.2717  -11.7422   32.4150 C   0  0  0  0  0  0  0  0  0  0  0  0
  -20.6333   -7.4071   23.5468 C   0  0  0  0  0  0  0  0  0  0  0  0
  -20.2737   -7.0689   24.8514 C   0  0  0  0  0  0  0  0  0  0  0  0
  -27.0700  -13.6714   31.1948 C   0  0  0  0  0  0  0  0  0  0  0  0
  -29.9690  -11.7281   26.7329 C   0  0  0  0  0  0  0  0  0  0  0  0
  -21.5428   -5.0211   24.6702 C   0  0  0  0  0  0  0  0  0  0  0  0
  -23.9151  -10.4196   20.9484 C   0  0  0  0  0  0  0  0  0  0  0  0
  -24.1417  -12.9567   20.8087 C   0  0  0  0  0  0  0  0  0  0  0  0
  -18.0425  -17.2165   33.3932 C   0  0  0  0  0  0  0  0  0  0  0  0
  -24.7897  -13.6120   32.0208 C   0  0  0  0  0  0  0  0  0  0  0  0
  -18.7905  -16.5224   32.4231 C   0  0  0  0  0  0  0  0  0  0  0  0
  -25.8199  -14.2792   31.3379 C   0  0  0  0  0  0  0  0  0  0  0  0
  -31.4264  -12.3102   24.8960 C   0  0  0  0  0  0  0  0  0  0  0  0
  -30.8936  -10.7773   27.1651 C   0  0  0  0  0  0  0  0  0  0  0  0
  -22.4963   -8.0473   21.3249 C   0  0  0  0  0  0  0  0  0  0  0  0
  -27.2951  -12.4068   31.7388 C   0  0  0  0  0  0  0  0  0  0  0  0
  -21.4475   -6.5523   22.8039 C   0  0  0  0  0  0  0  0  0  0  0  0
  -20.7285   -5.8759   25.4131 C   0  0  0  0  0  0  0  0  0  0  0  0
  -30.2354  -12.4945   25.5983 C   0  0  0  0  0  0  0  0  0  0  0  0
  -21.9023   -5.3593   23.3656 C   0  0  0  0  0  0  0  0  0  0  0  0
  -24.6486  -11.6445   20.7541 C   0  0  0  0  0  0  0  0  0  0  0  0
  -25.2302  -13.7560   20.5580 C   0  0  0  0  0  0  0  0  0  0  0  0
  -31.1301   -8.6804   28.4679 C   0  0  0  0  0  0  0  0  0  0  0  0
  -22.8063  -13.4124   21.0634 C   0  0  0  0  0  0  0  0  0  0  0  0
  -22.3721  -16.4368   31.5189 C   0  0  0  0  0  0  0  0  0  0  0  0
  -25.0910  -17.6968   32.1752 C   0  0  0  0  0  0  0  0  0  0  0  0
  -27.6351  -19.7085   33.2324 C   0  0  0  0  0  0  0  0  0  0  0  0
  -31.1216  -12.9648   21.2766 C   0  0  0  0  0  0  0  0  0  0  0  0
  -18.3537  -18.6453   33.7622 C   0  0  0  0  0  0  0  0  0  0  0  0
  -23.4369  -14.2670   32.0891 C   0  0  0  0  0  0  0  0  0  0  0  0
  -25.5186  -15.6328   30.7548 C   0  0  0  0  0  0  0  0  0  0  0  0
  -31.0547   -8.0550   29.8480 C   0  0  0  0  0  0  0  0  0  0  0  0
  -19.7527  -19.0913   33.3448 C   0  0  0  0  0  0  0  0  0  0  0  0
  -29.8240   -8.4374   30.6404 C   0  0  0  0  0  0  0  0  0  0  0  0
  -29.4215  -13.7589   18.2507 C   0  0  0  0  0  0  0  0  0  0  0  0
  -20.0401  -18.6713   31.9068 C   0  0  0  0  0  0  0  0  0  0  0  0
  -27.9597  -13.4255   18.5541 C   0  0  0  0  0  0  0  0  0  0  0  0
  -30.3761  -12.7739   18.9220 C   0  0  0  0  0  0  0  0  0  0  0  0
  -29.6202  -10.5081   29.2937 C   0  0  0  0  0  0  0  0  0  0  0  0
  -28.7191  -12.2814   20.6786 C   0  0  0  0  0  0  0  0  0  0  0  0
  -19.9992  -17.1455   31.7591 C   0  0  1  0  0  0  0  0  0  0  0  0
  -23.5141  -15.7957   32.2513 C   0  0  1  0  0  0  0  0  0  0  0  0
  -29.7376   -9.9530   30.7124 C   0  0  1  0  0  0  0  0  0  0  0  0
  -27.7205  -13.2802   20.0690 C   0  0  2  0  0  0  0  0  0  0  0  0
  -31.7664  -14.6328   23.9734 C   0  0  0  0  0  0  0  0  0  0  0  0
  -28.5022  -22.0552   33.0363 C   0  0  0  0  0  0  0  0  0  0  0  0
  -26.1214  -17.0779   29.3718 C   0  0  0  0  0  0  0  0  0  0  0  0
  -27.7207  -18.9888   29.6146 C   0  0  0  0  0  0  0  0  0  0  0  0
  -25.2622  -19.4066   29.6773 C   0  0  0  0  0  0  0  0  0  0  0  0
  -27.3760  -20.1711   36.1440 C   0  0  0  0  0  0  0  0  0  0  0  0
  -28.5520  -10.3946   31.5678 C   0  0  0  0  0  0  0  0  0  1  0  0
  -31.7143  -13.1263   23.6811 C   0  0  2  0  0  0  0  0  0  0  0  0
  -26.3778  -18.2761   31.6443 C   0  0  1  0  0  0  0  0  0  0  0  0
  -27.6337  -21.0997   33.8397 C   0  0  2  0  0  0  0  0  0  0  0  0
  -26.3705  -18.4160   30.0959 C   0  0  0  0  0  0  0  0  0  0  0  0
  -25.9572  -11.6079   20.4893 N   0  0  0  0  0  0  0  0  0  0  0  0
  -26.2818  -12.9070   20.3753 N   0  0  0  0  0  0  0  0  0  0  0  0
  -30.6180   -9.9834   28.3436 N   0  0  0  0  0  0  0  0  0  0  0  0
  -24.7295  -16.4268   31.7095 N   0  0  0  0  0  0  0  0  0  0  0  0
  -30.0974  -12.6838   20.3573 N   0  0  0  0  0  0  0  0  0  0  0  0
  -25.3807  -15.0951   20.4783 N   0  0  0  0  0  0  0  0  0  0  0  0
  -21.8085  -12.4574   21.3014 N   0  0  0  0  0  0  0  0  0  0  0  0
  -21.2181  -16.5555   32.2696 N   0  0  0  0  0  0  0  0  0  0  0  0
  -26.5846  -19.5322   32.3569 N   0  0  0  0  0  0  0  0  0  0  0  0
  -30.7713  -12.8620   22.6173 N   0  0  0  0  0  0  0  0  0  0  0  0
  -28.1512  -21.0557   35.2365 N   0  3  0  0  0  0  0  0  0  0  0  0
  -31.6817   -8.0384   27.5699 O   0  0  0  0  0  0  0  0  0  0  0  0
  -22.5035  -14.6297   21.0631 O   0  0  0  0  0  0  0  0  0  0  0  0
  -22.5259  -16.7990   30.3584 O   0  0  0  0  0  0  0  0  0  0  0  0
  -24.4196  -18.3527   32.9766 O   0  0  0  0  0  0  0  0  0  0  0  0
  -28.4855  -18.8638   33.5044 O   0  0  0  0  0  0  0  0  0  0  0  0
  -32.2621  -13.2888   20.9284 O   0  0  0  0  0  0  0  0  0  0  0  0
  -21.8042   -6.8899   21.5091 O   0  0  0  0  0  0  0  0  0  0  0  0
  -28.5181  -11.8205   31.6144 O   0  0  0  0  0  0  0  0  0  1  0  0
  -20.3845   -5.5520   26.6665 F   0  0  0  0  0  0  0  0  0  0  0  0
  -29.3409  -13.4056   25.1906 F   0  0  0  0  0  0  0  0  0  0  0  0
  -22.6858   -4.5346   22.6572 F   0  0  0  0  0  0  0  0  0  0  0  0
  1  2  1  0  0  0  0
  1  5  2  0  0  0  0
  2  6  2  0  0  0  0
  3 10  2  0  0  0  0
  3 18  1  0  0  0  0
  4 11  1  0  0  0  0
  4 18  2  0  0  0  0
  5 20  1  0  0  0  0
  6 22  1  0  0  0  0
  7 12  2  0  0  0  0
  7 21  1  0  0  0  0
  8  9  2  0  0  0  0
  8 24  1  0  0  0  0
  9 25  1  0  0  0  0
 10 26  1  0  0  0  0
 11 26  2  0  0  0  0
 12 27  1  0  0  0  0
 13 14  2  0  0  0  0
 13 28  1  0  0  0  0
 14 29  1  0  0  0  0
 15 23  1  0  0  0  0
 15 27  2  0  0  0  0
 16 25  2  0  0  0  0
 16 30  1  0  0  0  0
 17 29  2  0  0  0  0
 17 31  1  0  0  0  0
 18 32  1  0  0  0  0
 19 32  1  0  0  0  0
 19 33  2  0  0  0  0
 19 35  1  0  0  0  0
 20 22  2  0  0  0  0
 20 40  1  0  0  0  0
 21 23  2  0  0  0  0
 21 41  1  0  0  0  0
 22 52  1  0  0  0  0
 23 42  1  0  0  0  0
 24 30  2  0  0  0  0
 24 63  1  0  0  0  0
 25 69  1  0  0  0  0
 26 84  1  0  0  0  0
 27 85  1  0  0  0  0
 28 31  2  0  0  0  0
 28 84  1  0  0  0  0
 29 86  1  0  0  0  0
 30 87  1  0  0  0  0
 31 88  1  0  0  0  0
 32 67  2  0  0  0  0
 33 68  1  0  0  0  0
 33 72  1  0  0  0  0
 34 43  1  0  0  0  0
 34 69  1  0  0  0  0
 34 78  2  0  0  0  0
 35 73  1  0  0  0  0
 35 79  2  0  0  0  0
 36 53  1  0  0  0  0
 36 74  1  0  0  0  0
 36 80  2  0  0  0  0
 37 64  1  0  0  0  0
 37 70  1  0  0  0  0
 37 81  2  0  0  0  0
 38 65  1  0  0  0  0
 38 75  1  0  0  0  0
 38 82  2  0  0  0  0
 39 71  1  0  0  0  0
 39 76  1  0  0  0  0
 39 83  2  0  0  0  0
 40 44  1  0  0  0  0
 41 53  1  0  0  0  0
 42 70  1  0  0  0  0
 43 45  1  0  0  0  0
 44 47  1  0  0  0  0
 45 54  1  0  0  0  0
 46 48  1  0  0  0  0
 46 49  1  0  0  0  0
 47 52  1  0  0  0  0
 48 55  1  0  0  0  0
 49 71  1  0  0  0  0
 50 54  1  0  0  0  0
 50 69  1  0  0  0  0
 51 55  1  0  0  0  0
 51 71  1  0  0  0  0
 52 74  1  0  0  0  0
 53 70  1  0  0  0  0
 54 62  1  0  0  0  0
 55 68  1  0  0  0  0
 56 63  1  0  0  0  0
 57 65  1  0  0  0  0
 58 66  1  0  0  0  0
 59 66  1  0  0  0  0
 60 66  1  0  0  0  0
 61 77  1  0  0  0  0
 62 85  1  0  0  0  0
 63 76  1  0  0  0  0
 64 66  1  0  0  0  0
 64 75  1  0  0  0  0
 65 77  1  0  0  0  0
 67 68  1  0  0  0  0
M  CHG  1  77   1
M  ISO  4  39 100  62 101  76 100  85 101
M  END
> <Batch ID>
0096

> <Smiles>
CNC(C)C(=O)NC(C(=O)N1Cc2cc([101O:1][101CH2:1]C3CCC(=O)N(c4ccc(C(C)[100NH:0][100C:0](=O)N5CCCC(n6nc(-c7ccc(Oc8ccc(F)cc8F)cc7)c(C(N)=O)c6N)C5)c(F)c4)C3)ccc2CC1C(=O)NC1CCCc2ccccc21)C(C)(C)C

> <Shape>
0.150

> <Color>
0.178

> <Negative vol penalty>
0.000

$$$$

  -OEChem-04052300463D

 83 91  0     1  0  0  0  0  0999 V2000
  -25.5982  -10.7396   20.4012 C   0  0  0  0  0  0  0  0  0  0  0  0
  -26.2620  -11.5808   19.5140 C   0  0  0  0  0  0  0  0  0  0  0  0
  -22.7420  -26.6139   21.4115 C   0  0  0  0  0  0  0  0  0  0  0  0
  -22.3374  -28.8868   20.6993 C   0  0  0  0  0  0  0  0  0  0  0  0
  -33.4348  -24.4440   19.4426 C   0  0  0  0  0  0  0  0  0  0  0  0
  -31.2762  -25.3491   18.8440 C   0  0  0  0  0  0  0  0  0  0  0  0
  -24.5905  -11.2475   21.2200 C   0  0  0  0  0  0  0  0  0  0  0  0
  -25.9176  -12.9302   19.4442 C   0  0  0  0  0  0  0  0  0  0  0  0
  -29.6812  -17.6389   18.3627 C   0  0  0  0  0  0  0  0  0  0  0  0
  -33.3219  -23.4998   18.4222 C   0  0  0  0  0  0  0  0  0  0  0  0
  -31.1633  -24.4049   17.8235 C   0  0  0  0  0  0  0  0  0  0  0  0
  -21.4002  -26.4876   21.7708 C   0  0  0  0  0  0  0  0  0  0  0  0
  -20.9955  -28.7605   21.0585 C   0  0  0  0  0  0  0  0  0  0  0  0
  -29.9697  -18.3627   17.2066 C   0  0  0  0  0  0  0  0  0  0  0  0
  -17.5426  -29.1567   22.1217 C   0  0  0  0  0  0  0  0  0  0  0  0
  -16.9604  -30.2057   22.8332 C   0  0  0  0  0  0  0  0  0  0  0  0
  -28.3589  -20.0356   17.8591 C   0  0  0  0  0  0  0  0  0  0  0  0
  -18.5730  -29.8986   24.6058 C   0  0  0  0  0  0  0  0  0  0  0  0
  -23.2107  -27.8136   20.8758 C   0  0  0  0  0  0  0  0  0  0  0  0
  -32.4119  -25.3686   19.6536 C   0  0  0  0  0  0  0  0  0  0  0  0
  -25.1732  -27.6556   19.2537 C   0  0  0  0  0  0  0  0  0  0  0  0
  -24.2402  -12.6059   21.1672 C   0  0  0  0  0  0  0  0  0  0  0  0
  -28.7198  -18.1033   19.2719 C   0  0  0  0  0  0  0  0  0  0  0  0
  -24.9034  -13.4565   20.2621 C   0  0  0  0  0  0  0  0  0  0  0  0
  -28.0619  -19.3172   19.0273 C   0  0  0  0  0  0  0  0  0  0  0  0
  -32.1862  -23.4803   17.6126 C   0  0  0  0  0  0  0  0  0  0  0  0
  -20.5269  -27.5608   21.5942 C   0  0  0  0  0  0  0  0  0  0  0  0
  -29.3065  -19.5598   16.9532 C   0  0  0  0  0  0  0  0  0  0  0  0
  -18.6400  -28.4785   22.6524 C   0  0  0  0  0  0  0  0  0  0  0  0
  -17.4756  -30.5767   24.0752 C   0  0  0  0  0  0  0  0  0  0  0  0
  -19.1552  -28.8495   23.8944 C   0  0  0  0  0  0  0  0  0  0  0  0
  -24.5968  -27.9449   20.5050 C   0  0  0  0  0  0  0  0  0  0  0  0
  -26.5063  -27.9443   19.4147 C   0  0  0  0  0  0  0  0  0  0  0  0
  -32.5321  -26.3741   20.7405 C   0  0  0  0  0  0  0  0  0  0  0  0
  -24.5584  -27.1694   18.0531 C   0  0  0  0  0  0  0  0  0  0  0  0
  -25.9447  -17.0003   20.3608 C   0  0  0  0  0  0  0  0  0  0  0  0
  -26.1332  -19.5789   22.3197 C   0  0  0  0  0  0  0  0  0  0  0  0
  -27.3878  -22.7018   22.8858 C   0  0  0  0  0  0  0  0  0  0  0  0
  -31.2189  -27.7518   22.3219 C   0  0  0  0  0  0  0  0  0  0  0  0
  -23.1120  -13.0991   22.0382 C   0  0  0  0  0  0  0  0  0  0  0  0
  -28.4393  -17.3244   20.5276 C   0  0  0  0  0  0  0  0  0  0  0  0
  -27.0360  -19.8694   19.9818 C   0  0  0  0  0  0  0  0  0  0  0  0
  -23.0640  -14.6191   22.1700 C   0  0  0  0  0  0  0  0  0  0  0  0
  -28.9362  -30.3128   23.1749 C   0  0  0  0  0  0  0  0  0  0  0  0
  -23.2204  -15.2787   20.8034 C   0  0  0  0  0  0  0  0  0  0  0  0
  -27.6511  -29.9080   22.4477 C   0  0  0  0  0  0  0  0  0  0  0  0
  -29.6828  -29.0988   23.7261 C   0  0  0  0  0  0  0  0  0  0  0  0
  -28.6700  -27.6346   22.0265 C   0  0  0  0  0  0  0  0  0  0  0  0
  -24.5753  -14.9312   20.1750 C   0  0  1  0  0  0  0  0  0  0  0  0
  -27.0713  -17.6320   21.1286 C   0  0  1  0  0  0  0  0  0  0  0  0
  -27.9183  -28.8161   21.3924 C   0  0  1  0  0  0  0  0  0  0  0  0
  -27.3338  -24.5734   24.5566 C   0  0  0  0  0  0  0  0  0  0  0  0
  -23.3522  -20.3675   21.3428 C   0  0  0  0  0  0  0  0  0  0  0  0
  -23.7489  -22.6560   22.2776 C   0  0  0  0  0  0  0  0  0  0  0  0
  -23.7227  -20.6775   23.7966 C   0  0  0  0  0  0  0  0  0  0  0  0
  -30.3030  -22.5163   23.3615 C   0  0  0  0  0  0  0  0  0  0  0  0
  -31.2541  -21.4539   14.5724 C   0  0  0  0  0  0  0  0  0  0  0  0
  -31.1831  -22.6819   15.4720 C   0  0  0  0  0  0  0  0  0  0  0  0
  -30.9092  -20.1610   15.3022 C   0  0  0  0  0  0  0  0  0  1  0  0
  -25.6846  -21.0181   22.2388 C   0  0  1  0  0  0  0  0  0  0  0  0
  -28.0554  -23.3135   24.1043 C   0  0  2  0  0  0  0  0  0  0  0  0
  -24.1450  -21.1687   22.3948 C   0  0  0  0  0  0  0  0  0  0  0  0
  -25.4906  -28.3835   21.3954 N   0  0  0  0  0  0  0  0  0  0  0  0
  -26.6422  -28.3720   20.7026 N   0  0  0  0  0  0  0  0  0  0  0  0
  -26.7920  -19.0680   21.1925 N   0  0  0  0  0  0  0  0  0  0  0  0
  -29.9049  -28.1169   22.6632 N   0  0  0  0  0  0  0  0  0  0  0  0
  -27.5638  -27.8714   18.5788 N   0  0  0  0  0  0  0  0  0  0  0  0
  -23.1783  -26.9253   18.0607 N   0  0  0  0  0  0  0  0  0  0  0  0
  -32.0740  -22.5420   16.5985 N   0  0  0  0  0  0  0  0  0  0  0  0
  -31.3266  -26.8399   21.2661 N   0  0  0  0  0  0  0  0  0  0  0  0
  -25.6286  -15.7209   20.7762 N   0  0  0  0  0  0  0  0  0  0  0  0
  -26.4603  -21.7443   23.2384 N   0  0  0  0  0  0  0  0  0  0  0  0
  -29.4702  -23.6669   23.7970 N   0  3  0  0  0  0  0  0  0  0  0  0
  -33.6492  -26.7007   21.1322 O   0  0  0  0  0  0  0  0  0  0  0  0
  -25.2164  -26.9422   17.0095 O   0  0  0  0  0  0  0  0  0  0  0  0
  -25.4015  -17.6278   19.4592 O   0  0  0  0  0  0  0  0  0  0  0  0
  -25.9136  -18.9340   23.3481 O   0  0  0  0  0  0  0  0  0  0  0  0
  -27.6591  -23.0421   21.7364 O   0  0  0  0  0  0  0  0  0  0  0  0
  -32.2120  -28.2256   22.8829 O   0  0  0  0  0  0  0  0  0  0  0  0
  -19.2174  -27.4378   21.9445 O   0  0  0  0  0  0  0  0  0  0  0  0
  -29.5858  -20.2679   15.8252 O   0  0  0  0  0  0  0  0  0  1  0  0
  -16.9173  -31.5851   24.7576 F   0  0  0  0  0  0  0  0  0  0  0  0
  -20.2100  -28.2025   24.4087 F   0  0  0  0  0  0  0  0  0  0  0  0
  1  2  1  0  0  0  0
  1  7  2  0  0  0  0
  2  8  2  0  0  0  0
  3 12  2  0  0  0  0
  3 19  1  0  0  0  0
  4 13  1  0  0  0  0
  4 19  2  0  0  0  0
  5 10  2  0  0  0  0
  5 20  1  0  0  0  0
  6 11  1  0  0  0  0
  6 20  2  0  0  0  0
  7 22  1  0  0  0  0
  8 24  1  0  0  0  0
  9 14  2  0  0  0  0
  9 23  1  0  0  0  0
 10 26  1  0  0  0  0
 11 26  2  0  0  0  0
 12 27  1  0  0  0  0
 13 27  2  0  0  0  0
 14 28  1  0  0  0  0
 15 16  2  0  0  0  0
 15 29  1  0  0  0  0
 16 30  1  0  0  0  0
 17 25  1  0  0  0  0
 17 28  2  0  0  0  0
 18 30  2  0  0  0  0
 18 31  1  0  0  0  0
 19 32  1  0  0  0  0
 20 34  1  0  0  0  0
 21 32  1  0  0  0  0
 21 33  2  0  0  0  0
 21 35  1  0  0  0  0
 22 24  2  0  0  0  0
 22 40  1  0  0  0  0
 23 25  2  0  0  0  0
 23 41  1  0  0  0  0
 24 49  1  0  0  0  0
 25 42  1  0  0  0  0
 26 69  1  0  0  0  0
 27 80  1  0  0  0  0
 28 81  1  0  0  0  0
 29 31  2  0  0  0  0
 29 80  1  0  0  0  0
 30 82  1  0  0  0  0
 31 83  1  0  0  0  0
 32 63  2  0  0  0  0
 33 64  1  0  0  0  0
 33 67  1  0  0  0  0
 34 70  1  0  0  0  0
 34 74  2  0  0  0  0
 35 68  1  0  0  0  0
 35 75  2  0  0  0  0
 36 50  1  0  0  0  0
 36 71  1  0  0  0  0
 36 76  2  0  0  0  0
 37 60  1  0  0  0  0
 37 65  1  0  0  0  0
 37 77  2  0  0  0  0
 38 61  1  0  0  0  0
 38 72  1  0  0  0  0
 38 78  2  0  0  0  0
 39 66  1  0  0  0  0
 39 70  1  0  0  0  0
 39 79  2  0  0  0  0
 40 43  1  0  0  0  0
 41 50  1  0  0  0  0
 42 65  1  0  0  0  0
 43 45  1  0  0  0  0
 44 46  1  0  0  0  0
 44 47  1  0  0  0  0
 45 49  1  0  0  0  0
 46 51  1  0  0  0  0
 47 66  1  0  0  0  0
 48 51  1  0  0  0  0
 48 66  1  0  0  0  0
 49 71  1  0  0  0  0
 50 65  1  0  0  0  0
 51 64  1  0  0  0  0
 52 61  1  0  0  0  0
 53 62  1  0  0  0  0
 54 62  1  0  0  0  0
 55 62  1  0  0  0  0
 56 73  1  0  0  0  0
 57 58  1  0  0  0  0
 57 59  1  0  0  0  0
 58 69  1  0  0  0  0
 59 81  1  0  0  0  0
 60 62  1  0  0  0  0
 60 72  1  0  0  0  0
 61 73  1  0  0  0  0
 63 64  1  0  0  0  0
M  CHG  1  73   1
M  ISO  4  39 100  59 101  70 100  81 101
M  END
> <Batch ID>
0096

> <Smiles>
CNC(C)C(=O)NC(C(=O)N1Cc2cc([101O:1][101CH2:1]CCNc3ccc(C(=O)[100NH:0][100C:0](=O)N4CCCC(n5nc(-c6ccc(Oc7ccc(F)cc7F)cc6)c(C(N)=O)c5N)C4)cc3)ccc2CC1C(=O)NC1CCCc2ccccc21)C(C)(C)C

> <Shape>
0.219

> <Color>
0.058

> <Negative vol penalty>
0.000

$$$$

  -OEChem-04052300463D

 81 89  0     1  0  0  0  0  0999 V2000
  -38.9372  -26.7906   15.4178 C   0  0  0  0  0  0  0  0  0  0  0  0
  -38.6888  -26.1396   16.6219 C   0  0  0  0  0  0  0  0  0  0  0  0
  -22.9955   -9.9189   19.9775 C   0  0  0  0  0  0  0  0  0  0  0  0
  -23.7250   -9.9537   22.2805 C   0  0  0  0  0  0  0  0  0  0  0  0
  -30.5128  -18.3085   24.0183 C   0  0  0  0  0  0  0  0  0  0  0  0
  -32.6863  -17.4032   23.4769 C   0  0  0  0  0  0  0  0  0  0  0  0
  -37.9052  -27.4624   14.7641 C   0  0  0  0  0  0  0  0  0  0  0  0
  -37.4083  -26.1610   17.1735 C   0  0  0  0  0  0  0  0  0  0  0  0
  -34.6953  -21.6867   20.3557 C   0  0  0  0  0  0  0  0  0  0  0  0
  -29.9193  -17.4196   23.1221 C   0  0  0  0  0  0  0  0  0  0  0  0
  -32.0928  -16.5142   22.5807 C   0  0  0  0  0  0  0  0  0  0  0  0
  -22.2233   -8.7872   20.2392 C   0  0  0  0  0  0  0  0  0  0  0  0
  -22.9528   -8.8219   22.5422 C   0  0  0  0  0  0  0  0  0  0  0  0
  -34.5331  -21.4743   21.7241 C   0  0  0  0  0  0  0  0  0  0  0  0
  -23.1782   -5.4843   22.0521 C   0  0  0  0  0  0  0  0  0  0  0  0
  -23.7616   -4.4600   22.7978 C   0  0  0  0  0  0  0  0  0  0  0  0
  -32.3416  -22.4767   21.6137 C   0  0  0  0  0  0  0  0  0  0  0  0
  -22.0420   -4.7033   24.4773 C   0  0  0  0  0  0  0  0  0  0  0  0
  -23.7464  -10.5021   20.9982 C   0  0  0  0  0  0  0  0  0  0  0  0
  -31.8963  -18.3004   24.1957 C   0  0  0  0  0  0  0  0  0  0  0  0
  -24.1450  -13.0165   20.8348 C   0  0  0  0  0  0  0  0  0  0  0  0
  -36.6092  -27.4839   15.3030 C   0  0  0  0  0  0  0  0  0  0  0  0
  -33.6846  -22.3065   19.6069 C   0  0  0  0  0  0  0  0  0  0  0  0
  -36.3582  -26.8349   16.5270 C   0  0  0  0  0  0  0  0  0  0  0  0
  -32.4924  -22.6934   20.2355 C   0  0  0  0  0  0  0  0  0  0  0  0
  -30.7093  -16.5224   22.4033 C   0  0  0  0  0  0  0  0  0  0  0  0
  -22.2019   -8.2387   21.5215 C   0  0  0  0  0  0  0  0  0  0  0  0
  -33.3573  -21.8720   22.3538 C   0  0  0  0  0  0  0  0  0  0  0  0
  -22.0268   -6.1182   22.5191 C   0  0  0  0  0  0  0  0  0  0  0  0
  -23.1935   -4.0694   24.0103 C   0  0  0  0  0  0  0  0  0  0  0  0
  -21.4586   -5.7277   23.7317 C   0  0  0  0  0  0  0  0  0  0  0  0
  -24.5447  -11.6709   20.7283 C   0  0  0  0  0  0  0  0  0  0  0  0
  -25.2580  -13.7350   20.4723 C   0  0  0  0  0  0  0  0  0  0  0  0
  -32.5307  -19.2505   25.1533 C   0  0  0  0  0  0  0  0  0  0  0  0
  -22.8807  -13.5677   21.2265 C   0  0  0  0  0  0  0  0  0  0  0  0
  -33.4734  -24.9852   17.9088 C   0  0  0  0  0  0  0  0  0  0  0  0
  -30.5569  -23.7993   17.1276 C   0  0  0  0  0  0  0  0  0  0  0  0
  -27.9495  -21.7524   17.9390 C   0  0  0  0  0  0  0  0  0  0  0  0
  -30.7430  -14.6652   20.7016 C   0  0  0  0  0  0  0  0  0  0  0  0
  -35.5367  -28.2632   14.5839 C   0  0  0  0  0  0  0  0  0  0  0  0
  -33.8642  -22.5042   18.1266 C   0  0  0  0  0  0  0  0  0  0  0  0
  -31.3688  -23.3446   19.4727 C   0  0  0  0  0  0  0  0  0  0  0  0
  -34.1224  -27.9219   15.0458 C   0  0  0  0  0  0  0  0  0  0  0  0
  -29.6074  -12.2308   18.3646 C   0  0  0  0  0  0  0  0  0  0  0  0
  -34.0507  -27.8929   16.5692 C   0  0  0  0  0  0  0  0  0  0  0  0
  -28.1562  -11.9788   18.7800 C   0  0  0  0  0  0  0  0  0  0  0  0
  -30.5113  -12.4629   19.5741 C   0  0  0  0  0  0  0  0  0  0  0  0
  -28.6026  -13.2550   20.9152 C   0  0  0  0  0  0  0  0  0  0  0  0
  -34.9768  -26.8146   17.1446 C   0  0  1  0  0  0  0  0  0  0  0  0
  -32.9791  -23.6099   17.5598 C   0  0  1  0  0  0  0  0  0  0  0  0
  -27.6419  -13.0802   19.7277 C   0  0  2  0  0  0  0  0  0  0  0  0
  -25.6907  -21.0227   17.1249 C   0  0  0  0  0  0  0  0  0  0  0  0
  -29.3685  -26.4523   18.0545 C   0  0  0  0  0  0  0  0  0  0  0  0
  -27.1244  -25.3440   18.1208 C   0  0  0  0  0  0  0  0  0  0  0  0
  -28.3577  -25.5313   15.9606 C   0  0  0  0  0  0  0  0  0  0  0  0
  -28.8125  -18.9301   17.7181 C   0  0  0  0  0  0  0  0  0  0  0  0
  -31.8994  -20.6100   25.4218 C   0  0  0  0  0  0  0  0  0  0  0  0
  -31.8653  -21.4584   24.1590 C   0  0  0  0  0  0  0  0  0  1  0  0
  -29.1695  -23.9007   17.7139 C   0  0  1  0  0  0  0  0  0  0  0  0
  -27.1824  -20.7269   17.1238 C   0  0  2  0  0  0  0  0  0  0  0  0
  -28.5268  -25.2966   17.4775 C   0  0  0  0  0  0  0  0  0  0  0  0
  -25.8126  -11.5396   20.3292 N   0  0  0  0  0  0  0  0  0  0  0  0
  -33.6272  -18.9255   25.7631 N   0  0  0  0  0  0  0  0  0  0  0  0
  -26.2192  -12.8120   20.1817 N   0  0  0  0  0  0  0  0  0  0  0  0
  -31.5947  -23.5220   18.0287 N   0  0  0  0  0  0  0  0  0  0  0  0
  -29.9635  -13.5224   20.4240 N   0  0  0  0  0  0  0  0  0  0  0  0
  -25.4985  -15.0600   20.3769 N   0  0  0  0  0  0  0  0  0  0  0  0
  -21.8448  -12.6873   21.5672 N   0  0  0  0  0  0  0  0  0  0  0  0
  -30.1053  -15.6197   21.4933 N   0  0  0  0  0  0  0  0  0  0  0  0
  -34.3774  -25.5050   17.0022 N   0  0  0  0  0  0  0  0  0  0  0  0
  -28.4076  -22.7895   17.1543 N   0  0  0  0  0  0  0  0  0  0  0  0
  -27.3911  -19.3608   17.6814 N   0  3  0  0  0  0  0  0  0  0  0  0
  -22.6707  -14.8040   21.2572 O   0  0  0  0  0  0  0  0  0  0  0  0
  -33.0636  -25.5348   18.9246 O   0  0  0  0  0  0  0  0  0  0  0  0
  -30.7132  -23.9532   15.9137 O   0  0  0  0  0  0  0  0  0  0  0  0
  -28.1216  -21.6460   19.1512 O   0  0  0  0  0  0  0  0  0  0  0  0
  -31.8816  -14.8004   20.2462 O   0  0  0  0  0  0  0  0  0  0  0  0
  -21.4483   -7.1345   21.7773 O   0  0  0  0  0  0  0  0  0  0  0  0
  -33.1967  -21.6665   23.6894 O   0  0  0  0  0  0  0  0  0  1  0  0
  -23.7529   -3.0847   24.7255 F   0  0  0  0  0  0  0  0  0  0  0  0
  -20.3518   -6.3321   24.1849 F   0  0  0  0  0  0  0  0  0  0  0  0
  1  2  1  0  0  0  0
  1  7  2  0  0  0  0
  2  8  2  0  0  0  0
  3 12  2  0  0  0  0
  3 19  1  0  0  0  0
  4 13  1  0  0  0  0
  4 19  2  0  0  0  0
  5 10  2  0  0  0  0
  5 20  1  0  0  0  0
  6 11  1  0  0  0  0
  6 20  2  0  0  0  0
  7 22  1  0  0  0  0
  8 24  1  0  0  0  0
  9 14  2  0  0  0  0
  9 23  1  0  0  0  0
 10 26  1  0  0  0  0
 11 26  2  0  0  0  0
 12 27  1  0  0  0  0
 13 27  2  0  0  0  0
 14 28  1  0  0  0  0
 15 16  2  0  0  0  0
 15 29  1  0  0  0  0
 16 30  1  0  0  0  0
 17 25  1  0  0  0  0
 17 28  2  0  0  0  0
 18 30  2  0  0  0  0
 18 31  1  0  0  0  0
 19 32  1  0  0  0  0
 20 34  1  0  0  0  0
 21 32  1  0  0  0  0
 21 33  2  0  0  0  0
 21 35  1  0  0  0  0
 22 24  2  0  0  0  0
 22 40  1  0  0  0  0
 23 25  2  0  0  0  0
 23 41  1  0  0  0  0
 24 49  1  0  0  0  0
 25 42  1  0  0  0  0
 26 69  1  0  0  0  0
 27 78  1  0  0  0  0
 28 79  1  0  0  0  0
 29 31  2  0  0  0  0
 29 78  1  0  0  0  0
 30 80  1  0  0  0  0
 31 81  1  0  0  0  0
 32 62  2  0  0  0  0
 33 64  1  0  0  0  0
 33 67  1  0  0  0  0
 34 57  1  0  0  0  0
 34 63  2  0  0  0  0
 35 68  1  0  0  0  0
 35 73  2  0  0  0  0
 36 50  1  0  0  0  0
 36 70  1  0  0  0  0
 36 74  2  0  0  0  0
 37 59  1  0  0  0  0
 37 65  1  0  0  0  0
 37 75  2  0  0  0  0
 38 60  1  0  0  0  0
 38 71  1  0  0  0  0
 38 76  2  0  0  0  0
 39 66  1  0  0  0  0
 39 69  1  0  0  0  0
 39 77  2  0  0  0  0
 40 43  1  0  0  0  0
 41 50  1  0  0  0  0
 42 65  1  0  0  0  0
 43 45  1  0  0  0  0
 44 46  1  0  0  0  0
 44 47  1  0  0  0  0
 45 49  1  0  0  0  0
 46 51  1  0  0  0  0
 47 66  1  0  0  0  0
 48 51  1  0  0  0  0
 48 66  1  0  0  0  0
 49 70  1  0  0  0  0
 50 65  1  0  0  0  0
 51 64  1  0  0  0  0
 52 60  1  0  0  0  0
 53 61  1  0  0  0  0
 54 61  1  0  0  0  0
 55 61  1  0  0  0  0
 56 72  1  0  0  0  0
 57 58  1  0  0  0  0
 58 79  1  0  0  0  0
 59 61  1  0  0  0  0
 59 71  1  0  0  0  0
 60 72  1  0  0  0  0
 62 64  1  0  0  0  0
M  CHG  1  72   1
M  ISO  4  39 100  58 101  69 100  79 101
M  END
> <Batch ID>
0096

> <Smiles>
CNC(C)C(=O)NC(C(=O)N1Cc2cc([101O:1][101CH2:1]CC(=N)c3ccc([100NH:0][100C:0](=O)N4CCCC(n5nc(-c6ccc(Oc7ccc(F)cc7F)cc6)c(C(N)=O)c5N)C4)cc3)ccc2CC1C(=O)NC1CCCc2ccccc21)C(C)(C)C

> <Shape>
0.222

> <Color>
0.200

> <Negative vol penalty>
0.000

$$$$

  -OEChem-04052300463D

 85 93  0     1  0  0  0  0  0999 V2000
  -29.5248  -17.0177   22.9506 C   0  0  0  0  0  0  0  0  0  0  0  0
  -24.5472  -31.7599   30.1443 C   0  0  0  0  0  0  0  0  0  0  0  0
  -25.2912  -30.8895   29.3543 C   0  0  0  0  0  0  0  0  0  0  0  0
  -24.1888   -9.6282   21.3219 C   0  0  0  0  0  0  0  0  0  0  0  0
  -24.5548  -10.6068   23.5003 C   0  0  0  0  0  0  0  0  0  0  0  0
  -23.7285  -32.7163   29.5451 C   0  0  0  0  0  0  0  0  0  0  0  0
  -25.2161  -30.9741   27.9645 C   0  0  0  0  0  0  0  0  0  0  0  0
  -29.7378  -29.9474   23.9638 C   0  0  0  0  0  0  0  0  0  0  0  0
  -30.0642  -19.7151   22.3279 C   0  0  0  0  0  0  0  0  0  0  0  0
  -30.0193  -21.0808   22.0477 C   0  0  0  0  0  0  0  0  0  0  0  0
  -23.7284   -8.4578   21.9250 C   0  0  0  0  0  0  0  0  0  0  0  0
  -24.0943   -9.4364   24.1034 C   0  0  0  0  0  0  0  0  0  0  0  0
  -30.0705  -28.8371   23.1889 C   0  0  0  0  0  0  0  0  0  0  0  0
  -20.8850   -7.3633   23.3913 C   0  0  0  0  0  0  0  0  0  0  0  0
  -19.7239   -6.7839   22.8798 C   0  0  0  0  0  0  0  0  0  0  0  0
  -28.8797  -29.7917   21.3208 C   0  0  0  0  0  0  0  0  0  0  0  0
  -29.2776  -19.2311   20.0954 C   0  0  0  0  0  0  0  0  0  0  0  0
  -20.9526   -4.7653   22.3772 C   0  0  0  0  0  0  0  0  0  0  0  0
  -24.6020  -10.7027   22.1095 C   0  0  0  0  0  0  0  0  0  0  0  0
  -24.3139  -13.0329   21.1121 C   0  0  0  0  0  0  0  0  0  0  0  0
  -23.6507  -32.8190   28.1473 C   0  0  0  0  0  0  0  0  0  0  0  0
  -28.9630  -30.9848   23.4254 C   0  0  0  0  0  0  0  0  0  0  0  0
  -24.3945  -31.9318   27.3460 C   0  0  0  0  0  0  0  0  0  0  0  0
  -28.5407  -30.9152   22.0901 C   0  0  0  0  0  0  0  0  0  0  0  0
  -29.6934  -18.7903   21.3518 C   0  0  0  0  0  0  0  0  0  0  0  0
  -29.6036  -21.5216   20.7913 C   0  0  0  0  0  0  0  0  0  0  0  0
  -29.2327  -20.5968   19.8152 C   0  0  0  0  0  0  0  0  0  0  0  0
  -23.6811   -8.3619   23.3158 C   0  0  0  0  0  0  0  0  0  0  0  0
  -29.6390  -28.7578   21.8681 C   0  0  0  0  0  0  0  0  0  0  0  0
  -22.0799   -6.6437   23.3957 C   0  0  0  0  0  0  0  0  0  0  0  0
  -19.7576   -5.4849   22.3727 C   0  0  0  0  0  0  0  0  0  0  0  0
  -22.1137   -5.3447   22.8887 C   0  0  0  0  0  0  0  0  0  0  0  0
  -25.0783  -11.9118   21.4871 C   0  0  0  0  0  0  0  0  0  0  0  0
  -25.2259  -13.9041   20.5684 C   0  0  0  0  0  0  0  0  0  0  0  0
  -22.9053  -13.2660   21.2436 C   0  0  0  0  0  0  0  0  0  0  0  0
  -26.1206  -32.2408   24.0936 C   0  0  0  0  0  0  0  0  0  0  0  0
  -29.7804  -25.2690   20.8827 C   0  0  0  0  0  0  0  0  0  0  0  0
  -26.9710  -34.3925   21.8199 C   0  0  0  0  0  0  0  0  0  0  0  0
  -28.8595  -35.1063   19.0684 C   0  0  0  0  0  0  0  0  0  0  0  0
  -30.1445  -16.4585   20.6253 C   0  0  0  0  0  0  0  0  0  0  0  0
  -22.7155  -33.8377   27.5452 C   0  0  0  0  0  0  0  0  0  0  0  0
  -28.6352  -32.1881   24.2662 C   0  0  0  0  0  0  0  0  0  0  0  0
  -27.7238  -32.0117   21.4586 C   0  0  0  0  0  0  0  0  0  0  0  0
  -22.9797  -34.1078   26.0662 C   0  0  0  0  0  0  0  0  0  0  0  0
  -30.0482  -13.2369   19.2399 C   0  0  0  0  0  0  0  0  0  0  0  0
  -23.1538  -32.7965   25.3067 C   0  0  0  0  0  0  0  0  0  0  0  0
  -28.6941  -12.6819   19.6774 C   0  0  0  0  0  0  0  0  0  0  0  0
  -30.6880  -14.0524   20.3567 C   0  0  0  0  0  0  0  0  0  0  0  0
  -28.4672  -14.6494   21.2773 C   0  0  0  0  0  0  0  0  0  0  0  0
  -24.3587  -32.0087   25.8351 C   0  0  1  0  0  0  0  0  0  0  0  0
  -27.4074  -32.9464   23.7713 C   0  0  1  0  0  0  0  0  0  0  0  0
  -27.7776  -13.8085   20.1834 C   0  0  2  0  0  0  0  0  0  0  0  0
  -29.3103  -36.9336   17.4086 C   0  0  0  0  0  0  0  0  0  0  0  0
  -24.3320  -33.7693   20.4210 C   0  0  0  0  0  0  0  0  0  0  0  0
  -25.2467  -34.8595   18.3611 C   0  0  0  0  0  0  0  0  0  0  0  0
  -24.9511  -36.1922   20.4490 C   0  0  0  0  0  0  0  0  0  0  0  0
  -31.7090  -35.2729   19.8507 C   0  0  0  0  0  0  0  0  0  0  0  0
  -29.9347  -23.8927   21.4943 C   0  0  0  0  0  0  0  0  0  0  0  0
  -30.1301  -26.4321   21.7905 C   0  0  0  0  0  0  0  0  0  1  0  0
  -26.8109  -34.4842   20.3216 C   0  0  1  0  0  0  0  0  0  0  0  0
  -29.7300  -36.3021   18.7268 C   0  0  2  0  0  0  0  0  0  0  0  0
  -25.3489  -34.8046   19.9004 C   0  0  0  0  0  0  0  0  0  0  0  0
  -29.3489  -16.7073   24.0555 N   0  0  0  0  0  0  0  0  0  0  0  0
  -26.3760  -12.0549   21.2053 N   0  0  0  0  0  0  0  0  0  0  0  0
  -26.4341  -13.2762   20.6474 N   0  0  0  0  0  0  0  0  0  0  0  0
  -27.4236  -33.1647   22.3234 N   0  0  0  0  0  0  0  0  0  0  0  0
  -29.7906  -15.1086   20.8270 N   0  0  0  0  0  0  0  0  0  0  0  0
  -28.8085  -21.0219   18.5362 N   0  0  0  0  0  0  0  0  0  0  0  0
  -25.1043  -15.1383   20.0352 N   0  0  0  0  0  0  0  0  0  0  0  0
  -22.1140  -12.2660   21.8250 N   0  0  0  0  0  0  0  0  0  0  0  0
  -29.5662  -22.8845   20.5336 N   0  0  0  0  0  0  0  0  0  0  0  0
  -25.5919  -32.5704   25.3270 N   0  0  0  0  0  0  0  0  0  0  0  0
  -27.7922  -35.4626   19.8654 N   0  0  0  0  0  0  0  0  0  0  0  0
  -29.7402  -17.3677   21.6442 N   0  0  0  0  0  0  0  0  0  0  0  0
  -31.1576  -35.8889   18.6164 N   0  3  0  0  0  0  0  0  0  0  0  0
  -22.3619  -14.3229   20.8420 O   0  0  0  0  0  0  0  0  0  0  0  0
  -25.6419  -31.4567   23.2826 O   0  0  0  0  0  0  0  0  0  0  0  0
  -29.3972  -25.4442   19.7267 O   0  0  0  0  0  0  0  0  0  0  0  0
  -26.7111  -35.3762   22.5173 O   0  0  0  0  0  0  0  0  0  0  0  0
  -29.1001  -33.9705   18.6654 O   0  0  0  0  0  0  0  0  0  0  0  0
  -30.8303  -16.8049   19.6558 O   0  0  0  0  0  0  0  0  0  0  0  0
  -23.2317   -7.2201   23.9046 O   0  0  0  0  0  0  0  0  0  0  0  0
  -29.9618  -27.6749   21.1098 O   0  0  0  0  0  0  0  0  0  1  0  0
  -18.6422   -4.9281   21.8830 F   0  0  0  0  0  0  0  0  0  0  0  0
  -23.2585   -4.6481   22.8913 F   0  0  0  0  0  0  0  0  0  0  0  0
  1 63  3  0  0  0  0
  1 74  1  0  0  0  0
  2  3  1  0  0  0  0
  2  6  2  0  0  0  0
  3  7  2  0  0  0  0
  4 11  2  0  0  0  0
  4 19  1  0  0  0  0
  5 12  1  0  0  0  0
  5 19  2  0  0  0  0
  6 21  1  0  0  0  0
  7 23  1  0  0  0  0
  8 13  2  0  0  0  0
  8 22  1  0  0  0  0
  9 10  2  0  0  0  0
  9 25  1  0  0  0  0
 10 26  1  0  0  0  0
 11 28  1  0  0  0  0
 12 28  2  0  0  0  0
 13 29  1  0  0  0  0
 14 15  2  0  0  0  0
 14 30  1  0  0  0  0
 15 31  1  0  0  0  0
 16 24  1  0  0  0  0
 16 29  2  0  0  0  0
 17 25  2  0  0  0  0
 17 27  1  0  0  0  0
 18 31  2  0  0  0  0
 18 32  1  0  0  0  0
 19 33  1  0  0  0  0
 20 33  1  0  0  0  0
 20 34  2  0  0  0  0
 20 35  1  0  0  0  0
 21 23  2  0  0  0  0
 21 41  1  0  0  0  0
 22 24  2  0  0  0  0
 22 42  1  0  0  0  0
 23 50  1  0  0  0  0
 24 43  1  0  0  0  0
 25 74  1  0  0  0  0
 26 27  2  0  0  0  0
 26 71  1  0  0  0  0
 27 68  1  0  0  0  0
 28 82  1  0  0  0  0
 29 83  1  0  0  0  0
 30 32  2  0  0  0  0
 30 82  1  0  0  0  0
 31 84  1  0  0  0  0
 32 85  1  0  0  0  0
 33 64  2  0  0  0  0
 34 65  1  0  0  0  0
 34 69  1  0  0  0  0
 35 70  1  0  0  0  0
 35 76  2  0  0  0  0
 36 51  1  0  0  0  0
 36 72  1  0  0  0  0
 36 77  2  0  0  0  0
 37 58  1  0  0  0  0
 37 59  1  0  0  0  0
 37 78  2  0  0  0  0
 38 60  1  0  0  0  0
 38 66  1  0  0  0  0
 38 79  2  0  0  0  0
 39 61  1  0  0  0  0
 39 73  1  0  0  0  0
 39 80  2  0  0  0  0
 40 67  1  0  0  0  0
 40 74  1  0  0  0  0
 40 81  2  0  0  0  0
 41 44  1  0  0  0  0
 42 51  1  0  0  0  0
 43 66  1  0  0  0  0
 44 46  1  0  0  0  0
 45 47  1  0  0  0  0
 45 48  1  0  0  0  0
 46 50  1  0  0  0  0
 47 52  1  0  0  0  0
 48 67  1  0  0  0  0
 49 52  1  0  0  0  0
 49 67  1  0  0  0  0
 50 72  1  0  0  0  0
 51 66  1  0  0  0  0
 52 65  1  0  0  0  0
 53 61  1  0  0  0  0
 54 62  1  0  0  0  0
 55 62  1  0  0  0  0
 56 62  1  0  0  0  0
 57 75  1  0  0  0  0
 58 71  1  0  0  0  0
 59 83  1  0  0  0  0
 60 62  1  0  0  0  0
 60 73  1  0  0  0  0
 61 75  1  0  0  0  0
 64 65  1  0  0  0  0
M  CHG  1  75   1
M  ISO  4  40 100  59 101  74 100  83 101
M  END
> <Batch ID>
0096

> <Smiles>
CNC(C)C(=O)NC(C(=O)N1Cc2cc([101O:1][101CH2:1]C(=O)CNc3ccc([100N:0](C#N)[100C:0](=O)N4CCCC(n5nc(-c6ccc(Oc7ccc(F)cc7F)cc6)c(C(N)=O)c5N)C4)cc3N)ccc2CC1C(=O)NC1CCCc2ccccc21)C(C)(C)C

> <Shape>
0.272

> <Color>
0.123

> <Negative vol penalty>
0.000

$$$$

  -OEChem-04052300463D

 82 90  0     1  0  0  0  0  0999 V2000
  -29.0595  -31.7330   27.1995 C   0  0  0  0  0  0  0  0  0  0  0  0
  -29.5899  -30.7822   26.3334 C   0  0  0  0  0  0  0  0  0  0  0  0
  -23.2517   -9.6414   20.2792 C   0  0  0  0  0  0  0  0  0  0  0  0
  -23.8622  -10.0777   22.5757 C   0  0  0  0  0  0  0  0  0  0  0  0
  -27.6875  -31.7617   27.4457 C   0  0  0  0  0  0  0  0  0  0  0  0
  -28.7486  -29.8588   25.7138 C   0  0  0  0  0  0  0  0  0  0  0  0
  -29.3566  -27.5224   20.0855 C   0  0  0  0  0  0  0  0  0  0  0  0
  -30.8475  -19.4064   19.8190 C   0  0  0  0  0  0  0  0  0  0  0  0
  -30.7654  -18.0314   20.0380 C   0  0  0  0  0  0  0  0  0  0  0  0
  -22.5668   -8.4940   20.6792 C   0  0  0  0  0  0  0  0  0  0  0  0
  -23.1773   -8.9303   22.9758 C   0  0  0  0  0  0  0  0  0  0  0  0
  -29.8822  -26.3171   19.6220 C   0  0  0  0  0  0  0  0  0  0  0  0
  -19.9734   -8.0112   23.5333 C   0  0  0  0  0  0  0  0  0  0  0  0
  -19.1475   -8.1087   24.6530 C   0  0  0  0  0  0  0  0  0  0  0  0
  -27.6626  -25.3735   19.5769 C   0  0  0  0  0  0  0  0  0  0  0  0
  -20.4579   -6.4121   25.7673 C   0  0  0  0  0  0  0  0  0  0  0  0
  -23.8995  -10.4332   21.2274 C   0  0  0  0  0  0  0  0  0  0  0  0
  -24.0901  -12.9228   20.7047 C   0  0  0  0  0  0  0  0  0  0  0  0
  -26.8277  -30.8443   26.8213 C   0  0  0  0  0  0  0  0  0  0  0  0
  -27.9790  -27.6590   20.3089 C   0  0  0  0  0  0  0  0  0  0  0  0
  -27.3640  -29.8744   25.9528 C   0  0  0  0  0  0  0  0  0  0  0  0
  -27.1217  -26.5823   20.0408 C   0  0  0  0  0  0  0  0  0  0  0  0
  -30.0138  -20.2758   20.5225 C   0  0  0  0  0  0  0  0  0  0  0  0
  -29.8494  -17.5256   20.9604 C   0  0  0  0  0  0  0  0  0  0  0  0
  -29.0979  -19.7700   21.4449 C   0  0  0  0  0  0  0  0  0  0  0  0
  -22.5296   -8.1385   22.0275 C   0  0  0  0  0  0  0  0  0  0  0  0
  -29.0356  -25.2415   19.3703 C   0  0  0  0  0  0  0  0  0  0  0  0
  -21.0416   -7.1141   23.5305 C   0  0  0  0  0  0  0  0  0  0  0  0
  -19.3897   -7.3092   25.7701 C   0  0  0  0  0  0  0  0  0  0  0  0
  -21.2839   -6.3146   24.6475 C   0  0  0  0  0  0  0  0  0  0  0  0
  -29.0157  -18.3949   21.6639 C   0  0  0  0  0  0  0  0  0  0  0  0
  -24.6076  -11.6183   20.8147 C   0  0  0  0  0  0  0  0  0  0  0  0
  -25.1542  -13.6796   20.2789 C   0  0  0  0  0  0  0  0  0  0  0  0
  -22.7658  -13.4072   20.9642 C   0  0  0  0  0  0  0  0  0  0  0  0
  -26.1678  -28.2631   22.8503 C   0  0  0  0  0  0  0  0  0  0  0  0
  -23.7892  -28.3587   20.6468 C   0  0  0  0  0  0  0  0  0  0  0  0
  -22.6459  -27.4088   17.5748 C   0  0  0  0  0  0  0  0  0  0  0  0
  -30.5224  -15.1308   20.5624 C   0  0  0  0  0  0  0  0  0  0  0  0
  -25.3575  -30.8841   27.1551 C   0  0  0  0  0  0  0  0  0  0  0  0
  -27.4246  -28.9742   20.7837 C   0  0  0  0  0  0  0  0  0  0  0  0
  -25.6330  -26.6840   20.2451 C   0  0  0  0  0  0  0  0  0  0  0  0
  -24.4877  -30.1093   26.1685 C   0  0  0  0  0  0  0  0  0  0  0  0
  -29.7136  -12.2885   18.5762 C   0  0  0  0  0  0  0  0  0  0  0  0
  -25.0942  -28.7389   25.8840 C   0  0  0  0  0  0  0  0  0  0  0  0
  -28.2705  -11.9681   18.9725 C   0  0  0  0  0  0  0  0  0  0  0  0
  -30.5344  -12.7759   19.7689 C   0  0  0  0  0  0  0  0  0  0  0  0
  -28.5019  -13.5770   20.9077 C   0  0  0  0  0  0  0  0  0  0  0  0
  -26.4807  -28.8717   25.2425 C   0  0  1  0  0  0  0  0  0  0  0  0
  -26.0669  -28.8389   21.4661 C   0  0  1  0  0  0  0  0  0  0  0  0
  -27.6187  -13.1440   19.7261 C   0  0  2  0  0  0  0  0  0  0  0  0
  -20.6499  -27.6099   16.0671 C   0  0  0  0  0  0  0  0  0  0  0  0
  -22.3003  -26.3100   22.3485 C   0  0  0  0  0  0  0  0  0  0  0  0
  -20.8238  -25.8508   20.3795 C   0  0  0  0  0  0  0  0  0  0  0  0
  -20.8618  -28.1248   21.4043 C   0  0  0  0  0  0  0  0  0  0  0  0
  -24.2237  -28.7739   15.4757 C   0  0  0  0  0  0  0  0  0  0  0  0
  -31.0372  -22.2246   19.3476 C   0  0  0  0  0  0  0  0  0  0  0  0
  -30.8753  -23.7353   19.3205 C   0  0  0  0  0  0  0  0  0  1  0  0
  -22.8465  -27.3438   20.0466 C   0  0  1  0  0  0  0  0  0  0  0  0
  -21.9978  -28.1994   16.4525 C   0  0  2  0  0  0  0  0  0  0  0  0
  -21.7363  -26.9045   21.0426 C   0  0  0  0  0  0  0  0  0  0  0  0
  -25.9000  -11.5468   20.4852 N   0  0  0  0  0  0  0  0  0  0  0  0
  -26.2035  -12.8159   20.1639 N   0  0  0  0  0  0  0  0  0  0  0  0
  -25.1398  -27.9886   20.7166 N   0  0  0  0  0  0  0  0  0  0  0  0
  -29.8575  -13.8933   20.4310 N   0  0  0  0  0  0  0  0  0  0  0  0
  -28.2462  -20.6355   22.1676 N   0  0  0  0  0  0  0  0  0  0  0  0
  -25.2854  -14.9929   19.9952 N   0  0  0  0  0  0  0  0  0  0  0  0
  -21.7932  -12.4949   21.3953 N   0  0  0  0  0  0  0  0  0  0  0  0
  -29.7678  -16.1280   21.1794 N   0  0  0  0  0  0  0  0  0  0  0  0
  -30.1115  -21.6375   20.2890 N   0  0  0  0  0  0  0  0  0  0  0  0
  -26.3587  -29.2081   23.8402 N   0  0  0  0  0  0  0  0  0  0  0  0
  -22.3417  -27.9355   18.8122 N   0  0  0  0  0  0  0  0  0  0  0  0
  -22.8730  -28.1993   15.2463 N   0  3  0  0  0  0  0  0  0  0  0  0
  -22.4501  -14.6104   20.8024 O   0  0  0  0  0  0  0  0  0  0  0  0
  -26.0776  -27.0513   23.0087 O   0  0  0  0  0  0  0  0  0  0  0  0
  -23.3449  -29.4428   21.0327 O   0  0  0  0  0  0  0  0  0  0  0  0
  -23.3484  -26.4206   17.3739 O   0  0  0  0  0  0  0  0  0  0  0  0
  -31.6662  -15.3017   20.1329 O   0  0  0  0  0  0  0  0  0  0  0  0
  -21.8612   -7.0191   22.4183 O   0  0  0  0  0  0  0  0  0  0  0  0
  -29.5461  -24.0638   18.9185 O   0  0  0  0  0  0  0  0  0  1  0  0
  -18.5974   -7.4040   26.8459 F   0  0  0  0  0  0  0  0  0  0  0  0
  -22.3092   -5.4518   24.6511 F   0  0  0  0  0  0  0  0  0  0  0  0
  -28.1327  -17.9076   22.5492 F   0  0  0  0  0  0  0  0  0  0  0  0
  1  2  1  0  0  0  0
  1  5  2  0  0  0  0
  2  6  2  0  0  0  0
  3 10  2  0  0  0  0
  3 17  1  0  0  0  0
  4 11  1  0  0  0  0
  4 17  2  0  0  0  0
  5 19  1  0  0  0  0
  6 21  1  0  0  0  0
  7 12  2  0  0  0  0
  7 20  1  0  0  0  0
  8  9  2  0  0  0  0
  8 23  1  0  0  0  0
  9 24  1  0  0  0  0
 10 26  1  0  0  0  0
 11 26  2  0  0  0  0
 12 27  1  0  0  0  0
 13 14  2  0  0  0  0
 13 28  1  0  0  0  0
 14 29  1  0  0  0  0
 15 22  1  0  0  0  0
 15 27  2  0  0  0  0
 16 29  2  0  0  0  0
 16 30  1  0  0  0  0
 17 32  1  0  0  0  0
 18 32  1  0  0  0  0
 18 33  2  0  0  0  0
 18 34  1  0  0  0  0
 19 21  2  0  0  0  0
 19 39  1  0  0  0  0
 20 22  2  0  0  0  0
 20 40  1  0  0  0  0
 21 48  1  0  0  0  0
 22 41  1  0  0  0  0
 23 25  2  0  0  0  0
 23 69  1  0  0  0  0
 24 31  2  0  0  0  0
 24 68  1  0  0  0  0
 25 31  1  0  0  0  0
 25 65  1  0  0  0  0
 26 78  1  0  0  0  0
 27 79  1  0  0  0  0
 28 30  2  0  0  0  0
 28 78  1  0  0  0  0
 29 80  1  0  0  0  0
 30 81  1  0  0  0  0
 31 82  1  0  0  0  0
 32 61  2  0  0  0  0
 33 62  1  0  0  0  0
 33 66  1  0  0  0  0
 34 67  1  0  0  0  0
 34 73  2  0  0  0  0
 35 49  1  0  0  0  0
 35 70  1  0  0  0  0
 35 74  2  0  0  0  0
 36 58  1  0  0  0  0
 36 63  1  0  0  0  0
 36 75  2  0  0  0  0
 37 59  1  0  0  0  0
 37 71  1  0  0  0  0
 37 76  2  0  0  0  0
 38 64  1  0  0  0  0
 38 68  1  0  0  0  0
 38 77  2  0  0  0  0
 39 42  1  0  0  0  0
 40 49  1  0  0  0  0
 41 63  1  0  0  0  0
 42 44  1  0  0  0  0
 43 45  1  0  0  0  0
 43 46  1  0  0  0  0
 44 48  1  0  0  0  0
 45 50  1  0  0  0  0
 46 64  1  0  0  0  0
 47 50  1  0  0  0  0
 47 64  1  0  0  0  0
 48 70  1  0  0  0  0
 49 63  1  0  0  0  0
 50 62  1  0  0  0  0
 51 59  1  0  0  0  0
 52 60  1  0  0  0  0
 53 60  1  0  0  0  0
 54 60  1  0  0  0  0
 55 72  1  0  0  0  0
 56 57  1  0  0  0  0
 56 69  1  0  0  0  0
 57 79  1  0  0  0  0
 58 60  1  0  0  0  0
 58 71  1  0  0  0  0
 59 72  1  0  0  0  0
 61 62  1  0  0  0  0
M  CHG  1  72   1
M  ISO  4  38 100  57 101  68 100  79 101
M  END
> <Batch ID>
0096

> <Smiles>
CNC(C)C(=O)NC(C(=O)N1Cc2cc([101O:1][101CH2:1]CNc3ccc([100NH:0][100C:0](=O)N4CCCC(n5nc(-c6ccc(Oc7ccc(F)cc7F)cc6)c(C(N)=O)c5N)C4)c(F)c3N)ccc2CC1C(=O)NC1CCCc2ccccc21)C(C)(C)C

> <Shape>
0.341

> <Color>
0.179

> <Negative vol penalty>
0.000

$$$$

  -OEChem-04052300463D

 86 95  0     1  0  0  0  0  0999 V2000
  -18.7920  -26.6698   25.7862 C   0  0  0  0  0  0  0  0  0  0  0  0
  -19.7843  -26.1663   24.9513 C   0  0  0  0  0  0  0  0  0  0  0  0
  -23.7230  -17.6649   21.7002 C   0  0  0  0  0  0  0  0  0  0  0  0
  -22.7806  -16.8573   19.6274 C   0  0  0  0  0  0  0  0  0  0  0  0
  -18.1316  -27.8505   25.4490 C   0  0  0  0  0  0  0  0  0  0  0  0
  -20.1161  -26.8428   23.7779 C   0  0  0  0  0  0  0  0  0  0  0  0
  -25.1206  -27.2050   23.0932 C   0  0  0  0  0  0  0  0  0  0  0  0
  -28.6307  -18.9316   21.4785 C   0  0  0  0  0  0  0  0  0  0  0  0
  -28.9643  -18.4951   19.1257 C   0  0  0  0  0  0  0  0  0  0  0  0
  -29.4422  -17.8423   21.7956 C   0  0  0  0  0  0  0  0  0  0  0  0
  -29.7758  -17.4059   19.4429 C   0  0  0  0  0  0  0  0  0  0  0  0
  -22.9761  -18.8371   21.5831 C   0  0  0  0  0  0  0  0  0  0  0  0
  -22.0336  -18.0294   19.5103 C   0  0  0  0  0  0  0  0  0  0  0  0
  -25.7820  -26.0730   22.6190 C   0  0  0  0  0  0  0  0  0  0  0  0
  -19.7879  -19.8238   22.1259 C   0  0  0  0  0  0  0  0  0  0  0  0
  -19.1255  -20.2867   23.2628 C   0  0  0  0  0  0  0  0  0  0  0  0
  -25.7828  -27.0116   20.3968 C   0  0  0  0  0  0  0  0  0  0  0  0
  -20.3792  -22.3491   23.1535 C   0  0  0  0  0  0  0  0  0  0  0  0
  -23.6253  -16.6750   20.7223 C   0  0  0  0  0  0  0  0  0  0  0  0
  -24.0122  -14.2707   21.4822 C   0  0  0  0  0  0  0  0  0  0  0  0
  -18.4622  -28.5469   24.2758 C   0  0  0  0  0  0  0  0  0  0  0  0
  -24.7751  -28.2458   22.2192 C   0  0  0  0  0  0  0  0  0  0  0  0
  -19.4586  -28.0332   23.4240 C   0  0  0  0  0  0  0  0  0  0  0  0
  -25.1194  -28.1569   20.8629 C   0  0  0  0  0  0  0  0  0  0  0  0
  -28.3917  -19.2580   20.1435 C   0  0  0  0  0  0  0  0  0  0  0  0
  -30.0148  -17.0795   20.7778 C   0  0  0  0  0  0  0  0  0  0  0  0
  -22.1314  -19.0193   20.4882 C   0  0  0  0  0  0  0  0  0  0  0  0
  -26.1106  -25.9748   21.2702 C   0  0  0  0  0  0  0  0  0  0  0  0
  -20.7460  -20.6236   21.5028 C   0  0  0  0  0  0  0  0  0  0  0  0
  -19.4211  -21.5494   23.7766 C   0  0  0  0  0  0  0  0  0  0  0  0
  -21.0416  -21.8862   22.0166 C   0  0  0  0  0  0  0  0  0  0  0  0
  -24.3971  -15.4642   20.8425 C   0  0  0  0  0  0  0  0  0  0  0  0
  -25.0874  -13.4317   21.3194 C   0  0  0  0  0  0  0  0  0  0  0  0
  -27.4710  -21.4918   20.6652 C   0  0  0  0  0  0  0  0  0  0  0  0
  -26.5966  -22.4982   20.5135 C   0  0  0  0  0  0  0  0  0  0  0  0
  -26.7609  -20.3558   18.6378 C   0  0  0  0  0  0  0  0  0  0  0  0
  -22.7919  -13.9493   22.1628 C   0  0  0  0  0  0  0  0  0  0  0  0
  -22.0433  -29.5694   21.2763 C   0  0  0  0  0  0  0  0  0  0  0  0
  -24.0235  -31.6573   19.7790 C   0  0  0  0  0  0  0  0  0  0  0  0
  -27.0982  -32.2784   18.4348 C   0  0  0  0  0  0  0  0  0  0  0  0
  -30.9421  -14.8300   20.2532 C   0  0  0  0  0  0  0  0  0  0  0  0
  -17.6879  -29.7939   23.9292 C   0  0  0  0  0  0  0  0  0  0  0  0
  -24.0856  -29.4721   22.7513 C   0  0  0  0  0  0  0  0  0  0  0  0
  -24.7889  -29.2557   19.8872 C   0  0  0  0  0  0  0  0  0  0  0  0
  -25.6445  -22.5082   19.3595 C   0  0  0  0  0  0  0  0  0  0  0  0
  -26.2029  -21.6995   18.2039 C   0  0  0  0  0  0  0  0  0  0  0  0
  -18.3589  -30.6495   22.8577 C   0  0  0  0  0  0  0  0  0  0  0  0
  -28.7433  -12.5396   18.3746 C   0  0  0  0  0  0  0  0  0  0  0  0
  -18.8241  -29.7798   21.6941 C   0  0  0  0  0  0  0  0  0  0  0  0
  -27.3453  -12.9789   18.8067 C   0  0  0  0  0  0  0  0  0  0  0  0
  -29.7371  -13.6968   18.4092 C   0  0  0  0  0  0  0  0  0  0  0  0
  -28.4035  -14.8330   20.1587 C   0  0  0  0  0  0  0  0  0  0  0  0
  -19.8640  -28.7514   22.1551 C   0  0  1  0  0  0  0  0  0  0  0  0
  -23.3250  -30.2434   21.6771 C   0  0  1  0  0  0  0  0  0  0  0  0
  -27.3890  -13.6796   20.1757 C   0  0  1  0  0  0  0  0  0  0  0  0
  -28.4063  -34.0623   17.2500 C   0  0  0  0  0  0  0  0  0  0  0  0
  -22.5045  -31.0562   17.2020 C   0  0  0  0  0  0  0  0  0  0  0  0
  -24.3977  -32.0862   15.9280 C   0  0  0  0  0  0  0  0  0  0  0  0
  -23.0809  -33.4668   17.5351 C   0  0  0  0  0  0  0  0  0  0  0  0
  -31.8059  -16.0866   22.2140 C   0  0  0  0  0  0  0  0  0  0  0  0
  -29.1089  -32.4064   20.6027 C   0  0  0  0  0  0  0  0  0  0  0  0
  -26.5054  -23.6391   21.4806 C   0  0  0  0  0  0  0  0  0  1  0  0
  -24.6808  -31.7214   18.4215 C   0  0  1  0  0  0  0  0  0  0  0  0
  -28.0499  -33.4501   18.5957 C   0  0  2  0  0  0  0  0  0  0  0  0
  -23.6706  -32.0609   17.2894 C   0  0  0  0  0  0  0  0  0  0  0  0
  -25.6212  -15.3937   20.3128 N   0  0  0  0  0  0  0  0  0  0  0  0
  -26.0149  -14.1459   20.6195 N   0  0  0  0  0  0  0  0  0  0  0  0
  -27.5479  -20.3899   19.8137 N   0  0  0  0  0  0  0  0  0  0  0  0
  -24.1088  -30.4317   20.4546 N   0  0  0  0  0  0  0  0  0  0  0  0
  -29.7258  -14.3741   19.7064 N   0  0  0  0  0  0  0  0  0  0  0  0
  -25.3205  -12.1601   21.7080 N   0  0  0  0  0  0  0  0  0  0  0  0
  -21.7909  -14.9274   22.2376 N   0  0  0  0  0  0  0  0  0  0  0  0
  -21.1574  -29.3794   22.3197 N   0  0  0  0  0  0  0  0  0  0  0  0
  -25.7811  -32.6713   18.5452 N   0  0  0  0  0  0  0  0  0  0  0  0
  -30.8549  -15.9519   21.1058 N   0  0  0  0  0  0  0  0  0  0  0  0
  -29.3089  -33.0074   19.2589 N   0  3  0  0  0  0  0  0  0  0  0  0
  -26.5388  -19.3644   17.9401 O   0  0  0  0  0  0  0  0  0  0  0  0
  -22.6014  -12.8334   22.7032 O   0  0  0  0  0  0  0  0  0  0  0  0
  -21.8703  -29.2469   20.1068 O   0  0  0  0  0  0  0  0  0  0  0  0
  -23.4614  -32.6600   20.2267 O   0  0  0  0  0  0  0  0  0  0  0  0
  -27.4844  -31.1301   18.2278 O   0  0  0  0  0  0  0  0  0  0  0  0
  -32.0156  -14.2612   20.0213 O   0  0  0  0  0  0  0  0  0  0  0  0
  -21.4022  -20.1629   20.3737 O   0  0  0  0  0  0  0  0  0  0  0  0
  -26.7556  -24.8707   20.8046 O   0  0  0  0  0  0  0  0  0  1  0  0
  -18.7838  -21.9944   24.8675 F   0  0  0  0  0  0  0  0  0  0  0  0
  -21.9602  -22.6595   21.4217 F   0  0  0  0  0  0  0  0  0  0  0  0
  1  2  1  0  0  0  0
  1  5  2  0  0  0  0
  2  6  2  0  0  0  0
  3 12  2  0  0  0  0
  3 19  1  0  0  0  0
  4 13  1  0  0  0  0
  4 19  2  0  0  0  0
  5 21  1  0  0  0  0
  6 23  1  0  0  0  0
  7 14  2  0  0  0  0
  7 22  1  0  0  0  0
  8 10  2  0  0  0  0
  8 25  1  0  0  0  0
  9 11  1  0  0  0  0
  9 25  2  0  0  0  0
 10 26  1  0  0  0  0
 11 26  2  0  0  0  0
 12 27  1  0  0  0  0
 13 27  2  0  0  0  0
 14 28  1  0  0  0  0
 15 16  2  0  0  0  0
 15 29  1  0  0  0  0
 16 30  1  0  0  0  0
 17 24  1  0  0  0  0
 17 28  2  0  0  0  0
 18 30  2  0  0  0  0
 18 31  1  0  0  0  0
 19 32  1  0  0  0  0
 20 32  1  0  0  0  0
 20 33  2  0  0  0  0
 20 37  1  0  0  0  0
 21 23  2  0  0  0  0
 21 42  1  0  0  0  0
 22 24  2  0  0  0  0
 22 43  1  0  0  0  0
 23 53  1  0  0  0  0
 24 44  1  0  0  0  0
 25 68  1  0  0  0  0
 26 75  1  0  0  0  0
 27 83  1  0  0  0  0
 28 84  1  0  0  0  0
 29 31  2  0  0  0  0
 29 83  1  0  0  0  0
 30 85  1  0  0  0  0
 31 86  1  0  0  0  0
 32 66  2  0  0  0  0
 33 67  1  0  0  0  0
 33 71  1  0  0  0  0
 34 35  2  0  0  0  0
 34 68  1  0  0  0  0
 35 45  1  0  0  0  0
 35 62  1  0  0  0  0
 36 46  1  0  0  0  0
 36 68  1  0  0  0  0
 36 77  2  0  0  0  0
 37 72  1  0  0  0  0
 37 78  2  0  0  0  0
 38 54  1  0  0  0  0
 38 73  1  0  0  0  0
 38 79  2  0  0  0  0
 39 63  1  0  0  0  0
 39 69  1  0  0  0  0
 39 80  2  0  0  0  0
 40 64  1  0  0  0  0
 40 74  1  0  0  0  0
 40 81  2  0  0  0  0
 41 70  1  0  0  0  0
 41 75  1  0  0  0  0
 41 82  2  0  0  0  0
 42 47  1  0  0  0  0
 43 54  1  0  0  0  0
 44 69  1  0  0  0  0
 45 46  1  0  0  0  0
 47 49  1  0  0  0  0
 48 50  1  0  0  0  0
 48 51  1  0  0  0  0
 49 53  1  0  0  0  0
 50 55  1  0  0  0  0
 51 70  1  0  0  0  0
 52 55  1  0  0  0  0
 52 70  1  0  0  0  0
 53 73  1  0  0  0  0
 54 69  1  0  0  0  0
 55 67  1  0  0  0  0
 56 64  1  0  0  0  0
 57 65  1  0  0  0  0
 58 65  1  0  0  0  0
 59 65  1  0  0  0  0
 60 75  1  0  0  0  0
 61 76  1  0  0  0  0
 62 84  1  0  0  0  0
 63 65  1  0  0  0  0
 63 74  1  0  0  0  0
 64 76  1  0  0  0  0
 66 67  1  0  0  0  0
M  CHG  1  76   1
M  ISO  4  41 100  62 101  75 100  84 101
M  END
> <Batch ID>
0096

> <Smiles>
CNC(C)C(=O)NC(C(=O)N1Cc2cc([101O:1][101CH2:1]C3=CN(c4ccc([100N:0](C)[100C:0](=O)N5CCCC(n6nc(-c7ccc(Oc8ccc(F)cc8F)cc7)c(C(N)=O)c6N)C5)cc4)C(=O)CC3)ccc2CC1C(=O)NC1CCCc2ccccc21)C(C)(C)C

> <Shape>
0.225

> <Color>
0.077

> <Negative vol penalty>
0.000

$$$$

  -OEChem-04052300463D

 86 95  0     1  0  0  0  0  0999 V2000
  -27.1949  -39.1463   23.5180 C   0  0  0  0  0  0  0  0  0  0  0  0
  -28.0474  -38.0801   23.7860 C   0  0  0  0  0  0  0  0  0  0  0  0
  -24.6221   -8.4537   22.4665 C   0  0  0  0  0  0  0  0  0  0  0  0
  -23.5530   -9.8913   20.8456 C   0  0  0  0  0  0  0  0  0  0  0  0
  -25.8265  -39.0194   23.7530 C   0  0  0  0  0  0  0  0  0  0  0  0
  -27.5320  -36.8865   24.2901 C   0  0  0  0  0  0  0  0  0  0  0  0
  -28.4365  -30.6727   20.7600 C   0  0  0  0  0  0  0  0  0  0  0  0
  -27.1778  -20.0580   20.3693 C   0  0  0  0  0  0  0  0  0  0  0  0
  -27.3134  -18.6732   20.4661 C   0  0  0  0  0  0  0  0  0  0  0  0
  -23.5937   -7.5230   22.3194 C   0  0  0  0  0  0  0  0  0  0  0  0
  -22.5246   -8.9605   20.6984 C   0  0  0  0  0  0  0  0  0  0  0  0
  -28.7484  -29.4117   20.2513 C   0  0  0  0  0  0  0  0  0  0  0  0
  -20.4159   -7.1310   23.4021 C   0  0  0  0  0  0  0  0  0  0  0  0
  -19.8786   -6.5714   24.5613 C   0  0  0  0  0  0  0  0  0  0  0  0
  -27.4019  -28.3732   21.9708 C   0  0  0  0  0  0  0  0  0  0  0  0
  -29.2450  -18.7610   19.0176 C   0  0  0  0  0  0  0  0  0  0  0  0
  -20.5249   -4.3718   23.7989 C   0  0  0  0  0  0  0  0  0  0  0  0
  -24.6018   -9.6379   21.7296 C   0  0  0  0  0  0  0  0  0  0  0  0
  -26.0420  -11.2692   23.0609 C   0  0  0  0  0  0  0  0  0  0  0  0
  -25.2928  -37.8203   24.2511 C   0  0  0  0  0  0  0  0  0  0  0  0
  -27.5927  -30.7895   21.8681 C   0  0  0  0  0  0  0  0  0  0  0  0
  -26.1553  -36.7438   24.5332 C   0  0  0  0  0  0  0  0  0  0  0  0
  -27.0759  -29.6342   22.4772 C   0  0  0  0  0  0  0  0  0  0  0  0
  -28.0758  -20.7944   19.5966 C   0  0  0  0  0  0  0  0  0  0  0  0
  -28.3469  -18.0246   19.7902 C   0  0  0  0  0  0  0  0  0  0  0  0
  -22.5449   -7.7764   21.4354 C   0  0  0  0  0  0  0  0  0  0  0  0
  -28.2326  -28.2648   20.8554 C   0  0  0  0  0  0  0  0  0  0  0  0
  -21.0077   -6.3110   22.4413 C   0  0  0  0  0  0  0  0  0  0  0  0
  -19.9331   -5.1918   24.7597 C   0  0  0  0  0  0  0  0  0  0  0  0
  -29.1094  -20.1459   18.9208 C   0  0  0  0  0  0  0  0  0  0  0  0
  -21.0622   -4.9315   22.6397 C   0  0  0  0  0  0  0  0  0  0  0  0
  -25.6636  -10.6000   21.8816 C   0  0  0  0  0  0  0  0  0  0  0  0
  -27.0931  -12.0674   22.6805 C   0  0  0  0  0  0  0  0  0  0  0  0
  -27.6918  -25.0221   19.4054 C   0  0  0  0  0  0  0  0  0  0  0  0
  -27.5098  -26.2465   19.9191 C   0  0  0  0  0  0  0  0  0  1  0  0
  -25.4927  -11.1774   24.3821 C   0  0  0  0  0  0  0  0  0  0  0  0
  -25.8453  -33.0705   24.2804 C   0  0  0  0  0  0  0  0  0  0  0  0
  -23.8733  -30.8244   23.5901 C   0  0  0  0  0  0  0  0  0  0  0  0
  -21.8625  -28.4173   22.2486 C   0  0  0  0  0  0  0  0  0  0  0  0
  -29.0282  -15.7956   18.8636 C   0  0  0  0  0  0  0  0  0  0  0  0
  -23.8131  -37.7464   24.5336 C   0  0  0  0  0  0  0  0  0  0  0  0
  -27.2792  -32.1245   22.4873 C   0  0  0  0  0  0  0  0  0  0  0  0
  -26.2003  -29.8065   23.6882 C   0  0  0  0  0  0  0  0  0  0  0  0
  -26.5577  -24.1579   18.9325 C   0  0  0  0  0  0  0  0  0  0  0  0
  -29.0457  -24.3842   19.2737 C   0  0  0  0  0  0  0  0  0  0  0  0
  -23.2982  -36.3209   24.7156 C   0  0  0  0  0  0  0  0  0  0  0  0
  -29.7994  -12.2034   18.4234 C   0  0  0  0  0  0  0  0  0  0  0  0
  -24.2186  -35.5354   25.6444 C   0  0  0  0  0  0  0  0  0  0  0  0
  -28.7649  -11.5222   19.3173 C   0  0  0  0  0  0  0  0  0  0  0  0
  -26.5977  -22.7832   19.6046 C   0  0  0  0  0  0  0  0  0  0  0  0
  -29.0683  -23.0120   19.9498 C   0  0  0  0  0  0  0  0  0  0  0  0
  -29.2926  -13.5384   17.8863 C   0  0  0  0  0  0  0  0  0  0  0  0
  -27.8074  -13.7976   19.8531 C   0  0  0  0  0  0  0  0  0  0  0  0
  -25.6309  -35.4245   25.0573 C   0  0  1  0  0  0  0  0  0  0  0  0
  -25.8504  -32.2064   23.0538 C   0  0  1  0  0  0  0  0  0  0  0  0
  -28.3097  -12.4697   20.4394 C   0  0  1  0  0  0  0  0  0  0  0  0
  -19.5266  -27.5086   22.3714 C   0  0  0  0  0  0  0  0  0  0  0  0
  -24.5512  -29.4482   26.2265 C   0  0  0  0  0  0  0  0  0  0  0  0
  -22.6486  -27.8743   25.8124 C   0  0  0  0  0  0  0  0  0  0  0  0
  -22.2107  -30.3162   26.0739 C   0  0  0  0  0  0  0  0  0  0  0  0
  -27.8055  -15.9134   20.9903 C   0  0  0  0  0  0  0  0  0  0  0  0
  -21.3449  -29.0441   19.4028 C   0  0  0  0  0  0  0  0  0  0  0  0
  -23.3138  -29.4742   23.9606 C   0  0  1  0  0  0  0  0  0  0  0  0
  -20.4604  -28.4829   21.6703 C   0  0  2  0  0  0  0  0  0  0  0  0
  -23.2020  -29.2809   25.4993 C   0  0  0  0  0  0  0  0  0  0  0  0
  -26.4131  -10.9433   20.8307 N   0  0  0  0  0  0  0  0  0  0  0  0
  -27.2730  -11.8370   21.3483 N   0  0  0  0  0  0  0  0  0  0  0  0
  -27.9362  -22.1846   19.5002 N   0  0  0  0  0  0  0  0  0  0  0  0
  -25.2654  -30.9229   23.4773 N   0  0  0  0  0  0  0  0  0  0  0  0
  -28.8069  -14.4064   18.9602 N   0  0  0  0  0  0  0  0  0  0  0  0
  -27.8716  -12.9369   23.3590 N   0  0  0  0  0  0  0  0  0  0  0  0
  -24.4148  -10.3082   24.5986 N   0  0  0  0  0  0  0  0  0  0  0  0
  -25.6692  -34.4161   24.0199 N   0  0  0  0  0  0  0  0  0  0  0  0
  -22.0465  -29.3482   23.2489 N   0  0  0  0  0  0  0  0  0  0  0  0
  -28.4870  -16.5925   19.8905 N   0  0  0  0  0  0  0  0  0  0  0  0
  -20.4830  -28.1498   20.2179 N   0  3  0  0  0  0  0  0  0  0  0  0
  -25.9338  -11.8586   25.3386 O   0  0  0  0  0  0  0  0  0  0  0  0
  -25.9888  -32.5554   25.3830 O   0  0  0  0  0  0  0  0  0  0  0  0
  -23.0997  -31.7692   23.4106 O   0  0  0  0  0  0  0  0  0  0  0  0
  -22.7086  -27.6175   21.8549 O   0  0  0  0  0  0  0  0  0  0  0  0
  -29.6191  -16.2987   17.9001 O   0  0  0  0  0  0  0  0  0  0  0  0
  -21.5414   -6.8683   21.2914 O   0  0  0  0  0  0  0  0  0  0  0  0
  -28.5375  -27.0371   20.3509 O   0  0  0  0  0  0  0  0  0  1  0  0
  -19.4185   -4.6547   25.8736 F   0  0  0  0  0  0  0  0  0  0  0  0
  -29.9770  -20.8440   18.1744 F   0  0  0  0  0  0  0  0  0  0  0  0
  -21.6305   -4.1387   21.7208 F   0  0  0  0  0  0  0  0  0  0  0  0
  1  2  1  0  0  0  0
  1  5  2  0  0  0  0
  2  6  2  0  0  0  0
  3 10  2  0  0  0  0
  3 18  1  0  0  0  0
  4 11  1  0  0  0  0
  4 18  2  0  0  0  0
  5 20  1  0  0  0  0
  6 22  1  0  0  0  0
  7 12  2  0  0  0  0
  7 21  1  0  0  0  0
  8  9  2  0  0  0  0
  8 24  1  0  0  0  0
  9 25  1  0  0  0  0
 10 26  1  0  0  0  0
 11 26  2  0  0  0  0
 12 27  1  0  0  0  0
 13 14  2  0  0  0  0
 13 28  1  0  0  0  0
 14 29  1  0  0  0  0
 15 23  1  0  0  0  0
 15 27  2  0  0  0  0
 16 25  2  0  0  0  0
 16 30  1  0  0  0  0
 17 29  2  0  0  0  0
 17 31  1  0  0  0  0
 18 32  1  0  0  0  0
 19 32  1  0  0  0  0
 19 33  2  0  0  0  0
 19 36  1  0  0  0  0
 20 22  2  0  0  0  0
 20 41  1  0  0  0  0
 21 23  2  0  0  0  0
 21 42  1  0  0  0  0
 22 54  1  0  0  0  0
 23 43  1  0  0  0  0
 24 30  2  0  0  0  0
 24 68  1  0  0  0  0
 25 75  1  0  0  0  0
 26 82  1  0  0  0  0
 27 83  1  0  0  0  0
 28 31  2  0  0  0  0
 28 82  1  0  0  0  0
 29 84  1  0  0  0  0
 30 85  1  0  0  0  0
 31 86  1  0  0  0  0
 32 66  2  0  0  0  0
 33 67  1  0  0  0  0
 33 71  1  0  0  0  0
 34 35  2  0  0  0  0
 34 44  1  0  0  0  0
 34 45  1  0  0  0  0
 35 83  1  0  0  0  0
 36 72  1  0  0  0  0
 36 77  2  0  0  0  0
 37 55  1  0  0  0  0
 37 73  1  0  0  0  0
 37 78  2  0  0  0  0
 38 63  1  0  0  0  0
 38 69  1  0  0  0  0
 38 79  2  0  0  0  0
 39 64  1  0  0  0  0
 39 74  1  0  0  0  0
 39 80  2  0  0  0  0
 40 70  1  0  0  0  0
 40 75  1  0  0  0  0
 40 81  2  0  0  0  0
 41 46  1  0  0  0  0
 42 55  1  0  0  0  0
 43 69  1  0  0  0  0
 44 50  1  0  0  0  0
 45 51  1  0  0  0  0
 46 48  1  0  0  0  0
 47 49  1  0  0  0  0
 47 52  1  0  0  0  0
 48 54  1  0  0  0  0
 49 56  1  0  0  0  0
 50 68  1  0  0  0  0
 51 68  1  0  0  0  0
 52 70  1  0  0  0  0
 53 56  1  0  0  0  0
 53 70  1  0  0  0  0
 54 73  1  0  0  0  0
 55 69  1  0  0  0  0
 56 67  1  0  0  0  0
 57 64  1  0  0  0  0
 58 65  1  0  0  0  0
 59 65  1  0  0  0  0
 60 65  1  0  0  0  0
 61 75  1  0  0  0  0
 62 76  1  0  0  0  0
 63 65  1  0  0  0  0
 63 74  1  0  0  0  0
 64 76  1  0  0  0  0
 66 67  1  0  0  0  0
M  CHG  1  76   1
M  ISO  4  35 101  40 100  75 100  83 101
M  END
> <Batch ID>
0096

> <Smiles>
CNC(C)C(=O)NC(C(=O)N1Cc2cc([101O:1][101CH:1]=C3CCN(c4ccc([100N:0](C)[100C:0](=O)N5CCCC(n6nc(-c7ccc(Oc8ccc(F)cc8F)cc7)c(C(N)=O)c6N)C5)cc4F)CC3)ccc2CC1C(=O)NC1CCCc2ccccc21)C(C)(C)C

> <Shape>
0.343

> <Color>
0.110

> <Negative vol penalty>
0.000

$$$$

  -OEChem-04052300463D

 86 95  0     1  0  0  0  0  0999 V2000
  -17.2793  -30.2663   24.5827 C   0  0  0  0  0  0  0  0  0  0  0  0
  -18.5856  -30.4804   25.0106 C   0  0  0  0  0  0  0  0  0  0  0  0
  -24.6087  -14.9992   20.6705 C   0  0  0  0  0  0  0  0  0  0  0  0
  -26.5747  -14.8801   22.0697 C   0  0  0  0  0  0  0  0  0  0  0  0
  -17.0191  -29.3301   23.5828 C   0  0  0  0  0  0  0  0  0  0  0  0
  -19.6325  -29.7577   24.4394 C   0  0  0  0  0  0  0  0  0  0  0  0
  -25.3309  -31.7397   23.3879 C   0  0  0  0  0  0  0  0  0  0  0  0
  -30.3824  -25.6952   24.4671 C   0  0  0  0  0  0  0  0  0  0  0  0
  -29.7470  -24.9336   23.4865 C   0  0  0  0  0  0  0  0  0  0  0  0
  -24.7056  -13.6308   20.4179 C   0  0  0  0  0  0  0  0  0  0  0  0
  -26.6715  -13.5117   21.8172 C   0  0  0  0  0  0  0  0  0  0  0  0
  -26.5233  -31.5839   24.0933 C   0  0  0  0  0  0  0  0  0  0  0  0
  -23.9492  -10.7445   22.0085 C   0  0  0  0  0  0  0  0  0  0  0  0
  -22.7800   -9.9875   22.0816 C   0  0  0  0  0  0  0  0  0  0  0  0
  -27.1071  -29.7165   22.6823 C   0  0  0  0  0  0  0  0  0  0  0  0
  -28.3326  -23.9401   25.1746 C   0  0  0  0  0  0  0  0  0  0  0  0
  -23.0534   -9.3420   19.7696 C   0  0  0  0  0  0  0  0  0  0  0  0
  -25.5433  -15.6239   21.4963 C   0  0  0  0  0  0  0  0  0  0  0  0
  -24.7378  -17.6614   22.8029 C   0  0  0  0  0  0  0  0  0  0  0  0
  -18.0644  -28.6025   22.9924 C   0  0  0  0  0  0  0  0  0  0  0  0
  -25.0121  -30.8767   22.3296 C   0  0  0  0  0  0  0  0  0  0  0  0
  -19.3859  -28.8100   23.4316 C   0  0  0  0  0  0  0  0  0  0  0  0
  -25.9112  -29.8650   21.9634 C   0  0  0  0  0  0  0  0  0  0  0  0
  -29.9930  -25.5793   25.8016 C   0  0  0  0  0  0  0  0  0  0  0  0
  -28.7221  -24.0560   23.8402 C   0  0  0  0  0  0  0  0  0  0  0  0
  -25.7369  -12.8871   20.9913 C   0  0  0  0  0  0  0  0  0  0  0  0
  -27.4103  -30.5704   23.7424 C   0  0  0  0  0  0  0  0  0  0  0  0
  -24.6706  -10.8004   20.8159 C   0  0  0  0  0  0  0  0  0  0  0  0
  -22.3321   -9.2862   20.9622 C   0  0  0  0  0  0  0  0  0  0  0  0
  -28.9680  -24.7018   26.1553 C   0  0  0  0  0  0  0  0  0  0  0  0
  -24.2227  -10.0991   19.6965 C   0  0  0  0  0  0  0  0  0  0  0  0
  -25.4441  -17.0375   21.7572 C   0  0  0  0  0  0  0  0  0  0  0  0
  -24.9563  -19.0039   22.6117 C   0  0  0  0  0  0  0  0  0  0  0  0
  -31.5984  -28.6994   26.3652 C   0  0  0  0  0  0  0  0  0  0  0  0
  -23.9544  -17.0796   23.8534 C   0  0  0  0  0  0  0  0  0  0  0  0
  -22.6806  -28.7928   21.7590 C   0  0  0  0  0  0  0  0  0  0  0  0
  -24.0917  -28.6043   18.8443 C   0  0  0  0  0  0  0  0  0  0  0  0
  -26.9089  -28.9967   16.9585 C   0  0  0  0  0  0  0  0  0  0  0  0
  -28.3440  -23.2742   21.4754 C   0  0  0  0  0  0  0  0  0  0  0  0
  -17.7288  -27.5673   21.9481 C   0  0  0  0  0  0  0  0  0  0  0  0
  -23.7341  -31.0747   21.5614 C   0  0  0  0  0  0  0  0  0  0  0  0
  -25.6252  -28.9249   20.8219 C   0  0  0  0  0  0  0  0  0  0  0  0
  -30.9916  -30.0423   26.0341 C   0  0  0  0  0  0  0  0  0  0  0  0
  -18.9357  -27.1124   21.1316 C   0  0  0  0  0  0  0  0  0  0  0  0
  -27.0061  -21.4837   18.7039 C   0  0  0  0  0  0  0  0  0  0  0  0
  -20.1173  -26.8109   22.0480 C   0  0  0  0  0  0  0  0  0  0  0  0
  -26.4224  -20.2187   19.3372 C   0  0  0  0  0  0  0  0  0  0  0  0
  -28.2981  -21.9187   19.3932 C   0  0  0  0  0  0  0  0  0  0  0  0
  -29.2503  -28.4424   26.4517 C   0  0  0  0  0  0  0  0  0  0  0  0
  -27.6195  -20.8063   21.4840 C   0  0  0  0  0  0  0  0  0  0  0  0
  -20.5510  -28.0634   22.8191 C   0  0  1  0  0  0  0  0  0  0  0  0
  -23.2740  -29.8160   20.8324 C   0  0  1  0  0  0  0  0  0  0  0  0
  -29.5593  -29.9290   26.5625 C   0  0  2  0  0  0  0  0  0  0  0  0
  -26.2827  -20.3662   20.8650 C   0  0  2  0  0  0  0  0  0  0  0  0
  -27.7636  -28.7280   14.6144 C   0  0  0  0  0  0  0  0  0  0  0  0
  -24.2163  -25.5813   19.2389 C   0  0  0  0  0  0  0  0  0  0  0  0
  -25.8843  -25.4767   17.3747 C   0  0  0  0  0  0  0  0  0  0  0  0
  -23.5736  -26.3067   16.9335 C   0  0  0  0  0  0  0  0  0  0  0  0
  -27.5478  -31.8780   16.7373 C   0  0  0  0  0  0  0  0  0  0  0  0
  -30.6783  -26.4024   26.8537 C   0  0  0  0  0  0  0  0  0  0  0  0
  -28.5737  -30.8008   25.8038 C   0  0  0  0  0  0  0  0  0  1  0  0
  -25.1832  -27.7559   18.2378 C   0  0  1  0  0  0  0  0  0  0  0  0
  -27.1398  -29.6802   15.6229 C   0  0  2  0  0  0  0  0  0  0  0  0
  -24.7192  -26.2965   17.9691 C   0  0  0  0  0  0  0  0  0  0  0  0
  -26.0647  -17.9117   20.9605 N   0  0  0  0  0  0  0  0  0  0  0  0
  -25.7490  -19.0987   21.5058 N   0  0  0  0  0  0  0  0  0  0  0  0
  -30.5452  -27.8212   26.6031 N   0  0  0  0  0  0  0  0  0  0  0  0
  -24.3598  -29.1550   20.1055 N   0  0  0  0  0  0  0  0  0  0  0  0
  -28.0888  -22.0419   20.8375 N   0  0  0  0  0  0  0  0  0  0  0  0
  -24.5457  -20.1007   23.2832 N   0  0  0  0  0  0  0  0  0  0  0  0
  -23.8340  -15.6841   23.9025 N   0  0  0  0  0  0  0  0  0  0  0  0
  -28.0779  -23.2808   22.8443 N   0  0  0  0  0  0  0  0  0  0  0  0
  -21.3222  -28.9410   21.9649 N   0  0  0  0  0  0  0  0  0  0  0  0
  -25.6392  -28.4666   17.0482 N   0  0  0  0  0  0  0  0  0  0  0  0
  -28.0487  -30.8495   15.7896 N   0  3  0  0  0  0  0  0  0  0  0  0
  -32.7969  -28.4607   26.3663 O   0  0  0  0  0  0  0  0  0  0  0  0
  -23.3648  -17.7773   24.7130 O   0  0  0  0  0  0  0  0  0  0  0  0
  -23.4014  -27.9318   22.2496 O   0  0  0  0  0  0  0  0  0  0  0  0
  -23.0428  -28.7780   18.2188 O   0  0  0  0  0  0  0  0  0  0  0  0
  -27.7701  -28.9357   17.8333 O   0  0  0  0  0  0  0  0  0  0  0  0
  -28.7415  -24.2595   20.8484 O   0  0  0  0  0  0  0  0  0  0  0  0
  -25.8316  -11.5518   20.7452 O   0  0  0  0  0  0  0  0  0  0  0  0
  -28.5746  -30.4158   24.4298 O   0  0  0  0  0  0  0  0  0  1  0  0
  -21.2101   -8.5580   21.0329 F   0  0  0  0  0  0  0  0  0  0  0  0
  -28.5868  -24.5836   27.4347 F   0  0  0  0  0  0  0  0  0  0  0  0
  -24.9121  -10.1479   18.5484 F   0  0  0  0  0  0  0  0  0  0  0  0
  1  2  1  0  0  0  0
  1  5  2  0  0  0  0
  2  6  2  0  0  0  0
  3 10  2  0  0  0  0
  3 18  1  0  0  0  0
  4 11  1  0  0  0  0
  4 18  2  0  0  0  0
  5 20  1  0  0  0  0
  6 22  1  0  0  0  0
  7 12  2  0  0  0  0
  7 21  1  0  0  0  0
  8  9  2  0  0  0  0
  8 24  1  0  0  0  0
  9 25  1  0  0  0  0
 10 26  1  0  0  0  0
 11 26  2  0  0  0  0
 12 27  1  0  0  0  0
 13 14  2  0  0  0  0
 13 28  1  0  0  0  0
 14 29  1  0  0  0  0
 15 23  1  0  0  0  0
 15 27  2  0  0  0  0
 16 25  2  0  0  0  0
 16 30  1  0  0  0  0
 17 29  2  0  0  0  0
 17 31  1  0  0  0  0
 18 32  1  0  0  0  0
 19 32  1  0  0  0  0
 19 33  2  0  0  0  0
 19 35  1  0  0  0  0
 20 22  2  0  0  0  0
 20 40  1  0  0  0  0
 21 23  2  0  0  0  0
 21 41  1  0  0  0  0
 22 51  1  0  0  0  0
 23 42  1  0  0  0  0
 24 30  2  0  0  0  0
 24 60  1  0  0  0  0
 25 72  1  0  0  0  0
 26 82  1  0  0  0  0
 27 83  1  0  0  0  0
 28 31  2  0  0  0  0
 28 82  1  0  0  0  0
 29 84  1  0  0  0  0
 30 85  1  0  0  0  0
 31 86  1  0  0  0  0
 32 65  2  0  0  0  0
 33 66  1  0  0  0  0
 33 70  1  0  0  0  0
 34 43  1  0  0  0  0
 34 67  1  0  0  0  0
 34 76  2  0  0  0  0
 35 71  1  0  0  0  0
 35 77  2  0  0  0  0
 36 52  1  0  0  0  0
 36 73  1  0  0  0  0
 36 78  2  0  0  0  0
 37 62  1  0  0  0  0
 37 68  1  0  0  0  0
 37 79  2  0  0  0  0
 38 63  1  0  0  0  0
 38 74  1  0  0  0  0
 38 80  2  0  0  0  0
 39 69  1  0  0  0  0
 39 72  1  0  0  0  0
 39 81  2  0  0  0  0
 40 44  1  0  0  0  0
 41 52  1  0  0  0  0
 42 68  1  0  0  0  0
 43 53  1  0  0  0  0
 44 46  1  0  0  0  0
 45 47  1  0  0  0  0
 45 48  1  0  0  0  0
 46 51  1  0  0  0  0
 47 54  1  0  0  0  0
 48 69  1  0  0  0  0
 49 53  1  0  0  0  0
 49 67  1  0  0  0  0
 50 54  1  0  0  0  0
 50 69  1  0  0  0  0
 51 73  1  0  0  0  0
 52 68  1  0  0  0  0
 53 61  1  0  0  0  0
 54 66  1  0  0  0  0
 55 63  1  0  0  0  0
 56 64  1  0  0  0  0
 57 64  1  0  0  0  0
 58 64  1  0  0  0  0
 59 75  1  0  0  0  0
 60 67  1  0  0  0  0
 61 83  1  0  0  0  0
 62 64  1  0  0  0  0
 62 74  1  0  0  0  0
 63 75  1  0  0  0  0
 65 66  1  0  0  0  0
M  CHG  1  75   1
M  ISO  4  39 100  61 101  72 100  83 101
M  END
> <Batch ID>
0096

> <Smiles>
CNC(C)C(=O)NC(C(=O)N1Cc2cc([101O:1][101CH2:1]C3CC(=O)N(Cc4ccc([100NH:0][100C:0](=O)N5CCCC(n6nc(-c7ccc(Oc8ccc(F)cc8F)cc7)c(C(N)=O)c6N)C5)cc4F)C3)ccc2CC1C(=O)NC1CCCc2ccccc21)C(C)(C)C

> <Shape>
0.235

> <Color>
0.090

> <Negative vol penalty>
0.000

$$$$

  -OEChem-04052300463D

 84 92  0     1  0  0  0  0  0999 V2000
  -29.0593  -34.8006   25.5280 C   0  0  0  0  0  0  0  0  0  0  0  0
  -29.3589  -33.7982   24.6109 C   0  0  0  0  0  0  0  0  0  0  0  0
  -24.0328  -10.0094   22.5681 C   0  0  0  0  0  0  0  0  0  0  0  0
  -24.4015  -11.7239   24.2299 C   0  0  0  0  0  0  0  0  0  0  0  0
  -28.0280  -34.6165   26.4481 C   0  0  0  0  0  0  0  0  0  0  0  0
  -28.6281  -32.6107   24.6142 C   0  0  0  0  0  0  0  0  0  0  0  0
  -27.1174  -29.2042   19.7543 C   0  0  0  0  0  0  0  0  0  0  0  0
  -29.8622  -18.5353   22.0431 C   0  0  0  0  0  0  0  0  0  0  0  0
  -29.5489  -19.7681   21.4707 C   0  0  0  0  0  0  0  0  0  0  0  0
  -23.5953   -9.1373   23.5649 C   0  0  0  0  0  0  0  0  0  0  0  0
  -23.9640  -10.8518   25.2267 C   0  0  0  0  0  0  0  0  0  0  0  0
  -27.6778  -28.0512   19.2063 C   0  0  0  0  0  0  0  0  0  0  0  0
  -20.7811   -8.6260   25.3682 C   0  0  0  0  0  0  0  0  0  0  0  0
  -19.6249   -7.8862   25.1205 C   0  0  0  0  0  0  0  0  0  0  0  0
  -26.0812  -26.7073   20.4162 C   0  0  0  0  0  0  0  0  0  0  0  0
  -31.8542  -18.4094   20.6818 C   0  0  0  0  0  0  0  0  0  0  0  0
  -20.8803   -5.8380   25.3781 C   0  0  0  0  0  0  0  0  0  0  0  0
  -24.4359  -11.3027   22.9006 C   0  0  0  0  0  0  0  0  0  0  0  0
  -24.1039  -13.1002   21.1211 C   0  0  0  0  0  0  0  0  0  0  0  0
  -27.2779  -33.4299   26.4563 C   0  0  0  0  0  0  0  0  0  0  0  0
  -26.0399  -29.1166   20.6474 C   0  0  0  0  0  0  0  0  0  0  0  0
  -27.5868  -32.4100   25.5362 C   0  0  0  0  0  0  0  0  0  0  0  0
  -25.5073  -27.8609   20.9722 C   0  0  0  0  0  0  0  0  0  0  0  0
  -31.0149  -17.8560   21.6487 C   0  0  0  0  0  0  0  0  0  0  0  0
  -30.3882  -20.3215   20.5038 C   0  0  0  0  0  0  0  0  0  0  0  0
  -31.5409  -19.6422   20.1094 C   0  0  0  0  0  0  0  0  0  0  0  0
  -23.5609   -9.5585   24.8942 C   0  0  0  0  0  0  0  0  0  0  0  0
  -27.1616  -26.8023   19.5395 C   0  0  0  0  0  0  0  0  0  0  0  0
  -21.9870   -7.9719   25.6207 C   0  0  0  0  0  0  0  0  0  0  0  0
  -19.6744   -6.4922   25.1255 C   0  0  0  0  0  0  0  0  0  0  0  0
  -22.0365   -6.5779   25.6256 C   0  0  0  0  0  0  0  0  0  0  0  0
  -24.8884  -12.2039   21.8714 C   0  0  0  0  0  0  0  0  0  0  0  0
  -24.9980  -13.7210   20.2835 C   0  0  0  0  0  0  0  0  0  0  0  0
  -22.6930  -13.3494   21.1764 C   0  0  0  0  0  0  0  0  0  0  0  0
  -25.5736  -29.9246   23.6861 C   0  0  0  0  0  0  0  0  0  0  0  0
  -28.8367  -23.5931   19.5178 C   0  0  0  0  0  0  0  0  0  0  0  0
  -22.5185  -29.0424   23.0457 C   0  0  0  0  0  0  0  0  0  0  0  0
  -20.3747  -27.2049   21.1288 C   0  0  0  0  0  0  0  0  0  0  0  0
  -30.8908  -14.7238   20.6312 C   0  0  0  0  0  0  0  0  0  0  0  0
  -26.2037  -33.2575   27.5008 C   0  0  0  0  0  0  0  0  0  0  0  0
  -25.4295  -30.3713   21.2090 C   0  0  0  0  0  0  0  0  0  0  0  0
  -24.3382  -27.7139   21.9104 C   0  0  0  0  0  0  0  0  0  0  0  0
  -25.2317  -32.1213   27.1931 C   0  0  0  0  0  0  0  0  0  0  0  0
  -29.1634  -12.9879   18.0467 C   0  0  0  0  0  0  0  0  0  0  0  0
  -25.9919  -30.8680   26.7710 C   0  0  0  0  0  0  0  0  0  0  0  0
  -27.8011  -12.6710   18.6662 C   0  0  0  0  0  0  0  0  0  0  0  0
  -30.2874  -12.8924   19.0761 C   0  0  0  0  0  0  0  0  0  0  0  0
  -28.7195  -13.3813   20.9136 C   0  0  0  0  0  0  0  0  0  0  0  0
  -26.8005  -31.1177   25.4922 C   0  0  1  0  0  0  0  0  0  0  0  0
  -24.6651  -30.1343   22.5079 C   0  0  1  0  0  0  0  0  0  0  0  0
  -27.5474  -13.5192   19.9269 C   0  0  2  0  0  0  0  0  0  0  0  0
  -17.9392  -26.6586   20.8691 C   0  0  0  0  0  0  0  0  0  0  0  0
  -22.6781  -27.1911   25.4658 C   0  0  0  0  0  0  0  0  0  0  0  0
  -20.6431  -26.0105   24.6095 C   0  0  0  0  0  0  0  0  0  0  0  0
  -20.5133  -28.4219   25.2349 C   0  0  0  0  0  0  0  0  0  0  0  0
  -20.2949  -28.3303   18.3928 C   0  0  0  0  0  0  0  0  0  0  0  0
  -31.3500  -16.5381   22.2611 C   0  0  0  0  0  0  0  0  0  0  0  0
  -28.8858  -22.3042   20.3106 C   0  0  0  0  0  0  0  0  0  0  0  0
  -27.6442  -24.4877   19.7952 C   0  0  0  0  0  0  0  0  0  1  0  0
  -21.7388  -27.7523   23.1273 C   0  0  1  0  0  0  0  0  0  0  0  0
  -19.0749  -27.5729   20.4364 C   0  0  2  0  0  0  0  0  0  0  0  0
  -21.4166  -27.3463   24.5932 C   0  0  0  0  0  0  0  0  0  0  0  0
  -26.1815  -12.2481   21.5396 N   0  0  0  0  0  0  0  0  0  0  0  0
  -26.2163  -13.1796   20.5715 N   0  0  0  0  0  0  0  0  0  0  0  0
  -23.7801  -28.9698   22.4384 N   0  0  0  0  0  0  0  0  0  0  0  0
  -29.9859  -13.7209   20.2459 N   0  0  0  0  0  0  0  0  0  0  0  0
  -32.4052  -20.1854   19.1328 N   0  0  0  0  0  0  0  0  0  0  0  0
  -24.8531  -14.6715   19.3360 N   0  0  0  0  0  0  0  0  0  0  0  0
  -21.9219  -12.6240   22.0948 N   0  0  0  0  0  0  0  0  0  0  0  0
  -30.0582  -21.5496   19.9485 N   0  0  0  0  0  0  0  0  0  0  0  0
  -25.9342  -31.0910   24.3332 N   0  0  0  0  0  0  0  0  0  0  0  0
  -20.5615  -27.9329   22.2848 N   0  0  0  0  0  0  0  0  0  0  0  0
  -30.5256  -15.4673   21.7467 N   0  0  0  0  0  0  0  0  0  0  0  0
  -19.2272  -27.4656   18.9578 N   0  3  0  0  0  0  0  0  0  0  0  0
  -22.1302  -14.1786   20.4220 O   0  0  0  0  0  0  0  0  0  0  0  0
  -25.9206  -28.7884   23.9867 O   0  0  0  0  0  0  0  0  0  0  0  0
  -29.7014  -23.9043   18.6997 O   0  0  0  0  0  0  0  0  0  0  0  0
  -22.0232  -30.0779   23.4975 O   0  0  0  0  0  0  0  0  0  0  0  0
  -21.1454  -26.3539   20.6901 O   0  0  0  0  0  0  0  0  0  0  0  0
  -31.9435  -14.9440   20.0227 O   0  0  0  0  0  0  0  0  0  0  0  0
  -23.1339   -8.7078   25.8671 O   0  0  0  0  0  0  0  0  0  0  0  0
  -27.7071  -25.6753   19.0065 O   0  0  0  0  0  0  0  0  0  1  0  0
  -18.5637   -5.7819   24.8892 F   0  0  0  0  0  0  0  0  0  0  0  0
  -23.1918   -5.9439   25.8688 F   0  0  0  0  0  0  0  0  0  0  0  0
  1  2  1  0  0  0  0
  1  5  2  0  0  0  0
  2  6  2  0  0  0  0
  3 10  2  0  0  0  0
  3 18  1  0  0  0  0
  4 11  1  0  0  0  0
  4 18  2  0  0  0  0
  5 20  1  0  0  0  0
  6 22  1  0  0  0  0
  7 12  2  0  0  0  0
  7 21  1  0  0  0  0
  8  9  2  0  0  0  0
  8 24  1  0  0  0  0
  9 25  1  0  0  0  0
 10 27  1  0  0  0  0
 11 27  2  0  0  0  0
 12 28  1  0  0  0  0
 13 14  2  0  0  0  0
 13 29  1  0  0  0  0
 14 30  1  0  0  0  0
 15 23  1  0  0  0  0
 15 28  2  0  0  0  0
 16 24  2  0  0  0  0
 16 26  1  0  0  0  0
 17 30  2  0  0  0  0
 17 31  1  0  0  0  0
 18 32  1  0  0  0  0
 19 32  1  0  0  0  0
 19 33  2  0  0  0  0
 19 34  1  0  0  0  0
 20 22  2  0  0  0  0
 20 40  1  0  0  0  0
 21 23  2  0  0  0  0
 21 41  1  0  0  0  0
 22 49  1  0  0  0  0
 23 42  1  0  0  0  0
 24 57  1  0  0  0  0
 25 26  2  0  0  0  0
 25 70  1  0  0  0  0
 26 67  1  0  0  0  0
 27 81  1  0  0  0  0
 28 82  1  0  0  0  0
 29 31  2  0  0  0  0
 29 81  1  0  0  0  0
 30 83  1  0  0  0  0
 31 84  1  0  0  0  0
 32 63  2  0  0  0  0
 33 64  1  0  0  0  0
 33 68  1  0  0  0  0
 34 69  1  0  0  0  0
 34 75  2  0  0  0  0
 35 50  1  0  0  0  0
 35 71  1  0  0  0  0
 35 76  2  0  0  0  0
 36 58  1  0  0  0  0
 36 59  1  0  0  0  0
 36 77  2  0  0  0  0
 37 60  1  0  0  0  0
 37 65  1  0  0  0  0
 37 78  2  0  0  0  0
 38 61  1  0  0  0  0
 38 72  1  0  0  0  0
 38 79  2  0  0  0  0
 39 66  1  0  0  0  0
 39 73  1  0  0  0  0
 39 80  2  0  0  0  0
 40 43  1  0  0  0  0
 41 50  1  0  0  0  0
 42 65  1  0  0  0  0
 43 45  1  0  0  0  0
 44 46  1  0  0  0  0
 44 47  1  0  0  0  0
 45 49  1  0  0  0  0
 46 51  1  0  0  0  0
 47 66  1  0  0  0  0
 48 51  1  0  0  0  0
 48 66  1  0  0  0  0
 49 71  1  0  0  0  0
 50 65  1  0  0  0  0
 51 64  1  0  0  0  0
 52 61  1  0  0  0  0
 53 62  1  0  0  0  0
 54 62  1  0  0  0  0
 55 62  1  0  0  0  0
 56 74  1  0  0  0  0
 57 73  1  0  0  0  0
 58 70  1  0  0  0  0
 59 82  1  0  0  0  0
 60 62  1  0  0  0  0
 60 72  1  0  0  0  0
 61 74  1  0  0  0  0
 63 64  1  0  0  0  0
M  CHG  1  74   1
M  ISO  4  39 100  59 101  73 100  82 101
M  END
> <Batch ID>
0096

> <Smiles>
CNC(C)C(=O)NC(C(=O)N1Cc2cc([101O:1][101CH2:1]C(=O)CNc3ccc(C[100NH:0][100C:0](=O)N4CCCC(n5nc(-c6ccc(Oc7ccc(F)cc7F)cc6)c(C(N)=O)c5N)C4)cc3N)ccc2CC1C(=O)NC1CCCc2ccccc21)C(C)(C)C

> <Shape>
0.332

> <Color>
0.119

> <Negative vol penalty>
0.000

$$$$

  -OEChem-04052300463D

 86 95  0     1  0  0  0  0  0999 V2000
  -15.8045  -27.2289   24.1265 C   0  0  0  0  0  0  0  0  0  0  0  0
  -16.8685  -26.7548   23.3658 C   0  0  0  0  0  0  0  0  0  0  0  0
  -24.5827   -8.8022   21.3180 C   0  0  0  0  0  0  0  0  0  0  0  0
  -22.7249  -10.1908   20.6419 C   0  0  0  0  0  0  0  0  0  0  0  0
  -15.6784  -28.5957   24.3711 C   0  0  0  0  0  0  0  0  0  0  0  0
  -17.8065  -27.6474   22.8484 C   0  0  0  0  0  0  0  0  0  0  0  0
  -22.5680  -26.0393   23.4702 C   0  0  0  0  0  0  0  0  0  0  0  0
  -27.5426  -19.0764   21.6964 C   0  0  0  0  0  0  0  0  0  0  0  0
  -26.6353  -20.7360   23.1997 C   0  0  0  0  0  0  0  0  0  0  0  0
  -27.4202  -18.1074   22.6922 C   0  0  0  0  0  0  0  0  0  0  0  0
  -26.5128  -19.7669   24.1955 C   0  0  0  0  0  0  0  0  0  0  0  0
  -23.7159   -7.7216   21.4809 C   0  0  0  0  0  0  0  0  0  0  0  0
  -21.8580   -9.1102   20.8047 C   0  0  0  0  0  0  0  0  0  0  0  0
  -23.0284  -25.0582   22.5930 C   0  0  0  0  0  0  0  0  0  0  0  0
  -21.4892   -6.6400   23.7823 C   0  0  0  0  0  0  0  0  0  0  0  0
  -21.6273   -5.8674   24.9354 C   0  0  0  0  0  0  0  0  0  0  0  0
  -24.1610  -26.7524   21.3023 C   0  0  0  0  0  0  0  0  0  0  0  0
  -22.0752   -3.9202   23.5771 C   0  0  0  0  0  0  0  0  0  0  0  0
  -24.0872  -10.0368   20.8986 C   0  0  0  0  0  0  0  0  0  0  0  0
  -26.0875  -11.2342   19.8628 C   0  0  0  0  0  0  0  0  0  0  0  0
  -16.6207  -29.5046   23.8645 C   0  0  0  0  0  0  0  0  0  0  0  0
  -22.8922  -27.3878   23.2634 C   0  0  0  0  0  0  0  0  0  0  0  0
  -17.6921  -29.0278   23.0853 C   0  0  0  0  0  0  0  0  0  0  0  0
  -23.7056  -27.7483   22.1797 C   0  0  0  0  0  0  0  0  0  0  0  0
  -27.1502  -20.3907   21.9502 C   0  0  0  0  0  0  0  0  0  0  0  0
  -26.9052  -18.4526   23.9417 C   0  0  0  0  0  0  0  0  0  0  0  0
  -22.3535   -7.8756   21.2242 C   0  0  0  0  0  0  0  0  0  0  0  0
  -23.8226  -25.4151   21.5072 C   0  0  0  0  0  0  0  0  0  0  0  0
  -21.6440   -6.0527   22.5266 C   0  0  0  0  0  0  0  0  0  0  0  0
  -21.9203   -4.5076   24.8328 C   0  0  0  0  0  0  0  0  0  0  0  0
  -21.9370   -4.6929   22.4240 C   0  0  0  0  0  0  0  0  0  0  0  0
  -24.9821  -11.1536   20.7307 C   0  0  0  0  0  0  0  0  0  0  0  0
  -26.6021  -12.4893   20.0778 C   0  0  0  0  0  0  0  0  0  0  0  0
  -28.2911  -21.3061   19.9475 C   0  0  0  0  0  0  0  0  0  0  0  0
  -26.6030  -10.2614   18.9443 C   0  0  0  0  0  0  0  0  0  0  0  0
  -21.2257  -30.0328   22.6888 C   0  0  0  0  0  0  0  0  0  0  0  0
  -24.1216  -31.4596   23.0053 C   0  0  0  0  0  0  0  0  0  0  0  0
  -27.5138  -30.7901   21.9747 C   0  0  0  0  0  0  0  0  0  0  0  0
  -26.5498  -16.0944   24.6514 C   0  0  0  0  0  0  0  0  0  0  0  0
  -16.4164  -30.9777   24.1156 C   0  0  0  0  0  0  0  0  0  0  0  0
  -22.4098  -28.4308   24.2339 C   0  0  0  0  0  0  0  0  0  0  0  0
  -24.0989  -29.1797   21.9250 C   0  0  0  0  0  0  0  0  0  0  0  0
  -28.1538  -22.2162   18.7415 C   0  0  0  0  0  0  0  0  0  0  0  0
  -17.6606  -31.8199   23.8456 C   0  0  0  0  0  0  0  0  0  0  0  0
  -27.5495  -23.5693   19.0460 C   0  0  0  0  0  0  0  0  0  0  0  0
  -25.3191  -16.8928   21.4125 C   0  0  0  0  0  0  0  0  0  0  0  0
  -18.2921  -31.4277   22.5137 C   0  0  0  0  0  0  0  0  0  0  0  0
  -25.1904  -15.5047   20.7861 C   0  0  0  0  0  0  0  0  0  0  0  0
  -24.9020  -16.8980   22.8835 C   0  0  0  0  0  0  0  0  0  0  0  0
  -26.4498  -22.6094   21.0492 C   0  0  0  0  0  0  0  0  0  0  0  0
  -25.4723  -14.4982   23.0836 C   0  0  0  0  0  0  0  0  0  0  0  0
  -18.7437  -29.9623   22.5275 C   0  0  1  0  0  0  0  0  0  0  0  0
  -22.3755  -29.8336   23.6353 C   0  0  1  0  0  0  0  0  0  0  0  0
  -26.2141  -23.3653   19.7424 C   0  0  1  0  0  0  0  0  0  0  0  0
  -25.9395  -14.4507   21.6205 C   0  0  1  0  0  0  0  0  0  0  0  0
  -29.6971  -31.4851   22.9979 C   0  0  0  0  0  0  0  0  0  0  0  0
  -23.9614  -33.7976   21.0513 C   0  0  0  0  0  0  0  0  0  0  0  0
  -26.4345  -33.5973   20.7172 C   0  0  0  0  0  0  0  0  0  0  0  0
  -25.5231  -34.1491   22.9727 C   0  0  0  0  0  0  0  0  0  0  0  0
  -27.1312  -17.8130   26.3496 C   0  0  0  0  0  0  0  0  0  0  0  0
  -28.4579  -27.9903   22.1454 C   0  0  0  0  0  0  0  0  0  0  0  0
  -25.5232  -24.7017   20.0055 C   0  0  0  0  0  0  0  0  0  1  0  0
  -25.2518  -31.8047   22.0659 C   0  0  1  0  0  0  0  0  0  0  0  0
  -28.6689  -30.3724   22.8666 C   0  0  2  0  0  0  0  0  0  0  0  0
  -25.2756  -33.3149   21.6969 C   0  0  0  0  0  0  0  0  0  0  0  0
  -24.8042  -12.2687   21.4441 N   0  0  0  0  0  0  0  0  0  0  0  0
  -25.8049  -13.0618   21.0248 N   0  0  0  0  0  0  0  0  0  0  0  0
  -27.2776  -21.3965   20.9171 N   0  0  0  0  0  0  0  0  0  0  0  0
  -23.5971  -30.1637   22.8985 N   0  0  0  0  0  0  0  0  0  0  0  0
  -25.6123  -15.8501   23.6302 N   0  0  0  0  0  0  0  0  0  0  0  0
  -27.6542  -13.1481   19.5474 N   0  0  0  0  0  0  0  0  0  0  0  0
  -26.1150  -10.2586   17.6304 N   0  0  0  0  0  0  0  0  0  0  0  0
  -19.9846  -29.8228   23.2591 N   0  0  0  0  0  0  0  0  0  0  0  0
  -26.4734  -31.3261   22.7038 N   0  0  0  0  0  0  0  0  0  0  0  0
  -26.7783  -17.4497   24.9729 N   0  0  0  0  0  0  0  0  0  0  0  0
  -29.3472  -29.1694   22.3065 N   0  3  0  0  0  0  0  0  0  0  0  0
  -29.2372  -20.5142   19.9714 O   0  0  0  0  0  0  0  0  0  0  0  0
  -27.4588   -9.4092   19.2831 O   0  0  0  0  0  0  0  0  0  0  0  0
  -21.4478  -30.3548   21.5275 O   0  0  0  0  0  0  0  0  0  0  0  0
  -23.7237  -32.3063   23.8094 O   0  0  0  0  0  0  0  0  0  0  0  0
  -27.5339  -30.6577   20.7529 O   0  0  0  0  0  0  0  0  0  0  0  0
  -27.1192  -15.1726   25.2482 O   0  0  0  0  0  0  0  0  0  0  0  0
  -21.5074   -6.8213   21.3827 O   0  0  0  0  0  0  0  0  0  0  0  0
  -24.2728  -24.4596   20.6492 O   0  0  0  0  0  0  0  0  0  1  0  0
  -22.0544   -3.7661   25.9402 F   0  0  0  0  0  0  0  0  0  0  0  0
  -22.0881   -4.1233   21.2204 F   0  0  0  0  0  0  0  0  0  0  0  0
  1  2  1  0  0  0  0
  1  5  2  0  0  0  0
  2  6  2  0  0  0  0
  3 12  2  0  0  0  0
  3 19  1  0  0  0  0
  4 13  1  0  0  0  0
  4 19  2  0  0  0  0
  5 21  1  0  0  0  0
  6 23  1  0  0  0  0
  7 14  2  0  0  0  0
  7 22  1  0  0  0  0
  8 10  2  0  0  0  0
  8 25  1  0  0  0  0
  9 11  1  0  0  0  0
  9 25  2  0  0  0  0
 10 26  1  0  0  0  0
 11 26  2  0  0  0  0
 12 27  1  0  0  0  0
 13 27  2  0  0  0  0
 14 28  1  0  0  0  0
 15 16  2  0  0  0  0
 15 29  1  0  0  0  0
 16 30  1  0  0  0  0
 17 24  1  0  0  0  0
 17 28  2  0  0  0  0
 18 30  2  0  0  0  0
 18 31  1  0  0  0  0
 19 32  1  0  0  0  0
 20 32  1  0  0  0  0
 20 33  2  0  0  0  0
 20 35  1  0  0  0  0
 21 23  2  0  0  0  0
 21 40  1  0  0  0  0
 22 24  2  0  0  0  0
 22 41  1  0  0  0  0
 23 52  1  0  0  0  0
 24 42  1  0  0  0  0
 25 68  1  0  0  0  0
 26 75  1  0  0  0  0
 27 83  1  0  0  0  0
 28 84  1  0  0  0  0
 29 31  2  0  0  0  0
 29 83  1  0  0  0  0
 30 85  1  0  0  0  0
 31 86  1  0  0  0  0
 32 66  2  0  0  0  0
 33 67  1  0  0  0  0
 33 71  1  0  0  0  0
 34 43  1  0  0  0  0
 34 68  1  0  0  0  0
 34 77  2  0  0  0  0
 35 72  1  0  0  0  0
 35 78  2  0  0  0  0
 36 53  1  0  0  0  0
 36 73  1  0  0  0  0
 36 79  2  0  0  0  0
 37 63  1  0  0  0  0
 37 69  1  0  0  0  0
 37 80  2  0  0  0  0
 38 64  1  0  0  0  0
 38 74  1  0  0  0  0
 38 81  2  0  0  0  0
 39 70  1  0  0  0  0
 39 75  1  0  0  0  0
 39 82  2  0  0  0  0
 40 44  1  0  0  0  0
 41 53  1  0  0  0  0
 42 69  1  0  0  0  0
 43 45  1  0  0  0  0
 44 47  1  0  0  0  0
 45 54  1  0  0  0  0
 46 48  1  0  0  0  0
 46 49  1  0  0  0  0
 47 52  1  0  0  0  0
 48 55  1  0  0  0  0
 49 70  1  0  0  0  0
 50 54  1  0  0  0  0
 50 68  1  0  0  0  0
 51 55  1  0  0  0  0
 51 70  1  0  0  0  0
 52 73  1  0  0  0  0
 53 69  1  0  0  0  0
 54 62  1  0  0  0  0
 55 67  1  0  0  0  0
 56 64  1  0  0  0  0
 57 65  1  0  0  0  0
 58 65  1  0  0  0  0
 59 65  1  0  0  0  0
 60 75  1  0  0  0  0
 61 76  1  0  0  0  0
 62 84  1  0  0  0  0
 63 65  1  0  0  0  0
 63 74  1  0  0  0  0
 64 76  1  0  0  0  0
 66 67  1  0  0  0  0
M  CHG  1  76   1
M  ISO  4  39 100  62 101  75 100  84 101
M  END
> <Batch ID>
0096

> <Smiles>
CNC(C)C(=O)NC(C(=O)N1Cc2cc([101O:1][101CH2:1]C3CCC(=O)N(c4ccc([100N:0](C)[100C:0](=O)N5CCCC(n6nc(-c7ccc(Oc8ccc(F)cc8F)cc7)c(C(N)=O)c6N)C5)cc4)C3)ccc2CC1C(=O)NC1CCCc2ccccc21)C(C)(C)C

> <Shape>
0.271

> <Color>
0.119

> <Negative vol penalty>
0.000

$$$$

  -OEChem-04052300463D

 85 94  0     1  0  0  0  0  0999 V2000
  -22.6501  -23.0422   23.2962 C   0  0  0  0  0  0  0  0  0  0  0  0
  -23.5840  -22.6655   22.3364 C   0  0  0  0  0  0  0  0  0  0  0  0
  -26.7042  -25.5938   20.1346 C   0  0  0  0  0  0  0  0  0  0  0  0
  -29.0183  -26.2798   20.2418 C   0  0  0  0  0  0  0  0  0  0  0  0
  -22.3407  -22.1760   24.3439 C   0  0  0  0  0  0  0  0  0  0  0  0
  -24.2100  -21.4226   22.4245 C   0  0  0  0  0  0  0  0  0  0  0  0
  -26.8778  -16.2104   18.2974 C   0  0  0  0  0  0  0  0  0  0  0  0
  -33.2841  -17.2829   21.1687 C   0  0  0  0  0  0  0  0  0  0  0  0
  -32.4082  -15.7777   22.8433 C   0  0  0  0  0  0  0  0  0  0  0  0
  -32.9920  -16.3480   20.1756 C   0  0  0  0  0  0  0  0  0  0  0  0
  -32.1160  -14.8428   21.8502 C   0  0  0  0  0  0  0  0  0  0  0  0
  -26.3239  -26.9142   19.8946 C   0  0  0  0  0  0  0  0  0  0  0  0
  -28.6380  -27.6002   20.0018 C   0  0  0  0  0  0  0  0  0  0  0  0
  -28.0411  -15.4613   18.1259 C   0  0  0  0  0  0  0  0  0  0  0  0
  -25.8690  -29.7407   21.6914 C   0  0  0  0  0  0  0  0  0  0  0  0
  -24.7769  -30.2391   22.4017 C   0  0  0  0  0  0  0  0  0  0  0  0
  -27.3693  -14.0147   19.9356 C   0  0  0  0  0  0  0  0  0  0  0  0
  -23.6175  -30.6595   20.3242 C   0  0  0  0  0  0  0  0  0  0  0  0
  -28.0514  -25.2766   20.3083 C   0  0  0  0  0  0  0  0  0  0  0  0
  -28.7788  -22.9366   19.5993 C   0  0  0  0  0  0  0  0  0  0  0  0
  -22.9561  -20.9179   24.4395 C   0  0  0  0  0  0  0  0  0  0  0  0
  -25.9552  -15.8731   19.2982 C   0  0  0  0  0  0  0  0  0  0  0  0
  -23.9096  -20.5392   23.4752 C   0  0  0  0  0  0  0  0  0  0  0  0
  -26.1939  -14.7595   20.1161 C   0  0  0  0  0  0  0  0  0  0  0  0
  -32.9922  -16.9977   22.5026 C   0  0  0  0  0  0  0  0  0  0  0  0
  -32.4079  -15.1280   20.5164 C   0  0  0  0  0  0  0  0  0  0  0  0
  -27.2907  -27.9174   19.8281 C   0  0  0  0  0  0  0  0  0  0  0  0
  -28.2884  -14.3651   18.9469 C   0  0  0  0  0  0  0  0  0  0  0  0
  -25.8353  -29.7017   20.2974 C   0  0  0  0  0  0  0  0  0  0  0  0
  -23.6512  -30.6985   21.7181 C   0  0  0  0  0  0  0  0  0  0  0  0
  -24.7096  -30.1611   19.6138 C   0  0  0  0  0  0  0  0  0  0  0  0
  -28.4448  -23.9130   20.5569 C   0  0  0  0  0  0  0  0  0  0  0  0
  -29.0770  -21.8183   20.3389 C   0  0  0  0  0  0  0  0  0  0  0  0
  -32.3455  -14.3187   18.1142 C   0  0  0  0  0  0  0  0  0  0  0  0
  -28.8163  -23.0320   18.1692 C   0  0  0  0  0  0  0  0  0  0  0  0
  -24.8181  -17.3305   21.8841 C   0  0  0  0  0  0  0  0  0  0  0  0
  -22.8722  -14.7384   22.0120 C   0  0  0  0  0  0  0  0  0  0  0  0
  -22.3380  -11.4727   21.1774 C   0  0  0  0  0  0  0  0  0  0  0  0
  -31.5861  -19.3885   24.6916 C   0  0  0  0  0  0  0  0  0  0  0  0
  -22.6243  -20.0350   25.6164 C   0  0  0  0  0  0  0  0  0  0  0  0
  -24.6922  -16.6752   19.4529 C   0  0  0  0  0  0  0  0  0  0  0  0
  -25.2253  -14.3436   21.1919 C   0  0  0  0  0  0  0  0  0  0  0  0
  -31.8889  -13.0505   17.4326 C   0  0  0  0  0  0  0  0  0  0  0  0
  -23.0556  -18.5827   25.4291 C   0  0  0  0  0  0  0  0  0  0  0  0
  -31.8386  -12.0403   18.5632 C   0  0  0  0  0  0  0  0  0  0  0  0
  -28.3838  -20.8398   25.2530 C   0  0  0  0  0  0  0  0  0  0  0  0
  -24.4830  -18.5144   24.8954 C   0  0  0  0  0  0  0  0  0  0  0  0
  -28.1449  -21.6925   24.0057 C   0  0  0  0  0  0  0  0  0  0  0  0
  -29.8510  -20.8571   25.6760 C   0  0  0  0  0  0  0  0  0  0  0  0
  -30.5669  -21.3390   23.3675 C   0  0  0  0  0  0  0  0  0  0  0  0
  -24.5916  -19.1891   23.5227 C   0  0  1  0  0  0  0  0  0  0  0  0
  -24.0708  -16.5495   20.8405 C   0  0  1  0  0  0  0  0  0  0  0  0
  -29.1118  -21.3078   22.8698 C   0  0  2  0  0  0  0  0  0  0  0  0
  -31.4806  -12.8808   19.7838 C   0  0  2  0  0  0  0  0  0  0  0  0
  -20.6736   -9.6153   21.4556 C   0  0  0  0  0  0  0  0  0  0  0  0
  -23.8077  -14.3340   24.8880 C   0  0  0  0  0  0  0  0  0  0  0  0
  -22.8880  -12.0076   24.7864 C   0  0  0  0  0  0  0  0  0  0  0  0
  -21.3613  -13.9630   24.5249 C   0  0  0  0  0  0  0  0  0  0  0  0
  -21.9081  -11.2643   18.2567 C   0  0  0  0  0  0  0  0  0  0  0  0
  -33.3047  -17.9974   23.5643 C   0  0  0  0  0  0  0  0  0  0  0  0
  -29.9633  -13.0012   19.9423 C   0  0  0  0  0  0  0  0  0  1  0  0
  -22.9515  -13.3725   22.6501 C   0  0  1  0  0  0  0  0  0  0  0  0
  -21.1326  -10.7701   20.5790 C   0  0  2  0  0  0  0  0  0  0  0  0
  -22.7715  -13.4280   24.1934 C   0  0  0  0  0  0  0  0  0  0  0  0
  -28.5231  -23.4551   21.8092 N   0  0  0  0  0  0  0  0  0  0  0  0
  -28.9096  -22.1787   21.6436 N   0  0  0  0  0  0  0  0  0  0  0  0
  -32.1076  -14.1681   19.4970 N   0  0  0  0  0  0  0  0  0  0  0  0
  -24.0078  -15.1633   21.3081 N   0  0  0  0  0  0  0  0  0  0  0  0
  -30.7147  -20.4815   24.5539 N   0  0  0  0  0  0  0  0  0  0  0  0
  -29.4633  -20.5716   19.9939 N   0  0  0  0  0  0  0  0  0  0  0  0
  -28.4807  -24.2548   17.5722 N   0  0  0  0  0  0  0  0  0  0  0  0
  -24.0685  -18.3207   22.4899 N   0  0  0  0  0  0  0  0  0  0  0  0
  -21.9671  -12.5433   21.9632 N   0  0  0  0  0  0  0  0  0  0  0  0
  -32.3649  -19.0962   23.5785 N   0  0  0  0  0  0  0  0  0  0  0  0
  -21.4637  -10.2327   19.2290 N   0  3  0  0  0  0  0  0  0  0  0  0
  -32.7996  -15.2660   17.4889 O   0  0  0  0  0  0  0  0  0  0  0  0
  -29.1220  -22.0570   17.4417 O   0  0  0  0  0  0  0  0  0  0  0  0
  -25.9878  -17.0542   22.1231 O   0  0  0  0  0  0  0  0  0  0  0  0
  -21.8380  -15.4008   22.1277 O   0  0  0  0  0  0  0  0  0  0  0  0
  -23.4928  -11.1059   20.9717 O   0  0  0  0  0  0  0  0  0  0  0  0
  -31.6605  -18.7192   25.7276 O   0  0  0  0  0  0  0  0  0  0  0  0
  -26.9200  -29.2058   19.5937 O   0  0  0  0  0  0  0  0  0  0  0  0
  -29.4234  -13.6326   18.7820 O   0  0  0  0  0  0  0  0  0  1  0  0
  -22.6019  -31.1757   22.4004 F   0  0  0  0  0  0  0  0  0  0  0  0
  -24.6710  -30.1250   18.2748 F   0  0  0  0  0  0  0  0  0  0  0  0
  1  2  1  0  0  0  0
  1  5  2  0  0  0  0
  2  6  2  0  0  0  0
  3 12  2  0  0  0  0
  3 19  1  0  0  0  0
  4 13  1  0  0  0  0
  4 19  2  0  0  0  0
  5 21  1  0  0  0  0
  6 23  1  0  0  0  0
  7 14  2  0  0  0  0
  7 22  1  0  0  0  0
  8 10  2  0  0  0  0
  8 25  1  0  0  0  0
  9 11  1  0  0  0  0
  9 25  2  0  0  0  0
 10 26  1  0  0  0  0
 11 26  2  0  0  0  0
 12 27  1  0  0  0  0
 13 27  2  0  0  0  0
 14 28  1  0  0  0  0
 15 16  2  0  0  0  0
 15 29  1  0  0  0  0
 16 30  1  0  0  0  0
 17 24  1  0  0  0  0
 17 28  2  0  0  0  0
 18 30  2  0  0  0  0
 18 31  1  0  0  0  0
 19 32  1  0  0  0  0
 20 32  1  0  0  0  0
 20 33  2  0  0  0  0
 20 35  1  0  0  0  0
 21 23  2  0  0  0  0
 21 40  1  0  0  0  0
 22 24  2  0  0  0  0
 22 41  1  0  0  0  0
 23 51  1  0  0  0  0
 24 42  1  0  0  0  0
 25 60  1  0  0  0  0
 26 67  1  0  0  0  0
 27 82  1  0  0  0  0
 28 83  1  0  0  0  0
 29 31  2  0  0  0  0
 29 82  1  0  0  0  0
 30 84  1  0  0  0  0
 31 85  1  0  0  0  0
 32 65  2  0  0  0  0
 33 66  1  0  0  0  0
 33 70  1  0  0  0  0
 34 43  1  0  0  0  0
 34 67  1  0  0  0  0
 34 76  2  0  0  0  0
 35 71  1  0  0  0  0
 35 77  2  0  0  0  0
 36 52  1  0  0  0  0
 36 72  1  0  0  0  0
 36 78  2  0  0  0  0
 37 62  1  0  0  0  0
 37 68  1  0  0  0  0
 37 79  2  0  0  0  0
 38 63  1  0  0  0  0
 38 73  1  0  0  0  0
 38 80  2  0  0  0  0
 39 69  1  0  0  0  0
 39 74  1  0  0  0  0
 39 81  2  0  0  0  0
 40 44  1  0  0  0  0
 41 52  1  0  0  0  0
 42 68  1  0  0  0  0
 43 45  1  0  0  0  0
 44 47  1  0  0  0  0
 45 54  1  0  0  0  0
 46 48  1  0  0  0  0
 46 49  1  0  0  0  0
 47 51  1  0  0  0  0
 48 53  1  0  0  0  0
 49 69  1  0  0  0  0
 50 53  1  0  0  0  0
 50 69  1  0  0  0  0
 51 72  1  0  0  0  0
 52 68  1  0  0  0  0
 53 66  1  0  0  0  0
 54 61  1  0  0  0  0
 54 67  1  0  0  0  0
 55 63  1  0  0  0  0
 56 64  1  0  0  0  0
 57 64  1  0  0  0  0
 58 64  1  0  0  0  0
 59 75  1  0  0  0  0
 60 74  1  0  0  0  0
 61 83  1  0  0  0  0
 62 64  1  0  0  0  0
 62 73  1  0  0  0  0
 63 75  1  0  0  0  0
 65 66  1  0  0  0  0
M  CHG  1  75   1
M  ISO  4  39 100  61 101  74 100  83 101
M  END
> <Batch ID>
0096

> <Smiles>
CNC(C)C(=O)NC(C(=O)N1Cc2cc([101O:1][101CH2:1]C3CCC(=O)N3c3ccc(C[100NH:0][100C:0](=O)N4CCCC(n5nc(-c6ccc(Oc7ccc(F)cc7F)cc6)c(C(N)=O)c5N)C4)cc3)ccc2CC1C(=O)NC1CCCc2ccccc21)C(C)(C)C

> <Shape>
0.203

> <Color>
0.056

> <Negative vol penalty>
0.000

$$$$

  -OEChem-04052300463D

 84 92  0     1  0  0  0  0  0999 V2000
  -26.4366  -32.8752   27.1922 C   0  0  0  0  0  0  0  0  0  0  0  0
  -26.9935  -32.0311   26.2368 C   0  0  0  0  0  0  0  0  0  0  0  0
  -22.8234  -11.4969   18.7241 C   0  0  0  0  0  0  0  0  0  0  0  0
  -22.8217  -10.3603   20.8561 C   0  0  0  0  0  0  0  0  0  0  0  0
  -30.4387  -19.5320   19.3289 C   0  0  0  0  0  0  0  0  0  0  0  0
  -25.1495  -32.6322   27.6700 C   0  0  0  0  0  0  0  0  0  0  0  0
  -26.2640  -30.9428   25.7594 C   0  0  0  0  0  0  0  0  0  0  0  0
  -26.3666  -28.6468   20.0829 C   0  0  0  0  0  0  0  0  0  0  0  0
  -29.6235  -20.6631   19.2864 C   0  0  0  0  0  0  0  0  0  0  0  0
  -21.8021  -10.6590   18.2765 C   0  0  0  0  0  0  0  0  0  0  0  0
  -21.8003   -9.5223   20.4085 C   0  0  0  0  0  0  0  0  0  0  0  0
  -27.0390  -27.5619   19.5219 C   0  0  0  0  0  0  0  0  0  0  0  0
  -21.5031   -6.7873   18.4433 C   0  0  0  0  0  0  0  0  0  0  0  0
  -21.6236   -5.4224   18.7040 C   0  0  0  0  0  0  0  0  0  0  0  0
  -28.5989  -18.2392   20.2125 C   0  0  0  0  0  0  0  0  0  0  0  0
  -25.0821  -26.1891   19.8463 C   0  0  0  0  0  0  0  0  0  0  0  0
  -19.5627   -5.4810   19.9634 C   0  0  0  0  0  0  0  0  0  0  0  0
  -23.3333  -11.3476   20.0139 C   0  0  0  0  0  0  0  0  0  0  0  0
  -29.9264  -18.3200   19.7919 C   0  0  0  0  0  0  0  0  0  0  0  0
  -24.2474  -13.4484   21.1357 C   0  0  0  0  0  0  0  0  0  0  0  0
  -24.4001  -31.5460   27.1912 C   0  0  0  0  0  0  0  0  0  0  0  0
  -25.0484  -28.5079   20.5405 C   0  0  0  0  0  0  0  0  0  0  0  0
  -24.9662  -30.6843   26.2323 C   0  0  0  0  0  0  0  0  0  0  0  0
  -24.3944  -27.2744   20.4104 C   0  0  0  0  0  0  0  0  0  0  0  0
  -28.2960  -20.5822   19.7071 C   0  0  0  0  0  0  0  0  0  0  0  0
  -27.7837  -19.3702   20.1701 C   0  0  0  0  0  0  0  0  0  0  0  0
  -21.2906   -9.6717   19.1187 C   0  0  0  0  0  0  0  0  0  0  0  0
  -26.3977  -26.3320   19.4062 C   0  0  0  0  0  0  0  0  0  0  0  0
  -20.4124   -7.4991   18.9427 C   0  0  0  0  0  0  0  0  0  0  0  0
  -20.6534   -4.7692   19.4640 C   0  0  0  0  0  0  0  0  0  0  0  0
  -19.4422   -6.8459   19.7027 C   0  0  0  0  0  0  0  0  0  0  0  0
  -24.3887  -12.2125   20.4767 C   0  0  0  0  0  0  0  0  0  0  0  0
  -25.5362  -13.8667   21.3608 C   0  0  0  0  0  0  0  0  0  0  0  0
  -30.7950  -17.1157   19.8366 C   0  0  0  0  0  0  0  0  0  0  0  0
  -23.0577  -14.1550   21.5110 C   0  0  0  0  0  0  0  0  0  0  0  0
  -23.6116  -28.7931   23.3615 C   0  0  0  0  0  0  0  0  0  0  0  0
  -20.9236  -28.3557   21.5991 C   0  0  0  0  0  0  0  0  0  0  0  0
  -27.8544  -23.0111   19.2177 C   0  0  0  0  0  0  0  0  0  0  0  0
  -19.4911  -27.1236   18.7572 C   0  0  0  0  0  0  0  0  0  0  0  0
  -30.7672  -14.6446   19.7088 C   0  0  0  0  0  0  0  0  0  0  0  0
  -23.0310  -31.2962   27.7723 C   0  0  0  0  0  0  0  0  0  0  0  0
  -24.3279  -29.6948   21.1188 C   0  0  0  0  0  0  0  0  0  0  0  0
  -22.9728  -27.0785   20.8678 C   0  0  0  0  0  0  0  0  0  0  0  0
  -22.1814  -30.3391   26.9401 C   0  0  0  0  0  0  0  0  0  0  0  0
  -29.9358  -11.4075   20.8610 C   0  0  0  0  0  0  0  0  0  0  0  0
  -22.9958  -29.1130   26.5396 C   0  0  0  0  0  0  0  0  0  0  0  0
  -28.4062  -11.4294   20.9267 C   0  0  0  0  0  0  0  0  0  0  0  0
  -30.4631  -12.1848   19.6557 C   0  0  0  0  0  0  0  0  0  0  0  0
  -28.4340  -13.5765   19.5950 C   0  0  0  0  0  0  0  0  0  0  0  0
  -24.1968  -29.5078   25.6718 C   0  0  1  0  0  0  0  0  0  0  0  0
  -23.1621  -29.3043   22.0220 C   0  0  1  0  0  0  0  0  0  0  0  0
  -27.8564  -12.8668   20.8302 C   0  0  1  0  0  0  0  0  0  0  0  0
  -17.2691  -26.8828   17.6161 C   0  0  0  0  0  0  0  0  0  0  0  0
  -20.1925  -26.0889   23.5062 C   0  0  0  0  0  0  0  0  0  0  0  0
  -18.5268  -25.2957   21.8138 C   0  0  0  0  0  0  0  0  0  0  0  0
  -18.2768  -27.5538   22.8439 C   0  0  0  0  0  0  0  0  0  0  0  0
  -20.3790  -28.7297   16.4353 C   0  0  0  0  0  0  0  0  0  0  0  0
  -26.6854  -23.9727   19.3240 C   0  0  0  0  0  0  0  0  0  1  0  0
  -20.1181  -27.1579   21.1572 C   0  0  1  0  0  0  0  0  0  0  0  0
  -18.5150  -27.7408   17.7720 C   0  0  2  0  0  0  0  0  0  0  0  0
  -19.3060  -26.5269   22.3233 C   0  0  0  0  0  0  0  0  0  0  0  0
  -25.6663  -11.8682   20.2947 N   0  0  0  0  0  0  0  0  0  0  0  0
  -26.3397  -12.8940   20.8427 N   0  0  0  0  0  0  0  0  0  0  0  0
  -22.3129  -28.2674   21.4322 N   0  0  0  0  0  0  0  0  0  0  0  0
  -29.9033  -13.5375   19.6425 N   0  0  0  0  0  0  0  0  0  0  0  0
  -26.4420  -19.2647   20.6002 N   0  0  0  0  0  0  0  0  0  0  0  0
  -26.0491  -14.9681   21.9492 N   0  0  0  0  0  0  0  0  0  0  0  0
  -21.8157  -13.5827   21.2040 N   0  0  0  0  0  0  0  0  0  0  0  0
  -27.4876  -21.7424   19.6537 N   0  0  0  0  0  0  0  0  0  0  0  0
  -30.1333  -15.8918   19.7333 N   0  0  0  0  0  0  0  0  0  0  0  0
  -23.7724  -29.7800   24.3152 N   0  0  0  0  0  0  0  0  0  0  0  0
  -19.3015  -27.6067   20.0347 N   0  0  0  0  0  0  0  0  0  0  0  0
  -19.1539  -27.8892   16.4338 N   0  3  0  0  0  0  0  0  0  0  0  0
  -32.0118  -17.2587   19.9191 O   0  0  0  0  0  0  0  0  0  0  0  0
  -23.0949  -15.2690   22.0865 O   0  0  0  0  0  0  0  0  0  0  0  0
  -23.7972  -27.5920   23.5185 O   0  0  0  0  0  0  0  0  0  0  0  0
  -20.3410  -29.3366   22.0683 O   0  0  0  0  0  0  0  0  0  0  0  0
  -28.9476  -23.3729   18.7953 O   0  0  0  0  0  0  0  0  0  0  0  0
  -20.3347  -26.2929   18.4273 O   0  0  0  0  0  0  0  0  0  0  0  0
  -31.9951  -14.5318   19.7789 O   0  0  0  0  0  0  0  0  0  0  0  0
  -20.2938   -8.8540   18.6823 O   0  0  0  0  0  0  0  0  0  0  0  0
  -27.0519  -25.2713   18.8596 O   0  0  0  0  0  0  0  0  0  1  0  0
  -20.7685   -3.4581   19.7130 F   0  0  0  0  0  0  0  0  0  0  0  0
  -18.3915   -7.5243   20.1842 F   0  0  0  0  0  0  0  0  0  0  0  0
  1  2  1  0  0  0  0
  1  6  2  0  0  0  0
  2  7  2  0  0  0  0
  3 10  2  0  0  0  0
  3 18  1  0  0  0  0
  4 11  1  0  0  0  0
  4 18  2  0  0  0  0
  5  9  2  0  0  0  0
  5 19  1  0  0  0  0
  6 21  1  0  0  0  0
  7 23  1  0  0  0  0
  8 12  2  0  0  0  0
  8 22  1  0  0  0  0
  9 25  1  0  0  0  0
 10 27  1  0  0  0  0
 11 27  2  0  0  0  0
 12 28  1  0  0  0  0
 13 14  2  0  0  0  0
 13 29  1  0  0  0  0
 14 30  1  0  0  0  0
 15 19  2  0  0  0  0
 15 26  1  0  0  0  0
 16 24  1  0  0  0  0
 16 28  2  0  0  0  0
 17 30  2  0  0  0  0
 17 31  1  0  0  0  0
 18 32  1  0  0  0  0
 19 34  1  0  0  0  0
 20 32  1  0  0  0  0
 20 33  2  0  0  0  0
 20 35  1  0  0  0  0
 21 23  2  0  0  0  0
 21 41  1  0  0  0  0
 22 24  2  0  0  0  0
 22 42  1  0  0  0  0
 23 50  1  0  0  0  0
 24 43  1  0  0  0  0
 25 26  2  0  0  0  0
 25 69  1  0  0  0  0
 26 66  1  0  0  0  0
 27 81  1  0  0  0  0
 28 82  1  0  0  0  0
 29 31  2  0  0  0  0
 29 81  1  0  0  0  0
 30 83  1  0  0  0  0
 31 84  1  0  0  0  0
 32 62  2  0  0  0  0
 33 63  1  0  0  0  0
 33 67  1  0  0  0  0
 34 70  1  0  0  0  0
 34 74  2  0  0  0  0
 35 68  1  0  0  0  0
 35 75  2  0  0  0  0
 36 51  1  0  0  0  0
 36 71  1  0  0  0  0
 36 76  2  0  0  0  0
 37 59  1  0  0  0  0
 37 64  1  0  0  0  0
 37 77  2  0  0  0  0
 38 58  1  0  0  0  0
 38 69  1  0  0  0  0
 38 78  2  0  0  0  0
 39 60  1  0  0  0  0
 39 72  1  0  0  0  0
 39 79  2  0  0  0  0
 40 65  1  0  0  0  0
 40 70  1  0  0  0  0
 40 80  2  0  0  0  0
 41 44  1  0  0  0  0
 42 51  1  0  0  0  0
 43 64  1  0  0  0  0
 44 46  1  0  0  0  0
 45 47  1  0  0  0  0
 45 48  1  0  0  0  0
 46 50  1  0  0  0  0
 47 52  1  0  0  0  0
 48 65  1  0  0  0  0
 49 52  1  0  0  0  0
 49 65  1  0  0  0  0
 50 71  1  0  0  0  0
 51 64  1  0  0  0  0
 52 63  1  0  0  0  0
 53 60  1  0  0  0  0
 54 61  1  0  0  0  0
 55 61  1  0  0  0  0
 56 61  1  0  0  0  0
 57 73  1  0  0  0  0
 58 82  1  0  0  0  0
 59 61  1  0  0  0  0
 59 72  1  0  0  0  0
 60 73  1  0  0  0  0
 62 63  1  0  0  0  0
M  CHG  1  73   1
M  ISO  4  40 100  58 101  70 100  82 101
M  END
> <Batch ID>
0096

> <Smiles>
CNC(C)C(=O)NC(C(=O)N1Cc2cc([101O:1][101CH2:1]C(=O)Nc3ccc(C(=O)[100NH:0][100C:0](=O)N4CCCC(n5nc(-c6ccc(Oc7ccc(F)cc7F)cc6)c(C(N)=O)c5N)C4)cc3N)ccc2CC1C(=O)NC1CCCc2ccccc21)C(C)(C)C

> <Shape>
0.296

> <Color>
0.097

> <Negative vol penalty>
0.000

$$$$

  -OEChem-04052300463D

 85 93  0     1  0  0  0  0  0999 V2000
  -17.8399  -30.7896   23.1781 C   0  0  0  0  0  0  0  0  0  0  0  0
  -19.2213  -30.9531   23.1564 C   0  0  0  0  0  0  0  0  0  0  0  0
  -28.2178  -12.3355   21.5334 C   0  0  0  0  0  0  0  0  0  0  0  0
  -26.3742  -13.1474   20.1996 C   0  0  0  0  0  0  0  0  0  0  0  0
  -29.5949  -24.6363   21.2313 C   0  0  0  0  0  0  0  0  0  0  0  0
  -17.2879  -29.5154   23.0533 C   0  0  0  0  0  0  0  0  0  0  0  0
  -20.0515  -29.8422   23.0110 C   0  0  0  0  0  0  0  0  0  0  0  0
  -25.4029  -29.6091   20.0422 C   0  0  0  0  0  0  0  0  0  0  0  0
  -28.8406  -23.5832   21.7486 C   0  0  0  0  0  0  0  0  0  0  0  0
  -27.6965  -11.0434   21.4675 C   0  0  0  0  0  0  0  0  0  0  0  0
  -25.8529  -11.8553   20.1337 C   0  0  0  0  0  0  0  0  0  0  0  0
  -26.7239  -29.6763   20.4831 C   0  0  0  0  0  0  0  0  0  0  0  0
  -24.0811   -9.7789   22.1288 C   0  0  0  0  0  0  0  0  0  0  0  0
  -22.7122   -9.6206   22.3448 C   0  0  0  0  0  0  0  0  0  0  0  0
  -26.8348  -27.2666   20.4986 C   0  0  0  0  0  0  0  0  0  0  0  0
  -28.5350  -22.7065   19.5180 C   0  0  0  0  0  0  0  0  0  0  0  0
  -22.4728   -8.6752   20.1344 C   0  0  0  0  0  0  0  0  0  0  0  0
  -27.5566  -13.3875   20.8995 C   0  0  0  0  0  0  0  0  0  0  0  0
  -29.8192  -24.7246   19.8574 C   0  0  0  0  0  0  0  0  0  0  0  0
  -29.0035  -15.3195   20.0739 C   0  0  0  0  0  0  0  0  0  0  0  0
  -18.1115  -28.3894   22.8965 C   0  0  0  0  0  0  0  0  0  0  0  0
  -24.7835  -28.3680   19.8363 C   0  0  0  0  0  0  0  0  0  0  0  0
  -19.5100  -28.5516   22.8853 C   0  0  0  0  0  0  0  0  0  0  0  0
  -25.5068  -27.1864   20.0527 C   0  0  0  0  0  0  0  0  0  0  0  0
  -28.3107  -22.6183   20.8919 C   0  0  0  0  0  0  0  0  0  0  0  0
  -26.5141  -10.8033   20.7677 C   0  0  0  0  0  0  0  0  0  0  0  0
  -27.4391  -28.5049   20.7141 C   0  0  0  0  0  0  0  0  0  0  0  0
  -24.6459   -9.3855   20.9156 C   0  0  0  0  0  0  0  0  0  0  0  0
  -21.9081   -9.0687   21.3477 C   0  0  0  0  0  0  0  0  0  0  0  0
  -29.2893  -23.7597   19.0008 C   0  0  0  0  0  0  0  0  0  0  0  0
  -23.8417   -8.8336   19.9184 C   0  0  0  0  0  0  0  0  0  0  0  0
  -28.0943  -14.7226   20.9676 C   0  0  0  0  0  0  0  0  0  0  0  0
  -29.1971  -16.5838   20.5744 C   0  0  0  0  0  0  0  0  0  0  0  0
  -30.6206  -25.8492   19.3110 C   0  0  0  0  0  0  0  0  0  0  0  0
  -29.6181  -14.7794   18.8964 C   0  0  0  0  0  0  0  0  0  0  0  0
  -22.2752  -26.8765   21.0962 C   0  0  0  0  0  0  0  0  0  0  0  0
  -22.8994  -24.6955   18.7776 C   0  0  0  0  0  0  0  0  0  0  0  0
  -31.2597  -28.2038   19.7022 C   0  0  0  0  0  0  0  0  0  0  0  0
  -25.1716  -23.3038   16.6452 C   0  0  0  0  0  0  0  0  0  0  0  0
  -27.2280  -21.3134   22.7552 C   0  0  0  0  0  0  0  0  0  0  0  0
  -17.4701  -27.0269   22.8128 C   0  0  0  0  0  0  0  0  0  0  0  0
  -23.3665  -28.3128   19.3350 C   0  0  0  0  0  0  0  0  0  0  0  0
  -24.8941  -25.8291   19.8272 C   0  0  0  0  0  0  0  0  0  0  0  0
  -18.4080  -25.9436   22.2863 C   0  0  0  0  0  0  0  0  0  0  0  0
  -27.8295  -18.6185   25.0029 C   0  0  0  0  0  0  0  0  0  0  0  0
  -19.7634  -26.0272   22.9809 C   0  0  0  0  0  0  0  0  0  0  0  0
  -28.0269  -17.4137   24.0799 C   0  0  0  0  0  0  0  0  0  0  0  0
  -26.7643  -19.5741   24.4682 C   0  0  0  0  0  0  0  0  0  0  0  0
  -27.1638  -18.8120   22.1598 C   0  0  0  0  0  0  0  0  0  0  0  0
  -20.4429  -27.3739   22.7044 C   0  0  1  0  0  0  0  0  0  0  0  0
  -22.6717  -26.9920   19.6516 C   0  0  1  0  0  0  0  0  0  0  0  0
  -28.2732  -17.8540   22.6235 C   0  0  2  0  0  0  0  0  0  0  0  0
  -25.3965  -21.5150   14.8997 C   0  0  0  0  0  0  0  0  0  0  0  0
  -22.9567  -22.5704   20.9663 C   0  0  0  0  0  0  0  0  0  0  0  0
  -24.0967  -21.0358   19.3497 C   0  0  0  0  0  0  0  0  0  0  0  0
  -21.7971  -21.8714   18.8636 C   0  0  0  0  0  0  0  0  0  0  0  0
  -25.8883  -25.2720   14.5544 C   0  0  0  0  0  0  0  0  0  0  0  0
  -30.9672  -29.3234   20.6893 C   0  0  0  0  0  0  0  0  0  0  0  0
  -29.4947  -29.7008   20.7388 C   0  0  0  0  0  0  0  0  0  1  0  0
  -23.7572  -23.4573   18.6776 C   0  0  1  0  0  0  0  0  0  0  0  0
  -25.0971  -22.9825   15.1635 C   0  0  2  0  0  0  0  0  0  0  0  0
  -23.1631  -22.2591   19.4705 C   0  0  0  0  0  0  0  0  0  0  0  0
  -27.7353  -15.5404   21.9608 N   0  0  0  0  0  0  0  0  0  0  0  0
  -28.4225  -16.6641   21.6941 N   0  0  0  0  0  0  0  0  0  0  0  0
  -23.5039  -25.8274   19.3427 N   0  0  0  0  0  0  0  0  0  0  0  0
  -27.0658  -19.9514   23.0856 N   0  0  0  0  0  0  0  0  0  0  0  0
  -29.9527  -17.6236   20.1616 N   0  0  0  0  0  0  0  0  0  0  0  0
  -29.3087  -13.4640   18.5247 N   0  0  0  0  0  0  0  0  0  0  0  0
  -27.5444  -21.5485   21.4175 N   0  0  0  0  0  0  0  0  0  0  0  0
  -30.5580  -27.0409   20.0311 N   0  0  0  0  0  0  0  0  0  0  0  0
  -21.0216  -27.3850   21.3780 N   0  0  0  0  0  0  0  0  0  0  0  0
  -23.9383  -23.2002   17.2529 N   0  0  0  0  0  0  0  0  0  0  0  0
  -26.0801  -23.8064   14.4047 N   0  3  0  0  0  0  0  0  0  0  0  0
  -31.2955  -25.6671   18.3013 O   0  0  0  0  0  0  0  0  0  0  0  0
  -30.4305  -15.4381   18.2039 O   0  0  0  0  0  0  0  0  0  0  0  0
  -23.0487  -26.3626   21.8958 O   0  0  0  0  0  0  0  0  0  0  0  0
  -21.7382  -24.6619   18.3628 O   0  0  0  0  0  0  0  0  0  0  0  0
  -32.0175  -28.3299   18.7445 O   0  0  0  0  0  0  0  0  0  0  0  0
  -26.2198  -23.6120   17.2081 O   0  0  0  0  0  0  0  0  0  0  0  0
  -27.1227  -22.2038   23.6026 O   0  0  0  0  0  0  0  0  0  0  0  0
  -26.0052   -9.5426   20.7030 O   0  0  0  0  0  0  0  0  0  0  0  0
  -28.7284  -28.5676   21.1451 O   0  0  0  0  0  0  0  0  0  1  0  0
  -20.5938   -8.9153   21.5558 F   0  0  0  0  0  0  0  0  0  0  0  0
  -29.4982  -23.8347   17.6785 F   0  0  0  0  0  0  0  0  0  0  0  0
  -24.3787   -8.4526   18.7513 F   0  0  0  0  0  0  0  0  0  0  0  0
  1  2  1  0  0  0  0
  1  6  2  0  0  0  0
  2  7  2  0  0  0  0
  3 10  2  0  0  0  0
  3 18  1  0  0  0  0
  4 11  1  0  0  0  0
  4 18  2  0  0  0  0
  5  9  2  0  0  0  0
  5 19  1  0  0  0  0
  6 21  1  0  0  0  0
  7 23  1  0  0  0  0
  8 12  2  0  0  0  0
  8 22  1  0  0  0  0
  9 25  1  0  0  0  0
 10 26  1  0  0  0  0
 11 26  2  0  0  0  0
 12 27  1  0  0  0  0
 13 14  2  0  0  0  0
 13 28  1  0  0  0  0
 14 29  1  0  0  0  0
 15 24  1  0  0  0  0
 15 27  2  0  0  0  0
 16 25  2  0  0  0  0
 16 30  1  0  0  0  0
 17 29  2  0  0  0  0
 17 31  1  0  0  0  0
 18 32  1  0  0  0  0
 19 30  2  0  0  0  0
 19 34  1  0  0  0  0
 20 32  1  0  0  0  0
 20 33  2  0  0  0  0
 20 35  1  0  0  0  0
 21 23  2  0  0  0  0
 21 41  1  0  0  0  0
 22 24  2  0  0  0  0
 22 42  1  0  0  0  0
 23 50  1  0  0  0  0
 24 43  1  0  0  0  0
 25 69  1  0  0  0  0
 26 81  1  0  0  0  0
 27 82  1  0  0  0  0
 28 31  2  0  0  0  0
 28 81  1  0  0  0  0
 29 83  1  0  0  0  0
 30 84  1  0  0  0  0
 31 85  1  0  0  0  0
 32 63  2  0  0  0  0
 33 64  1  0  0  0  0
 33 67  1  0  0  0  0
 34 70  1  0  0  0  0
 34 74  2  0  0  0  0
 35 68  1  0  0  0  0
 35 75  2  0  0  0  0
 36 51  1  0  0  0  0
 36 71  1  0  0  0  0
 36 76  2  0  0  0  0
 37 60  1  0  0  0  0
 37 65  1  0  0  0  0
 37 77  2  0  0  0  0
 38 58  1  0  0  0  0
 38 70  1  0  0  0  0
 38 78  2  0  0  0  0
 39 61  1  0  0  0  0
 39 72  1  0  0  0  0
 39 79  2  0  0  0  0
 40 66  1  0  0  0  0
 40 69  1  0  0  0  0
 40 80  2  0  0  0  0
 41 44  1  0  0  0  0
 42 51  1  0  0  0  0
 43 65  1  0  0  0  0
 44 46  1  0  0  0  0
 45 47  1  0  0  0  0
 45 48  1  0  0  0  0
 46 50  1  0  0  0  0
 47 52  1  0  0  0  0
 48 66  1  0  0  0  0
 49 52  1  0  0  0  0
 49 66  1  0  0  0  0
 50 71  1  0  0  0  0
 51 65  1  0  0  0  0
 52 64  1  0  0  0  0
 53 61  1  0  0  0  0
 54 62  1  0  0  0  0
 55 62  1  0  0  0  0
 56 62  1  0  0  0  0
 57 73  1  0  0  0  0
 58 59  1  0  0  0  0
 59 82  1  0  0  0  0
 60 62  1  0  0  0  0
 60 72  1  0  0  0  0
 61 73  1  0  0  0  0
 63 64  1  0  0  0  0
M  CHG  1  73   1
M  ISO  4  40 100  59 101  69 100  82 101
M  END
> <Batch ID>
0096

> <Smiles>
CNC(C)C(=O)NC(C(=O)N1Cc2cc([101O:1][101CH2:1]CC(=O)NC(=O)c3ccc([100NH:0][100C:0](=O)N4CCCC(n5nc(-c6ccc(Oc7ccc(F)cc7F)cc6)c(C(N)=O)c5N)C4)cc3F)ccc2CC1C(=O)NC1CCCc2ccccc21)C(C)(C)C

> <Shape>
0.266

> <Color>
0.077

> <Negative vol penalty>
0.000

$$$$

  -OEChem-04052300463D

 85 93  0     1  0  0  0  0  0999 V2000
  -25.8804  -23.0320   21.9051 C   0  0  0  0  0  0  0  0  0  0  0  0
  -25.7378  -22.2803   20.7443 C   0  0  0  0  0  0  0  0  0  0  0  0
  -26.9139  -28.5223   19.2611 C   0  0  0  0  0  0  0  0  0  0  0  0
  -26.0015  -27.4709   21.2358 C   0  0  0  0  0  0  0  0  0  0  0  0
  -26.2779  -22.4122   23.0879 C   0  0  0  0  0  0  0  0  0  0  0  0
  -25.9811  -20.9066   20.7686 C   0  0  0  0  0  0  0  0  0  0  0  0
  -26.6144  -15.0200   16.7242 C   0  0  0  0  0  0  0  0  0  0  0  0
  -32.3169  -16.7588   19.8204 C   0  0  0  0  0  0  0  0  0  0  0  0
  -32.1496  -15.4967   19.2506 C   0  0  0  0  0  0  0  0  0  0  0  0
  -25.7014  -29.1790   19.0506 C   0  0  0  0  0  0  0  0  0  0  0  0
  -24.7891  -28.1277   21.0253 C   0  0  0  0  0  0  0  0  0  0  0  0
  -27.4654  -13.9778   16.3590 C   0  0  0  0  0  0  0  0  0  0  0  0
  -22.0771  -27.7751   19.0375 C   0  0  0  0  0  0  0  0  0  0  0  0
  -20.9053  -27.0295   19.1662 C   0  0  0  0  0  0  0  0  0  0  0  0
  -26.9805  -12.8603   18.4412 C   0  0  0  0  0  0  0  0  0  0  0  0
  -30.2737  -15.0837   20.7161 C   0  0  0  0  0  0  0  0  0  0  0  0
  -20.1640  -28.4997   20.9343 C   0  0  0  0  0  0  0  0  0  0  0  0
  -27.0639  -27.6682   20.3537 C   0  0  0  0  0  0  0  0  0  0  0  0
  -29.4131  -27.4494   21.3237 C   0  0  0  0  0  0  0  0  0  0  0  0
  -26.5380  -21.0323   23.1229 C   0  0  0  0  0  0  0  0  0  0  0  0
  -25.9474  -14.9954   17.9575 C   0  0  0  0  0  0  0  0  0  0  0  0
  -26.3600  -20.2584   21.9581 C   0  0  0  0  0  0  0  0  0  0  0  0
  -26.1196  -13.9022   18.8186 C   0  0  0  0  0  0  0  0  0  0  0  0
  -31.4627  -17.1834   20.8381 C   0  0  0  0  0  0  0  0  0  0  0  0
  -31.1280  -14.6592   19.6984 C   0  0  0  0  0  0  0  0  0  0  0  0
  -24.6391  -28.9818   19.9327 C   0  0  0  0  0  0  0  0  0  0  0  0
  -27.6508  -12.8991   17.2188 C   0  0  0  0  0  0  0  0  0  0  0  0
  -22.2924  -28.8830   19.8572 C   0  0  0  0  0  0  0  0  0  0  0  0
  -19.9487  -27.3918   20.1145 C   0  0  0  0  0  0  0  0  0  0  0  0
  -30.4411  -16.3458   21.2859 C   0  0  0  0  0  0  0  0  0  0  0  0
  -21.3359  -29.2453   20.8056 C   0  0  0  0  0  0  0  0  0  0  0  0
  -28.3159  -26.9891   20.5714 C   0  0  0  0  0  0  0  0  0  0  0  0
  -30.3452  -26.4458   21.2210 C   0  0  0  0  0  0  0  0  0  0  0  0
  -29.5753  -28.6746   22.0504 C   0  0  0  0  0  0  0  0  0  0  0  0
  -25.9553  -16.8359   20.5490 C   0  0  0  0  0  0  0  0  0  0  0  0
  -23.5440  -14.8732   21.4741 C   0  0  0  0  0  0  0  0  0  0  0  0
  -31.7157  -12.7978   18.1070 C   0  0  0  0  0  0  0  0  0  0  0  0
  -22.0169  -11.8332   21.2029 C   0  0  0  0  0  0  0  0  0  0  0  0
  -30.6081  -20.7604   21.0828 C   0  0  0  0  0  0  0  0  0  0  0  0
  -26.9580  -20.4115   24.4319 C   0  0  0  0  0  0  0  0  0  0  0  0
  -25.0122  -16.1146   18.3250 C   0  0  0  0  0  0  0  0  0  0  0  0
  -25.4110  -13.8182   20.1449 C   0  0  0  0  0  0  0  0  0  0  0  0
  -27.6178  -19.0474   24.2583 C   0  0  0  0  0  0  0  0  0  0  0  0
  -31.1103  -22.7085   18.0744 C   0  0  0  0  0  0  0  0  0  0  0  0
  -26.7622  -18.1667   23.3600 C   0  0  0  0  0  0  0  0  0  0  0  0
  -30.5424  -24.0659   18.4928 C   0  0  0  0  0  0  0  0  0  0  0  0
  -30.2938  -21.5622   18.6639 C   0  0  0  0  0  0  0  0  0  0  0  0
  -29.5876  -22.9593   20.5673 C   0  0  0  0  0  0  0  0  0  0  0  0
  -26.6487  -18.7682   21.9535 C   0  0  1  0  0  0  0  0  0  0  0  0
  -24.7829  -16.2323   19.8287 C   0  0  1  0  0  0  0  0  0  0  0  0
  -30.3828  -24.1594   20.0218 C   0  0  2  0  0  0  0  0  0  0  0  0
  -20.0891  -10.5091   22.1125 C   0  0  0  0  0  0  0  0  0  0  0  0
  -25.1016  -14.3804   24.0512 C   0  0  0  0  0  0  0  0  0  0  0  0
  -23.6472  -12.3852   24.4665 C   0  0  0  0  0  0  0  0  0  0  0  0
  -22.6360  -14.6632   24.3602 C   0  0  0  0  0  0  0  0  0  0  0  0
  -20.7669  -11.5984   18.5306 C   0  0  0  0  0  0  0  0  0  0  0  0
  -31.6438  -18.5346   21.4434 C   0  0  0  0  0  0  0  0  0  0  0  0
  -31.1957  -11.4038   17.7842 C   0  0  0  0  0  0  0  0  0  0  0  0
  -30.7398  -11.2678   16.3356 C   0  0  0  0  0  0  0  0  0  0  0  0
  -29.5839  -12.2058   16.0195 C   0  0  0  0  0  0  0  0  0  1  0  0
  -23.4569  -13.5710   22.2329 C   0  0  1  0  0  0  0  0  0  0  0  0
  -20.5598  -11.4511   21.0154 C   0  0  2  0  0  0  0  0  0  0  0  0
  -23.7254  -13.7521   23.7536 C   0  0  0  0  0  0  0  0  0  0  0  0
  -28.5296  -25.7866   20.0305 N   0  0  0  0  0  0  0  0  0  0  0  0
  -29.7720  -25.4830   20.4434 N   0  0  0  0  0  0  0  0  0  0  0  0
  -24.5120  -14.9401   20.4620 N   0  0  0  0  0  0  0  0  0  0  0  0
  -30.1956  -21.7004   20.1238 N   0  0  0  0  0  0  0  0  0  0  0  0
  -31.5909  -26.3018   21.7207 N   0  0  0  0  0  0  0  0  0  0  0  0
  -28.5189  -29.5956   22.0518 N   0  0  0  0  0  0  0  0  0  0  0  0
  -30.9594  -13.3779   19.1216 N   0  0  0  0  0  0  0  0  0  0  0  0
  -25.6671  -18.0211   21.1984 N   0  0  0  0  0  0  0  0  0  0  0  0
  -22.1499  -13.0031   21.9204 N   0  0  0  0  0  0  0  0  0  0  0  0
  -31.1673  -19.5920   20.5799 N   0  0  0  0  0  0  0  0  0  0  0  0
  -20.3664  -10.7758   19.7010 N   0  3  0  0  0  0  0  0  0  0  0  0
  -30.6323  -28.9520   22.6665 O   0  0  0  0  0  0  0  0  0  0  0  0
  -27.0406  -16.2677   20.5192 O   0  0  0  0  0  0  0  0  0  0  0  0
  -22.7766  -15.7944   21.7638 O   0  0  0  0  0  0  0  0  0  0  0  0
  -32.6736  -13.2879   17.5185 O   0  0  0  0  0  0  0  0  0  0  0  0
  -22.9445  -11.1592   20.7605 O   0  0  0  0  0  0  0  0  0  0  0  0
  -30.4917  -20.9505   22.2983 O   0  0  0  0  0  0  0  0  0  0  0  0
  -23.4559  -29.6226   19.7277 O   0  0  0  0  0  0  0  0  0  0  0  0
  -28.4813  -11.8808   16.8650 O   0  0  0  0  0  0  0  0  0  1  0  0
  -18.8228  -26.6766   20.2369 F   0  0  0  0  0  0  0  0  0  0  0  0
  -29.6152  -16.7450   22.2632 F   0  0  0  0  0  0  0  0  0  0  0  0
  -21.5366  -30.3093   21.5952 F   0  0  0  0  0  0  0  0  0  0  0  0
  1  2  1  0  0  0  0
  1  5  2  0  0  0  0
  2  6  2  0  0  0  0
  3 10  2  0  0  0  0
  3 18  1  0  0  0  0
  4 11  1  0  0  0  0
  4 18  2  0  0  0  0
  5 20  1  0  0  0  0
  6 22  1  0  0  0  0
  7 12  2  0  0  0  0
  7 21  1  0  0  0  0
  8  9  2  0  0  0  0
  8 24  1  0  0  0  0
  9 25  1  0  0  0  0
 10 26  1  0  0  0  0
 11 26  2  0  0  0  0
 12 27  1  0  0  0  0
 13 14  2  0  0  0  0
 13 28  1  0  0  0  0
 14 29  1  0  0  0  0
 15 23  1  0  0  0  0
 15 27  2  0  0  0  0
 16 25  2  0  0  0  0
 16 30  1  0  0  0  0
 17 29  2  0  0  0  0
 17 31  1  0  0  0  0
 18 32  1  0  0  0  0
 19 32  1  0  0  0  0
 19 33  2  0  0  0  0
 19 34  1  0  0  0  0
 20 22  2  0  0  0  0
 20 40  1  0  0  0  0
 21 23  2  0  0  0  0
 21 41  1  0  0  0  0
 22 49  1  0  0  0  0
 23 42  1  0  0  0  0
 24 30  2  0  0  0  0
 24 57  1  0  0  0  0
 25 70  1  0  0  0  0
 26 81  1  0  0  0  0
 27 82  1  0  0  0  0
 28 31  2  0  0  0  0
 28 81  1  0  0  0  0
 29 83  1  0  0  0  0
 30 84  1  0  0  0  0
 31 85  1  0  0  0  0
 32 64  2  0  0  0  0
 33 65  1  0  0  0  0
 33 68  1  0  0  0  0
 34 69  1  0  0  0  0
 34 75  2  0  0  0  0
 35 50  1  0  0  0  0
 35 71  1  0  0  0  0
 35 76  2  0  0  0  0
 36 61  1  0  0  0  0
 36 66  1  0  0  0  0
 36 77  2  0  0  0  0
 37 58  1  0  0  0  0
 37 70  1  0  0  0  0
 37 78  2  0  0  0  0
 38 62  1  0  0  0  0
 38 72  1  0  0  0  0
 38 79  2  0  0  0  0
 39 67  1  0  0  0  0
 39 73  1  0  0  0  0
 39 80  2  0  0  0  0
 40 43  1  0  0  0  0
 41 50  1  0  0  0  0
 42 66  1  0  0  0  0
 43 45  1  0  0  0  0
 44 46  1  0  0  0  0
 44 47  1  0  0  0  0
 45 49  1  0  0  0  0
 46 51  1  0  0  0  0
 47 67  1  0  0  0  0
 48 51  1  0  0  0  0
 48 67  1  0  0  0  0
 49 71  1  0  0  0  0
 50 66  1  0  0  0  0
 51 65  1  0  0  0  0
 52 62  1  0  0  0  0
 53 63  1  0  0  0  0
 54 63  1  0  0  0  0
 55 63  1  0  0  0  0
 56 74  1  0  0  0  0
 57 73  1  0  0  0  0
 58 59  1  0  0  0  0
 59 60  1  0  0  0  0
 60 82  1  0  0  0  0
 61 63  1  0  0  0  0
 61 72  1  0  0  0  0
 62 74  1  0  0  0  0
 64 65  1  0  0  0  0
M  CHG  1  74   1
M  ISO  4  39 100  60 101  73 100  82 101
M  END
> <Batch ID>
0096

> <Smiles>
CNC(C)C(=O)NC(C(=O)N1Cc2cc([101O:1][101CH2:1]CCC(=O)Nc3ccc(C[100NH:0][100C:0](=O)N4CCCC(n5nc(-c6ccc(Oc7ccc(F)cc7F)cc6)c(C(N)=O)c5N)C4)c(F)c3)ccc2CC1C(=O)NC1CCCc2ccccc21)C(C)(C)C

> <Shape>
0.225

> <Color>
0.044

> <Negative vol penalty>
0.000

$$$$

  -OEChem-04052300463D

 87 96  0     1  0  0  0  0  0999 V2000
  -32.4608  -29.7581   23.7242 C   0  0  0  0  0  0  0  0  0  0  0  0
  -31.5662  -28.9505   23.0292 C   0  0  0  0  0  0  0  0  0  0  0  0
  -23.4502   -9.3910   19.7252 C   0  0  0  0  0  0  0  0  0  0  0  0
  -24.3773   -9.2812   21.9535 C   0  0  0  0  0  0  0  0  0  0  0  0
  -32.0160  -30.5219   24.8025 C   0  0  0  0  0  0  0  0  0  0  0  0
  -30.2263  -28.9055   23.4129 C   0  0  0  0  0  0  0  0  0  0  0  0
  -25.3317  -19.8220   18.1126 C   0  0  0  0  0  0  0  0  0  0  0  0
  -24.9121  -20.2326   20.4562 C   0  0  0  0  0  0  0  0  0  0  0  0
  -27.0651  -29.1723   19.4657 C   0  0  0  0  0  0  0  0  0  0  0  0
  -25.6927  -21.1585   17.9430 C   0  0  0  0  0  0  0  0  0  0  0  0
  -25.2731  -21.5692   20.2866 C   0  0  0  0  0  0  0  0  0  0  0  0
  -22.3725   -8.6060   20.1348 C   0  0  0  0  0  0  0  0  0  0  0  0
  -23.2995   -8.4961   22.3632 C   0  0  0  0  0  0  0  0  0  0  0  0
  -26.8823  -28.0107   18.7168 C   0  0  0  0  0  0  0  0  0  0  0  0
  -22.3367   -5.2643   22.1196 C   0  0  0  0  0  0  0  0  0  0  0  0
  -22.6129   -4.1381   22.8948 C   0  0  0  0  0  0  0  0  0  0  0  0
  -24.8083  -27.5963   19.8770 C   0  0  0  0  0  0  0  0  0  0  0  0
  -21.2547   -5.0341   24.6807 C   0  0  0  0  0  0  0  0  0  0  0  0
  -24.4527   -9.7286   20.6345 C   0  0  0  0  0  0  0  0  0  0  0  0
  -26.4998  -10.2405   19.2011 C   0  0  0  0  0  0  0  0  0  0  0  0
  -24.9413  -19.3590   19.3692 C   0  0  0  0  0  0  0  0  0  0  0  0
  -30.6680  -30.4935   25.1935 C   0  0  0  0  0  0  0  0  0  0  0  0
  -26.1248  -29.5495   20.4352 C   0  0  0  0  0  0  0  0  0  0  0  0
  -29.7633  -29.6685   24.4983 C   0  0  0  0  0  0  0  0  0  0  0  0
  -24.9803  -28.7645   20.6351 C   0  0  0  0  0  0  0  0  0  0  0  0
  -25.6635  -22.0322   19.0300 C   0  0  0  0  0  0  0  0  0  0  0  0
  -22.2971   -8.1586   21.4538 C   0  0  0  0  0  0  0  0  0  0  0  0
  -25.7552  -27.2209   18.9244 C   0  0  0  0  0  0  0  0  0  0  0  0
  -21.5195   -6.2755   22.6251 C   0  0  0  0  0  0  0  0  0  0  0  0
  -22.0719   -4.0230   24.1753 C   0  0  0  0  0  0  0  0  0  0  0  0
  -20.9785   -6.1604   23.9056 C   0  0  0  0  0  0  0  0  0  0  0  0
  -25.5665  -10.5390   20.2118 C   0  0  0  0  0  0  0  0  0  0  0  0
  -27.3491  -11.3199   19.1884 C   0  0  0  0  0  0  0  0  0  0  0  0
  -26.5909   -9.0904   18.3498 C   0  0  0  0  0  0  0  0  0  0  0  0
  -26.1954  -29.9677   23.5854 C   0  0  0  0  0  0  0  0  0  0  0  0
  -23.1700  -31.0409   23.1190 C   0  0  0  0  0  0  0  0  0  0  0  0
  -20.3623  -31.0397   21.1790 C   0  0  0  0  0  0  0  0  0  0  0  0
  -26.2408  -16.9510   21.1833 C   0  0  0  0  0  0  0  0  0  0  0  0
  -30.2436  -31.3003   26.3950 C   0  0  0  0  0  0  0  0  0  0  0  0
  -26.3233  -30.8197   21.2161 C   0  0  0  0  0  0  0  0  0  0  0  0
  -23.9309  -29.1364   21.6496 C   0  0  0  0  0  0  0  0  0  0  0  0
  -28.7319  -31.4831   26.5029 C   0  0  0  0  0  0  0  0  0  0  0  0
  -21.5614  -17.5803   19.1694 C   0  0  0  0  0  0  0  0  0  0  0  0
  -22.5025  -17.7020   17.9772 C   0  0  0  0  0  0  0  0  0  0  0  0
  -22.1445  -18.2336   20.4163 C   0  0  0  0  0  0  0  0  0  0  0  0
  -29.1326  -14.7291   22.0156 C   0  0  0  0  0  0  0  0  0  0  0  0
  -28.0160  -30.1556   26.2747 C   0  0  0  0  0  0  0  0  0  0  0  0
  -28.5764  -13.3639   21.6138 C   0  0  0  0  0  0  0  0  0  0  0  0
  -23.9127  -17.2013   18.3083 C   0  0  0  0  0  0  0  0  0  0  0  0
  -23.5376  -17.6843   20.7295 C   0  0  0  0  0  0  0  0  0  0  0  0
  -28.0175  -15.6744   22.4461 C   0  0  0  0  0  0  0  0  0  0  0  0
  -26.3853  -14.4920   21.0128 C   0  0  0  0  0  0  0  0  0  0  0  0
  -28.2971  -29.6118   24.8687 C   0  0  1  0  0  0  0  0  0  0  0  0
  -25.5591  -30.8350   22.5363 C   0  0  1  0  0  0  0  0  0  0  0  0
  -27.4746  -13.5100   20.5505 C   0  0  2  0  0  0  0  0  0  0  0  0
  -24.5421  -17.8836   19.5573 C   0  0  0  0  0  0  0  0  0  0  0  0
  -18.0389  -31.9822   21.0757 C   0  0  0  0  0  0  0  0  0  0  0  0
  -22.2676  -29.0423   25.2405 C   0  0  0  0  0  0  0  0  0  0  0  0
  -19.9195  -29.3433   24.4255 C   0  0  0  0  0  0  0  0  0  0  0  0
  -21.1644  -31.2823   25.3812 C   0  0  0  0  0  0  0  0  0  0  0  0
  -26.6455  -16.8766   18.7523 C   0  0  0  0  0  0  0  0  0  0  0  0
  -20.9236  -32.4531   18.6401 C   0  0  0  0  0  0  0  0  0  0  0  0
  -26.4419  -23.9222   17.5992 C   0  0  0  0  0  0  0  0  0  0  0  0
  -26.7478  -25.4023   17.7568 C   0  0  0  0  0  0  0  0  0  1  0  0
  -21.8013  -30.4044   23.0974 C   0  0  1  0  0  0  0  0  0  0  0  0
  -19.4912  -32.1726   20.6670 C   0  0  2  0  0  0  0  0  0  0  0  0
  -21.3088  -30.0098   24.5183 C   0  0  0  0  0  0  0  0  0  0  0  0
  -25.8007  -11.7158   20.7987 N   0  0  0  0  0  0  0  0  0  0  0  0
  -26.8909  -12.1661   20.1549 N   0  0  0  0  0  0  0  0  0  0  0  0
  -24.1734  -30.3841   22.3925 N   0  0  0  0  0  0  0  0  0  0  0  0
  -26.9651  -15.7721   21.4259 N   0  0  0  0  0  0  0  0  0  0  0  0
  -28.4358  -11.6181   18.4450 N   0  0  0  0  0  0  0  0  0  0  0  0
  -27.3537   -7.9973   18.7829 N   0  0  0  0  0  0  0  0  0  0  0  0
  -26.0237  -23.3590   18.8625 N   0  0  0  0  0  0  0  0  0  0  0  0
  -27.4990  -30.3136   23.8864 N   0  0  0  0  0  0  0  0  0  0  0  0
  -20.9265  -31.3412   22.4005 N   0  0  0  0  0  0  0  0  0  0  0  0
  -25.7649  -17.1513   19.8788 N   0  0  0  0  0  0  0  0  0  0  0  0
  -19.5554  -32.2439   19.1798 N   0  3  0  0  0  0  0  0  0  0  0  0
  -26.0264   -9.0403   17.2308 O   0  0  0  0  0  0  0  0  0  0  0  0
  -25.5509  -29.0534   24.0858 O   0  0  0  0  0  0  0  0  0  0  0  0
  -23.3409  -32.0863   23.7511 O   0  0  0  0  0  0  0  0  0  0  0  0
  -20.5230  -29.9906   20.5592 O   0  0  0  0  0  0  0  0  0  0  0  0
  -26.0229  -17.7718   22.0838 O   0  0  0  0  0  0  0  0  0  0  0  0
  -21.2455   -7.3927   21.8540 O   0  0  0  0  0  0  0  0  0  0  0  0
  -25.5746  -26.0862   18.1952 O   0  0  0  0  0  0  0  0  0  1  0  0
  -22.3360   -2.9406   24.9189 F   0  0  0  0  0  0  0  0  0  0  0  0
  -20.1917   -7.1280   24.3960 F   0  0  0  0  0  0  0  0  0  0  0  0
  1  2  1  0  0  0  0
  1  5  2  0  0  0  0
  2  6  2  0  0  0  0
  3 12  2  0  0  0  0
  3 19  1  0  0  0  0
  4 13  1  0  0  0  0
  4 19  2  0  0  0  0
  5 22  1  0  0  0  0
  6 24  1  0  0  0  0
  7 10  2  0  0  0  0
  7 21  1  0  0  0  0
  8 11  1  0  0  0  0
  8 21  2  0  0  0  0
  9 14  2  0  0  0  0
  9 23  1  0  0  0  0
 10 26  1  0  0  0  0
 11 26  2  0  0  0  0
 12 27  1  0  0  0  0
 13 27  2  0  0  0  0
 14 28  1  0  0  0  0
 15 16  2  0  0  0  0
 15 29  1  0  0  0  0
 16 30  1  0  0  0  0
 17 25  1  0  0  0  0
 17 28  2  0  0  0  0
 18 30  2  0  0  0  0
 18 31  1  0  0  0  0
 19 32  1  0  0  0  0
 20 32  1  0  0  0  0
 20 33  2  0  0  0  0
 20 34  1  0  0  0  0
 21 56  1  0  0  0  0
 22 24  2  0  0  0  0
 22 39  1  0  0  0  0
 23 25  2  0  0  0  0
 23 40  1  0  0  0  0
 24 53  1  0  0  0  0
 25 41  1  0  0  0  0
 26 74  1  0  0  0  0
 27 84  1  0  0  0  0
 28 85  1  0  0  0  0
 29 31  2  0  0  0  0
 29 84  1  0  0  0  0
 30 86  1  0  0  0  0
 31 87  1  0  0  0  0
 32 68  2  0  0  0  0
 33 69  1  0  0  0  0
 33 72  1  0  0  0  0
 34 73  1  0  0  0  0
 34 79  2  0  0  0  0
 35 54  1  0  0  0  0
 35 75  1  0  0  0  0
 35 80  2  0  0  0  0
 36 65  1  0  0  0  0
 36 70  1  0  0  0  0
 36 81  2  0  0  0  0
 37 66  1  0  0  0  0
 37 76  1  0  0  0  0
 37 82  2  0  0  0  0
 38 71  1  0  0  0  0
 38 77  1  0  0  0  0
 38 83  2  0  0  0  0
 39 42  1  0  0  0  0
 40 54  1  0  0  0  0
 41 70  1  0  0  0  0
 42 47  1  0  0  0  0
 43 44  1  0  0  0  0
 43 45  1  0  0  0  0
 44 49  1  0  0  0  0
 45 50  1  0  0  0  0
 46 48  1  0  0  0  0
 46 51  1  0  0  0  0
 47 53  1  0  0  0  0
 48 55  1  0  0  0  0
 49 56  1  0  0  0  0
 50 56  1  0  0  0  0
 51 71  1  0  0  0  0
 52 55  1  0  0  0  0
 52 71  1  0  0  0  0
 53 75  1  0  0  0  0
 54 70  1  0  0  0  0
 55 69  1  0  0  0  0
 56 77  1  0  0  0  0
 57 66  1  0  0  0  0
 58 67  1  0  0  0  0
 59 67  1  0  0  0  0
 60 67  1  0  0  0  0
 61 77  1  0  0  0  0
 62 78  1  0  0  0  0
 63 64  1  0  0  0  0
 63 74  1  0  0  0  0
 64 85  1  0  0  0  0
 65 67  1  0  0  0  0
 65 76  1  0  0  0  0
 66 78  1  0  0  0  0
 68 69  1  0  0  0  0
M  CHG  1  78   1
M  ISO  4  38 100  64 101  77 100  85 101
M  END
> <Batch ID>
0096

> <Smiles>
CNC(C)C(=O)NC(C(=O)N1Cc2cc([101O:1][101CH2:1]CNc3ccc(C4([100N:0](C)[100C:0](=O)N5CCCC(n6nc(-c7ccc(Oc8ccc(F)cc8F)cc7)c(C(N)=O)c6N)C5)CCCCC4)cc3)ccc2CC1C(=O)NC1CCCc2ccccc21)C(C)(C)C

> <Shape>
0.225

> <Color>
0.116

> <Negative vol penalty>
0.000

$$$$

  -OEChem-04052300463D

 87 96  0     1  0  0  0  0  0999 V2000
  -29.6389  -35.7213   24.2944 C   0  0  0  0  0  0  0  0  0  0  0  0
  -29.6784  -34.3696   23.9677 C   0  0  0  0  0  0  0  0  0  0  0  0
  -24.6811   -8.5708   21.3638 C   0  0  0  0  0  0  0  0  0  0  0  0
  -23.1874  -10.4692   21.4071 C   0  0  0  0  0  0  0  0  0  0  0  0
  -28.4255  -36.3216   24.6277 C   0  0  0  0  0  0  0  0  0  0  0  0
  -28.5044  -33.6171   23.9753 C   0  0  0  0  0  0  0  0  0  0  0  0
  -27.0709  -28.9937   20.2235 C   0  0  0  0  0  0  0  0  0  0  0  0
  -23.9182   -7.9480   22.3515 C   0  0  0  0  0  0  0  0  0  0  0  0
  -22.4245   -9.8464   22.3949 C   0  0  0  0  0  0  0  0  0  0  0  0
  -27.1433  -27.6093   20.3709 C   0  0  0  0  0  0  0  0  0  0  0  0
  -21.0131   -6.2282   22.5409 C   0  0  0  0  0  0  0  0  0  0  0  0
  -20.7037   -4.8793   22.3668 C   0  0  0  0  0  0  0  0  0  0  0  0
  -28.2037  -18.5054   21.2031 C   0  0  0  0  0  0  0  0  0  0  0  0
  -24.8204  -27.5630   21.0198 C   0  0  0  0  0  0  0  0  0  0  0  0
  -25.9309  -18.0740   20.5063 C   0  0  0  0  0  0  0  0  0  0  0  0
  -21.8467   -4.3510   24.4288 C   0  0  0  0  0  0  0  0  0  0  0  0
  -24.3158   -9.8315   20.8916 C   0  0  0  0  0  0  0  0  0  0  0  0
  -27.8112  -19.7407   21.7185 C   0  0  0  0  0  0  0  0  0  0  0  0
  -24.9357  -10.3754   18.4776 C   0  0  0  0  0  0  0  0  0  0  0  0
  -27.2346  -35.5783   24.6300 C   0  0  0  0  0  0  0  0  0  0  0  0
  -25.8736  -29.6757   20.4842 C   0  0  0  0  0  0  0  0  0  0  0  0
  -27.2741  -34.2077   24.3102 C   0  0  0  0  0  0  0  0  0  0  0  0
  -24.7347  -28.9558   20.8726 C   0  0  0  0  0  0  0  0  0  0  0  0
  -26.4785  -20.1426   21.6279 C   0  0  0  0  0  0  0  0  0  0  0  0
  -27.2635  -17.6721   20.5969 C   0  0  0  0  0  0  0  0  0  0  0  0
  -25.5384  -19.3092   21.0218 C   0  0  0  0  0  0  0  0  0  0  0  0
  -22.7899   -8.5857   22.8671 C   0  0  0  0  0  0  0  0  0  0  0  0
  -26.0187  -26.8940   20.7719 C   0  0  0  0  0  0  0  0  0  0  0  0
  -21.7394   -6.6385   23.6589 C   0  0  0  0  0  0  0  0  0  0  0  0
  -21.1205   -3.9407   23.3107 C   0  0  0  0  0  0  0  0  0  0  0  0
  -22.1561   -5.6999   24.6029 C   0  0  0  0  0  0  0  0  0  0  0  0
  -25.1038  -10.4756   19.8717 C   0  0  0  0  0  0  0  0  0  0  0  0
  -25.9274  -11.1687   17.9543 C   0  0  0  0  0  0  0  0  0  0  0  0
  -28.8200  -20.5870   22.3442 C   0  0  0  0  0  0  0  0  0  0  0  0
  -23.9695   -9.6319   17.7231 C   0  0  0  0  0  0  0  0  0  0  0  0
  -24.9714  -31.9131   22.5538 C   0  0  0  0  0  0  0  0  0  0  0  0
  -22.2177  -31.8354   20.8411 C   0  0  0  0  0  0  0  0  0  0  0  0
  -20.1379  -30.0857   18.7771 C   0  0  0  0  0  0  0  0  0  0  0  0
  -28.9442  -15.8679   20.0804 C   0  0  0  0  0  0  0  0  0  0  0  0
  -25.9543  -36.2600   25.0430 C   0  0  0  0  0  0  0  0  0  0  0  0
  -25.8048  -31.1662   20.2947 C   0  0  0  0  0  0  0  0  0  0  0  0
  -23.4200  -29.6383   21.1450 C   0  0  0  0  0  0  0  0  0  0  0  0
  -24.6986  -35.4794   24.6632 C   0  0  0  0  0  0  0  0  0  0  0  0
  -30.3253  -12.7958   18.9264 C   0  0  0  0  0  0  0  0  0  0  0  0
  -24.8502  -34.0088   25.0389 C   0  0  0  0  0  0  0  0  0  0  0  0
  -29.1265  -11.8447   18.9052 C   0  0  0  0  0  0  0  0  0  0  0  0
  -25.0551  -22.9846   23.4951 C   0  0  0  0  0  0  0  0  0  0  0  0
  -30.2622  -13.7615   20.1084 C   0  0  0  0  0  0  0  0  0  0  0  0
  -25.6332  -21.5711   23.5079 C   0  0  0  0  0  0  0  0  0  0  0  0
  -26.0825  -22.6066   21.3671 C   0  0  0  0  0  0  0  0  0  0  0  0
  -27.8086  -13.5636   20.2072 C   0  0  0  0  0  0  0  0  0  0  0  0
  -26.0183  -33.3638   24.2831 C   0  0  1  0  0  0  0  0  0  0  0  0
  -24.6733  -31.8172   21.0843 C   0  0  1  0  0  0  0  0  0  0  0  0
  -25.8892  -23.6927   22.4314 C   0  0  1  0  0  0  0  0  0  0  0  0
  -27.7945  -12.6147   18.9977 C   0  0  2  0  0  0  0  0  0  0  0  0
  -17.9434  -30.2710   17.5741 C   0  0  0  0  0  0  0  0  0  0  0  0
  -20.7400  -31.3898   23.4731 C   0  0  0  0  0  0  0  0  0  0  0  0
  -18.7493  -30.6464   22.1492 C   0  0  0  0  0  0  0  0  0  0  0  0
  -19.6131  -32.9732   21.8992 C   0  0  0  0  0  0  0  0  0  0  0  0
  -21.4274  -29.7583   16.1334 C   0  0  0  0  0  0  0  0  0  0  0  0
  -25.2300  -24.9502   21.8925 C   0  0  0  0  0  0  0  0  0  1  0  0
  -20.9309  -31.0501   20.9208 C   0  0  1  0  0  0  0  0  0  0  0  0
  -19.4482  -30.4702   17.4806 C   0  0  2  0  0  0  0  0  0  0  0  0
  -20.0334  -31.5020   22.1074 C   0  0  0  0  0  0  0  0  0  0  0  0
  -26.1222  -11.2697   20.2125 N   0  0  0  0  0  0  0  0  0  0  0  0
  -26.6031  -11.6757   19.0251 N   0  0  0  0  0  0  0  0  0  0  0  0
  -26.0916  -21.3643   22.1365 N   0  0  3  0  0  0  0  0  0  0  0  0
  -23.4049  -31.0977   20.9519 N   0  0  0  0  0  0  0  0  0  0  0  0
  -28.9742  -14.4581   20.1293 N   0  0  0  0  0  0  0  0  0  0  0  0
  -24.1831  -19.6962   20.9171 N   0  0  0  0  0  0  0  0  0  0  0  0
  -26.2786  -11.4748   16.6873 N   0  0  0  0  0  0  0  0  0  0  0  0
  -29.4978  -21.4889   21.5319 N   0  0  0  0  0  0  0  0  0  0  0  0
  -23.0215   -8.8693   18.4189 N   0  0  0  0  0  0  0  0  0  0  0  0
  -27.6626  -16.4175   20.0730 N   0  0  0  0  0  0  0  0  0  0  0  0
  -25.6359  -33.0684   22.9189 N   0  0  0  0  0  0  0  0  0  0  0  0
  -20.2970  -31.1712   19.6124 N   0  0  0  0  0  0  0  0  0  0  0  0
  -19.9630  -29.6410   16.3544 N   0  3  0  0  0  0  0  0  0  0  0  0
  -29.0776  -20.4950   23.5554 O   0  0  0  0  0  0  0  0  0  0  0  0
  -23.9576   -9.6304   16.4688 O   0  0  0  0  0  0  0  0  0  0  0  0
  -24.6229  -31.0068   23.3014 O   0  0  0  0  0  0  0  0  0  0  0  0
  -22.1714  -33.0574   20.6790 O   0  0  0  0  0  0  0  0  0  0  0  0
  -20.4962  -28.9366   19.0257 O   0  0  0  0  0  0  0  0  0  0  0  0
  -29.9788  -16.5373   20.0202 O   0  0  0  0  0  0  0  0  0  0  0  0
  -22.0450   -7.9782   23.8307 O   0  0  0  0  0  0  0  0  0  0  0  0
  -26.0868  -25.5426   20.9171 O   0  0  0  0  0  0  0  0  0  1  0  0
  -20.8220   -2.6456   23.1442 F   0  0  0  0  0  0  0  0  0  0  0  0
  -22.8530   -6.0883   25.6796 F   0  0  0  0  0  0  0  0  0  0  0  0
  1  2  1  0  0  0  0
  1  5  2  0  0  0  0
  2  6  2  0  0  0  0
  3  8  2  0  0  0  0
  3 17  1  0  0  0  0
  4  9  1  0  0  0  0
  4 17  2  0  0  0  0
  5 20  1  0  0  0  0
  6 22  1  0  0  0  0
  7 10  2  0  0  0  0
  7 21  1  0  0  0  0
  8 27  1  0  0  0  0
  9 27  2  0  0  0  0
 10 28  1  0  0  0  0
 11 12  2  0  0  0  0
 11 29  1  0  0  0  0
 12 30  1  0  0  0  0
 13 18  1  0  0  0  0
 13 25  2  0  0  0  0
 14 23  1  0  0  0  0
 14 28  2  0  0  0  0
 15 25  1  0  0  0  0
 15 26  2  0  0  0  0
 16 30  2  0  0  0  0
 16 31  1  0  0  0  0
 17 32  1  0  0  0  0
 18 24  2  0  0  0  0
 18 34  1  0  0  0  0
 19 32  1  0  0  0  0
 19 33  2  0  0  0  0
 19 35  1  0  0  0  0
 20 22  2  0  0  0  0
 20 40  1  0  0  0  0
 21 23  2  0  0  0  0
 21 41  1  0  0  0  0
 22 52  1  0  0  0  0
 23 42  1  0  0  0  0
 24 26  1  0  0  0  0
 24 67  1  0  0  0  0
 25 74  1  0  0  0  0
 26 70  1  0  0  0  0
 27 84  1  0  0  0  0
 28 85  1  0  0  0  0
 29 31  2  0  0  0  0
 29 84  1  0  0  0  0
 30 86  1  0  0  0  0
 31 87  1  0  0  0  0
 32 65  2  0  0  0  0
 33 66  1  0  0  0  0
 33 71  1  0  0  0  0
 34 72  1  0  0  0  0
 34 78  2  0  0  0  0
 35 73  1  0  0  0  0
 35 79  2  0  0  0  0
 36 53  1  0  0  0  0
 36 75  1  0  0  0  0
 36 80  2  0  0  0  0
 37 62  1  0  0  0  0
 37 68  1  0  0  0  0
 37 81  2  0  0  0  0
 38 63  1  0  0  0  0
 38 76  1  0  0  0  0
 38 82  2  0  0  0  0
 39 69  1  0  0  0  0
 39 74  1  0  0  0  0
 39 83  2  0  0  0  0
 40 43  1  0  0  0  0
 41 53  1  0  0  0  0
 42 68  1  0  0  0  0
 43 45  1  0  0  0  0
 44 46  1  0  0  0  0
 44 48  1  0  0  0  0
 45 52  1  0  0  0  0
 46 55  1  0  0  0  0
 47 49  1  0  0  0  0
 47 54  1  0  0  0  0
 48 69  1  0  0  0  0
 49 67  1  0  0  0  0
 50 54  1  0  0  0  0
 50 67  1  0  0  0  0
 51 55  1  0  0  0  0
 51 69  1  0  0  0  0
 52 75  1  0  0  0  0
 53 68  1  0  0  0  0
 54 61  1  0  0  0  0
 55 66  1  0  0  0  0
 56 63  1  0  0  0  0
 57 64  1  0  0  0  0
 58 64  1  0  0  0  0
 59 64  1  0  0  0  0
 60 77  1  0  0  0  0
 61 85  1  0  0  0  0
 62 64  1  0  0  0  0
 62 76  1  0  0  0  0
 63 77  1  0  0  0  0
 65 66  1  0  0  0  0
M  CHG  1  77   1
M  ISO  4  39 100  61 101  74 100  85 101
M  END
> <Batch ID>
0096

> <Smiles>
CNC(C)C(=O)NC(C(=O)N1Cc2cc([101O:1][101CH2:1]C3CCN(c4c(N)cc([100NH:0][100C:0](=O)N5CCCC(n6nc(-c7ccc(Oc8ccc(F)cc8F)cc7)c(C(N)=O)c6N)C5)cc4C(N)=O)C3)ccc2CC1C(=O)NC1CCCc2ccccc21)C(C)(C)C

> <Shape>
0.256

> <Color>
0.095

> <Negative vol penalty>
0.000

$$$$

  -OEChem-04052300463D

 84 92  0     1  0  0  0  0  0999 V2000
  -23.9564   -8.0595   21.7844 C   0  0  0  0  0  0  0  0  0  0  0  0
  -24.6119   -9.1757   21.2747 C   0  0  0  0  0  0  0  0  0  0  0  0
  -22.4134  -28.9708   20.7751 C   0  0  0  0  0  0  0  0  0  0  0  0
  -22.9299  -26.6957   21.4031 C   0  0  0  0  0  0  0  0  0  0  0  0
  -22.5786   -8.0971   21.9944 C   0  0  0  0  0  0  0  0  0  0  0  0
  -23.8896  -10.3298   20.9735 C   0  0  0  0  0  0  0  0  0  0  0  0
  -26.1759  -14.5375   22.6207 C   0  0  0  0  0  0  0  0  0  0  0  0
  -31.3484  -23.5687   17.7565 C   0  0  0  0  0  0  0  0  0  0  0  0
  -31.2975  -22.2348   18.1611 C   0  0  0  0  0  0  0  0  0  0  0  0
  -21.0756  -28.7590   21.1081 C   0  0  0  0  0  0  0  0  0  0  0  0
  -21.5920  -26.4840   21.7362 C   0  0  0  0  0  0  0  0  0  0  0  0
  -27.2450  -15.0183   21.8660 C   0  0  0  0  0  0  0  0  0  0  0  0
  -17.5921  -28.9271   22.1340 C   0  0  0  0  0  0  0  0  0  0  0  0
  -16.9449  -29.9139   22.8775 C   0  0  0  0  0  0  0  0  0  0  0  0
  -25.7872  -16.6509   20.8519 C   0  0  0  0  0  0  0  0  0  0  0  0
  -30.1356  -24.2174   19.7428 C   0  0  0  0  0  0  0  0  0  0  0  0
  -18.5488  -29.6222   24.6607 C   0  0  0  0  0  0  0  0  0  0  0  0
  -23.3406  -27.9391   20.9225 C   0  0  0  0  0  0  0  0  0  0  0  0
  -25.7464  -28.6229   21.4247 C   0  0  0  0  0  0  0  0  0  0  0  0
  -21.8405   -9.2555   21.7047 C   0  0  0  0  0  0  0  0  0  0  0  0
  -24.8998  -15.1036   22.4884 C   0  0  0  0  0  0  0  0  0  0  0  0
  -22.5004  -10.3825   21.1785 C   0  0  0  0  0  0  0  0  0  0  0  0
  -24.7041  -16.1772   21.6079 C   0  0  0  0  0  0  0  0  0  0  0  0
  -30.7674  -24.5600   18.5474 C   0  0  0  0  0  0  0  0  0  0  0  0
  -30.6656  -21.8922   19.3565 C   0  0  0  0  0  0  0  0  0  0  0  0
  -20.6649  -27.5157   21.5887 C   0  0  0  0  0  0  0  0  0  0  0  0
  -27.0502  -16.0733   20.9793 C   0  0  0  0  0  0  0  0  0  0  0  0
  -18.7176  -28.2877   22.6538 C   0  0  0  0  0  0  0  0  0  0  0  0
  -17.4232  -30.2615   24.1409 C   0  0  0  0  0  0  0  0  0  0  0  0
  -30.0846  -22.8835   20.1474 C   0  0  0  0  0  0  0  0  0  0  0  0
  -19.1959  -28.6353   23.9171 C   0  0  0  0  0  0  0  0  0  0  0  0
  -24.7226  -28.1570   20.5781 C   0  0  0  0  0  0  0  0  0  0  0  0
  -26.8637  -28.6553   20.6265 C   0  0  0  0  0  0  0  0  0  0  0  0
  -29.5896  -19.8836   19.3529 C   0  0  0  0  0  0  0  0  0  0  0  0
  -25.6923  -28.9931   22.8087 C   0  0  0  0  0  0  0  0  0  0  0  0
  -29.4677  -18.4480   19.7488 C   0  0  0  0  0  0  0  0  0  0  0  0
  -22.0549  -14.0305   21.5615 C   0  0  0  0  0  0  0  0  0  0  0  0
  -30.1259  -26.2096   16.7969 C   0  0  0  0  0  0  0  0  0  0  0  0
  -21.0718  -16.9755   22.5010 C   0  0  0  0  0  0  0  0  0  0  0  0
  -21.8640  -20.2412   23.0964 C   0  0  0  0  0  0  0  0  0  0  0  0
  -20.3457   -9.2327   21.9038 C   0  0  0  0  0  0  0  0  0  0  0  0
  -23.7628  -14.5911   23.3293 C   0  0  0  0  0  0  0  0  0  0  0  0
  -23.3582  -16.8330   21.4438 C   0  0  0  0  0  0  0  0  0  0  0  0
  -19.7109  -10.6209   21.9111 C   0  0  0  0  0  0  0  0  0  0  0  0
  -27.3627  -28.1666   15.6245 C   0  0  0  0  0  0  0  0  0  0  0  0
  -20.2400  -11.4559   20.7493 C   0  0  0  0  0  0  0  0  0  0  0  0
  -26.4987  -28.3510   16.8714 C   0  0  0  0  0  0  0  0  0  0  0  0
  -28.0380  -26.7989   15.6104 C   0  0  0  0  0  0  0  0  0  0  0  0
  -27.9838  -26.6912   18.0816 C   0  0  0  0  0  0  0  0  0  0  0  0
  -21.7554  -11.6614   20.8628 C   0  0  1  0  0  0  0  0  0  0  0  0
  -22.3926  -14.9044   22.7363 C   0  0  1  0  0  0  0  0  0  0  0  0
  -27.3076  -28.0719   18.1505 C   0  0  2  0  0  0  0  0  0  0  0  0
  -20.8417  -22.4161   23.8189 C   0  0  0  0  0  0  0  0  0  0  0  0
  -19.8161  -17.3000   19.7391 C   0  0  0  0  0  0  0  0  0  0  0  0
  -19.6625  -19.7607   20.1747 C   0  0  0  0  0  0  0  0  0  0  0  0
  -18.4193  -18.1586   21.6275 C   0  0  0  0  0  0  0  0  0  0  0  0
  -23.6158  -20.4075   25.4760 C   0  0  0  0  0  0  0  0  0  0  0  0
  -28.0639  -17.9258   19.8855 C   0  0  0  0  0  0  0  0  0  1  0  0
  -30.8209  -25.9866   18.1164 C   0  0  2  0  0  0  0  0  0  0  0  0
  -20.9342  -18.3210   21.8304 C   0  0  1  0  0  0  0  0  0  0  0  0
  -21.5593  -21.1537   24.2707 C   0  0  2  0  0  0  0  0  0  0  0  0
  -19.7331  -18.3717   20.8444 C   0  0  0  0  0  0  0  0  0  0  0  0
  -25.1514  -27.9113   19.3373 N   0  0  0  0  0  0  0  0  0  0  0  0
  -30.6142  -20.5479   19.7618 N   0  0  0  0  0  0  0  0  0  0  0  0
  -26.4570  -28.2240   19.3982 N   0  0  0  0  0  0  0  0  0  0  0  0
  -22.2765  -16.2921   22.2834 N   0  0  0  0  0  0  0  0  0  0  0  0
  -28.7775  -26.5628   16.8516 N   0  0  0  0  0  0  0  0  0  0  0  0
  -28.1446  -29.0104   20.8626 N   0  0  0  0  0  0  0  0  0  0  0  0
  -24.4643  -28.8998   23.4778 N   0  0  0  0  0  0  0  0  0  0  0  0
  -22.0552  -12.6786   21.8476 N   0  0  0  0  0  0  0  0  0  0  0  0
  -20.8683  -19.3071   22.9036 N   0  0  0  0  0  0  0  0  0  0  0  0
  -32.2111  -26.5414   18.0238 N   0  3  0  0  0  0  0  0  0  0  0  0
  -22.8201  -21.5506   24.9590 N   0  3  0  0  0  0  0  0  0  0  0  0
  -26.6994  -29.4104   23.4293 O   0  0  0  0  0  0  0  0  0  0  0  0
  -30.4924  -17.8062   19.9173 O   0  0  0  0  0  0  0  0  0  0  0  0
  -21.8107  -14.5447   20.4764 O   0  0  0  0  0  0  0  0  0  0  0  0
  -30.7648  -26.0763   15.7498 O   0  0  0  0  0  0  0  0  0  0  0  0
  -20.1474  -16.5499   23.1981 O   0  0  0  0  0  0  0  0  0  0  0  0
  -22.8817  -20.3489   22.4157 O   0  0  0  0  0  0  0  0  0  0  0  0
  -19.3595  -27.3088   21.9140 O   0  0  0  0  0  0  0  0  0  0  0  0
  -28.0919  -16.5441   20.2410 O   0  0  0  0  0  0  0  0  0  1  0  0
  -16.8025  -31.2102   24.8542 F   0  0  0  0  0  0  0  0  0  0  0  0
  -29.4752  -22.5635   21.2977 F   0  0  0  0  0  0  0  0  0  0  0  0
  -20.2775  -28.0254   24.4213 F   0  0  0  0  0  0  0  0  0  0  0  0
  1  2  1  0  0  0  0
  1  5  2  0  0  0  0
  2  6  2  0  0  0  0
  3 10  2  0  0  0  0
  3 18  1  0  0  0  0
  4 11  1  0  0  0  0
  4 18  2  0  0  0  0
  5 20  1  0  0  0  0
  6 22  1  0  0  0  0
  7 12  2  0  0  0  0
  7 21  1  0  0  0  0
  8  9  2  0  0  0  0
  8 24  1  0  0  0  0
  9 25  1  0  0  0  0
 10 26  1  0  0  0  0
 11 26  2  0  0  0  0
 12 27  1  0  0  0  0
 13 14  2  0  0  0  0
 13 28  1  0  0  0  0
 14 29  1  0  0  0  0
 15 23  1  0  0  0  0
 15 27  2  0  0  0  0
 16 24  2  0  0  0  0
 16 30  1  0  0  0  0
 17 29  2  0  0  0  0
 17 31  1  0  0  0  0
 18 32  1  0  0  0  0
 19 32  1  0  0  0  0
 19 33  2  0  0  0  0
 19 35  1  0  0  0  0
 20 22  2  0  0  0  0
 20 41  1  0  0  0  0
 21 23  2  0  0  0  0
 21 42  1  0  0  0  0
 22 50  1  0  0  0  0
 23 43  1  0  0  0  0
 24 59  1  0  0  0  0
 25 30  2  0  0  0  0
 25 64  1  0  0  0  0
 26 80  1  0  0  0  0
 27 81  1  0  0  0  0
 28 31  2  0  0  0  0
 28 80  1  0  0  0  0
 29 82  1  0  0  0  0
 30 83  1  0  0  0  0
 31 84  1  0  0  0  0
 32 63  2  0  0  0  0
 33 65  1  0  0  0  0
 33 68  1  0  0  0  0
 34 36  1  0  0  0  0
 34 64  2  0  0  0  0
 35 69  1  0  0  0  0
 35 74  2  0  0  0  0
 36 58  1  0  0  0  0
 36 75  2  0  0  0  0
 37 51  1  0  0  0  0
 37 70  1  0  0  0  0
 37 76  2  0  0  0  0
 38 59  1  0  0  0  0
 38 67  1  0  0  0  0
 38 77  2  0  0  0  0
 39 60  1  0  0  0  0
 39 66  1  0  0  0  0
 39 78  2  0  0  0  0
 40 61  1  0  0  0  0
 40 71  1  0  0  0  0
 40 79  2  0  0  0  0
 41 44  1  0  0  0  0
 42 51  1  0  0  0  0
 43 66  1  0  0  0  0
 44 46  1  0  0  0  0
 45 47  1  0  0  0  0
 45 48  1  0  0  0  0
 46 50  1  0  0  0  0
 47 52  1  0  0  0  0
 48 67  1  0  0  0  0
 49 52  1  0  0  0  0
 49 67  1  0  0  0  0
 50 70  1  0  0  0  0
 51 66  1  0  0  0  0
 52 65  1  0  0  0  0
 53 61  1  0  0  0  0
 54 62  1  0  0  0  0
 55 62  1  0  0  0  0
 56 62  1  0  0  0  0
 57 73  1  0  0  0  0
 58 81  1  0  0  0  0
 59 72  1  0  0  0  0
 60 62  1  0  0  0  0
 60 71  1  0  0  0  0
 61 73  1  0  0  0  0
 63 65  1  0  0  0  0
M  CHG  2  72   1  73   1
M  ISO  4  38 100  58 101  59 100  81 101
M  END
> <Batch ID>
0096

> <Smiles>
CNC(C)C(=O)NC(C(=O)N1Cc2cc([101O:1][101CH2:1]C(=O)CNc3ccc([100C:0](=N)[100C:0](=O)N4CCCC(n5nc(-c6ccc(Oc7ccc(F)cc7F)cc6)c(C(N)=O)c5N)C4)cc3F)ccc2CC1C(=O)NC1CCCc2ccccc21)C(C)(C)C

> <Shape>
0.241

> <Color>
0.109

> <Negative vol penalty>
0.000

$$$$

  -OEChem-04052300463D

 86 95  0     1  0  0  0  0  0999 V2000
  -21.8246  -19.2482   23.4753 C   0  0  0  0  0  0  0  0  0  0  0  0
  -23.1388  -19.6855   23.6064 C   0  0  0  0  0  0  0  0  0  0  0  0
  -23.0750   -9.8689   19.9382 C   0  0  0  0  0  0  0  0  0  0  0  0
  -23.8365   -9.8713   22.2311 C   0  0  0  0  0  0  0  0  0  0  0  0
  -21.0373  -19.7153   22.4237 C   0  0  0  0  0  0  0  0  0  0  0  0
  -23.6667  -20.5895   22.6852 C   0  0  0  0  0  0  0  0  0  0  0  0
  -26.2800  -24.3184   24.9014 C   0  0  0  0  0  0  0  0  0  0  0  0
  -32.6547  -17.4850   23.4576 C   0  0  0  0  0  0  0  0  0  0  0  0
  -32.0641  -16.6033   22.5525 C   0  0  0  0  0  0  0  0  0  0  0  0
  -22.3313   -8.7153   20.1863 C   0  0  0  0  0  0  0  0  0  0  0  0
  -23.0928   -8.7176   22.4792 C   0  0  0  0  0  0  0  0  0  0  0  0
  -27.5703  -24.0198   25.3370 C   0  0  0  0  0  0  0  0  0  0  0  0
  -19.8650   -7.9185   23.0823 C   0  0  0  0  0  0  0  0  0  0  0  0
  -19.1089   -7.8762   24.2537 C   0  0  0  0  0  0  0  0  0  0  0  0
  -28.4732  -25.0634   23.3584 C   0  0  0  0  0  0  0  0  0  0  0  0
  -30.4730  -18.3355   24.0527 C   0  0  0  0  0  0  0  0  0  0  0  0
  -20.3508   -5.9373   24.9853 C   0  0  0  0  0  0  0  0  0  0  0  0
  -23.8277  -10.4469   20.9606 C   0  0  0  0  0  0  0  0  0  0  0  0
  -24.1694  -12.9723   20.8454 C   0  0  0  0  0  0  0  0  0  0  0  0
  -21.5528  -20.6329   21.4948 C   0  0  0  0  0  0  0  0  0  0  0  0
  -26.0758  -24.9831   23.6836 C   0  0  0  0  0  0  0  0  0  0  0  0
  -22.8859  -21.0684   21.6194 C   0  0  0  0  0  0  0  0  0  0  0  0
  -27.1795  -25.3714   22.9108 C   0  0  0  0  0  0  0  0  0  0  0  0
  -31.8591  -18.3511   24.2078 C   0  0  0  0  0  0  0  0  0  0  0  0
  -30.6780  -16.5876   22.3974 C   0  0  0  0  0  0  0  0  0  0  0  0
  -22.3402   -8.1396   21.4568 C   0  0  0  0  0  0  0  0  0  0  0  0
  -28.6671  -24.3898   24.5641 C   0  0  0  0  0  0  0  0  0  0  0  0
  -20.8640   -6.9702   22.8624 C   0  0  0  0  0  0  0  0  0  0  0  0
  -19.3518   -6.8856   25.2052 C   0  0  0  0  0  0  0  0  0  0  0  0
  -29.8824  -17.4537   23.1475 C   0  0  0  0  0  0  0  0  0  0  0  0
  -21.1070   -5.9796   23.8139 C   0  0  0  0  0  0  0  0  0  0  0  0
  -24.5965  -11.6383   20.7047 C   0  0  0  0  0  0  0  0  0  0  0  0
  -25.2613  -13.7225   20.4829 C   0  0  0  0  0  0  0  0  0  0  0  0
  -33.5170  -21.2125   23.8918 C   0  0  0  0  0  0  0  0  0  0  0  0
  -22.8992  -13.4873   21.2663 C   0  0  0  0  0  0  0  0  0  0  0  0
  -24.6165  -24.2642   20.9528 C   0  0  0  0  0  0  0  0  0  0  0  0
  -25.3098  -27.3478   20.2226 C   0  0  0  0  0  0  0  0  0  0  0  0
  -27.2855  -30.0783   20.7586 C   0  0  0  0  0  0  0  0  0  0  0  0
  -30.7276  -14.7679   20.6560 C   0  0  0  0  0  0  0  0  0  0  0  0
  -20.6784  -21.0732   20.3475 C   0  0  0  0  0  0  0  0  0  0  0  0
  -24.6788  -25.3214   23.2407 C   0  0  0  0  0  0  0  0  0  0  0  0
  -27.0149  -26.1048   21.6056 C   0  0  0  0  0  0  0  0  0  0  0  0
  -33.0629  -22.5994   23.5029 C   0  0  0  0  0  0  0  0  0  0  0  0
  -21.1955  -22.3176   19.6303 C   0  0  0  0  0  0  0  0  0  0  0  0
  -29.6116  -12.3588   18.2836 C   0  0  0  0  0  0  0  0  0  0  0  0
  -22.6896  -22.1903   19.3504 C   0  0  0  0  0  0  0  0  0  0  0  0
  -28.1722  -12.0664   18.7136 C   0  0  0  0  0  0  0  0  0  0  0  0
  -30.5275  -12.5852   19.4851 C   0  0  0  0  0  0  0  0  0  0  0  0
  -31.3874  -21.5447   24.8618 C   0  0  0  0  0  0  0  0  0  0  0  0
  -28.6215  -13.3068   20.8691 C   0  0  0  0  0  0  0  0  0  0  0  0
  -23.4867  -22.0675   20.6546 C   0  0  1  0  0  0  0  0  0  0  0  0
  -24.5669  -25.5457   21.7358 C   0  0  1  0  0  0  0  0  0  0  0  0
  -31.9590  -22.9128   24.5162 C   0  0  2  0  0  0  0  0  0  0  0  0
  -27.6478  -13.1360   19.6916 C   0  0  2  0  0  0  0  0  0  0  0  0
  -27.6336  -32.4403   19.9857 C   0  0  0  0  0  0  0  0  0  0  0  0
  -26.6282  -26.3161   17.6716 C   0  0  0  0  0  0  0  0  0  0  0  0
  -27.7560  -28.5392   17.4385 C   0  0  0  0  0  0  0  0  0  0  0  0
  -25.2665  -28.3929   17.3758 C   0  0  0  0  0  0  0  0  0  0  0  0
  -26.7468  -31.1641   23.4586 C   0  0  0  0  0  0  0  0  0  0  0  0
  -32.4946  -19.3011   25.1813 C   0  0  0  0  0  0  0  0  0  0  0  0
  -30.9148  -23.8771   23.9805 C   0  0  0  0  0  0  0  0  0  1  0  0
  -26.4730  -28.0569   19.5721 C   0  0  1  0  0  0  0  0  0  0  0  0
  -26.9435  -31.5380   20.9968 C   0  0  2  0  0  0  0  0  0  0  0  0
  -26.5343  -27.8107   18.0381 C   0  0  0  0  0  0  0  0  0  0  0  0
  -25.8611  -11.5434   20.2854 N   0  0  0  0  0  0  0  0  0  0  0  0
  -26.2379  -12.8272   20.1594 N   0  0  0  0  0  0  0  0  0  0  0  0
  -32.5128  -20.6583   24.6801 N   0  0  0  0  0  0  0  0  0  0  0  0
  -25.6288  -26.4073   21.2123 N   0  0  0  0  0  0  0  0  0  0  0  0
  -29.9691  -13.6143   20.3649 N   0  0  0  0  0  0  0  0  0  0  0  0
  -25.4716  -15.0542   20.4125 N   0  0  0  0  0  0  0  0  0  0  0  0
  -21.8875  -12.5774   21.6024 N   0  0  0  0  0  0  0  0  0  0  0  0
  -30.0807  -15.6912   21.4767 N   0  0  0  0  0  0  0  0  0  0  0  0
  -23.6243  -23.3622   21.2866 N   0  0  0  0  0  0  0  0  0  0  0  0
  -26.3563  -29.4618   19.9476 N   0  0  0  0  0  0  0  0  0  0  0  0
  -27.3680  -31.9531   22.3638 N   0  3  0  0  0  0  0  0  0  0  0  0
  -34.5601  -20.6944   23.5214 O   0  0  0  0  0  0  0  0  0  0  0  0
  -22.6629  -14.7177   21.3263 O   0  0  0  0  0  0  0  0  0  0  0  0
  -25.4894  -24.1062   20.1073 O   0  0  0  0  0  0  0  0  0  0  0  0
  -24.1601  -27.6235   19.8707 O   0  0  0  0  0  0  0  0  0  0  0  0
  -28.2797  -29.5399   21.2405 O   0  0  0  0  0  0  0  0  0  0  0  0
  -31.8563  -14.9375   20.1880 O   0  0  0  0  0  0  0  0  0  0  0  0
  -21.6144   -7.0140   21.6994 O   0  0  0  0  0  0  0  0  0  0  0  0
  -29.9275  -24.0991   24.9867 O   0  0  0  0  0  0  0  0  0  1  0  0
  -18.6266   -6.8460   26.3307 F   0  0  0  0  0  0  0  0  0  0  0  0
  -28.5492  -17.4484   23.0055 F   0  0  0  0  0  0  0  0  0  0  0  0
  -22.0661   -5.0665   23.6088 F   0  0  0  0  0  0  0  0  0  0  0  0
  1  2  1  0  0  0  0
  1  5  2  0  0  0  0
  2  6  2  0  0  0  0
  3 10  2  0  0  0  0
  3 18  1  0  0  0  0
  4 11  1  0  0  0  0
  4 18  2  0  0  0  0
  5 20  1  0  0  0  0
  6 22  1  0  0  0  0
  7 12  2  0  0  0  0
  7 21  1  0  0  0  0
  8  9  2  0  0  0  0
  8 24  1  0  0  0  0
  9 25  1  0  0  0  0
 10 26  1  0  0  0  0
 11 26  2  0  0  0  0
 12 27  1  0  0  0  0
 13 14  2  0  0  0  0
 13 28  1  0  0  0  0
 14 29  1  0  0  0  0
 15 23  1  0  0  0  0
 15 27  2  0  0  0  0
 16 24  2  0  0  0  0
 16 30  1  0  0  0  0
 17 29  2  0  0  0  0
 17 31  1  0  0  0  0
 18 32  1  0  0  0  0
 19 32  1  0  0  0  0
 19 33  2  0  0  0  0
 19 35  1  0  0  0  0
 20 22  2  0  0  0  0
 20 40  1  0  0  0  0
 21 23  2  0  0  0  0
 21 41  1  0  0  0  0
 22 51  1  0  0  0  0
 23 42  1  0  0  0  0
 24 60  1  0  0  0  0
 25 30  2  0  0  0  0
 25 72  1  0  0  0  0
 26 82  1  0  0  0  0
 27 83  1  0  0  0  0
 28 31  2  0  0  0  0
 28 82  1  0  0  0  0
 29 84  1  0  0  0  0
 30 85  1  0  0  0  0
 31 86  1  0  0  0  0
 32 65  2  0  0  0  0
 33 66  1  0  0  0  0
 33 70  1  0  0  0  0
 34 43  1  0  0  0  0
 34 67  1  0  0  0  0
 34 76  2  0  0  0  0
 35 71  1  0  0  0  0
 35 77  2  0  0  0  0
 36 52  1  0  0  0  0
 36 73  1  0  0  0  0
 36 78  2  0  0  0  0
 37 62  1  0  0  0  0
 37 68  1  0  0  0  0
 37 79  2  0  0  0  0
 38 63  1  0  0  0  0
 38 74  1  0  0  0  0
 38 80  2  0  0  0  0
 39 69  1  0  0  0  0
 39 72  1  0  0  0  0
 39 81  2  0  0  0  0
 40 44  1  0  0  0  0
 41 52  1  0  0  0  0
 42 68  1  0  0  0  0
 43 53  1  0  0  0  0
 44 46  1  0  0  0  0
 45 47  1  0  0  0  0
 45 48  1  0  0  0  0
 46 51  1  0  0  0  0
 47 54  1  0  0  0  0
 48 69  1  0  0  0  0
 49 53  1  0  0  0  0
 49 67  1  0  0  0  0
 50 54  1  0  0  0  0
 50 69  1  0  0  0  0
 51 73  1  0  0  0  0
 52 68  1  0  0  0  0
 53 61  1  0  0  0  0
 54 66  1  0  0  0  0
 55 63  1  0  0  0  0
 56 64  1  0  0  0  0
 57 64  1  0  0  0  0
 58 64  1  0  0  0  0
 59 75  1  0  0  0  0
 60 67  1  0  0  0  0
 61 83  1  0  0  0  0
 62 64  1  0  0  0  0
 62 74  1  0  0  0  0
 63 75  1  0  0  0  0
 65 66  1  0  0  0  0
M  CHG  1  75   1
M  ISO  4  39 100  61 101  72 100  83 101
M  END
> <Batch ID>
0096

> <Smiles>
CNC(C)C(=O)NC(C(=O)N1Cc2cc([101O:1][101CH2:1]C3CC(=O)N(Cc4ccc([100NH:0][100C:0](=O)N5CCCC(n6nc(-c7ccc(Oc8ccc(F)cc8F)cc7)c(C(N)=O)c6N)C5)c(F)c4)C3)ccc2CC1C(=O)NC1CCCc2ccccc21)C(C)(C)C

> <Shape>
0.223

> <Color>
0.192

> <Negative vol penalty>
0.000

$$$$

  -OEChem-04052300463D

 86 95  0     1  0  0  0  0  0999 V2000
  -22.9887  -28.0921   14.7490 C   0  0  0  0  0  0  0  0  0  0  0  0
  -24.2173  -27.7301   15.2920 C   0  0  0  0  0  0  0  0  0  0  0  0
  -23.0213  -10.3614   21.9676 C   0  0  0  0  0  0  0  0  0  0  0  0
  -24.7406  -10.6545   23.6394 C   0  0  0  0  0  0  0  0  0  0  0  0
  -22.2560  -29.1331   15.3178 C   0  0  0  0  0  0  0  0  0  0  0  0
  -24.7146  -28.4097   16.4034 C   0  0  0  0  0  0  0  0  0  0  0  0
  -26.6024  -25.2810   19.9093 C   0  0  0  0  0  0  0  0  0  0  0  0
  -32.4765  -18.8522   20.6446 C   0  0  0  0  0  0  0  0  0  0  0  0
  -31.9169  -17.6206   20.3048 C   0  0  0  0  0  0  0  0  0  0  0  0
  -22.3907   -9.4201   22.7811 C   0  0  0  0  0  0  0  0  0  0  0  0
  -24.1100   -9.7132   24.4530 C   0  0  0  0  0  0  0  0  0  0  0  0
  -27.8709  -24.7522   19.6742 C   0  0  0  0  0  0  0  0  0  0  0  0
  -22.7878   -6.1622   23.5892 C   0  0  0  0  0  0  0  0  0  0  0  0
  -22.3441   -4.9830   22.9907 C   0  0  0  0  0  0  0  0  0  0  0  0
  -28.8250  -26.3961   21.1596 C   0  0  0  0  0  0  0  0  0  0  0  0
  -30.2638  -19.7769   20.9376 C   0  0  0  0  0  0  0  0  0  0  0  0
  -20.0804   -5.4932   23.6637 C   0  0  0  0  0  0  0  0  0  0  0  0
  -24.1963  -10.9786   22.3967 C   0  0  0  0  0  0  0  0  0  0  0  0
  -24.3117  -13.1638   21.0855 C   0  0  0  0  0  0  0  0  0  0  0  0
  -22.7401  -29.8195   16.4426 C   0  0  0  0  0  0  0  0  0  0  0  0
  -26.4368  -26.3800   20.7644 C   0  0  0  0  0  0  0  0  0  0  0  0
  -23.9884  -29.4618   16.9869 C   0  0  0  0  0  0  0  0  0  0  0  0
  -27.5531  -26.9353   21.4060 C   0  0  0  0  0  0  0  0  0  0  0  0
  -29.7041  -18.5453   20.5977 C   0  0  0  0  0  0  0  0  0  0  0  0
  -31.6500  -19.9304   20.9610 C   0  0  0  0  0  0  0  0  0  0  0  0
  -30.5307  -17.4671   20.2814 C   0  0  0  0  0  0  0  0  0  0  0  0
  -22.9350   -9.0960   24.0238 C   0  0  0  0  0  0  0  0  0  0  0  0
  -28.9827  -25.3116   20.2971 C   0  0  0  0  0  0  0  0  0  0  0  0
  -21.8778   -7.0069   24.2250 C   0  0  0  0  0  0  0  0  0  0  0  0
  -20.9904   -4.6485   23.0279 C   0  0  0  0  0  0  0  0  0  0  0  0
  -20.5242   -6.6724   24.2622 C   0  0  0  0  0  0  0  0  0  0  0  0
  -24.8485  -11.9506   21.5566 C   0  0  0  0  0  0  0  0  0  0  0  0
  -25.3202  -13.7171   20.3350 C   0  0  0  0  0  0  0  0  0  0  0  0
  -33.4848  -21.2756   21.9479 C   0  0  0  0  0  0  0  0  0  0  0  0
  -23.0172  -13.7391   21.3067 C   0  0  0  0  0  0  0  0  0  0  0  0
  -25.3570  -29.3494   20.4172 C   0  0  0  0  0  0  0  0  0  0  0  0
  -25.7222  -29.4433   23.6390 C   0  0  0  0  0  0  0  0  0  0  0  0
  -28.1581  -28.3099   26.0472 C   0  0  0  0  0  0  0  0  0  0  0  0
  -30.6769  -15.0465   19.5992 C   0  0  0  0  0  0  0  0  0  0  0  0
  -21.9344  -30.9692   16.9937 C   0  0  0  0  0  0  0  0  0  0  0  0
  -25.0587  -26.9218   21.0285 C   0  0  0  0  0  0  0  0  0  0  0  0
  -27.4265  -28.1031   22.3487 C   0  0  0  0  0  0  0  0  0  0  0  0
  -34.1432  -22.6416   21.9946 C   0  0  0  0  0  0  0  0  0  0  0  0
  -22.3578  -31.3916   18.3982 C   0  0  0  0  0  0  0  0  0  0  0  0
  -33.1775  -23.7949   22.1565 C   0  0  0  0  0  0  0  0  0  0  0  0
  -29.6917  -11.7391   18.7229 C   0  0  0  0  0  0  0  0  0  0  0  0
  -23.8762  -31.5079   18.4858 C   0  0  0  0  0  0  0  0  0  0  0  0
  -28.2997  -11.5991   19.3433 C   0  0  0  0  0  0  0  0  0  0  0  0
  -30.6267  -12.5620   19.6074 C   0  0  0  0  0  0  0  0  0  0  0  0
  -31.3739  -22.3999   21.1849 C   0  0  0  0  0  0  0  0  0  0  0  0
  -28.7155  -13.7368   20.6255 C   0  0  0  0  0  0  0  0  0  0  0  0
  -24.5499  -30.1588   18.2071 C   0  0  1  0  0  0  0  0  0  0  0  0
  -25.0683  -28.3671   21.5169 C   0  0  1  0  0  0  0  0  0  0  0  0
  -32.1333  -23.7194   21.0548 C   0  0  1  0  0  0  0  0  0  0  0  0
  -27.7191  -12.9705   19.7403 C   0  0  2  0  0  0  0  0  0  0  0  0
  -28.2162  -18.4086   20.5826 C   0  0  0  0  0  0  0  0  0  0  0  0
  -27.8968  -27.6934   28.4657 C   0  0  0  0  0  0  0  0  0  0  0  0
  -26.5133  -32.3430   24.1642 C   0  0  0  0  0  0  0  0  0  0  0  0
  -27.8334  -31.5522   26.1390 C   0  0  0  0  0  0  0  0  0  0  0  0
  -25.3629  -31.2130   26.0757 C   0  0  0  0  0  0  0  0  0  0  0  0
  -29.3539  -25.6374   25.6151 C   0  0  0  0  0  0  0  0  0  0  0  0
  -31.1748  -24.9064   21.1255 C   0  0  0  0  0  0  0  0  0  1  0  0
  -26.8446  -29.8161   24.5773 C   0  0  1  0  0  0  0  0  0  0  0  0
  -27.9938  -27.1732   27.0399 C   0  0  2  0  0  0  0  0  0  0  0  0
  -26.6437  -31.2207   25.2131 C   0  0  0  0  0  0  0  0  0  0  0  0
  -26.1008  -11.7447   21.1401 N   0  0  0  0  0  0  0  0  0  0  0  0
  -26.3592  -12.8359   20.3994 N   0  0  0  0  0  0  0  0  0  0  0  0
  -32.2310  -21.2075   21.3163 N   0  0  0  0  0  0  0  0  0  0  0  0
  -26.0588  -28.6013   22.5696 N   0  0  0  0  0  0  0  0  0  0  0  0
  -30.0123  -13.8493   19.9395 N   0  0  0  0  0  0  0  0  0  0  0  0
  -25.4107  -14.8665   19.6329 N   0  0  0  0  0  0  0  0  0  0  0  0
  -22.8417  -14.5850   22.4103 N   0  0  0  0  0  0  0  0  0  0  0  0
  -29.9816  -16.2076   19.9352 N   0  0  0  0  0  0  0  0  0  0  0  0
  -24.4592  -29.2993   19.3680 N   0  0  0  0  0  0  0  0  0  0  0  0
  -26.9440  -28.7302   25.5465 N   0  0  0  0  0  0  0  0  0  0  0  0
  -29.1542  -26.2417   26.9574 N   0  3  0  0  0  0  0  0  0  0  0  0
  -34.1090  -20.3153   22.4073 O   0  0  0  0  0  0  0  0  0  0  0  0
  -22.0407  -13.4969   20.5574 O   0  0  0  0  0  0  0  0  0  0  0  0
  -26.3220  -30.0985   20.5141 O   0  0  0  0  0  0  0  0  0  0  0  0
  -24.5872  -29.8773   23.8513 O   0  0  0  0  0  0  0  0  0  0  0  0
  -29.2535  -28.7806   25.7488 O   0  0  0  0  0  0  0  0  0  0  0  0
  -31.7691  -15.0418   19.0255 O   0  0  0  0  0  0  0  0  0  0  0  0
  -22.3198   -8.1777   24.8180 O   0  0  0  0  0  0  0  0  0  0  0  0
  -30.2220  -24.7979   20.0687 O   0  0  0  0  0  0  0  0  0  1  0  0
  -20.5643   -3.5169   22.4518 F   0  0  0  0  0  0  0  0  0  0  0  0
  -19.6451   -7.4805   24.8705 F   0  0  0  0  0  0  0  0  0  0  0  0
  1  2  1  0  0  0  0
  1  5  2  0  0  0  0
  2  6  2  0  0  0  0
  3 10  2  0  0  0  0
  3 18  1  0  0  0  0
  4 11  1  0  0  0  0
  4 18  2  0  0  0  0
  5 20  1  0  0  0  0
  6 22  1  0  0  0  0
  7 12  2  0  0  0  0
  7 21  1  0  0  0  0
  8  9  2  0  0  0  0
  8 25  1  0  0  0  0
  9 26  1  0  0  0  0
 10 27  1  0  0  0  0
 11 27  2  0  0  0  0
 12 28  1  0  0  0  0
 13 14  2  0  0  0  0
 13 29  1  0  0  0  0
 14 30  1  0  0  0  0
 15 23  1  0  0  0  0
 15 28  2  0  0  0  0
 16 24  1  0  0  0  0
 16 25  2  0  0  0  0
 17 30  2  0  0  0  0
 17 31  1  0  0  0  0
 18 32  1  0  0  0  0
 19 32  1  0  0  0  0
 19 33  2  0  0  0  0
 19 35  1  0  0  0  0
 20 22  2  0  0  0  0
 20 40  1  0  0  0  0
 21 23  2  0  0  0  0
 21 41  1  0  0  0  0
 22 52  1  0  0  0  0
 23 42  1  0  0  0  0
 24 26  2  0  0  0  0
 24 56  1  0  0  0  0
 25 68  1  0  0  0  0
 26 73  1  0  0  0  0
 27 83  1  0  0  0  0
 28 84  1  0  0  0  0
 29 31  2  0  0  0  0
 29 83  1  0  0  0  0
 30 85  1  0  0  0  0
 31 86  1  0  0  0  0
 32 66  2  0  0  0  0
 33 67  1  0  0  0  0
 33 71  1  0  0  0  0
 34 43  1  0  0  0  0
 34 68  1  0  0  0  0
 34 77  2  0  0  0  0
 35 72  1  0  0  0  0
 35 78  2  0  0  0  0
 36 53  1  0  0  0  0
 36 74  1  0  0  0  0
 36 79  2  0  0  0  0
 37 63  1  0  0  0  0
 37 69  1  0  0  0  0
 37 80  2  0  0  0  0
 38 64  1  0  0  0  0
 38 75  1  0  0  0  0
 38 81  2  0  0  0  0
 39 70  1  0  0  0  0
 39 73  1  0  0  0  0
 39 82  2  0  0  0  0
 40 44  1  0  0  0  0
 41 53  1  0  0  0  0
 42 69  1  0  0  0  0
 43 45  1  0  0  0  0
 44 47  1  0  0  0  0
 45 54  1  0  0  0  0
 46 48  1  0  0  0  0
 46 49  1  0  0  0  0
 47 52  1  0  0  0  0
 48 55  1  0  0  0  0
 49 70  1  0  0  0  0
 50 54  1  0  0  0  0
 50 68  1  0  0  0  0
 51 55  1  0  0  0  0
 51 70  1  0  0  0  0
 52 74  1  0  0  0  0
 53 69  1  0  0  0  0
 54 62  1  0  0  0  0
 55 67  1  0  0  0  0
 57 64  1  0  0  0  0
 58 65  1  0  0  0  0
 59 65  1  0  0  0  0
 60 65  1  0  0  0  0
 61 76  1  0  0  0  0
 62 84  1  0  0  0  0
 63 65  1  0  0  0  0
 63 75  1  0  0  0  0
 64 76  1  0  0  0  0
 66 67  1  0  0  0  0
M  CHG  1  76   1
M  ISO  4  39 100  62 101  73 100  84 101
M  END
> <Batch ID>
0096

> <Smiles>
CNC(C)C(=O)NC(C(=O)N1Cc2cc([101O:1][101CH2:1]C3CCC(=O)N(c4ccc([100NH:0][100C:0](=O)N5CCCC(n6nc(-c7ccc(Oc8ccc(F)cc8F)cc7)c(C(N)=O)c6N)C5)c(C)c4)C3)ccc2CC1C(=O)NC1CCCc2ccccc21)C(C)(C)C

> <Shape>
0.255

> <Color>
0.128

> <Negative vol penalty>
0.000

$$$$

  -OEChem-04052300463D

 81 89  0     1  0  0  0  0  0999 V2000
  -21.8815  -27.8568   23.4168 C   0  0  0  0  0  0  0  0  0  0  0  0
  -22.4295  -26.6249   23.0738 C   0  0  0  0  0  0  0  0  0  0  0  0
  -26.5230  -18.4562   15.3889 C   0  0  0  0  0  0  0  0  0  0  0  0
  -23.9291  -18.0992   20.6556 C   0  0  0  0  0  0  0  0  0  0  0  0
  -25.5602  -18.1917   22.4355 C   0  0  0  0  0  0  0  0  0  0  0  0
  -27.2704  -18.0188   16.4824 C   0  0  0  0  0  0  0  0  0  0  0  0
  -22.4307  -29.0304   22.9022 C   0  0  0  0  0  0  0  0  0  0  0  0
  -23.5264  -26.5659   22.2149 C   0  0  0  0  0  0  0  0  0  0  0  0
  -28.1397  -22.5426   22.4060 C   0  0  0  0  0  0  0  0  0  0  0  0
  -26.2453  -19.8141   15.2322 C   0  0  0  0  0  0  0  0  0  0  0  0
  -23.5342  -19.4043   20.9497 C   0  0  0  0  0  0  0  0  0  0  0  0
  -25.1654  -19.4968   22.7295 C   0  0  0  0  0  0  0  0  0  0  0  0
  -28.3925  -21.3709   21.6939 C   0  0  0  0  0  0  0  0  0  0  0  0
  -22.3450  -22.8392   20.9975 C   0  0  0  0  0  0  0  0  0  0  0  0
  -22.1651  -23.7185   19.9297 C   0  0  0  0  0  0  0  0  0  0  0  0
  -27.4621  -20.2974   17.2626 C   0  0  0  0  0  0  0  0  0  0  0  0
  -29.7781  -22.6109   20.1571 C   0  0  0  0  0  0  0  0  0  0  0  0
  -24.4768  -23.4194   19.2942 C   0  0  0  0  0  0  0  0  0  0  0  0
  -24.9421  -17.4929   21.3986 C   0  0  0  0  0  0  0  0  0  0  0  0
  -27.7399  -18.9394   17.4193 C   0  0  0  0  0  0  0  0  0  0  0  0
  -24.5500  -14.9867   21.1282 C   0  0  0  0  0  0  0  0  0  0  0  0
  -23.5409  -28.9863   22.0442 C   0  0  0  0  0  0  0  0  0  0  0  0
  -28.6963  -23.7613   21.9919 C   0  0  0  0  0  0  0  0  0  0  0  0
  -24.0902  -27.7400   21.6872 C   0  0  0  0  0  0  0  0  0  0  0  0
  -29.5328  -23.7962   20.8671 C   0  0  0  0  0  0  0  0  0  0  0  0
  -26.7147  -20.7347   16.1691 C   0  0  0  0  0  0  0  0  0  0  0  0
  -24.1523  -20.1031   21.9866 C   0  0  0  0  0  0  0  0  0  0  0  0
  -29.2094  -21.4054   20.5677 C   0  0  0  0  0  0  0  0  0  0  0  0
  -23.5907  -22.2500   21.2136 C   0  0  0  0  0  0  0  0  0  0  0  0
  -23.2310  -24.0086   19.0781 C   0  0  0  0  0  0  0  0  0  0  0  0
  -24.6566  -22.5401   20.3620 C   0  0  0  0  0  0  0  0  0  0  0  0
  -25.3501  -16.1446   21.0957 C   0  0  0  0  0  0  0  0  0  0  0  0
  -25.3998  -13.9718   20.7620 C   0  0  0  0  0  0  0  0  0  0  0  0
  -28.5364  -18.4737   18.5843 C   0  0  0  0  0  0  0  0  0  0  0  0
  -23.1627  -14.8417   21.4598 C   0  0  0  0  0  0  0  0  0  0  0  0
  -27.5198  -26.5451   21.0071 C   0  0  0  0  0  0  0  0  0  0  0  0
  -30.6329  -27.4516   21.1039 C   0  0  0  0  0  0  0  0  0  0  0  0
  -33.9202  -26.5401   21.0075 C   0  0  0  0  0  0  0  0  0  0  0  0
  -30.0045  -16.9420   19.5005 C   0  0  0  0  0  0  0  0  0  0  0  0
  -24.0706  -30.2788   21.4754 C   0  0  0  0  0  0  0  0  0  0  0  0
  -28.4355  -25.0115   22.7863 C   0  0  0  0  0  0  0  0  0  0  0  0
  -30.1711  -25.0754   20.3929 C   0  0  0  0  0  0  0  0  0  0  0  0
  -25.4657  -30.1511   20.8692 C   0  0  0  0  0  0  0  0  0  0  0  0
  -29.4812  -14.3546   22.0524 C   0  0  0  0  0  0  0  0  0  0  0  0
  -25.5485  -28.9181   19.9751 C   0  0  0  0  0  0  0  0  0  0  0  0
  -28.6629  -13.2984   21.3165 C   0  0  0  0  0  0  0  0  0  0  0  0
  -30.4160  -15.0885   21.1010 C   0  0  0  0  0  0  0  0  0  0  0  0
  -28.8292  -14.7198   19.2127 C   0  0  0  0  0  0  0  0  0  0  0  0
  -25.2955  -27.6364   20.7781 C   0  0  1  0  0  0  0  0  0  0  0  0
  -28.6392  -26.2879   21.9759 C   0  0  1  0  0  0  0  0  0  0  0  0
  -27.9024  -13.8776   20.1116 C   0  0  2  0  0  0  0  0  0  0  0  0
  -36.2352  -27.5067   21.0711 C   0  0  0  0  0  0  0  0  0  0  0  0
  -30.3238  -28.3758   18.2125 C   0  0  0  0  0  0  0  0  0  0  0  0
  -32.8207  -28.4323   18.0369 C   0  0  0  0  0  0  0  0  0  0  0  0
  -31.6526  -29.9187   19.6644 C   0  0  0  0  0  0  0  0  0  0  0  0
  -25.2512  -22.5891   15.3659 C   0  0  0  0  0  0  0  0  0  0  0  0
  -34.5986  -25.0531   23.4748 C   0  0  0  0  0  0  0  0  0  0  0  0
  -28.4459  -19.2732   19.8754 C   0  0  0  0  0  0  0  0  0  1  0  0
  -31.7819  -27.4361   20.1248 C   0  0  1  0  0  0  0  0  0  0  0  0
  -35.0966  -26.9179   21.8894 C   0  0  2  0  0  0  0  0  0  0  0  0
  -31.6313  -28.5168   19.0172 C   0  0  0  0  0  0  0  0  0  0  0  0
  -26.6113  -15.8900   20.7372 N   0  0  0  0  0  0  0  0  0  0  0  0
  -29.2565  -17.3998   18.4385 N   0  0  0  0  0  0  0  0  0  0  0  0
  -26.6102  -14.5604   20.5412 N   0  0  0  0  0  0  0  0  0  0  0  0
  -29.8807  -26.2723   21.1995 N   0  0  0  0  0  0  0  0  0  0  0  0
  -29.7010  -15.6428   19.9527 N   0  0  0  0  0  0  0  0  0  0  0  0
  -25.2224  -12.6421   20.6105 N   0  0  0  0  0  0  0  0  0  0  0  0
  -22.8169  -14.5995   22.7963 N   0  0  0  0  0  0  0  0  0  0  0  0
  -26.4337  -22.1075   16.0105 N   0  0  0  0  0  0  0  0  0  0  0  0
  -26.4733  -27.2750   21.5375 N   0  0  0  0  0  0  0  0  0  0  0  0
  -32.9981  -27.5615   20.9207 N   0  0  0  0  0  0  0  0  0  0  0  0
  -35.6082  -25.7192   22.6121 N   0  3  0  0  0  0  0  0  0  0  0  0
  -22.2575  -14.9080   20.5939 O   0  0  0  0  0  0  0  0  0  0  0  0
  -27.6004  -26.1146   19.8626 O   0  0  0  0  0  0  0  0  0  0  0  0
  -30.4154  -28.4702   21.7649 O   0  0  0  0  0  0  0  0  0  0  0  0
  -33.8303  -25.4494   20.4482 O   0  0  0  0  0  0  0  0  0  0  0  0
  -30.8610  -17.6449   20.0390 O   0  0  0  0  0  0  0  0  0  0  0  0
  -23.7674  -21.3767   22.2737 O   0  0  0  0  0  0  0  0  0  0  0  0
  -29.4573  -20.2633   19.8705 O   0  0  0  0  0  0  0  0  0  1  0  0
  -23.0578  -24.8518   18.0518 F   0  0  0  0  0  0  0  0  0  0  0  0
  -25.8554  -21.9763   20.5639 F   0  0  0  0  0  0  0  0  0  0  0  0
  1  2  1  0  0  0  0
  1  7  2  0  0  0  0
  2  8  2  0  0  0  0
  3  6  1  0  0  0  0
  3 10  2  0  0  0  0
  4 11  2  0  0  0  0
  4 19  1  0  0  0  0
  5 12  1  0  0  0  0
  5 19  2  0  0  0  0
  6 20  2  0  0  0  0
  7 22  1  0  0  0  0
  8 24  1  0  0  0  0
  9 13  2  0  0  0  0
  9 23  1  0  0  0  0
 10 26  1  0  0  0  0
 11 27  1  0  0  0  0
 12 27  2  0  0  0  0
 13 28  1  0  0  0  0
 14 15  2  0  0  0  0
 14 29  1  0  0  0  0
 15 30  1  0  0  0  0
 16 20  1  0  0  0  0
 16 26  2  0  0  0  0
 17 25  1  0  0  0  0
 17 28  2  0  0  0  0
 18 30  2  0  0  0  0
 18 31  1  0  0  0  0
 19 32  1  0  0  0  0
 20 34  1  0  0  0  0
 21 32  1  0  0  0  0
 21 33  2  0  0  0  0
 21 35  1  0  0  0  0
 22 24  2  0  0  0  0
 22 40  1  0  0  0  0
 23 25  2  0  0  0  0
 23 41  1  0  0  0  0
 24 49  1  0  0  0  0
 25 42  1  0  0  0  0
 26 69  1  0  0  0  0
 27 78  1  0  0  0  0
 28 79  1  0  0  0  0
 29 31  2  0  0  0  0
 29 78  1  0  0  0  0
 30 80  1  0  0  0  0
 31 81  1  0  0  0  0
 32 62  2  0  0  0  0
 33 64  1  0  0  0  0
 33 67  1  0  0  0  0
 34 58  1  0  0  0  0
 34 63  2  0  0  0  0
 35 68  1  0  0  0  0
 35 73  2  0  0  0  0
 36 50  1  0  0  0  0
 36 70  1  0  0  0  0
 36 74  2  0  0  0  0
 37 59  1  0  0  0  0
 37 65  1  0  0  0  0
 37 75  2  0  0  0  0
 38 60  1  0  0  0  0
 38 71  1  0  0  0  0
 38 76  2  0  0  0  0
 39 63  1  0  0  0  0
 39 66  1  0  0  0  0
 39 77  2  0  0  0  0
 40 43  1  0  0  0  0
 41 50  1  0  0  0  0
 42 65  1  0  0  0  0
 43 45  1  0  0  0  0
 44 46  1  0  0  0  0
 44 47  1  0  0  0  0
 45 49  1  0  0  0  0
 46 51  1  0  0  0  0
 47 66  1  0  0  0  0
 48 51  1  0  0  0  0
 48 66  1  0  0  0  0
 49 70  1  0  0  0  0
 50 65  1  0  0  0  0
 51 64  1  0  0  0  0
 52 60  1  0  0  0  0
 53 61  1  0  0  0  0
 54 61  1  0  0  0  0
 55 61  1  0  0  0  0
 56 69  1  0  0  0  0
 57 72  1  0  0  0  0
 58 79  1  0  0  0  0
 59 61  1  0  0  0  0
 59 71  1  0  0  0  0
 60 72  1  0  0  0  0
 62 64  1  0  0  0  0
M  CHG  1  72   1
M  ISO  4  39 100  58 101  63 100  79 101
M  END
> <Batch ID>
0096

> <Smiles>
CNc1cccc(C([100NH:0][100C:0](=O)N2CCCC(n3nc(-c4ccc(Oc5ccc(F)cc5F)cc4)c(C(N)=O)c3N)C2)=[101CH:1][101O:1]c2ccc3c(c2)CN(C(=O)C(NC(=O)C(C)NC)C(C)(C)C)C(C(=O)NC2CCCc4ccccc42)C3)c1

> <Shape>
0.201

> <Color>
0.070

> <Negative vol penalty>
0.000

$$$$

  -OEChem-04052300463D

 86 95  0     1  0  0  0  0  0999 V2000
  -27.0126  -34.6371   24.7227 C   0  0  0  0  0  0  0  0  0  0  0  0
  -27.3715  -33.3712   24.2709 C   0  0  0  0  0  0  0  0  0  0  0  0
  -21.1804  -11.4890   20.7576 C   0  0  0  0  0  0  0  0  0  0  0  0
  -23.5605  -11.8543   20.9546 C   0  0  0  0  0  0  0  0  0  0  0  0
  -25.7048  -34.8825   25.1390 C   0  0  0  0  0  0  0  0  0  0  0  0
  -26.4231  -32.3497   24.2362 C   0  0  0  0  0  0  0  0  0  0  0  0
  -26.5763  -29.7022   19.9220 C   0  0  0  0  0  0  0  0  0  0  0  0
  -21.4139  -10.1621   20.3966 C   0  0  0  0  0  0  0  0  0  0  0  0
  -23.7940  -10.5273   20.5936 C   0  0  0  0  0  0  0  0  0  0  0  0
  -27.5908  -28.7548   19.7920 C   0  0  0  0  0  0  0  0  0  0  0  0
  -22.1861   -7.2578   21.9464 C   0  0  0  0  0  0  0  0  0  0  0  0
  -21.4021   -6.2744   22.5496 C   0  0  0  0  0  0  0  0  0  0  0  0
  -28.1920  -19.7064   20.1120 C   0  0  0  0  0  0  0  0  0  0  0  0
  -30.2603  -19.2172   21.2608 C   0  0  0  0  0  0  0  0  0  0  0  0
  -26.0289  -27.0111   20.3741 C   0  0  0  0  0  0  0  0  0  0  0  0
  -28.1971  -18.2023   22.0027 C   0  0  0  0  0  0  0  0  0  0  0  0
  -20.5849   -5.5952   20.3798 C   0  0  0  0  0  0  0  0  0  0  0  0
  -22.2537  -12.3351   21.0366 C   0  0  0  0  0  0  0  0  0  0  0  0
  -29.5691  -19.8816   20.2477 C   0  0  0  0  0  0  0  0  0  0  0  0
  -21.2809  -14.1697   22.5184 C   0  0  0  0  0  0  0  0  0  0  0  0
  -24.7374  -33.8660   25.1003 C   0  0  0  0  0  0  0  0  0  0  0  0
  -25.2808  -29.3117   20.2903 C   0  0  0  0  0  0  0  0  0  0  0  0
  -25.1014  -32.5813   24.6537 C   0  0  0  0  0  0  0  0  0  0  0  0
  -24.9991  -27.9551   20.5056 C   0  0  0  0  0  0  0  0  0  0  0  0
  -27.5060  -18.8668   20.9895 C   0  0  0  0  0  0  0  0  0  0  0  0
  -22.7207   -9.6812   20.3146 C   0  0  0  0  0  0  0  0  0  0  0  0
  -27.3179  -27.4094   20.0209 C   0  0  0  0  0  0  0  0  0  0  0  0
  -22.1694   -7.4101   20.5600 C   0  0  0  0  0  0  0  0  0  0  0  0
  -20.6016   -5.4430   21.7663 C   0  0  0  0  0  0  0  0  0  0  0  0
  -29.5742  -18.3775   22.1383 C   0  0  0  0  0  0  0  0  0  0  0  0
  -21.3688   -6.5787   19.7767 C   0  0  0  0  0  0  0  0  0  0  0  0
  -22.0132  -13.7061   21.4090 C   0  0  0  0  0  0  0  0  0  0  0  0
  -21.3480  -15.5385   22.4264 C   0  0  0  0  0  0  0  0  0  0  0  0
  -30.2929  -20.7693   19.3239 C   0  0  0  0  0  0  0  0  0  0  0  0
  -20.6010  -13.4293   23.5407 C   0  0  0  0  0  0  0  0  0  0  0  0
  -23.3625  -29.9372   22.7464 C   0  0  0  0  0  0  0  0  0  0  0  0
  -21.2174  -28.2427   21.0001 C   0  0  0  0  0  0  0  0  0  0  0  0
  -20.6544  -25.8934   18.5896 C   0  0  0  0  0  0  0  0  0  0  0  0
  -25.2704  -19.2728   19.9016 C   0  0  0  0  0  0  0  0  0  0  0  0
  -23.3483  -34.1663   25.6052 C   0  0  0  0  0  0  0  0  0  0  0  0
  -24.1911  -30.3428   20.4002 C   0  0  0  0  0  0  0  0  0  0  0  0
  -23.6200  -27.4818   20.8834 C   0  0  0  0  0  0  0  0  0  0  0  0
  -22.3099  -33.1296   25.1842 C   0  0  0  0  0  0  0  0  0  0  0  0
  -21.7845  -19.0584   19.2087 C   0  0  0  0  0  0  0  0  0  0  0  0
  -22.8394  -31.7182   25.4178 C   0  0  0  0  0  0  0  0  0  0  0  0
  -21.3797  -17.7064   19.8006 C   0  0  0  0  0  0  0  0  0  0  0  0
  -29.7464  -24.3266   18.5182 C   0  0  0  0  0  0  0  0  0  0  0  0
  -23.1787  -19.0103   18.5859 C   0  0  0  0  0  0  0  0  0  0  0  0
  -30.5789  -23.0581   18.4134 C   0  0  0  0  0  0  0  0  0  0  0  0
  -28.9004  -22.7589   20.1104 C   0  0  0  0  0  0  0  0  0  0  0  0
  -23.8306  -17.1473   20.0602 C   0  0  0  0  0  0  0  0  0  0  0  0
  -24.0948  -31.4539   24.5779 C   0  0  1  0  0  0  0  0  0  0  0  0
  -23.0300  -29.8933   21.2818 C   0  0  1  0  0  0  0  0  0  0  0  0
  -29.1827  -24.2505   19.9390 C   0  0  2  0  0  0  0  0  0  0  0  0
  -22.4600  -17.1636   20.7566 C   0  0  2  0  0  0  0  0  0  0  0  0
  -18.7965  -24.6917   17.4058 C   0  0  0  0  0  0  0  0  0  0  0  0
  -20.7839  -26.4930   23.4619 C   0  0  0  0  0  0  0  0  0  0  0  0
  -19.6911  -24.7978   21.9786 C   0  0  0  0  0  0  0  0  0  0  0  0
  -18.6959  -27.0731   22.2136 C   0  0  0  0  0  0  0  0  0  0  0  0
  -21.4778  -26.9705   15.9588 C   0  0  0  0  0  0  0  0  0  0  0  0
  -27.9567  -25.1219   20.1446 C   0  0  0  0  0  0  0  0  0  1  0  0
  -20.8352  -26.7859   20.8972 C   0  0  1  0  0  0  0  0  0  0  0  0
  -19.7336  -25.8892   17.3827 C   0  0  2  0  0  0  0  0  0  0  0  0
  -20.0281  -26.2963   22.1326 C   0  0  0  0  0  0  0  0  0  0  0  0
  -22.5088  -14.6997   20.6667 N   0  0  0  0  0  0  0  0  0  0  0  0
  -22.0872  -15.8013   21.3107 N   0  0  0  0  0  0  0  0  0  0  0  0
  -29.9131  -22.1021   19.2856 N   0  0  0  0  0  0  0  0  0  0  0  0
  -22.5899  -28.5287   20.9845 N   0  0  0  0  0  0  0  0  0  0  0  0
  -24.1501  -18.4901   19.5506 N   0  0  0  0  0  0  0  0  0  0  0  0
  -20.8461  -16.5308   23.1917 N   0  0  0  0  0  0  0  0  0  0  0  0
  -20.6321  -12.0292   23.4844 N   0  0  0  0  0  0  0  0  0  0  0  0
  -26.1070  -18.6885   20.8519 N   0  0  0  0  0  0  0  0  0  0  0  0
  -23.7352  -31.1875   23.2016 N   0  0  0  0  0  0  0  0  0  0  0  0
  -20.1329  -26.6368   19.6272 N   0  0  0  0  0  0  0  0  0  0  0  0
  -20.5298  -25.8386   16.1239 N   0  3  0  0  0  0  0  0  0  0  0  0
  -31.1954  -20.2718   18.6533 O   0  0  0  0  0  0  0  0  0  0  0  0
  -19.9703  -13.9926   24.4672 O   0  0  0  0  0  0  0  0  0  0  0  0
  -23.2851  -28.9128   23.4145 O   0  0  0  0  0  0  0  0  0  0  0  0
  -20.3306  -29.0961   21.0838 O   0  0  0  0  0  0  0  0  0  0  0  0
  -21.7271  -25.2939   18.6111 O   0  0  0  0  0  0  0  0  0  0  0  0
  -25.4581  -20.3915   19.4165 O   0  0  0  0  0  0  0  0  0  0  0  0
  -22.9489   -8.3864   19.9626 O   0  0  0  0  0  0  0  0  0  0  0  0
  -28.3066  -26.4827   19.8953 O   0  0  0  0  0  0  0  0  0  1  0  0
  -19.8500   -4.4976   22.3455 F   0  0  0  0  0  0  0  0  0  0  0  0
  -30.2373  -17.7417   23.1131 F   0  0  0  0  0  0  0  0  0  0  0  0
  -21.3495   -6.7194   18.4441 F   0  0  0  0  0  0  0  0  0  0  0  0
  1  2  1  0  0  0  0
  1  5  2  0  0  0  0
  2  6  2  0  0  0  0
  3  8  2  0  0  0  0
  3 18  1  0  0  0  0
  4  9  1  0  0  0  0
  4 18  2  0  0  0  0
  5 21  1  0  0  0  0
  6 23  1  0  0  0  0
  7 10  2  0  0  0  0
  7 22  1  0  0  0  0
  8 26  1  0  0  0  0
  9 26  2  0  0  0  0
 10 27  1  0  0  0  0
 11 12  2  0  0  0  0
 11 28  1  0  0  0  0
 12 29  1  0  0  0  0
 13 19  2  0  0  0  0
 13 25  1  0  0  0  0
 14 19  1  0  0  0  0
 14 30  2  0  0  0  0
 15 24  1  0  0  0  0
 15 27  2  0  0  0  0
 16 25  2  0  0  0  0
 16 30  1  0  0  0  0
 17 29  2  0  0  0  0
 17 31  1  0  0  0  0
 18 32  1  0  0  0  0
 19 34  1  0  0  0  0
 20 32  1  0  0  0  0
 20 33  2  0  0  0  0
 20 35  1  0  0  0  0
 21 23  2  0  0  0  0
 21 40  1  0  0  0  0
 22 24  2  0  0  0  0
 22 41  1  0  0  0  0
 23 52  1  0  0  0  0
 24 42  1  0  0  0  0
 25 72  1  0  0  0  0
 26 82  1  0  0  0  0
 27 83  1  0  0  0  0
 28 31  2  0  0  0  0
 28 82  1  0  0  0  0
 29 84  1  0  0  0  0
 30 85  1  0  0  0  0
 31 86  1  0  0  0  0
 32 65  2  0  0  0  0
 33 66  1  0  0  0  0
 33 70  1  0  0  0  0
 34 67  1  0  0  0  0
 34 76  2  0  0  0  0
 35 71  1  0  0  0  0
 35 77  2  0  0  0  0
 36 53  1  0  0  0  0
 36 73  1  0  0  0  0
 36 78  2  0  0  0  0
 37 62  1  0  0  0  0
 37 68  1  0  0  0  0
 37 79  2  0  0  0  0
 38 63  1  0  0  0  0
 38 74  1  0  0  0  0
 38 80  2  0  0  0  0
 39 69  1  0  0  0  0
 39 72  1  0  0  0  0
 39 81  2  0  0  0  0
 40 43  1  0  0  0  0
 41 53  1  0  0  0  0
 42 68  1  0  0  0  0
 43 45  1  0  0  0  0
 44 46  1  0  0  0  0
 44 48  1  0  0  0  0
 45 52  1  0  0  0  0
 46 55  1  0  0  0  0
 47 49  1  0  0  0  0
 47 54  1  0  0  0  0
 48 69  1  0  0  0  0
 49 67  1  0  0  0  0
 50 54  1  0  0  0  0
 50 67  1  0  0  0  0
 51 55  1  0  0  0  0
 51 69  1  0  0  0  0
 52 73  1  0  0  0  0
 53 68  1  0  0  0  0
 54 61  1  0  0  0  0
 55 66  1  0  0  0  0
 56 63  1  0  0  0  0
 57 64  1  0  0  0  0
 58 64  1  0  0  0  0
 59 64  1  0  0  0  0
 60 75  1  0  0  0  0
 61 83  1  0  0  0  0
 62 64  1  0  0  0  0
 62 74  1  0  0  0  0
 63 75  1  0  0  0  0
 65 66  1  0  0  0  0
M  CHG  1  75   1
M  ISO  4  39 100  61 101  72 100  83 101
M  END
> <Batch ID>
0096

> <Smiles>
CNC(C)C(=O)NC(C(=O)N1Cc2cc([101O:1][101CH2:1]C3CCN(C(=O)c4cc(F)cc([100NH:0][100C:0](=O)N5CCCC(n6nc(-c7ccc(Oc8ccc(F)cc8F)cc7)c(C(N)=O)c6N)C5)c4)C3)ccc2CC1C(=O)NC1CCCc2ccccc21)C(C)(C)C

> <Shape>
0.278

> <Color>
0.076

> <Negative vol penalty>
0.000

$$$$

  -OEChem-04052300463D

 86 95  0     1  0  0  0  0  0999 V2000
  -28.1716  -16.7648   16.9979 C   0  0  0  0  0  0  0  0  0  0  0  0
  -28.9731  -15.9402   17.3440 C   0  0  0  0  0  0  0  0  0  0  0  0
  -20.2737  -32.4620   21.0379 C   0  0  0  0  0  0  0  0  0  0  0  0
  -20.6381  -31.4413   20.1656 C   0  0  0  0  0  0  0  0  0  0  0  0
  -27.1175  -18.9542   17.2759 C   0  0  0  0  0  0  0  0  0  0  0  0
  -26.3884  -17.4962   15.4927 C   0  0  0  0  0  0  0  0  0  0  0  0
  -22.7935  -10.3477   20.0510 C   0  0  0  0  0  0  0  0  0  0  0  0
  -24.2267   -9.5300   21.8158 C   0  0  0  0  0  0  0  0  0  0  0  0
  -21.2551  -33.2612   21.6226 C   0  0  0  0  0  0  0  0  0  0  0  0
  -21.9842  -31.2199   19.8768 C   0  0  0  0  0  0  0  0  0  0  0  0
  -23.2149  -26.3091   19.9977 C   0  0  0  0  0  0  0  0  0  0  0  0
  -26.1884  -19.9129   16.8719 C   0  0  0  0  0  0  0  0  0  0  0  0
  -25.4593  -18.4549   15.0888 C   0  0  0  0  0  0  0  0  0  0  0  0
  -22.0244   -9.1874   20.1380 C   0  0  0  0  0  0  0  0  0  0  0  0
  -23.4575   -8.3697   21.9028 C   0  0  0  0  0  0  0  0  0  0  0  0
  -22.8583  -25.5360   18.8937 C   0  0  0  0  0  0  0  0  0  0  0  0
  -20.5056   -7.4357   23.2572 C   0  0  0  0  0  0  0  0  0  0  0  0
  -20.1542   -6.9869   24.5303 C   0  0  0  0  0  0  0  0  0  0  0  0
  -25.1148  -25.7009   18.0568 C   0  0  0  0  0  0  0  0  0  0  0  0
  -21.3057   -4.9042   24.1140 C   0  0  0  0  0  0  0  0  0  0  0  0
  -27.2176  -17.7459   16.5863 C   0  0  0  0  0  0  0  0  0  0  0  0
  -23.8947  -10.5191   20.8899 C   0  0  0  0  0  0  0  0  0  0  0  0
  -24.2566  -13.0419   20.9981 C   0  0  0  0  0  0  0  0  0  0  0  0
  -22.6145  -33.0433   21.3483 C   0  0  0  0  0  0  0  0  0  0  0  0
  -24.5236  -26.7939   20.1343 C   0  0  0  0  0  0  0  0  0  0  0  0
  -22.9846  -32.0178   20.4573 C   0  0  0  0  0  0  0  0  0  0  0  0
  -25.4861  -26.4779   19.1648 C   0  0  0  0  0  0  0  0  0  0  0  0
  -25.3593  -19.6633   15.7784 C   0  0  0  0  0  0  0  0  0  0  0  0
  -22.3563   -8.1984   21.0639 C   0  0  0  0  0  0  0  0  0  0  0  0
  -23.8075  -25.2342   17.9216 C   0  0  0  0  0  0  0  0  0  0  0  0
  -21.2571   -6.6187   22.4125 C   0  0  0  0  0  0  0  0  0  0  0  0
  -20.5542   -5.7212   24.9587 C   0  0  0  0  0  0  0  0  0  0  0  0
  -21.6572   -5.3530   22.8409 C   0  0  0  0  0  0  0  0  0  0  0  0
  -24.6900  -11.7172   20.8002 C   0  0  0  0  0  0  0  0  0  0  0  0
  -25.3820  -13.8044   20.8009 C   0  0  0  0  0  0  0  0  0  0  0  0
  -24.0132  -20.7652   14.0109 C   0  0  0  0  0  0  0  0  0  0  0  0
  -29.9383  -14.9471   17.7607 C   0  0  0  0  0  0  0  0  0  0  0  0
  -22.9535  -13.5389   21.3305 C   0  0  0  0  0  0  0  0  0  0  0  0
  -25.8424  -29.6827   20.2740 C   0  0  0  0  0  0  0  0  0  0  0  0
  -28.5407  -27.9935   20.8970 C   0  0  0  0  0  0  0  0  0  0  0  0
  -30.0988  -24.9762   19.6783 C   0  0  0  0  0  0  0  0  0  0  0  0
  -23.6366  -33.9634   21.9674 C   0  0  0  0  0  0  0  0  0  0  0  0
  -24.8990  -27.6042   21.3446 C   0  0  0  0  0  0  0  0  0  0  0  0
  -26.9097  -26.9571   19.2750 C   0  0  0  0  0  0  0  0  0  0  0  0
  -22.7863  -21.6096   13.7226 C   0  0  0  0  0  0  0  0  0  0  0  0
  -25.0626  -33.4228   21.9005 C   0  0  0  0  0  0  0  0  0  0  0  0
  -22.6302  -22.8131   14.6260 C   0  0  0  0  0  0  0  0  0  0  0  0
  -30.2351  -12.4796   20.3614 C   0  0  0  0  0  0  0  0  0  0  0  0
  -25.3675  -32.8927   20.5031 C   0  0  0  0  0  0  0  0  0  0  0  0
  -28.7820  -12.1433   20.6947 C   0  0  0  0  0  0  0  0  0  0  0  0
  -30.4110  -12.7882   18.8780 C   0  0  0  0  0  0  0  0  0  0  0  0
  -24.0005  -21.6761   16.3503 C   0  0  0  0  0  0  0  0  0  0  0  0
  -28.0540  -13.5408   18.7094 C   0  0  0  0  0  0  0  0  0  0  0  0
  -24.4358  -31.7306   20.1384 C   0  0  1  0  0  0  0  0  0  0  0  0
  -26.1310  -28.4759   21.1214 C   0  0  1  0  0  0  0  0  0  0  0  0
  -22.6565  -22.3479   16.0726 C   0  0  1  0  0  0  0  0  0  0  0  0
  -27.8325  -13.2507   20.2042 C   0  0  1  0  0  0  0  0  0  0  0  0
  -31.6680  -23.3783   20.8106 C   0  0  0  0  0  0  0  0  0  0  0  0
  -30.7298  -29.6787   19.6016 C   0  0  0  0  0  0  0  0  0  0  0  0
  -32.0133  -27.5689   19.1897 C   0  0  0  0  0  0  0  0  0  0  0  0
  -31.4944  -28.2752   21.5252 C   0  0  0  0  0  0  0  0  0  0  0  0
  -28.3347  -22.6664   19.1198 C   0  0  0  0  0  0  0  0  0  0  0  0
  -22.4262  -23.5165   17.0287 C   0  0  0  0  0  0  0  0  0  1  0  0
  -29.6380  -27.3840   20.0583 C   0  0  1  0  0  0  0  0  0  0  0  0
  -30.2254  -23.6563   20.4176 C   0  0  2  0  0  0  0  0  0  0  0  0
  -30.9424  -28.2298   20.0837 C   0  0  0  0  0  0  0  0  0  0  0  0
  -25.9892  -11.6391   20.5001 N   0  0  0  0  0  0  0  0  0  0  0  0
  -26.3819  -12.9243   20.5080 N   0  0  0  0  0  0  0  0  0  0  0  0
  -24.3955  -20.6585   15.3592 N   0  0  0  0  0  0  0  0  0  0  0  0
  -29.4708  -13.8186   18.4373 N   0  0  0  0  0  0  0  0  0  0  0  0
  -27.2262  -27.7513   20.4735 N   0  0  0  0  0  0  0  0  0  0  0  0
  -25.6038  -15.1350   20.8512 N   0  0  0  0  0  0  0  0  0  0  0  0
  -22.6175  -13.6801   22.6838 N   0  0  0  0  0  0  0  0  0  0  0  0
  -24.8667  -30.5132   20.7916 N   0  0  0  0  0  0  0  0  0  0  0  0
  -29.8039  -26.0153   20.5354 N   0  0  0  0  0  0  0  0  0  0  0  0
  -29.7473  -22.5348   19.5606 N   0  3  0  0  0  0  0  0  0  0  0  0
  -24.5538  -20.1863   13.0647 O   0  0  0  0  0  0  0  0  0  0  0  0
  -31.1136  -15.1698   17.4869 O   0  0  0  0  0  0  0  0  0  0  0  0
  -22.1061  -13.8329   20.4536 O   0  0  0  0  0  0  0  0  0  0  0  0
  -26.4602  -29.8489   19.2288 O   0  0  0  0  0  0  0  0  0  0  0  0
  -28.8386  -28.6540   21.8954 O   0  0  0  0  0  0  0  0  0  0  0  0
  -30.2504  -25.0761   18.4628 O   0  0  0  0  0  0  0  0  0  0  0  0
  -21.6059   -7.0661   21.1492 O   0  0  0  0  0  0  0  0  0  0  0  0
  -23.4619  -24.4803   16.8426 O   0  0  0  0  0  0  0  0  0  1  0  0
  -20.2179   -5.2910   26.1818 F   0  0  0  0  0  0  0  0  0  0  0  0
  -22.3802   -4.5641   22.0343 F   0  0  0  0  0  0  0  0  0  0  0  0
  1  2  3  0  0  0  0
  1 21  1  0  0  0  0
  2 37  1  0  0  0  0
  3  4  1  0  0  0  0
  3  9  2  0  0  0  0
  4 10  2  0  0  0  0
  5 12  2  0  0  0  0
  5 21  1  0  0  0  0
  6 13  1  0  0  0  0
  6 21  2  0  0  0  0
  7 14  2  0  0  0  0
  7 22  1  0  0  0  0
  8 15  1  0  0  0  0
  8 22  2  0  0  0  0
  9 24  1  0  0  0  0
 10 26  1  0  0  0  0
 11 16  2  0  0  0  0
 11 25  1  0  0  0  0
 12 28  1  0  0  0  0
 13 28  2  0  0  0  0
 14 29  1  0  0  0  0
 15 29  2  0  0  0  0
 16 30  1  0  0  0  0
 17 18  2  0  0  0  0
 17 31  1  0  0  0  0
 18 32  1  0  0  0  0
 19 27  1  0  0  0  0
 19 30  2  0  0  0  0
 20 32  2  0  0  0  0
 20 33  1  0  0  0  0
 22 34  1  0  0  0  0
 23 34  1  0  0  0  0
 23 35  2  0  0  0  0
 23 38  1  0  0  0  0
 24 26  2  0  0  0  0
 24 42  1  0  0  0  0
 25 27  2  0  0  0  0
 25 43  1  0  0  0  0
 26 54  1  0  0  0  0
 27 44  1  0  0  0  0
 28 69  1  0  0  0  0
 29 83  1  0  0  0  0
 30 84  1  0  0  0  0
 31 33  2  0  0  0  0
 31 83  1  0  0  0  0
 32 85  1  0  0  0  0
 33 86  1  0  0  0  0
 34 67  2  0  0  0  0
 35 68  1  0  0  0  0
 35 72  1  0  0  0  0
 36 45  1  0  0  0  0
 36 69  1  0  0  0  0
 36 77  2  0  0  0  0
 37 70  1  0  0  0  0
 37 78  2  0  0  0  0
 38 73  1  0  0  0  0
 38 79  2  0  0  0  0
 39 55  1  0  0  0  0
 39 74  1  0  0  0  0
 39 80  2  0  0  0  0
 40 64  1  0  0  0  0
 40 71  1  0  0  0  0
 40 81  2  0  0  0  0
 41 65  1  0  0  0  0
 41 75  1  0  0  0  0
 41 82  2  0  0  0  0
 42 46  1  0  0  0  0
 43 55  1  0  0  0  0
 44 71  1  0  0  0  0
 45 47  1  0  0  0  0
 46 49  1  0  0  0  0
 47 56  1  0  0  0  0
 48 50  1  0  0  0  0
 48 51  1  0  0  0  0
 49 54  1  0  0  0  0
 50 57  1  0  0  0  0
 51 70  1  0  0  0  0
 52 56  1  0  0  0  0
 52 69  1  0  0  0  0
 53 57  1  0  0  0  0
 53 70  1  0  0  0  0
 54 74  1  0  0  0  0
 55 71  1  0  0  0  0
 56 63  1  0  0  0  0
 57 68  1  0  0  0  0
 58 65  1  0  0  0  0
 59 66  1  0  0  0  0
 60 66  1  0  0  0  0
 61 66  1  0  0  0  0
 62 76  1  0  0  0  0
 63 84  1  0  0  0  0
 64 66  1  0  0  0  0
 64 75  1  0  0  0  0
 65 76  1  0  0  0  0
 67 68  1  0  0  0  0
M  CHG  1  76   1
M  ISO  4   2 100  37 100  63 101  84 101
M  END
> <Batch ID>
0096

> <Smiles>
CNC(C)C(=O)NC(C(=O)N1Cc2cc([101O:1][101CH2:1]C3CCC(=O)N(c4ccc(C#[100C:0][100C:0](=O)N5CCCC(n6nc(-c7ccc(Oc8ccc(F)cc8F)cc7)c(C(N)=O)c6N)C5)cc4)C3)ccc2CC1C(=O)NC1CCCc2ccccc21)C(C)(C)C

> <Shape>
0.280

> <Color>
0.170

> <Negative vol penalty>
0.000

$$$$

  -OEChem-04052300463D

 87 96  0     1  0  0  0  0  0999 V2000
  -19.8415  -10.1547   22.0332 C   0  0  0  0  0  0  0  0  0  0  0  0
  -20.4303  -11.3203   22.5130 C   0  0  0  0  0  0  0  0  0  0  0  0
  -25.9245  -27.0720   21.1322 C   0  0  0  0  0  0  0  0  0  0  0  0
  -25.4856  -27.8304   18.8807 C   0  0  0  0  0  0  0  0  0  0  0  0
  -20.6222   -9.1936   21.3924 C   0  0  0  0  0  0  0  0  0  0  0  0
  -21.8004  -11.5249   22.3533 C   0  0  0  0  0  0  0  0  0  0  0  0
  -22.8946  -16.2134   20.7832 C   0  0  0  0  0  0  0  0  0  0  0  0
  -21.4611  -24.5224   23.0809 C   0  0  0  0  0  0  0  0  0  0  0  0
  -21.4395  -22.7037   21.4907 C   0  0  0  0  0  0  0  0  0  0  0  0
  -20.2430  -24.9779   22.5765 C   0  0  0  0  0  0  0  0  0  0  0  0
  -20.2214  -23.1591   20.9863 C   0  0  0  0  0  0  0  0  0  0  0  0
  -26.6062  -28.2592   21.3993 C   0  0  0  0  0  0  0  0  0  0  0  0
  -26.1673  -29.0177   19.1478 C   0  0  0  0  0  0  0  0  0  0  0  0
  -22.8617  -17.2286   21.7382 C   0  0  0  0  0  0  0  0  0  0  0  0
  -25.8289  -31.4633   22.1494 C   0  0  0  0  0  0  0  0  0  0  0  0
  -25.5576  -32.1094   23.3554 C   0  0  0  0  0  0  0  0  0  0  0  0
  -25.2649  -17.1268   21.9206 C   0  0  0  0  0  0  0  0  0  0  0  0
  -27.8776  -31.8918   23.9939 C   0  0  0  0  0  0  0  0  0  0  0  0
  -25.3642  -26.8576   19.8729 C   0  0  0  0  0  0  0  0  0  0  0  0
  -25.1764  -24.3227   19.6563 C   0  0  0  0  0  0  0  0  0  0  0  0
  -22.0009   -9.3908   21.2161 C   0  0  0  0  0  0  0  0  0  0  0  0
  -24.1140  -15.6387   20.3971 C   0  0  0  0  0  0  0  0  0  0  0  0
  -22.6004  -10.5648   21.7107 C   0  0  0  0  0  0  0  0  0  0  0  0
  -25.3108  -16.1062   20.9586 C   0  0  0  0  0  0  0  0  0  0  0  0
  -22.0594  -23.3853   22.5379 C   0  0  0  0  0  0  0  0  0  0  0  0
  -19.6232  -24.2963   21.5292 C   0  0  0  0  0  0  0  0  0  0  0  0
  -26.7276  -29.2321   20.4071 C   0  0  0  0  0  0  0  0  0  0  0  0
  -24.0467  -17.6835   22.3092 C   0  0  0  0  0  0  0  0  0  0  0  0
  -27.1246  -31.0314   21.8656 C   0  0  0  0  0  0  0  0  0  0  0  0
  -26.5819  -32.3237   24.2777 C   0  0  0  0  0  0  0  0  0  0  0  0
  -28.1489  -31.2457   22.7878 C   0  0  0  0  0  0  0  0  0  0  0  0
  -24.6604  -25.6311   19.5962 C   0  0  0  0  0  0  0  0  0  0  0  0
  -24.1179  -23.5198   19.3077 C   0  0  0  0  0  0  0  0  0  0  0  0
  -24.2547  -23.8111   23.6101 C   0  0  0  0  0  0  0  0  0  0  0  0
  -17.3168  -25.2217   23.1085 C   0  0  0  0  0  0  0  0  0  0  0  0
  -17.4400  -25.4388   21.7972 C   0  0  0  0  0  0  0  0  0  0  0  0
  -26.4946  -23.8733   19.9968 C   0  0  0  0  0  0  0  0  0  0  0  0
  -25.3667  -12.7213   20.5489 C   0  0  0  0  0  0  0  0  0  0  0  0
  -27.7557  -14.0805   18.8261 C   0  0  0  0  0  0  0  0  0  0  0  0
  -29.5670  -17.2007   18.8413 C   0  0  0  0  0  0  0  0  0  0  0  0
  -18.1221  -24.6863   19.6079 C   0  0  0  0  0  0  0  0  0  0  0  0
  -22.8118   -8.3021   20.5591 C   0  0  0  0  0  0  0  0  0  0  0  0
  -24.1349  -14.5630   19.3460 C   0  0  0  0  0  0  0  0  0  0  0  0
  -26.6479  -15.5364   20.5635 C   0  0  0  0  0  0  0  0  0  0  0  0
  -25.3930  -23.2002   24.4054 C   0  0  0  0  0  0  0  0  0  0  0  0
  -24.1915   -8.7644   20.0978 C   0  0  0  0  0  0  0  0  0  0  0  0
  -25.8826  -21.8708   23.8745 C   0  0  0  0  0  0  0  0  0  0  0  0
  -20.0999  -23.5139   16.7235 C   0  0  0  0  0  0  0  0  0  0  0  0
  -24.8789   -9.5707   21.1951 C   0  0  0  0  0  0  0  0  0  0  0  0
  -21.5305  -23.8739   17.1209 C   0  0  0  0  0  0  0  0  0  0  0  0
  -19.0827  -24.4727   17.3350 C   0  0  0  0  0  0  0  0  0  0  0  0
  -23.6775  -21.5049   22.8035 C   0  0  0  0  0  0  0  0  0  0  0  0
  -20.6202  -24.9601   19.2125 C   0  0  0  0  0  0  0  0  0  0  0  0
  -24.0791  -10.8342   21.5346 C   0  0  1  0  0  0  0  0  0  0  0  0
  -25.3880  -13.6947   19.4045 C   0  0  1  0  0  0  0  0  0  0  0  0
  -24.7028  -20.9182   23.7727 C   0  0  1  0  0  0  0  0  0  0  0  0
  -21.6648  -23.9845   18.6496 C   0  0  2  0  0  0  0  0  0  0  0  0
  -30.7292  -18.4216   16.9823 C   0  0  0  0  0  0  0  0  0  0  0  0
  -30.2414  -12.6023   19.7990 C   0  0  0  0  0  0  0  0  0  0  0  0
  -31.5676  -14.6767   19.3445 C   0  0  0  0  0  0  0  0  0  0  0  0
  -30.4080  -13.5046   17.4725 C   0  0  0  0  0  0  0  0  0  0  0  0
  -28.0137  -19.6708   19.3363 C   0  0  0  0  0  0  0  0  0  0  0  0
  -25.1541  -19.5336   23.3126 C   0  0  0  0  0  0  0  0  0  1  0  0
  -29.0412  -14.7975   19.1614 C   0  0  1  0  0  0  0  0  0  0  0  0
  -29.4629  -18.3170   17.8178 C   0  0  2  0  0  0  0  0  0  0  0  0
  -30.2921  -13.8960   18.9618 C   0  0  0  0  0  0  0  0  0  0  0  0
  -23.3742  -25.6622   19.2375 N   0  0  0  0  0  0  0  0  0  0  0  0
  -23.0731  -24.3633   19.0690 N   0  0  0  0  0  0  0  0  0  0  0  0
  -23.3236  -22.9128   23.0609 N   0  0  0  0  0  0  0  0  0  0  0  0
  -26.6155  -14.4821   19.5364 N   0  0  0  0  0  0  0  0  0  0  0  0
  -19.2620  -24.5905   18.7826 N   0  0  0  0  0  0  0  0  0  0  0  0
  -23.9884  -22.1817   19.1851 N   0  0  0  0  0  0  0  0  0  0  0  0
  -27.4619  -24.8313   20.3300 N   0  0  0  0  0  0  0  0  0  0  0  0
  -24.2922  -11.8527   20.5288 N   0  0  0  0  0  0  0  0  0  0  0  0
  -29.0493  -16.0168   18.3603 N   0  0  0  0  0  0  0  0  0  0  0  0
  -18.3581  -24.7690   21.0052 N   0  0  0  0  0  0  0  0  0  0  0  0
  -29.2392  -19.6241   18.4978 N   0  3  0  0  0  0  0  0  0  0  0  0
  -24.1864  -25.0416   23.5473 O   0  0  0  0  0  0  0  0  0  0  0  0
  -26.8100  -22.6592   19.9895 O   0  0  0  0  0  0  0  0  0  0  0  0
  -26.2600  -12.7548   21.3872 O   0  0  0  0  0  0  0  0  0  0  0  0
  -27.7616  -13.2014   17.9607 O   0  0  0  0  0  0  0  0  0  0  0  0
  -30.0618  -17.3620   19.9548 O   0  0  0  0  0  0  0  0  0  0  0  0
  -16.9765  -24.6732   19.1392 O   0  0  0  0  0  0  0  0  0  0  0  0
  -27.3925  -30.3908   20.6675 O   0  0  0  0  0  0  0  0  0  0  0  0
  -24.0173  -18.6738   23.2421 O   0  0  0  0  0  0  0  0  0  1  0  0
  -26.3215  -32.9455   25.4351 F   0  0  0  0  0  0  0  0  0  0  0  0
  -29.3958  -30.8341   22.5203 F   0  0  0  0  0  0  0  0  0  0  0  0
  1  2  1  0  0  0  0
  1  5  2  0  0  0  0
  2  6  2  0  0  0  0
  3 12  2  0  0  0  0
  3 19  1  0  0  0  0
  4 13  1  0  0  0  0
  4 19  2  0  0  0  0
  5 21  1  0  0  0  0
  6 23  1  0  0  0  0
  7 14  2  0  0  0  0
  7 22  1  0  0  0  0
  8 10  2  0  0  0  0
  8 25  1  0  0  0  0
  9 11  1  0  0  0  0
  9 25  2  0  0  0  0
 10 26  1  0  0  0  0
 11 26  2  0  0  0  0
 12 27  1  0  0  0  0
 13 27  2  0  0  0  0
 14 28  1  0  0  0  0
 15 16  2  0  0  0  0
 15 29  1  0  0  0  0
 16 30  1  0  0  0  0
 17 24  1  0  0  0  0
 17 28  2  0  0  0  0
 18 30  2  0  0  0  0
 18 31  1  0  0  0  0
 19 32  1  0  0  0  0
 20 32  1  0  0  0  0
 20 33  2  0  0  0  0
 20 37  1  0  0  0  0
 21 23  2  0  0  0  0
 21 42  1  0  0  0  0
 22 24  2  0  0  0  0
 22 43  1  0  0  0  0
 23 54  1  0  0  0  0
 24 44  1  0  0  0  0
 25 69  1  0  0  0  0
 26 76  1  0  0  0  0
 27 84  1  0  0  0  0
 28 85  1  0  0  0  0
 29 31  2  0  0  0  0
 29 84  1  0  0  0  0
 30 86  1  0  0  0  0
 31 87  1  0  0  0  0
 32 67  2  0  0  0  0
 33 68  1  0  0  0  0
 33 72  1  0  0  0  0
 34 45  1  0  0  0  0
 34 69  1  0  0  0  0
 34 78  2  0  0  0  0
 35 36  2  0  0  0  0
 36 76  1  0  0  0  0
 37 73  1  0  0  0  0
 37 79  2  0  0  0  0
 38 55  1  0  0  0  0
 38 74  1  0  0  0  0
 38 80  2  0  0  0  0
 39 64  1  0  0  0  0
 39 70  1  0  0  0  0
 39 81  2  0  0  0  0
 40 65  1  0  0  0  0
 40 75  1  0  0  0  0
 40 82  2  0  0  0  0
 41 71  1  0  0  0  0
 41 76  1  0  0  0  0
 41 83  2  0  0  0  0
 42 46  1  0  0  0  0
 43 55  1  0  0  0  0
 44 70  1  0  0  0  0
 45 47  1  0  0  0  0
 46 49  1  0  0  0  0
 47 56  1  0  0  0  0
 48 50  1  0  0  0  0
 48 51  1  0  0  0  0
 49 54  1  0  0  0  0
 50 57  1  0  0  0  0
 51 71  1  0  0  0  0
 52 56  1  0  0  0  0
 52 69  1  0  0  0  0
 53 57  1  0  0  0  0
 53 71  1  0  0  0  0
 54 74  1  0  0  0  0
 55 70  1  0  0  0  0
 56 63  1  0  0  0  0
 57 68  1  0  0  0  0
 58 65  1  0  0  0  0
 59 66  1  0  0  0  0
 60 66  1  0  0  0  0
 61 66  1  0  0  0  0
 62 77  1  0  0  0  0
 63 85  1  0  0  0  0
 64 66  1  0  0  0  0
 64 75  1  0  0  0  0
 65 77  1  0  0  0  0
 67 68  1  0  0  0  0
M  CHG  1  77   1
M  ISO  4  41 100  63 101  76 100  85 101
M  END
> <Batch ID>
0096

> <Smiles>
C=C[100N:0](c1ccc(N2CC([101CH2:1][101O:1]c3ccc4c(c3)CN(C(=O)C(NC(=O)C(C)NC)C(C)(C)C)C(C(=O)NC3CCCc5ccccc53)C4)CCC2=O)cc1)[100C:0](=O)N1CCCC(n2nc(-c3ccc(Oc4ccc(F)cc4F)cc3)c(C(N)=O)c2N)C1

> <Shape>
0.211

> <Color>
0.053

> <Negative vol penalty>
0.000

$$$$

  -OEChem-04052300463D

 83 91  0     1  0  0  0  0  0999 V2000
  -20.8997  -32.2670   15.9378 C   0  0  0  0  0  0  0  0  0  0  0  0
  -21.0975  -30.8979   16.0853 C   0  0  0  0  0  0  0  0  0  0  0  0
  -24.1632   -9.4624   21.8179 C   0  0  0  0  0  0  0  0  0  0  0  0
  -24.5596  -10.8568   23.7507 C   0  0  0  0  0  0  0  0  0  0  0  0
  -21.9859  -33.1385   16.0058 C   0  0  0  0  0  0  0  0  0  0  0  0
  -22.3820  -30.3993   16.2997 C   0  0  0  0  0  0  0  0  0  0  0  0
  -25.8245  -25.1153   19.6976 C   0  0  0  0  0  0  0  0  0  0  0  0
  -31.8463  -18.2093   21.1910 C   0  0  0  0  0  0  0  0  0  0  0  0
  -31.5345  -19.5140   20.8088 C   0  0  0  0  0  0  0  0  0  0  0  0
  -23.7789   -8.4136   22.6532 C   0  0  0  0  0  0  0  0  0  0  0  0
  -24.1752   -9.8079   24.5861 C   0  0  0  0  0  0  0  0  0  0  0  0
  -26.7521  -24.1033   19.4547 C   0  0  0  0  0  0  0  0  0  0  0  0
  -21.0423   -7.5137   24.4236 C   0  0  0  0  0  0  0  0  0  0  0  0
  -19.8921   -6.8020   24.0832 C   0  0  0  0  0  0  0  0  0  0  0  0
  -28.5426  -25.7100   19.6328 C   0  0  0  0  0  0  0  0  0  0  0  0
  -21.1945   -4.7734   23.9236 C   0  0  0  0  0  0  0  0  0  0  0  0
  -24.5536  -10.6840   22.3666 C   0  0  0  0  0  0  0  0  0  0  0  0
  -24.1231  -12.7648   20.9549 C   0  0  0  0  0  0  0  0  0  0  0  0
  -23.2830  -32.6511   16.2308 C   0  0  0  0  0  0  0  0  0  0  0  0
  -26.2489  -26.4365   19.8995 C   0  0  0  0  0  0  0  0  0  0  0  0
  -23.4868  -31.2649   16.3693 C   0  0  0  0  0  0  0  0  0  0  0  0
  -27.6185  -26.7366   19.8806 C   0  0  0  0  0  0  0  0  0  0  0  0
  -31.0037  -17.5171   22.0609 C   0  0  0  0  0  0  0  0  0  0  0  0
  -30.3802  -20.1266   21.2965 C   0  0  0  0  0  0  0  0  0  0  0  0
  -29.5376  -19.4345   22.1664 C   0  0  0  0  0  0  0  0  0  0  0  0
  -23.7849   -8.5864   24.0373 C   0  0  0  0  0  0  0  0  0  0  0  0
  -28.1112  -24.4011   19.4194 C   0  0  0  0  0  0  0  0  0  0  0  0
  -22.2687   -6.8553   24.5140 C   0  0  0  0  0  0  0  0  0  0  0  0
  -19.9682   -5.4318   23.8332 C   0  0  0  0  0  0  0  0  0  0  0  0
  -22.3448   -5.4852   24.2640 C   0  0  0  0  0  0  0  0  0  0  0  0
  -29.8493  -18.1297   22.5486 C   0  0  0  0  0  0  0  0  0  0  0  0
  -24.9512  -11.7676   21.5042 C   0  0  0  0  0  0  0  0  0  0  0  0
  -24.9743  -13.5492   20.2156 C   0  0  0  0  0  0  0  0  0  0  0  0
  -22.7107  -12.9642   21.1001 C   0  0  0  0  0  0  0  0  0  0  0  0
  -25.7847  -29.1967   18.3929 C   0  0  0  0  0  0  0  0  0  0  0  0
  -27.3995  -30.4073   20.9325 C   0  0  0  0  0  0  0  0  0  0  0  0
  -29.6135  -29.8817   23.4759 C   0  0  0  0  0  0  0  0  0  0  0  0
  -30.8557  -14.6209   20.5490 C   0  0  0  0  0  0  0  0  0  0  0  0
  -24.4323  -33.6276   16.2493 C   0  0  0  0  0  0  0  0  0  0  0  0
  -25.2374  -27.5120   20.1868 C   0  0  0  0  0  0  0  0  0  0  0  0
  -28.1271  -28.1353   20.1114 C   0  0  0  0  0  0  0  0  0  0  0  0
  -25.7108  -33.0522   16.8530 C   0  0  0  0  0  0  0  0  0  0  0  0
  -29.0687  -13.3381   17.7494 C   0  0  0  0  0  0  0  0  0  0  0  0
  -25.9925  -31.6651   16.2843 C   0  0  0  0  0  0  0  0  0  0  0  0
  -27.7361  -12.8802   18.3447 C   0  0  0  0  0  0  0  0  0  0  0  0
  -30.2310  -13.0864   18.7074 C   0  0  0  0  0  0  0  0  0  0  0  0
  -28.7219  -13.1952   20.6528 C   0  0  0  0  0  0  0  0  0  0  0  0
  -24.8617  -30.6880   16.6280 C   0  0  1  0  0  0  0  0  0  0  0  0
  -25.7486  -28.9136   19.8681 C   0  0  1  0  0  0  0  0  0  0  0  0
  -27.5124  -13.4797   19.7460 C   0  0  2  0  0  0  0  0  0  0  0  0
  -30.7654  -31.0705   25.3620 C   0  0  0  0  0  0  0  0  0  0  0  0
  -29.2912  -31.7326   18.9387 C   0  0  0  0  0  0  0  0  0  0  0  0
  -30.9105  -32.0847   20.8153 C   0  0  0  0  0  0  0  0  0  0  0  0
  -28.6629  -33.1641   20.8907 C   0  0  0  0  0  0  0  0  0  0  0  0
  -28.3796  -28.1098   25.5000 C   0  0  0  0  0  0  0  0  0  0  0  0
  -31.3394  -16.1214   22.4657 C   0  0  0  0  0  0  0  0  0  0  0  0
  -30.9203  -22.1940   20.0082 C   0  0  0  0  0  0  0  0  0  0  0  0
  -30.3097  -23.5651   19.7713 C   0  0  0  0  0  0  0  0  0  1  0  0
  -28.8521  -30.6687   21.2498 C   0  0  1  0  0  0  0  0  0  0  0  0
  -29.5587  -30.2419   24.9496 C   0  0  2  0  0  0  0  0  0  0  0  0
  -29.4198  -31.8864   20.4673 C   0  0  0  0  0  0  0  0  0  0  0  0
  -26.2303  -11.9037   21.1443 N   0  0  0  0  0  0  0  0  0  0  0  0
  -26.2122  -12.9956   20.3609 N   0  0  0  0  0  0  0  0  0  0  0  0
  -27.0986  -29.1533   20.3821 N   0  0  0  0  0  0  0  0  0  0  0  0
  -29.9565  -13.6818   20.0174 N   0  0  0  0  0  0  0  0  0  0  0  0
  -28.3636  -20.0384   22.6700 N   0  0  0  0  0  0  0  0  0  0  0  0
  -24.7770  -14.6515   19.4617 N   0  0  0  0  0  0  0  0  0  0  0  0
  -21.9874  -12.0653   21.8959 N   0  0  0  0  0  0  0  0  0  0  0  0
  -30.0898  -21.4230   20.9048 N   0  0  0  0  0  0  0  0  0  0  0  0
  -24.9755  -30.2461   18.0014 N   0  0  0  0  0  0  0  0  0  0  0  0
  -28.9360  -30.7988   22.7005 N   0  0  0  0  0  0  0  0  0  0  0  0
  -30.5172  -15.1409   21.7923 N   0  0  0  0  0  0  0  0  0  0  0  0
  -29.5290  -29.0073   25.7838 N   0  3  0  0  0  0  0  0  0  0  0  0
  -22.1052  -13.9017   20.5275 O   0  0  0  0  0  0  0  0  0  0  0  0
  -26.4954  -28.5145   17.6640 O   0  0  0  0  0  0  0  0  0  0  0  0
  -26.5617  -31.2807   21.1709 O   0  0  0  0  0  0  0  0  0  0  0  0
  -30.2018  -28.8884   23.0544 O   0  0  0  0  0  0  0  0  0  0  0  0
  -31.8812  -14.9740   19.9569 O   0  0  0  0  0  0  0  0  0  0  0  0
  -23.4097   -7.5632   24.8528 O   0  0  0  0  0  0  0  0  0  0  0  0
  -29.0188  -23.4153   19.1819 O   0  0  0  0  0  0  0  0  0  1  0  0
  -18.8632   -4.7481   23.5079 F   0  0  0  0  0  0  0  0  0  0  0  0
  -23.5200   -4.8469   24.3505 F   0  0  0  0  0  0  0  0  0  0  0  0
  -29.0407  -17.4618   23.3852 F   0  0  0  0  0  0  0  0  0  0  0  0
  1  2  1  0  0  0  0
  1  5  2  0  0  0  0
  2  6  2  0  0  0  0
  3 10  2  0  0  0  0
  3 17  1  0  0  0  0
  4 11  1  0  0  0  0
  4 17  2  0  0  0  0
  5 19  1  0  0  0  0
  6 21  1  0  0  0  0
  7 12  2  0  0  0  0
  7 20  1  0  0  0  0
  8  9  2  0  0  0  0
  8 23  1  0  0  0  0
  9 24  1  0  0  0  0
 10 26  1  0  0  0  0
 11 26  2  0  0  0  0
 12 27  1  0  0  0  0
 13 14  2  0  0  0  0
 13 28  1  0  0  0  0
 14 29  1  0  0  0  0
 15 22  1  0  0  0  0
 15 27  2  0  0  0  0
 16 29  2  0  0  0  0
 16 30  1  0  0  0  0
 17 32  1  0  0  0  0
 18 32  1  0  0  0  0
 18 33  2  0  0  0  0
 18 34  1  0  0  0  0
 19 21  2  0  0  0  0
 19 39  1  0  0  0  0
 20 22  2  0  0  0  0
 20 40  1  0  0  0  0
 21 48  1  0  0  0  0
 22 41  1  0  0  0  0
 23 31  2  0  0  0  0
 23 56  1  0  0  0  0
 24 25  2  0  0  0  0
 24 69  1  0  0  0  0
 25 31  1  0  0  0  0
 25 66  1  0  0  0  0
 26 79  1  0  0  0  0
 27 80  1  0  0  0  0
 28 30  2  0  0  0  0
 28 79  1  0  0  0  0
 29 81  1  0  0  0  0
 30 82  1  0  0  0  0
 31 83  1  0  0  0  0
 32 62  2  0  0  0  0
 33 63  1  0  0  0  0
 33 67  1  0  0  0  0
 34 68  1  0  0  0  0
 34 74  2  0  0  0  0
 35 49  1  0  0  0  0
 35 70  1  0  0  0  0
 35 75  2  0  0  0  0
 36 59  1  0  0  0  0
 36 64  1  0  0  0  0
 36 76  2  0  0  0  0
 37 60  1  0  0  0  0
 37 71  1  0  0  0  0
 37 77  2  0  0  0  0
 38 65  1  0  0  0  0
 38 72  1  0  0  0  0
 38 78  2  0  0  0  0
 39 42  1  0  0  0  0
 40 49  1  0  0  0  0
 41 64  1  0  0  0  0
 42 44  1  0  0  0  0
 43 45  1  0  0  0  0
 43 46  1  0  0  0  0
 44 48  1  0  0  0  0
 45 50  1  0  0  0  0
 46 65  1  0  0  0  0
 47 50  1  0  0  0  0
 47 65  1  0  0  0  0
 48 70  1  0  0  0  0
 49 64  1  0  0  0  0
 50 63  1  0  0  0  0
 51 60  1  0  0  0  0
 52 61  1  0  0  0  0
 53 61  1  0  0  0  0
 54 61  1  0  0  0  0
 55 73  1  0  0  0  0
 56 72  1  0  0  0  0
 57 58  1  0  0  0  0
 57 69  1  0  0  0  0
 58 80  1  0  0  0  0
 59 61  1  0  0  0  0
 59 71  1  0  0  0  0
 60 73  1  0  0  0  0
 62 63  1  0  0  0  0
M  CHG  1  73   1
M  ISO  4  38 100  58 101  72 100  80 101
M  END
> <Batch ID>
0096

> <Smiles>
CNC(C)C(=O)NC(C(=O)N1Cc2cc([101O:1][101CH2:1]CNc3ccc(C[100NH:0][100C:0](=O)N4CCCC(n5nc(-c6ccc(Oc7ccc(F)cc7F)cc6)c(C(N)=O)c5N)C4)c(F)c3N)ccc2CC1C(=O)NC1CCCc2ccccc21)C(C)(C)C

> <Shape>
0.242

> <Color>
0.123

> <Negative vol penalty>
0.000

$$$$

  -OEChem-04052300463D

 85 94  0     1  0  0  0  0  0999 V2000
  -29.3899  -34.8603   26.4246 C   0  0  0  0  0  0  0  0  0  0  0  0
  -29.7775  -34.1926   25.2673 C   0  0  0  0  0  0  0  0  0  0  0  0
  -25.1092  -18.5385   16.8478 C   0  0  0  0  0  0  0  0  0  0  0  0
  -24.4677   -8.9544   21.7351 C   0  0  0  0  0  0  0  0  0  0  0  0
  -23.0276  -10.3622   20.4004 C   0  0  0  0  0  0  0  0  0  0  0  0
  -28.4192  -34.3044   27.2568 C   0  0  0  0  0  0  0  0  0  0  0  0
  -29.1954  -32.9679   24.9421 C   0  0  0  0  0  0  0  0  0  0  0  0
  -27.2368  -29.0468   19.2759 C   0  0  0  0  0  0  0  0  0  0  0  0
  -25.7142  -19.7173   17.2835 C   0  0  0  0  0  0  0  0  0  0  0  0
  -25.7047  -17.3069   17.1202 C   0  0  0  0  0  0  0  0  0  0  0  0
  -23.3952   -8.6529   22.5743 C   0  0  0  0  0  0  0  0  0  0  0  0
  -21.9550  -10.0606   21.2397 C   0  0  0  0  0  0  0  0  0  0  0  0
  -27.3989  -27.7689   18.7425 C   0  0  0  0  0  0  0  0  0  0  0  0
  -20.6945   -6.6188   22.5320 C   0  0  0  0  0  0  0  0  0  0  0  0
  -20.5135   -5.2854   22.8988 C   0  0  0  0  0  0  0  0  0  0  0  0
  -25.6750  -26.9428   20.2139 C   0  0  0  0  0  0  0  0  0  0  0  0
  -27.5104  -18.4330   18.2639 C   0  0  0  0  0  0  0  0  0  0  0  0
  -20.7698   -5.8903   25.2238 C   0  0  0  0  0  0  0  0  0  0  0  0
  -24.2840   -9.8092   20.6482 C   0  0  0  0  0  0  0  0  0  0  0  0
  -25.7862   -9.4267   18.6222 C   0  0  0  0  0  0  0  0  0  0  0  0
  -27.8179  -33.0770   26.9366 C   0  0  0  0  0  0  0  0  0  0  0  0
  -26.2987  -29.2804   20.2916 C   0  0  0  0  0  0  0  0  0  0  0  0
  -28.2166  -32.3944   25.7715 C   0  0  0  0  0  0  0  0  0  0  0  0
  -25.5012  -28.2251   20.7566 C   0  0  0  0  0  0  0  0  0  0  0  0
  -26.9148  -19.6646   17.9916 C   0  0  0  0  0  0  0  0  0  0  0  0
  -26.9053  -17.2542   17.8282 C   0  0  0  0  0  0  0  0  0  0  0  0
  -22.1389   -9.2059   22.3266 C   0  0  0  0  0  0  0  0  0  0  0  0
  -26.6199  -26.7161   19.2135 C   0  0  0  0  0  0  0  0  0  0  0  0
  -20.9132   -7.5881   23.5110 C   0  0  0  0  0  0  0  0  0  0  0  0
  -20.5511   -4.9211   24.2448 C   0  0  0  0  0  0  0  0  0  0  0  0
  -20.9509   -7.2238   24.8569 C   0  0  0  0  0  0  0  0  0  0  0  0
  -25.3916  -10.1215   19.7812 C   0  0  0  0  0  0  0  0  0  0  0  0
  -26.8826  -10.1163   18.1650 C   0  0  0  0  0  0  0  0  0  0  0  0
  -26.8175  -22.0082   18.7640 C   0  0  0  0  0  0  0  0  0  0  0  0
  -27.3250  -23.1861   19.1542 C   0  0  0  0  0  0  0  0  0  0  0  0
  -28.8100  -23.3077   19.1625 C   0  0  0  0  0  0  0  0  0  0  0  0
  -25.2129   -8.2622   18.0132 C   0  0  0  0  0  0  0  0  0  0  0  0
  -26.4571  -30.2793   23.3051 C   0  0  0  0  0  0  0  0  0  0  0  0
  -23.2214  -30.2315   23.0815 C   0  0  0  0  0  0  0  0  0  0  0  0
  -20.4413  -28.9788   21.5490 C   0  0  0  0  0  0  0  0  0  0  0  0
  -28.7005  -15.7736   18.7935 C   0  0  0  0  0  0  0  0  0  0  0  0
  -26.8071  -32.4928   27.8915 C   0  0  0  0  0  0  0  0  0  0  0  0
  -26.1173  -30.6701   20.8377 C   0  0  0  0  0  0  0  0  0  0  0  0
  -24.4657  -28.4275   21.8315 C   0  0  0  0  0  0  0  0  0  0  0  0
  -29.6140  -22.1867   18.5384 C   0  0  0  0  0  0  0  0  0  0  0  0
  -25.9693  -31.3722   27.2812 C   0  0  0  0  0  0  0  0  0  0  0  0
  -30.5032  -12.8433   19.7106 C   0  0  0  0  0  0  0  0  0  0  0  0
  -26.8603  -30.3872   26.5312 C   0  0  0  0  0  0  0  0  0  0  0  0
  -29.4340  -11.7484   19.7213 C   0  0  0  0  0  0  0  0  0  0  0  0
  -28.9705  -20.8158   18.7292 C   0  0  0  0  0  0  0  0  0  0  0  0
  -29.9565  -14.1749   20.2223 C   0  0  0  0  0  0  0  0  0  0  0  0
  -27.6667  -13.5481   19.5644 C   0  0  0  0  0  0  0  0  0  0  0  0
  -27.5905  -31.0760   25.3719 C   0  0  1  0  0  0  0  0  0  0  0  0
  -25.4916  -30.6885   22.2290 C   0  0  1  0  0  0  0  0  0  0  0  0
  -28.1527  -12.2048   18.9963 C   0  0  2  0  0  0  0  0  0  0  0  0
  -17.9355  -29.0996   21.6091 C   0  0  0  0  0  0  0  0  0  0  0  0
  -23.1994  -28.4827   25.5817 C   0  0  0  0  0  0  0  0  0  0  0  0
  -20.8328  -27.8665   25.0451 C   0  0  0  0  0  0  0  0  0  0  0  0
  -21.4233  -30.2424   25.5239 C   0  0  0  0  0  0  0  0  0  0  0  0
  -20.3081  -29.9974   18.7735 C   0  0  0  0  0  0  0  0  0  0  0  0
  -26.5059  -24.3661   19.5610 C   0  0  0  0  0  0  0  0  0  1  0  0
  -22.1472  -29.2019   23.3363 C   0  0  1  0  0  0  0  0  0  0  0  0
  -19.2059  -29.6608   20.9894 C   0  0  2  0  0  0  0  0  0  0  0  0
  -21.9215  -28.9438   24.8528 C   0  0  0  0  0  0  0  0  0  0  0  0
  -26.1738  -11.1718   20.0442 N   0  0  0  0  0  0  0  0  0  0  0  0
  -27.0709  -11.1420   19.0440 N   0  0  0  0  0  0  0  0  0  0  0  0
  -27.5302  -20.8647   18.4356 N   0  0  0  0  0  0  0  0  0  0  0  0
  -24.3303  -29.8032   22.3381 N   0  0  0  0  0  0  0  0  0  0  0  0
  -28.7457  -14.5454   19.4865 N   0  0  0  0  0  0  0  0  0  0  0  0
  -27.6943   -9.9391   17.1010 N   0  0  0  0  0  0  0  0  0  0  0  0
  -24.0884   -7.6794   18.6132 N   0  0  0  0  0  0  0  0  0  0  0  0
  -27.5105  -16.0029   18.1036 N   0  0  0  0  0  0  0  0  0  0  0  0
  -26.6959  -31.2597   24.2492 N   0  0  0  0  0  0  0  0  0  0  0  0
  -20.9604  -29.6657   22.6260 N   0  0  0  0  0  0  0  0  0  0  0  0
  -19.1327  -29.4700   19.5132 N   0  3  0  0  0  0  0  0  0  0  0  0
  -29.3563  -24.3199   19.5974 O   0  0  0  0  0  0  0  0  0  0  0  0
  -25.6938   -7.7438   16.9771 O   0  0  0  0  0  0  0  0  0  0  0  0
  -26.9479  -29.1567   23.2815 O   0  0  0  0  0  0  0  0  0  0  0  0
  -23.0784  -31.3758   23.5196 O   0  0  0  0  0  0  0  0  0  0  0  0
  -20.8979  -27.9385   21.0801 O   0  0  0  0  0  0  0  0  0  0  0  0
  -29.6579  -16.5515   18.7886 O   0  0  0  0  0  0  0  0  0  0  0  0
  -21.0920   -8.9117   23.1452 O   0  0  0  0  0  0  0  0  0  0  0  0
  -26.7765  -25.4676   18.6951 O   0  0  0  0  0  0  0  0  0  1  0  0
  -20.3757   -3.6407   24.5971 F   0  0  0  0  0  0  0  0  0  0  0  0
  -21.1595   -8.1506   25.8020 F   0  0  0  0  0  0  0  0  0  0  0  0
  1  2  1  0  0  0  0
  1  6  2  0  0  0  0
  2  7  2  0  0  0  0
  3  9  2  0  0  0  0
  3 10  1  0  0  0  0
  4 11  2  0  0  0  0
  4 19  1  0  0  0  0
  5 12  1  0  0  0  0
  5 19  2  0  0  0  0
  6 21  1  0  0  0  0
  7 23  1  0  0  0  0
  8 13  2  0  0  0  0
  8 22  1  0  0  0  0
  9 25  1  0  0  0  0
 10 26  2  0  0  0  0
 11 27  1  0  0  0  0
 12 27  2  0  0  0  0
 13 28  1  0  0  0  0
 14 15  2  0  0  0  0
 14 29  1  0  0  0  0
 15 30  1  0  0  0  0
 16 24  1  0  0  0  0
 16 28  2  0  0  0  0
 17 25  2  0  0  0  0
 17 26  1  0  0  0  0
 18 30  2  0  0  0  0
 18 31  1  0  0  0  0
 19 32  1  0  0  0  0
 20 32  1  0  0  0  0
 20 33  2  0  0  0  0
 20 37  1  0  0  0  0
 21 23  2  0  0  0  0
 21 42  1  0  0  0  0
 22 24  2  0  0  0  0
 22 43  1  0  0  0  0
 23 53  1  0  0  0  0
 24 44  1  0  0  0  0
 25 67  1  0  0  0  0
 26 72  1  0  0  0  0
 27 82  1  0  0  0  0
 28 83  1  0  0  0  0
 29 31  2  0  0  0  0
 29 82  1  0  0  0  0
 30 84  1  0  0  0  0
 31 85  1  0  0  0  0
 32 65  2  0  0  0  0
 33 66  1  0  0  0  0
 33 70  1  0  0  0  0
 34 35  2  0  0  0  0
 34 67  1  0  0  0  0
 35 36  1  0  0  0  0
 35 61  1  0  0  0  0
 36 45  1  0  0  0  0
 36 76  2  0  0  0  0
 37 71  1  0  0  0  0
 37 77  2  0  0  0  0
 38 54  1  0  0  0  0
 38 73  1  0  0  0  0
 38 78  2  0  0  0  0
 39 62  1  0  0  0  0
 39 68  1  0  0  0  0
 39 79  2  0  0  0  0
 40 63  1  0  0  0  0
 40 74  1  0  0  0  0
 40 80  2  0  0  0  0
 41 69  1  0  0  0  0
 41 72  1  0  0  0  0
 41 81  2  0  0  0  0
 42 46  1  0  0  0  0
 43 54  1  0  0  0  0
 44 68  1  0  0  0  0
 45 50  1  0  0  0  0
 46 48  1  0  0  0  0
 47 49  1  0  0  0  0
 47 51  1  0  0  0  0
 48 53  1  0  0  0  0
 49 55  1  0  0  0  0
 50 67  1  0  0  0  0
 51 69  1  0  0  0  0
 52 55  1  0  0  0  0
 52 69  1  0  0  0  0
 53 73  1  0  0  0  0
 54 68  1  0  0  0  0
 55 66  1  0  0  0  0
 56 63  1  0  0  0  0
 57 64  1  0  0  0  0
 58 64  1  0  0  0  0
 59 64  1  0  0  0  0
 60 75  1  0  0  0  0
 61 83  1  0  0  0  0
 62 64  1  0  0  0  0
 62 74  1  0  0  0  0
 63 75  1  0  0  0  0
 65 66  1  0  0  0  0
M  CHG  1  75   1
M  ISO  4  41 100  61 101  72 100  83 101
M  END
> <Batch ID>
0096

> <Smiles>
CNC(C)C(=O)NC(C(=O)N1Cc2cc([101O:1][101CH2:1]C3=CN(c4cccc([100NH:0][100C:0](=O)N5CCCC(n6nc(-c7ccc(Oc8ccc(F)cc8F)cc7)c(C(N)=O)c6N)C5)c4)CCC3=O)ccc2CC1C(=O)NC1CCCc2ccccc21)C(C)(C)C

> <Shape>
0.273

> <Color>
0.093

> <Negative vol penalty>
0.000

$$$$

  -OEChem-04052300463D

 88 97  0     1  0  0  0  0  0999 V2000
  -29.8874  -16.1871   23.2941 C   0  0  0  0  0  0  0  0  0  0  0  0
  -29.9683  -16.4893   22.1351 C   0  0  0  0  0  0  0  0  0  0  0  0
  -27.4264  -31.2816   28.1473 C   0  0  0  0  0  0  0  0  0  0  0  0
  -27.5234  -30.2833   27.1832 C   0  0  0  0  0  0  0  0  0  0  0  0
  -23.8419   -9.6242   21.2475 C   0  0  0  0  0  0  0  0  0  0  0  0
  -24.5783  -10.5523   23.3531 C   0  0  0  0  0  0  0  0  0  0  0  0
  -26.2405  -32.0014   28.2869 C   0  0  0  0  0  0  0  0  0  0  0  0
  -26.4341  -30.0034   26.3589 C   0  0  0  0  0  0  0  0  0  0  0  0
  -27.7622  -29.4574   21.5027 C   0  0  0  0  0  0  0  0  0  0  0  0
  -30.2627  -20.0853   18.9699 C   0  0  0  0  0  0  0  0  0  0  0  0
  -30.1267  -20.5413   21.3386 C   0  0  0  0  0  0  0  0  0  0  0  0
  -30.2095  -18.7161   19.2304 C   0  0  0  0  0  0  0  0  0  0  0  0
  -30.0734  -19.1720   21.5991 C   0  0  0  0  0  0  0  0  0  0  0  0
  -23.3641   -8.4950   21.9123 C   0  0  0  0  0  0  0  0  0  0  0  0
  -24.1005   -9.4231   24.0179 C   0  0  0  0  0  0  0  0  0  0  0  0
  -28.3435  -28.2450   21.1340 C   0  0  0  0  0  0  0  0  0  0  0  0
  -20.6548   -7.6455   23.7483 C   0  0  0  0  0  0  0  0  0  0  0  0
  -19.3896   -7.1740   23.3983 C   0  0  0  0  0  0  0  0  0  0  0  0
  -26.2236  -27.5034   20.2534 C   0  0  0  0  0  0  0  0  0  0  0  0
  -30.7404  -24.3113   18.7875 C   0  0  0  0  0  0  0  0  0  0  0  0
  -20.3580   -5.0584   22.7475 C   0  0  0  0  0  0  0  0  0  0  0  0
  -24.4491  -10.6529   21.9679 C   0  0  0  0  0  0  0  0  0  0  0  0
  -24.2379  -13.0060   21.0056 C   0  0  0  0  0  0  0  0  0  0  0  0
  -25.1393  -31.7368   27.4575 C   0  0  0  0  0  0  0  0  0  0  0  0
  -26.4024  -29.6981   21.2589 C   0  0  0  0  0  0  0  0  0  0  0  0
  -25.2319  -30.7194   26.4885 C   0  0  0  0  0  0  0  0  0  0  0  0
  -25.6281  -28.7207   20.6177 C   0  0  0  0  0  0  0  0  0  0  0  0
  -29.9637  -24.5624   19.9454 C   0  0  0  0  0  0  0  0  0  0  0  0
  -30.2214  -20.9980   20.0240 C   0  0  0  0  0  0  0  0  0  0  0  0
  -30.1148  -18.2594   20.5450 C   0  0  0  0  0  0  0  0  0  0  0  0
  -23.4934   -8.3944   23.2975 C   0  0  0  0  0  0  0  0  0  0  0  0
  -27.5735  -27.2666   20.5119 C   0  0  0  0  0  0  0  0  0  0  0  0
  -21.7717   -6.8234   23.5979 C   0  0  0  0  0  0  0  0  0  0  0  0
  -19.2412   -5.8805   22.8979 C   0  0  0  0  0  0  0  0  0  0  0  0
  -21.6232   -5.5299   23.0975 C   0  0  0  0  0  0  0  0  0  0  0  0
  -24.9434  -11.8195   21.2816 C   0  0  0  0  0  0  0  0  0  0  0  0
  -25.1431  -13.7971   20.3413 C   0  0  0  0  0  0  0  0  0  0  0  0
  -30.9170  -22.9482   18.6983 C   0  0  0  0  0  0  0  0  0  0  0  0
  -29.6896  -23.3451   20.5287 C   0  0  0  0  0  0  0  0  0  0  0  0
  -22.8852  -13.3614   21.3214 C   0  0  0  0  0  0  0  0  0  0  0  0
  -23.8661  -30.2849   23.0828 C   0  0  0  0  0  0  0  0  0  0  0  0
  -22.4011  -30.7357   20.2240 C   0  0  0  0  0  0  0  0  0  0  0  0
  -22.3311  -30.0984   16.8720 C   0  0  0  0  0  0  0  0  0  0  0  0
  -30.2486  -15.9066   19.7521 C   0  0  0  0  0  0  0  0  0  0  0  0
  -23.8627  -32.5090   27.6775 C   0  0  0  0  0  0  0  0  0  0  0  0
  -25.7968  -31.0216   21.6386 C   0  0  0  0  0  0  0  0  0  0  0  0
  -24.1687  -28.9377   20.3152 C   0  0  0  0  0  0  0  0  0  0  0  0
  -22.8800  -32.4054   26.5139 C   0  0  0  0  0  0  0  0  0  0  0  0
  -29.6687  -12.7173   18.3887 C   0  0  0  0  0  0  0  0  0  0  0  0
  -22.7406  -30.9557   26.0603 C   0  0  0  0  0  0  0  0  0  0  0  0
  -28.3412  -12.2802   19.0045 C   0  0  0  0  0  0  0  0  0  0  0  0
  -30.5203  -13.4644   19.4074 C   0  0  0  0  0  0  0  0  0  0  0  0
  -28.5021  -14.2500   20.6103 C   0  0  0  0  0  0  0  0  0  0  0  0
  -24.0804  -30.4033   25.5589 C   0  0  1  0  0  0  0  0  0  0  0  0
  -24.2817  -30.9593   21.8061 C   0  0  1  0  0  0  0  0  0  0  0  0
  -27.6028  -13.4796   19.6217 C   0  0  2  0  0  0  0  0  0  0  0  0
  -29.7893  -15.8188   24.7058 C   0  0  0  0  0  0  0  0  0  0  0  0
  -20.9915  -30.5738   14.8040 C   0  0  0  0  0  0  0  0  0  0  0  0
  -20.2999  -28.7143   21.1234 C   0  0  0  0  0  0  0  0  0  0  0  0
  -19.5670  -28.5193   18.7374 C   0  0  0  0  0  0  0  0  0  0  0  0
  -19.3835  -30.7070   19.9218 C   0  0  0  0  0  0  0  0  0  0  0  0
  -24.6122  -31.4593   15.5669 C   0  0  0  0  0  0  0  0  0  0  0  0
  -29.5247  -25.9088   20.4411 C   0  0  0  0  0  0  0  0  0  1  0  0
  -21.6646  -29.8496   19.2486 C   0  0  1  0  0  0  0  0  0  0  0  0
  -22.1565  -31.0163   15.6756 C   0  0  2  0  0  0  0  0  0  0  0  0
  -20.2558  -29.4424   19.7651 C   0  0  0  0  0  0  0  0  0  0  0  0
  -26.1998  -11.8496   20.8295 N   0  0  0  0  0  0  0  0  0  0  0  0
  -30.2742  -22.3710   19.7622 N   0  0  0  0  0  0  0  0  0  0  0  0
  -26.2909  -13.0647   20.2626 N   0  0  0  0  0  0  0  0  0  0  0  0
  -23.6209  -30.2455   20.7115 N   0  0  0  0  0  0  0  0  0  0  0  0
  -29.7910  -14.5933   19.9881 N   0  0  0  0  0  0  0  0  0  0  0  0
  -25.0612  -15.0407   19.8225 N   0  0  0  0  0  0  0  0  0  0  0  0
  -22.0929  -12.4311   22.0077 N   0  0  0  0  0  0  0  0  0  0  0  0
  -24.3592  -30.8881   24.2241 N   0  0  0  0  0  0  0  0  0  0  0  0
  -21.6512  -30.5648   17.9771 N   0  0  0  0  0  0  0  0  0  0  0  0
  -30.0604  -16.8338   20.8153 N   0  0  0  0  0  0  0  0  0  0  0  0
  -23.3918  -31.0213   14.8419 N   0  3  0  0  0  0  0  0  0  0  0  0
  -22.3888  -14.4647   20.9900 O   0  0  0  0  0  0  0  0  0  0  0  0
  -23.1498  -29.2916   23.0361 O   0  0  0  0  0  0  0  0  0  0  0  0
  -21.9156  -31.8258   20.5362 O   0  0  0  0  0  0  0  0  0  0  0  0
  -23.0005  -29.0685   16.8293 O   0  0  0  0  0  0  0  0  0  0  0  0
  -30.8448  -16.1995   18.7085 O   0  0  0  0  0  0  0  0  0  0  0  0
  -31.5676  -22.2216   17.7974 O   0  0  0  0  0  0  0  0  0  0  0  0
  -29.0029  -23.0469   21.6259 O   0  0  0  0  0  0  0  0  0  0  0  0
  -23.0270   -7.2927   23.9466 O   0  0  0  0  0  0  0  0  0  0  0  0
  -28.1382  -26.0821   20.1516 O   0  0  0  0  0  0  0  0  0  1  0  0
  -18.0259   -5.4274   22.5632 F   0  0  0  0  0  0  0  0  0  0  0  0
  -22.6923   -4.7351   22.9519 F   0  0  0  0  0  0  0  0  0  0  0  0
  1  2  3  0  0  0  0
  1 57  1  0  0  0  0
  2 76  1  0  0  0  0
  3  4  1  0  0  0  0
  3  7  2  0  0  0  0
  4  8  2  0  0  0  0
  5 14  2  0  0  0  0
  5 22  1  0  0  0  0
  6 15  1  0  0  0  0
  6 22  2  0  0  0  0
  7 24  1  0  0  0  0
  8 26  1  0  0  0  0
  9 16  2  0  0  0  0
  9 25  1  0  0  0  0
 10 12  2  0  0  0  0
 10 29  1  0  0  0  0
 11 13  1  0  0  0  0
 11 29  2  0  0  0  0
 12 30  1  0  0  0  0
 13 30  2  0  0  0  0
 14 31  1  0  0  0  0
 15 31  2  0  0  0  0
 16 32  1  0  0  0  0
 17 18  2  0  0  0  0
 17 33  1  0  0  0  0
 18 34  1  0  0  0  0
 19 27  1  0  0  0  0
 19 32  2  0  0  0  0
 20 28  1  0  0  0  0
 20 38  2  0  0  0  0
 21 34  2  0  0  0  0
 21 35  1  0  0  0  0
 22 36  1  0  0  0  0
 23 36  1  0  0  0  0
 23 37  2  0  0  0  0
 23 40  1  0  0  0  0
 24 26  2  0  0  0  0
 24 45  1  0  0  0  0
 25 27  2  0  0  0  0
 25 46  1  0  0  0  0
 26 54  1  0  0  0  0
 27 47  1  0  0  0  0
 28 39  2  0  0  0  0
 28 63  1  0  0  0  0
 29 68  1  0  0  0  0
 30 76  1  0  0  0  0
 31 85  1  0  0  0  0
 32 86  1  0  0  0  0
 33 35  2  0  0  0  0
 33 85  1  0  0  0  0
 34 87  1  0  0  0  0
 35 88  1  0  0  0  0
 36 67  2  0  0  0  0
 37 69  1  0  0  0  0
 37 72  1  0  0  0  0
 38 68  1  0  0  0  0
 38 83  1  0  0  0  0
 39 68  1  0  0  0  0
 39 84  1  0  0  0  0
 40 73  1  0  0  0  0
 40 78  2  0  0  0  0
 41 55  1  0  0  0  0
 41 74  1  0  0  0  0
 41 79  2  0  0  0  0
 42 64  1  0  0  0  0
 42 70  1  0  0  0  0
 42 80  2  0  0  0  0
 43 65  1  0  0  0  0
 43 75  1  0  0  0  0
 43 81  2  0  0  0  0
 44 71  1  0  0  0  0
 44 76  1  0  0  0  0
 44 82  2  0  0  0  0
 45 48  1  0  0  0  0
 46 55  1  0  0  0  0
 47 70  1  0  0  0  0
 48 50  1  0  0  0  0
 49 51  1  0  0  0  0
 49 52  1  0  0  0  0
 50 54  1  0  0  0  0
 51 56  1  0  0  0  0
 52 71  1  0  0  0  0
 53 56  1  0  0  0  0
 53 71  1  0  0  0  0
 54 74  1  0  0  0  0
 55 70  1  0  0  0  0
 56 69  1  0  0  0  0
 58 65  1  0  0  0  0
 59 66  1  0  0  0  0
 60 66  1  0  0  0  0
 61 66  1  0  0  0  0
 62 77  1  0  0  0  0
 63 86  1  0  0  0  0
 64 66  1  0  0  0  0
 64 75  1  0  0  0  0
 65 77  1  0  0  0  0
 67 69  1  0  0  0  0
M  CHG  1  77   1
M  ISO  4  44 100  63 101  76 100  86 101
M  END
> <Batch ID>
0096

> <Smiles>
CC#C[100N:0](c1ccc(N2C(=O)CC([101CH2:1][101O:1]c3ccc4c(c3)CN(C(=O)C(NC(=O)C(C)NC)C(C)(C)C)C(C(=O)NC3CCCc5ccccc53)C4)C2=O)cc1)[100C:0](=O)N1CCCC(n2nc(-c3ccc(Oc4ccc(F)cc4F)cc3)c(C(N)=O)c2N)C1

> <Shape>
0.347

> <Color>
0.157

> <Negative vol penalty>
0.000

$$$$

  -OEChem-04052300463D

 88 97  0     1  0  0  0  0  0999 V2000
  -24.2346  -31.1255   24.6036 C   0  0  0  0  0  0  0  0  0  0  0  0
  -23.8303  -29.7958   24.6667 C   0  0  0  0  0  0  0  0  0  0  0  0
  -20.6024  -21.3786   22.9357 C   0  0  0  0  0  0  0  0  0  0  0  0
  -19.6364  -20.2120   21.0534 C   0  0  0  0  0  0  0  0  0  0  0  0
  -24.7206  -31.6491   23.4063 C   0  0  0  0  0  0  0  0  0  0  0  0
  -23.9108  -28.9893   23.5320 C   0  0  0  0  0  0  0  0  0  0  0  0
  -27.5798  -22.1714   22.4920 C   0  0  0  0  0  0  0  0  0  0  0  0
  -19.6556  -22.3929   22.7930 C   0  0  0  0  0  0  0  0  0  0  0  0
  -18.6895  -21.2263   20.9107 C   0  0  0  0  0  0  0  0  0  0  0  0
  -28.3187  -21.0415   22.1407 C   0  0  0  0  0  0  0  0  0  0  0  0
  -19.1671  -25.0818   20.8042 C   0  0  0  0  0  0  0  0  0  0  0  0
  -19.6153  -26.4006   20.8773 C   0  0  0  0  0  0  0  0  0  0  0  0
  -28.3753  -21.7811   19.8390 C   0  0  0  0  0  0  0  0  0  0  0  0
  -28.1734  -13.7116   18.0590 C   0  0  0  0  0  0  0  0  0  0  0  0
  -18.1663  -26.7881   22.7713 C   0  0  0  0  0  0  0  0  0  0  0  0
  -20.5928  -20.2881   22.0658 C   0  0  0  0  0  0  0  0  0  0  0  0
  -22.9708  -19.3673   22.1346 C   0  0  0  0  0  0  0  0  0  0  0  0
  -24.8161  -30.8459   22.2590 C   0  0  0  0  0  0  0  0  0  0  0  0
  -27.2487  -23.1194   21.5198 C   0  0  0  0  0  0  0  0  0  0  0  0
  -24.3973  -29.5030   22.3179 C   0  0  0  0  0  0  0  0  0  0  0  0
  -27.6460  -22.9211   20.1873 C   0  0  0  0  0  0  0  0  0  0  0  0
  -27.3410  -12.6777   18.5769 C   0  0  0  0  0  0  0  0  0  0  0  0
  -18.6992  -22.3168   21.7806 C   0  0  0  0  0  0  0  0  0  0  0  0
  -28.7152  -20.8467   20.8174 C   0  0  0  0  0  0  0  0  0  0  0  0
  -18.2184  -24.6161   21.7146 C   0  0  0  0  0  0  0  0  0  0  0  0
  -19.1149  -27.2537   21.8608 C   0  0  0  0  0  0  0  0  0  0  0  0
  -17.7180  -25.4692   22.6982 C   0  0  0  0  0  0  0  0  0  0  0  0
  -21.5709  -19.2403   22.2123 C   0  0  0  0  0  0  0  0  0  0  0  0
  -26.4868  -13.1412   19.5531 C   0  0  0  0  0  0  0  0  0  0  0  0
  -23.4430  -18.0941   22.3410 C   0  0  0  0  0  0  0  0  0  0  0  0
  -27.9234  -14.9263   18.6590 C   0  0  0  0  0  0  0  0  0  0  0  0
  -31.2993  -15.9955   19.2950 C   0  0  0  0  0  0  0  0  0  0  0  0
  -23.7727  -20.5319   21.8971 C   0  0  0  0  0  0  0  0  0  0  0  0
  -25.4680  -12.3995   20.3396 C   0  0  0  0  0  0  0  0  0  0  0  0
  -25.5638  -26.3772   20.7301 C   0  0  0  0  0  0  0  0  0  0  0  0
  -28.1753  -26.3118   19.1219 C   0  0  0  0  0  0  0  0  0  0  0  0
  -31.0371  -27.0750   17.4294 C   0  0  0  0  0  0  0  0  0  0  0  0
  -23.2702  -12.6277   21.4538 C   0  0  0  0  0  0  0  0  0  0  0  0
  -25.3036  -31.4693   20.9750 C   0  0  0  0  0  0  0  0  0  0  0  0
  -26.4015  -24.3205   21.8414 C   0  0  0  0  0  0  0  0  0  0  0  0
  -27.2374  -23.9499   19.1687 C   0  0  0  0  0  0  0  0  0  0  0  0
  -30.9354  -15.6359   17.8657 C   0  0  0  0  0  0  0  0  0  0  0  0
  -30.8940  -17.3524   19.8327 C   0  0  0  0  0  0  0  0  0  0  0  0
  -25.7080  -30.4464   19.9165 C   0  0  0  0  0  0  0  0  0  0  0  0
  -21.0589  -13.9054   23.8982 C   0  0  0  0  0  0  0  0  0  0  0  0
  -24.6486  -29.3557   19.7958 C   0  0  0  0  0  0  0  0  0  0  0  0
  -21.1141  -15.4197   23.6787 C   0  0  0  0  0  0  0  0  0  0  0  0
  -29.6217  -16.2341   17.3692 C   0  0  0  0  0  0  0  0  0  0  0  0
  -21.1205  -13.1382   22.5781 C   0  0  0  0  0  0  0  0  0  0  0  0
  -28.4069  -17.3151   19.2441 C   0  0  0  0  0  0  0  0  0  0  0  0
  -22.2954  -15.0039   21.4843 C   0  0  0  0  0  0  0  0  0  0  0  0
  -24.4926  -28.5897   21.1150 C   0  0  1  0  0  0  0  0  0  0  0  0
  -26.7918  -25.5689   21.0300 C   0  0  1  0  0  0  0  0  0  0  0  0
  -29.4563  -17.3368   20.3719 C   0  0  2  0  0  0  0  0  0  0  0  0
  -22.3073  -15.8191   22.7876 C   0  0  1  0  0  0  0  0  0  0  0  0
  -27.4001  -11.2713   18.1102 C   0  0  0  0  0  0  0  0  0  0  0  0
  -31.8874  -28.4755   15.5286 C   0  0  0  0  0  0  0  0  0  0  0  0
  -26.9710  -24.3374   17.1332 C   0  0  0  0  0  0  0  0  0  0  0  0
  -28.5846  -25.1890   15.4189 C   0  0  0  0  0  0  0  0  0  0  0  0
  -26.8900  -26.7294   16.4079 C   0  0  0  0  0  0  0  0  0  0  0  0
  -32.8545  -28.5907   19.2066 C   0  0  0  0  0  0  0  0  0  0  0  0
  -29.2233  -18.5650   21.2566 C   0  0  0  0  0  0  0  0  0  1  0  0
  -28.8486  -25.9726   17.8162 C   0  0  1  0  0  0  0  0  0  0  0  0
  -31.6459  -28.4066   17.0285 C   0  0  2  0  0  0  0  0  0  0  0  0
  -27.8329  -25.5466   16.7188 C   0  0  0  0  0  0  0  0  0  0  0  0
  -21.1793  -17.9856   22.4494 N   0  0  0  0  0  0  0  0  0  0  0  0
  -22.3402  -17.3124   22.5224 N   0  0  0  0  0  0  0  0  0  0  0  0
  -28.5631  -16.1354   18.3821 N   0  0  3  0  0  0  0  0  0  0  0  0
  -27.4132  -25.3019   19.7218 N   0  0  0  0  0  0  0  0  0  0  0  0
  -22.2827  -13.5672   21.7981 N   0  0  0  0  0  0  0  0  0  0  0  0
  -24.6898  -17.5782   22.3832 N   0  0  0  0  0  0  0  0  0  0  0  0
  -24.0984  -20.8604   20.5742 N   0  0  0  0  0  0  0  0  0  0  0  0
  -24.3606  -13.1448   20.7454 N   0  0  0  0  0  0  0  0  0  0  0  0
  -25.5755  -27.6441   21.2815 N   0  0  0  0  0  0  0  0  0  0  0  0
  -29.6598  -27.1322   17.4619 N   0  0  0  0  0  0  0  0  0  0  0  0
  -32.9479  -28.6112   17.7241 N   0  3  0  0  0  0  0  0  0  0  0  0
  -31.9428  -15.2091   19.9932 O   0  0  0  0  0  0  0  0  0  0  0  0
  -24.2017  -21.2504   22.8316 O   0  0  0  0  0  0  0  0  0  0  0  0
  -25.6306  -11.2005   20.5491 O   0  0  0  0  0  0  0  0  0  0  0  0
  -24.6710  -25.8889   20.0472 O   0  0  0  0  0  0  0  0  0  0  0  0
  -28.3148  -27.4425   19.5966 O   0  0  0  0  0  0  0  0  0  0  0  0
  -31.7153  -26.0823   17.6843 O   0  0  0  0  0  0  0  0  0  0  0  0
  -23.2058  -11.4388   21.7817 O   0  0  0  0  0  0  0  0  0  0  0  0
  -17.7750  -23.3062   21.6412 O   0  0  0  0  0  0  0  0  0  0  0  0
  -29.4402  -19.7437   20.4821 O   0  0  0  0  0  0  0  0  0  1  0  0
  -19.5466  -28.5198   21.9319 F   0  0  0  0  0  0  0  0  0  0  0  0
  -16.8074  -25.0272   23.5764 F   0  0  0  0  0  0  0  0  0  0  0  0
  -26.6899  -14.8169   19.8417 S   0  0  0  0  0  0  0  0  0  0  0  0
  1  2  1  0  0  0  0
  1  5  2  0  0  0  0
  2  6  2  0  0  0  0
  3  8  2  0  0  0  0
  3 16  1  0  0  0  0
  4  9  1  0  0  0  0
  4 16  2  0  0  0  0
  5 18  1  0  0  0  0
  6 20  1  0  0  0  0
  7 10  2  0  0  0  0
  7 19  1  0  0  0  0
  8 23  1  0  0  0  0
  9 23  2  0  0  0  0
 10 24  1  0  0  0  0
 11 12  2  0  0  0  0
 11 25  1  0  0  0  0
 12 26  1  0  0  0  0
 13 21  1  0  0  0  0
 13 24  2  0  0  0  0
 14 22  1  0  0  0  0
 14 31  2  0  0  0  0
 15 26  2  0  0  0  0
 15 27  1  0  0  0  0
 16 28  1  0  0  0  0
 17 28  1  0  0  0  0
 17 30  2  0  0  0  0
 17 33  1  0  0  0  0
 18 20  2  0  0  0  0
 18 39  1  0  0  0  0
 19 21  2  0  0  0  0
 19 40  1  0  0  0  0
 20 52  1  0  0  0  0
 21 41  1  0  0  0  0
 22 29  2  0  0  0  0
 22 56  1  0  0  0  0
 23 84  1  0  0  0  0
 24 85  1  0  0  0  0
 25 27  2  0  0  0  0
 25 84  1  0  0  0  0
 26 86  1  0  0  0  0
 27 87  1  0  0  0  0
 28 66  2  0  0  0  0
 29 34  1  0  0  0  0
 29 88  1  0  0  0  0
 30 67  1  0  0  0  0
 30 71  1  0  0  0  0
 31 68  1  0  0  0  0
 31 88  1  0  0  0  0
 32 42  1  0  0  0  0
 32 43  1  0  0  0  0
 32 77  2  0  0  0  0
 33 72  1  0  0  0  0
 33 78  2  0  0  0  0
 34 73  1  0  0  0  0
 34 79  2  0  0  0  0
 35 53  1  0  0  0  0
 35 74  1  0  0  0  0
 35 80  2  0  0  0  0
 36 63  1  0  0  0  0
 36 69  1  0  0  0  0
 36 81  2  0  0  0  0
 37 64  1  0  0  0  0
 37 75  1  0  0  0  0
 37 82  2  0  0  0  0
 38 70  1  0  0  0  0
 38 73  1  0  0  0  0
 38 83  2  0  0  0  0
 39 44  1  0  0  0  0
 40 53  1  0  0  0  0
 41 69  1  0  0  0  0
 42 48  1  0  0  0  0
 43 54  1  0  0  0  0
 44 46  1  0  0  0  0
 45 47  1  0  0  0  0
 45 49  1  0  0  0  0
 46 52  1  0  0  0  0
 47 55  1  0  0  0  0
 48 68  1  0  0  0  0
 49 70  1  0  0  0  0
 50 54  1  0  0  0  0
 50 68  1  0  0  0  0
 51 55  1  0  0  0  0
 51 70  1  0  0  0  0
 52 74  1  0  0  0  0
 53 69  1  0  0  0  0
 54 62  1  0  0  0  0
 55 67  1  0  0  0  0
 57 64  1  0  0  0  0
 58 65  1  0  0  0  0
 59 65  1  0  0  0  0
 60 65  1  0  0  0  0
 61 76  1  0  0  0  0
 62 85  1  0  0  0  0
 63 65  1  0  0  0  0
 63 75  1  0  0  0  0
 64 76  1  0  0  0  0
 66 67  1  0  0  0  0
M  CHG  1  76   1
M  ISO  4  38 100  62 101  73 100  85 101
M  END
> <Batch ID>
0096

> <Smiles>
CNC(C)C(=O)NC(C(=O)N1Cc2cc([101O:1][101CH2:1]C3CC(=O)CCN(c4cc(C)c(C(=O)[100NH:0][100C:0](=O)N5CCCC(n6nc(-c7ccc(Oc8ccc(F)cc8F)cc7)c(C(N)=O)c6N)C5)s4)C3)ccc2CC1C(=O)NC1CCCc2ccccc21)C(C)(C)C

> <Shape>
0.226

> <Color>
0.065

> <Negative vol penalty>
0.000

$$$$

  -OEChem-04052300463D

 81 89  0     1  0  0  0  0  0999 V2000
  -25.2179  -11.4513   21.0373 C   0  0  0  0  0  0  0  0  0  0  0  0
  -26.3245  -12.1961   20.6421 C   0  0  0  0  0  0  0  0  0  0  0  0
  -20.6695  -26.8074   22.0482 C   0  0  0  0  0  0  0  0  0  0  0  0
  -19.7287  -28.7603   23.1150 C   0  0  0  0  0  0  0  0  0  0  0  0
  -23.9586  -12.0478   21.0854 C   0  0  0  0  0  0  0  0  0  0  0  0
  -26.1722  -13.5377   20.2936 C   0  0  0  0  0  0  0  0  0  0  0  0
  -29.6494  -19.7963   20.5283 C   0  0  0  0  0  0  0  0  0  0  0  0
  -19.4527  -26.1414   22.1942 C   0  0  0  0  0  0  0  0  0  0  0  0
  -18.5119  -28.0944   23.2610 C   0  0  0  0  0  0  0  0  0  0  0  0
  -30.0296  -20.8490   19.6971 C   0  0  0  0  0  0  0  0  0  0  0  0
  -17.7684  -24.5414   24.6493 C   0  0  0  0  0  0  0  0  0  0  0  0
  -17.8019  -23.2255   25.1108 C   0  0  0  0  0  0  0  0  0  0  0  0
  -28.6925  -26.9845   20.0476 C   0  0  0  0  0  0  0  0  0  0  0  0
  -27.8192  -21.7948   19.8938 C   0  0  0  0  0  0  0  0  0  0  0  0
  -16.7350  -22.4840   23.0739 C   0  0  0  0  0  0  0  0  0  0  0  0
  -30.6737  -25.9834   20.4254 C   0  0  0  0  0  0  0  0  0  0  0  0
  -20.8076  -28.1169   22.5086 C   0  0  0  0  0  0  0  0  0  0  0  0
  -29.7350  -26.8170   20.9922 C   0  0  0  0  0  0  0  0  0  0  0  0
  -22.4750  -29.5978   21.2700 C   0  0  0  0  0  0  0  0  0  0  0  0
  -23.7924  -13.3999   20.7465 C   0  0  0  0  0  0  0  0  0  0  0  0
  -28.3458  -19.7290   21.0406 C   0  0  0  0  0  0  0  0  0  0  0  0
  -24.9092  -14.1525   20.3358 C   0  0  0  0  0  0  0  0  0  0  0  0
  -27.4257  -20.7415   20.7334 C   0  0  0  0  0  0  0  0  0  0  0  0
  -18.3738  -26.7849   22.8006 C   0  0  0  0  0  0  0  0  0  0  0  0
  -29.1136  -21.8469   19.3774 C   0  0  0  0  0  0  0  0  0  0  0  0
  -17.2181  -24.8286   23.4001 C   0  0  0  0  0  0  0  0  0  0  0  0
  -17.2853  -22.1968   24.3231 C   0  0  0  0  0  0  0  0  0  0  0  0
  -16.7014  -23.7999   22.6124 C   0  0  0  0  0  0  0  0  0  0  0  0
  -22.0645  -28.8052   22.3586 C   0  0  0  0  0  0  0  0  0  0  0  0
  -29.0257  -26.2479   18.9324 C   0  0  0  0  0  0  0  0  0  0  0  0
  -23.7367  -30.0210   21.6099 C   0  0  0  0  0  0  0  0  0  0  0  0
  -29.8411  -27.4086   22.3508 C   0  0  0  0  0  0  0  0  0  0  0  0
  -21.7781  -29.9226   20.0598 C   0  0  0  0  0  0  0  0  0  0  0  0
  -25.9344  -17.6751   20.7748 C   0  0  0  0  0  0  0  0  0  0  0  0
  -24.5627  -19.5988   22.9975 C   0  0  0  0  0  0  0  0  0  0  0  0
  -23.8051  -22.8200   24.4353 C   0  0  0  0  0  0  0  0  0  0  0  0
  -28.5065  -28.2312   24.2654 C   0  0  0  0  0  0  0  0  0  0  0  0
  -22.4039  -13.9883   20.7683 C   0  0  0  0  0  0  0  0  0  0  0  0
  -27.9592  -18.6011   21.9575 C   0  0  0  0  0  0  0  0  0  0  0  0
  -26.0200  -20.7263   21.2740 C   0  0  0  0  0  0  0  0  0  0  0  0
  -22.3886  -15.5146   20.7433 C   0  0  0  0  0  0  0  0  0  0  0  0
  -26.2489  -30.4374   25.8569 C   0  0  0  0  0  0  0  0  0  0  0  0
  -23.3448  -16.0406   19.6775 C   0  0  0  0  0  0  0  0  0  0  0  0
  -24.9793  -30.3292   25.0080 C   0  0  0  0  0  0  0  0  0  0  0  0
  -26.9541  -29.0891   25.9974 C   0  0  0  0  0  0  0  0  0  0  0  0
  -25.9663  -28.2899   23.8894 C   0  0  0  0  0  0  0  0  0  0  0  0
  -24.7884  -15.6169   19.9740 C   0  0  1  0  0  0  0  0  0  0  0  0
  -26.4536  -18.3605   22.0070 C   0  0  1  0  0  0  0  0  0  0  0  0
  -25.2578  -29.6347   23.6598 C   0  0  1  0  0  0  0  0  0  0  0  0
  -28.2953  -26.0708   17.6603 C   0  0  0  0  0  0  0  0  0  0  0  0
  -22.5420  -23.4202   26.5190 C   0  0  0  0  0  0  0  0  0  0  0  0
  -22.1646  -19.8404   21.1265 C   0  0  0  0  0  0  0  0  0  0  0  0
  -21.4119  -21.8210   22.4603 C   0  0  0  0  0  0  0  0  0  0  0  0
  -21.5796  -19.5804   23.5441 C   0  0  0  0  0  0  0  0  0  0  0  0
  -26.0715  -24.4027   25.4925 C   0  0  0  0  0  0  0  0  0  0  0  0
  -30.9753  -24.7411   18.2188 C   0  0  0  0  0  0  0  0  0  0  0  0
  -30.8531  -23.2693   18.5981 C   0  0  0  0  0  0  0  0  0  1  0  0
  -23.6948  -20.8332   22.9538 C   0  0  1  0  0  0  0  0  0  0  0  0
  -23.9144  -23.2106   25.8982 C   0  0  2  0  0  0  0  0  0  0  0  0
  -22.2385  -20.5183   22.5093 C   0  0  0  0  0  0  0  0  0  0  0  0
  -22.9904  -28.7276   23.3181 N   0  0  0  0  0  0  0  0  0  0  0  0
  -30.2318  -25.6435   19.1734 N   0  0  0  0  0  0  0  0  0  0  0  0
  -23.9953  -29.4770   22.8336 N   0  0  0  0  0  0  0  0  0  0  0  0
  -25.6881  -19.5993   22.1612 N   0  0  0  0  0  0  0  0  0  0  0  0
  -27.1899  -28.5022   24.6771 N   0  0  0  0  0  0  0  0  0  0  0  0
  -24.6391  -30.8015   20.9784 N   0  0  0  0  0  0  0  0  0  0  0  0
  -20.4897  -29.4041   19.8710 N   0  0  0  0  0  0  0  0  0  0  0  0
  -28.6291  -27.7114   22.9720 N   0  0  0  0  0  0  0  0  0  0  0  0
  -25.3539  -16.4449   21.0176 N   0  0  0  0  0  0  0  0  0  0  0  0
  -23.7970  -21.4509   24.2715 N   0  0  0  0  0  0  0  0  0  0  0  0
  -24.6924  -24.4737   26.0403 N   0  3  0  0  0  0  0  0  0  0  0  0
  -30.9516  -27.5571   22.8533 O   0  0  0  0  0  0  0  0  0  0  0  0
  -22.2894  -30.6375   19.1649 O   0  0  0  0  0  0  0  0  0  0  0  0
  -26.0505  -18.2226   19.6846 O   0  0  0  0  0  0  0  0  0  0  0  0
  -24.2575  -18.6713   23.7514 O   0  0  0  0  0  0  0  0  0  0  0  0
  -23.7304  -23.6466   23.5289 O   0  0  0  0  0  0  0  0  0  0  0  0
  -29.4907  -28.4671   24.9732 O   0  0  0  0  0  0  0  0  0  0  0  0
  -17.1862  -26.1354   22.9430 O   0  0  0  0  0  0  0  0  0  0  0  0
  -29.4819  -22.8752   18.5657 O   0  0  0  0  0  0  0  0  0  1  0  0
  -17.3189  -20.9331   24.7657 F   0  0  0  0  0  0  0  0  0  0  0  0
  -16.1726  -24.0695   21.4110 F   0  0  0  0  0  0  0  0  0  0  0  0
  1  2  1  0  0  0  0
  1  5  2  0  0  0  0
  2  6  2  0  0  0  0
  3  8  2  0  0  0  0
  3 17  1  0  0  0  0
  4  9  1  0  0  0  0
  4 17  2  0  0  0  0
  5 20  1  0  0  0  0
  6 22  1  0  0  0  0
  7 10  2  0  0  0  0
  7 21  1  0  0  0  0
  8 24  1  0  0  0  0
  9 24  2  0  0  0  0
 10 25  1  0  0  0  0
 11 12  2  0  0  0  0
 11 26  1  0  0  0  0
 12 27  1  0  0  0  0
 13 18  1  0  0  0  0
 13 30  2  0  0  0  0
 14 23  1  0  0  0  0
 14 25  2  0  0  0  0
 15 27  2  0  0  0  0
 15 28  1  0  0  0  0
 16 18  2  0  0  0  0
 16 62  1  0  0  0  0
 17 29  1  0  0  0  0
 18 32  1  0  0  0  0
 19 29  1  0  0  0  0
 19 31  2  0  0  0  0
 19 33  1  0  0  0  0
 20 22  2  0  0  0  0
 20 38  1  0  0  0  0
 21 23  2  0  0  0  0
 21 39  1  0  0  0  0
 22 47  1  0  0  0  0
 23 40  1  0  0  0  0
 24 78  1  0  0  0  0
 25 79  1  0  0  0  0
 26 28  2  0  0  0  0
 26 78  1  0  0  0  0
 27 80  1  0  0  0  0
 28 81  1  0  0  0  0
 29 61  2  0  0  0  0
 30 50  1  0  0  0  0
 30 62  1  0  0  0  0
 31 63  1  0  0  0  0
 31 66  1  0  0  0  0
 32 68  1  0  0  0  0
 32 72  2  0  0  0  0
 33 67  1  0  0  0  0
 33 73  2  0  0  0  0
 34 48  1  0  0  0  0
 34 69  1  0  0  0  0
 34 74  2  0  0  0  0
 35 58  1  0  0  0  0
 35 64  1  0  0  0  0
 35 75  2  0  0  0  0
 36 59  1  0  0  0  0
 36 70  1  0  0  0  0
 36 76  2  0  0  0  0
 37 65  1  0  0  0  0
 37 68  1  0  0  0  0
 37 77  2  0  0  0  0
 38 41  1  0  0  0  0
 39 48  1  0  0  0  0
 40 64  1  0  0  0  0
 41 43  1  0  0  0  0
 42 44  1  0  0  0  0
 42 45  1  0  0  0  0
 43 47  1  0  0  0  0
 44 49  1  0  0  0  0
 45 65  1  0  0  0  0
 46 49  1  0  0  0  0
 46 65  1  0  0  0  0
 47 69  1  0  0  0  0
 48 64  1  0  0  0  0
 49 63  1  0  0  0  0
 51 59  1  0  0  0  0
 52 60  1  0  0  0  0
 53 60  1  0  0  0  0
 54 60  1  0  0  0  0
 55 71  1  0  0  0  0
 56 57  1  0  0  0  0
 56 62  1  0  0  0  0
 57 79  1  0  0  0  0
 58 60  1  0  0  0  0
 58 70  1  0  0  0  0
 59 71  1  0  0  0  0
 61 63  1  0  0  0  0
M  CHG  1  71   1
M  ISO  4  37 100  57 101  68 100  79 101
M  END
> <Batch ID>
0096

> <Smiles>
CNC(C)C(=O)NC(C(=O)N1Cc2cc([101O:1][101CH2:1]Cn3cc(C(=O)[100NH:0][100C:0](=O)N4CCCC(n5nc(-c6ccc(Oc7ccc(F)cc7F)cc6)c(C(N)=O)c5N)C4)cc3C)ccc2CC1C(=O)NC1CCCc2ccccc21)C(C)(C)C

> <Shape>
0.240

> <Color>
0.068

> <Negative vol penalty>
0.000

$$$$

  -OEChem-04052300463D

 90 99  0     1  0  0  0  0  0999 V2000
  -34.4715   -9.7492   19.7887 C   0  0  0  0  0  0  0  0  0  0  0  0
  -33.9269  -10.6312   18.8608 C   0  0  0  0  0  0  0  0  0  0  0  0
  -22.4075  -24.3163   21.6647 C   0  0  0  0  0  0  0  0  0  0  0  0
  -22.9440  -24.3966   24.0190 C   0  0  0  0  0  0  0  0  0  0  0  0
  -30.0086  -27.9980   19.1804 C   0  0  0  0  0  0  0  0  0  0  0  0
  -33.6506   -9.1457   20.7404 C   0  0  0  0  0  0  0  0  0  0  0  0
  -32.5607  -10.9094   18.8835 C   0  0  0  0  0  0  0  0  0  0  0  0
  -31.1951  -17.2362   20.4416 C   0  0  0  0  0  0  0  0  0  0  0  0
  -30.1716  -26.8365   18.4255 C   0  0  0  0  0  0  0  0  0  0  0  0
  -22.4763  -22.9236   21.6965 C   0  0  0  0  0  0  0  0  0  0  0  0
  -23.0128  -23.0038   24.0508 C   0  0  0  0  0  0  0  0  0  0  0  0
  -31.0602  -18.5955   20.1584 C   0  0  0  0  0  0  0  0  0  0  0  0
  -24.8808  -20.5481   21.6878 C   0  0  0  0  0  0  0  0  0  0  0  0
  -25.5703  -19.9103   20.6566 C   0  0  0  0  0  0  0  0  0  0  0  0
  -28.9241  -18.1748   19.1063 C   0  0  0  0  0  0  0  0  0  0  0  0
  -29.6700  -25.4995   20.3744 C   0  0  0  0  0  0  0  0  0  0  0  0
  -23.5569  -18.7237   20.0441 C   0  0  0  0  0  0  0  0  0  0  0  0
  -22.6414  -25.0529   22.8260 C   0  0  0  0  0  0  0  0  0  0  0  0
  -29.6763  -27.9103   20.5323 C   0  0  0  0  0  0  0  0  0  0  0  0
  -21.4587  -27.2807   22.4447 C   0  0  0  0  0  0  0  0  0  0  0  0
  -32.2753   -9.4241   20.7809 C   0  0  0  0  0  0  0  0  0  0  0  0
  -30.1868  -16.3414   20.0714 C   0  0  0  0  0  0  0  0  0  0  0  0
  -31.7203  -10.3081   19.8358 C   0  0  0  0  0  0  0  0  0  0  0  0
  -29.0480  -16.8140   19.3989 C   0  0  0  0  0  0  0  0  0  0  0  0
  -30.0023  -25.5873   19.0225 C   0  0  0  0  0  0  0  0  0  0  0  0
  -22.7789  -22.2673   22.8895 C   0  0  0  0  0  0  0  0  0  0  0  0
  -29.9277  -19.0636   19.4921 C   0  0  0  0  0  0  0  0  0  0  0  0
  -23.5293  -20.2736   21.8972 C   0  0  0  0  0  0  0  0  0  0  0  0
  -24.9084  -18.9982   19.8347 C   0  0  0  0  0  0  0  0  0  0  0  0
  -29.5070  -26.6611   21.1293 C   0  0  0  0  0  0  0  0  0  0  0  0
  -22.8673  -19.3615   21.0754 C   0  0  0  0  0  0  0  0  0  0  0  0
  -22.5711  -26.4916   22.7937 C   0  0  0  0  0  0  0  0  0  0  0  0
  -21.9020  -28.5745   22.5721 C   0  0  0  0  0  0  0  0  0  0  0  0
  -30.4771  -24.3435   15.7724 C   0  0  0  0  0  0  0  0  0  0  0  0
  -29.4536  -23.2025   18.5417 C   0  0  0  0  0  0  0  0  0  0  0  0
  -29.5065  -29.1498   21.3328 C   0  0  0  0  0  0  0  0  0  0  0  0
  -20.1424  -26.8801   22.0416 C   0  0  0  0  0  0  0  0  0  0  0  0
  -28.9975  -12.8035   19.9429 C   0  0  0  0  0  0  0  0  0  0  0  0
  -26.4930  -14.6685   20.5769 C   0  0  0  0  0  0  0  0  0  0  0  0
  -24.8997  -11.7108   21.1770 C   0  0  0  0  0  0  0  0  0  0  0  0
  -27.8658  -30.4431   22.6674 C   0  0  0  0  0  0  0  0  0  0  0  0
  -31.4199   -8.7112   21.7982 C   0  0  0  0  0  0  0  0  0  0  0  0
  -30.3232  -14.8601   20.3005 C   0  0  0  0  0  0  0  0  0  0  0  0
  -28.0044  -15.8125   18.9903 C   0  0  0  0  0  0  0  0  0  0  0  0
  -29.0457  -23.8647   15.6970 C   0  0  0  0  0  0  0  0  0  0  0  0
  -31.1417  -24.4264   17.1332 C   0  0  0  0  0  0  0  0  0  0  0  0
  -30.0460   -9.3475   21.9919 C   0  0  0  0  0  0  0  0  0  0  0  0
  -28.8841  -22.4278   16.1902 C   0  0  0  0  0  0  0  0  0  0  0  0
  -25.2164  -30.9863   25.1556 C   0  0  0  0  0  0  0  0  0  0  0  0
  -29.4039   -9.6527   20.6423 C   0  0  0  0  0  0  0  0  0  0  0  0
  -24.0336  -30.1239   24.7109 C   0  0  0  0  0  0  0  0  0  0  0  0
  -26.0528  -31.4955   23.9896 C   0  0  0  0  0  0  0  0  0  0  0  0
  -25.6097  -29.2862   22.8990 C   0  0  0  0  0  0  0  0  0  0  0  0
  -30.2472  -10.6543   19.8440 C   0  0  1  0  0  0  0  0  0  0  0  0
  -29.6003  -22.0749   17.5087 C   0  0  2  0  0  0  0  0  0  0  0  0
  -28.9832  -14.1557   20.5931 C   0  0  1  0  0  0  0  0  0  0  0  0
  -24.1563  -29.6314   23.2594 C   0  0  1  0  0  0  0  0  0  0  0  0
  -22.8923  -10.7554   22.3409 C   0  0  0  0  0  0  0  0  0  0  0  0
  -27.9017  -14.9889   23.2645 C   0  0  0  0  0  0  0  0  0  0  0  0
  -26.3741  -13.2373   24.1952 C   0  0  0  0  0  0  0  0  0  0  0  0
  -25.4322  -15.3782   23.3281 C   0  0  0  0  0  0  0  0  0  0  0  0
  -23.7831  -10.6663   18.6430 C   0  0  0  0  0  0  0  0  0  0  0  0
  -29.0608  -20.7492   18.0552 C   0  0  0  0  0  0  0  0  0  1  0  0
  -26.3315  -13.6689   21.6967 C   0  0  1  0  0  0  0  0  0  0  0  0
  -23.4443  -11.3036   21.0342 C   0  0  2  0  0  0  0  0  0  0  0  0
  -26.5262  -14.3128   23.0985 C   0  0  0  0  0  0  0  0  0  0  0  0
  -23.6406  -27.2229   23.1182 N   0  0  0  0  0  0  0  0  0  0  0  0
  -23.2024  -28.4851   22.9736 N   0  0  0  0  0  0  0  0  0  0  0  0
  -30.1711  -24.3848   18.2408 N   0  0  0  0  0  0  0  0  0  0  0  0
  -27.7873  -14.8454   20.0722 N   0  0  0  0  0  0  0  0  0  0  0  0
  -26.5464  -30.3906   23.1638 N   0  0  0  0  0  0  0  0  0  0  0  0
  -21.3024  -29.7684   22.3786 N   0  0  0  0  0  0  0  0  0  0  0  0
  -19.1658  -26.7020   23.0310 N   0  0  0  0  0  0  0  0  0  0  0  0
  -28.2475  -29.3279   21.9072 N   0  0  0  0  0  0  0  0  0  0  0  0
  -30.0452  -11.9971   20.3446 N   0  0  0  0  0  0  0  0  0  0  0  0
  -25.0274  -13.0448   21.5017 N   0  0  0  0  0  0  0  0  0  0  0  0
  -23.3006  -10.2539   19.9861 N   0  3  0  0  0  0  0  0  0  0  0  0
  -31.1183  -24.5826   14.7475 O   0  0  0  0  0  0  0  0  0  0  0  0
  -28.6738  -23.0614   19.4859 O   0  0  0  0  0  0  0  0  0  0  0  0
  -30.4426  -29.9403   21.4154 O   0  0  0  0  0  0  0  0  0  0  0  0
  -19.8456  -26.6698   20.8411 O   0  0  0  0  0  0  0  0  0  0  0  0
  -28.1218  -12.5114   19.1368 O   0  0  0  0  0  0  0  0  0  0  0  0
  -25.5011  -15.2792   20.1698 O   0  0  0  0  0  0  0  0  0  0  0  0
  -25.8302  -10.9233   21.0202 O   0  0  0  0  0  0  0  0  0  0  0  0
  -28.6323  -31.3830   22.8967 O   0  0  0  0  0  0  0  0  0  0  0  0
  -22.8459  -20.9082   22.9209 O   0  0  0  0  0  0  0  0  0  0  0  0
  -29.8001  -20.3924   19.2224 O   0  0  0  0  0  0  0  0  0  1  0  0
  -25.5703  -18.3870   18.8435 F   0  0  0  0  0  0  0  0  0  0  0  0
  -29.1880  -26.5648   22.4280 F   0  0  0  0  0  0  0  0  0  0  0  0
  -21.5687  -19.0946   21.2709 F   0  0  0  0  0  0  0  0  0  0  0  0
  1  2  1  0  0  0  0
  1  6  2  0  0  0  0
  2  7  2  0  0  0  0
  3 10  2  0  0  0  0
  3 18  1  0  0  0  0
  4 11  1  0  0  0  0
  4 18  2  0  0  0  0
  5  9  2  0  0  0  0
  5 19  1  0  0  0  0
  6 21  1  0  0  0  0
  7 23  1  0  0  0  0
  8 12  2  0  0  0  0
  8 22  1  0  0  0  0
  9 25  1  0  0  0  0
 10 26  1  0  0  0  0
 11 26  2  0  0  0  0
 12 27  1  0  0  0  0
 13 14  2  0  0  0  0
 13 28  1  0  0  0  0
 14 29  1  0  0  0  0
 15 24  1  0  0  0  0
 15 27  2  0  0  0  0
 16 25  2  0  0  0  0
 16 30  1  0  0  0  0
 17 29  2  0  0  0  0
 17 31  1  0  0  0  0
 18 32  1  0  0  0  0
 19 30  2  0  0  0  0
 19 36  1  0  0  0  0
 20 32  1  0  0  0  0
 20 33  2  0  0  0  0
 20 37  1  0  0  0  0
 21 23  2  0  0  0  0
 21 42  1  0  0  0  0
 22 24  2  0  0  0  0
 22 43  1  0  0  0  0
 23 54  1  0  0  0  0
 24 44  1  0  0  0  0
 25 69  1  0  0  0  0
 26 86  1  0  0  0  0
 27 87  1  0  0  0  0
 28 31  2  0  0  0  0
 28 86  1  0  0  0  0
 29 88  1  0  0  0  0
 30 89  1  0  0  0  0
 31 90  1  0  0  0  0
 32 67  2  0  0  0  0
 33 68  1  0  0  0  0
 33 72  1  0  0  0  0
 34 45  1  0  0  0  0
 34 46  1  0  0  0  0
 34 78  2  0  0  0  0
 35 55  1  0  0  0  0
 35 69  1  0  0  0  0
 35 79  2  0  0  0  0
 36 74  1  0  0  0  0
 36 80  2  0  0  0  0
 37 73  1  0  0  0  0
 37 81  2  0  0  0  0
 38 56  1  0  0  0  0
 38 75  1  0  0  0  0
 38 82  2  0  0  0  0
 39 64  1  0  0  0  0
 39 70  1  0  0  0  0
 39 83  2  0  0  0  0
 40 65  1  0  0  0  0
 40 76  1  0  0  0  0
 40 84  2  0  0  0  0
 41 71  1  0  0  0  0
 41 74  1  0  0  0  0
 41 85  2  0  0  0  0
 42 47  1  0  0  0  0
 43 56  1  0  0  0  0
 44 70  1  0  0  0  0
 45 48  1  0  0  0  0
 46 69  1  0  0  0  0
 47 50  1  0  0  0  0
 48 55  1  0  0  0  0
 49 51  1  0  0  0  0
 49 52  1  0  0  0  0
 50 54  1  0  0  0  0
 51 57  1  0  0  0  0
 52 71  1  0  0  0  0
 53 57  1  0  0  0  0
 53 71  1  0  0  0  0
 54 75  1  0  0  0  0
 55 63  1  0  0  0  0
 56 70  1  0  0  0  0
 57 68  1  0  0  0  0
 58 65  1  0  0  0  0
 59 66  1  0  0  0  0
 60 66  1  0  0  0  0
 61 66  1  0  0  0  0
 62 77  1  0  0  0  0
 63 87  1  0  0  0  0
 64 66  1  0  0  0  0
 64 76  1  0  0  0  0
 65 77  1  0  0  0  0
 67 68  1  0  0  0  0
M  CHG  1  77   1
M  ISO  4  41 100  63 101  74 100  87 101
M  END
> <Batch ID>
0096

> <Smiles>
CNC(C)C(=O)NC(C(=O)N1Cc2cc([101O:1][101CH2:1]C3CCC(=O)CN(c4ccc(C(=O)[100NH:0][100C:0](=O)N5CCCC(n6nc(-c7ccc(Oc8ccc(F)cc8F)cc7)c(C(N)=O)c6N)C5)c(F)c4)C3=O)ccc2CC1C(=O)NC1CCCc2ccccc21)C(C)(C)C

> <Shape>
0.265

> <Color>
0.062

> <Negative vol penalty>
0.000

$$$$

  -OEChem-04052300463D

 86 95  0     1  0  0  0  0  0999 V2000
  -22.2913   -8.0915   20.6683 C   0  0  0  0  0  0  0  0  0  0  0  0
  -21.9713   -9.4427   20.5833 C   0  0  0  0  0  0  0  0  0  0  0  0
  -28.1709  -29.7619   20.4144 C   0  0  0  0  0  0  0  0  0  0  0  0
  -27.1961  -27.7524   21.3357 C   0  0  0  0  0  0  0  0  0  0  0  0
  -21.9096  -23.4334   19.8426 C   0  0  0  0  0  0  0  0  0  0  0  0
  -23.4826   -7.6953   21.2747 C   0  0  0  0  0  0  0  0  0  0  0  0
  -22.8419  -10.3985   21.1056 C   0  0  0  0  0  0  0  0  0  0  0  0
  -23.9171  -16.0037   18.8850 C   0  0  0  0  0  0  0  0  0  0  0  0
  -22.2258  -22.1351   19.4427 C   0  0  0  0  0  0  0  0  0  0  0  0
  -29.4201  -29.1422   20.3844 C   0  0  0  0  0  0  0  0  0  0  0  0
  -28.4454  -27.1326   21.3056 C   0  0  0  0  0  0  0  0  0  0  0  0
  -23.4270  -17.2612   19.2349 C   0  0  0  0  0  0  0  0  0  0  0  0
  -31.3095  -24.8998   21.1350 C   0  0  0  0  0  0  0  0  0  0  0  0
  -31.3751  -23.5943   20.6482 C   0  0  0  0  0  0  0  0  0  0  0  0
  -21.3114  -22.6126   22.0347 C   0  0  0  0  0  0  0  0  0  0  0  0
  -25.3741  -17.6305   20.6103 C   0  0  0  0  0  0  0  0  0  0  0  0
  -30.5018  -24.3427   18.5235 C   0  0  0  0  0  0  0  0  0  0  0  0
  -27.0588  -29.0670   20.8901 C   0  0  0  0  0  0  0  0  0  0  0  0
  -21.4525  -23.6722   21.1387 C   0  0  0  0  0  0  0  0  0  0  0  0
  -24.7963  -29.7112   19.9036 C   0  0  0  0  0  0  0  0  0  0  0  0
  -24.3729   -8.6472   21.7961 C   0  0  0  0  0  0  0  0  0  0  0  0
  -25.1361  -15.5450   19.4046 C   0  0  0  0  0  0  0  0  0  0  0  0
  -24.0457  -10.0146   21.7208 C   0  0  0  0  0  0  0  0  0  0  0  0
  -25.8786  -16.3679   20.2634 C   0  0  0  0  0  0  0  0  0  0  0  0
  -22.0847  -21.0755   20.3387 C   0  0  0  0  0  0  0  0  0  0  0  0
  -21.6275  -21.3142   21.6348 C   0  0  0  0  0  0  0  0  0  0  0  0
  -29.5574  -27.8276   20.8300 C   0  0  0  0  0  0  0  0  0  0  0  0
  -24.1541  -18.0736   20.1000 C   0  0  0  0  0  0  0  0  0  0  0  0
  -30.8400  -25.9268   20.3161 C   0  0  0  0  0  0  0  0  0  0  0  0
  -30.9713  -23.3157   19.3425 C   0  0  0  0  0  0  0  0  0  0  0  0
  -30.4362  -25.6482   19.0104 C   0  0  0  0  0  0  0  0  0  0  0  0
  -25.7682  -29.7068   20.9219 C   0  0  0  0  0  0  0  0  0  0  0  0
  -23.7603  -30.4499   20.4209 C   0  0  0  0  0  0  0  0  0  0  0  0
  -21.1145  -25.0581   21.5652 C   0  0  0  0  0  0  0  0  0  0  0  0
  -24.8271  -29.1020   18.6060 C   0  0  0  0  0  0  0  0  0  0  0  0
  -26.0152  -13.1038   21.2407 C   0  0  0  0  0  0  0  0  0  0  0  0
  -29.0009  -14.1803   20.5703 C   0  0  0  0  0  0  0  0  0  0  0  0
  -31.0005  -16.7839   19.6380 C   0  0  0  0  0  0  0  0  0  0  0  0
  -22.3752  -29.0758   25.2973 C   0  0  0  0  0  0  0  0  0  0  0  0
  -25.6264   -8.1683   22.4847 C   0  0  0  0  0  0  0  0  0  0  0  0
  -25.6639  -14.1970   18.9963 C   0  0  0  0  0  0  0  0  0  0  0  0
  -27.2027  -15.9304   20.8326 C   0  0  0  0  0  0  0  0  0  0  0  0
  -26.6712   -9.2642   22.6790 C   0  0  0  0  0  0  0  0  0  0  0  0
  -24.7260  -31.9223   24.8494 C   0  0  0  0  0  0  0  0  0  0  0  0
  -26.0215  -10.5297   23.2296 C   0  0  0  0  0  0  0  0  0  0  0  0
  -24.1919  -32.6007   23.5895 C   0  0  0  0  0  0  0  0  0  0  0  0
  -22.5987  -26.9270   22.2472 C   0  0  0  0  0  0  0  0  0  0  0  0
  -20.8708  -26.0164   23.8429 C   0  0  0  0  0  0  0  0  0  0  0  0
  -23.6388  -31.1607   25.5880 C   0  0  0  0  0  0  0  0  0  0  0  0
  -23.2526  -27.6496   23.4184 C   0  0  0  0  0  0  0  0  0  0  0  0
  -21.5546  -26.7689   24.9805 C   0  0  0  0  0  0  0  0  0  0  0  0
  -22.3743  -30.8239   23.4893 C   0  0  0  0  0  0  0  0  0  0  0  0
  -24.9760  -11.0826   22.2535 C   0  0  1  0  0  0  0  0  0  0  0  0
  -21.8491  -25.6778   22.7160 C   0  0  0  0  0  0  0  0  0  0  0  0
  -26.6680  -13.6223   19.9906 C   0  0  1  0  0  0  0  0  0  0  0  0
  -23.3769  -31.6669   22.6718 C   0  0  2  0  0  0  0  0  0  0  0  0
  -33.4036  -17.3678   19.2118 C   0  0  0  0  0  0  0  0  0  0  0  0
  -29.5129  -14.2571   23.5772 C   0  0  0  0  0  0  0  0  0  0  0  0
  -31.5049  -15.7065   23.1306 C   0  0  0  0  0  0  0  0  0  0  0  0
  -31.4219  -13.3872   22.2158 C   0  0  0  0  0  0  0  0  0  0  0  0
  -30.4512  -17.4805   16.8145 C   0  0  0  0  0  0  0  0  0  0  0  0
  -22.4275  -19.6945   19.8824 C   0  0  0  0  0  0  0  0  0  1  0  0
  -29.9465  -15.1728   21.2025 C   0  0  1  0  0  0  0  0  0  0  0  0
  -32.0990  -16.8872   18.5954 C   0  0  2  0  0  0  0  0  0  0  0  0
  -30.5707  -14.6386   22.5225 C   0  0  0  0  0  0  0  0  0  0  0  0
  -25.3841  -30.3887   22.0043 N   0  0  0  0  0  0  0  0  0  0  0  0
  -20.1829  -25.7237   20.9602 N   0  0  0  0  0  0  0  0  0  0  0  0
  -24.1593  -30.8286   21.6689 N   0  0  0  0  0  0  0  0  0  0  0  0
  -27.6734  -14.6015   20.4085 N   0  0  0  0  0  0  0  0  0  0  0  0
  -22.9380  -30.2280   24.7100 N   0  0  0  0  0  0  0  0  0  0  0  0
  -22.2900  -27.9323   24.4870 N   0  0  0  0  0  0  0  0  0  0  0  0
  -21.4766  -20.2529   22.5543 N   0  0  0  0  0  0  0  0  0  0  0  0
  -22.5561  -30.8060   19.9254 N   0  0  0  0  0  0  0  0  0  0  0  0
  -25.9686  -28.3788   18.2344 N   0  0  0  0  0  0  0  0  0  0  0  0
  -25.6222  -11.7813   21.1632 N   0  0  0  0  0  0  0  0  0  0  0  0
  -30.9240  -15.5165   20.1755 N   0  0  0  0  0  0  0  0  0  0  0  0
  -31.7061  -17.8434   17.5219 N   0  3  0  0  0  0  0  0  0  0  0  0
  -23.8773  -29.2099   17.7937 O   0  0  0  0  0  0  0  0  0  0  0  0
  -25.8795  -13.8481   22.2047 O   0  0  0  0  0  0  0  0  0  0  0  0
  -29.4260  -13.0747   20.2259 O   0  0  0  0  0  0  0  0  0  0  0  0
  -30.2845  -17.7337   19.9475 O   0  0  0  0  0  0  0  0  0  0  0  0
  -21.9695  -29.0732   26.4663 O   0  0  0  0  0  0  0  0  0  0  0  0
  -30.7762  -27.2225   20.8006 O   0  0  0  0  0  0  0  0  0  0  0  0
  -23.6743  -19.3100   20.4461 O   0  0  0  0  0  0  0  0  0  1  0  0
  -31.0358  -22.0623   18.8747 F   0  0  0  0  0  0  0  0  0  0  0  0
  -29.9853  -26.6308   18.2185 F   0  0  0  0  0  0  0  0  0  0  0  0
  1  2  1  0  0  0  0
  1  6  2  0  0  0  0
  2  7  2  0  0  0  0
  3 10  2  0  0  0  0
  3 18  1  0  0  0  0
  4 11  1  0  0  0  0
  4 18  2  0  0  0  0
  5  9  2  0  0  0  0
  5 19  1  0  0  0  0
  6 21  1  0  0  0  0
  7 23  1  0  0  0  0
  8 12  2  0  0  0  0
  8 22  1  0  0  0  0
  9 25  1  0  0  0  0
 10 27  1  0  0  0  0
 11 27  2  0  0  0  0
 12 28  1  0  0  0  0
 13 14  2  0  0  0  0
 13 29  1  0  0  0  0
 14 30  1  0  0  0  0
 15 19  2  0  0  0  0
 15 26  1  0  0  0  0
 16 24  1  0  0  0  0
 16 28  2  0  0  0  0
 17 30  2  0  0  0  0
 17 31  1  0  0  0  0
 18 32  1  0  0  0  0
 19 34  1  0  0  0  0
 20 32  1  0  0  0  0
 20 33  2  0  0  0  0
 20 35  1  0  0  0  0
 21 23  2  0  0  0  0
 21 40  1  0  0  0  0
 22 24  2  0  0  0  0
 22 41  1  0  0  0  0
 23 53  1  0  0  0  0
 24 42  1  0  0  0  0
 25 26  2  0  0  0  0
 25 62  1  0  0  0  0
 26 72  1  0  0  0  0
 27 83  1  0  0  0  0
 28 84  1  0  0  0  0
 29 31  2  0  0  0  0
 29 83  1  0  0  0  0
 30 85  1  0  0  0  0
 31 86  1  0  0  0  0
 32 66  2  0  0  0  0
 33 68  1  0  0  0  0
 33 73  1  0  0  0  0
 34 54  1  0  0  0  0
 34 67  2  0  0  0  0
 35 74  1  0  0  0  0
 35 78  2  0  0  0  0
 36 55  1  0  0  0  0
 36 75  1  0  0  0  0
 36 79  2  0  0  0  0
 37 63  1  0  0  0  0
 37 69  1  0  0  0  0
 37 80  2  0  0  0  0
 38 64  1  0  0  0  0
 38 76  1  0  0  0  0
 38 81  2  0  0  0  0
 39 70  1  0  0  0  0
 39 71  1  0  0  0  0
 39 82  2  0  0  0  0
 40 43  1  0  0  0  0
 41 55  1  0  0  0  0
 42 69  1  0  0  0  0
 43 45  1  0  0  0  0
 44 46  1  0  0  0  0
 44 49  1  0  0  0  0
 45 53  1  0  0  0  0
 46 56  1  0  0  0  0
 47 50  1  0  0  0  0
 47 54  1  0  0  0  0
 48 51  1  0  0  0  0
 48 54  1  0  0  0  0
 49 70  1  0  0  0  0
 50 71  1  0  0  0  0
 51 71  1  0  0  0  0
 52 56  1  0  0  0  0
 52 70  1  0  0  0  0
 53 75  1  0  0  0  0
 55 69  1  0  0  0  0
 56 68  1  0  0  0  0
 57 64  1  0  0  0  0
 58 65  1  0  0  0  0
 59 65  1  0  0  0  0
 60 65  1  0  0  0  0
 61 77  1  0  0  0  0
 62 84  1  0  0  0  0
 63 65  1  0  0  0  0
 63 76  1  0  0  0  0
 64 77  1  0  0  0  0
 66 68  1  0  0  0  0
M  CHG  1  77   1
M  ISO  4  39 100  62 101  71 100  84 101
M  END
> <Batch ID>
0096

> <Smiles>
CNC(C)C(=O)NC(C(=O)N1Cc2cc([101O:1][101CH2:1]c3ccc(C(=N)C4CC[100N:0]([100C:0](=O)N5CCCC(n6nc(-c7ccc(Oc8ccc(F)cc8F)cc7)c(C(N)=O)c6N)C5)CC4)cc3N)ccc2CC1C(=O)NC1CCCc2ccccc21)C(C)(C)C

> <Shape>
0.270

> <Color>
0.054

> <Negative vol penalty>
0.000

$$$$

  -OEChem-04052300463D

 83 91  0     1  0  0  0  0  0999 V2000
  -16.9265  -27.5694   20.8184 C   0  0  0  0  0  0  0  0  0  0  0  0
  -17.9705  -26.7374   21.2097 C   0  0  0  0  0  0  0  0  0  0  0  0
  -23.1371  -10.3614   20.9301 C   0  0  0  0  0  0  0  0  0  0  0  0
  -24.6148   -8.9891   22.2607 C   0  0  0  0  0  0  0  0  0  0  0  0
  -27.3893  -20.5704   20.7524 C   0  0  0  0  0  0  0  0  0  0  0  0
  -17.1342  -28.9441   20.7131 C   0  0  0  0  0  0  0  0  0  0  0  0
  -19.2232  -27.2794   21.4949 C   0  0  0  0  0  0  0  0  0  0  0  0
  -21.2470  -25.3729   25.7275 C   0  0  0  0  0  0  0  0  0  0  0  0
  -26.4325  -21.2645   21.4929 C   0  0  0  0  0  0  0  0  0  0  0  0
  -22.2958   -9.2661   20.7349 C   0  0  0  0  0  0  0  0  0  0  0  0
  -23.7735   -7.8938   22.0655 C   0  0  0  0  0  0  0  0  0  0  0  0
  -21.8224  -24.1058   25.6434 C   0  0  0  0  0  0  0  0  0  0  0  0
  -20.8517   -6.7452   23.3163 C   0  0  0  0  0  0  0  0  0  0  0  0
  -20.5481   -5.9571   24.4264 C   0  0  0  0  0  0  0  0  0  0  0  0
  -24.0083  -25.1151   25.4936 C   0  0  0  0  0  0  0  0  0  0  0  0
  -25.8846  -19.2363   22.6860 C   0  0  0  0  0  0  0  0  0  0  0  0
  -21.5244   -4.0378   23.3309 C   0  0  0  0  0  0  0  0  0  0  0  0
  -24.2967  -10.2229   21.6930 C   0  0  0  0  0  0  0  0  0  0  0  0
  -27.5937  -19.2092   20.9786 C   0  0  0  0  0  0  0  0  0  0  0  0
  -25.1052  -12.2982   22.9369 C   0  0  0  0  0  0  0  0  0  0  0  0
  -18.3874  -29.5044   21.0065 C   0  0  0  0  0  0  0  0  0  0  0  0
  -22.0483  -26.5229   25.6843 C   0  0  0  0  0  0  0  0  0  0  0  0
  -19.4482  -28.6627   21.3922 C   0  0  0  0  0  0  0  0  0  0  0  0
  -23.4408  -26.3955   25.5800 C   0  0  0  0  0  0  0  0  0  0  0  0
  -25.6802  -20.5975   22.4597 C   0  0  0  0  0  0  0  0  0  0  0  0
  -22.6139   -8.0323   21.3025 C   0  0  0  0  0  0  0  0  0  0  0  0
  -23.2030  -23.9768   25.5235 C   0  0  0  0  0  0  0  0  0  0  0  0
  -21.4916   -6.1795   22.2134 C   0  0  0  0  0  0  0  0  0  0  0  0
  -20.8845   -4.6034   24.4338 C   0  0  0  0  0  0  0  0  0  0  0  0
  -26.8413  -18.5422   21.9454 C   0  0  0  0  0  0  0  0  0  0  0  0
  -21.8280   -4.8259   22.2208 C   0  0  0  0  0  0  0  0  0  0  0  0
  -25.1664  -11.3538   21.8946 C   0  0  0  0  0  0  0  0  0  0  0  0
  -26.1413  -13.1621   22.6787 C   0  0  0  0  0  0  0  0  0  0  0  0
  -28.6133  -18.4739   20.1871 C   0  0  0  0  0  0  0  0  0  0  0  0
  -24.1934  -12.3865   24.0398 C   0  0  0  0  0  0  0  0  0  0  0  0
  -22.2885  -29.0173   23.7288 C   0  0  0  0  0  0  0  0  0  0  0  0
  -24.3691  -30.0846   25.9770 C   0  0  0  0  0  0  0  0  0  0  0  0
  -26.5214  -29.3403   28.5188 C   0  0  0  0  0  0  0  0  0  0  0  0
  -29.1536  -16.2637   19.2140 C   0  0  0  0  0  0  0  0  0  0  0  0
  -18.5768  -30.9905   20.8327 C   0  0  0  0  0  0  0  0  0  0  0  0
  -21.4144  -27.8817   25.8030 C   0  0  0  0  0  0  0  0  0  0  0  0
  -24.3470  -27.5982   25.5495 C   0  0  0  0  0  0  0  0  0  0  0  0
  -19.8321  -31.5285   21.5148 C   0  0  0  0  0  0  0  0  0  0  0  0
  -29.9684  -12.8277   19.3778 C   0  0  0  0  0  0  0  0  0  0  0  0
  -21.0314  -30.6386   21.2043 C   0  0  0  0  0  0  0  0  0  0  0  0
  -28.7913  -12.2133   20.1402 C   0  0  0  0  0  0  0  0  0  0  0  0
  -29.5143  -13.9389   18.4324 C   0  0  0  0  0  0  0  0  0  0  0  0
  -27.5210  -14.3723   19.8097 C   0  0  0  0  0  0  0  0  0  0  0  0
  -20.8147  -29.2159   21.7340 C   0  0  1  0  0  0  0  0  0  0  0  0
  -22.2827  -28.9981   25.2313 C   0  0  1  0  0  0  0  0  0  0  0  0
  -27.9348  -13.2963   20.8266 C   0  0  1  0  0  0  0  0  0  0  0  0
  -28.1049  -30.4196   30.1388 C   0  0  0  0  0  0  0  0  0  0  0  0
  -26.4078  -30.4506   23.7365 C   0  0  0  0  0  0  0  0  0  0  0  0
  -28.1957  -30.6021   25.4826 C   0  0  0  0  0  0  0  0  0  0  0  0
  -26.3671  -32.2978   25.4220 C   0  0  0  0  0  0  0  0  0  0  0  0
  -24.9841  -28.3633   30.8514 C   0  0  0  0  0  0  0  0  0  0  0  0
  -23.9080  -20.6756   24.2144 C   0  0  0  0  0  0  0  0  0  0  0  0
  -22.9862  -21.7096   24.8388 C   0  0  0  0  0  0  0  0  0  1  0  0
  -25.8549  -29.9502   26.2083 C   0  0  1  0  0  0  0  0  0  0  0  0
  -26.6832  -29.9319   29.9074 C   0  0  2  0  0  0  0  0  0  0  0  0
  -26.6894  -30.8023   25.2110 C   0  0  0  0  0  0  0  0  0  0  0  0
  -26.1625  -11.5950   21.0381 N   0  0  0  0  0  0  0  0  0  0  0  0
  -26.7367  -12.7008   21.5416 N   0  0  0  0  0  0  0  0  0  0  0  0
  -23.6790  -28.9053   25.6624 N   0  0  0  0  0  0  0  0  0  0  0  0
  -28.7180  -14.9281   19.1609 N   0  0  0  0  0  0  0  0  0  0  0  0
  -26.5920  -14.2637   23.3156 N   0  0  0  0  0  0  0  0  0  0  0  0
  -23.1881  -11.4168   24.1549 N   0  0  0  0  0  0  0  0  0  0  0  0
  -24.7302  -21.2866   23.1952 N   0  0  0  0  0  0  0  0  0  0  0  0
  -28.3468  -17.1218   19.9696 N   0  0  0  0  0  0  0  0  0  0  0  0
  -21.0369  -29.1695   23.1633 N   0  0  0  0  0  0  0  0  0  0  0  0
  -26.0811  -30.2804   27.6112 N   0  0  0  0  0  0  0  0  0  0  0  0
  -26.3613  -28.9123   30.9456 N   0  3  0  0  0  0  0  0  0  0  0  0
  -29.5838  -19.0845   19.7476 O   0  0  0  0  0  0  0  0  0  0  0  0
  -24.2579  -13.3078   24.8887 O   0  0  0  0  0  0  0  0  0  0  0  0
  -23.3500  -28.9040   23.1272 O   0  0  0  0  0  0  0  0  0  0  0  0
  -23.8392  -31.1938   26.0788 O   0  0  0  0  0  0  0  0  0  0  0  0
  -26.7650  -28.1629   28.2638 O   0  0  0  0  0  0  0  0  0  0  0  0
  -30.1914  -16.6511   18.6681 O   0  0  0  0  0  0  0  0  0  0  0  0
  -21.7931   -6.9634   21.1124 O   0  0  0  0  0  0  0  0  0  0  0  0
  -23.7673  -22.7412   25.4406 O   0  0  0  0  0  0  0  0  0  1  0  0
  -20.5942   -3.8471   25.5005 F   0  0  0  0  0  0  0  0  0  0  0  0
  -27.0279  -17.2337   22.1692 F   0  0  0  0  0  0  0  0  0  0  0  0
  -22.4439   -4.2771   21.1647 F   0  0  0  0  0  0  0  0  0  0  0  0
  1  2  1  0  0  0  0
  1  6  2  0  0  0  0
  2  7  2  0  0  0  0
  3 10  2  0  0  0  0
  3 18  1  0  0  0  0
  4 11  1  0  0  0  0
  4 18  2  0  0  0  0
  5  9  2  0  0  0  0
  5 19  1  0  0  0  0
  6 21  1  0  0  0  0
  7 23  1  0  0  0  0
  8 12  2  0  0  0  0
  8 22  1  0  0  0  0
  9 25  1  0  0  0  0
 10 26  1  0  0  0  0
 11 26  2  0  0  0  0
 12 27  1  0  0  0  0
 13 14  2  0  0  0  0
 13 28  1  0  0  0  0
 14 29  1  0  0  0  0
 15 24  1  0  0  0  0
 15 27  2  0  0  0  0
 16 25  2  0  0  0  0
 16 30  1  0  0  0  0
 17 29  2  0  0  0  0
 17 31  1  0  0  0  0
 18 32  1  0  0  0  0
 19 30  2  0  0  0  0
 19 34  1  0  0  0  0
 20 32  1  0  0  0  0
 20 33  2  0  0  0  0
 20 35  1  0  0  0  0
 21 23  2  0  0  0  0
 21 40  1  0  0  0  0
 22 24  2  0  0  0  0
 22 41  1  0  0  0  0
 23 49  1  0  0  0  0
 24 42  1  0  0  0  0
 25 68  1  0  0  0  0
 26 79  1  0  0  0  0
 27 80  1  0  0  0  0
 28 31  2  0  0  0  0
 28 79  1  0  0  0  0
 29 81  1  0  0  0  0
 30 82  1  0  0  0  0
 31 83  1  0  0  0  0
 32 62  2  0  0  0  0
 33 63  1  0  0  0  0
 33 66  1  0  0  0  0
 34 69  1  0  0  0  0
 34 73  2  0  0  0  0
 35 67  1  0  0  0  0
 35 74  2  0  0  0  0
 36 50  1  0  0  0  0
 36 70  1  0  0  0  0
 36 75  2  0  0  0  0
 37 59  1  0  0  0  0
 37 64  1  0  0  0  0
 37 76  2  0  0  0  0
 38 60  1  0  0  0  0
 38 71  1  0  0  0  0
 38 77  2  0  0  0  0
 39 65  1  0  0  0  0
 39 69  1  0  0  0  0
 39 78  2  0  0  0  0
 40 43  1  0  0  0  0
 41 50  1  0  0  0  0
 42 64  1  0  0  0  0
 43 45  1  0  0  0  0
 44 46  1  0  0  0  0
 44 47  1  0  0  0  0
 45 49  1  0  0  0  0
 46 51  1  0  0  0  0
 47 65  1  0  0  0  0
 48 51  1  0  0  0  0
 48 65  1  0  0  0  0
 49 70  1  0  0  0  0
 50 64  1  0  0  0  0
 51 63  1  0  0  0  0
 52 60  1  0  0  0  0
 53 61  1  0  0  0  0
 54 61  1  0  0  0  0
 55 61  1  0  0  0  0
 56 72  1  0  0  0  0
 57 58  1  0  0  0  0
 57 68  1  0  0  0  0
 58 80  1  0  0  0  0
 59 61  1  0  0  0  0
 59 71  1  0  0  0  0
 60 72  1  0  0  0  0
 62 63  1  0  0  0  0
M  CHG  1  72   1
M  ISO  4  39 100  58 101  69 100  80 101
M  END
> <Batch ID>
0096

> <Smiles>
CNC(C)C(=O)NC(C(=O)N1Cc2cc([101O:1][101CH2:1]CNc3ccc(C(=O)[100NH:0][100C:0](=O)N4CCCC(n5nc(-c6ccc(Oc7ccc(F)cc7F)cc6)c(C(N)=O)c5N)C4)c(F)c3)ccc2CC1C(=O)NC1CCCc2ccccc21)C(C)(C)C

> <Shape>
0.238

> <Color>
0.123

> <Negative vol penalty>
0.000

$$$$

  -OEChem-04052300463D

 89 98  0     1  0  0  0  0  0999 V2000
  -30.9284  -31.1410   25.4944 C   0  0  0  0  0  0  0  0  0  0  0  0
  -30.1788  -30.1642   24.8467 C   0  0  0  0  0  0  0  0  0  0  0  0
  -24.5105   -8.9495   21.6267 C   0  0  0  0  0  0  0  0  0  0  0  0
  -22.7652  -10.0246   20.3481 C   0  0  0  0  0  0  0  0  0  0  0  0
  -30.2945  -32.2558   26.0415 C   0  0  0  0  0  0  0  0  0  0  0  0
  -28.7948  -30.3011   24.7468 C   0  0  0  0  0  0  0  0  0  0  0  0
  -27.0649  -29.2186   20.1121 C   0  0  0  0  0  0  0  0  0  0  0  0
  -26.5375  -19.4133   21.0387 C   0  0  0  0  0  0  0  0  0  0  0  0
  -26.2489  -18.5925   22.1289 C   0  0  0  0  0  0  0  0  0  0  0  0
  -23.7124   -7.8135   21.7610 C   0  0  0  0  0  0  0  0  0  0  0  0
  -21.9671   -8.8886   20.4822 C   0  0  0  0  0  0  0  0  0  0  0  0
  -26.9488  -27.8709   19.7745 C   0  0  0  0  0  0  0  0  0  0  0  0
  -21.0947   -6.8184   23.6535 C   0  0  0  0  0  0  0  0  0  0  0  0
  -21.0154   -6.2283   24.9149 C   0  0  0  0  0  0  0  0  0  0  0  0
  -24.5823  -27.9663   20.2329 C   0  0  0  0  0  0  0  0  0  0  0  0
  -25.1872  -21.1693   22.0030 C   0  0  0  0  0  0  0  0  0  0  0  0
  -21.9128   -4.1754   24.0109 C   0  0  0  0  0  0  0  0  0  0  0  0
  -24.0369  -10.0551   20.9203 C   0  0  0  0  0  0  0  0  0  0  0  0
  -26.1297  -11.3108   20.1780 C   0  0  0  0  0  0  0  0  0  0  0  0
  -28.9031  -32.4112   25.9398 C   0  0  0  0  0  0  0  0  0  0  0  0
  -25.9407  -29.9487   20.5237 C   0  0  0  0  0  0  0  0  0  0  0  0
  -28.1415  -31.4183   25.2943 C   0  0  0  0  0  0  0  0  0  0  0  0
  -24.6864  -29.3238   20.5727 C   0  0  0  0  0  0  0  0  0  0  0  0
  -26.0068  -20.7017   20.9757 C   0  0  0  0  0  0  0  0  0  0  0  0
  -25.4293  -19.0601   23.1562 C   0  0  0  0  0  0  0  0  0  0  0  0
  -22.4407   -7.7830   21.1887 C   0  0  0  0  0  0  0  0  0  0  0  0
  -25.7078  -27.2438   19.8376 C   0  0  0  0  0  0  0  0  0  0  0  0
  -21.5829   -6.0870   22.5708 C   0  0  0  0  0  0  0  0  0  0  0  0
  -24.8985  -20.3485   23.0933 C   0  0  0  0  0  0  0  0  0  0  0  0
  -21.4245   -4.9068   25.0936 C   0  0  0  0  0  0  0  0  0  0  0  0
  -21.9920   -4.7655   22.7495 C   0  0  0  0  0  0  0  0  0  0  0  0
  -24.8607  -11.2291   20.7818 C   0  0  0  0  0  0  0  0  0  0  0  0
  -26.4848  -12.6317   20.3023 C   0  0  0  0  0  0  0  0  0  0  0  0
  -26.5450  -20.9292   18.5949 C   0  0  0  0  0  0  0  0  0  0  0  0
  -26.3507  -22.9565   20.0673 C   0  0  0  0  0  0  0  0  0  0  0  0
  -26.9171  -10.2843   19.5598 C   0  0  0  0  0  0  0  0  0  0  0  0
  -25.1083  -31.4746   23.1850 C   0  0  0  0  0  0  0  0  0  0  0  0
  -22.5642  -32.3972   21.3965 C   0  0  0  0  0  0  0  0  0  0  0  0
  -20.0377  -32.7612   19.1313 C   0  0  0  0  0  0  0  0  0  0  0  0
  -25.0935  -16.7950   24.1297 C   0  0  0  0  0  0  0  0  0  0  0  0
  -28.2572  -33.6100   26.5883 C   0  0  0  0  0  0  0  0  0  0  0  0
  -26.0780  -31.4086   20.8588 C   0  0  0  0  0  0  0  0  0  0  0  0
  -23.4452  -30.0685   20.9888 C   0  0  0  0  0  0  0  0  0  0  0  0
  -27.0198  -21.8162   17.4625 C   0  0  0  0  0  0  0  0  0  0  0  0
  -26.8295  -33.8647   26.1119 C   0  0  0  0  0  0  0  0  0  0  0  0
  -27.5064  -23.1757   17.9067 C   0  0  0  0  0  0  0  0  0  0  0  0
  -24.6011  -17.0103   20.6148 C   0  0  0  0  0  0  0  0  0  0  0  0
  -26.0284  -32.5666   26.1079 C   0  0  0  0  0  0  0  0  0  0  0  0
  -24.7264  -15.5446   20.2006 C   0  0  0  0  0  0  0  0  0  0  0  0
  -23.8514  -17.1692   21.9379 C   0  0  0  0  0  0  0  0  0  0  0  0
  -24.5355  -14.8943   22.6320 C   0  0  0  0  0  0  0  0  0  0  0  0
  -26.6409  -31.5434   25.1439 C   0  0  1  0  0  0  0  0  0  0  0  0
  -26.4462  -23.7942   18.8001 C   0  0  2  0  0  0  0  0  0  0  0  0
  -24.9586  -31.9229   21.7588 C   0  0  1  0  0  0  0  0  0  0  0  0
  -25.3350  -14.7004   21.3341 C   0  0  1  0  0  0  0  0  0  0  0  0
  -17.7826  -33.8255   18.8497 C   0  0  0  0  0  0  0  0  0  0  0  0
  -21.3209  -30.2156   23.1299 C   0  0  0  0  0  0  0  0  0  0  0  0
  -19.1124  -30.7267   22.0670 C   0  0  0  0  0  0  0  0  0  0  0  0
  -20.2882  -32.4773   23.3995 C   0  0  0  0  0  0  0  0  0  0  0  0
  -25.1310  -18.7801   25.6241 C   0  0  0  0  0  0  0  0  0  0  0  0
  -20.9774  -34.4276   16.8732 C   0  0  0  0  0  0  0  0  0  0  0  0
  -23.5978  -22.1526   23.9355 C   0  0  0  0  0  0  0  0  0  0  0  0
  -26.7824  -25.2513   19.1087 C   0  0  0  0  0  0  0  0  0  1  0  0
  -21.1887  -31.8374   21.1253 C   0  0  1  0  0  0  0  0  0  0  0  0
  -19.2819  -33.9881   18.6539 C   0  0  2  0  0  0  0  0  0  0  0  0
  -20.5000  -31.3070   22.4145 C   0  0  0  0  0  0  0  0  0  0  0  0
  -24.4381  -12.4046   21.2548 N   0  0  0  0  0  0  0  0  0  0  0  0
  -25.4474  -13.2373   20.9483 N   0  0  0  0  0  0  0  0  0  0  0  0
  -26.3063  -21.5541   19.8423 N   0  0  0  0  0  0  0  0  0  0  0  0
  -23.6320  -31.4924   21.3128 N   0  0  0  0  0  0  0  0  0  0  0  0
  -24.4426  -16.3149   22.9776 N   0  0  0  0  0  0  0  0  0  0  0  0
  -27.5801  -13.3227   19.9212 N   0  0  0  0  0  0  0  0  0  0  0  0
  -26.7525  -10.0511   18.1877 N   0  0  0  0  0  0  0  0  0  0  0  0
  -26.2940  -31.8665   23.7765 N   0  0  0  0  0  0  0  0  0  0  0  0
  -20.4466  -32.8911   20.4417 N   0  0  0  0  0  0  0  0  0  0  0  0
  -25.1389  -18.1980   24.2777 N   0  0  0  0  0  0  0  0  0  0  0  0
  -19.5436  -34.2270   17.2063 N   0  3  0  0  0  0  0  0  0  0  0  0
  -26.3165  -19.7421   18.3407 O   0  0  0  0  0  0  0  0  0  0  0  0
  -26.3340  -23.4978   21.1747 O   0  0  0  0  0  0  0  0  0  0  0  0
  -27.7304   -9.5834   20.2084 O   0  0  0  0  0  0  0  0  0  0  0  0
  -24.2135  -30.8227   23.7105 O   0  0  0  0  0  0  0  0  0  0  0  0
  -22.6875  -33.5947   21.6655 O   0  0  0  0  0  0  0  0  0  0  0  0
  -20.2415  -31.7838   18.4147 O   0  0  0  0  0  0  0  0  0  0  0  0
  -25.5739  -16.0294   24.9742 O   0  0  0  0  0  0  0  0  0  0  0  0
  -21.6617   -6.6745   21.3193 O   0  0  0  0  0  0  0  0  0  0  0  0
  -24.0940  -20.8244   24.0856 O   0  0  0  0  0  0  0  0  0  0  0  0
  -25.5918  -25.9283   19.5093 O   0  0  0  0  0  0  0  0  0  1  0  0
  -21.3498   -4.3408   26.3053 F   0  0  0  0  0  0  0  0  0  0  0  0
  -22.4630   -4.0581   21.7133 F   0  0  0  0  0  0  0  0  0  0  0  0
  1  2  1  0  0  0  0
  1  5  2  0  0  0  0
  2  6  2  0  0  0  0
  3 10  2  0  0  0  0
  3 18  1  0  0  0  0
  4 11  1  0  0  0  0
  4 18  2  0  0  0  0
  5 20  1  0  0  0  0
  6 22  1  0  0  0  0
  7 12  2  0  0  0  0
  7 21  1  0  0  0  0
  8  9  2  0  0  0  0
  8 24  1  0  0  0  0
  9 25  1  0  0  0  0
 10 26  1  0  0  0  0
 11 26  2  0  0  0  0
 12 27  1  0  0  0  0
 13 14  2  0  0  0  0
 13 28  1  0  0  0  0
 14 30  1  0  0  0  0
 15 23  1  0  0  0  0
 15 27  2  0  0  0  0
 16 24  2  0  0  0  0
 16 29  1  0  0  0  0
 17 30  2  0  0  0  0
 17 31  1  0  0  0  0
 18 32  1  0  0  0  0
 19 32  1  0  0  0  0
 19 33  2  0  0  0  0
 19 36  1  0  0  0  0
 20 22  2  0  0  0  0
 20 41  1  0  0  0  0
 21 23  2  0  0  0  0
 21 42  1  0  0  0  0
 22 52  1  0  0  0  0
 23 43  1  0  0  0  0
 24 69  1  0  0  0  0
 25 29  2  0  0  0  0
 25 76  1  0  0  0  0
 26 85  1  0  0  0  0
 27 87  1  0  0  0  0
 28 31  2  0  0  0  0
 28 85  1  0  0  0  0
 29 86  1  0  0  0  0
 30 88  1  0  0  0  0
 31 89  1  0  0  0  0
 32 67  2  0  0  0  0
 33 68  1  0  0  0  0
 33 72  1  0  0  0  0
 34 44  1  0  0  0  0
 34 69  1  0  0  0  0
 34 78  2  0  0  0  0
 35 53  1  0  0  0  0
 35 69  1  0  0  0  0
 35 79  2  0  0  0  0
 36 73  1  0  0  0  0
 36 80  2  0  0  0  0
 37 54  1  0  0  0  0
 37 74  1  0  0  0  0
 37 81  2  0  0  0  0
 38 64  1  0  0  0  0
 38 70  1  0  0  0  0
 38 82  2  0  0  0  0
 39 65  1  0  0  0  0
 39 75  1  0  0  0  0
 39 83  2  0  0  0  0
 40 71  1  0  0  0  0
 40 76  1  0  0  0  0
 40 84  2  0  0  0  0
 41 45  1  0  0  0  0
 42 54  1  0  0  0  0
 43 70  1  0  0  0  0
 44 46  1  0  0  0  0
 45 48  1  0  0  0  0
 46 53  1  0  0  0  0
 47 49  1  0  0  0  0
 47 50  1  0  0  0  0
 48 52  1  0  0  0  0
 49 55  1  0  0  0  0
 50 71  1  0  0  0  0
 51 55  1  0  0  0  0
 51 71  1  0  0  0  0
 52 74  1  0  0  0  0
 53 63  1  0  0  0  0
 54 70  1  0  0  0  0
 55 68  1  0  0  0  0
 56 65  1  0  0  0  0
 57 66  1  0  0  0  0
 58 66  1  0  0  0  0
 59 66  1  0  0  0  0
 60 76  1  0  0  0  0
 61 77  1  0  0  0  0
 62 86  1  0  0  0  0
 63 87  1  0  0  0  0
 64 66  1  0  0  0  0
 64 75  1  0  0  0  0
 65 77  1  0  0  0  0
 67 68  1  0  0  0  0
M  CHG  1  77   1
M  ISO  4  40 100  63 101  76 100  87 101
M  END
> <Batch ID>
0096

> <Smiles>
CNC(C)C(=O)NC(C(=O)N1Cc2cc([101O:1][101CH2:1]C3CCC(=O)N(c4ccc([100N:0](C)[100C:0](=O)N5CCCC(n6nc(-c7ccc(Oc8ccc(F)cc8F)cc7)c(C(N)=O)c6N)C5)c(OC)c4)C3=O)ccc2CC1C(=O)NC1CCCc2ccccc21)C(C)(C)C

> <Shape>
0.257

> <Color>
0.100

> <Negative vol penalty>
0.000

$$$$

  -OEChem-04052300463D

 85 93  0     1  0  0  0  0  0999 V2000
  -36.2711  -36.4352   24.8136 C   0  0  0  0  0  0  0  0  0  0  0  0
  -36.3870  -35.0681   24.5833 C   0  0  0  0  0  0  0  0  0  0  0  0
  -23.0685   -9.8371   19.9592 C   0  0  0  0  0  0  0  0  0  0  0  0
  -23.7453   -9.9363   22.2764 C   0  0  0  0  0  0  0  0  0  0  0  0
  -31.2184  -19.1373   20.5663 C   0  0  0  0  0  0  0  0  0  0  0  0
  -35.0941  -36.9528   25.3529 C   0  0  0  0  0  0  0  0  0  0  0  0
  -35.3264  -34.2176   24.8932 C   0  0  0  0  0  0  0  0  0  0  0  0
  -33.6596  -29.1590   21.8703 C   0  0  0  0  0  0  0  0  0  0  0  0
  -31.0583  -17.7523   20.6073 C   0  0  0  0  0  0  0  0  0  0  0  0
  -22.3246   -8.6878   20.2257 C   0  0  0  0  0  0  0  0  0  0  0  0
  -23.0013   -8.7870   22.5429 C   0  0  0  0  0  0  0  0  0  0  0  0
  -33.9077  -27.8060   22.0973 C   0  0  0  0  0  0  0  0  0  0  0  0
  -23.3362   -5.4491   22.1218 C   0  0  0  0  0  0  0  0  0  0  0  0
  -23.9329   -4.4567   22.8994 C   0  0  0  0  0  0  0  0  0  0  0  0
  -29.5241  -19.3838   22.2709 C   0  0  0  0  0  0  0  0  0  0  0  0
  -31.7843  -27.6122   23.2255 C   0  0  0  0  0  0  0  0  0  0  0  0
  -22.1699   -4.6793   24.5363 C   0  0  0  0  0  0  0  0  0  0  0  0
  -23.7790  -10.4614   20.9846 C   0  0  0  0  0  0  0  0  0  0  0  0
  -30.4513  -19.9531   21.3981 C   0  0  0  0  0  0  0  0  0  0  0  0
  -24.1066  -12.9832   20.7818 C   0  0  0  0  0  0  0  0  0  0  0  0
  -34.0149  -36.1094   25.6605 C   0  0  0  0  0  0  0  0  0  0  0  0
  -32.4749  -29.7522   22.3294 C   0  0  0  0  0  0  0  0  0  0  0  0
  -34.1343  -34.7242   25.4383 C   0  0  0  0  0  0  0  0  0  0  0  0
  -31.5224  -28.9723   23.0007 C   0  0  0  0  0  0  0  0  0  0  0  0
  -30.1311  -17.1830   21.4801 C   0  0  0  0  0  0  0  0  0  0  0  0
  -22.2909   -8.1627   21.5175 C   0  0  0  0  0  0  0  0  0  0  0  0
  -32.9713  -27.0330   22.7776 C   0  0  0  0  0  0  0  0  0  0  0  0
  -22.1564   -6.0567   22.5515 C   0  0  0  0  0  0  0  0  0  0  0  0
  -23.3497   -4.0718   24.1066 C   0  0  0  0  0  0  0  0  0  0  0  0
  -29.3640  -17.9987   22.3119 C   0  0  0  0  0  0  0  0  0  0  0  0
  -21.5732   -5.6718   23.7587 C   0  0  0  0  0  0  0  0  0  0  0  0
  -24.5482  -11.6484   20.7098 C   0  0  0  0  0  0  0  0  0  0  0  0
  -25.2056  -13.7279   20.4298 C   0  0  0  0  0  0  0  0  0  0  0  0
  -30.6203  -21.4201   21.3554 C   0  0  0  0  0  0  0  0  0  0  0  0
  -22.8181  -13.5033   21.1354 C   0  0  0  0  0  0  0  0  0  0  0  0
  -31.7800  -32.0810   24.3782 C   0  0  0  0  0  0  0  0  0  0  0  0
  -28.7594  -31.6001   23.2980 C   0  0  0  0  0  0  0  0  0  0  0  0
  -32.1882  -23.3247   21.6571 C   0  0  0  0  0  0  0  0  0  0  0  0
  -26.5013  -29.4890   21.8520 C   0  0  0  0  0  0  0  0  0  0  0  0
  -30.6543  -14.8263   20.7600 C   0  0  0  0  0  0  0  0  0  0  0  0
  -32.7803  -36.7090   26.2858 C   0  0  0  0  0  0  0  0  0  0  0  0
  -32.2103  -31.2069   22.0530 C   0  0  0  0  0  0  0  0  0  0  0  0
  -30.2257  -29.5566   23.4963 C   0  0  0  0  0  0  0  0  0  0  0  0
  -31.5642  -35.7876   26.2375 C   0  0  0  0  0  0  0  0  0  0  0  0
  -29.6434  -12.3161   18.4461 C   0  0  0  0  0  0  0  0  0  0  0  0
  -31.9452  -34.3773   26.6765 C   0  0  0  0  0  0  0  0  0  0  0  0
  -28.1914  -12.0285   18.8347 C   0  0  0  0  0  0  0  0  0  0  0  0
  -30.5130  -12.5976   19.6702 C   0  0  0  0  0  0  0  0  0  0  0  0
  -28.5523  -13.3567   20.9542 C   0  0  0  0  0  0  0  0  0  0  0  0
  -32.9966  -33.7725   25.7383 C   0  0  1  0  0  0  0  0  0  0  0  0
  -31.2007  -31.8240   23.0159 C   0  0  1  0  0  0  0  0  0  0  0  0
  -27.6238  -13.1312   19.7498 C   0  0  2  0  0  0  0  0  0  0  0  0
  -24.1007  -29.3658   21.1314 C   0  0  0  0  0  0  0  0  0  0  0  0
  -27.9053  -31.2684   26.2084 C   0  0  0  0  0  0  0  0  0  0  0  0
  -25.7774  -30.2313   25.3930 C   0  0  0  0  0  0  0  0  0  0  0  0
  -26.3190  -32.5931   24.8002 C   0  0  0  0  0  0  0  0  0  0  0  0
  -27.2522  -29.0362   19.0254 C   0  0  0  0  0  0  0  0  0  0  0  0
  -33.6359  -23.5529   22.0282 C   0  0  0  0  0  0  0  0  0  0  0  0
  -34.0122  -25.0259   22.0400 C   0  0  0  0  0  0  0  0  0  1  0  0
  -27.6071  -30.7137   23.7046 C   0  0  1  0  0  0  0  0  0  0  0  0
  -25.5248  -29.6893   20.7071 C   0  0  2  0  0  0  0  0  0  0  0  0
  -26.9274  -31.1908   25.0191 C   0  0  0  0  0  0  0  0  0  0  0  0
  -25.8279  -11.5479   20.3408 N   0  0  0  0  0  0  0  0  0  0  0  0
  -26.1999  -12.8290   20.1778 N   0  0  0  0  0  0  0  0  0  0  0  0
  -30.0160  -30.9849   23.2071 N   0  0  0  0  0  0  0  0  0  0  0  0
  -29.9153  -13.6556   20.4876 N   0  0  0  0  0  0  0  0  0  0  0  0
  -25.4089  -15.0575   20.3143 N   0  0  0  0  0  0  0  0  0  0  0  0
  -21.8014  -12.5987   21.4703 N   0  0  0  0  0  0  0  0  0  0  0  0
  -29.9712  -15.7757   21.5194 N   0  0  0  0  0  0  0  0  0  0  0  0
  -31.8273  -21.9255   21.6449 N   0  0  0  0  0  0  0  0  0  0  0  0
  -32.3779  -33.3198   24.5108 N   0  0  0  0  0  0  0  0  0  0  0  0
  -26.7106  -30.6566   22.5550 N   0  0  0  0  0  0  0  0  0  0  0  0
  -29.5584  -22.1576   21.0324 N   0  3  0  0  0  0  0  0  0  0  0  0
  -25.8847  -28.8093   19.5595 N   0  3  0  0  0  0  0  0  0  0  0  0
  -22.5710  -14.7331   21.1379 O   0  0  0  0  0  0  0  0  0  0  0  0
  -31.6899  -31.2199   25.2454 O   0  0  0  0  0  0  0  0  0  0  0  0
  -28.5510  -32.7930   23.0627 O   0  0  0  0  0  0  0  0  0  0  0  0
  -31.3756  -24.1978   21.3898 O   0  0  0  0  0  0  0  0  0  0  0  0
  -27.0232  -28.4043   22.1004 O   0  0  0  0  0  0  0  0  0  0  0  0
  -31.7982  -14.9871   20.3270 O   0  0  0  0  0  0  0  0  0  0  0  0
  -21.5648   -7.0413   21.7780 O   0  0  0  0  0  0  0  0  0  0  0  0
  -33.2113  -25.7123   23.0011 O   0  0  0  0  0  0  0  0  0  1  0  0
  -23.9220   -3.1176   24.8525 F   0  0  0  0  0  0  0  0  0  0  0  0
  -28.4689  -17.4625   23.1537 F   0  0  0  0  0  0  0  0  0  0  0  0
  -20.4392   -6.2511   24.1762 F   0  0  0  0  0  0  0  0  0  0  0  0
  1  2  1  0  0  0  0
  1  6  2  0  0  0  0
  2  7  2  0  0  0  0
  3 10  2  0  0  0  0
  3 18  1  0  0  0  0
  4 11  1  0  0  0  0
  4 18  2  0  0  0  0
  5  9  2  0  0  0  0
  5 19  1  0  0  0  0
  6 21  1  0  0  0  0
  7 23  1  0  0  0  0
  8 12  2  0  0  0  0
  8 22  1  0  0  0  0
  9 25  1  0  0  0  0
 10 26  1  0  0  0  0
 11 26  2  0  0  0  0
 12 27  1  0  0  0  0
 13 14  2  0  0  0  0
 13 28  1  0  0  0  0
 14 29  1  0  0  0  0
 15 19  2  0  0  0  0
 15 30  1  0  0  0  0
 16 24  1  0  0  0  0
 16 27  2  0  0  0  0
 17 29  2  0  0  0  0
 17 31  1  0  0  0  0
 18 32  1  0  0  0  0
 19 34  1  0  0  0  0
 20 32  1  0  0  0  0
 20 33  2  0  0  0  0
 20 35  1  0  0  0  0
 21 23  2  0  0  0  0
 21 41  1  0  0  0  0
 22 24  2  0  0  0  0
 22 42  1  0  0  0  0
 23 50  1  0  0  0  0
 24 43  1  0  0  0  0
 25 30  2  0  0  0  0
 25 69  1  0  0  0  0
 26 81  1  0  0  0  0
 27 82  1  0  0  0  0
 28 31  2  0  0  0  0
 28 81  1  0  0  0  0
 29 83  1  0  0  0  0
 30 84  1  0  0  0  0
 31 85  1  0  0  0  0
 32 63  2  0  0  0  0
 33 64  1  0  0  0  0
 33 67  1  0  0  0  0
 34 70  1  0  0  0  0
 34 73  2  0  0  0  0
 35 68  1  0  0  0  0
 35 75  2  0  0  0  0
 36 51  1  0  0  0  0
 36 71  1  0  0  0  0
 36 76  2  0  0  0  0
 37 60  1  0  0  0  0
 37 65  1  0  0  0  0
 37 77  2  0  0  0  0
 38 58  1  0  0  0  0
 38 70  1  0  0  0  0
 38 78  2  0  0  0  0
 39 61  1  0  0  0  0
 39 72  1  0  0  0  0
 39 79  2  0  0  0  0
 40 66  1  0  0  0  0
 40 69  1  0  0  0  0
 40 80  2  0  0  0  0
 41 44  1  0  0  0  0
 42 51  1  0  0  0  0
 43 65  1  0  0  0  0
 44 46  1  0  0  0  0
 45 47  1  0  0  0  0
 45 48  1  0  0  0  0
 46 50  1  0  0  0  0
 47 52  1  0  0  0  0
 48 66  1  0  0  0  0
 49 52  1  0  0  0  0
 49 66  1  0  0  0  0
 50 71  1  0  0  0  0
 51 65  1  0  0  0  0
 52 64  1  0  0  0  0
 53 61  1  0  0  0  0
 54 62  1  0  0  0  0
 55 62  1  0  0  0  0
 56 62  1  0  0  0  0
 57 74  1  0  0  0  0
 58 59  1  0  0  0  0
 59 82  1  0  0  0  0
 60 62  1  0  0  0  0
 60 72  1  0  0  0  0
 61 74  1  0  0  0  0
 63 64  1  0  0  0  0
M  CHG  2  73   1  74   1
M  ISO  4  40 100  59 101  69 100  82 101
M  END
> <Batch ID>
0096

> <Smiles>
CNC(C)C(=O)NC(C(=O)N1Cc2cc([101O:1][101CH2:1]CC(=O)NC(=N)c3ccc([100NH:0][100C:0](=O)N4CCCC(n5nc(-c6ccc(Oc7ccc(F)cc7F)cc6)c(C(N)=O)c5N)C4)c(F)c3)ccc2CC1C(=O)NC1CCCc2ccccc21)C(C)(C)C

> <Shape>
0.271

> <Color>
0.217

> <Negative vol penalty>
0.000

$$$$

  -OEChem-04052300463D

 85 94  0     1  0  0  0  0  0999 V2000
  -17.5503  -25.4218   22.1096 C   0  0  0  0  0  0  0  0  0  0  0  0
  -18.8631  -25.2295   21.6914 C   0  0  0  0  0  0  0  0  0  0  0  0
  -23.8755  -11.6135   23.8301 C   0  0  0  0  0  0  0  0  0  0  0  0
  -23.9764  -14.0273   23.8167 C   0  0  0  0  0  0  0  0  0  0  0  0
  -17.2066  -26.5733   22.8164 C   0  0  0  0  0  0  0  0  0  0  0  0
  -19.8329  -26.1894   21.9789 C   0  0  0  0  0  0  0  0  0  0  0  0
  -24.1495  -24.1459   23.6632 C   0  0  0  0  0  0  0  0  0  0  0  0
  -23.2893  -11.6450   25.0954 C   0  0  0  0  0  0  0  0  0  0  0  0
  -23.3902  -14.0589   25.0820 C   0  0  0  0  0  0  0  0  0  0  0  0
  -24.9999  -23.5817   22.7134 C   0  0  0  0  0  0  0  0  0  0  0  0
  -20.2288  -12.2287   26.4090 C   0  0  0  0  0  0  0  0  0  0  0  0
  -19.1270  -11.4034   26.6337 C   0  0  0  0  0  0  0  0  0  0  0  0
  -26.3590  -25.5742   22.7554 C   0  0  0  0  0  0  0  0  0  0  0  0
  -32.2983  -19.2361   20.9664 C   0  0  0  0  0  0  0  0  0  0  0  0
  -32.3858  -16.8669   20.5014 C   0  0  0  0  0  0  0  0  0  0  0  0
  -20.3308  -10.2773   28.4001 C   0  0  0  0  0  0  0  0  0  0  0  0
  -24.2191  -12.8046   23.1907 C   0  0  0  0  0  0  0  0  0  0  0  0
  -24.1658  -12.7935   20.6403 C   0  0  0  0  0  0  0  0  0  0  0  0
  -18.1746  -27.5432   23.1211 C   0  0  0  0  0  0  0  0  0  0  0  0
  -24.3917  -25.4351   24.1590 C   0  0  0  0  0  0  0  0  0  0  0  0
  -19.5016  -27.3556   22.6894 C   0  0  0  0  0  0  0  0  0  0  0  0
  -25.5116  -26.1516   23.7133 C   0  0  0  0  0  0  0  0  0  0  0  0
  -30.9105  -19.2119   20.8287 C   0  0  0  0  0  0  0  0  0  0  0  0
  -30.9980  -16.8427   20.3637 C   0  0  0  0  0  0  0  0  0  0  0  0
  -23.0466  -12.8677   25.7213 C   0  0  0  0  0  0  0  0  0  0  0  0
  -26.1033  -24.2969   22.2572 C   0  0  0  0  0  0  0  0  0  0  0  0
  -21.3817  -12.0782   27.1797 C   0  0  0  0  0  0  0  0  0  0  0  0
  -19.1779  -10.4277   27.6293 C   0  0  0  0  0  0  0  0  0  0  0  0
  -33.0360  -18.0636   20.8028 C   0  0  0  0  0  0  0  0  0  0  0  0
  -21.4326  -11.1026   28.1753 C   0  0  0  0  0  0  0  0  0  0  0  0
  -30.2603  -18.0152   20.5274 C   0  0  0  0  0  0  0  0  0  0  0  0
  -24.8252  -12.7727   21.8839 C   0  0  0  0  0  0  0  0  0  0  0  0
  -25.1786  -12.7468   19.7138 C   0  0  0  0  0  0  0  0  0  0  0  0
  -22.7631  -12.8501   20.3487 C   0  0  0  0  0  0  0  0  0  0  0  0
  -22.8076  -28.1905   24.1127 C   0  0  0  0  0  0  0  0  0  0  0  0
  -25.2169  -29.1604   26.0561 C   0  0  0  0  0  0  0  0  0  0  0  0
  -28.4333  -28.7372   27.1156 C   0  0  0  0  0  0  0  0  0  0  0  0
  -30.9260  -14.3747   19.8634 C   0  0  0  0  0  0  0  0  0  0  0  0
  -17.7458  -28.7941   23.8465 C   0  0  0  0  0  0  0  0  0  0  0  0
  -23.4799  -26.0190   25.2030 C   0  0  0  0  0  0  0  0  0  0  0  0
  -25.8272  -27.5310   24.2290 C   0  0  0  0  0  0  0  0  0  0  0  0
  -18.9101  -29.5857   24.4363 C   0  0  0  0  0  0  0  0  0  0  0  0
  -29.6496  -11.1325   19.1315 C   0  0  0  0  0  0  0  0  0  0  0  0
  -20.0301  -29.7317   23.4110 C   0  0  0  0  0  0  0  0  0  0  0  0
  -28.2057  -11.1891   19.6355 C   0  0  0  0  0  0  0  0  0  0  0  0
  -29.5767  -22.5431   21.6736 C   0  0  0  0  0  0  0  0  0  0  0  0
  -30.5974  -11.9177   20.0364 C   0  0  0  0  0  0  0  0  0  0  0  0
  -30.7754  -21.6696   21.3099 C   0  0  0  0  0  0  0  0  0  0  0  0
  -28.7293  -20.4514   20.8776 C   0  0  0  0  0  0  0  0  0  0  0  0
  -28.7548  -13.3634   20.8007 C   0  0  0  0  0  0  0  0  0  0  0  0
  -20.5870  -28.3622   23.0036 C   0  0  1  0  0  0  0  0  0  0  0  0
  -23.5330  -27.5427   25.2581 C   0  0  1  0  0  0  0  0  0  0  0  0
  -28.4494  -21.9577   20.8281 C   0  0  1  0  0  0  0  0  0  0  0  0
  -27.7526  -12.6408   19.8858 C   0  0  2  0  0  0  0  0  0  0  0  0
  -30.1336  -29.7065   28.6862 C   0  0  0  0  0  0  0  0  0  0  0  0
  -25.6657  -31.4851   24.1315 C   0  0  0  0  0  0  0  0  0  0  0  0
  -27.9034  -31.8432   25.1959 C   0  0  0  0  0  0  0  0  0  0  0  0
  -25.8249  -32.0898   26.5530 C   0  0  0  0  0  0  0  0  0  0  0  0
  -28.6398  -26.2076   28.6380 C   0  0  0  0  0  0  0  0  0  0  0  0
  -27.0664  -22.3279   21.3347 C   0  0  0  0  0  0  0  0  0  1  0  0
  -26.5764  -29.7820   25.8450 C   0  0  1  0  0  0  0  0  0  0  0  0
  -29.0347  -28.6705   28.5079 C   0  0  2  0  0  0  0  0  0  0  0  0
  -26.4858  -31.2748   25.4200 C   0  0  0  0  0  0  0  0  0  0  0  0
  -26.1541  -12.7169   21.7621 N   0  0  0  0  0  0  0  0  0  0  0  0
  -26.3380  -12.7023   20.4309 N   0  0  0  0  0  0  0  0  0  0  0  0
  -30.1840  -20.3722   20.9924 N   0  0  3  0  0  0  0  0  0  0  0  0
  -24.9023  -28.0613   25.2443 N   0  0  0  0  0  0  0  0  0  0  0  0
  -30.1065  -13.2846   20.2249 N   0  0  0  0  0  0  0  0  0  0  0  0
  -25.1818  -12.7399   18.3639 N   0  0  0  0  0  0  0  0  0  0  0  0
  -21.8594  -12.8931   21.4191 N   0  0  0  0  0  0  0  0  0  0  0  0
  -30.3406  -15.6254   20.0574 N   0  0  0  0  0  0  0  0  0  0  0  0
  -21.4708  -27.8506   24.0290 N   0  0  0  0  0  0  0  0  0  0  0  0
  -27.3244  -29.5558   27.0770 N   0  0  0  0  0  0  0  0  0  0  0  0
  -29.6161  -27.3211   28.7570 N   0  3  0  0  0  0  0  0  0  0  0  0
  -22.3235  -12.8455   19.1738 O   0  0  0  0  0  0  0  0  0  0  0  0
  -23.4153  -28.9441   23.3615 O   0  0  0  0  0  0  0  0  0  0  0  0
  -24.4648  -29.6281   26.9147 O   0  0  0  0  0  0  0  0  0  0  0  0
  -28.9027  -28.1273   26.1574 O   0  0  0  0  0  0  0  0  0  0  0  0
  -32.0530  -14.2102   19.3893 O   0  0  0  0  0  0  0  0  0  0  0  0
  -22.4744  -12.8989   26.9559 O   0  0  0  0  0  0  0  0  0  0  0  0
  -26.9346  -23.7488   21.3297 O   0  0  0  0  0  0  0  0  0  1  0  0
  -18.1192   -9.6363   27.8460 F   0  0  0  0  0  0  0  0  0  0  0  0
  -34.3688  -18.0869   20.9340 F   0  0  0  0  0  0  0  0  0  0  0  0
  -22.5369  -10.9541   28.9197 F   0  0  0  0  0  0  0  0  0  0  0  0
  -28.9251  -17.9918   20.3956 F   0  0  0  0  0  0  0  0  0  0  0  0
  1  2  1  0  0  0  0
  1  5  2  0  0  0  0
  2  6  2  0  0  0  0
  3  8  2  0  0  0  0
  3 17  1  0  0  0  0
  4  9  1  0  0  0  0
  4 17  2  0  0  0  0
  5 19  1  0  0  0  0
  6 21  1  0  0  0  0
  7 10  2  0  0  0  0
  7 20  1  0  0  0  0
  8 25  1  0  0  0  0
  9 25  2  0  0  0  0
 10 26  1  0  0  0  0
 11 12  2  0  0  0  0
 11 27  1  0  0  0  0
 12 28  1  0  0  0  0
 13 22  1  0  0  0  0
 13 26  2  0  0  0  0
 14 23  1  0  0  0  0
 14 29  2  0  0  0  0
 15 24  2  0  0  0  0
 15 29  1  0  0  0  0
 16 28  2  0  0  0  0
 16 30  1  0  0  0  0
 17 32  1  0  0  0  0
 18 32  1  0  0  0  0
 18 33  2  0  0  0  0
 18 34  1  0  0  0  0
 19 21  2  0  0  0  0
 19 39  1  0  0  0  0
 20 22  2  0  0  0  0
 20 40  1  0  0  0  0
 21 51  1  0  0  0  0
 22 41  1  0  0  0  0
 23 31  2  0  0  0  0
 23 66  1  0  0  0  0
 24 31  1  0  0  0  0
 24 71  1  0  0  0  0
 25 80  1  0  0  0  0
 26 81  1  0  0  0  0
 27 30  2  0  0  0  0
 27 80  1  0  0  0  0
 28 82  1  0  0  0  0
 29 83  1  0  0  0  0
 30 84  1  0  0  0  0
 31 85  1  0  0  0  0
 32 64  2  0  0  0  0
 33 65  1  0  0  0  0
 33 69  1  0  0  0  0
 34 70  1  0  0  0  0
 34 75  2  0  0  0  0
 35 52  1  0  0  0  0
 35 72  1  0  0  0  0
 35 76  2  0  0  0  0
 36 61  1  0  0  0  0
 36 67  1  0  0  0  0
 36 77  2  0  0  0  0
 37 62  1  0  0  0  0
 37 73  1  0  0  0  0
 37 78  2  0  0  0  0
 38 68  1  0  0  0  0
 38 71  1  0  0  0  0
 38 79  2  0  0  0  0
 39 42  1  0  0  0  0
 40 52  1  0  0  0  0
 41 67  1  0  0  0  0
 42 44  1  0  0  0  0
 43 45  1  0  0  0  0
 43 47  1  0  0  0  0
 44 51  1  0  0  0  0
 45 54  1  0  0  0  0
 46 48  1  0  0  0  0
 46 53  1  0  0  0  0
 47 68  1  0  0  0  0
 48 66  1  0  0  0  0
 49 53  1  0  0  0  0
 49 66  1  0  0  0  0
 50 54  1  0  0  0  0
 50 68  1  0  0  0  0
 51 72  1  0  0  0  0
 52 67  1  0  0  0  0
 53 60  1  0  0  0  0
 54 65  1  0  0  0  0
 55 62  1  0  0  0  0
 56 63  1  0  0  0  0
 57 63  1  0  0  0  0
 58 63  1  0  0  0  0
 59 74  1  0  0  0  0
 60 81  1  0  0  0  0
 61 63  1  0  0  0  0
 61 73  1  0  0  0  0
 62 74  1  0  0  0  0
 64 65  1  0  0  0  0
M  CHG  1  74   1
M  ISO  4  38 100  60 101  71 100  81 101
M  END
> <Batch ID>
0096

> <Smiles>
CNC(C)C(=O)NC(C(=O)N1Cc2cc([101O:1][101CH2:1]C3CCN(c4cc(F)cc([100NH:0][100C:0](=O)N5CCCC(n6nc(-c7ccc(Oc8ccc(F)cc8F)cc7)c(C(N)=O)c6N)C5)c4F)C3)ccc2CC1C(=O)NC1CCCc2ccccc21)C(C)(C)C

> <Shape>
0.226

> <Color>
0.103

> <Negative vol penalty>
0.000

$$$$

  -OEChem-04052300463D

 87 96  0     1  0  0  0  0  0999 V2000
  -18.8836  -26.3994   23.8035 C   0  0  0  0  0  0  0  0  0  0  0  0
  -19.8573  -26.1743   22.8356 C   0  0  0  0  0  0  0  0  0  0  0  0
  -26.5239  -12.6650   21.5684 C   0  0  0  0  0  0  0  0  0  0  0  0
  -25.7007  -14.0246   19.7488 C   0  0  0  0  0  0  0  0  0  0  0  0
  -18.3664  -27.6813   23.9853 C   0  0  0  0  0  0  0  0  0  0  0  0
  -20.3134  -27.2309   22.0482 C   0  0  0  0  0  0  0  0  0  0  0  0
  -25.3555  -27.2677   21.5784 C   0  0  0  0  0  0  0  0  0  0  0  0
  -31.3715  -23.7302   20.5765 C   0  0  0  0  0  0  0  0  0  0  0  0
  -31.7909  -22.9384   21.6454 C   0  0  0  0  0  0  0  0  0  0  0  0
  -25.3019  -11.9947   21.6205 C   0  0  0  0  0  0  0  0  0  0  0  0
  -24.4786  -13.3542   19.8008 C   0  0  0  0  0  0  0  0  0  0  0  0
  -25.9178  -26.3637   20.6782 C   0  0  0  0  0  0  0  0  0  0  0  0
  -22.5233   -9.6804   21.9932 C   0  0  0  0  0  0  0  0  0  0  0  0
  -22.5504   -8.2902   22.1032 C   0  0  0  0  0  0  0  0  0  0  0  0
  -26.1227  -28.1269   19.0447 C   0  0  0  0  0  0  0  0  0  0  0  0
  -31.7034  -20.9820   20.2305 C   0  0  0  0  0  0  0  0  0  0  0  0
  -23.7583   -8.1486   20.0156 C   0  0  0  0  0  0  0  0  0  0  0  0
  -26.7234  -13.6800   20.6326 C   0  0  0  0  0  0  0  0  0  0  0  0
  -29.2530  -13.8132   20.3313 C   0  0  0  0  0  0  0  0  0  0  0  0
  -18.8234  -28.7560   23.2064 C   0  0  0  0  0  0  0  0  0  0  0  0
  -25.1623  -28.6080   21.2140 C   0  0  0  0  0  0  0  0  0  0  0  0
  -19.8008  -28.5281   22.2189 C   0  0  0  0  0  0  0  0  0  0  0  0
  -25.5602  -29.0465   19.9430 C   0  0  0  0  0  0  0  0  0  0  0  0
  -31.1180  -23.1480   19.3345 C   0  0  0  0  0  0  0  0  0  0  0  0
  -31.9569  -21.5643   21.4724 C   0  0  0  0  0  0  0  0  0  0  0  0
  -31.2839  -21.7739   19.1615 C   0  0  0  0  0  0  0  0  0  0  0  0
  -24.2792  -12.3392   20.7367 C   0  0  0  0  0  0  0  0  0  0  0  0
  -26.2988  -26.7925   19.4101 C   0  0  0  0  0  0  0  0  0  0  0  0
  -23.1137  -10.3048   20.8944 C   0  0  0  0  0  0  0  0  0  0  0  0
  -23.1679   -7.5243   21.1144 C   0  0  0  0  0  0  0  0  0  0  0  0
  -23.7312   -9.5389   19.9056 C   0  0  0  0  0  0  0  0  0  0  0  0
  -27.9854  -14.3732   20.5786 C   0  0  0  0  0  0  0  0  0  0  0  0
  -30.1163  -14.8801   20.3854 C   0  0  0  0  0  0  0  0  0  0  0  0
  -31.4376  -24.0814   17.0593 C   0  0  0  0  0  0  0  0  0  0  0  0
  -29.6176  -12.4504   20.0755 C   0  0  0  0  0  0  0  0  0  0  0  0
  -22.6311  -30.5053   20.9026 C   0  0  0  0  0  0  0  0  0  0  0  0
  -24.8870  -32.7829   20.4064 C   0  0  0  0  0  0  0  0  0  0  0  0
  -28.0081  -33.0521   18.6165 C   0  0  0  0  0  0  0  0  0  0  0  0
  -31.9990  -19.3933   22.6876 C   0  0  0  0  0  0  0  0  0  0  0  0
  -18.2003  -30.1147   23.4072 C   0  0  0  0  0  0  0  0  0  0  0  0
  -24.5791  -29.5767   22.2060 C   0  0  0  0  0  0  0  0  0  0  0  0
  -25.3928  -30.4794   19.5101 C   0  0  0  0  0  0  0  0  0  0  0  0
  -30.7533  -24.7279   15.8696 C   0  0  0  0  0  0  0  0  0  0  0  0
  -19.0073  -31.2525   22.7870 C   0  0  0  0  0  0  0  0  0  0  0  0
  -29.8138  -25.8582   16.2280 C   0  0  0  0  0  0  0  0  0  0  0  0
  -29.2206  -19.8485   20.5158 C   0  0  0  0  0  0  0  0  0  0  0  0
  -19.4349  -30.8919   21.3679 C   0  0  0  0  0  0  0  0  0  0  0  0
  -28.7452  -18.4086   20.3255 C   0  0  0  0  0  0  0  0  0  0  0  0
  -29.6707  -20.1177   21.9521 C   0  0  0  0  0  0  0  0  0  0  0  0
  -29.5469  -24.8956   18.4963 C   0  0  0  0  0  0  0  0  0  0  0  0
  -30.2116  -17.7227   22.2620 C   0  0  0  0  0  0  0  0  0  0  0  0
  -20.3390  -29.6533   21.3620 C   0  0  1  0  0  0  0  0  0  0  0  0
  -23.9552  -30.8032   21.5475 C   0  0  1  0  0  0  0  0  0  0  0  0
  -28.8019  -25.3526   17.2430 C   0  0  1  0  0  0  0  0  0  0  0  0
  -29.8070  -17.4074   20.8135 C   0  0  1  0  0  0  0  0  0  0  0  0
  -30.0018  -34.5202   19.0251 C   0  0  0  0  0  0  0  0  0  0  0  0
  -23.5492  -34.6622   18.4092 C   0  0  0  0  0  0  0  0  0  0  0  0
  -25.8179  -35.1875   17.4899 C   0  0  0  0  0  0  0  0  0  0  0  0
  -25.2762  -35.7409   19.8612 C   0  0  0  0  0  0  0  0  0  0  0  0
  -33.4434  -21.2615   23.4616 C   0  0  0  0  0  0  0  0  0  0  0  0
  -29.8407  -30.7308   18.7248 C   0  0  0  0  0  0  0  0  0  0  0  0
  -27.7795  -26.4347   17.5838 C   0  0  0  0  0  0  0  0  0  1  0  0
  -25.6118  -33.3244   19.1979 C   0  0  1  0  0  0  0  0  0  0  0  0
  -29.3979  -33.1383   19.2211 C   0  0  2  0  0  0  0  0  0  0  0  0
  -25.0544  -34.7019   18.7405 C   0  0  0  0  0  0  0  0  0  0  0  0
  -28.0344  -15.6934   20.7754 N   0  0  0  0  0  0  0  0  0  0  0  0
  -29.3433  -15.9718   20.6518 N   0  0  0  0  0  0  0  0  0  0  0  0
  -30.6820  -23.9900   18.2409 N   0  0  0  0  0  0  0  0  0  0  0  0
  -24.8120  -31.3869   20.5134 N   0  0  0  0  0  0  0  0  0  0  0  0
  -30.6524  -19.1141   22.3872 N   0  0  0  0  0  0  0  0  0  0  0  0
  -31.0315  -21.1631   17.9124 N   0  0  0  0  0  0  0  0  0  0  0  0
  -31.4535  -14.9816   20.2307 N   0  0  0  0  0  0  0  0  0  0  0  0
  -29.6339  -12.0010   18.7480 N   0  0  0  0  0  0  0  0  0  0  0  0
  -21.6813  -30.0055   21.7729 N   0  0  0  0  0  0  0  0  0  0  0  0
  -27.0289  -33.3384   19.5442 N   0  0  0  0  0  0  0  0  0  0  0  0
  -32.3918  -20.7448   22.5791 N   0  0  0  0  0  0  0  0  0  0  0  0
  -30.3013  -32.1365   18.5877 N   0  3  0  0  0  0  0  0  0  0  0  0
  -32.5750  -23.6303   16.8992 O   0  0  0  0  0  0  0  0  0  0  0  0
  -29.9042  -11.6502   20.9981 O   0  0  0  0  0  0  0  0  0  0  0  0
  -22.4819  -30.7149   19.7045 O   0  0  0  0  0  0  0  0  0  0  0  0
  -24.4112  -33.5695   21.2289 O   0  0  0  0  0  0  0  0  0  0  0  0
  -27.8110  -32.7635   17.4382 O   0  0  0  0  0  0  0  0  0  0  0  0
  -32.7834  -18.5083   23.0501 O   0  0  0  0  0  0  0  0  0  0  0  0
  -23.0866  -11.6852   20.7871 O   0  0  0  0  0  0  0  0  0  0  0  0
  -26.8472  -25.9120   18.5293 O   0  0  0  0  0  0  0  0  0  1  0  0
  -23.1952   -6.1893   21.2209 F   0  0  0  0  0  0  0  0  0  0  0  0
  -24.3011  -10.1331   18.8483 F   0  0  0  0  0  0  0  0  0  0  0  0
  1  2  1  0  0  0  0
  1  5  2  0  0  0  0
  2  6  2  0  0  0  0
  3 10  2  0  0  0  0
  3 18  1  0  0  0  0
  4 11  1  0  0  0  0
  4 18  2  0  0  0  0
  5 20  1  0  0  0  0
  6 22  1  0  0  0  0
  7 12  2  0  0  0  0
  7 21  1  0  0  0  0
  8  9  2  0  0  0  0
  8 24  1  0  0  0  0
  9 25  1  0  0  0  0
 10 27  1  0  0  0  0
 11 27  2  0  0  0  0
 12 28  1  0  0  0  0
 13 14  2  0  0  0  0
 13 29  1  0  0  0  0
 14 30  1  0  0  0  0
 15 23  1  0  0  0  0
 15 28  2  0  0  0  0
 16 25  2  0  0  0  0
 16 26  1  0  0  0  0
 17 30  2  0  0  0  0
 17 31  1  0  0  0  0
 18 32  1  0  0  0  0
 19 32  1  0  0  0  0
 19 33  2  0  0  0  0
 19 35  1  0  0  0  0
 20 22  2  0  0  0  0
 20 40  1  0  0  0  0
 21 23  2  0  0  0  0
 21 41  1  0  0  0  0
 22 52  1  0  0  0  0
 23 42  1  0  0  0  0
 24 26  2  0  0  0  0
 24 68  1  0  0  0  0
 25 76  1  0  0  0  0
 26 71  1  0  0  0  0
 27 84  1  0  0  0  0
 28 85  1  0  0  0  0
 29 31  2  0  0  0  0
 29 84  1  0  0  0  0
 30 86  1  0  0  0  0
 31 87  1  0  0  0  0
 32 66  2  0  0  0  0
 33 67  1  0  0  0  0
 33 72  1  0  0  0  0
 34 43  1  0  0  0  0
 34 68  1  0  0  0  0
 34 78  2  0  0  0  0
 35 73  1  0  0  0  0
 35 79  2  0  0  0  0
 36 53  1  0  0  0  0
 36 74  1  0  0  0  0
 36 80  2  0  0  0  0
 37 63  1  0  0  0  0
 37 69  1  0  0  0  0
 37 81  2  0  0  0  0
 38 64  1  0  0  0  0
 38 75  1  0  0  0  0
 38 82  2  0  0  0  0
 39 70  1  0  0  0  0
 39 76  1  0  0  0  0
 39 83  2  0  0  0  0
 40 44  1  0  0  0  0
 41 53  1  0  0  0  0
 42 69  1  0  0  0  0
 43 45  1  0  0  0  0
 44 47  1  0  0  0  0
 45 54  1  0  0  0  0
 46 48  1  0  0  0  0
 46 49  1  0  0  0  0
 47 52  1  0  0  0  0
 48 55  1  0  0  0  0
 49 70  1  0  0  0  0
 50 54  1  0  0  0  0
 50 68  1  0  0  0  0
 51 55  1  0  0  0  0
 51 70  1  0  0  0  0
 52 74  1  0  0  0  0
 53 69  1  0  0  0  0
 54 62  1  0  0  0  0
 55 67  1  0  0  0  0
 56 64  1  0  0  0  0
 57 65  1  0  0  0  0
 58 65  1  0  0  0  0
 59 65  1  0  0  0  0
 60 76  1  0  0  0  0
 61 77  1  0  0  0  0
 62 85  1  0  0  0  0
 63 65  1  0  0  0  0
 63 75  1  0  0  0  0
 64 77  1  0  0  0  0
 66 67  1  0  0  0  0
M  CHG  1  77   1
M  ISO  4  39 100  62 101  76 100  85 101
M  END
> <Batch ID>
0096

> <Smiles>
CNC(C)C(=O)NC(C(=O)N1Cc2cc([101O:1][101CH2:1]C3CCC(=O)N(c4ccc([100N:0](C)[100C:0](=O)N5CCCC(n6nc(-c7ccc(Oc8ccc(F)cc8F)cc7)c(C(N)=O)c6N)C5)cc4N)C3)ccc2CC1C(=O)NC1CCCc2ccccc21)C(C)(C)C

> <Shape>
0.282

> <Color>
0.103

> <Negative vol penalty>
0.000

$$$$

  -OEChem-04052300463D

 88 97  0     1  0  0  0  0  0999 V2000
  -27.3469  -38.0636   24.4186 C   0  0  0  0  0  0  0  0  0  0  0  0
  -27.5089  -37.1521   25.4570 C   0  0  0  0  0  0  0  0  0  0  0  0
  -22.8913  -10.3815   22.0069 C   0  0  0  0  0  0  0  0  0  0  0  0
  -24.5535  -10.7516   23.7208 C   0  0  0  0  0  0  0  0  0  0  0  0
  -26.2655  -37.9408   23.5472 C   0  0  0  0  0  0  0  0  0  0  0  0
  -26.5888  -36.1179   25.6253 C   0  0  0  0  0  0  0  0  0  0  0  0
  -28.6837  -29.2276   25.4626 C   0  0  0  0  0  0  0  0  0  0  0  0
  -31.1421  -19.0182   21.3994 C   0  0  0  0  0  0  0  0  0  0  0  0
  -30.7367  -20.0184   22.2830 C   0  0  0  0  0  0  0  0  0  0  0  0
  -22.2225   -9.4919   22.8477 C   0  0  0  0  0  0  0  0  0  0  0  0
  -23.8846   -9.8621   24.5616 C   0  0  0  0  0  0  0  0  0  0  0  0
  -29.0377  -27.8919   25.6546 C   0  0  0  0  0  0  0  0  0  0  0  0
  -22.5564   -6.2803   23.8470 C   0  0  0  0  0  0  0  0  0  0  0  0
  -22.1218   -5.0737   23.2986 C   0  0  0  0  0  0  0  0  0  0  0  0
  -26.7065  -27.2985   25.9021 C   0  0  0  0  0  0  0  0  0  0  0  0
  -28.8654  -18.7774   20.6274 C   0  0  0  0  0  0  0  0  0  0  0  0
  -19.8413   -5.6396   23.8608 C   0  0  0  0  0  0  0  0  0  0  0  0
  -24.0569  -11.0113   22.4434 C   0  0  0  0  0  0  0  0  0  0  0  0
  -24.2415  -13.1197   21.0193 C   0  0  0  0  0  0  0  0  0  0  0  0
  -25.3370  -36.8989   23.6991 C   0  0  0  0  0  0  0  0  0  0  0  0
  -27.3371  -29.6017   25.4743 C   0  0  0  0  0  0  0  0  0  0  0  0
  -25.4932  -35.9819   24.7560 C   0  0  0  0  0  0  0  0  0  0  0  0
  -26.3451  -28.6328   25.6979 C   0  0  0  0  0  0  0  0  0  0  0  0
  -30.2064  -18.3977   20.5715 C   0  0  0  0  0  0  0  0  0  0  0  0
  -29.3957  -20.3981   22.3389 C   0  0  0  0  0  0  0  0  0  0  0  0
  -22.7191   -9.2322   24.1250 C   0  0  0  0  0  0  0  0  0  0  0  0
  -28.0516  -26.9299   25.8740 C   0  0  0  0  0  0  0  0  0  0  0  0
  -21.6335   -7.1666   24.4024 C   0  0  0  0  0  0  0  0  0  0  0  0
  -28.4600  -19.7777   21.5111 C   0  0  0  0  0  0  0  0  0  0  0  0
  -20.7643   -4.7534   23.3054 C   0  0  0  0  0  0  0  0  0  0  0  0
  -20.2760   -6.8463   24.4093 C   0  0  0  0  0  0  0  0  0  0  0  0
  -24.7486  -11.9299   21.5751 C   0  0  0  0  0  0  0  0  0  0  0  0
  -25.2817  -13.6221   20.2762 C   0  0  0  0  0  0  0  0  0  0  0  0
  -22.9461  -13.7174   21.1619 C   0  0  0  0  0  0  0  0  0  0  0  0
  -24.8250  -32.3682   25.1403 C   0  0  0  0  0  0  0  0  0  0  0  0
  -23.6617  -29.9284   23.6897 C   0  0  0  0  0  0  0  0  0  0  0  0
  -22.9278  -27.1547   21.8444 C   0  0  0  0  0  0  0  0  0  0  0  0
  -30.6941  -14.8482   19.6860 C   0  0  0  0  0  0  0  0  0  0  0  0
  -24.1578  -36.8349   22.7610 C   0  0  0  0  0  0  0  0  0  0  0  0
  -26.9134  -31.0385   25.3332 C   0  0  0  0  0  0  0  0  0  0  0  0
  -24.9115  -29.0868   25.7367 C   0  0  0  0  0  0  0  0  0  0  0  0
  -23.4357  -35.4901   22.7813 C   0  0  0  0  0  0  0  0  0  0  0  0
  -29.6806  -11.5203   18.9277 C   0  0  0  0  0  0  0  0  0  0  0  0
  -23.2014  -35.0316   24.2171 C   0  0  0  0  0  0  0  0  0  0  0  0
  -28.2685  -11.4267   19.5083 C   0  0  0  0  0  0  0  0  0  0  0  0
  -27.2640  -22.2914   24.7380 C   0  0  0  0  0  0  0  0  0  0  0  0
  -29.2074  -23.7154   24.0613 C   0  0  0  0  0  0  0  0  0  0  0  0
  -30.5948  -12.3757   19.8021 C   0  0  0  0  0  0  0  0  0  0  0  0
  -28.0088  -21.0492   24.2531 C   0  0  0  0  0  0  0  0  0  0  0  0
  -29.9477  -22.4713   23.5722 C   0  0  0  0  0  0  0  0  0  0  0  0
  -28.6662  -13.6299   20.6859 C   0  0  0  0  0  0  0  0  0  0  0  0
  -24.5301  -34.8319   24.9562 C   0  0  1  0  0  0  0  0  0  0  0  0
  -25.5841  -31.2040   24.5750 C   0  0  1  0  0  0  0  0  0  0  0  0
  -28.2300  -23.3884   25.1928 C   0  0  0  0  0  0  0  0  0  0  0  0
  -27.6925  -12.8233   19.8097 C   0  0  2  0  0  0  0  0  0  0  0  0
  -30.3607  -17.6807   18.1583 C   0  0  0  0  0  0  0  0  0  0  0  0
  -21.1646  -26.2044   20.3325 C   0  0  0  0  0  0  0  0  0  0  0  0
  -21.8985  -29.3558   26.1119 C   0  0  0  0  0  0  0  0  0  0  0  0
  -20.6952  -27.6405   24.7415 C   0  0  0  0  0  0  0  0  0  0  0  0
  -20.6537  -30.0377   24.0528 C   0  0  0  0  0  0  0  0  0  0  0  0
  -24.8162  -26.9577   19.5741 C   0  0  0  0  0  0  0  0  0  0  0  0
  -26.7321  -21.1806   20.6735 C   0  0  0  0  0  0  0  0  0  0  0  0
  -27.4682  -24.6367   25.6317 C   0  0  0  0  0  0  0  0  0  1  0  0
  -30.6404  -17.3286   19.6266 C   0  0  2  0  0  0  0  0  0  0  0  0
  -22.7843  -28.7052   23.7756 C   0  0  1  0  0  0  0  0  0  0  0  0
  -22.4622  -26.9940   20.4085 C   0  0  2  0  0  0  0  0  0  0  0  0
  -21.5361  -28.9332   24.6742 C   0  0  0  0  0  0  0  0  0  0  0  0
  -26.0125  -11.6905   21.2158 N   0  0  0  0  0  0  0  0  0  0  0  0
  -26.3085  -12.7369   20.4261 N   0  0  0  0  0  0  0  0  0  0  0  0
  -29.0024  -21.4036   23.2313 N   0  0  0  0  0  0  0  0  0  0  0  0
  -24.6628  -30.0581   24.6600 N   0  0  0  0  0  0  0  0  0  0  0  0
  -29.9913  -13.6874   20.0490 N   0  0  0  0  0  0  0  0  0  0  0  0
  -25.4091  -14.7302   19.5158 N   0  0  0  0  0  0  0  0  0  0  0  0
  -21.9956  -13.0691   21.9622 N   0  0  0  0  0  0  0  0  0  0  0  0
  -25.1445  -33.5822   24.5626 N   0  0  0  0  0  0  0  0  0  0  0  0
  -22.4706  -28.3304   22.4010 N   0  0  0  0  0  0  0  0  0  0  0  0
  -30.0477  -16.0497   19.9490 N   0  0  0  0  0  0  0  0  0  0  0  0
  -23.4948  -26.2795   19.6060 N   0  3  0  0  0  0  0  0  0  0  0  0
  -22.6353  -14.7861   20.5833 O   0  0  0  0  0  0  0  0  0  0  0  0
  -24.0079  -32.1801   26.0340 O   0  0  0  0  0  0  0  0  0  0  0  0
  -23.4635  -30.7509   22.7911 O   0  0  0  0  0  0  0  0  0  0  0  0
  -23.6240  -26.3188   22.4163 O   0  0  0  0  0  0  0  0  0  0  0  0
  -31.8124  -14.8159   19.1612 O   0  0  0  0  0  0  0  0  0  0  0  0
  -22.0665   -8.3645   24.9458 O   0  0  0  0  0  0  0  0  0  0  0  0
  -27.1454  -20.1349   21.5503 O   0  0  0  0  0  0  0  0  0  0  0  0
  -28.4039  -25.6270   26.0562 O   0  0  0  0  0  0  0  0  0  1  0  0
  -20.3469   -3.5953   22.7774 F   0  0  0  0  0  0  0  0  0  0  0  0
  -19.3845   -7.6942   24.9404 F   0  0  0  0  0  0  0  0  0  0  0  0
  1  2  1  0  0  0  0
  1  5  2  0  0  0  0
  2  6  2  0  0  0  0
  3 10  2  0  0  0  0
  3 18  1  0  0  0  0
  4 11  1  0  0  0  0
  4 18  2  0  0  0  0
  5 20  1  0  0  0  0
  6 22  1  0  0  0  0
  7 12  2  0  0  0  0
  7 21  1  0  0  0  0
  8  9  2  0  0  0  0
  8 24  1  0  0  0  0
  9 25  1  0  0  0  0
 10 26  1  0  0  0  0
 11 26  2  0  0  0  0
 12 27  1  0  0  0  0
 13 14  2  0  0  0  0
 13 28  1  0  0  0  0
 14 30  1  0  0  0  0
 15 23  1  0  0  0  0
 15 27  2  0  0  0  0
 16 24  2  0  0  0  0
 16 29  1  0  0  0  0
 17 30  2  0  0  0  0
 17 31  1  0  0  0  0
 18 32  1  0  0  0  0
 19 32  1  0  0  0  0
 19 33  2  0  0  0  0
 19 34  1  0  0  0  0
 20 22  2  0  0  0  0
 20 39  1  0  0  0  0
 21 23  2  0  0  0  0
 21 40  1  0  0  0  0
 22 52  1  0  0  0  0
 23 41  1  0  0  0  0
 24 64  1  0  0  0  0
 25 29  2  0  0  0  0
 25 70  1  0  0  0  0
 26 84  1  0  0  0  0
 27 86  1  0  0  0  0
 28 31  2  0  0  0  0
 28 84  1  0  0  0  0
 29 85  1  0  0  0  0
 30 87  1  0  0  0  0
 31 88  1  0  0  0  0
 32 68  2  0  0  0  0
 33 69  1  0  0  0  0
 33 73  1  0  0  0  0
 34 74  1  0  0  0  0
 34 79  2  0  0  0  0
 35 53  1  0  0  0  0
 35 75  1  0  0  0  0
 35 80  2  0  0  0  0
 36 65  1  0  0  0  0
 36 71  1  0  0  0  0
 36 81  2  0  0  0  0
 37 66  1  0  0  0  0
 37 76  1  0  0  0  0
 37 82  2  0  0  0  0
 38 72  1  0  0  0  0
 38 77  1  0  0  0  0
 38 83  2  0  0  0  0
 39 42  1  0  0  0  0
 40 53  1  0  0  0  0
 41 71  1  0  0  0  0
 42 44  1  0  0  0  0
 43 45  1  0  0  0  0
 43 48  1  0  0  0  0
 44 52  1  0  0  0  0
 45 55  1  0  0  0  0
 46 49  1  0  0  0  0
 46 54  1  0  0  0  0
 47 50  1  0  0  0  0
 47 54  1  0  0  0  0
 48 72  1  0  0  0  0
 49 70  1  0  0  0  0
 50 70  1  0  0  0  0
 51 55  1  0  0  0  0
 51 72  1  0  0  0  0
 52 75  1  0  0  0  0
 53 71  1  0  0  0  0
 54 63  1  0  0  0  0
 55 69  1  0  0  0  0
 56 64  1  0  0  0  0
 57 66  1  0  0  0  0
 58 67  1  0  0  0  0
 59 67  1  0  0  0  0
 60 67  1  0  0  0  0
 61 78  1  0  0  0  0
 62 85  1  0  0  0  0
 63 86  1  0  0  0  0
 64 77  1  0  0  0  0
 65 67  1  0  0  0  0
 65 76  1  0  0  0  0
 66 78  1  0  0  0  0
 68 69  1  0  0  0  0
M  CHG  1  78   1
M  ISO  4  38 100  63 101  77 100  86 101
M  END
> <Batch ID>
0096

> <Smiles>
CNC(C)C(=O)NC(C(=O)N1Cc2cc([101O:1][101CH2:1]C3CCN(c4ccc(C(C)[100NH:0][100C:0](=O)N5CCCC(n6nc(-c7ccc(Oc8ccc(F)cc8F)cc7)c(C(N)=O)c6N)C5)cc4OC)CC3)ccc2CC1C(=O)NC1CCCc2ccccc21)C(C)(C)C

> <Shape>
0.304

> <Color>
0.139

> <Negative vol penalty>
0.000

$$$$

  -OEChem-04052300463D

 88 97  0     1  0  0  0  0  0999 V2000
  -28.6464  -33.0816   28.1327 C   0  0  0  0  0  0  0  0  0  0  0  0
  -27.5158  -32.2746   28.2102 C   0  0  0  0  0  0  0  0  0  0  0  0
  -23.2135  -10.6042   18.8344 C   0  0  0  0  0  0  0  0  0  0  0  0
  -24.4754   -9.4654   20.5514 C   0  0  0  0  0  0  0  0  0  0  0  0
  -26.6211  -18.9357   18.2588 C   0  0  0  0  0  0  0  0  0  0  0  0
  -28.8088  -33.9504   27.0543 C   0  0  0  0  0  0  0  0  0  0  0  0
  -26.5463  -32.3368   27.2099 C   0  0  0  0  0  0  0  0  0  0  0  0
  -24.7573  -26.4841   23.4104 C   0  0  0  0  0  0  0  0  0  0  0  0
  -25.4539  -19.6567   18.0070 C   0  0  0  0  0  0  0  0  0  0  0  0
  -22.6285   -9.3941   18.4617 C   0  0  0  0  0  0  0  0  0  0  0  0
  -23.8903   -8.2552   20.1787 C   0  0  0  0  0  0  0  0  0  0  0  0
  -24.2097  -25.3643   22.7840 C   0  0  0  0  0  0  0  0  0  0  0  0
  -20.9490   -6.6611   20.6558 C   0  0  0  0  0  0  0  0  0  0  0  0
  -20.4845   -5.8271   21.6729 C   0  0  0  0  0  0  0  0  0  0  0  0
  -27.5350  -20.8302   19.4475 C   0  0  0  0  0  0  0  0  0  0  0  0
  -22.7333  -26.7892   21.5041 C   0  0  0  0  0  0  0  0  0  0  0  0
  -21.9930   -4.0894   20.9369 C   0  0  0  0  0  0  0  0  0  0  0  0
  -24.1370  -10.6399   19.8793 C   0  0  0  0  0  0  0  0  0  0  0  0
  -27.6617  -19.5224   18.9791 C   0  0  0  0  0  0  0  0  0  0  0  0
  -24.0847  -13.0459   20.7253 C   0  0  0  0  0  0  0  0  0  0  0  0
  -27.8454  -34.0162   26.0354 C   0  0  0  0  0  0  0  0  0  0  0  0
  -24.3052  -27.7632   23.0744 C   0  0  0  0  0  0  0  0  0  0  0  0
  -26.6952  -33.2083   26.1177 C   0  0  0  0  0  0  0  0  0  0  0  0
  -23.2868  -27.9153   22.1192 C   0  0  0  0  0  0  0  0  0  0  0  0
  -25.3272  -20.9644   18.4754 C   0  0  0  0  0  0  0  0  0  0  0  0
  -22.9669   -8.2196   19.1338 C   0  0  0  0  0  0  0  0  0  0  0  0
  -23.2000  -25.5165   21.8334 C   0  0  0  0  0  0  0  0  0  0  0  0
  -21.9354   -6.2092   19.7792 C   0  0  0  0  0  0  0  0  0  0  0  0
  -21.0066   -4.5413   21.8134 C   0  0  0  0  0  0  0  0  0  0  0  0
  -26.3678  -21.5512   19.1956 C   0  0  0  0  0  0  0  0  0  0  0  0
  -22.4575   -4.9233   19.9198 C   0  0  0  0  0  0  0  0  0  0  0  0
  -24.7421  -11.8895   20.2644 C   0  0  0  0  0  0  0  0  0  0  0  0
  -25.0955  -13.9473   20.9540 C   0  0  0  0  0  0  0  0  0  0  0  0
  -23.3592  -21.4659   17.0523 C   0  0  0  0  0  0  0  0  0  0  0  0
  -28.9048  -18.7545   19.2470 C   0  0  0  0  0  0  0  0  0  0  0  0
  -22.6855  -13.2839   20.9287 C   0  0  0  0  0  0  0  0  0  0  0  0
  -24.5995  -31.4627   23.6249 C   0  0  0  0  0  0  0  0  0  0  0  0
  -24.2285  -31.0372   20.6097 C   0  0  0  0  0  0  0  0  0  0  0  0
  -24.2726  -31.2701   17.2066 C   0  0  0  0  0  0  0  0  0  0  0  0
  -29.8081  -16.4630   19.4843 C   0  0  0  0  0  0  0  0  0  0  0  0
  -28.0416  -35.0051   24.9137 C   0  0  0  0  0  0  0  0  0  0  0  0
  -24.8232  -28.9937   23.7683 C   0  0  0  0  0  0  0  0  0  0  0  0
  -22.8074  -29.3082   21.8145 C   0  0  0  0  0  0  0  0  0  0  0  0
  -21.9641  -22.0609   17.0189 C   0  0  0  0  0  0  0  0  0  0  0  0
  -27.1493  -34.7390   23.7041 C   0  0  0  0  0  0  0  0  0  0  0  0
  -21.8416  -23.4042   17.7042 C   0  0  0  0  0  0  0  0  0  0  0  0
  -30.1194  -13.3119   21.0561 C   0  0  0  0  0  0  0  0  0  0  0  0
  -25.7141  -34.4738   24.1475 C   0  0  0  0  0  0  0  0  0  0  0  0
  -28.6928  -12.7563   21.0369 C   0  0  0  0  0  0  0  0  0  0  0  0
  -30.4444  -14.0851   19.7789 C   0  0  0  0  0  0  0  0  0  0  0  0
  -23.8270  -22.8623   19.0854 C   0  0  0  0  0  0  0  0  0  0  0  0
  -28.0625  -14.5804   19.4062 C   0  0  0  0  0  0  0  0  0  0  0  0
  -25.6334  -33.2292   25.0396 C   0  0  1  0  0  0  0  0  0  0  0  0
  -24.9047  -30.2199   22.8415 C   0  0  1  0  0  0  0  0  0  0  0  0
  -22.3572  -23.2778   19.1282 C   0  0  1  0  0  0  0  0  0  0  0  0
  -27.6629  -13.8534   20.7004 C   0  0  1  0  0  0  0  0  0  0  0  0
  -23.7194  -32.8448   15.3326 C   0  0  0  0  0  0  0  0  0  0  0  0
  -21.2605  -30.4500   20.9974 C   0  0  0  0  0  0  0  0  0  0  0  0
  -20.8749  -31.2119   18.6439 C   0  0  0  0  0  0  0  0  0  0  0  0
  -21.7807  -32.8052   20.3362 C   0  0  0  0  0  0  0  0  0  0  0  0
  -27.0769  -31.3152   16.2617 C   0  0  0  0  0  0  0  0  0  0  0  0
  -22.1860  -24.5893   19.8918 C   0  0  0  0  0  0  0  0  0  1  0  0
  -23.2653  -30.9594   19.4523 C   0  0  1  0  0  0  0  0  0  0  0  0
  -24.8024  -32.3471   16.2772 C   0  0  2  0  0  0  0  0  0  0  0  0
  -21.8136  -31.3356   19.8630 C   0  0  0  0  0  0  0  0  0  0  0  0
  -26.0678  -12.0399   20.2031 N   0  0  0  0  0  0  0  0  0  0  0  0
  -26.2517  -13.3014   20.6284 N   0  0  0  0  0  0  0  0  0  0  0  0
  -24.1150  -21.7101   18.2119 N   0  0  0  0  0  0  0  0  0  0  0  0
  -23.9547  -30.2240   21.7161 N   0  0  0  0  0  0  0  0  0  0  0  0
  -29.4280  -15.1105   19.5365 N   0  0  0  0  0  0  0  0  0  0  0  0
  -25.0991  -15.2216   21.3996 N   0  0  0  0  0  0  0  0  0  0  0  0
  -22.1330  -12.9894   22.1826 N   0  0  0  0  0  0  0  0  0  0  0  0
  -28.7584  -17.3678   19.2907 N   0  0  0  0  0  0  0  0  0  0  0  0
  -25.7024  -32.0268   24.2372 N   0  0  0  0  0  0  0  0  0  0  0  0
  -23.8247  -31.7991   18.3985 N   0  0  0  0  0  0  0  0  0  0  0  0
  -25.9310  -31.8175   15.4607 N   0  3  0  0  0  0  0  0  0  0  0  0
  -23.7140  -20.7664   16.0996 O   0  0  0  0  0  0  0  0  0  0  0  0
  -29.9662  -19.3594   19.3717 O   0  0  0  0  0  0  0  0  0  0  0  0
  -21.9438  -13.7288   20.0201 O   0  0  0  0  0  0  0  0  0  0  0  0
  -23.4486  -31.8811   23.6700 O   0  0  0  0  0  0  0  0  0  0  0  0
  -25.1950  -31.8016   20.5397 O   0  0  0  0  0  0  0  0  0  0  0  0
  -24.2543  -30.0791   16.9039 O   0  0  0  0  0  0  0  0  0  0  0  0
  -30.9758  -16.8360   19.6351 O   0  0  0  0  0  0  0  0  0  0  0  0
  -22.3961   -7.0386   18.7705 O   0  0  0  0  0  0  0  0  0  0  0  0
  -22.6730  -24.4194   21.2224 O   0  0  0  0  0  0  0  0  0  1  0  0
  -20.5615   -3.7411   22.7911 F   0  0  0  0  0  0  0  0  0  0  0  0
  -26.2575  -22.8078   19.6503 F   0  0  0  0  0  0  0  0  0  0  0  0
  -23.4062   -4.4840   19.0814 F   0  0  0  0  0  0  0  0  0  0  0  0
  1  2  1  0  0  0  0
  1  6  2  0  0  0  0
  2  7  2  0  0  0  0
  3 10  2  0  0  0  0
  3 18  1  0  0  0  0
  4 11  1  0  0  0  0
  4 18  2  0  0  0  0
  5  9  2  0  0  0  0
  5 19  1  0  0  0  0
  6 21  1  0  0  0  0
  7 23  1  0  0  0  0
  8 12  2  0  0  0  0
  8 22  1  0  0  0  0
  9 25  1  0  0  0  0
 10 26  1  0  0  0  0
 11 26  2  0  0  0  0
 12 27  1  0  0  0  0
 13 14  2  0  0  0  0
 13 28  1  0  0  0  0
 14 29  1  0  0  0  0
 15 19  2  0  0  0  0
 15 30  1  0  0  0  0
 16 24  1  0  0  0  0
 16 27  2  0  0  0  0
 17 29  2  0  0  0  0
 17 31  1  0  0  0  0
 18 32  1  0  0  0  0
 19 35  1  0  0  0  0
 20 32  1  0  0  0  0
 20 33  2  0  0  0  0
 20 36  1  0  0  0  0
 21 23  2  0  0  0  0
 21 41  1  0  0  0  0
 22 24  2  0  0  0  0
 22 42  1  0  0  0  0
 23 53  1  0  0  0  0
 24 43  1  0  0  0  0
 25 30  2  0  0  0  0
 25 68  1  0  0  0  0
 26 84  1  0  0  0  0
 27 85  1  0  0  0  0
 28 31  2  0  0  0  0
 28 84  1  0  0  0  0
 29 86  1  0  0  0  0
 30 87  1  0  0  0  0
 31 88  1  0  0  0  0
 32 66  2  0  0  0  0
 33 67  1  0  0  0  0
 33 71  1  0  0  0  0
 34 44  1  0  0  0  0
 34 68  1  0  0  0  0
 34 77  2  0  0  0  0
 35 73  1  0  0  0  0
 35 78  2  0  0  0  0
 36 72  1  0  0  0  0
 36 79  2  0  0  0  0
 37 54  1  0  0  0  0
 37 74  1  0  0  0  0
 37 80  2  0  0  0  0
 38 63  1  0  0  0  0
 38 69  1  0  0  0  0
 38 81  2  0  0  0  0
 39 64  1  0  0  0  0
 39 75  1  0  0  0  0
 39 82  2  0  0  0  0
 40 70  1  0  0  0  0
 40 73  1  0  0  0  0
 40 83  2  0  0  0  0
 41 45  1  0  0  0  0
 42 54  1  0  0  0  0
 43 69  1  0  0  0  0
 44 46  1  0  0  0  0
 45 48  1  0  0  0  0
 46 55  1  0  0  0  0
 47 49  1  0  0  0  0
 47 50  1  0  0  0  0
 48 53  1  0  0  0  0
 49 56  1  0  0  0  0
 50 70  1  0  0  0  0
 51 55  1  0  0  0  0
 51 68  1  0  0  0  0
 52 56  1  0  0  0  0
 52 70  1  0  0  0  0
 53 74  1  0  0  0  0
 54 69  1  0  0  0  0
 55 62  1  0  0  0  0
 56 67  1  0  0  0  0
 57 64  1  0  0  0  0
 58 65  1  0  0  0  0
 59 65  1  0  0  0  0
 60 65  1  0  0  0  0
 61 76  1  0  0  0  0
 62 85  1  0  0  0  0
 63 65  1  0  0  0  0
 63 75  1  0  0  0  0
 64 76  1  0  0  0  0
 66 67  1  0  0  0  0
M  CHG  1  76   1
M  ISO  4  40 100  62 101  73 100  85 101
M  END
> <Batch ID>
0096

> <Smiles>
CNC(C)C(=O)NC(C(=O)N1Cc2cc([101O:1][101CH2:1]C3CCC(=O)N(c4ccc(C(=O)[100NH:0][100C:0](=O)N5CCCC(n6nc(-c7ccc(Oc8ccc(F)cc8F)cc7)c(C(N)=O)c6N)C5)cc4F)C3)ccc2CC1C(=O)NC1CCCc2ccccc21)C(C)(C)C

> <Shape>
0.233

> <Color>
0.101

> <Negative vol penalty>
0.000

$$$$

  -OEChem-04052300463D

 88 97  0     1  0  0  0  0  0999 V2000
  -28.6464  -33.0816   28.1327 C   0  0  0  0  0  0  0  0  0  0  0  0
  -27.5158  -32.2746   28.2102 C   0  0  0  0  0  0  0  0  0  0  0  0
  -23.2135  -10.6042   18.8344 C   0  0  0  0  0  0  0  0  0  0  0  0
  -24.4754   -9.4654   20.5514 C   0  0  0  0  0  0  0  0  0  0  0  0
  -26.6211  -18.9357   18.2588 C   0  0  0  0  0  0  0  0  0  0  0  0
  -28.8088  -33.9504   27.0543 C   0  0  0  0  0  0  0  0  0  0  0  0
  -26.5463  -32.3368   27.2099 C   0  0  0  0  0  0  0  0  0  0  0  0
  -24.7573  -26.4841   23.4104 C   0  0  0  0  0  0  0  0  0  0  0  0
  -25.4539  -19.6567   18.0070 C   0  0  0  0  0  0  0  0  0  0  0  0
  -22.6285   -9.3941   18.4617 C   0  0  0  0  0  0  0  0  0  0  0  0
  -23.8903   -8.2552   20.1787 C   0  0  0  0  0  0  0  0  0  0  0  0
  -24.2097  -25.3643   22.7840 C   0  0  0  0  0  0  0  0  0  0  0  0
  -20.9490   -6.6611   20.6558 C   0  0  0  0  0  0  0  0  0  0  0  0
  -20.4845   -5.8271   21.6729 C   0  0  0  0  0  0  0  0  0  0  0  0
  -27.5350  -20.8302   19.4475 C   0  0  0  0  0  0  0  0  0  0  0  0
  -22.7333  -26.7892   21.5041 C   0  0  0  0  0  0  0  0  0  0  0  0
  -21.9930   -4.0894   20.9369 C   0  0  0  0  0  0  0  0  0  0  0  0
  -24.1370  -10.6399   19.8793 C   0  0  0  0  0  0  0  0  0  0  0  0
  -27.6617  -19.5224   18.9791 C   0  0  0  0  0  0  0  0  0  0  0  0
  -24.0847  -13.0459   20.7253 C   0  0  0  0  0  0  0  0  0  0  0  0
  -27.8454  -34.0162   26.0354 C   0  0  0  0  0  0  0  0  0  0  0  0
  -24.3052  -27.7632   23.0744 C   0  0  0  0  0  0  0  0  0  0  0  0
  -26.6952  -33.2083   26.1177 C   0  0  0  0  0  0  0  0  0  0  0  0
  -23.2868  -27.9153   22.1192 C   0  0  0  0  0  0  0  0  0  0  0  0
  -25.3272  -20.9644   18.4754 C   0  0  0  0  0  0  0  0  0  0  0  0
  -22.9669   -8.2196   19.1338 C   0  0  0  0  0  0  0  0  0  0  0  0
  -23.2000  -25.5165   21.8334 C   0  0  0  0  0  0  0  0  0  0  0  0
  -21.9354   -6.2092   19.7792 C   0  0  0  0  0  0  0  0  0  0  0  0
  -21.0066   -4.5413   21.8134 C   0  0  0  0  0  0  0  0  0  0  0  0
  -26.3678  -21.5512   19.1956 C   0  0  0  0  0  0  0  0  0  0  0  0
  -22.4575   -4.9233   19.9198 C   0  0  0  0  0  0  0  0  0  0  0  0
  -24.7421  -11.8895   20.2644 C   0  0  0  0  0  0  0  0  0  0  0  0
  -25.0955  -13.9473   20.9540 C   0  0  0  0  0  0  0  0  0  0  0  0
  -23.3592  -21.4659   17.0523 C   0  0  0  0  0  0  0  0  0  0  0  0
  -28.9048  -18.7545   19.2470 C   0  0  0  0  0  0  0  0  0  0  0  0
  -22.6855  -13.2839   20.9287 C   0  0  0  0  0  0  0  0  0  0  0  0
  -24.5995  -31.4627   23.6249 C   0  0  0  0  0  0  0  0  0  0  0  0
  -24.2285  -31.0372   20.6097 C   0  0  0  0  0  0  0  0  0  0  0  0
  -24.2726  -31.2701   17.2066 C   0  0  0  0  0  0  0  0  0  0  0  0
  -29.8081  -16.4630   19.4843 C   0  0  0  0  0  0  0  0  0  0  0  0
  -28.0416  -35.0051   24.9137 C   0  0  0  0  0  0  0  0  0  0  0  0
  -24.8232  -28.9937   23.7683 C   0  0  0  0  0  0  0  0  0  0  0  0
  -22.8074  -29.3082   21.8145 C   0  0  0  0  0  0  0  0  0  0  0  0
  -21.9641  -22.0609   17.0189 C   0  0  0  0  0  0  0  0  0  0  0  0
  -27.1493  -34.7390   23.7041 C   0  0  0  0  0  0  0  0  0  0  0  0
  -21.8416  -23.4042   17.7042 C   0  0  0  0  0  0  0  0  0  0  0  0
  -30.1194  -13.3119   21.0561 C   0  0  0  0  0  0  0  0  0  0  0  0
  -25.7141  -34.4738   24.1475 C   0  0  0  0  0  0  0  0  0  0  0  0
  -28.6928  -12.7563   21.0369 C   0  0  0  0  0  0  0  0  0  0  0  0
  -30.4444  -14.0851   19.7789 C   0  0  0  0  0  0  0  0  0  0  0  0
  -23.8270  -22.8623   19.0854 C   0  0  0  0  0  0  0  0  0  0  0  0
  -28.0625  -14.5804   19.4062 C   0  0  0  0  0  0  0  0  0  0  0  0
  -25.6334  -33.2292   25.0396 C   0  0  1  0  0  0  0  0  0  0  0  0
  -24.9047  -30.2199   22.8415 C   0  0  1  0  0  0  0  0  0  0  0  0
  -22.3572  -23.2778   19.1282 C   0  0  1  0  0  0  0  0  0  0  0  0
  -27.6629  -13.8534   20.7004 C   0  0  1  0  0  0  0  0  0  0  0  0
  -23.7194  -32.8448   15.3326 C   0  0  0  0  0  0  0  0  0  0  0  0
  -21.2605  -30.4500   20.9974 C   0  0  0  0  0  0  0  0  0  0  0  0
  -20.8749  -31.2119   18.6439 C   0  0  0  0  0  0  0  0  0  0  0  0
  -21.7807  -32.8052   20.3362 C   0  0  0  0  0  0  0  0  0  0  0  0
  -27.0769  -31.3152   16.2617 C   0  0  0  0  0  0  0  0  0  0  0  0
  -22.1860  -24.5893   19.8918 C   0  0  0  0  0  0  0  0  0  1  0  0
  -23.2653  -30.9594   19.4523 C   0  0  1  0  0  0  0  0  0  0  0  0
  -24.8024  -32.3471   16.2772 C   0  0  2  0  0  0  0  0  0  0  0  0
  -21.8136  -31.3356   19.8630 C   0  0  0  0  0  0  0  0  0  0  0  0
  -26.0678  -12.0399   20.2031 N   0  0  0  0  0  0  0  0  0  0  0  0
  -26.2517  -13.3014   20.6284 N   0  0  0  0  0  0  0  0  0  0  0  0
  -24.1150  -21.7101   18.2119 N   0  0  0  0  0  0  0  0  0  0  0  0
  -23.9547  -30.2240   21.7161 N   0  0  0  0  0  0  0  0  0  0  0  0
  -29.4280  -15.1105   19.5365 N   0  0  0  0  0  0  0  0  0  0  0  0
  -25.0991  -15.2216   21.3996 N   0  0  0  0  0  0  0  0  0  0  0  0
  -22.1330  -12.9894   22.1826 N   0  0  0  0  0  0  0  0  0  0  0  0
  -28.7584  -17.3678   19.2907 N   0  0  0  0  0  0  0  0  0  0  0  0
  -25.7024  -32.0268   24.2372 N   0  0  0  0  0  0  0  0  0  0  0  0
  -23.8247  -31.7991   18.3985 N   0  0  0  0  0  0  0  0  0  0  0  0
  -25.9310  -31.8175   15.4607 N   0  3  0  0  0  0  0  0  0  0  0  0
  -23.7140  -20.7664   16.0996 O   0  0  0  0  0  0  0  0  0  0  0  0
  -29.9662  -19.3594   19.3717 O   0  0  0  0  0  0  0  0  0  0  0  0
  -21.9438  -13.7288   20.0201 O   0  0  0  0  0  0  0  0  0  0  0  0
  -23.4486  -31.8811   23.6700 O   0  0  0  0  0  0  0  0  0  0  0  0
  -25.1950  -31.8016   20.5397 O   0  0  0  0  0  0  0  0  0  0  0  0
  -24.2543  -30.0791   16.9039 O   0  0  0  0  0  0  0  0  0  0  0  0
  -30.9758  -16.8360   19.6351 O   0  0  0  0  0  0  0  0  0  0  0  0
  -22.3961   -7.0386   18.7705 O   0  0  0  0  0  0  0  0  0  0  0  0
  -22.6730  -24.4194   21.2224 O   0  0  0  0  0  0  0  0  0  1  0  0
  -20.5615   -3.7411   22.7911 F   0  0  0  0  0  0  0  0  0  0  0  0
  -26.2575  -22.8078   19.6503 F   0  0  0  0  0  0  0  0  0  0  0  0
  -23.4062   -4.4840   19.0814 F   0  0  0  0  0  0  0  0  0  0  0  0
  1  2  1  0  0  0  0
  1  6  2  0  0  0  0
  2  7  2  0  0  0  0
  3 10  2  0  0  0  0
  3 18  1  0  0  0  0
  4 11  1  0  0  0  0
  4 18  2  0  0  0  0
  5  9  2  0  0  0  0
  5 19  1  0  0  0  0
  6 21  1  0  0  0  0
  7 23  1  0  0  0  0
  8 12  2  0  0  0  0
  8 22  1  0  0  0  0
  9 25  1  0  0  0  0
 10 26  1  0  0  0  0
 11 26  2  0  0  0  0
 12 27  1  0  0  0  0
 13 14  2  0  0  0  0
 13 28  1  0  0  0  0
 14 29  1  0  0  0  0
 15 19  2  0  0  0  0
 15 30  1  0  0  0  0
 16 24  1  0  0  0  0
 16 27  2  0  0  0  0
 17 29  2  0  0  0  0
 17 31  1  0  0  0  0
 18 32  1  0  0  0  0
 19 35  1  0  0  0  0
 20 32  1  0  0  0  0
 20 33  2  0  0  0  0
 20 36  1  0  0  0  0
 21 23  2  0  0  0  0
 21 41  1  0  0  0  0
 22 24  2  0  0  0  0
 22 42  1  0  0  0  0
 23 53  1  0  0  0  0
 24 43  1  0  0  0  0
 25 30  2  0  0  0  0
 25 68  1  0  0  0  0
 26 84  1  0  0  0  0
 27 85  1  0  0  0  0
 28 31  2  0  0  0  0
 28 84  1  0  0  0  0
 29 86  1  0  0  0  0
 30 87  1  0  0  0  0
 31 88  1  0  0  0  0
 32 66  2  0  0  0  0
 33 67  1  0  0  0  0
 33 71  1  0  0  0  0
 34 44  1  0  0  0  0
 34 68  1  0  0  0  0
 34 77  2  0  0  0  0
 35 73  1  0  0  0  0
 35 78  2  0  0  0  0
 36 72  1  0  0  0  0
 36 79  2  0  0  0  0
 37 54  1  0  0  0  0
 37 74  1  0  0  0  0
 37 80  2  0  0  0  0
 38 63  1  0  0  0  0
 38 69  1  0  0  0  0
 38 81  2  0  0  0  0
 39 64  1  0  0  0  0
 39 75  1  0  0  0  0
 39 82  2  0  0  0  0
 40 70  1  0  0  0  0
 40 73  1  0  0  0  0
 40 83  2  0  0  0  0
 41 45  1  0  0  0  0
 42 54  1  0  0  0  0
 43 69  1  0  0  0  0
 44 46  1  0  0  0  0
 45 48  1  0  0  0  0
 46 55  1  0  0  0  0
 47 49  1  0  0  0  0
 47 50  1  0  0  0  0
 48 53  1  0  0  0  0
 49 56  1  0  0  0  0
 50 70  1  0  0  0  0
 51 55  1  0  0  0  0
 51 68  1  0  0  0  0
 52 56  1  0  0  0  0
 52 70  1  0  0  0  0
 53 74  1  0  0  0  0
 54 69  1  0  0  0  0
 55 62  1  0  0  0  0
 56 67  1  0  0  0  0
 57 64  1  0  0  0  0
 58 65  1  0  0  0  0
 59 65  1  0  0  0  0
 60 65  1  0  0  0  0
 61 76  1  0  0  0  0
 62 85  1  0  0  0  0
 63 65  1  0  0  0  0
 63 75  1  0  0  0  0
 64 76  1  0  0  0  0
 66 67  1  0  0  0  0
M  CHG  1  76   1
M  ISO  4  40 100  62 101  73 100  85 101
M  END
> <Batch ID>
0096

> <Smiles>
CNC(C)C(=O)NC(C(=O)N1Cc2cc([101O:1][101CH2:1]C3CCC(=O)N(c4ccc(C(=O)[100NH:0][100C:0](=O)N5CCCC(n6nc(-c7ccc(Oc8ccc(F)cc8F)cc7)c(C(N)=O)c6N)C5)cc4F)C3)ccc2CC1C(=O)NC1CCCc2ccccc21)C(C)(C)C

> <Shape>
0.233

> <Color>
0.101

> <Negative vol penalty>
0.000

$$$$

  -OEChem-04052300463D

 88 97  0     1  0  0  0  0  0999 V2000
  -15.9958  -28.7978   23.2809 C   0  0  0  0  0  0  0  0  0  0  0  0
  -17.0912  -28.3218   22.5675 C   0  0  0  0  0  0  0  0  0  0  0  0
  -22.7933  -10.7387   19.5716 C   0  0  0  0  0  0  0  0  0  0  0  0
  -23.3734   -9.8298   21.7336 C   0  0  0  0  0  0  0  0  0  0  0  0
  -28.1897  -18.2354   17.5028 C   0  0  0  0  0  0  0  0  0  0  0  0
  -16.1577  -29.8429   24.1894 C   0  0  0  0  0  0  0  0  0  0  0  0
  -18.3491  -28.8915   22.7615 C   0  0  0  0  0  0  0  0  0  0  0  0
  -22.0092  -25.4183   23.1918 C   0  0  0  0  0  0  0  0  0  0  0  0
  -27.2620  -19.2765   17.5361 C   0  0  0  0  0  0  0  0  0  0  0  0
  -21.7901   -9.7790   19.4372 C   0  0  0  0  0  0  0  0  0  0  0  0
  -22.3701   -8.8701   21.5993 C   0  0  0  0  0  0  0  0  0  0  0  0
  -22.4667  -24.8263   22.0154 C   0  0  0  0  0  0  0  0  0  0  0  0
  -21.9322   -5.9332   19.9825 C   0  0  0  0  0  0  0  0  0  0  0  0
  -22.2457   -4.6165   20.3195 C   0  0  0  0  0  0  0  0  0  0  0  0
  -24.3755  -26.3014   22.0225 C   0  0  0  0  0  0  0  0  0  0  0  0
  -20.5146   -4.6356   22.0047 C   0  0  0  0  0  0  0  0  0  0  0  0
  -23.5850  -10.7641   20.7198 C   0  0  0  0  0  0  0  0  0  0  0  0
  -29.2221  -18.1910   18.4397 C   0  0  0  0  0  0  0  0  0  0  0  0
  -24.5023  -13.0361   21.4298 C   0  0  0  0  0  0  0  0  0  0  0  0
  -17.4200  -30.4192   24.4017 C   0  0  0  0  0  0  0  0  0  0  0  0
  -22.7270  -26.4654   23.7875 C   0  0  0  0  0  0  0  0  0  0  0  0
  -18.5278  -29.9462   23.6728 C   0  0  0  0  0  0  0  0  0  0  0  0
  -23.9263  -26.9033   23.2079 C   0  0  0  0  0  0  0  0  0  0  0  0
  -28.3992  -20.2288   19.4432 C   0  0  0  0  0  0  0  0  0  0  0  0
  -27.3667  -20.2732   18.5063 C   0  0  0  0  0  0  0  0  0  0  0  0
  -21.5785   -8.8447   20.4511 C   0  0  0  0  0  0  0  0  0  0  0  0
  -23.6485  -25.2697   21.4290 C   0  0  0  0  0  0  0  0  0  0  0  0
  -20.9100   -6.6012   20.6567 C   0  0  0  0  0  0  0  0  0  0  0  0
  -29.3269  -19.1877   19.4099 C   0  0  0  0  0  0  0  0  0  0  0  0
  -21.5369   -3.9677   21.3305 C   0  0  0  0  0  0  0  0  0  0  0  0
  -20.2011   -5.9524   21.6677 C   0  0  0  0  0  0  0  0  0  0  0  0
  -24.6219  -11.7549   20.8589 C   0  0  0  0  0  0  0  0  0  0  0  0
  -25.7594  -13.5789   21.3216 C   0  0  0  0  0  0  0  0  0  0  0  0
  -25.5839  -21.6275   19.5400 C   0  0  0  0  0  0  0  0  0  0  0  0
  -24.8106  -22.6747   19.2318 C   0  0  0  0  0  0  0  0  0  0  0  0
  -30.1980  -17.0723   18.3842 C   0  0  0  0  0  0  0  0  0  0  0  0
  -23.3573  -13.6782   22.0064 C   0  0  0  0  0  0  0  0  0  0  0  0
  -22.1154  -29.5147   24.4447 C   0  0  0  0  0  0  0  0  0  0  0  0
  -24.9948  -29.3670   25.9312 C   0  0  0  0  0  0  0  0  0  0  0  0
  -28.0389  -27.8489   26.2063 C   0  0  0  0  0  0  0  0  0  0  0  0
  -30.3959  -14.6071   18.4679 C   0  0  0  0  0  0  0  0  0  0  0  0
  -17.5370  -31.5784   25.3595 C   0  0  0  0  0  0  0  0  0  0  0  0
  -22.2340  -27.0755   25.0710 C   0  0  0  0  0  0  0  0  0  0  0  0
  -24.7445  -28.0104   23.8188 C   0  0  0  0  0  0  0  0  0  0  0  0
  -25.1350  -23.1577   17.8460 C   0  0  0  0  0  0  0  0  0  0  0  0
  -18.9732  -31.8769   25.7820 C   0  0  0  0  0  0  0  0  0  0  0  0
  -30.1715  -11.4480   20.0386 C   0  0  0  0  0  0  0  0  0  0  0  0
  -19.8955  -31.8893   24.5670 C   0  0  0  0  0  0  0  0  0  0  0  0
  -28.6992  -11.3519   20.4477 C   0  0  0  0  0  0  0  0  0  0  0  0
  -26.2530  -22.1963   17.3807 C   0  0  0  0  0  0  0  0  0  0  0  0
  -30.3407  -12.1382   18.6858 C   0  0  0  0  0  0  0  0  0  0  0  0
  -28.2158  -13.3465   18.9740 C   0  0  0  0  0  0  0  0  0  0  0  0
  -19.9130  -30.5216   23.8737 C   0  0  1  0  0  0  0  0  0  0  0  0
  -22.7766  -28.4808   25.3117 C   0  0  1  0  0  0  0  0  0  0  0  0
  -27.9976  -12.7222   20.3617 C   0  0  1  0  0  0  0  0  0  0  0  0
  -28.5182  -21.2943   20.4871 C   0  0  0  0  0  0  0  0  0  0  0  0
  -30.1943  -27.9743   27.4851 C   0  0  0  0  0  0  0  0  0  0  0  0
  -25.8334  -31.7888   24.2754 C   0  0  0  0  0  0  0  0  0  0  0  0
  -28.2126  -31.2831   24.8686 C   0  0  0  0  0  0  0  0  0  0  0  0
  -26.5751  -31.8500   26.6630 C   0  0  0  0  0  0  0  0  0  0  0  0
  -27.6804  -25.1241   27.3046 C   0  0  0  0  0  0  0  0  0  0  0  0
  -30.0780  -18.4433   21.5401 C   0  0  0  0  0  0  0  0  0  0  0  0
  -23.7696  -23.3210   20.0712 C   0  0  0  0  0  0  0  0  0  1  0  0
  -26.4265  -29.6027   25.5144 C   0  0  1  0  0  0  0  0  0  0  0  0
  -28.8098  -27.3492   27.4148 C   0  0  2  0  0  0  0  0  0  0  0  0
  -26.7457  -31.1116   25.3175 C   0  0  0  0  0  0  0  0  0  0  0  0
  -25.8573  -11.4990   20.4204 N   0  0  0  0  0  0  0  0  0  0  0  0
  -26.5255  -12.6270   20.7158 N   0  0  0  0  0  0  0  0  0  0  0  0
  -26.4448  -21.2891   18.5229 N   0  0  0  0  0  0  0  0  0  0  0  0
  -24.2175  -28.5793   25.0702 N   0  0  0  0  0  0  0  0  0  0  0  0
  -29.6562  -13.4323   18.6898 N   0  0  0  0  0  0  0  0  0  0  0  0
  -26.2730  -14.7728   21.6865 N   0  0  0  0  0  0  0  0  0  0  0  0
  -22.1435  -12.9782   22.0369 N   0  0  0  0  0  0  0  0  0  0  0  0
  -29.6584  -15.7945   18.5339 N   0  0  0  0  0  0  0  0  0  0  0  0
  -20.7455  -29.5933   24.6082 N   0  0  0  0  0  0  0  0  0  0  0  0
  -27.2571  -28.9418   26.5153 N   0  0  0  0  0  0  0  0  0  0  0  0
  -28.9652  -25.8683   27.3541 N   0  3  0  0  0  0  0  0  0  0  0  0
  -31.3823  -17.3216   18.1764 O   0  0  0  0  0  0  0  0  0  0  0  0
  -23.4051  -14.8445   22.4656 O   0  0  0  0  0  0  0  0  0  0  0  0
  -22.7978  -30.1919   23.6848 O   0  0  0  0  0  0  0  0  0  0  0  0
  -24.5833  -29.8576   26.9856 O   0  0  0  0  0  0  0  0  0  0  0  0
  -28.1247  -27.3245   25.0980 O   0  0  0  0  0  0  0  0  0  0  0  0
  -31.6143  -14.6024   18.2665 O   0  0  0  0  0  0  0  0  0  0  0  0
  -20.5994   -7.9082   20.3205 O   0  0  0  0  0  0  0  0  0  0  0  0
  -30.3367  -19.1448   20.3268 O   0  0  0  0  0  0  0  0  0  0  0  0
  -24.0969  -24.6941   20.2803 O   0  0  0  0  0  0  0  0  0  1  0  0
  -21.8370   -2.7027   21.6529 F   0  0  0  0  0  0  0  0  0  0  0  0
  -19.2172   -6.5886   22.3182 F   0  0  0  0  0  0  0  0  0  0  0  0
  1  2  1  0  0  0  0
  1  6  2  0  0  0  0
  2  7  2  0  0  0  0
  3 10  2  0  0  0  0
  3 17  1  0  0  0  0
  4 11  1  0  0  0  0
  4 17  2  0  0  0  0
  5  9  2  0  0  0  0
  5 18  1  0  0  0  0
  6 20  1  0  0  0  0
  7 22  1  0  0  0  0
  8 12  2  0  0  0  0
  8 21  1  0  0  0  0
  9 25  1  0  0  0  0
 10 26  1  0  0  0  0
 11 26  2  0  0  0  0
 12 27  1  0  0  0  0
 13 14  2  0  0  0  0
 13 28  1  0  0  0  0
 14 30  1  0  0  0  0
 15 23  1  0  0  0  0
 15 27  2  0  0  0  0
 16 30  2  0  0  0  0
 16 31  1  0  0  0  0
 17 32  1  0  0  0  0
 18 29  2  0  0  0  0
 18 36  1  0  0  0  0
 19 32  1  0  0  0  0
 19 33  2  0  0  0  0
 19 37  1  0  0  0  0
 20 22  2  0  0  0  0
 20 42  1  0  0  0  0
 21 23  2  0  0  0  0
 21 43  1  0  0  0  0
 22 53  1  0  0  0  0
 23 44  1  0  0  0  0
 24 25  2  0  0  0  0
 24 29  1  0  0  0  0
 24 56  1  0  0  0  0
 25 69  1  0  0  0  0
 26 84  1  0  0  0  0
 27 86  1  0  0  0  0
 28 31  2  0  0  0  0
 28 84  1  0  0  0  0
 29 85  1  0  0  0  0
 30 87  1  0  0  0  0
 31 88  1  0  0  0  0
 32 67  2  0  0  0  0
 33 68  1  0  0  0  0
 33 72  1  0  0  0  0
 34 35  2  0  0  0  0
 34 69  1  0  0  0  0
 35 45  1  0  0  0  0
 35 63  1  0  0  0  0
 36 74  1  0  0  0  0
 36 78  2  0  0  0  0
 37 73  1  0  0  0  0
 37 79  2  0  0  0  0
 38 54  1  0  0  0  0
 38 75  1  0  0  0  0
 38 80  2  0  0  0  0
 39 64  1  0  0  0  0
 39 70  1  0  0  0  0
 39 81  2  0  0  0  0
 40 65  1  0  0  0  0
 40 76  1  0  0  0  0
 40 82  2  0  0  0  0
 41 71  1  0  0  0  0
 41 74  1  0  0  0  0
 41 83  2  0  0  0  0
 42 46  1  0  0  0  0
 43 54  1  0  0  0  0
 44 70  1  0  0  0  0
 45 50  1  0  0  0  0
 46 48  1  0  0  0  0
 47 49  1  0  0  0  0
 47 51  1  0  0  0  0
 48 53  1  0  0  0  0
 49 55  1  0  0  0  0
 50 69  1  0  0  0  0
 51 71  1  0  0  0  0
 52 55  1  0  0  0  0
 52 71  1  0  0  0  0
 53 75  1  0  0  0  0
 54 70  1  0  0  0  0
 55 68  1  0  0  0  0
 57 65  1  0  0  0  0
 58 66  1  0  0  0  0
 59 66  1  0  0  0  0
 60 66  1  0  0  0  0
 61 77  1  0  0  0  0
 62 85  1  0  0  0  0
 63 86  1  0  0  0  0
 64 66  1  0  0  0  0
 64 76  1  0  0  0  0
 65 77  1  0  0  0  0
 67 68  1  0  0  0  0
M  CHG  1  77   1
M  ISO  4  41 100  63 101  74 100  86 101
M  END
> <Batch ID>
0096

> <Smiles>
CNC(C)C(=O)NC(C(=O)N1Cc2cc([101O:1][101CH2:1]C3=CN(c4ccc(C(=O)[100NH:0][100C:0](=O)N5CCCC(n6nc(-c7ccc(Oc8ccc(F)cc8F)cc7)c(C(N)=O)c6N)C5)c(OC)c4C)CC3)ccc2CC1C(=O)NC1CCCc2ccccc21)C(C)(C)C

> <Shape>
0.269

> <Color>
0.121

> <Negative vol penalty>
0.000

$$$$

  -OEChem-04052300463D

 84 92  0     1  0  0  0  0  0999 V2000
  -28.9744  -13.5526   25.2122 C   0  0  0  0  0  0  0  0  0  0  0  0
  -28.8437  -14.9343   25.1167 C   0  0  0  0  0  0  0  0  0  0  0  0
  -22.1319  -21.4337   22.2688 C   0  0  0  0  0  0  0  0  0  0  0  0
  -19.9162  -20.7420   21.5984 C   0  0  0  0  0  0  0  0  0  0  0  0
  -29.5859  -12.8385   24.1826 C   0  0  0  0  0  0  0  0  0  0  0  0
  -29.3256  -15.6030   23.9918 C   0  0  0  0  0  0  0  0  0  0  0  0
  -26.8997  -20.5588   21.3347 C   0  0  0  0  0  0  0  0  0  0  0  0
  -22.3565  -20.1747   22.8255 C   0  0  0  0  0  0  0  0  0  0  0  0
  -20.1408  -19.4829   22.1551 C   0  0  0  0  0  0  0  0  0  0  0  0
  -27.2082  -21.9156   21.4217 C   0  0  0  0  0  0  0  0  0  0  0  0
  -23.6463  -17.0257   24.1045 C   0  0  0  0  0  0  0  0  0  0  0  0
  -24.8706  -16.4105   23.8437 C   0  0  0  0  0  0  0  0  0  0  0  0
  -28.5557  -21.7309   19.4294 C   0  0  0  0  0  0  0  0  0  0  0  0
  -24.4634  -29.1777   21.3658 C   0  0  0  0  0  0  0  0  0  0  0  0
  -24.3922  -16.4617   21.4761 C   0  0  0  0  0  0  0  0  0  0  0  0
  -20.9117  -21.7174   21.6553 C   0  0  0  0  0  0  0  0  0  0  0  0
  -20.9508  -23.4253   19.7608 C   0  0  0  0  0  0  0  0  0  0  0  0
  -30.0668  -13.4976   23.0403 C   0  0  0  0  0  0  0  0  0  0  0  0
  -27.4265  -19.7741   20.2988 C   0  0  0  0  0  0  0  0  0  0  0  0
  -29.9453  -14.8972   22.9466 C   0  0  0  0  0  0  0  0  0  0  0  0
  -28.2502  -20.3649   19.3300 C   0  0  0  0  0  0  0  0  0  0  0  0
  -21.3610  -19.1993   22.7686 C   0  0  0  0  0  0  0  0  0  0  0  0
  -28.0387  -22.5012   20.4707 C   0  0  0  0  0  0  0  0  0  0  0  0
  -22.7948  -17.3590   23.0510 C   0  0  0  0  0  0  0  0  0  0  0  0
  -25.7944  -29.3554   20.8895 C   0  0  0  0  0  0  0  0  0  0  0  0
  -25.2436  -16.1285   22.5296 C   0  0  0  0  0  0  0  0  0  0  0  0
  -23.1678  -17.0770   21.7369 C   0  0  0  0  0  0  0  0  0  0  0  0
  -20.6788  -23.0180   21.0806 C   0  0  0  0  0  0  0  0  0  0  0  0
  -23.8649  -30.3759   21.6881 C   0  0  0  0  0  0  0  0  0  0  0  0
  -26.1625  -30.6827   20.8657 C   0  0  0  0  0  0  0  0  0  0  0  0
  -20.5527  -24.7391   19.7179 C   0  0  0  0  0  0  0  0  0  0  0  0
  -21.5129  -22.6824   18.6709 C   0  0  0  0  0  0  0  0  0  0  0  0
  -22.4980  -30.6226   22.2150 C   0  0  0  0  0  0  0  0  0  0  0  0
  -29.3418  -17.2414   20.1549 C   0  0  0  0  0  0  0  0  0  0  0  0
  -27.4490  -26.0755   20.5601 C   0  0  0  0  0  0  0  0  0  0  0  0
  -28.6122  -17.3563   16.9963 C   0  0  0  0  0  0  0  0  0  0  0  0
  -27.5738  -19.2140   14.3284 C   0  0  0  0  0  0  0  0  0  0  0  0
  -20.4178  -29.4945   22.9388 C   0  0  0  0  0  0  0  0  0  0  0  0
  -30.7629  -12.6887   21.9745 C   0  0  0  0  0  0  0  0  0  0  0  0
  -27.0625  -18.3178   20.2037 C   0  0  0  0  0  0  0  0  0  0  0  0
  -28.8251  -19.5706   18.1867 C   0  0  0  0  0  0  0  0  0  0  0  0
  -30.9107  -13.4286   20.6475 C   0  0  0  0  0  0  0  0  0  0  0  0
  -17.5093  -27.5507   22.4300 C   0  0  0  0  0  0  0  0  0  0  0  0
  -31.4207  -14.8471   20.8811 C   0  0  0  0  0  0  0  0  0  0  0  0
  -18.0513  -26.2237   21.8918 C   0  0  0  0  0  0  0  0  0  0  0  0
  -18.4198  -28.1410   23.5058 C   0  0  0  0  0  0  0  0  0  0  0  0
  -20.3688  -26.9504   22.5884 C   0  0  0  0  0  0  0  0  0  0  0  0
  -30.4331  -15.6554   21.7312 C   0  0  1  0  0  0  0  0  0  0  0  0
  -28.0694  -17.5015   19.3992 C   0  0  1  0  0  0  0  0  0  0  0  0
  -19.5240  -26.3506   21.4528 C   0  0  1  0  0  0  0  0  0  0  0  0
  -27.4473  -31.2822   20.4408 C   0  0  0  0  0  0  0  0  0  0  0  0
  -27.1099  -19.0405   11.8683 C   0  0  0  0  0  0  0  0  0  0  0  0
  -31.6108  -17.3723   16.4323 C   0  0  0  0  0  0  0  0  0  0  0  0
  -31.0987  -18.1466   14.1071 C   0  0  0  0  0  0  0  0  0  0  0  0
  -30.2675  -15.9298   14.8931 C   0  0  0  0  0  0  0  0  0  0  0  0
  -24.7313  -19.9526   14.6943 C   0  0  0  0  0  0  0  0  0  0  0  0
  -27.3633  -24.6800   21.1435 C   0  0  0  0  0  0  0  0  0  1  0  0
  -26.4696  -27.0867   21.1197 C   0  0  0  0  0  0  0  0  0  0  0  0
  -29.2020  -18.0411   15.7871 C   0  0  1  0  0  0  0  0  0  0  0  0
  -26.5203  -18.9517   13.2673 C   0  0  2  0  0  0  0  0  0  0  0  0
  -30.5357  -17.3873   15.3274 C   0  0  0  0  0  0  0  0  0  0  0  0
  -20.1490  -23.9941   21.8226 N   0  0  0  0  0  0  0  0  0  0  0  0
  -20.0850  -25.0278   20.9661 N   0  0  0  0  0  0  0  0  0  0  0  0
  -28.4451  -18.1490   18.1407 N   0  0  0  0  0  0  0  0  0  0  0  0
  -19.7933  -28.2369   23.0084 N   0  0  0  0  0  0  0  0  0  0  0  0
  -20.5606  -25.6641   18.7347 N   0  0  0  0  0  0  0  0  0  0  0  0
  -21.8664  -21.3435   18.8870 N   0  0  0  0  0  0  0  0  0  0  0  0
  -21.7134  -29.4856   22.4101 N   0  0  0  0  0  0  0  0  0  0  0  0
  -29.3141  -16.0945   20.9253 N   0  0  0  0  0  0  0  0  0  0  0  0
  -28.1565  -18.0448   14.7696 N   0  0  0  0  0  0  0  0  0  0  0  0
  -25.4165  -19.9470   13.3762 N   0  3  0  0  0  0  0  0  0  0  0  0
  -21.7116  -23.1956   17.5437 O   0  0  0  0  0  0  0  0  0  0  0  0
  -22.1576  -31.7724   22.4795 O   0  0  0  0  0  0  0  0  0  0  0  0
  -30.2797  -18.0225   20.0460 O   0  0  0  0  0  0  0  0  0  0  0  0
  -28.2630  -26.3690   19.6858 O   0  0  0  0  0  0  0  0  0  0  0  0
  -28.3043  -16.1639   16.9258 O   0  0  0  0  0  0  0  0  0  0  0  0
  -27.8545  -20.3434   14.7235 O   0  0  0  0  0  0  0  0  0  0  0  0
  -19.8569  -30.5399   23.2817 O   0  0  0  0  0  0  0  0  0  0  0  0
  -21.5800  -17.9705   23.3115 O   0  0  0  0  0  0  0  0  0  0  0  0
  -28.3420  -23.8253   20.5537 O   0  0  0  0  0  0  0  0  0  1  0  0
  -26.6343  -28.3415   20.4936 O   0  0  0  0  0  0  0  0  0  0  0  0
  -26.4201  -15.5391   22.2792 F   0  0  0  0  0  0  0  0  0  0  0  0
  -22.3545  -17.3958   20.7206 F   0  0  0  0  0  0  0  0  0  0  0  0
  -24.9062  -31.7078   21.4162 S   0  0  0  0  0  0  0  0  0  0  0  0
  1  2  1  0  0  0  0
  1  5  2  0  0  0  0
  2  6  2  0  0  0  0
  3  8  2  0  0  0  0
  3 16  1  0  0  0  0
  4  9  1  0  0  0  0
  4 16  2  0  0  0  0
  5 18  1  0  0  0  0
  6 20  1  0  0  0  0
  7 10  2  0  0  0  0
  7 19  1  0  0  0  0
  8 22  1  0  0  0  0
  9 22  2  0  0  0  0
 10 23  1  0  0  0  0
 11 12  2  0  0  0  0
 11 24  1  0  0  0  0
 12 26  1  0  0  0  0
 13 21  1  0  0  0  0
 13 23  2  0  0  0  0
 14 25  1  0  0  0  0
 14 29  2  0  0  0  0
 15 26  2  0  0  0  0
 15 27  1  0  0  0  0
 16 28  1  0  0  0  0
 17 28  1  0  0  0  0
 17 31  2  0  0  0  0
 17 32  1  0  0  0  0
 18 20  2  0  0  0  0
 18 39  1  0  0  0  0
 19 21  2  0  0  0  0
 19 40  1  0  0  0  0
 20 48  1  0  0  0  0
 21 41  1  0  0  0  0
 22 79  1  0  0  0  0
 23 80  1  0  0  0  0
 24 27  2  0  0  0  0
 24 79  1  0  0  0  0
 25 30  2  0  0  0  0
 25 81  1  0  0  0  0
 26 82  1  0  0  0  0
 27 83  1  0  0  0  0
 28 62  2  0  0  0  0
 29 33  1  0  0  0  0
 29 84  1  0  0  0  0
 30 51  1  0  0  0  0
 30 84  1  0  0  0  0
 31 63  1  0  0  0  0
 31 66  1  0  0  0  0
 32 67  1  0  0  0  0
 32 72  2  0  0  0  0
 33 68  1  0  0  0  0
 33 73  2  0  0  0  0
 34 49  1  0  0  0  0
 34 69  1  0  0  0  0
 34 74  2  0  0  0  0
 35 57  1  0  0  0  0
 35 58  1  0  0  0  0
 35 75  2  0  0  0  0
 36 59  1  0  0  0  0
 36 64  1  0  0  0  0
 36 76  2  0  0  0  0
 37 60  1  0  0  0  0
 37 70  1  0  0  0  0
 37 77  2  0  0  0  0
 38 65  1  0  0  0  0
 38 68  1  0  0  0  0
 38 78  2  0  0  0  0
 39 42  1  0  0  0  0
 40 49  1  0  0  0  0
 41 64  1  0  0  0  0
 42 44  1  0  0  0  0
 43 45  1  0  0  0  0
 43 46  1  0  0  0  0
 44 48  1  0  0  0  0
 45 50  1  0  0  0  0
 46 65  1  0  0  0  0
 47 50  1  0  0  0  0
 47 65  1  0  0  0  0
 48 69  1  0  0  0  0
 49 64  1  0  0  0  0
 50 63  1  0  0  0  0
 52 60  1  0  0  0  0
 53 61  1  0  0  0  0
 54 61  1  0  0  0  0
 55 61  1  0  0  0  0
 56 71  1  0  0  0  0
 57 80  1  0  0  0  0
 58 81  1  0  0  0  0
 59 61  1  0  0  0  0
 59 70  1  0  0  0  0
 60 71  1  0  0  0  0
 62 63  1  0  0  0  0
M  CHG  1  71   1
M  ISO  4  38 100  57 101  68 100  80 101
M  END
> <Batch ID>
0096

> <Smiles>
CNC(C)C(=O)NC(C(=O)N1Cc2cc([101O:1][101CH2:1]C(=O)COc3cc(C(=O)[100NH:0][100C:0](=O)N4CCCC(n5nc(-c6ccc(Oc7ccc(F)cc7F)cc6)c(C(N)=O)c5N)C4)sc3C)ccc2CC1C(=O)NC1CCCc2ccccc21)C(C)(C)C

> <Shape>
0.196

> <Color>
0.079

> <Negative vol penalty>
0.000

$$$$

  -OEChem-04052300463D

 90 99  0     1  0  0  0  0  0999 V2000
  -22.7245  -28.4896   28.5738 C   0  0  0  0  0  0  0  0  0  0  0  0
  -22.2891  -27.5944   27.6018 C   0  0  0  0  0  0  0  0  0  0  0  0
  -23.2737   -9.7958   19.9024 C   0  0  0  0  0  0  0  0  0  0  0  0
  -23.6971   -9.9271   22.2774 C   0  0  0  0  0  0  0  0  0  0  0  0
  -26.8731  -17.0240   15.9696 C   0  0  0  0  0  0  0  0  0  0  0  0
  -23.6423  -29.4852   28.2418 C   0  0  0  0  0  0  0  0  0  0  0  0
  -22.7704  -27.6952   26.2970 C   0  0  0  0  0  0  0  0  0  0  0  0
  -23.8702  -23.0899   22.4128 C   0  0  0  0  0  0  0  0  0  0  0  0
  -25.7561  -17.7464   15.5500 C   0  0  0  0  0  0  0  0  0  0  0  0
  -22.5322   -8.6309   20.0990 C   0  0  0  0  0  0  0  0  0  0  0  0
  -22.9555   -8.7622   22.4740 C   0  0  0  0  0  0  0  0  0  0  0  0
  -23.1278  -22.5506   21.3631 C   0  0  0  0  0  0  0  0  0  0  0  0
  -19.4285   -7.8020   21.1539 C   0  0  0  0  0  0  0  0  0  0  0  0
  -18.2062   -7.6920   20.4910 C   0  0  0  0  0  0  0  0  0  0  0  0
  -28.1128  -19.0832   16.2146 C   0  0  0  0  0  0  0  0  0  0  0  0
  -24.3534  -23.9202   19.8007 C   0  0  0  0  0  0  0  0  0  0  0  0
  -19.0000   -5.7128   19.3554 C   0  0  0  0  0  0  0  0  0  0  0  0
  -23.8562  -10.4439   20.9916 C   0  0  0  0  0  0  0  0  0  0  0  0
  -28.0515  -17.6924   16.3020 C   0  0  0  0  0  0  0  0  0  0  0  0
  -24.1455  -12.9713   20.8012 C   0  0  0  0  0  0  0  0  0  0  0  0
  -24.1425  -29.5922   26.9345 C   0  0  0  0  0  0  0  0  0  0  0  0
  -24.8539  -24.0580   22.1650 C   0  0  0  0  0  0  0  0  0  0  0  0
  -23.6948  -28.6941   25.9469 C   0  0  0  0  0  0  0  0  0  0  0  0
  -25.1087  -24.4683   20.8486 C   0  0  0  0  0  0  0  0  0  0  0  0
  -25.8174  -19.1372   15.4627 C   0  0  0  0  0  0  0  0  0  0  0  0
  -26.9957  -19.8056   15.7950 C   0  0  0  0  0  0  0  0  0  0  0  0
  -22.3731   -8.1141   21.3847 C   0  0  0  0  0  0  0  0  0  0  0  0
  -23.3674  -22.9678   20.0571 C   0  0  0  0  0  0  0  0  0  0  0  0
  -20.4366   -6.8674   20.9175 C   0  0  0  0  0  0  0  0  0  0  0  0
  -17.9919   -6.6474   19.5918 C   0  0  0  0  0  0  0  0  0  0  0  0
  -20.2224   -5.8228   20.0183 C   0  0  0  0  0  0  0  0  0  0  0  0
  -24.6228  -11.6470   20.7891 C   0  0  0  0  0  0  0  0  0  0  0  0
  -25.2583  -13.7397   20.5612 C   0  0  0  0  0  0  0  0  0  0  0  0
  -22.6124  -18.5760   15.6296 C   0  0  0  0  0  0  0  0  0  0  0  0
  -29.2411  -16.9229   16.7483 C   0  0  0  0  0  0  0  0  0  0  0  0
  -22.8150  -13.4630   21.0108 C   0  0  0  0  0  0  0  0  0  0  0  0
  -25.2869  -27.0872   23.0253 C   0  0  0  0  0  0  0  0  0  0  0  0
  -28.1417  -26.6948   21.5357 C   0  0  0  0  0  0  0  0  0  0  0  0
  -29.9931  -25.0047   19.2200 C   0  0  0  0  0  0  0  0  0  0  0  0
  -29.9476  -14.8010   17.8076 C   0  0  0  0  0  0  0  0  0  0  0  0
  -25.0972  -30.7144   26.6121 C   0  0  0  0  0  0  0  0  0  0  0  0
  -25.6644  -24.6103   23.3054 C   0  0  0  0  0  0  0  0  0  0  0  0
  -26.1676  -25.4900   20.5273 C   0  0  0  0  0  0  0  0  0  0  0  0
  -21.3987  -18.4391   16.5280 C   0  0  0  0  0  0  0  0  0  0  0  0
  -25.8433  -30.5197   25.2947 C   0  0  0  0  0  0  0  0  0  0  0  0
  -21.5750  -19.0163   17.9187 C   0  0  0  0  0  0  0  0  0  0  0  0
  -30.1679  -12.4970   20.4798 C   0  0  0  0  0  0  0  0  0  0  0  0
  -24.8781  -30.0962   24.1921 C   0  0  0  0  0  0  0  0  0  0  0  0
  -28.7055  -12.1832   20.8074 C   0  0  0  0  0  0  0  0  0  0  0  0
  -30.3902  -12.6602   18.9768 C   0  0  0  0  0  0  0  0  0  0  0  0
  -23.4159  -20.4575   17.1004 C   0  0  0  0  0  0  0  0  0  0  0  0
  -28.0373  -13.3002   18.6418 C   0  0  0  0  0  0  0  0  0  0  0  0
  -24.2127  -28.7557   24.5263 C   0  0  1  0  0  0  0  0  0  0  0  0
  -26.2880  -25.9672   22.9931 C   0  0  1  0  0  0  0  0  0  0  0  0
  -22.0649  -20.4540   17.8089 C   0  0  2  0  0  0  0  0  0  0  0  0
  -27.7481  -13.1961   20.1481 C   0  0  1  0  0  0  0  0  0  0  0  0
  -32.2846  -24.9356   18.1994 C   0  0  0  0  0  0  0  0  0  0  0  0
  -27.4761  -29.1695   19.8796 C   0  0  0  0  0  0  0  0  0  0  0  0
  -29.2867  -28.5032   18.2841 C   0  0  0  0  0  0  0  0  0  0  0  0
  -29.8506  -29.0401   20.6540 C   0  0  0  0  0  0  0  0  0  0  0  0
  -27.9217  -21.9933   16.5581 C   0  0  0  0  0  0  0  0  0  0  0  0
  -30.4566  -22.2383   20.1639 C   0  0  0  0  0  0  0  0  0  0  0  0
  -24.6011  -19.8888   15.0048 C   0  0  0  0  0  0  0  0  0  0  0  0
  -22.1725  -21.1055   19.1854 C   0  0  0  0  0  0  0  0  0  1  0  0
  -28.6460  -26.8811   20.1251 C   0  0  1  0  0  0  0  0  0  0  0  0
  -31.3790  -24.3897   19.2924 C   0  0  2  0  0  0  0  0  0  0  0  0
  -28.7935  -28.3806   19.7416 C   0  0  0  0  0  0  0  0  0  0  0  0
  -25.9366  -11.5745   20.5594 N   0  0  0  0  0  0  0  0  0  0  0  0
  -26.2942  -12.8630   20.4249 N   0  0  0  0  0  0  0  0  0  0  0  0
  -23.4566  -19.6566   15.8760 N   0  0  0  0  0  0  0  0  0  0  0  0
  -26.9291  -26.0052   21.6772 N   0  0  0  0  0  0  0  0  0  0  0  0
  -29.4519  -13.6425   18.4309 N   0  0  0  0  0  0  0  0  0  0  0  0
  -25.4421  -15.0729   20.4555 N   0  0  0  0  0  0  0  0  0  0  0  0
  -21.7894  -12.5367   21.2441 N   0  0  0  0  0  0  0  0  0  0  0  0
  -27.0761  -21.2131   15.7103 N   0  0  0  0  0  0  0  0  0  0  0  0
  -28.9716  -15.6971   17.3576 N   0  0  0  0  0  0  0  0  0  0  0  0
  -25.1247  -27.6612   24.2717 N   0  0  0  0  0  0  0  0  0  0  0  0
  -29.8842  -26.1154   20.0298 N   0  0  0  0  0  0  0  0  0  0  0  0
  -31.2975  -22.9095   19.1395 N   0  3  0  0  0  0  0  0  0  0  0  0
  -22.7520  -17.7886   14.6895 O   0  0  0  0  0  0  0  0  0  0  0  0
  -30.3620  -17.3736   16.5283 O   0  0  0  0  0  0  0  0  0  0  0  0
  -22.5408  -14.6865   20.9754 O   0  0  0  0  0  0  0  0  0  0  0  0
  -24.7058  -27.4080   21.9952 O   0  0  0  0  0  0  0  0  0  0  0  0
  -28.8029  -27.1384   22.4779 O   0  0  0  0  0  0  0  0  0  0  0  0
  -29.0978  -24.5480   18.5126 O   0  0  0  0  0  0  0  0  0  0  0  0
  -31.1549  -15.0358   17.6954 O   0  0  0  0  0  0  0  0  0  0  0  0
  -21.6493   -6.9775   21.5770 O   0  0  0  0  0  0  0  0  0  0  0  0
  -22.6438  -22.4435   19.0308 O   0  0  0  0  0  0  0  0  0  1  0  0
  -16.8175   -6.5410   18.9565 F   0  0  0  0  0  0  0  0  0  0  0  0
  -21.1867   -4.9212   19.7880 F   0  0  0  0  0  0  0  0  0  0  0  0
  1  2  1  0  0  0  0
  1  6  2  0  0  0  0
  2  7  2  0  0  0  0
  3 10  2  0  0  0  0
  3 18  1  0  0  0  0
  4 11  1  0  0  0  0
  4 18  2  0  0  0  0
  5  9  2  0  0  0  0
  5 19  1  0  0  0  0
  6 21  1  0  0  0  0
  7 23  1  0  0  0  0
  8 12  2  0  0  0  0
  8 22  1  0  0  0  0
  9 25  1  0  0  0  0
 10 27  1  0  0  0  0
 11 27  2  0  0  0  0
 12 28  1  0  0  0  0
 13 14  2  0  0  0  0
 13 29  1  0  0  0  0
 14 30  1  0  0  0  0
 15 19  2  0  0  0  0
 15 26  1  0  0  0  0
 16 24  1  0  0  0  0
 16 28  2  0  0  0  0
 17 30  2  0  0  0  0
 17 31  1  0  0  0  0
 18 32  1  0  0  0  0
 19 35  1  0  0  0  0
 20 32  1  0  0  0  0
 20 33  2  0  0  0  0
 20 36  1  0  0  0  0
 21 23  2  0  0  0  0
 21 41  1  0  0  0  0
 22 24  2  0  0  0  0
 22 42  1  0  0  0  0
 23 53  1  0  0  0  0
 24 43  1  0  0  0  0
 25 26  2  0  0  0  0
 25 63  1  0  0  0  0
 26 75  1  0  0  0  0
 27 87  1  0  0  0  0
 28 88  1  0  0  0  0
 29 31  2  0  0  0  0
 29 87  1  0  0  0  0
 30 89  1  0  0  0  0
 31 90  1  0  0  0  0
 32 68  2  0  0  0  0
 33 69  1  0  0  0  0
 33 73  1  0  0  0  0
 34 44  1  0  0  0  0
 34 70  1  0  0  0  0
 34 80  2  0  0  0  0
 35 76  1  0  0  0  0
 35 81  2  0  0  0  0
 36 74  1  0  0  0  0
 36 82  2  0  0  0  0
 37 54  1  0  0  0  0
 37 77  1  0  0  0  0
 37 83  2  0  0  0  0
 38 65  1  0  0  0  0
 38 71  1  0  0  0  0
 38 84  2  0  0  0  0
 39 66  1  0  0  0  0
 39 78  1  0  0  0  0
 39 85  2  0  0  0  0
 40 72  1  0  0  0  0
 40 76  1  0  0  0  0
 40 86  2  0  0  0  0
 41 45  1  0  0  0  0
 42 54  1  0  0  0  0
 43 71  1  0  0  0  0
 44 46  1  0  0  0  0
 45 48  1  0  0  0  0
 46 55  1  0  0  0  0
 47 49  1  0  0  0  0
 47 50  1  0  0  0  0
 48 53  1  0  0  0  0
 49 56  1  0  0  0  0
 50 72  1  0  0  0  0
 51 55  1  0  0  0  0
 51 70  1  0  0  0  0
 52 56  1  0  0  0  0
 52 72  1  0  0  0  0
 53 77  1  0  0  0  0
 54 71  1  0  0  0  0
 55 64  1  0  0  0  0
 56 69  1  0  0  0  0
 57 66  1  0  0  0  0
 58 67  1  0  0  0  0
 59 67  1  0  0  0  0
 60 67  1  0  0  0  0
 61 75  1  0  0  0  0
 62 79  1  0  0  0  0
 63 70  1  0  0  0  0
 64 88  1  0  0  0  0
 65 67  1  0  0  0  0
 65 78  1  0  0  0  0
 66 79  1  0  0  0  0
 68 69  1  0  0  0  0
M  CHG  1  79   1
M  ISO  4  40 100  64 101  76 100  88 101
M  END
> <Batch ID>
0096

> <Smiles>
CNc1cc(C(=O)[100NH:0][100C:0](=O)N2CCCC(n3nc(-c4ccc(Oc5ccc(F)cc5F)cc4)c(C(N)=O)c3N)C2)ccc1CN1CC([101CH2:1][101O:1]c2ccc3c(c2)CN(C(=O)C(NC(=O)C(C)NC)C(C)(C)C)C(C(=O)NC2CCCc4ccccc42)C3)CCC1=O

> <Shape>
0.194

> <Color>
0.168

> <Negative vol penalty>
0.000

$$$$

  -OEChem-04052300463D

 80 88  0     1  0  0  0  0  0999 V2000
  -21.8829  -27.8578   23.4170 C   0  0  0  0  0  0  0  0  0  0  0  0
  -22.4307  -26.6259   23.0738 C   0  0  0  0  0  0  0  0  0  0  0  0
  -26.5219  -18.4569   15.3879 C   0  0  0  0  0  0  0  0  0  0  0  0
  -23.9289  -18.1001   20.6551 C   0  0  0  0  0  0  0  0  0  0  0  0
  -25.5603  -18.1923   22.4346 C   0  0  0  0  0  0  0  0  0  0  0  0
  -27.2694  -18.0195   16.4813 C   0  0  0  0  0  0  0  0  0  0  0  0
  -22.4321  -29.0313   22.9023 C   0  0  0  0  0  0  0  0  0  0  0  0
  -23.5274  -26.5668   22.2147 C   0  0  0  0  0  0  0  0  0  0  0  0
  -28.1402  -22.5429   22.4048 C   0  0  0  0  0  0  0  0  0  0  0  0
  -26.2443  -19.8149   15.2313 C   0  0  0  0  0  0  0  0  0  0  0  0
  -23.5342  -19.4052   20.9493 C   0  0  0  0  0  0  0  0  0  0  0  0
  -25.1657  -19.4975   22.7288 C   0  0  0  0  0  0  0  0  0  0  0  0
  -28.3928  -21.3712   21.6927 C   0  0  0  0  0  0  0  0  0  0  0  0
  -21.6045  -20.9661   23.2437 C   0  0  0  0  0  0  0  0  0  0  0  0
  -20.2363  -21.2316   23.2992 C   0  0  0  0  0  0  0  0  0  0  0  0
  -27.4615  -20.2980   17.2615 C   0  0  0  0  0  0  0  0  0  0  0  0
  -29.7782  -22.6112   20.1557 C   0  0  0  0  0  0  0  0  0  0  0  0
  -20.4786  -22.8507   21.5223 C   0  0  0  0  0  0  0  0  0  0  0  0
  -24.9419  -17.4936   21.3978 C   0  0  0  0  0  0  0  0  0  0  0  0
  -27.7392  -18.9400   17.4181 C   0  0  0  0  0  0  0  0  0  0  0  0
  -24.5495  -14.9875   21.1275 C   0  0  0  0  0  0  0  0  0  0  0  0
  -23.5422  -28.9872   22.0441 C   0  0  0  0  0  0  0  0  0  0  0  0
  -28.6969  -23.7615   21.9907 C   0  0  0  0  0  0  0  0  0  0  0  0
  -24.0912  -27.7408   21.6870 C   0  0  0  0  0  0  0  0  0  0  0  0
  -29.5333  -23.7964   20.8658 C   0  0  0  0  0  0  0  0  0  0  0  0
  -26.7140  -20.7354   16.1681 C   0  0  0  0  0  0  0  0  0  0  0  0
  -24.1526  -20.1039   21.9861 C   0  0  0  0  0  0  0  0  0  0  0  0
  -29.2096  -21.4057   20.5663 C   0  0  0  0  0  0  0  0  0  0  0  0
  -22.4098  -21.6428   22.3276 C   0  0  0  0  0  0  0  0  0  0  0  0
  -19.6734  -22.1739   22.4385 C   0  0  0  0  0  0  0  0  0  0  0  0
  -21.8468  -22.5851   21.4669 C   0  0  0  0  0  0  0  0  0  0  0  0
  -25.3497  -16.1453   21.0948 C   0  0  0  0  0  0  0  0  0  0  0  0
  -25.3991  -13.9725   20.7610 C   0  0  0  0  0  0  0  0  0  0  0  0
  -28.5358  -18.4741   18.5829 C   0  0  0  0  0  0  0  0  0  0  0  0
  -23.1622  -14.8426   21.4593 C   0  0  0  0  0  0  0  0  0  0  0  0
  -27.5206  -26.5456   21.0062 C   0  0  0  0  0  0  0  0  0  0  0  0
  -30.6338  -27.4517   21.1025 C   0  0  0  0  0  0  0  0  0  0  0  0
  -33.9210  -26.5398   21.0055 C   0  0  0  0  0  0  0  0  0  0  0  0
  -30.0040  -16.9422   19.4988 C   0  0  0  0  0  0  0  0  0  0  0  0
  -24.0718  -30.2797   21.4753 C   0  0  0  0  0  0  0  0  0  0  0  0
  -28.4364  -25.0118   22.7853 C   0  0  0  0  0  0  0  0  0  0  0  0
  -30.1716  -25.0755   20.3915 C   0  0  0  0  0  0  0  0  0  0  0  0
  -25.4669  -30.1518   20.8689 C   0  0  0  0  0  0  0  0  0  0  0  0
  -29.4807  -14.3548   22.0508 C   0  0  0  0  0  0  0  0  0  0  0  0
  -25.5494  -28.9188   19.9747 C   0  0  0  0  0  0  0  0  0  0  0  0
  -28.6623  -13.2987   21.3149 C   0  0  0  0  0  0  0  0  0  0  0  0
  -30.4155  -15.0886   21.0992 C   0  0  0  0  0  0  0  0  0  0  0  0
  -28.8283  -14.7202   19.2111 C   0  0  0  0  0  0  0  0  0  0  0  0
  -25.2964  -27.6371   20.7776 C   0  0  1  0  0  0  0  0  0  0  0  0
  -28.6401  -26.2882   21.9748 C   0  0  1  0  0  0  0  0  0  0  0  0
  -27.9016  -13.8781   20.1102 C   0  0  2  0  0  0  0  0  0  0  0  0
  -36.2361  -27.5062   21.0687 C   0  0  0  0  0  0  0  0  0  0  0  0
  -30.3243  -28.3760   18.2112 C   0  0  0  0  0  0  0  0  0  0  0  0
  -32.8212  -28.4322   18.0351 C   0  0  0  0  0  0  0  0  0  0  0  0
  -31.6536  -29.9187   19.6630 C   0  0  0  0  0  0  0  0  0  0  0  0
  -34.5997  -25.0527   23.4726 C   0  0  0  0  0  0  0  0  0  0  0  0
  -28.4457  -19.2736   19.8741 C   0  0  0  0  0  0  0  0  0  1  0  0
  -31.7826  -27.4361   20.1232 C   0  0  1  0  0  0  0  0  0  0  0  0
  -35.0976  -26.9175   21.8872 C   0  0  2  0  0  0  0  0  0  0  0  0
  -31.6320  -28.5168   19.0157 C   0  0  0  0  0  0  0  0  0  0  0  0
  -26.6108  -15.8905   20.7361 N   0  0  0  0  0  0  0  0  0  0  0  0
  -29.2558  -17.4002   18.4370 N   0  0  0  0  0  0  0  0  0  0  0  0
  -26.6095  -14.5610   20.5401 N   0  0  0  0  0  0  0  0  0  0  0  0
  -29.8815  -26.2725   21.1982 N   0  0  0  0  0  0  0  0  0  0  0  0
  -29.7003  -15.6431   19.9510 N   0  0  0  0  0  0  0  0  0  0  0  0
  -26.4331  -22.1083   16.0097 N   0  0  0  0  0  0  0  0  0  0  0  0
  -25.2215  -12.6429   20.6095 N   0  0  0  0  0  0  0  0  0  0  0  0
  -22.8167  -14.6004   22.7958 N   0  0  0  0  0  0  0  0  0  0  0  0
  -26.4742  -27.2756   21.5369 N   0  0  0  0  0  0  0  0  0  0  0  0
  -32.9990  -27.5614   20.9189 N   0  0  0  0  0  0  0  0  0  0  0  0
  -35.6092  -25.7187   22.6098 N   0  3  0  0  0  0  0  0  0  0  0  0
  -22.2569  -14.9090   20.5935 O   0  0  0  0  0  0  0  0  0  0  0  0
  -27.6009  -26.1151   19.8617 O   0  0  0  0  0  0  0  0  0  0  0  0
  -30.4165  -28.4703   21.7636 O   0  0  0  0  0  0  0  0  0  0  0  0
  -33.8308  -25.4491   20.4462 O   0  0  0  0  0  0  0  0  0  0  0  0
  -30.8606  -17.6450   20.0372 O   0  0  0  0  0  0  0  0  0  0  0  0
  -23.7679  -21.3775   22.2733 O   0  0  0  0  0  0  0  0  0  0  0  0
  -29.4572  -20.2636   19.8690 O   0  0  0  0  0  0  0  0  0  1  0  0
  -18.3592  -22.4277   22.4908 F   0  0  0  0  0  0  0  0  0  0  0  0
  -22.6152  -23.2376   20.5839 F   0  0  0  0  0  0  0  0  0  0  0  0
  1  2  1  0  0  0  0
  1  7  2  0  0  0  0
  2  8  2  0  0  0  0
  3  6  2  0  0  0  0
  3 10  1  0  0  0  0
  4 11  2  0  0  0  0
  4 19  1  0  0  0  0
  5 12  1  0  0  0  0
  5 19  2  0  0  0  0
  6 20  1  0  0  0  0
  7 22  1  0  0  0  0
  8 24  1  0  0  0  0
  9 13  2  0  0  0  0
  9 23  1  0  0  0  0
 10 26  2  0  0  0  0
 11 27  1  0  0  0  0
 12 27  2  0  0  0  0
 13 28  1  0  0  0  0
 14 15  2  0  0  0  0
 14 29  1  0  0  0  0
 15 30  1  0  0  0  0
 16 20  2  0  0  0  0
 16 26  1  0  0  0  0
 17 25  1  0  0  0  0
 17 28  2  0  0  0  0
 18 30  2  0  0  0  0
 18 31  1  0  0  0  0
 19 32  1  0  0  0  0
 20 34  1  0  0  0  0
 21 32  1  0  0  0  0
 21 33  2  0  0  0  0
 21 35  1  0  0  0  0
 22 24  2  0  0  0  0
 22 40  1  0  0  0  0
 23 25  2  0  0  0  0
 23 41  1  0  0  0  0
 24 49  1  0  0  0  0
 25 42  1  0  0  0  0
 26 66  1  0  0  0  0
 27 77  1  0  0  0  0
 28 78  1  0  0  0  0
 29 31  2  0  0  0  0
 29 77  1  0  0  0  0
 30 79  1  0  0  0  0
 31 80  1  0  0  0  0
 32 61  2  0  0  0  0
 33 63  1  0  0  0  0
 33 67  1  0  0  0  0
 34 57  1  0  0  0  0
 34 62  2  0  0  0  0
 35 68  1  0  0  0  0
 35 72  2  0  0  0  0
 36 50  1  0  0  0  0
 36 69  1  0  0  0  0
 36 73  2  0  0  0  0
 37 58  1  0  0  0  0
 37 64  1  0  0  0  0
 37 74  2  0  0  0  0
 38 59  1  0  0  0  0
 38 70  1  0  0  0  0
 38 75  2  0  0  0  0
 39 62  1  0  0  0  0
 39 65  1  0  0  0  0
 39 76  2  0  0  0  0
 40 43  1  0  0  0  0
 41 50  1  0  0  0  0
 42 64  1  0  0  0  0
 43 45  1  0  0  0  0
 44 46  1  0  0  0  0
 44 47  1  0  0  0  0
 45 49  1  0  0  0  0
 46 51  1  0  0  0  0
 47 65  1  0  0  0  0
 48 51  1  0  0  0  0
 48 65  1  0  0  0  0
 49 69  1  0  0  0  0
 50 64  1  0  0  0  0
 51 63  1  0  0  0  0
 52 59  1  0  0  0  0
 53 60  1  0  0  0  0
 54 60  1  0  0  0  0
 55 60  1  0  0  0  0
 56 71  1  0  0  0  0
 57 78  1  0  0  0  0
 58 60  1  0  0  0  0
 58 70  1  0  0  0  0
 59 71  1  0  0  0  0
 61 63  1  0  0  0  0
M  CHG  1  71   1
M  ISO  4  39 100  57 101  62 100  78 101
M  END
> <Batch ID>
0096

> <Smiles>
CNC(C)C(=O)NC(C(=O)N1Cc2cc([101O:1][101CH:1]=C([100NH:0][100C:0](=O)N3CCCC(n4nc(-c5ccc(Oc6ccc(F)cc6F)cc5)c(C(N)=O)c4N)C3)c3cccc(N)c3)ccc2CC1C(=O)NC1CCCc2ccccc21)C(C)(C)C

> <Shape>
0.201

> <Color>
0.068

> <Negative vol penalty>
0.000

$$$$

  -OEChem-04052300463D

 84 93  0     1  0  0  0  0  0999 V2000
  -29.5778  -11.9467   19.6893 C   0  0  0  0  0  0  0  0  0  0  0  0
  -29.5575  -12.9767   20.6243 C   0  0  0  0  0  0  0  0  0  0  0  0
  -22.2003  -27.8959   24.9977 C   0  0  0  0  0  0  0  0  0  0  0  0
  -27.8174  -22.6277   22.1310 C   0  0  0  0  0  0  0  0  0  0  0  0
  -27.0512  -22.3120   19.8616 C   0  0  0  0  0  0  0  0  0  0  0  0
  -28.6570  -11.9389   18.6425 C   0  0  0  0  0  0  0  0  0  0  0  0
  -28.6170  -14.0001   20.5124 C   0  0  0  0  0  0  0  0  0  0  0  0
  -24.6931  -18.4412   24.5368 C   0  0  0  0  0  0  0  0  0  0  0  0
  -23.1296  -28.9100   24.7643 C   0  0  0  0  0  0  0  0  0  0  0  0
  -27.7205  -21.2543   22.3548 C   0  0  0  0  0  0  0  0  0  0  0  0
  -26.9544  -20.9386   20.0853 C   0  0  0  0  0  0  0  0  0  0  0  0
  -24.4051  -19.7982   24.6756 C   0  0  0  0  0  0  0  0  0  0  0  0
  -28.0198  -17.7894   23.4129 C   0  0  0  0  0  0  0  0  0  0  0  0
  -29.0769  -17.1638   24.0738 C   0  0  0  0  0  0  0  0  0  0  0  0
  -24.8744  -27.2585   24.5283 C   0  0  0  0  0  0  0  0  0  0  0  0
  -24.3480  -24.8772   24.7634 C   0  0  0  0  0  0  0  0  0  0  0  0
  -21.6740  -25.5146   25.2329 C   0  0  0  0  0  0  0  0  0  0  0  0
  -22.8123  -19.6386   22.8710 C   0  0  0  0  0  0  0  0  0  0  0  0
  -30.5847  -17.8564   22.3177 C   0  0  0  0  0  0  0  0  0  0  0  0
  -22.5957  -26.5483   24.9997 C   0  0  0  0  0  0  0  0  0  0  0  0
  -23.9527  -26.2248   24.7614 C   0  0  0  0  0  0  0  0  0  0  0  0
  -27.4827  -23.1566   20.8844 C   0  0  0  0  0  0  0  0  0  0  0  0
  -28.7020  -25.2824   20.1763 C   0  0  0  0  0  0  0  0  0  0  0  0
  -27.6985  -12.9576   18.5231 C   0  0  0  0  0  0  0  0  0  0  0  0
  -24.0497  -17.6738   23.5551 C   0  0  0  0  0  0  0  0  0  0  0  0
  -27.6833  -14.0066   19.4621 C   0  0  0  0  0  0  0  0  0  0  0  0
  -23.0920  -18.2715   22.7235 C   0  0  0  0  0  0  0  0  0  0  0  0
  -24.4640  -28.5919   24.5300 C   0  0  0  0  0  0  0  0  0  0  0  0
  -23.4188  -23.8631   24.9969 C   0  0  0  0  0  0  0  0  0  0  0  0
  -22.0843  -24.1812   25.2312 C   0  0  0  0  0  0  0  0  0  0  0  0
  -27.2891  -20.4098   21.3319 C   0  0  0  0  0  0  0  0  0  0  0  0
  -23.4667  -20.3978   23.8408 C   0  0  0  0  0  0  0  0  0  0  0  0
  -28.2451  -18.4483   22.2043 C   0  0  0  0  0  0  0  0  0  0  0  0
  -30.3593  -17.1973   23.5263 C   0  0  0  0  0  0  0  0  0  0  0  0
  -29.5275  -18.4819   21.6567 C   0  0  0  0  0  0  0  0  0  0  0  0
  -27.5820  -24.5752   20.6529 C   0  0  0  0  0  0  0  0  0  0  0  0
  -28.2885  -26.5915   20.1329 C   0  0  0  0  0  0  0  0  0  0  0  0
  -30.0000  -24.7993   19.8057 C   0  0  0  0  0  0  0  0  0  0  0  0
  -25.0066  -16.0315   21.0074 C   0  0  0  0  0  0  0  0  0  0  0  0
  -25.1433  -30.4418   23.0205 C   0  0  0  0  0  0  0  0  0  0  0  0
  -21.8930  -15.1276   20.9050 C   0  0  0  0  0  0  0  0  0  0  0  0
  -18.6508  -15.8056   21.7269 C   0  0  0  0  0  0  0  0  0  0  0  0
  -26.7540  -12.9315   17.3476 C   0  0  0  0  0  0  0  0  0  0  0  0
  -24.3520  -16.2052   23.4359 C   0  0  0  0  0  0  0  0  0  0  0  0
  -22.3586  -17.4872   21.6673 C   0  0  0  0  0  0  0  0  0  0  0  0
  -25.5490  -13.8538   17.5138 C   0  0  0  0  0  0  0  0  0  0  0  0
  -24.8975  -29.6829   19.5271 C   0  0  0  0  0  0  0  0  0  0  0  0
  -25.9915  -15.2254   18.0137 C   0  0  0  0  0  0  0  0  0  0  0  0
  -25.8053  -28.4651   19.3596 C   0  0  0  0  0  0  0  0  0  0  0  0
  -25.4446  -30.6473   20.5748 C   0  0  0  0  0  0  0  0  0  0  0  0
  -26.6059  -28.8000   21.7412 C   0  0  0  0  0  0  0  0  0  0  0  0
  -26.6625  -15.1213   19.3886 C   0  0  1  0  0  0  0  0  0  0  0  0
  -24.0127  -15.6350   22.0622 C   0  0  1  0  0  0  0  0  0  0  0  0
  -26.0737  -27.7852   20.7139 C   0  0  2  0  0  0  0  0  0  0  0  0
  -25.5797  -30.6659   25.4498 C   0  0  0  0  0  0  0  0  0  0  0  0
  -16.3238  -14.9010   21.4734 C   0  0  0  0  0  0  0  0  0  0  0  0
  -21.8431  -16.0754   18.0051 C   0  0  0  0  0  0  0  0  0  0  0  0
  -19.3419  -16.0424   18.1103 C   0  0  0  0  0  0  0  0  0  0  0  0
  -20.6297  -13.9288   18.4220 C   0  0  0  0  0  0  0  0  0  0  0  0
  -18.3069  -15.5487   24.6552 C   0  0  0  0  0  0  0  0  0  0  0  0
  -23.8865  -22.4374   24.9895 C   0  0  0  0  0  0  0  0  0  1  0  0
  -25.4564  -29.6773   24.2821 C   0  0  1  0  0  0  0  0  0  0  0  0
  -20.6431  -15.6701   20.2549 C   0  0  1  0  0  0  0  0  0  0  0  0
  -17.5674  -14.9423   22.3478 C   0  0  2  0  0  0  0  0  0  0  0  0
  -20.6295  -15.4447   18.7166 C   0  0  0  0  0  0  0  0  0  0  0  0
  -26.5356  -25.3692   20.8952 N   0  0  0  0  0  0  0  0  0  0  0  0
  -26.9964  -26.5890   20.5695 N   0  0  0  0  0  0  0  0  0  0  0  0
  -22.6936  -16.0559   21.5856 N   0  0  0  0  0  0  0  0  0  0  0  0
  -25.7074  -29.9586   21.8397 N   0  0  0  0  0  0  0  0  0  0  0  0
  -21.1307  -23.1669   25.4696 N   0  0  0  0  0  0  0  0  0  0  0  0
  -28.9078  -27.7330   19.7643 N   0  0  0  0  0  0  0  0  0  0  0  0
  -30.2567  -23.4254   19.9110 N   0  0  0  0  0  0  0  0  0  0  0  0
  -25.6663  -14.9651   20.4267 N   0  0  0  0  0  0  0  0  0  0  0  0
  -19.5197  -15.0604   20.9582 N   0  0  0  0  0  0  0  0  0  0  0  0
  -17.1837  -15.4751   23.6856 N   0  3  0  0  0  0  0  0  0  0  0  0
  -30.9108  -25.5653   19.4091 O   0  0  0  0  0  0  0  0  0  0  0  0
  -25.1625  -17.2170   20.7393 O   0  0  0  0  0  0  0  0  0  0  0  0
  -24.4164  -31.4367   23.0842 O   0  0  0  0  0  0  0  0  0  0  0  0
  -22.1458  -13.9234   20.8183 O   0  0  0  0  0  0  0  0  0  0  0  0
  -18.7173  -17.0201   21.9031 O   0  0  0  0  0  0  0  0  0  0  0  0
  -27.1947  -19.0696   21.5498 O   0  0  0  0  0  0  0  0  0  0  0  0
  -23.1842  -21.7223   23.9738 O   0  0  0  0  0  0  0  0  0  1  0  0
  -31.3747  -16.5979   24.1618 F   0  0  0  0  0  0  0  0  0  0  0  0
  -29.7503  -19.1144   20.4965 F   0  0  0  0  0  0  0  0  0  0  0  0
  1  2  1  0  0  0  0
  1  6  2  0  0  0  0
  2  7  2  0  0  0  0
  3  9  2  0  0  0  0
  3 20  1  0  0  0  0
  4 10  2  0  0  0  0
  4 22  1  0  0  0  0
  5 11  1  0  0  0  0
  5 22  2  0  0  0  0
  6 24  1  0  0  0  0
  7 26  1  0  0  0  0
  8 12  2  0  0  0  0
  8 25  1  0  0  0  0
  9 28  1  0  0  0  0
 10 31  1  0  0  0  0
 11 31  2  0  0  0  0
 12 32  1  0  0  0  0
 13 14  2  0  0  0  0
 13 33  1  0  0  0  0
 14 34  1  0  0  0  0
 15 21  1  0  0  0  0
 15 28  2  0  0  0  0
 16 21  2  0  0  0  0
 16 29  1  0  0  0  0
 17 20  2  0  0  0  0
 17 30  1  0  0  0  0
 18 27  1  0  0  0  0
 18 32  2  0  0  0  0
 19 34  2  0  0  0  0
 19 35  1  0  0  0  0
 20 21  1  0  0  0  0
 22 36  1  0  0  0  0
 23 36  1  0  0  0  0
 23 37  2  0  0  0  0
 23 38  1  0  0  0  0
 24 26  2  0  0  0  0
 24 43  1  0  0  0  0
 25 27  2  0  0  0  0
 25 44  1  0  0  0  0
 26 52  1  0  0  0  0
 27 45  1  0  0  0  0
 28 62  1  0  0  0  0
 29 30  2  0  0  0  0
 29 61  1  0  0  0  0
 30 70  1  0  0  0  0
 31 81  1  0  0  0  0
 32 82  1  0  0  0  0
 33 35  2  0  0  0  0
 33 81  1  0  0  0  0
 34 83  1  0  0  0  0
 35 84  1  0  0  0  0
 36 66  2  0  0  0  0
 37 67  1  0  0  0  0
 37 71  1  0  0  0  0
 38 72  1  0  0  0  0
 38 76  2  0  0  0  0
 39 53  1  0  0  0  0
 39 73  1  0  0  0  0
 39 77  2  0  0  0  0
 40 62  1  0  0  0  0
 40 69  1  0  0  0  0
 40 78  2  0  0  0  0
 41 63  1  0  0  0  0
 41 68  1  0  0  0  0
 41 79  2  0  0  0  0
 42 64  1  0  0  0  0
 42 74  1  0  0  0  0
 42 80  2  0  0  0  0
 43 46  1  0  0  0  0
 44 53  1  0  0  0  0
 45 68  1  0  0  0  0
 46 48  1  0  0  0  0
 47 49  1  0  0  0  0
 47 50  1  0  0  0  0
 48 52  1  0  0  0  0
 49 54  1  0  0  0  0
 50 69  1  0  0  0  0
 51 54  1  0  0  0  0
 51 69  1  0  0  0  0
 52 73  1  0  0  0  0
 53 68  1  0  0  0  0
 54 67  1  0  0  0  0
 55 62  1  0  0  0  0
 56 64  1  0  0  0  0
 57 65  1  0  0  0  0
 58 65  1  0  0  0  0
 59 65  1  0  0  0  0
 60 75  1  0  0  0  0
 61 82  1  0  0  0  0
 63 65  1  0  0  0  0
 63 74  1  0  0  0  0
 64 75  1  0  0  0  0
 66 67  1  0  0  0  0
M  CHG  1  75   1
M  ISO  4  40 100  61 101  62 100  82 101
M  END
> <Batch ID>
0096

> <Smiles>
CNC(C)C(=O)NC(C(=O)N1Cc2cc([101O:1][101CH2:1]c3cc4cc([100CH:0](C)[100C:0](=O)N5CCCC(n6nc(-c7ccc(Oc8ccc(F)cc8F)cc7)c(C(N)=O)c6N)C5)ccc4cc3N)ccc2CC1C(=O)NC1CCCc2ccccc21)C(C)(C)C

> <Shape>
0.187

> <Color>
0.081

> <Negative vol penalty>
0.000

$$$$

  -OEChem-04052300463D

 91100  0     1  0  0  0  0  0999 V2000
  -32.2916  -14.8250   20.5792 C   0  0  0  0  0  0  0  0  0  0  0  0
  -31.4265  -15.9004   20.4042 C   0  0  0  0  0  0  0  0  0  0  0  0
  -20.7054  -24.9247   21.5508 C   0  0  0  0  0  0  0  0  0  0  0  0
  -20.0486  -24.7437   23.8688 C   0  0  0  0  0  0  0  0  0  0  0  0
  -31.8076  -13.5206   20.4894 C   0  0  0  0  0  0  0  0  0  0  0  0
  -30.0769  -15.6718   20.1381 C   0  0  0  0  0  0  0  0  0  0  0  0
  -26.9731  -18.6701   22.9433 C   0  0  0  0  0  0  0  0  0  0  0  0
  -21.1051  -23.5884   21.5597 C   0  0  0  0  0  0  0  0  0  0  0  0
  -20.4482  -23.4073   23.8776 C   0  0  0  0  0  0  0  0  0  0  0  0
  -26.8036  -19.9976   22.5524 C   0  0  0  0  0  0  0  0  0  0  0  0
  -19.2229  -20.4358   22.8338 C   0  0  0  0  0  0  0  0  0  0  0  0
  -18.3672  -19.5091   23.4292 C   0  0  0  0  0  0  0  0  0  0  0  0
  -25.2551  -29.4208   22.1576 C   0  0  0  0  0  0  0  0  0  0  0  0
  -24.4634  -28.3959   20.1181 C   0  0  0  0  0  0  0  0  0  0  0  0
  -24.7381  -19.4049   21.4568 C   0  0  0  0  0  0  0  0  0  0  0  0
  -20.1017  -18.9196   25.0044 C   0  0  0  0  0  0  0  0  0  0  0  0
  -20.1772  -25.5024   22.7054 C   0  0  0  0  0  0  0  0  0  0  0  0
  -24.8768  -28.2827   21.4455 C   0  0  0  0  0  0  0  0  0  0  0  0
  -25.2200  -30.6722   21.5424 C   0  0  0  0  0  0  0  0  0  0  0  0
  -18.7811  -27.4713   21.8797 C   0  0  0  0  0  0  0  0  0  0  0  0
  -30.4495  -13.2760   20.2317 C   0  0  0  0  0  0  0  0  0  0  0  0
  -26.0302  -17.6960   22.5846 C   0  0  0  0  0  0  0  0  0  0  0  0
  -29.5745  -14.3629   20.0435 C   0  0  0  0  0  0  0  0  0  0  0  0
  -24.8955  -18.0668   21.8485 C   0  0  0  0  0  0  0  0  0  0  0  0
  -24.8066  -30.7854   20.2150 C   0  0  0  0  0  0  0  0  0  0  0  0
  -24.4283  -29.6473   19.5029 C   0  0  0  0  0  0  0  0  0  0  0  0
  -20.9764  -22.8297   22.7231 C   0  0  0  0  0  0  0  0  0  0  0  0
  -25.6872  -20.3647   21.8071 C   0  0  0  0  0  0  0  0  0  0  0  0
  -20.5180  -20.6045   23.3237 C   0  0  0  0  0  0  0  0  0  0  0  0
  -18.8066  -18.7510   24.5145 C   0  0  0  0  0  0  0  0  0  0  0  0
  -20.9574  -19.8464   24.4090 C   0  0  0  0  0  0  0  0  0  0  0  0
  -19.7648  -26.8829   22.6971 C   0  0  0  0  0  0  0  0  0  0  0  0
  -18.7675  -28.7923   22.2558 C   0  0  0  0  0  0  0  0  0  0  0  0
  -26.9479  -26.1293   20.7831 C   0  0  0  0  0  0  0  0  0  0  0  0
  -24.8968  -32.2225   23.5697 C   0  0  0  0  0  0  0  0  0  0  0  0
  -25.6286  -31.8599   22.3227 C   0  0  0  0  0  0  0  0  0  0  0  0
  -24.9135  -26.9624   22.0951 C   0  0  0  0  0  0  0  0  0  0  0  0
  -17.9537  -26.8770   20.8709 C   0  0  0  0  0  0  0  0  0  0  0  0
  -26.0307  -14.9826   20.8865 C   0  0  0  0  0  0  0  0  0  0  0  0
  -22.9149  -14.8709   22.0408 C   0  0  0  0  0  0  0  0  0  0  0  0
  -22.7122  -11.6174   21.0342 C   0  0  0  0  0  0  0  0  0  0  0  0
  -22.9739  -32.2486   24.8046 C   0  0  0  0  0  0  0  0  0  0  0  0
  -29.9818  -11.8485   20.0968 C   0  0  0  0  0  0  0  0  0  0  0  0
  -26.2164  -16.2746   23.0423 C   0  0  0  0  0  0  0  0  0  0  0  0
  -23.8534  -17.0601   21.4420 C   0  0  0  0  0  0  0  0  0  0  0  0
  -27.4978  -24.7451   20.5278 C   0  0  0  0  0  0  0  0  0  0  0  0
  -28.4657  -11.6935   20.1835 C   0  0  0  0  0  0  0  0  0  0  0  0
  -19.6191  -31.6417   25.9944 C   0  0  0  0  0  0  0  0  0  0  0  0
  -27.7719  -12.7329   19.3088 C   0  0  0  0  0  0  0  0  0  0  0  0
  -19.2030  -30.3835   25.2330 C   0  0  0  0  0  0  0  0  0  0  0  0
  -21.1061  -31.6240   26.3346 C   0  0  0  0  0  0  0  0  0  0  0  0
  -25.5152  -24.5821   21.8340 C   0  0  0  0  0  0  0  0  0  0  0  0
  -21.5800  -30.1717   24.3807 C   0  0  0  0  0  0  0  0  0  0  0  0
  -28.0991  -14.1557   19.7780 C   0  0  1  0  0  0  0  0  0  0  0  0
  -25.4145  -15.2613   22.2281 C   0  0  1  0  0  0  0  0  0  0  0  0
  -26.3025  -23.8324   20.7760 C   0  0  2  0  0  0  0  0  0  0  0  0
  -20.0910  -30.1681   23.9944 C   0  0  1  0  0  0  0  0  0  0  0  0
  -24.7686  -32.1285   19.5549 C   0  0  0  0  0  0  0  0  0  0  0  0
  -21.2369   -9.5938   21.1957 C   0  0  0  0  0  0  0  0  0  0  0  0
  -23.8619  -14.4132   24.9042 C   0  0  0  0  0  0  0  0  0  0  0  0
  -23.1771  -12.0162   24.6727 C   0  0  0  0  0  0  0  0  0  0  0  0
  -21.4671  -13.8233   24.4903 C   0  0  0  0  0  0  0  0  0  0  0  0
  -22.3289  -11.5193   18.1012 C   0  0  0  0  0  0  0  0  0  0  0  0
  -26.6996  -22.4316   21.2077 C   0  0  0  0  0  0  0  0  0  1  0  0
  -23.1231  -13.4895   22.6093 C   0  0  1  0  0  0  0  0  0  0  0  0
  -21.5870  -10.8319   20.3850 C   0  0  2  0  0  0  0  0  0  0  0  0
  -22.9259  -13.4471   24.1509 C   0  0  0  0  0  0  0  0  0  0  0  0
  -20.3348  -27.7583   23.5294 N   0  0  0  0  0  0  0  0  0  0  0  0
  -23.6517  -31.9116   23.6486 N   0  0  0  0  0  0  0  0  0  0  0  0
  -19.7074  -28.9103   23.2370 N   0  0  0  0  0  0  0  0  0  0  0  0
  -25.7449  -25.9811   21.5278 N   0  0  0  0  0  0  0  0  0  0  0  0
  -24.0370  -15.7073   21.9835 N   0  0  0  0  0  0  0  0  0  0  0  0
  -21.9171  -31.3829   25.1404 N   0  0  0  0  0  0  0  0  0  0  0  0
  -24.0068  -29.7409   18.1579 N   0  0  0  0  0  0  0  0  0  0  0  0
  -18.0433  -29.8528   21.8394 N   0  0  0  0  0  0  0  0  0  0  0  0
  -18.0968  -25.5072   20.6110 N   0  0  0  0  0  0  0  0  0  0  0  0
  -27.3211  -14.4926   20.9509 N   0  0  0  0  0  0  0  0  0  0  0  0
  -22.2310  -12.6044   21.8682 N   0  0  0  0  0  0  0  0  0  0  0  0
  -21.9806  -10.4002   19.0140 N   0  3  0  0  0  0  0  0  0  0  0  0
  -27.5099  -27.1571   20.4330 O   0  0  0  0  0  0  0  0  0  0  0  0
  -26.5603  -32.5838   22.0049 O   0  0  0  0  0  0  0  0  0  0  0  0
  -24.2338  -26.8068   23.1080 O   0  0  0  0  0  0  0  0  0  0  0  0
  -17.1239  -27.5443   20.2078 O   0  0  0  0  0  0  0  0  0  0  0  0
  -25.3828  -15.1950   19.8682 O   0  0  0  0  0  0  0  0  0  0  0  0
  -21.7878  -15.2044   21.6643 O   0  0  0  0  0  0  0  0  0  0  0  0
  -23.8992  -11.3769   20.8255 O   0  0  0  0  0  0  0  0  0  0  0  0
  -23.2492  -33.2302   25.4989 O   0  0  0  0  0  0  0  0  0  0  0  0
  -21.3661  -21.5256   22.7320 O   0  0  0  0  0  0  0  0  0  0  0  0
  -25.5190  -21.6599   21.4247 O   0  0  0  0  0  0  0  0  0  1  0  0
  -17.9842  -17.8621   25.0871 F   0  0  0  0  0  0  0  0  0  0  0  0
  -22.2001  -20.0048   24.8848 F   0  0  0  0  0  0  0  0  0  0  0  0
  1  2  1  0  0  0  0
  1  5  2  0  0  0  0
  2  6  2  0  0  0  0
  3  8  2  0  0  0  0
  3 17  1  0  0  0  0
  4  9  1  0  0  0  0
  4 17  2  0  0  0  0
  5 21  1  0  0  0  0
  6 23  1  0  0  0  0
  7 10  2  0  0  0  0
  7 22  1  0  0  0  0
  8 27  1  0  0  0  0
  9 27  2  0  0  0  0
 10 28  1  0  0  0  0
 11 12  2  0  0  0  0
 11 29  1  0  0  0  0
 12 30  1  0  0  0  0
 13 18  2  0  0  0  0
 13 19  1  0  0  0  0
 14 18  1  0  0  0  0
 14 26  2  0  0  0  0
 15 24  1  0  0  0  0
 15 28  2  0  0  0  0
 16 30  2  0  0  0  0
 16 31  1  0  0  0  0
 17 32  1  0  0  0  0
 18 37  1  0  0  0  0
 19 25  2  0  0  0  0
 19 36  1  0  0  0  0
 20 32  1  0  0  0  0
 20 33  2  0  0  0  0
 20 38  1  0  0  0  0
 21 23  2  0  0  0  0
 21 43  1  0  0  0  0
 22 24  2  0  0  0  0
 22 44  1  0  0  0  0
 23 54  1  0  0  0  0
 24 45  1  0  0  0  0
 25 26  1  0  0  0  0
 25 58  1  0  0  0  0
 26 74  1  0  0  0  0
 27 88  1  0  0  0  0
 28 89  1  0  0  0  0
 29 31  2  0  0  0  0
 29 88  1  0  0  0  0
 30 90  1  0  0  0  0
 31 91  1  0  0  0  0
 32 68  2  0  0  0  0
 33 70  1  0  0  0  0
 33 75  1  0  0  0  0
 34 46  1  0  0  0  0
 34 71  1  0  0  0  0
 34 80  2  0  0  0  0
 35 36  1  0  0  0  0
 35 69  2  0  0  0  0
 36 81  2  0  0  0  0
 37 71  1  0  0  0  0
 37 82  2  0  0  0  0
 38 76  1  0  0  0  0
 38 83  2  0  0  0  0
 39 55  1  0  0  0  0
 39 77  1  0  0  0  0
 39 84  2  0  0  0  0
 40 65  1  0  0  0  0
 40 72  1  0  0  0  0
 40 85  2  0  0  0  0
 41 66  1  0  0  0  0
 41 78  1  0  0  0  0
 41 86  2  0  0  0  0
 42 69  1  0  0  0  0
 42 73  1  0  0  0  0
 42 87  2  0  0  0  0
 43 47  1  0  0  0  0
 44 55  1  0  0  0  0
 45 72  1  0  0  0  0
 46 56  1  0  0  0  0
 47 49  1  0  0  0  0
 48 50  1  0  0  0  0
 48 51  1  0  0  0  0
 49 54  1  0  0  0  0
 50 57  1  0  0  0  0
 51 73  1  0  0  0  0
 52 56  1  0  0  0  0
 52 71  1  0  0  0  0
 53 57  1  0  0  0  0
 53 73  1  0  0  0  0
 54 77  1  0  0  0  0
 55 72  1  0  0  0  0
 56 64  1  0  0  0  0
 57 70  1  0  0  0  0
 59 66  1  0  0  0  0
 60 67  1  0  0  0  0
 61 67  1  0  0  0  0
 62 67  1  0  0  0  0
 63 79  1  0  0  0  0
 64 89  1  0  0  0  0
 65 67  1  0  0  0  0
 65 78  1  0  0  0  0
 66 79  1  0  0  0  0
 68 70  1  0  0  0  0
M  CHG  1  79   1
M  ISO  4  42 100  64 101  69 100  89 101
M  END
> <Batch ID>
0096

> <Smiles>
CNC(C)C(=O)NC(C(=O)N1Cc2cc([101O:1][101CH2:1]C3=CC(=O)N(C(=O)c4cc(N)c(C)c(C(=O)C[100NH:0][100C:0](=O)N5CCCC(n6nc(-c7ccc(Oc8ccc(F)cc8F)cc7)c(C(N)=O)c6N)C5)c4)C3)ccc2CC1C(=O)NC1CCCc2ccccc21)C(C)(C)C

> <Shape>
0.223

> <Color>
0.100

> <Negative vol penalty>
0.000

$$$$

  -OEChem-04052300463D

 84 92  0     1  0  0  0  0  0999 V2000
  -31.4080  -25.2284   11.8032 C   0  0  0  0  0  0  0  0  0  0  0  0
  -30.3100  -24.5032   12.2546 C   0  0  0  0  0  0  0  0  0  0  0  0
  -23.2154   -9.7621   20.0630 C   0  0  0  0  0  0  0  0  0  0  0  0
  -23.6244  -10.0626   22.4251 C   0  0  0  0  0  0  0  0  0  0  0  0
  -27.0438  -17.1172   16.5588 C   0  0  0  0  0  0  0  0  0  0  0  0
  -32.3164  -25.7580   12.7187 C   0  0  0  0  0  0  0  0  0  0  0  0
  -30.1203  -24.3062   13.6220 C   0  0  0  0  0  0  0  0  0  0  0  0
  -25.3222  -25.0740   15.0481 C   0  0  0  0  0  0  0  0  0  0  0  0
  -25.9551  -17.8414   16.0732 C   0  0  0  0  0  0  0  0  0  0  0  0
  -22.4344   -8.6404   20.3410 C   0  0  0  0  0  0  0  0  0  0  0  0
  -22.8433   -8.9409   22.7031 C   0  0  0  0  0  0  0  0  0  0  0  0
  -24.4081  -24.0555   14.7820 C   0  0  0  0  0  0  0  0  0  0  0  0
  -22.9332   -5.3906   21.1248 C   0  0  0  0  0  0  0  0  0  0  0  0
  -23.1322   -4.2533   20.3422 C   0  0  0  0  0  0  0  0  0  0  0  0
  -28.4249  -18.0048   14.7863 C   0  0  0  0  0  0  0  0  0  0  0  0
  -24.5803  -23.3112   17.0701 C   0  0  0  0  0  0  0  0  0  0  0  0
  -20.8281   -4.3464   19.6212 C   0  0  0  0  0  0  0  0  0  0  0  0
  -23.8105  -10.4732   21.1051 C   0  0  0  0  0  0  0  0  0  0  0  0
  -28.2787  -17.1990   15.9154 C   0  0  0  0  0  0  0  0  0  0  0  0
  -24.1843  -12.9678   20.7239 C   0  0  0  0  0  0  0  0  0  0  0  0
  -32.1325  -25.5757   14.0984 C   0  0  0  0  0  0  0  0  0  0  0  0
  -25.8814  -25.2123   16.3267 C   0  0  0  0  0  0  0  0  0  0  0  0
  -31.0278  -24.8328   14.5568 C   0  0  0  0  0  0  0  0  0  0  0  0
  -25.4993  -24.3339   17.3506 C   0  0  0  0  0  0  0  0  0  0  0  0
  -26.1012  -18.6473   14.9441 C   0  0  0  0  0  0  0  0  0  0  0  0
  -22.2483   -8.2298   21.6610 C   0  0  0  0  0  0  0  0  0  0  0  0
  -24.0392  -23.1721   15.7923 C   0  0  0  0  0  0  0  0  0  0  0  0
  -21.6817   -6.0058   21.1557 C   0  0  0  0  0  0  0  0  0  0  0  0
  -22.0796   -3.7312   19.5903 C   0  0  0  0  0  0  0  0  0  0  0  0
  -27.3361  -18.7290   14.3006 C   0  0  0  0  0  0  0  0  0  0  0  0
  -20.6292   -5.4837   20.4039 C   0  0  0  0  0  0  0  0  0  0  0  0
  -24.6179  -11.6318   20.8186 C   0  0  0  0  0  0  0  0  0  0  0  0
  -25.3238  -13.6790   20.4370 C   0  0  0  0  0  0  0  0  0  0  0  0
  -29.4389  -16.4281   16.4318 C   0  0  0  0  0  0  0  0  0  0  0  0
  -22.8693  -13.5168   20.8813 C   0  0  0  0  0  0  0  0  0  0  0  0
  -28.8259  -25.0652   17.5149 C   0  0  0  0  0  0  0  0  0  0  0  0
  -27.3523  -26.0121   20.2451 C   0  0  0  0  0  0  0  0  0  0  0  0
  -24.4782  -26.1806   22.0776 C   0  0  0  0  0  0  0  0  0  0  0  0
  -30.0667  -14.3727   17.6584 C   0  0  0  0  0  0  0  0  0  0  0  0
  -33.1668  -26.1268   15.0477 C   0  0  0  0  0  0  0  0  0  0  0  0
  -26.8458  -26.3326   16.6045 C   0  0  0  0  0  0  0  0  0  0  0  0
  -26.0553  -24.4520   18.7454 C   0  0  0  0  0  0  0  0  0  0  0  0
  -32.6905  -26.1920   16.4966 C   0  0  0  0  0  0  0  0  0  0  0  0
  -30.1902  -12.2760   20.5019 C   0  0  0  0  0  0  0  0  0  0  0  0
  -32.0143  -24.8842   16.8956 C   0  0  0  0  0  0  0  0  0  0  0  0
  -28.7157  -12.0357   20.8376 C   0  0  0  0  0  0  0  0  0  0  0  0
  -30.4294  -12.3154   18.9932 C   0  0  0  0  0  0  0  0  0  0  0  0
  -28.1015  -13.0032   18.5858 C   0  0  0  0  0  0  0  0  0  0  0  0
  -30.7743  -24.6188   16.0333 C   0  0  1  0  0  0  0  0  0  0  0  0
  -27.7426  -26.0640   17.8091 C   0  0  1  0  0  0  0  0  0  0  0  0
  -27.7974  -13.0251   20.0925 C   0  0  1  0  0  0  0  0  0  0  0  0
  -23.5943  -26.9785   24.2866 C   0  0  0  0  0  0  0  0  0  0  0  0
  -28.6403  -23.6142   21.6239 C   0  0  0  0  0  0  0  0  0  0  0  0
  -27.0114  -23.9077   23.5024 C   0  0  0  0  0  0  0  0  0  0  0  0
  -28.6428  -25.7194   22.9741 C   0  0  0  0  0  0  0  0  0  0  0  0
  -22.5945  -28.0569   20.7775 C   0  0  0  0  0  0  0  0  0  0  0  0
  -22.7267  -20.1856   14.2632 C   0  0  0  0  0  0  0  0  0  0  0  0
  -23.7068  -19.3386   15.0657 C   0  0  0  0  0  0  0  0  0  0  0  0
  -23.1199  -21.6571   14.2062 C   0  0  0  0  0  0  0  0  0  1  0  0
  -26.7009  -25.3050   21.4090 C   0  0  1  0  0  0  0  0  0  0  0  0
  -23.8261  -27.3297   22.8252 C   0  0  2  0  0  0  0  0  0  0  0  0
  -27.7397  -24.6329   22.3507 C   0  0  0  0  0  0  0  0  0  0  0  0
  -25.9303  -11.4994   20.6087 N   0  0  0  0  0  0  0  0  0  0  0  0
  -26.3312  -12.7614   20.3792 N   0  0  0  0  0  0  0  0  0  0  0  0
  -26.9996  -25.5598   18.9657 N   0  0  0  0  0  0  0  0  0  0  0  0
  -29.5283  -13.2824   18.3638 N   0  0  0  0  0  0  0  0  0  0  0  0
  -25.5522  -14.9934   20.2310 N   0  0  0  0  0  0  0  0  0  0  0  0
  -21.8119  -12.6449   21.1746 N   0  0  0  0  0  0  0  0  0  0  0  0
  -25.0176  -19.3655   14.4630 N   0  0  0  0  0  0  0  0  0  0  0  0
  -29.1244  -15.2624   17.1307 N   0  0  0  0  0  0  0  0  0  0  0  0
  -29.6644  -25.4330   16.4800 N   0  0  0  0  0  0  0  0  0  0  0  0
  -25.8523  -26.2942   22.0646 N   0  0  0  0  0  0  0  0  0  0  0  0
  -22.5122  -27.6692   22.2092 N   0  3  0  0  0  0  0  0  0  0  0  0
  -30.5757  -16.8241   16.1893 O   0  0  0  0  0  0  0  0  0  0  0  0
  -22.6358  -14.7422   20.7492 O   0  0  0  0  0  0  0  0  0  0  0  0
  -28.8968  -24.0376   18.1788 O   0  0  0  0  0  0  0  0  0  0  0  0
  -28.1394  -26.9366   20.4630 O   0  0  0  0  0  0  0  0  0  0  0  0
  -23.8333  -25.2712   21.5604 O   0  0  0  0  0  0  0  0  0  0  0  0
  -31.2820  -14.5591   17.5408 O   0  0  0  0  0  0  0  0  0  0  0  0
  -21.4860   -7.1354   21.9326 O   0  0  0  0  0  0  0  0  0  0  0  0
  -23.1477  -22.1767   15.5350 O   0  0  0  0  0  0  0  0  0  1  0  0
  -22.2712   -2.6399   18.8376 F   0  0  0  0  0  0  0  0  0  0  0  0
  -27.4879  -19.5002   13.2146 F   0  0  0  0  0  0  0  0  0  0  0  0
  -19.4249   -6.0711   20.4286 F   0  0  0  0  0  0  0  0  0  0  0  0
  1  2  1  0  0  0  0
  1  6  2  0  0  0  0
  2  7  2  0  0  0  0
  3 10  2  0  0  0  0
  3 18  1  0  0  0  0
  4 11  1  0  0  0  0
  4 18  2  0  0  0  0
  5  9  2  0  0  0  0
  5 19  1  0  0  0  0
  6 21  1  0  0  0  0
  7 23  1  0  0  0  0
  8 12  2  0  0  0  0
  8 22  1  0  0  0  0
  9 25  1  0  0  0  0
 10 26  1  0  0  0  0
 11 26  2  0  0  0  0
 12 27  1  0  0  0  0
 13 14  2  0  0  0  0
 13 28  1  0  0  0  0
 14 29  1  0  0  0  0
 15 19  2  0  0  0  0
 15 30  1  0  0  0  0
 16 24  1  0  0  0  0
 16 27  2  0  0  0  0
 17 29  2  0  0  0  0
 17 31  1  0  0  0  0
 18 32  1  0  0  0  0
 19 34  1  0  0  0  0
 20 32  1  0  0  0  0
 20 33  2  0  0  0  0
 20 35  1  0  0  0  0
 21 23  2  0  0  0  0
 21 40  1  0  0  0  0
 22 24  2  0  0  0  0
 22 41  1  0  0  0  0
 23 49  1  0  0  0  0
 24 42  1  0  0  0  0
 25 30  2  0  0  0  0
 25 69  1  0  0  0  0
 26 80  1  0  0  0  0
 27 81  1  0  0  0  0
 28 31  2  0  0  0  0
 28 80  1  0  0  0  0
 29 82  1  0  0  0  0
 30 83  1  0  0  0  0
 31 84  1  0  0  0  0
 32 63  2  0  0  0  0
 33 64  1  0  0  0  0
 33 67  1  0  0  0  0
 34 70  1  0  0  0  0
 34 74  2  0  0  0  0
 35 68  1  0  0  0  0
 35 75  2  0  0  0  0
 36 50  1  0  0  0  0
 36 71  1  0  0  0  0
 36 76  2  0  0  0  0
 37 60  1  0  0  0  0
 37 65  1  0  0  0  0
 37 77  2  0  0  0  0
 38 61  1  0  0  0  0
 38 72  1  0  0  0  0
 38 78  2  0  0  0  0
 39 66  1  0  0  0  0
 39 70  1  0  0  0  0
 39 79  2  0  0  0  0
 40 43  1  0  0  0  0
 41 50  1  0  0  0  0
 42 65  1  0  0  0  0
 43 45  1  0  0  0  0
 44 46  1  0  0  0  0
 44 47  1  0  0  0  0
 45 49  1  0  0  0  0
 46 51  1  0  0  0  0
 47 66  1  0  0  0  0
 48 51  1  0  0  0  0
 48 66  1  0  0  0  0
 49 71  1  0  0  0  0
 50 65  1  0  0  0  0
 51 64  1  0  0  0  0
 52 61  1  0  0  0  0
 53 62  1  0  0  0  0
 54 62  1  0  0  0  0
 55 62  1  0  0  0  0
 56 73  1  0  0  0  0
 57 58  1  0  0  0  0
 57 59  1  0  0  0  0
 58 69  1  0  0  0  0
 59 81  1  0  0  0  0
 60 62  1  0  0  0  0
 60 72  1  0  0  0  0
 61 73  1  0  0  0  0
 63 64  1  0  0  0  0
M  CHG  1  73   1
M  ISO  4  39 100  59 101  70 100  81 101
M  END
> <Batch ID>
0096

> <Smiles>
CNC(C)C(=O)NC(C(=O)N1Cc2cc([101O:1][101CH2:1]CCNc3ccc(C(=O)[100NH:0][100C:0](=O)N4CCCC(n5nc(-c6ccc(Oc7ccc(F)cc7F)cc6)c(C(N)=O)c5N)C4)cc3F)ccc2CC1C(=O)NC1CCCc2ccccc21)C(C)(C)C

> <Shape>
0.166

> <Color>
0.185

> <Negative vol penalty>
0.000

$$$$

  -OEChem-04052300463D

 86 95  0     1  0  0  0  0  0999 V2000
  -25.0963  -28.2234   14.0992 C   0  0  0  0  0  0  0  0  0  0  0  0
  -26.1452  -27.7806   14.8987 C   0  0  0  0  0  0  0  0  0  0  0  0
  -22.8545  -11.3283   22.4883 C   0  0  0  0  0  0  0  0  0  0  0  0
  -23.4232   -9.6714   20.8245 C   0  0  0  0  0  0  0  0  0  0  0  0
  -24.3130  -29.3003   14.5124 C   0  0  0  0  0  0  0  0  0  0  0  0
  -26.4122  -28.4152   16.1113 C   0  0  0  0  0  0  0  0  0  0  0  0
  -27.2654  -25.1351   19.8740 C   0  0  0  0  0  0  0  0  0  0  0  0
  -32.4404  -18.3513   21.7647 C   0  0  0  0  0  0  0  0  0  0  0  0
  -31.9054  -17.1609   21.2723 C   0  0  0  0  0  0  0  0  0  0  0  0
  -22.0021  -10.4142   23.1074 C   0  0  0  0  0  0  0  0  0  0  0  0
  -22.5708   -8.7572   21.4436 C   0  0  0  0  0  0  0  0  0  0  0  0
  -28.5219  -24.5327   19.9209 C   0  0  0  0  0  0  0  0  0  0  0  0
  -22.6390   -6.7221   24.1407 C   0  0  0  0  0  0  0  0  0  0  0  0
  -23.1105   -5.4228   24.3277 C   0  0  0  0  0  0  0  0  0  0  0  0
  -29.2016  -26.0973   21.6265 C   0  0  0  0  0  0  0  0  0  0  0  0
  -30.2760  -19.4063   21.5663 C   0  0  0  0  0  0  0  0  0  0  0  0
  -21.2941   -4.5701   22.9821 C   0  0  0  0  0  0  0  0  0  0  0  0
  -23.5650  -10.9570   21.3468 C   0  0  0  0  0  0  0  0  0  0  0  0
  -24.0980  -13.1501   20.1579 C   0  0  0  0  0  0  0  0  0  0  0  0
  -24.5644  -29.9423   15.7352 C   0  0  0  0  0  0  0  0  0  0  0  0
  -26.9707  -26.2318   20.6966 C   0  0  0  0  0  0  0  0  0  0  0  0
  -25.6324  -29.5026   16.5406 C   0  0  0  0  0  0  0  0  0  0  0  0
  -27.9398  -26.7102   21.5900 C   0  0  0  0  0  0  0  0  0  0  0  0
  -31.6257  -19.4740   21.9117 C   0  0  0  0  0  0  0  0  0  0  0  0
  -30.5556  -17.0933   20.9269 C   0  0  0  0  0  0  0  0  0  0  0  0
  -29.7409  -18.2160   21.0739 C   0  0  0  0  0  0  0  0  0  0  0  0
  -21.8602   -9.1286   22.5851 C   0  0  0  0  0  0  0  0  0  0  0  0
  -29.4912  -25.0156   20.7951 C   0  0  0  0  0  0  0  0  0  0  0  0
  -21.4951   -6.9455   23.3744 C   0  0  0  0  0  0  0  0  0  0  0  0
  -22.4380   -4.3468   23.7484 C   0  0  0  0  0  0  0  0  0  0  0  0
  -20.8226   -5.8695   22.7951 C   0  0  0  0  0  0  0  0  0  0  0  0
  -24.4453  -11.9011   20.7066 C   0  0  0  0  0  0  0  0  0  0  0  0
  -25.2811  -13.6541   19.6755 C   0  0  0  0  0  0  0  0  0  0  0  0
  -33.2587  -20.6927   23.3254 C   0  0  0  0  0  0  0  0  0  0  0  0
  -22.8203  -13.7970   20.0904 C   0  0  0  0  0  0  0  0  0  0  0  0
  -26.1694  -29.2656   20.1886 C   0  0  0  0  0  0  0  0  0  0  0  0
  -25.7910  -29.2982   23.4101 C   0  0  0  0  0  0  0  0  0  0  0  0
  -27.5415  -27.9893   26.2806 C   0  0  0  0  0  0  0  0  0  0  0  0
  -30.7259  -14.6782   20.2308 C   0  0  0  0  0  0  0  0  0  0  0  0
  -23.7204  -31.1323   16.1174 C   0  0  0  0  0  0  0  0  0  0  0  0
  -25.6018  -26.8535   20.6531 C   0  0  0  0  0  0  0  0  0  0  0  0
  -27.6668  -27.8721   22.5086 C   0  0  0  0  0  0  0  0  0  0  0  0
  -33.9651  -22.0152   23.5561 C   0  0  0  0  0  0  0  0  0  0  0  0
  -23.8337  -31.5112   17.5918 C   0  0  0  0  0  0  0  0  0  0  0  0
  -33.0550  -23.2234   23.5230 C   0  0  0  0  0  0  0  0  0  0  0  0
  -29.7947  -11.4469   19.0608 C   0  0  0  0  0  0  0  0  0  0  0  0
  -25.2957  -31.5335   18.0264 C   0  0  0  0  0  0  0  0  0  0  0  0
  -28.2914  -11.3798   19.3395 C   0  0  0  0  0  0  0  0  0  0  0  0
  -30.5420  -12.2011   20.1592 C   0  0  0  0  0  0  0  0  0  0  0  0
  -31.4461  -21.9528   22.1300 C   0  0  0  0  0  0  0  0  0  0  0  0
  -28.5128  -13.4710   20.7411 C   0  0  0  0  0  0  0  0  0  0  0  0
  -25.9377  -30.1492   17.8742 C   0  0  1  0  0  0  0  0  0  0  0  0
  -25.5811  -28.2895   21.1678 C   0  0  1  0  0  0  0  0  0  0  0  0
  -32.2886  -23.2250   22.2106 C   0  0  1  0  0  0  0  0  0  0  0  0
  -27.7090  -12.7771   19.6294 C   0  0  2  0  0  0  0  0  0  0  0  0
  -26.6982  -27.3608   28.5590 C   0  0  0  0  0  0  0  0  0  0  0  0
  -26.6037  -32.1377   24.1762 C   0  0  0  0  0  0  0  0  0  0  0  0
  -27.3888  -31.2440   26.3792 C   0  0  0  0  0  0  0  0  0  0  0  0
  -24.9834  -31.0571   25.7452 C   0  0  0  0  0  0  0  0  0  0  0  0
  -28.6511  -25.2541   26.0641 C   0  0  0  0  0  0  0  0  0  0  0  0
  -31.4084  -24.4673   22.0911 C   0  0  0  0  0  0  0  0  0  1  0  0
  -26.6876  -29.5904   24.5890 C   0  0  1  0  0  0  0  0  0  0  0  0
  -27.0899  -26.8529   27.1801 C   0  0  2  0  0  0  0  0  0  0  0  0
  -26.4263  -30.9969   25.1980 C   0  0  0  0  0  0  0  0  0  0  0  0
  -25.7470  -11.6282   20.5844 N   0  0  0  0  0  0  0  0  0  0  0  0
  -26.2282  -12.7128   19.9534 N   0  0  0  0  0  0  0  0  0  0  0  0
  -32.1813  -20.7089   22.4229 N   0  0  0  0  0  0  0  0  0  0  0  0
  -26.3154  -28.4502   22.4244 N   0  0  0  0  0  0  0  0  0  0  0  0
  -29.9373  -13.5172   20.3758 N   0  0  0  0  0  0  0  0  0  0  0  0
  -28.3711  -18.1694   20.7304 N   0  0  0  0  0  0  0  0  0  0  0  0
  -25.5933  -14.8062   19.0448 N   0  0  0  0  0  0  0  0  0  0  0  0
  -22.0102  -13.5610   18.9712 N   0  0  0  0  0  0  0  0  0  0  0  0
  -30.0350  -15.8731   20.4292 N   0  0  0  0  0  0  0  0  0  0  0  0
  -25.5347  -29.2830   18.9613 N   0  0  0  0  0  0  0  0  0  0  0  0
  -26.5005  -28.4889   25.5270 N   0  0  0  0  0  0  0  0  0  0  0  0
  -28.1835  -25.8533   27.3406 N   0  3  0  0  0  0  0  0  0  0  0  0
  -33.7054  -19.6906   23.8902 O   0  0  0  0  0  0  0  0  0  0  0  0
  -22.4160  -14.5746   20.9879 O   0  0  0  0  0  0  0  0  0  0  0  0
  -27.1273  -29.9531   20.5224 O   0  0  0  0  0  0  0  0  0  0  0  0
  -24.6640  -29.7981   23.3689 O   0  0  0  0  0  0  0  0  0  0  0  0
  -28.7011  -28.3958   26.2521 O   0  0  0  0  0  0  0  0  0  0  0  0
  -31.9195  -14.6179   19.9244 O   0  0  0  0  0  0  0  0  0  0  0  0
  -21.0287   -8.2362   23.1890 O   0  0  0  0  0  0  0  0  0  0  0  0
  -30.7186  -24.4299   20.8425 O   0  0  0  0  0  0  0  0  0  1  0  0
  -22.8917   -3.0992   23.9268 F   0  0  0  0  0  0  0  0  0  0  0  0
  -19.7238   -6.0779   22.0569 F   0  0  0  0  0  0  0  0  0  0  0  0
  1  2  1  0  0  0  0
  1  5  2  0  0  0  0
  2  6  2  0  0  0  0
  3 10  2  0  0  0  0
  3 18  1  0  0  0  0
  4 11  1  0  0  0  0
  4 18  2  0  0  0  0
  5 20  1  0  0  0  0
  6 22  1  0  0  0  0
  7 12  2  0  0  0  0
  7 21  1  0  0  0  0
  8  9  2  0  0  0  0
  8 24  1  0  0  0  0
  9 25  1  0  0  0  0
 10 27  1  0  0  0  0
 11 27  2  0  0  0  0
 12 28  1  0  0  0  0
 13 14  2  0  0  0  0
 13 29  1  0  0  0  0
 14 30  1  0  0  0  0
 15 23  1  0  0  0  0
 15 28  2  0  0  0  0
 16 24  2  0  0  0  0
 16 26  1  0  0  0  0
 17 30  2  0  0  0  0
 17 31  1  0  0  0  0
 18 32  1  0  0  0  0
 19 32  1  0  0  0  0
 19 33  2  0  0  0  0
 19 35  1  0  0  0  0
 20 22  2  0  0  0  0
 20 40  1  0  0  0  0
 21 23  2  0  0  0  0
 21 41  1  0  0  0  0
 22 52  1  0  0  0  0
 23 42  1  0  0  0  0
 24 67  1  0  0  0  0
 25 26  2  0  0  0  0
 25 73  1  0  0  0  0
 26 70  1  0  0  0  0
 27 83  1  0  0  0  0
 28 84  1  0  0  0  0
 29 31  2  0  0  0  0
 29 83  1  0  0  0  0
 30 85  1  0  0  0  0
 31 86  1  0  0  0  0
 32 65  2  0  0  0  0
 33 66  1  0  0  0  0
 33 71  1  0  0  0  0
 34 43  1  0  0  0  0
 34 67  1  0  0  0  0
 34 77  2  0  0  0  0
 35 72  1  0  0  0  0
 35 78  2  0  0  0  0
 36 53  1  0  0  0  0
 36 74  1  0  0  0  0
 36 79  2  0  0  0  0
 37 62  1  0  0  0  0
 37 68  1  0  0  0  0
 37 80  2  0  0  0  0
 38 63  1  0  0  0  0
 38 75  1  0  0  0  0
 38 81  2  0  0  0  0
 39 69  1  0  0  0  0
 39 73  1  0  0  0  0
 39 82  2  0  0  0  0
 40 44  1  0  0  0  0
 41 53  1  0  0  0  0
 42 68  1  0  0  0  0
 43 45  1  0  0  0  0
 44 47  1  0  0  0  0
 45 54  1  0  0  0  0
 46 48  1  0  0  0  0
 46 49  1  0  0  0  0
 47 52  1  0  0  0  0
 48 55  1  0  0  0  0
 49 69  1  0  0  0  0
 50 54  1  0  0  0  0
 50 67  1  0  0  0  0
 51 55  1  0  0  0  0
 51 69  1  0  0  0  0
 52 74  1  0  0  0  0
 53 68  1  0  0  0  0
 54 61  1  0  0  0  0
 55 66  1  0  0  0  0
 56 63  1  0  0  0  0
 57 64  1  0  0  0  0
 58 64  1  0  0  0  0
 59 64  1  0  0  0  0
 60 76  1  0  0  0  0
 61 84  1  0  0  0  0
 62 64  1  0  0  0  0
 62 75  1  0  0  0  0
 63 76  1  0  0  0  0
 65 66  1  0  0  0  0
M  CHG  1  76   1
M  ISO  4  39 100  61 101  73 100  84 101
M  END
> <Batch ID>
0096

> <Smiles>
CNC(C)C(=O)NC(C(=O)N1Cc2cc([101O:1][101CH2:1]C3CCC(=O)N(c4ccc([100NH:0][100C:0](=O)N5CCCC(n6nc(-c7ccc(Oc8ccc(F)cc8F)cc7)c(C(N)=O)c6N)C5)c(N)c4)C3)ccc2CC1C(=O)NC1CCCc2ccccc21)C(C)(C)C

> <Shape>
0.256

> <Color>
0.133

> <Negative vol penalty>
0.000

$$$$

  -OEChem-04052300463D

 83 91  0     1  0  0  0  0  0999 V2000
  -27.4411  -20.8548   27.6778 C   0  0  0  0  0  0  0  0  0  0  0  0
  -27.7071  -21.9100   26.8126 C   0  0  0  0  0  0  0  0  0  0  0  0
  -27.5266  -12.3393   19.3258 C   0  0  0  0  0  0  0  0  0  0  0  0
  -26.5076  -12.8177   21.4635 C   0  0  0  0  0  0  0  0  0  0  0  0
  -30.7714  -21.0292   21.0962 C   0  0  0  0  0  0  0  0  0  0  0  0
  -26.1355  -20.3909   27.8246 C   0  0  0  0  0  0  0  0  0  0  0  0
  -26.6661  -22.5095   26.1028 C   0  0  0  0  0  0  0  0  0  0  0  0
  -27.7607  -26.5472   23.5140 C   0  0  0  0  0  0  0  0  0  0  0  0
  -27.0231  -11.0395   19.3767 C   0  0  0  0  0  0  0  0  0  0  0  0
  -26.0041  -11.5179   21.5144 C   0  0  0  0  0  0  0  0  0  0  0  0
  -30.3903  -21.8033   20.0003 C   0  0  0  0  0  0  0  0  0  0  0  0
  -28.5119  -26.5093   22.3401 C   0  0  0  0  0  0  0  0  0  0  0  0
  -23.4289   -9.7915   20.1695 C   0  0  0  0  0  0  0  0  0  0  0  0
  -22.0998   -9.6278   20.5596 C   0  0  0  0  0  0  0  0  0  0  0  0
  -28.7878  -21.7325   22.2828 C   0  0  0  0  0  0  0  0  0  0  0  0
  -26.4953  -26.7949   21.0475 C   0  0  0  0  0  0  0  0  0  0  0  0
  -22.8150   -8.2740   22.4285 C   0  0  0  0  0  0  0  0  0  0  0  0
  -27.2688  -13.2285   20.3693 C   0  0  0  0  0  0  0  0  0  0  0  0
  -29.9701  -20.9937   22.2375 C   0  0  0  0  0  0  0  0  0  0  0  0
  -27.1629  -15.7048   19.7656 C   0  0  0  0  0  0  0  0  0  0  0  0
  -25.0804  -20.9774   27.1064 C   0  0  0  0  0  0  0  0  0  0  0  0
  -26.3675  -26.6986   23.4629 C   0  0  0  0  0  0  0  0  0  0  0  0
  -25.3382  -22.0713   26.2553 C   0  0  0  0  0  0  0  0  0  0  0  0
  -25.7290  -26.8370   22.2222 C   0  0  0  0  0  0  0  0  0  0  0  0
  -28.4068  -22.5067   21.1868 C   0  0  0  0  0  0  0  0  0  0  0  0
  -26.2619  -10.6288   20.4710 C   0  0  0  0  0  0  0  0  0  0  0  0
  -27.8789  -26.6302   21.1065 C   0  0  0  0  0  0  0  0  0  0  0  0
  -29.2081  -22.5421   20.0456 C   0  0  0  0  0  0  0  0  0  0  0  0
  -24.4511   -9.1964   20.9089 C   0  0  0  0  0  0  0  0  0  0  0  0
  -21.7928   -8.8691   21.6891 C   0  0  0  0  0  0  0  0  0  0  0  0
  -24.1442   -8.4377   22.0384 C   0  0  0  0  0  0  0  0  0  0  0  0
  -27.7891  -14.5711   20.3175 C   0  0  0  0  0  0  0  0  0  0  0  0
  -28.0607  -16.7247   19.9662 C   0  0  0  0  0  0  0  0  0  0  0  0
  -30.3681  -20.1860   23.3796 C   0  0  0  0  0  0  0  0  0  0  0  0
  -25.8841  -15.8251   19.1286 C   0  0  0  0  0  0  0  0  0  0  0  0
  -31.6169  -19.3901   23.3634 C   0  0  0  0  0  0  0  0  0  0  0  0
  -23.8846  -24.9312   24.3657 C   0  0  0  0  0  0  0  0  0  0  0  0
  -22.1940  -27.5582   23.4921 C   0  0  0  0  0  0  0  0  0  0  0  0
  -22.0274  -30.4049   21.6171 C   0  0  0  0  0  0  0  0  0  0  0  0
  -23.6853  -20.4409   27.3092 C   0  0  0  0  0  0  0  0  0  0  0  0
  -25.5745  -26.7644   24.7393 C   0  0  0  0  0  0  0  0  0  0  0  0
  -24.2381  -27.0218   22.1139 C   0  0  0  0  0  0  0  0  0  0  0  0
  -22.7266  -20.8401   26.1921 C   0  0  0  0  0  0  0  0  0  0  0  0
  -32.8860  -16.6341   21.4527 C   0  0  0  0  0  0  0  0  0  0  0  0
  -22.8223  -22.3366   25.9352 C   0  0  0  0  0  0  0  0  0  0  0  0
  -31.6203  -15.9232   20.9749 C   0  0  0  0  0  0  0  0  0  0  0  0
  -32.6967  -17.2386   22.8402 C   0  0  0  0  0  0  0  0  0  0  0  0
  -30.2559  -17.4571   22.4618 C   0  0  0  0  0  0  0  0  0  0  0  0
  -24.2263  -22.7188   25.4499 C   0  0  1  0  0  0  0  0  0  0  0  0
  -24.1039  -26.4064   24.5482 C   0  0  1  0  0  0  0  0  0  0  0  0
  -30.3997  -16.8574   21.0521 C   0  0  2  0  0  0  0  0  0  0  0  0
  -20.5041  -32.3269   21.0850 C   0  0  0  0  0  0  0  0  0  0  0  0
  -20.5167  -25.7332   21.7128 C   0  0  0  0  0  0  0  0  0  0  0  0
  -19.6827  -27.7734   20.5253 C   0  0  0  0  0  0  0  0  0  0  0  0
  -19.2104  -27.4664   22.9554 C   0  0  0  0  0  0  0  0  0  0  0  0
  -23.9668  -32.3818   22.6606 C   0  0  0  0  0  0  0  0  0  0  0  0
  -28.9991  -25.4414   17.8749 C   0  0  0  0  0  0  0  0  0  0  0  0
  -27.9670  -26.0722   18.7964 C   0  0  0  0  0  0  0  0  0  1  0  0
  -29.7576  -24.3139   18.5575 C   0  0  0  0  0  0  0  0  0  0  0  0
  -21.5572  -28.0428   22.2120 C   0  0  1  0  0  0  0  0  0  0  0  0
  -21.6302  -31.8254   21.9757 C   0  0  2  0  0  0  0  0  0  0  0  0
  -20.2697  -27.2485   21.8530 C   0  0  0  0  0  0  0  0  0  0  0  0
  -28.9918  -14.8447   20.8301 N   0  0  0  0  0  0  0  0  0  0  0  0
  -29.6693  -20.1070   24.4797 N   0  0  0  0  0  0  0  0  0  0  0  0
  -29.1286  -16.1618   20.6011 N   0  0  0  0  0  0  0  0  0  0  0  0
  -31.5101  -18.0905   22.8883 N   0  0  0  0  0  0  0  0  0  0  0  0
  -23.5057  -27.0735   23.3900 N   0  0  0  0  0  0  0  0  0  0  0  0
  -27.2070  -23.2489   21.2457 N   0  0  0  0  0  0  0  0  0  0  0  0
  -28.0330  -18.0391   19.6597 N   0  0  0  0  0  0  0  0  0  0  0  0
  -25.0885  -14.6779   19.0053 N   0  0  0  0  0  0  0  0  0  0  0  0
  -24.3389  -24.1604   25.4188 N   0  0  0  0  0  0  0  0  0  0  0  0
  -21.3478  -29.4770   22.3777 N   0  0  0  0  0  0  0  0  0  0  0  0
  -22.7944  -32.7431   21.8228 N   0  3  0  0  0  0  0  0  0  0  0  0
  -25.4665  -16.9143   18.6674 O   0  0  0  0  0  0  0  0  0  0  0  0
  -32.6154  -19.9671   23.7737 O   0  0  0  0  0  0  0  0  0  0  0  0
  -23.3419  -24.5227   23.3458 O   0  0  0  0  0  0  0  0  0  0  0  0
  -21.5539  -27.6146   24.5450 O   0  0  0  0  0  0  0  0  0  0  0  0
  -22.8548  -30.1442   20.7464 O   0  0  0  0  0  0  0  0  0  0  0  0
  -25.7703   -9.3606   20.5208 O   0  0  0  0  0  0  0  0  0  0  0  0
  -28.6097  -26.5929   19.9592 O   0  0  0  0  0  0  0  0  0  1  0  0
  -28.8507  -23.2956   18.9578 O   0  0  0  0  0  0  0  0  0  0  0  0
  -20.5165   -8.7132   22.0644 F   0  0  0  0  0  0  0  0  0  0  0  0
  -25.1220   -7.8645   22.7534 F   0  0  0  0  0  0  0  0  0  0  0  0
  1  2  1  0  0  0  0
  1  6  2  0  0  0  0
  2  7  2  0  0  0  0
  3  9  2  0  0  0  0
  3 18  1  0  0  0  0
  4 10  1  0  0  0  0
  4 18  2  0  0  0  0
  5 11  2  0  0  0  0
  5 19  1  0  0  0  0
  6 21  1  0  0  0  0
  7 23  1  0  0  0  0
  8 12  2  0  0  0  0
  8 22  1  0  0  0  0
  9 26  1  0  0  0  0
 10 26  2  0  0  0  0
 11 28  1  0  0  0  0
 12 27  1  0  0  0  0
 13 14  2  0  0  0  0
 13 29  1  0  0  0  0
 14 30  1  0  0  0  0
 15 19  2  0  0  0  0
 15 25  1  0  0  0  0
 16 24  1  0  0  0  0
 16 27  2  0  0  0  0
 17 30  2  0  0  0  0
 17 31  1  0  0  0  0
 18 32  1  0  0  0  0
 19 34  1  0  0  0  0
 20 32  1  0  0  0  0
 20 33  2  0  0  0  0
 20 35  1  0  0  0  0
 21 23  2  0  0  0  0
 21 40  1  0  0  0  0
 22 24  2  0  0  0  0
 22 41  1  0  0  0  0
 23 49  1  0  0  0  0
 24 42  1  0  0  0  0
 25 28  2  0  0  0  0
 25 68  1  0  0  0  0
 26 79  1  0  0  0  0
 27 80  1  0  0  0  0
 28 81  1  0  0  0  0
 29 31  2  0  0  0  0
 29 79  1  0  0  0  0
 30 82  1  0  0  0  0
 31 83  1  0  0  0  0
 32 63  2  0  0  0  0
 33 65  1  0  0  0  0
 33 69  1  0  0  0  0
 34 36  1  0  0  0  0
 34 64  2  0  0  0  0
 35 70  1  0  0  0  0
 35 74  2  0  0  0  0
 36 66  1  0  0  0  0
 36 75  2  0  0  0  0
 37 50  1  0  0  0  0
 37 71  1  0  0  0  0
 37 76  2  0  0  0  0
 38 60  1  0  0  0  0
 38 67  1  0  0  0  0
 38 77  2  0  0  0  0
 39 61  1  0  0  0  0
 39 72  1  0  0  0  0
 39 78  2  0  0  0  0
 40 43  1  0  0  0  0
 41 50  1  0  0  0  0
 42 67  1  0  0  0  0
 43 45  1  0  0  0  0
 44 46  1  0  0  0  0
 44 47  1  0  0  0  0
 45 49  1  0  0  0  0
 46 51  1  0  0  0  0
 47 66  1  0  0  0  0
 48 51  1  0  0  0  0
 48 66  1  0  0  0  0
 49 71  1  0  0  0  0
 50 67  1  0  0  0  0
 51 65  1  0  0  0  0
 52 61  1  0  0  0  0
 53 62  1  0  0  0  0
 54 62  1  0  0  0  0
 55 62  1  0  0  0  0
 56 73  1  0  0  0  0
 57 58  1  0  0  0  0
 57 59  1  0  0  0  0
 58 80  1  0  0  0  0
 59 81  1  0  0  0  0
 60 62  1  0  0  0  0
 60 72  1  0  0  0  0
 61 73  1  0  0  0  0
 63 65  1  0  0  0  0
M  CHG  1  73   1
M  ISO  4  34 100  36 100  58 101  80 101
M  END
> <Batch ID>
0096

> <Smiles>
CNC(C)C(=O)NC(C(=O)N1Cc2cc([101O:1][101CH2:1]CCOc3ccc([100C:0](=N)[100C:0](=O)N4CCCC(n5nc(-c6ccc(Oc7ccc(F)cc7F)cc6)c(C(N)=O)c5N)C4)cc3N)ccc2CC1C(=O)NC1CCCc2ccccc21)C(C)(C)C

> <Shape>
0.230

> <Color>
0.072

> <Negative vol penalty>
0.000

$$$$

  -OEChem-04052300463D

 86 94  0     1  0  0  0  0  0999 V2000
  -17.7728  -25.1792   21.5273 C   0  0  0  0  0  0  0  0  0  0  0  0
  -19.1142  -24.8851   21.3047 C   0  0  0  0  0  0  0  0  0  0  0  0
  -26.0386  -13.1329   21.0158 C   0  0  0  0  0  0  0  0  0  0  0  0
  -27.2247  -11.0386   20.8054 C   0  0  0  0  0  0  0  0  0  0  0  0
  -17.4116  -26.4095   22.0749 C   0  0  0  0  0  0  0  0  0  0  0  0
  -20.0952  -25.8217   21.6286 C   0  0  0  0  0  0  0  0  0  0  0  0
  -24.0349  -23.7520   24.0451 C   0  0  0  0  0  0  0  0  0  0  0  0
  -24.9198  -12.4511   21.4945 C   0  0  0  0  0  0  0  0  0  0  0  0
  -26.1059  -10.3569   21.2842 C   0  0  0  0  0  0  0  0  0  0  0  0
  -24.9635  -23.0577   23.2708 C   0  0  0  0  0  0  0  0  0  0  0  0
  -23.4403   -8.0285   22.1106 C   0  0  0  0  0  0  0  0  0  0  0  0
  -23.0532   -6.8674   21.4415 C   0  0  0  0  0  0  0  0  0  0  0  0
  -26.4225  -24.9784   23.3093 C   0  0  0  0  0  0  0  0  0  0  0  0
  -30.5431  -18.5866   19.0327 C   0  0  0  0  0  0  0  0  0  0  0  0
  -22.7391   -8.1411   19.4127 C   0  0  0  0  0  0  0  0  0  0  0  0
  -28.0643  -19.0924   18.0102 C   0  0  0  0  0  0  0  0  0  0  0  0
  -27.1910  -12.4266   20.6712 C   0  0  0  0  0  0  0  0  0  0  0  0
  -29.4106  -13.6564   20.9332 C   0  0  0  0  0  0  0  0  0  0  0  0
  -18.3893  -27.3579   22.4145 C   0  0  0  0  0  0  0  0  0  0  0  0
  -24.2888  -25.0707   24.4488 C   0  0  0  0  0  0  0  0  0  0  0  0
  -19.7466  -27.0664   22.1799 C   0  0  0  0  0  0  0  0  0  0  0  0
  -25.4966  -25.6863   24.0908 C   0  0  0  0  0  0  0  0  0  0  0  0
  -30.3252  -18.4387   17.6674 C   0  0  0  0  0  0  0  0  0  0  0  0
  -24.9535  -11.0632   21.6288 C   0  0  0  0  0  0  0  0  0  0  0  0
  -26.1563  -23.6719   22.9004 C   0  0  0  0  0  0  0  0  0  0  0  0
  -23.4767   -9.2459   21.4307 C   0  0  0  0  0  0  0  0  0  0  0  0
  -29.0651  -18.6944   17.1384 C   0  0  0  0  0  0  0  0  0  0  0  0
  -22.7026   -6.9237   20.0926 C   0  0  0  0  0  0  0  0  0  0  0  0
  -23.1262   -9.3022   20.0818 C   0  0  0  0  0  0  0  0  0  0  0  0
  -28.3468  -13.1302   20.1761 C   0  0  0  0  0  0  0  0  0  0  0  0
  -29.4763  -18.9896   19.8196 C   0  0  0  0  0  0  0  0  0  0  0  0
  -30.2472  -14.2227   20.0027 C   0  0  0  0  0  0  0  0  0  0  0  0
  -29.6236  -13.6351   22.3509 C   0  0  0  0  0  0  0  0  0  0  0  0
  -22.8900  -27.8799   23.9436 C   0  0  0  0  0  0  0  0  0  0  0  0
  -28.5071  -21.0554   22.0201 C   0  0  0  0  0  0  0  0  0  0  0  0
  -25.0877  -28.9210   26.0903 C   0  0  0  0  0  0  0  0  0  0  0  0
  -28.1134  -28.4525   27.5978 C   0  0  0  0  0  0  0  0  0  0  0  0
  -31.1755  -17.2745   15.6393 C   0  0  0  0  0  0  0  0  0  0  0  0
  -17.9474  -28.6927   22.9600 C   0  0  0  0  0  0  0  0  0  0  0  0
  -23.2886  -25.7966   25.3062 C   0  0  0  0  0  0  0  0  0  0  0  0
  -25.8260  -27.0933   24.5156 C   0  0  0  0  0  0  0  0  0  0  0  0
  -19.0728  -29.4825   23.6232 C   0  0  0  0  0  0  0  0  0  0  0  0
  -30.2803  -13.9004   14.9629 C   0  0  0  0  0  0  0  0  0  0  0  0
  -20.3201  -29.4742   22.7451 C   0  0  0  0  0  0  0  0  0  0  0  0
  -29.7706  -13.4420   16.3288 C   0  0  0  0  0  0  0  0  0  0  0  0
  -29.8569  -15.3351   14.6459 C   0  0  0  0  0  0  0  0  0  0  0  0
  -29.7134  -15.8570   17.0607 C   0  0  0  0  0  0  0  0  0  0  0  0
  -20.8416  -28.0466   22.5411 C   0  0  1  0  0  0  0  0  0  0  0  0
  -23.4249  -27.3141   25.2286 C   0  0  1  0  0  0  0  0  0  0  0  0
  -30.1725  -14.4380   17.4309 C   0  0  1  0  0  0  0  0  0  0  0  0
  -29.1214  -19.1524   23.5265 C   0  0  0  0  0  0  0  0  0  0  0  0
  -29.6562  -29.4899   29.2833 C   0  0  0  0  0  0  0  0  0  0  0  0
  -25.9137  -31.0219   24.0376 C   0  0  0  0  0  0  0  0  0  0  0  0
  -28.0162  -31.3767   25.3498 C   0  0  0  0  0  0  0  0  0  0  0  0
  -25.8012  -31.8531   26.3936 C   0  0  0  0  0  0  0  0  0  0  0  0
  -32.7455  -18.5842   17.0517 C   0  0  0  0  0  0  0  0  0  0  0  0
  -27.9749  -26.0776   29.3584 C   0  0  0  0  0  0  0  0  0  0  0  0
  -27.4731  -18.8525   15.3788 C   0  0  0  0  0  0  0  0  0  0  0  0
  -27.1095  -21.5786   22.2960 C   0  0  0  0  0  0  0  0  0  1  0  0
  -28.6956  -19.5483   22.1227 C   0  0  2  0  0  0  0  0  0  0  0  0
  -26.4975  -29.4540   26.0040 C   0  0  1  0  0  0  0  0  0  0  0  0
  -28.5289  -28.4944   29.0572 C   0  0  2  0  0  0  0  0  0  0  0  0
  -26.5504  -30.9006   25.4365 C   0  0  0  0  0  0  0  0  0  0  0  0
  -28.2381  -19.2471   19.3419 N   0  0  0  0  0  0  0  0  0  0  0  0
  -28.4918  -13.3433   18.8655 N   0  0  0  0  0  0  0  0  0  0  0  0
  -29.6565  -14.0099   18.7919 N   0  0  0  0  0  0  0  0  0  0  0  0
  -24.8134  -27.7637   25.3479 N   0  0  0  0  0  0  0  0  0  0  0  0
  -30.2249  -16.2414   15.7429 N   0  0  0  0  0  0  0  0  0  0  0  0
  -31.4231  -14.8770   20.1102 N   0  0  0  0  0  0  0  0  0  0  0  0
  -28.6650  -13.0116   23.1612 N   0  0  0  0  0  0  0  0  0  0  0  0
  -29.7082  -19.1337   21.1766 N   0  0  0  0  0  0  0  0  0  0  0  0
  -21.5567  -27.5969   23.7161 N   0  0  0  0  0  0  0  0  0  0  0  0
  -27.0690  -29.3147   27.3391 N   0  0  0  0  0  0  0  0  0  0  0  0
  -31.4125  -18.0198   16.8143 N   0  0  0  0  0  0  0  0  0  0  0  0
  -28.9928  -27.1500   29.5026 N   0  3  0  0  0  0  0  0  0  0  0  0
  -30.6259  -14.1679   22.8848 O   0  0  0  0  0  0  0  0  0  0  0  0
  -23.6316  -28.5267   23.2132 O   0  0  0  0  0  0  0  0  0  0  0  0
  -29.4343  -21.8156   21.7394 O   0  0  0  0  0  0  0  0  0  0  0  0
  -24.2623  -29.5057   26.7963 O   0  0  0  0  0  0  0  0  0  0  0  0
  -28.6630  -27.7300   26.7692 O   0  0  0  0  0  0  0  0  0  0  0  0
  -31.7846  -17.4970   14.5861 O   0  0  0  0  0  0  0  0  0  0  0  0
  -23.8620  -10.3976   22.0961 O   0  0  0  0  0  0  0  0  0  0  0  0
  -28.8029  -18.5639   15.8126 O   0  0  0  0  0  0  0  0  0  0  0  0
  -27.0641  -22.9968   22.1441 O   0  0  0  0  0  0  0  0  0  1  0  0
  -22.3324   -5.8084   19.4499 F   0  0  0  0  0  0  0  0  0  0  0  0
  -23.1604  -10.4687   19.4230 F   0  0  0  0  0  0  0  0  0  0  0  0
  1  2  1  0  0  0  0
  1  5  2  0  0  0  0
  2  6  2  0  0  0  0
  3  8  2  0  0  0  0
  3 17  1  0  0  0  0
  4  9  1  0  0  0  0
  4 17  2  0  0  0  0
  5 19  1  0  0  0  0
  6 21  1  0  0  0  0
  7 10  2  0  0  0  0
  7 20  1  0  0  0  0
  8 24  1  0  0  0  0
  9 24  2  0  0  0  0
 10 25  1  0  0  0  0
 11 12  2  0  0  0  0
 11 26  1  0  0  0  0
 12 28  1  0  0  0  0
 13 22  1  0  0  0  0
 13 25  2  0  0  0  0
 14 23  2  0  0  0  0
 14 31  1  0  0  0  0
 15 28  2  0  0  0  0
 15 29  1  0  0  0  0
 16 27  2  0  0  0  0
 16 64  1  0  0  0  0
 17 30  1  0  0  0  0
 18 30  1  0  0  0  0
 18 32  2  0  0  0  0
 18 33  1  0  0  0  0
 19 21  2  0  0  0  0
 19 39  1  0  0  0  0
 20 22  2  0  0  0  0
 20 40  1  0  0  0  0
 21 48  1  0  0  0  0
 22 41  1  0  0  0  0
 23 27  1  0  0  0  0
 23 74  1  0  0  0  0
 24 82  1  0  0  0  0
 25 84  1  0  0  0  0
 26 29  2  0  0  0  0
 26 82  1  0  0  0  0
 27 83  1  0  0  0  0
 28 85  1  0  0  0  0
 29 86  1  0  0  0  0
 30 65  2  0  0  0  0
 31 64  2  0  0  0  0
 31 71  1  0  0  0  0
 32 66  1  0  0  0  0
 32 69  1  0  0  0  0
 33 70  1  0  0  0  0
 33 76  2  0  0  0  0
 34 49  1  0  0  0  0
 34 72  1  0  0  0  0
 34 77  2  0  0  0  0
 35 59  1  0  0  0  0
 35 60  1  0  0  0  0
 35 78  2  0  0  0  0
 36 61  1  0  0  0  0
 36 67  1  0  0  0  0
 36 79  2  0  0  0  0
 37 62  1  0  0  0  0
 37 73  1  0  0  0  0
 37 80  2  0  0  0  0
 38 68  1  0  0  0  0
 38 74  1  0  0  0  0
 38 81  2  0  0  0  0
 39 42  1  0  0  0  0
 40 49  1  0  0  0  0
 41 67  1  0  0  0  0
 42 44  1  0  0  0  0
 43 45  1  0  0  0  0
 43 46  1  0  0  0  0
 44 48  1  0  0  0  0
 45 50  1  0  0  0  0
 46 68  1  0  0  0  0
 47 50  1  0  0  0  0
 47 68  1  0  0  0  0
 48 72  1  0  0  0  0
 49 67  1  0  0  0  0
 50 66  1  0  0  0  0
 51 60  1  0  0  0  0
 52 62  1  0  0  0  0
 53 63  1  0  0  0  0
 54 63  1  0  0  0  0
 55 63  1  0  0  0  0
 56 74  1  0  0  0  0
 57 75  1  0  0  0  0
 58 83  1  0  0  0  0
 59 84  1  0  0  0  0
 60 71  1  0  0  0  0
 61 63  1  0  0  0  0
 61 73  1  0  0  0  0
 62 75  1  0  0  0  0
 65 66  1  0  0  0  0
M  CHG  1  75   1
M  ISO  4  38 100  59 101  74 100  84 101
M  END
> <Batch ID>
0096

> <Smiles>
CNC(C)C(=O)NC(C(=O)N1Cc2cc([101O:1][101CH2:1]C(=O)C(C)Nc3cc([100N:0](C)[100C:0](=O)N4CCCC(n5nc(-c6ccc(Oc7ccc(F)cc7F)cc6)c(C(N)=O)c5N)C4)c(OC)cn3)ccc2CC1C(=O)NC1CCCc2ccccc21)C(C)(C)C

> <Shape>
0.242

> <Color>
0.080

> <Negative vol penalty>
0.000

$$$$

  -OEChem-04052300463D

 86 94  0     1  0  0  0  0  0999 V2000
  -25.9020  -21.8473   17.6960 C   0  0  0  0  0  0  0  0  0  0  0  0
  -26.7973  -20.7846   17.6519 C   0  0  0  0  0  0  0  0  0  0  0  0
  -26.2129  -27.9851   22.2042 C   0  0  0  0  0  0  0  0  0  0  0  0
  -28.0237  -29.4416   21.5437 C   0  0  0  0  0  0  0  0  0  0  0  0
  -24.7160  -21.7250   18.4169 C   0  0  0  0  0  0  0  0  0  0  0  0
  -26.5014  -19.5951   18.3186 C   0  0  0  0  0  0  0  0  0  0  0  0
  -29.5801  -15.7318   17.5519 C   0  0  0  0  0  0  0  0  0  0  0  0
  -32.7298  -20.7821   20.7046 C   0  0  0  0  0  0  0  0  0  0  0  0
  -26.0394  -28.7297   23.3709 C   0  0  0  0  0  0  0  0  0  0  0  0
  -27.8503  -30.1863   22.7103 C   0  0  0  0  0  0  0  0  0  0  0  0
  -30.8735  -15.6564   18.0669 C   0  0  0  0  0  0  0  0  0  0  0  0
  -33.1816  -19.5940   21.2791 C   0  0  0  0  0  0  0  0  0  0  0  0
  -24.6077  -31.6590   24.2664 C   0  0  0  0  0  0  0  0  0  0  0  0
  -23.3048  -31.9982   24.6313 C   0  0  0  0  0  0  0  0  0  0  0  0
  -30.0914  -14.1685   19.7969 C   0  0  0  0  0  0  0  0  0  0  0  0
  -30.5372  -19.8090   20.4166 C   0  0  0  0  0  0  0  0  0  0  0  0
  -23.5774  -30.8046   26.7141 C   0  0  0  0  0  0  0  0  0  0  0  0
  -27.2051  -28.3410   21.2907 C   0  0  0  0  0  0  0  0  0  0  0  0
  -26.4390  -27.3554   19.0660 C   0  0  0  0  0  0  0  0  0  0  0  0
  -24.4120  -20.5375   19.1027 C   0  0  0  0  0  0  0  0  0  0  0  0
  -28.5284  -15.0333   18.1625 C   0  0  0  0  0  0  0  0  0  0  0  0
  -25.2985  -19.4437   19.0317 C   0  0  0  0  0  0  0  0  0  0  0  0
  -28.7866  -14.2330   19.2848 C   0  0  0  0  0  0  0  0  0  0  0  0
  -31.4075  -20.8896   20.2735 C   0  0  0  0  0  0  0  0  0  0  0  0
  -30.9890  -18.6209   20.9910 C   0  0  0  0  0  0  0  0  0  0  0  0
  -26.8581  -29.8303   23.6239 C   0  0  0  0  0  0  0  0  0  0  0  0
  -31.1288  -14.8764   19.1909 C   0  0  0  0  0  0  0  0  0  0  0  0
  -32.3113  -18.5135   21.4223 C   0  0  0  0  0  0  0  0  0  0  0  0
  -25.3954  -30.8926   25.1254 C   0  0  0  0  0  0  0  0  0  0  0  0
  -22.7897  -31.5710   25.8551 C   0  0  0  0  0  0  0  0  0  0  0  0
  -24.8803  -30.4654   26.3492 C   0  0  0  0  0  0  0  0  0  0  0  0
  -27.3851  -27.5718   20.0857 C   0  0  0  0  0  0  0  0  0  0  0  0
  -27.0939  -26.5669   18.1516 C   0  0  0  0  0  0  0  0  0  0  0  0
  -27.7763  -22.7838   21.4488 C   0  0  0  0  0  0  0  0  0  0  0  0
  -29.0487  -22.4552   21.2087 C   0  0  0  0  0  0  0  0  0  0  0  0
  -25.0889  -27.8251   18.9551 C   0  0  0  0  0  0  0  0  0  0  0  0
  -29.5863  -22.4890   19.8218 C   0  0  0  0  0  0  0  0  0  0  0  0
  -25.7460  -15.7847   19.5551 C   0  0  0  0  0  0  0  0  0  0  0  0
  -25.4753  -12.4715   19.6107 C   0  0  0  0  0  0  0  0  0  0  0  0
  -22.1726  -12.8049   20.3985 C   0  0  0  0  0  0  0  0  0  0  0  0
  -31.7549  -22.7854   18.7339 C   0  0  0  0  0  0  0  0  0  0  0  0
  -23.1106  -20.4567   19.8611 C   0  0  0  0  0  0  0  0  0  0  0  0
  -27.1457  -15.1041   17.5730 C   0  0  0  0  0  0  0  0  0  0  0  0
  -27.6935  -13.4615   19.9737 C   0  0  0  0  0  0  0  0  0  0  0  0
  -23.0916  -19.3319   20.8910 C   0  0  0  0  0  0  0  0  0  0  0  0
  -31.4524  -25.5702   16.4821 C   0  0  0  0  0  0  0  0  0  0  0  0
  -23.5588  -18.0331   20.2510 C   0  0  0  0  0  0  0  0  0  0  0  0
  -30.3229  -26.4067   17.0791 C   0  0  0  0  0  0  0  0  0  0  0  0
  -32.2883  -24.9126   17.5739 C   0  0  0  0  0  0  0  0  0  0  0  0
  -30.3416  -24.8849   19.1111 C   0  0  0  0  0  0  0  0  0  0  0  0
  -25.0120  -18.1511   19.7744 C   0  0  1  0  0  0  0  0  0  0  0  0
  -26.0436  -14.7060   18.5525 C   0  0  1  0  0  0  0  0  0  0  0  0
  -29.4692  -25.5610   18.0376 C   0  0  1  0  0  0  0  0  0  0  0  0
  -19.8241  -12.1014   20.9341 C   0  0  0  0  0  0  0  0  0  0  0  0
  -25.2159  -12.3193   16.5751 C   0  0  0  0  0  0  0  0  0  0  0  0
  -22.7696  -11.8800   16.8768 C   0  0  0  0  0  0  0  0  0  0  0  0
  -24.4455  -10.2748   17.7920 C   0  0  0  0  0  0  0  0  0  0  0  0
  -22.7775  -12.5716   23.2861 C   0  0  0  0  0  0  0  0  0  0  0  0
  -33.8072  -15.2134   21.6042 C   0  0  0  0  0  0  0  0  0  0  0  0
  -32.5164  -14.5870   21.1006 C   0  0  0  0  0  0  0  0  0  1  0  0
  -33.8576  -16.7088   21.3329 C   0  0  0  0  0  0  0  0  0  0  0  0
  -24.1390  -12.5201   18.9130 C   0  0  1  0  0  0  0  0  0  0  0  0
  -21.2831  -12.0352   21.3580 C   0  0  2  0  0  0  0  0  0  0  0  0
  -24.1545  -11.7720   17.5501 C   0  0  0  0  0  0  0  0  0  0  0  0
  -28.5521  -26.9693   19.8426 N   0  0  0  0  0  0  0  0  0  0  0  0
  -28.3436  -26.3665   18.6597 N   0  0  0  0  0  0  0  0  0  0  0  0
  -26.3828  -13.4958   19.3119 N   0  0  0  0  0  0  0  0  0  0  0  0
  -31.4557  -24.1428   18.4998 N   0  0  0  0  0  0  0  0  0  0  0  0
  -30.0974  -17.5350   21.1300 N   0  0  0  0  0  0  0  0  0  0  0  0
  -26.7168  -26.0324   16.9708 N   0  0  0  0  0  0  0  0  0  0  0  0
  -24.8587  -29.0527   18.3192 N   0  0  0  0  0  0  0  0  0  0  0  0
  -25.3486  -16.9823   18.9919 N   0  0  0  0  0  0  0  0  0  0  0  0
  -23.1619  -12.0053   19.8662 N   0  0  0  0  0  0  0  0  0  0  0  0
  -30.9383  -22.1251   19.6774 N   0  0  0  0  0  0  0  0  0  0  0  0
  -21.3985  -12.5956   22.7341 N   0  3  0  0  0  0  0  0  0  0  0  0
  -24.1170  -27.1833   19.4211 O   0  0  0  0  0  0  0  0  0  0  0  0
  -28.8584  -22.9373   18.9357 O   0  0  0  0  0  0  0  0  0  0  0  0
  -25.8665  -15.5475   20.7513 O   0  0  0  0  0  0  0  0  0  0  0  0
  -25.7134  -11.5477   20.3937 O   0  0  0  0  0  0  0  0  0  0  0  0
  -22.0042  -13.9953   20.1435 O   0  0  0  0  0  0  0  0  0  0  0  0
  -32.6984  -22.1991   18.1907 O   0  0  0  0  0  0  0  0  0  0  0  0
  -26.6889  -30.5573   24.7621 O   0  0  0  0  0  0  0  0  0  0  0  0
  -32.3905  -14.8006   19.6953 O   0  0  0  0  0  0  0  0  0  1  0  0
  -32.7749  -17.3548   21.9890 O   0  0  0  0  0  0  0  0  0  0  0  0
  -21.5391  -31.8981   26.2060 F   0  0  0  0  0  0  0  0  0  0  0  0
  -25.6327  -29.7299   27.1791 F   0  0  0  0  0  0  0  0  0  0  0  0
  1  2  1  0  0  0  0
  1  5  2  0  0  0  0
  2  6  2  0  0  0  0
  3  9  2  0  0  0  0
  3 18  1  0  0  0  0
  4 10  1  0  0  0  0
  4 18  2  0  0  0  0
  5 20  1  0  0  0  0
  6 22  1  0  0  0  0
  7 11  2  0  0  0  0
  7 21  1  0  0  0  0
  8 12  2  0  0  0  0
  8 24  1  0  0  0  0
  9 26  1  0  0  0  0
 10 26  2  0  0  0  0
 11 27  1  0  0  0  0
 12 28  1  0  0  0  0
 13 14  2  0  0  0  0
 13 29  1  0  0  0  0
 14 30  1  0  0  0  0
 15 23  1  0  0  0  0
 15 27  2  0  0  0  0
 16 24  2  0  0  0  0
 16 25  1  0  0  0  0
 17 30  2  0  0  0  0
 17 31  1  0  0  0  0
 18 32  1  0  0  0  0
 19 32  1  0  0  0  0
 19 33  2  0  0  0  0
 19 36  1  0  0  0  0
 20 22  2  0  0  0  0
 20 42  1  0  0  0  0
 21 23  2  0  0  0  0
 21 43  1  0  0  0  0
 22 51  1  0  0  0  0
 23 44  1  0  0  0  0
 24 74  1  0  0  0  0
 25 28  2  0  0  0  0
 25 69  1  0  0  0  0
 26 82  1  0  0  0  0
 27 83  1  0  0  0  0
 28 84  1  0  0  0  0
 29 31  2  0  0  0  0
 29 82  1  0  0  0  0
 30 85  1  0  0  0  0
 31 86  1  0  0  0  0
 32 65  2  0  0  0  0
 33 66  1  0  0  0  0
 33 70  1  0  0  0  0
 34 35  2  0  0  0  0
 35 37  1  0  0  0  0
 36 71  1  0  0  0  0
 36 76  2  0  0  0  0
 37 74  1  0  0  0  0
 37 77  2  0  0  0  0
 38 52  1  0  0  0  0
 38 72  1  0  0  0  0
 38 78  2  0  0  0  0
 39 62  1  0  0  0  0
 39 67  1  0  0  0  0
 39 79  2  0  0  0  0
 40 63  1  0  0  0  0
 40 73  1  0  0  0  0
 40 80  2  0  0  0  0
 41 68  1  0  0  0  0
 41 74  1  0  0  0  0
 41 81  2  0  0  0  0
 42 45  1  0  0  0  0
 43 52  1  0  0  0  0
 44 67  1  0  0  0  0
 45 47  1  0  0  0  0
 46 48  1  0  0  0  0
 46 49  1  0  0  0  0
 47 51  1  0  0  0  0
 48 53  1  0  0  0  0
 49 68  1  0  0  0  0
 50 53  1  0  0  0  0
 50 68  1  0  0  0  0
 51 72  1  0  0  0  0
 52 67  1  0  0  0  0
 53 66  1  0  0  0  0
 54 63  1  0  0  0  0
 55 64  1  0  0  0  0
 56 64  1  0  0  0  0
 57 64  1  0  0  0  0
 58 75  1  0  0  0  0
 59 60  1  0  0  0  0
 59 61  1  0  0  0  0
 60 83  1  0  0  0  0
 61 84  1  0  0  0  0
 62 64  1  0  0  0  0
 62 73  1  0  0  0  0
 63 75  1  0  0  0  0
 65 66  1  0  0  0  0
M  CHG  1  75   1
M  ISO  4  41 100  60 101  74 100  83 101
M  END
> <Batch ID>
0096

> <Smiles>
C=CC(=O)[100N:0](c1ccc(OCC[101CH2:1][101O:1]c2ccc3c(c2)CN(C(=O)C(NC(=O)C(C)NC)C(C)(C)C)C(C(=O)NC2CCCc4ccccc42)C3)c(N)c1)[100C:0](=O)N1CCCC(n2nc(-c3ccc(Oc4ccc(F)cc4F)cc3)c(C(N)=O)c2N)C1

> <Shape>
0.225

> <Color>
0.097

> <Negative vol penalty>
0.000

$$$$

  -OEChem-04052300463D

 89 98  0     1  0  0  0  0  0999 V2000
  -26.4673  -19.9497   26.8955 C   0  0  0  0  0  0  0  0  0  0  0  0
  -26.7792  -20.6367   25.7266 C   0  0  0  0  0  0  0  0  0  0  0  0
  -22.8447  -14.6841   22.3043 C   0  0  0  0  0  0  0  0  0  0  0  0
  -23.7178  -13.9432   20.1769 C   0  0  0  0  0  0  0  0  0  0  0  0
  -25.1581  -19.9502   27.3748 C   0  0  0  0  0  0  0  0  0  0  0  0
  -25.7816  -21.3237   25.0357 C   0  0  0  0  0  0  0  0  0  0  0  0
  -27.2640  -25.9355   23.5598 C   0  0  0  0  0  0  0  0  0  0  0  0
  -31.7746  -21.6089   17.6385 C   0  0  0  0  0  0  0  0  0  0  0  0
  -29.3872  -21.2438   17.7016 C   0  0  0  0  0  0  0  0  0  0  0  0
  -31.9869  -20.2318   17.7015 C   0  0  0  0  0  0  0  0  0  0  0  0
  -29.5995  -19.8666   17.7645 C   0  0  0  0  0  0  0  0  0  0  0  0
  -22.2320  -13.4441   22.4848 C   0  0  0  0  0  0  0  0  0  0  0  0
  -23.1051  -12.7031   20.3574 C   0  0  0  0  0  0  0  0  0  0  0  0
  -28.0847  -26.0110   22.4353 C   0  0  0  0  0  0  0  0  0  0  0  0
  -23.6947   -9.8647   22.0941 C   0  0  0  0  0  0  0  0  0  0  0  0
  -24.4456   -8.7247   21.8075 C   0  0  0  0  0  0  0  0  0  0  0  0
  -26.1728  -26.5986   21.0868 C   0  0  0  0  0  0  0  0  0  0  0  0
  -22.8248   -8.0769   20.1371 C   0  0  0  0  0  0  0  0  0  0  0  0
  -23.5876  -14.9337   21.1503 C   0  0  0  0  0  0  0  0  0  0  0  0
  -23.5914  -17.4727   20.9033 C   0  0  0  0  0  0  0  0  0  0  0  0
  -24.1459  -20.6455   26.6946 C   0  0  0  0  0  0  0  0  0  0  0  0
  -25.8874  -26.1807   23.4540 C   0  0  0  0  0  0  0  0  0  0  0  0
  -24.4573  -21.3323   25.5056 C   0  0  0  0  0  0  0  0  0  0  0  0
  -25.3372  -26.5281   22.2119 C   0  0  0  0  0  0  0  0  0  0  0  0
  -30.4747  -22.1150   17.6386 C   0  0  0  0  0  0  0  0  0  0  0  0
  -30.8993  -19.3606   17.7644 C   0  0  0  0  0  0  0  0  0  0  0  0
  -22.3622  -12.4536   21.5113 C   0  0  0  0  0  0  0  0  0  0  0  0
  -27.5387  -26.3397   21.1980 C   0  0  0  0  0  0  0  0  0  0  0  0
  -22.5087  -10.1108   21.4022 C   0  0  0  0  0  0  0  0  0  0  0  0
  -24.0107   -7.8308   20.8290 C   0  0  0  0  0  0  0  0  0  0  0  0
  -22.0738   -9.2169   20.4236 C   0  0  0  0  0  0  0  0  0  0  0  0
  -24.2202  -16.2146   20.9630 C   0  0  0  0  0  0  0  0  0  0  0  0
  -24.6206  -18.3624   20.7148 C   0  0  0  0  0  0  0  0  0  0  0  0
  -31.2148  -24.3290   16.8899 C   0  0  0  0  0  0  0  0  0  0  0  0
  -29.0941  -24.0624   18.2117 C   0  0  0  0  0  0  0  0  0  0  0  0
  -22.2012  -17.8072   21.0089 C   0  0  0  0  0  0  0  0  0  0  0  0
  -23.2583  -24.4679   23.9618 C   0  0  0  0  0  0  0  0  0  0  0  0
  -21.7744  -27.2920   23.3744 C   0  0  0  0  0  0  0  0  0  0  0  0
  -32.2161  -17.2971   17.2599 C   0  0  0  0  0  0  0  0  0  0  0  0
  -22.6705  -29.8191   21.2631 C   0  0  0  0  0  0  0  0  0  0  0  0
  -30.1364  -17.1050   18.3854 C   0  0  0  0  0  0  0  0  0  0  0  0
  -22.7359  -20.5779   27.2257 C   0  0  0  0  0  0  0  0  0  0  0  0
  -25.0201  -26.1214   24.6815 C   0  0  0  0  0  0  0  0  0  0  0  0
  -23.8687  -26.8205   22.0489 C   0  0  0  0  0  0  0  0  0  0  0  0
  -31.0599  -25.8334   16.9738 C   0  0  0  0  0  0  0  0  0  0  0  0
  -21.8118  -21.6412   26.6375 C   0  0  0  0  0  0  0  0  0  0  0  0
  -30.1128  -26.2963   18.0561 C   0  0  0  0  0  0  0  0  0  0  0  0
  -29.3466  -18.4196   21.8124 C   0  0  0  0  0  0  0  0  0  0  0  0
  -21.9765  -21.7127   25.1227 C   0  0  0  0  0  0  0  0  0  0  0  0
  -27.8206  -18.5212   21.8236 C   0  0  0  0  0  0  0  0  0  0  0  0
  -29.9319  -18.6189   20.4200 C   0  0  0  0  0  0  0  0  0  0  0  0
  -28.0584  -17.1078   19.7237 C   0  0  0  0  0  0  0  0  0  0  0  0
  -23.4077  -22.1098   24.7414 C   0  0  1  0  0  0  0  0  0  0  0  0
  -28.8113  -25.5278   17.9128 C   0  0  2  0  0  0  0  0  0  0  0  0
  -23.5470  -25.8873   24.3615 C   0  0  1  0  0  0  0  0  0  0  0  0
  -27.1799  -18.1099   20.4848 C   0  0  1  0  0  0  0  0  0  0  0  0
  -32.6547  -15.9792   17.8576 C   0  0  0  0  0  0  0  0  0  0  0  0
  -22.7592  -32.1417   20.3170 C   0  0  0  0  0  0  0  0  0  0  0  0
  -19.1823  -26.4433   22.0066 C   0  0  0  0  0  0  0  0  0  0  0  0
  -19.2278  -28.6005   20.7367 C   0  0  0  0  0  0  0  0  0  0  0  0
  -19.0536  -28.6235   23.2251 C   0  0  0  0  0  0  0  0  0  0  0  0
  -24.9171  -30.5792   23.0333 C   0  0  0  0  0  0  0  0  0  0  0  0
  -27.7416  -26.0988   18.8407 C   0  0  0  0  0  0  0  0  0  1  0  0
  -21.2476  -27.9868   22.1421 C   0  0  1  0  0  0  0  0  0  0  0  0
  -23.0472  -31.2659   21.5265 C   0  0  2  0  0  0  0  0  0  0  0  0
  -19.6998  -27.8955   22.0263 C   0  0  0  0  0  0  0  0  0  0  0  0
  -25.5462  -16.2938   20.8236 N   0  0  0  0  0  0  0  0  0  0  0  0
  -25.7590  -17.6123   20.6742 N   0  0  0  0  0  0  0  0  0  0  0  0
  -30.2540  -23.5460   17.5736 N   0  0  0  0  0  0  0  0  0  0  0  0
  -23.0611  -26.7434   23.2774 N   0  0  0  0  0  0  0  0  0  0  0  0
  -29.3957  -17.6456   19.4553 N   0  0  0  0  0  0  0  0  0  0  0  0
  -24.6539  -19.7053   20.5813 N   0  0  0  0  0  0  0  0  0  0  0  0
  -21.4321  -17.8446   19.8378 N   0  0  0  0  0  0  0  0  0  0  0  0
  -23.6018  -23.5328   24.9195 N   0  0  0  0  0  0  0  0  0  0  0  0
  -21.7638  -29.3505   22.1902 N   0  0  0  0  0  0  0  0  0  0  0  0
  -31.1181  -17.9389   17.8294 N   0  0  0  0  0  0  0  0  0  0  0  0
  -24.4981  -31.3728   21.8494 N   0  3  0  0  0  0  0  0  0  0  0  0
  -32.1113  -23.8809   16.1678 O   0  0  0  0  0  0  0  0  0  0  0  0
  -28.3564  -23.4248   18.9659 O   0  0  0  0  0  0  0  0  0  0  0  0
  -21.6608  -18.0814   22.1072 O   0  0  0  0  0  0  0  0  0  0  0  0
  -22.7594  -24.2382   22.8664 O   0  0  0  0  0  0  0  0  0  0  0  0
  -21.0731  -27.2442   24.3881 O   0  0  0  0  0  0  0  0  0  0  0  0
  -32.8540  -17.7682   16.3123 O   0  0  0  0  0  0  0  0  0  0  0  0
  -23.1314  -29.1707   20.3262 O   0  0  0  0  0  0  0  0  0  0  0  0
  -29.9280  -15.9726   17.9342 O   0  0  0  0  0  0  0  0  0  0  0  0
  -21.7647  -11.2434   21.6872 O   0  0  0  0  0  0  0  0  0  0  0  0
  -28.3374  -26.4134   20.0987 O   0  0  0  0  0  0  0  0  0  1  0  0
  -24.7327   -6.7369   20.5529 F   0  0  0  0  0  0  0  0  0  0  0  0
  -20.9360   -9.4486   19.7548 F   0  0  0  0  0  0  0  0  0  0  0  0
  1  2  1  0  0  0  0
  1  5  2  0  0  0  0
  2  6  2  0  0  0  0
  3 12  2  0  0  0  0
  3 19  1  0  0  0  0
  4 13  1  0  0  0  0
  4 19  2  0  0  0  0
  5 21  1  0  0  0  0
  6 23  1  0  0  0  0
  7 14  2  0  0  0  0
  7 22  1  0  0  0  0
  8 10  2  0  0  0  0
  8 25  1  0  0  0  0
  9 11  1  0  0  0  0
  9 25  2  0  0  0  0
 10 26  1  0  0  0  0
 11 26  2  0  0  0  0
 12 27  1  0  0  0  0
 13 27  2  0  0  0  0
 14 28  1  0  0  0  0
 15 16  2  0  0  0  0
 15 29  1  0  0  0  0
 16 30  1  0  0  0  0
 17 24  1  0  0  0  0
 17 28  2  0  0  0  0
 18 30  2  0  0  0  0
 18 31  1  0  0  0  0
 19 32  1  0  0  0  0
 20 32  1  0  0  0  0
 20 33  2  0  0  0  0
 20 36  1  0  0  0  0
 21 23  2  0  0  0  0
 21 42  1  0  0  0  0
 22 24  2  0  0  0  0
 22 43  1  0  0  0  0
 23 53  1  0  0  0  0
 24 44  1  0  0  0  0
 25 69  1  0  0  0  0
 26 76  1  0  0  0  0
 27 86  1  0  0  0  0
 28 87  1  0  0  0  0
 29 31  2  0  0  0  0
 29 86  1  0  0  0  0
 30 88  1  0  0  0  0
 31 89  1  0  0  0  0
 32 67  2  0  0  0  0
 33 68  1  0  0  0  0
 33 72  1  0  0  0  0
 34 45  1  0  0  0  0
 34 69  1  0  0  0  0
 34 78  2  0  0  0  0
 35 54  1  0  0  0  0
 35 69  1  0  0  0  0
 35 79  2  0  0  0  0
 36 73  1  0  0  0  0
 36 80  2  0  0  0  0
 37 55  1  0  0  0  0
 37 74  1  0  0  0  0
 37 81  2  0  0  0  0
 38 64  1  0  0  0  0
 38 70  1  0  0  0  0
 38 82  2  0  0  0  0
 39 57  1  0  0  0  0
 39 76  1  0  0  0  0
 39 83  2  0  0  0  0
 40 65  1  0  0  0  0
 40 75  1  0  0  0  0
 40 84  2  0  0  0  0
 41 71  1  0  0  0  0
 41 76  1  0  0  0  0
 41 85  2  0  0  0  0
 42 46  1  0  0  0  0
 43 55  1  0  0  0  0
 44 70  1  0  0  0  0
 45 47  1  0  0  0  0
 46 49  1  0  0  0  0
 47 54  1  0  0  0  0
 48 50  1  0  0  0  0
 48 51  1  0  0  0  0
 49 53  1  0  0  0  0
 50 56  1  0  0  0  0
 51 71  1  0  0  0  0
 52 56  1  0  0  0  0
 52 71  1  0  0  0  0
 53 74  1  0  0  0  0
 54 63  1  0  0  0  0
 55 70  1  0  0  0  0
 56 68  1  0  0  0  0
 58 65  1  0  0  0  0
 59 66  1  0  0  0  0
 60 66  1  0  0  0  0
 61 66  1  0  0  0  0
 62 77  1  0  0  0  0
 63 87  1  0  0  0  0
 64 66  1  0  0  0  0
 64 75  1  0  0  0  0
 65 77  1  0  0  0  0
 67 68  1  0  0  0  0
M  CHG  1  77   1
M  ISO  4  41 100  63 101  76 100  87 101
M  END
> <Batch ID>
0096

> <Smiles>
CNC(C)C(=O)NC(C(=O)N1Cc2cc([101O:1][101CH2:1]C3CCC(=O)N(c4ccc([100N:0](C(C)=O)[100C:0](=O)N5CCCC(n6nc(-c7ccc(Oc8ccc(F)cc8F)cc7)c(C(N)=O)c6N)C5)cc4)C3=O)ccc2CC1C(=O)NC1CCCc2ccccc21)C(C)(C)C

> <Shape>
0.217

> <Color>
0.065

> <Negative vol penalty>
0.000

$$$$

  -OEChem-04052300463D

 87 96  0     1  0  0  0  0  0999 V2000
  -15.9820  -27.1384   21.6910 C   0  0  0  0  0  0  0  0  0  0  0  0
  -17.1497  -26.9795   20.9517 C   0  0  0  0  0  0  0  0  0  0  0  0
  -22.9217  -10.5184   21.6912 C   0  0  0  0  0  0  0  0  0  0  0  0
  -24.6729   -8.8546   21.7385 C   0  0  0  0  0  0  0  0  0  0  0  0
  -15.9450  -28.0482   22.7469 C   0  0  0  0  0  0  0  0  0  0  0  0
  -18.2810  -27.7313   21.2672 C   0  0  0  0  0  0  0  0  0  0  0  0
  -22.5130  -24.9504   21.3051 C   0  0  0  0  0  0  0  0  0  0  0  0
  -29.0768  -19.9981   17.3657 C   0  0  0  0  0  0  0  0  0  0  0  0
  -26.8862  -20.1275   18.3765 C   0  0  0  0  0  0  0  0  0  0  0  0
  -29.2148  -18.6908   17.8321 C   0  0  0  0  0  0  0  0  0  0  0  0
  -27.0241  -18.8202   18.8428 C   0  0  0  0  0  0  0  0  0  0  0  0
  -21.9655   -9.5089   21.5810 C   0  0  0  0  0  0  0  0  0  0  0  0
  -23.7167   -7.8450   21.6283 C   0  0  0  0  0  0  0  0  0  0  0  0
  -23.0773  -24.6328   20.0704 C   0  0  0  0  0  0  0  0  0  0  0  0
  -21.5335   -6.2521   23.6573 C   0  0  0  0  0  0  0  0  0  0  0  0
  -21.6633   -5.1444   24.4951 C   0  0  0  0  0  0  0  0  0  0  0  0
  -24.6835  -26.4102   20.3540 C   0  0  0  0  0  0  0  0  0  0  0  0
  -21.8429   -3.7045   22.5633 C   0  0  0  0  0  0  0  0  0  0  0  0
  -24.2754  -10.1912   21.7699 C   0  0  0  0  0  0  0  0  0  0  0  0
  -25.3737  -12.1930   22.9076 C   0  0  0  0  0  0  0  0  0  0  0  0
  -17.0793  -28.8045   23.0816 C   0  0  0  0  0  0  0  0  0  0  0  0
  -23.0237  -26.0091   22.0698 C   0  0  0  0  0  0  0  0  0  0  0  0
  -18.2588  -28.6531   22.3276 C   0  0  0  0  0  0  0  0  0  0  0  0
  -24.1255  -26.7375   21.5992 C   0  0  0  0  0  0  0  0  0  0  0  0
  -27.9125  -20.7165   17.6380 C   0  0  0  0  0  0  0  0  0  0  0  0
  -28.1885  -18.1018   18.5706 C   0  0  0  0  0  0  0  0  0  0  0  0
  -22.3630   -8.1722   21.5495 C   0  0  0  0  0  0  0  0  0  0  0  0
  -24.1608  -25.3646   19.5933 C   0  0  0  0  0  0  0  0  0  0  0  0
  -21.5583   -6.0860   22.2726 C   0  0  0  0  0  0  0  0  0  0  0  0
  -21.8180   -3.8707   23.9481 C   0  0  0  0  0  0  0  0  0  0  0  0
  -21.7130   -4.8123   21.7256 C   0  0  0  0  0  0  0  0  0  0  0  0
  -25.2637  -11.2336   21.8832 C   0  0  0  0  0  0  0  0  0  0  0  0
  -26.4662  -12.9473   22.5556 C   0  0  0  0  0  0  0  0  0  0  0  0
  -28.4315  -22.4176   15.9507 C   0  0  0  0  0  0  0  0  0  0  0  0
  -26.9830  -22.9702   17.9285 C   0  0  0  0  0  0  0  0  0  0  0  0
  -24.5612  -12.3850   24.0731 C   0  0  0  0  0  0  0  0  0  0  0  0
  -21.8607  -28.7654   23.1441 C   0  0  0  0  0  0  0  0  0  0  0  0
  -24.7107  -28.9195   24.6855 C   0  0  0  0  0  0  0  0  0  0  0  0
  -28.1613  -28.1953   23.9196 C   0  0  0  0  0  0  0  0  0  0  0  0
  -29.0901  -15.7684   18.3878 C   0  0  0  0  0  0  0  0  0  0  0  0
  -16.9771  -29.8097   24.2012 C   0  0  0  0  0  0  0  0  0  0  0  0
  -22.4208  -26.3219   23.4118 C   0  0  0  0  0  0  0  0  0  0  0  0
  -24.7240  -27.8704   22.3910 C   0  0  0  0  0  0  0  0  0  0  0  0
  -28.4111  -23.8774   15.5472 C   0  0  0  0  0  0  0  0  0  0  0  0
  -18.3322  -30.2959   24.7089 C   0  0  0  0  0  0  0  0  0  0  0  0
  -27.9907  -24.8169   16.6532 C   0  0  0  0  0  0  0  0  0  0  0  0
  -30.0029  -12.2396   19.0260 C   0  0  0  0  0  0  0  0  0  0  0  0
  -19.2428  -30.6555   23.5391 C   0  0  0  0  0  0  0  0  0  0  0  0
  -28.8165  -11.7238   19.8384 C   0  0  0  0  0  0  0  0  0  0  0  0
  -29.5955  -13.3661   18.0813 C   0  0  0  0  0  0  0  0  0  0  0  0
  -27.7260  -13.9883   19.5844 C   0  0  0  0  0  0  0  0  0  0  0  0
  -19.5140  -29.4324   22.6549 C   0  0  1  0  0  0  0  0  0  0  0  0
  -26.6934  -24.3017   17.2504 C   0  0  2  0  0  0  0  0  0  0  0  0
  -22.6956  -27.7502   23.8721 C   0  0  1  0  0  0  0  0  0  0  0  0
  -28.1185  -12.8802   20.5731 C   0  0  1  0  0  0  0  0  0  0  0  0
  -30.0643  -27.5466   25.4213 C   0  0  0  0  0  0  0  0  0  0  0  0
  -25.3191  -31.9092   24.7236 C   0  0  0  0  0  0  0  0  0  0  0  0
  -27.7571  -31.3430   24.6647 C   0  0  0  0  0  0  0  0  0  0  0  0
  -26.3545  -30.6100   26.5930 C   0  0  0  0  0  0  0  0  0  0  0  0
  -27.4464  -16.3108   20.1301 C   0  0  0  0  0  0  0  0  0  0  0  0
  -28.7198  -25.7501   22.3487 C   0  0  0  0  0  0  0  0  0  0  0  0
  -26.1066  -25.3185   18.2266 C   0  0  0  0  0  0  0  0  0  1  0  0
  -26.0771  -29.4689   24.3540 C   0  0  1  0  0  0  0  0  0  0  0  0
  -28.9918  -27.0478   24.4654 C   0  0  2  0  0  0  0  0  0  0  0  0
  -26.3594  -30.8233   25.0635 C   0  0  0  0  0  0  0  0  0  0  0  0
  -26.2106  -11.3644   20.9503 N   0  0  0  0  0  0  0  0  0  0  0  0
  -26.9260  -12.4149   21.3871 N   0  0  0  0  0  0  0  0  0  0  0  0
  -27.7691  -22.0752   17.1538 N   0  0  0  0  0  0  0  0  0  0  0  0
  -24.0953  -28.1419   23.6943 N   0  0  0  0  0  0  0  0  0  0  0  0
  -28.8793  -14.4318   18.7842 N   0  0  0  0  0  0  0  0  0  0  0  0
  -27.0688  -14.0075   23.1346 N   0  0  0  0  0  0  0  0  0  0  0  0
  -23.4780  -11.5205   24.2823 N   0  0  0  0  0  0  0  0  0  0  0  0
  -20.4988  -28.5704   23.2729 N   0  0  0  0  0  0  0  0  0  0  0  0
  -27.0311  -28.4140   24.6787 N   0  0  0  0  0  0  0  0  0  0  0  0
  -28.3308  -16.7498   19.0530 N   0  0  0  0  0  0  0  0  0  0  0  0
  -29.6585  -26.3154   23.3519 N   0  3  0  0  0  0  0  0  0  0  0  0
  -28.9469  -21.6107   15.1700 O   0  0  0  0  0  0  0  0  0  0  0  0
  -26.5618  -22.7427   19.0645 O   0  0  0  0  0  0  0  0  0  0  0  0
  -24.7790  -13.3065   24.8959 O   0  0  0  0  0  0  0  0  0  0  0  0
  -22.4114  -29.6603   22.5134 O   0  0  0  0  0  0  0  0  0  0  0  0
  -24.2109  -29.1650   25.7862 O   0  0  0  0  0  0  0  0  0  0  0  0
  -28.4847  -28.8361   22.9220 O   0  0  0  0  0  0  0  0  0  0  0  0
  -29.8607  -16.0638   17.4661 O   0  0  0  0  0  0  0  0  0  0  0  0
  -21.4302   -7.1868   21.4422 O   0  0  0  0  0  0  0  0  0  0  0  0
  -24.7130  -25.0570   18.3882 O   0  0  0  0  0  0  0  0  0  1  0  0
  -21.9441   -2.8072   24.7527 F   0  0  0  0  0  0  0  0  0  0  0  0
  -21.7388   -4.6466   20.3960 F   0  0  0  0  0  0  0  0  0  0  0  0
  1  2  1  0  0  0  0
  1  5  2  0  0  0  0
  2  6  2  0  0  0  0
  3 12  2  0  0  0  0
  3 19  1  0  0  0  0
  4 13  1  0  0  0  0
  4 19  2  0  0  0  0
  5 21  1  0  0  0  0
  6 23  1  0  0  0  0
  7 14  2  0  0  0  0
  7 22  1  0  0  0  0
  8 10  2  0  0  0  0
  8 25  1  0  0  0  0
  9 11  1  0  0  0  0
  9 25  2  0  0  0  0
 10 26  1  0  0  0  0
 11 26  2  0  0  0  0
 12 27  1  0  0  0  0
 13 27  2  0  0  0  0
 14 28  1  0  0  0  0
 15 16  2  0  0  0  0
 15 29  1  0  0  0  0
 16 30  1  0  0  0  0
 17 24  1  0  0  0  0
 17 28  2  0  0  0  0
 18 30  2  0  0  0  0
 18 31  1  0  0  0  0
 19 32  1  0  0  0  0
 20 32  1  0  0  0  0
 20 33  2  0  0  0  0
 20 36  1  0  0  0  0
 21 23  2  0  0  0  0
 21 41  1  0  0  0  0
 22 24  2  0  0  0  0
 22 42  1  0  0  0  0
 23 52  1  0  0  0  0
 24 43  1  0  0  0  0
 25 68  1  0  0  0  0
 26 75  1  0  0  0  0
 27 84  1  0  0  0  0
 28 85  1  0  0  0  0
 29 31  2  0  0  0  0
 29 84  1  0  0  0  0
 30 86  1  0  0  0  0
 31 87  1  0  0  0  0
 32 66  2  0  0  0  0
 33 67  1  0  0  0  0
 33 71  1  0  0  0  0
 34 44  1  0  0  0  0
 34 68  1  0  0  0  0
 34 77  2  0  0  0  0
 35 53  1  0  0  0  0
 35 68  1  0  0  0  0
 35 78  2  0  0  0  0
 36 72  1  0  0  0  0
 36 79  2  0  0  0  0
 37 54  1  0  0  0  0
 37 73  1  0  0  0  0
 37 80  2  0  0  0  0
 38 63  1  0  0  0  0
 38 69  1  0  0  0  0
 38 81  2  0  0  0  0
 39 64  1  0  0  0  0
 39 74  1  0  0  0  0
 39 82  2  0  0  0  0
 40 70  1  0  0  0  0
 40 75  1  0  0  0  0
 40 83  2  0  0  0  0
 41 45  1  0  0  0  0
 42 54  1  0  0  0  0
 43 69  1  0  0  0  0
 44 46  1  0  0  0  0
 45 48  1  0  0  0  0
 46 53  1  0  0  0  0
 47 49  1  0  0  0  0
 47 50  1  0  0  0  0
 48 52  1  0  0  0  0
 49 55  1  0  0  0  0
 50 70  1  0  0  0  0
 51 55  1  0  0  0  0
 51 70  1  0  0  0  0
 52 73  1  0  0  0  0
 53 62  1  0  0  0  0
 54 69  1  0  0  0  0
 55 67  1  0  0  0  0
 56 64  1  0  0  0  0
 57 65  1  0  0  0  0
 58 65  1  0  0  0  0
 59 65  1  0  0  0  0
 60 75  1  0  0  0  0
 61 76  1  0  0  0  0
 62 85  1  0  0  0  0
 63 65  1  0  0  0  0
 63 74  1  0  0  0  0
 64 76  1  0  0  0  0
 66 67  1  0  0  0  0
M  CHG  1  76   1
M  ISO  4  40 100  62 101  75 100  85 101
M  END
> <Batch ID>
0096

> <Smiles>
CNC(C)C(=O)NC(C(=O)N1Cc2cc([101O:1][101CH2:1]C3CCC(=O)N(c4ccc([100N:0](C)[100C:0](=O)N5CCCC(n6nc(-c7ccc(Oc8ccc(F)cc8F)cc7)c(C(N)=O)c6N)C5)cc4)C3=O)ccc2CC1C(=O)NC1CCCc2ccccc21)C(C)(C)C

> <Shape>
0.269

> <Color>
0.118

> <Negative vol penalty>
0.000

$$$$

  -OEChem-04052300463D

 83 91  0     1  0  0  0  0  0999 V2000
  -28.4775  -11.1061   19.4876 C   0  0  0  0  0  0  0  0  0  0  0  0
  -28.6524  -12.4614   19.2269 C   0  0  0  0  0  0  0  0  0  0  0  0
  -19.5179  -27.1497   23.4260 C   0  0  0  0  0  0  0  0  0  0  0  0
  -20.8663  -25.3330   22.5785 C   0  0  0  0  0  0  0  0  0  0  0  0
  -29.5938  -24.8692   21.0324 C   0  0  0  0  0  0  0  0  0  0  0  0
  -27.2561  -10.6431   19.9751 C   0  0  0  0  0  0  0  0  0  0  0  0
  -27.6055  -13.3544   19.4525 C   0  0  0  0  0  0  0  0  0  0  0  0
  -29.1209  -17.5661   21.8212 C   0  0  0  0  0  0  0  0  0  0  0  0
  -29.3230  -26.2315   21.1607 C   0  0  0  0  0  0  0  0  0  0  0  0
  -18.3624  -26.4121   23.1688 C   0  0  0  0  0  0  0  0  0  0  0  0
  -19.7107  -24.5953   22.3213 C   0  0  0  0  0  0  0  0  0  0  0  0
  -29.7688  -18.5313   21.0517 C   0  0  0  0  0  0  0  0  0  0  0  0
  -17.2922  -24.4961   19.9608 C   0  0  0  0  0  0  0  0  0  0  0  0
  -17.2011  -23.8417   18.7324 C   0  0  0  0  0  0  0  0  0  0  0  0
  -27.7160  -19.7906   20.9136 C   0  0  0  0  0  0  0  0  0  0  0  0
  -30.0106  -26.5838   18.8715 C   0  0  0  0  0  0  0  0  0  0  0  0
  -17.0085  -21.7221   19.8758 C   0  0  0  0  0  0  0  0  0  0  0  0
  -20.7699  -26.6102   23.1308 C   0  0  0  0  0  0  0  0  0  0  0  0
  -30.0731  -24.3642   19.8236 C   0  0  0  0  0  0  0  0  0  0  0  0
  -22.7212  -27.3801   24.5824 C   0  0  0  0  0  0  0  0  0  0  0  0
  -26.1968  -11.5323   20.2159 C   0  0  0  0  0  0  0  0  0  0  0  0
  -27.7606  -17.7006   22.1341 C   0  0  0  0  0  0  0  0  0  0  0  0
  -26.3683  -12.9027   19.9424 C   0  0  0  0  0  0  0  0  0  0  0  0
  -27.0537  -18.8270   21.6894 C   0  0  0  0  0  0  0  0  0  0  0  0
  -29.5314  -27.0888   20.0803 C   0  0  0  0  0  0  0  0  0  0  0  0
  -30.2815  -25.2215   18.7432 C   0  0  0  0  0  0  0  0  0  0  0  0
  -18.4587  -25.1349   22.6165 C   0  0  0  0  0  0  0  0  0  0  0  0
  -29.0657  -19.6424   20.5953 C   0  0  0  0  0  0  0  0  0  0  0  0
  -17.2416  -23.7635   21.1468 C   0  0  0  0  0  0  0  0  0  0  0  0
  -17.0592  -22.4547   18.6898 C   0  0  0  0  0  0  0  0  0  0  0  0
  -17.0997  -22.3765   21.1042 C   0  0  0  0  0  0  0  0  0  0  0  0
  -21.9639  -27.3719   23.3957 C   0  0  0  0  0  0  0  0  0  0  0  0
  -23.7467  -28.2581   24.3293 C   0  0  0  0  0  0  0  0  0  0  0  0
  -30.3526  -22.9031   19.7199 C   0  0  0  0  0  0  0  0  0  0  0  0
  -22.5162  -26.6585   25.8042 C   0  0  0  0  0  0  0  0  0  0  0  0
  -25.1399  -16.0097   21.5205 C   0  0  0  0  0  0  0  0  0  0  0  0
  -23.7536  -18.1674   23.5068 C   0  0  0  0  0  0  0  0  0  0  0  0
  -23.8263  -21.2769   24.9112 C   0  0  0  0  0  0  0  0  0  0  0  0
  -27.2119  -29.9588   20.0148 C   0  0  0  0  0  0  0  0  0  0  0  0
  -24.8796  -10.9784   20.6984 C   0  0  0  0  0  0  0  0  0  0  0  0
  -27.0829  -16.6640   22.9877 C   0  0  0  0  0  0  0  0  0  0  0  0
  -25.5970  -19.0285   22.0149 C   0  0  0  0  0  0  0  0  0  0  0  0
  -23.9426  -12.0420   21.2652 C   0  0  0  0  0  0  0  0  0  0  0  0
  -24.4651  -31.9415   21.1107 C   0  0  0  0  0  0  0  0  0  0  0  0
  -23.8848  -13.2515   20.3376 C   0  0  0  0  0  0  0  0  0  0  0  0
  -23.6105  -30.9660   21.9219 C   0  0  0  0  0  0  0  0  0  0  0  0
  -25.1072  -31.2605   19.9040 C   0  0  0  0  0  0  0  0  0  0  0  0
  -25.0265  -29.0694   21.0294 C   0  0  0  0  0  0  0  0  0  0  0  0
  -25.2645  -13.9060   20.1978 C   0  0  1  0  0  0  0  0  0  0  0  0
  -25.5674  -16.6444   22.8135 C   0  0  1  0  0  0  0  0  0  0  0  0
  -24.4032  -29.6968   22.2880 C   0  0  2  0  0  0  0  0  0  0  0  0
  -30.0829  -29.2201   21.3111 C   0  0  0  0  0  0  0  0  0  0  0  0
  -22.5373  -22.7671   26.4652 C   0  0  0  0  0  0  0  0  0  0  0  0
  -21.7173  -18.7042   21.2988 C   0  0  0  0  0  0  0  0  0  0  0  0
  -21.0752  -20.8061   22.4980 C   0  0  0  0  0  0  0  0  0  0  0  0
  -20.7524  -18.5933   23.6034 C   0  0  0  0  0  0  0  0  0  0  0  0
  -26.0861  -21.4406   26.8153 C   0  0  0  0  0  0  0  0  0  0  0  0
  -29.2162  -21.9257   19.9476 C   0  0  0  0  0  0  0  0  0  1  0  0
  -29.2416  -28.5452   20.2180 C   0  0  2  0  0  0  0  0  0  0  0  0
  -23.0917  -19.5125   23.3295 C   0  0  1  0  0  0  0  0  0  0  0  0
  -23.6508  -21.7381   26.3468 C   0  0  2  0  0  0  0  0  0  0  0  0
  -21.6861  -19.3996   22.6745 C   0  0  0  0  0  0  0  0  0  0  0  0
  -22.4654  -28.1807   22.4584 N   0  0  0  0  0  0  0  0  0  0  0  0
  -23.5487  -28.7053   23.0561 N   0  0  0  0  0  0  0  0  0  0  0  0
  -24.9773  -17.9842   22.8472 N   0  0  0  0  0  0  0  0  0  0  0  0
  -25.8448  -30.0651   20.3197 N   0  0  0  0  0  0  0  0  0  0  0  0
  -30.7662  -24.7302   17.5106 N   0  0  0  0  0  0  0  0  0  0  0  0
  -24.7892  -28.6837   25.0738 N   0  0  0  0  0  0  0  0  0  0  0  0
  -21.4133  -25.7985   25.8952 N   0  0  0  0  0  0  0  0  0  0  0  0
  -25.5660  -14.7043   21.3666 N   0  0  0  0  0  0  0  0  0  0  0  0
  -23.0888  -20.1426   24.6454 N   0  0  0  0  0  0  0  0  0  0  0  0
  -27.8368  -28.7967   20.4506 N   0  0  0  0  0  0  0  0  0  0  0  0
  -24.9121  -22.3502   26.8521 N   0  3  0  0  0  0  0  0  0  0  0  0
  -31.4895  -22.5202   19.4530 O   0  0  0  0  0  0  0  0  0  0  0  0
  -23.2788  -26.7855   26.7920 O   0  0  0  0  0  0  0  0  0  0  0  0
  -24.4715  -16.6560   20.7221 O   0  0  0  0  0  0  0  0  0  0  0  0
  -23.2087  -17.3132   24.2105 O   0  0  0  0  0  0  0  0  0  0  0  0
  -24.5429  -21.8662   24.1051 O   0  0  0  0  0  0  0  0  0  0  0  0
  -27.8309  -30.8370   19.4045 O   0  0  0  0  0  0  0  0  0  0  0  0
  -17.3314  -24.4147   22.3656 O   0  0  0  0  0  0  0  0  0  0  0  0
  -29.6956  -20.5857   19.8434 O   0  0  0  0  0  0  0  0  0  1  0  0
  -16.9702  -21.8266   17.5101 F   0  0  0  0  0  0  0  0  0  0  0  0
  -17.0492  -21.6675   22.2402 F   0  0  0  0  0  0  0  0  0  0  0  0
  1  2  1  0  0  0  0
  1  6  2  0  0  0  0
  2  7  2  0  0  0  0
  3 10  2  0  0  0  0
  3 18  1  0  0  0  0
  4 11  1  0  0  0  0
  4 18  2  0  0  0  0
  5  9  2  0  0  0  0
  5 19  1  0  0  0  0
  6 21  1  0  0  0  0
  7 23  1  0  0  0  0
  8 12  2  0  0  0  0
  8 22  1  0  0  0  0
  9 25  1  0  0  0  0
 10 27  1  0  0  0  0
 11 27  2  0  0  0  0
 12 28  1  0  0  0  0
 13 14  2  0  0  0  0
 13 29  1  0  0  0  0
 14 30  1  0  0  0  0
 15 24  1  0  0  0  0
 15 28  2  0  0  0  0
 16 25  2  0  0  0  0
 16 26  1  0  0  0  0
 17 30  2  0  0  0  0
 17 31  1  0  0  0  0
 18 32  1  0  0  0  0
 19 26  2  0  0  0  0
 19 34  1  0  0  0  0
 20 32  1  0  0  0  0
 20 33  2  0  0  0  0
 20 35  1  0  0  0  0
 21 23  2  0  0  0  0
 21 40  1  0  0  0  0
 22 24  2  0  0  0  0
 22 41  1  0  0  0  0
 23 49  1  0  0  0  0
 24 42  1  0  0  0  0
 25 59  1  0  0  0  0
 26 67  1  0  0  0  0
 27 80  1  0  0  0  0
 28 81  1  0  0  0  0
 29 31  2  0  0  0  0
 29 80  1  0  0  0  0
 30 82  1  0  0  0  0
 31 83  1  0  0  0  0
 32 63  2  0  0  0  0
 33 64  1  0  0  0  0
 33 68  1  0  0  0  0
 34 58  1  0  0  0  0
 34 74  2  0  0  0  0
 35 69  1  0  0  0  0
 35 75  2  0  0  0  0
 36 50  1  0  0  0  0
 36 70  1  0  0  0  0
 36 76  2  0  0  0  0
 37 60  1  0  0  0  0
 37 65  1  0  0  0  0
 37 77  2  0  0  0  0
 38 61  1  0  0  0  0
 38 71  1  0  0  0  0
 38 78  2  0  0  0  0
 39 66  1  0  0  0  0
 39 72  1  0  0  0  0
 39 79  2  0  0  0  0
 40 43  1  0  0  0  0
 41 50  1  0  0  0  0
 42 65  1  0  0  0  0
 43 45  1  0  0  0  0
 44 46  1  0  0  0  0
 44 47  1  0  0  0  0
 45 49  1  0  0  0  0
 46 51  1  0  0  0  0
 47 66  1  0  0  0  0
 48 51  1  0  0  0  0
 48 66  1  0  0  0  0
 49 70  1  0  0  0  0
 50 65  1  0  0  0  0
 51 64  1  0  0  0  0
 52 59  1  0  0  0  0
 53 61  1  0  0  0  0
 54 62  1  0  0  0  0
 55 62  1  0  0  0  0
 56 62  1  0  0  0  0
 57 73  1  0  0  0  0
 58 81  1  0  0  0  0
 59 72  1  0  0  0  0
 60 62  1  0  0  0  0
 60 71  1  0  0  0  0
 61 73  1  0  0  0  0
 63 64  1  0  0  0  0
M  CHG  1  73   1
M  ISO  4  39 100  58 101  72 100  81 101
M  END
> <Batch ID>
0096

> <Smiles>
CNC(C)C(=O)NC(C(=O)N1Cc2cc([101O:1][101CH2:1]C(=O)c3ccc(C(C)[100NH:0][100C:0](=O)N4CCCC(n5nc(-c6ccc(Oc7ccc(F)cc7F)cc6)c(C(N)=O)c5N)C4)cc3N)ccc2CC1C(=O)NC1CCCc2ccccc21)C(C)(C)C

> <Shape>
0.227

> <Color>
0.059

> <Negative vol penalty>
0.000

$$$$

  -OEChem-04052300463D

 86 95  0     1  0  0  0  0  0999 V2000
  -24.2180  -33.4251   22.1025 C   0  0  0  0  0  0  0  0  0  0  0  0
  -24.7489  -32.1907   21.7423 C   0  0  0  0  0  0  0  0  0  0  0  0
  -24.6906  -10.4588   23.0142 C   0  0  0  0  0  0  0  0  0  0  0  0
  -24.5062  -12.1574   24.7225 C   0  0  0  0  0  0  0  0  0  0  0  0
  -23.0803  -33.4855   22.9062 C   0  0  0  0  0  0  0  0  0  0  0  0
  -24.1430  -31.0159   22.1865 C   0  0  0  0  0  0  0  0  0  0  0  0
  -23.6932  -27.5546   18.5174 C   0  0  0  0  0  0  0  0  0  0  0  0
  -27.0281  -21.9592   20.6592 C   0  0  0  0  0  0  0  0  0  0  0  0
  -27.1214  -20.5702   20.5726 C   0  0  0  0  0  0  0  0  0  0  0  0
  -24.3031   -9.4880   23.9377 C   0  0  0  0  0  0  0  0  0  0  0  0
  -24.1186  -11.1866   25.6460 C   0  0  0  0  0  0  0  0  0  0  0  0
  -24.8360  -26.8299   18.1822 C   0  0  0  0  0  0  0  0  0  0  0  0
  -21.4297   -8.3964   25.3466 C   0  0  0  0  0  0  0  0  0  0  0  0
  -20.4784   -7.4600   24.9421 C   0  0  0  0  0  0  0  0  0  0  0  0
  -24.0469  -24.9806   19.5150 C   0  0  0  0  0  0  0  0  0  0  0  0
  -29.5154  -20.7127   20.8651 C   0  0  0  0  0  0  0  0  0  0  0  0
  -22.0586   -5.6785   25.3499 C   0  0  0  0  0  0  0  0  0  0  0  0
  -24.7922  -11.7936   23.4066 C   0  0  0  0  0  0  0  0  0  0  0  0
  -24.3552  -13.5526   21.6115 C   0  0  0  0  0  0  0  0  0  0  0  0
  -22.4545  -32.3108   23.3525 C   0  0  0  0  0  0  0  0  0  0  0  0
  -22.7222  -27.0010   19.3642 C   0  0  0  0  0  0  0  0  0  0  0  0
  -22.9967  -31.0607   22.9980 C   0  0  0  0  0  0  0  0  0  0  0  0
  -22.8914  -25.6994   19.8574 C   0  0  0  0  0  0  0  0  0  0  0  0
  -28.1785  -22.7250   20.8487 C   0  0  0  0  0  0  0  0  0  0  0  0
  -28.3650  -19.9469   20.6756 C   0  0  0  0  0  0  0  0  0  0  0  0
  -24.0170   -9.8518   25.2536 C   0  0  0  0  0  0  0  0  0  0  0  0
  -25.0145  -25.5438   18.6833 C   0  0  0  0  0  0  0  0  0  0  0  0
  -22.6955   -7.9739   25.7528 C   0  0  0  0  0  0  0  0  0  0  0  0
  -20.7928   -6.1010   24.9437 C   0  0  0  0  0  0  0  0  0  0  0  0
  -29.4221  -22.1017   20.9517 C   0  0  0  0  0  0  0  0  0  0  0  0
  -23.0099   -6.6150   25.7545 C   0  0  0  0  0  0  0  0  0  0  0  0
  -25.1931  -12.7968   22.4533 C   0  0  0  0  0  0  0  0  0  0  0  0
  -25.2146  -14.3579   20.9048 C   0  0  0  0  0  0  0  0  0  0  0  0
  -29.9157  -25.7435   20.1452 C   0  0  0  0  0  0  0  0  0  0  0  0
  -22.9276  -13.5290   21.4803 C   0  0  0  0  0  0  0  0  0  0  0  0
  -21.5375  -27.7576   22.2151 C   0  0  0  0  0  0  0  0  0  0  0  0
  -19.5011  -25.3126   21.5849 C   0  0  0  0  0  0  0  0  0  0  0  0
  -18.8883  -22.4172   19.8854 C   0  0  0  0  0  0  0  0  0  0  0  0
  -29.6158  -17.7602   20.6673 C   0  0  0  0  0  0  0  0  0  0  0  0
  -21.2544  -32.4269   24.2585 C   0  0  0  0  0  0  0  0  0  0  0  0
  -21.4822  -27.7856   19.6948 C   0  0  0  0  0  0  0  0  0  0  0  0
  -21.8689  -25.0518   20.7539 C   0  0  0  0  0  0  0  0  0  0  0  0
  -30.3981  -26.2278   18.7998 C   0  0  0  0  0  0  0  0  0  0  0  0
  -20.4540  -31.1325   24.3780 C   0  0  0  0  0  0  0  0  0  0  0  0
  -29.8082  -25.2136   17.8242 C   0  0  0  0  0  0  0  0  0  0  0  0
  -30.2616  -14.2614   20.5308 C   0  0  0  0  0  0  0  0  0  0  0  0
  -21.3861  -29.9485   24.6150 C   0  0  0  0  0  0  0  0  0  0  0  0
  -28.9316  -13.6307   20.9496 C   0  0  0  0  0  0  0  0  0  0  0  0
  -30.5483  -15.5469   21.3049 C   0  0  0  0  0  0  0  0  0  0  0  0
  -28.1428  -15.9153   21.6880 C   0  0  0  0  0  0  0  0  0  0  0  0
  -22.3535  -29.7640   23.4395 C   0  0  1  0  0  0  0  0  0  0  0  0
  -20.8043  -27.3186   20.9792 C   0  0  1  0  0  0  0  0  0  0  0  0
  -27.7795  -14.6527   20.8894 C   0  0  2  0  0  0  0  0  0  0  0  0
  -28.5273  -24.7377   18.5027 C   0  0  2  0  0  0  0  0  0  0  0  0
  -17.1524  -20.6268   19.6058 C   0  0  0  0  0  0  0  0  0  0  0  0
  -20.3119  -24.1106   24.2696 C   0  0  0  0  0  0  0  0  0  0  0  0
  -19.3182  -21.9388   23.5185 C   0  0  0  0  0  0  0  0  0  0  0  0
  -17.8700  -23.9564   23.7525 C   0  0  0  0  0  0  0  0  0  0  0  0
  -18.5633  -23.0199   17.0061 C   0  0  0  0  0  0  0  0  0  0  0  0
  -28.0735  -24.2197   20.9434 C   0  0  0  0  0  0  0  0  0  0  0  0
  -27.3197  -25.5778   18.0999 C   0  0  0  0  0  0  0  0  0  1  0  0
  -19.5095  -23.8234   21.8325 C   0  0  1  0  0  0  0  0  0  0  0  0
  -17.6835  -21.9538   19.0865 C   0  0  2  0  0  0  0  0  0  0  0  0
  -19.2728  -23.4699   23.3280 C   0  0  0  0  0  0  0  0  0  0  0  0
  -26.4856  -13.0951   22.2969 N   0  0  0  0  0  0  0  0  0  0  0  0
  -26.4663  -14.0473   21.3486 N   0  0  0  0  0  0  0  0  0  0  0  0
  -28.8445  -24.8837   19.9121 N   0  0  0  0  0  0  0  0  0  0  0  0
  -20.6765  -25.8618   21.0534 N   0  0  0  0  0  0  0  0  0  0  0  0
  -29.4154  -16.4689   21.1993 N   0  0  0  0  0  0  0  0  0  0  0  0
  -25.0142  -15.2942   19.9532 N   0  0  0  0  0  0  0  0  0  0  0  0
  -22.1975  -12.6417   22.2827 N   0  0  0  0  0  0  0  0  0  0  0  0
  -28.4599  -18.5360   20.5856 N   0  0  0  0  0  0  0  0  0  0  0  0
  -21.6815  -29.1273   22.3271 N   0  0  0  0  0  0  0  0  0  0  0  0
  -18.5244  -23.2524   20.9204 N   0  0  0  0  0  0  0  0  0  0  0  0
  -18.0474  -21.7851   17.6512 N   0  3  0  0  0  0  0  0  0  0  0  0
  -30.3839  -26.0952   21.2178 O   0  0  0  0  0  0  0  0  0  0  0  0
  -22.3189  -14.2611   20.6636 O   0  0  0  0  0  0  0  0  0  0  0  0
  -21.9412  -26.9160   23.0091 O   0  0  0  0  0  0  0  0  0  0  0  0
  -18.4864  -25.9634   21.8465 O   0  0  0  0  0  0  0  0  0  0  0  0
  -20.0371  -22.0699   19.6202 O   0  0  0  0  0  0  0  0  0  0  0  0
  -30.7258  -18.1395   20.2851 O   0  0  0  0  0  0  0  0  0  0  0  0
  -23.6386   -8.9048   26.1549 O   0  0  0  0  0  0  0  0  0  0  0  0
  -26.1294  -24.8344   18.3582 O   0  0  0  0  0  0  0  0  0  1  0  0
  -19.8787   -5.2018   24.5566 F   0  0  0  0  0  0  0  0  0  0  0  0
  -30.5331  -22.8290   21.1340 F   0  0  0  0  0  0  0  0  0  0  0  0
  -24.2239   -6.2029   26.1447 F   0  0  0  0  0  0  0  0  0  0  0  0
  1  2  1  0  0  0  0
  1  5  2  0  0  0  0
  2  6  2  0  0  0  0
  3 10  2  0  0  0  0
  3 18  1  0  0  0  0
  4 11  1  0  0  0  0
  4 18  2  0  0  0  0
  5 20  1  0  0  0  0
  6 22  1  0  0  0  0
  7 12  2  0  0  0  0
  7 21  1  0  0  0  0
  8  9  2  0  0  0  0
  8 24  1  0  0  0  0
  9 25  1  0  0  0  0
 10 26  1  0  0  0  0
 11 26  2  0  0  0  0
 12 27  1  0  0  0  0
 13 14  2  0  0  0  0
 13 28  1  0  0  0  0
 14 29  1  0  0  0  0
 15 23  1  0  0  0  0
 15 27  2  0  0  0  0
 16 25  2  0  0  0  0
 16 30  1  0  0  0  0
 17 29  2  0  0  0  0
 17 31  1  0  0  0  0
 18 32  1  0  0  0  0
 19 32  1  0  0  0  0
 19 33  2  0  0  0  0
 19 35  1  0  0  0  0
 20 22  2  0  0  0  0
 20 40  1  0  0  0  0
 21 23  2  0  0  0  0
 21 41  1  0  0  0  0
 22 51  1  0  0  0  0
 23 42  1  0  0  0  0
 24 30  2  0  0  0  0
 24 60  1  0  0  0  0
 25 72  1  0  0  0  0
 26 82  1  0  0  0  0
 27 83  1  0  0  0  0
 28 31  2  0  0  0  0
 28 82  1  0  0  0  0
 29 84  1  0  0  0  0
 30 85  1  0  0  0  0
 31 86  1  0  0  0  0
 32 65  2  0  0  0  0
 33 66  1  0  0  0  0
 33 70  1  0  0  0  0
 34 43  1  0  0  0  0
 34 67  1  0  0  0  0
 34 76  2  0  0  0  0
 35 71  1  0  0  0  0
 35 77  2  0  0  0  0
 36 52  1  0  0  0  0
 36 73  1  0  0  0  0
 36 78  2  0  0  0  0
 37 62  1  0  0  0  0
 37 68  1  0  0  0  0
 37 79  2  0  0  0  0
 38 63  1  0  0  0  0
 38 74  1  0  0  0  0
 38 80  2  0  0  0  0
 39 69  1  0  0  0  0
 39 72  1  0  0  0  0
 39 81  2  0  0  0  0
 40 44  1  0  0  0  0
 41 52  1  0  0  0  0
 42 68  1  0  0  0  0
 43 45  1  0  0  0  0
 44 47  1  0  0  0  0
 45 54  1  0  0  0  0
 46 48  1  0  0  0  0
 46 49  1  0  0  0  0
 47 51  1  0  0  0  0
 48 53  1  0  0  0  0
 49 69  1  0  0  0  0
 50 53  1  0  0  0  0
 50 69  1  0  0  0  0
 51 73  1  0  0  0  0
 52 68  1  0  0  0  0
 53 66  1  0  0  0  0
 54 61  1  0  0  0  0
 54 67  1  0  0  0  0
 55 63  1  0  0  0  0
 56 64  1  0  0  0  0
 57 64  1  0  0  0  0
 58 64  1  0  0  0  0
 59 75  1  0  0  0  0
 60 67  1  0  0  0  0
 61 83  1  0  0  0  0
 62 64  1  0  0  0  0
 62 74  1  0  0  0  0
 63 75  1  0  0  0  0
 65 66  1  0  0  0  0
M  CHG  1  75   1
M  ISO  4  39 100  61 101  72 100  83 101
M  END
> <Batch ID>
0096

> <Smiles>
CNC(C)C(=O)NC(C(=O)N1Cc2cc([101O:1][101CH2:1]C3CCC(=O)N3Cc3ccc([100NH:0][100C:0](=O)N4CCCC(n5nc(-c6ccc(Oc7ccc(F)cc7F)cc6)c(C(N)=O)c5N)C4)cc3F)ccc2CC1C(=O)NC1CCCc2ccccc21)C(C)(C)C

> <Shape>
0.246

> <Color>
0.095

> <Negative vol penalty>
0.000

$$$$

  -OEChem-04052300463D

 84 92  0     1  0  0  0  0  0999 V2000
  -17.4828  -25.6060   24.5398 C   0  0  0  0  0  0  0  0  0  0  0  0
  -18.7879  -25.1455   24.6821 C   0  0  0  0  0  0  0  0  0  0  0  0
  -24.4847   -9.2481   21.5904 C   0  0  0  0  0  0  0  0  0  0  0  0
  -24.3437  -10.6809   23.5306 C   0  0  0  0  0  0  0  0  0  0  0  0
  -17.2267  -26.7489   23.7833 C   0  0  0  0  0  0  0  0  0  0  0  0
  -19.8375  -25.8269   24.0670 C   0  0  0  0  0  0  0  0  0  0  0  0
  -25.5332  -26.5198   26.2080 C   0  0  0  0  0  0  0  0  0  0  0  0
  -24.1771   -8.1431   22.3840 C   0  0  0  0  0  0  0  0  0  0  0  0
  -24.0360   -9.5758   24.3242 C   0  0  0  0  0  0  0  0  0  0  0  0
  -26.7247  -25.8476   25.9390 C   0  0  0  0  0  0  0  0  0  0  0  0
  -23.0742   -4.9975   23.8344 C   0  0  0  0  0  0  0  0  0  0  0  0
  -22.1331   -4.0907   23.3468 C   0  0  0  0  0  0  0  0  0  0  0  0
  -27.3155  -27.5494   24.3346 C   0  0  0  0  0  0  0  0  0  0  0  0
  -20.4770   -5.8483   23.2748 C   0  0  0  0  0  0  0  0  0  0  0  0
  -24.5680  -10.5171   22.1637 C   0  0  0  0  0  0  0  0  0  0  0  0
  -23.9816  -12.4942   20.6622 C   0  0  0  0  0  0  0  0  0  0  0  0
  -18.2748  -27.4502   23.1666 C   0  0  0  0  0  0  0  0  0  0  0  0
  -25.2184  -27.7081   25.5333 C   0  0  0  0  0  0  0  0  0  0  0  0
  -19.5950  -26.9795   23.3004 C   0  0  0  0  0  0  0  0  0  0  0  0
  -26.1206  -28.2361   24.5988 C   0  0  0  0  0  0  0  0  0  0  0  0
  -23.9528   -8.3069   23.7509 C   0  0  0  0  0  0  0  0  0  0  0  0
  -27.6147  -26.3608   25.0001 C   0  0  0  0  0  0  0  0  0  0  0  0
  -22.7167   -6.3297   24.0422 C   0  0  0  0  0  0  0  0  0  0  0  0
  -20.8345   -4.5161   23.0670 C   0  0  0  0  0  0  0  0  0  0  0  0
  -21.4181   -6.7551   23.7624 C   0  0  0  0  0  0  0  0  0  0  0  0
  -24.8863  -11.6589   21.3445 C   0  0  0  0  0  0  0  0  0  0  0  0
  -24.7769  -13.4224   20.0357 C   0  0  0  0  0  0  0  0  0  0  0  0
  -31.1293  -18.0164   22.0650 C   0  0  0  0  0  0  0  0  0  0  0  0
  -32.7855  -19.7533   21.8995 C   0  0  0  0  0  0  0  0  0  0  0  0
  -31.8610  -17.1785   21.3139 C   0  0  0  0  0  0  0  0  0  0  0  0
  -31.5994  -19.3498   22.3732 C   0  0  0  0  0  0  0  0  0  0  0  0
  -33.1891  -17.6282   20.7835 C   0  0  0  0  0  0  0  0  0  0  0  0
  -22.5504  -12.4364   20.6003 C   0  0  0  0  0  0  0  0  0  0  0  0
  -22.8929  -28.6240   23.5694 C   0  0  0  0  0  0  0  0  0  0  0  0
  -24.3100  -31.5260   23.8732 C   0  0  0  0  0  0  0  0  0  0  0  0
  -30.7999  -21.5448   23.0326 C   0  0  0  0  0  0  0  0  0  0  0  0
  -27.1298  -33.3134   24.5807 C   0  0  0  0  0  0  0  0  0  0  0  0
  -30.2322  -15.3789   21.4360 C   0  0  0  0  0  0  0  0  0  0  0  0
  -17.9436  -28.6534   22.3197 C   0  0  0  0  0  0  0  0  0  0  0  0
  -23.9415  -28.4353   25.8543 C   0  0  0  0  0  0  0  0  0  0  0  0
  -25.8390  -29.5192   23.8620 C   0  0  0  0  0  0  0  0  0  0  0  0
  -19.1531  -29.5318   22.0100 C   0  0  0  0  0  0  0  0  0  0  0  0
  -29.1323  -13.9993   18.1885 C   0  0  0  0  0  0  0  0  0  0  0  0
  -20.3337  -28.6759   21.5620 C   0  0  0  0  0  0  0  0  0  0  0  0
  -27.8557  -13.2706   18.5971 C   0  0  0  0  0  0  0  0  0  0  0  0
  -30.1908  -13.9639   19.2902 C   0  0  0  0  0  0  0  0  0  0  0  0
  -28.4213  -13.7442   21.0117 C   0  0  0  0  0  0  0  0  0  0  0  0
  -20.7630  -27.7055   22.6690 C   0  0  1  0  0  0  0  0  0  0  0  0
  -23.4857  -29.3653   24.7342 C   0  0  1  0  0  0  0  0  0  0  0  0
  -27.3277  -13.8116   19.9344 C   0  0  2  0  0  0  0  0  0  0  0  0
  -27.9895  -35.6675   24.7090 C   0  0  0  0  0  0  0  0  0  0  0  0
  -24.4409  -31.6416   20.8270 C   0  0  0  0  0  0  0  0  0  0  0  0
  -26.1126  -33.4933   21.0386 C   0  0  0  0  0  0  0  0  0  0  0  0
  -23.8009  -33.7949   21.9261 C   0  0  0  0  0  0  0  0  0  0  0  0
  -27.7624  -33.0488   27.4597 C   0  0  0  0  0  0  0  0  0  0  0  0
  -29.8264  -22.1666   24.0198 C   0  0  0  0  0  0  0  0  0  0  0  0
  -29.7889  -23.6876   23.9233 C   0  0  0  0  0  0  0  0  0  0  0  0
  -28.7736  -24.2873   24.8852 C   0  0  0  0  0  0  0  0  0  1  0  0
  -25.4046  -32.2632   23.1402 C   0  0  1  0  0  0  0  0  0  0  0  0
  -27.3617  -34.5156   25.4782 C   0  0  2  0  0  0  0  0  0  0  0  0
  -24.9444  -32.7731   21.7453 C   0  0  0  0  0  0  0  0  0  0  0  0
  -26.1589  -12.0240   21.1680 N   0  0  0  0  0  0  0  0  0  0  0  0
  -26.0597  -13.0989   20.3676 N   0  0  0  0  0  0  0  0  0  0  0  0
  -33.5575  -18.9200   21.1286 N   0  0  0  0  0  0  0  0  0  0  0  0
  -24.5744  -30.1899   24.2061 N   0  0  0  0  0  0  0  0  0  0  0  0
  -29.6481  -14.4252   20.5783 N   0  0  0  0  0  0  0  0  0  0  0  0
  -24.4972  -14.4754   19.2386 N   0  0  0  0  0  0  0  0  0  0  0  0
  -21.8918  -11.4184   21.3032 N   0  0  0  0  0  0  0  0  0  0  0  0
  -30.8152  -20.1598   23.1407 N   0  0  0  0  0  0  0  0  0  0  0  0
  -31.4433  -15.9143   21.0057 N   0  0  0  0  0  0  0  0  0  0  0  0
  -21.5338  -28.3993   23.6784 N   0  0  0  0  0  0  0  0  0  0  0  0
  -25.8612  -33.3165   24.0405 N   0  0  0  0  0  0  0  0  0  0  0  0
  -28.2675  -34.1538   26.6049 N   0  3  0  0  0  0  0  0  0  0  0  0
  -33.8852  -16.8869   20.0933 O   0  0  0  0  0  0  0  0  0  0  0  0
  -21.8765  -13.2532   19.9278 O   0  0  0  0  0  0  0  0  0  0  0  0
  -23.6148  -28.2825   22.6400 O   0  0  0  0  0  0  0  0  0  0  0  0
  -23.2618  -32.1161   24.1469 O   0  0  0  0  0  0  0  0  0  0  0  0
  -31.4751  -22.2082   22.2495 O   0  0  0  0  0  0  0  0  0  0  0  0
  -27.9895  -32.4592   24.3761 O   0  0  0  0  0  0  0  0  0  0  0  0
  -29.7112  -15.7142   22.5059 O   0  0  0  0  0  0  0  0  0  0  0  0
  -23.6523   -7.2288   24.5256 O   0  0  0  0  0  0  0  0  0  0  0  0
  -28.7780  -25.7064   24.7351 O   0  0  0  0  0  0  0  0  0  1  0  0
  -19.9313   -3.6456   22.5974 F   0  0  0  0  0  0  0  0  0  0  0  0
  -21.0690   -8.0339   23.9589 F   0  0  0  0  0  0  0  0  0  0  0  0
  1  2  1  0  0  0  0
  1  5  2  0  0  0  0
  2  6  2  0  0  0  0
  3  8  2  0  0  0  0
  3 15  1  0  0  0  0
  4  9  1  0  0  0  0
  4 15  2  0  0  0  0
  5 17  1  0  0  0  0
  6 19  1  0  0  0  0
  7 10  2  0  0  0  0
  7 18  1  0  0  0  0
  8 21  1  0  0  0  0
  9 21  2  0  0  0  0
 10 22  1  0  0  0  0
 11 12  2  0  0  0  0
 11 23  1  0  0  0  0
 12 24  1  0  0  0  0
 13 20  1  0  0  0  0
 13 22  2  0  0  0  0
 14 24  2  0  0  0  0
 14 25  1  0  0  0  0
 15 26  1  0  0  0  0
 16 26  1  0  0  0  0
 16 27  2  0  0  0  0
 16 33  1  0  0  0  0
 17 19  2  0  0  0  0
 17 39  1  0  0  0  0
 18 20  2  0  0  0  0
 18 40  1  0  0  0  0
 19 48  1  0  0  0  0
 20 41  1  0  0  0  0
 21 81  1  0  0  0  0
 22 82  1  0  0  0  0
 23 25  2  0  0  0  0
 23 81  1  0  0  0  0
 24 83  1  0  0  0  0
 25 84  1  0  0  0  0
 26 62  2  0  0  0  0
 27 63  1  0  0  0  0
 27 67  1  0  0  0  0
 28 30  2  0  0  0  0
 28 31  1  0  0  0  0
 29 31  2  0  0  0  0
 29 64  1  0  0  0  0
 30 32  1  0  0  0  0
 30 70  1  0  0  0  0
 31 69  1  0  0  0  0
 32 64  1  0  0  0  0
 32 74  2  0  0  0  0
 33 68  1  0  0  0  0
 33 75  2  0  0  0  0
 34 49  1  0  0  0  0
 34 71  1  0  0  0  0
 34 76  2  0  0  0  0
 35 59  1  0  0  0  0
 35 65  1  0  0  0  0
 35 77  2  0  0  0  0
 36 56  1  0  0  0  0
 36 69  1  0  0  0  0
 36 78  2  0  0  0  0
 37 60  1  0  0  0  0
 37 72  1  0  0  0  0
 37 79  2  0  0  0  0
 38 66  1  0  0  0  0
 38 70  1  0  0  0  0
 38 80  2  0  0  0  0
 39 42  1  0  0  0  0
 40 49  1  0  0  0  0
 41 65  1  0  0  0  0
 42 44  1  0  0  0  0
 43 45  1  0  0  0  0
 43 46  1  0  0  0  0
 44 48  1  0  0  0  0
 45 50  1  0  0  0  0
 46 66  1  0  0  0  0
 47 50  1  0  0  0  0
 47 66  1  0  0  0  0
 48 71  1  0  0  0  0
 49 65  1  0  0  0  0
 50 63  1  0  0  0  0
 51 60  1  0  0  0  0
 52 61  1  0  0  0  0
 53 61  1  0  0  0  0
 54 61  1  0  0  0  0
 55 73  1  0  0  0  0
 56 57  1  0  0  0  0
 57 58  1  0  0  0  0
 58 82  1  0  0  0  0
 59 61  1  0  0  0  0
 59 72  1  0  0  0  0
 60 73  1  0  0  0  0
 62 63  1  0  0  0  0
M  CHG  1  73   1
M  ISO  4  38 100  58 101  70 100  82 101
M  END
> <Batch ID>
0096

> <Smiles>
CNC(C)C(=O)NC(C(=O)N1Cc2cc([101O:1][101CH2:1]CCC(=O)Nc3c[nH]c(=O)c([100NH:0][100C:0](=O)N4CCCC(n5nc(-c6ccc(Oc7ccc(F)cc7F)cc6)c(C(N)=O)c5N)C4)c3)ccc2CC1C(=O)NC1CCCc2ccccc21)C(C)(C)C

> <Shape>
0.262

> <Color>
0.112

> <Negative vol penalty>
0.000

$$$$

  -OEChem-04052300463D

 87 96  0     1  0  0  0  0  0999 V2000
  -27.3291  -33.0789   22.2069 C   0  0  0  0  0  0  0  0  0  0  0  0
  -28.3473  -32.1858   22.5244 C   0  0  0  0  0  0  0  0  0  0  0  0
  -23.4412   -9.5993   20.6335 C   0  0  0  0  0  0  0  0  0  0  0  0
  -24.0824  -10.2132   22.8805 C   0  0  0  0  0  0  0  0  0  0  0  0
  -26.2216  -32.6423   21.4811 C   0  0  0  0  0  0  0  0  0  0  0  0
  -28.2582  -30.8551   22.1171 C   0  0  0  0  0  0  0  0  0  0  0  0
  -32.8749  -27.2083   20.4166 C   0  0  0  0  0  0  0  0  0  0  0  0
  -31.9041  -18.9236   22.5036 C   0  0  0  0  0  0  0  0  0  0  0  0
  -31.4453  -17.8008   21.8150 C   0  0  0  0  0  0  0  0  0  0  0  0
  -22.8260   -8.4475   21.1237 C   0  0  0  0  0  0  0  0  0  0  0  0
  -23.4671   -9.0613   23.3708 C   0  0  0  0  0  0  0  0  0  0  0  0
  -33.5985  -26.2311   21.0987 C   0  0  0  0  0  0  0  0  0  0  0  0
  -20.3289   -8.0214   24.0711 C   0  0  0  0  0  0  0  0  0  0  0  0
  -19.5256   -8.1497   25.2041 C   0  0  0  0  0  0  0  0  0  0  0  0
  -32.1564  -24.5299   20.1793 C   0  0  0  0  0  0  0  0  0  0  0  0
  -29.6235  -19.6371   22.8597 C   0  0  0  0  0  0  0  0  0  0  0  0
  -20.9476   -6.5963   26.3882 C   0  0  0  0  0  0  0  0  0  0  0  0
  -24.0695  -10.4822   21.5119 C   0  0  0  0  0  0  0  0  0  0  0  0
  -24.1191  -12.9392   20.8275 C   0  0  0  0  0  0  0  0  0  0  0  0
  -26.1234  -31.3079   21.0564 C   0  0  0  0  0  0  0  0  0  0  0  0
  -31.7780  -26.8541   19.6180 C   0  0  0  0  0  0  0  0  0  0  0  0
  -27.1477  -30.4000   21.3861 C   0  0  0  0  0  0  0  0  0  0  0  0
  -31.4221  -25.5043   19.4860 C   0  0  0  0  0  0  0  0  0  0  0  0
  -30.9932  -19.8418   23.0260 C   0  0  0  0  0  0  0  0  0  0  0  0
  -30.0756  -17.5961   21.6487 C   0  0  0  0  0  0  0  0  0  0  0  0
  -29.1647  -18.5142   22.1711 C   0  0  0  0  0  0  0  0  0  0  0  0
  -22.8389   -8.1785   22.4923 C   0  0  0  0  0  0  0  0  0  0  0  0
  -33.2375  -24.8920   20.9824 C   0  0  0  0  0  0  0  0  0  0  0  0
  -21.4415   -7.1804   24.0965 C   0  0  0  0  0  0  0  0  0  0  0  0
  -19.8350   -7.4372   26.3627 C   0  0  0  0  0  0  0  0  0  0  0  0
  -21.7509   -6.4680   25.2551 C   0  0  0  0  0  0  0  0  0  0  0  0
  -24.7057  -11.6719   21.0061 C   0  0  0  0  0  0  0  0  0  0  0  0
  -25.1325  -13.7190   20.3262 C   0  0  0  0  0  0  0  0  0  0  0  0
  -32.7016  -21.5829   23.4259 C   0  0  0  0  0  0  0  0  0  0  0  0
  -33.2828  -22.5559   24.1443 C   0  0  0  0  0  0  0  0  0  0  0  0
  -30.6989  -21.5426   24.8016 C   0  0  0  0  0  0  0  0  0  0  0  0
  -22.7781  -13.3726   21.0912 C   0  0  0  0  0  0  0  0  0  0  0  0
  -28.6674  -27.5065   19.6624 C   0  0  0  0  0  0  0  0  0  0  0  0
  -28.6879  -25.9048   16.8417 C   0  0  0  0  0  0  0  0  0  0  0  0
  -30.2059  -23.6076   14.8254 C   0  0  0  0  0  0  0  0  0  0  0  0
  -30.4239  -15.4517   20.3732 C   0  0  0  0  0  0  0  0  0  0  0  0
  -24.8847  -30.8714   20.3149 C   0  0  0  0  0  0  0  0  0  0  0  0
  -31.0243  -27.9175   18.8674 C   0  0  0  0  0  0  0  0  0  0  0  0
  -30.2652  -25.0698   18.6251 C   0  0  0  0  0  0  0  0  0  0  0  0
  -32.5987  -23.1209   25.3489 C   0  0  0  0  0  0  0  0  0  0  0  0
  -31.0964  -22.9410   25.2392 C   0  0  0  0  0  0  0  0  0  0  0  0
  -25.0438  -29.5331   19.5980 C   0  0  0  0  0  0  0  0  0  0  0  0
  -29.7162  -12.4502   18.5936 C   0  0  0  0  0  0  0  0  0  0  0  0
  -25.6936  -28.5071   20.5210 C   0  0  0  0  0  0  0  0  0  0  0  0
  -28.3013  -12.0844   19.0479 C   0  0  0  0  0  0  0  0  0  0  0  0
  -30.5386  -13.0540   19.7306 C   0  0  0  0  0  0  0  0  0  0  0  0
  -28.4949  -13.8246   20.8703 C   0  0  0  0  0  0  0  0  0  0  0  0
  -27.0990  -28.9545   20.9408 C   0  0  1  0  0  0  0  0  0  0  0  0
  -29.6081  -27.4931   18.4909 C   0  0  1  0  0  0  0  0  0  0  0  0
  -27.6076  -13.2725   19.7427 C   0  0  2  0  0  0  0  0  0  0  0  0
  -29.9685  -22.4816   12.5953 C   0  0  0  0  0  0  0  0  0  0  0  0
  -26.4739  -24.1363   17.9731 C   0  0  0  0  0  0  0  0  0  0  0  0
  -26.9420  -22.4969   16.1396 C   0  0  0  0  0  0  0  0  0  0  0  0
  -26.1602  -24.7992   15.5822 C   0  0  0  0  0  0  0  0  0  0  0  0
  -32.7885  -24.6938   13.8719 C   0  0  0  0  0  0  0  0  0  0  0  0
  -34.6330  -23.1103   23.8060 C   0  0  0  0  0  0  0  0  0  0  0  0
  -34.5486  -24.3175   22.8816 C   0  0  0  0  0  0  0  0  0  1  0  0
  -28.5181  -24.4623   16.4300 C   0  0  1  0  0  0  0  0  0  0  0  0
  -30.5796  -23.6490   13.3546 C   0  0  2  0  0  0  0  0  0  0  0  0
  -27.0442  -23.9817   16.5491 C   0  0  0  0  0  0  0  0  0  0  0  0
  -25.9919  -11.6439   20.6473 N   0  0  0  0  0  0  0  0  0  0  0  0
  -26.2220  -12.9032   20.2381 N   0  0  0  0  0  0  0  0  0  0  0  0
  -31.4705  -21.0087   23.7420 N   0  0  0  0  0  0  0  0  0  0  0  0
  -29.5554  -26.1474   17.9162 N   0  0  0  0  0  0  0  0  0  0  0  0
  -29.8208  -14.1766   20.3384 N   0  0  0  0  0  0  0  0  0  0  0  0
  -27.7730  -18.3262   22.0144 N   0  0  0  0  0  0  0  0  0  0  0  0
  -25.1891  -15.0161   19.9565 N   0  0  0  0  0  0  0  0  0  0  0  0
  -21.8642  -12.4426   21.6052 N   0  0  0  0  0  0  0  0  0  0  0  0
  -29.6337  -16.4479   20.9457 N   0  0  0  0  0  0  0  0  0  0  0  0
  -28.0442  -28.7222   19.8698 N   0  0  0  0  0  0  0  0  0  0  0  0
  -29.0756  -24.3529   15.0863 N   0  0  0  0  0  0  0  0  0  0  0  0
  -32.0601  -23.5904   13.1945 N   0  3  0  0  0  0  0  0  0  0  0  0
  -29.7365  -20.9984   25.3460 O   0  0  0  0  0  0  0  0  0  0  0  0
  -22.3971  -14.5456   20.8619 O   0  0  0  0  0  0  0  0  0  0  0  0
  -28.5169  -26.4886   20.3280 O   0  0  0  0  0  0  0  0  0  0  0  0
  -28.0792  -26.7846   16.2277 O   0  0  0  0  0  0  0  0  0  0  0  0
  -30.8500  -22.9742   15.6587 O   0  0  0  0  0  0  0  0  0  0  0  0
  -31.5470  -15.6515   19.9033 O   0  0  0  0  0  0  0  0  0  0  0  0
  -22.2384   -7.0547   22.9710 O   0  0  0  0  0  0  0  0  0  0  0  0
  -33.9417  -23.9362   21.6477 O   0  0  0  0  0  0  0  0  0  1  0  0
  -19.0644   -7.5617   27.4512 F   0  0  0  0  0  0  0  0  0  0  0  0
  -22.8192   -5.6595   25.2859 F   0  0  0  0  0  0  0  0  0  0  0  0
  1  2  1  0  0  0  0
  1  5  2  0  0  0  0
  2  6  2  0  0  0  0
  3 10  2  0  0  0  0
  3 18  1  0  0  0  0
  4 11  1  0  0  0  0
  4 18  2  0  0  0  0
  5 20  1  0  0  0  0
  6 22  1  0  0  0  0
  7 12  2  0  0  0  0
  7 21  1  0  0  0  0
  8  9  2  0  0  0  0
  8 24  1  0  0  0  0
  9 25  1  0  0  0  0
 10 27  1  0  0  0  0
 11 27  2  0  0  0  0
 12 28  1  0  0  0  0
 13 14  2  0  0  0  0
 13 29  1  0  0  0  0
 14 30  1  0  0  0  0
 15 23  1  0  0  0  0
 15 28  2  0  0  0  0
 16 24  2  0  0  0  0
 16 26  1  0  0  0  0
 17 30  2  0  0  0  0
 17 31  1  0  0  0  0
 18 32  1  0  0  0  0
 19 32  1  0  0  0  0
 19 33  2  0  0  0  0
 19 37  1  0  0  0  0
 20 22  2  0  0  0  0
 20 42  1  0  0  0  0
 21 23  2  0  0  0  0
 21 43  1  0  0  0  0
 22 53  1  0  0  0  0
 23 44  1  0  0  0  0
 24 68  1  0  0  0  0
 25 26  2  0  0  0  0
 25 74  1  0  0  0  0
 26 71  1  0  0  0  0
 27 84  1  0  0  0  0
 28 85  1  0  0  0  0
 29 31  2  0  0  0  0
 29 84  1  0  0  0  0
 30 86  1  0  0  0  0
 31 87  1  0  0  0  0
 32 66  2  0  0  0  0
 33 67  1  0  0  0  0
 33 72  1  0  0  0  0
 34 35  2  0  0  0  0
 34 68  1  0  0  0  0
 35 45  1  0  0  0  0
 35 61  1  0  0  0  0
 36 46  1  0  0  0  0
 36 68  1  0  0  0  0
 36 78  2  0  0  0  0
 37 73  1  0  0  0  0
 37 79  2  0  0  0  0
 38 54  1  0  0  0  0
 38 75  1  0  0  0  0
 38 80  2  0  0  0  0
 39 63  1  0  0  0  0
 39 69  1  0  0  0  0
 39 81  2  0  0  0  0
 40 64  1  0  0  0  0
 40 76  1  0  0  0  0
 40 82  2  0  0  0  0
 41 70  1  0  0  0  0
 41 74  1  0  0  0  0
 41 83  2  0  0  0  0
 42 47  1  0  0  0  0
 43 54  1  0  0  0  0
 44 69  1  0  0  0  0
 45 46  1  0  0  0  0
 47 49  1  0  0  0  0
 48 50  1  0  0  0  0
 48 51  1  0  0  0  0
 49 53  1  0  0  0  0
 50 55  1  0  0  0  0
 51 70  1  0  0  0  0
 52 55  1  0  0  0  0
 52 70  1  0  0  0  0
 53 75  1  0  0  0  0
 54 69  1  0  0  0  0
 55 67  1  0  0  0  0
 56 64  1  0  0  0  0
 57 65  1  0  0  0  0
 58 65  1  0  0  0  0
 59 65  1  0  0  0  0
 60 77  1  0  0  0  0
 61 62  1  0  0  0  0
 62 85  1  0  0  0  0
 63 65  1  0  0  0  0
 63 76  1  0  0  0  0
 64 77  1  0  0  0  0
 66 67  1  0  0  0  0
M  CHG  1  77   1
M  ISO  4  41 100  62 101  74 100  85 101
M  END
> <Batch ID>
0096

> <Smiles>
CNC(C)C(=O)NC(C(=O)N1Cc2cc([101O:1][101CH2:1]CC3=CN(c4ccc([100NH:0][100C:0](=O)N5CCCC(n6nc(-c7ccc(Oc8ccc(F)cc8F)cc7)c(C(N)=O)c6N)C5)c(N)c4)C(=O)CC3)ccc2CC1C(=O)NC1CCCc2ccccc21)C(C)(C)C

> <Shape>
0.261

> <Color>
0.160

> <Negative vol penalty>
0.000

$$$$

  -OEChem-04052300463D

 85 94  0     1  0  0  0  0  0999 V2000
  -26.8312  -37.8129   19.6794 C   0  0  0  0  0  0  0  0  0  0  0  0
  -27.3809  -36.5600   19.4276 C   0  0  0  0  0  0  0  0  0  0  0  0
  -24.6202   -8.5630   20.6274 C   0  0  0  0  0  0  0  0  0  0  0  0
  -23.1795  -10.4646   21.0088 C   0  0  0  0  0  0  0  0  0  0  0  0
  -26.0143  -38.0035   20.7931 C   0  0  0  0  0  0  0  0  0  0  0  0
  -27.1149  -35.4971   20.2901 C   0  0  0  0  0  0  0  0  0  0  0  0
  -26.4716  -29.5984   18.7743 C   0  0  0  0  0  0  0  0  0  0  0  0
  -23.5522   -7.7027   20.8820 C   0  0  0  0  0  0  0  0  0  0  0  0
  -22.1114   -9.6043   21.2634 C   0  0  0  0  0  0  0  0  0  0  0  0
  -27.3495  -28.5165   18.8224 C   0  0  0  0  0  0  0  0  0  0  0  0
  -20.8372   -6.5461   19.2314 C   0  0  0  0  0  0  0  0  0  0  0  0
  -20.6499   -5.4707   18.3632 C   0  0  0  0  0  0  0  0  0  0  0  0
  -26.4363  -27.8782   20.9619 C   0  0  0  0  0  0  0  0  0  0  0  0
  -28.7188  -19.7978   19.7513 C   0  0  0  0  0  0  0  0  0  0  0  0
  -29.6541  -18.8104   22.1871 C   0  0  0  0  0  0  0  0  0  0  0  0
  -20.9285   -3.9338   20.2064 C   0  0  0  0  0  0  0  0  0  0  0  0
  -24.4338   -9.9440   20.6909 C   0  0  0  0  0  0  0  0  0  0  0  0
  -25.9176  -11.3714   19.1847 C   0  0  0  0  0  0  0  0  0  0  0  0
  -25.7304  -36.9400   21.6643 C   0  0  0  0  0  0  0  0  0  0  0  0
  -25.5754  -29.8351   19.8265 C   0  0  0  0  0  0  0  0  0  0  0  0
  -26.2946  -35.6739   21.4173 C   0  0  0  0  0  0  0  0  0  0  0  0
  -25.5462  -28.9623   20.9236 C   0  0  0  0  0  0  0  0  0  0  0  0
  -28.7262  -18.4236   19.9902 C   0  0  0  0  0  0  0  0  0  0  0  0
  -29.1791  -20.6783   20.7304 C   0  0  0  0  0  0  0  0  0  0  0  0
  -29.1939  -17.9299   21.2080 C   0  0  0  0  0  0  0  0  0  0  0  0
  -29.6467  -20.1846   21.9482 C   0  0  0  0  0  0  0  0  0  0  0  0
  -22.2978   -8.2234   21.1999 C   0  0  0  0  0  0  0  0  0  0  0  0
  -27.3340  -27.6578   19.9176 C   0  0  0  0  0  0  0  0  0  0  0  0
  -21.0703   -6.3154   20.5873 C   0  0  0  0  0  0  0  0  0  0  0  0
  -20.6955   -4.1646   18.8506 C   0  0  0  0  0  0  0  0  0  0  0  0
  -21.1159   -5.0093   21.0747 C   0  0  0  0  0  0  0  0  0  0  0  0
  -25.5369  -10.8332   20.4285 C   0  0  0  0  0  0  0  0  0  0  0  0
  -27.0151  -12.1472   19.4678 C   0  0  0  0  0  0  0  0  0  0  0  0
  -25.3316  -11.1867   17.8893 C   0  0  0  0  0  0  0  0  0  0  0  0
  -25.1241  -32.2025   21.8991 C   0  0  0  0  0  0  0  0  0  0  0  0
  -22.5269  -30.4503   22.7396 C   0  0  0  0  0  0  0  0  0  0  0  0
  -21.0021  -27.3990   22.8484 C   0  0  0  0  0  0  0  0  0  0  0  0
  -29.6412  -15.9009   22.6327 C   0  0  0  0  0  0  0  0  0  0  0  0
  -24.8802  -37.2058   22.8814 C   0  0  0  0  0  0  0  0  0  0  0  0
  -24.6164  -30.9911   19.7472 C   0  0  0  0  0  0  0  0  0  0  0  0
  -24.5894  -29.1609   22.0697 C   0  0  0  0  0  0  0  0  0  0  0  0
  -24.3440  -35.9367   23.5388 C   0  0  0  0  0  0  0  0  0  0  0  0
  -29.8008  -12.5015   23.6793 C   0  0  0  0  0  0  0  0  0  0  0  0
  -25.4545  -34.9012   23.6851 C   0  0  0  0  0  0  0  0  0  0  0  0
  -28.7370  -11.8087   22.8245 C   0  0  0  0  0  0  0  0  0  0  0  0
  -29.9007  -24.2310   20.0616 C   0  0  0  0  0  0  0  0  0  0  0  0
  -29.3695  -13.9078   24.0916 C   0  0  0  0  0  0  0  0  0  0  0  0
  -30.2713  -22.7628   19.8633 C   0  0  0  0  0  0  0  0  0  0  0  0
  -28.0400  -22.9134   20.7885 C   0  0  0  0  0  0  0  0  0  0  0  0
  -27.8891  -14.0860   22.1305 C   0  0  0  0  0  0  0  0  0  0  0  0
  -26.0093  -34.4902   22.3159 C   0  0  1  0  0  0  0  0  0  0  0  0
  -24.1000  -31.4340   21.1127 C   0  0  1  0  0  0  0  0  0  0  0  0
  -28.3750  -24.2109   20.0443 C   0  0  1  0  0  0  0  0  0  0  0  0
  -28.3061  -12.6911   21.6366 C   0  0  2  0  0  0  0  0  0  0  0  0
  -28.2270  -17.5035   18.9236 C   0  0  0  0  0  0  0  0  0  0  0  0
  -18.8988  -26.2747   23.6289 C   0  0  0  0  0  0  0  0  0  0  0  0
  -23.5353  -30.5666   25.6170 C   0  0  0  0  0  0  0  0  0  0  0  0
  -21.9751  -28.6871   26.1662 C   0  0  0  0  0  0  0  0  0  0  0  0
  -21.0654  -30.8671   25.3643 C   0  0  0  0  0  0  0  0  0  0  0  0
  -20.2944  -26.5576   20.1007 C   0  0  0  0  0  0  0  0  0  0  0  0
  -27.7525  -25.4433   20.6769 C   0  0  0  0  0  0  0  0  0  1  0  0
  -22.2580  -29.3466   23.7339 C   0  0  1  0  0  0  0  0  0  0  0  0
  -19.6003  -26.9593   22.4662 C   0  0  2  0  0  0  0  0  0  0  0  0
  -22.2279  -29.8639   25.1998 C   0  0  0  0  0  0  0  0  0  0  0  0
  -26.3283  -11.2330   21.4274 N   0  0  0  0  0  0  0  0  0  0  0  0
  -27.2173  -12.0307   20.8116 N   0  0  0  0  0  0  0  0  0  0  0  0
  -29.1633  -22.0330   20.4743 N   0  0  3  0  0  0  0  0  0  0  0  0
  -23.6759  -30.3090   21.9486 N   0  0  0  0  0  0  0  0  0  0  0  0
  -28.9795  -14.6870   22.9145 N   0  0  0  0  0  0  0  0  0  0  0  0
  -30.1167  -21.0590   22.9537 N   0  0  0  0  0  0  0  0  0  0  0  0
  -27.8173  -12.9107   18.6959 N   0  0  0  0  0  0  0  0  0  0  0  0
  -24.2078  -10.3569   17.7765 N   0  0  0  0  0  0  0  0  0  0  0  0
  -29.2077  -16.5374   21.4701 N   0  0  0  0  0  0  0  0  0  0  0  0
  -25.1091  -33.5639   21.6631 N   0  0  0  0  0  0  0  0  0  0  0  0
  -21.0229  -28.7007   23.3027 N   0  0  0  0  0  0  0  0  0  0  0  0
  -19.6504  -26.0070   21.3209 N   0  3  0  0  0  0  0  0  0  0  0  0
  -25.8009  -11.7280   16.8596 O   0  0  0  0  0  0  0  0  0  0  0  0
  -25.8715  -31.6047   22.6644 O   0  0  0  0  0  0  0  0  0  0  0  0
  -21.7424  -31.3991   22.6625 O   0  0  0  0  0  0  0  0  0  0  0  0
  -21.9801  -26.6604   22.7568 O   0  0  0  0  0  0  0  0  0  0  0  0
  -30.5458  -16.3295   23.3537 O   0  0  0  0  0  0  0  0  0  0  0  0
  -21.2553   -7.3842   21.4482 O   0  0  0  0  0  0  0  0  0  0  0  0
  -28.1903  -26.6014   19.9673 O   0  0  0  0  0  0  0  0  0  1  0  0
  -20.5141   -3.1320   18.0170 F   0  0  0  0  0  0  0  0  0  0  0  0
  -21.3382   -4.7815   22.3765 F   0  0  0  0  0  0  0  0  0  0  0  0
  1  2  1  0  0  0  0
  1  5  2  0  0  0  0
  2  6  2  0  0  0  0
  3  8  2  0  0  0  0
  3 17  1  0  0  0  0
  4  9  1  0  0  0  0
  4 17  2  0  0  0  0
  5 19  1  0  0  0  0
  6 21  1  0  0  0  0
  7 10  2  0  0  0  0
  7 20  1  0  0  0  0
  8 27  1  0  0  0  0
  9 27  2  0  0  0  0
 10 28  1  0  0  0  0
 11 12  2  0  0  0  0
 11 29  1  0  0  0  0
 12 30  1  0  0  0  0
 13 22  1  0  0  0  0
 13 28  2  0  0  0  0
 14 23  2  0  0  0  0
 14 24  1  0  0  0  0
 15 25  2  0  0  0  0
 15 26  1  0  0  0  0
 16 30  2  0  0  0  0
 16 31  1  0  0  0  0
 17 32  1  0  0  0  0
 18 32  1  0  0  0  0
 18 33  2  0  0  0  0
 18 34  1  0  0  0  0
 19 21  2  0  0  0  0
 19 39  1  0  0  0  0
 20 22  2  0  0  0  0
 20 40  1  0  0  0  0
 21 51  1  0  0  0  0
 22 41  1  0  0  0  0
 23 25  1  0  0  0  0
 23 55  1  0  0  0  0
 24 26  2  0  0  0  0
 24 67  1  0  0  0  0
 25 73  1  0  0  0  0
 26 70  1  0  0  0  0
 27 82  1  0  0  0  0
 28 83  1  0  0  0  0
 29 31  2  0  0  0  0
 29 82  1  0  0  0  0
 30 84  1  0  0  0  0
 31 85  1  0  0  0  0
 32 65  2  0  0  0  0
 33 66  1  0  0  0  0
 33 71  1  0  0  0  0
 34 72  1  0  0  0  0
 34 77  2  0  0  0  0
 35 52  1  0  0  0  0
 35 74  1  0  0  0  0
 35 78  2  0  0  0  0
 36 62  1  0  0  0  0
 36 68  1  0  0  0  0
 36 79  2  0  0  0  0
 37 63  1  0  0  0  0
 37 75  1  0  0  0  0
 37 80  2  0  0  0  0
 38 69  1  0  0  0  0
 38 73  1  0  0  0  0
 38 81  2  0  0  0  0
 39 42  1  0  0  0  0
 40 52  1  0  0  0  0
 41 68  1  0  0  0  0
 42 44  1  0  0  0  0
 43 45  1  0  0  0  0
 43 47  1  0  0  0  0
 44 51  1  0  0  0  0
 45 54  1  0  0  0  0
 46 48  1  0  0  0  0
 46 53  1  0  0  0  0
 47 69  1  0  0  0  0
 48 67  1  0  0  0  0
 49 53  1  0  0  0  0
 49 67  1  0  0  0  0
 50 54  1  0  0  0  0
 50 69  1  0  0  0  0
 51 74  1  0  0  0  0
 52 68  1  0  0  0  0
 53 61  1  0  0  0  0
 54 66  1  0  0  0  0
 56 63  1  0  0  0  0
 57 64  1  0  0  0  0
 58 64  1  0  0  0  0
 59 64  1  0  0  0  0
 60 76  1  0  0  0  0
 61 83  1  0  0  0  0
 62 64  1  0  0  0  0
 62 75  1  0  0  0  0
 63 76  1  0  0  0  0
 65 66  1  0  0  0  0
M  CHG  1  76   1
M  ISO  4  38 100  61 101  73 100  83 101
M  END
> <Batch ID>
0096

> <Smiles>
CNC(C)C(=O)NC(C(=O)N1Cc2cc([101O:1][101CH2:1]C3CCN(c4cc(C)c([100NH:0][100C:0](=O)N5CCCC(n6nc(-c7ccc(Oc8ccc(F)cc8F)cc7)c(C(N)=O)c6N)C5)cc4N)C3)ccc2CC1C(=O)NC1CCCc2ccccc21)C(C)(C)C

> <Shape>
0.314

> <Color>
0.091

> <Negative vol penalty>
0.000

$$$$

  -OEChem-04052300463D

 84 92  0     1  0  0  0  0  0999 V2000
  -28.3757  -23.6923   17.3619 C   0  0  0  0  0  0  0  0  0  0  0  0
  -27.1907  -23.9050   18.0591 C   0  0  0  0  0  0  0  0  0  0  0  0
  -27.3917  -16.3702   18.9212 C   0  0  0  0  0  0  0  0  0  0  0  0
  -27.1020  -17.7028   20.9155 C   0  0  0  0  0  0  0  0  0  0  0  0
  -29.5543  -24.3015   17.7905 C   0  0  0  0  0  0  0  0  0  0  0  0
  -27.1839  -24.7262   19.1860 C   0  0  0  0  0  0  0  0  0  0  0  0
  -23.2652  -27.9336   19.2289 C   0  0  0  0  0  0  0  0  0  0  0  0
  -28.7496  -16.6886   18.9057 C   0  0  0  0  0  0  0  0  0  0  0  0
  -28.4600  -18.0212   20.9000 C   0  0  0  0  0  0  0  0  0  0  0  0
  -22.0253  -27.4190   19.6053 C   0  0  0  0  0  0  0  0  0  0  0  0
  -30.6844  -19.3015   17.9817 C   0  0  0  0  0  0  0  0  0  0  0  0
  -31.2491  -19.6693   16.7605 C   0  0  0  0  0  0  0  0  0  0  0  0
  -20.1266  -23.3792   22.7571 C   0  0  0  0  0  0  0  0  0  0  0  0
  -22.3232  -28.3351   21.8169 C   0  0  0  0  0  0  0  0  0  0  0  0
  -19.2183  -22.8979   20.1636 C   0  0  0  0  0  0  0  0  0  0  0  0
  -32.7870  -17.8122   16.9124 C   0  0  0  0  0  0  0  0  0  0  0  0
  -26.5679  -16.8773   19.9261 C   0  0  0  0  0  0  0  0  0  0  0  0
  -19.4139  -24.3644   22.0737 C   0  0  0  0  0  0  0  0  0  0  0  0
  -24.5552  -15.4552   20.5852 C   0  0  0  0  0  0  0  0  0  0  0  0
  -29.5599  -25.1383   18.9176 C   0  0  0  0  0  0  0  0  0  0  0  0
  -24.0496  -28.6446   20.1485 C   0  0  0  0  0  0  0  0  0  0  0  0
  -28.3639  -25.3461   19.6309 C   0  0  0  0  0  0  0  0  0  0  0  0
  -23.5716  -28.8599   21.4490 C   0  0  0  0  0  0  0  0  0  0  0  0
  -20.3852  -22.1533   22.1437 C   0  0  0  0  0  0  0  0  0  0  0  0
  -18.9597  -24.1238   20.7770 C   0  0  0  0  0  0  0  0  0  0  0  0
  -19.9310  -21.9127   20.8470 C   0  0  0  0  0  0  0  0  0  0  0  0
  -29.2838  -17.5141   19.8950 C   0  0  0  0  0  0  0  0  0  0  0  0
  -21.5554  -27.6172   20.9003 C   0  0  0  0  0  0  0  0  0  0  0  0
  -31.1710  -18.1891   18.6684 C   0  0  0  0  0  0  0  0  0  0  0  0
  -32.3004  -18.9246   16.2258 C   0  0  0  0  0  0  0  0  0  0  0  0
  -32.2223  -17.4444   18.1337 C   0  0  0  0  0  0  0  0  0  0  0  0
  -25.1650  -16.5492   19.9424 C   0  0  0  0  0  0  0  0  0  0  0  0
  -23.2184  -15.5915   20.3009 C   0  0  0  0  0  0  0  0  0  0  0  0
  -18.0514  -25.8294   23.4995 C   0  0  0  0  0  0  0  0  0  0  0  0
  -19.1591  -25.6559   22.7585 C   0  0  0  0  0  0  0  0  0  0  0  0
  -25.1445  -14.4093   21.3691 C   0  0  0  0  0  0  0  0  0  0  0  0
  -26.9220  -28.2250   21.4435 C   0  0  0  0  0  0  0  0  0  0  0  0
  -26.3585  -31.1651   22.6928 C   0  0  0  0  0  0  0  0  0  0  0  0
  -24.0798  -33.5231   23.6385 C   0  0  0  0  0  0  0  0  0  0  0  0
  -19.7965  -20.2922   18.9229 C   0  0  0  0  0  0  0  0  0  0  0  0
  -30.8680  -25.7372   19.3706 C   0  0  0  0  0  0  0  0  0  0  0  0
  -25.3729  -29.2163   19.7190 C   0  0  0  0  0  0  0  0  0  0  0  0
  -24.3661  -29.6338   22.4679 C   0  0  0  0  0  0  0  0  0  0  0  0
  -30.7008  -26.8921   20.3546 C   0  0  0  0  0  0  0  0  0  0  0  0
  -20.2578  -17.3495   16.9724 C   0  0  0  0  0  0  0  0  0  0  0  0
  -29.6958  -26.5257   21.4421 C   0  0  0  0  0  0  0  0  0  0  0  0
  -21.5096  -16.7076   17.5751 C   0  0  0  0  0  0  0  0  0  0  0  0
  -20.3525  -18.8741   16.9595 C   0  0  0  0  0  0  0  0  0  0  0  0
  -21.9221  -18.8455   18.8581 C   0  0  0  0  0  0  0  0  0  0  0  0
  -28.3112  -26.2500   20.8435 C   0  0  1  0  0  0  0  0  0  0  0  0
  -26.3163  -29.4829   20.8879 C   0  0  1  0  0  0  0  0  0  0  0  0
  -21.8459  -17.3128   18.9521 C   0  0  2  0  0  0  0  0  0  0  0  0
  -22.6690  -21.2271   22.7085 C   0  0  0  0  0  0  0  0  0  0  0  0
  -23.9195  -35.8091   24.6612 C   0  0  0  0  0  0  0  0  0  0  0  0
  -26.9609  -29.9766   25.4378 C   0  0  0  0  0  0  0  0  0  0  0  0
  -25.8825  -31.9876   26.4680 C   0  0  0  0  0  0  0  0  0  0  0  0
  -27.9201  -32.2541   25.0538 C   0  0  0  0  0  0  0  0  0  0  0  0
  -22.7618  -34.6340   21.2327 C   0  0  0  0  0  0  0  0  0  0  0  0
  -20.1853  -26.7522   22.6411 C   0  0  0  0  0  0  0  0  0  1  0  0
  -21.1516  -21.1160   22.8983 C   0  0  1  0  0  0  0  0  0  0  0  0
  -25.7150  -31.6847   23.9558 C   0  0  1  0  0  0  0  0  0  0  0  0
  -24.0021  -35.0147   23.3671 C   0  0  2  0  0  0  0  0  0  0  0  0
  -26.6053  -31.4595   25.2104 C   0  0  0  0  0  0  0  0  0  0  0  0
  -24.2875  -17.3233   19.2983 N   0  0  0  0  0  0  0  0  0  0  0  0
  -23.1128  -16.7149   19.5348 N   0  0  0  0  0  0  0  0  0  0  0  0
  -25.6567  -30.1673   22.0018 N   0  0  0  0  0  0  0  0  0  0  0  0
  -20.6694  -19.3765   18.2982 N   0  0  0  0  0  0  0  0  0  0  0  0
  -18.2366  -25.1050   20.0613 N   0  0  0  0  0  0  0  0  0  0  0  0
  -22.1346  -14.8587   20.6340 N   0  0  0  0  0  0  0  0  0  0  0  0
  -26.5326  -14.4204   21.5624 N   0  0  0  0  0  0  0  0  0  0  0  0
  -20.1842  -20.6743   20.2068 N   0  0  0  0  0  0  0  0  0  0  0  0
  -27.6437  -27.4928   20.5203 N   0  0  0  0  0  0  0  0  0  0  0  0
  -25.3850  -33.0826   23.7004 N   0  0  0  0  0  0  0  0  0  0  0  0
  -20.8809  -21.1349   24.3757 N   0  3  0  0  0  0  0  0  0  0  0  0
  -22.7997  -35.3296   22.5448 N   0  3  0  0  0  0  0  0  0  0  0  0
  -24.4624  -13.4830   21.8692 O   0  0  0  0  0  0  0  0  0  0  0  0
  -26.7486  -27.9407   22.6228 O   0  0  0  0  0  0  0  0  0  0  0  0
  -27.4405  -31.6326   22.3289 O   0  0  0  0  0  0  0  0  0  0  0  0
  -23.0826  -32.8198   23.7849 O   0  0  0  0  0  0  0  0  0  0  0  0
  -18.7657  -20.6860   18.3712 O   0  0  0  0  0  0  0  0  0  0  0  0
  -30.6088  -17.8248   19.8803 O   0  0  0  0  0  0  0  0  0  0  0  0
  -20.3459  -27.1155   21.2705 O   0  0  0  0  0  0  0  0  0  1  0  0
  -32.8415  -19.2770   15.0523 F   0  0  0  0  0  0  0  0  0  0  0  0
  -32.6933  -16.3741   18.7881 F   0  0  0  0  0  0  0  0  0  0  0  0
  1  2  1  0  0  0  0
  1  5  2  0  0  0  0
  2  6  2  0  0  0  0
  3  8  2  0  0  0  0
  3 17  1  0  0  0  0
  4  9  1  0  0  0  0
  4 17  2  0  0  0  0
  5 20  1  0  0  0  0
  6 22  1  0  0  0  0
  7 10  2  0  0  0  0
  7 21  1  0  0  0  0
  8 27  1  0  0  0  0
  9 27  2  0  0  0  0
 10 28  1  0  0  0  0
 11 12  2  0  0  0  0
 11 29  1  0  0  0  0
 12 30  1  0  0  0  0
 13 18  1  0  0  0  0
 13 24  2  0  0  0  0
 14 23  1  0  0  0  0
 14 28  2  0  0  0  0
 15 25  1  0  0  0  0
 15 26  2  0  0  0  0
 16 30  2  0  0  0  0
 16 31  1  0  0  0  0
 17 32  1  0  0  0  0
 18 25  2  0  0  0  0
 18 35  1  0  0  0  0
 19 32  1  0  0  0  0
 19 33  2  0  0  0  0
 19 36  1  0  0  0  0
 20 22  2  0  0  0  0
 20 41  1  0  0  0  0
 21 23  2  0  0  0  0
 21 42  1  0  0  0  0
 22 50  1  0  0  0  0
 23 43  1  0  0  0  0
 24 26  1  0  0  0  0
 24 60  1  0  0  0  0
 25 68  1  0  0  0  0
 26 71  1  0  0  0  0
 27 81  1  0  0  0  0
 28 82  1  0  0  0  0
 29 31  2  0  0  0  0
 29 81  1  0  0  0  0
 30 83  1  0  0  0  0
 31 84  1  0  0  0  0
 32 64  2  0  0  0  0
 33 65  1  0  0  0  0
 33 69  1  0  0  0  0
 34 35  2  0  0  0  0
 35 59  1  0  0  0  0
 36 70  1  0  0  0  0
 36 76  2  0  0  0  0
 37 51  1  0  0  0  0
 37 72  1  0  0  0  0
 37 77  2  0  0  0  0
 38 61  1  0  0  0  0
 38 66  1  0  0  0  0
 38 78  2  0  0  0  0
 39 62  1  0  0  0  0
 39 73  1  0  0  0  0
 39 79  2  0  0  0  0
 40 67  1  0  0  0  0
 40 71  1  0  0  0  0
 40 80  2  0  0  0  0
 41 44  1  0  0  0  0
 42 51  1  0  0  0  0
 43 66  1  0  0  0  0
 44 46  1  0  0  0  0
 45 47  1  0  0  0  0
 45 48  1  0  0  0  0
 46 50  1  0  0  0  0
 47 52  1  0  0  0  0
 48 67  1  0  0  0  0
 49 52  1  0  0  0  0
 49 67  1  0  0  0  0
 50 72  1  0  0  0  0
 51 66  1  0  0  0  0
 52 65  1  0  0  0  0
 53 60  1  0  0  0  0
 54 62  1  0  0  0  0
 55 63  1  0  0  0  0
 56 63  1  0  0  0  0
 57 63  1  0  0  0  0
 58 75  1  0  0  0  0
 59 82  1  0  0  0  0
 60 74  1  0  0  0  0
 61 63  1  0  0  0  0
 61 73  1  0  0  0  0
 62 75  1  0  0  0  0
 64 65  1  0  0  0  0
M  CHG  2  74   1  75   1
M  ISO  4  40 100  59 101  71 100  82 101
M  END
> <Batch ID>
0096

> <Smiles>
C=C(c1cc(C(C)N)c([100NH:0][100C:0](=O)N2CCCC(n3nc(-c4ccc(Oc5ccc(F)cc5F)cc4)c(C(N)=O)c3N)C2)cc1N)[101CH2:1][101O:1]c1ccc2c(c1)CN(C(=O)C(NC(=O)C(C)NC)C(C)(C)C)C(C(=O)NC1CCCc3ccccc31)C2

> <Shape>
0.238

> <Color>
0.076

> <Negative vol penalty>
0.000

$$$$

  -OEChem-04052300463D

 84 92  0     1  0  0  0  0  0999 V2000
  -17.8925  -27.2805   22.7848 C   0  0  0  0  0  0  0  0  0  0  0  0
  -18.7244  -26.3210   23.3528 C   0  0  0  0  0  0  0  0  0  0  0  0
  -22.9262   -9.9919   20.0218 C   0  0  0  0  0  0  0  0  0  0  0  0
  -23.6793  -10.0222   22.3172 C   0  0  0  0  0  0  0  0  0  0  0  0
  -18.4351  -28.2904   21.9914 C   0  0  0  0  0  0  0  0  0  0  0  0
  -20.0995  -26.3702   23.1267 C   0  0  0  0  0  0  0  0  0  0  0  0
  -24.5338  -24.8062   27.0506 C   0  0  0  0  0  0  0  0  0  0  0  0
  -22.1367   -8.8750   20.2955 C   0  0  0  0  0  0  0  0  0  0  0  0
  -22.8898   -8.9053   22.5910 C   0  0  0  0  0  0  0  0  0  0  0  0
  -25.2953  -23.6469   27.1919 C   0  0  0  0  0  0  0  0  0  0  0  0
  -23.0512   -5.5624   22.1114 C   0  0  0  0  0  0  0  0  0  0  0  0
  -23.6237   -4.5306   22.8551 C   0  0  0  0  0  0  0  0  0  0  0  0
  -27.0564  -24.6514   25.8848 C   0  0  0  0  0  0  0  0  0  0  0  0
  -29.5564  -18.8132   22.0874 C   0  0  0  0  0  0  0  0  0  0  0  0
  -29.0573  -18.2763   24.7792 C   0  0  0  0  0  0  0  0  0  0  0  0
  -21.9257   -4.8105   24.5508 C   0  0  0  0  0  0  0  0  0  0  0  0
  -23.6975  -10.5655   21.0327 C   0  0  0  0  0  0  0  0  0  0  0  0
  -24.1389  -13.0718   20.8558 C   0  0  0  0  0  0  0  0  0  0  0  0
  -19.8186  -28.3577   21.7634 C   0  0  0  0  0  0  0  0  0  0  0  0
  -25.0243  -25.8945   26.3148 C   0  0  0  0  0  0  0  0  0  0  0  0
  -20.6611  -27.3812   22.3284 C   0  0  0  0  0  0  0  0  0  0  0  0
  -26.3003  -25.8243   25.7377 C   0  0  0  0  0  0  0  0  0  0  0  0
  -30.0907  -17.6698   22.6812 C   0  0  0  0  0  0  0  0  0  0  0  0
  -29.8412  -17.4013   24.0270 C   0  0  0  0  0  0  0  0  0  0  0  0
  -28.5231  -19.4198   24.1854 C   0  0  0  0  0  0  0  0  0  0  0  0
  -22.1185   -8.3317   21.5801 C   0  0  0  0  0  0  0  0  0  0  0  0
  -26.5555  -23.5682   26.6066 C   0  0  0  0  0  0  0  0  0  0  0  0
  -21.9159   -6.2183   22.5874 C   0  0  0  0  0  0  0  0  0  0  0  0
  -28.7726  -19.6883   22.8395 C   0  0  0  0  0  0  0  0  0  0  0  0
  -23.0610   -4.1546   24.0748 C   0  0  0  0  0  0  0  0  0  0  0  0
  -21.3531   -5.8423   23.8071 C   0  0  0  0  0  0  0  0  0  0  0  0
  -24.5137  -11.7189   20.7504 C   0  0  0  0  0  0  0  0  0  0  0  0
  -25.2608  -13.7691   20.4794 C   0  0  0  0  0  0  0  0  0  0  0  0
  -22.8886  -13.6467   21.2580 C   0  0  0  0  0  0  0  0  0  0  0  0
  -24.0952  -27.4297   23.6911 C   0  0  0  0  0  0  0  0  0  0  0  0
  -26.5348  -29.4230   24.4639 C   0  0  0  0  0  0  0  0  0  0  0  0
  -29.5062  -29.8743   26.0808 C   0  0  0  0  0  0  0  0  0  0  0  0
  -30.7799  -14.5757   20.6647 C   0  0  0  0  0  0  0  0  0  0  0  0
  -20.3537  -29.4404   20.8600 C   0  0  0  0  0  0  0  0  0  0  0  0
  -24.2017  -27.1480   26.1941 C   0  0  0  0  0  0  0  0  0  0  0  0
  -26.8809  -26.9726   24.9550 C   0  0  0  0  0  0  0  0  0  0  0  0
  -21.8626  -29.6400   20.9760 C   0  0  0  0  0  0  0  0  0  0  0  0
  -29.5559  -12.1832   18.3293 C   0  0  0  0  0  0  0  0  0  0  0  0
  -22.5829  -28.2958   20.9443 C   0  0  0  0  0  0  0  0  0  0  0  0
  -28.1068  -11.9563   18.7635 C   0  0  0  0  0  0  0  0  0  0  0  0
  -30.4777  -12.3955   19.5281 C   0  0  0  0  0  0  0  0  0  0  0  0
  -28.6023  -13.2327   20.8904 C   0  0  0  0  0  0  0  0  0  0  0  0
  -22.1605  -27.4155   22.1267 C   0  0  1  0  0  0  0  0  0  0  0  0
  -24.5872  -28.0021   24.9903 C   0  0  1  0  0  0  0  0  0  0  0  0
  -27.6253  -13.0694   19.7135 C   0  0  2  0  0  0  0  0  0  0  0  0
  -31.2786  -31.6007   26.4995 C   0  0  0  0  0  0  0  0  0  0  0  0
  -27.6049  -29.0066   21.6369 C   0  0  0  0  0  0  0  0  0  0  0  0
  -29.7963  -29.9441   22.4032 C   0  0  0  0  0  0  0  0  0  0  0  0
  -27.7442  -31.3609   22.4688 C   0  0  0  0  0  0  0  0  0  0  0  0
  -29.0534  -29.7981   29.0045 C   0  0  0  0  0  0  0  0  0  0  0  0
  -29.0591  -21.9822   22.2811 C   0  0  0  0  0  0  0  0  0  0  0  0
  -30.9270  -16.7501   21.8519 C   0  0  0  0  0  0  0  0  0  0  0  0
  -27.4489  -20.0695   26.3417 C   0  0  0  0  0  0  0  0  0  0  0  0
  -26.5929  -21.2056   26.8761 C   0  0  0  0  0  0  0  0  0  1  0  0
  -28.0085  -29.4840   24.1420 C   0  0  1  0  0  0  0  0  0  0  0  0
  -29.9908  -30.9729   27.0096 C   0  0  2  0  0  0  0  0  0  0  0  0
  -28.2770  -29.9264   22.6758 C   0  0  0  0  0  0  0  0  0  0  0  0
  -25.7749  -11.5637   20.3392 N   0  0  0  0  0  0  0  0  0  0  0  0
  -26.2025  -12.8281   20.1827 N   0  0  0  0  0  0  0  0  0  0  0  0
  -26.0355  -28.1742   24.8599 N   0  0  0  0  0  0  0  0  0  0  0  0
  -29.9656  -13.4651   20.3881 N   0  0  0  0  0  0  0  0  0  0  0  0
  -30.3747  -16.2487   24.6448 N   0  0  0  0  0  0  0  0  0  0  0  0
  -25.5237  -15.0892   20.3765 N   0  0  0  0  0  0  0  0  0  0  0  0
  -21.8407  -12.7861   21.6123 N   0  0  0  0  0  0  0  0  0  0  0  0
  -27.7479  -20.2813   24.9439 N   0  0  0  0  0  0  0  0  0  0  0  0
  -22.8250  -27.8442   23.3387 N   0  0  0  0  0  0  0  0  0  0  0  0
  -28.6104  -30.3525   25.1479 N   0  0  0  0  0  0  0  0  0  0  0  0
  -30.2154  -15.5467   21.4828 N   0  0  0  0  0  0  0  0  0  0  0  0
  -30.2426  -30.4253   28.3725 N   0  3  0  0  0  0  0  0  0  0  0  0
  -22.7009  -14.8867   21.2860 O   0  0  0  0  0  0  0  0  0  0  0  0
  -24.8154  -26.6694   23.0546 O   0  0  0  0  0  0  0  0  0  0  0  0
  -25.8534  -30.4473   24.3744 O   0  0  0  0  0  0  0  0  0  0  0  0
  -29.8871  -28.7093   26.1713 O   0  0  0  0  0  0  0  0  0  0  0  0
  -31.9231  -14.6958   20.2114 O   0  0  0  0  0  0  0  0  0  0  0  0
  -21.3481   -7.2420   21.8476 O   0  0  0  0  0  0  0  0  0  0  0  0
  -28.2610  -20.8013   22.2418 O   0  0  0  0  0  0  0  0  0  0  0  0
  -27.3006  -22.4376   26.7425 O   0  0  0  0  0  0  0  0  0  1  0  0
  -23.6101   -3.1627   24.7881 F   0  0  0  0  0  0  0  0  0  0  0  0
  -20.2618   -6.4680   24.2690 F   0  0  0  0  0  0  0  0  0  0  0  0
  1  2  1  0  0  0  0
  1  5  2  0  0  0  0
  2  6  2  0  0  0  0
  3  8  2  0  0  0  0
  3 17  1  0  0  0  0
  4  9  1  0  0  0  0
  4 17  2  0  0  0  0
  5 19  1  0  0  0  0
  6 21  1  0  0  0  0
  7 10  2  0  0  0  0
  7 20  1  0  0  0  0
  8 26  1  0  0  0  0
  9 26  2  0  0  0  0
 10 27  1  0  0  0  0
 11 12  2  0  0  0  0
 11 28  1  0  0  0  0
 12 30  1  0  0  0  0
 13 22  1  0  0  0  0
 13 27  2  0  0  0  0
 14 23  2  0  0  0  0
 14 29  1  0  0  0  0
 15 24  2  0  0  0  0
 15 25  1  0  0  0  0
 16 30  2  0  0  0  0
 16 31  1  0  0  0  0
 17 32  1  0  0  0  0
 18 32  1  0  0  0  0
 18 33  2  0  0  0  0
 18 34  1  0  0  0  0
 19 21  2  0  0  0  0
 19 39  1  0  0  0  0
 20 22  2  0  0  0  0
 20 40  1  0  0  0  0
 21 48  1  0  0  0  0
 22 41  1  0  0  0  0
 23 24  1  0  0  0  0
 23 57  1  0  0  0  0
 24 67  1  0  0  0  0
 25 29  2  0  0  0  0
 25 70  1  0  0  0  0
 26 80  1  0  0  0  0
 27 82  1  0  0  0  0
 28 31  2  0  0  0  0
 28 80  1  0  0  0  0
 29 81  1  0  0  0  0
 30 83  1  0  0  0  0
 31 84  1  0  0  0  0
 32 63  2  0  0  0  0
 33 64  1  0  0  0  0
 33 68  1  0  0  0  0
 34 69  1  0  0  0  0
 34 75  2  0  0  0  0
 35 49  1  0  0  0  0
 35 71  1  0  0  0  0
 35 76  2  0  0  0  0
 36 60  1  0  0  0  0
 36 65  1  0  0  0  0
 36 77  2  0  0  0  0
 37 61  1  0  0  0  0
 37 72  1  0  0  0  0
 37 78  2  0  0  0  0
 38 66  1  0  0  0  0
 38 73  1  0  0  0  0
 38 79  2  0  0  0  0
 39 42  1  0  0  0  0
 40 49  1  0  0  0  0
 41 65  1  0  0  0  0
 42 44  1  0  0  0  0
 43 45  1  0  0  0  0
 43 46  1  0  0  0  0
 44 48  1  0  0  0  0
 45 50  1  0  0  0  0
 46 66  1  0  0  0  0
 47 50  1  0  0  0  0
 47 66  1  0  0  0  0
 48 71  1  0  0  0  0
 49 65  1  0  0  0  0
 50 64  1  0  0  0  0
 51 61  1  0  0  0  0
 52 62  1  0  0  0  0
 53 62  1  0  0  0  0
 54 62  1  0  0  0  0
 55 74  1  0  0  0  0
 56 81  1  0  0  0  0
 57 73  1  0  0  0  0
 58 59  1  0  0  0  0
 58 70  1  0  0  0  0
 59 82  1  0  0  0  0
 60 62  1  0  0  0  0
 60 72  1  0  0  0  0
 61 74  1  0  0  0  0
 63 64  1  0  0  0  0
M  CHG  1  74   1
M  ISO  4  38 100  59 101  73 100  82 101
M  END
> <Batch ID>
0096

> <Smiles>
CNC(C)C(=O)NC(C(=O)N1Cc2cc([101O:1][101CH2:1]CNc3cc(N)c(C[100NH:0][100C:0](=O)N4CCCC(n5nc(-c6ccc(Oc7ccc(F)cc7F)cc6)c(C(N)=O)c5N)C4)cc3OC)ccc2CC1C(=O)NC1CCCc2ccccc21)C(C)(C)C

> <Shape>
0.285

> <Color>
0.210

> <Negative vol penalty>
0.000

$$$$
