
  -OEChem-04052300493D

 84 92  0     1  0  0  0  0  0999 V2000
  -28.9377  -10.4637   16.2990 C   0  0  0  0  0  0  0  0  0  0  0  0
  -27.5868  -10.7393   16.4845 C   0  0  0  0  0  0  0  0  0  0  0  0
  -25.6939  -27.5829   21.5011 C   0  0  0  0  0  0  0  0  0  0  0  0
  -25.0487  -29.6584   20.4460 C   0  0  0  0  0  0  0  0  0  0  0  0
  -29.8821  -10.9858   17.1819 C   0  0  0  0  0  0  0  0  0  0  0  0
  -27.1793  -11.5363   17.5537 C   0  0  0  0  0  0  0  0  0  0  0  0
  -22.1751  -16.3377   19.3485 C   0  0  0  0  0  0  0  0  0  0  0  0
  -26.6307  -27.3610   20.4918 C   0  0  0  0  0  0  0  0  0  0  0  0
  -25.9856  -29.4365   19.4367 C   0  0  0  0  0  0  0  0  0  0  0  0
  -21.2268  -16.5857   20.3400 C   0  0  0  0  0  0  0  0  0  0  0  0
  -29.4439  -26.4254   18.3881 C   0  0  0  0  0  0  0  0  0  0  0  0
  -30.7156  -25.9955   18.7667 C   0  0  0  0  0  0  0  0  0  0  0  0
  -19.8618  -22.4071   23.4423 C   0  0  0  0  0  0  0  0  0  0  0  0
  -21.9689  -23.5247   23.0574 C   0  0  0  0  0  0  0  0  0  0  0  0
  -22.9540  -17.4983   21.7553 C   0  0  0  0  0  0  0  0  0  0  0  0
  -21.9024  -21.4828   24.3472 C   0  0  0  0  0  0  0  0  0  0  0  0
  -31.0074  -28.0079   20.0714 C   0  0  0  0  0  0  0  0  0  0  0  0
  -24.9028  -28.7316   21.4782 C   0  0  0  0  0  0  0  0  0  0  0  0
  -20.5863  -23.4602   22.8841 C   0  0  0  0  0  0  0  0  0  0  0  0
  -24.1385  -29.6423   23.7352 C   0  0  0  0  0  0  0  0  0  0  0  0
  -29.4869  -11.7975   18.2568 C   0  0  0  0  0  0  0  0  0  0  0  0
  -23.5241  -16.6587   19.5576 C   0  0  0  0  0  0  0  0  0  0  0  0
  -28.1192  -12.0687   18.4525 C   0  0  0  0  0  0  0  0  0  0  0  0
  -23.9171  -17.2557   20.7640 C   0  0  0  0  0  0  0  0  0  0  0  0
  -20.5198  -21.4184   24.1739 C   0  0  0  0  0  0  0  0  0  0  0  0
  -22.6269  -22.5360   23.7889 C   0  0  0  0  0  0  0  0  0  0  0  0
  -26.7766  -28.2878   19.4596 C   0  0  0  0  0  0  0  0  0  0  0  0
  -21.6167  -17.1634   21.5447 C   0  0  0  0  0  0  0  0  0  0  0  0
  -28.9539  -27.6466   18.8510 C   0  0  0  0  0  0  0  0  0  0  0  0
  -31.4974  -26.7867   19.6084 C   0  0  0  0  0  0  0  0  0  0  0  0
  -29.7357  -28.4378   19.6927 C   0  0  0  0  0  0  0  0  0  0  0  0
  -23.9345  -28.9611   22.5202 C   0  0  0  0  0  0  0  0  0  0  0  0
  -22.9210  -29.5868   24.3685 C   0  0  0  0  0  0  0  0  0  0  0  0
  -19.8907  -24.5051   22.1113 C   0  0  0  0  0  0  0  0  0  0  0  0
  -25.3225  -30.2694   24.2456 C   0  0  0  0  0  0  0  0  0  0  0  0
  -26.2320  -14.9985   19.6802 C   0  0  0  0  0  0  0  0  0  0  0  0
  -27.5737  -17.9451   19.8796 C   0  0  0  0  0  0  0  0  0  0  0  0
  -27.2245  -21.2376   20.7070 C   0  0  0  0  0  0  0  0  0  0  0  0
  -20.2975  -26.4741   20.7079 C   0  0  0  0  0  0  0  0  0  0  0  0
  -30.5399  -12.3003   19.2123 C   0  0  0  0  0  0  0  0  0  0  0  0
  -24.5304  -16.4094   18.4678 C   0  0  0  0  0  0  0  0  0  0  0  0
  -25.3494  -17.6377   21.0300 C   0  0  0  0  0  0  0  0  0  0  0  0
  -30.0590  -13.4437   20.1021 C   0  0  0  0  0  0  0  0  0  0  0  0
  -19.3726  -29.7230   21.8511 C   0  0  0  0  0  0  0  0  0  0  0  0
  -28.6892  -13.1219   20.6912 C   0  0  0  0  0  0  0  0  0  0  0  0
  -19.6986  -29.7171   23.3419 C   0  0  0  0  0  0  0  0  0  0  0  0
  -18.8528  -28.3650   21.4008 C   0  0  0  0  0  0  0  0  0  0  0  0
  -20.1811  -27.2108   23.1518 C   0  0  0  0  0  0  0  0  0  0  0  0
  -27.6402  -12.9494   19.5861 C   0  0  1  0  0  0  0  0  0  0  0  0
  -25.9607  -16.3042   18.9879 C   0  0  1  0  0  0  0  0  0  0  0  0
  -20.6268  -28.5614   23.7530 C   0  0  1  0  0  0  0  0  0  0  0  0
  -28.5067  -23.3929   20.7966 C   0  0  0  0  0  0  0  0  0  0  0  0
  -29.0070  -16.9849   22.3962 C   0  0  0  0  0  0  0  0  0  0  0  0
  -29.4865  -19.3785   22.9522 C   0  0  0  0  0  0  0  0  0  0  0  0
  -30.4101  -18.3760   20.8631 C   0  0  0  0  0  0  0  0  0  0  0  0
  -21.3616  -24.3600   20.1020 C   0  0  0  0  0  0  0  0  0  0  0  0
  -25.3910  -22.5429   18.7852 C   0  0  0  0  0  0  0  0  0  0  0  0
  -19.7363  -20.2802   24.7773 C   0  0  0  0  0  0  0  0  0  0  0  0
  -19.5978  -19.0692   23.8523 C   0  0  0  0  0  0  0  0  0  0  0  0
  -20.9365  -18.5134   23.3807 C   0  0  0  0  0  0  0  0  0  1  0  0
  -27.9369  -18.8803   21.0076 C   0  0  1  0  0  0  0  0  0  0  0  0
  -27.5937  -22.5079   19.9624 C   0  0  2  0  0  0  0  0  0  0  0  0
  -29.1834  -18.3961   21.8008 C   0  0  0  0  0  0  0  0  0  0  0  0
  -22.6858  -28.5060   22.3876 N   0  0  0  0  0  0  0  0  0  0  0  0
  -22.0941  -28.9020   23.5274 N   0  0  0  0  0  0  0  0  0  0  0  0
  -26.2971  -17.3682   19.9360 N   0  0  0  0  0  0  0  0  0  0  0  0
  -19.7919  -27.2954   21.7354 N   0  0  0  0  0  0  0  0  0  0  0  0
  -24.0249  -22.6012   23.9643 N   0  0  0  0  0  0  0  0  0  0  0  0
  -22.4878  -30.0573   25.5574 N   0  0  0  0  0  0  0  0  0  0  0  0
  -26.4865  -30.2339   23.4657 N   0  0  0  0  0  0  0  0  0  0  0  0
  -27.2198  -14.2394   19.0824 N   0  0  0  0  0  0  0  0  0  0  0  0
  -28.0858  -20.2027   20.4096 N   0  0  0  0  0  0  0  0  0  0  0  0
  -20.5947  -25.1444   21.0710 N   0  0  0  0  0  0  0  0  0  0  0  0
  -26.3677  -23.2846   19.6236 N   0  3  0  0  0  0  0  0  0  0  0  0
  -18.7237  -24.7383   22.4249 O   0  0  0  0  0  0  0  0  0  0  0  0
  -25.3520  -30.8298   25.3674 O   0  0  0  0  0  0  0  0  0  0  0  0
  -25.5934  -14.7025   20.6833 O   0  0  0  0  0  0  0  0  0  0  0  0
  -28.3899  -17.7398   18.9777 O   0  0  0  0  0  0  0  0  0  0  0  0
  -26.2700  -21.1711   21.4783 O   0  0  0  0  0  0  0  0  0  0  0  0
  -20.4524  -26.8753   19.5488 O   0  0  0  0  0  0  0  0  0  0  0  0
  -27.6908  -28.0717   18.4747 O   0  0  0  0  0  0  0  0  0  0  0  0
  -20.6932  -17.4059   22.5144 O   0  0  0  0  0  0  0  0  0  1  0  0
  -32.7180  -26.3730   19.9733 F   0  0  0  0  0  0  0  0  0  0  0  0
  -29.2699  -29.6114   20.1416 F   0  0  0  0  0  0  0  0  0  0  0  0
  1  2  1  0  0  0  0
  1  5  2  0  0  0  0
  2  6  2  0  0  0  0
  3  8  2  0  0  0  0
  3 18  1  0  0  0  0
  4  9  1  0  0  0  0
  4 18  2  0  0  0  0
  5 21  1  0  0  0  0
  6 23  1  0  0  0  0
  7 10  2  0  0  0  0
  7 22  1  0  0  0  0
  8 27  1  0  0  0  0
  9 27  2  0  0  0  0
 10 28  1  0  0  0  0
 11 12  2  0  0  0  0
 11 29  1  0  0  0  0
 12 30  1  0  0  0  0
 13 19  1  0  0  0  0
 13 25  2  0  0  0  0
 14 19  2  0  0  0  0
 14 26  1  0  0  0  0
 15 24  1  0  0  0  0
 15 28  2  0  0  0  0
 16 25  1  0  0  0  0
 16 26  2  0  0  0  0
 17 30  2  0  0  0  0
 17 31  1  0  0  0  0
 18 32  1  0  0  0  0
 19 34  1  0  0  0  0
 20 32  1  0  0  0  0
 20 33  2  0  0  0  0
 20 35  1  0  0  0  0
 21 23  2  0  0  0  0
 21 40  1  0  0  0  0
 22 24  2  0  0  0  0
 22 41  1  0  0  0  0
 23 49  1  0  0  0  0
 24 42  1  0  0  0  0
 25 58  1  0  0  0  0
 26 68  1  0  0  0  0
 27 81  1  0  0  0  0
 28 82  1  0  0  0  0
 29 31  2  0  0  0  0
 29 81  1  0  0  0  0
 30 83  1  0  0  0  0
 31 84  1  0  0  0  0
 32 64  2  0  0  0  0
 33 65  1  0  0  0  0
 33 69  1  0  0  0  0
 34 73  1  0  0  0  0
 34 75  2  0  0  0  0
 35 70  1  0  0  0  0
 35 76  2  0  0  0  0
 36 50  1  0  0  0  0
 36 71  1  0  0  0  0
 36 77  2  0  0  0  0
 37 61  1  0  0  0  0
 37 66  1  0  0  0  0
 37 78  2  0  0  0  0
 38 62  1  0  0  0  0
 38 72  1  0  0  0  0
 38 79  2  0  0  0  0
 39 67  1  0  0  0  0
 39 73  1  0  0  0  0
 39 80  2  0  0  0  0
 40 43  1  0  0  0  0
 41 50  1  0  0  0  0
 42 66  1  0  0  0  0
 43 45  1  0  0  0  0
 44 46  1  0  0  0  0
 44 47  1  0  0  0  0
 45 49  1  0  0  0  0
 46 51  1  0  0  0  0
 47 67  1  0  0  0  0
 48 51  1  0  0  0  0
 48 67  1  0  0  0  0
 49 71  1  0  0  0  0
 50 66  1  0  0  0  0
 51 65  1  0  0  0  0
 52 62  1  0  0  0  0
 53 63  1  0  0  0  0
 54 63  1  0  0  0  0
 55 63  1  0  0  0  0
 56 73  1  0  0  0  0
 57 74  1  0  0  0  0
 58 59  1  0  0  0  0
 59 60  1  0  0  0  0
 60 82  1  0  0  0  0
 61 63  1  0  0  0  0
 61 72  1  0  0  0  0
 62 74  1  0  0  0  0
 64 65  1  0  0  0  0
M  CHG  1  74   1
M  ISO  4  39 100  60 101  73 100  82 101
M  END
> <Batch ID>
0097

> <Smiles>
CNC(C)C(=O)NC(C(=O)N1Cc2cc([101O:1][101CH2:1]CCc3cc(N)cc(C(=O)[100N:0](C)[100C:0](=O)N4CCCC(n5nc(-c6ccc(Oc7ccc(F)cc7F)cc6)c(C(N)=O)c5N)C4)c3)ccc2CC1C(=O)NC1CCCc2ccccc21)C(C)(C)C

> <Shape>
0.255

> <Color>
0.059

> <Negative vol penalty>
0.000

$$$$

  -OEChem-04052300493D

 87 96  0     1  0  0  0  0  0999 V2000
  -18.1982  -29.8771   26.0863 C   0  0  0  0  0  0  0  0  0  0  0  0
  -19.5838  -29.8654   26.2105 C   0  0  0  0  0  0  0  0  0  0  0  0
  -27.9074  -14.6200   21.2296 C   0  0  0  0  0  0  0  0  0  0  0  0
  -26.1867  -15.0982   19.6024 C   0  0  0  0  0  0  0  0  0  0  0  0
  -17.5973  -29.3478   24.9450 C   0  0  0  0  0  0  0  0  0  0  0  0
  -20.3692  -29.3234   25.1938 C   0  0  0  0  0  0  0  0  0  0  0  0
  -25.9007  -31.2406   23.3957 C   0  0  0  0  0  0  0  0  0  0  0  0
  -28.2568  -24.2529   21.1797 C   0  0  0  0  0  0  0  0  0  0  0  0
  -28.7870  -25.1408   22.1158 C   0  0  0  0  0  0  0  0  0  0  0  0
  -27.4960  -13.2879   21.2731 C   0  0  0  0  0  0  0  0  0  0  0  0
  -25.7754  -13.7661   19.6459 C   0  0  0  0  0  0  0  0  0  0  0  0
  -27.1888  -30.7936   23.6869 C   0  0  0  0  0  0  0  0  0  0  0  0
  -24.0400  -10.5730   19.5958 C   0  0  0  0  0  0  0  0  0  0  0  0
  -22.6704  -10.3195   19.6708 C   0  0  0  0  0  0  0  0  0  0  0  0
  -27.1853  -29.4829   21.6617 C   0  0  0  0  0  0  0  0  0  0  0  0
  -30.3483  -25.9534   20.4607 C   0  0  0  0  0  0  0  0  0  0  0  0
  -22.5587  -11.5392   21.7534 C   0  0  0  0  0  0  0  0  0  0  0  0
  -27.2527  -15.5252   20.3943 C   0  0  0  0  0  0  0  0  0  0  0  0
  -28.9458  -17.3885   19.9832 C   0  0  0  0  0  0  0  0  0  0  0  0
  -18.3762  -28.8077   23.9095 C   0  0  0  0  0  0  0  0  0  0  0  0
  -25.2399  -30.8028   22.2389 C   0  0  0  0  0  0  0  0  0  0  0  0
  -19.7781  -28.7851   24.0382 C   0  0  0  0  0  0  0  0  0  0  0  0
  -25.8898  -29.9278   21.3568 C   0  0  0  0  0  0  0  0  0  0  0  0
  -28.7724  -24.2152   19.8842 C   0  0  0  0  0  0  0  0  0  0  0  0
  -29.8327  -25.9910   21.7563 C   0  0  0  0  0  0  0  0  0  0  0  0
  -26.4301  -12.8609   20.4813 C   0  0  0  0  0  0  0  0  0  0  0  0
  -27.8302  -29.9124   22.8213 C   0  0  0  0  0  0  0  0  0  0  0  0
  -24.6689  -11.3096   20.5996 C   0  0  0  0  0  0  0  0  0  0  0  0
  -21.9298  -10.8026   20.7496 C   0  0  0  0  0  0  0  0  0  0  0  0
  -29.8181  -25.0654   19.5247 C   0  0  0  0  0  0  0  0  0  0  0  0
  -23.9283  -11.7927   21.6784 C   0  0  0  0  0  0  0  0  0  0  0  0
  -27.6767  -16.9015   20.3494 C   0  0  0  0  0  0  0  0  0  0  0  0
  -28.8381  -18.7524   20.1038 C   0  0  0  0  0  0  0  0  0  0  0  0
  -31.4253  -27.8112   22.5025 C   0  0  0  0  0  0  0  0  0  0  0  0
  -30.1173  -16.6720   19.5709 C   0  0  0  0  0  0  0  0  0  0  0  0
  -22.5815  -29.1591   21.6603 C   0  0  0  0  0  0  0  0  0  0  0  0
  -23.2655  -29.8898   18.5748 C   0  0  0  0  0  0  0  0  0  0  0  0
  -25.6152  -30.7458   16.2525 C   0  0  0  0  0  0  0  0  0  0  0  0
  -25.6719  -23.3230   18.9197 C   0  0  0  0  0  0  0  0  0  0  0  0
  -17.6793  -28.2042   22.7159 C   0  0  0  0  0  0  0  0  0  0  0  0
  -23.8609  -31.3152   21.9254 C   0  0  0  0  0  0  0  0  0  0  0  0
  -25.2317  -29.4438   20.0914 C   0  0  0  0  0  0  0  0  0  0  0  0
  -31.7158  -28.4800   23.8268 C   0  0  0  0  0  0  0  0  0  0  0  0
  -18.6002  -27.9882   21.5178 C   0  0  0  0  0  0  0  0  0  0  0  0
  -25.2339  -21.6179   22.1759 C   0  0  0  0  0  0  0  0  0  0  0  0
  -19.9055  -27.3337   21.9590 C   0  0  0  0  0  0  0  0  0  0  0  0
  -25.8751  -20.2539   21.9265 C   0  0  0  0  0  0  0  0  0  0  0  0
  -24.6750  -22.2251   20.8926 C   0  0  0  0  0  0  0  0  0  0  0  0
  -29.9296  -26.9219   24.0953 C   0  0  0  0  0  0  0  0  0  0  0  0
  -26.3098  -20.9561   19.5394 C   0  0  0  0  0  0  0  0  0  0  0  0
  -20.6652  -28.2283   22.9459 C   0  0  1  0  0  0  0  0  0  0  0  0
  -23.0843  -30.4019   20.9819 C   0  0  1  0  0  0  0  0  0  0  0  0
  -30.4565  -28.2384   24.6504 C   0  0  2  0  0  0  0  0  0  0  0  0
  -26.9242  -20.3378   20.8041 C   0  0  2  0  0  0  0  0  0  0  0  0
  -25.8790  -31.2381   13.8060 C   0  0  0  0  0  0  0  0  0  0  0  0
  -23.0678  -26.9085   17.9560 C   0  0  0  0  0  0  0  0  0  0  0  0
  -24.2463  -27.3506   15.7918 C   0  0  0  0  0  0  0  0  0  0  0  0
  -22.0286  -28.4013   16.2396 C   0  0  0  0  0  0  0  0  0  0  0  0
  -26.9503  -24.8207   17.4358 C   0  0  0  0  0  0  0  0  0  0  0  0
  -26.5696  -33.4951   16.7901 C   0  0  0  0  0  0  0  0  0  0  0  0
  -28.2013  -23.2655   18.8857 C   0  0  0  0  0  0  0  0  0  0  0  0
  -29.4458  -29.3729   24.4810 C   0  0  0  0  0  0  0  0  0  1  0  0
  -24.0692  -29.2391   17.4749 C   0  0  1  0  0  0  0  0  0  0  0  0
  -25.6308  -31.8262   15.1863 C   0  0  2  0  0  0  0  0  0  0  0  0
  -23.3649  -27.9823   16.8903 C   0  0  0  0  0  0  0  0  0  0  0  0
  -26.8254  -17.8768   20.6781 N   0  0  0  0  0  0  0  0  0  0  0  0
  -27.5609  -18.9902   20.5190 N   0  0  0  0  0  0  0  0  0  0  0  0
  -30.3764  -26.8981   22.7146 N   0  0  0  0  0  0  0  0  0  0  0  0
  -23.8807  -29.9683   19.8322 N   0  0  0  0  0  0  0  0  0  0  0  0
  -25.6802  -22.2530   19.8296 N   0  0  0  0  0  0  0  0  0  0  0  0
  -29.7123  -19.7596   19.8941 N   0  0  0  0  0  0  0  0  0  0  0  0
  -30.2959  -16.4129   18.2051 N   0  0  0  0  0  0  0  0  0  0  0  0
  -21.3363  -29.3005   22.2426 N   0  0  0  0  0  0  0  0  0  0  0  0
  -24.3384  -30.2841   16.4932 N   0  0  0  0  0  0  0  0  0  0  0  0
  -26.9060  -23.7091   18.3751 N   0  0  0  0  0  0  0  0  0  0  0  0
  -26.7026  -32.8212   15.4729 N   0  3  0  0  0  0  0  0  0  0  0  0
  -32.0776  -28.0416   21.4945 O   0  0  0  0  0  0  0  0  0  0  0  0
  -30.9719  -16.2590   20.3910 O   0  0  0  0  0  0  0  0  0  0  0  0
  -23.2714  -28.1464   21.6546 O   0  0  0  0  0  0  0  0  0  0  0  0
  -22.1362  -30.3191   18.3256 O   0  0  0  0  0  0  0  0  0  0  0  0
  -26.6342  -30.3482   16.8130 O   0  0  0  0  0  0  0  0  0  0  0  0
  -24.6225  -23.9064   18.6190 O   0  0  0  0  0  0  0  0  0  0  0  0
  -26.0286  -11.5611   20.5233 O   0  0  0  0  0  0  0  0  0  0  0  0
  -29.0872  -29.4740   23.1035 O   0  0  0  0  0  0  0  0  0  1  0  0
  -20.6143  -10.5604   20.8207 F   0  0  0  0  0  0  0  0  0  0  0  0
  -30.3201  -25.0366   18.2823 F   0  0  0  0  0  0  0  0  0  0  0  0
  -24.5268  -12.5019   22.6451 F   0  0  0  0  0  0  0  0  0  0  0  0
  1  2  1  0  0  0  0
  1  5  2  0  0  0  0
  2  6  2  0  0  0  0
  3 10  2  0  0  0  0
  3 18  1  0  0  0  0
  4 11  1  0  0  0  0
  4 18  2  0  0  0  0
  5 20  1  0  0  0  0
  6 22  1  0  0  0  0
  7 12  2  0  0  0  0
  7 21  1  0  0  0  0
  8  9  2  0  0  0  0
  8 24  1  0  0  0  0
  9 25  1  0  0  0  0
 10 26  1  0  0  0  0
 11 26  2  0  0  0  0
 12 27  1  0  0  0  0
 13 14  2  0  0  0  0
 13 28  1  0  0  0  0
 14 29  1  0  0  0  0
 15 23  1  0  0  0  0
 15 27  2  0  0  0  0
 16 25  2  0  0  0  0
 16 30  1  0  0  0  0
 17 29  2  0  0  0  0
 17 31  1  0  0  0  0
 18 32  1  0  0  0  0
 19 32  1  0  0  0  0
 19 33  2  0  0  0  0
 19 35  1  0  0  0  0
 20 22  2  0  0  0  0
 20 40  1  0  0  0  0
 21 23  2  0  0  0  0
 21 41  1  0  0  0  0
 22 51  1  0  0  0  0
 23 42  1  0  0  0  0
 24 30  2  0  0  0  0
 24 61  1  0  0  0  0
 25 68  1  0  0  0  0
 26 83  1  0  0  0  0
 27 84  1  0  0  0  0
 28 31  2  0  0  0  0
 28 83  1  0  0  0  0
 29 85  1  0  0  0  0
 30 86  1  0  0  0  0
 31 87  1  0  0  0  0
 32 66  2  0  0  0  0
 33 67  1  0  0  0  0
 33 71  1  0  0  0  0
 34 43  1  0  0  0  0
 34 68  1  0  0  0  0
 34 77  2  0  0  0  0
 35 72  1  0  0  0  0
 35 78  2  0  0  0  0
 36 52  1  0  0  0  0
 36 73  1  0  0  0  0
 36 79  2  0  0  0  0
 37 63  1  0  0  0  0
 37 69  1  0  0  0  0
 37 80  2  0  0  0  0
 38 64  1  0  0  0  0
 38 74  1  0  0  0  0
 38 81  2  0  0  0  0
 39 70  1  0  0  0  0
 39 75  1  0  0  0  0
 39 82  2  0  0  0  0
 40 44  1  0  0  0  0
 41 52  1  0  0  0  0
 42 69  1  0  0  0  0
 43 53  1  0  0  0  0
 44 46  1  0  0  0  0
 45 47  1  0  0  0  0
 45 48  1  0  0  0  0
 46 51  1  0  0  0  0
 47 54  1  0  0  0  0
 48 70  1  0  0  0  0
 49 53  1  0  0  0  0
 49 68  1  0  0  0  0
 50 54  1  0  0  0  0
 50 70  1  0  0  0  0
 51 73  1  0  0  0  0
 52 69  1  0  0  0  0
 53 62  1  0  0  0  0
 54 67  1  0  0  0  0
 55 64  1  0  0  0  0
 56 65  1  0  0  0  0
 57 65  1  0  0  0  0
 58 65  1  0  0  0  0
 59 75  1  0  0  0  0
 60 76  1  0  0  0  0
 61 75  1  0  0  0  0
 62 84  1  0  0  0  0
 63 65  1  0  0  0  0
 63 74  1  0  0  0  0
 64 76  1  0  0  0  0
 66 67  1  0  0  0  0
M  CHG  1  76   1
M  ISO  4  39 100  62 101  75 100  84 101
M  END
> <Batch ID>
0097

> <Smiles>
CNC(C)C(=O)NC(C(=O)N1Cc2cc([101O:1][101CH2:1]C3CC(=O)N(c4ccc(C[100N:0](C)[100C:0](=O)N5CCCC(n6nc(-c7ccc(Oc8ccc(F)cc8F)cc7)c(C(N)=O)c6N)C5)c(F)c4)C3)ccc2CC1C(=O)NC1CCCc2ccccc21)C(C)(C)C

> <Shape>
0.262

> <Color>
0.085

> <Negative vol penalty>
0.000

$$$$

  -OEChem-04052300493D

 87 96  0     1  0  0  0  0  0999 V2000
  -30.4983  -25.0804   16.5978 C   0  0  0  0  0  0  0  0  0  0  0  0
  -29.1459  -24.8272   16.7974 C   0  0  0  0  0  0  0  0  0  0  0  0
  -28.2959  -17.5778   21.6888 C   0  0  0  0  0  0  0  0  0  0  0  0
  -28.6842  -17.0032   19.3745 C   0  0  0  0  0  0  0  0  0  0  0  0
  -20.9954  -15.2157   19.4660 C   0  0  0  0  0  0  0  0  0  0  0  0
  -20.8679  -15.5250   21.8587 C   0  0  0  0  0  0  0  0  0  0  0  0
  -31.1847  -25.9141   17.4782 C   0  0  0  0  0  0  0  0  0  0  0  0
  -28.4767  -25.4169   17.8704 C   0  0  0  0  0  0  0  0  0  0  0  0
  -23.6000  -24.8009   18.0740 C   0  0  0  0  0  0  0  0  0  0  0  0
  -20.5307  -16.5166   19.2731 C   0  0  0  0  0  0  0  0  0  0  0  0
  -20.4032  -16.8260   21.6658 C   0  0  0  0  0  0  0  0  0  0  0  0
  -28.7210  -18.8820   21.4363 C   0  0  0  0  0  0  0  0  0  0  0  0
  -29.1092  -18.3075   19.1220 C   0  0  0  0  0  0  0  0  0  0  0  0
  -23.0072  -23.5820   18.4007 C   0  0  0  0  0  0  0  0  0  0  0  0
  -27.4473  -21.6941   20.0568 C   0  0  0  0  0  0  0  0  0  0  0  0
  -26.6835  -22.7375   20.5797 C   0  0  0  0  0  0  0  0  0  0  0  0
  -22.5241  -24.4165   20.6119 C   0  0  0  0  0  0  0  0  0  0  0  0
  -28.5952  -23.5041   21.8425 C   0  0  0  0  0  0  0  0  0  0  0  0
  -28.2775  -16.6383   20.6579 C   0  0  0  0  0  0  0  0  0  0  0  0
  -21.1640  -14.7199   20.7589 C   0  0  0  0  0  0  0  0  0  0  0  0
  -28.4026  -14.3737   21.8255 C   0  0  0  0  0  0  0  0  0  0  0  0
  -30.5257  -26.5040   18.5694 C   0  0  0  0  0  0  0  0  0  0  0  0
  -23.6691  -25.8347   19.0189 C   0  0  0  0  0  0  0  0  0  0  0  0
  -29.1465  -26.2803   18.7562 C   0  0  0  0  0  0  0  0  0  0  0  0
  -23.1160  -25.6484   20.2938 C   0  0  0  0  0  0  0  0  0  0  0  0
  -20.2346  -17.3218   20.3729 C   0  0  0  0  0  0  0  0  0  0  0  0
  -29.1277  -19.2469   20.1529 C   0  0  0  0  0  0  0  0  0  0  0  0
  -22.4718  -23.3886   19.6707 C   0  0  0  0  0  0  0  0  0  0  0  0
  -28.7851  -21.5556   20.4268 C   0  0  0  0  0  0  0  0  0  0  0  0
  -27.2574  -23.6425   21.4725 C   0  0  0  0  0  0  0  0  0  0  0  0
  -29.3590  -22.4606   21.3196 C   0  0  0  0  0  0  0  0  0  0  0  0
  -27.8391  -15.2907   20.9182 C   0  0  0  0  0  0  0  0  0  0  0  0
  -27.6290  -13.2459   21.6990 C   0  0  0  0  0  0  0  0  0  0  0  0
  -18.5442  -18.8398   19.4519 C   0  0  0  0  0  0  0  0  0  0  0  0
  -20.5325  -19.7366   20.7002 C   0  0  0  0  0  0  0  0  0  0  0  0
  -21.6483  -13.3635   20.9601 C   0  0  0  0  0  0  0  0  0  0  0  0
  -29.5251  -14.5275   22.7042 C   0  0  0  0  0  0  0  0  0  0  0  0
  -21.9719  -12.4824   19.8146 C   0  0  0  0  0  0  0  0  0  0  0  0
  -26.0290  -27.4145   20.4467 C   0  0  0  0  0  0  0  0  0  0  0  0
  -23.5937  -29.1991   21.6329 C   0  0  0  0  0  0  0  0  0  0  0  0
  -20.2949  -28.5985   22.9650 C   0  0  0  0  0  0  0  0  0  0  0  0
  -31.3153  -27.4042   19.4867 C   0  0  0  0  0  0  0  0  0  0  0  0
  -24.2879  -27.1528   18.6422 C   0  0  0  0  0  0  0  0  0  0  0  0
  -23.1465  -26.7337   21.3378 C   0  0  0  0  0  0  0  0  0  0  0  0
  -18.1415  -20.2582   19.1051 C   0  0  0  0  0  0  0  0  0  0  0  0
  -30.6354  -27.6235   20.8343 C   0  0  0  0  0  0  0  0  0  0  0  0
  -19.2508  -21.2711   19.2667 C   0  0  0  0  0  0  0  0  0  0  0  0
  -24.9223  -10.8819   18.5535 C   0  0  0  0  0  0  0  0  0  0  0  0
  -29.1804  -28.0152   20.6248 C   0  0  0  0  0  0  0  0  0  0  0  0
  -26.0537  -11.7711   19.0683 C   0  0  0  0  0  0  0  0  0  0  0  0
  -23.6781  -11.6986   18.2198 C   0  0  0  0  0  0  0  0  0  0  0  0
  -24.3164  -13.4315   19.8746 C   0  0  0  0  0  0  0  0  0  0  0  0
  -28.4049  -26.8863   19.9340 C   0  0  1  0  0  0  0  0  0  0  0  0
  -19.8568  -21.0995   20.6481 C   0  0  2  0  0  0  0  0  0  0  0  0
  -24.7617  -27.9571   19.8489 C   0  0  1  0  0  0  0  0  0  0  0  0
  -25.5809  -12.6385   20.2484 C   0  0  2  0  0  0  0  0  0  0  0  0
  -18.2640  -30.0717   23.0189 C   0  0  0  0  0  0  0  0  0  0  0  0
  -24.5974  -29.9896   24.4037 C   0  0  0  0  0  0  0  0  0  0  0  0
  -22.2176  -30.0195   25.1809 C   0  0  0  0  0  0  0  0  0  0  0  0
  -22.9630  -31.5887   23.3908 C   0  0  0  0  0  0  0  0  0  0  0  0
  -18.6346  -26.5561   21.6118 C   0  0  0  0  0  0  0  0  0  0  0  0
  -20.8376  -22.2296   20.9521 C   0  0  0  0  0  0  0  0  0  1  0  0
  -22.7159  -29.1294   22.8591 C   0  0  1  0  0  0  0  0  0  0  0  0
  -18.9717  -28.9333   22.3005 C   0  0  2  0  0  0  0  0  0  0  0  0
  -23.1346  -30.1584   23.9469 C   0  0  0  0  0  0  0  0  0  0  0  0
  -26.7886  -14.7889   20.2635 N   0  0  0  0  0  0  0  0  0  0  0  0
  -21.8313  -12.8355   22.1402 N   0  0  0  0  0  0  0  0  0  0  0  0
  -26.6859  -13.5442   20.7599 N   0  0  0  0  0  0  0  0  0  0  0  0
  -19.7519  -18.6736   20.1712 N   0  0  0  0  0  0  0  0  0  0  0  0
  -23.2779  -12.5370   19.3481 N   0  0  0  0  0  0  0  0  0  0  0  0
  -23.7680  -28.0024   20.9235 N   0  0  0  0  0  0  0  0  0  0  0  0
  -27.6701  -12.0380   22.3004 N   0  0  0  0  0  0  0  0  0  0  0  0
  -30.7980  -14.1842   22.2285 N   0  0  0  0  0  0  0  0  0  0  0  0
  -27.0929  -27.3712   19.5660 N   0  0  0  0  0  0  0  0  0  0  0  0
  -21.3437  -29.2829   22.3881 N   0  0  0  0  0  0  0  0  0  0  0  0
  -18.0738  -27.7439   22.3059 N   0  3  0  0  0  0  0  0  0  0  0  0
  -17.7597  -17.9305   19.1626 O   0  0  0  0  0  0  0  0  0  0  0  0
  -21.6713  -19.6207   21.1576 O   0  0  0  0  0  0  0  0  0  0  0  0
  -29.4008  -14.9412   23.8819 O   0  0  0  0  0  0  0  0  0  0  0  0
  -21.0470  -11.7965   19.3991 O   0  0  0  0  0  0  0  0  0  0  0  0
  -26.0411  -27.0627   21.6205 O   0  0  0  0  0  0  0  0  0  0  0  0
  -24.1001  -30.2772   21.3122 O   0  0  0  0  0  0  0  0  0  0  0  0
  -20.3882  -27.8116   23.9044 O   0  0  0  0  0  0  0  0  0  0  0  0
  -29.5423  -20.5196   19.9062 O   0  0  0  0  0  0  0  0  0  0  0  0
  -21.8932  -22.1997   19.9924 O   0  0  0  0  0  0  0  0  0  1  0  0
  -26.5242  -24.6454   21.9734 F   0  0  0  0  0  0  0  0  0  0  0  0
  -30.6441  -22.3334   21.6778 F   0  0  0  0  0  0  0  0  0  0  0  0
  1  2  1  0  0  0  0
  1  7  2  0  0  0  0
  2  8  2  0  0  0  0
  3 12  2  0  0  0  0
  3 19  1  0  0  0  0
  4 13  1  0  0  0  0
  4 19  2  0  0  0  0
  5 10  2  0  0  0  0
  5 20  1  0  0  0  0
  6 11  1  0  0  0  0
  6 20  2  0  0  0  0
  7 22  1  0  0  0  0
  8 24  1  0  0  0  0
  9 14  2  0  0  0  0
  9 23  1  0  0  0  0
 10 26  1  0  0  0  0
 11 26  2  0  0  0  0
 12 27  1  0  0  0  0
 13 27  2  0  0  0  0
 14 28  1  0  0  0  0
 15 16  2  0  0  0  0
 15 29  1  0  0  0  0
 16 30  1  0  0  0  0
 17 25  1  0  0  0  0
 17 28  2  0  0  0  0
 18 30  2  0  0  0  0
 18 31  1  0  0  0  0
 19 32  1  0  0  0  0
 20 36  1  0  0  0  0
 21 32  1  0  0  0  0
 21 33  2  0  0  0  0
 21 37  1  0  0  0  0
 22 24  2  0  0  0  0
 22 42  1  0  0  0  0
 23 25  2  0  0  0  0
 23 43  1  0  0  0  0
 24 53  1  0  0  0  0
 25 44  1  0  0  0  0
 26 69  1  0  0  0  0
 27 84  1  0  0  0  0
 28 85  1  0  0  0  0
 29 31  2  0  0  0  0
 29 84  1  0  0  0  0
 30 86  1  0  0  0  0
 31 87  1  0  0  0  0
 32 66  2  0  0  0  0
 33 68  1  0  0  0  0
 33 72  1  0  0  0  0
 34 45  1  0  0  0  0
 34 69  1  0  0  0  0
 34 77  2  0  0  0  0
 35 54  1  0  0  0  0
 35 69  1  0  0  0  0
 35 78  2  0  0  0  0
 36 38  1  0  0  0  0
 36 67  2  0  0  0  0
 37 73  1  0  0  0  0
 37 79  2  0  0  0  0
 38 70  1  0  0  0  0
 38 80  2  0  0  0  0
 39 55  1  0  0  0  0
 39 74  1  0  0  0  0
 39 81  2  0  0  0  0
 40 63  1  0  0  0  0
 40 71  1  0  0  0  0
 40 82  2  0  0  0  0
 41 64  1  0  0  0  0
 41 75  1  0  0  0  0
 41 83  2  0  0  0  0
 42 46  1  0  0  0  0
 43 55  1  0  0  0  0
 44 71  1  0  0  0  0
 45 47  1  0  0  0  0
 46 49  1  0  0  0  0
 47 54  1  0  0  0  0
 48 50  1  0  0  0  0
 48 51  1  0  0  0  0
 49 53  1  0  0  0  0
 50 56  1  0  0  0  0
 51 70  1  0  0  0  0
 52 56  1  0  0  0  0
 52 70  1  0  0  0  0
 53 74  1  0  0  0  0
 54 62  1  0  0  0  0
 55 71  1  0  0  0  0
 56 68  1  0  0  0  0
 57 64  1  0  0  0  0
 58 65  1  0  0  0  0
 59 65  1  0  0  0  0
 60 65  1  0  0  0  0
 61 76  1  0  0  0  0
 62 85  1  0  0  0  0
 63 65  1  0  0  0  0
 63 75  1  0  0  0  0
 64 76  1  0  0  0  0
 66 68  1  0  0  0  0
M  CHG  1  76   1
M  ISO  4  36 100  38 100  62 101  85 101
M  END
> <Batch ID>
0097

> <Smiles>
CNC(C)C(=O)NC(C(=O)N1Cc2cc([101O:1][101CH2:1]C3CCC(=O)N(c4ccc([100C:0](=N)[100C:0](=O)N5CCCC(n6nc(-c7ccc(Oc8ccc(F)cc8F)cc7)c(C(N)=O)c6N)C5)cc4)C3=O)ccc2CC1C(=O)NC1CCCc2ccccc21)C(C)(C)C

> <Shape>
0.259

> <Color>
0.056

> <Negative vol penalty>
0.000

$$$$

  -OEChem-04052300493D

 86 95  0     1  0  0  0  0  0999 V2000
  -22.7526   -8.5734   21.9433 C   0  0  0  0  0  0  0  0  0  0  0  0
  -23.9808   -9.1495   22.2515 C   0  0  0  0  0  0  0  0  0  0  0  0
  -22.1990  -29.0550   23.5663 C   0  0  0  0  0  0  0  0  0  0  0  0
  -21.2368  -28.6253   21.3923 C   0  0  0  0  0  0  0  0  0  0  0  0
  -31.9128  -23.5236   20.0060 C   0  0  0  0  0  0  0  0  0  0  0  0
  -21.9842   -9.0888   20.9003 C   0  0  0  0  0  0  0  0  0  0  0  0
  -24.4419  -10.2409   21.5161 C   0  0  0  0  0  0  0  0  0  0  0  0
  -28.3025  -16.2314   22.2407 C   0  0  0  0  0  0  0  0  0  0  0  0
  -30.8392  -24.3905   19.8025 C   0  0  0  0  0  0  0  0  0  0  0  0
  -21.0495  -28.5510   24.1747 C   0  0  0  0  0  0  0  0  0  0  0  0
  -20.0873  -28.1212   22.0007 C   0  0  0  0  0  0  0  0  0  0  0  0
  -29.3867  -16.8905   21.6629 C   0  0  0  0  0  0  0  0  0  0  0  0
  -17.3094  -29.3521   23.4837 C   0  0  0  0  0  0  0  0  0  0  0  0
  -16.0758  -29.7633   22.9792 C   0  0  0  0  0  0  0  0  0  0  0  0
  -32.5786  -23.8070   17.7009 C   0  0  0  0  0  0  0  0  0  0  0  0
  -27.9379  -17.7460   19.9344 C   0  0  0  0  0  0  0  0  0  0  0  0
  -15.5171  -27.4676   22.4742 C   0  0  0  0  0  0  0  0  0  0  0  0
  -22.2926  -29.0922   22.1751 C   0  0  0  0  0  0  0  0  0  0  0  0
  -32.7826  -23.2319   18.9552 C   0  0  0  0  0  0  0  0  0  0  0  0
  -24.0117  -30.9100   21.6770 C   0  0  0  0  0  0  0  0  0  0  0  0
  -22.4317  -10.1930   20.1580 C   0  0  0  0  0  0  0  0  0  0  0  0
  -27.0278  -16.3160   21.6625 C   0  0  0  0  0  0  0  0  0  0  0  0
  -23.6794  -10.7707   20.4613 C   0  0  0  0  0  0  0  0  0  0  0  0
  -26.8386  -17.0892   20.5082 C   0  0  0  0  0  0  0  0  0  0  0  0
  -30.6352  -24.9656   18.5482 C   0  0  0  0  0  0  0  0  0  0  0  0
  -19.9936  -28.0841   23.3919 C   0  0  0  0  0  0  0  0  0  0  0  0
  -29.2051  -17.6456   20.5080 C   0  0  0  0  0  0  0  0  0  0  0  0
  -17.6470  -27.9987   23.4834 C   0  0  0  0  0  0  0  0  0  0  0  0
  -15.1796  -28.8211   22.4745 C   0  0  0  0  0  0  0  0  0  0  0  0
  -31.5049  -24.6739   17.4974 C   0  0  0  0  0  0  0  0  0  0  0  0
  -16.7509  -27.0565   22.9787 C   0  0  0  0  0  0  0  0  0  0  0  0
  -23.4796  -29.6133   21.5460 C   0  0  0  0  0  0  0  0  0  0  0  0
  -25.1351  -30.9016   20.8869 C   0  0  0  0  0  0  0  0  0  0  0  0
  -33.9150  -22.3172   19.1699 C   0  0  0  0  0  0  0  0  0  0  0  0
  -23.5333  -32.0227   22.4444 C   0  0  0  0  0  0  0  0  0  0  0  0
  -24.9926  -14.2240   20.4034 C   0  0  0  0  0  0  0  0  0  0  0  0
  -23.0323  -16.8047   20.2643 C   0  0  0  0  0  0  0  0  0  0  0  0
  -22.7177  -20.2007   20.1419 C   0  0  0  0  0  0  0  0  0  0  0  0
  -28.5816  -26.2448   19.2768 C   0  0  0  0  0  0  0  0  0  0  0  0
  -21.5878  -10.6855   19.0091 C   0  0  0  0  0  0  0  0  0  0  0  0
  -25.8633  -15.6209   22.3130 C   0  0  0  0  0  0  0  0  0  0  0  0
  -25.4863  -17.2285   19.8598 C   0  0  0  0  0  0  0  0  0  0  0  0
  -21.9766  -12.0786   18.5210 C   0  0  0  0  0  0  0  0  0  0  0  0
  -26.2815  -28.2852   16.9811 C   0  0  0  0  0  0  0  0  0  0  0  0
  -23.4899  -12.1854   18.3617 C   0  0  0  0  0  0  0  0  0  0  0  0
  -25.9196  -29.4238   17.9319 C   0  0  0  0  0  0  0  0  0  0  0  0
  -33.9710  -18.8441   20.4095 C   0  0  0  0  0  0  0  0  0  0  0  0
  -27.5916  -27.6080   17.3632 C   0  0  0  0  0  0  0  0  0  0  0  0
  -34.6785  -20.0424   19.7959 C   0  0  0  0  0  0  0  0  0  0  0  0
  -32.3040  -20.4252   19.7539 C   0  0  0  0  0  0  0  0  0  0  0  0
  -26.5398  -27.6200   19.6325 C   0  0  0  0  0  0  0  0  0  0  0  0
  -24.2023  -11.9711   19.7026 C   0  0  1  0  0  0  0  0  0  0  0  0
  -24.7106  -15.3570   21.3491 C   0  0  1  0  0  0  0  0  0  0  0  0
  -32.5708  -18.9216   19.7964 C   0  0  2  0  0  0  0  0  0  0  0  0
  -26.2617  -29.1137   19.4027 C   0  0  2  0  0  0  0  0  0  0  0  0
  -20.9902  -22.0150   19.9954 C   0  0  0  0  0  0  0  0  0  0  0  0
  -22.6494  -16.1973   17.2987 C   0  0  0  0  0  0  0  0  0  0  0  0
  -21.7299  -18.5087   17.0154 C   0  0  0  0  0  0  0  0  0  0  0  0
  -20.5653  -16.8785   18.5017 C   0  0  0  0  0  0  0  0  0  0  0  0
  -23.5434  -21.3565   22.7383 C   0  0  0  0  0  0  0  0  0  0  0  0
  -31.5284  -18.1480   20.5836 C   0  0  0  0  0  0  0  0  0  1  0  0
  -22.7603  -17.8871   19.2477 C   0  0  1  0  0  0  0  0  0  0  0  0
  -21.8382  -21.1597   20.9239 C   0  0  2  0  0  0  0  0  0  0  0  0
  -21.9522  -17.3639   18.0268 C   0  0  0  0  0  0  0  0  0  0  0  0
  -24.2052  -28.8376   20.7362 N   0  0  0  0  0  0  0  0  0  0  0  0
  -25.2047  -29.6492   20.3512 N   0  0  0  0  0  0  0  0  0  0  0  0
  -33.6259  -21.0221   19.5713 N   0  0  0  0  0  0  0  0  0  0  0  0
  -24.3802  -16.5248   20.5299 N   0  0  0  0  0  0  0  0  0  0  0  0
  -27.6143  -27.1390   18.7563 N   0  0  0  0  0  0  0  0  0  0  0  0
  -26.0603  -31.8434   20.6049 N   0  0  0  0  0  0  0  0  0  0  0  0
  -22.6368  -32.9147   21.8404 N   0  0  0  0  0  0  0  0  0  0  0  0
  -29.5430  -25.8456   18.3446 N   0  0  0  0  0  0  0  0  0  0  0  0
  -24.1141  -13.1635   20.5181 N   0  0  0  0  0  0  0  0  0  0  0  0
  -22.1111  -18.9741   19.9725 N   0  0  0  0  0  0  0  0  0  0  0  0
  -22.6753  -22.0639   21.7621 N   0  3  0  0  0  0  0  0  0  0  0  0
  -35.0443  -22.7597   18.9687 O   0  0  0  0  0  0  0  0  0  0  0  0
  -23.9030  -32.2291   23.6251 O   0  0  0  0  0  0  0  0  0  0  0  0
  -25.9364  -14.3064   19.6262 O   0  0  0  0  0  0  0  0  0  0  0  0
  -22.0837  -16.2337   20.8081 O   0  0  0  0  0  0  0  0  0  0  0  0
  -23.8298  -20.5102   19.7202 O   0  0  0  0  0  0  0  0  0  0  0  0
  -28.5592  -25.8797   20.4541 O   0  0  0  0  0  0  0  0  0  0  0  0
  -18.8719  -27.5919   23.9853 O   0  0  0  0  0  0  0  0  0  0  0  0
  -30.2618  -18.2894   19.9417 O   0  0  0  0  0  0  0  0  0  1  0  0
  -13.9943  -29.2159   21.9915 F   0  0  0  0  0  0  0  0  0  0  0  0
  -31.3184  -25.2203   16.2872 F   0  0  0  0  0  0  0  0  0  0  0  0
  -17.0691  -25.7547   22.9768 F   0  0  0  0  0  0  0  0  0  0  0  0
  1  2  1  0  0  0  0
  1  6  2  0  0  0  0
  2  7  2  0  0  0  0
  3 10  2  0  0  0  0
  3 18  1  0  0  0  0
  4 11  1  0  0  0  0
  4 18  2  0  0  0  0
  5  9  2  0  0  0  0
  5 19  1  0  0  0  0
  6 21  1  0  0  0  0
  7 23  1  0  0  0  0
  8 12  2  0  0  0  0
  8 22  1  0  0  0  0
  9 25  1  0  0  0  0
 10 26  1  0  0  0  0
 11 26  2  0  0  0  0
 12 27  1  0  0  0  0
 13 14  2  0  0  0  0
 13 28  1  0  0  0  0
 14 29  1  0  0  0  0
 15 19  2  0  0  0  0
 15 30  1  0  0  0  0
 16 24  1  0  0  0  0
 16 27  2  0  0  0  0
 17 29  2  0  0  0  0
 17 31  1  0  0  0  0
 18 32  1  0  0  0  0
 19 34  1  0  0  0  0
 20 32  1  0  0  0  0
 20 33  2  0  0  0  0
 20 35  1  0  0  0  0
 21 23  2  0  0  0  0
 21 40  1  0  0  0  0
 22 24  2  0  0  0  0
 22 41  1  0  0  0  0
 23 52  1  0  0  0  0
 24 42  1  0  0  0  0
 25 30  2  0  0  0  0
 25 72  1  0  0  0  0
 26 82  1  0  0  0  0
 27 83  1  0  0  0  0
 28 31  2  0  0  0  0
 28 82  1  0  0  0  0
 29 84  1  0  0  0  0
 30 85  1  0  0  0  0
 31 86  1  0  0  0  0
 32 65  2  0  0  0  0
 33 66  1  0  0  0  0
 33 70  1  0  0  0  0
 34 67  1  0  0  0  0
 34 76  2  0  0  0  0
 35 71  1  0  0  0  0
 35 77  2  0  0  0  0
 36 53  1  0  0  0  0
 36 73  1  0  0  0  0
 36 78  2  0  0  0  0
 37 62  1  0  0  0  0
 37 68  1  0  0  0  0
 37 79  2  0  0  0  0
 38 63  1  0  0  0  0
 38 74  1  0  0  0  0
 38 80  2  0  0  0  0
 39 69  1  0  0  0  0
 39 72  1  0  0  0  0
 39 81  2  0  0  0  0
 40 43  1  0  0  0  0
 41 53  1  0  0  0  0
 42 68  1  0  0  0  0
 43 45  1  0  0  0  0
 44 46  1  0  0  0  0
 44 48  1  0  0  0  0
 45 52  1  0  0  0  0
 46 55  1  0  0  0  0
 47 49  1  0  0  0  0
 47 54  1  0  0  0  0
 48 69  1  0  0  0  0
 49 67  1  0  0  0  0
 50 54  1  0  0  0  0
 50 67  1  0  0  0  0
 51 55  1  0  0  0  0
 51 69  1  0  0  0  0
 52 73  1  0  0  0  0
 53 68  1  0  0  0  0
 54 61  1  0  0  0  0
 55 66  1  0  0  0  0
 56 63  1  0  0  0  0
 57 64  1  0  0  0  0
 58 64  1  0  0  0  0
 59 64  1  0  0  0  0
 60 75  1  0  0  0  0
 61 83  1  0  0  0  0
 62 64  1  0  0  0  0
 62 74  1  0  0  0  0
 63 75  1  0  0  0  0
 65 66  1  0  0  0  0
M  CHG  1  75   1
M  ISO  4  39 100  61 101  72 100  83 101
M  END
> <Batch ID>
0097

> <Smiles>
CNC(C)C(=O)NC(C(=O)N1Cc2cc([101O:1][101CH2:1]C3CCN(C(=O)c4ccc([100NH:0][100C:0](=O)N5CCCC(n6nc(-c7ccc(Oc8ccc(F)cc8F)cc7)c(C(N)=O)c6N)C5)c(F)c4)C3)ccc2CC1C(=O)NC1CCCc2ccccc21)C(C)(C)C

> <Shape>
0.251

> <Color>
0.076

> <Negative vol penalty>
0.000

$$$$

  -OEChem-04052300493D

 87 96  0     1  0  0  0  0  0999 V2000
  -27.4620  -11.1041   19.4045 C   0  0  0  0  0  0  0  0  0  0  0  0
  -28.0515  -12.3148   19.0551 C   0  0  0  0  0  0  0  0  0  0  0  0
  -20.5847  -27.0484   22.4187 C   0  0  0  0  0  0  0  0  0  0  0  0
  -19.0347  -28.8923   22.6052 C   0  0  0  0  0  0  0  0  0  0  0  0
  -30.5236  -29.4598   21.4444 C   0  0  0  0  0  0  0  0  0  0  0  0
  -26.1212  -11.0670   19.7850 C   0  0  0  0  0  0  0  0  0  0  0  0
  -27.3001  -13.4891   19.0849 C   0  0  0  0  0  0  0  0  0  0  0  0
  -29.2768  -19.0875   20.5868 C   0  0  0  0  0  0  0  0  0  0  0  0
  -30.8014  -28.5171   20.4547 C   0  0  0  0  0  0  0  0  0  0  0  0
  -19.5493  -26.1514   22.6812 C   0  0  0  0  0  0  0  0  0  0  0  0
  -17.9992  -27.9952   22.8676 C   0  0  0  0  0  0  0  0  0  0  0  0
  -29.6769  -20.1788   19.8170 C   0  0  0  0  0  0  0  0  0  0  0  0
  -17.3828  -23.3991   23.6581 C   0  0  0  0  0  0  0  0  0  0  0  0
  -17.6292  -22.3698   24.5666 C   0  0  0  0  0  0  0  0  0  0  0  0
  -27.4595  -21.1115   19.9976 C   0  0  0  0  0  0  0  0  0  0  0  0
  -28.9025  -27.2060   21.1705 C   0  0  0  0  0  0  0  0  0  0  0  0
  -18.0929  -24.0003   26.2881 C   0  0  0  0  0  0  0  0  0  0  0  0
  -20.3274  -28.4189   22.3807 C   0  0  0  0  0  0  0  0  0  0  0  0
  -29.4352  -29.2757   22.2973 C   0  0  0  0  0  0  0  0  0  0  0  0
  -21.8111  -29.8220   20.8518 C   0  0  0  0  0  0  0  0  0  0  0  0
  -25.3556  -12.2428   19.8288 C   0  0  0  0  0  0  0  0  0  0  0  0
  -27.9599  -18.9944   21.0595 C   0  0  0  0  0  0  0  0  0  0  0  0
  -25.9474  -13.4675   19.4650 C   0  0  0  0  0  0  0  0  0  0  0  0
  -27.0460  -20.0192   20.7754 C   0  0  0  0  0  0  0  0  0  0  0  0
  -29.9909  -27.3902   20.3177 C   0  0  0  0  0  0  0  0  0  0  0  0
  -18.2566  -26.6248   22.9056 C   0  0  0  0  0  0  0  0  0  0  0  0
  -28.7675  -21.1896   19.5198 C   0  0  0  0  0  0  0  0  0  0  0  0
  -17.4916  -24.7290   24.0645 C   0  0  0  0  0  0  0  0  0  0  0  0
  -17.9842  -22.6704   25.8816 C   0  0  0  0  0  0  0  0  0  0  0  0
  -28.6247  -28.1488   22.1603 C   0  0  0  0  0  0  0  0  0  0  0  0
  -17.8466  -25.0296   25.3795 C   0  0  0  0  0  0  0  0  0  0  0  0
  -21.3966  -29.3460   22.1102 C   0  0  0  0  0  0  0  0  0  0  0  0
  -22.8536  -30.6711   21.1322 C   0  0  0  0  0  0  0  0  0  0  0  0
  -31.3847  -24.5860   17.5591 C   0  0  0  0  0  0  0  0  0  0  0  0
  -30.6518  -24.1197   18.5838 C   0  0  0  0  0  0  0  0  0  0  0  0
  -29.1435  -30.2821   23.3503 C   0  0  0  0  0  0  0  0  0  0  0  0
  -21.2994  -29.5233   19.5462 C   0  0  0  0  0  0  0  0  0  0  0  0
  -25.5619  -16.9524   20.6310 C   0  0  0  0  0  0  0  0  0  0  0  0
  -24.1252  -18.7671   22.9037 C   0  0  0  0  0  0  0  0  0  0  0  0
  -23.9094  -21.7756   24.5003 C   0  0  0  0  0  0  0  0  0  0  0  0
  -27.3184  -31.2709   24.6975 C   0  0  0  0  0  0  0  0  0  0  0  0
  -23.8972  -12.1460   20.2009 C   0  0  0  0  0  0  0  0  0  0  0  0
  -27.5513  -17.8239   21.9111 C   0  0  0  0  0  0  0  0  0  0  0  0
  -25.6261  -19.9767   21.2760 C   0  0  0  0  0  0  0  0  0  0  0  0
  -31.5037  -26.0451   17.2484 C   0  0  0  0  0  0  0  0  0  0  0  0
  -29.9207  -25.0342   19.5401 C   0  0  0  0  0  0  0  0  0  0  0  0
  -23.2716  -13.4895   20.5670 C   0  0  0  0  0  0  0  0  0  0  0  0
  -24.3536  -33.1416   25.1534 C   0  0  0  0  0  0  0  0  0  0  0  0
  -23.6537  -14.5532   19.5427 C   0  0  0  0  0  0  0  0  0  0  0  0
  -23.3270  -32.4084   24.2858 C   0  0  0  0  0  0  0  0  0  0  0  0
  -30.4261  -26.8816   17.9361 C   0  0  0  0  0  0  0  0  0  0  0  0
  -25.3116  -32.1705   25.8419 C   0  0  0  0  0  0  0  0  0  0  0  0
  -24.9511  -30.4832   24.0866 C   0  0  0  0  0  0  0  0  0  0  0  0
  -25.1719  -14.7663   19.5088 C   0  0  1  0  0  0  0  0  0  0  0  0
  -26.0455  -17.5794   21.9080 C   0  0  1  0  0  0  0  0  0  0  0  0
  -24.0076  -31.4212   23.3165 C   0  0  1  0  0  0  0  0  0  0  0  0
  -22.6138  -22.9685   26.2880 C   0  0  0  0  0  0  0  0  0  0  0  0
  -21.7784  -19.0940   20.9813 C   0  0  0  0  0  0  0  0  0  0  0  0
  -20.9845  -21.0083   22.3861 C   0  0  0  0  0  0  0  0  0  0  0  0
  -21.1283  -18.7192   23.3670 C   0  0  0  0  0  0  0  0  0  0  0  0
  -26.3352  -22.1898   26.1443 C   0  0  0  0  0  0  0  0  0  0  0  0
  -30.5239  -22.6494   18.8566 C   0  0  0  0  0  0  0  0  0  1  0  0
  -23.2557  -20.0011   22.8947 C   0  0  1  0  0  0  0  0  0  0  0  0
  -23.8439  -22.1311   25.9747 C   0  0  2  0  0  0  0  0  0  0  0  0
  -21.8129  -19.7058   22.3960 C   0  0  0  0  0  0  0  0  0  0  0  0
  -22.1172  -29.8507   23.1153 N   0  0  0  0  0  0  0  0  0  0  0  0
  -22.9949  -30.6526   22.4887 N   0  0  0  0  0  0  0  0  0  0  0  0
  -30.2689  -26.4460   19.3266 N   0  0  1  0  0  0  0  0  0  0  0  0
  -25.2729  -18.8085   22.0995 N   0  0  0  0  0  0  0  0  0  0  0  0
  -25.9214  -31.2774   24.8550 N   0  0  0  0  0  0  0  0  0  0  0  0
  -23.6541  -31.4243   20.3484 N   0  0  0  0  0  0  0  0  0  0  0  0
  -20.2249  -28.6300   19.4379 N   0  0  0  0  0  0  0  0  0  0  0  0
  -27.7995  -30.4151   23.7004 N   0  0  0  0  0  0  0  0  0  0  0  0
  -25.5946  -15.5710   20.6349 N   0  0  0  0  0  0  0  0  0  0  0  0
  -23.3203  -20.5559   24.2424 N   0  0  0  0  0  0  0  0  0  0  0  0
  -25.0533  -22.9042   26.3753 N   0  3  0  0  0  0  0  0  0  0  0  0
  -30.0743  -30.8939   23.8672 O   0  0  0  0  0  0  0  0  0  0  0  0
  -21.7914  -30.0209   18.5051 O   0  0  0  0  0  0  0  0  0  0  0  0
  -25.1855  -17.6689   19.7109 O   0  0  0  0  0  0  0  0  0  0  0  0
  -23.8019  -17.8046   23.6043 O   0  0  0  0  0  0  0  0  0  0  0  0
  -24.4278  -22.5084   23.6608 O   0  0  0  0  0  0  0  0  0  0  0  0
  -28.0697  -31.9927   25.3606 O   0  0  0  0  0  0  0  0  0  0  0  0
  -17.2459  -25.7498   23.1615 O   0  0  0  0  0  0  0  0  0  0  0  0
  -29.1552  -22.2556   18.7681 O   0  0  0  0  0  0  0  0  0  1  0  0
  -18.2192  -21.6818   26.7544 F   0  0  0  0  0  0  0  0  0  0  0  0
  -27.5778  -27.9608   22.9762 F   0  0  0  0  0  0  0  0  0  0  0  0
  -17.9515  -26.3053   25.7761 F   0  0  0  0  0  0  0  0  0  0  0  0
  1  2  1  0  0  0  0
  1  6  2  0  0  0  0
  2  7  2  0  0  0  0
  3 10  2  0  0  0  0
  3 18  1  0  0  0  0
  4 11  1  0  0  0  0
  4 18  2  0  0  0  0
  5  9  2  0  0  0  0
  5 19  1  0  0  0  0
  6 21  1  0  0  0  0
  7 23  1  0  0  0  0
  8 12  2  0  0  0  0
  8 22  1  0  0  0  0
  9 25  1  0  0  0  0
 10 26  1  0  0  0  0
 11 26  2  0  0  0  0
 12 27  1  0  0  0  0
 13 14  2  0  0  0  0
 13 28  1  0  0  0  0
 14 29  1  0  0  0  0
 15 24  1  0  0  0  0
 15 27  2  0  0  0  0
 16 25  2  0  0  0  0
 16 30  1  0  0  0  0
 17 29  2  0  0  0  0
 17 31  1  0  0  0  0
 18 32  1  0  0  0  0
 19 30  2  0  0  0  0
 19 36  1  0  0  0  0
 20 32  1  0  0  0  0
 20 33  2  0  0  0  0
 20 37  1  0  0  0  0
 21 23  2  0  0  0  0
 21 42  1  0  0  0  0
 22 24  2  0  0  0  0
 22 43  1  0  0  0  0
 23 54  1  0  0  0  0
 24 44  1  0  0  0  0
 25 68  1  0  0  0  0
 26 83  1  0  0  0  0
 27 84  1  0  0  0  0
 28 31  2  0  0  0  0
 28 83  1  0  0  0  0
 29 85  1  0  0  0  0
 30 86  1  0  0  0  0
 31 87  1  0  0  0  0
 32 66  2  0  0  0  0
 33 67  1  0  0  0  0
 33 71  1  0  0  0  0
 34 35  2  0  0  0  0
 34 45  1  0  0  0  0
 35 46  1  0  0  0  0
 35 62  1  0  0  0  0
 36 73  1  0  0  0  0
 36 77  2  0  0  0  0
 37 72  1  0  0  0  0
 37 78  2  0  0  0  0
 38 55  1  0  0  0  0
 38 74  1  0  0  0  0
 38 79  2  0  0  0  0
 39 63  1  0  0  0  0
 39 69  1  0  0  0  0
 39 80  2  0  0  0  0
 40 64  1  0  0  0  0
 40 75  1  0  0  0  0
 40 81  2  0  0  0  0
 41 70  1  0  0  0  0
 41 73  1  0  0  0  0
 41 82  2  0  0  0  0
 42 47  1  0  0  0  0
 43 55  1  0  0  0  0
 44 69  1  0  0  0  0
 45 51  1  0  0  0  0
 46 68  1  0  0  0  0
 47 49  1  0  0  0  0
 48 50  1  0  0  0  0
 48 52  1  0  0  0  0
 49 54  1  0  0  0  0
 50 56  1  0  0  0  0
 51 68  1  0  0  0  0
 52 70  1  0  0  0  0
 53 56  1  0  0  0  0
 53 70  1  0  0  0  0
 54 74  1  0  0  0  0
 55 69  1  0  0  0  0
 56 67  1  0  0  0  0
 57 64  1  0  0  0  0
 58 65  1  0  0  0  0
 59 65  1  0  0  0  0
 60 65  1  0  0  0  0
 61 76  1  0  0  0  0
 62 84  1  0  0  0  0
 63 65  1  0  0  0  0
 63 75  1  0  0  0  0
 64 76  1  0  0  0  0
 66 67  1  0  0  0  0
M  CHG  1  76   1
M  ISO  4  41 100  62 101  73 100  84 101
M  END
> <Batch ID>
0097

> <Smiles>
CNC(C)C(=O)NC(C(=O)N1Cc2cc([101O:1][101CH2:1]C3=CCCN(c4ccc(C(=O)[100NH:0][100C:0](=O)N5CCCC(n6nc(-c7ccc(Oc8ccc(F)cc8F)cc7)c(C(N)=O)c6N)C5)c(F)c4)C3)ccc2CC1C(=O)NC1CCCc2ccccc21)C(C)(C)C

> <Shape>
0.271

> <Color>
0.049

> <Negative vol penalty>
0.000

$$$$

  -OEChem-04052300493D

 84 92  0     1  0  0  0  0  0999 V2000
  -27.2242  -11.3547   17.8291 C   0  0  0  0  0  0  0  0  0  0  0  0
  -27.2561  -12.7052   17.4964 C   0  0  0  0  0  0  0  0  0  0  0  0
  -20.1476  -27.4578   24.0419 C   0  0  0  0  0  0  0  0  0  0  0  0
  -20.1439  -27.7572   21.6445 C   0  0  0  0  0  0  0  0  0  0  0  0
  -26.4103  -10.9139   18.8718 C   0  0  0  0  0  0  0  0  0  0  0  0
  -26.4732  -13.6155   18.2056 C   0  0  0  0  0  0  0  0  0  0  0  0
  -29.0127  -17.8226   19.4287 C   0  0  0  0  0  0  0  0  0  0  0  0
  -29.5978  -27.1334   19.8383 C   0  0  0  0  0  0  0  0  0  0  0  0
  -29.6777  -25.9371   19.1256 C   0  0  0  0  0  0  0  0  0  0  0  0
  -18.7528  -27.4530   24.0434 C   0  0  0  0  0  0  0  0  0  0  0  0
  -18.7491  -27.7523   21.6460 C   0  0  0  0  0  0  0  0  0  0  0  0
  -29.1935  -18.7720   18.4239 C   0  0  0  0  0  0  0  0  0  0  0  0
  -15.1884  -27.4575   20.9732 C   0  0  0  0  0  0  0  0  0  0  0  0
  -14.5406  -26.6982   19.9988 C   0  0  0  0  0  0  0  0  0  0  0  0
  -27.3617  -20.0606   19.3200 C   0  0  0  0  0  0  0  0  0  0  0  0
  -30.0833  -28.3687   17.8196 C   0  0  0  0  0  0  0  0  0  0  0  0
  -15.6174  -24.7043   20.8368 C   0  0  0  0  0  0  0  0  0  0  0  0
  -20.8432  -27.6099   22.8424 C   0  0  0  0  0  0  0  0  0  0  0  0
  -23.1383  -26.5053   22.7000 C   0  0  0  0  0  0  0  0  0  0  0  0
  -25.6244  -11.8206   19.6004 C   0  0  0  0  0  0  0  0  0  0  0  0
  -27.9962  -17.9799   20.3819 C   0  0  0  0  0  0  0  0  0  0  0  0
  -25.6470  -13.1861   19.2581 C   0  0  0  0  0  0  0  0  0  0  0  0
  -27.1717  -19.1131   20.3375 C   0  0  0  0  0  0  0  0  0  0  0  0
  -29.8005  -28.3492   19.1854 C   0  0  0  0  0  0  0  0  0  0  0  0
  -29.9605  -25.9566   17.7598 C   0  0  0  0  0  0  0  0  0  0  0  0
  -18.0535  -27.6002   22.8455 C   0  0  0  0  0  0  0  0  0  0  0  0
  -28.3661  -19.8897   18.3677 C   0  0  0  0  0  0  0  0  0  0  0  0
  -16.0507  -26.8403   21.8794 C   0  0  0  0  0  0  0  0  0  0  0  0
  -14.7551  -25.3216   19.9306 C   0  0  0  0  0  0  0  0  0  0  0  0
  -30.1633  -27.1724   17.1068 C   0  0  0  0  0  0  0  0  0  0  0  0
  -16.2652  -25.4637   21.8112 C   0  0  0  0  0  0  0  0  0  0  0  0
  -22.2840  -27.6155   22.8402 C   0  0  0  0  0  0  0  0  0  0  0  0
  -24.4037  -27.0356   22.7635 C   0  0  0  0  0  0  0  0  0  0  0  0
  -22.8166  -25.1188   22.5278 C   0  0  0  0  0  0  0  0  0  0  0  0
  -25.4081  -16.3234   21.1954 C   0  0  0  0  0  0  0  0  0  0  0  0
  -25.2300  -18.5171   23.5783 C   0  0  0  0  0  0  0  0  0  0  0  0
  -29.8683  -23.4500   17.5303 C   0  0  0  0  0  0  0  0  0  0  0  0
  -26.0277  -21.6362   24.7105 C   0  0  0  0  0  0  0  0  0  0  0  0
  -28.1219  -30.9405   21.3241 C   0  0  0  0  0  0  0  0  0  0  0  0
  -24.7245  -11.2902   20.6883 C   0  0  0  0  0  0  0  0  0  0  0  0
  -27.8314  -16.9603   21.4754 C   0  0  0  0  0  0  0  0  0  0  0  0
  -26.0789  -19.3389   21.3491 C   0  0  0  0  0  0  0  0  0  0  0  0
  -24.2099  -12.3721   21.6344 C   0  0  0  0  0  0  0  0  0  0  0  0
  -25.9722  -31.6641   24.0686 C   0  0  0  0  0  0  0  0  0  0  0  0
  -23.7036  -13.5750   20.8448 C   0  0  0  0  0  0  0  0  0  0  0  0
  -24.8888  -30.5880   23.9782 C   0  0  0  0  0  0  0  0  0  0  0  0
  -26.4255  -32.1261   22.6854 C   0  0  0  0  0  0  0  0  0  0  0  0
  -25.7735  -29.9674   21.6911 C   0  0  0  0  0  0  0  0  0  0  0  0
  -24.8310  -14.2077   20.0201 C   0  0  1  0  0  0  0  0  0  0  0  0
  -26.4343  -16.9619   22.0882 C   0  0  1  0  0  0  0  0  0  0  0  0
  -25.3241  -29.4297   23.0604 C   0  0  2  0  0  0  0  0  0  0  0  0
  -25.7099  -23.1577   26.6806 C   0  0  0  0  0  0  0  0  0  0  0  0
  -22.3637  -19.0668   22.6883 C   0  0  0  0  0  0  0  0  0  0  0  0
  -22.4316  -21.1875   24.0174 C   0  0  0  0  0  0  0  0  0  0  0  0
  -22.6897  -18.9885   25.1667 C   0  0  0  0  0  0  0  0  0  0  0  0
  -28.9402  -21.7813   25.2155 C   0  0  0  0  0  0  0  0  0  0  0  0
  -29.7163  -29.6283   19.9474 C   0  0  0  0  0  0  0  0  0  0  0  0
  -30.0417  -22.4268   16.4136 C   0  0  0  0  0  0  0  0  0  0  0  0
  -29.8644  -20.9915   16.8855 C   0  0  0  0  0  0  0  0  0  1  0  0
  -24.5808  -19.8705   23.7392 C   0  0  1  0  0  0  0  0  0  0  0  0
  -26.6031  -22.1113   26.0325 C   0  0  2  0  0  0  0  0  0  0  0  0
  -23.0357  -19.7734   23.8825 C   0  0  0  0  0  0  0  0  0  0  0  0
  -22.9506  -28.7643   22.9821 N   0  0  0  0  0  0  0  0  0  0  0  0
  -24.2370  -28.3788   22.9316 N   0  0  0  0  0  0  0  0  0  0  0  0
  -25.9533  -18.3105   22.3951 N   0  0  0  0  0  0  0  0  0  0  0  0
  -26.8264  -30.9802   21.8657 N   0  0  0  0  0  0  0  0  0  0  0  0
  -25.6316  -26.4792   22.6914 N   0  0  0  0  0  0  0  0  0  0  0  0
  -21.4661  -24.7466   22.4842 N   0  0  0  0  0  0  0  0  0  0  0  0
  -30.0415  -24.7413   17.0392 N   0  0  0  0  0  0  0  0  0  0  0  0
  -25.6872  -15.0106   20.8666 N   0  0  0  0  0  0  0  0  0  0  0  0
  -25.2466  -20.5109   24.8684 N   0  0  0  0  0  0  0  0  0  0  0  0
  -28.4224  -29.8162   20.5650 N   0  0  0  0  0  0  0  0  0  0  0  0
  -27.9526  -22.7085   25.8253 N   0  3  0  0  0  0  0  0  0  0  0  0
  -23.7007  -24.2339   22.4324 O   0  0  0  0  0  0  0  0  0  0  0  0
  -24.4345  -16.9733   20.8329 O   0  0  0  0  0  0  0  0  0  0  0  0
  -25.1060  -17.6768   24.4728 O   0  0  0  0  0  0  0  0  0  0  0  0
  -29.6127  -23.1205   18.6837 O   0  0  0  0  0  0  0  0  0  0  0  0
  -26.2461  -22.2084   23.6449 O   0  0  0  0  0  0  0  0  0  0  0  0
  -28.9512  -31.8379   21.5083 O   0  0  0  0  0  0  0  0  0  0  0  0
  -16.6924  -27.5954   22.8466 O   0  0  0  0  0  0  0  0  0  0  0  0
  -28.5400  -20.8176   17.3875 O   0  0  0  0  0  0  0  0  0  1  0  0
  -14.1318  -24.5923   18.9958 F   0  0  0  0  0  0  0  0  0  0  0  0
  -30.4372  -27.2029   15.7947 F   0  0  0  0  0  0  0  0  0  0  0  0
  -17.0915  -24.8649   22.6797 F   0  0  0  0  0  0  0  0  0  0  0  0
  1  2  1  0  0  0  0
  1  5  2  0  0  0  0
  2  6  2  0  0  0  0
  3 10  2  0  0  0  0
  3 18  1  0  0  0  0
  4 11  1  0  0  0  0
  4 18  2  0  0  0  0
  5 20  1  0  0  0  0
  6 22  1  0  0  0  0
  7 12  2  0  0  0  0
  7 21  1  0  0  0  0
  8  9  2  0  0  0  0
  8 24  1  0  0  0  0
  9 25  1  0  0  0  0
 10 26  1  0  0  0  0
 11 26  2  0  0  0  0
 12 27  1  0  0  0  0
 13 14  2  0  0  0  0
 13 28  1  0  0  0  0
 14 29  1  0  0  0  0
 15 23  1  0  0  0  0
 15 27  2  0  0  0  0
 16 24  2  0  0  0  0
 16 30  1  0  0  0  0
 17 29  2  0  0  0  0
 17 31  1  0  0  0  0
 18 32  1  0  0  0  0
 19 32  1  0  0  0  0
 19 33  2  0  0  0  0
 19 34  1  0  0  0  0
 20 22  2  0  0  0  0
 20 40  1  0  0  0  0
 21 23  2  0  0  0  0
 21 41  1  0  0  0  0
 22 49  1  0  0  0  0
 23 42  1  0  0  0  0
 24 57  1  0  0  0  0
 25 30  2  0  0  0  0
 25 69  1  0  0  0  0
 26 80  1  0  0  0  0
 27 81  1  0  0  0  0
 28 31  2  0  0  0  0
 28 80  1  0  0  0  0
 29 82  1  0  0  0  0
 30 83  1  0  0  0  0
 31 84  1  0  0  0  0
 32 63  2  0  0  0  0
 33 64  1  0  0  0  0
 33 67  1  0  0  0  0
 34 68  1  0  0  0  0
 34 74  2  0  0  0  0
 35 50  1  0  0  0  0
 35 70  1  0  0  0  0
 35 75  2  0  0  0  0
 36 60  1  0  0  0  0
 36 65  1  0  0  0  0
 36 76  2  0  0  0  0
 37 58  1  0  0  0  0
 37 69  1  0  0  0  0
 37 77  2  0  0  0  0
 38 61  1  0  0  0  0
 38 71  1  0  0  0  0
 38 78  2  0  0  0  0
 39 66  1  0  0  0  0
 39 72  1  0  0  0  0
 39 79  2  0  0  0  0
 40 43  1  0  0  0  0
 41 50  1  0  0  0  0
 42 65  1  0  0  0  0
 43 45  1  0  0  0  0
 44 46  1  0  0  0  0
 44 47  1  0  0  0  0
 45 49  1  0  0  0  0
 46 51  1  0  0  0  0
 47 66  1  0  0  0  0
 48 51  1  0  0  0  0
 48 66  1  0  0  0  0
 49 70  1  0  0  0  0
 50 65  1  0  0  0  0
 51 64  1  0  0  0  0
 52 61  1  0  0  0  0
 53 62  1  0  0  0  0
 54 62  1  0  0  0  0
 55 62  1  0  0  0  0
 56 73  1  0  0  0  0
 57 72  1  0  0  0  0
 58 59  1  0  0  0  0
 59 81  1  0  0  0  0
 60 62  1  0  0  0  0
 60 71  1  0  0  0  0
 61 73  1  0  0  0  0
 63 64  1  0  0  0  0
M  CHG  1  73   1
M  ISO  4  39 100  59 101  72 100  81 101
M  END
> <Batch ID>
0097

> <Smiles>
CNC(C)C(=O)NC(C(=O)N1Cc2cc([101O:1][101CH2:1]CC(=O)Nc3ccc(C[100NH:0][100C:0](=O)N4CCCC(n5nc(-c6ccc(Oc7ccc(F)cc7F)cc6)c(C(N)=O)c5N)C4)cc3F)ccc2CC1C(=O)NC1CCCc2ccccc21)C(C)(C)C

> <Shape>
0.217

> <Color>
0.072

> <Negative vol penalty>
0.000

$$$$

  -OEChem-04052300493D

 86 94  0     1  0  0  0  0  0999 V2000
  -12.2247  -19.8811   21.3189 C   0  0  0  0  0  0  0  0  0  0  0  0
  -13.1487  -18.8533   21.1601 C   0  0  0  0  0  0  0  0  0  0  0  0
  -26.2881  -28.5747   18.9547 C   0  0  0  0  0  0  0  0  0  0  0  0
  -26.2668  -27.9492   21.2882 C   0  0  0  0  0  0  0  0  0  0  0  0
  -12.6114  -21.2037   21.1066 C   0  0  0  0  0  0  0  0  0  0  0  0
  -14.4599  -19.1475   20.7877 C   0  0  0  0  0  0  0  0  0  0  0  0
  -19.5368  -16.2194   22.5644 C   0  0  0  0  0  0  0  0  0  0  0  0
  -29.5624  -15.9210   21.2752 C   0  0  0  0  0  0  0  0  0  0  0  0
  -29.0044  -14.6462   21.3708 C   0  0  0  0  0  0  0  0  0  0  0  0
  -25.3386  -29.5638   19.2110 C   0  0  0  0  0  0  0  0  0  0  0  0
  -25.3173  -28.9384   21.5446 C   0  0  0  0  0  0  0  0  0  0  0  0
  -20.3148  -15.2363   21.9544 C   0  0  0  0  0  0  0  0  0  0  0  0
  -21.9835  -29.3507   21.1616 C   0  0  0  0  0  0  0  0  0  0  0  0
  -20.8940  -29.0109   21.9635 C   0  0  0  0  0  0  0  0  0  0  0  0
  -21.8067  -16.9405   21.1243 C   0  0  0  0  0  0  0  0  0  0  0  0
  -29.3996  -15.8117   18.8672 C   0  0  0  0  0  0  0  0  0  0  0  0
  -21.5296  -30.7181   23.5505 C   0  0  0  0  0  0  0  0  0  0  0  0
  -26.7522  -27.7673   19.9932 C   0  0  0  0  0  0  0  0  0  0  0  0
  -29.1332  -26.8776   19.7775 C   0  0  0  0  0  0  0  0  0  0  0  0
  -13.9304  -21.5150   20.7408 C   0  0  0  0  0  0  0  0  0  0  0  0
  -19.8825  -17.5736   22.4496 C   0  0  0  0  0  0  0  0  0  0  0  0
  -14.8643  -20.4754   20.5689 C   0  0  0  0  0  0  0  0  0  0  0  0
  -21.0329  -17.9386   21.7359 C   0  0  0  0  0  0  0  0  0  0  0  0
  -29.7600  -16.5038   20.0234 C   0  0  0  0  0  0  0  0  0  0  0  0
  -28.6440  -13.9542   20.2146 C   0  0  0  0  0  0  0  0  0  0  0  0
  -28.8416  -14.5369   18.9628 C   0  0  0  0  0  0  0  0  0  0  0  0
  -24.8532  -29.7456   20.5060 C   0  0  0  0  0  0  0  0  0  0  0  0
  -21.4483  -15.5970   21.2318 C   0  0  0  0  0  0  0  0  0  0  0  0
  -22.8461  -30.3742   21.5542 C   0  0  0  0  0  0  0  0  0  0  0  0
  -20.6670  -29.6946   23.1580 C   0  0  0  0  0  0  0  0  0  0  0  0
  -22.6191  -31.0579   22.7486 C   0  0  0  0  0  0  0  0  0  0  0  0
  -27.7325  -26.7450   19.7289 C   0  0  0  0  0  0  0  0  0  0  0  0
  -29.6076  -25.6313   19.4486 C   0  0  0  0  0  0  0  0  0  0  0  0
  -29.9339  -28.0247   20.0918 C   0  0  0  0  0  0  0  0  0  0  0  0
  -18.4885  -20.1471   21.2096 C   0  0  0  0  0  0  0  0  0  0  0  0
  -21.0217  -21.6788   22.5358 C   0  0  0  0  0  0  0  0  0  0  0  0
  -26.6636  -12.5064   20.4527 C   0  0  0  0  0  0  0  0  0  0  0  0
  -24.2356  -21.5152   23.6722 C   0  0  0  0  0  0  0  0  0  0  0  0
  -29.4976  -20.1918   20.0380 C   0  0  0  0  0  0  0  0  0  0  0  0
  -14.2895  -22.9557   20.4761 C   0  0  0  0  0  0  0  0  0  0  0  0
  -19.0478  -18.6199   23.1359 C   0  0  0  0  0  0  0  0  0  0  0  0
  -21.4585  -19.3770   21.5997 C   0  0  0  0  0  0  0  0  0  0  0  0
  -15.7939  -23.2133   20.4484 C   0  0  0  0  0  0  0  0  0  0  0  0
  -27.2137  -21.5778   17.5967 C   0  0  0  0  0  0  0  0  0  0  0  0
  -16.5006  -22.1589   19.6024 C   0  0  0  0  0  0  0  0  0  0  0  0
  -27.2643  -23.0668   17.9438 C   0  0  0  0  0  0  0  0  0  0  0  0
  -27.2805  -20.7147   18.8531 C   0  0  0  0  0  0  0  0  0  0  0  0
  -28.5156  -22.4672   20.0685 C   0  0  0  0  0  0  0  0  0  0  0  0
  -16.3022  -20.7564   20.1899 C   0  0  1  0  0  0  0  0  0  0  0  0
  -19.2061  -20.0076   22.5223 C   0  0  1  0  0  0  0  0  0  0  0  0
  -28.4745  -23.3927   18.8389 C   0  0  2  0  0  0  0  0  0  0  0  0
  -26.0493  -22.9383   24.6633 C   0  0  0  0  0  0  0  0  0  0  0  0
  -21.5627  -22.8967   19.7910 C   0  0  0  0  0  0  0  0  0  0  0  0
  -23.8539  -23.5107   20.5922 C   0  0  0  0  0  0  0  0  0  0  0  0
  -21.8435  -24.4783   21.7078 C   0  0  0  0  0  0  0  0  0  0  0  0
  -28.9602  -11.4626   20.3451 C   0  0  0  0  0  0  0  0  0  0  0  0
  -24.3206  -19.8893   26.1436 C   0  0  0  0  0  0  0  0  0  0  0  0
  -30.3566  -17.8668   19.9219 C   0  0  0  0  0  0  0  0  0  0  0  0
  -25.8718  -13.8105   20.3881 C   0  0  0  0  0  0  0  0  0  0  0  0
  -24.3649  -13.5931   20.5171 C   0  0  0  0  0  0  0  0  0  0  0  0
  -23.6031  -14.9106   20.4960 C   0  0  0  0  0  0  0  0  0  1  0  0
  -22.4124  -22.0423   22.0745 C   0  0  1  0  0  0  0  0  0  0  0  0
  -24.8772  -22.0140   24.9543 C   0  0  2  0  0  0  0  0  0  0  0  0
  -22.4093  -23.2050   21.0421 C   0  0  0  0  0  0  0  0  0  0  0  0
  -27.3425  -25.5119   19.3953 N   0  0  0  0  0  0  0  0  0  0  0  0
  -28.5052  -24.8582   19.2312 N   0  0  0  0  0  0  0  0  0  0  0  0
  -20.6062  -20.3636   22.2835 N   0  0  0  0  0  0  0  0  0  0  0  0
  -28.4648  -21.0620   19.6513 N   0  0  0  0  0  0  0  0  0  0  0  0
  -28.4840  -13.8537   17.7788 N   0  0  0  0  0  0  0  0  0  0  0  0
  -30.8560  -25.1322   19.3270 N   0  0  0  0  0  0  0  0  0  0  0  0
  -29.2850  -29.2263   20.4071 N   0  0  0  0  0  0  0  0  0  0  0  0
  -17.1741  -20.5571   21.3276 N   0  0  0  0  0  0  0  0  0  0  0  0
  -23.1841  -22.3172   23.2817 N   0  0  0  0  0  0  0  0  0  0  0  0
  -29.3704  -18.8767   19.6079 N   0  0  0  0  0  0  0  0  0  0  0  0
  -28.0665  -12.6313   20.3398 N   0  0  0  0  0  0  0  0  0  0  0  0
  -25.3736  -20.8667   25.7655 N   0  3  0  0  0  0  0  0  0  0  0  0
  -31.1877  -27.9896   20.0770 O   0  0  0  0  0  0  0  0  0  0  0  0
  -19.0836  -19.9023   20.1667 O   0  0  0  0  0  0  0  0  0  0  0  0
  -20.3322  -22.5282   23.1057 O   0  0  0  0  0  0  0  0  0  0  0  0
  -26.0577  -11.4378   20.5642 O   0  0  0  0  0  0  0  0  0  0  0  0
  -24.6301  -20.5163   23.0746 O   0  0  0  0  0  0  0  0  0  0  0  0
  -30.4651  -20.5609   20.7125 O   0  0  0  0  0  0  0  0  0  0  0  0
  -23.9269  -30.7109   20.7566 O   0  0  0  0  0  0  0  0  0  0  0  0
  -22.2090  -14.6395   20.6349 O   0  0  0  0  0  0  0  0  0  1  0  0
  -19.6198  -29.3692   23.9272 F   0  0  0  0  0  0  0  0  0  0  0  0
  -23.4437  -32.0428   23.1305 F   0  0  0  0  0  0  0  0  0  0  0  0
  1  2  1  0  0  0  0
  1  5  2  0  0  0  0
  2  6  2  0  0  0  0
  3 10  2  0  0  0  0
  3 18  1  0  0  0  0
  4 11  1  0  0  0  0
  4 18  2  0  0  0  0
  5 20  1  0  0  0  0
  6 22  1  0  0  0  0
  7 12  2  0  0  0  0
  7 21  1  0  0  0  0
  8  9  2  0  0  0  0
  8 24  1  0  0  0  0
  9 25  1  0  0  0  0
 10 27  1  0  0  0  0
 11 27  2  0  0  0  0
 12 28  1  0  0  0  0
 13 14  2  0  0  0  0
 13 29  1  0  0  0  0
 14 30  1  0  0  0  0
 15 23  1  0  0  0  0
 15 28  2  0  0  0  0
 16 24  2  0  0  0  0
 16 26  1  0  0  0  0
 17 30  2  0  0  0  0
 17 31  1  0  0  0  0
 18 32  1  0  0  0  0
 19 32  1  0  0  0  0
 19 33  2  0  0  0  0
 19 34  1  0  0  0  0
 20 22  2  0  0  0  0
 20 40  1  0  0  0  0
 21 23  2  0  0  0  0
 21 41  1  0  0  0  0
 22 49  1  0  0  0  0
 23 42  1  0  0  0  0
 24 58  1  0  0  0  0
 25 26  2  0  0  0  0
 25 75  1  0  0  0  0
 26 69  1  0  0  0  0
 27 83  1  0  0  0  0
 28 84  1  0  0  0  0
 29 31  2  0  0  0  0
 29 83  1  0  0  0  0
 30 85  1  0  0  0  0
 31 86  1  0  0  0  0
 32 65  2  0  0  0  0
 33 66  1  0  0  0  0
 33 70  1  0  0  0  0
 34 71  1  0  0  0  0
 34 77  2  0  0  0  0
 35 50  1  0  0  0  0
 35 72  1  0  0  0  0
 35 78  2  0  0  0  0
 36 62  1  0  0  0  0
 36 67  1  0  0  0  0
 36 79  2  0  0  0  0
 37 59  1  0  0  0  0
 37 75  1  0  0  0  0
 37 80  2  0  0  0  0
 38 63  1  0  0  0  0
 38 73  1  0  0  0  0
 38 81  2  0  0  0  0
 39 68  1  0  0  0  0
 39 74  1  0  0  0  0
 39 82  2  0  0  0  0
 40 43  1  0  0  0  0
 41 50  1  0  0  0  0
 42 67  1  0  0  0  0
 43 45  1  0  0  0  0
 44 46  1  0  0  0  0
 44 47  1  0  0  0  0
 45 49  1  0  0  0  0
 46 51  1  0  0  0  0
 47 68  1  0  0  0  0
 48 51  1  0  0  0  0
 48 68  1  0  0  0  0
 49 72  1  0  0  0  0
 50 67  1  0  0  0  0
 51 66  1  0  0  0  0
 52 63  1  0  0  0  0
 53 64  1  0  0  0  0
 54 64  1  0  0  0  0
 55 64  1  0  0  0  0
 56 75  1  0  0  0  0
 57 76  1  0  0  0  0
 58 74  1  0  0  0  0
 59 60  1  0  0  0  0
 60 61  1  0  0  0  0
 61 84  1  0  0  0  0
 62 64  1  0  0  0  0
 62 73  1  0  0  0  0
 63 76  1  0  0  0  0
 65 66  1  0  0  0  0
M  CHG  1  76   1
M  ISO  4  39 100  61 101  74 100  84 101
M  END
> <Batch ID>
0097

> <Smiles>
CNC(C)C(=O)NC(C(=O)N1Cc2cc([101O:1][101CH2:1]CCC(=O)N(C)c3ccc(C[100NH:0][100C:0](=O)N4CCCC(n5nc(-c6ccc(Oc7ccc(F)cc7F)cc6)c(C(N)=O)c5N)C4)cc3N)ccc2CC1C(=O)NC1CCCc2ccccc21)C(C)(C)C

> <Shape>
0.217

> <Color>
0.071

> <Negative vol penalty>
0.000

$$$$

  -OEChem-04052300493D

 87 96  0     1  0  0  0  0  0999 V2000
  -16.8079  -29.1764   22.8753 C   0  0  0  0  0  0  0  0  0  0  0  0
  -17.9111  -28.5318   22.3248 C   0  0  0  0  0  0  0  0  0  0  0  0
  -22.9641   -9.9468   20.0026 C   0  0  0  0  0  0  0  0  0  0  0  0
  -24.1865   -9.6156   22.0600 C   0  0  0  0  0  0  0  0  0  0  0  0
  -28.8857  -17.3520   20.3325 C   0  0  0  0  0  0  0  0  0  0  0  0
  -16.9130  -29.7948   24.1204 C   0  0  0  0  0  0  0  0  0  0  0  0
  -19.1203  -28.5063   23.0187 C   0  0  0  0  0  0  0  0  0  0  0  0
  -21.2830  -23.9274   22.9852 C   0  0  0  0  0  0  0  0  0  0  0  0
  -28.2132  -18.3302   19.6001 C   0  0  0  0  0  0  0  0  0  0  0  0
  -22.2843   -8.7473   20.2134 C   0  0  0  0  0  0  0  0  0  0  0  0
  -23.5066   -8.4161   22.2709 C   0  0  0  0  0  0  0  0  0  0  0  0
  -21.9508  -23.5471   21.8219 C   0  0  0  0  0  0  0  0  0  0  0  0
  -20.4724   -7.4386   23.3928 C   0  0  0  0  0  0  0  0  0  0  0  0
  -19.9767   -7.1928   24.6732 C   0  0  0  0  0  0  0  0  0  0  0  0
  -27.8624  -18.1687   22.3630 C   0  0  0  0  0  0  0  0  0  0  0  0
  -24.0557  -24.1263   22.8481 C   0  0  0  0  0  0  0  0  0  0  0  0
  -21.3367   -5.2012   24.8175 C   0  0  0  0  0  0  0  0  0  0  0  0
  -23.9153  -10.3810   20.9259 C   0  0  0  0  0  0  0  0  0  0  0  0
  -28.7102  -17.2711   21.7140 C   0  0  0  0  0  0  0  0  0  0  0  0
  -24.0580  -12.9057   20.5897 C   0  0  0  0  0  0  0  0  0  0  0  0
  -18.1215  -29.7686   24.8343 C   0  0  0  0  0  0  0  0  0  0  0  0
  -21.9968  -24.4211   24.0866 C   0  0  0  0  0  0  0  0  0  0  0  0
  -19.2420  -29.1261   24.2739 C   0  0  0  0  0  0  0  0  0  0  0  0
  -23.3949  -24.5098   24.0251 C   0  0  0  0  0  0  0  0  0  0  0  0
  -27.3654  -19.2278   20.2492 C   0  0  0  0  0  0  0  0  0  0  0  0
  -22.5554   -7.9819   21.3475 C   0  0  0  0  0  0  0  0  0  0  0  0
  -23.3371  -23.6493   21.7522 C   0  0  0  0  0  0  0  0  0  0  0  0
  -21.4002   -6.5657   22.8247 C   0  0  0  0  0  0  0  0  0  0  0  0
  -20.4088   -6.0742   25.3856 C   0  0  0  0  0  0  0  0  0  0  0  0
  -27.1900  -19.1470   21.6307 C   0  0  0  0  0  0  0  0  0  0  0  0
  -21.8324   -5.4470   23.5370 C   0  0  0  0  0  0  0  0  0  0  0  0
  -24.6184  -11.6197   20.7084 C   0  0  0  0  0  0  0  0  0  0  0  0
  -25.1365  -13.7334   20.3940 C   0  0  0  0  0  0  0  0  0  0  0  0
  -27.2322  -20.7692   18.3111 C   0  0  0  0  0  0  0  0  0  0  0  0
  -29.4114  -16.2512   22.4775 C   0  0  0  0  0  0  0  0  0  0  0  0
  -22.6854  -13.3154   20.6510 C   0  0  0  0  0  0  0  0  0  0  0  0
  -30.3188  -15.2832   21.8196 C   0  0  0  0  0  0  0  0  0  0  0  0
  -22.0499  -27.1745   25.6739 C   0  0  0  0  0  0  0  0  0  0  0  0
  -24.0473  -25.5502   27.6473 C   0  0  0  0  0  0  0  0  0  0  0  0
  -26.7795  -23.2206   27.2929 C   0  0  0  0  0  0  0  0  0  0  0  0
  -18.2000  -30.4917   26.1555 C   0  0  0  0  0  0  0  0  0  0  0  0
  -21.2640  -24.8019   25.3437 C   0  0  0  0  0  0  0  0  0  0  0  0
  -24.2093  -25.0143   25.1872 C   0  0  0  0  0  0  0  0  0  0  0  0
  -26.3060  -21.5813   17.4255 C   0  0  0  0  0  0  0  0  0  0  0  0
  -19.4124  -30.0969   26.9948 C   0  0  0  0  0  0  0  0  0  0  0  0
  -25.2812  -22.4005   18.1788 C   0  0  0  0  0  0  0  0  0  0  0  0
  -29.9698  -12.6786   19.3802 C   0  0  0  0  0  0  0  0  0  0  0  0
  -20.6742  -30.0856   26.1378 C   0  0  0  0  0  0  0  0  0  0  0  0
  -28.5099  -12.2507   19.5270 C   0  0  0  0  0  0  0  0  0  0  0  0
  -30.5678  -13.0924   20.7209 C   0  0  0  0  0  0  0  0  0  0  0  0
  -25.4692  -20.8421   20.0969 C   0  0  0  0  0  0  0  0  0  0  0  0
  -28.3299  -13.7392   21.5708 C   0  0  0  0  0  0  0  0  0  0  0  0
  -20.5640  -29.0555   25.0072 C   0  0  1  0  0  0  0  0  0  0  0  0
  -22.0467  -25.7748   26.2202 C   0  0  1  0  0  0  0  0  0  0  0  0
  -24.5003  -21.4808   19.1029 C   0  0  1  0  0  0  0  0  0  0  0  0
  -27.6835  -13.3405   20.2327 C   0  0  2  0  0  0  0  0  0  0  0  0
  -27.6174  -21.4397   28.8497 C   0  0  0  0  0  0  0  0  0  0  0  0
  -25.9773  -27.7078   28.6115 C   0  0  0  0  0  0  0  0  0  0  0  0
  -27.7439  -25.9441   28.8026 C   0  0  0  0  0  0  0  0  0  0  0  0
  -25.6782  -25.7935   30.1928 C   0  0  0  0  0  0  0  0  0  0  0  0
  -26.5164  -21.1232   25.2215 C   0  0  0  0  0  0  0  0  0  0  0  0
  -23.3983  -22.2448   19.8339 C   0  0  0  0  0  0  0  0  0  1  0  0
  -25.5391  -25.3278   27.7117 C   0  0  1  0  0  0  0  0  0  0  0  0
  -26.7612  -21.7404   27.6294 C   0  0  2  0  0  0  0  0  0  0  0  0
  -26.2213  -26.1978   28.8049 C   0  0  0  0  0  0  0  0  0  0  0  0
  -25.9494  -11.6250   20.5971 N   0  0  0  0  0  0  0  0  0  0  0  0
  -29.2962  -16.1187   23.7714 N   0  0  0  0  0  0  0  0  0  0  0  0
  -26.2344  -12.9244   20.4065 N   0  0  0  0  0  0  0  0  0  0  0  0
  -26.6696  -20.2422   19.4864 N   0  0  0  0  0  0  0  0  0  0  0  0
  -29.7402  -14.1007   21.3801 N   0  0  0  0  0  0  0  0  0  0  0  0
  -23.4464  -25.3803   26.3920 N   0  0  0  0  0  0  0  0  0  0  0  0
  -25.2432  -15.0671   20.2140 N   0  0  0  0  0  0  0  0  0  0  0  0
  -22.1469  -13.6628   21.8974 N   0  0  0  0  0  0  0  0  0  0  0  0
  -20.7901  -27.7199   25.5165 N   0  0  0  0  0  0  0  0  0  0  0  0
  -25.7307  -23.8920   27.8849 N   0  0  0  0  0  0  0  0  0  0  0  0
  -27.2800  -20.9422   26.4829 N   0  3  0  0  0  0  0  0  0  0  0  0
  -28.3865  -20.5761   17.9198 O   0  0  0  0  0  0  0  0  0  0  0  0
  -21.9535  -13.3561   19.6331 O   0  0  0  0  0  0  0  0  0  0  0  0
  -31.4891  -15.6316   21.7340 O   0  0  0  0  0  0  0  0  0  0  0  0
  -23.1165  -27.7199   25.4158 O   0  0  0  0  0  0  0  0  0  0  0  0
  -23.4366  -25.8562   28.6744 O   0  0  0  0  0  0  0  0  0  0  0  0
  -27.6404  -23.7309   26.5795 O   0  0  0  0  0  0  0  0  0  0  0  0
  -21.8920   -6.8115   21.5537 O   0  0  0  0  0  0  0  0  0  0  0  0
  -23.9913  -23.2794   20.6177 O   0  0  0  0  0  0  0  0  0  1  0  0
  -19.9339   -5.8391   26.6157 F   0  0  0  0  0  0  0  0  0  0  0  0
  -26.3780  -20.0047   22.2655 F   0  0  0  0  0  0  0  0  0  0  0  0
  -22.7245   -4.6054   22.9969 F   0  0  0  0  0  0  0  0  0  0  0  0
  1  2  1  0  0  0  0
  1  6  2  0  0  0  0
  2  7  2  0  0  0  0
  3 10  2  0  0  0  0
  3 18  1  0  0  0  0
  4 11  1  0  0  0  0
  4 18  2  0  0  0  0
  5  9  2  0  0  0  0
  5 19  1  0  0  0  0
  6 21  1  0  0  0  0
  7 23  1  0  0  0  0
  8 12  2  0  0  0  0
  8 22  1  0  0  0  0
  9 25  1  0  0  0  0
 10 26  1  0  0  0  0
 11 26  2  0  0  0  0
 12 27  1  0  0  0  0
 13 14  2  0  0  0  0
 13 28  1  0  0  0  0
 14 29  1  0  0  0  0
 15 19  2  0  0  0  0
 15 30  1  0  0  0  0
 16 24  1  0  0  0  0
 16 27  2  0  0  0  0
 17 29  2  0  0  0  0
 17 31  1  0  0  0  0
 18 32  1  0  0  0  0
 19 35  1  0  0  0  0
 20 32  1  0  0  0  0
 20 33  2  0  0  0  0
 20 36  1  0  0  0  0
 21 23  2  0  0  0  0
 21 41  1  0  0  0  0
 22 24  2  0  0  0  0
 22 42  1  0  0  0  0
 23 53  1  0  0  0  0
 24 43  1  0  0  0  0
 25 30  2  0  0  0  0
 25 69  1  0  0  0  0
 26 83  1  0  0  0  0
 27 84  1  0  0  0  0
 28 31  2  0  0  0  0
 28 83  1  0  0  0  0
 29 85  1  0  0  0  0
 30 86  1  0  0  0  0
 31 87  1  0  0  0  0
 32 66  2  0  0  0  0
 33 68  1  0  0  0  0
 33 72  1  0  0  0  0
 34 44  1  0  0  0  0
 34 69  1  0  0  0  0
 34 77  2  0  0  0  0
 35 37  1  0  0  0  0
 35 67  2  0  0  0  0
 36 73  1  0  0  0  0
 36 78  2  0  0  0  0
 37 70  1  0  0  0  0
 37 79  2  0  0  0  0
 38 54  1  0  0  0  0
 38 74  1  0  0  0  0
 38 80  2  0  0  0  0
 39 63  1  0  0  0  0
 39 71  1  0  0  0  0
 39 81  2  0  0  0  0
 40 64  1  0  0  0  0
 40 75  1  0  0  0  0
 40 82  2  0  0  0  0
 41 45  1  0  0  0  0
 42 54  1  0  0  0  0
 43 71  1  0  0  0  0
 44 46  1  0  0  0  0
 45 48  1  0  0  0  0
 46 55  1  0  0  0  0
 47 49  1  0  0  0  0
 47 50  1  0  0  0  0
 48 53  1  0  0  0  0
 49 56  1  0  0  0  0
 50 70  1  0  0  0  0
 51 55  1  0  0  0  0
 51 69  1  0  0  0  0
 52 56  1  0  0  0  0
 52 70  1  0  0  0  0
 53 74  1  0  0  0  0
 54 71  1  0  0  0  0
 55 62  1  0  0  0  0
 56 68  1  0  0  0  0
 57 64  1  0  0  0  0
 58 65  1  0  0  0  0
 59 65  1  0  0  0  0
 60 65  1  0  0  0  0
 61 76  1  0  0  0  0
 62 84  1  0  0  0  0
 63 65  1  0  0  0  0
 63 75  1  0  0  0  0
 64 76  1  0  0  0  0
 66 68  1  0  0  0  0
M  CHG  1  76   1
M  ISO  4  35 100  37 100  62 101  84 101
M  END
> <Batch ID>
0097

> <Smiles>
CNC(C)C(=O)NC(C(=O)N1Cc2cc([101O:1][101CH2:1]C3CCC(=O)N(c4ccc([100C:0](=N)[100C:0](=O)N5CCCC(n6nc(-c7ccc(Oc8ccc(F)cc8F)cc7)c(C(N)=O)c6N)C5)cc4F)C3)ccc2CC1C(=O)NC1CCCc2ccccc21)C(C)(C)C

> <Shape>
0.228

> <Color>
0.157

> <Negative vol penalty>
0.000

$$$$

  -OEChem-04052300493D

 86 95  0     1  0  0  0  0  0999 V2000
  -24.0782  -26.7191   19.2653 C   0  0  0  0  0  0  0  0  0  0  0  0
  -24.9128  -25.9504   20.0702 C   0  0  0  0  0  0  0  0  0  0  0  0
  -22.8004  -10.1446   20.0971 C   0  0  0  0  0  0  0  0  0  0  0  0
  -24.1816   -9.5731   21.9953 C   0  0  0  0  0  0  0  0  0  0  0  0
  -23.3535  -27.7729   19.8205 C   0  0  0  0  0  0  0  0  0  0  0  0
  -25.0241  -26.2358   21.4306 C   0  0  0  0  0  0  0  0  0  0  0  0
  -24.8310  -22.0749   24.3107 C   0  0  0  0  0  0  0  0  0  0  0  0
  -30.6109  -14.9777   24.9980 C   0  0  0  0  0  0  0  0  0  0  0  0
  -32.7214  -15.2867   23.8633 C   0  0  0  0  0  0  0  0  0  0  0  0
  -30.6216  -16.3184   25.3829 C   0  0  0  0  0  0  0  0  0  0  0  0
  -32.7321  -16.6274   24.2482 C   0  0  0  0  0  0  0  0  0  0  0  0
  -22.0660   -8.9727   20.2786 C   0  0  0  0  0  0  0  0  0  0  0  0
  -23.4471   -8.4012   22.1768 C   0  0  0  0  0  0  0  0  0  0  0  0
  -25.9867  -21.2988   24.3864 C   0  0  0  0  0  0  0  0  0  0  0  0
  -23.2903   -5.3199   20.7940 C   0  0  0  0  0  0  0  0  0  0  0  0
  -23.9981   -4.1423   21.0346 C   0  0  0  0  0  0  0  0  0  0  0  0
  -26.5128  -22.3006   26.5168 C   0  0  0  0  0  0  0  0  0  0  0  0
  -22.8755   -3.9019   23.1604 C   0  0  0  0  0  0  0  0  0  0  0  0
  -23.8583  -10.4447   20.9554 C   0  0  0  0  0  0  0  0  0  0  0  0
  -24.1337  -12.9763   20.8042 C   0  0  0  0  0  0  0  0  0  0  0  0
  -23.4485  -28.0653   21.1902 C   0  0  0  0  0  0  0  0  0  0  0  0
  -24.5127  -22.9792   25.3341 C   0  0  0  0  0  0  0  0  0  0  0  0
  -24.3010  -27.2954   22.0043 C   0  0  0  0  0  0  0  0  0  0  0  0
  -25.3512  -23.0853   26.4530 C   0  0  0  0  0  0  0  0  0  0  0  0
  -31.6609  -14.4618   24.2383 C   0  0  0  0  0  0  0  0  0  0  0  0
  -31.6821  -17.1432   25.0080 C   0  0  0  0  0  0  0  0  0  0  0  0
  -22.3894   -8.1010   21.3185 C   0  0  0  0  0  0  0  0  0  0  0  0
  -26.8293  -21.4136   25.4882 C   0  0  0  0  0  0  0  0  0  0  0  0
  -22.3752   -5.7886   21.7367 C   0  0  0  0  0  0  0  0  0  0  0  0
  -23.7906   -3.4333   22.2177 C   0  0  0  0  0  0  0  0  0  0  0  0
  -22.1678   -5.0796   22.9198 C   0  0  0  0  0  0  0  0  0  0  0  0
  -24.6176  -11.6548   20.7681 C   0  0  0  0  0  0  0  0  0  0  0  0
  -25.2413  -13.7541   20.5704 C   0  0  0  0  0  0  0  0  0  0  0  0
  -32.9068  -19.2109   25.6202 C   0  0  0  0  0  0  0  0  0  0  0  0
  -22.8020  -13.4577   21.0291 C   0  0  0  0  0  0  0  0  0  0  0  0
  -24.1456  -26.1318   25.5078 C   0  0  0  0  0  0  0  0  0  0  0  0
  -23.2004  -25.4633   28.5380 C   0  0  0  0  0  0  0  0  0  0  0  0
  -24.2564  -23.2724   31.2030 C   0  0  0  0  0  0  0  0  0  0  0  0
  -31.1019  -12.8615   21.4120 C   0  0  0  0  0  0  0  0  0  0  0  0
  -22.6821  -29.2442   21.7357 C   0  0  0  0  0  0  0  0  0  0  0  0
  -23.2485  -23.7899   25.2501 C   0  0  0  0  0  0  0  0  0  0  0  0
  -25.0438  -24.0264   27.5879 C   0  0  0  0  0  0  0  0  0  0  0  0
  -32.8270  -20.7222   25.7253 C   0  0  0  0  0  0  0  0  0  0  0  0
  -22.5687  -29.2452   23.2580 C   0  0  0  0  0  0  0  0  0  0  0  0
  -31.5734  -21.2360   26.3987 C   0  0  0  0  0  0  0  0  0  0  0  0
  -29.4772  -13.6659   18.3477 C   0  0  0  0  0  0  0  0  0  0  0  0
  -23.9227  -28.9477   23.8944 C   0  0  0  0  0  0  0  0  0  0  0  0
  -28.0039  -13.3610   18.6238 C   0  0  0  0  0  0  0  0  0  0  0  0
  -30.4001  -12.6683   19.0441 C   0  0  0  0  0  0  0  0  0  0  0  0
  -30.4025  -19.1405   25.7813 C   0  0  0  0  0  0  0  0  0  0  0  0
  -28.6998  -12.2176   20.7702 C   0  0  0  0  0  0  0  0  0  0  0  0
  -24.4294  -27.5583   23.4890 C   0  0  1  0  0  0  0  0  0  0  0  0
  -23.2897  -25.0517   26.1066 C   0  0  1  0  0  0  0  0  0  0  0  0
  -30.3614  -20.6647   25.6815 C   0  0  1  0  0  0  0  0  0  0  0  0
  -27.7319  -13.2302   20.1345 C   0  0  2  0  0  0  0  0  0  0  0  0
  -22.9551  -22.2591   33.0944 C   0  0  0  0  0  0  0  0  0  0  0  0
  -24.1619  -27.8907   30.1170 C   0  0  0  0  0  0  0  0  0  0  0  0
  -24.4383  -26.3986   32.1084 C   0  0  0  0  0  0  0  0  0  0  0  0
  -22.1799  -26.7248   31.1003 C   0  0  0  0  0  0  0  0  0  0  0  0
  -25.0870  -20.5309   30.4591 C   0  0  0  0  0  0  0  0  0  0  0  0
  -31.6494  -13.0284   23.8268 C   0  0  0  0  0  0  0  0  0  0  0  0
  -29.0649  -21.2125   26.2742 C   0  0  0  0  0  0  0  0  0  1  0  0
  -23.8968  -25.3343   29.8712 C   0  0  1  0  0  0  0  0  0  0  0  0
  -23.5314  -22.0366   31.7047 C   0  0  2  0  0  0  0  0  0  0  0  0
  -23.6826  -26.5813   30.7748 C   0  0  0  0  0  0  0  0  0  0  0  0
  -25.9304  -11.5928   20.5299 N   0  0  0  0  0  0  0  0  0  0  0  0
  -26.2808  -12.8851   20.4141 N   0  0  0  0  0  0  0  0  0  0  0  0
  -31.6933  -18.5345   25.4070 N   0  0  0  0  0  0  0  0  0  0  0  0
  -23.7994  -24.8021   27.4564 N   0  0  0  0  0  0  0  0  0  0  0  0
  -30.0913  -12.5929   20.4741 N   0  0  0  0  0  0  0  0  0  0  0  0
  -25.4178  -15.0898   20.4852 N   0  0  0  0  0  0  0  0  0  0  0  0
  -22.4034  -13.7302   22.3449 N   0  0  0  0  0  0  0  0  0  0  0  0
  -23.7472  -26.5308   24.2463 N   0  0  0  0  0  0  0  0  0  0  0  0
  -23.4272  -24.0837   30.4577 N   0  0  0  0  0  0  0  0  0  0  0  0
  -30.7232  -12.7740   22.7460 N   0  0  0  0  0  0  0  0  0  0  0  0
  -24.4648  -20.8763   31.7631 N   0  3  0  0  0  0  0  0  0  0  0  0
  -34.0219  -18.6846   25.6683 O   0  0  0  0  0  0  0  0  0  0  0  0
  -21.9843  -13.6252   20.0928 O   0  0  0  0  0  0  0  0  0  0  0  0
  -25.0961  -26.5718   26.1440 O   0  0  0  0  0  0  0  0  0  0  0  0
  -22.1594  -26.1204   28.4606 O   0  0  0  0  0  0  0  0  0  0  0  0
  -25.4390  -23.4974   31.4508 O   0  0  0  0  0  0  0  0  0  0  0  0
  -32.2548  -13.1625   21.0847 O   0  0  0  0  0  0  0  0  0  0  0  0
  -21.6728   -6.9575   21.4960 O   0  0  0  0  0  0  0  0  0  0  0  0
  -27.9583  -20.6577   25.5643 O   0  0  0  0  0  0  0  0  0  1  0  0
  -24.4692   -2.3016   22.4479 F   0  0  0  0  0  0  0  0  0  0  0  0
  -21.2890   -5.5243   23.8287 F   0  0  0  0  0  0  0  0  0  0  0  0
  1  2  1  0  0  0  0
  1  5  2  0  0  0  0
  2  6  2  0  0  0  0
  3 12  2  0  0  0  0
  3 19  1  0  0  0  0
  4 13  1  0  0  0  0
  4 19  2  0  0  0  0
  5 21  1  0  0  0  0
  6 23  1  0  0  0  0
  7 14  2  0  0  0  0
  7 22  1  0  0  0  0
  8 10  2  0  0  0  0
  8 25  1  0  0  0  0
  9 11  1  0  0  0  0
  9 25  2  0  0  0  0
 10 26  1  0  0  0  0
 11 26  2  0  0  0  0
 12 27  1  0  0  0  0
 13 27  2  0  0  0  0
 14 28  1  0  0  0  0
 15 16  2  0  0  0  0
 15 29  1  0  0  0  0
 16 30  1  0  0  0  0
 17 24  1  0  0  0  0
 17 28  2  0  0  0  0
 18 30  2  0  0  0  0
 18 31  1  0  0  0  0
 19 32  1  0  0  0  0
 20 32  1  0  0  0  0
 20 33  2  0  0  0  0
 20 35  1  0  0  0  0
 21 23  2  0  0  0  0
 21 40  1  0  0  0  0
 22 24  2  0  0  0  0
 22 41  1  0  0  0  0
 23 52  1  0  0  0  0
 24 42  1  0  0  0  0
 25 61  1  0  0  0  0
 26 68  1  0  0  0  0
 27 83  1  0  0  0  0
 28 84  1  0  0  0  0
 29 31  2  0  0  0  0
 29 83  1  0  0  0  0
 30 85  1  0  0  0  0
 31 86  1  0  0  0  0
 32 66  2  0  0  0  0
 33 67  1  0  0  0  0
 33 71  1  0  0  0  0
 34 43  1  0  0  0  0
 34 68  1  0  0  0  0
 34 77  2  0  0  0  0
 35 72  1  0  0  0  0
 35 78  2  0  0  0  0
 36 53  1  0  0  0  0
 36 73  1  0  0  0  0
 36 79  2  0  0  0  0
 37 63  1  0  0  0  0
 37 69  1  0  0  0  0
 37 80  2  0  0  0  0
 38 64  1  0  0  0  0
 38 74  1  0  0  0  0
 38 81  2  0  0  0  0
 39 70  1  0  0  0  0
 39 75  1  0  0  0  0
 39 82  2  0  0  0  0
 40 44  1  0  0  0  0
 41 53  1  0  0  0  0
 42 69  1  0  0  0  0
 43 45  1  0  0  0  0
 44 47  1  0  0  0  0
 45 54  1  0  0  0  0
 46 48  1  0  0  0  0
 46 49  1  0  0  0  0
 47 52  1  0  0  0  0
 48 55  1  0  0  0  0
 49 70  1  0  0  0  0
 50 54  1  0  0  0  0
 50 68  1  0  0  0  0
 51 55  1  0  0  0  0
 51 70  1  0  0  0  0
 52 73  1  0  0  0  0
 53 69  1  0  0  0  0
 54 62  1  0  0  0  0
 55 67  1  0  0  0  0
 56 64  1  0  0  0  0
 57 65  1  0  0  0  0
 58 65  1  0  0  0  0
 59 65  1  0  0  0  0
 60 76  1  0  0  0  0
 61 75  1  0  0  0  0
 62 84  1  0  0  0  0
 63 65  1  0  0  0  0
 63 74  1  0  0  0  0
 64 76  1  0  0  0  0
 66 67  1  0  0  0  0
M  CHG  1  76   1
M  ISO  4  39 100  62 101  75 100  84 101
M  END
> <Batch ID>
0097

> <Smiles>
CNC(C)C(=O)NC(C(=O)N1Cc2cc([101O:1][101CH2:1]C3CCC(=O)N(c4ccc(C[100NH:0][100C:0](=O)N5CCCC(n6nc(-c7ccc(Oc8ccc(F)cc8F)cc7)c(C(N)=O)c6N)C5)cc4)C3)ccc2CC1C(=O)NC1CCCc2ccccc21)C(C)(C)C

> <Shape>
0.169

> <Color>
0.155

> <Negative vol penalty>
0.000

$$$$

  -OEChem-04052300493D

 87 96  0     1  0  0  0  0  0999 V2000
  -16.9452  -29.8610   19.9434 C   0  0  0  0  0  0  0  0  0  0  0  0
  -18.1284  -29.1307   19.8966 C   0  0  0  0  0  0  0  0  0  0  0  0
  -22.6038  -10.3681   20.2977 C   0  0  0  0  0  0  0  0  0  0  0  0
  -24.1984   -9.6642   21.9706 C   0  0  0  0  0  0  0  0  0  0  0  0
  -29.4853  -16.8744   19.7452 C   0  0  0  0  0  0  0  0  0  0  0  0
  -16.3812  -30.1941   21.1742 C   0  0  0  0  0  0  0  0  0  0  0  0
  -18.7489  -28.7340   21.0806 C   0  0  0  0  0  0  0  0  0  0  0  0
  -20.2945  -23.9135   20.9435 C   0  0  0  0  0  0  0  0  0  0  0  0
  -28.8161  -18.0007   19.2665 C   0  0  0  0  0  0  0  0  0  0  0  0
  -21.8183   -9.2495   20.5757 C   0  0  0  0  0  0  0  0  0  0  0  0
  -23.4129   -8.5456   22.2487 C   0  0  0  0  0  0  0  0  0  0  0  0
  -21.4699  -23.6414   20.2449 C   0  0  0  0  0  0  0  0  0  0  0  0
  -19.5964   -8.2905   22.9371 C   0  0  0  0  0  0  0  0  0  0  0  0
  -18.2210   -8.4808   23.0692 C   0  0  0  0  0  0  0  0  0  0  0  0
  -22.6873  -23.5854   22.3267 C   0  0  0  0  0  0  0  0  0  0  0  0
  -28.4089  -18.7232   21.5357 C   0  0  0  0  0  0  0  0  0  0  0  0
  -17.8341   -6.9605   21.2318 C   0  0  0  0  0  0  0  0  0  0  0  0
  -23.7939  -10.5755   20.9951 C   0  0  0  0  0  0  0  0  0  0  0  0
  -29.6161  -16.6724   21.1192 C   0  0  0  0  0  0  0  0  0  0  0  0
  -24.2319  -13.0827   20.8236 C   0  0  0  0  0  0  0  0  0  0  0  0
  -16.9900  -29.7930   22.3738 C   0  0  0  0  0  0  0  0  0  0  0  0
  -20.3086  -24.0346   22.3405 C   0  0  0  0  0  0  0  0  0  0  0  0
  -18.1932  -29.0632   22.3287 C   0  0  0  0  0  0  0  0  0  0  0  0
  -21.5102  -23.8566   23.0410 C   0  0  0  0  0  0  0  0  0  0  0  0
  -28.2779  -18.9251   20.1617 C   0  0  0  0  0  0  0  0  0  0  0  0
  -22.2229   -8.3382   21.5512 C   0  0  0  0  0  0  0  0  0  0  0  0
  -22.6671  -23.4801   20.9362 C   0  0  0  0  0  0  0  0  0  0  0  0
  -20.0907   -7.4352   21.9523 C   0  0  0  0  0  0  0  0  0  0  0  0
  -17.3398   -7.8158   22.2166 C   0  0  0  0  0  0  0  0  0  0  0  0
  -29.0780  -17.5968   22.0144 C   0  0  0  0  0  0  0  0  0  0  0  0
  -19.2096   -6.7702   21.0997 C   0  0  0  0  0  0  0  0  0  0  0  0
  -24.6060  -11.7305   20.7080 C   0  0  0  0  0  0  0  0  0  0  0  0
  -25.3488  -13.7823   20.4368 C   0  0  0  0  0  0  0  0  0  0  0  0
  -27.9356  -20.6681   18.4311 C   0  0  0  0  0  0  0  0  0  0  0  0
  -30.3123  -15.4950   21.6138 C   0  0  0  0  0  0  0  0  0  0  0  0
  -22.9861  -13.6553   21.2433 C   0  0  0  0  0  0  0  0  0  0  0  0
  -30.8913  -14.4956   20.6870 C   0  0  0  0  0  0  0  0  0  0  0  0
  -19.6387  -26.3640   24.3969 C   0  0  0  0  0  0  0  0  0  0  0  0
  -20.1129  -24.0281   26.5972 C   0  0  0  0  0  0  0  0  0  0  0  0
  -22.4424  -21.3196   27.1019 C   0  0  0  0  0  0  0  0  0  0  0  0
  -16.3681  -30.2173   23.6807 C   0  0  0  0  0  0  0  0  0  0  0  0
  -19.0273  -24.3020   23.0815 C   0  0  0  0  0  0  0  0  0  0  0  0
  -21.5752  -23.9566   24.5424 C   0  0  0  0  0  0  0  0  0  0  0  0
  -26.9619  -21.6791   17.8556 C   0  0  0  0  0  0  0  0  0  0  0  0
  -16.8890  -29.4369   24.8849 C   0  0  0  0  0  0  0  0  0  0  0  0
  -26.2665  -22.5357   18.8908 C   0  0  0  0  0  0  0  0  0  0  0  0
  -29.6117  -12.2345   18.2157 C   0  0  0  0  0  0  0  0  0  0  0  0
  -18.4109  -29.3432   24.8426 C   0  0  0  0  0  0  0  0  0  0  0  0
  -28.1764  -11.9832   18.6766 C   0  0  0  0  0  0  0  0  0  0  0  0
  -30.5538  -12.4220   19.4005 C   0  0  0  0  0  0  0  0  0  0  0  0
  -26.6546  -20.7713   20.5877 C   0  0  0  0  0  0  0  0  0  0  0  0
  -28.6902  -13.2539   20.8090 C   0  0  0  0  0  0  0  0  0  0  0  0
  -18.8830  -28.5934   23.5911 C   0  0  1  0  0  0  0  0  0  0  0  0
  -19.2514  -24.9136   24.4610 C   0  0  1  0  0  0  0  0  0  0  0  0
  -25.5897  -21.6282   19.9048 C   0  0  1  0  0  0  0  0  0  0  0  0
  -27.7043  -13.0872   19.6395 C   0  0  2  0  0  0  0  0  0  0  0  0
  -22.1735  -19.1419   28.3196 C   0  0  0  0  0  0  0  0  0  0  0  0
  -21.3125  -25.5357   28.9633 C   0  0  0  0  0  0  0  0  0  0  0  0
  -22.5713  -23.4557   29.5609 C   0  0  0  0  0  0  0  0  0  0  0  0
  -20.0768  -23.4489   29.5740 C   0  0  0  0  0  0  0  0  0  0  0  0
  -23.2440  -19.7557   24.7205 C   0  0  0  0  0  0  0  0  0  0  0  0
  -24.8069  -22.4423   20.9328 C   0  0  0  0  0  0  0  0  0  1  0  0
  -21.3045  -23.5083   27.3646 C   0  0  1  0  0  0  0  0  0  0  0  0
  -22.1537  -19.8354   26.9663 C   0  0  2  0  0  0  0  0  0  0  0  0
  -21.3191  -23.9989   28.8399 C   0  0  0  0  0  0  0  0  0  0  0  0
  -25.8623  -11.5778   20.2810 N   0  0  0  0  0  0  0  0  0  0  0  0
  -30.4757  -15.2401   22.8839 N   0  0  0  0  0  0  0  0  0  0  0  0
  -26.2873  -12.8431   20.1248 N   0  0  0  0  0  0  0  0  0  0  0  0
  -27.5836  -20.0939   19.6648 N   0  0  0  0  0  0  0  0  0  0  0  0
  -30.0580  -13.4509   20.3125 N   0  0  0  0  0  0  0  0  0  0  0  0
  -20.2968  -24.2257   25.2213 N   0  0  0  0  0  0  0  0  0  0  0  0
  -25.6097  -15.1030   20.3363 N   0  0  0  0  0  0  0  0  0  0  0  0
  -22.8032  -13.9324   22.6049 N   0  0  0  0  0  0  0  0  0  0  0  0
  -18.7105  -27.1666   23.7616 N   0  0  0  0  0  0  0  0  0  0  0  0
  -21.2831  -22.0569   27.2178 N   0  0  0  0  0  0  0  0  0  0  0  0
  -23.1713  -19.1876   26.0912 N   0  3  0  0  0  0  0  0  0  0  0  0
  -28.9296  -20.3745   17.7615 O   0  0  0  0  0  0  0  0  0  0  0  0
  -22.0564  -13.8983   20.4370 O   0  0  0  0  0  0  0  0  0  0  0  0
  -32.0500  -14.6990   20.3488 O   0  0  0  0  0  0  0  0  0  0  0  0
  -20.7004  -26.7281   24.8889 O   0  0  0  0  0  0  0  0  0  0  0  0
  -19.0558  -24.2439   27.1951 O   0  0  0  0  0  0  0  0  0  0  0  0
  -23.5826  -21.7785   27.1083 O   0  0  0  0  0  0  0  0  0  0  0  0
  -21.4565   -7.2467   21.8229 O   0  0  0  0  0  0  0  0  0  0  0  0
  -23.8159  -23.2151   20.2567 O   0  0  0  0  0  0  0  0  0  1  0  0
  -16.0189   -7.9975   22.3446 F   0  0  0  0  0  0  0  0  0  0  0  0
  -29.1974  -17.4127   23.3371 F   0  0  0  0  0  0  0  0  0  0  0  0
  -19.6785   -5.9463   20.1525 F   0  0  0  0  0  0  0  0  0  0  0  0
  1  2  1  0  0  0  0
  1  6  2  0  0  0  0
  2  7  2  0  0  0  0
  3 10  2  0  0  0  0
  3 18  1  0  0  0  0
  4 11  1  0  0  0  0
  4 18  2  0  0  0  0
  5  9  2  0  0  0  0
  5 19  1  0  0  0  0
  6 21  1  0  0  0  0
  7 23  1  0  0  0  0
  8 12  2  0  0  0  0
  8 22  1  0  0  0  0
  9 25  1  0  0  0  0
 10 26  1  0  0  0  0
 11 26  2  0  0  0  0
 12 27  1  0  0  0  0
 13 14  2  0  0  0  0
 13 28  1  0  0  0  0
 14 29  1  0  0  0  0
 15 24  1  0  0  0  0
 15 27  2  0  0  0  0
 16 25  2  0  0  0  0
 16 30  1  0  0  0  0
 17 29  2  0  0  0  0
 17 31  1  0  0  0  0
 18 32  1  0  0  0  0
 19 30  2  0  0  0  0
 19 35  1  0  0  0  0
 20 32  1  0  0  0  0
 20 33  2  0  0  0  0
 20 36  1  0  0  0  0
 21 23  2  0  0  0  0
 21 41  1  0  0  0  0
 22 24  2  0  0  0  0
 22 42  1  0  0  0  0
 23 53  1  0  0  0  0
 24 43  1  0  0  0  0
 25 69  1  0  0  0  0
 26 83  1  0  0  0  0
 27 84  1  0  0  0  0
 28 31  2  0  0  0  0
 28 83  1  0  0  0  0
 29 85  1  0  0  0  0
 30 86  1  0  0  0  0
 31 87  1  0  0  0  0
 32 66  2  0  0  0  0
 33 68  1  0  0  0  0
 33 72  1  0  0  0  0
 34 44  1  0  0  0  0
 34 69  1  0  0  0  0
 34 77  2  0  0  0  0
 35 37  1  0  0  0  0
 35 67  2  0  0  0  0
 36 73  1  0  0  0  0
 36 78  2  0  0  0  0
 37 70  1  0  0  0  0
 37 79  2  0  0  0  0
 38 54  1  0  0  0  0
 38 74  1  0  0  0  0
 38 80  2  0  0  0  0
 39 63  1  0  0  0  0
 39 71  1  0  0  0  0
 39 81  2  0  0  0  0
 40 64  1  0  0  0  0
 40 75  1  0  0  0  0
 40 82  2  0  0  0  0
 41 45  1  0  0  0  0
 42 54  1  0  0  0  0
 43 71  1  0  0  0  0
 44 46  1  0  0  0  0
 45 48  1  0  0  0  0
 46 55  1  0  0  0  0
 47 49  1  0  0  0  0
 47 50  1  0  0  0  0
 48 53  1  0  0  0  0
 49 56  1  0  0  0  0
 50 70  1  0  0  0  0
 51 55  1  0  0  0  0
 51 69  1  0  0  0  0
 52 56  1  0  0  0  0
 52 70  1  0  0  0  0
 53 74  1  0  0  0  0
 54 71  1  0  0  0  0
 55 62  1  0  0  0  0
 56 68  1  0  0  0  0
 57 64  1  0  0  0  0
 58 65  1  0  0  0  0
 59 65  1  0  0  0  0
 60 65  1  0  0  0  0
 61 76  1  0  0  0  0
 62 84  1  0  0  0  0
 63 65  1  0  0  0  0
 63 75  1  0  0  0  0
 64 76  1  0  0  0  0
 66 68  1  0  0  0  0
M  CHG  1  76   1
M  ISO  4  35 100  37 100  62 101  84 101
M  END
> <Batch ID>
0097

> <Smiles>
CNC(C)C(=O)NC(C(=O)N1Cc2cc([101O:1][101CH2:1]C3CCC(=O)N(c4ccc([100C:0](=N)[100C:0](=O)N5CCCC(n6nc(-c7ccc(Oc8ccc(F)cc8F)cc7)c(C(N)=O)c6N)C5)c(F)c4)C3)ccc2CC1C(=O)NC1CCCc2ccccc21)C(C)(C)C

> <Shape>
0.226

> <Color>
0.184

> <Negative vol penalty>
0.000

$$$$

  -OEChem-04052300493D

 86 95  0     1  0  0  0  0  0999 V2000
  -24.6595  -27.5665   12.5376 C   0  0  0  0  0  0  0  0  0  0  0  0
  -25.7192  -27.2535   13.3828 C   0  0  0  0  0  0  0  0  0  0  0  0
  -22.9918  -11.6279   22.5750 C   0  0  0  0  0  0  0  0  0  0  0  0
  -23.6160   -9.8354   21.0802 C   0  0  0  0  0  0  0  0  0  0  0  0
  -23.8264  -28.6440   12.8357 C   0  0  0  0  0  0  0  0  0  0  0  0
  -25.9470  -28.0184   14.5262 C   0  0  0  0  0  0  0  0  0  0  0  0
  -26.9070  -25.1758   18.6059 C   0  0  0  0  0  0  0  0  0  0  0  0
  -32.3538  -18.8526   21.1988 C   0  0  0  0  0  0  0  0  0  0  0  0
  -31.8752  -17.5966   20.8261 C   0  0  0  0  0  0  0  0  0  0  0  0
  -22.1627  -10.7534   23.2775 C   0  0  0  0  0  0  0  0  0  0  0  0
  -22.7870   -8.9608   21.7827 C   0  0  0  0  0  0  0  0  0  0  0  0
  -28.1880  -24.6374   18.7196 C   0  0  0  0  0  0  0  0  0  0  0  0
  -19.0911   -9.3933   22.9039 C   0  0  0  0  0  0  0  0  0  0  0  0
  -17.8149   -9.8429   23.2428 C   0  0  0  0  0  0  0  0  0  0  0  0
  -28.7831  -26.3947   20.2614 C   0  0  0  0  0  0  0  0  0  0  0  0
  -30.1480  -19.7867   20.8836 C   0  0  0  0  0  0  0  0  0  0  0  0
  -18.3259   -9.5293   25.5832 C   0  0  0  0  0  0  0  0  0  0  0  0
  -23.7185  -11.1689   21.4763 C   0  0  0  0  0  0  0  0  0  0  0  0
  -24.1947  -13.2516   20.0824 C   0  0  0  0  0  0  0  0  0  0  0  0
  -24.0382  -29.4166   13.9884 C   0  0  0  0  0  0  0  0  0  0  0  0
  -26.5572  -26.3359   19.3117 C   0  0  0  0  0  0  0  0  0  0  0  0
  -25.1167  -29.1080   14.8394 C   0  0  0  0  0  0  0  0  0  0  0  0
  -27.4962  -26.9444   20.1568 C   0  0  0  0  0  0  0  0  0  0  0  0
  -31.4902  -19.9477   21.2276 C   0  0  0  0  0  0  0  0  0  0  0  0
  -30.5331  -17.4356   20.4820 C   0  0  0  0  0  0  0  0  0  0  0  0
  -22.0603   -9.4199   22.8814 C   0  0  0  0  0  0  0  0  0  0  0  0
  -29.1271  -25.2485   19.5452 C   0  0  0  0  0  0  0  0  0  0  0  0
  -19.9847   -9.0116   23.9047 C   0  0  0  0  0  0  0  0  0  0  0  0
  -17.4323   -9.9109   24.5824 C   0  0  0  0  0  0  0  0  0  0  0  0
  -29.6695  -18.5306   20.5107 C   0  0  0  0  0  0  0  0  0  0  0  0
  -19.6021   -9.0796   25.2444 C   0  0  0  0  0  0  0  0  0  0  0  0
  -24.5746  -12.0719   20.7499 C   0  0  0  0  0  0  0  0  0  0  0  0
  -25.3653  -13.7408   19.5563 C   0  0  0  0  0  0  0  0  0  0  0  0
  -33.0553  -21.3739   22.5186 C   0  0  0  0  0  0  0  0  0  0  0  0
  -22.8993  -13.8518   19.9498 C   0  0  0  0  0  0  0  0  0  0  0  0
  -25.6295  -29.2645   18.4952 C   0  0  0  0  0  0  0  0  0  0  0  0
  -25.2200  -29.6055   21.6950 C   0  0  0  0  0  0  0  0  0  0  0  0
  -26.9990  -28.6717   24.6918 C   0  0  0  0  0  0  0  0  0  0  0  0
  -30.7758  -14.9706   20.0227 C   0  0  0  0  0  0  0  0  0  0  0  0
  -23.1397  -30.6006   14.2440 C   0  0  0  0  0  0  0  0  0  0  0  0
  -25.1630  -26.8889   19.1989 C   0  0  0  0  0  0  0  0  0  0  0  0
  -27.1644  -28.1799   20.9517 C   0  0  0  0  0  0  0  0  0  0  0  0
  -33.7014  -22.7429   22.6176 C   0  0  0  0  0  0  0  0  0  0  0  0
  -23.2226  -31.1310   15.6730 C   0  0  0  0  0  0  0  0  0  0  0  0
  -32.7400  -23.9001   22.4579 C   0  0  0  0  0  0  0  0  0  0  0  0
  -29.9431  -11.6160   19.1680 C   0  0  0  0  0  0  0  0  0  0  0  0
  -24.6782  -31.2617   16.1102 C   0  0  0  0  0  0  0  0  0  0  0  0
  -28.4410  -11.5326   19.4484 C   0  0  0  0  0  0  0  0  0  0  0  0
  -30.6630  -12.4938   20.1901 C   0  0  0  0  0  0  0  0  0  0  0  0
  -31.2009  -22.4256   21.1929 C   0  0  0  0  0  0  0  0  0  0  0  0
  -28.5955  -13.7548   20.6421 C   0  0  0  0  0  0  0  0  0  0  0  0
  -25.3811  -29.8989   16.1022 C   0  0  1  0  0  0  0  0  0  0  0  0
  -25.0750  -28.3672   19.5654 C   0  0  1  0  0  0  0  0  0  0  0  0
  -31.9865  -23.7353   21.1483 C   0  0  1  0  0  0  0  0  0  0  0  0
  -27.8175  -12.9339   19.6007 C   0  0  2  0  0  0  0  0  0  0  0  0
  -26.1626  -28.2398   27.0180 C   0  0  0  0  0  0  0  0  0  0  0  0
  -25.9012  -32.5409   22.1736 C   0  0  0  0  0  0  0  0  0  0  0  0
  -26.7040  -31.9098   24.4595 C   0  0  0  0  0  0  0  0  0  0  0  0
  -24.3150  -31.5537   23.8360 C   0  0  0  0  0  0  0  0  0  0  0  0
  -28.2284  -25.9804   24.7588 C   0  0  0  0  0  0  0  0  0  0  0  0
  -31.0542  -24.9191   20.8994 C   0  0  0  0  0  0  0  0  0  1  0  0
  -26.0920  -30.0545   22.8426 C   0  0  1  0  0  0  0  0  0  0  0  0
  -26.5888  -27.6131   25.6995 C   0  0  2  0  0  0  0  0  0  0  0  0
  -25.7641  -31.5024   23.3048 C   0  0  0  0  0  0  0  0  0  0  0  0
  -25.8843  -11.8262   20.6577 N   0  0  0  0  0  0  0  0  0  0  0  0
  -26.3374  -12.8584   19.9260 N   0  0  0  0  0  0  0  0  0  0  0  0
  -31.9867  -21.2513   21.6138 N   0  0  0  0  0  0  0  0  0  0  0  0
  -25.7900  -28.6863   20.8028 N   0  0  0  0  0  0  0  0  0  0  0  0
  -30.0199  -13.8067   20.2773 N   0  0  0  0  0  0  0  0  0  0  0  0
  -25.6477  -14.8352   18.8181 N   0  0  0  0  0  0  0  0  0  0  0  0
  -22.1020  -13.4856   18.8569 N   0  0  0  0  0  0  0  0  0  0  0  0
  -30.0500  -16.1585   20.1032 N   0  0  0  0  0  0  0  0  0  0  0  0
  -25.0061  -29.1298   17.2694 N   0  0  0  0  0  0  0  0  0  0  0  0
  -25.9442  -29.0461   23.8864 N   0  0  0  0  0  0  0  0  0  0  0  0
  -27.7233  -26.6841   25.9658 N   0  3  0  0  0  0  0  0  0  0  0  0
  -33.5399  -20.4547   23.1841 O   0  0  0  0  0  0  0  0  0  0  0  0
  -22.4685  -14.7003   20.7671 O   0  0  0  0  0  0  0  0  0  0  0  0
  -26.5535  -30.0239   18.7623 O   0  0  0  0  0  0  0  0  0  0  0  0
  -24.0728  -30.0483   21.5979 O   0  0  0  0  0  0  0  0  0  0  0  0
  -28.1400  -29.1241   24.6280 O   0  0  0  0  0  0  0  0  0  0  0  0
  -31.9721  -14.9155   19.7263 O   0  0  0  0  0  0  0  0  0  0  0  0
  -21.2516   -8.5662   23.5667 O   0  0  0  0  0  0  0  0  0  0  0  0
  -30.3784  -24.7254   19.6576 O   0  0  0  0  0  0  0  0  0  1  0  0
  -16.2073  -10.3441   24.9078 F   0  0  0  0  0  0  0  0  0  0  0  0
  -28.3778  -18.3880   20.1806 F   0  0  0  0  0  0  0  0  0  0  0  0
  -20.4566   -8.7155   26.2103 F   0  0  0  0  0  0  0  0  0  0  0  0
  1  2  1  0  0  0  0
  1  5  2  0  0  0  0
  2  6  2  0  0  0  0
  3 10  2  0  0  0  0
  3 18  1  0  0  0  0
  4 11  1  0  0  0  0
  4 18  2  0  0  0  0
  5 20  1  0  0  0  0
  6 22  1  0  0  0  0
  7 12  2  0  0  0  0
  7 21  1  0  0  0  0
  8  9  2  0  0  0  0
  8 24  1  0  0  0  0
  9 25  1  0  0  0  0
 10 26  1  0  0  0  0
 11 26  2  0  0  0  0
 12 27  1  0  0  0  0
 13 14  2  0  0  0  0
 13 28  1  0  0  0  0
 14 29  1  0  0  0  0
 15 23  1  0  0  0  0
 15 27  2  0  0  0  0
 16 24  2  0  0  0  0
 16 30  1  0  0  0  0
 17 29  2  0  0  0  0
 17 31  1  0  0  0  0
 18 32  1  0  0  0  0
 19 32  1  0  0  0  0
 19 33  2  0  0  0  0
 19 35  1  0  0  0  0
 20 22  2  0  0  0  0
 20 40  1  0  0  0  0
 21 23  2  0  0  0  0
 21 41  1  0  0  0  0
 22 52  1  0  0  0  0
 23 42  1  0  0  0  0
 24 67  1  0  0  0  0
 25 30  2  0  0  0  0
 25 72  1  0  0  0  0
 26 82  1  0  0  0  0
 27 83  1  0  0  0  0
 28 31  2  0  0  0  0
 28 82  1  0  0  0  0
 29 84  1  0  0  0  0
 30 85  1  0  0  0  0
 31 86  1  0  0  0  0
 32 65  2  0  0  0  0
 33 66  1  0  0  0  0
 33 70  1  0  0  0  0
 34 43  1  0  0  0  0
 34 67  1  0  0  0  0
 34 76  2  0  0  0  0
 35 71  1  0  0  0  0
 35 77  2  0  0  0  0
 36 53  1  0  0  0  0
 36 73  1  0  0  0  0
 36 78  2  0  0  0  0
 37 62  1  0  0  0  0
 37 68  1  0  0  0  0
 37 79  2  0  0  0  0
 38 63  1  0  0  0  0
 38 74  1  0  0  0  0
 38 80  2  0  0  0  0
 39 69  1  0  0  0  0
 39 72  1  0  0  0  0
 39 81  2  0  0  0  0
 40 44  1  0  0  0  0
 41 53  1  0  0  0  0
 42 68  1  0  0  0  0
 43 45  1  0  0  0  0
 44 47  1  0  0  0  0
 45 54  1  0  0  0  0
 46 48  1  0  0  0  0
 46 49  1  0  0  0  0
 47 52  1  0  0  0  0
 48 55  1  0  0  0  0
 49 69  1  0  0  0  0
 50 54  1  0  0  0  0
 50 67  1  0  0  0  0
 51 55  1  0  0  0  0
 51 69  1  0  0  0  0
 52 73  1  0  0  0  0
 53 68  1  0  0  0  0
 54 61  1  0  0  0  0
 55 66  1  0  0  0  0
 56 63  1  0  0  0  0
 57 64  1  0  0  0  0
 58 64  1  0  0  0  0
 59 64  1  0  0  0  0
 60 75  1  0  0  0  0
 61 83  1  0  0  0  0
 62 64  1  0  0  0  0
 62 74  1  0  0  0  0
 63 75  1  0  0  0  0
 65 66  1  0  0  0  0
M  CHG  1  75   1
M  ISO  4  39 100  61 101  72 100  83 101
M  END
> <Batch ID>
0097

> <Smiles>
CNC(C)C(=O)NC(C(=O)N1Cc2cc([101O:1][101CH2:1]C3CCC(=O)N(c4ccc([100NH:0][100C:0](=O)N5CCCC(n6nc(-c7ccc(Oc8ccc(F)cc8F)cc7)c(C(N)=O)c6N)C5)c(F)c4)C3)ccc2CC1C(=O)NC1CCCc2ccccc21)C(C)(C)C

> <Shape>
0.240

> <Color>
0.117

> <Negative vol penalty>
0.000

$$$$

  -OEChem-04052300493D

 87 96  0     1  0  0  0  0  0999 V2000
  -28.1950  -33.3598   26.6191 C   0  0  0  0  0  0  0  0  0  0  0  0
  -28.3387  -32.2212   25.8327 C   0  0  0  0  0  0  0  0  0  0  0  0
  -22.9457   -9.6967   19.9174 C   0  0  0  0  0  0  0  0  0  0  0  0
  -23.2884  -11.3449   18.1845 C   0  0  0  0  0  0  0  0  0  0  0  0
  -26.9257  -33.7698   27.0249 C   0  0  0  0  0  0  0  0  0  0  0  0
  -27.2131  -31.4912   25.4525 C   0  0  0  0  0  0  0  0  0  0  0  0
  -27.3103  -30.1768   20.5630 C   0  0  0  0  0  0  0  0  0  0  0  0
  -30.7561  -20.0461   21.0581 C   0  0  0  0  0  0  0  0  0  0  0  0
  -30.5481  -18.6672   21.0286 C   0  0  0  0  0  0  0  0  0  0  0  0
  -22.0332   -9.0283   19.1012 C   0  0  0  0  0  0  0  0  0  0  0  0
  -22.3760  -10.6765   17.3682 C   0  0  0  0  0  0  0  0  0  0  0  0
  -28.1201  -29.0984   20.2096 C   0  0  0  0  0  0  0  0  0  0  0  0
  -18.8024   -9.3772   18.1714 C   0  0  0  0  0  0  0  0  0  0  0  0
  -17.6055   -8.9543   18.7495 C   0  0  0  0  0  0  0  0  0  0  0  0
  -26.1823  -27.6621   20.1755 C   0  0  0  0  0  0  0  0  0  0  0  0
  -28.1610  -19.0249   21.1322 C   0  0  0  0  0  0  0  0  0  0  0  0
  -18.1438   -6.6664   18.1903 C   0  0  0  0  0  0  0  0  0  0  0  0
  -23.5733  -10.8550   19.4590 C   0  0  0  0  0  0  0  0  0  0  0  0
  -24.2698  -12.1081   21.5691 C   0  0  0  0  0  0  0  0  0  0  0  0
  -25.7831  -33.0499   26.6414 C   0  0  0  0  0  0  0  0  0  0  0  0
  -25.9296  -30.0034   20.7363 C   0  0  0  0  0  0  0  0  0  0  0  0
  -25.9274  -31.8912   25.8547 C   0  0  0  0  0  0  0  0  0  0  0  0
  -25.3568  -28.7405   20.5287 C   0  0  0  0  0  0  0  0  0  0  0  0
  -29.6665  -20.9145   21.1248 C   0  0  0  0  0  0  0  0  0  0  0  0
  -29.2506  -18.1566   21.0655 C   0  0  0  0  0  0  0  0  0  0  0  0
  -21.7484   -9.5181   17.8266 C   0  0  0  0  0  0  0  0  0  0  0  0
  -27.5566  -27.8402   20.0186 C   0  0  0  0  0  0  0  0  0  0  0  0
  -19.6700   -8.4446   17.6026 C   0  0  0  0  0  0  0  0  0  0  0  0
  -17.2762   -7.5989   18.7590 C   0  0  0  0  0  0  0  0  0  0  0  0
  -28.3690  -20.4039   21.1618 C   0  0  0  0  0  0  0  0  0  0  0  0
  -19.3406   -7.0893   17.6121 C   0  0  0  0  0  0  0  0  0  0  0  0
  -24.5155  -11.5463   20.3019 C   0  0  0  0  0  0  0  0  0  0  0  0
  -25.4768  -12.6434   21.9473 C   0  0  0  0  0  0  0  0  0  0  0  0
  -31.0511  -22.8812   21.7291 C   0  0  0  0  0  0  0  0  0  0  0  0
  -23.0587  -12.1430   22.3358 C   0  0  0  0  0  0  0  0  0  0  0  0
  -23.9144  -30.3423   23.1710 C   0  0  0  0  0  0  0  0  0  0  0  0
  -21.6805  -29.7279   20.9007 C   0  0  0  0  0  0  0  0  0  0  0  0
  -21.3161  -27.4743   18.1067 C   0  0  0  0  0  0  0  0  0  0  0  0
  -29.9050  -15.8323   20.3870 C   0  0  0  0  0  0  0  0  0  0  0  0
  -24.4359  -33.5050   27.1438 C   0  0  0  0  0  0  0  0  0  0  0  0
  -25.0659  -31.1825   21.0915 C   0  0  0  0  0  0  0  0  0  0  0  0
  -23.8770  -28.5059   20.6825 C   0  0  0  0  0  0  0  0  0  0  0  0
  -31.3354  -24.3425   21.4375 C   0  0  0  0  0  0  0  0  0  0  0  0
  -23.2631  -32.8881   26.3861 C   0  0  0  0  0  0  0  0  0  0  0  0
  -30.1008  -25.2113   21.3388 C   0  0  0  0  0  0  0  0  0  0  0  0
  -30.0970  -12.1598   19.9760 C   0  0  0  0  0  0  0  0  0  0  0  0
  -23.4663  -31.3855   26.2195 C   0  0  0  0  0  0  0  0  0  0  0  0
  -28.6317  -11.7337   20.0439 C   0  0  0  0  0  0  0  0  0  0  0  0
  -30.2502  -13.5766   19.4314 C   0  0  0  0  0  0  0  0  0  0  0  0
  -28.7583  -23.2096   20.7606 C   0  0  0  0  0  0  0  0  0  0  0  0
  -27.9887  -14.1676   20.2545 C   0  0  0  0  0  0  0  0  0  0  0  0
  -24.7284  -31.0869   25.4013 C   0  0  1  0  0  0  0  0  0  0  0  0
  -23.7464  -30.7816   21.7439 C   0  0  1  0  0  0  0  0  0  0  0  0
  -29.1600  -24.6121   20.3065 C   0  0  1  0  0  0  0  0  0  0  0  0
  -27.8050  -12.7586   20.8379 C   0  0  1  0  0  0  0  0  0  0  0  0
  -19.9840  -27.6996   15.9920 C   0  0  0  0  0  0  0  0  0  0  0  0
  -19.5256  -28.2113   22.4390 C   0  0  0  0  0  0  0  0  0  0  0  0
  -18.9795  -26.9839   20.3263 C   0  0  0  0  0  0  0  0  0  0  0  0
  -18.6953  -29.4597   20.4373 C   0  0  0  0  0  0  0  0  0  0  0  0
  -27.7352  -16.2248   21.4684 C   0  0  0  0  0  0  0  0  0  0  0  0
  -23.7011  -27.0079   16.4176 C   0  0  0  0  0  0  0  0  0  0  0  0
  -27.9276  -25.4929   20.1111 C   0  0  0  0  0  0  0  0  0  1  0  0
  -21.0254  -28.4821   20.3549 C   0  0  1  0  0  0  0  0  0  0  0  0
  -21.3557  -27.8392   16.6337 C   0  0  2  0  0  0  0  0  0  0  0  0
  -19.5828  -28.2838   20.9000 C   0  0  0  0  0  0  0  0  0  0  0  0
  -25.7794  -11.7096   19.9018 N   0  0  0  0  0  0  0  0  0  0  0  0
  -26.3385  -12.3801   20.9235 N   0  0  0  0  0  0  0  0  0  0  0  0
  -29.8853  -22.3449   21.1555 N   0  0  0  0  0  0  0  0  0  0  0  0
  -23.0754  -29.6888   21.0370 N   0  0  0  0  0  0  0  0  0  0  0  0
  -29.4118  -14.5312   20.1583 N   0  0  0  0  0  0  0  0  0  0  0  0
  -25.8745  -13.3088   23.0525 N   0  0  0  0  0  0  0  0  0  0  0  0
  -21.9104  -11.5452   21.7986 N   0  0  0  0  0  0  0  0  0  0  0  0
  -24.4791  -31.3000   23.9917 N   0  0  0  0  0  0  0  0  0  0  0  0
  -21.1067  -28.5814   18.9017 N   0  0  0  0  0  0  0  0  0  0  0  0
  -29.0358  -16.7305   21.0349 N   0  0  0  0  0  0  0  0  0  0  0  0
  -22.3075  -26.9530   15.9060 N   0  3  0  0  0  0  0  0  0  0  0  0
  -31.8794  -22.2505   22.3916 O   0  0  0  0  0  0  0  0  0  0  0  0
  -22.9925  -12.7024   23.4566 O   0  0  0  0  0  0  0  0  0  0  0  0
  -23.5568  -29.2183   23.5033 O   0  0  0  0  0  0  0  0  0  0  0  0
  -20.9811  -30.7024   21.1885 O   0  0  0  0  0  0  0  0  0  0  0  0
  -21.4532  -26.3220   18.5115 O   0  0  0  0  0  0  0  0  0  0  0  0
  -31.0223  -16.1874   19.9917 O   0  0  0  0  0  0  0  0  0  0  0  0
  -20.8582   -8.8660   17.0298 O   0  0  0  0  0  0  0  0  0  0  0  0
  -28.3449  -26.7857   19.6742 O   0  0  0  0  0  0  0  0  0  1  0  0
  -16.1275   -7.1928   19.3156 F   0  0  0  0  0  0  0  0  0  0  0  0
  -27.3141  -21.2291   21.2265 F   0  0  0  0  0  0  0  0  0  0  0  0
  -20.1706   -6.1886   17.0683 F   0  0  0  0  0  0  0  0  0  0  0  0
  1  2  1  0  0  0  0
  1  5  2  0  0  0  0
  2  6  2  0  0  0  0
  3 10  2  0  0  0  0
  3 18  1  0  0  0  0
  4 11  1  0  0  0  0
  4 18  2  0  0  0  0
  5 20  1  0  0  0  0
  6 22  1  0  0  0  0
  7 12  2  0  0  0  0
  7 21  1  0  0  0  0
  8  9  2  0  0  0  0
  8 24  1  0  0  0  0
  9 25  1  0  0  0  0
 10 26  1  0  0  0  0
 11 26  2  0  0  0  0
 12 27  1  0  0  0  0
 13 14  2  0  0  0  0
 13 28  1  0  0  0  0
 14 29  1  0  0  0  0
 15 23  1  0  0  0  0
 15 27  2  0  0  0  0
 16 25  2  0  0  0  0
 16 30  1  0  0  0  0
 17 29  2  0  0  0  0
 17 31  1  0  0  0  0
 18 32  1  0  0  0  0
 19 32  1  0  0  0  0
 19 33  2  0  0  0  0
 19 35  1  0  0  0  0
 20 22  2  0  0  0  0
 20 40  1  0  0  0  0
 21 23  2  0  0  0  0
 21 41  1  0  0  0  0
 22 52  1  0  0  0  0
 23 42  1  0  0  0  0
 24 30  2  0  0  0  0
 24 68  1  0  0  0  0
 25 75  1  0  0  0  0
 26 83  1  0  0  0  0
 27 84  1  0  0  0  0
 28 31  2  0  0  0  0
 28 83  1  0  0  0  0
 29 85  1  0  0  0  0
 30 86  1  0  0  0  0
 31 87  1  0  0  0  0
 32 66  2  0  0  0  0
 33 67  1  0  0  0  0
 33 71  1  0  0  0  0
 34 43  1  0  0  0  0
 34 68  1  0  0  0  0
 34 77  2  0  0  0  0
 35 72  1  0  0  0  0
 35 78  2  0  0  0  0
 36 53  1  0  0  0  0
 36 73  1  0  0  0  0
 36 79  2  0  0  0  0
 37 63  1  0  0  0  0
 37 69  1  0  0  0  0
 37 80  2  0  0  0  0
 38 64  1  0  0  0  0
 38 74  1  0  0  0  0
 38 81  2  0  0  0  0
 39 70  1  0  0  0  0
 39 75  1  0  0  0  0
 39 82  2  0  0  0  0
 40 44  1  0  0  0  0
 41 53  1  0  0  0  0
 42 69  1  0  0  0  0
 43 45  1  0  0  0  0
 44 47  1  0  0  0  0
 45 54  1  0  0  0  0
 46 48  1  0  0  0  0
 46 49  1  0  0  0  0
 47 52  1  0  0  0  0
 48 55  1  0  0  0  0
 49 70  1  0  0  0  0
 50 54  1  0  0  0  0
 50 68  1  0  0  0  0
 51 55  1  0  0  0  0
 51 70  1  0  0  0  0
 52 73  1  0  0  0  0
 53 69  1  0  0  0  0
 54 62  1  0  0  0  0
 55 67  1  0  0  0  0
 56 64  1  0  0  0  0
 57 65  1  0  0  0  0
 58 65  1  0  0  0  0
 59 65  1  0  0  0  0
 60 75  1  0  0  0  0
 61 76  1  0  0  0  0
 62 84  1  0  0  0  0
 63 65  1  0  0  0  0
 63 74  1  0  0  0  0
 64 76  1  0  0  0  0
 66 67  1  0  0  0  0
M  CHG  1  76   1
M  ISO  4  39 100  62 101  75 100  84 101
M  END
> <Batch ID>
0097

> <Smiles>
CNC(C)C(=O)NC(C(=O)N1Cc2cc([101O:1][101CH2:1]C3CCC(=O)N(c4ccc([100N:0](C)[100C:0](=O)N5CCCC(n6nc(-c7ccc(Oc8ccc(F)cc8F)cc7)c(C(N)=O)c6N)C5)cc4F)C3)ccc2CC1C(=O)NC1CCCc2ccccc21)C(C)(C)C

> <Shape>
0.292

> <Color>
0.104

> <Negative vol penalty>
0.000

$$$$

  -OEChem-04052300493D

 84 92  0     1  0  0  0  0  0999 V2000
  -26.3474  -32.8081   27.2290 C   0  0  0  0  0  0  0  0  0  0  0  0
  -26.9122  -31.9741   26.2693 C   0  0  0  0  0  0  0  0  0  0  0  0
  -22.8273  -11.5002   18.7038 C   0  0  0  0  0  0  0  0  0  0  0  0
  -22.8157  -10.3673   20.8377 C   0  0  0  0  0  0  0  0  0  0  0  0
  -30.4676  -19.5110   19.3166 C   0  0  0  0  0  0  0  0  0  0  0  0
  -25.0634  -32.5496   27.7069 C   0  0  0  0  0  0  0  0  0  0  0  0
  -26.1935  -30.8804   25.7878 C   0  0  0  0  0  0  0  0  0  0  0  0
  -26.3146  -28.6109   20.1009 C   0  0  0  0  0  0  0  0  0  0  0  0
  -29.6561  -20.6446   19.2704 C   0  0  0  0  0  0  0  0  0  0  0  0
  -21.8045  -10.6649   18.2548 C   0  0  0  0  0  0  0  0  0  0  0  0
  -21.7928   -9.5320   20.3887 C   0  0  0  0  0  0  0  0  0  0  0  0
  -26.9977  -27.5355   19.5345 C   0  0  0  0  0  0  0  0  0  0  0  0
  -18.4513  -10.4188   18.6131 C   0  0  0  0  0  0  0  0  0  0  0  0
  -17.3854  -11.0074   17.9327 C   0  0  0  0  0  0  0  0  0  0  0  0
  -28.6213  -18.2252   20.1969 C   0  0  0  0  0  0  0  0  0  0  0  0
  -25.0554  -26.1410   19.8546 C   0  0  0  0  0  0  0  0  0  0  0  0
  -17.8797   -9.6577   15.9908 C   0  0  0  0  0  0  0  0  0  0  0  0
  -23.3330  -11.3514   19.9953 C   0  0  0  0  0  0  0  0  0  0  0  0
  -29.9502  -18.3013   19.7798 C   0  0  0  0  0  0  0  0  0  0  0  0
  -24.2510  -13.4511   21.1160 C   0  0  0  0  0  0  0  0  0  0  0  0
  -24.3249  -31.4579   27.2239 C   0  0  0  0  0  0  0  0  0  0  0  0
  -24.9983  -28.4562   20.5592 C   0  0  0  0  0  0  0  0  0  0  0  0
  -24.8989  -30.6063   26.2607 C   0  0  0  0  0  0  0  0  0  0  0  0
  -24.3570  -27.2166   20.4241 C   0  0  0  0  0  0  0  0  0  0  0  0
  -28.3272  -20.5685   19.6875 C   0  0  0  0  0  0  0  0  0  0  0  0
  -21.2872   -9.6808   19.0972 C   0  0  0  0  0  0  0  0  0  0  0  0
  -26.3691  -26.2996   19.4139 C   0  0  0  0  0  0  0  0  0  0  0  0
  -19.2315   -9.4497   17.9823 C   0  0  0  0  0  0  0  0  0  0  0  0
  -17.0995  -10.6268   16.6215 C   0  0  0  0  0  0  0  0  0  0  0  0
  -27.8098  -19.3588   20.1507 C   0  0  0  0  0  0  0  0  0  0  0  0
  -18.9457   -9.0691   16.6712 C   0  0  0  0  0  0  0  0  0  0  0  0
  -24.3900  -12.2136   20.4595 C   0  0  0  0  0  0  0  0  0  0  0  0
  -25.5405  -13.8655   21.3440 C   0  0  0  0  0  0  0  0  0  0  0  0
  -30.8145  -17.0941   19.8291 C   0  0  0  0  0  0  0  0  0  0  0  0
  -23.0626  -14.1624   21.4866 C   0  0  0  0  0  0  0  0  0  0  0  0
  -23.5613  -28.7140   23.3827 C   0  0  0  0  0  0  0  0  0  0  0  0
  -20.8764  -28.2566   21.6208 C   0  0  0  0  0  0  0  0  0  0  0  0
  -27.8599  -22.9948   19.2094 C   0  0  0  0  0  0  0  0  0  0  0  0
  -19.4540  -27.0222   18.7747 C   0  0  0  0  0  0  0  0  0  0  0  0
  -30.7788  -14.6229   19.7056 C   0  0  0  0  0  0  0  0  0  0  0  0
  -22.9590  -31.1913   27.8051 C   0  0  0  0  0  0  0  0  0  0  0  0
  -24.2661  -29.6331   21.1434 C   0  0  0  0  0  0  0  0  0  0  0  0
  -22.9380  -27.0039   20.8820 C   0  0  0  0  0  0  0  0  0  0  0  0
  -22.1186  -30.2292   26.9694 C   0  0  0  0  0  0  0  0  0  0  0  0
  -29.9332  -11.3907   20.8610 C   0  0  0  0  0  0  0  0  0  0  0  0
  -22.9452  -29.0134   26.5628 C   0  0  0  0  0  0  0  0  0  0  0  0
  -28.4036  -11.4179   20.9223 C   0  0  0  0  0  0  0  0  0  0  0  0
  -30.4666  -12.1640   19.6559 C   0  0  0  0  0  0  0  0  0  0  0  0
  -28.4424  -13.5625   19.5870 C   0  0  0  0  0  0  0  0  0  0  0  0
  -24.1413  -29.4244   25.6956 C   0  0  1  0  0  0  0  0  0  0  0  0
  -23.1053  -29.2265   22.0459 C   0  0  1  0  0  0  0  0  0  0  0  0
  -27.8589  -12.8568   20.8218 C   0  0  1  0  0  0  0  0  0  0  0  0
  -17.2335  -26.7635   17.6345 C   0  0  0  0  0  0  0  0  0  0  0  0
  -20.1706  -25.9738   23.5185 C   0  0  0  0  0  0  0  0  0  0  0  0
  -18.5116  -25.1709   21.8240 C   0  0  0  0  0  0  0  0  0  0  0  0
  -18.2392  -27.4216   22.8644 C   0  0  0  0  0  0  0  0  0  0  0  0
  -20.3229  -28.6478   16.4593 C   0  0  0  0  0  0  0  0  0  0  0  0
  -26.6812  -23.9438   19.3210 C   0  0  0  0  0  0  0  0  0  1  0  0
  -20.0829  -27.0524   21.1743 C   0  0  1  0  0  0  0  0  0  0  0  0
  -18.4706  -27.6337   17.7932 C   0  0  2  0  0  0  0  0  0  0  0  0
  -19.2785  -26.4079   22.3383 C   0  0  0  0  0  0  0  0  0  0  0  0
  -25.6670  -11.8647   20.2818 N   0  0  0  0  0  0  0  0  0  0  0  0
  -26.3422  -12.8892   20.8299 N   0  0  0  0  0  0  0  0  0  0  0  0
  -22.2663  -28.1834   21.4523 N   0  0  0  0  0  0  0  0  0  0  0  0
  -29.9114  -13.5186   19.6387 N   0  0  0  0  0  0  0  0  0  0  0  0
  -26.0555  -14.9662   21.9319 N   0  0  0  0  0  0  0  0  0  0  0  0
  -21.8196  -13.5937   21.1771 N   0  0  0  0  0  0  0  0  0  0  0  0
  -27.5068  -21.7205   19.6400 N   0  0  0  0  0  0  0  0  0  0  0  0
  -30.1490  -15.8723   19.7260 N   0  0  0  0  0  0  0  0  0  0  0  0
  -23.7128  -29.6983   24.3407 N   0  0  0  0  0  0  0  0  0  0  0  0
  -19.2606  -27.4977   20.0545 N   0  0  0  0  0  0  0  0  0  0  0  0
  -19.1067  -27.7947   16.4551 N   0  3  0  0  0  0  0  0  0  0  0  0
  -32.0316  -17.2331   19.9147 O   0  0  0  0  0  0  0  0  0  0  0  0
  -23.1019  -15.2773   22.0602 O   0  0  0  0  0  0  0  0  0  0  0  0
  -23.7595  -27.5142   23.5342 O   0  0  0  0  0  0  0  0  0  0  0  0
  -20.2840  -29.2292   22.0949 O   0  0  0  0  0  0  0  0  0  0  0  0
  -28.9490  -23.3698   18.7875 O   0  0  0  0  0  0  0  0  0  0  0  0
  -20.3059  -26.2019   18.4404 O   0  0  0  0  0  0  0  0  0  0  0  0
  -32.0061  -14.5061   19.7793 O   0  0  0  0  0  0  0  0  0  0  0  0
  -20.2889   -8.8658   18.6594 O   0  0  0  0  0  0  0  0  0  0  0  0
  -27.0337  -25.2481   18.8620 O   0  0  0  0  0  0  0  0  0  1  0  0
  -16.0749  -11.1910   15.9688 F   0  0  0  0  0  0  0  0  0  0  0  0
  -26.5341  -19.2737   20.5548 F   0  0  0  0  0  0  0  0  0  0  0  0
  -19.6909   -8.1378   16.0604 F   0  0  0  0  0  0  0  0  0  0  0  0
  1  2  1  0  0  0  0
  1  6  2  0  0  0  0
  2  7  2  0  0  0  0
  3 10  2  0  0  0  0
  3 18  1  0  0  0  0
  4 11  1  0  0  0  0
  4 18  2  0  0  0  0
  5  9  2  0  0  0  0
  5 19  1  0  0  0  0
  6 21  1  0  0  0  0
  7 23  1  0  0  0  0
  8 12  2  0  0  0  0
  8 22  1  0  0  0  0
  9 25  1  0  0  0  0
 10 26  1  0  0  0  0
 11 26  2  0  0  0  0
 12 27  1  0  0  0  0
 13 14  2  0  0  0  0
 13 28  1  0  0  0  0
 14 29  1  0  0  0  0
 15 19  2  0  0  0  0
 15 30  1  0  0  0  0
 16 24  1  0  0  0  0
 16 27  2  0  0  0  0
 17 29  2  0  0  0  0
 17 31  1  0  0  0  0
 18 32  1  0  0  0  0
 19 34  1  0  0  0  0
 20 32  1  0  0  0  0
 20 33  2  0  0  0  0
 20 35  1  0  0  0  0
 21 23  2  0  0  0  0
 21 41  1  0  0  0  0
 22 24  2  0  0  0  0
 22 42  1  0  0  0  0
 23 50  1  0  0  0  0
 24 43  1  0  0  0  0
 25 30  2  0  0  0  0
 25 68  1  0  0  0  0
 26 80  1  0  0  0  0
 27 81  1  0  0  0  0
 28 31  2  0  0  0  0
 28 80  1  0  0  0  0
 29 82  1  0  0  0  0
 30 83  1  0  0  0  0
 31 84  1  0  0  0  0
 32 62  2  0  0  0  0
 33 63  1  0  0  0  0
 33 66  1  0  0  0  0
 34 69  1  0  0  0  0
 34 73  2  0  0  0  0
 35 67  1  0  0  0  0
 35 74  2  0  0  0  0
 36 51  1  0  0  0  0
 36 70  1  0  0  0  0
 36 75  2  0  0  0  0
 37 59  1  0  0  0  0
 37 64  1  0  0  0  0
 37 76  2  0  0  0  0
 38 58  1  0  0  0  0
 38 68  1  0  0  0  0
 38 77  2  0  0  0  0
 39 60  1  0  0  0  0
 39 71  1  0  0  0  0
 39 78  2  0  0  0  0
 40 65  1  0  0  0  0
 40 69  1  0  0  0  0
 40 79  2  0  0  0  0
 41 44  1  0  0  0  0
 42 51  1  0  0  0  0
 43 64  1  0  0  0  0
 44 46  1  0  0  0  0
 45 47  1  0  0  0  0
 45 48  1  0  0  0  0
 46 50  1  0  0  0  0
 47 52  1  0  0  0  0
 48 65  1  0  0  0  0
 49 52  1  0  0  0  0
 49 65  1  0  0  0  0
 50 70  1  0  0  0  0
 51 64  1  0  0  0  0
 52 63  1  0  0  0  0
 53 60  1  0  0  0  0
 54 61  1  0  0  0  0
 55 61  1  0  0  0  0
 56 61  1  0  0  0  0
 57 72  1  0  0  0  0
 58 81  1  0  0  0  0
 59 61  1  0  0  0  0
 59 71  1  0  0  0  0
 60 72  1  0  0  0  0
 62 63  1  0  0  0  0
M  CHG  1  72   1
M  ISO  4  40 100  58 101  69 100  81 101
M  END
> <Batch ID>
0097

> <Smiles>
CNC(C)C(=O)NC(C(=O)N1Cc2cc([101O:1][101CH2:1]C(=O)Nc3ccc(C(=O)[100NH:0][100C:0](=O)N4CCCC(n5nc(-c6ccc(Oc7ccc(F)cc7F)cc6)c(C(N)=O)c5N)C4)cc3F)ccc2CC1C(=O)NC1CCCc2ccccc21)C(C)(C)C

> <Shape>
0.290

> <Color>
0.099

> <Negative vol penalty>
0.000

$$$$

  -OEChem-04052300493D

 86 95  0     1  0  0  0  0  0999 V2000
  -26.7532  -34.8231   23.7493 C   0  0  0  0  0  0  0  0  0  0  0  0
  -27.1615  -33.5345   23.4202 C   0  0  0  0  0  0  0  0  0  0  0  0
  -22.5117  -13.4550   18.6438 C   0  0  0  0  0  0  0  0  0  0  0  0
  -23.2020  -11.2561   19.3687 C   0  0  0  0  0  0  0  0  0  0  0  0
  -25.4727  -35.0391   24.2568 C   0  0  0  0  0  0  0  0  0  0  0  0
  -26.2897  -32.4610   23.5995 C   0  0  0  0  0  0  0  0  0  0  0  0
  -26.2542  -29.3050   19.6393 C   0  0  0  0  0  0  0  0  0  0  0  0
  -29.8160  -21.5026   22.9415 C   0  0  0  0  0  0  0  0  0  0  0  0
  -29.5981  -20.1385   22.7482 C   0  0  0  0  0  0  0  0  0  0  0  0
  -21.5308  -12.8806   17.8354 C   0  0  0  0  0  0  0  0  0  0  0  0
  -22.2210  -10.6817   18.5603 C   0  0  0  0  0  0  0  0  0  0  0  0
  -27.3191  -28.4121   19.5271 C   0  0  0  0  0  0  0  0  0  0  0  0
  -18.4474  -11.5488   18.2252 C   0  0  0  0  0  0  0  0  0  0  0  0
  -17.1729  -12.1151   18.2508 C   0  0  0  0  0  0  0  0  0  0  0  0
  -25.9441  -26.6641   20.4614 C   0  0  0  0  0  0  0  0  0  0  0  0
  -29.3002  -21.9145   20.6175 C   0  0  0  0  0  0  0  0  0  0  0  0
  -17.3302  -12.5761   15.8844 C   0  0  0  0  0  0  0  0  0  0  0  0
  -23.3474  -12.6427   19.4104 C   0  0  0  0  0  0  0  0  0  0  0  0
  -24.2291  -13.6365   21.5881 C   0  0  0  0  0  0  0  0  0  0  0  0
  -24.5815  -33.9690   24.4333 C   0  0  0  0  0  0  0  0  0  0  0  0
  -25.0276  -28.8861   20.1744 C   0  0  0  0  0  0  0  0  0  0  0  0
  -24.9966  -32.6628   24.1111 C   0  0  0  0  0  0  0  0  0  0  0  0
  -24.8644  -27.5529   20.5769 C   0  0  0  0  0  0  0  0  0  0  0  0
  -29.0823  -20.5503   20.4240 C   0  0  0  0  0  0  0  0  0  0  0  0
  -29.6670  -22.3906   21.8762 C   0  0  0  0  0  0  0  0  0  0  0  0
  -29.2313  -19.6624   21.4894 C   0  0  0  0  0  0  0  0  0  0  0  0
  -21.3854  -11.4939   17.7937 C   0  0  0  0  0  0  0  0  0  0  0  0
  -27.1651  -27.0922   19.9408 C   0  0  0  0  0  0  0  0  0  0  0  0
  -19.1633  -11.4963   17.0292 C   0  0  0  0  0  0  0  0  0  0  0  0
  -16.6143  -12.6287   17.0804 C   0  0  0  0  0  0  0  0  0  0  0  0
  -18.6047  -12.0099   15.8588 C   0  0  0  0  0  0  0  0  0  0  0  0
  -24.3612  -13.2355   20.2452 C   0  0  0  0  0  0  0  0  0  0  0  0
  -25.4654  -14.1335   21.9212 C   0  0  0  0  0  0  0  0  0  0  0  0
  -30.2585  -24.4124   23.2873 C   0  0  0  0  0  0  0  0  0  0  0  0
  -23.0907  -13.5660   22.4569 C   0  0  0  0  0  0  0  0  0  0  0  0
  -23.2922  -29.6986   22.7105 C   0  0  0  0  0  0  0  0  0  0  0  0
  -21.1298  -27.6704   21.3940 C   0  0  0  0  0  0  0  0  0  0  0  0
  -20.5284  -25.0061   19.3479 C   0  0  0  0  0  0  0  0  0  0  0  0
  -29.7735  -17.4948   20.3926 C   0  0  0  0  0  0  0  0  0  0  0  0
  -23.2240  -34.2456   25.0295 C   0  0  0  0  0  0  0  0  0  0  0  0
  -23.8803  -29.8547   20.2640 C   0  0  0  0  0  0  0  0  0  0  0  0
  -23.5616  -27.0481   21.1393 C   0  0  0  0  0  0  0  0  0  0  0  0
  -30.3964  -25.8921   23.0173 C   0  0  0  0  0  0  0  0  0  0  0  0
  -22.2301  -33.1030   24.8375 C   0  0  0  0  0  0  0  0  0  0  0  0
  -30.5459  -25.9635   21.5094 C   0  0  0  0  0  0  0  0  0  0  0  0
  -29.8839  -13.9202   19.4869 C   0  0  0  0  0  0  0  0  0  0  0  0
  -22.8784  -31.7671   25.1868 C   0  0  0  0  0  0  0  0  0  0  0  0
  -28.4299  -13.4818   19.6532 C   0  0  0  0  0  0  0  0  0  0  0  0
  -29.9914  -15.3924   19.1007 C   0  0  0  0  0  0  0  0  0  0  0  0
  -27.8270  -15.8735   20.2025 C   0  0  0  0  0  0  0  0  0  0  0  0
  -24.0711  -31.4757   24.2680 C   0  0  1  0  0  0  0  0  0  0  0  0
  -22.8365  -29.4503   21.3004 C   0  0  1  0  0  0  0  0  0  0  0  0
  -27.6869  -14.4057   20.6337 C   0  0  1  0  0  0  0  0  0  0  0  0
  -29.7318  -24.7758   21.0084 C   0  0  2  0  0  0  0  0  0  0  0  0
  -28.6883  -20.0682   19.0657 C   0  0  0  0  0  0  0  0  0  0  0  0
  -18.6652  -23.5542   18.5006 C   0  0  0  0  0  0  0  0  0  0  0  0
  -21.0413  -26.2219   24.0781 C   0  0  0  0  0  0  0  0  0  0  0  0
  -19.9477  -24.2900   22.9205 C   0  0  0  0  0  0  0  0  0  0  0  0
  -18.8155  -26.5122   22.9754 C   0  0  0  0  0  0  0  0  0  0  0  0
  -28.1452  -17.5478   22.2675 C   0  0  0  0  0  0  0  0  0  0  0  0
  -21.0379  -25.7909   16.5402 C   0  0  0  0  0  0  0  0  0  0  0  0
  -28.2675  -25.1649   20.7929 C   0  0  0  0  0  0  0  0  0  1  0  0
  -20.8462  -26.1917   21.5038 C   0  0  1  0  0  0  0  0  0  0  0  0
  -19.5079  -24.7938   18.2442 C   0  0  2  0  0  0  0  0  0  0  0  0
  -20.1880  -25.8136   22.8607 C   0  0  0  0  0  0  0  0  0  0  0  0
  -25.5848  -13.4586   19.7584 N   0  0  0  0  0  0  0  0  0  0  0  0
  -26.2329  -14.0053   20.8011 N   0  0  0  0  0  0  0  0  0  0  0  0
  -29.8880  -23.7913   22.0756 N   0  0  0  0  0  0  0  0  0  0  0  0
  -22.4715  -28.0350   21.2126 N   0  0  0  0  0  0  0  0  0  0  0  0
  -29.2390  -16.2444   20.0224 N   0  0  0  0  0  0  0  0  0  0  0  0
  -25.9600  -14.6634   23.0601 N   0  0  0  0  0  0  0  0  0  0  0  0
  -21.8988  -13.0268   21.9538 N   0  0  0  0  0  0  0  0  0  0  0  0
  -23.6123  -31.0167   22.9745 N   0  0  0  0  0  0  0  0  0  0  0  0
  -20.0477  -25.8413   20.3341 N   0  0  0  0  0  0  0  0  0  0  0  0
  -29.0088  -18.2470   21.3104 N   0  0  0  0  0  0  0  0  0  0  0  0
  -20.1921  -24.6335   16.9300 N   0  3  0  0  0  0  0  0  0  0  0  0
  -30.4283  -23.9357   24.4002 O   0  0  0  0  0  0  0  0  0  0  0  0
  -23.1245  -13.9842   23.6390 O   0  0  0  0  0  0  0  0  0  0  0  0
  -23.3477  -28.7638   23.5009 O   0  0  0  0  0  0  0  0  0  0  0  0
  -20.1946  -28.4721   21.4595 O   0  0  0  0  0  0  0  0  0  0  0  0
  -21.6392  -24.4804   19.3381 O   0  0  0  0  0  0  0  0  0  0  0  0
  -30.8616  -17.8931   19.9601 O   0  0  0  0  0  0  0  0  0  0  0  0
  -20.4282  -10.9331   17.0052 O   0  0  0  0  0  0  0  0  0  0  0  0
  -28.2031  -26.2189   19.8330 O   0  0  0  0  0  0  0  0  0  1  0  0
  -15.3898  -13.1710   17.1049 F   0  0  0  0  0  0  0  0  0  0  0  0
  -19.2872  -11.9612   14.7066 F   0  0  0  0  0  0  0  0  0  0  0  0
  1  2  1  0  0  0  0
  1  5  2  0  0  0  0
  2  6  2  0  0  0  0
  3 10  2  0  0  0  0
  3 18  1  0  0  0  0
  4 11  1  0  0  0  0
  4 18  2  0  0  0  0
  5 20  1  0  0  0  0
  6 22  1  0  0  0  0
  7 12  2  0  0  0  0
  7 21  1  0  0  0  0
  8  9  2  0  0  0  0
  8 25  1  0  0  0  0
  9 26  1  0  0  0  0
 10 27  1  0  0  0  0
 11 27  2  0  0  0  0
 12 28  1  0  0  0  0
 13 14  2  0  0  0  0
 13 29  1  0  0  0  0
 14 30  1  0  0  0  0
 15 23  1  0  0  0  0
 15 28  2  0  0  0  0
 16 24  1  0  0  0  0
 16 25  2  0  0  0  0
 17 30  2  0  0  0  0
 17 31  1  0  0  0  0
 18 32  1  0  0  0  0
 19 32  1  0  0  0  0
 19 33  2  0  0  0  0
 19 35  1  0  0  0  0
 20 22  2  0  0  0  0
 20 40  1  0  0  0  0
 21 23  2  0  0  0  0
 21 41  1  0  0  0  0
 22 51  1  0  0  0  0
 23 42  1  0  0  0  0
 24 26  2  0  0  0  0
 24 55  1  0  0  0  0
 25 68  1  0  0  0  0
 26 75  1  0  0  0  0
 27 83  1  0  0  0  0
 28 84  1  0  0  0  0
 29 31  2  0  0  0  0
 29 83  1  0  0  0  0
 30 85  1  0  0  0  0
 31 86  1  0  0  0  0
 32 66  2  0  0  0  0
 33 67  1  0  0  0  0
 33 71  1  0  0  0  0
 34 43  1  0  0  0  0
 34 68  1  0  0  0  0
 34 77  2  0  0  0  0
 35 72  1  0  0  0  0
 35 78  2  0  0  0  0
 36 52  1  0  0  0  0
 36 73  1  0  0  0  0
 36 79  2  0  0  0  0
 37 63  1  0  0  0  0
 37 69  1  0  0  0  0
 37 80  2  0  0  0  0
 38 64  1  0  0  0  0
 38 74  1  0  0  0  0
 38 81  2  0  0  0  0
 39 70  1  0  0  0  0
 39 75  1  0  0  0  0
 39 82  2  0  0  0  0
 40 44  1  0  0  0  0
 41 52  1  0  0  0  0
 42 69  1  0  0  0  0
 43 45  1  0  0  0  0
 44 47  1  0  0  0  0
 45 54  1  0  0  0  0
 46 48  1  0  0  0  0
 46 49  1  0  0  0  0
 47 51  1  0  0  0  0
 48 53  1  0  0  0  0
 49 70  1  0  0  0  0
 50 53  1  0  0  0  0
 50 70  1  0  0  0  0
 51 73  1  0  0  0  0
 52 69  1  0  0  0  0
 53 67  1  0  0  0  0
 54 62  1  0  0  0  0
 54 68  1  0  0  0  0
 56 64  1  0  0  0  0
 57 65  1  0  0  0  0
 58 65  1  0  0  0  0
 59 65  1  0  0  0  0
 60 75  1  0  0  0  0
 61 76  1  0  0  0  0
 62 84  1  0  0  0  0
 63 65  1  0  0  0  0
 63 74  1  0  0  0  0
 64 76  1  0  0  0  0
 66 67  1  0  0  0  0
M  CHG  1  76   1
M  ISO  4  39 100  62 101  75 100  84 101
M  END
> <Batch ID>
0097

> <Smiles>
CNC(C)C(=O)NC(C(=O)N1Cc2cc([101O:1][101CH2:1]C3CCC(=O)N3c3ccc([100N:0](C)[100C:0](=O)N4CCCC(n5nc(-c6ccc(Oc7ccc(F)cc7F)cc6)c(C(N)=O)c5N)C4)c(C)c3)ccc2CC1C(=O)NC1CCCc2ccccc21)C(C)(C)C

> <Shape>
0.260

> <Color>
0.092

> <Negative vol penalty>
0.000

$$$$

  -OEChem-04052300493D

 86 95  0     1  0  0  0  0  0999 V2000
  -28.1572  -30.5692   27.7378 C   0  0  0  0  0  0  0  0  0  0  0  0
  -27.9680  -29.5296   26.8330 C   0  0  0  0  0  0  0  0  0  0  0  0
  -23.4562  -11.8646   23.2517 C   0  0  0  0  0  0  0  0  0  0  0  0
  -24.3504   -9.9109   22.1469 C   0  0  0  0  0  0  0  0  0  0  0  0
  -29.3455  -17.2124   22.5337 C   0  0  0  0  0  0  0  0  0  0  0  0
  -27.1552  -31.5206   27.9242 C   0  0  0  0  0  0  0  0  0  0  0  0
  -26.7761  -29.4402   26.1147 C   0  0  0  0  0  0  0  0  0  0  0  0
  -27.5336  -28.4169   21.2133 C   0  0  0  0  0  0  0  0  0  0  0  0
  -28.7046  -18.4346   22.3312 C   0  0  0  0  0  0  0  0  0  0  0  0
  -22.9053  -11.0521   24.2426 C   0  0  0  0  0  0  0  0  0  0  0  0
  -23.7995   -9.0984   23.1379 C   0  0  0  0  0  0  0  0  0  0  0  0
  -27.8272  -27.0962   20.8765 C   0  0  0  0  0  0  0  0  0  0  0  0
  -20.7652   -7.8243   23.9131 C   0  0  0  0  0  0  0  0  0  0  0  0
  -20.0966   -6.6696   23.5068 C   0  0  0  0  0  0  0  0  0  0  0  0
  -29.5708  -16.9346   20.1443 C   0  0  0  0  0  0  0  0  0  0  0  0
  -25.5327  -26.7622   20.2110 C   0  0  0  0  0  0  0  0  0  0  0  0
  -21.6523   -5.3232   24.7734 C   0  0  0  0  0  0  0  0  0  0  0  0
  -24.1787  -11.2940   22.2038 C   0  0  0  0  0  0  0  0  0  0  0  0
  -29.7787  -16.4624   21.4403 C   0  0  0  0  0  0  0  0  0  0  0  0
  -24.0584  -13.0010   20.3119 C   0  0  0  0  0  0  0  0  0  0  0  0
  -25.9543  -31.4483   27.2008 C   0  0  0  0  0  0  0  0  0  0  0  0
  -26.2327  -28.9178   21.0614 C   0  0  0  0  0  0  0  0  0  0  0  0
  -25.7565  -30.3908   26.2926 C   0  0  0  0  0  0  0  0  0  0  0  0
  -25.2258  -28.0903   20.5441 C   0  0  0  0  0  0  0  0  0  0  0  0
  -28.4967  -18.9068   21.0353 C   0  0  0  0  0  0  0  0  0  0  0  0
  -23.0769   -9.6691   24.1857 C   0  0  0  0  0  0  0  0  0  0  0  0
  -26.8260  -26.2678   20.3780 C   0  0  0  0  0  0  0  0  0  0  0  0
  -21.8774   -7.7285   24.7495 C   0  0  0  0  0  0  0  0  0  0  0  0
  -20.5401   -5.4190   23.9370 C   0  0  0  0  0  0  0  0  0  0  0  0
  -28.9298  -18.1568   19.9418 C   0  0  0  0  0  0  0  0  0  0  0  0
  -22.3209   -6.4780   25.1797 C   0  0  0  0  0  0  0  0  0  0  0  0
  -24.7476  -12.1327   21.1795 C   0  0  0  0  0  0  0  0  0  0  0  0
  -25.0422  -13.5627   19.5353 C   0  0  0  0  0  0  0  0  0  0  0  0
  -26.6324  -22.6815   20.4577 C   0  0  0  0  0  0  0  0  0  0  0  0
  -26.4342  -23.9846   20.7005 C   0  0  0  0  0  0  0  0  0  1  0  0
  -30.4471  -15.1881   21.6503 C   0  0  0  0  0  0  0  0  0  0  0  0
  -22.6543  -13.2755   20.2165 C   0  0  0  0  0  0  0  0  0  0  0  0
  -30.9190  -14.3678   20.5111 C   0  0  0  0  0  0  0  0  0  0  0  0
  -24.0354  -30.0897   23.0368 C   0  0  0  0  0  0  0  0  0  0  0  0
  -22.4419  -30.6995   20.2780 C   0  0  0  0  0  0  0  0  0  0  0  0
  -21.9500  -29.9392   16.9876 C   0  0  0  0  0  0  0  0  0  0  0  0
  -24.8813  -32.4731   27.4710 C   0  0  0  0  0  0  0  0  0  0  0  0
  -25.9383  -30.3525   21.4041 C   0  0  0  0  0  0  0  0  0  0  0  0
  -23.8177  -28.5857   20.3430 C   0  0  0  0  0  0  0  0  0  0  0  0
  -25.8856  -21.5941   21.1764 C   0  0  0  0  0  0  0  0  0  0  0  0
  -27.6376  -22.1797   19.4601 C   0  0  0  0  0  0  0  0  0  0  0  0
  -23.7985  -32.5191   26.3960 C   0  0  0  0  0  0  0  0  0  0  0  0
  -29.3816  -12.6753   17.7491 C   0  0  0  0  0  0  0  0  0  0  0  0
  -23.3340  -31.1091   26.0453 C   0  0  0  0  0  0  0  0  0  0  0  0
  -27.9674  -12.3895   18.2531 C   0  0  0  0  0  0  0  0  0  0  0  0
  -26.8523  -20.5907   21.8104 C   0  0  0  0  0  0  0  0  0  0  0  0
  -28.5948  -21.1785   20.1093 C   0  0  0  0  0  0  0  0  0  0  0  0
  -30.4034  -12.5963   18.8787 C   0  0  0  0  0  0  0  0  0  0  0  0
  -28.6729  -13.2036   20.5476 C   0  0  0  0  0  0  0  0  0  0  0  0
  -24.4874  -30.2738   25.4766 C   0  0  1  0  0  0  0  0  0  0  0  0
  -24.4620  -30.6072   21.6923 C   0  0  1  0  0  0  0  0  0  0  0  0
  -27.6094  -13.3015   19.4400 C   0  0  2  0  0  0  0  0  0  0  0  0
  -20.5538  -30.5832   15.0044 C   0  0  0  0  0  0  0  0  0  0  0  0
  -20.0689  -29.1904   21.4616 C   0  0  0  0  0  0  0  0  0  0  0  0
  -19.1034  -29.0410   19.1564 C   0  0  0  0  0  0  0  0  0  0  0  0
  -19.4642  -31.2715   20.2135 C   0  0  0  0  0  0  0  0  0  0  0  0
  -24.3314  -30.7475   15.4273 C   0  0  0  0  0  0  0  0  0  0  0  0
  -21.4605  -29.9386   19.4196 C   0  0  1  0  0  0  0  0  0  0  0  0
  -21.8560  -30.8184   15.7537 C   0  0  2  0  0  0  0  0  0  0  0  0
  -20.0502  -29.8502   20.0683 C   0  0  0  0  0  0  0  0  0  0  0  0
  -26.0673  -12.1387   20.9738 N   0  0  0  0  0  0  0  0  0  0  0  0
  -30.6769  -14.6857   22.8335 N   0  0  0  0  0  0  0  0  0  0  0  0
  -26.2152  -13.0175   19.9679 N   0  0  0  0  0  0  0  0  0  0  0  0
  -27.8523  -20.1340   20.8345 N   0  0  0  0  0  0  0  0  0  0  0  0
  -30.0150  -13.4454   20.0031 N   0  0  0  0  0  0  0  0  0  0  0  0
  -23.5782  -29.9941   20.6987 N   0  0  0  0  0  0  0  0  0  0  0  0
  -25.0098  -14.4646   18.5314 N   0  0  0  0  0  0  0  0  0  0  0  0
  -21.8769  -12.4894   19.3552 N   0  0  0  0  0  0  0  0  0  0  0  0
  -24.7377  -30.6310   24.0967 N   0  0  0  0  0  0  0  0  0  0  0  0
  -21.4770  -30.5835   18.1111 N   0  0  0  0  0  0  0  0  0  0  0  0
  -22.9889  -30.5346   14.8279 N   0  3  0  0  0  0  0  0  0  0  0  0
  -22.1084  -14.2014   20.8632 O   0  0  0  0  0  0  0  0  0  0  0  0
  -32.0628  -14.5925   20.1376 O   0  0  0  0  0  0  0  0  0  0  0  0
  -23.1347  -29.2618   23.1076 O   0  0  0  0  0  0  0  0  0  0  0  0
  -22.2125  -31.8786   20.5587 O   0  0  0  0  0  0  0  0  0  0  0  0
  -22.3947  -28.7938   16.9571 O   0  0  0  0  0  0  0  0  0  0  0  0
  -22.5397   -8.8759   25.1527 O   0  0  0  0  0  0  0  0  0  0  0  0
  -27.1097  -24.9782   20.0491 O   0  0  0  0  0  0  0  0  0  1  0  0
  -19.8970   -4.3103   23.5480 F   0  0  0  0  0  0  0  0  0  0  0  0
  -28.7351  -18.6009   18.6919 F   0  0  0  0  0  0  0  0  0  0  0  0
  -23.3881   -6.3797   25.9843 F   0  0  0  0  0  0  0  0  0  0  0  0
  1  2  1  0  0  0  0
  1  6  2  0  0  0  0
  2  7  2  0  0  0  0
  3 10  2  0  0  0  0
  3 18  1  0  0  0  0
  4 11  1  0  0  0  0
  4 18  2  0  0  0  0
  5  9  2  0  0  0  0
  5 19  1  0  0  0  0
  6 21  1  0  0  0  0
  7 23  1  0  0  0  0
  8 12  2  0  0  0  0
  8 22  1  0  0  0  0
  9 25  1  0  0  0  0
 10 26  1  0  0  0  0
 11 26  2  0  0  0  0
 12 27  1  0  0  0  0
 13 14  2  0  0  0  0
 13 28  1  0  0  0  0
 14 29  1  0  0  0  0
 15 19  2  0  0  0  0
 15 30  1  0  0  0  0
 16 24  1  0  0  0  0
 16 27  2  0  0  0  0
 17 29  2  0  0  0  0
 17 31  1  0  0  0  0
 18 32  1  0  0  0  0
 19 36  1  0  0  0  0
 20 32  1  0  0  0  0
 20 33  2  0  0  0  0
 20 37  1  0  0  0  0
 21 23  2  0  0  0  0
 21 42  1  0  0  0  0
 22 24  2  0  0  0  0
 22 43  1  0  0  0  0
 23 55  1  0  0  0  0
 24 44  1  0  0  0  0
 25 30  2  0  0  0  0
 25 69  1  0  0  0  0
 26 82  1  0  0  0  0
 27 83  1  0  0  0  0
 28 31  2  0  0  0  0
 28 82  1  0  0  0  0
 29 84  1  0  0  0  0
 30 85  1  0  0  0  0
 31 86  1  0  0  0  0
 32 66  2  0  0  0  0
 33 68  1  0  0  0  0
 33 72  1  0  0  0  0
 34 35  2  0  0  0  0
 34 45  1  0  0  0  0
 34 46  1  0  0  0  0
 35 83  1  0  0  0  0
 36 38  1  0  0  0  0
 36 67  2  0  0  0  0
 37 73  1  0  0  0  0
 37 77  2  0  0  0  0
 38 70  1  0  0  0  0
 38 78  2  0  0  0  0
 39 56  1  0  0  0  0
 39 74  1  0  0  0  0
 39 79  2  0  0  0  0
 40 63  1  0  0  0  0
 40 71  1  0  0  0  0
 40 80  2  0  0  0  0
 41 64  1  0  0  0  0
 41 75  1  0  0  0  0
 41 81  2  0  0  0  0
 42 47  1  0  0  0  0
 43 56  1  0  0  0  0
 44 71  1  0  0  0  0
 45 51  1  0  0  0  0
 46 52  1  0  0  0  0
 47 49  1  0  0  0  0
 48 50  1  0  0  0  0
 48 53  1  0  0  0  0
 49 55  1  0  0  0  0
 50 57  1  0  0  0  0
 51 69  1  0  0  0  0
 52 69  1  0  0  0  0
 53 70  1  0  0  0  0
 54 57  1  0  0  0  0
 54 70  1  0  0  0  0
 55 74  1  0  0  0  0
 56 71  1  0  0  0  0
 57 68  1  0  0  0  0
 58 64  1  0  0  0  0
 59 65  1  0  0  0  0
 60 65  1  0  0  0  0
 61 65  1  0  0  0  0
 62 76  1  0  0  0  0
 63 65  1  0  0  0  0
 63 75  1  0  0  0  0
 64 76  1  0  0  0  0
 66 68  1  0  0  0  0
M  CHG  1  76   1
M  ISO  4  35 101  36 100  38 100  83 101
M  END
> <Batch ID>
0097

> <Smiles>
CNC(C)C(=O)NC(C(=O)N1Cc2cc([101O:1][101CH:1]=C3CCN(c4ccc([100C:0](=N)[100C:0](=O)N5CCCC(n6nc(-c7ccc(Oc8ccc(F)cc8F)cc7)c(C(N)=O)c6N)C5)cc4F)CC3)ccc2CC1C(=O)NC1CCCc2ccccc21)C(C)(C)C

> <Shape>
0.309

> <Color>
0.118

> <Negative vol penalty>
0.000

$$$$

  -OEChem-04052300493D

 90100  0     1  0  0  0  0  0999 V2000
  -29.0807  -32.9909   24.5110 C   0  0  0  0  0  0  0  0  0  0  0  0
  -28.9176  -31.6512   24.1731 C   0  0  0  0  0  0  0  0  0  0  0  0
  -24.4093   -8.9174   20.7406 C   0  0  0  0  0  0  0  0  0  0  0  0
  -22.6653  -10.5651   21.0249 C   0  0  0  0  0  0  0  0  0  0  0  0
  -27.9662  -33.7746   24.8069 C   0  0  0  0  0  0  0  0  0  0  0  0
  -27.6399  -31.0943   24.1318 C   0  0  0  0  0  0  0  0  0  0  0  0
  -26.9044  -28.2217   20.0267 C   0  0  0  0  0  0  0  0  0  0  0  0
  -29.4033  -17.8050   19.0980 C   0  0  0  0  0  0  0  0  0  0  0  0
  -30.5389  -17.7638   18.2891 C   0  0  0  0  0  0  0  0  0  0  0  0
  -23.5011   -7.9035   21.0452 C   0  0  0  0  0  0  0  0  0  0  0  0
  -21.7570   -9.5512   21.3294 C   0  0  0  0  0  0  0  0  0  0  0  0
  -27.4545  -26.9406   20.0391 C   0  0  0  0  0  0  0  0  0  0  0  0
  -22.0825   -6.5795   23.8127 C   0  0  0  0  0  0  0  0  0  0  0  0
  -22.4961   -5.5845   24.6985 C   0  0  0  0  0  0  0  0  0  0  0  0
  -25.2969  -26.0261   20.6112 C   0  0  0  0  0  0  0  0  0  0  0  0
  -31.1340  -19.9913   19.0110 C   0  0  0  0  0  0  0  0  0  0  0  0
  -22.1409   -3.9149   22.9887 C   0  0  0  0  0  0  0  0  0  0  0  0
  -23.9914  -10.2482   20.7305 C   0  0  0  0  0  0  0  0  0  0  0  0
  -25.2200  -11.8235   19.1441 C   0  0  0  0  0  0  0  0  0  0  0  0
  -26.6735  -33.2295   24.7598 C   0  0  0  0  0  0  0  0  0  0  0  0
  -25.5465  -28.4159   20.3177 C   0  0  0  0  0  0  0  0  0  0  0  0
  -26.5072  -31.8712   24.4286 C   0  0  0  0  0  0  0  0  0  0  0  0
  -24.7314  -27.3103   20.5993 C   0  0  0  0  0  0  0  0  0  0  0  0
  -29.1330  -18.9394   19.8634 C   0  0  0  0  0  0  0  0  0  0  0  0
  -31.4042  -18.8569   18.2456 C   0  0  0  0  0  0  0  0  0  0  0  0
  -29.9984  -20.0325   19.8199 C   0  0  0  0  0  0  0  0  0  0  0  0
  -22.1749   -8.2204   21.3396 C   0  0  0  0  0  0  0  0  0  0  0  0
  -26.6514  -25.8429   20.3342 C   0  0  0  0  0  0  0  0  0  0  0  0
  -21.6980   -6.2422   22.5150 C   0  0  0  0  0  0  0  0  0  0  0  0
  -22.5253   -4.2522   24.2865 C   0  0  0  0  0  0  0  0  0  0  0  0
  -21.7272   -4.9099   22.1030 C   0  0  0  0  0  0  0  0  0  0  0  0
  -24.9293  -11.2960   20.4165 C   0  0  0  0  0  0  0  0  0  0  0  0
  -26.1687  -12.7880   19.3808 C   0  0  0  0  0  0  0  0  0  0  0  0
  -28.8021  -23.1443   21.3226 C   0  0  0  0  0  0  0  0  0  0  0  0
  -33.5280  -19.8312   17.2677 C   0  0  0  0  0  0  0  0  0  0  0  0
  -28.2034  -24.3359   21.2235 C   0  0  0  0  0  0  0  0  0  1  0  0
  -24.6806  -11.4730   17.8627 C   0  0  0  0  0  0  0  0  0  0  0  0
  -23.9360  -29.9772   22.5699 C   0  0  0  0  0  0  0  0  0  0  0  0
  -21.3701  -29.1266   20.7769 C   0  0  0  0  0  0  0  0  0  0  0  0
  -20.0151  -26.9864   18.4899 C   0  0  0  0  0  0  0  0  0  0  0  0
  -28.0870  -17.1003   22.3590 C   0  0  0  0  0  0  0  0  0  0  0  0
  -25.5029  -34.1039   25.1337 C   0  0  0  0  0  0  0  0  0  0  0  0
  -24.9624  -29.8014   20.2739 C   0  0  0  0  0  0  0  0  0  0  0  0
  -23.2632  -27.4632   20.8986 C   0  0  0  0  0  0  0  0  0  0  0  0
  -29.9175  -22.8172   22.2642 C   0  0  0  0  0  0  0  0  0  0  0  0
  -28.5362  -21.9712   20.4277 C   0  0  0  0  0  0  0  0  0  0  0  0
  -34.5077  -19.3682   16.2133 C   0  0  0  0  0  0  0  0  0  0  0  0
  -24.1542  -33.5336   24.7022 C   0  0  0  0  0  0  0  0  0  0  0  0
  -34.3106  -17.8658   16.1873 C   0  0  0  0  0  0  0  0  0  0  0  0
  -28.8353  -13.8298   23.5510 C   0  0  0  0  0  0  0  0  0  0  0  0
  -24.0574  -32.0561   25.0690 C   0  0  0  0  0  0  0  0  0  0  0  0
  -27.9057  -12.9239   22.7416 C   0  0  0  0  0  0  0  0  0  0  0  0
  -30.7028  -21.7521   21.5040 C   0  0  0  0  0  0  0  0  0  0  0  0
  -32.8467  -17.6975   16.5366 C   0  0  0  0  0  0  0  0  0  0  0  0
  -28.1679  -15.1593   23.8961 C   0  0  0  0  0  0  0  0  0  0  0  0
  -26.6888  -14.9886   21.9322 C   0  0  0  0  0  0  0  0  0  0  0  0
  -25.1354  -31.2371   24.3489 C   0  0  1  0  0  0  0  0  0  0  0  0
  -23.6804  -29.9354   21.0899 C   0  0  1  0  0  0  0  0  0  0  0  0
  -27.3375  -13.6584   21.5124 C   0  0  2  0  0  0  0  0  0  0  0  0
  -17.8853  -26.5223   17.2465 C   0  0  0  0  0  0  0  0  0  0  0  0
  -20.1565  -27.9290   23.3073 C   0  0  0  0  0  0  0  0  0  0  0  0
  -18.5400  -26.6820   21.8582 C   0  0  0  0  0  0  0  0  0  0  0  0
  -18.5393  -29.1765   21.8642 C   0  0  0  0  0  0  0  0  0  0  0  0
  -21.3208  -27.3992   15.8662 C   0  0  0  0  0  0  0  0  0  0  0  0
  -27.9098  -18.9563   20.7211 C   0  0  0  0  0  0  0  0  0  0  0  0
  -20.4371  -27.9403   20.7408 C   0  0  1  0  0  0  0  0  0  0  0  0
  -19.2263  -27.2390   17.2177 C   0  0  2  0  0  0  0  0  0  0  0  0
  -19.4463  -27.9289   21.9389 C   0  0  0  0  0  0  0  0  0  0  0  0
  -25.6362  -11.8772   21.3894 N   0  0  0  0  0  0  0  0  0  0  0  0
  -26.3806  -12.7798   20.7281 N   0  0  0  0  0  0  0  0  0  0  0  0
  -32.5650  -18.8142   17.4178 N   0  0  0  0  0  0  0  0  0  0  0  0
  -29.7451  -21.1638   20.5706 N   0  0  3  0  0  0  0  0  0  0  0  0
  -22.7404  -28.8386   20.8497 N   0  0  0  0  0  0  0  0  0  0  0  0
  -27.6521  -15.8055   22.6869 N   0  0  0  0  0  0  0  0  0  0  0  0
  -26.8341  -13.6339   18.5658 N   0  0  0  0  0  0  0  0  0  0  0  0
  -23.7142  -10.4599   17.7991 N   0  0  0  0  0  0  0  0  0  0  0  0
  -24.7612  -31.0111   22.9693 N   0  0  0  0  0  0  0  0  0  0  0  0
  -19.7923  -27.9679   19.4324 N   0  0  0  0  0  0  0  0  0  0  0  0
  -27.5540  -17.6368   21.1934 N   0  0  0  0  0  0  0  0  0  0  0  0
  -19.9900  -26.7598   16.0311 N   0  3  0  0  0  0  0  0  0  0  0  0
  -33.6019  -20.9308   17.7965 O   0  0  0  0  0  0  0  0  0  0  0  0
  -25.0569  -12.0299   16.8036 O   0  0  0  0  0  0  0  0  0  0  0  0
  -23.4214  -29.1347   23.2960 O   0  0  0  0  0  0  0  0  0  0  0  0
  -20.9008  -30.2666   20.7347 O   0  0  0  0  0  0  0  0  0  0  0  0
  -20.7520  -26.0135   18.6347 O   0  0  0  0  0  0  0  0  0  0  0  0
  -28.8949  -17.7293   23.0509 O   0  0  0  0  0  0  0  0  0  0  0  0
  -21.2884   -7.2313   21.6366 O   0  0  0  0  0  0  0  0  0  0  0  0
  -27.1860  -24.5916   20.3476 O   0  0  0  0  0  0  0  0  0  1  0  0
  -22.9240   -3.2970   25.1366 F   0  0  0  0  0  0  0  0  0  0  0  0
  -21.3601   -4.5799   20.8572 F   0  0  0  0  0  0  0  0  0  0  0  0
  1  2  1  0  0  0  0
  1  5  2  0  0  0  0
  2  6  2  0  0  0  0
  3 10  2  0  0  0  0
  3 18  1  0  0  0  0
  4 11  1  0  0  0  0
  4 18  2  0  0  0  0
  5 20  1  0  0  0  0
  6 22  1  0  0  0  0
  7 12  2  0  0  0  0
  7 21  1  0  0  0  0
  8  9  2  0  0  0  0
  8 24  1  0  0  0  0
  9 25  1  0  0  0  0
 10 27  1  0  0  0  0
 11 27  2  0  0  0  0
 12 28  1  0  0  0  0
 13 14  2  0  0  0  0
 13 29  1  0  0  0  0
 14 30  1  0  0  0  0
 15 23  1  0  0  0  0
 15 28  2  0  0  0  0
 16 25  2  0  0  0  0
 16 26  1  0  0  0  0
 17 30  2  0  0  0  0
 17 31  1  0  0  0  0
 18 32  1  0  0  0  0
 19 32  1  0  0  0  0
 19 33  2  0  0  0  0
 19 37  1  0  0  0  0
 20 22  2  0  0  0  0
 20 42  1  0  0  0  0
 21 23  2  0  0  0  0
 21 43  1  0  0  0  0
 22 57  1  0  0  0  0
 23 44  1  0  0  0  0
 24 26  2  0  0  0  0
 24 65  1  0  0  0  0
 25 71  1  0  0  0  0
 26 72  1  0  0  0  0
 27 87  1  0  0  0  0
 28 88  1  0  0  0  0
 29 31  2  0  0  0  0
 29 87  1  0  0  0  0
 30 89  1  0  0  0  0
 31 90  1  0  0  0  0
 32 69  2  0  0  0  0
 33 70  1  0  0  0  0
 33 75  1  0  0  0  0
 34 36  2  0  0  0  0
 34 45  1  0  0  0  0
 34 46  1  0  0  0  0
 35 47  1  0  0  0  0
 35 71  1  0  0  0  0
 35 81  2  0  0  0  0
 36 88  1  0  0  0  0
 37 76  1  0  0  0  0
 37 82  2  0  0  0  0
 38 58  1  0  0  0  0
 38 77  1  0  0  0  0
 38 83  2  0  0  0  0
 39 66  1  0  0  0  0
 39 73  1  0  0  0  0
 39 84  2  0  0  0  0
 40 67  1  0  0  0  0
 40 78  1  0  0  0  0
 40 85  2  0  0  0  0
 41 74  1  0  0  0  0
 41 79  1  0  0  0  0
 41 86  2  0  0  0  0
 42 48  1  0  0  0  0
 43 58  1  0  0  0  0
 44 73  1  0  0  0  0
 45 53  1  0  0  0  0
 46 72  1  0  0  0  0
 47 49  1  0  0  0  0
 48 51  1  0  0  0  0
 49 54  1  0  0  0  0
 50 52  1  0  0  0  0
 50 55  1  0  0  0  0
 51 57  1  0  0  0  0
 52 59  1  0  0  0  0
 53 72  1  0  0  0  0
 54 71  1  0  0  0  0
 55 74  1  0  0  0  0
 56 59  1  0  0  0  0
 56 74  1  0  0  0  0
 57 77  1  0  0  0  0
 58 73  1  0  0  0  0
 59 70  1  0  0  0  0
 60 67  1  0  0  0  0
 61 68  1  0  0  0  0
 62 68  1  0  0  0  0
 63 68  1  0  0  0  0
 64 80  1  0  0  0  0
 65 79  1  0  0  0  0
 66 68  1  0  0  0  0
 66 78  1  0  0  0  0
 67 80  1  0  0  0  0
 69 70  1  0  0  0  0
M  CHG  1  80   1
M  ISO  4  36 101  41 100  79 100  88 101
M  END
> <Batch ID>
0097

> <Smiles>
CNC(C)C(=O)NC(C(=O)N1Cc2cc([101O:1][101CH:1]=C3CCN(c4cc(N5CCCC5=O)ccc4C[100NH:0][100C:0](=O)N4CCCC(n5nc(-c6ccc(Oc7ccc(F)cc7F)cc6)c(C(N)=O)c5N)C4)C3)ccc2CC1C(=O)NC1CCCc2ccccc21)C(C)(C)C

> <Shape>
0.309

> <Color>
0.091

> <Negative vol penalty>
0.000

$$$$

  -OEChem-04052300493D

 86 95  0     1  0  0  0  0  0999 V2000
  -26.3854  -35.4272   23.4301 C   0  0  0  0  0  0  0  0  0  0  0  0
  -26.8774  -34.1569   23.1475 C   0  0  0  0  0  0  0  0  0  0  0  0
  -26.5836  -11.5904   21.3372 C   0  0  0  0  0  0  0  0  0  0  0  0
  -25.8062  -13.3351   19.8577 C   0  0  0  0  0  0  0  0  0  0  0  0
  -25.1046  -35.5753   23.9607 C   0  0  0  0  0  0  0  0  0  0  0  0
  -26.0892  -33.0339   23.3964 C   0  0  0  0  0  0  0  0  0  0  0  0
  -26.1899  -29.7054   19.5811 C   0  0  0  0  0  0  0  0  0  0  0  0
  -30.2108  -21.4928   18.3387 C   0  0  0  0  0  0  0  0  0  0  0  0
  -29.8856  -20.4910   19.2532 C   0  0  0  0  0  0  0  0  0  0  0  0
  -25.2717  -11.1465   21.5031 C   0  0  0  0  0  0  0  0  0  0  0  0
  -24.4943  -12.8911   20.0235 C   0  0  0  0  0  0  0  0  0  0  0  0
  -27.3133  -28.8858   19.4807 C   0  0  0  0  0  0  0  0  0  0  0  0
  -23.0293   -9.3001   19.7723 C   0  0  0  0  0  0  0  0  0  0  0  0
  -22.7956   -7.9269   19.6995 C   0  0  0  0  0  0  0  0  0  0  0  0
  -26.0888  -27.0896   20.5264 C   0  0  0  0  0  0  0  0  0  0  0  0
  -31.9783  -20.8607   20.4024 C   0  0  0  0  0  0  0  0  0  0  0  0
  -21.9329   -7.9540   21.9561 C   0  0  0  0  0  0  0  0  0  0  0  0
  -26.8509  -12.6848   20.5146 C   0  0  0  0  0  0  0  0  0  0  0  0
  -29.1280  -12.7260   19.3654 C   0  0  0  0  0  0  0  0  0  0  0  0
  -24.2966  -34.4541   24.2072 C   0  0  0  0  0  0  0  0  0  0  0  0
  -25.0090  -29.2259   20.1658 C   0  0  0  0  0  0  0  0  0  0  0  0
  -24.7969  -33.1670   23.9320 C   0  0  0  0  0  0  0  0  0  0  0  0
  -24.9511  -27.9043   20.6307 C   0  0  0  0  0  0  0  0  0  0  0  0
  -31.4198  -22.1785   18.4561 C   0  0  0  0  0  0  0  0  0  0  0  0
  -30.7693  -20.1750   20.2851 C   0  0  0  0  0  0  0  0  0  0  0  0
  -32.3035  -21.8625   19.4879 C   0  0  0  0  0  0  0  0  0  0  0  0
  -24.2271  -11.7968   20.8462 C   0  0  0  0  0  0  0  0  0  0  0  0
  -27.2638  -27.5786   19.9560 C   0  0  0  0  0  0  0  0  0  0  0  0
  -22.7150  -10.0003   20.9371 C   0  0  0  0  0  0  0  0  0  0  0  0
  -22.2474   -7.2539   20.7914 C   0  0  0  0  0  0  0  0  0  0  0  0
  -22.1667   -9.3273   22.0289 C   0  0  0  0  0  0  0  0  0  0  0  0
  -28.2057  -13.1442   20.3434 C   0  0  0  0  0  0  0  0  0  0  0  0
  -30.2617  -13.4554   19.6284 C   0  0  0  0  0  0  0  0  0  0  0  0
  -32.5753  -25.5480   18.0909 C   0  0  0  0  0  0  0  0  0  0  0  0
  -28.9736  -11.7644   18.3132 C   0  0  0  0  0  0  0  0  0  0  0  0
  -23.2780  -30.0290   22.7080 C   0  0  0  0  0  0  0  0  0  0  0  0
  -21.2373  -27.7951   21.5386 C   0  0  0  0  0  0  0  0  0  0  0  0
  -20.7819  -25.0042   19.6280 C   0  0  0  0  0  0  0  0  0  0  0  0
  -31.2020  -18.7194   22.2951 C   0  0  0  0  0  0  0  0  0  0  0  0
  -22.9367  -34.6611   24.8256 C   0  0  0  0  0  0  0  0  0  0  0  0
  -23.7976  -30.1142   20.2424 C   0  0  0  0  0  0  0  0  0  0  0  0
  -23.7009  -27.3351   21.2484 C   0  0  0  0  0  0  0  0  0  0  0  0
  -31.9309  -26.8047   18.6261 C   0  0  0  0  0  0  0  0  0  0  0  0
  -22.0232  -33.4436   24.7099 C   0  0  0  0  0  0  0  0  0  0  0  0
  -32.5963  -15.5795   23.2301 C   0  0  0  0  0  0  0  0  0  0  0  0
  -22.7735  -32.1742   25.1008 C   0  0  0  0  0  0  0  0  0  0  0  0
  -31.7163  -14.5608   22.5021 C   0  0  0  0  0  0  0  0  0  0  0  0
  -31.7864  -16.7752   23.7282 C   0  0  0  0  0  0  0  0  0  0  0  0
  -30.2896  -25.0613   18.4451 C   0  0  0  0  0  0  0  0  0  0  0  0
  -30.0894  -16.4223   21.9776 C   0  0  0  0  0  0  0  0  0  0  0  0
  -23.9627  -31.9261   24.1650 C   0  0  1  0  0  0  0  0  0  0  0  0
  -22.8093  -29.6849   21.3225 C   0  0  1  0  0  0  0  0  0  0  0  0
  -30.6327  -26.2998   19.2612 C   0  0  2  0  0  0  0  0  0  0  0  0
  -30.8716  -15.2310   21.4008 C   0  0  2  0  0  0  0  0  0  0  0  0
  -19.0089  -23.3871   18.8941 C   0  0  0  0  0  0  0  0  0  0  0  0
  -21.3140  -26.4682   24.2851 C   0  0  0  0  0  0  0  0  0  0  0  0
  -20.3356  -24.4130   23.2425 C   0  0  0  0  0  0  0  0  0  0  0  0
  -19.0486  -26.5499   23.2289 C   0  0  0  0  0  0  0  0  0  0  0  0
  -21.1698  -25.6938   16.7761 C   0  0  0  0  0  0  0  0  0  0  0  0
  -31.7441  -23.2523   17.4581 C   0  0  0  0  0  0  0  0  0  0  0  0
  -29.5255  -27.3396   19.2607 C   0  0  0  0  0  0  0  0  0  1  0  0
  -21.0630  -26.3066   21.7206 C   0  0  1  0  0  0  0  0  0  0  0  0
  -19.7545  -24.6701   18.5615 C   0  0  2  0  0  0  0  0  0  0  0  0
  -20.4646  -25.9455   23.1095 C   0  0  0  0  0  0  0  0  0  0  0  0
  -28.7100  -14.0675   21.1664 N   0  0  0  0  0  0  0  0  0  0  0  0
  -29.9614  -14.2354   20.7062 N   0  0  0  0  0  0  0  0  0  0  0  0
  -31.5807  -24.5773   18.0160 N   0  0  0  0  0  0  0  0  0  0  0  0
  -22.5448  -28.2448   21.3065 N   0  0  0  0  0  0  0  0  0  0  0  0
  -31.0152  -17.3615   22.6299 N   0  0  0  0  0  0  0  0  0  0  0  0
  -33.5323  -22.5461   19.6209 N   0  0  0  0  0  0  0  0  0  0  0  0
  -31.4762  -13.4991   19.0407 N   0  0  0  0  0  0  0  0  0  0  0  0
  -27.7429  -11.1062   18.1849 N   0  0  0  0  0  0  0  0  0  0  0  0
  -30.4385  -19.1569   21.2134 N   0  0  0  0  0  0  0  0  0  0  0  0
  -23.5087  -31.3770   22.9053 N   0  0  0  0  0  0  0  0  0  0  0  0
  -20.2652  -25.8476   20.5886 N   0  0  0  0  0  0  0  0  0  0  0  0
  -20.4183  -24.4985   17.2384 N   0  3  0  0  0  0  0  0  0  0  0  0
  -33.7466  -25.4580   17.7540 O   0  0  0  0  0  0  0  0  0  0  0  0
  -29.9049  -11.4847   17.5208 O   0  0  0  0  0  0  0  0  0  0  0  0
  -23.4184  -29.1376   23.5370 O   0  0  0  0  0  0  0  0  0  0  0  0
  -20.2487  -28.5308   21.5930 O   0  0  0  0  0  0  0  0  0  0  0  0
  -21.9271  -24.5583   19.6125 O   0  0  0  0  0  0  0  0  0  0  0  0
  -32.0020  -19.4339   22.9046 O   0  0  0  0  0  0  0  0  0  0  0  0
  -22.9469  -11.3637   21.0075 O   0  0  0  0  0  0  0  0  0  0  0  0
  -28.3590  -26.7767   19.8598 O   0  0  0  0  0  0  0  0  0  1  0  0
  -22.0215   -5.9355   20.7207 F   0  0  0  0  0  0  0  0  0  0  0  0
  -21.8615   -9.9948   23.1502 F   0  0  0  0  0  0  0  0  0  0  0  0
  1  2  1  0  0  0  0
  1  5  2  0  0  0  0
  2  6  2  0  0  0  0
  3 10  2  0  0  0  0
  3 18  1  0  0  0  0
  4 11  1  0  0  0  0
  4 18  2  0  0  0  0
  5 20  1  0  0  0  0
  6 22  1  0  0  0  0
  7 12  2  0  0  0  0
  7 21  1  0  0  0  0
  8  9  2  0  0  0  0
  8 24  1  0  0  0  0
  9 25  1  0  0  0  0
 10 27  1  0  0  0  0
 11 27  2  0  0  0  0
 12 28  1  0  0  0  0
 13 14  2  0  0  0  0
 13 29  1  0  0  0  0
 14 30  1  0  0  0  0
 15 23  1  0  0  0  0
 15 28  2  0  0  0  0
 16 25  2  0  0  0  0
 16 26  1  0  0  0  0
 17 30  2  0  0  0  0
 17 31  1  0  0  0  0
 18 32  1  0  0  0  0
 19 32  1  0  0  0  0
 19 33  2  0  0  0  0
 19 35  1  0  0  0  0
 20 22  2  0  0  0  0
 20 40  1  0  0  0  0
 21 23  2  0  0  0  0
 21 41  1  0  0  0  0
 22 51  1  0  0  0  0
 23 42  1  0  0  0  0
 24 26  2  0  0  0  0
 24 60  1  0  0  0  0
 25 73  1  0  0  0  0
 26 70  1  0  0  0  0
 27 83  1  0  0  0  0
 28 84  1  0  0  0  0
 29 31  2  0  0  0  0
 29 83  1  0  0  0  0
 30 85  1  0  0  0  0
 31 86  1  0  0  0  0
 32 65  2  0  0  0  0
 33 66  1  0  0  0  0
 33 71  1  0  0  0  0
 34 43  1  0  0  0  0
 34 67  1  0  0  0  0
 34 77  2  0  0  0  0
 35 72  1  0  0  0  0
 35 78  2  0  0  0  0
 36 52  1  0  0  0  0
 36 74  1  0  0  0  0
 36 79  2  0  0  0  0
 37 62  1  0  0  0  0
 37 68  1  0  0  0  0
 37 80  2  0  0  0  0
 38 63  1  0  0  0  0
 38 75  1  0  0  0  0
 38 81  2  0  0  0  0
 39 69  1  0  0  0  0
 39 73  1  0  0  0  0
 39 82  2  0  0  0  0
 40 44  1  0  0  0  0
 41 52  1  0  0  0  0
 42 68  1  0  0  0  0
 43 53  1  0  0  0  0
 44 46  1  0  0  0  0
 45 47  1  0  0  0  0
 45 48  1  0  0  0  0
 46 51  1  0  0  0  0
 47 54  1  0  0  0  0
 48 69  1  0  0  0  0
 49 53  1  0  0  0  0
 49 67  1  0  0  0  0
 50 54  1  0  0  0  0
 50 69  1  0  0  0  0
 51 74  1  0  0  0  0
 52 68  1  0  0  0  0
 53 61  1  0  0  0  0
 54 66  1  0  0  0  0
 55 63  1  0  0  0  0
 56 64  1  0  0  0  0
 57 64  1  0  0  0  0
 58 64  1  0  0  0  0
 59 76  1  0  0  0  0
 60 67  1  0  0  0  0
 61 84  1  0  0  0  0
 62 64  1  0  0  0  0
 62 75  1  0  0  0  0
 63 76  1  0  0  0  0
 65 66  1  0  0  0  0
M  CHG  1  76   1
M  ISO  4  39 100  61 101  73 100  84 101
M  END
> <Batch ID>
0097

> <Smiles>
CNC(C)C(=O)NC(C(=O)N1Cc2cc([101O:1][101CH2:1]C3CC(=O)N(Cc4ccc([100NH:0][100C:0](=O)N5CCCC(n6nc(-c7ccc(Oc8ccc(F)cc8F)cc7)c(C(N)=O)c6N)C5)cc4N)C3)ccc2CC1C(=O)NC1CCCc2ccccc21)C(C)(C)C

> <Shape>
0.340

> <Color>
0.083

> <Negative vol penalty>
0.000

$$$$

  -OEChem-04052300493D

 89 98  0     1  0  0  0  0  0999 V2000
  -26.4216  -35.3046   23.2860 C   0  0  0  0  0  0  0  0  0  0  0  0
  -26.8992  -34.0183   23.0569 C   0  0  0  0  0  0  0  0  0  0  0  0
  -24.3300  -12.1277   21.4609 C   0  0  0  0  0  0  0  0  0  0  0  0
  -25.6277  -14.0385   20.7527 C   0  0  0  0  0  0  0  0  0  0  0  0
  -25.1198  -35.4915   23.7490 C   0  0  0  0  0  0  0  0  0  0  0  0
  -26.0756  -32.9178   23.2917 C   0  0  0  0  0  0  0  0  0  0  0  0
  -26.2910  -29.4989   19.5622 C   0  0  0  0  0  0  0  0  0  0  0  0
  -25.9036  -22.2610   23.8386 C   0  0  0  0  0  0  0  0  0  0  0  0
  -27.2928  -22.2189   23.9568 C   0  0  0  0  0  0  0  0  0  0  0  0
  -24.9864  -11.3334   20.5208 C   0  0  0  0  0  0  0  0  0  0  0  0
  -26.2842  -13.2442   19.8126 C   0  0  0  0  0  0  0  0  0  0  0  0
  -27.3998  -28.6542   19.5360 C   0  0  0  0  0  0  0  0  0  0  0  0
  -28.7855  -10.9719   19.7858 C   0  0  0  0  0  0  0  0  0  0  0  0
  -30.1711  -11.0985   19.6870 C   0  0  0  0  0  0  0  0  0  0  0  0
  -26.0869  -26.9087   20.5600 C   0  0  0  0  0  0  0  0  0  0  0  0
  -26.0901  -21.7880   21.4767 C   0  0  0  0  0  0  0  0  0  0  0  0
  -29.9455  -11.7655   17.3759 C   0  0  0  0  0  0  0  0  0  0  0  0
  -24.6506  -13.4803   21.5768 C   0  0  0  0  0  0  0  0  0  0  0  0
  -23.9508  -14.1247   23.9438 C   0  0  0  0  0  0  0  0  0  0  0  0
  -24.2766  -34.3933   23.9805 C   0  0  0  0  0  0  0  0  0  0  0  0
  -25.0726  -29.0577   20.0984 C   0  0  0  0  0  0  0  0  0  0  0  0
  -24.7617  -33.0901   23.7596 C   0  0  0  0  0  0  0  0  0  0  0  0
  -24.9633  -27.7489   20.5895 C   0  0  0  0  0  0  0  0  0  0  0  0
  -25.3022  -22.0455   22.5986 C   0  0  0  0  0  0  0  0  0  0  0  0
  -28.0807  -21.9614   22.8349 C   0  0  0  0  0  0  0  0  0  0  0  0
  -25.9635  -11.8916   19.6966 C   0  0  0  0  0  0  0  0  0  0  0  0
  -27.2987  -27.3599   20.0376 C   0  0  0  0  0  0  0  0  0  0  0  0
  -27.9799  -11.2421   18.6795 C   0  0  0  0  0  0  0  0  0  0  0  0
  -27.4793  -21.7460   21.5948 C   0  0  0  0  0  0  0  0  0  0  0  0
  -30.7511  -11.4953   18.4822 C   0  0  0  0  0  0  0  0  0  0  0  0
  -28.5599  -11.6390   17.4746 C   0  0  0  0  0  0  0  0  0  0  0  0
  -23.9725  -14.3014   22.5474 C   0  0  0  0  0  0  0  0  0  0  0  0
  -23.1759  -15.1590   24.4088 C   0  0  0  0  0  0  0  0  0  0  0  0
  -31.1114  -22.5285   21.1310 C   0  0  0  0  0  0  0  0  0  0  0  0
  -24.5753  -13.1158   24.7487 C   0  0  0  0  0  0  0  0  0  0  0  0
  -23.2369  -29.9559   22.5329 C   0  0  0  0  0  0  0  0  0  0  0  0
  -21.2080  -27.7374   21.3147 C   0  0  0  0  0  0  0  0  0  0  0  0
  -20.7865  -24.9122   19.4473 C   0  0  0  0  0  0  0  0  0  0  0  0
  -21.8662  -20.5762   22.2204 C   0  0  0  0  0  0  0  0  0  0  0  0
  -22.8929  -34.6428   24.5260 C   0  0  0  0  0  0  0  0  0  0  0  0
  -23.8785  -29.9722   20.0949 C   0  0  0  0  0  0  0  0  0  0  0  0
  -23.6724  -27.2202   21.1573 C   0  0  0  0  0  0  0  0  0  0  0  0
  -31.7175  -23.7013   20.3876 C   0  0  0  0  0  0  0  0  0  0  0  0
  -21.9599  -33.4419   24.3928 C   0  0  0  0  0  0  0  0  0  0  0  0
  -30.6246  -24.7061   20.0540 C   0  0  0  0  0  0  0  0  0  0  0  0
  -19.5619  -18.0102   23.1047 C   0  0  0  0  0  0  0  0  0  0  0  0
  -22.6624  -32.1670   24.8488 C   0  0  0  0  0  0  0  0  0  0  0  0
  -20.4290  -16.7527   23.1881 C   0  0  0  0  0  0  0  0  0  0  0  0
  -20.0219  -18.9395   21.9837 C   0  0  0  0  0  0  0  0  0  0  0  0
  -30.1103  -24.3144   22.5254 C   0  0  0  0  0  0  0  0  0  0  0  0
  -22.3165  -18.0499   22.1141 C   0  0  0  0  0  0  0  0  0  0  0  0
  -23.8904  -31.8724   23.9789 C   0  0  1  0  0  0  0  0  0  0  0  0
  -22.8294  -29.5890   21.1340 C   0  0  1  0  0  0  0  0  0  0  0  0
  -29.9445  -25.2524   21.3202 C   0  0  2  0  0  0  0  0  0  0  0  0
  -21.9260  -17.1081   23.2660 C   0  0  2  0  0  0  0  0  0  0  0  0
  -19.0169  -23.3150   18.6632 C   0  0  0  0  0  0  0  0  0  0  0  0
  -21.1212  -26.4745   24.0909 C   0  0  0  0  0  0  0  0  0  0  0  0
  -20.1508  -24.4158   23.0478 C   0  0  0  0  0  0  0  0  0  0  0  0
  -18.9126  -26.5777   22.9223 C   0  0  0  0  0  0  0  0  0  0  0  0
  -21.3285  -25.5261   16.6033 C   0  0  0  0  0  0  0  0  0  0  0  0
  -27.5368  -21.2838   19.2627 C   0  0  0  0  0  0  0  0  0  0  0  0
  -29.5744  -21.9214   22.9806 C   0  0  0  0  0  0  0  0  0  0  0  0
  -23.8167  -22.0898   22.4730 C   0  0  0  0  0  0  0  0  0  0  0  0
  -28.4702  -25.5527   21.0463 C   0  0  0  0  0  0  0  0  0  1  0  0
  -20.9927  -26.2576   21.5214 C   0  0  1  0  0  0  0  0  0  0  0  0
  -19.8055  -24.5742   18.3392 C   0  0  2  0  0  0  0  0  0  0  0  0
  -20.3193  -25.9417   22.8867 C   0  0  0  0  0  0  0  0  0  0  0  0
  -23.2673  -15.3643   22.1511 N   0  0  0  0  0  0  0  0  0  0  0  0
  -22.7951  -15.8647   23.3056 N   0  0  0  0  0  0  0  0  0  0  0  0
  -30.2292  -22.9112   22.1422 N   0  0  0  0  0  0  0  0  0  0  0  0
  -22.5348  -28.1546   21.1375 N   0  0  0  0  0  0  0  0  0  0  0  0
  -21.4497  -19.2388   22.1164 N   0  0  0  0  0  0  0  0  0  0  0  0
  -22.7899  -15.5245   25.6497 N   0  0  0  0  0  0  0  0  0  0  0  0
  -25.3362  -12.1274   24.1095 N   0  0  0  0  0  0  0  0  0  0  0  0
  -23.4869  -31.3032   22.7110 N   0  0  0  0  0  0  0  0  0  0  0  0
  -20.2417  -25.7885   20.3620 N   0  0  0  0  0  0  0  0  0  0  0  0
  -23.2359  -20.7714   22.3494 N   0  0  0  0  0  0  0  0  0  0  0  0
  -20.5295  -24.3578   17.0547 N   0  3  0  0  0  0  0  0  0  0  0  0
  -31.4135  -21.3708   20.8473 O   0  0  0  0  0  0  0  0  0  0  0  0
  -24.4484  -13.0820   25.9962 O   0  0  0  0  0  0  0  0  0  0  0  0
  -23.3172  -29.0816   23.3878 O   0  0  0  0  0  0  0  0  0  0  0  0
  -20.2341  -28.4944   21.3035 O   0  0  0  0  0  0  0  0  0  0  0  0
  -21.9211  -24.4426   19.4986 O   0  0  0  0  0  0  0  0  0  0  0  0
  -21.0756  -21.5257   22.2052 O   0  0  0  0  0  0  0  0  0  0  0  0
  -26.6044  -11.1168   18.7793 O   0  0  0  0  0  0  0  0  0  0  0  0
  -28.2340  -21.4921   20.4893 O   0  0  0  0  0  0  0  0  0  0  0  0
  -28.3797  -26.5336   20.0138 O   0  0  0  0  0  0  0  0  0  1  0  0
  -32.0816  -11.6182   18.3879 F   0  0  0  0  0  0  0  0  0  0  0  0
  -27.7911  -11.9011   16.4088 F   0  0  0  0  0  0  0  0  0  0  0  0
  1  2  1  0  0  0  0
  1  5  2  0  0  0  0
  2  6  2  0  0  0  0
  3 10  2  0  0  0  0
  3 18  1  0  0  0  0
  4 11  1  0  0  0  0
  4 18  2  0  0  0  0
  5 20  1  0  0  0  0
  6 22  1  0  0  0  0
  7 12  2  0  0  0  0
  7 21  1  0  0  0  0
  8  9  2  0  0  0  0
  8 24  1  0  0  0  0
  9 25  1  0  0  0  0
 10 26  1  0  0  0  0
 11 26  2  0  0  0  0
 12 27  1  0  0  0  0
 13 14  2  0  0  0  0
 13 28  1  0  0  0  0
 14 30  1  0  0  0  0
 15 23  1  0  0  0  0
 15 27  2  0  0  0  0
 16 24  2  0  0  0  0
 16 29  1  0  0  0  0
 17 30  2  0  0  0  0
 17 31  1  0  0  0  0
 18 32  1  0  0  0  0
 19 32  1  0  0  0  0
 19 33  2  0  0  0  0
 19 35  1  0  0  0  0
 20 22  2  0  0  0  0
 20 40  1  0  0  0  0
 21 23  2  0  0  0  0
 21 41  1  0  0  0  0
 22 52  1  0  0  0  0
 23 42  1  0  0  0  0
 24 63  1  0  0  0  0
 25 29  2  0  0  0  0
 25 62  1  0  0  0  0
 26 85  1  0  0  0  0
 27 87  1  0  0  0  0
 28 31  2  0  0  0  0
 28 85  1  0  0  0  0
 29 86  1  0  0  0  0
 30 88  1  0  0  0  0
 31 89  1  0  0  0  0
 32 68  2  0  0  0  0
 33 69  1  0  0  0  0
 33 73  1  0  0  0  0
 34 43  1  0  0  0  0
 34 70  1  0  0  0  0
 34 79  2  0  0  0  0
 35 74  1  0  0  0  0
 35 80  2  0  0  0  0
 36 53  1  0  0  0  0
 36 75  1  0  0  0  0
 36 81  2  0  0  0  0
 37 65  1  0  0  0  0
 37 71  1  0  0  0  0
 37 82  2  0  0  0  0
 38 66  1  0  0  0  0
 38 76  1  0  0  0  0
 38 83  2  0  0  0  0
 39 72  1  0  0  0  0
 39 77  1  0  0  0  0
 39 84  2  0  0  0  0
 40 44  1  0  0  0  0
 41 53  1  0  0  0  0
 42 71  1  0  0  0  0
 43 45  1  0  0  0  0
 44 47  1  0  0  0  0
 45 54  1  0  0  0  0
 46 48  1  0  0  0  0
 46 49  1  0  0  0  0
 47 52  1  0  0  0  0
 48 55  1  0  0  0  0
 49 72  1  0  0  0  0
 50 54  1  0  0  0  0
 50 70  1  0  0  0  0
 51 55  1  0  0  0  0
 51 72  1  0  0  0  0
 52 75  1  0  0  0  0
 53 71  1  0  0  0  0
 54 64  1  0  0  0  0
 55 69  1  0  0  0  0
 56 66  1  0  0  0  0
 57 67  1  0  0  0  0
 58 67  1  0  0  0  0
 59 67  1  0  0  0  0
 60 78  1  0  0  0  0
 61 86  1  0  0  0  0
 62 70  1  0  0  0  0
 63 77  1  0  0  0  0
 64 87  1  0  0  0  0
 65 67  1  0  0  0  0
 65 76  1  0  0  0  0
 66 78  1  0  0  0  0
 68 69  1  0  0  0  0
M  CHG  1  78   1
M  ISO  4  39 100  64 101  77 100  87 101
M  END
> <Batch ID>
0097

> <Smiles>
CNC(C)C(=O)NC(C(=O)N1Cc2cc([101O:1][101CH2:1]C3CCC(=O)N(Cc4ccc(C[100NH:0][100C:0](=O)N5CCCC(n6nc(-c7ccc(Oc8ccc(F)cc8F)cc7)c(C(N)=O)c6N)C5)cc4OC)C3)ccc2CC1C(=O)NC1CCCc2ccccc21)C(C)(C)C

> <Shape>
0.228

> <Color>
0.077

> <Negative vol penalty>
0.000

$$$$

  -OEChem-04052300493D

 85 93  0     1  0  0  0  0  0999 V2000
  -30.6410  -25.6596   17.0690 C   0  0  0  0  0  0  0  0  0  0  0  0
  -29.2601  -25.5524   17.2000 C   0  0  0  0  0  0  0  0  0  0  0  0
  -27.3517  -12.9215   21.6845 C   0  0  0  0  0  0  0  0  0  0  0  0
  -26.7361  -14.4523   19.9197 C   0  0  0  0  0  0  0  0  0  0  0  0
  -31.4013  -26.1777   18.1166 C   0  0  0  0  0  0  0  0  0  0  0  0
  -28.6388  -25.9623   18.3791 C   0  0  0  0  0  0  0  0  0  0  0  0
  -23.1168  -28.5542   18.9222 C   0  0  0  0  0  0  0  0  0  0  0  0
  -24.4973  -22.2668   22.0140 C   0  0  0  0  0  0  0  0  0  0  0  0
  -26.4456  -11.9845   21.1879 C   0  0  0  0  0  0  0  0  0  0  0  0
  -25.8299  -13.5153   19.4231 C   0  0  0  0  0  0  0  0  0  0  0  0
  -21.8661  -28.0361   19.2557 C   0  0  0  0  0  0  0  0  0  0  0  0
  -23.1330  -22.5446   22.0986 C   0  0  0  0  0  0  0  0  0  0  0  0
  -23.1087  -11.4549   21.2812 C   0  0  0  0  0  0  0  0  0  0  0  0
  -22.2843  -10.8025   22.1980 C   0  0  0  0  0  0  0  0  0  0  0  0
  -22.2059  -28.7077   21.5476 C   0  0  0  0  0  0  0  0  0  0  0  0
  -24.9420  -23.9362   23.7028 C   0  0  0  0  0  0  0  0  0  0  0  0
  -23.2072   -8.6767   21.5152 C   0  0  0  0  0  0  0  0  0  0  0  0
  -27.4969  -14.1554   21.0504 C   0  0  0  0  0  0  0  0  0  0  0  0
  -29.7884  -15.2648   21.2122 C   0  0  0  0  0  0  0  0  0  0  0  0
  -30.7879  -26.6031   19.3055 C   0  0  0  0  0  0  0  0  0  0  0  0
  -23.9273  -29.1442   19.9026 C   0  0  0  0  0  0  0  0  0  0  0  0
  -29.3918  -26.4854   19.4441 C   0  0  0  0  0  0  0  0  0  0  0  0
  -23.4653  -29.2348   21.2234 C   0  0  0  0  0  0  0  0  0  0  0  0
  -25.4018  -22.9625   22.8161 C   0  0  0  0  0  0  0  0  0  0  0  0
  -23.5777  -24.2141   23.7874 C   0  0  0  0  0  0  0  0  0  0  0  0
  -25.6847  -12.2814   20.0572 C   0  0  0  0  0  0  0  0  0  0  0  0
  -21.4117  -28.1102   20.5692 C   0  0  0  0  0  0  0  0  0  0  0  0
  -22.6732  -23.5182   22.9853 C   0  0  0  0  0  0  0  0  0  0  0  0
  -23.9822  -10.7181   20.4813 C   0  0  0  0  0  0  0  0  0  0  0  0
  -22.3336   -9.4135   22.3150 C   0  0  0  0  0  0  0  0  0  0  0  0
  -24.0315   -9.3290   20.5983 C   0  0  0  0  0  0  0  0  0  0  0  0
  -28.4324  -15.1239   21.5633 C   0  0  0  0  0  0  0  0  0  0  0  0
  -30.2318  -16.3199   21.9715 C   0  0  0  0  0  0  0  0  0  0  0  0
  -30.5766  -14.5096   20.2827 C   0  0  0  0  0  0  0  0  0  0  0  0
  -26.7969  -28.5155   21.1168 C   0  0  0  0  0  0  0  0  0  0  0  0
  -26.3238  -31.3227   22.6718 C   0  0  0  0  0  0  0  0  0  0  0  0
  -24.1179  -33.6285   23.8820 C   0  0  0  0  0  0  0  0  0  0  0  0
  -27.4528  -20.9995   24.4674 C   0  0  0  0  0  0  0  0  0  0  0  0
  -31.6564  -27.1126   20.4284 C   0  0  0  0  0  0  0  0  0  0  0  0
  -25.2625  -29.7223   19.5213 C   0  0  0  0  0  0  0  0  0  0  0  0
  -24.2885  -29.8766   22.3092 C   0  0  0  0  0  0  0  0  0  0  0  0
  -30.8810  -27.8725   21.5014 C   0  0  0  0  0  0  0  0  0  0  0  0
  -29.4208  -18.5422   26.1302 C   0  0  0  0  0  0  0  0  0  0  0  0
  -29.6230  -27.1051   21.8953 C   0  0  0  0  0  0  0  0  0  0  0  0
  -29.5130  -17.4002   25.1166 C   0  0  0  0  0  0  0  0  0  0  0  0
  -28.0558  -19.2255   26.0878 C   0  0  0  0  0  0  0  0  0  0  0  0
  -27.7313  -18.5523   23.7394 C   0  0  0  0  0  0  0  0  0  0  0  0
  -28.6786  -26.9424   20.6981 C   0  0  1  0  0  0  0  0  0  0  0  0
  -26.2217  -29.8401   20.7018 C   0  0  1  0  0  0  0  0  0  0  0  0
  -29.1089  -17.8687   23.7058 C   0  0  2  0  0  0  0  0  0  0  0  0
  -27.4350  -22.9192   21.3242 C   0  0  0  0  0  0  0  0  0  0  0  0
  -24.0282  -35.7984   25.1392 C   0  0  0  0  0  0  0  0  0  0  0  0
  -26.9143  -29.8382   25.2714 C   0  0  0  0  0  0  0  0  0  0  0  0
  -25.8993  -31.7583   26.5169 C   0  0  0  0  0  0  0  0  0  0  0  0
  -27.9326  -32.1172   25.1170 C   0  0  0  0  0  0  0  0  0  0  0  0
  -22.8127  -35.0193   21.6191 C   0  0  0  0  0  0  0  0  0  0  0  0
  -18.8022  -25.6319   20.9862 C   0  0  0  0  0  0  0  0  0  0  0  0
  -19.5173  -25.1060   22.2259 C   0  0  0  0  0  0  0  0  0  0  0  0
  -19.7205  -26.4962   20.1323 C   0  0  0  0  0  0  0  0  0  1  0  0
  -20.6992  -24.2195   21.8596 C   0  0  0  0  0  0  0  0  0  0  0  0
  -26.8603  -22.6649   22.7254 C   0  0  2  0  0  0  0  0  0  0  0  0
  -25.7045  -31.7243   23.9887 C   0  0  1  0  0  0  0  0  0  0  0  0
  -24.0791  -35.1418   23.7685 C   0  0  2  0  0  0  0  0  0  0  0  0
  -26.5977  -31.3456   25.2037 C   0  0  0  0  0  0  0  0  0  0  0  0
  -28.0402  -16.0179   22.4749 N   0  0  0  0  0  0  0  0  0  0  0  0
  -29.1565  -16.7306   22.7031 N   0  0  0  0  0  0  0  0  0  0  0  0
  -25.5896  -30.4216   21.8878 N   0  0  0  0  0  0  0  0  0  0  0  0
  -27.7333  -19.6470   24.7224 N   0  0  0  0  0  0  0  0  0  0  0  0
  -23.1260  -25.2019   24.6896 N   0  0  0  0  0  0  0  0  0  0  0  0
  -31.4328  -16.9271   22.0782 N   0  0  0  0  0  0  0  0  0  0  0  0
  -29.9639  -13.4590   19.5861 N   0  0  0  0  0  0  0  0  0  0  0  0
  -27.9586  -28.1733   20.4514 N   0  0  0  0  0  0  0  0  0  0  0  0
  -25.4109  -33.1495   23.8840 N   0  0  0  0  0  0  0  0  0  0  0  0
  -27.1632  -21.3149   23.1455 N   0  0  0  0  0  0  0  0  0  0  0  0
  -22.8796  -35.5726   22.9961 N   0  3  0  0  0  0  0  0  0  0  0  0
  -31.7926  -14.7485   20.0880 O   0  0  0  0  0  0  0  0  0  0  0  0
  -26.2295  -27.8537   21.9781 O   0  0  0  0  0  0  0  0  0  0  0  0
  -27.4154  -31.7969   22.3474 O   0  0  0  0  0  0  0  0  0  0  0  0
  -23.1029  -32.9404   23.9646 O   0  0  0  0  0  0  0  0  0  0  0  0
  -27.4651  -21.8630   25.3512 O   0  0  0  0  0  0  0  0  0  0  0  0
  -24.8006  -11.3673   19.5722 O   0  0  0  0  0  0  0  0  0  0  0  0
  -20.1917  -27.6047   20.8976 O   0  0  0  0  0  0  0  0  0  1  0  0
  -21.3287  -23.7761   23.0538 O   0  0  0  0  0  0  0  0  0  0  0  0
  -21.5430   -8.7873   23.1965 F   0  0  0  0  0  0  0  0  0  0  0  0
  -24.8696   -8.6160   19.8335 F   0  0  0  0  0  0  0  0  0  0  0  0
  1  2  1  0  0  0  0
  1  5  2  0  0  0  0
  2  6  2  0  0  0  0
  3  9  2  0  0  0  0
  3 18  1  0  0  0  0
  4 10  1  0  0  0  0
  4 18  2  0  0  0  0
  5 20  1  0  0  0  0
  6 22  1  0  0  0  0
  7 11  2  0  0  0  0
  7 21  1  0  0  0  0
  8 12  2  0  0  0  0
  8 24  1  0  0  0  0
  9 26  1  0  0  0  0
 10 26  2  0  0  0  0
 11 27  1  0  0  0  0
 12 28  1  0  0  0  0
 13 14  2  0  0  0  0
 13 29  1  0  0  0  0
 14 30  1  0  0  0  0
 15 23  1  0  0  0  0
 15 27  2  0  0  0  0
 16 24  2  0  0  0  0
 16 25  1  0  0  0  0
 17 30  2  0  0  0  0
 17 31  1  0  0  0  0
 18 32  1  0  0  0  0
 19 32  1  0  0  0  0
 19 33  2  0  0  0  0
 19 34  1  0  0  0  0
 20 22  2  0  0  0  0
 20 39  1  0  0  0  0
 21 23  2  0  0  0  0
 21 40  1  0  0  0  0
 22 48  1  0  0  0  0
 23 41  1  0  0  0  0
 24 61  1  0  0  0  0
 25 28  2  0  0  0  0
 25 69  1  0  0  0  0
 26 81  1  0  0  0  0
 27 82  1  0  0  0  0
 28 83  1  0  0  0  0
 29 31  2  0  0  0  0
 29 81  1  0  0  0  0
 30 84  1  0  0  0  0
 31 85  1  0  0  0  0
 32 65  2  0  0  0  0
 33 66  1  0  0  0  0
 33 70  1  0  0  0  0
 34 71  1  0  0  0  0
 34 76  2  0  0  0  0
 35 49  1  0  0  0  0
 35 72  1  0  0  0  0
 35 77  2  0  0  0  0
 36 62  1  0  0  0  0
 36 67  1  0  0  0  0
 36 78  2  0  0  0  0
 37 63  1  0  0  0  0
 37 73  1  0  0  0  0
 37 79  2  0  0  0  0
 38 68  1  0  0  0  0
 38 74  1  0  0  0  0
 38 80  2  0  0  0  0
 39 42  1  0  0  0  0
 40 49  1  0  0  0  0
 41 67  1  0  0  0  0
 42 44  1  0  0  0  0
 43 45  1  0  0  0  0
 43 46  1  0  0  0  0
 44 48  1  0  0  0  0
 45 50  1  0  0  0  0
 46 68  1  0  0  0  0
 47 50  1  0  0  0  0
 47 68  1  0  0  0  0
 48 72  1  0  0  0  0
 49 67  1  0  0  0  0
 50 66  1  0  0  0  0
 51 61  1  0  0  0  0
 52 63  1  0  0  0  0
 53 64  1  0  0  0  0
 54 64  1  0  0  0  0
 55 64  1  0  0  0  0
 56 75  1  0  0  0  0
 57 58  1  0  0  0  0
 57 59  1  0  0  0  0
 58 60  1  0  0  0  0
 59 82  1  0  0  0  0
 60 83  1  0  0  0  0
 61 74  1  0  0  0  0
 62 64  1  0  0  0  0
 62 73  1  0  0  0  0
 63 75  1  0  0  0  0
 65 66  1  0  0  0  0
M  CHG  1  75   1
M  ISO  4  38 100  59 101  74 100  82 101
M  END
> <Batch ID>
0097

> <Smiles>
CNC(C)C(=O)NC(C(=O)N1Cc2cc([101O:1][101CH2:1]CCCOc3ccc(C(C)[100NH:0][100C:0](=O)N4CCCC(n5nc(-c6ccc(Oc7ccc(F)cc7F)cc6)c(C(N)=O)c5N)C4)cc3N)ccc2CC1C(=O)NC1CCCc2ccccc21)C(C)(C)C

> <Shape>
0.302

> <Color>
0.083

> <Negative vol penalty>
0.000

$$$$

  -OEChem-04052300493D

 86 95  0     1  0  0  0  0  0999 V2000
  -21.7990  -28.3601   23.0004 C   0  0  0  0  0  0  0  0  0  0  0  0
  -22.7171  -28.1484   24.0239 C   0  0  0  0  0  0  0  0  0  0  0  0
  -22.8573  -10.0786   20.0705 C   0  0  0  0  0  0  0  0  0  0  0  0
  -24.2867   -9.5083   21.9330 C   0  0  0  0  0  0  0  0  0  0  0  0
  -20.7827  -27.4327   22.7742 C   0  0  0  0  0  0  0  0  0  0  0  0
  -22.6189  -27.0096   24.8226 C   0  0  0  0  0  0  0  0  0  0  0  0
  -27.9072  -21.4453   26.2716 C   0  0  0  0  0  0  0  0  0  0  0  0
  -22.1562   -8.8853   20.2432 C   0  0  0  0  0  0  0  0  0  0  0  0
  -23.5855   -8.3149   22.1057 C   0  0  0  0  0  0  0  0  0  0  0  0
  -28.7039  -20.3190   26.4783 C   0  0  0  0  0  0  0  0  0  0  0  0
  -21.9424   -5.2859   23.2648 C   0  0  0  0  0  0  0  0  0  0  0  0
  -21.5833   -4.9259   24.5636 C   0  0  0  0  0  0  0  0  0  0  0  0
  -30.9285  -13.0060   25.0609 C   0  0  0  0  0  0  0  0  0  0  0  0
  -33.0413  -13.6172   26.0606 C   0  0  0  0  0  0  0  0  0  0  0  0
  -26.7274  -18.9757   26.8486 C   0  0  0  0  0  0  0  0  0  0  0  0
  -32.8236  -13.5274   23.6561 C   0  0  0  0  0  0  0  0  0  0  0  0
  -20.2977   -6.9609   24.7721 C   0  0  0  0  0  0  0  0  0  0  0  0
  -23.9226  -10.3901   20.9154 C   0  0  0  0  0  0  0  0  0  0  0  0
  -31.7053  -13.2396   26.1956 C   0  0  0  0  0  0  0  0  0  0  0  0
  -24.1313  -12.9303   20.8065 C   0  0  0  0  0  0  0  0  0  0  0  0
  -20.6778  -26.2772   23.5643 C   0  0  0  0  0  0  0  0  0  0  0  0
  -26.5152  -21.3377   26.3375 C   0  0  0  0  0  0  0  0  0  0  0  0
  -21.5995  -26.0666   24.6077 C   0  0  0  0  0  0  0  0  0  0  0  0
  -25.9238  -20.0978   26.6301 C   0  0  0  0  0  0  0  0  0  0  0  0
  -31.4877  -13.1498   23.7911 C   0  0  0  0  0  0  0  0  0  0  0  0
  -22.5202   -8.0034   21.2607 C   0  0  0  0  0  0  0  0  0  0  0  0
  -28.1154  -19.0873   26.7663 C   0  0  0  0  0  0  0  0  0  0  0  0
  -21.4793   -6.4834   22.7196 C   0  0  0  0  0  0  0  0  0  0  0  0
  -20.7609   -5.7634   25.3173 C   0  0  0  0  0  0  0  0  0  0  0  0
  -33.6005  -13.7611   24.7908 C   0  0  0  0  0  0  0  0  0  0  0  0
  -20.6569   -7.3208   23.4732 C   0  0  0  0  0  0  0  0  0  0  0  0
  -24.6477  -11.6225   20.7372 C   0  0  0  0  0  0  0  0  0  0  0  0
  -25.2145  -13.7402   20.5676 C   0  0  0  0  0  0  0  0  0  0  0  0
  -29.5449  -16.2706   28.4725 C   0  0  0  0  0  0  0  0  0  0  0  0
  -28.8231  -17.3545   28.1697 C   0  0  0  0  0  0  0  0  0  1  0  0
  -31.1170  -13.0856   27.5346 C   0  0  0  0  0  0  0  0  0  0  0  0
  -22.7922  -13.3733   21.0639 C   0  0  0  0  0  0  0  0  0  0  0  0
  -23.1972  -23.0662   26.0561 C   0  0  0  0  0  0  0  0  0  0  0  0
  -22.8887  -20.3223   24.7195 C   0  0  0  0  0  0  0  0  0  0  0  0
  -21.9793  -17.6801   22.7627 C   0  0  0  0  0  0  0  0  0  0  0  0
  -31.0990  -13.0106   21.3060 C   0  0  0  0  0  0  0  0  0  0  0  0
  -19.5340  -25.3269   23.3124 C   0  0  0  0  0  0  0  0  0  0  0  0
  -25.6202  -22.5372   26.1825 C   0  0  0  0  0  0  0  0  0  0  0  0
  -24.4237  -20.0366   26.7252 C   0  0  0  0  0  0  0  0  0  0  0  0
  -29.4969  -15.5389   29.7797 C   0  0  0  0  0  0  0  0  0  0  0  0
  -30.4313  -15.5366   27.5149 C   0  0  0  0  0  0  0  0  0  0  0  0
  -19.7240  -23.9590   23.9628 C   0  0  0  0  0  0  0  0  0  0  0  0
  -29.4151  -13.7946   18.2684 C   0  0  0  0  0  0  0  0  0  0  0  0
  -20.1868  -24.1147   25.4080 C   0  0  0  0  0  0  0  0  0  0  0  0
  -27.9535  -13.4513   18.5651 C   0  0  0  0  0  0  0  0  0  0  0  0
  -29.7897  -14.1097   29.3582 C   0  0  0  0  0  0  0  0  0  0  0  0
  -30.3753  -12.8124   18.9370 C   0  0  0  0  0  0  0  0  0  0  0  0
  -28.7118  -12.2886   20.6770 C   0  0  0  0  0  0  0  0  0  0  0  0
  -21.5408  -24.8310   25.4795 C   0  0  1  0  0  0  0  0  0  0  0  0
  -24.2884  -22.2101   25.4835 C   0  0  1  0  0  0  0  0  0  0  0  0
  -27.7089  -13.2881   20.0781 C   0  0  2  0  0  0  0  0  0  0  0  0
  -19.9663  -16.3753   22.0262 C   0  0  0  0  0  0  0  0  0  0  0  0
  -22.7931  -18.9425   27.4382 C   0  0  0  0  0  0  0  0  0  0  0  0
  -21.4925  -17.0878   26.3718 C   0  0  0  0  0  0  0  0  0  0  0  0
  -20.5548  -19.3989   26.4202 C   0  0  0  0  0  0  0  0  0  0  0  0
  -22.4335  -18.3623   19.9189 C   0  0  0  0  0  0  0  0  0  0  0  0
  -22.4870  -18.8774   24.8753 C   0  0  1  0  0  0  0  0  0  0  0  0
  -20.8988  -17.5334   21.7066 C   0  0  2  0  0  0  0  0  0  0  0  0
  -21.8575  -18.5840   26.2664 C   0  0  0  0  0  0  0  0  0  0  0  0
  -25.9571  -11.5984   20.4747 N   0  0  0  0  0  0  0  0  0  0  0  0
  -26.2726  -12.9010   20.3769 N   0  0  0  0  0  0  0  0  0  0  0  0
  -30.5230  -14.2035   28.1042 N   0  0  0  0  0  0  0  0  0  0  0  0
  -23.8189  -20.8228   25.6386 N   0  0  0  0  0  0  0  0  0  0  0  0
  -30.0867  -12.7125   20.3693 N   0  0  0  0  0  0  0  0  0  0  0  0
  -25.3556  -15.0813   20.5042 N   0  0  0  0  0  0  0  0  0  0  0  0
  -21.9256  -13.5479   19.9763 N   0  0  0  0  0  0  0  0  0  0  0  0
  -30.6988  -12.9126   22.6382 N   0  0  0  0  0  0  0  0  0  0  0  0
  -22.6130  -23.9202   25.1402 N   0  0  0  0  0  0  0  0  0  0  0  0
  -21.6130  -18.5728   23.7476 N   0  0  0  0  0  0  0  0  0  0  0  0
  -21.5107  -17.2890   20.3699 N   0  3  0  0  0  0  0  0  0  0  0  0
  -31.1800  -11.9732   28.0539 O   0  0  0  0  0  0  0  0  0  0  0  0
  -22.3814  -13.6231   22.2225 O   0  0  0  0  0  0  0  0  0  0  0  0
  -22.9047  -22.9596   27.2413 O   0  0  0  0  0  0  0  0  0  0  0  0
  -22.3886  -20.9929   23.8121 O   0  0  0  0  0  0  0  0  0  0  0  0
  -23.0406  -17.0617   22.7202 O   0  0  0  0  0  0  0  0  0  0  0  0
  -32.2294  -13.3556   20.9521 O   0  0  0  0  0  0  0  0  0  0  0  0
  -21.8361   -6.8389   21.4296 O   0  0  0  0  0  0  0  0  0  0  0  0
  -28.8990  -17.9908   26.9626 O   0  0  0  0  0  0  0  0  0  1  0  0
  -20.4149   -5.4169   26.5640 F   0  0  0  0  0  0  0  0  0  0  0  0
  -34.8841  -14.1208   24.6610 F   0  0  0  0  0  0  0  0  0  0  0  0
  -20.2078   -8.4719   22.9544 F   0  0  0  0  0  0  0  0  0  0  0  0
  1  2  1  0  0  0  0
  1  5  2  0  0  0  0
  2  6  2  0  0  0  0
  3  8  2  0  0  0  0
  3 18  1  0  0  0  0
  4  9  1  0  0  0  0
  4 18  2  0  0  0  0
  5 21  1  0  0  0  0
  6 23  1  0  0  0  0
  7 10  2  0  0  0  0
  7 22  1  0  0  0  0
  8 26  1  0  0  0  0
  9 26  2  0  0  0  0
 10 27  1  0  0  0  0
 11 12  2  0  0  0  0
 11 28  1  0  0  0  0
 12 29  1  0  0  0  0
 13 19  2  0  0  0  0
 13 25  1  0  0  0  0
 14 19  1  0  0  0  0
 14 30  2  0  0  0  0
 15 24  1  0  0  0  0
 15 27  2  0  0  0  0
 16 25  2  0  0  0  0
 16 30  1  0  0  0  0
 17 29  2  0  0  0  0
 17 31  1  0  0  0  0
 18 32  1  0  0  0  0
 19 36  1  0  0  0  0
 20 32  1  0  0  0  0
 20 33  2  0  0  0  0
 20 37  1  0  0  0  0
 21 23  2  0  0  0  0
 21 42  1  0  0  0  0
 22 24  2  0  0  0  0
 22 43  1  0  0  0  0
 23 54  1  0  0  0  0
 24 44  1  0  0  0  0
 25 72  1  0  0  0  0
 26 82  1  0  0  0  0
 27 83  1  0  0  0  0
 28 31  2  0  0  0  0
 28 82  1  0  0  0  0
 29 84  1  0  0  0  0
 30 85  1  0  0  0  0
 31 86  1  0  0  0  0
 32 65  2  0  0  0  0
 33 66  1  0  0  0  0
 33 70  1  0  0  0  0
 34 35  2  0  0  0  0
 34 45  1  0  0  0  0
 34 46  1  0  0  0  0
 35 83  1  0  0  0  0
 36 67  1  0  0  0  0
 36 76  2  0  0  0  0
 37 71  1  0  0  0  0
 37 77  2  0  0  0  0
 38 55  1  0  0  0  0
 38 73  1  0  0  0  0
 38 78  2  0  0  0  0
 39 62  1  0  0  0  0
 39 68  1  0  0  0  0
 39 79  2  0  0  0  0
 40 63  1  0  0  0  0
 40 74  1  0  0  0  0
 40 80  2  0  0  0  0
 41 69  1  0  0  0  0
 41 72  1  0  0  0  0
 41 81  2  0  0  0  0
 42 47  1  0  0  0  0
 43 55  1  0  0  0  0
 44 68  1  0  0  0  0
 45 51  1  0  0  0  0
 46 67  1  0  0  0  0
 47 49  1  0  0  0  0
 48 50  1  0  0  0  0
 48 52  1  0  0  0  0
 49 54  1  0  0  0  0
 50 56  1  0  0  0  0
 51 67  1  0  0  0  0
 52 69  1  0  0  0  0
 53 56  1  0  0  0  0
 53 69  1  0  0  0  0
 54 73  1  0  0  0  0
 55 68  1  0  0  0  0
 56 66  1  0  0  0  0
 57 63  1  0  0  0  0
 58 64  1  0  0  0  0
 59 64  1  0  0  0  0
 60 64  1  0  0  0  0
 61 75  1  0  0  0  0
 62 64  1  0  0  0  0
 62 74  1  0  0  0  0
 63 75  1  0  0  0  0
 65 66  1  0  0  0  0
M  CHG  1  75   1
M  ISO  4  35 101  41 100  72 100  83 101
M  END
> <Batch ID>
0097

> <Smiles>
CNC(C)C(=O)NC(C(=O)N1Cc2cc([101O:1][101CH:1]=C3CCN(C(=O)c4cc(F)cc([100NH:0][100C:0](=O)N5CCCC(n6nc(-c7ccc(Oc8ccc(F)cc8F)cc7)c(C(N)=O)c6N)C5)c4)C3)ccc2CC1C(=O)NC1CCCc2ccccc21)C(C)(C)C

> <Shape>
0.173

> <Color>
0.147

> <Negative vol penalty>
0.000

$$$$

  -OEChem-04052300493D

 86 94  0     1  0  0  0  0  0999 V2000
  -33.5478  -19.7799   17.2054 C   0  0  0  0  0  0  0  0  0  0  0  0
  -32.6121  -20.0626   16.2167 C   0  0  0  0  0  0  0  0  0  0  0  0
  -23.2896   -9.7946   19.9060 C   0  0  0  0  0  0  0  0  0  0  0  0
  -23.7156   -9.9357   22.2800 C   0  0  0  0  0  0  0  0  0  0  0  0
  -26.8293  -17.0383   15.9501 C   0  0  0  0  0  0  0  0  0  0  0  0
  -33.7823  -20.7031   18.2222 C   0  0  0  0  0  0  0  0  0  0  0  0
  -31.9192  -21.2735   16.2379 C   0  0  0  0  0  0  0  0  0  0  0  0
  -29.0551  -22.2775   12.3659 C   0  0  0  0  0  0  0  0  0  0  0  0
  -22.5570   -8.6248   20.1069 C   0  0  0  0  0  0  0  0  0  0  0  0
  -22.9829   -8.7659   22.4809 C   0  0  0  0  0  0  0  0  0  0  0  0
  -25.7056  -17.7515   15.5326 C   0  0  0  0  0  0  0  0  0  0  0  0
  -27.8511  -21.6162   12.1274 C   0  0  0  0  0  0  0  0  0  0  0  0
  -19.7305   -7.8664   22.6643 C   0  0  0  0  0  0  0  0  0  0  0  0
  -18.8168   -7.8488   23.7180 C   0  0  0  0  0  0  0  0  0  0  0  0
  -28.0550  -19.1069   16.1851 C   0  0  0  0  0  0  0  0  0  0  0  0
  -26.6410  -23.5425   12.9300 C   0  0  0  0  0  0  0  0  0  0  0  0
  -20.0054   -5.9982   24.7178 C   0  0  0  0  0  0  0  0  0  0  0  0
  -23.8690  -10.4500   20.9925 C   0  0  0  0  0  0  0  0  0  0  0  0
  -28.0040  -17.7160   16.2764 C   0  0  0  0  0  0  0  0  0  0  0  0
  -24.1394  -12.9789   20.7947 C   0  0  0  0  0  0  0  0  0  0  0  0
  -33.0825  -21.9203   18.2620 C   0  0  0  0  0  0  0  0  0  0  0  0
  -29.0613  -23.5744   12.8994 C   0  0  0  0  0  0  0  0  0  0  0  0
  -32.1591  -22.2285   17.2424 C   0  0  0  0  0  0  0  0  0  0  0  0
  -27.8463  -24.2191   13.1720 C   0  0  0  0  0  0  0  0  0  0  0  0
  -22.4036   -8.1105   21.3944 C   0  0  0  0  0  0  0  0  0  0  0  0
  -26.6439  -22.2476   12.4121 C   0  0  0  0  0  0  0  0  0  0  0  0
  -25.7567  -19.1424   15.4413 C   0  0  0  0  0  0  0  0  0  0  0  0
  -20.7817   -6.9499   22.6373 C   0  0  0  0  0  0  0  0  0  0  0  0
  -26.9314  -19.8202   15.7676 C   0  0  0  0  0  0  0  0  0  0  0  0
  -18.9542   -6.9147   24.7448 C   0  0  0  0  0  0  0  0  0  0  0  0
  -20.9191   -6.0158   23.6640 C   0  0  0  0  0  0  0  0  0  0  0  0
  -24.6264  -11.6581   20.7855 C   0  0  0  0  0  0  0  0  0  0  0  0
  -25.2463  -13.7548   20.5508 C   0  0  0  0  0  0  0  0  0  0  0  0
  -29.1999  -16.9564   16.7231 C   0  0  0  0  0  0  0  0  0  0  0  0
  -22.8057  -13.4614   21.0048 C   0  0  0  0  0  0  0  0  0  0  0  0
  -30.1799  -24.8984   15.5639 C   0  0  0  0  0  0  0  0  0  0  0  0
  -29.2384  -27.6507   14.1283 C   0  0  0  0  0  0  0  0  0  0  0  0
  -27.2137  -29.1835   11.8484 C   0  0  0  0  0  0  0  0  0  0  0  0
  -29.9235  -14.8427   17.7873 C   0  0  0  0  0  0  0  0  0  0  0  0
  -33.3813  -22.8867   19.3811 C   0  0  0  0  0  0  0  0  0  0  0  0
  -30.3679  -24.2842   13.1260 C   0  0  0  0  0  0  0  0  0  0  0  0
  -27.7981  -25.6185   13.7268 C   0  0  0  0  0  0  0  0  0  0  0  0
  -32.2897  -23.9354   19.5682 C   0  0  0  0  0  0  0  0  0  0  0  0
  -30.1646  -12.5479   20.4655 C   0  0  0  0  0  0  0  0  0  0  0  0
  -31.9436  -24.5699   18.2295 C   0  0  0  0  0  0  0  0  0  0  0  0
  -28.7051  -12.2243   20.7962 C   0  0  0  0  0  0  0  0  0  0  0  0
  -30.3835  -12.7085   18.9617 C   0  0  0  0  0  0  0  0  0  0  0  0
  -28.0255  -13.3303   18.6285 C   0  0  0  0  0  0  0  0  0  0  0  0
  -31.3713  -23.5260   17.2621 C   0  0  1  0  0  0  0  0  0  0  0  0
  -30.2672  -25.4078   14.1530 C   0  0  1  0  0  0  0  0  0  0  0  0
  -27.7393  -13.2284   20.1355 C   0  0  1  0  0  0  0  0  0  0  0  0
  -26.6362  -23.2529   16.8258 C   0  0  0  0  0  0  0  0  0  0  0  0
  -26.6453  -31.4472   10.9265 C   0  0  0  0  0  0  0  0  0  0  0  0
  -27.6476  -28.2777   16.6554 C   0  0  0  0  0  0  0  0  0  0  0  0
  -26.3861  -30.0017   15.3497 C   0  0  0  0  0  0  0  0  0  0  0  0
  -28.8494  -30.2353   15.6666 C   0  0  0  0  0  0  0  0  0  0  0  0
  -28.0498  -28.4092    9.1170 C   0  0  0  0  0  0  0  0  0  0  0  0
  -23.4362  -20.7417   13.1569 C   0  0  0  0  0  0  0  0  0  0  0  0
  -27.2886  -21.8882   16.8862 C   0  0  0  0  0  0  0  0  0  0  0  0
  -24.3678  -21.9366   13.0276 C   0  0  0  0  0  0  0  0  0  1  0  0
  -24.1455  -19.5272   13.7349 C   0  0  0  0  0  0  0  0  0  0  0  0
  -27.9642  -28.4598   14.0995 C   0  0  1  0  0  0  0  0  0  0  0  0
  -27.5090  -30.2059   10.7658 C   0  0  2  0  0  0  0  0  0  0  0  0
  -27.7124  -29.2165   15.4342 C   0  0  0  0  0  0  0  0  0  0  0  0
  -25.9404  -11.5947   20.5541 N   0  0  0  0  0  0  0  0  0  0  0  0
  -26.2883  -12.8853   20.4154 N   0  0  0  0  0  0  0  0  0  0  0  0
  -29.1023  -26.2684   13.9369 N   0  0  0  0  0  0  0  0  0  0  0  0
  -29.4372  -13.6824   18.4145 N   0  0  0  0  0  0  0  0  0  0  0  0
  -25.4201  -15.0890   20.4411 N   0  0  0  0  0  0  0  0  0  0  0  0
  -21.7873  -12.5283   21.2422 N   0  0  0  0  0  0  0  0  0  0  0  0
  -28.9403  -15.7304   17.3362 N   0  0  0  0  0  0  0  0  0  0  0  0
  -31.2526  -24.1161   15.9470 N   0  0  0  0  0  0  0  0  0  0  0  0
  -28.0574  -29.3265   12.9296 N   0  0  0  0  0  0  0  0  0  0  0  0
  -27.2491  -29.6236    9.4188 N   0  3  0  0  0  0  0  0  0  0  0  0
  -30.3171  -17.4147   16.5001 O   0  0  0  0  0  0  0  0  0  0  0  0
  -22.5225  -14.6828   20.9665 O   0  0  0  0  0  0  0  0  0  0  0  0
  -29.2118  -25.1945   16.2543 O   0  0  0  0  0  0  0  0  0  0  0  0
  -30.3155  -28.2249   14.3067 O   0  0  0  0  0  0  0  0  0  0  0  0
  -26.3213  -28.3446   11.7468 O   0  0  0  0  0  0  0  0  0  0  0  0
  -31.1289  -15.0861   17.6726 O   0  0  0  0  0  0  0  0  0  0  0  0
  -21.6885   -6.9692   21.5908 O   0  0  0  0  0  0  0  0  0  0  0  0
  -25.4673  -21.6041   12.1808 O   0  0  0  0  0  0  0  0  0  1  0  0
  -24.6457  -19.8317   15.0298 O   0  0  0  0  0  0  0  0  0  0  0  0
  -26.9932  -21.1785   15.6849 O   0  0  0  0  0  0  0  0  0  0  0  0
  -18.0776   -6.8989   25.7574 F   0  0  0  0  0  0  0  0  0  0  0  0
  -21.9276   -5.1336   23.6442 F   0  0  0  0  0  0  0  0  0  0  0  0
  1  2  1  0  0  0  0
  1  6  2  0  0  0  0
  2  7  2  0  0  0  0
  3  9  2  0  0  0  0
  3 18  1  0  0  0  0
  4 10  1  0  0  0  0
  4 18  2  0  0  0  0
  5 11  2  0  0  0  0
  5 19  1  0  0  0  0
  6 21  1  0  0  0  0
  7 23  1  0  0  0  0
  8 12  2  0  0  0  0
  8 22  1  0  0  0  0
  9 25  1  0  0  0  0
 10 25  2  0  0  0  0
 11 27  1  0  0  0  0
 12 26  1  0  0  0  0
 13 14  2  0  0  0  0
 13 28  1  0  0  0  0
 14 30  1  0  0  0  0
 15 19  2  0  0  0  0
 15 29  1  0  0  0  0
 16 24  1  0  0  0  0
 16 26  2  0  0  0  0
 17 30  2  0  0  0  0
 17 31  1  0  0  0  0
 18 32  1  0  0  0  0
 19 34  1  0  0  0  0
 20 32  1  0  0  0  0
 20 33  2  0  0  0  0
 20 35  1  0  0  0  0
 21 23  2  0  0  0  0
 21 40  1  0  0  0  0
 22 24  2  0  0  0  0
 22 41  1  0  0  0  0
 23 49  1  0  0  0  0
 24 42  1  0  0  0  0
 25 81  1  0  0  0  0
 26 82  1  0  0  0  0
 27 29  2  0  0  0  0
 27 83  1  0  0  0  0
 28 31  2  0  0  0  0
 28 81  1  0  0  0  0
 29 84  1  0  0  0  0
 30 85  1  0  0  0  0
 31 86  1  0  0  0  0
 32 65  2  0  0  0  0
 33 66  1  0  0  0  0
 33 69  1  0  0  0  0
 34 71  1  0  0  0  0
 34 75  2  0  0  0  0
 35 70  1  0  0  0  0
 35 76  2  0  0  0  0
 36 50  1  0  0  0  0
 36 72  1  0  0  0  0
 36 77  2  0  0  0  0
 37 62  1  0  0  0  0
 37 67  1  0  0  0  0
 37 78  2  0  0  0  0
 38 63  1  0  0  0  0
 38 73  1  0  0  0  0
 38 79  2  0  0  0  0
 39 68  1  0  0  0  0
 39 71  1  0  0  0  0
 39 80  2  0  0  0  0
 40 43  1  0  0  0  0
 41 50  1  0  0  0  0
 42 67  1  0  0  0  0
 43 45  1  0  0  0  0
 44 46  1  0  0  0  0
 44 47  1  0  0  0  0
 45 49  1  0  0  0  0
 46 51  1  0  0  0  0
 47 68  1  0  0  0  0
 48 51  1  0  0  0  0
 48 68  1  0  0  0  0
 49 72  1  0  0  0  0
 50 67  1  0  0  0  0
 51 66  1  0  0  0  0
 52 59  1  0  0  0  0
 53 63  1  0  0  0  0
 54 64  1  0  0  0  0
 55 64  1  0  0  0  0
 56 64  1  0  0  0  0
 57 74  1  0  0  0  0
 58 60  1  0  0  0  0
 58 61  1  0  0  0  0
 59 84  1  0  0  0  0
 60 82  1  0  0  0  0
 61 83  1  0  0  0  0
 62 64  1  0  0  0  0
 62 73  1  0  0  0  0
 63 74  1  0  0  0  0
 65 66  1  0  0  0  0
M  CHG  1  74   1
M  ISO  4  39 100  60 101  71 100  82 101
M  END
> <Batch ID>
0097

> <Smiles>
CCOc1cc(C(=O)[100NH:0][100C:0](=O)N2CCCC(n3nc(-c4ccc(Oc5ccc(F)cc5F)cc4)c(C(N)=O)c3N)C2)ccc1OCC[101CH2:1][101O:1]c1ccc2c(c1)CN(C(=O)C(NC(=O)C(C)NC)C(C)(C)C)C(C(=O)NC1CCCc3ccccc31)C2

> <Shape>
0.143

> <Color>
0.170

> <Negative vol penalty>
0.000

$$$$

  -OEChem-04052300493D

 87 96  0     1  0  0  0  0  0999 V2000
  -17.6468  -33.0764   21.3323 C   0  0  0  0  0  0  0  0  0  0  0  0
  -18.9967  -33.2451   21.6235 C   0  0  0  0  0  0  0  0  0  0  0  0
  -22.4737  -13.2809   19.4501 C   0  0  0  0  0  0  0  0  0  0  0  0
  -23.5769  -12.2834   21.3540 C   0  0  0  0  0  0  0  0  0  0  0  0
  -16.9837  -31.9232   21.7496 C   0  0  0  0  0  0  0  0  0  0  0  0
  -19.6840  -32.2611   22.3332 C   0  0  0  0  0  0  0  0  0  0  0  0
  -25.4733  -29.0235   19.5237 C   0  0  0  0  0  0  0  0  0  0  0  0
  -31.8080  -20.4543   22.3195 C   0  0  0  0  0  0  0  0  0  0  0  0
  -31.9288  -21.5848   21.5114 C   0  0  0  0  0  0  0  0  0  0  0  0
  -21.6080  -12.1895   19.3798 C   0  0  0  0  0  0  0  0  0  0  0  0
  -22.7112  -11.1919   21.2837 C   0  0  0  0  0  0  0  0  0  0  0  0
  -26.7122  -28.5080   19.1420 C   0  0  0  0  0  0  0  0  0  0  0  0
  -22.3897   -8.3824   19.4306 C   0  0  0  0  0  0  0  0  0  0  0  0
  -22.9432   -7.1076   19.5486 C   0  0  0  0  0  0  0  0  0  0  0  0
  -26.7658  -27.1349   21.1320 C   0  0  0  0  0  0  0  0  0  0  0  0
  -29.5779  -22.0526   21.8143 C   0  0  0  0  0  0  0  0  0  0  0  0
  -21.5798   -6.6963   21.5003 C   0  0  0  0  0  0  0  0  0  0  0  0
  -23.4581  -13.3279   20.4371 C   0  0  0  0  0  0  0  0  0  0  0  0
  -24.0058  -15.8048   20.7068 C   0  0  0  0  0  0  0  0  0  0  0  0
  -17.6655  -30.9201   22.4564 C   0  0  0  0  0  0  0  0  0  0  0  0
  -24.8682  -28.5848   20.7047 C   0  0  0  0  0  0  0  0  0  0  0  0
  -19.0290  -31.0939   22.7616 C   0  0  0  0  0  0  0  0  0  0  0  0
  -25.5193  -27.6385   21.5131 C   0  0  0  0  0  0  0  0  0  0  0  0
  -30.5721  -20.1229   22.8750 C   0  0  0  0  0  0  0  0  0  0  0  0
  -30.8138  -22.3839   21.2589 C   0  0  0  0  0  0  0  0  0  0  0  0
  -29.4571  -20.9220   22.6224 C   0  0  0  0  0  0  0  0  0  0  0  0
  -21.7267  -11.1450   20.2966 C   0  0  0  0  0  0  0  0  0  0  0  0
  -27.3569  -27.5662   19.9443 C   0  0  0  0  0  0  0  0  0  0  0  0
  -21.4312   -8.8142   20.3475 C   0  0  0  0  0  0  0  0  0  0  0  0
  -22.5383   -6.2645   20.5834 C   0  0  0  0  0  0  0  0  0  0  0  0
  -21.0263   -7.9712   21.3823 C   0  0  0  0  0  0  0  0  0  0  0  0
  -24.3530  -14.4548   20.5099 C   0  0  0  0  0  0  0  0  0  0  0  0
  -25.2058  -16.4728   20.6983 C   0  0  0  0  0  0  0  0  0  0  0  0
  -31.9928  -25.6540   19.9308 C   0  0  0  0  0  0  0  0  0  0  0  0
  -22.7139  -16.4016   20.8817 C   0  0  0  0  0  0  0  0  0  0  0  0
  -21.9171  -28.8027   23.0110 C   0  0  0  0  0  0  0  0  0  0  0  0
  -22.7118  -25.8437   22.8580 C   0  0  0  0  0  0  0  0  0  0  0  0
  -22.7732  -22.4331   22.8258 C   0  0  0  0  0  0  0  0  0  0  0  0
  -30.5444  -16.9085   22.2653 C   0  0  0  0  0  0  0  0  0  0  0  0
  -16.8948  -29.7124   22.9278 C   0  0  0  0  0  0  0  0  0  0  0  0
  -23.5632  -29.1583   21.1861 C   0  0  0  0  0  0  0  0  0  0  0  0
  -24.8467  -27.2215   22.7925 C   0  0  0  0  0  0  0  0  0  0  0  0
  -31.0802  -25.8589   18.7454 C   0  0  0  0  0  0  0  0  0  0  0  0
  -32.2090  -24.2350   20.4057 C   0  0  0  0  0  0  0  0  0  0  0  0
  -17.7864  -28.5473   23.3494 C   0  0  0  0  0  0  0  0  0  0  0  0
  -29.8385  -14.9032   19.4093 C   0  0  0  0  0  0  0  0  0  0  0  0
  -18.9174  -29.0384   24.2475 C   0  0  0  0  0  0  0  0  0  0  0  0
  -28.3214  -14.7141   19.4610 C   0  0  0  0  0  0  0  0  0  0  0  0
  -30.4545  -14.9084   20.8066 C   0  0  0  0  0  0  0  0  0  0  0  0
  -30.0703  -23.6147   19.2637 C   0  0  0  0  0  0  0  0  0  0  0  0
  -28.3354  -15.6847   21.7969 C   0  0  0  0  0  0  0  0  0  0  0  0
  -19.8150  -30.0377   23.5078 C   0  0  1  0  0  0  0  0  0  0  0  0
  -22.6812  -28.1261   21.9111 C   0  0  1  0  0  0  0  0  0  0  0  0
  -29.7777  -25.0820   18.9255 C   0  0  1  0  0  0  0  0  0  0  0  0
  -27.6621  -15.7287   20.4145 C   0  0  2  0  0  0  0  0  0  0  0  0
  -22.1384  -20.4384   24.2098 C   0  0  0  0  0  0  0  0  0  0  0  0
  -25.1197  -26.3355   24.6646 C   0  0  0  0  0  0  0  0  0  0  0  0
  -25.0036  -23.9315   25.3543 C   0  0  0  0  0  0  0  0  0  0  0  0
  -23.0937  -25.4606   25.8411 C   0  0  0  0  0  0  0  0  0  0  0  0
  -20.9159  -21.4371   20.7480 C   0  0  0  0  0  0  0  0  0  0  0  0
  -30.4714  -18.9061   23.7362 C   0  0  0  0  0  0  0  0  0  0  0  0
  -28.8714  -25.7324   19.9754 C   0  0  0  0  0  0  0  0  0  1  0  0
  -23.5094  -24.7153   23.4612 C   0  0  1  0  0  0  0  0  0  0  0  0
  -21.6975  -21.4032   23.1200 C   0  0  2  0  0  0  0  0  0  0  0  0
  -24.1842  -25.1178   24.8029 C   0  0  0  0  0  0  0  0  0  0  0  0
  -25.6706  -14.2742   20.3853 N   0  0  0  0  0  0  0  0  0  0  0  0
  -26.1617  -15.5195   20.5041 N   0  0  0  0  0  0  0  0  0  0  0  0
  -30.9352  -23.5172   20.4466 N   0  0  1  0  0  0  0  0  0  0  0  0
  -23.4074  -27.0221   22.5615 N   0  0  0  0  0  0  0  0  0  0  0  0
  -29.7855  -15.8930   21.6605 N   0  0  0  0  0  0  0  0  0  0  0  0
  -28.1985  -20.6020   23.1771 N   0  0  0  0  0  0  0  0  0  0  0  0
  -25.5261  -17.7767   20.8380 N   0  0  0  0  0  0  0  0  0  0  0  0
  -22.2060  -16.5262   22.1821 N   0  0  0  0  0  0  0  0  0  0  0  0
  -20.7107  -29.3429   22.6081 N   0  0  0  0  0  0  0  0  0  0  0  0
  -22.5970  -23.5819   23.5677 N   0  0  0  0  0  0  0  0  0  0  0  0
  -29.8315  -17.8037   23.0535 N   0  0  0  0  0  0  0  0  0  0  0  0
  -21.3848  -20.6160   21.8938 N   0  3  0  0  0  0  0  0  0  0  0  0
  -32.6232  -26.5929   20.4180 O   0  0  0  0  0  0  0  0  0  0  0  0
  -22.0231  -16.7972   19.9123 O   0  0  0  0  0  0  0  0  0  0  0  0
  -22.3857  -28.8318   24.1429 O   0  0  0  0  0  0  0  0  0  0  0  0
  -21.5035  -25.6893   22.6592 O   0  0  0  0  0  0  0  0  0  0  0  0
  -23.6813  -22.2366   22.0212 O   0  0  0  0  0  0  0  0  0  0  0  0
  -31.7658  -17.0130   22.1099 O   0  0  0  0  0  0  0  0  0  0  0  0
  -20.8820  -10.0799   20.2285 O   0  0  0  0  0  0  0  0  0  0  0  0
  -28.5640  -27.0636   19.5635 O   0  0  0  0  0  0  0  0  0  1  0  0
  -23.0688   -5.0397   20.6958 F   0  0  0  0  0  0  0  0  0  0  0  0
  -20.1050   -8.3800   22.2654 F   0  0  0  0  0  0  0  0  0  0  0  0
  1  2  1  0  0  0  0
  1  5  2  0  0  0  0
  2  6  2  0  0  0  0
  3 10  2  0  0  0  0
  3 18  1  0  0  0  0
  4 11  1  0  0  0  0
  4 18  2  0  0  0  0
  5 20  1  0  0  0  0
  6 22  1  0  0  0  0
  7 12  2  0  0  0  0
  7 21  1  0  0  0  0
  8  9  2  0  0  0  0
  8 24  1  0  0  0  0
  9 25  1  0  0  0  0
 10 27  1  0  0  0  0
 11 27  2  0  0  0  0
 12 28  1  0  0  0  0
 13 14  2  0  0  0  0
 13 29  1  0  0  0  0
 14 30  1  0  0  0  0
 15 23  1  0  0  0  0
 15 28  2  0  0  0  0
 16 25  2  0  0  0  0
 16 26  1  0  0  0  0
 17 30  2  0  0  0  0
 17 31  1  0  0  0  0
 18 32  1  0  0  0  0
 19 32  1  0  0  0  0
 19 33  2  0  0  0  0
 19 35  1  0  0  0  0
 20 22  2  0  0  0  0
 20 40  1  0  0  0  0
 21 23  2  0  0  0  0
 21 41  1  0  0  0  0
 22 52  1  0  0  0  0
 23 42  1  0  0  0  0
 24 26  2  0  0  0  0
 24 61  1  0  0  0  0
 25 68  1  0  0  0  0
 26 71  1  0  0  0  0
 27 84  1  0  0  0  0
 28 85  1  0  0  0  0
 29 31  2  0  0  0  0
 29 84  1  0  0  0  0
 30 86  1  0  0  0  0
 31 87  1  0  0  0  0
 32 66  2  0  0  0  0
 33 67  1  0  0  0  0
 33 72  1  0  0  0  0
 34 43  1  0  0  0  0
 34 44  1  0  0  0  0
 34 78  2  0  0  0  0
 35 73  1  0  0  0  0
 35 79  2  0  0  0  0
 36 53  1  0  0  0  0
 36 74  1  0  0  0  0
 36 80  2  0  0  0  0
 37 63  1  0  0  0  0
 37 69  1  0  0  0  0
 37 81  2  0  0  0  0
 38 64  1  0  0  0  0
 38 75  1  0  0  0  0
 38 82  2  0  0  0  0
 39 70  1  0  0  0  0
 39 76  1  0  0  0  0
 39 83  2  0  0  0  0
 40 45  1  0  0  0  0
 41 53  1  0  0  0  0
 42 69  1  0  0  0  0
 43 54  1  0  0  0  0
 44 68  1  0  0  0  0
 45 47  1  0  0  0  0
 46 48  1  0  0  0  0
 46 49  1  0  0  0  0
 47 52  1  0  0  0  0
 48 55  1  0  0  0  0
 49 70  1  0  0  0  0
 50 54  1  0  0  0  0
 50 68  1  0  0  0  0
 51 55  1  0  0  0  0
 51 70  1  0  0  0  0
 52 74  1  0  0  0  0
 53 69  1  0  0  0  0
 54 62  1  0  0  0  0
 55 67  1  0  0  0  0
 56 64  1  0  0  0  0
 57 65  1  0  0  0  0
 58 65  1  0  0  0  0
 59 65  1  0  0  0  0
 60 77  1  0  0  0  0
 61 76  1  0  0  0  0
 62 85  1  0  0  0  0
 63 65  1  0  0  0  0
 63 75  1  0  0  0  0
 64 77  1  0  0  0  0
 66 67  1  0  0  0  0
M  CHG  1  77   1
M  ISO  4  39 100  62 101  76 100  85 101
M  END
> <Batch ID>
0097

> <Smiles>
CNC(C)C(=O)NC(C(=O)N1Cc2cc([101O:1][101CH2:1]C3CC(=O)CN(c4ccc(C[100NH:0][100C:0](=O)N5CCCC(n6nc(-c7ccc(Oc8ccc(F)cc8F)cc7)c(C(N)=O)c6N)C5)c(N)c4)C3)ccc2CC1C(=O)NC1CCCc2ccccc21)C(C)(C)C

> <Shape>
0.231

> <Color>
0.062

> <Negative vol penalty>
0.000

$$$$

  -OEChem-04052300493D

 85 93  0     1  0  0  0  0  0999 V2000
  -28.9092  -26.7305   27.3980 C   0  0  0  0  0  0  0  0  0  0  0  0
  -28.8433  -26.4033   26.0474 C   0  0  0  0  0  0  0  0  0  0  0  0
  -24.3905  -10.2562   22.6227 C   0  0  0  0  0  0  0  0  0  0  0  0
  -24.4862  -11.8324   24.4512 C   0  0  0  0  0  0  0  0  0  0  0  0
  -27.7560  -26.6910   28.1807 C   0  0  0  0  0  0  0  0  0  0  0  0
  -27.6243  -26.0353   25.4790 C   0  0  0  0  0  0  0  0  0  0  0  0
  -26.8093  -28.2747   21.0107 C   0  0  0  0  0  0  0  0  0  0  0  0
  -23.9489   -9.2656   23.4997 C   0  0  0  0  0  0  0  0  0  0  0  0
  -24.0446  -10.8418   25.3283 C   0  0  0  0  0  0  0  0  0  0  0  0
  -27.4755  -27.7494   19.9044 C   0  0  0  0  0  0  0  0  0  0  0  0
  -21.0531   -8.3819   25.0051 C   0  0  0  0  0  0  0  0  0  0  0  0
  -19.9842   -7.5841   24.5968 C   0  0  0  0  0  0  0  0  0  0  0  0
  -27.7346  -20.1737   20.2451 C   0  0  0  0  0  0  0  0  0  0  0  0
  -25.4698  -26.5726   19.2628 C   0  0  0  0  0  0  0  0  0  0  0  0
  -30.0690  -19.9907   19.6504 C   0  0  0  0  0  0  0  0  0  0  0  0
  -21.3787   -5.6200   24.7836 C   0  0  0  0  0  0  0  0  0  0  0  0
  -24.6592  -11.5397   23.0984 C   0  0  0  0  0  0  0  0  0  0  0  0
  -27.7433  -21.5162   19.8665 C   0  0  0  0  0  0  0  0  0  0  0  0
  -24.3220  -13.4642   21.4582 C   0  0  0  0  0  0  0  0  0  0  0  0
  -26.5205  -26.3316   27.6194 C   0  0  0  0  0  0  0  0  0  0  0  0
  -25.4693  -27.9436   21.2579 C   0  0  0  0  0  0  0  0  0  0  0  0
  -26.4538  -25.9896   26.2553 C   0  0  0  0  0  0  0  0  0  0  0  0
  -24.7881  -27.0970   20.3716 C   0  0  0  0  0  0  0  0  0  0  0  0
  -28.8974  -19.4110   20.1371 C   0  0  0  0  0  0  0  0  0  0  0  0
  -30.0778  -21.3332   19.2717 C   0  0  0  0  0  0  0  0  0  0  0  0
  -23.7759   -9.5583   24.8525 C   0  0  0  0  0  0  0  0  0  0  0  0
  -26.8067  -26.8960   19.0318 C   0  0  0  0  0  0  0  0  0  0  0  0
  -22.2848   -7.7987   25.3026 C   0  0  0  0  0  0  0  0  0  0  0  0
  -28.9150  -22.0959   19.3798 C   0  0  0  0  0  0  0  0  0  0  0  0
  -20.1470   -6.2032   24.4861 C   0  0  0  0  0  0  0  0  0  0  0  0
  -22.4476   -6.4178   25.1919 C   0  0  0  0  0  0  0  0  0  0  0  0
  -25.1159  -12.5633   22.1930 C   0  0  0  0  0  0  0  0  0  0  0  0
  -25.2254  -14.2245   20.7566 C   0  0  0  0  0  0  0  0  0  0  0  0
  -26.5174  -22.2933   19.9884 C   0  0  0  0  0  0  0  0  0  0  0  0
  -22.8955  -13.6015   21.4140 C   0  0  0  0  0  0  0  0  0  0  0  0
  -23.9201  -26.4681   23.6088 C   0  0  0  0  0  0  0  0  0  0  0  0
  -21.2999  -27.3615   21.9179 C   0  0  0  0  0  0  0  0  0  0  0  0
  -19.9586  -28.2520   18.9088 C   0  0  0  0  0  0  0  0  0  0  0  0
  -29.9547  -17.1505   20.4815 C   0  0  0  0  0  0  0  0  0  0  0  0
  -25.3100  -26.2575   28.5160 C   0  0  0  0  0  0  0  0  0  0  0  0
  -24.7570  -28.5398   22.4410 C   0  0  0  0  0  0  0  0  0  0  0  0
  -23.3433  -26.7267   20.5811 C   0  0  0  0  0  0  0  0  0  0  0  0
  -23.9883  -26.2198   27.7531 C   0  0  0  0  0  0  0  0  0  0  0  0
  -30.2037  -13.6230   20.0665 C   0  0  0  0  0  0  0  0  0  0  0  0
  -24.0617  -25.2153   26.6075 C   0  0  0  0  0  0  0  0  0  0  0  0
  -28.8370  -13.1070   20.5223 C   0  0  0  0  0  0  0  0  0  0  0  0
  -30.6713  -14.8095   20.9075 C   0  0  0  0  0  0  0  0  0  0  0  0
  -28.3449  -15.4006   21.4625 C   0  0  0  0  0  0  0  0  0  0  0  0
  -25.1454  -25.6094   25.5967 C   0  0  1  0  0  0  0  0  0  0  0  0
  -23.5430  -27.7266   22.8795 C   0  0  1  0  0  0  0  0  0  0  0  0
  -27.8026  -14.2468   20.6033 C   0  0  2  0  0  0  0  0  0  0  0  0
  -25.2169  -21.5608   19.8383 C   0  0  0  0  0  0  0  0  0  0  0  0
  -17.7823  -28.8868   17.8325 C   0  0  0  0  0  0  0  0  0  0  0  0
  -20.4256  -24.4386   21.9675 C   0  0  0  0  0  0  0  0  0  0  0  0
  -18.8137  -24.9619   20.1246 C   0  0  0  0  0  0  0  0  0  0  0  0
  -18.5809  -26.0858   22.3395 C   0  0  0  0  0  0  0  0  0  0  0  0
  -20.9894  -30.9130   18.1243 C   0  0  0  0  0  0  0  0  0  0  0  0
  -29.2864  -24.9897   17.2236 C   0  0  0  0  0  0  0  0  0  0  0  0
  -28.8614  -26.1755   18.0753 C   0  0  0  0  0  0  0  0  0  1  0  0
  -28.5999  -23.7036   17.6559 C   0  0  0  0  0  0  0  0  0  0  0  0
  -20.4820  -26.7452   20.8088 C   0  0  1  0  0  0  0  0  0  0  0  0
  -19.0432  -29.3965   18.5131 C   0  0  2  0  0  0  0  0  0  0  0  0
  -19.6033  -25.5631   21.3069 C   0  0  0  0  0  0  0  0  0  0  0  0
  -26.4230  -12.7340   21.9780 N   0  0  0  0  0  0  0  0  0  0  0  0
  -26.4575  -13.7510   21.1002 N   0  0  0  0  0  0  0  0  0  0  0  0
  -22.6922  -27.3302   21.7556 N   0  0  0  0  0  0  0  0  0  0  0  0
  -29.6425  -15.8515   20.9353 N   0  0  0  0  0  0  0  0  0  0  0  0
  -31.2721  -21.9069   18.7827 N   0  0  0  0  0  0  0  0  0  0  0  0
  -25.0781  -15.2452   19.8855 N   0  0  0  0  0  0  0  0  0  0  0  0
  -22.1166  -12.7390   22.1973 N   0  0  0  0  0  0  0  0  0  0  0  0
  -28.8884  -18.0481   20.5246 N   0  0  0  0  0  0  0  0  0  0  0  0
  -24.6765  -26.6816   24.7453 N   0  0  0  0  0  0  0  0  0  0  0  0
  -19.7272  -27.8369   20.2031 N   0  0  0  0  0  0  0  0  0  0  0  0
  -19.7432  -30.3192   17.5753 N   0  3  0  0  0  0  0  0  0  0  0  0
  -26.4702  -23.5055   20.2003 O   0  0  0  0  0  0  0  0  0  0  0  0
  -22.3278  -14.4528   20.6883 O   0  0  0  0  0  0  0  0  0  0  0  0
  -23.5507  -25.3838   23.1734 O   0  0  0  0  0  0  0  0  0  0  0  0
  -20.7245  -27.8589   22.8890 O   0  0  0  0  0  0  0  0  0  0  0  0
  -20.7928  -27.7716   18.1447 O   0  0  0  0  0  0  0  0  0  0  0  0
  -31.0774  -17.4377   20.0585 O   0  0  0  0  0  0  0  0  0  0  0  0
  -23.3448   -8.5920   25.7085 O   0  0  0  0  0  0  0  0  0  0  0  0
  -27.4548  -26.3814   17.9515 O   0  0  0  0  0  0  0  0  0  1  0  0
  -28.9234  -23.4155   19.0095 O   0  0  0  0  0  0  0  0  0  0  0  0
  -19.1200   -5.4371   24.0955 F   0  0  0  0  0  0  0  0  0  0  0  0
  -23.6282   -5.8517   25.4775 F   0  0  0  0  0  0  0  0  0  0  0  0
  1  2  1  0  0  0  0
  1  5  2  0  0  0  0
  2  6  2  0  0  0  0
  3  8  2  0  0  0  0
  3 17  1  0  0  0  0
  4  9  1  0  0  0  0
  4 17  2  0  0  0  0
  5 20  1  0  0  0  0
  6 22  1  0  0  0  0
  7 10  2  0  0  0  0
  7 21  1  0  0  0  0
  8 26  1  0  0  0  0
  9 26  2  0  0  0  0
 10 27  1  0  0  0  0
 11 12  2  0  0  0  0
 11 28  1  0  0  0  0
 12 30  1  0  0  0  0
 13 18  1  0  0  0  0
 13 24  2  0  0  0  0
 14 23  1  0  0  0  0
 14 27  2  0  0  0  0
 15 24  1  0  0  0  0
 15 25  2  0  0  0  0
 16 30  2  0  0  0  0
 16 31  1  0  0  0  0
 17 32  1  0  0  0  0
 18 29  2  0  0  0  0
 18 34  1  0  0  0  0
 19 32  1  0  0  0  0
 19 33  2  0  0  0  0
 19 35  1  0  0  0  0
 20 22  2  0  0  0  0
 20 40  1  0  0  0  0
 21 23  2  0  0  0  0
 21 41  1  0  0  0  0
 22 49  1  0  0  0  0
 23 42  1  0  0  0  0
 24 71  1  0  0  0  0
 25 29  1  0  0  0  0
 25 68  1  0  0  0  0
 26 81  1  0  0  0  0
 27 82  1  0  0  0  0
 28 31  2  0  0  0  0
 28 81  1  0  0  0  0
 29 83  1  0  0  0  0
 30 84  1  0  0  0  0
 31 85  1  0  0  0  0
 32 64  2  0  0  0  0
 33 65  1  0  0  0  0
 33 69  1  0  0  0  0
 34 52  1  0  0  0  0
 34 75  2  0  0  0  0
 35 70  1  0  0  0  0
 35 76  2  0  0  0  0
 36 50  1  0  0  0  0
 36 72  1  0  0  0  0
 36 77  2  0  0  0  0
 37 61  1  0  0  0  0
 37 66  1  0  0  0  0
 37 78  2  0  0  0  0
 38 62  1  0  0  0  0
 38 73  1  0  0  0  0
 38 79  2  0  0  0  0
 39 67  1  0  0  0  0
 39 71  1  0  0  0  0
 39 80  2  0  0  0  0
 40 43  1  0  0  0  0
 41 50  1  0  0  0  0
 42 66  1  0  0  0  0
 43 45  1  0  0  0  0
 44 46  1  0  0  0  0
 44 47  1  0  0  0  0
 45 49  1  0  0  0  0
 46 51  1  0  0  0  0
 47 67  1  0  0  0  0
 48 51  1  0  0  0  0
 48 67  1  0  0  0  0
 49 72  1  0  0  0  0
 50 66  1  0  0  0  0
 51 65  1  0  0  0  0
 53 62  1  0  0  0  0
 54 63  1  0  0  0  0
 55 63  1  0  0  0  0
 56 63  1  0  0  0  0
 57 74  1  0  0  0  0
 58 59  1  0  0  0  0
 58 60  1  0  0  0  0
 59 82  1  0  0  0  0
 60 83  1  0  0  0  0
 61 63  1  0  0  0  0
 61 73  1  0  0  0  0
 62 74  1  0  0  0  0
 64 65  1  0  0  0  0
M  CHG  1  74   1
M  ISO  4  39 100  59 101  71 100  82 101
M  END
> <Batch ID>
0097

> <Smiles>
CNC(C)C(=O)NC(C(=O)N1Cc2cc([101O:1][101CH2:1]CCOc3c(N)cc([100NH:0][100C:0](=O)N4CCCC(n5nc(-c6ccc(Oc7ccc(F)cc7F)cc6)c(C(N)=O)c5N)C4)cc3C(C)=O)ccc2CC1C(=O)NC1CCCc2ccccc21)C(C)(C)C

> <Shape>
0.233

> <Color>
0.105

> <Negative vol penalty>
0.000

$$$$

  -OEChem-04052300493D

 82 90  0     1  0  0  0  0  0999 V2000
  -24.6122  -34.0114   28.0639 C   0  0  0  0  0  0  0  0  0  0  0  0
  -25.4919  -33.1965   27.3586 C   0  0  0  0  0  0  0  0  0  0  0  0
  -24.2567   -9.1059   21.4812 C   0  0  0  0  0  0  0  0  0  0  0  0
  -24.7683  -10.3935   23.4604 C   0  0  0  0  0  0  0  0  0  0  0  0
  -23.2367  -33.8149   27.9481 C   0  0  0  0  0  0  0  0  0  0  0  0
  -24.9966  -32.1839   26.5377 C   0  0  0  0  0  0  0  0  0  0  0  0
  -27.3828  -30.2386   21.2437 C   0  0  0  0  0  0  0  0  0  0  0  0
  -30.2159  -18.8786   20.0778 C   0  0  0  0  0  0  0  0  0  0  0  0
  -23.9218   -8.0121   22.2793 C   0  0  0  0  0  0  0  0  0  0  0  0
  -24.4333   -9.2997   24.2585 C   0  0  0  0  0  0  0  0  0  0  0  0
  -28.1972  -29.1529   20.9246 C   0  0  0  0  0  0  0  0  0  0  0  0
  -30.3965  -20.2134   20.4399 C   0  0  0  0  0  0  0  0  0  0  0  0
  -21.2944   -7.0103   24.1570 C   0  0  0  0  0  0  0  0  0  0  0  0
  -20.1253   -6.3155   23.8470 C   0  0  0  0  0  0  0  0  0  0  0  0
  -26.2451  -27.8791   20.3032 C   0  0  0  0  0  0  0  0  0  0  0  0
  -28.0127  -20.4509   20.7535 C   0  0  0  0  0  0  0  0  0  0  0  0
  -21.4143   -4.3017   23.4998 C   0  0  0  0  0  0  0  0  0  0  0  0
  -24.6800  -10.2966   22.0717 C   0  0  0  0  0  0  0  0  0  0  0  0
  -24.1683  -12.4504   20.8040 C   0  0  0  0  0  0  0  0  0  0  0  0
  -22.7241  -32.8057   27.1179 C   0  0  0  0  0  0  0  0  0  0  0  0
  -25.9903  -30.1489   21.1050 C   0  0  0  0  0  0  0  0  0  0  0  0
  -23.6130  -31.9729   26.4117 C   0  0  0  0  0  0  0  0  0  0  0  0
  -25.4155  -28.9660   20.6188 C   0  0  0  0  0  0  0  0  0  0  0  0
  -28.9336  -18.3299   20.0534 C   0  0  0  0  0  0  0  0  0  0  0  0
  -24.0101   -8.1090   23.6679 C   0  0  0  0  0  0  0  0  0  0  0  0
  -27.6281  -27.9719   20.4571 C   0  0  0  0  0  0  0  0  0  0  0  0
  -29.2950  -20.9996   20.7778 C   0  0  0  0  0  0  0  0  0  0  0  0
  -22.5234   -6.3509   24.1383 C   0  0  0  0  0  0  0  0  0  0  0  0
  -20.1853   -4.9612   23.5185 C   0  0  0  0  0  0  0  0  0  0  0  0
  -27.8321  -19.1160   20.3913 C   0  0  0  0  0  0  0  0  0  0  0  0
  -22.5834   -4.9966   23.8098 C   0  0  0  0  0  0  0  0  0  0  0  0
  -25.0267  -11.4267   21.2478 C   0  0  0  0  0  0  0  0  0  0  0  0
  -24.9747  -13.2760   20.0594 C   0  0  0  0  0  0  0  0  0  0  0  0
  -22.7672  -12.6382   21.0434 C   0  0  0  0  0  0  0  0  0  0  0  0
  -23.5206  -30.3437   23.0966 C   0  0  0  0  0  0  0  0  0  0  0  0
  -21.7957  -30.1726   20.3547 C   0  0  0  0  0  0  0  0  0  0  0  0
  -21.6387  -29.2028   17.0865 C   0  0  0  0  0  0  0  0  0  0  0  0
  -29.7411  -16.0584   19.3221 C   0  0  0  0  0  0  0  0  0  0  0  0
  -21.2309  -32.6009   27.0614 C   0  0  0  0  0  0  0  0  0  0  0  0
  -25.1278  -31.3381   21.4281 C   0  0  0  0  0  0  0  0  0  0  0  0
  -23.9275  -28.8254   20.4328 C   0  0  0  0  0  0  0  0  0  0  0  0
  -20.7774  -31.7478   25.8795 C   0  0  0  0  0  0  0  0  0  0  0  0
  -29.7068  -12.6236   18.3850 C   0  0  0  0  0  0  0  0  0  0  0  0
  -21.6503  -30.5032   25.7534 C   0  0  0  0  0  0  0  0  0  0  0  0
  -28.4155  -12.0902   19.0097 C   0  0  0  0  0  0  0  0  0  0  0  0
  -30.3849  -13.6587   19.2809 C   0  0  0  0  0  0  0  0  0  0  0  0
  -28.2331  -14.2360   20.3323 C   0  0  0  0  0  0  0  0  0  0  0  0
  -23.1136  -30.8799   25.4919 C   0  0  1  0  0  0  0  0  0  0  0  0
  -23.6820  -30.9615   21.7365 C   0  0  1  0  0  0  0  0  0  0  0  0
  -27.4802  -13.2383   19.4372 C   0  0  2  0  0  0  0  0  0  0  0  0
  -20.0851  -29.1624   15.1161 C   0  0  0  0  0  0  0  0  0  0  0  0
  -20.2767  -27.8395   21.6034 C   0  0  0  0  0  0  0  0  0  0  0  0
  -19.4426  -27.2500   19.3175 C   0  0  0  0  0  0  0  0  0  0  0  0
  -18.8500  -29.4513   20.3303 C   0  0  0  0  0  0  0  0  0  0  0  0
  -23.4541  -30.8939   15.4731 C   0  0  0  0  0  0  0  0  0  0  0  0
  -28.9589  -24.6088   20.6297 C   0  0  0  0  0  0  0  0  0  0  0  0
  -27.8587  -25.6093   20.3123 C   0  0  0  0  0  0  0  0  0  1  0  0
  -28.4097  -23.2060   20.8371 C   0  0  0  0  0  0  0  0  0  0  0  0
  -21.2136  -29.0531   19.5260 C   0  0  1  0  0  0  0  0  0  0  0  0
  -21.1770  -29.9352   15.8395 C   0  0  2  0  0  0  0  0  0  0  0  0
  -19.9736  -28.4001   20.1995 C   0  0  0  0  0  0  0  0  0  0  0  0
  -26.2823  -11.5853   20.8207 N   0  0  0  0  0  0  0  0  0  0  0  0
  -26.2187  -12.7183   20.1006 N   0  0  0  0  0  0  0  0  0  0  0  0
  -23.1260  -30.0139   20.7684 N   0  0  0  0  0  0  0  0  0  0  0  0
  -29.4398  -14.7176   19.6419 N   0  0  0  0  0  0  0  0  0  0  0  0
  -24.7340  -14.4175   19.3799 N   0  0  0  0  0  0  0  0  0  0  0  0
  -22.0916  -11.6955   21.8304 N   0  0  0  0  0  0  0  0  0  0  0  0
  -28.7535  -16.9736   19.6850 N   0  0  0  0  0  0  0  0  0  0  0  0
  -23.2983  -31.2591   24.1075 N   0  0  0  0  0  0  0  0  0  0  0  0
  -20.9493  -29.6168   18.2066 N   0  0  0  0  0  0  0  0  0  0  0  0
  -22.3176  -30.1280   14.8999 N   0  3  0  0  0  0  0  0  0  0  0  0
  -22.1296  -13.6042   20.5598 O   0  0  0  0  0  0  0  0  0  0  0  0
  -23.5911  -29.1265   23.2195 O   0  0  0  0  0  0  0  0  0  0  0  0
  -21.0982  -31.1551   20.6191 O   0  0  0  0  0  0  0  0  0  0  0  0
  -22.5198  -28.3462   17.0680 O   0  0  0  0  0  0  0  0  0  0  0  0
  -30.7851  -16.3685   18.7427 O   0  0  0  0  0  0  0  0  0  0  0  0
  -23.6831   -7.0420   24.4471 O   0  0  0  0  0  0  0  0  0  0  0  0
  -28.4206  -26.9104   20.1455 O   0  0  0  0  0  0  0  0  0  1  0  0
  -29.4727  -22.3109   21.1348 O   0  0  0  0  0  0  0  0  0  0  0  0
  -19.0624   -4.2937   23.2223 F   0  0  0  0  0  0  0  0  0  0  0  0
  -26.5952  -18.5992   20.3709 F   0  0  0  0  0  0  0  0  0  0  0  0
  -23.7611   -4.3575   23.7913 F   0  0  0  0  0  0  0  0  0  0  0  0
  1  2  1  0  0  0  0
  1  5  2  0  0  0  0
  2  6  2  0  0  0  0
  3  9  2  0  0  0  0
  3 18  1  0  0  0  0
  4 10  1  0  0  0  0
  4 18  2  0  0  0  0
  5 20  1  0  0  0  0
  6 22  1  0  0  0  0
  7 11  2  0  0  0  0
  7 21  1  0  0  0  0
  8 12  2  0  0  0  0
  8 24  1  0  0  0  0
  9 25  1  0  0  0  0
 10 25  2  0  0  0  0
 11 26  1  0  0  0  0
 12 27  1  0  0  0  0
 13 14  2  0  0  0  0
 13 28  1  0  0  0  0
 14 29  1  0  0  0  0
 15 23  1  0  0  0  0
 15 26  2  0  0  0  0
 16 27  2  0  0  0  0
 16 30  1  0  0  0  0
 17 29  2  0  0  0  0
 17 31  1  0  0  0  0
 18 32  1  0  0  0  0
 19 32  1  0  0  0  0
 19 33  2  0  0  0  0
 19 34  1  0  0  0  0
 20 22  2  0  0  0  0
 20 39  1  0  0  0  0
 21 23  2  0  0  0  0
 21 40  1  0  0  0  0
 22 48  1  0  0  0  0
 23 41  1  0  0  0  0
 24 30  2  0  0  0  0
 24 68  1  0  0  0  0
 25 77  1  0  0  0  0
 26 78  1  0  0  0  0
 27 79  1  0  0  0  0
 28 31  2  0  0  0  0
 28 77  1  0  0  0  0
 29 80  1  0  0  0  0
 30 81  1  0  0  0  0
 31 82  1  0  0  0  0
 32 62  2  0  0  0  0
 33 63  1  0  0  0  0
 33 66  1  0  0  0  0
 34 67  1  0  0  0  0
 34 72  2  0  0  0  0
 35 49  1  0  0  0  0
 35 69  1  0  0  0  0
 35 73  2  0  0  0  0
 36 59  1  0  0  0  0
 36 64  1  0  0  0  0
 36 74  2  0  0  0  0
 37 60  1  0  0  0  0
 37 70  1  0  0  0  0
 37 75  2  0  0  0  0
 38 65  1  0  0  0  0
 38 68  1  0  0  0  0
 38 76  2  0  0  0  0
 39 42  1  0  0  0  0
 40 49  1  0  0  0  0
 41 64  1  0  0  0  0
 42 44  1  0  0  0  0
 43 45  1  0  0  0  0
 43 46  1  0  0  0  0
 44 48  1  0  0  0  0
 45 50  1  0  0  0  0
 46 65  1  0  0  0  0
 47 50  1  0  0  0  0
 47 65  1  0  0  0  0
 48 69  1  0  0  0  0
 49 64  1  0  0  0  0
 50 63  1  0  0  0  0
 51 60  1  0  0  0  0
 52 61  1  0  0  0  0
 53 61  1  0  0  0  0
 54 61  1  0  0  0  0
 55 71  1  0  0  0  0
 56 57  1  0  0  0  0
 56 58  1  0  0  0  0
 57 78  1  0  0  0  0
 58 79  1  0  0  0  0
 59 61  1  0  0  0  0
 59 70  1  0  0  0  0
 60 71  1  0  0  0  0
 62 63  1  0  0  0  0
M  CHG  1  71   1
M  ISO  4  38 100  57 101  68 100  78 101
M  END
> <Batch ID>
0097

> <Smiles>
CNC(C)C(=O)NC(C(=O)N1Cc2cc([101O:1][101CH2:1]CCOc3ccc([100NH:0][100C:0](=O)N4CCCC(n5nc(-c6ccc(Oc7ccc(F)cc7F)cc6)c(C(N)=O)c5N)C4)c(F)c3)ccc2CC1C(=O)NC1CCCc2ccccc21)C(C)(C)C

> <Shape>
0.303

> <Color>
0.145

> <Negative vol penalty>
0.000

$$$$

  -OEChem-04052300493D

 84 92  0     1  0  0  0  0  0999 V2000
  -18.5103  -31.4276   26.1391 C   0  0  0  0  0  0  0  0  0  0  0  0
  -19.7407  -30.8067   26.3289 C   0  0  0  0  0  0  0  0  0  0  0  0
  -28.0533  -17.5055   19.0793 C   0  0  0  0  0  0  0  0  0  0  0  0
  -29.1134  -17.3334   21.2435 C   0  0  0  0  0  0  0  0  0  0  0  0
  -17.7760  -31.1776   24.9806 C   0  0  0  0  0  0  0  0  0  0  0  0
  -20.2370  -29.9346   25.3607 C   0  0  0  0  0  0  0  0  0  0  0  0
  -25.1400  -30.7215   24.3673 C   0  0  0  0  0  0  0  0  0  0  0  0
  -28.1669  -16.1252   18.9138 C   0  0  0  0  0  0  0  0  0  0  0  0
  -29.2269  -15.9531   21.0780 C   0  0  0  0  0  0  0  0  0  0  0  0
  -26.0637  -30.2193   25.2829 C   0  0  0  0  0  0  0  0  0  0  0  0
  -31.2395  -13.7997   19.4218 C   0  0  0  0  0  0  0  0  0  0  0  0
  -32.4577  -13.2055   19.7515 C   0  0  0  0  0  0  0  0  0  0  0  0
  -26.4557  -28.3263   23.8398 C   0  0  0  0  0  0  0  0  0  0  0  0
  -33.7904  -26.5920   23.5297 C   0  0  0  0  0  0  0  0  0  0  0  0
  -32.6792  -24.8221   24.7418 C   0  0  0  0  0  0  0  0  0  0  0  0
  -31.3432  -11.8353   21.4000 C   0  0  0  0  0  0  0  0  0  0  0  0
  -28.5266  -18.1097   20.2441 C   0  0  0  0  0  0  0  0  0  0  0  0
  -27.3370  -20.2370   20.9969 C   0  0  0  0  0  0  0  0  0  0  0  0
  -18.2680  -30.3094   23.9933 C   0  0  0  0  0  0  0  0  0  0  0  0
  -24.8587  -30.0232   23.1843 C   0  0  0  0  0  0  0  0  0  0  0  0
  -19.5080  -29.6717   24.1885 C   0  0  0  0  0  0  0  0  0  0  0  0
  -25.5299  -28.8231   22.9097 C   0  0  0  0  0  0  0  0  0  0  0  0
  -33.5259  -25.2348   23.7131 C   0  0  0  0  0  0  0  0  0  0  0  0
  -33.2081  -27.5365   24.3751 C   0  0  0  0  0  0  0  0  0  0  0  0
  -32.0968  -25.7665   25.5872 C   0  0  0  0  0  0  0  0  0  0  0  0
  -28.7537  -15.3490   19.9132 C   0  0  0  0  0  0  0  0  0  0  0  0
  -26.7196  -29.0201   25.0206 C   0  0  0  0  0  0  0  0  0  0  0  0
  -30.0732  -13.4117   20.0812 C   0  0  0  0  0  0  0  0  0  0  0  0
  -32.3613  -27.1237   25.4038 C   0  0  0  0  0  0  0  0  0  0  0  0
  -32.5095  -12.2233   20.7405 C   0  0  0  0  0  0  0  0  0  0  0  0
  -30.1250  -12.4295   21.0703 C   0  0  0  0  0  0  0  0  0  0  0  0
  -28.4100  -19.5356   20.4153 C   0  0  0  0  0  0  0  0  0  0  0  0
  -27.7083  -21.5572   20.9210 C   0  0  0  0  0  0  0  0  0  0  0  0
  -26.1139  -19.7398   21.5560 C   0  0  0  0  0  0  0  0  0  0  0  0
  -22.2643  -28.6728   21.9395 C   0  0  0  0  0  0  0  0  0  0  0  0
  -24.1988  -28.2364   19.3724 C   0  0  0  0  0  0  0  0  0  0  0  0
  -27.3724  -27.9349   18.1543 C   0  0  0  0  0  0  0  0  0  0  0  0
  -33.0291  -24.2839   20.5970 C   0  0  0  0  0  0  0  0  0  0  0  0
  -17.4165  -30.0336   22.7793 C   0  0  0  0  0  0  0  0  0  0  0  0
  -23.8793  -30.5919   22.1944 C   0  0  0  0  0  0  0  0  0  0  0  0
  -25.2785  -28.0453   21.6447 C   0  0  0  0  0  0  0  0  0  0  0  0
  -18.1854  -29.3864   21.6303 C   0  0  0  0  0  0  0  0  0  0  0  0
  -30.3368  -24.5617   18.2838 C   0  0  0  0  0  0  0  0  0  0  0  0
  -19.0471  -28.2376   22.1448 C   0  0  0  0  0  0  0  0  0  0  0  0
  -29.4409  -23.3684   18.6202 C   0  0  0  0  0  0  0  0  0  0  0  0
  -31.8166  -24.2176   18.4378 C   0  0  0  0  0  0  0  0  0  0  0  0
  -31.2925  -22.4620   20.0861 C   0  0  0  0  0  0  0  0  0  0  0  0
  -20.0914  -28.7384   23.1498 C   0  0  1  0  0  0  0  0  0  0  0  0
  -23.2906  -29.5369   21.2628 C   0  0  1  0  0  0  0  0  0  0  0  0
  -29.7893  -22.7769   19.9994 C   0  0  2  0  0  0  0  0  0  0  0  0
  -33.5036  -28.9849   24.1625 C   0  0  0  0  0  0  0  0  0  0  0  0
  -29.2021  -27.7248   16.4497 C   0  0  0  0  0  0  0  0  0  0  0  0
  -23.4597  -25.2779   19.4759 C   0  0  0  0  0  0  0  0  0  0  0  0
  -25.4211  -24.8076   17.9927 C   0  0  0  0  0  0  0  0  0  0  0  0
  -23.5572  -26.2489   17.1733 C   0  0  0  0  0  0  0  0  0  0  0  0
  -27.6049  -30.8717   17.8717 C   0  0  0  0  0  0  0  0  0  0  0  0
  -34.1507  -24.2258   22.8101 C   0  0  0  0  0  0  0  0  0  0  0  0
  -29.7033  -28.9135   27.0695 C   0  0  0  0  0  0  0  0  0  0  0  0
  -28.3389  -29.4754   26.7018 C   0  0  0  0  0  0  0  0  0  1  0  0
  -30.5312  -28.5788   25.8387 C   0  0  0  0  0  0  0  0  0  0  0  0
  -25.1464  -27.1519   18.9200 C   0  0  1  0  0  0  0  0  0  0  0  0
  -28.0633  -28.5877   16.9707 C   0  0  2  0  0  0  0  0  0  0  0  0
  -24.3996  -25.8850   18.4153 C   0  0  0  0  0  0  0  0  0  0  0  0
  -29.3896  -20.3433   20.0003 N   0  0  0  0  0  0  0  0  0  0  0  0
  -28.9334  -21.5659   20.3215 N   0  0  0  0  0  0  0  0  0  0  0  0
  -24.3075  -28.6393   20.7110 N   0  0  0  0  0  0  0  0  0  0  0  0
  -32.0805  -23.6631   19.7678 N   0  0  0  0  0  0  0  0  0  0  0  0
  -31.2422  -25.3333   26.6248 N   0  0  0  0  0  0  0  0  0  0  0  0
  -27.1032  -22.6998   21.3091 N   0  0  0  0  0  0  0  0  0  0  0  0
  -25.8923  -18.3559   21.5537 N   0  0  0  0  0  0  0  0  0  0  0  0
  -21.1931  -29.3740   22.4595 N   0  0  0  0  0  0  0  0  0  0  0  0
  -26.0232  -27.7638   17.9274 N   0  0  0  0  0  0  0  0  0  0  0  0
  -33.2138  -23.6982   21.8434 N   0  0  0  0  0  0  0  0  0  0  0  0
  -28.6196  -29.9136   17.3624 N   0  3  0  0  0  0  0  0  0  0  0  0
  -25.2361  -20.5013   22.0283 O   0  0  0  0  0  0  0  0  0  0  0  0
  -22.4311  -27.4597   21.9850 O   0  0  0  0  0  0  0  0  0  0  0  0
  -23.3966  -28.7137   18.5660 O   0  0  0  0  0  0  0  0  0  0  0  0
  -27.9706  -27.6059   19.1763 O   0  0  0  0  0  0  0  0  0  0  0  0
  -33.6607  -25.2892   20.2541 O   0  0  0  0  0  0  0  0  0  0  0  0
  -28.8645  -14.0020   19.7522 O   0  0  0  0  0  0  0  0  0  0  0  0
  -27.6213  -28.5273   25.9128 O   0  0  0  0  0  0  0  0  0  1  0  0
  -31.7918  -28.0544   26.2334 O   0  0  0  0  0  0  0  0  0  0  0  0
  -33.6791  -11.6518   21.0560 F   0  0  0  0  0  0  0  0  0  0  0  0
  -29.0077  -12.0518   21.7064 F   0  0  0  0  0  0  0  0  0  0  0  0
  1  2  1  0  0  0  0
  1  5  2  0  0  0  0
  2  6  2  0  0  0  0
  3  8  2  0  0  0  0
  3 17  1  0  0  0  0
  4  9  1  0  0  0  0
  4 17  2  0  0  0  0
  5 19  1  0  0  0  0
  6 21  1  0  0  0  0
  7 10  2  0  0  0  0
  7 20  1  0  0  0  0
  8 26  1  0  0  0  0
  9 26  2  0  0  0  0
 10 27  1  0  0  0  0
 11 12  2  0  0  0  0
 11 28  1  0  0  0  0
 12 30  1  0  0  0  0
 13 22  1  0  0  0  0
 13 27  2  0  0  0  0
 14 23  1  0  0  0  0
 14 24  2  0  0  0  0
 15 23  2  0  0  0  0
 15 25  1  0  0  0  0
 16 30  2  0  0  0  0
 16 31  1  0  0  0  0
 17 32  1  0  0  0  0
 18 32  1  0  0  0  0
 18 33  2  0  0  0  0
 18 34  1  0  0  0  0
 19 21  2  0  0  0  0
 19 39  1  0  0  0  0
 20 22  2  0  0  0  0
 20 40  1  0  0  0  0
 21 48  1  0  0  0  0
 22 41  1  0  0  0  0
 23 57  1  0  0  0  0
 24 29  1  0  0  0  0
 24 51  1  0  0  0  0
 25 29  2  0  0  0  0
 25 68  1  0  0  0  0
 26 80  1  0  0  0  0
 27 81  1  0  0  0  0
 28 31  2  0  0  0  0
 28 80  1  0  0  0  0
 29 82  1  0  0  0  0
 30 83  1  0  0  0  0
 31 84  1  0  0  0  0
 32 64  2  0  0  0  0
 33 65  1  0  0  0  0
 33 69  1  0  0  0  0
 34 70  1  0  0  0  0
 34 75  2  0  0  0  0
 35 49  1  0  0  0  0
 35 71  1  0  0  0  0
 35 76  2  0  0  0  0
 36 61  1  0  0  0  0
 36 66  1  0  0  0  0
 36 77  2  0  0  0  0
 37 62  1  0  0  0  0
 37 72  1  0  0  0  0
 37 78  2  0  0  0  0
 38 67  1  0  0  0  0
 38 73  1  0  0  0  0
 38 79  2  0  0  0  0
 39 42  1  0  0  0  0
 40 49  1  0  0  0  0
 41 66  1  0  0  0  0
 42 44  1  0  0  0  0
 43 45  1  0  0  0  0
 43 46  1  0  0  0  0
 44 48  1  0  0  0  0
 45 50  1  0  0  0  0
 46 67  1  0  0  0  0
 47 50  1  0  0  0  0
 47 67  1  0  0  0  0
 48 71  1  0  0  0  0
 49 66  1  0  0  0  0
 50 65  1  0  0  0  0
 52 62  1  0  0  0  0
 53 63  1  0  0  0  0
 54 63  1  0  0  0  0
 55 63  1  0  0  0  0
 56 74  1  0  0  0  0
 57 73  1  0  0  0  0
 58 59  1  0  0  0  0
 58 60  1  0  0  0  0
 59 81  1  0  0  0  0
 60 82  1  0  0  0  0
 61 63  1  0  0  0  0
 61 72  1  0  0  0  0
 62 74  1  0  0  0  0
 64 65  1  0  0  0  0
M  CHG  1  74   1
M  ISO  4  38 100  59 101  73 100  81 101
M  END
> <Batch ID>
0097

> <Smiles>
CNC(C)C(=O)NC(C(=O)N1Cc2cc([101O:1][101CH2:1]CCOc3c(C)cc(C[100NH:0][100C:0](=O)N4CCCC(n5nc(-c6ccc(Oc7ccc(F)cc7F)cc6)c(C(N)=O)c5N)C4)cc3N)ccc2CC1C(=O)NC1CCCc2ccccc21)C(C)(C)C

> <Shape>
0.227

> <Color>
0.050

> <Negative vol penalty>
0.000

$$$$

  -OEChem-04052300493D

 85 94  0     1  0  0  0  0  0999 V2000
  -26.5984  -37.9543   18.2409 C   0  0  0  0  0  0  0  0  0  0  0  0
  -27.1516  -36.7149   17.9358 C   0  0  0  0  0  0  0  0  0  0  0  0
  -23.1354  -10.0859   20.5122 C   0  0  0  0  0  0  0  0  0  0  0  0
  -24.7756   -8.5455   21.3919 C   0  0  0  0  0  0  0  0  0  0  0  0
  -25.9644  -38.1506   19.4671 C   0  0  0  0  0  0  0  0  0  0  0  0
  -27.0722  -35.6713   18.8572 C   0  0  0  0  0  0  0  0  0  0  0  0
  -28.0095  -19.4265   22.6988 C   0  0  0  0  0  0  0  0  0  0  0  0
  -26.4836  -28.5391   19.1774 C   0  0  0  0  0  0  0  0  0  0  0  0
  -27.9230  -20.7759   22.3495 C   0  0  0  0  0  0  0  0  0  0  0  0
  -22.1951   -9.6051   21.4234 C   0  0  0  0  0  0  0  0  0  0  0  0
  -23.8354   -8.0648   22.3032 C   0  0  0  0  0  0  0  0  0  0  0  0
  -27.0988  -27.4328   19.7617 C   0  0  0  0  0  0  0  0  0  0  0  0
  -21.7630   -6.1810   24.6198 C   0  0  0  0  0  0  0  0  0  0  0  0
  -21.6661   -4.7991   24.7831 C   0  0  0  0  0  0  0  0  0  0  0  0
  -28.5775  -20.2733   20.0601 C   0  0  0  0  0  0  0  0  0  0  0  0
  -25.9103  -27.8644   21.8160 C   0  0  0  0  0  0  0  0  0  0  0  0
  -21.1042   -4.5622   22.4453 C   0  0  0  0  0  0  0  0  0  0  0  0
  -24.4256   -9.5560   20.4963 C   0  0  0  0  0  0  0  0  0  0  0  0
  -25.3067  -10.0322   18.1501 C   0  0  0  0  0  0  0  0  0  0  0  0
  -25.8687  -37.1061   20.4001 C   0  0  0  0  0  0  0  0  0  0  0  0
  -28.3913  -18.5200   21.7243 C   0  0  0  0  0  0  0  0  0  0  0  0
  -25.5839  -29.3241   19.9128 C   0  0  0  0  0  0  0  0  0  0  0  0
  -26.4376  -35.8542   20.0976 C   0  0  0  0  0  0  0  0  0  0  0  0
  -28.6725  -18.9392   20.4181 C   0  0  0  0  0  0  0  0  0  0  0  0
  -25.2831  -28.9787   21.2380 C   0  0  0  0  0  0  0  0  0  0  0  0
  -28.2051  -21.1962   21.0399 C   0  0  0  0  0  0  0  0  0  0  0  0
  -22.5451   -8.5946   22.3190 C   0  0  0  0  0  0  0  0  0  0  0  0
  -26.8143  -27.0969   21.0820 C   0  0  0  0  0  0  0  0  0  0  0  0
  -21.5305   -6.7535   23.3692 C   0  0  0  0  0  0  0  0  0  0  0  0
  -21.3367   -3.9897   23.6959 C   0  0  0  0  0  0  0  0  0  0  0  0
  -21.2012   -5.9441   22.2820 C   0  0  0  0  0  0  0  0  0  0  0  0
  -25.3972  -10.0518   19.5549 C   0  0  0  0  0  0  0  0  0  0  0  0
  -26.4743  -10.6156   17.7227 C   0  0  0  0  0  0  0  0  0  0  0  0
  -24.2606   -9.5315   17.3071 C   0  0  0  0  0  0  0  0  0  0  0  0
  -25.5045  -32.3596   20.8526 C   0  0  0  0  0  0  0  0  0  0  0  0
  -22.5324  -31.5584   21.8759 C   0  0  0  0  0  0  0  0  0  0  0  0
  -27.7463  -23.6182   21.5470 C   0  0  0  0  0  0  0  0  0  0  0  0
  -20.3760  -29.1118   22.8815 C   0  0  0  0  0  0  0  0  0  0  0  0
  -30.2503  -14.4691   20.0827 C   0  0  0  0  0  0  0  0  0  0  0  0
  -25.2154  -37.3797   21.7316 C   0  0  0  0  0  0  0  0  0  0  0  0
  -24.9084  -30.4987   19.2596 C   0  0  0  0  0  0  0  0  0  0  0  0
  -28.5158  -17.0327   21.8473 C   0  0  0  0  0  0  0  0  0  0  0  0
  -29.0114  -17.7719   19.5430 C   0  0  0  0  0  0  0  0  0  0  0  0
  -24.3090  -29.7770   22.0640 C   0  0  0  0  0  0  0  0  0  0  0  0
  -24.8451  -36.1137   22.5000 C   0  0  0  0  0  0  0  0  0  0  0  0
  -31.0303  -11.2692   18.9970 C   0  0  0  0  0  0  0  0  0  0  0  0
  -26.0065  -35.1248   22.4909 C   0  0  0  0  0  0  0  0  0  0  0  0
  -29.6718  -10.5797   18.8794 C   0  0  0  0  0  0  0  0  0  0  0  0
  -31.0898  -12.1461   20.2421 C   0  0  0  0  0  0  0  0  0  0  0  0
  -28.6428  -12.5067   20.1851 C   0  0  0  0  0  0  0  0  0  0  0  0
  -26.3500  -34.6904   21.0609 C   0  0  1  0  0  0  0  0  0  0  0  0
  -24.3997  -31.5292   20.2629 C   0  0  1  0  0  0  0  0  0  0  0  0
  -28.5262  -11.6052   18.9388 C   0  0  2  0  0  0  0  0  0  0  0  0
  -29.3591  -16.7085   20.6010 C   0  0  2  0  0  0  0  0  0  0  0  0
  -18.0258  -28.7682   23.6911 C   0  0  0  0  0  0  0  0  0  0  0  0
  -23.3227  -32.6351   24.6192 C   0  0  0  0  0  0  0  0  0  0  0  0
  -21.3539  -31.4260   25.5837 C   0  0  0  0  0  0  0  0  0  0  0  0
  -21.0036  -33.2277   23.8944 C   0  0  0  0  0  0  0  0  0  0  0  0
  -27.7629  -14.9274   19.9956 C   0  0  0  0  0  0  0  0  0  0  0  0
  -19.7107  -27.3816   20.5744 C   0  0  0  0  0  0  0  0  0  0  0  0
  -27.7627  -24.9352   20.7934 C   0  0  0  0  0  0  0  0  0  1  0  0
  -21.9556  -31.0049   23.1565 C   0  0  1  0  0  0  0  0  0  0  0  0
  -18.9449  -28.8031   22.4801 C   0  0  2  0  0  0  0  0  0  0  0  0
  -21.9288  -32.0593   24.2988 C   0  0  0  0  0  0  0  0  0  0  0  0
  -26.5327  -10.6038   19.9908 N   0  0  0  0  0  0  0  0  0  0  0  0
  -27.1664  -10.9364   18.8533 N   0  0  0  0  0  0  0  0  0  0  0  0
  -23.6792  -30.9201   21.3827 N   0  0  0  0  0  0  0  0  0  0  0  0
  -29.9844  -13.1043   20.2683 N   0  0  0  0  0  0  0  0  0  0  0  0
  -26.9663  -10.8804   16.4937 N   0  0  0  0  0  0  0  0  0  0  0  0
  -24.3179   -8.1933   16.8945 N   0  0  0  0  0  0  0  0  0  0  0  0
  -28.1050  -22.5683   20.7085 N   0  0  0  0  0  0  0  0  0  0  0  0
  -25.3954  -33.7113   20.5870 N   0  0  0  0  0  0  0  0  0  0  0  0
  -20.6456  -30.4623   22.8132 N   0  0  0  0  0  0  0  0  0  0  0  0
  -29.1569  -15.3473   20.1253 N   0  0  0  0  0  0  0  0  0  0  0  0
  -18.8724  -27.4806   21.7968 N   0  3  0  0  0  0  0  0  0  0  0  0
  -23.3121  -10.2540   16.9174 O   0  0  0  0  0  0  0  0  0  0  0  0
  -26.3894  -31.8145   21.5018 O   0  0  0  0  0  0  0  0  0  0  0  0
  -21.9813  -32.5172   21.3293 O   0  0  0  0  0  0  0  0  0  0  0  0
  -27.4469  -23.5616   22.7352 O   0  0  0  0  0  0  0  0  0  0  0  0
  -21.1738  -28.2423   23.2251 O   0  0  0  0  0  0  0  0  0  0  0  0
  -31.4021  -14.8825   19.8968 O   0  0  0  0  0  0  0  0  0  0  0  0
  -21.6280   -8.1254   23.2085 O   0  0  0  0  0  0  0  0  0  0  0  0
  -27.4139  -26.0180   21.6549 O   0  0  0  0  0  0  0  0  0  1  0  0
  -21.2451   -2.6626   23.8526 F   0  0  0  0  0  0  0  0  0  0  0  0
  -20.9779   -6.4882   21.0779 F   0  0  0  0  0  0  0  0  0  0  0  0
  1  2  1  0  0  0  0
  1  5  2  0  0  0  0
  2  6  2  0  0  0  0
  3 10  2  0  0  0  0
  3 18  1  0  0  0  0
  4 11  1  0  0  0  0
  4 18  2  0  0  0  0
  5 20  1  0  0  0  0
  6 23  1  0  0  0  0
  7  9  2  0  0  0  0
  7 21  1  0  0  0  0
  8 12  2  0  0  0  0
  8 22  1  0  0  0  0
  9 26  1  0  0  0  0
 10 27  1  0  0  0  0
 11 27  2  0  0  0  0
 12 28  1  0  0  0  0
 13 14  2  0  0  0  0
 13 29  1  0  0  0  0
 14 30  1  0  0  0  0
 15 24  1  0  0  0  0
 15 26  2  0  0  0  0
 16 25  1  0  0  0  0
 16 28  2  0  0  0  0
 17 30  2  0  0  0  0
 17 31  1  0  0  0  0
 18 32  1  0  0  0  0
 19 32  1  0  0  0  0
 19 33  2  0  0  0  0
 19 34  1  0  0  0  0
 20 23  2  0  0  0  0
 20 40  1  0  0  0  0
 21 24  2  0  0  0  0
 21 42  1  0  0  0  0
 22 25  2  0  0  0  0
 22 41  1  0  0  0  0
 23 51  1  0  0  0  0
 24 43  1  0  0  0  0
 25 44  1  0  0  0  0
 26 71  1  0  0  0  0
 27 82  1  0  0  0  0
 28 83  1  0  0  0  0
 29 31  2  0  0  0  0
 29 82  1  0  0  0  0
 30 84  1  0  0  0  0
 31 85  1  0  0  0  0
 32 65  2  0  0  0  0
 33 66  1  0  0  0  0
 33 69  1  0  0  0  0
 34 70  1  0  0  0  0
 34 76  2  0  0  0  0
 35 52  1  0  0  0  0
 35 72  1  0  0  0  0
 35 77  2  0  0  0  0
 36 62  1  0  0  0  0
 36 67  1  0  0  0  0
 36 78  2  0  0  0  0
 37 61  1  0  0  0  0
 37 71  1  0  0  0  0
 37 79  2  0  0  0  0
 38 63  1  0  0  0  0
 38 73  1  0  0  0  0
 38 80  2  0  0  0  0
 39 68  1  0  0  0  0
 39 74  1  0  0  0  0
 39 81  2  0  0  0  0
 40 45  1  0  0  0  0
 41 52  1  0  0  0  0
 42 54  1  0  0  0  0
 43 54  1  0  0  0  0
 44 67  1  0  0  0  0
 45 47  1  0  0  0  0
 46 48  1  0  0  0  0
 46 49  1  0  0  0  0
 47 51  1  0  0  0  0
 48 53  1  0  0  0  0
 49 68  1  0  0  0  0
 50 53  1  0  0  0  0
 50 68  1  0  0  0  0
 51 72  1  0  0  0  0
 52 67  1  0  0  0  0
 53 66  1  0  0  0  0
 54 74  1  0  0  0  0
 55 63  1  0  0  0  0
 56 64  1  0  0  0  0
 57 64  1  0  0  0  0
 58 64  1  0  0  0  0
 59 74  1  0  0  0  0
 60 75  1  0  0  0  0
 61 83  1  0  0  0  0
 62 64  1  0  0  0  0
 62 73  1  0  0  0  0
 63 75  1  0  0  0  0
 65 66  1  0  0  0  0
M  CHG  1  75   1
M  ISO  4  39 100  61 101  74 100  83 101
M  END
> <Batch ID>
0097

> <Smiles>
CNC(C)C(=O)NC(C(=O)N1Cc2cc([101O:1][101CH2:1]C(=O)Nc3ccc4c(c3)CC([100N:0](C)[100C:0](=O)N3CCCC(n5nc(-c6ccc(Oc7ccc(F)cc7F)cc6)c(C(N)=O)c5N)C3)C4)ccc2CC1C(=O)NC1CCCc2ccccc21)C(C)(C)C

> <Shape>
0.301

> <Color>
0.096

> <Negative vol penalty>
0.000

$$$$

  -OEChem-04052300493D

 87 96  0     1  0  0  0  0  0999 V2000
  -28.0317  -11.1048   21.7076 C   0  0  0  0  0  0  0  0  0  0  0  0
  -28.6585  -12.2766   21.2960 C   0  0  0  0  0  0  0  0  0  0  0  0
  -19.9413  -28.3313   21.5464 C   0  0  0  0  0  0  0  0  0  0  0  0
  -20.2890  -27.1968   23.6509 C   0  0  0  0  0  0  0  0  0  0  0  0
  -28.8048  -29.6601   19.2226 C   0  0  0  0  0  0  0  0  0  0  0  0
  -26.6569  -10.9525   21.5326 C   0  0  0  0  0  0  0  0  0  0  0  0
  -27.9109  -13.2964   20.7082 C   0  0  0  0  0  0  0  0  0  0  0  0
  -28.8362  -19.3253   21.2578 C   0  0  0  0  0  0  0  0  0  0  0  0
  -29.2997  -28.5287   18.5741 C   0  0  0  0  0  0  0  0  0  0  0  0
  -18.5679  -28.3597   21.7886 C   0  0  0  0  0  0  0  0  0  0  0  0
  -18.9156  -27.2252   23.8932 C   0  0  0  0  0  0  0  0  0  0  0  0
  -29.4705  -20.2557   20.4357 C   0  0  0  0  0  0  0  0  0  0  0  0
  -15.4665  -26.6775   24.8998 C   0  0  0  0  0  0  0  0  0  0  0  0
  -14.8674  -25.5104   25.3738 C   0  0  0  0  0  0  0  0  0  0  0  0
  -29.2645  -28.6352   21.3616 C   0  0  0  0  0  0  0  0  0  0  0  0
  -27.3386  -20.8542   19.4785 C   0  0  0  0  0  0  0  0  0  0  0  0
  -15.5758  -24.3385   23.3833 C   0  0  0  0  0  0  0  0  0  0  0  0
  -20.8018  -27.7498   22.4775 C   0  0  0  0  0  0  0  0  0  0  0  0
  -28.7872  -29.7134   20.6164 C   0  0  0  0  0  0  0  0  0  0  0  0
  -22.8802  -27.1074   21.1452 C   0  0  0  0  0  0  0  0  0  0  0  0
  -25.8905  -11.9748   20.9511 C   0  0  0  0  0  0  0  0  0  0  0  0
  -27.4474  -19.1443   21.1886 C   0  0  0  0  0  0  0  0  0  0  0  0
  -26.5248  -13.1571   20.5240 C   0  0  0  0  0  0  0  0  0  0  0  0
  -26.6888  -19.9226   20.3026 C   0  0  0  0  0  0  0  0  0  0  0  0
  -29.7770  -27.4506   19.3194 C   0  0  0  0  0  0  0  0  0  0  0  0
  -18.0551  -27.8067   22.9620 C   0  0  0  0  0  0  0  0  0  0  0  0
  -28.7220  -21.0183   19.5438 C   0  0  0  0  0  0  0  0  0  0  0  0
  -16.1201  -26.6752   23.6675 C   0  0  0  0  0  0  0  0  0  0  0  0
  -14.9221  -24.3409   24.6155 C   0  0  0  0  0  0  0  0  0  0  0  0
  -29.7594  -27.5038   20.7131 C   0  0  0  0  0  0  0  0  0  0  0  0
  -16.1748  -25.5057   22.9093 C   0  0  0  0  0  0  0  0  0  0  0  0
  -22.2205  -27.7196   22.2277 C   0  0  0  0  0  0  0  0  0  0  0  0
  -24.2118  -27.3614   21.3665 C   0  0  0  0  0  0  0  0  0  0  0  0
  -30.2100  -25.0225   19.1931 C   0  0  0  0  0  0  0  0  0  0  0  0
  -30.6916  -23.8960   18.6489 C   0  0  0  0  0  0  0  0  0  0  0  0
  -31.4490  -24.0369   17.3736 C   0  0  0  0  0  0  0  0  0  0  0  0
  -28.2715  -30.8926   21.2935 C   0  0  0  0  0  0  0  0  0  0  0  0
  -22.3379  -26.3746   20.0386 C   0  0  0  0  0  0  0  0  0  0  0  0
  -28.2389  -30.9807   22.7715 C   0  0  0  0  0  0  0  0  0  0  0  0
  -25.5361  -16.7164   20.4428 C   0  0  0  0  0  0  0  0  0  0  0  0
  -23.2075  -18.7680   21.3866 C   0  0  0  0  0  0  0  0  0  0  0  0
  -22.2158  -21.9958   21.8810 C   0  0  0  0  0  0  0  0  0  0  0  0
  -24.4150  -11.7452   20.7396 C   0  0  0  0  0  0  0  0  0  0  0  0
  -26.7751  -18.1555   22.1011 C   0  0  0  0  0  0  0  0  0  0  0  0
  -25.1926  -19.7810   20.2041 C   0  0  0  0  0  0  0  0  0  0  0  0
  -31.7953  -25.4356   16.9085 C   0  0  0  0  0  0  0  0  0  0  0  0
  -23.6348  -13.0250   20.4500 C   0  0  0  0  0  0  0  0  0  0  0  0
  -26.5942  -29.2072   25.4184 C   0  0  0  0  0  0  0  0  0  0  0  0
  -24.3595  -13.8669   19.4046 C   0  0  0  0  0  0  0  0  0  0  0  0
  -25.3438  -28.6450   24.7430 C   0  0  0  0  0  0  0  0  0  0  0  0
  -30.7237  -26.4628   17.2643 C   0  0  0  0  0  0  0  0  0  0  0  0
  -26.9743  -30.5685   24.8450 C   0  0  0  0  0  0  0  0  0  0  0  0
  -25.9064  -30.0049   22.6792 C   0  0  0  0  0  0  0  0  0  0  0  0
  -25.7440  -14.2960   19.9049 C   0  0  1  0  0  0  0  0  0  0  0  0
  -25.4185  -17.6896   21.5816 C   0  0  1  0  0  0  0  0  0  0  0  0
  -25.5075  -28.6181   23.2129 C   0  0  2  0  0  0  0  0  0  0  0  0
  -20.2441  -23.3590   22.6236 C   0  0  0  0  0  0  0  0  0  0  0  0
  -21.8567  -18.2758   18.6954 C   0  0  0  0  0  0  0  0  0  0  0  0
  -20.4677  -20.3196   19.0974 C   0  0  0  0  0  0  0  0  0  0  0  0
  -20.2935  -18.3711   20.6452 C   0  0  0  0  0  0  0  0  0  0  0  0
  -23.7209  -23.1472   24.1543 C   0  0  0  0  0  0  0  0  0  0  0  0
  -30.5286  -22.5349   19.2403 C   0  0  0  0  0  0  0  0  0  1  0  0
  -22.3660  -19.8180   20.7024 C   0  0  1  0  0  0  0  0  0  0  0  0
  -21.5293  -22.6701   23.0551 C   0  0  2  0  0  0  0  0  0  0  0  0
  -21.2744  -19.1977   19.7853 C   0  0  0  0  0  0  0  0  0  0  0  0
  -23.0635  -28.3175   23.0738 N   0  0  0  0  0  0  0  0  0  0  0  0
  -27.8111  -31.9382   20.6612 N   0  0  0  0  0  0  0  0  0  0  0  0
  -24.2666  -28.0820   22.5231 N   0  0  0  0  0  0  0  0  0  0  0  0
  -30.2797  -26.2997   18.6569 N   0  0  0  0  0  0  0  0  0  0  0  0
  -27.0860  -30.5160   23.3886 N   0  0  0  0  0  0  0  0  0  0  0  0
  -24.5822  -18.7964   21.1127 N   0  0  0  0  0  0  0  0  0  0  0  0
  -25.3294  -27.0364   20.6825 N   0  0  0  0  0  0  0  0  0  0  0  0
  -20.9484  -26.2070   19.9649 N   0  0  0  0  0  0  0  0  0  0  0  0
  -25.6257  -15.3955   20.8385 N   0  0  0  0  0  0  0  0  0  0  0  0
  -21.8414  -20.6742   21.7607 N   0  0  0  0  0  0  0  0  0  0  0  0
  -22.4282  -23.6909   23.6641 N   0  3  0  0  0  0  0  0  0  0  0  0
  -31.8405  -23.0451   16.7611 O   0  0  0  0  0  0  0  0  0  0  0  0
  -23.0652  -25.8690   19.1504 O   0  0  0  0  0  0  0  0  0  0  0  0
  -29.2383  -31.4572   23.2935 O   0  0  0  0  0  0  0  0  0  0  0  0
  -25.5436  -17.1330   19.2904 O   0  0  0  0  0  0  0  0  0  0  0  0
  -22.6660  -17.9570   22.1421 O   0  0  0  0  0  0  0  0  0  0  0  0
  -23.0023  -22.5838   21.1420 O   0  0  0  0  0  0  0  0  0  0  0  0
  -16.7150  -27.8345   23.1987 O   0  0  0  0  0  0  0  0  0  0  0  0
  -29.3387  -21.9267   18.7398 O   0  0  0  0  0  0  0  0  0  1  0  0
  -14.3482  -23.2199   25.0715 F   0  0  0  0  0  0  0  0  0  0  0  0
  -30.2155  -26.4733   21.4394 F   0  0  0  0  0  0  0  0  0  0  0  0
  -16.8024  -25.4970   21.7253 F   0  0  0  0  0  0  0  0  0  0  0  0
  1  2  1  0  0  0  0
  1  6  2  0  0  0  0
  2  7  2  0  0  0  0
  3 10  2  0  0  0  0
  3 18  1  0  0  0  0
  4 11  1  0  0  0  0
  4 18  2  0  0  0  0
  5  9  2  0  0  0  0
  5 19  1  0  0  0  0
  6 21  1  0  0  0  0
  7 23  1  0  0  0  0
  8 12  2  0  0  0  0
  8 22  1  0  0  0  0
  9 25  1  0  0  0  0
 10 26  1  0  0  0  0
 11 26  2  0  0  0  0
 12 27  1  0  0  0  0
 13 14  2  0  0  0  0
 13 28  1  0  0  0  0
 14 29  1  0  0  0  0
 15 19  2  0  0  0  0
 15 30  1  0  0  0  0
 16 24  1  0  0  0  0
 16 27  2  0  0  0  0
 17 29  2  0  0  0  0
 17 31  1  0  0  0  0
 18 32  1  0  0  0  0
 19 37  1  0  0  0  0
 20 32  1  0  0  0  0
 20 33  2  0  0  0  0
 20 38  1  0  0  0  0
 21 23  2  0  0  0  0
 21 43  1  0  0  0  0
 22 24  2  0  0  0  0
 22 44  1  0  0  0  0
 23 54  1  0  0  0  0
 24 45  1  0  0  0  0
 25 30  2  0  0  0  0
 25 69  1  0  0  0  0
 26 83  1  0  0  0  0
 27 84  1  0  0  0  0
 28 31  2  0  0  0  0
 28 83  1  0  0  0  0
 29 85  1  0  0  0  0
 30 86  1  0  0  0  0
 31 87  1  0  0  0  0
 32 66  2  0  0  0  0
 33 68  1  0  0  0  0
 33 72  1  0  0  0  0
 34 35  2  0  0  0  0
 34 69  1  0  0  0  0
 35 36  1  0  0  0  0
 35 62  1  0  0  0  0
 36 46  1  0  0  0  0
 36 77  2  0  0  0  0
 37 39  1  0  0  0  0
 37 67  2  0  0  0  0
 38 73  1  0  0  0  0
 38 78  2  0  0  0  0
 39 70  1  0  0  0  0
 39 79  2  0  0  0  0
 40 55  1  0  0  0  0
 40 74  1  0  0  0  0
 40 80  2  0  0  0  0
 41 63  1  0  0  0  0
 41 71  1  0  0  0  0
 41 81  2  0  0  0  0
 42 64  1  0  0  0  0
 42 75  1  0  0  0  0
 42 82  2  0  0  0  0
 43 47  1  0  0  0  0
 44 55  1  0  0  0  0
 45 71  1  0  0  0  0
 46 51  1  0  0  0  0
 47 49  1  0  0  0  0
 48 50  1  0  0  0  0
 48 52  1  0  0  0  0
 49 54  1  0  0  0  0
 50 56  1  0  0  0  0
 51 69  1  0  0  0  0
 52 70  1  0  0  0  0
 53 56  1  0  0  0  0
 53 70  1  0  0  0  0
 54 74  1  0  0  0  0
 55 71  1  0  0  0  0
 56 68  1  0  0  0  0
 57 64  1  0  0  0  0
 58 65  1  0  0  0  0
 59 65  1  0  0  0  0
 60 65  1  0  0  0  0
 61 76  1  0  0  0  0
 62 84  1  0  0  0  0
 63 65  1  0  0  0  0
 63 75  1  0  0  0  0
 64 76  1  0  0  0  0
 66 68  1  0  0  0  0
M  CHG  1  76   1
M  ISO  4  37 100  39 100  62 101  84 101
M  END
> <Batch ID>
0097

> <Smiles>
CNC(C)C(=O)NC(C(=O)N1Cc2cc([101O:1][101CH2:1]C3=CN(c4ccc([100C:0](=N)[100C:0](=O)N5CCCC(n6nc(-c7ccc(Oc8ccc(F)cc8F)cc7)c(C(N)=O)c6N)C5)cc4F)CCC3=O)ccc2CC1C(=O)NC1CCCc2ccccc21)C(C)(C)C

> <Shape>
0.230

> <Color>
0.064

> <Negative vol penalty>
0.000

$$$$

  -OEChem-04052300493D

 87 96  0     1  0  0  0  0  0999 V2000
  -28.2271  -17.9026   19.9534 C   0  0  0  0  0  0  0  0  0  0  0  0
  -27.1407  -18.6728   19.5509 C   0  0  0  0  0  0  0  0  0  0  0  0
  -23.5392  -14.3284   21.5689 C   0  0  0  0  0  0  0  0  0  0  0  0
  -24.3680  -15.0676   19.4232 C   0  0  0  0  0  0  0  0  0  0  0  0
  -29.1492  -18.4209   20.8616 C   0  0  0  0  0  0  0  0  0  0  0  0
  -26.9753  -19.9615   20.0572 C   0  0  0  0  0  0  0  0  0  0  0  0
  -24.4974  -26.4182   18.1898 C   0  0  0  0  0  0  0  0  0  0  0  0
  -21.0646  -25.3255   23.7094 C   0  0  0  0  0  0  0  0  0  0  0  0
  -19.9869  -26.2101   23.7490 C   0  0  0  0  0  0  0  0  0  0  0  0
  -24.4494  -13.2715   21.5563 C   0  0  0  0  0  0  0  0  0  0  0  0
  -25.2782  -14.0108   19.4106 C   0  0  0  0  0  0  0  0  0  0  0  0
  -23.6207  -27.4059   18.6365 C   0  0  0  0  0  0  0  0  0  0  0  0
  -28.0664  -11.7175   18.9806 C   0  0  0  0  0  0  0  0  0  0  0  0
  -29.3790  -11.9956   18.5995 C   0  0  0  0  0  0  0  0  0  0  0  0
  -25.3201  -28.2262   20.1392 C   0  0  0  0  0  0  0  0  0  0  0  0
  -22.4941  -27.1024   22.9117 C   0  0  0  0  0  0  0  0  0  0  0  0
  -29.5799  -13.5576   20.4317 C   0  0  0  0  0  0  0  0  0  0  0  0
  -23.4985  -15.2264   20.5023 C   0  0  0  0  0  0  0  0  0  0  0  0
  -21.1543  -16.2301   20.5731 C   0  0  0  0  0  0  0  0  0  0  0  0
  -29.0003  -19.7201   21.3720 C   0  0  0  0  0  0  0  0  0  0  0  0
  -25.7906  -26.3201   18.7232 C   0  0  0  0  0  0  0  0  0  0  0  0
  -27.8956  -20.4971   20.9742 C   0  0  0  0  0  0  0  0  0  0  0  0
  -26.2122  -27.2379   19.6957 C   0  0  0  0  0  0  0  0  0  0  0  0
  -22.3182  -25.7716   23.2908 C   0  0  0  0  0  0  0  0  0  0  0  0
  -21.4164  -27.9871   22.9512 C   0  0  0  0  0  0  0  0  0  0  0  0
  -20.1628  -27.5409   23.3699 C   0  0  0  0  0  0  0  0  0  0  0  0
  -25.3189  -13.1127   20.4772 C   0  0  0  0  0  0  0  0  0  0  0  0
  -24.0310  -28.3083   19.6134 C   0  0  0  0  0  0  0  0  0  0  0  0
  -27.5104  -12.3594   20.0872 C   0  0  0  0  0  0  0  0  0  0  0  0
  -30.1358  -12.9156   19.3251 C   0  0  0  0  0  0  0  0  0  0  0  0
  -28.2672  -13.2795   20.8128 C   0  0  0  0  0  0  0  0  0  0  0  0
  -22.5581  -16.3180   20.5144 C   0  0  0  0  0  0  0  0  0  0  0  0
  -20.7277  -17.5356   20.5596 C   0  0  0  0  0  0  0  0  0  0  0  0
  -18.9449  -29.6079   24.1825 C   0  0  0  0  0  0  0  0  0  0  0  0
  -20.3113  -15.0720   20.6343 C   0  0  0  0  0  0  0  0  0  0  0  0
  -27.3829  -24.1031   20.3521 C   0  0  0  0  0  0  0  0  0  0  0  0
  -29.8693  -26.1461   19.9444 C   0  0  0  0  0  0  0  0  0  0  0  0
  -30.9325  -29.3389   19.3766 C   0  0  0  0  0  0  0  0  0  0  0  0
  -23.3385  -22.5448   22.2764 C   0  0  0  0  0  0  0  0  0  0  0  0
  -29.9970  -20.2198   22.3876 C   0  0  0  0  0  0  0  0  0  0  0  0
  -26.7332  -25.2656   18.2114 C   0  0  0  0  0  0  0  0  0  0  0  0
  -27.5970  -27.1880   20.2858 C   0  0  0  0  0  0  0  0  0  0  0  0
  -17.5479  -30.1504   23.9830 C   0  0  0  0  0  0  0  0  0  0  0  0
  -29.9543  -21.7322   22.5900 C   0  0  0  0  0  0  0  0  0  0  0  0
  -17.0978  -29.4938   22.6933 C   0  0  0  0  0  0  0  0  0  0  0  0
  -21.9952  -21.8735   18.9836 C   0  0  0  0  0  0  0  0  0  0  0  0
  -28.5138  -22.2098   22.7434 C   0  0  0  0  0  0  0  0  0  0  0  0
  -21.8554  -20.3505   19.0168 C   0  0  0  0  0  0  0  0  0  0  0  0
  -17.8108  -28.1579   22.7119 C   0  0  0  0  0  0  0  0  0  0  0  0
  -23.2518  -22.3295   19.7193 C   0  0  0  0  0  0  0  0  0  0  0  0
  -23.2072  -20.3337   21.1645 C   0  0  0  0  0  0  0  0  0  0  0  0
  -27.6954  -21.9085   21.4821 C   0  0  1  0  0  0  0  0  0  0  0  0
  -27.8530  -24.9374   19.1942 C   0  0  1  0  0  0  0  0  0  0  0  0
  -21.9439  -19.8110   20.4567 C   0  0  2  0  0  0  0  0  0  0  0  0
  -33.0235  -30.7049   19.1333 C   0  0  0  0  0  0  0  0  0  0  0  0
  -30.2794  -26.0523   22.9664 C   0  0  0  0  0  0  0  0  0  0  0  0
  -31.7013  -28.1032   22.7671 C   0  0  0  0  0  0  0  0  0  0  0  0
  -32.3893  -25.9949   21.6251 C   0  0  0  0  0  0  0  0  0  0  0  0
  -30.2338  -30.1284   16.6112 C   0  0  0  0  0  0  0  0  0  0  0  0
  -21.6349  -29.4191   22.5329 C   0  0  0  0  0  0  0  0  0  0  0  0
  -23.4699  -24.8249   23.2463 C   0  0  0  0  0  0  0  0  0  0  0  0
  -21.0912  -29.7437   21.1398 C   0  0  0  0  0  0  0  0  0  0  0  0
  -21.7834  -28.9673   20.0255 C   0  0  0  0  0  0  0  0  0  1  0  0
  -30.4318  -27.3135   20.7188 C   0  0  1  0  0  0  0  0  0  0  0  0
  -31.9554  -29.9025   18.4067 C   0  0  2  0  0  0  0  0  0  0  0  0
  -31.1737  -26.8660   22.0098 C   0  0  0  0  0  0  0  0  0  0  0  0
  -22.9942  -17.5796   20.4671 N   0  0  0  0  0  0  0  0  0  0  0  0
  -21.8578  -18.2965   20.4959 N   0  0  0  0  0  0  0  0  0  0  0  0
  -19.0483  -28.4298   23.4173 N   0  0  0  0  0  0  0  0  0  0  0  0
  -28.4798  -26.1349   19.7574 N   0  0  0  0  0  0  0  0  0  0  0  0
  -23.2654  -21.7973   21.0892 N   0  0  0  0  0  0  0  0  0  0  0  0
  -19.4998  -18.0955   20.5961 N   0  0  0  0  0  0  0  0  0  0  0  0
  -19.8689  -14.5033   19.4321 N   0  0  0  0  0  0  0  0  0  0  0  0
  -27.9974  -22.8688   20.4423 N   0  0  0  0  0  0  0  0  0  0  0  0
  -31.2620  -28.0628   19.7819 N   0  0  0  0  0  0  0  0  0  0  0  0
  -23.3976  -23.9239   22.1176 N   0  0  0  0  0  0  0  0  0  0  0  0
  -31.2916  -30.7942   17.4141 N   0  3  0  0  0  0  0  0  0  0  0  0
  -19.7514  -30.1301   24.9382 O   0  0  0  0  0  0  0  0  0  0  0  0
  -19.9474  -14.5664   21.7231 O   0  0  0  0  0  0  0  0  0  0  0  0
  -26.5271  -24.5471   21.1086 O   0  0  0  0  0  0  0  0  0  0  0  0
  -30.6354  -25.2799   19.5148 O   0  0  0  0  0  0  0  0  0  0  0  0
  -29.9424  -29.9692   19.7413 O   0  0  0  0  0  0  0  0  0  0  0  0
  -23.3452  -22.0219   23.3960 O   0  0  0  0  0  0  0  0  0  0  0  0
  -26.2074  -12.0817   20.4647 O   0  0  0  0  0  0  0  0  0  0  0  0
  -23.1771  -29.2729   20.0517 O   0  0  0  0  0  0  0  0  0  1  0  0
  -31.3968  -13.1815   18.9600 F   0  0  0  0  0  0  0  0  0  0  0  0
  -27.7390  -13.8985   21.8775 F   0  0  0  0  0  0  0  0  0  0  0  0
  1  2  1  0  0  0  0
  1  5  2  0  0  0  0
  2  6  2  0  0  0  0
  3 10  2  0  0  0  0
  3 18  1  0  0  0  0
  4 11  1  0  0  0  0
  4 18  2  0  0  0  0
  5 20  1  0  0  0  0
  6 22  1  0  0  0  0
  7 12  2  0  0  0  0
  7 21  1  0  0  0  0
  8  9  2  0  0  0  0
  8 24  1  0  0  0  0
  9 26  1  0  0  0  0
 10 27  1  0  0  0  0
 11 27  2  0  0  0  0
 12 28  1  0  0  0  0
 13 14  2  0  0  0  0
 13 29  1  0  0  0  0
 14 30  1  0  0  0  0
 15 23  1  0  0  0  0
 15 28  2  0  0  0  0
 16 24  2  0  0  0  0
 16 25  1  0  0  0  0
 17 30  2  0  0  0  0
 17 31  1  0  0  0  0
 18 32  1  0  0  0  0
 19 32  1  0  0  0  0
 19 33  2  0  0  0  0
 19 35  1  0  0  0  0
 20 22  2  0  0  0  0
 20 40  1  0  0  0  0
 21 23  2  0  0  0  0
 21 41  1  0  0  0  0
 22 52  1  0  0  0  0
 23 42  1  0  0  0  0
 24 61  1  0  0  0  0
 25 26  2  0  0  0  0
 25 60  1  0  0  0  0
 26 69  1  0  0  0  0
 27 84  1  0  0  0  0
 28 85  1  0  0  0  0
 29 31  2  0  0  0  0
 29 84  1  0  0  0  0
 30 86  1  0  0  0  0
 31 87  1  0  0  0  0
 32 67  2  0  0  0  0
 33 68  1  0  0  0  0
 33 72  1  0  0  0  0
 34 43  1  0  0  0  0
 34 69  1  0  0  0  0
 34 78  2  0  0  0  0
 35 73  1  0  0  0  0
 35 79  2  0  0  0  0
 36 53  1  0  0  0  0
 36 74  1  0  0  0  0
 36 80  2  0  0  0  0
 37 64  1  0  0  0  0
 37 70  1  0  0  0  0
 37 81  2  0  0  0  0
 38 65  1  0  0  0  0
 38 75  1  0  0  0  0
 38 82  2  0  0  0  0
 39 71  1  0  0  0  0
 39 76  1  0  0  0  0
 39 83  2  0  0  0  0
 40 44  1  0  0  0  0
 41 53  1  0  0  0  0
 42 70  1  0  0  0  0
 43 45  1  0  0  0  0
 44 47  1  0  0  0  0
 45 49  1  0  0  0  0
 46 48  1  0  0  0  0
 46 50  1  0  0  0  0
 47 52  1  0  0  0  0
 48 54  1  0  0  0  0
 49 69  1  0  0  0  0
 50 71  1  0  0  0  0
 51 54  1  0  0  0  0
 51 71  1  0  0  0  0
 52 74  1  0  0  0  0
 53 70  1  0  0  0  0
 54 68  1  0  0  0  0
 55 65  1  0  0  0  0
 56 66  1  0  0  0  0
 57 66  1  0  0  0  0
 58 66  1  0  0  0  0
 59 77  1  0  0  0  0
 60 62  1  0  0  0  0
 61 76  1  0  0  0  0
 62 63  1  0  0  0  0
 63 85  1  0  0  0  0
 64 66  1  0  0  0  0
 64 75  1  0  0  0  0
 65 77  1  0  0  0  0
 67 68  1  0  0  0  0
M  CHG  1  77   1
M  ISO  4  39 100  63 101  76 100  85 101
M  END
> <Batch ID>
0097

> <Smiles>
CNC(C)C(=O)NC(C(=O)N1Cc2cc([101O:1][101CH2:1]CCc3cc(C[100NH:0][100C:0](=O)N4CCCC(n5nc(-c6ccc(Oc7ccc(F)cc7F)cc6)c(C(N)=O)c5N)C4)ccc3N3CCCC3=O)ccc2CC1C(=O)NC1CCCc2ccccc21)C(C)(C)C

> <Shape>
0.263

> <Color>
0.070

> <Negative vol penalty>
0.000

$$$$

  -OEChem-04052300493D

 89 98  0     1  0  0  0  0  0999 V2000
  -28.3514  -36.7130   25.8678 C   0  0  0  0  0  0  0  0  0  0  0  0
  -28.8298  -35.6375   25.1263 C   0  0  0  0  0  0  0  0  0  0  0  0
  -23.1869   -9.9254   22.3326 C   0  0  0  0  0  0  0  0  0  0  0  0
  -23.7948   -9.4122   20.0514 C   0  0  0  0  0  0  0  0  0  0  0  0
  -27.1007  -36.6354   26.4792 C   0  0  0  0  0  0  0  0  0  0  0  0
  -28.0582  -34.4833   24.9966 C   0  0  0  0  0  0  0  0  0  0  0  0
  -27.7261  -30.8069   20.1099 C   0  0  0  0  0  0  0  0  0  0  0  0
  -26.7805  -21.2822   17.2045 C   0  0  0  0  0  0  0  0  0  0  0  0
  -26.5317  -20.2170   18.0699 C   0  0  0  0  0  0  0  0  0  0  0  0
  -22.4038   -8.7722   22.3834 C   0  0  0  0  0  0  0  0  0  0  0  0
  -23.0117   -8.2590   20.1021 C   0  0  0  0  0  0  0  0  0  0  0  0
  -28.3466  -29.5968   19.8026 C   0  0  0  0  0  0  0  0  0  0  0  0
  -22.8856   -5.4496   22.7848 C   0  0  0  0  0  0  0  0  0  0  0  0
  -22.9920   -4.6432   23.9178 C   0  0  0  0  0  0  0  0  0  0  0  0
  -26.4072  -28.4062   20.6031 C   0  0  0  0  0  0  0  0  0  0  0  0
  -25.0854  -21.6294   19.3928 C   0  0  0  0  0  0  0  0  0  0  0  0
  -20.6401   -4.9647   24.3675 C   0  0  0  0  0  0  0  0  0  0  0  0
  -23.8824  -10.2454   21.1666 C   0  0  0  0  0  0  0  0  0  0  0  0
  -26.0529  -11.5555   21.4494 C   0  0  0  0  0  0  0  0  0  0  0  0
  -26.3093  -35.4833   26.3489 C   0  0  0  0  0  0  0  0  0  0  0  0
  -26.4438  -30.8255   20.6771 C   0  0  0  0  0  0  0  0  0  0  0  0
  -26.7964  -34.3896   25.6079 C   0  0  0  0  0  0  0  0  0  0  0  0
  -25.7717  -29.6180   20.9143 C   0  0  0  0  0  0  0  0  0  0  0  0
  -26.1818  -22.5211   17.4333 C   0  0  0  0  0  0  0  0  0  0  0  0
  -25.6841  -20.3905   19.1641 C   0  0  0  0  0  0  0  0  0  0  0  0
  -22.3162   -7.9390   21.2682 C   0  0  0  0  0  0  0  0  0  0  0  0
  -27.6883  -28.3961   20.0519 C   0  0  0  0  0  0  0  0  0  0  0  0
  -21.6565   -6.0137   22.4431 C   0  0  0  0  0  0  0  0  0  0  0  0
  -21.8692   -4.4007   24.7092 C   0  0  0  0  0  0  0  0  0  0  0  0
  -25.3342  -22.6947   18.5274 C   0  0  0  0  0  0  0  0  0  0  0  0
  -20.5337   -5.7713   23.2344 C   0  0  0  0  0  0  0  0  0  0  0  0
  -24.6910  -11.4368   21.1134 C   0  0  0  0  0  0  0  0  0  0  0  0
  -26.3468  -12.8790   21.2291 C   0  0  0  0  0  0  0  0  0  0  0  0
  -28.8528  -23.7701   15.9646 C   0  0  0  0  0  0  0  0  0  0  0  0
  -26.9703  -10.5586   21.9186 C   0  0  0  0  0  0  0  0  0  0  0  0
  -24.9830  -18.1742   21.9699 C   0  0  0  0  0  0  0  0  0  0  0  0
  -25.2108  -19.4320   21.3257 C   0  0  0  0  0  0  0  0  0  0  0  0
  -25.2196  -31.8629   23.4210 C   0  0  0  0  0  0  0  0  0  0  0  0
  -22.4064  -31.0609   22.0193 C   0  0  0  0  0  0  0  0  0  0  0  0
  -20.7595  -29.1804   19.6958 C   0  0  0  0  0  0  0  0  0  0  0  0
  -24.9842  -35.4277   27.0671 C   0  0  0  0  0  0  0  0  0  0  0  0
  -25.7775  -32.1400   20.9780 C   0  0  0  0  0  0  0  0  0  0  0  0
  -24.3858  -29.5842   21.5031 C   0  0  0  0  0  0  0  0  0  0  0  0
  -30.2123  -24.3588   16.2876 C   0  0  0  0  0  0  0  0  0  0  0  0
  -24.0681  -34.3125   26.5698 C   0  0  0  0  0  0  0  0  0  0  0  0
  -30.1736  -25.7710   16.8375 C   0  0  0  0  0  0  0  0  0  0  0  0
  -23.7230  -16.5114   18.9254 C   0  0  0  0  0  0  0  0  0  0  0  0
  -24.8407  -33.0033   26.4439 C   0  0  0  0  0  0  0  0  0  0  0  0
  -23.9224  -15.0436   19.2902 C   0  0  0  0  0  0  0  0  0  0  0  0
  -23.3888  -17.3664   20.1468 C   0  0  0  0  0  0  0  0  0  0  0  0
  -27.8184  -25.4486   17.5336 C   0  0  0  0  0  0  0  0  0  0  0  0
  -24.5830  -15.7641   21.6173 C   0  0  0  0  0  0  0  0  0  0  0  0
  -25.9783  -33.1299   25.4235 C   0  0  1  0  0  0  0  0  0  0  0  0
  -24.6777  -32.0256   22.0290 C   0  0  1  0  0  0  0  0  0  0  0  0
  -29.2147  -25.8253   18.0191 C   0  0  2  0  0  0  0  0  0  0  0  0
  -24.9686  -14.9017   20.4061 C   0  0  1  0  0  0  0  0  0  0  0  0
  -18.4581  -28.7151   18.8103 C   0  0  0  0  0  0  0  0  0  0  0  0
  -21.7978  -29.3792   24.4915 C   0  0  0  0  0  0  0  0  0  0  0  0
  -20.0062  -28.2237   23.1788 C   0  0  0  0  0  0  0  0  0  0  0  0
  -19.8511  -30.6763   23.6070 C   0  0  0  0  0  0  0  0  0  0  0  0
  -21.4886  -30.1132   16.9834 C   0  0  0  0  0  0  0  0  0  0  0  0
  -26.4504  -23.6658   16.4996 C   0  0  0  0  0  0  0  0  0  0  0  0
  -29.2104  -27.2104   18.6614 C   0  0  0  0  0  0  0  0  0  1  0  0
  -21.5607  -29.8119   21.9572 C   0  0  1  0  0  0  0  0  0  0  0  0
  -19.7192  -29.5505   18.6541 C   0  0  2  0  0  0  0  0  0  0  0  0
  -20.8308  -29.5230   23.2993 C   0  0  0  0  0  0  0  0  0  0  0  0
  -24.1567  -12.5927   20.7104 N   0  0  0  0  0  0  0  0  0  0  0  0
  -25.1881  -13.4503   20.7919 N   0  0  0  0  0  0  0  0  0  0  0  0
  -27.7727  -24.2408   16.7082 N   0  0  0  0  0  0  0  0  0  0  0  0
  -24.3529  -17.1621   21.2359 N   0  0  0  0  0  0  0  0  0  0  0  0
  -23.7790  -30.8953   21.7860 N   0  0  0  0  0  0  0  0  0  0  0  0
  -27.4807  -13.5981   21.3687 N   0  0  0  0  0  0  0  0  0  0  0  0
  -26.5032   -9.2483   22.0897 N   0  0  0  0  0  0  0  0  0  0  0  0
  -25.2025  -20.4698   22.1553 N   0  0  0  0  0  0  0  0  0  0  0  0
  -25.4581  -33.0566   24.0750 N   0  0  0  0  0  0  0  0  0  0  0  0
  -20.6680  -29.9797   20.8156 N   0  0  0  0  0  0  0  0  0  0  0  0
  -25.4411  -19.3554   20.0039 N   0  3  0  0  0  0  0  0  0  0  0  0
  -20.2597  -29.3337   17.2824 N   0  3  0  0  0  0  0  0  0  0  0  0
  -28.7772  -22.8621   15.1323 O   0  0  0  0  0  0  0  0  0  0  0  0
  -28.1646  -10.8254   22.1942 O   0  0  0  0  0  0  0  0  0  0  0  0
  -25.3407  -18.0617   23.1405 O   0  0  0  0  0  0  0  0  0  0  0  0
  -25.4062  -30.7377   23.8691 O   0  0  0  0  0  0  0  0  0  0  0  0
  -21.8679  -32.1445   22.2587 O   0  0  0  0  0  0  0  0  0  0  0  0
  -21.5698  -28.2705   19.5340 O   0  0  0  0  0  0  0  0  0  0  0  0
  -21.5523   -6.8136   21.3174 O   0  0  0  0  0  0  0  0  0  0  0  0
  -28.2919  -27.2135   19.7535 O   0  0  0  0  0  0  0  0  0  1  0  0
  -21.9712   -3.6249   25.7964 F   0  0  0  0  0  0  0  0  0  0  0  0
  -24.7536  -23.8814   18.7546 F   0  0  0  0  0  0  0  0  0  0  0  0
  -19.3500   -6.3095   22.9105 F   0  0  0  0  0  0  0  0  0  0  0  0
  1  2  1  0  0  0  0
  1  5  2  0  0  0  0
  2  6  2  0  0  0  0
  3 10  2  0  0  0  0
  3 18  1  0  0  0  0
  4 11  1  0  0  0  0
  4 18  2  0  0  0  0
  5 20  1  0  0  0  0
  6 22  1  0  0  0  0
  7 12  2  0  0  0  0
  7 21  1  0  0  0  0
  8  9  2  0  0  0  0
  8 24  1  0  0  0  0
  9 25  1  0  0  0  0
 10 26  1  0  0  0  0
 11 26  2  0  0  0  0
 12 27  1  0  0  0  0
 13 14  2  0  0  0  0
 13 28  1  0  0  0  0
 14 29  1  0  0  0  0
 15 23  1  0  0  0  0
 15 27  2  0  0  0  0
 16 25  2  0  0  0  0
 16 30  1  0  0  0  0
 17 29  2  0  0  0  0
 17 31  1  0  0  0  0
 18 32  1  0  0  0  0
 19 32  1  0  0  0  0
 19 33  2  0  0  0  0
 19 35  1  0  0  0  0
 20 22  2  0  0  0  0
 20 41  1  0  0  0  0
 21 23  2  0  0  0  0
 21 42  1  0  0  0  0
 22 53  1  0  0  0  0
 23 43  1  0  0  0  0
 24 30  2  0  0  0  0
 24 62  1  0  0  0  0
 25 77  1  0  0  0  0
 26 85  1  0  0  0  0
 27 86  1  0  0  0  0
 28 31  2  0  0  0  0
 28 85  1  0  0  0  0
 29 87  1  0  0  0  0
 30 88  1  0  0  0  0
 31 89  1  0  0  0  0
 32 67  2  0  0  0  0
 33 68  1  0  0  0  0
 33 72  1  0  0  0  0
 34 44  1  0  0  0  0
 34 69  1  0  0  0  0
 34 79  2  0  0  0  0
 35 73  1  0  0  0  0
 35 80  2  0  0  0  0
 36 37  1  0  0  0  0
 36 70  1  0  0  0  0
 36 81  2  0  0  0  0
 37 74  1  0  0  0  0
 37 77  2  0  0  0  0
 38 54  1  0  0  0  0
 38 75  1  0  0  0  0
 38 82  2  0  0  0  0
 39 64  1  0  0  0  0
 39 71  1  0  0  0  0
 39 83  2  0  0  0  0
 40 65  1  0  0  0  0
 40 76  1  0  0  0  0
 40 84  2  0  0  0  0
 41 45  1  0  0  0  0
 42 54  1  0  0  0  0
 43 71  1  0  0  0  0
 44 46  1  0  0  0  0
 45 48  1  0  0  0  0
 46 55  1  0  0  0  0
 47 49  1  0  0  0  0
 47 50  1  0  0  0  0
 48 53  1  0  0  0  0
 49 56  1  0  0  0  0
 50 70  1  0  0  0  0
 51 55  1  0  0  0  0
 51 69  1  0  0  0  0
 52 56  1  0  0  0  0
 52 70  1  0  0  0  0
 53 75  1  0  0  0  0
 54 71  1  0  0  0  0
 55 63  1  0  0  0  0
 56 68  1  0  0  0  0
 57 65  1  0  0  0  0
 58 66  1  0  0  0  0
 59 66  1  0  0  0  0
 60 66  1  0  0  0  0
 61 78  1  0  0  0  0
 62 69  1  0  0  0  0
 63 86  1  0  0  0  0
 64 66  1  0  0  0  0
 64 76  1  0  0  0  0
 65 78  1  0  0  0  0
 67 68  1  0  0  0  0
M  CHG  2  77   1  78   1
M  ISO  4  36 100  37 100  63 101  86 101
M  END
> <Batch ID>
0097

> <Smiles>
CNC(C)C(=O)NC(C(=O)N1Cc2cc([101O:1][101CH2:1]C3CCC(=O)N(Cc4ccc(N[100C:0](=N)[100C:0](=O)N5CCCC(n6nc(-c7ccc(Oc8ccc(F)cc8F)cc7)c(C(N)=O)c6N)C5)cc4F)C3)ccc2CC1C(=O)NC1CCCc2ccccc21)C(C)(C)C

> <Shape>
0.260

> <Color>
0.105

> <Negative vol penalty>
0.000

$$$$

  -OEChem-04052300493D

 87 96  0     1  0  0  0  0  0999 V2000
  -19.6301  -23.7692   22.5449 C   0  0  0  0  0  0  0  0  0  0  0  0
  -20.8158  -24.1075   21.9007 C   0  0  0  0  0  0  0  0  0  0  0  0
  -22.1203  -12.3372   21.5585 C   0  0  0  0  0  0  0  0  0  0  0  0
  -22.7268  -12.4719   19.2238 C   0  0  0  0  0  0  0  0  0  0  0  0
  -18.7458  -24.7699   22.9457 C   0  0  0  0  0  0  0  0  0  0  0  0
  -21.1175  -25.4467   21.6559 C   0  0  0  0  0  0  0  0  0  0  0  0
  -25.9194  -26.5939   22.7833 C   0  0  0  0  0  0  0  0  0  0  0  0
  -25.2314  -23.5685   16.4264 C   0  0  0  0  0  0  0  0  0  0  0  0
  -24.4293  -22.7841   17.2552 C   0  0  0  0  0  0  0  0  0  0  0  0
  -21.6515  -11.0383   21.3619 C   0  0  0  0  0  0  0  0  0  0  0  0
  -22.2580  -11.1729   19.0271 C   0  0  0  0  0  0  0  0  0  0  0  0
  -26.8973  -26.2133   21.8654 C   0  0  0  0  0  0  0  0  0  0  0  0
  -20.6260   -7.5559   21.5530 C   0  0  0  0  0  0  0  0  0  0  0  0
  -20.9803   -6.5892   22.4940 C   0  0  0  0  0  0  0  0  0  0  0  0
  -26.9515  -28.4641   20.9991 C   0  0  0  0  0  0  0  0  0  0  0  0
  -27.1400  -22.1901   16.9689 C   0  0  0  0  0  0  0  0  0  0  0  0
  -23.3155   -6.9677   22.0037 C   0  0  0  0  0  0  0  0  0  0  0  0
  -22.6579  -13.0540   20.4895 C   0  0  0  0  0  0  0  0  0  0  0  0
  -24.4460  -14.7840   21.0528 C   0  0  0  0  0  0  0  0  0  0  0  0
  -19.0413  -26.1226   22.7143 C   0  0  0  0  0  0  0  0  0  0  0  0
  -25.4415  -27.9120   22.8088 C   0  0  0  0  0  0  0  0  0  0  0  0
  -20.2357  -26.4664   22.0528 C   0  0  0  0  0  0  0  0  0  0  0  0
  -25.9693  -28.8595   21.9201 C   0  0  0  0  0  0  0  0  0  0  0  0
  -26.5868  -23.2714   16.2832 C   0  0  0  0  0  0  0  0  0  0  0  0
  -24.9825  -21.7027   17.9409 C   0  0  0  0  0  0  0  0  0  0  0  0
  -21.7204  -10.4561   20.0962 C   0  0  0  0  0  0  0  0  0  0  0  0
  -27.4114  -27.1478   20.9712 C   0  0  0  0  0  0  0  0  0  0  0  0
  -21.6165   -8.2285   20.8373 C   0  0  0  0  0  0  0  0  0  0  0  0
  -22.3250   -6.2951   22.7194 C   0  0  0  0  0  0  0  0  0  0  0  0
  -26.3379  -21.4057   17.7978 C   0  0  0  0  0  0  0  0  0  0  0  0
  -22.9613   -7.9344   21.0627 C   0  0  0  0  0  0  0  0  0  0  0  0
  -23.1418  -14.3960   20.6919 C   0  0  0  0  0  0  0  0  0  0  0  0
  -24.3911  -16.1549   21.1168 C   0  0  0  0  0  0  0  0  0  0  0  0
  -25.6037  -13.9773   21.3074 C   0  0  0  0  0  0  0  0  0  0  0  0
  -22.6117  -29.2816   22.3398 C   0  0  0  0  0  0  0  0  0  0  0  0
  -24.1860  -31.9564   23.2829 C   0  0  0  0  0  0  0  0  0  0  0  0
  -27.1564  -33.6024   23.6212 C   0  0  0  0  0  0  0  0  0  0  0  0
  -22.8032  -21.0685   19.0340 C   0  0  0  0  0  0  0  0  0  0  0  0
  -18.0325  -27.1664   23.1236 C   0  0  0  0  0  0  0  0  0  0  0  0
  -24.4056  -28.3131   23.8229 C   0  0  0  0  0  0  0  0  0  0  0  0
  -25.5046  -30.2921   21.9202 C   0  0  0  0  0  0  0  0  0  0  0  0
  -18.6020  -28.5822   23.1615 C   0  0  0  0  0  0  0  0  0  0  0  0
  -20.4274  -19.3012   21.0111 C   0  0  0  0  0  0  0  0  0  0  0  0
  -19.4153  -28.8643   21.9023 C   0  0  0  0  0  0  0  0  0  0  0  0
  -21.0291  -17.8994   21.1340 C   0  0  0  0  0  0  0  0  0  0  0  0
  -28.9895  -27.2010   16.3808 C   0  0  0  0  0  0  0  0  0  0  0  0
  -20.6878  -19.9115   19.6351 C   0  0  0  0  0  0  0  0  0  0  0  0
  -22.6966  -18.5167   19.3381 C   0  0  0  0  0  0  0  0  0  0  0  0
  -29.1269  -26.0256   15.4269 C   0  0  0  0  0  0  0  0  0  0  0  0
  -28.0383  -25.3497   17.5083 C   0  0  0  0  0  0  0  0  0  0  0  0
  -20.6100  -27.9092   21.7916 C   0  0  1  0  0  0  0  0  0  0  0  0
  -23.6223  -29.5577   23.4168 C   0  0  1  0  0  0  0  0  0  0  0  0
  -28.9302  -26.5539   17.7574 C   0  0  2  0  0  0  0  0  0  0  0  0
  -22.5161  -17.8870   20.7290 C   0  0  2  0  0  0  0  0  0  0  0  0
  -27.1856  -22.7000   13.2854 C   0  0  0  0  0  0  0  0  0  0  0  0
  -28.1209  -35.7885   24.3880 C   0  0  0  0  0  0  0  0  0  0  0  0
  -23.2106  -33.2847   20.7150 C   0  0  0  0  0  0  0  0  0  0  0  0
  -24.9360  -35.0652   21.0631 C   0  0  0  0  0  0  0  0  0  0  0  0
  -23.1207  -34.7443   22.7437 C   0  0  0  0  0  0  0  0  0  0  0  0
  -28.7744  -32.2849   25.7201 C   0  0  0  0  0  0  0  0  0  0  0  0
  -28.3915  -27.4769   18.8294 C   0  0  0  0  0  0  0  0  0  1  0  0
  -28.1622  -23.3392   14.2651 C   0  0  0  0  0  0  0  0  0  0  0  0
  -27.4574  -24.1228   15.3851 C   0  0  2  0  0  0  0  0  0  0  0  0
  -24.9764  -33.0348   22.5820 C   0  0  1  0  0  0  0  0  0  0  0  0
  -27.7574  -34.3667   24.7870 C   0  0  2  0  0  0  0  0  0  0  0  0
  -24.0685  -34.0049   21.7744 C   0  0  0  0  0  0  0  0  0  0  0  0
  -22.3185  -15.4363   20.5375 N   0  0  0  0  0  0  0  0  0  0  0  0
  -23.1073  -16.4916   20.8028 N   0  0  0  0  0  0  0  0  0  0  0  0
  -24.4857  -30.6339   22.9265 N   0  0  0  0  0  0  0  0  0  0  0  0
  -22.1176  -19.8692   19.3211 N   0  0  0  0  0  0  0  0  0  0  0  0
  -25.3162  -17.0932   21.4105 N   0  0  0  0  0  0  0  0  0  0  0  0
  -25.4854  -12.5852   21.1972 N   0  0  0  0  0  0  0  0  0  0  0  0
  -24.1654  -20.9079   18.7826 N   0  0  0  0  0  0  0  0  0  0  0  0
  -21.6738  -28.3255   22.6800 N   0  0  0  0  0  0  0  0  0  0  0  0
  -25.7801  -33.6859   23.6109 N   0  0  0  0  0  0  0  0  0  0  0  0
  -28.5094  -24.8489   16.1600 N   0  3  1  0  0  0  0  0  0  0  0  0
  -28.9904  -33.6850   25.2727 N   0  3  0  0  0  0  0  0  0  0  0  0
  -26.7061  -14.4754   21.6394 O   0  0  0  0  0  0  0  0  0  0  0  0
  -22.6770  -29.8920   21.2792 O   0  0  0  0  0  0  0  0  0  0  0  0
  -23.3390  -32.2753   24.1211 O   0  0  0  0  0  0  0  0  0  0  0  0
  -27.8397  -32.9953   22.7996 O   0  0  0  0  0  0  0  0  0  0  0  0
  -22.2301  -22.1610   19.0395 O   0  0  0  0  0  0  0  0  0  0  0  0
  -21.2632   -9.1886   19.9039 O   0  0  0  0  0  0  0  0  0  0  0  0
  -28.3656  -26.7788   20.0737 O   0  0  0  0  0  0  0  0  0  1  0  0
  -22.6651   -5.3678   23.6241 F   0  0  0  0  0  0  0  0  0  0  0  0
  -26.8805  -20.3696   18.4532 F   0  0  0  0  0  0  0  0  0  0  0  0
  -23.9173   -8.5781   20.3790 F   0  0  0  0  0  0  0  0  0  0  0  0
  1  2  1  0  0  0  0
  1  5  2  0  0  0  0
  2  6  2  0  0  0  0
  3 10  2  0  0  0  0
  3 18  1  0  0  0  0
  4 11  1  0  0  0  0
  4 18  2  0  0  0  0
  5 20  1  0  0  0  0
  6 22  1  0  0  0  0
  7 12  2  0  0  0  0
  7 21  1  0  0  0  0
  8  9  2  0  0  0  0
  8 24  1  0  0  0  0
  9 25  1  0  0  0  0
 10 26  1  0  0  0  0
 11 26  2  0  0  0  0
 12 27  1  0  0  0  0
 13 14  2  0  0  0  0
 13 28  1  0  0  0  0
 14 29  1  0  0  0  0
 15 23  1  0  0  0  0
 15 27  2  0  0  0  0
 16 24  2  0  0  0  0
 16 30  1  0  0  0  0
 17 29  2  0  0  0  0
 17 31  1  0  0  0  0
 18 32  1  0  0  0  0
 19 32  1  0  0  0  0
 19 33  2  0  0  0  0
 19 34  1  0  0  0  0
 20 22  2  0  0  0  0
 20 39  1  0  0  0  0
 21 23  2  0  0  0  0
 21 40  1  0  0  0  0
 22 51  1  0  0  0  0
 23 41  1  0  0  0  0
 24 63  1  0  0  0  0
 25 30  2  0  0  0  0
 25 73  1  0  0  0  0
 26 83  1  0  0  0  0
 27 84  1  0  0  0  0
 28 31  2  0  0  0  0
 28 83  1  0  0  0  0
 29 85  1  0  0  0  0
 30 86  1  0  0  0  0
 31 87  1  0  0  0  0
 32 67  2  0  0  0  0
 33 68  1  0  0  0  0
 33 71  1  0  0  0  0
 34 72  1  0  0  0  0
 34 78  2  0  0  0  0
 35 52  1  0  0  0  0
 35 74  1  0  0  0  0
 35 79  2  0  0  0  0
 36 64  1  0  0  0  0
 36 69  1  0  0  0  0
 36 80  2  0  0  0  0
 37 65  1  0  0  0  0
 37 75  1  0  0  0  0
 37 81  2  0  0  0  0
 38 70  1  0  0  0  0
 38 73  1  0  0  0  0
 38 82  2  0  0  0  0
 39 42  1  0  0  0  0
 40 52  1  0  0  0  0
 41 69  1  0  0  0  0
 42 44  1  0  0  0  0
 43 45  1  0  0  0  0
 43 47  1  0  0  0  0
 44 51  1  0  0  0  0
 45 54  1  0  0  0  0
 46 49  1  0  0  0  0
 46 53  1  0  0  0  0
 47 70  1  0  0  0  0
 48 54  1  0  0  0  0
 48 70  1  0  0  0  0
 49 76  1  0  0  0  0
 50 53  1  0  0  0  0
 50 76  1  0  0  0  0
 51 74  1  0  0  0  0
 52 69  1  0  0  0  0
 53 61  1  0  0  0  0
 54 68  1  0  0  0  0
 55 62  1  0  0  0  0
 56 65  1  0  0  0  0
 57 66  1  0  0  0  0
 58 66  1  0  0  0  0
 59 66  1  0  0  0  0
 60 77  1  0  0  0  0
 61 84  1  0  0  0  0
 62 63  1  0  0  0  0
 63 76  1  0  0  0  0
 64 66  1  0  0  0  0
 64 75  1  0  0  0  0
 65 77  1  0  0  0  0
 67 68  1  0  0  0  0
M  CHG  2  76   1  77   1
M  ISO  4  38 100  61 101  73 100  84 101
M  END
> <Batch ID>
0097

> <Smiles>
CCC(c1ccc([100NH:0][100C:0](=O)N2CCCC(n3nc(-c4ccc(Oc5ccc(F)cc5F)cc4)c(C(N)=O)c3N)C2)c(F)c1)N1CCC([101CH2:1][101O:1]c2ccc3c(c2)CN(C(=O)C(NC(=O)C(C)NC)C(C)(C)C)C(C(=O)NC2CCCc4ccccc42)C3)C1

> <Shape>
0.232

> <Color>
0.080

> <Negative vol penalty>
0.000

$$$$

  -OEChem-04052300493D

 87 96  0     1  0  0  0  0  0999 V2000
  -28.5738  -34.4383   23.8737 C   0  0  0  0  0  0  0  0  0  0  0  0
  -29.2762  -33.2706   23.5935 C   0  0  0  0  0  0  0  0  0  0  0  0
  -22.6164  -10.3217   20.2515 C   0  0  0  0  0  0  0  0  0  0  0  0
  -24.4515   -9.4606   21.5660 C   0  0  0  0  0  0  0  0  0  0  0  0
  -27.2796  -34.3657   24.3871 C   0  0  0  0  0  0  0  0  0  0  0  0
  -28.6852  -32.0295   23.8277 C   0  0  0  0  0  0  0  0  0  0  0  0
  -27.8232  -27.2668   18.4924 C   0  0  0  0  0  0  0  0  0  0  0  0
  -29.2953  -17.0336   18.4292 C   0  0  0  0  0  0  0  0  0  0  0  0
  -29.1951  -18.8243   20.0480 C   0  0  0  0  0  0  0  0  0  0  0  0
  -29.3756  -17.9699   17.3985 C   0  0  0  0  0  0  0  0  0  0  0  0
  -29.2755  -19.7606   19.0172 C   0  0  0  0  0  0  0  0  0  0  0  0
  -21.9258   -9.1231   20.4303 C   0  0  0  0  0  0  0  0  0  0  0  0
  -23.7609   -8.2620   21.7449 C   0  0  0  0  0  0  0  0  0  0  0  0
  -27.8143  -26.2204   17.5698 C   0  0  0  0  0  0  0  0  0  0  0  0
  -21.2443   -7.1040   23.6805 C   0  0  0  0  0  0  0  0  0  0  0  0
  -21.2186   -6.5579   24.9637 C   0  0  0  0  0  0  0  0  0  0  0  0
  -26.6930  -24.8009   19.1747 C   0  0  0  0  0  0  0  0  0  0  0  0
  -22.3021   -4.5632   24.1365 C   0  0  0  0  0  0  0  0  0  0  0  0
  -23.8793  -10.4905   20.8193 C   0  0  0  0  0  0  0  0  0  0  0  0
  -24.1788  -13.0154   21.0256 C   0  0  0  0  0  0  0  0  0  0  0  0
  -26.6688  -33.1231   24.6186 C   0  0  0  0  0  0  0  0  0  0  0  0
  -27.2526  -27.0888   19.7557 C   0  0  0  0  0  0  0  0  0  0  0  0
  -27.3821  -31.9402   24.3460 C   0  0  0  0  0  0  0  0  0  0  0  0
  -26.6878  -25.8493   20.0985 C   0  0  0  0  0  0  0  0  0  0  0  0
  -29.2050  -17.4608   19.7540 C   0  0  0  0  0  0  0  0  0  0  0  0
  -29.3657  -19.3334   17.6924 C   0  0  0  0  0  0  0  0  0  0  0  0
  -22.4980   -8.0932   21.1770 C   0  0  0  0  0  0  0  0  0  0  0  0
  -27.2508  -24.9904   17.9103 C   0  0  0  0  0  0  0  0  0  0  0  0
  -21.7989   -6.3797   22.6252 C   0  0  0  0  0  0  0  0  0  0  0  0
  -21.7475   -5.2875   25.1917 C   0  0  0  0  0  0  0  0  0  0  0  0
  -22.3278   -5.1093   22.8533 C   0  0  0  0  0  0  0  0  0  0  0  0
  -24.5933  -11.7282   20.6344 C   0  0  0  0  0  0  0  0  0  0  0  0
  -25.2013  -13.8413   20.6272 C   0  0  0  0  0  0  0  0  0  0  0  0
  -30.1367  -20.0074   15.4338 C   0  0  0  0  0  0  0  0  0  0  0  0
  -22.9769  -13.4276   21.6899 C   0  0  0  0  0  0  0  0  0  0  0  0
  -26.4291  -28.5984   23.0903 C   0  0  0  0  0  0  0  0  0  0  0  0
  -24.0170  -26.8925   22.2643 C   0  0  0  0  0  0  0  0  0  0  0  0
  -20.9095  -25.5645   21.7985 C   0  0  0  0  0  0  0  0  0  0  0  0
  -30.8317  -14.6220   20.5512 C   0  0  0  0  0  0  0  0  0  0  0  0
  -25.2855  -33.0948   25.2191 C   0  0  0  0  0  0  0  0  0  0  0  0
  -27.2945  -28.1686   20.8027 C   0  0  0  0  0  0  0  0  0  0  0  0
  -26.1164  -25.6926   21.4812 C   0  0  0  0  0  0  0  0  0  0  0  0
  -29.9060  -20.9496   14.2675 C   0  0  0  0  0  0  0  0  0  0  0  0
  -24.5916  -31.7416   25.0867 C   0  0  0  0  0  0  0  0  0  0  0  0
  -29.7183  -22.3980   14.6624 C   0  0  0  0  0  0  0  0  0  0  0  0
  -29.1995  -12.9691   17.6694 C   0  0  0  0  0  0  0  0  0  0  0  0
  -25.5397  -30.6144   25.4833 C   0  0  0  0  0  0  0  0  0  0  0  0
  -27.8506  -12.5457   18.2483 C   0  0  0  0  0  0  0  0  0  0  0  0
  -30.2818  -13.0352   18.7426 C   0  0  0  0  0  0  0  0  0  0  0  0
  -28.9761  -21.6712   16.9128 C   0  0  0  0  0  0  0  0  0  0  0  0
  -28.5794  -13.4752   20.4811 C   0  0  0  0  0  0  0  0  0  0  0  0
  -26.7658  -30.5753   24.5632 C   0  0  1  0  0  0  0  0  0  0  0  0
  -26.0435  -28.1888   21.6992 C   0  0  1  0  0  0  0  0  0  0  0  0
  -28.5926  -22.4877   15.6796 C   0  0  1  0  0  0  0  0  0  0  0  0
  -27.4562  -13.4438   19.4338 C   0  0  2  0  0  0  0  0  0  0  0  0
  -18.9113  -24.7345   23.0696 C   0  0  0  0  0  0  0  0  0  0  0  0
  -25.5212  -24.3283   22.9471 C   0  0  0  0  0  0  0  0  0  0  0  0
  -23.3103  -23.2166   23.3271 C   0  0  0  0  0  0  0  0  0  0  0  0
  -23.9917  -25.1516   24.7464 C   0  0  0  0  0  0  0  0  0  0  0  0
  -31.3758  -16.6569   21.8330 C   0  0  0  0  0  0  0  0  0  0  0  0
  -19.1429  -27.6031   20.5810 C   0  0  0  0  0  0  0  0  0  0  0  0
  -29.1192  -16.4596   20.8561 C   0  0  0  0  0  0  0  0  0  0  0  0
  -28.3091  -23.9401   16.0570 C   0  0  0  0  0  0  0  0  0  1  0  0
  -23.3306  -25.5521   22.3392 C   0  0  1  0  0  0  0  0  0  0  0  0
  -19.5590  -25.9297   22.3880 C   0  0  2  0  0  0  0  0  0  0  0  0
  -24.0444  -24.5745   23.3150 C   0  0  0  0  0  0  0  0  0  0  0  0
  -25.7862  -11.7311   20.0334 N   0  0  0  0  0  0  0  0  0  0  0  0
  -26.1298  -13.0303   20.0439 N   0  0  0  0  0  0  0  0  0  0  0  0
  -29.4493  -20.3052   16.6231 N   0  0  0  0  0  0  0  0  0  0  0  0
  -25.3542  -26.8960   21.8492 N   0  0  0  0  0  0  0  0  0  0  0  0
  -29.8637  -13.8599   19.8768 N   0  0  0  0  0  0  0  0  0  0  0  0
  -25.3877  -15.1750   20.7222 N   0  0  0  0  0  0  0  0  0  0  0  0
  -22.9671  -13.4653   23.0909 N   0  0  0  0  0  0  0  0  0  0  0  0
  -26.4270  -29.9649   23.2954 N   0  0  0  0  0  0  0  0  0  0  0  0
  -21.9383  -25.8249   22.6789 N   0  0  0  0  0  0  0  0  0  0  0  0
  -30.4066  -15.8261   21.1327 N   0  0  0  0  0  0  0  0  0  0  0  0
  -18.6414  -26.4153   21.3188 N   0  3  0  0  0  0  0  0  0  0  0  0
  -30.8553  -19.0214   15.2491 O   0  0  0  0  0  0  0  0  0  0  0  0
  -21.9372  -13.7373   21.0601 O   0  0  0  0  0  0  0  0  0  0  0  0
  -26.7069  -27.7386   23.9181 O   0  0  0  0  0  0  0  0  0  0  0  0
  -23.3887  -27.9098   22.5704 O   0  0  0  0  0  0  0  0  0  0  0  0
  -21.0384  -25.0919   20.6714 O   0  0  0  0  0  0  0  0  0  0  0  0
  -32.0109  -14.2523   20.6209 O   0  0  0  0  0  0  0  0  0  0  0  0
  -21.8244   -6.9235   21.3519 O   0  0  0  0  0  0  0  0  0  0  0  0
  -27.2415  -23.9746   17.0033 O   0  0  0  0  0  0  0  0  0  1  0  0
  -21.7241   -4.7639   26.4244 F   0  0  0  0  0  0  0  0  0  0  0  0
  -22.8629   -4.4092   21.8437 F   0  0  0  0  0  0  0  0  0  0  0  0
  1  2  1  0  0  0  0
  1  5  2  0  0  0  0
  2  6  2  0  0  0  0
  3 12  2  0  0  0  0
  3 19  1  0  0  0  0
  4 13  1  0  0  0  0
  4 19  2  0  0  0  0
  5 21  1  0  0  0  0
  6 23  1  0  0  0  0
  7 14  2  0  0  0  0
  7 22  1  0  0  0  0
  8 10  2  0  0  0  0
  8 25  1  0  0  0  0
  9 11  1  0  0  0  0
  9 25  2  0  0  0  0
 10 26  1  0  0  0  0
 11 26  2  0  0  0  0
 12 27  1  0  0  0  0
 13 27  2  0  0  0  0
 14 28  1  0  0  0  0
 15 16  2  0  0  0  0
 15 29  1  0  0  0  0
 16 30  1  0  0  0  0
 17 24  1  0  0  0  0
 17 28  2  0  0  0  0
 18 30  2  0  0  0  0
 18 31  1  0  0  0  0
 19 32  1  0  0  0  0
 20 32  1  0  0  0  0
 20 33  2  0  0  0  0
 20 35  1  0  0  0  0
 21 23  2  0  0  0  0
 21 40  1  0  0  0  0
 22 24  2  0  0  0  0
 22 41  1  0  0  0  0
 23 52  1  0  0  0  0
 24 42  1  0  0  0  0
 25 62  1  0  0  0  0
 26 69  1  0  0  0  0
 27 84  1  0  0  0  0
 28 85  1  0  0  0  0
 29 31  2  0  0  0  0
 29 84  1  0  0  0  0
 30 86  1  0  0  0  0
 31 87  1  0  0  0  0
 32 67  2  0  0  0  0
 33 68  1  0  0  0  0
 33 72  1  0  0  0  0
 34 43  1  0  0  0  0
 34 69  1  0  0  0  0
 34 78  2  0  0  0  0
 35 73  1  0  0  0  0
 35 79  2  0  0  0  0
 36 53  1  0  0  0  0
 36 74  1  0  0  0  0
 36 80  2  0  0  0  0
 37 64  1  0  0  0  0
 37 70  1  0  0  0  0
 37 81  2  0  0  0  0
 38 65  1  0  0  0  0
 38 75  1  0  0  0  0
 38 82  2  0  0  0  0
 39 71  1  0  0  0  0
 39 76  1  0  0  0  0
 39 83  2  0  0  0  0
 40 44  1  0  0  0  0
 41 53  1  0  0  0  0
 42 70  1  0  0  0  0
 43 45  1  0  0  0  0
 44 47  1  0  0  0  0
 45 54  1  0  0  0  0
 46 48  1  0  0  0  0
 46 49  1  0  0  0  0
 47 52  1  0  0  0  0
 48 55  1  0  0  0  0
 49 71  1  0  0  0  0
 50 54  1  0  0  0  0
 50 69  1  0  0  0  0
 51 55  1  0  0  0  0
 51 71  1  0  0  0  0
 52 74  1  0  0  0  0
 53 70  1  0  0  0  0
 54 63  1  0  0  0  0
 55 68  1  0  0  0  0
 56 65  1  0  0  0  0
 57 66  1  0  0  0  0
 58 66  1  0  0  0  0
 59 66  1  0  0  0  0
 60 76  1  0  0  0  0
 61 77  1  0  0  0  0
 62 76  1  0  0  0  0
 63 85  1  0  0  0  0
 64 66  1  0  0  0  0
 64 75  1  0  0  0  0
 65 77  1  0  0  0  0
 67 68  1  0  0  0  0
M  CHG  1  77   1
M  ISO  4  39 100  63 101  76 100  85 101
M  END
> <Batch ID>
0097

> <Smiles>
CNC(C)C(=O)NC(C(=O)N1Cc2cc([101O:1][101CH2:1]C3CCC(=O)N(c4ccc(C[100N:0](C)[100C:0](=O)N5CCCC(n6nc(-c7ccc(Oc8ccc(F)cc8F)cc7)c(C(N)=O)c6N)C5)cc4)C3)ccc2CC1C(=O)NC1CCCc2ccccc21)C(C)(C)C

> <Shape>
0.342

> <Color>
0.170

> <Negative vol penalty>
0.000

$$$$

  -OEChem-04052300493D

 84 92  0     1  0  0  0  0  0999 V2000
  -26.6800  -34.5816   24.9247 C   0  0  0  0  0  0  0  0  0  0  0  0
  -27.1232  -33.3603   24.4272 C   0  0  0  0  0  0  0  0  0  0  0  0
  -19.7828  -19.6309   22.7220 C   0  0  0  0  0  0  0  0  0  0  0  0
  -19.8743  -18.8470   25.0054 C   0  0  0  0  0  0  0  0  0  0  0  0
  -28.4777  -21.0787   20.9004 C   0  0  0  0  0  0  0  0  0  0  0  0
  -28.5473  -22.4659   20.7725 C   0  0  0  0  0  0  0  0  0  0  0  0
  -25.3595  -34.7221   25.3495 C   0  0  0  0  0  0  0  0  0  0  0  0
  -26.2464  -32.2784   24.3553 C   0  0  0  0  0  0  0  0  0  0  0  0
  -26.5694  -29.8058   19.9477 C   0  0  0  0  0  0  0  0  0  0  0  0
  -18.3892  -19.6376   22.7800 C   0  0  0  0  0  0  0  0  0  0  0  0
  -18.4806  -18.8537   25.0635 C   0  0  0  0  0  0  0  0  0  0  0  0
  -27.6458  -28.9350   19.7836 C   0  0  0  0  0  0  0  0  0  0  0  0
  -15.8776  -17.3845   22.5796 C   0  0  0  0  0  0  0  0  0  0  0  0
  -15.1821  -16.8438   21.4982 C   0  0  0  0  0  0  0  0  0  0  0  0
  -30.2512  -20.8400   19.2772 C   0  0  0  0  0  0  0  0  0  0  0  0
  -26.2075  -27.0690   20.3017 C   0  0  0  0  0  0  0  0  0  0  0  0
  -14.1042  -18.9738   21.1263 C   0  0  0  0  0  0  0  0  0  0  0  0
  -20.5254  -19.2356   23.8347 C   0  0  0  0  0  0  0  0  0  0  0  0
  -29.3297  -20.2657   20.1528 C   0  0  0  0  0  0  0  0  0  0  0  0
  -29.4687  -23.0402   19.8969 C   0  0  0  0  0  0  0  0  0  0  0  0
  -22.8350  -20.2850   24.1034 C   0  0  0  0  0  0  0  0  0  0  0  0
  -24.4635  -33.6441   25.2737 C   0  0  0  0  0  0  0  0  0  0  0  0
  -25.3043  -29.3149   20.3014 C   0  0  0  0  0  0  0  0  0  0  0  0
  -24.9130  -32.4043   24.7807 C   0  0  0  0  0  0  0  0  0  0  0  0
  -25.1161  -27.9354   20.4673 C   0  0  0  0  0  0  0  0  0  0  0  0
  -17.7381  -19.2490   23.9508 C   0  0  0  0  0  0  0  0  0  0  0  0
  -27.4656  -27.5667   19.9634 C   0  0  0  0  0  0  0  0  0  0  0  0
  -15.6864  -18.7199   22.9345 C   0  0  0  0  0  0  0  0  0  0  0  0
  -30.3207  -22.2273   19.1492 C   0  0  0  0  0  0  0  0  0  0  0  0
  -14.2955  -17.6384   20.7716 C   0  0  0  0  0  0  0  0  0  0  0  0
  -14.7997  -19.5145   22.2078 C   0  0  0  0  0  0  0  0  0  0  0  0
  -21.9650  -19.2280   23.7751 C   0  0  0  0  0  0  0  0  0  0  0  0
  -24.0915  -19.7775   23.8797 C   0  0  0  0  0  0  0  0  0  0  0  0
  -29.5265  -24.5255   19.7761 C   0  0  0  0  0  0  0  0  0  0  0  0
  -29.2552  -18.7883   20.2891 C   0  0  0  0  0  0  0  0  0  0  0  0
  -22.5342  -21.6073   24.5689 C   0  0  0  0  0  0  0  0  0  0  0  0
  -23.3536  -29.7188   22.7784 C   0  0  0  0  0  0  0  0  0  0  0  0
  -21.3247  -27.9467   20.9713 C   0  0  0  0  0  0  0  0  0  0  0  0
  -20.9173  -25.6535   18.4769 C   0  0  0  0  0  0  0  0  0  0  0  0
  -27.7212  -16.9205   20.8201 C   0  0  0  0  0  0  0  0  0  0  0  0
  -23.0583  -33.8306   25.7889 C   0  0  0  0  0  0  0  0  0  0  0  0
  -24.1473  -30.2647   20.4486 C   0  0  0  0  0  0  0  0  0  0  0  0
  -23.7733  -27.3558   20.8273 C   0  0  0  0  0  0  0  0  0  0  0  0
  -22.0919  -32.7416   25.3304 C   0  0  0  0  0  0  0  0  0  0  0  0
  -25.6152  -15.0383   22.9459 C   0  0  0  0  0  0  0  0  0  0  0  0
  -22.7167  -31.3620   25.5127 C   0  0  0  0  0  0  0  0  0  0  0  0
  -24.5517  -16.0477   23.3866 C   0  0  0  0  0  0  0  0  0  0  0  0
  -26.0221  -15.2431   21.4873 C   0  0  0  0  0  0  0  0  0  0  0  0
  -25.3675  -17.6140   21.5796 C   0  0  0  0  0  0  0  0  0  0  0  0
  -23.9853  -31.2144   24.6638 C   0  0  1  0  0  0  0  0  0  0  0  0
  -23.0215  -29.7056   21.3131 C   0  0  1  0  0  0  0  0  0  0  0  0
  -24.9753  -17.4941   23.0611 C   0  0  1  0  0  0  0  0  0  0  0  0
  -19.1427  -24.3717   17.2500 C   0  0  0  0  0  0  0  0  0  0  0  0
  -21.0170  -26.0834   23.3678 C   0  0  0  0  0  0  0  0  0  0  0  0
  -20.0387  -24.3726   21.8237 C   0  0  0  0  0  0  0  0  0  0  0  0
  -18.8915  -26.5649   22.1411 C   0  0  0  0  0  0  0  0  0  0  0  0
  -21.6594  -26.8788   15.8871 C   0  0  0  0  0  0  0  0  0  0  0  0
  -30.7997  -22.9859   16.9468 C   0  0  0  0  0  0  0  0  0  0  0  0
  -28.2588  -25.3250   20.0040 C   0  0  0  0  0  0  0  0  0  1  0  0
  -21.0424  -26.4719   20.8155 C   0  0  1  0  0  0  0  0  0  0  0  0
  -19.9962  -25.6303   17.2705 C   0  0  2  0  0  0  0  0  0  0  0  0
  -20.2733  -25.8840   22.0321 C   0  0  0  0  0  0  0  0  0  0  0  0
  -22.6139  -18.1319   23.3734 N   0  0  0  0  0  0  0  0  0  0  0  0
  -23.9051  -18.4974   23.4476 N   0  0  0  0  0  0  0  0  0  0  0  0
  -22.6746  -28.3259   20.9663 N   0  0  0  0  0  0  0  0  0  0  0  0
  -26.4183  -16.6347   21.2639 N   0  0  0  0  0  0  0  0  0  0  0  0
  -25.3267  -20.3059   24.0124 N   0  0  0  0  0  0  0  0  0  0  0  0
  -21.1903  -21.9642   24.7444 N   0  0  0  0  0  0  0  0  0  0  0  0
  -28.0150  -18.2813   20.6780 N   0  0  0  0  0  0  0  0  0  0  0  0
  -23.6415  -30.9743   23.2787 N   0  0  0  0  0  0  0  0  0  0  0  0
  -20.3489  -26.3215   19.5408 N   0  0  0  0  0  0  0  0  0  0  0  0
  -20.7910  -25.6798   16.0109 N   0  3  0  0  0  0  0  0  0  0  0  0
  -30.5920  -25.0705   19.4973 O   0  0  0  0  0  0  0  0  0  0  0  0
  -30.2450  -18.1124   20.0223 O   0  0  0  0  0  0  0  0  0  0  0  0
  -23.4299  -22.4528   24.8060 O   0  0  0  0  0  0  0  0  0  0  0  0
  -23.3477  -28.6680   23.4088 O   0  0  0  0  0  0  0  0  0  0  0  0
  -20.3821  -28.7341   21.0858 O   0  0  0  0  0  0  0  0  0  0  0  0
  -22.0284  -25.1280   18.4768 O   0  0  0  0  0  0  0  0  0  0  0  0
  -28.5626  -16.0423   20.6056 O   0  0  0  0  0  0  0  0  0  0  0  0
  -16.3782  -19.2555   24.0078 O   0  0  0  0  0  0  0  0  0  0  0  0
  -31.2285  -22.7700   18.2894 O   0  0  0  0  0  0  0  0  0  0  0  0
  -28.5147  -26.7146   19.8043 O   0  0  0  0  0  0  0  0  0  1  0  0
  -13.6288  -17.1194   19.7322 F   0  0  0  0  0  0  0  0  0  0  0  0
  -14.6128  -20.7984   22.5432 F   0  0  0  0  0  0  0  0  0  0  0  0
  1  2  1  0  0  0  0
  1  7  2  0  0  0  0
  2  8  2  0  0  0  0
  3 10  2  0  0  0  0
  3 18  1  0  0  0  0
  4 11  1  0  0  0  0
  4 18  2  0  0  0  0
  5  6  2  0  0  0  0
  5 19  1  0  0  0  0
  6 20  1  0  0  0  0
  7 22  1  0  0  0  0
  8 24  1  0  0  0  0
  9 12  2  0  0  0  0
  9 23  1  0  0  0  0
 10 26  1  0  0  0  0
 11 26  2  0  0  0  0
 12 27  1  0  0  0  0
 13 14  2  0  0  0  0
 13 28  1  0  0  0  0
 14 30  1  0  0  0  0
 15 19  2  0  0  0  0
 15 29  1  0  0  0  0
 16 25  1  0  0  0  0
 16 27  2  0  0  0  0
 17 30  2  0  0  0  0
 17 31  1  0  0  0  0
 18 32  1  0  0  0  0
 19 35  1  0  0  0  0
 20 29  2  0  0  0  0
 20 34  1  0  0  0  0
 21 32  1  0  0  0  0
 21 33  2  0  0  0  0
 21 36  1  0  0  0  0
 22 24  2  0  0  0  0
 22 41  1  0  0  0  0
 23 25  2  0  0  0  0
 23 42  1  0  0  0  0
 24 50  1  0  0  0  0
 25 43  1  0  0  0  0
 26 80  1  0  0  0  0
 27 82  1  0  0  0  0
 28 31  2  0  0  0  0
 28 80  1  0  0  0  0
 29 81  1  0  0  0  0
 30 83  1  0  0  0  0
 31 84  1  0  0  0  0
 32 63  2  0  0  0  0
 33 64  1  0  0  0  0
 33 67  1  0  0  0  0
 34 59  1  0  0  0  0
 34 73  2  0  0  0  0
 35 69  1  0  0  0  0
 35 74  2  0  0  0  0
 36 68  1  0  0  0  0
 36 75  2  0  0  0  0
 37 51  1  0  0  0  0
 37 70  1  0  0  0  0
 37 76  2  0  0  0  0
 38 60  1  0  0  0  0
 38 65  1  0  0  0  0
 38 77  2  0  0  0  0
 39 61  1  0  0  0  0
 39 71  1  0  0  0  0
 39 78  2  0  0  0  0
 40 66  1  0  0  0  0
 40 69  1  0  0  0  0
 40 79  2  0  0  0  0
 41 44  1  0  0  0  0
 42 51  1  0  0  0  0
 43 65  1  0  0  0  0
 44 46  1  0  0  0  0
 45 47  1  0  0  0  0
 45 48  1  0  0  0  0
 46 50  1  0  0  0  0
 47 52  1  0  0  0  0
 48 66  1  0  0  0  0
 49 52  1  0  0  0  0
 49 66  1  0  0  0  0
 50 70  1  0  0  0  0
 51 65  1  0  0  0  0
 52 64  1  0  0  0  0
 53 61  1  0  0  0  0
 54 62  1  0  0  0  0
 55 62  1  0  0  0  0
 56 62  1  0  0  0  0
 57 72  1  0  0  0  0
 58 81  1  0  0  0  0
 59 82  1  0  0  0  0
 60 62  1  0  0  0  0
 60 71  1  0  0  0  0
 61 72  1  0  0  0  0
 63 64  1  0  0  0  0
M  CHG  1  72   1
M  ISO  4  40 100  59 101  69 100  82 101
M  END
> <Batch ID>
0097

> <Smiles>
CNC(C)C(=O)NC(C(=O)N1Cc2cc([101O:1][101CH2:1]C(=O)c3ccc(C(=O)[100NH:0][100C:0](=O)N4CCCC(n5nc(-c6ccc(Oc7ccc(F)cc7F)cc6)c(C(N)=O)c5N)C4)cc3OC)ccc2CC1C(=O)NC1CCCc2ccccc21)C(C)(C)C

> <Shape>
0.209

> <Color>
0.088

> <Negative vol penalty>
0.000

$$$$

  -OEChem-04052300493D

 87 96  0     1  0  0  0  0  0999 V2000
  -17.1508  -29.4551   24.7601 C   0  0  0  0  0  0  0  0  0  0  0  0
  -17.7083  -28.2123   24.4774 C   0  0  0  0  0  0  0  0  0  0  0  0
  -22.9801  -11.1184   18.9247 C   0  0  0  0  0  0  0  0  0  0  0  0
  -23.5334   -9.7409   20.8308 C   0  0  0  0  0  0  0  0  0  0  0  0
  -17.5079  -30.5674   23.9990 C   0  0  0  0  0  0  0  0  0  0  0  0
  -18.6226  -28.0808   23.4328 C   0  0  0  0  0  0  0  0  0  0  0  0
  -23.4585  -24.3290   23.2230 C   0  0  0  0  0  0  0  0  0  0  0  0
  -26.2168  -16.3077   17.9221 C   0  0  0  0  0  0  0  0  0  0  0  0
  -27.2533  -15.5775   17.3407 C   0  0  0  0  0  0  0  0  0  0  0  0
  -22.1277  -10.1209   18.4513 C   0  0  0  0  0  0  0  0  0  0  0  0
  -22.6810   -8.7435   20.3575 C   0  0  0  0  0  0  0  0  0  0  0  0
  -23.6524  -23.0808   22.6328 C   0  0  0  0  0  0  0  0  0  0  0  0
  -19.3591   -8.1242   20.3094 C   0  0  0  0  0  0  0  0  0  0  0  0
  -18.5014   -7.5177   21.2269 C   0  0  0  0  0  0  0  0  0  0  0  0
  -24.6287  -24.1514   20.7041 C   0  0  0  0  0  0  0  0  0  0  0  0
  -23.3888  -18.4278   20.2958 C   0  0  0  0  0  0  0  0  0  0  0  0
  -27.7376  -17.1178   19.6156 C   0  0  0  0  0  0  0  0  0  0  0  0
  -19.5150   -5.3753   20.7583 C   0  0  0  0  0  0  0  0  0  0  0  0
  -23.6830  -10.9284   20.1144 C   0  0  0  0  0  0  0  0  0  0  0  0
  -24.2340  -13.0199   21.4670 C   0  0  0  0  0  0  0  0  0  0  0  0
  -18.4343  -30.4514   22.9507 C   0  0  0  0  0  0  0  0  0  0  0  0
  -23.8389  -25.5003   22.5524 C   0  0  0  0  0  0  0  0  0  0  0  0
  -18.9914  -29.1923   22.6561 C   0  0  0  0  0  0  0  0  0  0  0  0
  -24.4408  -25.4130   21.2890 C   0  0  0  0  0  0  0  0  0  0  0  0
  -24.3218  -19.3935   20.7474 C   0  0  0  0  0  0  0  0  0  0  0  0
  -26.4589  -17.0779   19.0596 C   0  0  0  0  0  0  0  0  0  0  0  0
  -28.5319  -15.6174   17.8967 C   0  0  0  0  0  0  0  0  0  0  0  0
  -28.7741  -16.3876   19.0342 C   0  0  0  0  0  0  0  0  0  0  0  0
  -21.9781   -8.9335   19.1677 C   0  0  0  0  0  0  0  0  0  0  0  0
  -24.2349  -22.9921   21.3719 C   0  0  0  0  0  0  0  0  0  0  0  0
  -20.2948   -7.3563   19.6162 C   0  0  0  0  0  0  0  0  0  0  0  0
  -18.5793   -6.1432   21.4514 C   0  0  0  0  0  0  0  0  0  0  0  0
  -20.3728   -5.9818   19.8407 C   0  0  0  0  0  0  0  0  0  0  0  0
  -24.5641  -11.9581   20.6036 C   0  0  0  0  0  0  0  0  0  0  0  0
  -25.4100  -13.7113   21.6263 C   0  0  0  0  0  0  0  0  0  0  0  0
  -24.0948  -17.4601   19.6159 C   0  0  0  0  0  0  0  0  0  0  0  0
  -25.5697  -18.9866   20.3295 C   0  0  0  0  0  0  0  0  0  0  0  0
  -22.9767  -13.3515   22.0711 C   0  0  0  0  0  0  0  0  0  0  0  0
  -22.3036  -28.0640   21.4689 C   0  0  0  0  0  0  0  0  0  0  0  0
  -25.3064  -29.1097   20.8273 C   0  0  0  0  0  0  0  0  0  0  0  0
  -28.5707  -28.3376   20.1986 C   0  0  0  0  0  0  0  0  0  0  0  0
  -30.2984  -13.8374   17.9437 C   0  0  0  0  0  0  0  0  0  0  0  0
  -18.7535  -31.6728   22.1256 C   0  0  0  0  0  0  0  0  0  0  0  0
  -23.6473  -26.8374   23.2141 C   0  0  0  0  0  0  0  0  0  0  0  0
  -24.8854  -26.6392   20.5360 C   0  0  0  0  0  0  0  0  0  0  0  0
  -20.0129  -31.5219   21.2761 C   0  0  0  0  0  0  0  0  0  0  0  0
  -30.1551  -13.1376   21.5745 C   0  0  0  0  0  0  0  0  0  0  0  0
  -20.0098  -30.1801   20.5507 C   0  0  0  0  0  0  0  0  0  0  0  0
  -28.6898  -12.7639   21.7904 C   0  0  0  0  0  0  0  0  0  0  0  0
  -30.6249  -12.7958   20.1637 C   0  0  0  0  0  0  0  0  0  0  0  0
  -28.3112  -13.0287   19.3068 C   0  0  0  0  0  0  0  0  0  0  0  0
  -20.0054  -29.0143   21.5469 C   0  0  1  0  0  0  0  0  0  0  0  0
  -23.6025  -27.9946   22.2210 C   0  0  1  0  0  0  0  0  0  0  0  0
  -27.8026  -13.4002   20.7078 C   0  0  1  0  0  0  0  0  0  0  0  0
  -30.7815  -29.4033   19.6755 C   0  0  0  0  0  0  0  0  0  0  0  0
  -24.3871  -29.6034   17.9600 C   0  0  0  0  0  0  0  0  0  0  0  0
  -26.7943  -29.7432   17.2862 C   0  0  0  0  0  0  0  0  0  0  0  0
  -25.8569  -31.3916   18.9069 C   0  0  0  0  0  0  0  0  0  0  0  0
  -30.1123  -15.3239   15.9975 C   0  0  0  0  0  0  0  0  0  0  0  0
  -29.8102  -27.2435   22.6534 C   0  0  0  0  0  0  0  0  0  0  0  0
  -24.0036  -20.6307   21.5344 C   0  0  0  0  0  0  0  0  0  1  0  0
  -26.2456  -29.0065   19.6499 C   0  0  1  0  0  0  0  0  0  0  0  0
  -29.8642  -28.8866   20.7729 C   0  0  2  0  0  0  0  0  0  0  0  0
  -25.8110  -29.9130   18.4638 C   0  0  0  0  0  0  0  0  0  0  0  0
  -25.8492  -11.9699   20.2398 N   0  0  0  0  0  0  0  0  0  0  0  0
  -25.4195  -17.8103   19.6425 N   0  0  0  0  0  0  0  0  0  0  0  0
  -26.3369  -13.0477   20.8776 N   0  0  0  0  0  0  0  0  0  0  0  0
  -24.6710  -27.9239   21.2223 N   0  0  0  0  0  0  0  0  0  0  0  0
  -29.7368  -13.3578   19.1448 N   0  0  0  0  0  0  0  0  0  0  0  0
  -30.0618  -16.4426   19.6132 N   0  0  0  0  0  0  0  0  0  0  0  0
  -25.7314  -14.8161   22.3323 N   0  0  0  0  0  0  0  0  0  0  0  0
  -21.8699  -12.5351   21.8014 N   0  0  0  0  0  0  0  0  0  0  0  0
  -21.3288  -28.8151   22.0976 N   0  0  0  0  0  0  0  0  0  0  0  0
  -27.5795  -29.2956   20.1653 N   0  0  0  0  0  0  0  0  0  0  0  0
  -29.5868  -14.8531   17.2772 N   0  0  0  0  0  0  0  0  0  0  0  0
  -30.5872  -27.8249   21.5286 N   0  3  0  0  0  0  0  0  0  0  0  0
  -22.8350  -14.3520   22.8145 O   0  0  0  0  0  0  0  0  0  0  0  0
  -22.1943  -27.4806   20.3968 O   0  0  0  0  0  0  0  0  0  0  0  0
  -25.1480  -30.2007   21.3807 O   0  0  0  0  0  0  0  0  0  0  0  0
  -28.4525  -27.1761   19.8144 O   0  0  0  0  0  0  0  0  0  0  0  0
  -31.3337  -13.3559   17.4673 O   0  0  0  0  0  0  0  0  0  0  0  0
  -23.6763  -16.3556   19.0096 O   0  0  0  0  0  0  0  0  0  0  0  0
  -26.7629  -19.5454   20.4977 O   0  0  0  0  0  0  0  0  0  0  0  0
  -21.1463   -7.9601   18.7062 O   0  0  0  0  0  0  0  0  0  0  0  0
  -24.4248  -21.7751   20.7933 O   0  0  0  0  0  0  0  0  0  1  0  0
  -17.7565   -5.5611   22.3337 F   0  0  0  0  0  0  0  0  0  0  0  0
  -21.2704   -5.2390   19.1786 F   0  0  0  0  0  0  0  0  0  0  0  0
  1  2  1  0  0  0  0
  1  5  2  0  0  0  0
  2  6  2  0  0  0  0
  3 10  2  0  0  0  0
  3 19  1  0  0  0  0
  4 11  1  0  0  0  0
  4 19  2  0  0  0  0
  5 21  1  0  0  0  0
  6 23  1  0  0  0  0
  7 12  2  0  0  0  0
  7 22  1  0  0  0  0
  8  9  2  0  0  0  0
  8 26  1  0  0  0  0
  9 27  1  0  0  0  0
 10 29  1  0  0  0  0
 11 29  2  0  0  0  0
 12 30  1  0  0  0  0
 13 14  2  0  0  0  0
 13 31  1  0  0  0  0
 14 32  1  0  0  0  0
 15 24  1  0  0  0  0
 15 30  2  0  0  0  0
 16 25  1  0  0  0  0
 16 36  2  0  0  0  0
 17 26  2  0  0  0  0
 17 28  1  0  0  0  0
 18 32  2  0  0  0  0
 18 33  1  0  0  0  0
 19 34  1  0  0  0  0
 20 34  1  0  0  0  0
 20 35  2  0  0  0  0
 20 38  1  0  0  0  0
 21 23  2  0  0  0  0
 21 43  1  0  0  0  0
 22 24  2  0  0  0  0
 22 44  1  0  0  0  0
 23 52  1  0  0  0  0
 24 45  1  0  0  0  0
 25 37  2  0  0  0  0
 25 61  1  0  0  0  0
 26 66  1  0  0  0  0
 27 28  2  0  0  0  0
 27 75  1  0  0  0  0
 28 70  1  0  0  0  0
 29 84  1  0  0  0  0
 30 85  1  0  0  0  0
 31 33  2  0  0  0  0
 31 84  1  0  0  0  0
 32 86  1  0  0  0  0
 33 87  1  0  0  0  0
 34 65  2  0  0  0  0
 35 67  1  0  0  0  0
 35 71  1  0  0  0  0
 36 66  1  0  0  0  0
 36 82  1  0  0  0  0
 37 66  1  0  0  0  0
 37 83  1  0  0  0  0
 38 72  1  0  0  0  0
 38 77  2  0  0  0  0
 39 53  1  0  0  0  0
 39 73  1  0  0  0  0
 39 78  2  0  0  0  0
 40 62  1  0  0  0  0
 40 68  1  0  0  0  0
 40 79  2  0  0  0  0
 41 63  1  0  0  0  0
 41 74  1  0  0  0  0
 41 80  2  0  0  0  0
 42 69  1  0  0  0  0
 42 75  1  0  0  0  0
 42 81  2  0  0  0  0
 43 46  1  0  0  0  0
 44 53  1  0  0  0  0
 45 68  1  0  0  0  0
 46 48  1  0  0  0  0
 47 49  1  0  0  0  0
 47 50  1  0  0  0  0
 48 52  1  0  0  0  0
 49 54  1  0  0  0  0
 50 69  1  0  0  0  0
 51 54  1  0  0  0  0
 51 69  1  0  0  0  0
 52 73  1  0  0  0  0
 53 68  1  0  0  0  0
 54 67  1  0  0  0  0
 55 63  1  0  0  0  0
 56 64  1  0  0  0  0
 57 64  1  0  0  0  0
 58 64  1  0  0  0  0
 59 75  1  0  0  0  0
 60 76  1  0  0  0  0
 61 85  1  0  0  0  0
 62 64  1  0  0  0  0
 62 74  1  0  0  0  0
 63 76  1  0  0  0  0
 65 67  1  0  0  0  0
M  CHG  1  76   1
M  ISO  4  42 100  61 101  75 100  85 101
M  END
> <Batch ID>
0097

> <Smiles>
CNC(C)C(=O)NC(C(=O)N1Cc2cc([101O:1][101CH2:1]C3CC(=O)N(c4ccc([100N:0](C)[100C:0](=O)N5CCCC(n6nc(-c7ccc(Oc8ccc(F)cc8F)cc7)c(C(N)=O)c6N)C5)c(N)c4)C3=O)ccc2CC1C(=O)NC1CCCc2ccccc21)C(C)(C)C

> <Shape>
0.216

> <Color>
0.104

> <Negative vol penalty>
0.000

$$$$

  -OEChem-04052300493D

 89 98  0     1  0  0  0  0  0999 V2000
  -29.0983  -35.1277   24.6648 C   0  0  0  0  0  0  0  0  0  0  0  0
  -29.1648  -33.8117   24.2184 C   0  0  0  0  0  0  0  0  0  0  0  0
  -30.0207  -18.4741   20.1882 C   0  0  0  0  0  0  0  0  0  0  0  0
  -27.7443  -18.8517   20.9042 C   0  0  0  0  0  0  0  0  0  0  0  0
  -29.7127  -15.7589   21.1876 C   0  0  0  0  0  0  0  0  0  0  0  0
  -22.7003   -8.0058   26.2276 C   0  0  0  0  0  0  0  0  0  0  0  0
  -22.0270  -10.1049   25.2389 C   0  0  0  0  0  0  0  0  0  0  0  0
  -27.8966  -35.6361   25.1560 C   0  0  0  0  0  0  0  0  0  0  0  0
  -28.0298  -33.0030   24.2641 C   0  0  0  0  0  0  0  0  0  0  0  0
  -27.3663  -30.3440   20.0057 C   0  0  0  0  0  0  0  0  0  0  0  0
  -30.1896  -19.8460   20.0015 C   0  0  0  0  0  0  0  0  0  0  0  0
  -27.9132  -20.2237   20.7176 C   0  0  0  0  0  0  0  0  0  0  0  0
  -29.5439  -14.3870   21.3743 C   0  0  0  0  0  0  0  0  0  0  0  0
  -21.9170   -8.2823   27.3481 C   0  0  0  0  0  0  0  0  0  0  0  0
  -21.2437  -10.3814   26.3594 C   0  0  0  0  0  0  0  0  0  0  0  0
  -28.1587  -29.2099   19.8332 C   0  0  0  0  0  0  0  0  0  0  0  0
  -21.7154  -11.5037   29.5136 C   0  0  0  0  0  0  0  0  0  0  0  0
  -21.7898  -12.7867   30.0557 C   0  0  0  0  0  0  0  0  0  0  0  0
  -27.3640  -15.9769   20.6652 C   0  0  0  0  0  0  0  0  0  0  0  0
  -26.3187  -27.8231   20.5476 C   0  0  0  0  0  0  0  0  0  0  0  0
  -19.4260  -13.0911   29.6596 C   0  0  0  0  0  0  0  0  0  0  0  0
  -28.7980  -17.9769   20.6395 C   0  0  0  0  0  0  0  0  0  0  0  0
  -22.7554   -8.9172   25.1730 C   0  0  0  0  0  0  0  0  0  0  0  0
  -28.6227  -16.5539   20.8331 C   0  0  0  0  0  0  0  0  0  0  0  0
  -23.1685   -7.9550   22.8468 C   0  0  0  0  0  0  0  0  0  0  0  0
  -26.7438  -34.8360   25.1988 C   0  0  0  0  0  0  0  0  0  0  0  0
  -26.0454  -30.2268   20.4616 C   0  0  0  0  0  0  0  0  0  0  0  0
  -26.8119  -33.5007   24.7577 C   0  0  0  0  0  0  0  0  0  0  0  0
  -25.5108  -28.9571   20.7226 C   0  0  0  0  0  0  0  0  0  0  0  0
  -29.1359  -20.7208   20.2662 C   0  0  0  0  0  0  0  0  0  0  0  0
  -28.2851  -13.8100   21.2064 C   0  0  0  0  0  0  0  0  0  0  0  0
  -21.1886   -9.4701   27.4140 C   0  0  0  0  0  0  0  0  0  0  0  0
  -27.6358  -27.9495   20.1069 C   0  0  0  0  0  0  0  0  0  0  0  0
  -20.4963  -11.0144   29.0444 C   0  0  0  0  0  0  0  0  0  0  0  0
  -20.6451  -13.5804   30.1288 C   0  0  0  0  0  0  0  0  0  0  0  0
  -27.1951  -14.6050   20.8519 C   0  0  0  0  0  0  0  0  0  0  0  0
  -19.3516  -11.8081   29.1174 C   0  0  0  0  0  0  0  0  0  0  0  0
  -23.5648   -8.6324   24.0155 C   0  0  0  0  0  0  0  0  0  0  0  0
  -24.2927   -7.9449   22.0578 C   0  0  0  0  0  0  0  0  0  0  0  0
  -21.8977   -7.3859   22.5049 C   0  0  0  0  0  0  0  0  0  0  0  0
  -24.4560  -31.2476   23.0181 C   0  0  0  0  0  0  0  0  0  0  0  0
  -28.7951  -24.4503   20.0272 C   0  0  0  0  0  0  0  0  0  0  0  0
  -21.9048  -30.0080   21.4441 C   0  0  0  0  0  0  0  0  0  0  0  0
  -20.7249  -27.8015   19.1233 C   0  0  0  0  0  0  0  0  0  0  0  0
  -29.0951  -11.4871   21.7490 C   0  0  0  0  0  0  0  0  0  0  0  0
  -25.4794  -35.4153   25.7822 C   0  0  0  0  0  0  0  0  0  0  0  0
  -25.1953  -31.4579   20.6170 C   0  0  0  0  0  0  0  0  0  0  0  0
  -24.0922  -28.7757   21.1949 C   0  0  0  0  0  0  0  0  0  0  0  0
  -24.2284  -34.6068   25.4483 C   0  0  0  0  0  0  0  0  0  0  0  0
  -29.0727   -7.9776   22.3493 C   0  0  0  0  0  0  0  0  0  0  0  0
  -24.4768  -33.1194   25.6785 C   0  0  0  0  0  0  0  0  0  0  0  0
  -27.6203   -7.6846   22.7324 C   0  0  0  0  0  0  0  0  0  0  0  0
  -29.5414   -9.3264   22.8924 C   0  0  0  0  0  0  0  0  0  0  0  0
  -27.2283  -10.1731   22.9341 C   0  0  0  0  0  0  0  0  0  0  0  0
  -25.5961  -32.5997   24.7682 C   0  0  1  0  0  0  0  0  0  0  0  0
  -24.0271  -31.2599   21.5781 C   0  0  1  0  0  0  0  0  0  0  0  0
  -26.6907   -8.8545   22.3545 C   0  0  2  0  0  0  0  0  0  0  0  0
  -18.5902  -26.9910   18.0825 C   0  0  0  0  0  0  0  0  0  0  0  0
  -21.2885  -28.4024   23.9645 C   0  0  0  0  0  0  0  0  0  0  0  0
  -19.7827  -26.9513   22.5878 C   0  0  0  0  0  0  0  0  0  0  0  0
  -19.2837  -29.3828   22.8359 C   0  0  0  0  0  0  0  0  0  0  0  0
  -21.5759  -28.6681   16.4244 C   0  0  0  0  0  0  0  0  0  0  0  0
  -28.2733  -23.0613   20.3279 C   0  0  0  0  0  0  0  0  0  0  0  0
  -27.8074  -25.5811   20.2392 C   0  0  0  0  0  0  0  0  0  1  0  0
  -21.2312  -28.6578   21.3959 C   0  0  1  0  0  0  0  0  0  0  0  0
  -19.7458  -27.9738   17.9761 C   0  0  2  0  0  0  0  0  0  0  0  0
  -20.4239  -28.3518   22.6890 C   0  0  0  0  0  0  0  0  0  0  0  0
  -24.8412   -9.0240   23.9767 N   0  0  0  0  0  0  0  0  0  0  0  0
  -25.2566   -8.5914   22.7741 N   0  0  0  0  0  0  0  0  0  0  0  0
  -23.3028  -30.0102   21.3376 N   0  0  0  0  0  0  0  0  0  0  0  0
  -28.6149  -10.3873   22.4911 N   0  0  0  0  0  0  0  0  0  0  0  0
  -24.5409   -7.4462   20.8281 N   0  0  0  0  0  0  0  0  0  0  0  0
  -20.8503   -7.4852   23.4308 N   0  0  0  0  0  0  0  0  0  0  0  0
  -28.1166  -12.4160   21.3963 N   0  0  0  0  0  0  0  0  0  0  0  0
  -29.3038  -22.0856   20.0805 N   0  0  0  0  0  0  0  0  0  0  0  0
  -25.1016  -32.4003   23.4227 N   0  0  0  0  0  0  0  0  0  0  0  0
  -20.4324  -28.6435   20.1753 N   0  0  0  0  0  0  0  0  0  0  0  0
  -20.4321  -27.7529   16.6718 N   0  3  0  0  0  0  0  0  0  0  0  0
  -21.7016   -6.7920   21.4175 O   0  0  0  0  0  0  0  0  0  0  0  0
  -24.2174  -30.2655   23.7112 O   0  0  0  0  0  0  0  0  0  0  0  0
  -29.9427  -24.6596   19.6360 O   0  0  0  0  0  0  0  0  0  0  0  0
  -21.2154  -31.0238   21.5645 O   0  0  0  0  0  0  0  0  0  0  0  0
  -21.6540  -26.9976   19.0910 O   0  0  0  0  0  0  0  0  0  0  0  0
  -30.2816  -11.5832   21.4253 O   0  0  0  0  0  0  0  0  0  0  0  0
  -20.4240   -9.7401   28.5071 O   0  0  0  0  0  0  0  0  0  0  0  0
  -28.4073  -26.8409   19.9400 O   0  0  0  0  0  0  0  0  0  1  0  0
  -20.7164  -14.8119   30.6508 F   0  0  0  0  0  0  0  0  0  0  0  0
  -25.9808  -14.0610   20.6872 F   0  0  0  0  0  0  0  0  0  0  0  0
  -18.1774  -11.3430   28.6694 F   0  0  0  0  0  0  0  0  0  0  0  0
  1  2  1  0  0  0  0
  1  8  2  0  0  0  0
  2  9  2  0  0  0  0
  3 11  2  0  0  0  0
  3 22  1  0  0  0  0
  4 12  1  0  0  0  0
  4 22  2  0  0  0  0
  5 13  2  0  0  0  0
  5 24  1  0  0  0  0
  6 14  2  0  0  0  0
  6 23  1  0  0  0  0
  7 15  1  0  0  0  0
  7 23  2  0  0  0  0
  8 26  1  0  0  0  0
  9 28  1  0  0  0  0
 10 16  2  0  0  0  0
 10 27  1  0  0  0  0
 11 30  1  0  0  0  0
 12 30  2  0  0  0  0
 13 31  1  0  0  0  0
 14 32  1  0  0  0  0
 15 32  2  0  0  0  0
 16 33  1  0  0  0  0
 17 18  2  0  0  0  0
 17 34  1  0  0  0  0
 18 35  1  0  0  0  0
 19 24  2  0  0  0  0
 19 36  1  0  0  0  0
 20 29  1  0  0  0  0
 20 33  2  0  0  0  0
 21 35  2  0  0  0  0
 21 37  1  0  0  0  0
 22 24  1  0  0  0  0
 23 38  1  0  0  0  0
 25 38  1  0  0  0  0
 25 39  2  0  0  0  0
 25 40  1  0  0  0  0
 26 28  2  0  0  0  0
 26 46  1  0  0  0  0
 27 29  2  0  0  0  0
 27 47  1  0  0  0  0
 28 55  1  0  0  0  0
 29 48  1  0  0  0  0
 30 75  1  0  0  0  0
 31 36  2  0  0  0  0
 31 74  1  0  0  0  0
 32 85  1  0  0  0  0
 33 86  1  0  0  0  0
 34 37  2  0  0  0  0
 34 85  1  0  0  0  0
 35 87  1  0  0  0  0
 36 88  1  0  0  0  0
 37 89  1  0  0  0  0
 38 68  2  0  0  0  0
 39 69  1  0  0  0  0
 39 72  1  0  0  0  0
 40 73  1  0  0  0  0
 40 79  2  0  0  0  0
 41 56  1  0  0  0  0
 41 76  1  0  0  0  0
 41 80  2  0  0  0  0
 42 63  1  0  0  0  0
 42 64  1  0  0  0  0
 42 81  2  0  0  0  0
 43 65  1  0  0  0  0
 43 70  1  0  0  0  0
 43 82  2  0  0  0  0
 44 66  1  0  0  0  0
 44 77  1  0  0  0  0
 44 83  2  0  0  0  0
 45 71  1  0  0  0  0
 45 74  1  0  0  0  0
 45 84  2  0  0  0  0
 46 49  1  0  0  0  0
 47 56  1  0  0  0  0
 48 70  1  0  0  0  0
 49 51  1  0  0  0  0
 50 52  1  0  0  0  0
 50 53  1  0  0  0  0
 51 55  1  0  0  0  0
 52 57  1  0  0  0  0
 53 71  1  0  0  0  0
 54 57  1  0  0  0  0
 54 71  1  0  0  0  0
 55 76  1  0  0  0  0
 56 70  1  0  0  0  0
 57 69  1  0  0  0  0
 58 66  1  0  0  0  0
 59 67  1  0  0  0  0
 60 67  1  0  0  0  0
 61 67  1  0  0  0  0
 62 78  1  0  0  0  0
 63 75  1  0  0  0  0
 64 86  1  0  0  0  0
 65 67  1  0  0  0  0
 65 77  1  0  0  0  0
 66 78  1  0  0  0  0
 68 69  1  0  0  0  0
M  CHG  1  78   1
M  ISO  4  45 100  64 101  74 100  86 101
M  END
> <Batch ID>
0097

> <Smiles>
CNC(C)C(=O)NC(C(=O)N1Cc2cc([101O:1][101CH2:1]C(=O)CNc3ccc(-c4ccc([100NH:0][100C:0](=O)N5CCCC(n6nc(-c7ccc(Oc8ccc(F)cc8F)cc7)c(C(N)=O)c6N)C5)c(F)c4)cc3)ccc2CC1C(=O)NC1CCCc2ccccc21)C(C)(C)C

> <Shape>
0.278

> <Color>
0.069

> <Negative vol penalty>
0.000

$$$$

  -OEChem-04052300493D

 86 95  0     1  0  0  0  0  0999 V2000
  -34.3669  -11.6186   18.7105 C   0  0  0  0  0  0  0  0  0  0  0  0
  -33.7779  -12.8516   18.4494 C   0  0  0  0  0  0  0  0  0  0  0  0
  -24.7827  -28.8636   22.1790 C   0  0  0  0  0  0  0  0  0  0  0  0
  -24.5299  -30.4833   20.4042 C   0  0  0  0  0  0  0  0  0  0  0  0
  -33.6046  -10.4535   18.6362 C   0  0  0  0  0  0  0  0  0  0  0  0
  -32.4265  -12.9202   18.1127 C   0  0  0  0  0  0  0  0  0  0  0  0
  -28.4848  -17.3674   19.5929 C   0  0  0  0  0  0  0  0  0  0  0  0
  -27.0764  -22.6178   17.8484 C   0  0  0  0  0  0  0  0  0  0  0  0
  -28.3669  -23.0558   18.1454 C   0  0  0  0  0  0  0  0  0  0  0  0
  -24.3774  -29.8201   23.1097 C   0  0  0  0  0  0  0  0  0  0  0  0
  -24.1246  -31.4398   21.3350 C   0  0  0  0  0  0  0  0  0  0  0  0
  -28.0077  -18.4711   18.8872 C   0  0  0  0  0  0  0  0  0  0  0  0
  -21.4742  -31.1936   24.1669 C   0  0  0  0  0  0  0  0  0  0  0  0
  -20.5450  -30.8058   25.1322 C   0  0  0  0  0  0  0  0  0  0  0  0
  -26.0575  -17.2071   18.2406 C   0  0  0  0  0  0  0  0  0  0  0  0
  -27.9277  -22.7524   20.5017 C   0  0  0  0  0  0  0  0  0  0  0  0
  -22.1301  -31.3440   26.8742 C   0  0  0  0  0  0  0  0  0  0  0  0
  -24.8591  -29.1951   20.8262 C   0  0  0  0  0  0  0  0  0  0  0  0
  -24.4584  -27.3067   19.1586 C   0  0  0  0  0  0  0  0  0  0  0  0
  -32.2409  -10.5087   18.3079 C   0  0  0  0  0  0  0  0  0  0  0  0
  -27.7558  -16.1697   19.6187 C   0  0  0  0  0  0  0  0  0  0  0  0
  -31.6456  -11.7546   18.0326 C   0  0  0  0  0  0  0  0  0  0  0  0
  -26.5262  -16.0905   18.9494 C   0  0  0  0  0  0  0  0  0  0  0  0
  -26.2114  -22.2472   18.8781 C   0  0  0  0  0  0  0  0  0  0  0  0
  -28.7926  -23.1231   19.4720 C   0  0  0  0  0  0  0  0  0  0  0  0
  -24.0483  -31.1082   22.6877 C   0  0  0  0  0  0  0  0  0  0  0  0
  -26.7953  -18.3902   18.2085 C   0  0  0  0  0  0  0  0  0  0  0  0
  -22.7314  -31.6565   24.5552 C   0  0  0  0  0  0  0  0  0  0  0  0
  -20.8729  -30.8811   26.4858 C   0  0  0  0  0  0  0  0  0  0  0  0
  -26.6371  -22.3144   20.2047 C   0  0  0  0  0  0  0  0  0  0  0  0
  -23.0593  -31.7318   25.9089 C   0  0  0  0  0  0  0  0  0  0  0  0
  -25.2782  -28.2076   19.8643 C   0  0  0  0  0  0  0  0  0  0  0  0
  -25.3305  -26.5884   18.3776 C   0  0  0  0  0  0  0  0  0  0  0  0
  -23.7453  -21.9479   19.3859 C   0  0  0  0  0  0  0  0  0  0  0  0
  -23.0358  -27.1346   19.2048 C   0  0  0  0  0  0  0  0  0  0  0  0
  -28.2976  -13.1925   18.6459 C   0  0  0  0  0  0  0  0  0  0  0  0
  -25.4726  -12.6082   20.1293 C   0  0  0  0  0  0  0  0  0  0  0  0
  -22.4850  -13.8173   21.2515 C   0  0  0  0  0  0  0  0  0  0  0  0
  -30.8311  -24.5005   18.9836 C   0  0  0  0  0  0  0  0  0  0  0  0
  -31.4689   -9.2181   18.1936 C   0  0  0  0  0  0  0  0  0  0  0  0
  -28.2711  -14.9967   20.4067 C   0  0  0  0  0  0  0  0  0  0  0  0
  -25.6955  -14.8342   18.9628 C   0  0  0  0  0  0  0  0  0  0  0  0
  -22.5751  -21.3424   18.6476 C   0  0  0  0  0  0  0  0  0  0  0  0
  -29.9547   -9.4118   18.1966 C   0  0  0  0  0  0  0  0  0  0  0  0
  -23.0534  -21.2914   17.2089 C   0  0  0  0  0  0  0  0  0  0  0  0
  -29.9205  -27.2638   16.6972 C   0  0  0  0  0  0  0  0  0  0  0  0
  -29.5589  -10.5394   17.2486 C   0  0  0  0  0  0  0  0  0  0  0  0
  -28.5940  -27.7569   17.2723 C   0  0  0  0  0  0  0  0  0  0  0  0
  -30.8151  -26.6590   17.7749 C   0  0  0  0  0  0  0  0  0  0  0  0
  -28.8272  -26.0578   19.1271 C   0  0  0  0  0  0  0  0  0  0  0  0
  -30.1767  -11.8723   17.6884 C   0  0  1  0  0  0  0  0  0  0  0  0
  -27.6952  -13.6636   19.9393 C   0  0  1  0  0  0  0  0  0  0  0  0
  -27.8914  -26.6349   18.0544 C   0  0  1  0  0  0  0  0  0  0  0  0
  -24.5595  -21.0909   17.3352 C   0  0  2  0  0  0  0  0  0  0  0  0
  -20.3686  -13.0926   22.3885 C   0  0  0  0  0  0  0  0  0  0  0  0
  -24.5106  -11.3412   17.5257 C   0  0  0  0  0  0  0  0  0  0  0  0
  -22.1674  -11.5075   18.3918 C   0  0  0  0  0  0  0  0  0  0  0  0
  -23.8438  -10.1062   19.5956 C   0  0  0  0  0  0  0  0  0  0  0  0
  -30.8753  -22.8555   20.8067 C   0  0  0  0  0  0  0  0  0  0  0  0
  -22.9586  -15.6293   23.5431 C   0  0  0  0  0  0  0  0  0  0  0  0
  -24.9114  -19.6035   17.4120 C   0  0  0  0  0  0  0  0  0  1  0  0
  -24.0221  -12.6255   19.7115 C   0  0  1  0  0  0  0  0  0  0  0  0
  -21.7681  -13.6561   22.5798 C   0  0  2  0  0  0  0  0  0  0  0  0
  -23.6523  -11.4183   18.8041 C   0  0  0  0  0  0  0  0  0  0  0  0
  -26.5718  -28.0756   19.5588 N   0  0  0  0  0  0  0  0  0  0  0  0
  -26.5714  -27.0832   18.6526 N   0  0  0  0  0  0  0  0  0  0  0  0
  -24.8870  -21.7980   18.5702 N   0  0  0  0  0  0  0  0  0  0  0  0
  -26.2450  -13.7124   19.7421 N   0  0  0  0  0  0  0  0  0  0  0  0
  -30.1139  -25.6346   18.5506 N   0  0  0  0  0  0  0  0  0  0  0  0
  -25.1494  -25.5880   17.4895 N   0  0  0  0  0  0  0  0  0  0  0  0
  -22.2909  -27.9562   20.0617 N   0  0  0  0  0  0  0  0  0  0  0  0
  -29.4384  -12.4285   18.8019 N   0  0  0  0  0  0  0  0  0  0  0  0
  -23.2436  -12.7081   20.9426 N   0  0  0  0  0  0  0  0  0  0  0  0
  -30.1273  -23.5760   19.7788 N   0  0  0  0  0  0  0  0  0  0  0  0
  -21.6546  -14.9719   23.2702 N   0  3  0  0  0  0  0  0  0  0  0  0
  -23.6300  -22.4314   20.5029 O   0  0  0  0  0  0  0  0  0  0  0  0
  -22.4445  -26.2665   18.5190 O   0  0  0  0  0  0  0  0  0  0  0  0
  -27.7659  -13.4982   17.5850 O   0  0  0  0  0  0  0  0  0  0  0  0
  -25.9028  -11.6537   20.7816 O   0  0  0  0  0  0  0  0  0  0  0  0
  -22.3795  -14.8248   20.5556 O   0  0  0  0  0  0  0  0  0  0  0  0
  -32.0317  -24.3482   18.7270 O   0  0  0  0  0  0  0  0  0  0  0  0
  -23.6525  -32.0418   23.5957 O   0  0  0  0  0  0  0  0  0  0  0  0
  -26.3277  -19.4658   17.5184 O   0  0  0  0  0  0  0  0  0  1  0  0
  -19.9799  -30.5102   27.4128 F   0  0  0  0  0  0  0  0  0  0  0  0
  -25.8141  -21.9613   21.2026 F   0  0  0  0  0  0  0  0  0  0  0  0
  -24.2651  -32.1768   26.2881 F   0  0  0  0  0  0  0  0  0  0  0  0
  1  2  1  0  0  0  0
  1  5  2  0  0  0  0
  2  6  2  0  0  0  0
  3 10  2  0  0  0  0
  3 18  1  0  0  0  0
  4 11  1  0  0  0  0
  4 18  2  0  0  0  0
  5 20  1  0  0  0  0
  6 22  1  0  0  0  0
  7 12  2  0  0  0  0
  7 21  1  0  0  0  0
  8  9  2  0  0  0  0
  8 24  1  0  0  0  0
  9 25  1  0  0  0  0
 10 26  1  0  0  0  0
 11 26  2  0  0  0  0
 12 27  1  0  0  0  0
 13 14  2  0  0  0  0
 13 28  1  0  0  0  0
 14 29  1  0  0  0  0
 15 23  1  0  0  0  0
 15 27  2  0  0  0  0
 16 25  2  0  0  0  0
 16 30  1  0  0  0  0
 17 29  2  0  0  0  0
 17 31  1  0  0  0  0
 18 32  1  0  0  0  0
 19 32  1  0  0  0  0
 19 33  2  0  0  0  0
 19 35  1  0  0  0  0
 20 22  2  0  0  0  0
 20 40  1  0  0  0  0
 21 23  2  0  0  0  0
 21 41  1  0  0  0  0
 22 51  1  0  0  0  0
 23 42  1  0  0  0  0
 24 30  2  0  0  0  0
 24 67  1  0  0  0  0
 25 74  1  0  0  0  0
 26 82  1  0  0  0  0
 27 83  1  0  0  0  0
 28 31  2  0  0  0  0
 28 82  1  0  0  0  0
 29 84  1  0  0  0  0
 30 85  1  0  0  0  0
 31 86  1  0  0  0  0
 32 65  2  0  0  0  0
 33 66  1  0  0  0  0
 33 70  1  0  0  0  0
 34 43  1  0  0  0  0
 34 67  1  0  0  0  0
 34 76  2  0  0  0  0
 35 71  1  0  0  0  0
 35 77  2  0  0  0  0
 36 52  1  0  0  0  0
 36 72  1  0  0  0  0
 36 78  2  0  0  0  0
 37 62  1  0  0  0  0
 37 68  1  0  0  0  0
 37 79  2  0  0  0  0
 38 63  1  0  0  0  0
 38 73  1  0  0  0  0
 38 80  2  0  0  0  0
 39 69  1  0  0  0  0
 39 74  1  0  0  0  0
 39 81  2  0  0  0  0
 40 44  1  0  0  0  0
 41 52  1  0  0  0  0
 42 68  1  0  0  0  0
 43 45  1  0  0  0  0
 44 47  1  0  0  0  0
 45 54  1  0  0  0  0
 46 48  1  0  0  0  0
 46 49  1  0  0  0  0
 47 51  1  0  0  0  0
 48 53  1  0  0  0  0
 49 69  1  0  0  0  0
 50 53  1  0  0  0  0
 50 69  1  0  0  0  0
 51 72  1  0  0  0  0
 52 68  1  0  0  0  0
 53 66  1  0  0  0  0
 54 61  1  0  0  0  0
 54 67  1  0  0  0  0
 55 63  1  0  0  0  0
 56 64  1  0  0  0  0
 57 64  1  0  0  0  0
 58 64  1  0  0  0  0
 59 74  1  0  0  0  0
 60 75  1  0  0  0  0
 61 83  1  0  0  0  0
 62 64  1  0  0  0  0
 62 73  1  0  0  0  0
 63 75  1  0  0  0  0
 65 66  1  0  0  0  0
M  CHG  1  75   1
M  ISO  4  39 100  61 101  74 100  83 101
M  END
> <Batch ID>
0097

> <Smiles>
CNC(C)C(=O)NC(C(=O)N1Cc2cc([101O:1][101CH2:1]C3CCC(=O)N3c3ccc([100N:0](C)[100C:0](=O)N4CCCC(n5nc(-c6ccc(Oc7ccc(F)cc7F)cc6)c(C(N)=O)c5N)C4)cc3F)ccc2CC1C(=O)NC1CCCc2ccccc21)C(C)(C)C

> <Shape>
0.221

> <Color>
0.071

> <Negative vol penalty>
0.000

$$$$

  -OEChem-04052300493D

 86 95  0     1  0  0  0  0  0999 V2000
  -15.8045  -27.2289   24.1265 C   0  0  0  0  0  0  0  0  0  0  0  0
  -16.8685  -26.7548   23.3658 C   0  0  0  0  0  0  0  0  0  0  0  0
  -24.5827   -8.8022   21.3180 C   0  0  0  0  0  0  0  0  0  0  0  0
  -22.7249  -10.1908   20.6419 C   0  0  0  0  0  0  0  0  0  0  0  0
  -15.6784  -28.5957   24.3711 C   0  0  0  0  0  0  0  0  0  0  0  0
  -17.8065  -27.6474   22.8484 C   0  0  0  0  0  0  0  0  0  0  0  0
  -22.5680  -26.0393   23.4702 C   0  0  0  0  0  0  0  0  0  0  0  0
  -27.5426  -19.0764   21.6964 C   0  0  0  0  0  0  0  0  0  0  0  0
  -26.6353  -20.7360   23.1997 C   0  0  0  0  0  0  0  0  0  0  0  0
  -27.4202  -18.1074   22.6922 C   0  0  0  0  0  0  0  0  0  0  0  0
  -26.5128  -19.7669   24.1955 C   0  0  0  0  0  0  0  0  0  0  0  0
  -23.7159   -7.7216   21.4809 C   0  0  0  0  0  0  0  0  0  0  0  0
  -21.8580   -9.1102   20.8047 C   0  0  0  0  0  0  0  0  0  0  0  0
  -23.0284  -25.0582   22.5930 C   0  0  0  0  0  0  0  0  0  0  0  0
  -21.4892   -6.6400   23.7823 C   0  0  0  0  0  0  0  0  0  0  0  0
  -21.6273   -5.8674   24.9354 C   0  0  0  0  0  0  0  0  0  0  0  0
  -24.1610  -26.7524   21.3023 C   0  0  0  0  0  0  0  0  0  0  0  0
  -22.0752   -3.9202   23.5771 C   0  0  0  0  0  0  0  0  0  0  0  0
  -24.0872  -10.0368   20.8986 C   0  0  0  0  0  0  0  0  0  0  0  0
  -26.0875  -11.2342   19.8628 C   0  0  0  0  0  0  0  0  0  0  0  0
  -16.6207  -29.5046   23.8645 C   0  0  0  0  0  0  0  0  0  0  0  0
  -22.8922  -27.3878   23.2634 C   0  0  0  0  0  0  0  0  0  0  0  0
  -17.6921  -29.0278   23.0853 C   0  0  0  0  0  0  0  0  0  0  0  0
  -23.7056  -27.7483   22.1797 C   0  0  0  0  0  0  0  0  0  0  0  0
  -27.1502  -20.3907   21.9502 C   0  0  0  0  0  0  0  0  0  0  0  0
  -26.9052  -18.4526   23.9417 C   0  0  0  0  0  0  0  0  0  0  0  0
  -22.3535   -7.8756   21.2242 C   0  0  0  0  0  0  0  0  0  0  0  0
  -23.8226  -25.4151   21.5072 C   0  0  0  0  0  0  0  0  0  0  0  0
  -21.6440   -6.0527   22.5266 C   0  0  0  0  0  0  0  0  0  0  0  0
  -21.9203   -4.5076   24.8328 C   0  0  0  0  0  0  0  0  0  0  0  0
  -21.9370   -4.6929   22.4240 C   0  0  0  0  0  0  0  0  0  0  0  0
  -24.9821  -11.1536   20.7307 C   0  0  0  0  0  0  0  0  0  0  0  0
  -26.6021  -12.4893   20.0778 C   0  0  0  0  0  0  0  0  0  0  0  0
  -28.2911  -21.3061   19.9475 C   0  0  0  0  0  0  0  0  0  0  0  0
  -26.6030  -10.2614   18.9443 C   0  0  0  0  0  0  0  0  0  0  0  0
  -21.2257  -30.0328   22.6888 C   0  0  0  0  0  0  0  0  0  0  0  0
  -24.1216  -31.4596   23.0053 C   0  0  0  0  0  0  0  0  0  0  0  0
  -27.5138  -30.7901   21.9747 C   0  0  0  0  0  0  0  0  0  0  0  0
  -26.5498  -16.0944   24.6514 C   0  0  0  0  0  0  0  0  0  0  0  0
  -16.4164  -30.9777   24.1156 C   0  0  0  0  0  0  0  0  0  0  0  0
  -22.4098  -28.4308   24.2339 C   0  0  0  0  0  0  0  0  0  0  0  0
  -24.0989  -29.1797   21.9250 C   0  0  0  0  0  0  0  0  0  0  0  0
  -28.1538  -22.2162   18.7415 C   0  0  0  0  0  0  0  0  0  0  0  0
  -17.6606  -31.8199   23.8456 C   0  0  0  0  0  0  0  0  0  0  0  0
  -27.5495  -23.5693   19.0460 C   0  0  0  0  0  0  0  0  0  0  0  0
  -25.3191  -16.8928   21.4125 C   0  0  0  0  0  0  0  0  0  0  0  0
  -18.2921  -31.4277   22.5137 C   0  0  0  0  0  0  0  0  0  0  0  0
  -25.1904  -15.5047   20.7861 C   0  0  0  0  0  0  0  0  0  0  0  0
  -24.9020  -16.8980   22.8835 C   0  0  0  0  0  0  0  0  0  0  0  0
  -26.4498  -22.6094   21.0492 C   0  0  0  0  0  0  0  0  0  0  0  0
  -25.4723  -14.4982   23.0836 C   0  0  0  0  0  0  0  0  0  0  0  0
  -18.7437  -29.9623   22.5275 C   0  0  1  0  0  0  0  0  0  0  0  0
  -22.3755  -29.8336   23.6353 C   0  0  1  0  0  0  0  0  0  0  0  0
  -26.2141  -23.3653   19.7424 C   0  0  1  0  0  0  0  0  0  0  0  0
  -25.9395  -14.4507   21.6205 C   0  0  1  0  0  0  0  0  0  0  0  0
  -29.6971  -31.4851   22.9979 C   0  0  0  0  0  0  0  0  0  0  0  0
  -23.9614  -33.7976   21.0513 C   0  0  0  0  0  0  0  0  0  0  0  0
  -26.4345  -33.5973   20.7172 C   0  0  0  0  0  0  0  0  0  0  0  0
  -25.5231  -34.1491   22.9727 C   0  0  0  0  0  0  0  0  0  0  0  0
  -27.1312  -17.8130   26.3496 C   0  0  0  0  0  0  0  0  0  0  0  0
  -28.4579  -27.9903   22.1454 C   0  0  0  0  0  0  0  0  0  0  0  0
  -25.5232  -24.7017   20.0055 C   0  0  0  0  0  0  0  0  0  1  0  0
  -25.2518  -31.8047   22.0659 C   0  0  1  0  0  0  0  0  0  0  0  0
  -28.6689  -30.3724   22.8666 C   0  0  2  0  0  0  0  0  0  0  0  0
  -25.2756  -33.3149   21.6969 C   0  0  0  0  0  0  0  0  0  0  0  0
  -24.8042  -12.2687   21.4441 N   0  0  0  0  0  0  0  0  0  0  0  0
  -25.8049  -13.0618   21.0248 N   0  0  0  0  0  0  0  0  0  0  0  0
  -27.2776  -21.3965   20.9171 N   0  0  0  0  0  0  0  0  0  0  0  0
  -23.5971  -30.1637   22.8985 N   0  0  0  0  0  0  0  0  0  0  0  0
  -25.6123  -15.8501   23.6302 N   0  0  0  0  0  0  0  0  0  0  0  0
  -27.6542  -13.1481   19.5474 N   0  0  0  0  0  0  0  0  0  0  0  0
  -26.1150  -10.2586   17.6304 N   0  0  0  0  0  0  0  0  0  0  0  0
  -19.9846  -29.8228   23.2591 N   0  0  0  0  0  0  0  0  0  0  0  0
  -26.4734  -31.3261   22.7038 N   0  0  0  0  0  0  0  0  0  0  0  0
  -26.7783  -17.4497   24.9729 N   0  0  0  0  0  0  0  0  0  0  0  0
  -29.3472  -29.1694   22.3065 N   0  3  0  0  0  0  0  0  0  0  0  0
  -29.2372  -20.5142   19.9714 O   0  0  0  0  0  0  0  0  0  0  0  0
  -27.4588   -9.4092   19.2831 O   0  0  0  0  0  0  0  0  0  0  0  0
  -21.4478  -30.3548   21.5275 O   0  0  0  0  0  0  0  0  0  0  0  0
  -23.7237  -32.3063   23.8094 O   0  0  0  0  0  0  0  0  0  0  0  0
  -27.5339  -30.6577   20.7529 O   0  0  0  0  0  0  0  0  0  0  0  0
  -27.1192  -15.1726   25.2482 O   0  0  0  0  0  0  0  0  0  0  0  0
  -21.5074   -6.8213   21.3827 O   0  0  0  0  0  0  0  0  0  0  0  0
  -24.2728  -24.4596   20.6492 O   0  0  0  0  0  0  0  0  0  1  0  0
  -22.0544   -3.7661   25.9402 F   0  0  0  0  0  0  0  0  0  0  0  0
  -22.0881   -4.1233   21.2204 F   0  0  0  0  0  0  0  0  0  0  0  0
  1  2  1  0  0  0  0
  1  5  2  0  0  0  0
  2  6  2  0  0  0  0
  3 12  2  0  0  0  0
  3 19  1  0  0  0  0
  4 13  1  0  0  0  0
  4 19  2  0  0  0  0
  5 21  1  0  0  0  0
  6 23  1  0  0  0  0
  7 14  2  0  0  0  0
  7 22  1  0  0  0  0
  8 10  2  0  0  0  0
  8 25  1  0  0  0  0
  9 11  1  0  0  0  0
  9 25  2  0  0  0  0
 10 26  1  0  0  0  0
 11 26  2  0  0  0  0
 12 27  1  0  0  0  0
 13 27  2  0  0  0  0
 14 28  1  0  0  0  0
 15 16  2  0  0  0  0
 15 29  1  0  0  0  0
 16 30  1  0  0  0  0
 17 24  1  0  0  0  0
 17 28  2  0  0  0  0
 18 30  2  0  0  0  0
 18 31  1  0  0  0  0
 19 32  1  0  0  0  0
 20 32  1  0  0  0  0
 20 33  2  0  0  0  0
 20 35  1  0  0  0  0
 21 23  2  0  0  0  0
 21 40  1  0  0  0  0
 22 24  2  0  0  0  0
 22 41  1  0  0  0  0
 23 52  1  0  0  0  0
 24 42  1  0  0  0  0
 25 68  1  0  0  0  0
 26 75  1  0  0  0  0
 27 83  1  0  0  0  0
 28 84  1  0  0  0  0
 29 31  2  0  0  0  0
 29 83  1  0  0  0  0
 30 85  1  0  0  0  0
 31 86  1  0  0  0  0
 32 66  2  0  0  0  0
 33 67  1  0  0  0  0
 33 71  1  0  0  0  0
 34 43  1  0  0  0  0
 34 68  1  0  0  0  0
 34 77  2  0  0  0  0
 35 72  1  0  0  0  0
 35 78  2  0  0  0  0
 36 53  1  0  0  0  0
 36 73  1  0  0  0  0
 36 79  2  0  0  0  0
 37 63  1  0  0  0  0
 37 69  1  0  0  0  0
 37 80  2  0  0  0  0
 38 64  1  0  0  0  0
 38 74  1  0  0  0  0
 38 81  2  0  0  0  0
 39 70  1  0  0  0  0
 39 75  1  0  0  0  0
 39 82  2  0  0  0  0
 40 44  1  0  0  0  0
 41 53  1  0  0  0  0
 42 69  1  0  0  0  0
 43 45  1  0  0  0  0
 44 47  1  0  0  0  0
 45 54  1  0  0  0  0
 46 48  1  0  0  0  0
 46 49  1  0  0  0  0
 47 52  1  0  0  0  0
 48 55  1  0  0  0  0
 49 70  1  0  0  0  0
 50 54  1  0  0  0  0
 50 68  1  0  0  0  0
 51 55  1  0  0  0  0
 51 70  1  0  0  0  0
 52 73  1  0  0  0  0
 53 69  1  0  0  0  0
 54 62  1  0  0  0  0
 55 67  1  0  0  0  0
 56 64  1  0  0  0  0
 57 65  1  0  0  0  0
 58 65  1  0  0  0  0
 59 65  1  0  0  0  0
 60 75  1  0  0  0  0
 61 76  1  0  0  0  0
 62 84  1  0  0  0  0
 63 65  1  0  0  0  0
 63 74  1  0  0  0  0
 64 76  1  0  0  0  0
 66 67  1  0  0  0  0
M  CHG  1  76   1
M  ISO  4  39 100  62 101  75 100  84 101
M  END
> <Batch ID>
0097

> <Smiles>
CNC(C)C(=O)NC(C(=O)N1Cc2cc([101O:1][101CH2:1]C3CCC(=O)N(c4ccc([100N:0](C)[100C:0](=O)N5CCCC(n6nc(-c7ccc(Oc8ccc(F)cc8F)cc7)c(C(N)=O)c6N)C5)cc4)C3)ccc2CC1C(=O)NC1CCCc2ccccc21)C(C)(C)C

> <Shape>
0.271

> <Color>
0.119

> <Negative vol penalty>
0.000

$$$$

  -OEChem-04052300493D

 90 99  0     1  0  0  0  0  0999 V2000
  -28.1053  -38.4733   23.7949 C   0  0  0  0  0  0  0  0  0  0  0  0
  -28.8476  -37.3051   23.9348 C   0  0  0  0  0  0  0  0  0  0  0  0
  -23.3747   -9.3504   19.8647 C   0  0  0  0  0  0  0  0  0  0  0  0
  -23.9747  -10.0151   22.1087 C   0  0  0  0  0  0  0  0  0  0  0  0
  -26.7531  -38.4836   24.1346 C   0  0  0  0  0  0  0  0  0  0  0  0
  -28.2383  -36.1466   24.4155 C   0  0  0  0  0  0  0  0  0  0  0  0
  -28.1534  -30.1020   20.4981 C   0  0  0  0  0  0  0  0  0  0  0  0
  -27.3773  -19.1722   19.2682 C   0  0  0  0  0  0  0  0  0  0  0  0
  -29.0159  -20.3705   20.5783 C   0  0  0  0  0  0  0  0  0  0  0  0
  -27.1571  -20.3145   18.4987 C   0  0  0  0  0  0  0  0  0  0  0  0
  -28.7958  -21.5128   19.8087 C   0  0  0  0  0  0  0  0  0  0  0  0
  -22.1105   -8.9703   20.3153 C   0  0  0  0  0  0  0  0  0  0  0  0
  -22.7105   -9.6351   22.5593 C   0  0  0  0  0  0  0  0  0  0  0  0
  -28.2791  -28.8483   19.8992 C   0  0  0  0  0  0  0  0  0  0  0  0
  -20.7307   -6.3483   21.9417 C   0  0  0  0  0  0  0  0  0  0  0  0
  -20.2263   -5.1256   21.4989 C   0  0  0  0  0  0  0  0  0  0  0  0
  -26.9567  -27.8598   21.6662 C   0  0  0  0  0  0  0  0  0  0  0  0
  -18.3449   -6.2642   20.4982 C   0  0  0  0  0  0  0  0  0  0  0  0
  -24.3068   -9.8728   20.7614 C   0  0  0  0  0  0  0  0  0  0  0  0
  -26.5766   -9.4460   19.6782 C   0  0  0  0  0  0  0  0  0  0  0  0
  -26.1247  -37.3221   24.6107 C   0  0  0  0  0  0  0  0  0  0  0  0
  -27.4151  -30.2421   21.6765 C   0  0  0  0  0  0  0  0  0  0  0  0
  -26.8768  -36.1417   24.7632 C   0  0  0  0  0  0  0  0  0  0  0  0
  -26.8169  -29.1152   22.2639 C   0  0  0  0  0  0  0  0  0  0  0  0
  -28.3067  -19.2002   20.3081 C   0  0  0  0  0  0  0  0  0  0  0  0
  -27.8663  -21.4848   18.7689 C   0  0  0  0  0  0  0  0  0  0  0  0
  -21.7784   -9.1127   21.6625 C   0  0  0  0  0  0  0  0  0  0  0  0
  -27.6824  -27.7300   20.4820 C   0  0  0  0  0  0  0  0  0  0  0  0
  -20.0423   -7.5289   21.6629 C   0  0  0  0  0  0  0  0  0  0  0  0
  -19.0334   -5.0835   20.7771 C   0  0  0  0  0  0  0  0  0  0  0  0
  -18.8494   -7.4869   20.9411 C   0  0  0  0  0  0  0  0  0  0  0  0
  -25.6130  -10.2650   20.2967 C   0  0  0  0  0  0  0  0  0  0  0  0
  -27.6345  -10.2866   19.4318 C   0  0  0  0  0  0  0  0  0  0  0  0
  -27.2491  -22.5655   16.6238 C   0  0  0  0  0  0  0  0  0  0  0  0
  -26.5205   -8.0502   19.3553 C   0  0  0  0  0  0  0  0  0  0  0  0
  -26.1290  -32.5477   24.3422 C   0  0  0  0  0  0  0  0  0  0  0  0
  -23.8657  -30.5797   23.6983 C   0  0  0  0  0  0  0  0  0  0  0  0
  -30.0020  -17.4737   21.0277 C   0  0  0  0  0  0  0  0  0  0  0  0
  -20.8613  -29.0411   23.2049 C   0  0  0  0  0  0  0  0  0  0  0  0
  -29.5081  -15.1908   21.9983 C   0  0  0  0  0  0  0  0  0  0  0  0
  -24.6720  -37.3943   25.0098 C   0  0  0  0  0  0  0  0  0  0  0  0
  -27.3048  -31.5625   22.3894 C   0  0  0  0  0  0  0  0  0  0  0  0
  -26.0612  -29.3075   23.5503 C   0  0  0  0  0  0  0  0  0  0  0  0
  -26.7359  -23.8343   15.9695 C   0  0  0  0  0  0  0  0  0  0  0  0
  -24.0122  -36.0257   25.1576 C   0  0  0  0  0  0  0  0  0  0  0  0
  -27.4204  -25.0995   16.4382 C   0  0  0  0  0  0  0  0  0  0  0  0
  -28.6484  -14.8808   18.5581 C   0  0  0  0  0  0  0  0  0  0  0  0
  -24.9041  -35.0874   25.9645 C   0  0  0  0  0  0  0  0  0  0  0  0
  -27.8612  -13.5694   18.5557 C   0  0  0  0  0  0  0  0  0  0  0  0
  -28.3383  -15.7204   19.7959 C   0  0  0  0  0  0  0  0  0  0  0  0
  -28.0315  -23.9651   18.5555 C   0  0  0  0  0  0  0  0  0  0  0  0
  -27.7545  -13.6922   21.0816 C   0  0  0  0  0  0  0  0  0  0  0  0
  -26.2457  -34.8583   25.2579 C   0  0  1  0  0  0  0  0  0  0  0  0
  -25.9419  -31.7661   23.0751 C   0  0  1  0  0  0  0  0  0  0  0  0
  -27.3238  -25.1778   17.9529 C   0  0  1  0  0  0  0  0  0  0  0  0
  -28.0627  -12.7946   19.8716 C   0  0  1  0  0  0  0  0  0  0  0  0
  -28.1979  -18.1472   22.6287 C   0  0  0  0  0  0  0  0  0  0  0  0
  -18.7125  -28.4930   24.3795 C   0  0  0  0  0  0  0  0  0  0  0  0
  -25.2786  -28.3583   25.2388 C   0  0  0  0  0  0  0  0  0  0  0  0
  -23.0441  -27.2924   25.6114 C   0  0  0  0  0  0  0  0  0  0  0  0
  -23.5099  -29.5634   26.5325 C   0  0  0  0  0  0  0  0  0  0  0  0
  -31.6023  -16.3251   22.4720 C   0  0  0  0  0  0  0  0  0  0  0  0
  -19.2659  -30.6025   21.2618 C   0  0  0  0  0  0  0  0  0  0  0  0
  -27.9340  -26.4770   18.4747 C   0  0  0  0  0  0  0  0  0  1  0  0
  -28.5470  -17.9528   21.1483 C   0  0  1  0  0  0  0  0  0  0  0  0
  -23.1846  -29.2790   24.0414 C   0  0  1  0  0  0  0  0  0  0  0  0
  -19.4400  -29.4906   23.4917 C   0  0  2  0  0  0  0  0  0  0  0  0
  -23.7635  -28.6287   25.3297 C   0  0  0  0  0  0  0  0  0  0  0  0
  -26.0225  -11.5288   20.4349 N   0  0  0  0  0  0  0  0  0  0  0  0
  -27.2552  -11.5103   19.8998 N   0  0  0  0  0  0  0  0  0  0  0  0
  -27.6383  -22.6703   17.9704 N   0  0  0  0  0  0  0  0  0  0  0  0
  -25.2473  -30.5310   23.4767 N   0  0  0  0  0  0  0  0  0  0  0  0
  -28.5386  -14.9267   21.0153 N   0  0  0  0  0  0  0  0  0  0  0  0
  -28.8430  -10.0911   18.8627 N   0  0  0  0  0  0  0  0  0  0  0  0
  -26.9692   -7.1254   20.3080 N   0  0  0  0  0  0  0  0  0  0  0  0
  -26.0893  -33.9181   24.1689 N   0  0  0  0  0  0  0  0  0  0  0  0
  -21.7569  -29.5713   24.1093 N   0  0  0  0  0  0  0  0  0  0  0  0
  -30.3447  -16.2981   21.7396 N   0  0  0  0  0  0  0  0  0  0  0  0
  -18.6754  -29.6333   22.2204 N   0  3  0  0  0  0  0  0  0  0  0  0
  -27.2364  -21.5251   15.9603 O   0  0  0  0  0  0  0  0  0  0  0  0
  -26.1005   -7.6363   18.2481 O   0  0  0  0  0  0  0  0  0  0  0  0
  -26.2957  -31.9525   25.4003 O   0  0  0  0  0  0  0  0  0  0  0  0
  -23.1943  -31.6133   23.6335 O   0  0  0  0  0  0  0  0  0  0  0  0
  -30.8305  -18.1251   20.3837 O   0  0  0  0  0  0  0  0  0  0  0  0
  -21.1478  -28.2914   22.2741 O   0  0  0  0  0  0  0  0  0  0  0  0
  -29.6531  -14.5044   23.0149 O   0  0  0  0  0  0  0  0  0  0  0  0
  -20.5448   -8.7421   22.1025 O   0  0  0  0  0  0  0  0  0  0  0  0
  -27.8064  -26.4986   19.8842 O   0  0  0  0  0  0  0  0  0  1  0  0
  -18.5499   -3.9094   20.3506 F   0  0  0  0  0  0  0  0  0  0  0  0
  -18.1842   -8.6180   20.6691 F   0  0  0  0  0  0  0  0  0  0  0  0
  1  2  1  0  0  0  0
  1  5  2  0  0  0  0
  2  6  2  0  0  0  0
  3 12  2  0  0  0  0
  3 19  1  0  0  0  0
  4 13  1  0  0  0  0
  4 19  2  0  0  0  0
  5 21  1  0  0  0  0
  6 23  1  0  0  0  0
  7 14  2  0  0  0  0
  7 22  1  0  0  0  0
  8 10  2  0  0  0  0
  8 25  1  0  0  0  0
  9 11  1  0  0  0  0
  9 25  2  0  0  0  0
 10 26  1  0  0  0  0
 11 26  2  0  0  0  0
 12 27  1  0  0  0  0
 13 27  2  0  0  0  0
 14 28  1  0  0  0  0
 15 16  2  0  0  0  0
 15 29  1  0  0  0  0
 16 30  1  0  0  0  0
 17 24  1  0  0  0  0
 17 28  2  0  0  0  0
 18 30  2  0  0  0  0
 18 31  1  0  0  0  0
 19 32  1  0  0  0  0
 20 32  1  0  0  0  0
 20 33  2  0  0  0  0
 20 35  1  0  0  0  0
 21 23  2  0  0  0  0
 21 41  1  0  0  0  0
 22 24  2  0  0  0  0
 22 42  1  0  0  0  0
 23 53  1  0  0  0  0
 24 43  1  0  0  0  0
 25 65  1  0  0  0  0
 26 71  1  0  0  0  0
 27 87  1  0  0  0  0
 28 88  1  0  0  0  0
 29 31  2  0  0  0  0
 29 87  1  0  0  0  0
 30 89  1  0  0  0  0
 31 90  1  0  0  0  0
 32 69  2  0  0  0  0
 33 70  1  0  0  0  0
 33 74  1  0  0  0  0
 34 44  1  0  0  0  0
 34 71  1  0  0  0  0
 34 80  2  0  0  0  0
 35 75  1  0  0  0  0
 35 81  2  0  0  0  0
 36 54  1  0  0  0  0
 36 76  1  0  0  0  0
 36 82  2  0  0  0  0
 37 66  1  0  0  0  0
 37 72  1  0  0  0  0
 37 83  2  0  0  0  0
 38 65  1  0  0  0  0
 38 78  1  0  0  0  0
 38 84  2  0  0  0  0
 39 67  1  0  0  0  0
 39 77  1  0  0  0  0
 39 85  2  0  0  0  0
 40 73  1  0  0  0  0
 40 78  1  0  0  0  0
 40 86  2  0  0  0  0
 41 45  1  0  0  0  0
 42 54  1  0  0  0  0
 43 72  1  0  0  0  0
 44 46  1  0  0  0  0
 45 48  1  0  0  0  0
 46 55  1  0  0  0  0
 47 49  1  0  0  0  0
 47 50  1  0  0  0  0
 48 53  1  0  0  0  0
 49 56  1  0  0  0  0
 50 73  1  0  0  0  0
 51 55  1  0  0  0  0
 51 71  1  0  0  0  0
 52 56  1  0  0  0  0
 52 73  1  0  0  0  0
 53 76  1  0  0  0  0
 54 72  1  0  0  0  0
 55 64  1  0  0  0  0
 56 70  1  0  0  0  0
 57 65  1  0  0  0  0
 58 67  1  0  0  0  0
 59 68  1  0  0  0  0
 60 68  1  0  0  0  0
 61 68  1  0  0  0  0
 62 78  1  0  0  0  0
 63 79  1  0  0  0  0
 64 88  1  0  0  0  0
 66 68  1  0  0  0  0
 66 77  1  0  0  0  0
 67 79  1  0  0  0  0
 69 70  1  0  0  0  0
M  CHG  1  79   1
M  ISO  4  40 100  64 101  78 100  88 101
M  END
> <Batch ID>
0097

> <Smiles>
CNC(C)C(=O)NC(C(=O)N1Cc2cc([101O:1][101CH2:1]C3CCC(=O)N(c4ccc(C(C)C(=O)[100N:0](C)[100C:0](=O)N5CCCC(n6nc(-c7ccc(Oc8ccc(F)cc8F)cc7)c(C(N)=O)c6N)C5)cc4)C3)ccc2CC1C(=O)NC1CCCc2ccccc21)C(C)(C)C

> <Shape>
0.302

> <Color>
0.088

> <Negative vol penalty>
0.000

$$$$

  -OEChem-04052300493D

 86 95  0     1  0  0  0  0  0999 V2000
  -17.5179  -25.6562   20.7031 C   0  0  0  0  0  0  0  0  0  0  0  0
  -18.7214  -25.8584   20.0353 C   0  0  0  0  0  0  0  0  0  0  0  0
  -24.5733  -13.4280   17.4130 C   0  0  0  0  0  0  0  0  0  0  0  0
  -23.0400  -13.4933   19.2789 C   0  0  0  0  0  0  0  0  0  0  0  0
  -17.2347  -26.3787   21.8614 C   0  0  0  0  0  0  0  0  0  0  0  0
  -19.6421  -26.7842   20.5249 C   0  0  0  0  0  0  0  0  0  0  0  0
  -24.3828  -25.0037   20.5100 C   0  0  0  0  0  0  0  0  0  0  0  0
  -29.4258  -21.6418   18.3076 C   0  0  0  0  0  0  0  0  0  0  0  0
  -29.1067  -20.4874   19.0225 C   0  0  0  0  0  0  0  0  0  0  0  0
  -23.5043  -13.2182   16.5419 C   0  0  0  0  0  0  0  0  0  0  0  0
  -21.9710  -13.2835   18.4078 C   0  0  0  0  0  0  0  0  0  0  0  0
  -25.0548  -24.9922   19.2885 C   0  0  0  0  0  0  0  0  0  0  0  0
  -20.1236  -15.1126   16.2486 C   0  0  0  0  0  0  0  0  0  0  0  0
  -18.9870  -15.9032   16.4176 C   0  0  0  0  0  0  0  0  0  0  0  0
  -26.2104  -27.0159   19.9121 C   0  0  0  0  0  0  0  0  0  0  0  0
  -28.5113  -21.8369   20.9360 C   0  0  0  0  0  0  0  0  0  0  0  0
  -17.6639  -13.9188   16.8033 C   0  0  0  0  0  0  0  0  0  0  0  0
  -24.3412  -13.5655   18.7815 C   0  0  0  0  0  0  0  0  0  0  0  0
  -26.5487  -12.9337   19.8928 C   0  0  0  0  0  0  0  0  0  0  0  0
  -18.1565  -27.3068   22.3708 C   0  0  0  0  0  0  0  0  0  0  0  0
  -24.6119  -26.0291   21.4388 C   0  0  0  0  0  0  0  0  0  0  0  0
  -19.3704  -27.5208   21.6904 C   0  0  0  0  0  0  0  0  0  0  0  0
  -25.5419  -27.0366   21.1457 C   0  0  0  0  0  0  0  0  0  0  0  0
  -29.2877  -22.8938   18.9069 C   0  0  0  0  0  0  0  0  0  0  0  0
  -28.6494  -20.5849   20.3367 C   0  0  0  0  0  0  0  0  0  0  0  0
  -28.8305  -22.9914   20.2211 C   0  0  0  0  0  0  0  0  0  0  0  0
  -22.2032  -13.1459   17.0392 C   0  0  0  0  0  0  0  0  0  0  0  0
  -25.9666  -26.0000   18.9882 C   0  0  0  0  0  0  0  0  0  0  0  0
  -20.0303  -13.7250   16.3568 C   0  0  0  0  0  0  0  0  0  0  0  0
  -17.7572  -15.3064   16.6950 C   0  0  0  0  0  0  0  0  0  0  0  0
  -18.8005  -13.1281   16.6342 C   0  0  0  0  0  0  0  0  0  0  0  0
  -25.4451  -13.7818   19.6819 C   0  0  0  0  0  0  0  0  0  0  0  0
  -27.3064  -13.5842   20.8359 C   0  0  0  0  0  0  0  0  0  0  0  0
  -31.0019  -26.0148   17.8260 C   0  0  0  0  0  0  0  0  0  0  0  0
  -26.8612  -11.6708   19.2901 C   0  0  0  0  0  0  0  0  0  0  0  0
  -22.8190  -28.2906   22.7710 C   0  0  0  0  0  0  0  0  0  0  0  0
  -25.4957  -28.8366   24.5201 C   0  0  0  0  0  0  0  0  0  0  0  0
  -29.0497  -28.9882   23.9176 C   0  0  0  0  0  0  0  0  0  0  0  0
  -27.8575  -19.3319   22.3736 C   0  0  0  0  0  0  0  0  0  0  0  0
  -17.7857  -28.0985   23.5998 C   0  0  0  0  0  0  0  0  0  0  0  0
  -23.8988  -26.0124   22.7630 C   0  0  0  0  0  0  0  0  0  0  0  0
  -25.8387  -28.1488   22.1171 C   0  0  0  0  0  0  0  0  0  0  0  0
  -30.1821  -26.4236   16.6256 C   0  0  0  0  0  0  0  0  0  0  0  0
  -30.9812  -24.5549   18.2185 C   0  0  0  0  0  0  0  0  0  0  0  0
  -18.9756  -28.7888   24.2616 C   0  0  0  0  0  0  0  0  0  0  0  0
  -26.9085  -16.6399   24.5018 C   0  0  0  0  0  0  0  0  0  0  0  0
  -19.8310  -29.4972   23.2160 C   0  0  0  0  0  0  0  0  0  0  0  0
  -26.5317  -15.5222   23.5265 C   0  0  0  0  0  0  0  0  0  0  0  0
  -26.4929  -18.0135   23.9781 C   0  0  0  0  0  0  0  0  0  0  0  0
  -28.8243  -24.3347   16.9685 C   0  0  0  0  0  0  0  0  0  0  0  0
  -26.5903  -17.2140   21.6499 C   0  0  0  0  0  0  0  0  0  0  0  0
  -20.4052  -28.4983   22.2041 C   0  0  1  0  0  0  0  0  0  0  0  0
  -23.8283  -27.3870   23.4210 C   0  0  1  0  0  0  0  0  0  0  0  0
  -28.7710  -25.8462   16.7129 C   0  0  1  0  0  0  0  0  0  0  0  0
  -27.0468  -15.8180   22.1043 C   0  0  2  0  0  0  0  0  0  0  0  0
  -30.9852  -28.5600   25.4565 C   0  0  0  0  0  0  0  0  0  0  0  0
  -25.4191  -31.8513   24.9845 C   0  0  0  0  0  0  0  0  0  0  0  0
  -27.9223  -31.8378   25.0289 C   0  0  0  0  0  0  0  0  0  0  0  0
  -26.6394  -30.5558   26.7415 C   0  0  0  0  0  0  0  0  0  0  0  0
  -30.2052  -26.9669   22.0905 C   0  0  0  0  0  0  0  0  0  0  0  0
  -27.9289  -26.5672   17.7701 C   0  0  0  0  0  0  0  0  0  1  0  0
  -26.7176  -29.7086   24.3607 C   0  0  1  0  0  0  0  0  0  0  0  0
  -30.0920  -27.9815   24.3701 C   0  0  2  0  0  0  0  0  0  0  0  0
  -26.6605  -30.9783   25.2564 C   0  0  0  0  0  0  0  0  0  0  0  0
  -25.4933  -14.8867   20.4309 N   0  0  0  0  0  0  0  0  0  0  0  0
  -26.6363  -14.7373   21.1216 N   0  0  0  0  0  0  0  0  0  0  0  0
  -29.6132  -24.0393   18.1715 N   0  0  1  0  0  0  0  0  0  0  0  0
  -25.1114  -28.0921   23.3959 N   0  0  0  0  0  0  0  0  0  0  0  0
  -27.0202  -18.2253   22.6283 N   0  0  0  0  0  0  0  0  0  0  0  0
  -28.6832  -24.2497   20.8467 N   0  0  0  0  0  0  0  0  0  0  0  0
  -28.4736  -13.2766   21.4403 N   0  0  0  0  0  0  0  0  0  0  0  0
  -26.3902  -10.5025   19.9045 N   0  0  0  0  0  0  0  0  0  0  0  0
  -28.3244  -19.4119   21.0621 N   0  0  0  0  0  0  0  0  0  0  0  0
  -21.5308  -27.7906   22.7756 N   0  0  0  0  0  0  0  0  0  0  0  0
  -27.8686  -28.8491   24.6153 N   0  0  0  0  0  0  0  0  0  0  0  0
  -30.9512  -27.5742   23.2226 N   0  3  0  0  0  0  0  0  0  0  0  0
  -31.7451  -26.8171   18.3918 O   0  0  0  0  0  0  0  0  0  0  0  0
  -27.5519  -11.5802   18.2470 O   0  0  0  0  0  0  0  0  0  0  0  0
  -23.1818  -29.3627   22.3014 O   0  0  0  0  0  0  0  0  0  0  0  0
  -24.9082  -28.8111   25.6045 O   0  0  0  0  0  0  0  0  0  0  0  0
  -29.2634  -29.8176   23.0361 O   0  0  0  0  0  0  0  0  0  0  0  0
  -28.1616  -20.1334   23.2609 O   0  0  0  0  0  0  0  0  0  0  0  0
  -21.1598  -12.9414   16.1895 O   0  0  0  0  0  0  0  0  0  0  0  0
  -26.6234  -25.9915   17.7964 O   0  0  0  0  0  0  0  0  0  1  0  0
  -16.6661  -16.0659   16.8589 F   0  0  0  0  0  0  0  0  0  0  0  0
  -18.7049  -11.7957   16.7405 F   0  0  0  0  0  0  0  0  0  0  0  0
  1  2  1  0  0  0  0
  1  5  2  0  0  0  0
  2  6  2  0  0  0  0
  3 10  2  0  0  0  0
  3 18  1  0  0  0  0
  4 11  1  0  0  0  0
  4 18  2  0  0  0  0
  5 20  1  0  0  0  0
  6 22  1  0  0  0  0
  7 12  2  0  0  0  0
  7 21  1  0  0  0  0
  8  9  2  0  0  0  0
  8 24  1  0  0  0  0
  9 25  1  0  0  0  0
 10 27  1  0  0  0  0
 11 27  2  0  0  0  0
 12 28  1  0  0  0  0
 13 14  2  0  0  0  0
 13 29  1  0  0  0  0
 14 30  1  0  0  0  0
 15 23  1  0  0  0  0
 15 28  2  0  0  0  0
 16 25  2  0  0  0  0
 16 26  1  0  0  0  0
 17 30  2  0  0  0  0
 17 31  1  0  0  0  0
 18 32  1  0  0  0  0
 19 32  1  0  0  0  0
 19 33  2  0  0  0  0
 19 35  1  0  0  0  0
 20 22  2  0  0  0  0
 20 40  1  0  0  0  0
 21 23  2  0  0  0  0
 21 41  1  0  0  0  0
 22 52  1  0  0  0  0
 23 42  1  0  0  0  0
 24 26  2  0  0  0  0
 24 67  1  0  0  0  0
 25 73  1  0  0  0  0
 26 70  1  0  0  0  0
 27 83  1  0  0  0  0
 28 84  1  0  0  0  0
 29 31  2  0  0  0  0
 29 83  1  0  0  0  0
 30 85  1  0  0  0  0
 31 86  1  0  0  0  0
 32 65  2  0  0  0  0
 33 66  1  0  0  0  0
 33 71  1  0  0  0  0
 34 43  1  0  0  0  0
 34 44  1  0  0  0  0
 34 77  2  0  0  0  0
 35 72  1  0  0  0  0
 35 78  2  0  0  0  0
 36 53  1  0  0  0  0
 36 74  1  0  0  0  0
 36 79  2  0  0  0  0
 37 62  1  0  0  0  0
 37 68  1  0  0  0  0
 37 80  2  0  0  0  0
 38 63  1  0  0  0  0
 38 75  1  0  0  0  0
 38 81  2  0  0  0  0
 39 69  1  0  0  0  0
 39 73  1  0  0  0  0
 39 82  2  0  0  0  0
 40 45  1  0  0  0  0
 41 53  1  0  0  0  0
 42 68  1  0  0  0  0
 43 54  1  0  0  0  0
 44 67  1  0  0  0  0
 45 47  1  0  0  0  0
 46 48  1  0  0  0  0
 46 49  1  0  0  0  0
 47 52  1  0  0  0  0
 48 55  1  0  0  0  0
 49 69  1  0  0  0  0
 50 54  1  0  0  0  0
 50 67  1  0  0  0  0
 51 55  1  0  0  0  0
 51 69  1  0  0  0  0
 52 74  1  0  0  0  0
 53 68  1  0  0  0  0
 54 61  1  0  0  0  0
 55 66  1  0  0  0  0
 56 63  1  0  0  0  0
 57 64  1  0  0  0  0
 58 64  1  0  0  0  0
 59 64  1  0  0  0  0
 60 76  1  0  0  0  0
 61 84  1  0  0  0  0
 62 64  1  0  0  0  0
 62 75  1  0  0  0  0
 63 76  1  0  0  0  0
 65 66  1  0  0  0  0
M  CHG  1  76   1
M  ISO  4  39 100  61 101  73 100  84 101
M  END
> <Batch ID>
0097

> <Smiles>
CNC(C)C(=O)NC(C(=O)N1Cc2cc([101O:1][101CH2:1]C3CC(=O)CN(c4ccc([100NH:0][100C:0](=O)N5CCCC(n6nc(-c7ccc(Oc8ccc(F)cc8F)cc7)c(C(N)=O)c6N)C5)cc4N)C3)ccc2CC1C(=O)NC1CCCc2ccccc21)C(C)(C)C

> <Shape>
0.245

> <Color>
0.053

> <Negative vol penalty>
0.000

$$$$

  -OEChem-04052300493D

 86 95  0     1  0  0  0  0  0999 V2000
  -22.7526   -8.5734   21.9433 C   0  0  0  0  0  0  0  0  0  0  0  0
  -23.9808   -9.1495   22.2515 C   0  0  0  0  0  0  0  0  0  0  0  0
  -22.1990  -29.0550   23.5663 C   0  0  0  0  0  0  0  0  0  0  0  0
  -21.2368  -28.6253   21.3923 C   0  0  0  0  0  0  0  0  0  0  0  0
  -31.9128  -23.5236   20.0060 C   0  0  0  0  0  0  0  0  0  0  0  0
  -21.9842   -9.0888   20.9003 C   0  0  0  0  0  0  0  0  0  0  0  0
  -24.4419  -10.2409   21.5161 C   0  0  0  0  0  0  0  0  0  0  0  0
  -28.3025  -16.2314   22.2407 C   0  0  0  0  0  0  0  0  0  0  0  0
  -30.8392  -24.3905   19.8025 C   0  0  0  0  0  0  0  0  0  0  0  0
  -21.0495  -28.5510   24.1747 C   0  0  0  0  0  0  0  0  0  0  0  0
  -20.0873  -28.1212   22.0007 C   0  0  0  0  0  0  0  0  0  0  0  0
  -29.3867  -16.8905   21.6629 C   0  0  0  0  0  0  0  0  0  0  0  0
  -17.3094  -29.3521   23.4837 C   0  0  0  0  0  0  0  0  0  0  0  0
  -16.0758  -29.7633   22.9792 C   0  0  0  0  0  0  0  0  0  0  0  0
  -32.5786  -23.8070   17.7009 C   0  0  0  0  0  0  0  0  0  0  0  0
  -27.9379  -17.7460   19.9344 C   0  0  0  0  0  0  0  0  0  0  0  0
  -15.5171  -27.4676   22.4742 C   0  0  0  0  0  0  0  0  0  0  0  0
  -22.2926  -29.0922   22.1751 C   0  0  0  0  0  0  0  0  0  0  0  0
  -32.7826  -23.2319   18.9552 C   0  0  0  0  0  0  0  0  0  0  0  0
  -24.0117  -30.9100   21.6770 C   0  0  0  0  0  0  0  0  0  0  0  0
  -22.4317  -10.1930   20.1580 C   0  0  0  0  0  0  0  0  0  0  0  0
  -27.0278  -16.3160   21.6625 C   0  0  0  0  0  0  0  0  0  0  0  0
  -23.6794  -10.7707   20.4613 C   0  0  0  0  0  0  0  0  0  0  0  0
  -26.8386  -17.0892   20.5082 C   0  0  0  0  0  0  0  0  0  0  0  0
  -30.6352  -24.9656   18.5482 C   0  0  0  0  0  0  0  0  0  0  0  0
  -19.9936  -28.0841   23.3919 C   0  0  0  0  0  0  0  0  0  0  0  0
  -29.2051  -17.6456   20.5080 C   0  0  0  0  0  0  0  0  0  0  0  0
  -17.6470  -27.9987   23.4834 C   0  0  0  0  0  0  0  0  0  0  0  0
  -15.1796  -28.8211   22.4745 C   0  0  0  0  0  0  0  0  0  0  0  0
  -31.5049  -24.6739   17.4974 C   0  0  0  0  0  0  0  0  0  0  0  0
  -16.7509  -27.0565   22.9787 C   0  0  0  0  0  0  0  0  0  0  0  0
  -23.4796  -29.6133   21.5460 C   0  0  0  0  0  0  0  0  0  0  0  0
  -25.1351  -30.9016   20.8869 C   0  0  0  0  0  0  0  0  0  0  0  0
  -33.9150  -22.3172   19.1699 C   0  0  0  0  0  0  0  0  0  0  0  0
  -23.5333  -32.0227   22.4444 C   0  0  0  0  0  0  0  0  0  0  0  0
  -24.9926  -14.2240   20.4034 C   0  0  0  0  0  0  0  0  0  0  0  0
  -23.0323  -16.8047   20.2643 C   0  0  0  0  0  0  0  0  0  0  0  0
  -22.7177  -20.2007   20.1419 C   0  0  0  0  0  0  0  0  0  0  0  0
  -28.5816  -26.2448   19.2768 C   0  0  0  0  0  0  0  0  0  0  0  0
  -21.5878  -10.6855   19.0091 C   0  0  0  0  0  0  0  0  0  0  0  0
  -25.8633  -15.6209   22.3130 C   0  0  0  0  0  0  0  0  0  0  0  0
  -25.4863  -17.2285   19.8598 C   0  0  0  0  0  0  0  0  0  0  0  0
  -21.9766  -12.0786   18.5210 C   0  0  0  0  0  0  0  0  0  0  0  0
  -26.2815  -28.2852   16.9811 C   0  0  0  0  0  0  0  0  0  0  0  0
  -23.4899  -12.1854   18.3617 C   0  0  0  0  0  0  0  0  0  0  0  0
  -25.9196  -29.4238   17.9319 C   0  0  0  0  0  0  0  0  0  0  0  0
  -33.9710  -18.8441   20.4095 C   0  0  0  0  0  0  0  0  0  0  0  0
  -27.5916  -27.6080   17.3632 C   0  0  0  0  0  0  0  0  0  0  0  0
  -34.6785  -20.0424   19.7959 C   0  0  0  0  0  0  0  0  0  0  0  0
  -32.3040  -20.4252   19.7539 C   0  0  0  0  0  0  0  0  0  0  0  0
  -26.5398  -27.6200   19.6325 C   0  0  0  0  0  0  0  0  0  0  0  0
  -24.2023  -11.9711   19.7026 C   0  0  1  0  0  0  0  0  0  0  0  0
  -24.7106  -15.3570   21.3491 C   0  0  1  0  0  0  0  0  0  0  0  0
  -32.5708  -18.9216   19.7964 C   0  0  2  0  0  0  0  0  0  0  0  0
  -26.2617  -29.1137   19.4027 C   0  0  2  0  0  0  0  0  0  0  0  0
  -20.9902  -22.0150   19.9954 C   0  0  0  0  0  0  0  0  0  0  0  0
  -22.6494  -16.1973   17.2987 C   0  0  0  0  0  0  0  0  0  0  0  0
  -21.7299  -18.5087   17.0154 C   0  0  0  0  0  0  0  0  0  0  0  0
  -20.5653  -16.8785   18.5017 C   0  0  0  0  0  0  0  0  0  0  0  0
  -23.5434  -21.3565   22.7383 C   0  0  0  0  0  0  0  0  0  0  0  0
  -31.5284  -18.1480   20.5836 C   0  0  0  0  0  0  0  0  0  1  0  0
  -22.7603  -17.8871   19.2477 C   0  0  1  0  0  0  0  0  0  0  0  0
  -21.8382  -21.1597   20.9239 C   0  0  2  0  0  0  0  0  0  0  0  0
  -21.9522  -17.3639   18.0268 C   0  0  0  0  0  0  0  0  0  0  0  0
  -24.2052  -28.8376   20.7362 N   0  0  0  0  0  0  0  0  0  0  0  0
  -25.2047  -29.6492   20.3512 N   0  0  0  0  0  0  0  0  0  0  0  0
  -33.6259  -21.0221   19.5713 N   0  0  0  0  0  0  0  0  0  0  0  0
  -24.3802  -16.5248   20.5299 N   0  0  0  0  0  0  0  0  0  0  0  0
  -27.6143  -27.1390   18.7563 N   0  0  0  0  0  0  0  0  0  0  0  0
  -26.0603  -31.8434   20.6049 N   0  0  0  0  0  0  0  0  0  0  0  0
  -22.6368  -32.9147   21.8404 N   0  0  0  0  0  0  0  0  0  0  0  0
  -29.5430  -25.8456   18.3446 N   0  0  0  0  0  0  0  0  0  0  0  0
  -24.1141  -13.1635   20.5181 N   0  0  0  0  0  0  0  0  0  0  0  0
  -22.1111  -18.9741   19.9725 N   0  0  0  0  0  0  0  0  0  0  0  0
  -22.6753  -22.0639   21.7621 N   0  3  0  0  0  0  0  0  0  0  0  0
  -35.0443  -22.7597   18.9687 O   0  0  0  0  0  0  0  0  0  0  0  0
  -23.9030  -32.2291   23.6251 O   0  0  0  0  0  0  0  0  0  0  0  0
  -25.9364  -14.3064   19.6262 O   0  0  0  0  0  0  0  0  0  0  0  0
  -22.0837  -16.2337   20.8081 O   0  0  0  0  0  0  0  0  0  0  0  0
  -23.8298  -20.5102   19.7202 O   0  0  0  0  0  0  0  0  0  0  0  0
  -28.5592  -25.8797   20.4541 O   0  0  0  0  0  0  0  0  0  0  0  0
  -18.8719  -27.5919   23.9853 O   0  0  0  0  0  0  0  0  0  0  0  0
  -30.2618  -18.2894   19.9417 O   0  0  0  0  0  0  0  0  0  1  0  0
  -13.9943  -29.2159   21.9915 F   0  0  0  0  0  0  0  0  0  0  0  0
  -31.3184  -25.2203   16.2872 F   0  0  0  0  0  0  0  0  0  0  0  0
  -17.0691  -25.7547   22.9768 F   0  0  0  0  0  0  0  0  0  0  0  0
  1  2  1  0  0  0  0
  1  6  2  0  0  0  0
  2  7  2  0  0  0  0
  3 10  2  0  0  0  0
  3 18  1  0  0  0  0
  4 11  1  0  0  0  0
  4 18  2  0  0  0  0
  5  9  2  0  0  0  0
  5 19  1  0  0  0  0
  6 21  1  0  0  0  0
  7 23  1  0  0  0  0
  8 12  2  0  0  0  0
  8 22  1  0  0  0  0
  9 25  1  0  0  0  0
 10 26  1  0  0  0  0
 11 26  2  0  0  0  0
 12 27  1  0  0  0  0
 13 14  2  0  0  0  0
 13 28  1  0  0  0  0
 14 29  1  0  0  0  0
 15 19  2  0  0  0  0
 15 30  1  0  0  0  0
 16 24  1  0  0  0  0
 16 27  2  0  0  0  0
 17 29  2  0  0  0  0
 17 31  1  0  0  0  0
 18 32  1  0  0  0  0
 19 34  1  0  0  0  0
 20 32  1  0  0  0  0
 20 33  2  0  0  0  0
 20 35  1  0  0  0  0
 21 23  2  0  0  0  0
 21 40  1  0  0  0  0
 22 24  2  0  0  0  0
 22 41  1  0  0  0  0
 23 52  1  0  0  0  0
 24 42  1  0  0  0  0
 25 30  2  0  0  0  0
 25 72  1  0  0  0  0
 26 82  1  0  0  0  0
 27 83  1  0  0  0  0
 28 31  2  0  0  0  0
 28 82  1  0  0  0  0
 29 84  1  0  0  0  0
 30 85  1  0  0  0  0
 31 86  1  0  0  0  0
 32 65  2  0  0  0  0
 33 66  1  0  0  0  0
 33 70  1  0  0  0  0
 34 67  1  0  0  0  0
 34 76  2  0  0  0  0
 35 71  1  0  0  0  0
 35 77  2  0  0  0  0
 36 53  1  0  0  0  0
 36 73  1  0  0  0  0
 36 78  2  0  0  0  0
 37 62  1  0  0  0  0
 37 68  1  0  0  0  0
 37 79  2  0  0  0  0
 38 63  1  0  0  0  0
 38 74  1  0  0  0  0
 38 80  2  0  0  0  0
 39 69  1  0  0  0  0
 39 72  1  0  0  0  0
 39 81  2  0  0  0  0
 40 43  1  0  0  0  0
 41 53  1  0  0  0  0
 42 68  1  0  0  0  0
 43 45  1  0  0  0  0
 44 46  1  0  0  0  0
 44 48  1  0  0  0  0
 45 52  1  0  0  0  0
 46 55  1  0  0  0  0
 47 49  1  0  0  0  0
 47 54  1  0  0  0  0
 48 69  1  0  0  0  0
 49 67  1  0  0  0  0
 50 54  1  0  0  0  0
 50 67  1  0  0  0  0
 51 55  1  0  0  0  0
 51 69  1  0  0  0  0
 52 73  1  0  0  0  0
 53 68  1  0  0  0  0
 54 61  1  0  0  0  0
 55 66  1  0  0  0  0
 56 63  1  0  0  0  0
 57 64  1  0  0  0  0
 58 64  1  0  0  0  0
 59 64  1  0  0  0  0
 60 75  1  0  0  0  0
 61 83  1  0  0  0  0
 62 64  1  0  0  0  0
 62 74  1  0  0  0  0
 63 75  1  0  0  0  0
 65 66  1  0  0  0  0
M  CHG  1  75   1
M  ISO  4  39 100  61 101  72 100  83 101
M  END
> <Batch ID>
0097

> <Smiles>
CNC(C)C(=O)NC(C(=O)N1Cc2cc([101O:1][101CH2:1]C3CCN(C(=O)c4ccc([100NH:0][100C:0](=O)N5CCCC(n6nc(-c7ccc(Oc8ccc(F)cc8F)cc7)c(C(N)=O)c6N)C5)c(F)c4)C3)ccc2CC1C(=O)NC1CCCc2ccccc21)C(C)(C)C

> <Shape>
0.251

> <Color>
0.076

> <Negative vol penalty>
0.000

$$$$

  -OEChem-04052300493D

 86 95  0     1  0  0  0  0  0999 V2000
  -29.3277  -30.7987   26.8781 C   0  0  0  0  0  0  0  0  0  0  0  0
  -28.8163  -29.7933   26.0638 C   0  0  0  0  0  0  0  0  0  0  0  0
  -24.7248  -15.4516   23.7114 C   0  0  0  0  0  0  0  0  0  0  0  0
  -24.4694  -16.5342   21.5667 C   0  0  0  0  0  0  0  0  0  0  0  0
  -28.5430  -31.9081   27.1902 C   0  0  0  0  0  0  0  0  0  0  0  0
  -27.5193  -29.8962   25.5621 C   0  0  0  0  0  0  0  0  0  0  0  0
  -27.2347  -28.6910   20.6517 C   0  0  0  0  0  0  0  0  0  0  0  0
  -24.3320  -16.6270   24.3515 C   0  0  0  0  0  0  0  0  0  0  0  0
  -24.0766  -17.7096   22.2068 C   0  0  0  0  0  0  0  0  0  0  0  0
  -27.2449  -27.3351   20.3273 C   0  0  0  0  0  0  0  0  0  0  0  0
  -25.5598  -20.2778   23.8302 C   0  0  0  0  0  0  0  0  0  0  0  0
  -26.1192  -21.4758   23.3859 C   0  0  0  0  0  0  0  0  0  0  0  0
  -24.8464  -27.3837   20.0744 C   0  0  0  0  0  0  0  0  0  0  0  0
  -30.6543  -20.6904   19.6450 C   0  0  0  0  0  0  0  0  0  0  0  0
  -29.2218  -18.8156   19.1256 C   0  0  0  0  0  0  0  0  0  0  0  0
  -31.4616  -18.4333   19.9469 C   0  0  0  0  0  0  0  0  0  0  0  0
  -23.9152  -22.3038   22.8437 C   0  0  0  0  0  0  0  0  0  0  0  0
  -24.7936  -15.4052   22.3190 C   0  0  0  0  0  0  0  0  0  0  0  0
  -24.5724  -12.9334   21.7286 C   0  0  0  0  0  0  0  0  0  0  0  0
  -27.2392  -32.0293   26.6842 C   0  0  0  0  0  0  0  0  0  0  0  0
  -26.0270  -29.4021   20.7007 C   0  0  0  0  0  0  0  0  0  0  0  0
  -26.7159  -31.0076   25.8688 C   0  0  0  0  0  0  0  0  0  0  0  0
  -24.8238  -28.7491   20.3972 C   0  0  0  0  0  0  0  0  0  0  0  0
  -29.4303  -20.1929   19.1981 C   0  0  0  0  0  0  0  0  0  0  0  0
  -31.6700  -19.8106   20.0194 C   0  0  0  0  0  0  0  0  0  0  0  0
  -30.2375  -17.9358   19.4999 C   0  0  0  0  0  0  0  0  0  0  0  0
  -24.0078  -17.7560   23.5992 C   0  0  0  0  0  0  0  0  0  0  0  0
  -26.0504  -26.6806   20.0414 C   0  0  0  0  0  0  0  0  0  0  0  0
  -24.1781  -20.0927   23.7812 C   0  0  0  0  0  0  0  0  0  0  0  0
  -25.2969  -22.4888   22.8927 C   0  0  0  0  0  0  0  0  0  0  0  0
  -23.3558  -21.1057   23.2880 C   0  0  0  0  0  0  0  0  0  0  0  0
  -25.1999  -14.1915   21.6572 C   0  0  0  0  0  0  0  0  0  0  0  0
  -25.3388  -12.1216   20.9285 C   0  0  0  0  0  0  0  0  0  0  0  0
  -27.4397  -20.7447   17.8258 C   0  0  0  0  0  0  0  0  0  0  0  0
  -23.4015  -12.5342   22.4532 C   0  0  0  0  0  0  0  0  0  0  0  0
  -24.4289  -30.9555   22.9671 C   0  0  0  0  0  0  0  0  0  0  0  0
  -22.5015  -31.7866   20.4939 C   0  0  0  0  0  0  0  0  0  0  0  0
  -21.3269  -31.0740   17.3699 C   0  0  0  0  0  0  0  0  0  0  0  0
  -28.8716  -15.8663   19.0091 C   0  0  0  0  0  0  0  0  0  0  0  0
  -26.4120  -33.2241   27.0876 C   0  0  0  0  0  0  0  0  0  0  0  0
  -26.0358  -30.8705   21.0263 C   0  0  0  0  0  0  0  0  0  0  0  0
  -23.5026  -29.4720   20.4161 C   0  0  0  0  0  0  0  0  0  0  0  0
  -26.2067  -21.6214   17.7141 C   0  0  0  0  0  0  0  0  0  0  0  0
  -25.1811  -33.4371   26.2103 C   0  0  0  0  0  0  0  0  0  0  0  0
  -26.4570  -23.0886   17.9851 C   0  0  0  0  0  0  0  0  0  0  0  0
  -29.9807  -12.2210   19.5986 C   0  0  0  0  0  0  0  0  0  0  0  0
  -24.4382  -32.1208   26.0042 C   0  0  0  0  0  0  0  0  0  0  0  0
  -28.6567  -11.9056   20.2832 C   0  0  0  0  0  0  0  0  0  0  0  0
  -30.1783  -13.7311   19.4992 C   0  0  0  0  0  0  0  0  0  0  0  0
  -28.4504  -22.4837   19.3281 C   0  0  0  0  0  0  0  0  0  0  0  0
  -27.8727  -13.6362   18.5467 C   0  0  0  0  0  0  0  0  0  0  0  0
  -25.3225  -31.0950   25.2851 C   0  0  1  0  0  0  0  0  0  0  0  0
  -24.6940  -31.3747   21.5488 C   0  0  1  0  0  0  0  0  0  0  0  0
  -27.1177  -23.2307   19.3464 C   0  0  1  0  0  0  0  0  0  0  0  0
  -27.4641  -12.5022   19.5092 C   0  0  2  0  0  0  0  0  0  0  0  0
  -19.7316  -31.9164   15.6256 C   0  0  0  0  0  0  0  0  0  0  0  0
  -20.1560  -30.7162   22.1256 C   0  0  0  0  0  0  0  0  0  0  0  0
  -18.7930  -30.6995   20.0256 C   0  0  0  0  0  0  0  0  0  0  0  0
  -19.6925  -32.8518   20.9095 C   0  0  0  0  0  0  0  0  0  0  0  0
  -23.5003  -31.4469   15.3960 C   0  0  0  0  0  0  0  0  0  0  0  0
  -27.3245  -24.7009   19.7047 C   0  0  0  0  0  0  0  0  0  1  0  0
  -21.2746  -31.1902   19.8475 C   0  0  1  0  0  0  0  0  0  0  0  0
  -21.1650  -31.9391   16.1330 C   0  0  2  0  0  0  0  0  0  0  0  0
  -20.0035  -31.3501   20.7285 C   0  0  0  0  0  0  0  0  0  0  0  0
  -26.2817  -14.1845   20.8738 N   0  0  0  0  0  0  0  0  0  0  0  0
  -26.3399  -12.9120   20.4456 N   0  0  0  0  0  0  0  0  0  0  0  0
  -28.3755  -21.1052   18.8107 N   0  0  0  0  0  0  0  0  0  0  0  0
  -23.5626  -30.9055   20.7463 N   0  0  0  0  0  0  0  0  0  0  0  0
  -28.9780  -14.4537   19.0534 N   0  0  0  0  0  0  0  0  0  0  0  0
  -32.9079  -20.3131   20.4714 N   0  0  0  0  0  0  0  0  0  0  0  0
  -25.2473  -10.8159   20.5980 N   0  0  0  0  0  0  0  0  0  0  0  0
  -22.1553  -12.6425   21.8211 N   0  0  0  0  0  0  0  0  0  0  0  0
  -30.0246  -16.5360   19.4276 N   0  0  0  0  0  0  0  0  0  0  0  0
  -25.3839  -31.3854   23.8686 N   0  0  0  0  0  0  0  0  0  0  0  0
  -21.1686  -31.8046   18.5285 N   0  0  0  0  0  0  0  0  0  0  0  0
  -22.0575  -31.4551   15.0420 N   0  3  0  0  0  0  0  0  0  0  0  0
  -27.5131  -19.7519   17.0965 O   0  0  0  0  0  0  0  0  0  0  0  0
  -23.4569  -12.1099   23.6324 O   0  0  0  0  0  0  0  0  0  0  0  0
  -23.4311  -30.2925   23.2247 O   0  0  0  0  0  0  0  0  0  0  0  0
  -22.5206  -32.9913   20.7584 O   0  0  0  0  0  0  0  0  0  0  0  0
  -21.5659  -29.8697   17.3139 O   0  0  0  0  0  0  0  0  0  0  0  0
  -27.8422  -16.4267   18.6270 O   0  0  0  0  0  0  0  0  0  0  0  0
  -23.6242  -18.9030   24.2235 O   0  0  0  0  0  0  0  0  0  0  0  0
  -26.0575  -25.3571   19.7250 O   0  0  0  0  0  0  0  0  0  1  0  0
  -25.8341  -23.6398   22.4675 F   0  0  0  0  0  0  0  0  0  0  0  0
  -22.0276  -20.9342   23.2396 F   0  0  0  0  0  0  0  0  0  0  0  0
  1  2  1  0  0  0  0
  1  5  2  0  0  0  0
  2  6  2  0  0  0  0
  3  8  2  0  0  0  0
  3 18  1  0  0  0  0
  4  9  1  0  0  0  0
  4 18  2  0  0  0  0
  5 20  1  0  0  0  0
  6 22  1  0  0  0  0
  7 10  2  0  0  0  0
  7 21  1  0  0  0  0
  8 27  1  0  0  0  0
  9 27  2  0  0  0  0
 10 28  1  0  0  0  0
 11 12  2  0  0  0  0
 11 29  1  0  0  0  0
 12 30  1  0  0  0  0
 13 23  1  0  0  0  0
 13 28  2  0  0  0  0
 14 24  1  0  0  0  0
 14 25  2  0  0  0  0
 15 24  2  0  0  0  0
 15 26  1  0  0  0  0
 16 25  1  0  0  0  0
 16 26  2  0  0  0  0
 17 30  2  0  0  0  0
 17 31  1  0  0  0  0
 18 32  1  0  0  0  0
 19 32  1  0  0  0  0
 19 33  2  0  0  0  0
 19 35  1  0  0  0  0
 20 22  2  0  0  0  0
 20 40  1  0  0  0  0
 21 23  2  0  0  0  0
 21 41  1  0  0  0  0
 22 52  1  0  0  0  0
 23 42  1  0  0  0  0
 24 67  1  0  0  0  0
 25 70  1  0  0  0  0
 26 73  1  0  0  0  0
 27 83  1  0  0  0  0
 28 84  1  0  0  0  0
 29 31  2  0  0  0  0
 29 83  1  0  0  0  0
 30 85  1  0  0  0  0
 31 86  1  0  0  0  0
 32 65  2  0  0  0  0
 33 66  1  0  0  0  0
 33 71  1  0  0  0  0
 34 43  1  0  0  0  0
 34 67  1  0  0  0  0
 34 77  2  0  0  0  0
 35 72  1  0  0  0  0
 35 78  2  0  0  0  0
 36 53  1  0  0  0  0
 36 74  1  0  0  0  0
 36 79  2  0  0  0  0
 37 62  1  0  0  0  0
 37 68  1  0  0  0  0
 37 80  2  0  0  0  0
 38 63  1  0  0  0  0
 38 75  1  0  0  0  0
 38 81  2  0  0  0  0
 39 69  1  0  0  0  0
 39 73  1  0  0  0  0
 39 82  2  0  0  0  0
 40 44  1  0  0  0  0
 41 53  1  0  0  0  0
 42 68  1  0  0  0  0
 43 45  1  0  0  0  0
 44 47  1  0  0  0  0
 45 54  1  0  0  0  0
 46 48  1  0  0  0  0
 46 49  1  0  0  0  0
 47 52  1  0  0  0  0
 48 55  1  0  0  0  0
 49 69  1  0  0  0  0
 50 54  1  0  0  0  0
 50 67  1  0  0  0  0
 51 55  1  0  0  0  0
 51 69  1  0  0  0  0
 52 74  1  0  0  0  0
 53 68  1  0  0  0  0
 54 61  1  0  0  0  0
 55 66  1  0  0  0  0
 56 63  1  0  0  0  0
 57 64  1  0  0  0  0
 58 64  1  0  0  0  0
 59 64  1  0  0  0  0
 60 76  1  0  0  0  0
 61 84  1  0  0  0  0
 62 64  1  0  0  0  0
 62 75  1  0  0  0  0
 63 76  1  0  0  0  0
 65 66  1  0  0  0  0
M  CHG  1  76   1
M  ISO  4  39 100  61 101  73 100  84 101
M  END
> <Batch ID>
0097

> <Smiles>
CNC(C)C(=O)NC(C(=O)N1Cc2cc([101O:1][101CH2:1]C3CCC(=O)N(c4cc(N)cc([100NH:0][100C:0](=O)N5CCCC(n6nc(-c7ccc(Oc8ccc(F)cc8F)cc7)c(C(N)=O)c6N)C5)c4)C3)ccc2CC1C(=O)NC1CCCc2ccccc21)C(C)(C)C

> <Shape>
0.242

> <Color>
0.089

> <Negative vol penalty>
0.000

$$$$

  -OEChem-04052300493D

 86 95  0     1  0  0  0  0  0999 V2000
  -17.6338  -26.8168   22.3544 C   0  0  0  0  0  0  0  0  0  0  0  0
  -18.6754  -26.6777   21.4428 C   0  0  0  0  0  0  0  0  0  0  0  0
  -24.2236   -9.7951   19.2763 C   0  0  0  0  0  0  0  0  0  0  0  0
  -25.2422   -9.3308   21.4173 C   0  0  0  0  0  0  0  0  0  0  0  0
  -17.5525  -27.9594   23.1492 C   0  0  0  0  0  0  0  0  0  0  0  0
  -19.6358  -27.6817   21.3246 C   0  0  0  0  0  0  0  0  0  0  0  0
  -24.3507  -25.8456   21.1174 C   0  0  0  0  0  0  0  0  0  0  0  0
  -29.0903  -20.1397   16.4964 C   0  0  0  0  0  0  0  0  0  0  0  0
  -23.9586   -8.4361   19.1076 C   0  0  0  0  0  0  0  0  0  0  0  0
  -24.9771   -7.9718   21.2487 C   0  0  0  0  0  0  0  0  0  0  0  0
  -24.7723  -25.3092   19.9015 C   0  0  0  0  0  0  0  0  0  0  0  0
  -28.9468  -18.8468   16.9997 C   0  0  0  0  0  0  0  0  0  0  0  0
  -22.3285   -5.8954   21.5554 C   0  0  0  0  0  0  0  0  0  0  0  0
  -21.7983   -5.2003   22.6423 C   0  0  0  0  0  0  0  0  0  0  0  0
  -25.9449  -27.3594   19.4106 C   0  0  0  0  0  0  0  0  0  0  0  0
  -28.2485  -21.0418   18.5735 C   0  0  0  0  0  0  0  0  0  0  0  0
  -23.7138   -3.7278   22.6349 C   0  0  0  0  0  0  0  0  0  0  0  0
  -24.8655  -10.2425   20.4311 C   0  0  0  0  0  0  0  0  0  0  0  0
  -24.2040  -12.6968   20.6460 C   0  0  0  0  0  0  0  0  0  0  0  0
  -18.5177  -28.9736   23.0476 C   0  0  0  0  0  0  0  0  0  0  0  0
  -24.7146  -27.1490   21.4848 C   0  0  0  0  0  0  0  0  0  0  0  0
  -19.5666  -28.8396   22.1179 C   0  0  0  0  0  0  0  0  0  0  0  0
  -25.5287  -27.9090   20.6329 C   0  0  0  0  0  0  0  0  0  0  0  0
  -28.7412  -21.2372   17.2833 C   0  0  0  0  0  0  0  0  0  0  0  0
  -24.3353   -7.5245   20.0938 C   0  0  0  0  0  0  0  0  0  0  0  0
  -25.5671  -26.0672   19.0466 C   0  0  0  0  0  0  0  0  0  0  0  0
  -23.5513   -5.5067   21.0082 C   0  0  0  0  0  0  0  0  0  0  0  0
  -28.4541  -18.6513   18.2899 C   0  0  0  0  0  0  0  0  0  0  0  0
  -22.4910   -4.1165   23.1821 C   0  0  0  0  0  0  0  0  0  0  0  0
  -28.1049  -19.7489   19.0769 C   0  0  0  0  0  0  0  0  0  0  0  0
  -24.2439   -4.4229   21.5479 C   0  0  0  0  0  0  0  0  0  0  0  0
  -25.1400  -11.6461   20.6057 C   0  0  0  0  0  0  0  0  0  0  0  0
  -24.9635  -13.8265   20.8293 C   0  0  0  0  0  0  0  0  0  0  0  0
  -29.8912  -22.8768   15.8207 C   0  0  0  0  0  0  0  0  0  0  0  0
  -22.7757  -12.6554   20.5284 C   0  0  0  0  0  0  0  0  0  0  0  0
  -23.1257  -29.8322   22.1010 C   0  0  0  0  0  0  0  0  0  0  0  0
  -26.0673  -30.9258   22.9215 C   0  0  0  0  0  0  0  0  0  0  0  0
  -29.4274  -30.6652   21.6332 C   0  0  0  0  0  0  0  0  0  0  0  0
  -29.4414  -16.8722   19.4599 C   0  0  0  0  0  0  0  0  0  0  0  0
  -18.3615  -30.2119   23.8943 C   0  0  0  0  0  0  0  0  0  0  0  0
  -24.2739  -27.7032   22.8118 C   0  0  0  0  0  0  0  0  0  0  0  0
  -25.9638  -29.3061   20.9898 C   0  0  0  0  0  0  0  0  0  0  0  0
  -29.7710  -24.2102   15.1072 C   0  0  0  0  0  0  0  0  0  0  0  0
  -19.6287  -31.0595   23.9735 C   0  0  0  0  0  0  0  0  0  0  0  0
  -29.2119  -25.3271   15.9609 C   0  0  0  0  0  0  0  0  0  0  0  0
  -29.8416  -14.3720   22.0186 C   0  0  0  0  0  0  0  0  0  0  0  0
  -20.2353  -31.2437   22.5861 C   0  0  0  0  0  0  0  0  0  0  0  0
  -28.5938  -13.5046   21.8553 C   0  0  0  0  0  0  0  0  0  0  0  0
  -30.3344  -14.9013   20.6755 C   0  0  0  0  0  0  0  0  0  0  0  0
  -28.1016  -23.6458   17.4045 C   0  0  0  0  0  0  0  0  0  0  0  0
  -28.0412  -14.7823   19.7375 C   0  0  0  0  0  0  0  0  0  0  0  0
  -20.6414  -29.8957   21.9781 C   0  0  1  0  0  0  0  0  0  0  0  0
  -24.2776  -29.2282   22.8534 C   0  0  1  0  0  0  0  0  0  0  0  0
  -27.8774  -24.8836   16.5372 C   0  0  1  0  0  0  0  0  0  0  0  0
  -27.4980  -14.2539   21.0762 C   0  0  1  0  0  0  0  0  0  0  0  0
  -31.6407  -30.8165   22.8061 C   0  0  0  0  0  0  0  0  0  0  0  0
  -25.9616  -33.8690   22.1239 C   0  0  0  0  0  0  0  0  0  0  0  0
  -28.4241  -33.7664   21.6839 C   0  0  0  0  0  0  0  0  0  0  0  0
  -27.5512  -33.3485   23.9831 C   0  0  0  0  0  0  0  0  0  0  0  0
  -30.2857  -28.0276   20.6010 C   0  0  0  0  0  0  0  0  0  0  0  0
  -27.2306  -26.0046   17.3482 C   0  0  0  0  0  0  0  0  0  1  0  0
  -27.1989  -31.6039   22.1875 C   0  0  1  0  0  0  0  0  0  0  0  0
  -30.5772  -29.8854   22.2449 C   0  0  2  0  0  0  0  0  0  0  0  0
  -27.2661  -33.1292   22.4813 C   0  0  0  0  0  0  0  0  0  0  0  0
  -26.3981  -12.0705   20.7515 N   0  0  0  0  0  0  0  0  0  0  0  0
  -26.2579  -13.4003   20.8851 N   0  0  0  0  0  0  0  0  0  0  0  0
  -28.8901  -22.5789   16.7611 N   0  0  0  0  0  0  0  0  0  0  0  0
  -25.5020  -29.8059   22.2953 N   0  0  0  0  0  0  0  0  0  0  0  0
  -29.2593  -15.5741   19.9476 N   0  0  0  0  0  0  0  0  0  0  0  0
  -24.6437  -15.1328   20.9465 N   0  0  0  0  0  0  0  0  0  0  0  0
  -22.0134  -12.5032   21.6946 N   0  0  0  0  0  0  0  0  0  0  0  0
  -21.8841  -29.4335   22.5582 N   0  0  0  0  0  0  0  0  0  0  0  0
  -28.4110  -30.8732   22.5415 N   0  0  0  0  0  0  0  0  0  0  0  0
  -31.2126  -29.0099   21.2199 N   0  3  0  0  0  0  0  0  0  0  0  0
  -30.8125  -22.1245   15.4920 O   0  0  0  0  0  0  0  0  0  0  0  0
  -22.1932  -12.7342   19.4202 O   0  0  0  0  0  0  0  0  0  0  0  0
  -23.3470  -30.6039   21.1751 O   0  0  0  0  0  0  0  0  0  0  0  0
  -25.7034  -31.3690   24.0136 O   0  0  0  0  0  0  0  0  0  0  0  0
  -29.4321  -31.0544   20.4674 O   0  0  0  0  0  0  0  0  0  0  0  0
  -30.4754  -17.5246   19.5979 O   0  0  0  0  0  0  0  0  0  0  0  0
  -24.0767   -6.1983   19.9296 O   0  0  0  0  0  0  0  0  0  0  0  0
  -28.3115  -17.3543   18.7931 O   0  0  0  0  0  0  0  0  0  0  0  0
  -25.9794  -25.5464   17.8589 O   0  0  0  0  0  0  0  0  0  1  0  0
  -21.9825   -3.4501   24.2268 F   0  0  0  0  0  0  0  0  0  0  0  0
  -27.6322  -19.5674   20.3176 F   0  0  0  0  0  0  0  0  0  0  0  0
  -25.4196   -4.0455   21.0272 F   0  0  0  0  0  0  0  0  0  0  0  0
  1  2  1  0  0  0  0
  1  5  2  0  0  0  0
  2  6  2  0  0  0  0
  3  9  2  0  0  0  0
  3 18  1  0  0  0  0
  4 10  1  0  0  0  0
  4 18  2  0  0  0  0
  5 20  1  0  0  0  0
  6 22  1  0  0  0  0
  7 11  2  0  0  0  0
  7 21  1  0  0  0  0
  8 12  2  0  0  0  0
  8 24  1  0  0  0  0
  9 25  1  0  0  0  0
 10 25  2  0  0  0  0
 11 26  1  0  0  0  0
 12 28  1  0  0  0  0
 13 14  2  0  0  0  0
 13 27  1  0  0  0  0
 14 29  1  0  0  0  0
 15 23  1  0  0  0  0
 15 26  2  0  0  0  0
 16 24  2  0  0  0  0
 16 30  1  0  0  0  0
 17 29  2  0  0  0  0
 17 31  1  0  0  0  0
 18 32  1  0  0  0  0
 19 32  1  0  0  0  0
 19 33  2  0  0  0  0
 19 35  1  0  0  0  0
 20 22  2  0  0  0  0
 20 40  1  0  0  0  0
 21 23  2  0  0  0  0
 21 41  1  0  0  0  0
 22 52  1  0  0  0  0
 23 42  1  0  0  0  0
 24 67  1  0  0  0  0
 25 81  1  0  0  0  0
 26 83  1  0  0  0  0
 27 31  2  0  0  0  0
 27 81  1  0  0  0  0
 28 30  2  0  0  0  0
 28 82  1  0  0  0  0
 29 84  1  0  0  0  0
 30 85  1  0  0  0  0
 31 86  1  0  0  0  0
 32 65  2  0  0  0  0
 33 66  1  0  0  0  0
 33 70  1  0  0  0  0
 34 43  1  0  0  0  0
 34 67  1  0  0  0  0
 34 75  2  0  0  0  0
 35 71  1  0  0  0  0
 35 76  2  0  0  0  0
 36 53  1  0  0  0  0
 36 72  1  0  0  0  0
 36 77  2  0  0  0  0
 37 62  1  0  0  0  0
 37 68  1  0  0  0  0
 37 78  2  0  0  0  0
 38 63  1  0  0  0  0
 38 73  1  0  0  0  0
 38 79  2  0  0  0  0
 39 69  1  0  0  0  0
 39 80  2  0  0  0  0
 39 82  1  0  0  0  0
 40 44  1  0  0  0  0
 41 53  1  0  0  0  0
 42 68  1  0  0  0  0
 43 45  1  0  0  0  0
 44 47  1  0  0  0  0
 45 54  1  0  0  0  0
 46 48  1  0  0  0  0
 46 49  1  0  0  0  0
 47 52  1  0  0  0  0
 48 55  1  0  0  0  0
 49 69  1  0  0  0  0
 50 54  1  0  0  0  0
 50 67  1  0  0  0  0
 51 55  1  0  0  0  0
 51 69  1  0  0  0  0
 52 72  1  0  0  0  0
 53 68  1  0  0  0  0
 54 61  1  0  0  0  0
 55 66  1  0  0  0  0
 56 63  1  0  0  0  0
 57 64  1  0  0  0  0
 58 64  1  0  0  0  0
 59 64  1  0  0  0  0
 60 74  1  0  0  0  0
 61 83  1  0  0  0  0
 62 64  1  0  0  0  0
 62 73  1  0  0  0  0
 63 74  1  0  0  0  0
 65 66  1  0  0  0  0
M  CHG  1  74   1
M  ISO  4  39 100  61 101  82 100  83 101
M  END
> <Batch ID>
0097

> <Smiles>
CNC(C)C(=O)NC(C(=O)N1Cc2cc([101O:1][101CH2:1]C3CCC(=O)N(c4ccc([100O:0][100C:0](=O)N5CCCC(n6nc(-c7ccc(Oc8ccc(F)cc8F)cc7)c(C(N)=O)c6N)C5)c(F)c4)C3)ccc2CC1C(=O)NC1CCCc2ccccc21)C(C)(C)C

> <Shape>
0.300

> <Color>
0.113

> <Negative vol penalty>
0.000

$$$$

  -OEChem-04052300493D

 86 95  0     1  0  0  0  0  0999 V2000
  -32.4187  -13.9315   20.0976 C   0  0  0  0  0  0  0  0  0  0  0  0
  -31.7266  -15.1210   20.3012 C   0  0  0  0  0  0  0  0  0  0  0  0
  -25.8512  -28.8042   20.4866 C   0  0  0  0  0  0  0  0  0  0  0  0
  -26.3219  -27.6453   22.5536 C   0  0  0  0  0  0  0  0  0  0  0  0
  -31.7231  -12.7699   19.7648 C   0  0  0  0  0  0  0  0  0  0  0  0
  -30.3386  -15.1499   20.1709 C   0  0  0  0  0  0  0  0  0  0  0  0
  -26.4060  -18.5433   23.4152 C   0  0  0  0  0  0  0  0  0  0  0  0
  -20.7039  -25.4664   22.7195 C   0  0  0  0  0  0  0  0  0  0  0  0
  -19.9007  -26.4765   23.2489 C   0  0  0  0  0  0  0  0  0  0  0  0
  -26.7581  -27.9813   19.8187 C   0  0  0  0  0  0  0  0  0  0  0  0
  -27.2288  -26.8224   21.8857 C   0  0  0  0  0  0  0  0  0  0  0  0
  -25.7663  -19.7524   23.1457 C   0  0  0  0  0  0  0  0  0  0  0  0
  -27.1139  -24.1116   19.8710 C   0  0  0  0  0  0  0  0  0  0  0  0
  -27.0622  -22.7432   20.1364 C   0  0  0  0  0  0  0  0  0  0  0  0
  -23.8191  -18.5464   22.3887 C   0  0  0  0  0  0  0  0  0  0  0  0
  -18.7571  -26.6775   21.1302 C   0  0  0  0  0  0  0  0  0  0  0  0
  -29.3467  -22.8086   20.9197 C   0  0  0  0  0  0  0  0  0  0  0  0
  -25.6331  -28.6362   21.8540 C   0  0  0  0  0  0  0  0  0  0  0  0
  -24.7490  -30.8880   22.6636 C   0  0  0  0  0  0  0  0  0  0  0  0
  -30.3249  -12.7823   19.6398 C   0  0  0  0  0  0  0  0  0  0  0  0
  -25.7601  -17.3245   23.1628 C   0  0  0  0  0  0  0  0  0  0  0  0
  -29.6238  -13.9876   19.8347 C   0  0  0  0  0  0  0  0  0  0  0  0
  -24.4518  -17.3233   22.6582 C   0  0  0  0  0  0  0  0  0  0  0  0
  -20.5338  -25.0619   21.3954 C   0  0  0  0  0  0  0  0  0  0  0  0
  -18.9273  -27.0820   22.4542 C   0  0  0  0  0  0  0  0  0  0  0  0
  -27.4469  -26.9904   20.5182 C   0  0  0  0  0  0  0  0  0  0  0  0
  -24.4737  -19.7541   22.6297 C   0  0  0  0  0  0  0  0  0  0  0  0
  -28.2821  -24.8285   20.1300 C   0  0  0  0  0  0  0  0  0  0  0  0
  -28.1785  -22.0917   20.6607 C   0  0  0  0  0  0  0  0  0  0  0  0
  -19.5604  -25.6674   20.6008 C   0  0  0  0  0  0  0  0  0  0  0  0
  -29.3985  -24.1771   20.6543 C   0  0  0  0  0  0  0  0  0  0  0  0
  -24.6969  -29.4862   22.5446 C   0  0  0  0  0  0  0  0  0  0  0  0
  -23.6402  -31.2110   23.4070 C   0  0  0  0  0  0  0  0  0  0  0  0
  -22.8289  -22.2998   20.7064 C   0  0  0  0  0  0  0  0  0  0  0  0
  -16.8667  -28.4527   20.9778 C   0  0  0  0  0  0  0  0  0  0  0  0
  -23.4519  -21.1770   21.0799 C   0  0  0  0  0  0  0  0  0  1  0  0
  -17.1142  -28.7605   22.2529 C   0  0  0  0  0  0  0  0  0  0  0  0
  -25.7135  -31.8152   22.1480 C   0  0  0  0  0  0  0  0  0  0  0  0
  -26.3250  -14.8370   21.2663 C   0  0  0  0  0  0  0  0  0  0  0  0
  -23.7894  -13.5606   22.8359 C   0  0  0  0  0  0  0  0  0  0  0  0
  -20.9350  -14.0785   24.6335 C   0  0  0  0  0  0  0  0  0  0  0  0
  -18.3919  -28.6347   24.2967 C   0  0  0  0  0  0  0  0  0  0  0  0
  -29.6212  -11.5122   19.2319 C   0  0  0  0  0  0  0  0  0  0  0  0
  -26.4538  -16.0292   23.4840 C   0  0  0  0  0  0  0  0  0  0  0  0
  -23.7070  -16.0422   22.3887 C   0  0  0  0  0  0  0  0  0  0  0  0
  -22.3780  -22.6113   19.3144 C   0  0  0  0  0  0  0  0  0  0  0  0
  -22.3726  -23.3811   21.6391 C   0  0  0  0  0  0  0  0  0  0  0  0
  -28.1154  -11.5434   19.4806 C   0  0  0  0  0  0  0  0  0  0  0  0
  -20.7264  -29.4563   26.7592 C   0  0  0  0  0  0  0  0  0  0  0  0
  -27.5187  -12.8548   18.9798 C   0  0  0  0  0  0  0  0  0  0  0  0
  -22.0199  -29.6883   25.9787 C   0  0  0  0  0  0  0  0  0  0  0  0
  -21.1492  -23.4867   19.5434 C   0  0  0  0  0  0  0  0  0  0  0  0
  -19.9511  -28.2721   26.1933 C   0  0  0  0  0  0  0  0  0  0  0  0
  -20.9184  -28.6322   23.9442 C   0  0  0  0  0  0  0  0  0  0  0  0
  -28.1158  -14.0535   19.7268 C   0  0  1  0  0  0  0  0  0  0  0  0
  -25.8939  -14.8425   22.7057 C   0  0  1  0  0  0  0  0  0  0  0  0
  -21.7386  -29.8264   24.4721 C   0  0  2  0  0  0  0  0  0  0  0  0
  -19.0558  -12.8420   25.7458 C   0  0  0  0  0  0  0  0  0  0  0  0
  -22.5287  -13.0283   20.1088 C   0  0  0  0  0  0  0  0  0  0  0  0
  -20.3336  -12.6956   21.2661 C   0  0  0  0  0  0  0  0  0  0  0  0
  -22.2484  -11.1771   21.7669 C   0  0  0  0  0  0  0  0  0  0  0  0
  -21.6355  -15.1718   27.2931 C   0  0  0  0  0  0  0  0  0  0  0  0
  -22.2945  -13.5547   22.6256 C   0  0  1  0  0  0  0  0  0  0  0  0
  -20.4329  -13.4615   25.9264 C   0  0  2  0  0  0  0  0  0  0  0  0
  -21.8658  -12.6382   21.4450 C   0  0  0  0  0  0  0  0  0  0  0  0
  -23.6388  -28.9553   23.1632 N   0  0  0  0  0  0  0  0  0  0  0  0
  -23.0159  -30.0291   23.6780 N   0  0  0  0  0  0  0  0  0  0  0  0
  -21.3317  -24.0626   20.8737 N   0  0  3  0  0  0  0  0  0  0  0  0
  -24.4302  -14.8016   22.7132 N   0  0  0  0  0  0  0  0  0  0  0  0
  -19.7082  -28.4387   24.7599 N   0  0  0  0  0  0  0  0  0  0  0  0
  -23.1482  -32.3879   23.8489 N   0  0  0  0  0  0  0  0  0  0  0  0
  -26.8235  -32.1351   22.9416 N   0  0  0  0  0  0  0  0  0  0  0  0
  -27.5190  -14.1795   21.0392 N   0  0  0  0  0  0  0  0  0  0  0  0
  -21.7031  -13.1918   23.9089 N   0  0  0  0  0  0  0  0  0  0  0  0
  -18.0933  -28.1307   23.0041 N   0  0  0  0  0  0  0  0  0  0  0  0
  -20.3461  -14.4967   26.9949 N   0  3  0  0  0  0  0  0  0  0  0  0
  -25.5859  -32.3570   21.0239 O   0  0  0  0  0  0  0  0  0  0  0  0
  -25.6254  -15.3871   20.4240 O   0  0  0  0  0  0  0  0  0  0  0  0
  -24.3662  -12.5043   23.1064 O   0  0  0  0  0  0  0  0  0  0  0  0
  -20.6691  -15.2306   24.2980 O   0  0  0  0  0  0  0  0  0  0  0  0
  -17.5350  -29.1984   24.9897 O   0  0  0  0  0  0  0  0  0  0  0  0
  -28.3317  -26.1872   19.8667 O   0  0  0  0  0  0  0  0  0  0  0  0
  -23.8472  -20.9328   22.3651 O   0  0  0  0  0  0  0  0  0  1  0  0
  -28.1282  -20.7780   20.9169 F   0  0  0  0  0  0  0  0  0  0  0  0
  -19.3897  -25.2871   19.3266 F   0  0  0  0  0  0  0  0  0  0  0  0
  -30.5232  -24.8608   20.9062 F   0  0  0  0  0  0  0  0  0  0  0  0
  1  2  1  0  0  0  0
  1  5  2  0  0  0  0
  2  6  2  0  0  0  0
  3 10  2  0  0  0  0
  3 18  1  0  0  0  0
  4 11  1  0  0  0  0
  4 18  2  0  0  0  0
  5 20  1  0  0  0  0
  6 22  1  0  0  0  0
  7 12  2  0  0  0  0
  7 21  1  0  0  0  0
  8  9  2  0  0  0  0
  8 24  1  0  0  0  0
  9 25  1  0  0  0  0
 10 26  1  0  0  0  0
 11 26  2  0  0  0  0
 12 27  1  0  0  0  0
 13 14  2  0  0  0  0
 13 28  1  0  0  0  0
 14 29  1  0  0  0  0
 15 23  1  0  0  0  0
 15 27  2  0  0  0  0
 16 25  2  0  0  0  0
 16 30  1  0  0  0  0
 17 29  2  0  0  0  0
 17 31  1  0  0  0  0
 18 32  1  0  0  0  0
 19 32  1  0  0  0  0
 19 33  2  0  0  0  0
 19 38  1  0  0  0  0
 20 22  2  0  0  0  0
 20 43  1  0  0  0  0
 21 23  2  0  0  0  0
 21 44  1  0  0  0  0
 22 55  1  0  0  0  0
 23 45  1  0  0  0  0
 24 30  2  0  0  0  0
 24 68  1  0  0  0  0
 25 75  1  0  0  0  0
 26 82  1  0  0  0  0
 27 83  1  0  0  0  0
 28 31  2  0  0  0  0
 28 82  1  0  0  0  0
 29 84  1  0  0  0  0
 30 85  1  0  0  0  0
 31 86  1  0  0  0  0
 32 66  2  0  0  0  0
 33 67  1  0  0  0  0
 33 71  1  0  0  0  0
 34 36  2  0  0  0  0
 34 46  1  0  0  0  0
 34 47  1  0  0  0  0
 35 37  2  0  0  0  0
 36 83  1  0  0  0  0
 37 75  1  0  0  0  0
 38 72  1  0  0  0  0
 38 77  2  0  0  0  0
 39 56  1  0  0  0  0
 39 73  1  0  0  0  0
 39 78  2  0  0  0  0
 40 63  1  0  0  0  0
 40 69  1  0  0  0  0
 40 79  2  0  0  0  0
 41 64  1  0  0  0  0
 41 74  1  0  0  0  0
 41 80  2  0  0  0  0
 42 70  1  0  0  0  0
 42 75  1  0  0  0  0
 42 81  2  0  0  0  0
 43 48  1  0  0  0  0
 44 56  1  0  0  0  0
 45 69  1  0  0  0  0
 46 52  1  0  0  0  0
 47 68  1  0  0  0  0
 48 50  1  0  0  0  0
 49 51  1  0  0  0  0
 49 53  1  0  0  0  0
 50 55  1  0  0  0  0
 51 57  1  0  0  0  0
 52 68  1  0  0  0  0
 53 70  1  0  0  0  0
 54 57  1  0  0  0  0
 54 70  1  0  0  0  0
 55 73  1  0  0  0  0
 56 69  1  0  0  0  0
 57 67  1  0  0  0  0
 58 64  1  0  0  0  0
 59 65  1  0  0  0  0
 60 65  1  0  0  0  0
 61 65  1  0  0  0  0
 62 76  1  0  0  0  0
 63 65  1  0  0  0  0
 63 74  1  0  0  0  0
 64 76  1  0  0  0  0
 66 67  1  0  0  0  0
M  CHG  1  76   1
M  ISO  4  36 101  42 100  75 100  83 101
M  END
> <Batch ID>
0097

> <Smiles>
C=C[100N:0](c1ccc(N2CCC(=[101CH:1][101O:1]c3ccc4c(c3)CN(C(=O)C(NC(=O)C(C)NC)C(C)(C)C)C(C(=O)NC3CCCc5ccccc53)C4)C2)c(F)c1)[100C:0](=O)N1CCCC(n2nc(-c3ccc(Oc4ccc(F)cc4F)cc3)c(C(N)=O)c2N)C1

> <Shape>
0.242

> <Color>
0.094

> <Negative vol penalty>
0.000

$$$$

  -OEChem-04052300493D

 89 98  0     1  0  0  0  0  0999 V2000
  -28.2349  -11.5143   18.9375 C   0  0  0  0  0  0  0  0  0  0  0  0
  -28.2539  -12.8414   18.5235 C   0  0  0  0  0  0  0  0  0  0  0  0
  -19.3207  -28.4565   21.6294 C   0  0  0  0  0  0  0  0  0  0  0  0
  -21.1105  -27.5420   22.9700 C   0  0  0  0  0  0  0  0  0  0  0  0
  -27.2012  -11.0570   19.7521 C   0  0  0  0  0  0  0  0  0  0  0  0
  -27.2457  -13.7145   18.9335 C   0  0  0  0  0  0  0  0  0  0  0  0
  -27.7290  -20.6577   19.2842 C   0  0  0  0  0  0  0  0  0  0  0  0
  -18.5684  -27.3022   21.8464 C   0  0  0  0  0  0  0  0  0  0  0  0
  -20.3582  -26.3877   23.1870 C   0  0  0  0  0  0  0  0  0  0  0  0
  -27.7548  -22.0520   19.2469 C   0  0  0  0  0  0  0  0  0  0  0  0
  -18.4533  -24.1431   20.6499 C   0  0  0  0  0  0  0  0  0  0  0  0
  -17.8075  -23.5754   19.5516 C   0  0  0  0  0  0  0  0  0  0  0  0
  -25.4675  -22.1260   20.0282 C   0  0  0  0  0  0  0  0  0  0  0  0
  -25.3385  -28.7963   23.8751 C   0  0  0  0  0  0  0  0  0  0  0  0
  -26.0654  -30.6969   22.5727 C   0  0  0  0  0  0  0  0  0  0  0  0
  -15.6764  -23.8758   20.6494 C   0  0  0  0  0  0  0  0  0  0  0  0
  -20.5918  -28.5765   22.1912 C   0  0  0  0  0  0  0  0  0  0  0  0
  -21.8021  -30.2810   20.7293 C   0  0  0  0  0  0  0  0  0  0  0  0
  -26.1735  -11.9226   20.1616 C   0  0  0  0  0  0  0  0  0  0  0  0
  -26.5759  -19.9917   19.7089 C   0  0  0  0  0  0  0  0  0  0  0  0
  -26.2067  -13.2779   19.7751 C   0  0  0  0  0  0  0  0  0  0  0  0
  -25.4398  -20.7298   20.0796 C   0  0  0  0  0  0  0  0  0  0  0  0
  -25.4246  -29.5606   25.0387 C   0  0  0  0  0  0  0  0  0  0  0  0
  -25.6590  -29.3644   22.6421 C   0  0  0  0  0  0  0  0  0  0  0  0
  -25.8310  -30.8932   24.9693 C   0  0  0  0  0  0  0  0  0  0  0  0
  -19.0871  -26.2678   22.6252 C   0  0  0  0  0  0  0  0  0  0  0  0
  -26.6268  -22.7843   19.6177 C   0  0  0  0  0  0  0  0  0  0  0  0
  -17.7106  -24.5772   21.7480 C   0  0  0  0  0  0  0  0  0  0  0  0
  -16.4191  -23.4418   19.5513 C   0  0  0  0  0  0  0  0  0  0  0  0
  -26.1514  -31.4614   23.7363 C   0  0  0  0  0  0  0  0  0  0  0  0
  -16.3222  -24.4435   21.7477 C   0  0  0  0  0  0  0  0  0  0  0  0
  -21.3697  -29.7684   21.9670 C   0  0  0  0  0  0  0  0  0  0  0  0
  -22.4987  -31.4195   21.0536 C   0  0  0  0  0  0  0  0  0  0  0  0
  -25.2660  -29.1700   20.2012 C   0  0  0  0  0  0  0  0  0  0  0  0
  -21.5928  -29.7735   19.4048 C   0  0  0  0  0  0  0  0  0  0  0  0
  -24.9006  -16.7075   20.4038 C   0  0  0  0  0  0  0  0  0  0  0  0
  -24.0678  -18.6251   22.6487 C   0  0  0  0  0  0  0  0  0  0  0  0
  -23.0994  -20.0466   25.5947 C   0  0  0  0  0  0  0  0  0  0  0  0
  -25.1817  -32.8775   26.3592 C   0  0  0  0  0  0  0  0  0  0  0  0
  -25.0831  -11.3768   21.0495 C   0  0  0  0  0  0  0  0  0  0  0  0
  -26.4826  -18.4900   19.7063 C   0  0  0  0  0  0  0  0  0  0  0  0
  -24.2102  -19.9702   20.4967 C   0  0  0  0  0  0  0  0  0  0  0  0
  -25.5024  -28.3247   18.9639 C   0  0  0  0  0  0  0  0  0  0  0  0
  -23.8350  -12.2533   21.0656 C   0  0  0  0  0  0  0  0  0  0  0  0
  -25.2199  -26.8503   19.1516 C   0  0  0  0  0  0  0  0  0  0  0  0
  -22.7716  -34.8551   24.3657 C   0  0  0  0  0  0  0  0  0  0  0  0
  -24.2212  -13.7030   21.3179 C   0  0  0  0  0  0  0  0  0  0  0  0
  -22.1172  -33.7978   23.4784 C   0  0  0  0  0  0  0  0  0  0  0  0
  -23.2470  -34.2670   25.6908 C   0  0  0  0  0  0  0  0  0  0  0  0
  -25.6011  -27.1040   21.5875 C   0  0  0  0  0  0  0  0  0  0  0  0
  -23.5084  -32.0380   24.6398 C   0  0  0  0  0  0  0  0  0  0  0  0
  -25.1043  -14.2383   20.1835 C   0  0  1  0  0  0  0  0  0  0  0  0
  -25.6296  -17.9364   20.8618 C   0  0  1  0  0  0  0  0  0  0  0  0
  -26.0283  -26.3420   20.3339 C   0  0  1  0  0  0  0  0  0  0  0  0
  -23.0572  -32.5970   23.2821 C   0  0  1  0  0  0  0  0  0  0  0  0
  -25.0763  -28.9254   26.3459 C   0  0  0  0  0  0  0  0  0  0  0  0
  -28.3274  -32.0155   26.6053 C   0  0  0  0  0  0  0  0  0  0  0  0
  -21.3073  -19.9214   27.3469 C   0  0  0  0  0  0  0  0  0  0  0  0
  -22.1427  -20.0738   20.7780 C   0  0  0  0  0  0  0  0  0  0  0  0
  -20.8105  -20.7492   22.7873 C   0  0  0  0  0  0  0  0  0  0  0  0
  -21.0798  -18.3336   22.2260 C   0  0  0  0  0  0  0  0  0  0  0  0
  -25.0522  -19.3539   27.7079 C   0  0  0  0  0  0  0  0  0  0  0  0
  -25.8388  -24.8383   20.5219 C   0  0  0  0  0  0  0  0  0  1  0  0
  -27.0200  -31.4221   27.0899 C   0  0  0  0  0  0  0  0  0  0  0  0
  -23.0509  -19.6182   23.1516 C   0  0  1  0  0  0  0  0  0  0  0  0
  -22.6833  -19.4343   26.9200 C   0  0  2  0  0  0  0  0  0  0  0  0
  -21.7986  -19.7004   22.2338 C   0  0  0  0  0  0  0  0  0  0  0  0
  -21.7591  -30.5195   23.0006 N   0  0  0  0  0  0  0  0  0  0  0  0
  -22.4436  -31.5156   22.4130 N   0  0  0  0  0  0  0  0  0  0  0  0
  -25.5705  -28.5702   21.4353 N   0  0  0  0  0  0  0  0  0  0  0  0
  -24.5859  -18.8447   21.3665 N   0  0  0  0  0  0  0  0  0  0  0  0
  -24.0919  -33.0887   25.4897 N   0  0  0  0  0  0  0  0  0  0  0  0
  -23.1469  -32.3376   20.3057 N   0  0  0  0  0  0  0  0  0  0  0  0
  -20.8542  -28.5923   19.2508 N   0  0  0  0  0  0  0  0  0  0  0  0
  -25.6187  -15.5370   20.5584 N   0  0  0  0  0  0  0  0  0  0  0  0
  -22.7578  -19.2399   24.5298 N   0  0  0  0  0  0  0  0  0  0  0  0
  -25.9249  -31.6980   26.1627 N   0  0  0  0  0  0  0  0  0  0  0  0
  -23.6607  -19.7936   27.9861 N   0  3  0  0  0  0  0  0  0  0  0  0
  -24.8839  -30.3329   20.0445 O   0  0  0  0  0  0  0  0  0  0  0  0
  -22.0611  -30.3415   18.3891 O   0  0  0  0  0  0  0  0  0  0  0  0
  -23.7691  -16.8119   19.9451 O   0  0  0  0  0  0  0  0  0  0  0  0
  -24.3916  -17.6764   23.3686 O   0  0  0  0  0  0  0  0  0  0  0  0
  -23.6670  -21.1335   25.5120 O   0  0  0  0  0  0  0  0  0  0  0  0
  -25.4421  -33.6576   27.2835 O   0  0  0  0  0  0  0  0  0  0  0  0
  -18.3532  -25.1413   22.8373 O   0  0  0  0  0  0  0  0  0  0  0  0
  -26.6603  -24.1453   19.5832 O   0  0  0  0  0  0  0  0  0  1  0  0
  -15.7989  -22.8980   18.4959 F   0  0  0  0  0  0  0  0  0  0  0  0
  -26.5434  -32.7410   23.6570 F   0  0  0  0  0  0  0  0  0  0  0  0
  -15.6033  -24.8597   22.7993 F   0  0  0  0  0  0  0  0  0  0  0  0
  1  2  1  0  0  0  0
  1  5  2  0  0  0  0
  2  6  2  0  0  0  0
  3  8  2  0  0  0  0
  3 17  1  0  0  0  0
  4  9  1  0  0  0  0
  4 17  2  0  0  0  0
  5 19  1  0  0  0  0
  6 21  1  0  0  0  0
  7 10  2  0  0  0  0
  7 20  1  0  0  0  0
  8 26  1  0  0  0  0
  9 26  2  0  0  0  0
 10 27  1  0  0  0  0
 11 12  2  0  0  0  0
 11 28  1  0  0  0  0
 12 29  1  0  0  0  0
 13 22  1  0  0  0  0
 13 27  2  0  0  0  0
 14 23  2  0  0  0  0
 14 24  1  0  0  0  0
 15 24  2  0  0  0  0
 15 30  1  0  0  0  0
 16 29  2  0  0  0  0
 16 31  1  0  0  0  0
 17 32  1  0  0  0  0
 18 32  1  0  0  0  0
 18 33  2  0  0  0  0
 18 35  1  0  0  0  0
 19 21  2  0  0  0  0
 19 40  1  0  0  0  0
 20 22  2  0  0  0  0
 20 41  1  0  0  0  0
 21 52  1  0  0  0  0
 22 42  1  0  0  0  0
 23 25  1  0  0  0  0
 23 56  1  0  0  0  0
 24 70  1  0  0  0  0
 25 30  2  0  0  0  0
 25 77  1  0  0  0  0
 26 85  1  0  0  0  0
 27 86  1  0  0  0  0
 28 31  2  0  0  0  0
 28 85  1  0  0  0  0
 29 87  1  0  0  0  0
 30 88  1  0  0  0  0
 31 89  1  0  0  0  0
 32 68  2  0  0  0  0
 33 69  1  0  0  0  0
 33 73  1  0  0  0  0
 34 43  1  0  0  0  0
 34 70  1  0  0  0  0
 34 79  2  0  0  0  0
 35 74  1  0  0  0  0
 35 80  2  0  0  0  0
 36 53  1  0  0  0  0
 36 75  1  0  0  0  0
 36 81  2  0  0  0  0
 37 65  1  0  0  0  0
 37 71  1  0  0  0  0
 37 82  2  0  0  0  0
 38 66  1  0  0  0  0
 38 76  1  0  0  0  0
 38 83  2  0  0  0  0
 39 72  1  0  0  0  0
 39 77  1  0  0  0  0
 39 84  2  0  0  0  0
 40 44  1  0  0  0  0
 41 53  1  0  0  0  0
 42 71  1  0  0  0  0
 43 45  1  0  0  0  0
 44 47  1  0  0  0  0
 45 54  1  0  0  0  0
 46 48  1  0  0  0  0
 46 49  1  0  0  0  0
 47 52  1  0  0  0  0
 48 55  1  0  0  0  0
 49 72  1  0  0  0  0
 50 54  1  0  0  0  0
 50 70  1  0  0  0  0
 51 55  1  0  0  0  0
 51 72  1  0  0  0  0
 52 75  1  0  0  0  0
 53 71  1  0  0  0  0
 54 63  1  0  0  0  0
 55 69  1  0  0  0  0
 57 64  1  0  0  0  0
 58 66  1  0  0  0  0
 59 67  1  0  0  0  0
 60 67  1  0  0  0  0
 61 67  1  0  0  0  0
 62 78  1  0  0  0  0
 63 86  1  0  0  0  0
 64 77  1  0  0  0  0
 65 67  1  0  0  0  0
 65 76  1  0  0  0  0
 66 78  1  0  0  0  0
 68 69  1  0  0  0  0
M  CHG  1  78   1
M  ISO  4  39 100  63 101  77 100  86 101
M  END
> <Batch ID>
0097

> <Smiles>
CC[100N:0](c1c(C)cc(N2CC([101CH2:1][101O:1]c3ccc4c(c3)CN(C(=O)C(NC(=O)C(C)NC)C(C)(C)C)C(C(=O)NC3CCCc5ccccc53)C4)CCC2=O)cc1F)[100C:0](=O)N1CCCC(n2nc(-c3ccc(Oc4ccc(F)cc4F)cc3)c(C(N)=O)c2N)C1

> <Shape>
0.237

> <Color>
0.060

> <Negative vol penalty>
0.000

$$$$

  -OEChem-04052300493D

 87 96  0     1  0  0  0  0  0999 V2000
  -30.8079  -20.1688   21.0694 C   0  0  0  0  0  0  0  0  0  0  0  0
  -29.4509  -20.4126   20.8833 C   0  0  0  0  0  0  0  0  0  0  0  0
  -26.4061  -24.7729   18.2721 C   0  0  0  0  0  0  0  0  0  0  0  0
  -28.0637  -26.3339   17.4642 C   0  0  0  0  0  0  0  0  0  0  0  0
  -19.3840  -26.8408   24.1512 C   0  0  0  0  0  0  0  0  0  0  0  0
  -31.3198  -18.8886   20.8619 C   0  0  0  0  0  0  0  0  0  0  0  0
  -28.6052  -19.3766   20.4885 C   0  0  0  0  0  0  0  0  0  0  0  0
  -24.2812  -19.2877   23.1228 C   0  0  0  0  0  0  0  0  0  0  0  0
  -19.0920  -25.4829   24.2793 C   0  0  0  0  0  0  0  0  0  0  0  0
  -26.5604  -24.0100   17.1146 C   0  0  0  0  0  0  0  0  0  0  0  0
  -28.2180  -25.5709   16.3067 C   0  0  0  0  0  0  0  0  0  0  0  0
  -23.3006  -20.2133   22.7686 C   0  0  0  0  0  0  0  0  0  0  0  0
  -26.7797  -21.4575   14.5355 C   0  0  0  0  0  0  0  0  0  0  0  0
  -26.8786  -20.0736   14.6793 C   0  0  0  0  0  0  0  0  0  0  0  0
  -22.1445  -18.5024   21.5214 C   0  0  0  0  0  0  0  0  0  0  0  0
  -20.1362  -25.0568   22.1427 C   0  0  0  0  0  0  0  0  0  0  0  0
  -28.8527  -20.3565   16.0433 C   0  0  0  0  0  0  0  0  0  0  0  0
  -27.1578  -25.9349   18.4469 C   0  0  0  0  0  0  0  0  0  0  0  0
  -20.0521  -27.3067   23.0188 C   0  0  0  0  0  0  0  0  0  0  0  0
  -27.7111  -26.5918   20.8489 C   0  0  0  0  0  0  0  0  0  0  0  0
  -30.4783  -17.8342   20.4738 C   0  0  0  0  0  0  0  0  0  0  0  0
  -24.2064  -17.9629   22.6692 C   0  0  0  0  0  0  0  0  0  0  0  0
  -29.1066  -18.0814   20.2743 C   0  0  0  0  0  0  0  0  0  0  0  0
  -23.1240  -17.5613   21.8734 C   0  0  0  0  0  0  0  0  0  0  0  0
  -19.4681  -24.5909   23.2751 C   0  0  0  0  0  0  0  0  0  0  0  0
  -27.4663  -24.4090   16.1319 C   0  0  0  0  0  0  0  0  0  0  0  0
  -22.2337  -19.8215   21.9654 C   0  0  0  0  0  0  0  0  0  0  0  0
  -27.7173  -22.2909   15.1455 C   0  0  0  0  0  0  0  0  0  0  0  0
  -27.9151  -19.5231   15.4332 C   0  0  0  0  0  0  0  0  0  0  0  0
  -20.4282  -26.4147   22.0146 C   0  0  0  0  0  0  0  0  0  0  0  0
  -28.7538  -21.7404   15.8994 C   0  0  0  0  0  0  0  0  0  0  0  0
  -26.9985  -26.7237   19.6421 C   0  0  0  0  0  0  0  0  0  0  0  0
  -27.1905  -27.5675   21.6635 C   0  0  0  0  0  0  0  0  0  0  0  0
  -18.5014  -22.5865   24.4904 C   0  0  0  0  0  0  0  0  0  0  0  0
  -20.3585  -28.7542   22.8855 C   0  0  0  0  0  0  0  0  0  0  0  0
  -28.7508  -25.6699   21.2021 C   0  0  0  0  0  0  0  0  0  0  0  0
  -26.0329  -16.1109   20.8422 C   0  0  0  0  0  0  0  0  0  0  0  0
  -23.9071  -13.8210   21.7137 C   0  0  0  0  0  0  0  0  0  0  0  0
  -20.7715  -13.0476   22.8167 C   0  0  0  0  0  0  0  0  0  0  0  0
  -21.9477  -30.3602   21.8760 C   0  0  0  0  0  0  0  0  0  0  0  0
  -31.0856  -16.4780   20.2156 C   0  0  0  0  0  0  0  0  0  0  0  0
  -25.2579  -16.9699   23.0822 C   0  0  0  0  0  0  0  0  0  0  0  0
  -22.9867  -16.1459   21.3772 C   0  0  0  0  0  0  0  0  0  0  0  0
  -18.3926  -21.1111   24.1858 C   0  0  0  0  0  0  0  0  0  0  0  0
  -30.0578  -15.3506   20.1615 C   0  0  0  0  0  0  0  0  0  0  0  0
  -18.6070  -21.0435   22.6856 C   0  0  0  0  0  0  0  0  0  0  0  0
  -25.1132  -31.8838   21.4821 C   0  0  0  0  0  0  0  0  0  0  0  0
  -28.8703  -15.7521   19.2923 C   0  0  0  0  0  0  0  0  0  0  0  0
  -26.0278  -30.7200   21.0903 C   0  0  0  0  0  0  0  0  0  0  0  0
  -23.7265  -31.7520   20.8540 C   0  0  0  0  0  0  0  0  0  0  0  0
  -23.9704  -29.3081   20.6932 C   0  0  0  0  0  0  0  0  0  0  0  0
  -28.1530  -16.9779   19.8705 C   0  0  1  0  0  0  0  0  0  0  0  0
  -25.3538  -15.7742   22.1396 C   0  0  1  0  0  0  0  0  0  0  0  0
  -25.3561  -29.3580   21.3570 C   0  0  1  0  0  0  0  0  0  0  0  0
  -19.5491  -22.2082   22.4018 C   0  0  2  0  0  0  0  0  0  0  0  0
  -19.3157  -11.0883   23.3994 C   0  0  0  0  0  0  0  0  0  0  0  0
  -23.5111  -13.2356   18.7455 C   0  0  0  0  0  0  0  0  0  0  0  0
  -21.4200  -11.9940   19.3407 C   0  0  0  0  0  0  0  0  0  0  0  0
  -23.6244  -11.2064   20.2029 C   0  0  0  0  0  0  0  0  0  0  0  0
  -20.4629  -13.9610   25.6148 C   0  0  0  0  0  0  0  0  0  0  0  0
  -21.0113  -21.7787   22.5409 C   0  0  0  0  0  0  0  0  0  1  0  0
  -22.5990  -13.3100   21.1597 C   0  0  1  0  0  0  0  0  0  0  0  0
  -20.2920  -12.1287   23.9259 C   0  0  2  0  0  0  0  0  0  0  0  0
  -22.7919  -12.4637   19.8698 C   0  0  0  0  0  0  0  0  0  0  0  0
  -26.0939  -27.7057   19.6820 N   0  0  0  0  0  0  0  0  0  0  0  0
  -26.2347  -28.1997   20.9239 N   0  0  0  0  0  0  0  0  0  0  0  0
  -19.1681  -23.1968   23.4068 N   0  0  0  0  0  0  0  0  0  0  0  0
  -24.0437  -15.2135   21.8028 N   0  0  0  0  0  0  0  0  0  0  0  0
  -23.1554  -30.4394   21.1609 N   0  0  0  0  0  0  0  0  0  0  0  0
  -27.4617  -27.9378   22.9330 N   0  0  0  0  0  0  0  0  0  0  0  0
  -29.1661  -24.7329   20.2460 N   0  0  0  0  0  0  0  0  0  0  0  0
  -21.5074  -29.0618   22.1562 N   0  0  0  0  0  0  0  0  0  0  0  0
  -27.3190  -16.5944   20.9893 N   0  0  0  0  0  0  0  0  0  0  0  0
  -21.9449  -12.5958   22.2507 N   0  0  0  0  0  0  0  0  0  0  0  0
  -19.6103  -12.9158   24.9921 N   0  3  0  0  0  0  0  0  0  0  0  0
  -18.0827  -23.0679   25.5333 O   0  0  0  0  0  0  0  0  0  0  0  0
  -19.5880  -29.5761   23.3739 O   0  0  0  0  0  0  0  0  0  0  0  0
  -29.2840  -25.6660   22.3375 O   0  0  0  0  0  0  0  0  0  0  0  0
  -25.4348  -15.9430   19.7859 O   0  0  0  0  0  0  0  0  0  0  0  0
  -24.7729  -13.0141   22.0614 O   0  0  0  0  0  0  0  0  0  0  0  0
  -20.1638  -14.0624   22.4831 O   0  0  0  0  0  0  0  0  0  0  0  0
  -21.3338  -31.3588   22.2650 O   0  0  0  0  0  0  0  0  0  0  0  0
  -27.6173  -23.6647   15.0024 O   0  0  0  0  0  0  0  0  0  0  0  0
  -21.2756  -20.7232   21.6176 O   0  0  0  0  0  0  0  0  0  1  0  0
  -28.0091  -18.1942   15.5725 F   0  0  0  0  0  0  0  0  0  0  0  0
  -21.0704  -26.8513   20.9217 F   0  0  0  0  0  0  0  0  0  0  0  0
  -29.6568  -22.5360   16.4888 F   0  0  0  0  0  0  0  0  0  0  0  0
  1  2  1  0  0  0  0
  1  6  2  0  0  0  0
  2  7  2  0  0  0  0
  3 10  2  0  0  0  0
  3 18  1  0  0  0  0
  4 11  1  0  0  0  0
  4 18  2  0  0  0  0
  5  9  2  0  0  0  0
  5 19  1  0  0  0  0
  6 21  1  0  0  0  0
  7 23  1  0  0  0  0
  8 12  2  0  0  0  0
  8 22  1  0  0  0  0
  9 25  1  0  0  0  0
 10 26  1  0  0  0  0
 11 26  2  0  0  0  0
 12 27  1  0  0  0  0
 13 14  2  0  0  0  0
 13 28  1  0  0  0  0
 14 29  1  0  0  0  0
 15 24  1  0  0  0  0
 15 27  2  0  0  0  0
 16 25  2  0  0  0  0
 16 30  1  0  0  0  0
 17 29  2  0  0  0  0
 17 31  1  0  0  0  0
 18 32  1  0  0  0  0
 19 30  2  0  0  0  0
 19 35  1  0  0  0  0
 20 32  1  0  0  0  0
 20 33  2  0  0  0  0
 20 36  1  0  0  0  0
 21 23  2  0  0  0  0
 21 41  1  0  0  0  0
 22 24  2  0  0  0  0
 22 42  1  0  0  0  0
 23 52  1  0  0  0  0
 24 43  1  0  0  0  0
 25 67  1  0  0  0  0
 26 83  1  0  0  0  0
 27 84  1  0  0  0  0
 28 31  2  0  0  0  0
 28 83  1  0  0  0  0
 29 85  1  0  0  0  0
 30 86  1  0  0  0  0
 31 87  1  0  0  0  0
 32 65  2  0  0  0  0
 33 66  1  0  0  0  0
 33 70  1  0  0  0  0
 34 44  1  0  0  0  0
 34 67  1  0  0  0  0
 34 76  2  0  0  0  0
 35 72  1  0  0  0  0
 35 77  2  0  0  0  0
 36 71  1  0  0  0  0
 36 78  2  0  0  0  0
 37 53  1  0  0  0  0
 37 73  1  0  0  0  0
 37 79  2  0  0  0  0
 38 62  1  0  0  0  0
 38 68  1  0  0  0  0
 38 80  2  0  0  0  0
 39 63  1  0  0  0  0
 39 74  1  0  0  0  0
 39 81  2  0  0  0  0
 40 69  1  0  0  0  0
 40 72  1  0  0  0  0
 40 82  2  0  0  0  0
 41 45  1  0  0  0  0
 42 53  1  0  0  0  0
 43 68  1  0  0  0  0
 44 46  1  0  0  0  0
 45 48  1  0  0  0  0
 46 55  1  0  0  0  0
 47 49  1  0  0  0  0
 47 50  1  0  0  0  0
 48 52  1  0  0  0  0
 49 54  1  0  0  0  0
 50 69  1  0  0  0  0
 51 54  1  0  0  0  0
 51 69  1  0  0  0  0
 52 73  1  0  0  0  0
 53 68  1  0  0  0  0
 54 66  1  0  0  0  0
 55 61  1  0  0  0  0
 55 67  1  0  0  0  0
 56 63  1  0  0  0  0
 57 64  1  0  0  0  0
 58 64  1  0  0  0  0
 59 64  1  0  0  0  0
 60 75  1  0  0  0  0
 61 84  1  0  0  0  0
 62 64  1  0  0  0  0
 62 74  1  0  0  0  0
 63 75  1  0  0  0  0
 65 66  1  0  0  0  0
M  CHG  1  75   1
M  ISO  4  40 100  61 101  72 100  84 101
M  END
> <Batch ID>
0097

> <Smiles>
CNC(C)C(=O)NC(C(=O)N1Cc2cc([101O:1][101CH2:1]C3CCC(=O)N3c3ccc(C(=O)[100NH:0][100C:0](=O)N4CCCC(n5nc(-c6ccc(Oc7ccc(F)cc7F)cc6)c(C(N)=O)c5N)C4)c(F)c3)ccc2CC1C(=O)NC1CCCc2ccccc21)C(C)(C)C

> <Shape>
0.206

> <Color>
0.059

> <Negative vol penalty>
0.000

$$$$

  -OEChem-04052300493D

 87 96  0     1  0  0  0  0  0999 V2000
  -28.1950  -33.3598   26.6191 C   0  0  0  0  0  0  0  0  0  0  0  0
  -28.3387  -32.2212   25.8327 C   0  0  0  0  0  0  0  0  0  0  0  0
  -22.9457   -9.6967   19.9174 C   0  0  0  0  0  0  0  0  0  0  0  0
  -23.2884  -11.3449   18.1845 C   0  0  0  0  0  0  0  0  0  0  0  0
  -26.9257  -33.7698   27.0249 C   0  0  0  0  0  0  0  0  0  0  0  0
  -27.2131  -31.4912   25.4525 C   0  0  0  0  0  0  0  0  0  0  0  0
  -27.3103  -30.1768   20.5630 C   0  0  0  0  0  0  0  0  0  0  0  0
  -30.7561  -20.0461   21.0581 C   0  0  0  0  0  0  0  0  0  0  0  0
  -30.5481  -18.6672   21.0286 C   0  0  0  0  0  0  0  0  0  0  0  0
  -22.0332   -9.0283   19.1012 C   0  0  0  0  0  0  0  0  0  0  0  0
  -22.3760  -10.6765   17.3682 C   0  0  0  0  0  0  0  0  0  0  0  0
  -28.1201  -29.0984   20.2096 C   0  0  0  0  0  0  0  0  0  0  0  0
  -18.8024   -9.3772   18.1714 C   0  0  0  0  0  0  0  0  0  0  0  0
  -17.6055   -8.9543   18.7495 C   0  0  0  0  0  0  0  0  0  0  0  0
  -26.1823  -27.6621   20.1755 C   0  0  0  0  0  0  0  0  0  0  0  0
  -28.1610  -19.0249   21.1322 C   0  0  0  0  0  0  0  0  0  0  0  0
  -18.1438   -6.6664   18.1903 C   0  0  0  0  0  0  0  0  0  0  0  0
  -23.5733  -10.8550   19.4590 C   0  0  0  0  0  0  0  0  0  0  0  0
  -24.2698  -12.1081   21.5691 C   0  0  0  0  0  0  0  0  0  0  0  0
  -25.7831  -33.0499   26.6414 C   0  0  0  0  0  0  0  0  0  0  0  0
  -25.9296  -30.0034   20.7363 C   0  0  0  0  0  0  0  0  0  0  0  0
  -25.9274  -31.8912   25.8547 C   0  0  0  0  0  0  0  0  0  0  0  0
  -25.3568  -28.7405   20.5287 C   0  0  0  0  0  0  0  0  0  0  0  0
  -29.6665  -20.9145   21.1248 C   0  0  0  0  0  0  0  0  0  0  0  0
  -29.2506  -18.1566   21.0655 C   0  0  0  0  0  0  0  0  0  0  0  0
  -21.7484   -9.5181   17.8266 C   0  0  0  0  0  0  0  0  0  0  0  0
  -27.5566  -27.8402   20.0186 C   0  0  0  0  0  0  0  0  0  0  0  0
  -19.6700   -8.4446   17.6026 C   0  0  0  0  0  0  0  0  0  0  0  0
  -17.2762   -7.5989   18.7590 C   0  0  0  0  0  0  0  0  0  0  0  0
  -28.3690  -20.4039   21.1618 C   0  0  0  0  0  0  0  0  0  0  0  0
  -19.3406   -7.0893   17.6121 C   0  0  0  0  0  0  0  0  0  0  0  0
  -24.5155  -11.5463   20.3019 C   0  0  0  0  0  0  0  0  0  0  0  0
  -25.4768  -12.6434   21.9473 C   0  0  0  0  0  0  0  0  0  0  0  0
  -31.0511  -22.8812   21.7291 C   0  0  0  0  0  0  0  0  0  0  0  0
  -23.0587  -12.1430   22.3358 C   0  0  0  0  0  0  0  0  0  0  0  0
  -23.9144  -30.3423   23.1710 C   0  0  0  0  0  0  0  0  0  0  0  0
  -21.6805  -29.7279   20.9007 C   0  0  0  0  0  0  0  0  0  0  0  0
  -21.3161  -27.4743   18.1067 C   0  0  0  0  0  0  0  0  0  0  0  0
  -29.9050  -15.8323   20.3870 C   0  0  0  0  0  0  0  0  0  0  0  0
  -24.4359  -33.5050   27.1438 C   0  0  0  0  0  0  0  0  0  0  0  0
  -25.0659  -31.1825   21.0915 C   0  0  0  0  0  0  0  0  0  0  0  0
  -23.8770  -28.5059   20.6825 C   0  0  0  0  0  0  0  0  0  0  0  0
  -31.3354  -24.3425   21.4375 C   0  0  0  0  0  0  0  0  0  0  0  0
  -23.2631  -32.8881   26.3861 C   0  0  0  0  0  0  0  0  0  0  0  0
  -30.1008  -25.2113   21.3388 C   0  0  0  0  0  0  0  0  0  0  0  0
  -30.0970  -12.1598   19.9760 C   0  0  0  0  0  0  0  0  0  0  0  0
  -23.4663  -31.3855   26.2195 C   0  0  0  0  0  0  0  0  0  0  0  0
  -28.6317  -11.7337   20.0439 C   0  0  0  0  0  0  0  0  0  0  0  0
  -30.2502  -13.5766   19.4314 C   0  0  0  0  0  0  0  0  0  0  0  0
  -28.7583  -23.2096   20.7606 C   0  0  0  0  0  0  0  0  0  0  0  0
  -27.9887  -14.1676   20.2545 C   0  0  0  0  0  0  0  0  0  0  0  0
  -24.7284  -31.0869   25.4013 C   0  0  1  0  0  0  0  0  0  0  0  0
  -23.7464  -30.7816   21.7439 C   0  0  1  0  0  0  0  0  0  0  0  0
  -29.1600  -24.6121   20.3065 C   0  0  1  0  0  0  0  0  0  0  0  0
  -27.8050  -12.7586   20.8379 C   0  0  1  0  0  0  0  0  0  0  0  0
  -19.9840  -27.6996   15.9920 C   0  0  0  0  0  0  0  0  0  0  0  0
  -19.5256  -28.2113   22.4390 C   0  0  0  0  0  0  0  0  0  0  0  0
  -18.9795  -26.9839   20.3263 C   0  0  0  0  0  0  0  0  0  0  0  0
  -18.6953  -29.4597   20.4373 C   0  0  0  0  0  0  0  0  0  0  0  0
  -27.7352  -16.2248   21.4684 C   0  0  0  0  0  0  0  0  0  0  0  0
  -23.7011  -27.0079   16.4176 C   0  0  0  0  0  0  0  0  0  0  0  0
  -27.9276  -25.4929   20.1111 C   0  0  0  0  0  0  0  0  0  1  0  0
  -21.0254  -28.4821   20.3549 C   0  0  1  0  0  0  0  0  0  0  0  0
  -21.3557  -27.8392   16.6337 C   0  0  2  0  0  0  0  0  0  0  0  0
  -19.5828  -28.2838   20.9000 C   0  0  0  0  0  0  0  0  0  0  0  0
  -25.7794  -11.7096   19.9018 N   0  0  0  0  0  0  0  0  0  0  0  0
  -26.3385  -12.3801   20.9235 N   0  0  0  0  0  0  0  0  0  0  0  0
  -29.8853  -22.3449   21.1555 N   0  0  0  0  0  0  0  0  0  0  0  0
  -23.0754  -29.6888   21.0370 N   0  0  0  0  0  0  0  0  0  0  0  0
  -29.4118  -14.5312   20.1583 N   0  0  0  0  0  0  0  0  0  0  0  0
  -25.8745  -13.3088   23.0525 N   0  0  0  0  0  0  0  0  0  0  0  0
  -21.9104  -11.5452   21.7986 N   0  0  0  0  0  0  0  0  0  0  0  0
  -24.4791  -31.3000   23.9917 N   0  0  0  0  0  0  0  0  0  0  0  0
  -21.1067  -28.5814   18.9017 N   0  0  0  0  0  0  0  0  0  0  0  0
  -29.0358  -16.7305   21.0349 N   0  0  0  0  0  0  0  0  0  0  0  0
  -22.3075  -26.9530   15.9060 N   0  3  0  0  0  0  0  0  0  0  0  0
  -31.8794  -22.2505   22.3916 O   0  0  0  0  0  0  0  0  0  0  0  0
  -22.9925  -12.7024   23.4566 O   0  0  0  0  0  0  0  0  0  0  0  0
  -23.5568  -29.2183   23.5033 O   0  0  0  0  0  0  0  0  0  0  0  0
  -20.9811  -30.7024   21.1885 O   0  0  0  0  0  0  0  0  0  0  0  0
  -21.4532  -26.3220   18.5115 O   0  0  0  0  0  0  0  0  0  0  0  0
  -31.0223  -16.1874   19.9917 O   0  0  0  0  0  0  0  0  0  0  0  0
  -20.8582   -8.8660   17.0298 O   0  0  0  0  0  0  0  0  0  0  0  0
  -28.3449  -26.7857   19.6742 O   0  0  0  0  0  0  0  0  0  1  0  0
  -16.1275   -7.1928   19.3156 F   0  0  0  0  0  0  0  0  0  0  0  0
  -27.3141  -21.2291   21.2265 F   0  0  0  0  0  0  0  0  0  0  0  0
  -20.1706   -6.1886   17.0683 F   0  0  0  0  0  0  0  0  0  0  0  0
  1  2  1  0  0  0  0
  1  5  2  0  0  0  0
  2  6  2  0  0  0  0
  3 10  2  0  0  0  0
  3 18  1  0  0  0  0
  4 11  1  0  0  0  0
  4 18  2  0  0  0  0
  5 20  1  0  0  0  0
  6 22  1  0  0  0  0
  7 12  2  0  0  0  0
  7 21  1  0  0  0  0
  8  9  2  0  0  0  0
  8 24  1  0  0  0  0
  9 25  1  0  0  0  0
 10 26  1  0  0  0  0
 11 26  2  0  0  0  0
 12 27  1  0  0  0  0
 13 14  2  0  0  0  0
 13 28  1  0  0  0  0
 14 29  1  0  0  0  0
 15 23  1  0  0  0  0
 15 27  2  0  0  0  0
 16 25  2  0  0  0  0
 16 30  1  0  0  0  0
 17 29  2  0  0  0  0
 17 31  1  0  0  0  0
 18 32  1  0  0  0  0
 19 32  1  0  0  0  0
 19 33  2  0  0  0  0
 19 35  1  0  0  0  0
 20 22  2  0  0  0  0
 20 40  1  0  0  0  0
 21 23  2  0  0  0  0
 21 41  1  0  0  0  0
 22 52  1  0  0  0  0
 23 42  1  0  0  0  0
 24 30  2  0  0  0  0
 24 68  1  0  0  0  0
 25 75  1  0  0  0  0
 26 83  1  0  0  0  0
 27 84  1  0  0  0  0
 28 31  2  0  0  0  0
 28 83  1  0  0  0  0
 29 85  1  0  0  0  0
 30 86  1  0  0  0  0
 31 87  1  0  0  0  0
 32 66  2  0  0  0  0
 33 67  1  0  0  0  0
 33 71  1  0  0  0  0
 34 43  1  0  0  0  0
 34 68  1  0  0  0  0
 34 77  2  0  0  0  0
 35 72  1  0  0  0  0
 35 78  2  0  0  0  0
 36 53  1  0  0  0  0
 36 73  1  0  0  0  0
 36 79  2  0  0  0  0
 37 63  1  0  0  0  0
 37 69  1  0  0  0  0
 37 80  2  0  0  0  0
 38 64  1  0  0  0  0
 38 74  1  0  0  0  0
 38 81  2  0  0  0  0
 39 70  1  0  0  0  0
 39 75  1  0  0  0  0
 39 82  2  0  0  0  0
 40 44  1  0  0  0  0
 41 53  1  0  0  0  0
 42 69  1  0  0  0  0
 43 45  1  0  0  0  0
 44 47  1  0  0  0  0
 45 54  1  0  0  0  0
 46 48  1  0  0  0  0
 46 49  1  0  0  0  0
 47 52  1  0  0  0  0
 48 55  1  0  0  0  0
 49 70  1  0  0  0  0
 50 54  1  0  0  0  0
 50 68  1  0  0  0  0
 51 55  1  0  0  0  0
 51 70  1  0  0  0  0
 52 73  1  0  0  0  0
 53 69  1  0  0  0  0
 54 62  1  0  0  0  0
 55 67  1  0  0  0  0
 56 64  1  0  0  0  0
 57 65  1  0  0  0  0
 58 65  1  0  0  0  0
 59 65  1  0  0  0  0
 60 75  1  0  0  0  0
 61 76  1  0  0  0  0
 62 84  1  0  0  0  0
 63 65  1  0  0  0  0
 63 74  1  0  0  0  0
 64 76  1  0  0  0  0
 66 67  1  0  0  0  0
M  CHG  1  76   1
M  ISO  4  39 100  62 101  75 100  84 101
M  END
> <Batch ID>
0097

> <Smiles>
CNC(C)C(=O)NC(C(=O)N1Cc2cc([101O:1][101CH2:1]C3CCC(=O)N(c4ccc([100N:0](C)[100C:0](=O)N5CCCC(n6nc(-c7ccc(Oc8ccc(F)cc8F)cc7)c(C(N)=O)c6N)C5)cc4F)C3)ccc2CC1C(=O)NC1CCCc2ccccc21)C(C)(C)C

> <Shape>
0.292

> <Color>
0.104

> <Negative vol penalty>
0.000

$$$$

  -OEChem-04052300493D

 90 99  0     1  0  0  0  0  0999 V2000
  -19.1279  -29.6224   25.7522 C   0  0  0  0  0  0  0  0  0  0  0  0
  -20.3294  -28.9350   25.8906 C   0  0  0  0  0  0  0  0  0  0  0  0
  -24.7677   -8.8516   21.7842 C   0  0  0  0  0  0  0  0  0  0  0  0
  -23.0579  -10.4488   21.1823 C   0  0  0  0  0  0  0  0  0  0  0  0
  -18.3073  -29.3751   24.6524 C   0  0  0  0  0  0  0  0  0  0  0  0
  -20.7106  -27.9990   24.9298 C   0  0  0  0  0  0  0  0  0  0  0  0
  -26.4048  -26.7785   23.0346 C   0  0  0  0  0  0  0  0  0  0  0  0
  -23.8223   -7.8266   21.7500 C   0  0  0  0  0  0  0  0  0  0  0  0
  -22.1124   -9.4238   21.1480 C   0  0  0  0  0  0  0  0  0  0  0  0
  -27.3118  -25.7756   23.3744 C   0  0  0  0  0  0  0  0  0  0  0  0
  -21.7850   -4.8442   22.1726 C   0  0  0  0  0  0  0  0  0  0  0  0
  -21.7888   -3.9212   23.2184 C   0  0  0  0  0  0  0  0  0  0  0  0
  -26.5950  -24.4886   21.4642 C   0  0  0  0  0  0  0  0  0  0  0  0
  -31.2749  -19.5948   19.8842 C   0  0  0  0  0  0  0  0  0  0  0  0
  -29.0047  -20.3396   18.4440 C   0  0  0  0  0  0  0  0  0  0  0  0
  -21.3748   -5.7051   24.7943 C   0  0  0  0  0  0  0  0  0  0  0  0
  -24.3855  -10.1627   21.5003 C   0  0  0  0  0  0  0  0  0  0  0  0
  -26.1406  -11.6234   22.6378 C   0  0  0  0  0  0  0  0  0  0  0  0
  -18.6832  -28.4426   23.6727 C   0  0  0  0  0  0  0  0  0  0  0  0
  -25.5771  -26.6389   21.9114 C   0  0  0  0  0  0  0  0  0  0  0  0
  -19.8936  -27.7380   23.8167 C   0  0  0  0  0  0  0  0  0  0  0  0
  -25.6802  -25.4923   21.1108 C   0  0  0  0  0  0  0  0  0  0  0  0
  -30.3288  -18.6339   19.5278 C   0  0  0  0  0  0  0  0  0  0  0  0
  -31.0859  -20.9282   19.5207 C   0  0  0  0  0  0  0  0  0  0  0  0
  -29.1937  -19.0062   18.8076 C   0  0  0  0  0  0  0  0  0  0  0  0
  -22.4946   -8.1127   21.4319 C   0  0  0  0  0  0  0  0  0  0  0  0
  -27.4049  -24.6292   22.5908 C   0  0  0  0  0  0  0  0  0  0  0  0
  -21.5762   -6.1977   22.4376 C   0  0  0  0  0  0  0  0  0  0  0  0
  -29.9508  -21.3005   18.8006 C   0  0  0  0  0  0  0  0  0  0  0  0
  -21.5837   -4.3517   24.5292 C   0  0  0  0  0  0  0  0  0  0  0  0
  -21.3710   -6.6281   23.7485 C   0  0  0  0  0  0  0  0  0  0  0  0
  -25.3615  -11.2220   21.5360 C   0  0  0  0  0  0  0  0  0  0  0  0
  -26.9033  -12.6606   22.1593 C   0  0  0  0  0  0  0  0  0  0  0  0
  -33.1434  -22.1128   22.1446 C   0  0  0  0  0  0  0  0  0  0  0  0
  -26.1720  -11.1050   23.9742 C   0  0  0  0  0  0  0  0  0  0  0  0
  -22.4365  -26.4903   21.4439 C   0  0  0  0  0  0  0  0  0  0  0  0
  -23.2924  -26.5475   18.3156 C   0  0  0  0  0  0  0  0  0  0  0  0
  -25.6815  -25.9459   15.9541 C   0  0  0  0  0  0  0  0  0  0  0  0
  -27.5140  -17.2700   19.4035 C   0  0  0  0  0  0  0  0  0  0  0  0
  -17.7408  -28.1747   22.5260 C   0  0  0  0  0  0  0  0  0  0  0  0
  -24.6228  -27.7417   21.5431 C   0  0  0  0  0  0  0  0  0  0  0  0
  -24.8284  -25.3030   19.8832 C   0  0  0  0  0  0  0  0  0  0  0  0
  -32.9628  -22.4172   23.6189 C   0  0  0  0  0  0  0  0  0  0  0  0
  -18.3951  -27.4397   21.3590 C   0  0  0  0  0  0  0  0  0  0  0  0
  -31.9062  -23.4611   23.9227 C   0  0  0  0  0  0  0  0  0  0  0  0
  -27.6533  -14.3062   17.4440 C   0  0  0  0  0  0  0  0  0  0  0  0
  -19.2191  -26.2602   21.8655 C   0  0  0  0  0  0  0  0  0  0  0  0
  -27.1190  -13.2663   18.4283 C   0  0  0  0  0  0  0  0  0  0  0  0
  -26.9022  -15.6338   17.5501 C   0  0  0  0  0  0  0  0  0  0  0  0
  -30.8329  -23.0296   21.7324 C   0  0  0  0  0  0  0  0  0  0  0  0
  -26.3219  -15.1504   19.9068 C   0  0  0  0  0  0  0  0  0  0  0  0
  -20.3534  -26.7331   22.7828 C   0  0  1  0  0  0  0  0  0  0  0  0
  -23.4661  -27.2644   20.6705 C   0  0  1  0  0  0  0  0  0  0  0  0
  -30.6022  -23.0713   23.2397 C   0  0  2  0  0  0  0  0  0  0  0  0
  -27.0963  -13.8238   19.8625 C   0  0  1  0  0  0  0  0  0  0  0  0
  -30.5572  -17.2130   19.9303 C   0  0  0  0  0  0  0  0  0  0  0  0
  -26.0752  -26.0540   13.4781 C   0  0  0  0  0  0  0  0  0  0  0  0
  -21.6259  -24.0189   17.9426 C   0  0  0  0  0  0  0  0  0  0  0  0
  -22.7982  -23.6519   15.7611 C   0  0  0  0  0  0  0  0  0  0  0  0
  -21.4065  -25.6943   16.0989 C   0  0  0  0  0  0  0  0  0  0  0  0
  -27.7415  -17.9971   17.0382 C   0  0  0  0  0  0  0  0  0  0  0  0
  -27.8879  -27.8925   16.2727 C   0  0  0  0  0  0  0  0  0  0  0  0
  -28.5631  -22.8900   17.7036 C   0  0  0  0  0  0  0  0  0  0  0  0
  -32.1140  -21.9498   19.9125 C   0  0  0  0  0  0  0  0  0  0  0  0
  -29.4833  -24.0491   23.5906 C   0  0  0  0  0  0  0  0  0  1  0  0
  -23.6330  -25.5021   17.2811 C   0  0  1  0  0  0  0  0  0  0  0  0
  -26.1952  -26.7914   14.8027 C   0  0  2  0  0  0  0  0  0  0  0  0
  -22.3807  -24.7192   16.7951 C   0  0  0  0  0  0  0  0  0  0  0  0
  -25.6067  -11.9454   20.4403 N   0  0  0  0  0  0  0  0  0  0  0  0
  -26.5484  -12.8118   20.8511 N   0  0  0  0  0  0  0  0  0  0  0  0
  -32.0305  -22.2930   21.3259 N   0  0  0  0  0  0  0  0  0  0  0  0
  -23.9062  -26.4066   19.5683 N   0  0  0  0  0  0  0  0  0  0  0  0
  -26.8718  -16.1055   18.9418 N   0  0  0  0  0  0  0  0  0  0  0  0
  -27.8362  -13.4489   22.7342 N   0  0  0  0  0  0  0  0  0  0  0  0
  -25.3082  -11.6616   24.9272 N   0  0  0  0  0  0  0  0  0  0  0  0
  -21.4439  -27.2743   22.0002 N   0  0  0  0  0  0  0  0  0  0  0  0
  -24.3521  -26.1977   16.2193 N   0  0  0  0  0  0  0  0  0  0  0  0
  -28.2020  -18.0266   18.4307 N   0  0  0  0  0  0  0  0  0  0  0  0
  -27.6275  -27.1429   15.0169 N   0  3  0  0  0  0  0  0  0  0  0  0
  -34.2206  -21.6517   21.7571 O   0  0  0  0  0  0  0  0  0  0  0  0
  -26.9548  -10.1867   24.3171 O   0  0  0  0  0  0  0  0  0  0  0  0
  -22.5345  -25.2717   21.5285 O   0  0  0  0  0  0  0  0  0  0  0  0
  -22.5160  -27.4596   18.0207 O   0  0  0  0  0  0  0  0  0  0  0  0
  -26.3879  -25.1397   16.5555 O   0  0  0  0  0  0  0  0  0  0  0  0
  -27.4554  -17.6209   20.5882 O   0  0  0  0  0  0  0  0  0  0  0  0
  -21.5719   -7.1127   21.3982 O   0  0  0  0  0  0  0  0  0  0  0  0
  -29.7503  -22.5984   18.4381 O   0  0  0  0  0  0  0  0  0  0  0  0
  -28.2888  -23.6484   22.9205 O   0  0  0  0  0  0  0  0  0  1  0  0
  -21.5858   -3.4650   25.5332 F   0  0  0  0  0  0  0  0  0  0  0  0
  -21.1687   -7.9269   24.0092 F   0  0  0  0  0  0  0  0  0  0  0  0
  1  2  1  0  0  0  0
  1  5  2  0  0  0  0
  2  6  2  0  0  0  0
  3  8  2  0  0  0  0
  3 17  1  0  0  0  0
  4  9  1  0  0  0  0
  4 17  2  0  0  0  0
  5 19  1  0  0  0  0
  6 21  1  0  0  0  0
  7 10  2  0  0  0  0
  7 20  1  0  0  0  0
  8 26  1  0  0  0  0
  9 26  2  0  0  0  0
 10 27  1  0  0  0  0
 11 12  2  0  0  0  0
 11 28  1  0  0  0  0
 12 30  1  0  0  0  0
 13 22  1  0  0  0  0
 13 27  2  0  0  0  0
 14 23  2  0  0  0  0
 14 24  1  0  0  0  0
 15 25  2  0  0  0  0
 15 29  1  0  0  0  0
 16 30  2  0  0  0  0
 16 31  1  0  0  0  0
 17 32  1  0  0  0  0
 18 32  1  0  0  0  0
 18 33  2  0  0  0  0
 18 35  1  0  0  0  0
 19 21  2  0  0  0  0
 19 40  1  0  0  0  0
 20 22  2  0  0  0  0
 20 41  1  0  0  0  0
 21 52  1  0  0  0  0
 22 42  1  0  0  0  0
 23 25  1  0  0  0  0
 23 56  1  0  0  0  0
 24 29  2  0  0  0  0
 24 64  1  0  0  0  0
 25 78  1  0  0  0  0
 26 86  1  0  0  0  0
 27 88  1  0  0  0  0
 28 31  2  0  0  0  0
 28 86  1  0  0  0  0
 29 87  1  0  0  0  0
 30 89  1  0  0  0  0
 31 90  1  0  0  0  0
 32 69  2  0  0  0  0
 33 70  1  0  0  0  0
 33 74  1  0  0  0  0
 34 43  1  0  0  0  0
 34 71  1  0  0  0  0
 34 80  2  0  0  0  0
 35 75  1  0  0  0  0
 35 81  2  0  0  0  0
 36 53  1  0  0  0  0
 36 76  1  0  0  0  0
 36 82  2  0  0  0  0
 37 66  1  0  0  0  0
 37 72  1  0  0  0  0
 37 83  2  0  0  0  0
 38 67  1  0  0  0  0
 38 77  1  0  0  0  0
 38 84  2  0  0  0  0
 39 73  1  0  0  0  0
 39 78  1  0  0  0  0
 39 85  2  0  0  0  0
 40 44  1  0  0  0  0
 41 53  1  0  0  0  0
 42 72  1  0  0  0  0
 43 45  1  0  0  0  0
 44 47  1  0  0  0  0
 45 54  1  0  0  0  0
 46 48  1  0  0  0  0
 46 49  1  0  0  0  0
 47 52  1  0  0  0  0
 48 55  1  0  0  0  0
 49 73  1  0  0  0  0
 50 54  1  0  0  0  0
 50 71  1  0  0  0  0
 51 55  1  0  0  0  0
 51 73  1  0  0  0  0
 52 76  1  0  0  0  0
 53 72  1  0  0  0  0
 54 65  1  0  0  0  0
 55 70  1  0  0  0  0
 57 67  1  0  0  0  0
 58 68  1  0  0  0  0
 59 68  1  0  0  0  0
 60 68  1  0  0  0  0
 61 78  1  0  0  0  0
 62 79  1  0  0  0  0
 63 87  1  0  0  0  0
 64 71  1  0  0  0  0
 65 88  1  0  0  0  0
 66 68  1  0  0  0  0
 66 77  1  0  0  0  0
 67 79  1  0  0  0  0
 69 70  1  0  0  0  0
M  CHG  1  79   1
M  ISO  4  39 100  65 101  78 100  88 101
M  END
> <Batch ID>
0097

> <Smiles>
CNC(C)C(=O)NC(C(=O)N1Cc2cc([101O:1][101CH2:1]C3CCC(=O)N(Cc4cc(C)c([100N:0](C)[100C:0](=O)N5CCCC(n6nc(-c7ccc(Oc8ccc(F)cc8F)cc7)c(C(N)=O)c6N)C5)cc4OC)C3)ccc2CC1C(=O)NC1CCCc2ccccc21)C(C)(C)C

> <Shape>
0.219

> <Color>
0.100

> <Negative vol penalty>
0.000

$$$$

  -OEChem-04052300493D

 86 95  0     1  0  0  0  0  0999 V2000
  -31.9234  -33.1879   21.0151 C   0  0  0  0  0  0  0  0  0  0  0  0
  -31.4292  -31.8874   21.0150 C   0  0  0  0  0  0  0  0  0  0  0  0
  -23.3489   -9.6596   19.6286 C   0  0  0  0  0  0  0  0  0  0  0  0
  -24.4616   -9.6704   21.7731 C   0  0  0  0  0  0  0  0  0  0  0  0
  -31.2979  -34.1701   21.7819 C   0  0  0  0  0  0  0  0  0  0  0  0
  -30.3096  -31.5682   21.7825 C   0  0  0  0  0  0  0  0  0  0  0  0
  -26.9706  -28.7192   19.2567 C   0  0  0  0  0  0  0  0  0  0  0  0
  -28.0051  -18.6400   19.0700 C   0  0  0  0  0  0  0  0  0  0  0  0
  -29.0469  -20.1091   20.6804 C   0  0  0  0  0  0  0  0  0  0  0  0
  -28.8887  -17.6216   19.4274 C   0  0  0  0  0  0  0  0  0  0  0  0
  -29.9305  -19.0907   21.0378 C   0  0  0  0  0  0  0  0  0  0  0  0
  -22.3219   -8.8833   20.1653 C   0  0  0  0  0  0  0  0  0  0  0  0
  -23.4345   -8.8941   22.3098 C   0  0  0  0  0  0  0  0  0  0  0  0
  -27.2606  -27.3616   19.1281 C   0  0  0  0  0  0  0  0  0  0  0  0
  -22.5053   -5.6433   22.3044 C   0  0  0  0  0  0  0  0  0  0  0  0
  -22.8633   -4.5599   23.1066 C   0  0  0  0  0  0  0  0  0  0  0  0
  -25.7471  -26.8727   20.9418 C   0  0  0  0  0  0  0  0  0  0  0  0
  -21.6460   -5.5270   24.9560 C   0  0  0  0  0  0  0  0  0  0  0  0
  -24.4188  -10.0531   20.4324 C   0  0  0  0  0  0  0  0  0  0  0  0
  -26.3301  -10.5174   18.8079 C   0  0  0  0  0  0  0  0  0  0  0  0
  -30.1643  -33.8649   22.5517 C   0  0  0  0  0  0  0  0  0  0  0  0
  -26.0735  -29.1656   20.2377 C   0  0  0  0  0  0  0  0  0  0  0  0
  -29.6691  -32.5469   22.5613 C   0  0  0  0  0  0  0  0  0  0  0  0
  -25.4455  -28.2362   21.0791 C   0  0  0  0  0  0  0  0  0  0  0  0
  -28.0842  -19.8838   19.6964 C   0  0  0  0  0  0  0  0  0  0  0  0
  -29.8514  -17.8470   20.4113 C   0  0  0  0  0  0  0  0  0  0  0  0
  -22.3646   -8.5006   21.5059 C   0  0  0  0  0  0  0  0  0  0  0  0
  -26.6510  -26.4384   19.9726 C   0  0  0  0  0  0  0  0  0  0  0  0
  -21.7177   -6.6687   22.8280 C   0  0  0  0  0  0  0  0  0  0  0  0
  -22.4336   -4.5017   24.4324 C   0  0  0  0  0  0  0  0  0  0  0  0
  -21.2881   -6.6105   24.1537 C   0  0  0  0  0  0  0  0  0  0  0  0
  -25.4804  -10.8546   19.8784 C   0  0  0  0  0  0  0  0  0  0  0  0
  -27.1583  -11.6046   18.6714 C   0  0  0  0  0  0  0  0  0  0  0  0
  -25.3539  -23.0284   18.6292 C   0  0  0  0  0  0  0  0  0  0  0  0
  -26.3673   -9.3279   18.0082 C   0  0  0  0  0  0  0  0  0  0  0  0
  -26.2858  -31.0763   22.7690 C   0  0  0  0  0  0  0  0  0  0  0  0
  -23.0745  -30.6328   22.8856 C   0  0  0  0  0  0  0  0  0  0  0  0
  -20.7787  -27.8831   22.4548 C   0  0  0  0  0  0  0  0  0  0  0  0
  -30.3912  -15.4346   20.6946 C   0  0  0  0  0  0  0  0  0  0  0  0
  -29.5505  -34.9493   23.4014 C   0  0  0  0  0  0  0  0  0  0  0  0
  -25.7510  -30.6308   20.3459 C   0  0  0  0  0  0  0  0  0  0  0  0
  -24.4594  -28.6620   22.1350 C   0  0  0  0  0  0  0  0  0  0  0  0
  -24.8757  -21.7076   19.1821 C   0  0  0  0  0  0  0  0  0  0  0  0
  -28.1449  -34.6146   23.8941 C   0  0  0  0  0  0  0  0  0  0  0  0
  -26.9220  -16.2136   20.7221 C   0  0  0  0  0  0  0  0  0  0  0  0
  -28.0973  -33.1939   24.4473 C   0  0  0  0  0  0  0  0  0  0  0  0
  -26.3021  -14.8484   20.4258 C   0  0  0  0  0  0  0  0  0  0  0  0
  -25.8546  -20.5853   18.8587 C   0  0  0  0  0  0  0  0  0  0  0  0
  -28.1290  -16.1040   21.6543 C   0  0  0  0  0  0  0  0  0  0  0  0
  -27.6134  -22.3082   19.4286 C   0  0  0  0  0  0  0  0  0  0  0  0
  -28.5440  -13.7865   20.8917 C   0  0  0  0  0  0  0  0  0  0  0  0
  -28.4421  -32.1673   23.3615 C   0  0  1  0  0  0  0  0  0  0  0  0
  -26.8528  -23.1798   18.4206 C   0  0  2  0  0  0  0  0  0  0  0  0
  -25.2131  -31.0244   21.7182 C   0  0  1  0  0  0  0  0  0  0  0  0
  -27.3633  -13.8601   19.9109 C   0  0  1  0  0  0  0  0  0  0  0  0
  -18.3766  -27.8618   21.7290 C   0  0  0  0  0  0  0  0  0  0  0  0
  -22.4719  -30.7020   25.8759 C   0  0  0  0  0  0  0  0  0  0  0  0
  -20.5647  -29.1350   25.4570 C   0  0  0  0  0  0  0  0  0  0  0  0
  -20.5684  -31.4000   24.4117 C   0  0  0  0  0  0  0  0  0  0  0  0
  -32.1722  -17.1371   21.0178 C   0  0  0  0  0  0  0  0  0  0  0  0
  -21.3379  -25.9775   20.2605 C   0  0  0  0  0  0  0  0  0  0  0  0
  -27.2780  -24.6401   18.5482 C   0  0  0  0  0  0  0  0  0  1  0  0
  -22.1567  -29.6332   23.5469 C   0  0  1  0  0  0  0  0  0  0  0  0
  -19.8218  -27.6713   21.2955 C   0  0  2  0  0  0  0  0  0  0  0  0
  -21.4669  -30.2106   24.8151 C   0  0  0  0  0  0  0  0  0  0  0  0
  -25.7446  -12.0614   20.3861 N   0  0  0  0  0  0  0  0  0  0  0  0
  -26.7697  -12.4921   19.6313 N   0  0  0  0  0  0  0  0  0  0  0  0
  -27.2021  -20.9027   19.3379 N   0  0  3  0  0  0  0  0  0  0  0  0
  -24.1819  -30.1061   22.2057 N   0  0  0  0  0  0  0  0  0  0  0  0
  -29.0944  -15.1206   21.1433 N   0  0  0  0  0  0  0  0  0  0  0  0
  -28.1738  -11.8783   17.8251 N   0  0  0  0  0  0  0  0  0  0  0  0
  -27.1808   -8.2664   18.4272 N   0  0  0  0  0  0  0  0  0  0  0  0
  -27.3097  -31.9596   22.4846 N   0  0  0  0  0  0  0  0  0  0  0  0
  -21.2292  -29.1850   22.5139 N   0  0  0  0  0  0  0  0  0  0  0  0
  -30.7661  -16.7926   20.7814 N   0  0  0  0  0  0  0  0  0  0  0  0
  -19.9701  -26.2938   20.7465 N   0  3  0  0  0  0  0  0  0  0  0  0
  -24.5550  -23.9269   18.3662 O   0  0  0  0  0  0  0  0  0  0  0  0
  -25.7116   -9.2162   16.9447 O   0  0  0  0  0  0  0  0  0  0  0  0
  -26.1907  -30.3686   23.7649 O   0  0  0  0  0  0  0  0  0  0  0  0
  -22.8146  -31.8361   22.9632 O   0  0  0  0  0  0  0  0  0  0  0  0
  -21.0920  -26.9846   23.2326 O   0  0  0  0  0  0  0  0  0  0  0  0
  -31.1639  -14.5653   20.2736 O   0  0  0  0  0  0  0  0  0  0  0  0
  -21.3625   -7.7433   22.0300 O   0  0  0  0  0  0  0  0  0  0  0  0
  -26.9328  -25.1127   19.8496 O   0  0  0  0  0  0  0  0  0  1  0  0
  -22.7762   -3.4604   25.2022 F   0  0  0  0  0  0  0  0  0  0  0  0
  -20.5303   -7.5919   24.6620 F   0  0  0  0  0  0  0  0  0  0  0  0
  1  2  1  0  0  0  0
  1  5  2  0  0  0  0
  2  6  2  0  0  0  0
  3 12  2  0  0  0  0
  3 19  1  0  0  0  0
  4 13  1  0  0  0  0
  4 19  2  0  0  0  0
  5 21  1  0  0  0  0
  6 23  1  0  0  0  0
  7 14  2  0  0  0  0
  7 22  1  0  0  0  0
  8 10  2  0  0  0  0
  8 25  1  0  0  0  0
  9 11  1  0  0  0  0
  9 25  2  0  0  0  0
 10 26  1  0  0  0  0
 11 26  2  0  0  0  0
 12 27  1  0  0  0  0
 13 27  2  0  0  0  0
 14 28  1  0  0  0  0
 15 16  2  0  0  0  0
 15 29  1  0  0  0  0
 16 30  1  0  0  0  0
 17 24  1  0  0  0  0
 17 28  2  0  0  0  0
 18 30  2  0  0  0  0
 18 31  1  0  0  0  0
 19 32  1  0  0  0  0
 20 32  1  0  0  0  0
 20 33  2  0  0  0  0
 20 35  1  0  0  0  0
 21 23  2  0  0  0  0
 21 40  1  0  0  0  0
 22 24  2  0  0  0  0
 22 41  1  0  0  0  0
 23 52  1  0  0  0  0
 24 42  1  0  0  0  0
 25 68  1  0  0  0  0
 26 75  1  0  0  0  0
 27 83  1  0  0  0  0
 28 84  1  0  0  0  0
 29 31  2  0  0  0  0
 29 83  1  0  0  0  0
 30 85  1  0  0  0  0
 31 86  1  0  0  0  0
 32 66  2  0  0  0  0
 33 67  1  0  0  0  0
 33 71  1  0  0  0  0
 34 43  1  0  0  0  0
 34 53  1  0  0  0  0
 34 77  2  0  0  0  0
 35 72  1  0  0  0  0
 35 78  2  0  0  0  0
 36 54  1  0  0  0  0
 36 73  1  0  0  0  0
 36 79  2  0  0  0  0
 37 63  1  0  0  0  0
 37 69  1  0  0  0  0
 37 80  2  0  0  0  0
 38 64  1  0  0  0  0
 38 74  1  0  0  0  0
 38 81  2  0  0  0  0
 39 70  1  0  0  0  0
 39 75  1  0  0  0  0
 39 82  2  0  0  0  0
 40 44  1  0  0  0  0
 41 54  1  0  0  0  0
 42 69  1  0  0  0  0
 43 48  1  0  0  0  0
 44 46  1  0  0  0  0
 45 47  1  0  0  0  0
 45 49  1  0  0  0  0
 46 52  1  0  0  0  0
 47 55  1  0  0  0  0
 48 68  1  0  0  0  0
 49 70  1  0  0  0  0
 50 53  1  0  0  0  0
 50 68  1  0  0  0  0
 51 55  1  0  0  0  0
 51 70  1  0  0  0  0
 52 73  1  0  0  0  0
 53 62  1  0  0  0  0
 54 69  1  0  0  0  0
 55 67  1  0  0  0  0
 56 64  1  0  0  0  0
 57 65  1  0  0  0  0
 58 65  1  0  0  0  0
 59 65  1  0  0  0  0
 60 75  1  0  0  0  0
 61 76  1  0  0  0  0
 62 84  1  0  0  0  0
 63 65  1  0  0  0  0
 63 74  1  0  0  0  0
 64 76  1  0  0  0  0
 66 67  1  0  0  0  0
M  CHG  1  76   1
M  ISO  4  39 100  62 101  75 100  84 101
M  END
> <Batch ID>
0097

> <Smiles>
CNC(C)C(=O)NC(C(=O)N1Cc2cc([101O:1][101CH2:1]C3CN(c4ccc([100N:0](C)[100C:0](=O)N5CCCC(n6nc(-c7ccc(Oc8ccc(F)cc8F)cc7)c(C(N)=O)c6N)C5)cc4)CCC3=O)ccc2CC1C(=O)NC1CCCc2ccccc21)C(C)(C)C

> <Shape>
0.324

> <Color>
0.122

> <Negative vol penalty>
0.000

$$$$

  -OEChem-04052300493D

 87 96  0     1  0  0  0  0  0999 V2000
  -25.4200  -32.1971   26.4782 C   0  0  0  0  0  0  0  0  0  0  0  0
  -25.5158  -31.0471   25.7011 C   0  0  0  0  0  0  0  0  0  0  0  0
  -23.0546   -9.9221   19.8744 C   0  0  0  0  0  0  0  0  0  0  0  0
  -23.9934   -9.6507   22.0839 C   0  0  0  0  0  0  0  0  0  0  0  0
  -24.5455  -33.2173   26.1065 C   0  0  0  0  0  0  0  0  0  0  0  0
  -24.7362  -30.9163   24.5524 C   0  0  0  0  0  0  0  0  0  0  0  0
  -27.3713  -29.1444   20.6076 C   0  0  0  0  0  0  0  0  0  0  0  0
  -31.3132  -18.6289   20.4833 C   0  0  0  0  0  0  0  0  0  0  0  0
  -30.9668  -19.7790   19.7743 C   0  0  0  0  0  0  0  0  0  0  0  0
  -22.3545   -8.7251   20.0248 C   0  0  0  0  0  0  0  0  0  0  0  0
  -23.2933   -8.4537   22.2344 C   0  0  0  0  0  0  0  0  0  0  0  0
  -27.6308  -27.7748   20.5787 C   0  0  0  0  0  0  0  0  0  0  0  0
  -20.1384   -7.4907   22.9693 C   0  0  0  0  0  0  0  0  0  0  0  0
  -19.4775   -7.2759   24.1786 C   0  0  0  0  0  0  0  0  0  0  0  0
  -25.8096  -27.4687   19.0267 C   0  0  0  0  0  0  0  0  0  0  0  0
  -29.1772  -18.6806   21.6110 C   0  0  0  0  0  0  0  0  0  0  0  0
  -20.8092   -5.2955   24.5547 C   0  0  0  0  0  0  0  0  0  0  0  0
  -23.8741  -10.3849   20.9039 C   0  0  0  0  0  0  0  0  0  0  0  0
  -24.1581  -12.9128   21.0946 C   0  0  0  0  0  0  0  0  0  0  0  0
  -23.7618  -33.1031   24.9474 C   0  0  0  0  0  0  0  0  0  0  0  0
  -26.3203  -29.6858   19.8534 C   0  0  0  0  0  0  0  0  0  0  0  0
  -23.8494  -31.9355   24.1656 C   0  0  0  0  0  0  0  0  0  0  0  0
  -25.5405  -28.8457   19.0458 C   0  0  0  0  0  0  0  0  0  0  0  0
  -30.4184  -18.0796   21.4016 C   0  0  0  0  0  0  0  0  0  0  0  0
  -29.7255  -20.3800   19.9836 C   0  0  0  0  0  0  0  0  0  0  0  0
  -22.4738   -7.9909   21.2048 C   0  0  0  0  0  0  0  0  0  0  0  0
  -26.8480  -26.9364   19.7904 C   0  0  0  0  0  0  0  0  0  0  0  0
  -21.1348   -6.6079   22.5526 C   0  0  0  0  0  0  0  0  0  0  0  0
  -19.8129   -6.1783   24.9714 C   0  0  0  0  0  0  0  0  0  0  0  0
  -28.8307  -19.8308   20.9020 C   0  0  0  0  0  0  0  0  0  0  0  0
  -21.4702   -5.5103   23.3453 C   0  0  0  0  0  0  0  0  0  0  0  0
  -24.5980  -11.6210   20.7489 C   0  0  0  0  0  0  0  0  0  0  0  0
  -25.2039  -13.7347   20.7521 C   0  0  0  0  0  0  0  0  0  0  0  0
  -29.0723  -22.7589   19.8707 C   0  0  0  0  0  0  0  0  0  0  0  0
  -28.6989  -23.8938   19.2626 C   0  0  0  0  0  0  0  0  0  0  0  0
  -28.5137  -23.8346   17.7854 C   0  0  0  0  0  0  0  0  0  0  0  0
  -22.9154  -13.3323   21.6737 C   0  0  0  0  0  0  0  0  0  0  0  0
  -23.6402  -31.2504   20.5407 C   0  0  0  0  0  0  0  0  0  0  0  0
  -23.4375  -31.5312   17.3154 C   0  0  0  0  0  0  0  0  0  0  0  0
  -24.2980  -30.3222   14.2422 C   0  0  0  0  0  0  0  0  0  0  0  0
  -30.6654  -14.8788   20.6567 C   0  0  0  0  0  0  0  0  0  0  0  0
  -22.7962  -34.2120   24.6118 C   0  0  0  0  0  0  0  0  0  0  0  0
  -26.0704  -31.1688   19.8748 C   0  0  0  0  0  0  0  0  0  0  0  0
  -24.4132  -29.3800   18.2018 C   0  0  0  0  0  0  0  0  0  0  0  0
  -28.5518  -22.4736   17.1228 C   0  0  0  0  0  0  0  0  0  0  0  0
  -22.2803  -34.1567   23.1762 C   0  0  0  0  0  0  0  0  0  0  0  0
  -29.3871  -12.7953   18.0679 C   0  0  0  0  0  0  0  0  0  0  0  0
  -21.8535  -32.7370   22.8166 C   0  0  0  0  0  0  0  0  0  0  0  0
  -27.9941  -12.4060   18.5660 C   0  0  0  0  0  0  0  0  0  0  0  0
  -29.5246  -21.5105   17.7981 C   0  0  0  0  0  0  0  0  0  0  0  0
  -30.3921  -12.8835   19.2142 C   0  0  0  0  0  0  0  0  0  0  0  0
  -28.5928  -13.3713   20.8261 C   0  0  0  0  0  0  0  0  0  0  0  0
  -23.0384  -31.7672   22.8990 C   0  0  1  0  0  0  0  0  0  0  0  0
  -24.6486  -31.5411   19.4655 C   0  0  1  0  0  0  0  0  0  0  0  0
  -27.5319  -13.3243   19.7132 C   0  0  2  0  0  0  0  0  0  0  0  0
  -23.9496  -30.7406   11.7925 C   0  0  0  0  0  0  0  0  0  0  0  0
  -20.6352  -30.3406   17.5132 C   0  0  0  0  0  0  0  0  0  0  0  0
  -20.7219  -29.9051   15.0492 C   0  0  0  0  0  0  0  0  0  0  0  0
  -20.8487  -32.2445   15.9057 C   0  0  0  0  0  0  0  0  0  0  0  0
  -27.1888  -30.7648   13.7882 C   0  0  0  0  0  0  0  0  0  0  0  0
  -30.7888  -16.8499   22.1596 C   0  0  0  0  0  0  0  0  0  0  0  0
  -28.4494  -25.1869   19.9660 C   0  0  0  0  0  0  0  0  0  1  0  0
  -22.8318  -30.7054   16.2063 C   0  0  1  0  0  0  0  0  0  0  0  0
  -24.8316  -31.0141   13.0008 C   0  0  2  0  0  0  0  0  0  0  0  0
  -21.2793  -30.7883   16.1859 C   0  0  0  0  0  0  0  0  0  0  0  0
  -25.8273  -11.6175   20.2266 N   0  0  0  0  0  0  0  0  0  0  0  0
  -26.1688  -12.9172   20.2416 N   0  0  0  0  0  0  0  0  0  0  0  0
  -29.3753  -21.5508   19.2607 N   0  0  0  0  0  0  0  0  0  0  0  0
  -24.2042  -30.8361   18.2614 N   0  0  0  0  0  0  0  0  0  0  0  0
  -29.8943  -13.7708   20.2682 N   0  0  0  0  0  0  0  0  0  0  0  0
  -25.3830  -15.0698   20.8408 N   0  0  0  0  0  0  0  0  0  0  0  0
  -21.9505  -12.3579   21.9632 N   0  0  0  0  0  0  0  0  0  0  0  0
  -23.8853  -31.9037   21.7334 N   0  0  0  0  0  0  0  0  0  0  0  0
  -23.4701  -31.1490   14.9718 N   0  0  0  0  0  0  0  0  0  0  0  0
  -30.1175  -15.6716   21.6577 N   0  0  0  0  0  0  0  0  0  0  0  0
  -26.2099  -30.5374   12.6942 N   0  3  0  0  0  0  0  0  0  0  0  0
  -28.2660  -24.8519   17.1407 O   0  0  0  0  0  0  0  0  0  0  0  0
  -22.6615  -14.5375   21.9117 O   0  0  0  0  0  0  0  0  0  0  0  0
  -22.7078  -30.4908   20.3052 O   0  0  0  0  0  0  0  0  0  0  0  0
  -23.2437  -32.7493   17.3375 O   0  0  0  0  0  0  0  0  0  0  0  0
  -24.5838  -29.1629   14.5335 O   0  0  0  0  0  0  0  0  0  0  0  0
  -31.7584  -15.1449   20.1453 O   0  0  0  0  0  0  0  0  0  0  0  0
  -21.7906   -6.8229   21.3520 O   0  0  0  0  0  0  0  0  0  0  0  0
  -27.0987  -25.5991   19.7609 O   0  0  0  0  0  0  0  0  0  1  0  0
  -19.1791   -5.9730   26.1334 F   0  0  0  0  0  0  0  0  0  0  0  0
  -27.6351  -20.4001   21.1109 F   0  0  0  0  0  0  0  0  0  0  0  0
  -22.4273   -4.6594   22.9509 F   0  0  0  0  0  0  0  0  0  0  0  0
  1  2  1  0  0  0  0
  1  5  2  0  0  0  0
  2  6  2  0  0  0  0
  3 10  2  0  0  0  0
  3 18  1  0  0  0  0
  4 11  1  0  0  0  0
  4 18  2  0  0  0  0
  5 20  1  0  0  0  0
  6 22  1  0  0  0  0
  7 12  2  0  0  0  0
  7 21  1  0  0  0  0
  8  9  2  0  0  0  0
  8 24  1  0  0  0  0
  9 25  1  0  0  0  0
 10 26  1  0  0  0  0
 11 26  2  0  0  0  0
 12 27  1  0  0  0  0
 13 14  2  0  0  0  0
 13 28  1  0  0  0  0
 14 29  1  0  0  0  0
 15 23  1  0  0  0  0
 15 27  2  0  0  0  0
 16 24  2  0  0  0  0
 16 30  1  0  0  0  0
 17 29  2  0  0  0  0
 17 31  1  0  0  0  0
 18 32  1  0  0  0  0
 19 32  1  0  0  0  0
 19 33  2  0  0  0  0
 19 37  1  0  0  0  0
 20 22  2  0  0  0  0
 20 42  1  0  0  0  0
 21 23  2  0  0  0  0
 21 43  1  0  0  0  0
 22 53  1  0  0  0  0
 23 44  1  0  0  0  0
 24 61  1  0  0  0  0
 25 30  2  0  0  0  0
 25 68  1  0  0  0  0
 26 83  1  0  0  0  0
 27 84  1  0  0  0  0
 28 31  2  0  0  0  0
 28 83  1  0  0  0  0
 29 85  1  0  0  0  0
 30 86  1  0  0  0  0
 31 87  1  0  0  0  0
 32 66  2  0  0  0  0
 33 67  1  0  0  0  0
 33 71  1  0  0  0  0
 34 35  2  0  0  0  0
 34 68  1  0  0  0  0
 35 36  1  0  0  0  0
 35 62  1  0  0  0  0
 36 45  1  0  0  0  0
 36 77  2  0  0  0  0
 37 72  1  0  0  0  0
 37 78  2  0  0  0  0
 38 54  1  0  0  0  0
 38 73  1  0  0  0  0
 38 79  2  0  0  0  0
 39 63  1  0  0  0  0
 39 69  1  0  0  0  0
 39 80  2  0  0  0  0
 40 64  1  0  0  0  0
 40 74  1  0  0  0  0
 40 81  2  0  0  0  0
 41 70  1  0  0  0  0
 41 75  1  0  0  0  0
 41 82  2  0  0  0  0
 42 46  1  0  0  0  0
 43 54  1  0  0  0  0
 44 69  1  0  0  0  0
 45 50  1  0  0  0  0
 46 48  1  0  0  0  0
 47 49  1  0  0  0  0
 47 51  1  0  0  0  0
 48 53  1  0  0  0  0
 49 55  1  0  0  0  0
 50 68  1  0  0  0  0
 51 70  1  0  0  0  0
 52 55  1  0  0  0  0
 52 70  1  0  0  0  0
 53 73  1  0  0  0  0
 54 69  1  0  0  0  0
 55 67  1  0  0  0  0
 56 64  1  0  0  0  0
 57 65  1  0  0  0  0
 58 65  1  0  0  0  0
 59 65  1  0  0  0  0
 60 76  1  0  0  0  0
 61 75  1  0  0  0  0
 62 84  1  0  0  0  0
 63 65  1  0  0  0  0
 63 74  1  0  0  0  0
 64 76  1  0  0  0  0
 66 67  1  0  0  0  0
M  CHG  1  76   1
M  ISO  4  41 100  62 101  75 100  84 101
M  END
> <Batch ID>
0097

> <Smiles>
CNC(C)C(=O)NC(C(=O)N1Cc2cc([101O:1][101CH2:1]C3=CN(c4ccc(C[100NH:0][100C:0](=O)N5CCCC(n6nc(-c7ccc(Oc8ccc(F)cc8F)cc7)c(C(N)=O)c6N)C5)cc4F)CCC3=O)ccc2CC1C(=O)NC1CCCc2ccccc21)C(C)(C)C

> <Shape>
0.341

> <Color>
0.190

> <Negative vol penalty>
0.000

$$$$

  -OEChem-04052300493D

 87 96  0     1  0  0  0  0  0999 V2000
  -18.5802  -27.2278   23.3997 C   0  0  0  0  0  0  0  0  0  0  0  0
  -19.4286  -26.3002   22.8039 C   0  0  0  0  0  0  0  0  0  0  0  0
  -23.4386   -9.7119   19.8841 C   0  0  0  0  0  0  0  0  0  0  0  0
  -23.6355   -9.9841   22.2766 C   0  0  0  0  0  0  0  0  0  0  0  0
  -18.8325  -28.5919   23.2602 C   0  0  0  0  0  0  0  0  0  0  0  0
  -20.5294  -26.7361   22.0672 C   0  0  0  0  0  0  0  0  0  0  0  0
  -25.9955  -24.0060   21.6506 C   0  0  0  0  0  0  0  0  0  0  0  0
  -22.7257   -8.5287   20.0774 C   0  0  0  0  0  0  0  0  0  0  0  0
  -22.9225   -8.8009   22.4699 C   0  0  0  0  0  0  0  0  0  0  0  0
  -26.5537  -23.1665   20.6875 C   0  0  0  0  0  0  0  0  0  0  0  0
  -19.5705   -7.6264   20.8921 C   0  0  0  0  0  0  0  0  0  0  0  0
  -18.4196   -7.4310   20.1287 C   0  0  0  0  0  0  0  0  0  0  0  0
  -27.6280  -25.0675   19.6620 C   0  0  0  0  0  0  0  0  0  0  0  0
  -30.4102  -18.5260   14.8249 C   0  0  0  0  0  0  0  0  0  0  0  0
  -29.7735  -16.2185   15.1515 C   0  0  0  0  0  0  0  0  0  0  0  0
  -19.3877   -5.4304   19.1813 C   0  0  0  0  0  0  0  0  0  0  0  0
  -23.8936  -10.4396   20.9837 C   0  0  0  0  0  0  0  0  0  0  0  0
  -29.6922  -17.7678   17.0035 C   0  0  0  0  0  0  0  0  0  0  0  0
  -24.1055  -12.9635   20.6800 C   0  0  0  0  0  0  0  0  0  0  0  0
  -19.9424  -29.0447   22.5295 C   0  0  0  0  0  0  0  0  0  0  0  0
  -26.2409  -25.3863   21.6201 C   0  0  0  0  0  0  0  0  0  0  0  0
  -20.7961  -28.1076   21.9167 C   0  0  0  0  0  0  0  0  0  0  0  0
  -27.0737  -25.9219   20.6274 C   0  0  0  0  0  0  0  0  0  0  0  0
  -30.1438  -18.7898   16.1684 C   0  0  0  0  0  0  0  0  0  0  0  0
  -30.2250  -17.2404   14.3164 C   0  0  0  0  0  0  0  0  0  0  0  0
  -22.4676   -8.0732   21.3702 C   0  0  0  0  0  0  0  0  0  0  0  0
  -27.3677  -23.6976   19.6914 C   0  0  0  0  0  0  0  0  0  0  0  0
  -20.6301   -6.7239   20.8001 C   0  0  0  0  0  0  0  0  0  0  0  0
  -29.5070  -16.4822   16.4951 C   0  0  0  0  0  0  0  0  0  0  0  0
  -18.3282   -6.3330   19.2733 C   0  0  0  0  0  0  0  0  0  0  0  0
  -20.5386   -5.6259   19.9447 C   0  0  0  0  0  0  0  0  0  0  0  0
  -24.6306  -11.6616   20.7847 C   0  0  0  0  0  0  0  0  0  0  0  0
  -25.2067  -13.7643   20.4991 C   0  0  0  0  0  0  0  0  0  0  0  0
  -29.9191  -22.0603   17.7681 C   0  0  0  0  0  0  0  0  0  0  0  0
  -28.2300  -17.8230   18.9718 C   0  0  0  0  0  0  0  0  0  0  0  0
  -29.4099  -18.0319   18.4120 C   0  0  0  0  0  0  0  0  0  0  0  0
  -29.2757  -22.8274   18.6555 C   0  0  0  0  0  0  0  0  0  1  0  0
  -22.7442  -13.4093   20.7409 C   0  0  0  0  0  0  0  0  0  0  0  0
  -24.4336  -27.9789   21.2804 C   0  0  0  0  0  0  0  0  0  0  0  0
  -27.2165  -29.5246   21.9036 C   0  0  0  0  0  0  0  0  0  0  0  0
  -30.6288  -29.4673   21.8881 C   0  0  0  0  0  0  0  0  0  0  0  0
  -30.0768  -14.7184   17.9351 C   0  0  0  0  0  0  0  0  0  0  0  0
  -20.1476  -30.5300   22.3668 C   0  0  0  0  0  0  0  0  0  0  0  0
  -25.6529  -26.2746   22.6820 C   0  0  0  0  0  0  0  0  0  0  0  0
  -27.3847  -27.3942   20.5625 C   0  0  0  0  0  0  0  0  0  0  0  0
  -31.4056  -21.9687   17.6320 C   0  0  0  0  0  0  0  0  0  0  0  0
  -21.5470  -30.9022   21.8838 C   0  0  0  0  0  0  0  0  0  0  0  0
  -30.1351  -12.7585   20.9539 C   0  0  0  0  0  0  0  0  0  0  0  0
  -21.9612  -30.0157   20.7136 C   0  0  0  0  0  0  0  0  0  0  0  0
  -28.6684  -12.3746   21.1475 C   0  0  0  0  0  0  0  0  0  0  0  0
  -31.6171  -20.5205   17.2023 C   0  0  0  0  0  0  0  0  0  0  0  0
  -30.5064  -12.8206   19.4757 C   0  0  0  0  0  0  0  0  0  0  0  0
  -28.1615  -13.3493   18.8637 C   0  0  0  0  0  0  0  0  0  0  0  0
  -22.0144  -28.5409   21.1305 C   0  0  1  0  0  0  0  0  0  0  0  0
  -29.2684  -21.0633   16.8439 C   0  0  1  0  0  0  0  0  0  0  0  0
  -25.5536  -27.7349   22.2518 C   0  0  1  0  0  0  0  0  0  0  0  0
  -27.7428  -13.3050   20.3433 C   0  0  1  0  0  0  0  0  0  0  0  0
  -28.8881  -21.7284   15.5221 C   0  0  0  0  0  0  0  0  0  0  0  0
  -32.6253  -30.8919   22.4190 C   0  0  0  0  0  0  0  0  0  0  0  0
  -26.7685  -31.1062   19.3331 C   0  0  0  0  0  0  0  0  0  0  0  0
  -29.1757  -31.7895   19.4163 C   0  0  0  0  0  0  0  0  0  0  0  0
  -27.6269  -32.4584   21.2538 C   0  0  0  0  0  0  0  0  0  0  0  0
  -31.5872  -27.5628   23.9406 C   0  0  0  0  0  0  0  0  0  0  0  0
  -28.3602  -30.0461   21.0676 C   0  0  1  0  0  0  0  0  0  0  0  0
  -31.6475  -29.8529   22.9454 C   0  0  2  0  0  0  0  0  0  0  0  0
  -27.9756  -31.3225   20.2675 C   0  0  0  0  0  0  0  0  0  0  0  0
  -25.9618  -11.6324   20.6790 N   0  0  0  0  0  0  0  0  0  0  0  0
  -26.2824  -12.9259   20.5059 N   0  0  0  0  0  0  0  0  0  0  0  0
  -30.3367  -20.0754   16.6450 N   0  0  3  0  0  0  0  0  0  0  0  0
  -26.7811  -28.2225   21.6194 N   0  0  0  0  0  0  0  0  0  0  0  0
  -29.5853  -13.6830   18.7367 N   0  0  0  0  0  0  0  0  0  0  0  0
  -30.4943  -16.9736   12.9580 N   0  0  0  0  0  0  0  0  0  0  0  0
  -25.3500  -15.0968   20.3365 N   0  0  0  0  0  0  0  0  0  0  0  0
  -21.7363  -12.4542   20.9318 N   0  0  0  0  0  0  0  0  0  0  0  0
  -23.2229  -28.2707   21.8793 N   0  0  0  0  0  0  0  0  0  0  0  0
  -29.4832  -30.2291   21.9808 N   0  0  0  0  0  0  0  0  0  0  0  0
  -32.4221  -28.6560   23.3793 N   0  3  0  0  0  0  0  0  0  0  0  0
  -22.4294  -14.6168   20.6129 O   0  0  0  0  0  0  0  0  0  0  0  0
  -24.6519  -27.9093   20.0766 O   0  0  0  0  0  0  0  0  0  0  0  0
  -26.7323  -30.2433   22.7814 O   0  0  0  0  0  0  0  0  0  0  0  0
  -30.8307  -28.5817   21.0602 O   0  0  0  0  0  0  0  0  0  0  0  0
  -31.2715  -14.9761   17.7930 O   0  0  0  0  0  0  0  0  0  0  0  0
  -21.7717   -6.9188   21.5592 O   0  0  0  0  0  0  0  0  0  0  0  0
  -27.9134  -22.8806   18.7497 O   0  0  0  0  0  0  0  0  0  1  0  0
  -29.0555  -15.4367   17.3069 O   0  0  0  0  0  0  0  0  0  0  0  0
  -17.2222   -6.1447   18.5414 F   0  0  0  0  0  0  0  0  0  0  0  0
  -21.5528   -4.7547   19.8529 F   0  0  0  0  0  0  0  0  0  0  0  0
  1  2  1  0  0  0  0
  1  5  2  0  0  0  0
  2  6  2  0  0  0  0
  3  8  2  0  0  0  0
  3 17  1  0  0  0  0
  4  9  1  0  0  0  0
  4 17  2  0  0  0  0
  5 20  1  0  0  0  0
  6 22  1  0  0  0  0
  7 10  2  0  0  0  0
  7 21  1  0  0  0  0
  8 26  1  0  0  0  0
  9 26  2  0  0  0  0
 10 27  1  0  0  0  0
 11 12  2  0  0  0  0
 11 28  1  0  0  0  0
 12 30  1  0  0  0  0
 13 23  1  0  0  0  0
 13 27  2  0  0  0  0
 14 24  1  0  0  0  0
 14 25  2  0  0  0  0
 15 25  1  0  0  0  0
 15 29  2  0  0  0  0
 16 30  2  0  0  0  0
 16 31  1  0  0  0  0
 17 32  1  0  0  0  0
 18 24  2  0  0  0  0
 18 29  1  0  0  0  0
 18 36  1  0  0  0  0
 19 32  1  0  0  0  0
 19 33  2  0  0  0  0
 19 38  1  0  0  0  0
 20 22  2  0  0  0  0
 20 43  1  0  0  0  0
 21 23  2  0  0  0  0
 21 44  1  0  0  0  0
 22 54  1  0  0  0  0
 23 45  1  0  0  0  0
 24 69  1  0  0  0  0
 25 72  1  0  0  0  0
 26 83  1  0  0  0  0
 27 84  1  0  0  0  0
 28 31  2  0  0  0  0
 28 83  1  0  0  0  0
 29 85  1  0  0  0  0
 30 86  1  0  0  0  0
 31 87  1  0  0  0  0
 32 67  2  0  0  0  0
 33 68  1  0  0  0  0
 33 73  1  0  0  0  0
 34 37  2  0  0  0  0
 34 46  1  0  0  0  0
 34 55  1  0  0  0  0
 35 36  2  0  0  0  0
 37 84  1  0  0  0  0
 38 74  1  0  0  0  0
 38 78  2  0  0  0  0
 39 56  1  0  0  0  0
 39 75  1  0  0  0  0
 39 79  2  0  0  0  0
 40 64  1  0  0  0  0
 40 70  1  0  0  0  0
 40 80  2  0  0  0  0
 41 65  1  0  0  0  0
 41 76  1  0  0  0  0
 41 81  2  0  0  0  0
 42 71  1  0  0  0  0
 42 82  2  0  0  0  0
 42 85  1  0  0  0  0
 43 47  1  0  0  0  0
 44 56  1  0  0  0  0
 45 70  1  0  0  0  0
 46 51  1  0  0  0  0
 47 49  1  0  0  0  0
 48 50  1  0  0  0  0
 48 52  1  0  0  0  0
 49 54  1  0  0  0  0
 50 57  1  0  0  0  0
 51 69  1  0  0  0  0
 52 71  1  0  0  0  0
 53 57  1  0  0  0  0
 53 71  1  0  0  0  0
 54 75  1  0  0  0  0
 55 58  1  0  0  0  0
 55 69  1  0  0  0  0
 56 70  1  0  0  0  0
 57 68  1  0  0  0  0
 59 65  1  0  0  0  0
 60 66  1  0  0  0  0
 61 66  1  0  0  0  0
 62 66  1  0  0  0  0
 63 77  1  0  0  0  0
 64 66  1  0  0  0  0
 64 76  1  0  0  0  0
 65 77  1  0  0  0  0
 67 68  1  0  0  0  0
M  CHG  1  77   1
M  ISO  4  37 101  42 100  84 101  85 100
M  END
> <Batch ID>
0097

> <Smiles>
C=Cc1c([100O:0][100C:0](=O)N2CCCC(n3nc(-c4ccc(Oc5ccc(F)cc5F)cc4)c(C(N)=O)c3N)C2)cc(N)cc1N1CCC(=[101CH:1][101O:1]c2ccc3c(c2)CN(C(=O)C(NC(=O)C(C)NC)C(C)(C)C)C(C(=O)NC2CCCc4ccccc42)C3)C1C

> <Shape>
0.253

> <Color>
0.193

> <Negative vol penalty>
0.000

$$$$

  -OEChem-04052300493D

 93103  0     1  0  0  0  0  0999 V2000
  -27.1499  -35.8897   24.9102 C   0  0  0  0  0  0  0  0  0  0  0  0
  -27.6622  -34.8045   24.2064 C   0  0  0  0  0  0  0  0  0  0  0  0
  -27.2294  -12.8755   21.0436 C   0  0  0  0  0  0  0  0  0  0  0  0
  -25.4136  -14.0576   19.9747 C   0  0  0  0  0  0  0  0  0  0  0  0
  -25.9878  -35.7428   25.6665 C   0  0  0  0  0  0  0  0  0  0  0  0
  -27.0133  -33.5714   24.2594 C   0  0  0  0  0  0  0  0  0  0  0  0
  -26.6015  -31.3953   19.7053 C   0  0  0  0  0  0  0  0  0  0  0  0
  -26.4945  -11.6916   20.9829 C   0  0  0  0  0  0  0  0  0  0  0  0
  -24.6786  -12.8736   19.9139 C   0  0  0  0  0  0  0  0  0  0  0  0
  -27.7368  -30.7678   19.1945 C   0  0  0  0  0  0  0  0  0  0  0  0
  -22.8124  -10.9894   22.0111 C   0  0  0  0  0  0  0  0  0  0  0  0
  -21.4684  -11.0413   22.3804 C   0  0  0  0  0  0  0  0  0  0  0  0
  -29.7132  -25.3253   20.1400 C   0  0  0  0  0  0  0  0  0  0  0  0
  -26.8588  -28.6299   19.8857 C   0  0  0  0  0  0  0  0  0  0  0  0
  -30.9658  -23.3410   19.5652 C   0  0  0  0  0  0  0  0  0  0  0  0
  -20.8331  -10.2886   20.1743 C   0  0  0  0  0  0  0  0  0  0  0  0
  -26.6890  -14.0586   20.5395 C   0  0  0  0  0  0  0  0  0  0  0  0
  -28.7027  -15.5350   20.0176 C   0  0  0  0  0  0  0  0  0  0  0  0
  -25.3190  -34.5098   25.7211 C   0  0  0  0  0  0  0  0  0  0  0  0
  -25.5895  -30.6447   20.3210 C   0  0  0  0  0  0  0  0  0  0  0  0
  -25.8420  -33.4075   25.0183 C   0  0  0  0  0  0  0  0  0  0  0  0
  -29.7525  -24.0257   19.6352 C   0  0  0  0  0  0  0  0  0  0  0  0
  -25.7104  -29.2501   20.4013 C   0  0  0  0  0  0  0  0  0  0  0  0
  -30.8872  -25.9405   20.5749 C   0  0  0  0  0  0  0  0  0  0  0  0
  -32.1005  -25.2558   20.5049 C   0  0  0  0  0  0  0  0  0  0  0  0
  -25.2191  -11.6906   20.4180 C   0  0  0  0  0  0  0  0  0  0  0  0
  -27.8669  -29.3852   19.2872 C   0  0  0  0  0  0  0  0  0  0  0  0
  -23.1669  -10.5872   20.7233 C   0  0  0  0  0  0  0  0  0  0  0  0
  -20.4787  -10.6909   21.4620 C   0  0  0  0  0  0  0  0  0  0  0  0
  -32.1398  -23.9561   20.0001 C   0  0  0  0  0  0  0  0  0  0  0  0
  -22.1772  -10.2368   19.8050 C   0  0  0  0  0  0  0  0  0  0  0  0
  -27.4475  -15.2820   20.6025 C   0  0  0  0  0  0  0  0  0  0  0  0
  -28.9887  -16.8324   20.3663 C   0  0  0  0  0  0  0  0  0  0  0  0
  -32.7202  -28.9708   20.8601 C   0  0  0  0  0  0  0  0  0  0  0  0
  -29.5357  -14.6744   19.2294 C   0  0  0  0  0  0  0  0  0  0  0  0
  -24.3293  -30.5451   23.2374 C   0  0  0  0  0  0  0  0  0  0  0  0
  -22.2559  -28.4735   21.8475 C   0  0  0  0  0  0  0  0  0  0  0  0
  -22.4393  -25.7475   19.4912 C   0  0  0  0  0  0  0  0  0  0  0  0
  -27.5809  -22.0960   21.0878 C   0  0  0  0  0  0  0  0  0  0  0  0
  -24.0925  -34.3871   26.5901 C   0  0  0  0  0  0  0  0  0  0  0  0
  -24.3588  -31.3340   20.8431 C   0  0  0  0  0  0  0  0  0  0  0  0
  -24.6430  -28.3967   21.0346 C   0  0  0  0  0  0  0  0  0  0  0  0
  -33.2588  -29.8221   19.7365 C   0  0  0  0  0  0  0  0  0  0  0  0
  -23.2572  -33.1444   26.2929 C   0  0  0  0  0  0  0  0  0  0  0  0
  -32.6772  -29.1697   18.4856 C   0  0  0  0  0  0  0  0  0  0  0  0
  -27.1633  -25.1062   18.0538 C   0  0  0  0  0  0  0  0  0  0  0  0
  -28.0866  -24.4543   17.0265 C   0  0  0  0  0  0  0  0  0  0  0  0
  -26.7607  -19.9325   23.6710 C   0  0  0  0  0  0  0  0  0  0  0  0
  -24.1516  -31.9137   26.1832 C   0  0  0  0  0  0  0  0  0  0  0  0
  -26.9625  -18.5441   23.0655 C   0  0  0  0  0  0  0  0  0  0  0  0
  -27.1652  -24.1771   19.2692 C   0  0  0  0  0  0  0  0  0  0  0  0
  -28.4932  -23.1115   17.6311 C   0  0  0  0  0  0  0  0  0  0  0  0
  -26.1136  -20.8765   22.6645 C   0  0  0  0  0  0  0  0  0  0  0  0
  -27.0893  -19.6262   20.7656 C   0  0  0  0  0  0  0  0  0  0  0  0
  -25.1529  -32.0603   25.0310 C   0  0  1  0  0  0  0  0  0  0  0  0
  -23.6273  -30.5241   21.9091 C   0  0  1  0  0  0  0  0  0  0  0  0
  -27.7438  -18.6280   21.7426 C   0  0  2  0  0  0  0  0  0  0  0  0
  -31.3631  -28.5544   18.9569 C   0  0  2  0  0  0  0  0  0  0  0  0
  -28.4631  -23.3502   19.1573 C   0  0  0  0  0  0  0  0  0  0  0  0
  -21.2832  -24.4228   17.7007 C   0  0  0  0  0  0  0  0  0  0  0  0
  -21.6130  -26.5182   24.0999 C   0  0  0  0  0  0  0  0  0  0  0  0
  -21.2851  -24.7398   22.3684 C   0  0  0  0  0  0  0  0  0  0  0  0
  -19.8143  -26.7546   22.3786 C   0  0  0  0  0  0  0  0  0  0  0  0
  -28.6394  -20.8895   19.1311 C   0  0  0  0  0  0  0  0  0  0  0  0
  -23.7805  -27.2701   17.3367 C   0  0  0  0  0  0  0  0  0  0  0  0
  -30.8156  -27.3396   21.1147 C   0  0  0  0  0  0  0  0  0  0  0  0
  -30.1905  -29.5167   18.7978 C   0  0  0  0  0  0  0  0  0  1  0  0
  -22.2196  -26.9797   21.6331 C   0  0  1  0  0  0  0  0  0  0  0  0
  -21.9359  -25.7488   18.0590 C   0  0  2  0  0  0  0  0  0  0  0  0
  -21.2576  -26.2622   22.6217 C   0  0  0  0  0  0  0  0  0  0  0  0
  -26.9691  -16.3341   21.2721 N   0  0  0  0  0  0  0  0  0  0  0  0
  -27.9289  -17.2607   21.1101 N   0  0  0  0  0  0  0  0  0  0  0  0
  -31.6366  -28.2577   20.3517 N   0  0  0  0  0  0  0  0  0  0  0  0
  -23.4615  -29.1179   21.5359 N   0  0  0  0  0  0  0  0  0  0  0  0
  -26.8788  -20.9275   21.4185 N   0  0  0  0  0  0  0  0  0  0  0  0
  -33.2975  -25.8654   20.9412 N   0  0  0  0  0  0  0  0  0  0  0  0
  -30.0410  -17.6371   20.1061 N   0  0  0  0  0  0  0  0  0  0  0  0
  -29.0902  -13.3720   18.9655 N   0  0  0  0  0  0  0  0  0  0  0  0
  -24.5030  -31.8116   23.7620 N   0  0  0  0  0  0  0  0  0  0  0  0
  -21.8908  -26.7771   20.2263 N   0  0  0  0  0  0  0  0  0  0  0  0
  -28.2919  -22.0968   19.8782 N   0  0  0  0  0  0  0  0  0  0  0  0
  -23.0630  -25.9885   17.1140 N   0  3  0  0  0  0  0  0  0  0  0  0
  -33.1607  -28.9667   21.9999 O   0  0  0  0  0  0  0  0  0  0  0  0
  -30.6497  -15.0438   18.7866 O   0  0  0  0  0  0  0  0  0  0  0  0
  -24.6856  -29.4902   23.7492 O   0  0  0  0  0  0  0  0  0  0  0  0
  -21.2492  -29.0486   22.2690 O   0  0  0  0  0  0  0  0  0  0  0  0
  -23.2363  -24.9141   19.9163 O   0  0  0  0  0  0  0  0  0  0  0  0
  -27.5680  -23.0879   21.8282 O   0  0  0  0  0  0  0  0  0  0  0  0
  -24.5017  -10.5354   20.3584 O   0  0  0  0  0  0  0  0  0  0  0  0
  -28.9744  -28.7702   18.7900 O   0  0  0  0  0  0  0  0  0  1  0  0
  -19.1881  -10.7393   21.8173 F   0  0  0  0  0  0  0  0  0  0  0  0
  -33.2999  -23.2882   19.9268 F   0  0  0  0  0  0  0  0  0  0  0  0
  -22.5116   -9.8484   18.5667 F   0  0  0  0  0  0  0  0  0  0  0  0
  1  2  1  0  0  0  0
  1  5  2  0  0  0  0
  2  6  2  0  0  0  0
  3  8  2  0  0  0  0
  3 17  1  0  0  0  0
  4  9  1  0  0  0  0
  4 17  2  0  0  0  0
  5 19  1  0  0  0  0
  6 21  1  0  0  0  0
  7 10  2  0  0  0  0
  7 20  1  0  0  0  0
  8 26  1  0  0  0  0
  9 26  2  0  0  0  0
 10 27  1  0  0  0  0
 11 12  2  0  0  0  0
 11 28  1  0  0  0  0
 12 29  1  0  0  0  0
 13 22  2  0  0  0  0
 13 24  1  0  0  0  0
 14 23  1  0  0  0  0
 14 27  2  0  0  0  0
 15 22  1  0  0  0  0
 15 30  2  0  0  0  0
 16 29  2  0  0  0  0
 16 31  1  0  0  0  0
 17 32  1  0  0  0  0
 18 32  1  0  0  0  0
 18 33  2  0  0  0  0
 18 35  1  0  0  0  0
 19 21  2  0  0  0  0
 19 40  1  0  0  0  0
 20 23  2  0  0  0  0
 20 41  1  0  0  0  0
 21 55  1  0  0  0  0
 22 59  1  0  0  0  0
 23 42  1  0  0  0  0
 24 25  2  0  0  0  0
 24 66  1  0  0  0  0
 25 30  1  0  0  0  0
 25 76  1  0  0  0  0
 26 89  1  0  0  0  0
 27 90  1  0  0  0  0
 28 31  2  0  0  0  0
 28 89  1  0  0  0  0
 29 91  1  0  0  0  0
 30 92  1  0  0  0  0
 31 93  1  0  0  0  0
 32 71  2  0  0  0  0
 33 72  1  0  0  0  0
 33 77  1  0  0  0  0
 34 43  1  0  0  0  0
 34 73  1  0  0  0  0
 34 83  2  0  0  0  0
 35 78  1  0  0  0  0
 35 84  2  0  0  0  0
 36 56  1  0  0  0  0
 36 79  1  0  0  0  0
 36 85  2  0  0  0  0
 37 68  1  0  0  0  0
 37 74  1  0  0  0  0
 37 86  2  0  0  0  0
 38 69  1  0  0  0  0
 38 80  1  0  0  0  0
 38 87  2  0  0  0  0
 39 75  1  0  0  0  0
 39 81  1  0  0  0  0
 39 88  2  0  0  0  0
 40 44  1  0  0  0  0
 41 56  1  0  0  0  0
 42 74  1  0  0  0  0
 43 45  1  0  0  0  0
 44 49  1  0  0  0  0
 45 58  1  0  0  0  0
 46 47  1  0  0  0  0
 46 51  1  0  0  0  0
 47 52  1  0  0  0  0
 48 50  1  0  0  0  0
 48 53  1  0  0  0  0
 49 55  1  0  0  0  0
 50 57  1  0  0  0  0
 51 59  1  0  0  0  0
 52 59  1  0  0  0  0
 53 75  1  0  0  0  0
 54 57  1  0  0  0  0
 54 75  1  0  0  0  0
 55 79  1  0  0  0  0
 56 74  1  0  0  0  0
 57 72  1  0  0  0  0
 58 67  1  0  0  0  0
 58 73  1  0  0  0  0
 59 81  1  0  0  0  0
 60 69  1  0  0  0  0
 61 70  1  0  0  0  0
 62 70  1  0  0  0  0
 63 70  1  0  0  0  0
 64 81  1  0  0  0  0
 65 82  1  0  0  0  0
 66 73  1  0  0  0  0
 67 90  1  0  0  0  0
 68 70  1  0  0  0  0
 68 80  1  0  0  0  0
 69 82  1  0  0  0  0
 71 72  1  0  0  0  0
M  CHG  1  82   1
M  ISO  4  39 100  67 101  81 100  90 101
M  END
> <Batch ID>
0097

> <Smiles>
CNC(C)C(=O)NC(C(=O)N1Cc2cc([101O:1][101CH2:1]C3CCC(=O)N3Cc3cc(C4([100N:0](C)[100C:0](=O)N5CCCC(n6nc(-c7ccc(Oc8ccc(F)cc8F)cc7)c(C(N)=O)c6N)C5)CCCC4)cc(F)c3N)ccc2CC1C(=O)NC1CCCc2ccccc21)C(C)(C)C

> <Shape>
0.284

> <Color>
0.047

> <Negative vol penalty>
0.000

$$$$

  -OEChem-04052300493D

 89 98  0     1  0  0  0  0  0999 V2000
  -27.1739  -36.3650   21.4439 C   0  0  0  0  0  0  0  0  0  0  0  0
  -27.6003  -35.0408   21.4563 C   0  0  0  0  0  0  0  0  0  0  0  0
  -24.3725   -9.0717   21.2443 C   0  0  0  0  0  0  0  0  0  0  0  0
  -22.3820  -10.4406   21.2111 C   0  0  0  0  0  0  0  0  0  0  0  0
  -25.9532  -36.7086   22.0234 C   0  0  0  0  0  0  0  0  0  0  0  0
  -26.8066  -34.0596   22.0493 C   0  0  0  0  0  0  0  0  0  0  0  0
  -26.4533  -29.8747   19.2196 C   0  0  0  0  0  0  0  0  0  0  0  0
  -28.5520  -20.8306   19.4260 C   0  0  0  0  0  0  0  0  0  0  0  0
  -27.3927  -22.1557   17.7716 C   0  0  0  0  0  0  0  0  0  0  0  0
  -27.6599  -19.7803   19.2100 C   0  0  0  0  0  0  0  0  0  0  0  0
  -26.5006  -21.1054   17.5555 C   0  0  0  0  0  0  0  0  0  0  0  0
  -23.5829   -7.9257   21.3369 C   0  0  0  0  0  0  0  0  0  0  0  0
  -21.5923   -9.2946   21.3037 C   0  0  0  0  0  0  0  0  0  0  0  0
  -27.5381  -28.9992   19.2395 C   0  0  0  0  0  0  0  0  0  0  0  0
  -22.0991   -4.6619   21.9447 C   0  0  0  0  0  0  0  0  0  0  0  0
  -22.4736   -3.6874   22.8698 C   0  0  0  0  0  0  0  0  0  0  0  0
  -26.3653  -27.5914   20.8085 C   0  0  0  0  0  0  0  0  0  0  0  0
  -22.2387   -5.2948   24.6581 C   0  0  0  0  0  0  0  0  0  0  0  0
  -23.7721  -10.3292   21.1814 C   0  0  0  0  0  0  0  0  0  0  0  0
  -25.5559  -11.9551   22.0074 C   0  0  0  0  0  0  0  0  0  0  0  0
  -25.1397  -35.7295   22.6152 C   0  0  0  0  0  0  0  0  0  0  0  0
  -25.3189  -29.6204   20.0036 C   0  0  0  0  0  0  0  0  0  0  0  0
  -25.5745  -34.3905   22.6384 C   0  0  0  0  0  0  0  0  0  0  0  0
  -25.2664  -28.4639   20.7948 C   0  0  0  0  0  0  0  0  0  0  0  0
  -28.4183  -22.0183   18.7069 C   0  0  0  0  0  0  0  0  0  0  0  0
  -26.6342  -19.9176   18.2747 C   0  0  0  0  0  0  0  0  0  0  0  0
  -22.1928   -8.0371   21.3667 C   0  0  0  0  0  0  0  0  0  0  0  0
  -27.4954  -27.8588   20.0362 C   0  0  0  0  0  0  0  0  0  0  0  0
  -21.7944   -5.9529   22.3764 C   0  0  0  0  0  0  0  0  0  0  0  0
  -22.5435   -4.0039   24.2265 C   0  0  0  0  0  0  0  0  0  0  0  0
  -21.8642   -6.2693   23.7331 C   0  0  0  0  0  0  0  0  0  0  0  0
  -24.5873  -11.5135   21.0862 C   0  0  0  0  0  0  0  0  0  0  0  0
  -26.0430  -13.1180   21.4626 C   0  0  0  0  0  0  0  0  0  0  0  0
  -30.6628  -22.7820   19.3307 C   0  0  0  0  0  0  0  0  0  0  0  0
  -28.8605  -24.4329   18.7466 C   0  0  0  0  0  0  0  0  0  0  0  0
  -26.0405  -19.3417   14.6313 C   0  0  0  0  0  0  0  0  0  0  0  0
  -25.8407  -18.5160   15.6647 C   0  0  0  0  0  0  0  0  0  0  0  0
  -25.9777  -11.3666   23.2450 C   0  0  0  0  0  0  0  0  0  0  0  0
  -23.8574  -31.1282   22.3899 C   0  0  0  0  0  0  0  0  0  0  0  0
  -21.6523  -28.7804   22.0057 C   0  0  0  0  0  0  0  0  0  0  0  0
  -21.6710  -25.2234   21.4018 C   0  0  0  0  0  0  0  0  0  0  0  0
  -25.3813  -17.9255   19.0827 C   0  0  0  0  0  0  0  0  0  0  0  0
  -23.8502  -36.1563   23.2708 C   0  0  0  0  0  0  0  0  0  0  0  0
  -24.1462  -30.5608   19.9505 C   0  0  0  0  0  0  0  0  0  0  0  0
  -24.0636  -28.1348   21.6394 C   0  0  0  0  0  0  0  0  0  0  0  0
  -31.5676  -23.9317   19.7229 C   0  0  0  0  0  0  0  0  0  0  0  0
  -22.8950  -34.9981   23.5473 C   0  0  0  0  0  0  0  0  0  0  0  0
  -30.8400  -25.2327   19.9690 C   0  0  0  0  0  0  0  0  0  0  0  0
  -25.4053  -15.1364   16.8774 C   0  0  0  0  0  0  0  0  0  0  0  0
  -23.6414  -33.8315   24.1865 C   0  0  0  0  0  0  0  0  0  0  0  0
  -25.2620  -13.9730   17.8580 C   0  0  0  0  0  0  0  0  0  0  0  0
  -24.5435  -16.3337   17.2798 C   0  0  0  0  0  0  0  0  0  0  0  0
  -24.6224  -15.6303   19.6512 C   0  0  0  0  0  0  0  0  0  0  0  0
  -24.7302  -33.2937   23.2501 C   0  0  1  0  0  0  0  0  0  0  0  0
  -29.9376  -25.5078   18.7794 C   0  0  2  0  0  0  0  0  0  0  0  0
  -23.2513  -30.4702   21.1827 C   0  0  1  0  0  0  0  0  0  0  0  0
  -25.5216  -14.4337   19.3032 C   0  0  1  0  0  0  0  0  0  0  0  0
  -19.9712  -23.7480   20.2922 C   0  0  0  0  0  0  0  0  0  0  0  0
  -20.6264  -28.3201   24.8422 C   0  0  0  0  0  0  0  0  0  0  0  0
  -20.2087  -25.9291   24.2285 C   0  0  0  0  0  0  0  0  0  0  0  0
  -18.9920  -27.7517   23.0367 C   0  0  0  0  0  0  0  0  0  0  0  0
  -23.6614  -24.1833   19.4743 C   0  0  0  0  0  0  0  0  0  0  0  0
  -24.9307  -18.8196   16.8083 C   0  0  0  0  0  0  0  0  0  0  0  0
  -29.3370  -26.9087   18.8693 C   0  0  0  0  0  0  0  0  0  1  0  0
  -21.4527  -27.3973   22.5769 C   0  0  1  0  0  0  0  0  0  0  0  0
  -21.2715  -24.5174   20.1187 C   0  0  2  0  0  0  0  0  0  0  0  0
  -20.3459  -27.3609   23.6683 C   0  0  0  0  0  0  0  0  0  0  0  0
  -24.4648  -12.3295   20.0359 N   0  0  0  0  0  0  0  0  0  0  0  0
  -25.3628  -13.2956   20.2938 N   0  0  0  0  0  0  0  0  0  0  0  0
  -29.3450  -23.1100   18.9316 N   0  0  0  0  0  0  0  0  0  0  0  0
  -22.9449  -29.0884   21.5583 N   0  0  0  0  0  0  0  0  0  0  0  0
  -24.7960  -16.7111   18.6776 N   0  0  0  0  0  0  0  0  0  0  0  0
  -26.9824  -13.9958   21.8740 N   0  0  0  0  0  0  0  0  0  0  0  0
  -25.3109  -11.7349   24.4214 N   0  0  0  0  0  0  0  0  0  0  0  0
  -24.1445  -32.4686   22.2154 N   0  0  0  0  0  0  0  0  0  0  0  0
  -21.1999  -26.5188   21.4400 N   0  0  0  0  0  0  0  0  0  0  0  0
  -25.7105  -18.8305   18.0508 N   0  0  0  0  0  0  0  0  0  0  0  0
  -22.3334  -23.5579   19.7031 N   0  3  0  0  0  0  0  0  0  0  0  0
  -31.1511  -21.6476   19.3024 O   0  0  0  0  0  0  0  0  0  0  0  0
  -27.6770  -24.7387   18.5869 O   0  0  0  0  0  0  0  0  0  0  0  0
  -26.9288  -10.5512   23.3079 O   0  0  0  0  0  0  0  0  0  0  0  0
  -24.0489  -30.4691   23.4051 O   0  0  0  0  0  0  0  0  0  0  0  0
  -20.6949  -29.5563   21.9518 O   0  0  0  0  0  0  0  0  0  0  0  0
  -22.3315  -24.6790   22.2838 O   0  0  0  0  0  0  0  0  0  0  0  0
  -25.5711  -18.1920   20.2756 O   0  0  0  0  0  0  0  0  0  0  0  0
  -21.4219   -6.9190   21.4568 O   0  0  0  0  0  0  0  0  0  0  0  0
  -28.5531  -27.0029   20.0580 O   0  0  0  0  0  0  0  0  0  1  0  0
  -22.9017   -3.0676   25.1148 F   0  0  0  0  0  0  0  0  0  0  0  0
  -21.5715   -7.5075   24.1539 F   0  0  0  0  0  0  0  0  0  0  0  0
  1  2  1  0  0  0  0
  1  5  2  0  0  0  0
  2  6  2  0  0  0  0
  3 12  2  0  0  0  0
  3 19  1  0  0  0  0
  4 13  1  0  0  0  0
  4 19  2  0  0  0  0
  5 21  1  0  0  0  0
  6 23  1  0  0  0  0
  7 14  2  0  0  0  0
  7 22  1  0  0  0  0
  8 10  2  0  0  0  0
  8 25  1  0  0  0  0
  9 11  1  0  0  0  0
  9 25  2  0  0  0  0
 10 26  1  0  0  0  0
 11 26  2  0  0  0  0
 12 27  1  0  0  0  0
 13 27  2  0  0  0  0
 14 28  1  0  0  0  0
 15 16  2  0  0  0  0
 15 29  1  0  0  0  0
 16 30  1  0  0  0  0
 17 24  1  0  0  0  0
 17 28  2  0  0  0  0
 18 30  2  0  0  0  0
 18 31  1  0  0  0  0
 19 32  1  0  0  0  0
 20 32  1  0  0  0  0
 20 33  2  0  0  0  0
 20 38  1  0  0  0  0
 21 23  2  0  0  0  0
 21 43  1  0  0  0  0
 22 24  2  0  0  0  0
 22 44  1  0  0  0  0
 23 54  1  0  0  0  0
 24 45  1  0  0  0  0
 25 70  1  0  0  0  0
 26 77  1  0  0  0  0
 27 86  1  0  0  0  0
 28 87  1  0  0  0  0
 29 31  2  0  0  0  0
 29 86  1  0  0  0  0
 30 88  1  0  0  0  0
 31 89  1  0  0  0  0
 32 68  2  0  0  0  0
 33 69  1  0  0  0  0
 33 73  1  0  0  0  0
 34 46  1  0  0  0  0
 34 70  1  0  0  0  0
 34 79  2  0  0  0  0
 35 55  1  0  0  0  0
 35 70  1  0  0  0  0
 35 80  2  0  0  0  0
 36 37  2  0  0  0  0
 37 63  1  0  0  0  0
 38 74  1  0  0  0  0
 38 81  2  0  0  0  0
 39 56  1  0  0  0  0
 39 75  1  0  0  0  0
 39 82  2  0  0  0  0
 40 65  1  0  0  0  0
 40 71  1  0  0  0  0
 40 83  2  0  0  0  0
 41 66  1  0  0  0  0
 41 76  1  0  0  0  0
 41 84  2  0  0  0  0
 42 72  1  0  0  0  0
 42 77  1  0  0  0  0
 42 85  2  0  0  0  0
 43 47  1  0  0  0  0
 44 56  1  0  0  0  0
 45 71  1  0  0  0  0
 46 48  1  0  0  0  0
 47 50  1  0  0  0  0
 48 55  1  0  0  0  0
 49 51  1  0  0  0  0
 49 52  1  0  0  0  0
 50 54  1  0  0  0  0
 51 57  1  0  0  0  0
 52 72  1  0  0  0  0
 53 57  1  0  0  0  0
 53 72  1  0  0  0  0
 54 75  1  0  0  0  0
 55 64  1  0  0  0  0
 56 71  1  0  0  0  0
 57 69  1  0  0  0  0
 58 66  1  0  0  0  0
 59 67  1  0  0  0  0
 60 67  1  0  0  0  0
 61 67  1  0  0  0  0
 62 78  1  0  0  0  0
 63 77  1  0  0  0  0
 64 87  1  0  0  0  0
 65 67  1  0  0  0  0
 65 76  1  0  0  0  0
 66 78  1  0  0  0  0
 68 69  1  0  0  0  0
M  CHG  1  78   1
M  ISO  4  42 100  64 101  77 100  87 101
M  END
> <Batch ID>
0097

> <Smiles>
C=CC[100N:0](c1ccc(N2C(=O)CCC([101CH2:1][101O:1]c3ccc4c(c3)CN(C(=O)C(NC(=O)C(C)NC)C(C)(C)C)C(C(=O)NC3CCCc5ccccc53)C4)C2=O)cc1)[100C:0](=O)N1CCCC(n2nc(-c3ccc(Oc4ccc(F)cc4F)cc3)c(C(N)=O)c2N)C1

> <Shape>
0.308

> <Color>
0.109

> <Negative vol penalty>
0.000

$$$$

  -OEChem-04052300493D

 85 93  0     1  0  0  0  0  0999 V2000
  -21.9161  -11.8182   20.7040 C   0  0  0  0  0  0  0  0  0  0  0  0
  -21.8266  -12.9713   21.4772 C   0  0  0  0  0  0  0  0  0  0  0  0
  -20.3088  -27.2837   23.7890 C   0  0  0  0  0  0  0  0  0  0  0  0
  -19.7966  -26.9987   21.4452 C   0  0  0  0  0  0  0  0  0  0  0  0
  -23.1297  -11.4690   20.1131 C   0  0  0  0  0  0  0  0  0  0  0  0
  -22.9510  -13.7753   21.6608 C   0  0  0  0  0  0  0  0  0  0  0  0
  -23.0705  -19.8772   22.1695 C   0  0  0  0  0  0  0  0  0  0  0  0
  -25.1669  -30.7453   25.6462 C   0  0  0  0  0  0  0  0  0  0  0  0
  -18.9529  -27.1779   24.0983 C   0  0  0  0  0  0  0  0  0  0  0  0
  -18.4405  -26.8928   21.7545 C   0  0  0  0  0  0  0  0  0  0  0  0
  -23.1357  -20.7252   23.2742 C   0  0  0  0  0  0  0  0  0  0  0  0
  -25.4422  -29.5140   26.2407 C   0  0  0  0  0  0  0  0  0  0  0  0
  -15.6627  -26.6219   25.5408 C   0  0  0  0  0  0  0  0  0  0  0  0
  -15.3047  -25.8124   26.6188 C   0  0  0  0  0  0  0  0  0  0  0  0
  -25.5277  -20.8827   23.0045 C   0  0  0  0  0  0  0  0  0  0  0  0
  -26.9600  -30.3840   24.0677 C   0  0  0  0  0  0  0  0  0  0  0  0
  -16.3013  -23.9063   25.5184 C   0  0  0  0  0  0  0  0  0  0  0  0
  -20.7307  -27.1942   22.4624 C   0  0  0  0  0  0  0  0  0  0  0  0
  -23.0700  -26.2578   22.0641 C   0  0  0  0  0  0  0  0  0  0  0  0
  -24.2671  -12.2742   20.2816 C   0  0  0  0  0  0  0  0  0  0  0  0
  -24.2367  -19.5162   21.4795 C   0  0  0  0  0  0  0  0  0  0  0  0
  -24.1813  -13.4358   21.0727 C   0  0  0  0  0  0  0  0  0  0  0  0
  -25.4743  -20.0319   21.8898 C   0  0  0  0  0  0  0  0  0  0  0  0
  -25.9258  -31.1804   24.5596 C   0  0  0  0  0  0  0  0  0  0  0  0
  -27.2353  -29.1526   24.6623 C   0  0  0  0  0  0  0  0  0  0  0  0
  -18.0187  -26.9824   23.0810 C   0  0  0  0  0  0  0  0  0  0  0  0
  -24.3648  -21.2258   23.6936 C   0  0  0  0  0  0  0  0  0  0  0  0
  -26.4763  -28.7176   25.7489 C   0  0  0  0  0  0  0  0  0  0  0  0
  -16.3400  -26.0737   24.4516 C   0  0  0  0  0  0  0  0  0  0  0  0
  -15.6240  -24.4546   26.6076 C   0  0  0  0  0  0  0  0  0  0  0  0
  -16.6593  -24.7159   24.4404 C   0  0  0  0  0  0  0  0  0  0  0  0
  -22.1313  -27.3040   22.1423 C   0  0  0  0  0  0  0  0  0  0  0  0
  -24.2488  -26.8785   21.7301 C   0  0  0  0  0  0  0  0  0  0  0  0
  -22.8923  -24.8508   22.2745 C   0  0  0  0  0  0  0  0  0  0  0  0
  -25.7465  -16.7787   20.9046 C   0  0  0  0  0  0  0  0  0  0  0  0
  -27.6237  -18.6562   19.0410 C   0  0  0  0  0  0  0  0  0  0  0  0
  -28.8352  -21.7728   18.3583 C   0  0  0  0  0  0  0  0  0  0  0  0
  -25.8670  -32.7208   22.5810 C   0  0  0  0  0  0  0  0  0  0  0  0
  -25.5688  -11.8308   19.6621 C   0  0  0  0  0  0  0  0  0  0  0  0
  -24.1462  -18.6218   20.2735 C   0  0  0  0  0  0  0  0  0  0  0  0
  -26.7532  -19.6911   21.1709 C   0  0  0  0  0  0  0  0  0  0  0  0
  -26.6201  -12.9356   19.5973 C   0  0  0  0  0  0  0  0  0  0  0  0
  -25.9763  -30.7199   19.4701 C   0  0  0  0  0  0  0  0  0  0  0  0
  -26.7053  -13.6703   20.9314 C   0  0  0  0  0  0  0  0  0  0  0  0
  -25.0138  -29.5725   19.7707 C   0  0  0  0  0  0  0  0  0  0  0  0
  -25.6027  -31.9872   20.2332 C   0  0  0  0  0  0  0  0  0  0  0  0
  -24.5318  -30.6340   22.0118 C   0  0  0  0  0  0  0  0  0  0  0  0
  -25.3727  -14.3468   21.2747 C   0  0  1  0  0  0  0  0  0  0  0  0
  -25.4579  -17.9095   19.9582 C   0  0  1  0  0  0  0  0  0  0  0  0
  -24.9104  -29.3342   21.2862 C   0  0  1  0  0  0  0  0  0  0  0  0
  -26.6120  -34.1747   25.4148 C   0  0  0  0  0  0  0  0  0  0  0  0
  -30.3805  -22.9874   16.7981 C   0  0  0  0  0  0  0  0  0  0  0  0
  -30.0258  -17.5488   20.5620 C   0  0  0  0  0  0  0  0  0  0  0  0
  -31.3870  -19.4430   19.6522 C   0  0  0  0  0  0  0  0  0  0  0  0
  -30.3692  -17.7805   18.0957 C   0  0  0  0  0  0  0  0  0  0  0  0
  -26.6438  -23.4724   17.3250 C   0  0  0  0  0  0  0  0  0  0  0  0
  -25.0422  -24.2471   25.5747 C   0  0  0  0  0  0  0  0  0  0  0  0
  -26.1269  -25.3184   25.5970 C   0  0  0  0  0  0  0  0  0  0  0  0
  -25.3485  -33.5865   24.8201 C   0  0  0  0  0  0  0  0  0  0  0  0
  -25.4798  -23.0211   24.7842 C   0  0  0  0  0  0  0  0  0  1  0  0
  -25.6741  -26.5611   26.3504 C   0  0  0  0  0  0  0  0  0  0  0  0
  -28.8818  -19.4617   19.2589 C   0  0  1  0  0  0  0  0  0  0  0  0
  -28.9482  -22.5469   17.0574 C   0  0  2  0  0  0  0  0  0  0  0  0
  -30.1423  -18.5636   19.4072 C   0  0  0  0  0  0  0  0  0  0  0  0
  -22.6675  -28.4987   21.8792 N   0  0  0  0  0  0  0  0  0  0  0  0
  -23.9560  -28.2070   21.6326 N   0  0  0  0  0  0  0  0  0  0  0  0
  -26.6135  -18.8078   20.0014 N   0  0  0  0  0  0  0  0  0  0  0  0
  -25.4490  -31.7323   21.6664 N   0  0  0  0  0  0  0  0  0  0  0  0
  -28.2849  -28.3565   24.1543 N   0  0  0  0  0  0  0  0  0  0  0  0
  -25.4969  -26.4121   21.5133 N   0  0  0  0  0  0  0  0  0  0  0  0
  -21.6153  -24.3816   22.6114 N   0  0  0  0  0  0  0  0  0  0  0  0
  -25.2133  -15.5660   20.5115 N   0  0  0  0  0  0  0  0  0  0  0  0
  -28.9530  -20.4139   18.1559 N   0  0  0  0  0  0  0  0  0  0  0  0
  -25.6400  -32.4535   23.9446 N   0  0  0  0  0  0  0  0  0  0  0  0
  -28.0837  -23.7601   17.0997 N   0  3  0  0  0  0  0  0  0  0  0  0
  -23.8414  -24.0357   22.1830 O   0  0  0  0  0  0  0  0  0  0  0  0
  -26.4053  -16.9904   21.9160 O   0  0  0  0  0  0  0  0  0  0  0  0
  -27.5376  -17.9251   18.0512 O   0  0  0  0  0  0  0  0  0  0  0  0
  -28.6636  -22.3191   19.4458 O   0  0  0  0  0  0  0  0  0  0  0  0
  -26.3580  -33.7929   22.2068 O   0  0  0  0  0  0  0  0  0  0  0  0
  -16.6955  -26.8789   23.3825 O   0  0  0  0  0  0  0  0  0  0  0  0
  -24.4313  -22.0532   24.7719 O   0  0  0  0  0  0  0  0  0  1  0  0
  -26.7309  -27.5110   26.3474 O   0  0  0  0  0  0  0  0  0  0  0  0
  -15.2814  -23.6776   27.6435 F   0  0  0  0  0  0  0  0  0  0  0  0
  -17.3109  -24.1838   23.3973 F   0  0  0  0  0  0  0  0  0  0  0  0
  1  2  1  0  0  0  0
  1  5  2  0  0  0  0
  2  6  2  0  0  0  0
  3  9  2  0  0  0  0
  3 18  1  0  0  0  0
  4 10  1  0  0  0  0
  4 18  2  0  0  0  0
  5 20  1  0  0  0  0
  6 22  1  0  0  0  0
  7 11  2  0  0  0  0
  7 21  1  0  0  0  0
  8 12  2  0  0  0  0
  8 24  1  0  0  0  0
  9 26  1  0  0  0  0
 10 26  2  0  0  0  0
 11 27  1  0  0  0  0
 12 28  1  0  0  0  0
 13 14  2  0  0  0  0
 13 29  1  0  0  0  0
 14 30  1  0  0  0  0
 15 23  1  0  0  0  0
 15 27  2  0  0  0  0
 16 24  2  0  0  0  0
 16 25  1  0  0  0  0
 17 30  2  0  0  0  0
 17 31  1  0  0  0  0
 18 32  1  0  0  0  0
 19 32  1  0  0  0  0
 19 33  2  0  0  0  0
 19 34  1  0  0  0  0
 20 22  2  0  0  0  0
 20 39  1  0  0  0  0
 21 23  2  0  0  0  0
 21 40  1  0  0  0  0
 22 48  1  0  0  0  0
 23 41  1  0  0  0  0
 24 74  1  0  0  0  0
 25 28  2  0  0  0  0
 25 69  1  0  0  0  0
 26 81  1  0  0  0  0
 27 82  1  0  0  0  0
 28 83  1  0  0  0  0
 29 31  2  0  0  0  0
 29 81  1  0  0  0  0
 30 84  1  0  0  0  0
 31 85  1  0  0  0  0
 32 65  2  0  0  0  0
 33 66  1  0  0  0  0
 33 70  1  0  0  0  0
 34 71  1  0  0  0  0
 34 76  2  0  0  0  0
 35 49  1  0  0  0  0
 35 72  1  0  0  0  0
 35 77  2  0  0  0  0
 36 62  1  0  0  0  0
 36 67  1  0  0  0  0
 36 78  2  0  0  0  0
 37 63  1  0  0  0  0
 37 73  1  0  0  0  0
 37 79  2  0  0  0  0
 38 68  1  0  0  0  0
 38 74  1  0  0  0  0
 38 80  2  0  0  0  0
 39 42  1  0  0  0  0
 40 49  1  0  0  0  0
 41 67  1  0  0  0  0
 42 44  1  0  0  0  0
 43 45  1  0  0  0  0
 43 46  1  0  0  0  0
 44 48  1  0  0  0  0
 45 50  1  0  0  0  0
 46 68  1  0  0  0  0
 47 50  1  0  0  0  0
 47 68  1  0  0  0  0
 48 72  1  0  0  0  0
 49 67  1  0  0  0  0
 50 66  1  0  0  0  0
 51 59  1  0  0  0  0
 52 63  1  0  0  0  0
 53 64  1  0  0  0  0
 54 64  1  0  0  0  0
 55 64  1  0  0  0  0
 56 75  1  0  0  0  0
 57 58  1  0  0  0  0
 57 60  1  0  0  0  0
 58 61  1  0  0  0  0
 59 74  1  0  0  0  0
 60 82  1  0  0  0  0
 61 83  1  0  0  0  0
 62 64  1  0  0  0  0
 62 73  1  0  0  0  0
 63 75  1  0  0  0  0
 65 66  1  0  0  0  0
M  CHG  1  75   1
M  ISO  4  38 100  60 101  74 100  82 101
M  END
> <Batch ID>
0097

> <Smiles>
CC[100N:0](c1ccc(OCCC[101CH2:1][101O:1]c2ccc3c(c2)CN(C(=O)C(NC(=O)C(C)NC)C(C)(C)C)C(C(=O)NC2CCCc4ccccc42)C3)c(N)c1)[100C:0](=O)N1CCCC(n2nc(-c3ccc(Oc4ccc(F)cc4F)cc3)c(C(N)=O)c2N)C1

> <Shape>
0.248

> <Color>
0.068

> <Negative vol penalty>
0.000

$$$$

  -OEChem-04052300493D

 84 92  0     1  0  0  0  0  0999 V2000
  -34.2665  -32.7163   28.1281 C   0  0  0  0  0  0  0  0  0  0  0  0
  -33.9850  -31.5817   28.8824 C   0  0  0  0  0  0  0  0  0  0  0  0
  -23.0743   -9.8656   19.9472 C   0  0  0  0  0  0  0  0  0  0  0  0
  -23.8344   -9.8813   22.2405 C   0  0  0  0  0  0  0  0  0  0  0  0
  -33.5812  -32.9472   26.9360 C   0  0  0  0  0  0  0  0  0  0  0  0
  -33.0171  -30.6779   28.4456 C   0  0  0  0  0  0  0  0  0  0  0  0
  -31.4795  -23.6816   28.5064 C   0  0  0  0  0  0  0  0  0  0  0  0
  -29.0575  -17.7353   23.4724 C   0  0  0  0  0  0  0  0  0  0  0  0
  -28.6632  -18.1595   24.7413 C   0  0  0  0  0  0  0  0  0  0  0  0
  -22.3317   -8.7125   20.2011 C   0  0  0  0  0  0  0  0  0  0  0  0
  -23.0918   -8.7282   22.4945 C   0  0  0  0  0  0  0  0  0  0  0  0
  -30.4447  -22.8091   28.8407 C   0  0  0  0  0  0  0  0  0  0  0  0
  -22.9077   -5.3957   20.5033 C   0  0  0  0  0  0  0  0  0  0  0  0
  -22.9756   -4.3630   19.5682 C   0  0  0  0  0  0  0  0  0  0  0  0
  -29.3805  -23.2706   26.7256 C   0  0  0  0  0  0  0  0  0  0  0  0
  -31.3099  -17.4066   24.2822 C   0  0  0  0  0  0  0  0  0  0  0  0
  -20.5909   -4.5250   19.2161 C   0  0  0  0  0  0  0  0  0  0  0  0
  -23.8257  -10.4500   20.9668 C   0  0  0  0  0  0  0  0  0  0  0  0
  -24.1648  -12.9751   20.8382 C   0  0  0  0  0  0  0  0  0  0  0  0
  -32.6113  -32.0408   26.4795 C   0  0  0  0  0  0  0  0  0  0  0  0
  -31.4670  -24.3646   27.2818 C   0  0  0  0  0  0  0  0  0  0  0  0
  -32.3172  -30.8976   27.2470 C   0  0  0  0  0  0  0  0  0  0  0  0
  -30.4176  -24.1492   26.3771 C   0  0  0  0  0  0  0  0  0  0  0  0
  -30.3808  -17.3587   23.2429 C   0  0  0  0  0  0  0  0  0  0  0  0
  -29.5922  -18.2074   25.7807 C   0  0  0  0  0  0  0  0  0  0  0  0
  -22.3404   -8.1438   21.4748 C   0  0  0  0  0  0  0  0  0  0  0  0
  -29.3935  -22.6057   27.9515 C   0  0  0  0  0  0  0  0  0  0  0  0
  -21.6814   -5.9930   20.7949 C   0  0  0  0  0  0  0  0  0  0  0  0
  -21.8172   -3.9276   18.9246 C   0  0  0  0  0  0  0  0  0  0  0  0
  -30.9156  -17.8309   25.5511 C   0  0  0  0  0  0  0  0  0  0  0  0
  -20.5230   -5.5577   20.1513 C   0  0  0  0  0  0  0  0  0  0  0  0
  -24.5935  -11.6408   20.7050 C   0  0  0  0  0  0  0  0  0  0  0  0
  -25.2561  -13.7245   20.4723 C   0  0  0  0  0  0  0  0  0  0  0  0
  -22.8938  -13.4909   21.2554 C   0  0  0  0  0  0  0  0  0  0  0  0
  -31.3722  -27.4227   26.4198 C   0  0  0  0  0  0  0  0  0  0  0  0
  -31.7803  -26.1934   23.4458 C   0  0  0  0  0  0  0  0  0  0  0  0
  -31.4476  -23.5267   21.3423 C   0  0  0  0  0  0  0  0  0  0  0  0
  -30.7387  -14.7501   20.6567 C   0  0  0  0  0  0  0  0  0  0  0  0
  -31.8631  -32.3572   25.2088 C   0  0  0  0  0  0  0  0  0  0  0  0
  -32.6043  -25.2819   26.9248 C   0  0  0  0  0  0  0  0  0  0  0  0
  -30.3675  -24.8427   25.0410 C   0  0  0  0  0  0  0  0  0  0  0  0
  -31.1180  -31.1590   24.6262 C   0  0  0  0  0  0  0  0  0  0  0  0
  -29.6036  -12.3563   18.2782 C   0  0  0  0  0  0  0  0  0  0  0  0
  -30.3445  -30.4285   25.7193 C   0  0  0  0  0  0  0  0  0  0  0  0
  -28.1665  -12.0625   18.7122 C   0  0  0  0  0  0  0  0  0  0  0  0
  -30.5205  -12.5822   19.4782 C   0  0  0  0  0  0  0  0  0  0  0  0
  -28.6181  -13.3159   20.8625 C   0  0  0  0  0  0  0  0  0  0  0  0
  -31.2918  -29.8812   26.7938 C   0  0  1  0  0  0  0  0  0  0  0  0
  -32.2282  -26.3173   25.8693 C   0  0  1  0  0  0  0  0  0  0  0  0
  -27.6440  -13.1363   19.6855 C   0  0  2  0  0  0  0  0  0  0  0  0
  -30.5984  -17.9790   20.8078 C   0  0  0  0  0  0  0  0  0  0  0  0
  -31.8331  -22.8362   18.9607 C   0  0  0  0  0  0  0  0  0  0  0  0
  -29.3098  -27.7675   22.5921 C   0  0  0  0  0  0  0  0  0  0  0  0
  -29.1900  -26.3336   20.5432 C   0  0  0  0  0  0  0  0  0  0  0  0
  -31.1817  -27.7838   20.9337 C   0  0  0  0  0  0  0  0  0  0  0  0
  -33.3459  -21.4023   22.1437 C   0  0  0  0  0  0  0  0  0  0  0  0
  -27.7629  -19.4999   28.8139 C   0  0  0  0  0  0  0  0  0  0  0  0
  -27.8519  -19.0361   27.3650 C   0  0  0  0  0  0  0  0  0  0  0  0
  -28.7047  -20.6566   29.1273 C   0  0  0  0  0  0  0  0  0  1  0  0
  -30.8023  -16.9050   21.8863 C   0  0  2  0  0  0  0  0  0  0  0  0
  -30.8578  -25.7152   22.3507 C   0  0  1  0  0  0  0  0  0  0  0  0
  -32.4170  -22.8884   20.3639 C   0  0  2  0  0  0  0  0  0  0  0  0
  -30.1345  -26.8883   21.6308 C   0  0  0  0  0  0  0  0  0  0  0  0
  -25.8584  -11.5449   20.2869 N   0  0  0  0  0  0  0  0  0  0  0  0
  -26.2339  -12.8285   20.1542 N   0  0  0  0  0  0  0  0  0  0  0  0
  -31.4996  -25.7347   24.7406 N   0  0  0  0  0  0  0  0  0  0  0  0
  -29.9689  -13.6131   20.3607 N   0  0  0  0  0  0  0  0  0  0  0  0
  -25.4650  -15.0559   20.3947 N   0  0  0  0  0  0  0  0  0  0  0  0
  -21.8829  -12.5818   21.5959 N   0  0  0  0  0  0  0  0  0  0  0  0
  -29.1979  -18.6295   27.0408 N   0  0  0  0  0  0  0  0  0  0  0  0
  -31.9443  -28.6770   26.3264 N   0  0  0  0  0  0  0  0  0  0  0  0
  -31.6682  -24.8819   21.4691 N   0  0  0  0  0  0  0  0  0  0  0  0
  -30.1386  -15.6812   21.4956 N   0  0  0  0  0  0  0  0  0  0  0  0
  -32.7421  -21.4977   20.7897 N   0  3  0  0  0  0  0  0  0  0  0  0
  -22.6562  -14.7215   21.3086 O   0  0  0  0  0  0  0  0  0  0  0  0
  -30.2732  -27.1574   26.8928 O   0  0  0  0  0  0  0  0  0  0  0  0
  -32.7199  -26.9405   23.1616 O   0  0  0  0  0  0  0  0  0  0  0  0
  -30.5789  -22.8878   21.9319 O   0  0  0  0  0  0  0  0  0  0  0  0
  -31.8745  -14.9253   20.2024 O   0  0  0  0  0  0  0  0  0  0  0  0
  -21.6157   -7.0187   21.7230 O   0  0  0  0  0  0  0  0  0  0  0  0
  -28.3819  -21.7552   28.2756 O   0  0  0  0  0  0  0  0  0  1  0  0
  -21.8828   -2.9369   18.0255 F   0  0  0  0  0  0  0  0  0  0  0  0
  -31.8167  -17.8729   26.5429 F   0  0  0  0  0  0  0  0  0  0  0  0
  -19.3422   -6.1285   20.4264 F   0  0  0  0  0  0  0  0  0  0  0  0
  1  2  1  0  0  0  0
  1  5  2  0  0  0  0
  2  6  2  0  0  0  0
  3 10  2  0  0  0  0
  3 18  1  0  0  0  0
  4 11  1  0  0  0  0
  4 18  2  0  0  0  0
  5 20  1  0  0  0  0
  6 22  1  0  0  0  0
  7 12  2  0  0  0  0
  7 21  1  0  0  0  0
  8  9  2  0  0  0  0
  8 24  1  0  0  0  0
  9 25  1  0  0  0  0
 10 26  1  0  0  0  0
 11 26  2  0  0  0  0
 12 27  1  0  0  0  0
 13 14  2  0  0  0  0
 13 28  1  0  0  0  0
 14 29  1  0  0  0  0
 15 23  1  0  0  0  0
 15 27  2  0  0  0  0
 16 24  2  0  0  0  0
 16 30  1  0  0  0  0
 17 29  2  0  0  0  0
 17 31  1  0  0  0  0
 18 32  1  0  0  0  0
 19 32  1  0  0  0  0
 19 33  2  0  0  0  0
 19 34  1  0  0  0  0
 20 22  2  0  0  0  0
 20 39  1  0  0  0  0
 21 23  2  0  0  0  0
 21 40  1  0  0  0  0
 22 48  1  0  0  0  0
 23 41  1  0  0  0  0
 24 60  1  0  0  0  0
 25 30  2  0  0  0  0
 25 70  1  0  0  0  0
 26 80  1  0  0  0  0
 27 81  1  0  0  0  0
 28 31  2  0  0  0  0
 28 80  1  0  0  0  0
 29 82  1  0  0  0  0
 30 83  1  0  0  0  0
 31 84  1  0  0  0  0
 32 64  2  0  0  0  0
 33 65  1  0  0  0  0
 33 68  1  0  0  0  0
 34 69  1  0  0  0  0
 34 75  2  0  0  0  0
 35 49  1  0  0  0  0
 35 71  1  0  0  0  0
 35 76  2  0  0  0  0
 36 61  1  0  0  0  0
 36 66  1  0  0  0  0
 36 77  2  0  0  0  0
 37 62  1  0  0  0  0
 37 72  1  0  0  0  0
 37 78  2  0  0  0  0
 38 67  1  0  0  0  0
 38 73  1  0  0  0  0
 38 79  2  0  0  0  0
 39 42  1  0  0  0  0
 40 49  1  0  0  0  0
 41 66  1  0  0  0  0
 42 44  1  0  0  0  0
 43 45  1  0  0  0  0
 43 46  1  0  0  0  0
 44 48  1  0  0  0  0
 45 50  1  0  0  0  0
 46 67  1  0  0  0  0
 47 50  1  0  0  0  0
 47 67  1  0  0  0  0
 48 71  1  0  0  0  0
 49 66  1  0  0  0  0
 50 65  1  0  0  0  0
 51 60  1  0  0  0  0
 52 62  1  0  0  0  0
 53 63  1  0  0  0  0
 54 63  1  0  0  0  0
 55 63  1  0  0  0  0
 56 74  1  0  0  0  0
 57 58  1  0  0  0  0
 57 59  1  0  0  0  0
 58 70  1  0  0  0  0
 59 81  1  0  0  0  0
 60 73  1  0  0  0  0
 61 63  1  0  0  0  0
 61 72  1  0  0  0  0
 62 74  1  0  0  0  0
 64 65  1  0  0  0  0
M  CHG  1  74   1
M  ISO  4  38 100  59 101  73 100  81 101
M  END
> <Batch ID>
0097

> <Smiles>
CNC(C)C(=O)NC(C(=O)N1Cc2cc([101O:1][101CH2:1]CCNc3ccc(C(C)[100NH:0][100C:0](=O)N4CCCC(n5nc(-c6ccc(Oc7ccc(F)cc7F)cc6)c(C(N)=O)c5N)C4)cc3F)ccc2CC1C(=O)NC1CCCc2ccccc21)C(C)(C)C

> <Shape>
0.179

> <Color>
0.196

> <Negative vol penalty>
0.000

$$$$

  -OEChem-04052300493D

 86 95  0     1  0  0  0  0  0999 V2000
  -24.3944  -32.0670   13.9696 C   0  0  0  0  0  0  0  0  0  0  0  0
  -23.9541  -31.4859   15.1545 C   0  0  0  0  0  0  0  0  0  0  0  0
  -23.6505   -9.9028   21.9012 C   0  0  0  0  0  0  0  0  0  0  0  0
  -22.1075  -10.0689   20.0495 C   0  0  0  0  0  0  0  0  0  0  0  0
  -20.5802  -22.4618   23.0095 C   0  0  0  0  0  0  0  0  0  0  0  0
  -22.5101  -23.3588   21.8659 C   0  0  0  0  0  0  0  0  0  0  0  0
  -25.7001  -31.8503   13.5314 C   0  0  0  0  0  0  0  0  0  0  0  0
  -24.8191  -30.6868   15.9013 C   0  0  0  0  0  0  0  0  0  0  0  0
  -24.6264  -31.7180   20.8555 C   0  0  0  0  0  0  0  0  0  0  0  0
  -20.0048  -23.7321   23.0349 C   0  0  0  0  0  0  0  0  0  0  0  0
  -21.9347  -24.6292   21.8913 C   0  0  0  0  0  0  0  0  0  0  0  0
  -23.2868   -8.5688   22.0846 C   0  0  0  0  0  0  0  0  0  0  0  0
  -21.7438   -8.7348   20.2329 C   0  0  0  0  0  0  0  0  0  0  0  0
  -23.5457  -31.2045   21.5712 C   0  0  0  0  0  0  0  0  0  0  0  0
  -20.7296   -6.8538   23.4789 C   0  0  0  0  0  0  0  0  0  0  0  0
  -20.4853   -6.4228   24.7828 C   0  0  0  0  0  0  0  0  0  0  0  0
  -24.9401  -29.4080   22.3760 C   0  0  0  0  0  0  0  0  0  0  0  0
  -22.2551   -4.7913   24.5752 C   0  0  0  0  0  0  0  0  0  0  0  0
  -23.0608  -10.6529   20.8837 C   0  0  0  0  0  0  0  0  0  0  0  0
  -21.8330  -22.2751   22.4250 C   0  0  0  0  0  0  0  0  0  0  0  0
  -24.7189  -12.5306   20.4014 C   0  0  0  0  0  0  0  0  0  0  0  0
  -26.5845  -31.0560   14.2781 C   0  0  0  0  0  0  0  0  0  0  0  0
  -25.8713  -31.0732   20.8860 C   0  0  0  0  0  0  0  0  0  0  0  0
  -26.1375  -30.4582   15.4719 C   0  0  0  0  0  0  0  0  0  0  0  0
  -26.0356  -29.9168   21.6618 C   0  0  0  0  0  0  0  0  0  0  0  0
  -20.6820  -24.8158   22.4758 C   0  0  0  0  0  0  0  0  0  0  0  0
  -22.3335   -7.9848   21.2505 C   0  0  0  0  0  0  0  0  0  0  0  0
  -23.7017  -30.0478   22.3293 C   0  0  0  0  0  0  0  0  0  0  0  0
  -21.7367   -6.2535   22.7231 C   0  0  0  0  0  0  0  0  0  0  0  0
  -21.2480   -5.3916   25.3310 C   0  0  0  0  0  0  0  0  0  0  0  0
  -22.4994   -5.2223   23.2713 C   0  0  0  0  0  0  0  0  0  0  0  0
  -23.4357  -12.0312   20.6941 C   0  0  0  0  0  0  0  0  0  0  0  0
  -24.5476  -13.8909   20.3198 C   0  0  0  0  0  0  0  0  0  0  0  0
  -18.6876  -26.2898   22.4745 C   0  0  0  0  0  0  0  0  0  0  0  0
  -22.4333  -20.9506   22.3972 C   0  0  0  0  0  0  0  0  0  0  0  0
  -21.7666  -19.7853   22.5397 C   0  0  0  0  0  0  0  0  0  0  0  0
  -25.9553  -11.8277   20.2194 C   0  0  0  0  0  0  0  0  0  0  0  0
  -22.5196  -18.5165   22.4778 C   0  0  0  0  0  0  0  0  0  0  0  0
  -27.7348  -29.6899   18.7140 C   0  0  0  0  0  0  0  0  0  0  0  0
  -29.8058  -29.4674   21.2007 C   0  0  0  0  0  0  0  0  0  0  0  0
  -30.2750  -29.3564   24.5792 C   0  0  0  0  0  0  0  0  0  0  0  0
  -27.9720  -30.8120   13.7398 C   0  0  0  0  0  0  0  0  0  0  0  0
  -27.0342  -31.6548   20.1298 C   0  0  0  0  0  0  0  0  0  0  0  0
  -27.3568  -29.1982   21.7441 C   0  0  0  0  0  0  0  0  0  0  0  0
  -18.1568  -27.6692   22.8164 C   0  0  0  0  0  0  0  0  0  0  0  0
  -28.9406  -30.2577   14.7814 C   0  0  0  0  0  0  0  0  0  0  0  0
  -19.0304  -28.8097   22.3421 C   0  0  0  0  0  0  0  0  0  0  0  0
  -20.3566  -16.6905   20.1498 C   0  0  0  0  0  0  0  0  0  0  0  0
  -28.2919  -29.1179   15.5605 C   0  0  0  0  0  0  0  0  0  0  0  0
  -21.0552  -15.3342   20.1023 C   0  0  0  0  0  0  0  0  0  0  0  0
  -20.4625  -17.3402   21.5287 C   0  0  0  0  0  0  0  0  0  0  0  0
  -20.9870  -27.2883   22.3394 C   0  0  0  0  0  0  0  0  0  0  0  0
  -22.5627  -16.1039   21.9772 C   0  0  0  0  0  0  0  0  0  0  0  0
  -27.0536  -29.6053   16.3224 C   0  0  1  0  0  0  0  0  0  0  0  0
  -28.1202  -30.6285   19.8222 C   0  0  1  0  0  0  0  0  0  0  0  0
  -20.4372  -28.6073   22.8803 C   0  0  1  0  0  0  0  0  0  0  0  0
  -22.5091  -15.4535   20.5860 C   0  0  1  0  0  0  0  0  0  0  0  0
  -32.0769  -29.1327   26.3115 C   0  0  0  0  0  0  0  0  0  0  0  0
  -30.0015  -26.4807   20.6079 C   0  0  0  0  0  0  0  0  0  0  0  0
  -31.0139  -26.1677   22.8762 C   0  0  0  0  0  0  0  0  0  0  0  0
  -32.1765  -27.5761   21.1770 C   0  0  0  0  0  0  0  0  0  0  0  0
  -29.6442  -32.0027   25.7447 C   0  0  0  0  0  0  0  0  0  0  0  0
  -21.3451  -29.7730   22.4938 C   0  0  0  0  0  0  0  0  0  1  0  0
  -30.0748  -28.4467   22.2800 C   0  0  1  0  0  0  0  0  0  0  0  0
  -31.2395  -30.0981   25.4871 C   0  0  2  0  0  0  0  0  0  0  0  0
  -30.7911  -27.1800   21.7324 C   0  0  0  0  0  0  0  0  0  0  0  0
  -22.5170  -12.9957   20.7920 N   0  0  0  0  0  0  0  0  0  0  0  0
  -23.2238  -14.1149   20.5596 N   0  0  0  0  0  0  0  0  0  0  0  0
  -20.0843  -26.1338   22.5001 N   0  0  0  0  0  0  0  0  0  0  0  0
  -21.8564  -17.3898   21.9948 N   0  0  0  0  0  0  0  0  0  0  0  0
  -28.4620  -29.8024   20.9819 N   0  0  0  0  0  0  0  0  0  0  0  0
  -25.4017  -14.9054   20.0671 N   0  0  0  0  0  0  0  0  0  0  0  0
  -26.2961  -11.3984   18.9295 N   0  0  0  0  0  0  0  0  0  0  0  0
  -27.4449  -30.3197   17.5187 N   0  0  0  0  0  0  0  0  0  0  0  0
  -30.8126  -29.1447   23.3272 N   0  0  0  0  0  0  0  0  0  0  0  0
  -30.4921  -30.9873   26.4208 N   0  3  0  0  0  0  0  0  0  0  0  0
  -17.8700  -25.3914   22.2574 O   0  0  0  0  0  0  0  0  0  0  0  0
  -26.7268  -11.5731   21.1751 O   0  0  0  0  0  0  0  0  0  0  0  0
  -23.6902  -18.5306   22.8627 O   0  0  0  0  0  0  0  0  0  0  0  0
  -27.7042  -28.4835   18.9272 O   0  0  0  0  0  0  0  0  0  0  0  0
  -30.7535  -29.9550   20.5798 O   0  0  0  0  0  0  0  0  0  0  0  0
  -29.1581  -28.9973   24.9453 O   0  0  0  0  0  0  0  0  0  0  0  0
  -21.9785   -6.6830   21.4290 O   0  0  0  0  0  0  0  0  0  0  0  0
  -22.6483  -29.5441   23.0282 O   0  0  0  0  0  0  0  0  0  1  0  0
  -21.0143   -4.9789   26.5836 F   0  0  0  0  0  0  0  0  0  0  0  0
  -23.4690   -4.6425   22.5504 F   0  0  0  0  0  0  0  0  0  0  0  0
  1  2  1  0  0  0  0
  1  7  2  0  0  0  0
  2  8  2  0  0  0  0
  3 12  2  0  0  0  0
  3 19  1  0  0  0  0
  4 13  1  0  0  0  0
  4 19  2  0  0  0  0
  5 10  2  0  0  0  0
  5 20  1  0  0  0  0
  6 11  1  0  0  0  0
  6 20  2  0  0  0  0
  7 22  1  0  0  0  0
  8 24  1  0  0  0  0
  9 14  2  0  0  0  0
  9 23  1  0  0  0  0
 10 26  1  0  0  0  0
 11 26  2  0  0  0  0
 12 27  1  0  0  0  0
 13 27  2  0  0  0  0
 14 28  1  0  0  0  0
 15 16  2  0  0  0  0
 15 29  1  0  0  0  0
 16 30  1  0  0  0  0
 17 25  1  0  0  0  0
 17 28  2  0  0  0  0
 18 30  2  0  0  0  0
 18 31  1  0  0  0  0
 19 32  1  0  0  0  0
 20 35  1  0  0  0  0
 21 32  1  0  0  0  0
 21 33  2  0  0  0  0
 21 37  1  0  0  0  0
 22 24  2  0  0  0  0
 22 42  1  0  0  0  0
 23 25  2  0  0  0  0
 23 43  1  0  0  0  0
 24 54  1  0  0  0  0
 25 44  1  0  0  0  0
 26 69  1  0  0  0  0
 27 83  1  0  0  0  0
 28 84  1  0  0  0  0
 29 31  2  0  0  0  0
 29 83  1  0  0  0  0
 30 85  1  0  0  0  0
 31 86  1  0  0  0  0
 32 67  2  0  0  0  0
 33 68  1  0  0  0  0
 33 72  1  0  0  0  0
 34 45  1  0  0  0  0
 34 69  1  0  0  0  0
 34 77  2  0  0  0  0
 35 36  2  0  0  0  0
 36 38  1  0  0  0  0
 37 73  1  0  0  0  0
 37 78  2  0  0  0  0
 38 70  1  0  0  0  0
 38 79  2  0  0  0  0
 39 55  1  0  0  0  0
 39 74  1  0  0  0  0
 39 80  2  0  0  0  0
 40 64  1  0  0  0  0
 40 71  1  0  0  0  0
 40 81  2  0  0  0  0
 41 65  1  0  0  0  0
 41 75  1  0  0  0  0
 41 82  2  0  0  0  0
 42 46  1  0  0  0  0
 43 55  1  0  0  0  0
 44 71  1  0  0  0  0
 45 47  1  0  0  0  0
 46 49  1  0  0  0  0
 47 56  1  0  0  0  0
 48 50  1  0  0  0  0
 48 51  1  0  0  0  0
 49 54  1  0  0  0  0
 50 57  1  0  0  0  0
 51 70  1  0  0  0  0
 52 56  1  0  0  0  0
 52 69  1  0  0  0  0
 53 57  1  0  0  0  0
 53 70  1  0  0  0  0
 54 74  1  0  0  0  0
 55 71  1  0  0  0  0
 56 63  1  0  0  0  0
 57 68  1  0  0  0  0
 58 65  1  0  0  0  0
 59 66  1  0  0  0  0
 60 66  1  0  0  0  0
 61 66  1  0  0  0  0
 62 76  1  0  0  0  0
 63 84  1  0  0  0  0
 64 66  1  0  0  0  0
 64 75  1  0  0  0  0
 65 76  1  0  0  0  0
 67 68  1  0  0  0  0
M  CHG  1  76   1
M  ISO  4  36 100  38 100  63 101  84 101
M  END
> <Batch ID>
0097

> <Smiles>
CNC(C)C(=O)NC(C(=O)N1Cc2cc([101O:1][101CH2:1]C3CCC(=O)N(c4ccc(C=[100CH:0][100C:0](=O)N5CCCC(n6nc(-c7ccc(Oc8ccc(F)cc8F)cc7)c(C(N)=O)c6N)C5)cc4)C3)ccc2CC1C(=O)NC1CCCc2ccccc21)C(C)(C)C

> <Shape>
0.233

> <Color>
0.126

> <Negative vol penalty>
0.000

$$$$

  -OEChem-04052300493D

 87 96  0     1  0  0  0  0  0999 V2000
  -32.4776  -34.4220   19.5912 C   0  0  0  0  0  0  0  0  0  0  0  0
  -31.1423  -34.1551   19.8759 C   0  0  0  0  0  0  0  0  0  0  0  0
  -27.0983  -15.1739   20.6504 C   0  0  0  0  0  0  0  0  0  0  0  0
  -26.9656  -14.2714   22.8875 C   0  0  0  0  0  0  0  0  0  0  0  0
  -33.1822  -33.5939   18.7184 C   0  0  0  0  0  0  0  0  0  0  0  0
  -30.5104  -33.0604   19.2869 C   0  0  0  0  0  0  0  0  0  0  0  0
  -26.2003  -29.5077   21.7983 C   0  0  0  0  0  0  0  0  0  0  0  0
  -21.1011  -23.7542   23.4650 C   0  0  0  0  0  0  0  0  0  0  0  0
  -22.1924  -23.1113   24.0493 C   0  0  0  0  0  0  0  0  0  0  0  0
  -26.6297  -13.9654   20.1350 C   0  0  0  0  0  0  0  0  0  0  0  0
  -26.4970  -13.0629   22.3722 C   0  0  0  0  0  0  0  0  0  0  0  0
  -24.8108  -29.4960   21.6844 C   0  0  0  0  0  0  0  0  0  0  0  0
  -24.9234   -9.8605   21.6744 C   0  0  0  0  0  0  0  0  0  0  0  0
  -23.8373   -9.2606   22.3116 C   0  0  0  0  0  0  0  0  0  0  0  0
  -24.9704  -27.7898   19.9865 C   0  0  0  0  0  0  0  0  0  0  0  0
  -21.9842  -23.2597   21.2713 C   0  0  0  0  0  0  0  0  0  0  0  0
  -22.4896  -11.2126   21.8526 C   0  0  0  0  0  0  0  0  0  0  0  0
  -27.2663  -15.3269   22.0266 C   0  0  0  0  0  0  0  0  0  0  0  0
  -28.9812  -17.1985   22.2788 C   0  0  0  0  0  0  0  0  0  0  0  0
  -32.5613  -32.4829   18.1260 C   0  0  0  0  0  0  0  0  0  0  0  0
  -26.9872  -28.6670   20.9981 C   0  0  0  0  0  0  0  0  0  0  0  0
  -31.2069  -32.2175   18.4043 C   0  0  0  0  0  0  0  0  0  0  0  0
  -26.3695  -27.7910   20.0940 C   0  0  0  0  0  0  0  0  0  0  0  0
  -20.9969  -23.8283   22.0760 C   0  0  0  0  0  0  0  0  0  0  0  0
  -23.1796  -22.5427   23.2445 C   0  0  0  0  0  0  0  0  0  0  0  0
  -26.3291  -12.9099   20.9959 C   0  0  0  0  0  0  0  0  0  0  0  0
  -24.1958  -28.6390   20.7764 C   0  0  0  0  0  0  0  0  0  0  0  0
  -24.7926  -11.1366   21.1264 C   0  0  0  0  0  0  0  0  0  0  0  0
  -22.6204   -9.9366   22.4007 C   0  0  0  0  0  0  0  0  0  0  0  0
  -23.0755  -22.6168   21.8555 C   0  0  0  0  0  0  0  0  0  0  0  0
  -23.5758  -11.8126   21.2154 C   0  0  0  0  0  0  0  0  0  0  0  0
  -27.7508  -16.5748   22.5595 C   0  0  0  0  0  0  0  0  0  0  0  0
  -28.9617  -18.3494   23.0282 C   0  0  0  0  0  0  0  0  0  0  0  0
  -18.6167  -26.3629   22.5524 C   0  0  0  0  0  0  0  0  0  0  0  0
  -30.0466  -16.7754   21.4176 C   0  0  0  0  0  0  0  0  0  0  0  0
  -29.2217  -29.1243   18.7841 C   0  0  0  0  0  0  0  0  0  0  0  0
  -29.4839  -25.8948   18.9390 C   0  0  0  0  0  0  0  0  0  0  0  0
  -28.0302  -22.9034   19.7040 C   0  0  0  0  0  0  0  0  0  0  0  0
  -24.5406  -21.7303   25.2026 C   0  0  0  0  0  0  0  0  0  0  0  0
  -33.3503  -31.6440   17.1522 C   0  0  0  0  0  0  0  0  0  0  0  0
  -28.4834  -28.6725   21.1520 C   0  0  0  0  0  0  0  0  0  0  0  0
  -27.1681  -26.8541   19.2263 C   0  0  0  0  0  0  0  0  0  0  0  0
  -18.5551  -27.8438   22.8717 C   0  0  0  0  0  0  0  0  0  0  0  0
  -32.7134  -30.2875   16.8615 C   0  0  0  0  0  0  0  0  0  0  0  0
  -19.9069  -28.5159   23.0103 C   0  0  0  0  0  0  0  0  0  0  0  0
  -27.1328  -20.1566   27.0684 C   0  0  0  0  0  0  0  0  0  0  0  0
  -31.2216  -30.4463   16.5854 C   0  0  0  0  0  0  0  0  0  0  0  0
  -27.7015  -19.1205   26.0963 C   0  0  0  0  0  0  0  0  0  0  0  0
  -25.6186  -20.2987   26.9241 C   0  0  0  0  0  0  0  0  0  0  0  0
  -20.9558  -26.7078   21.6815 C   0  0  0  0  0  0  0  0  0  0  0  0
  -25.7159  -19.5269   24.5866 C   0  0  0  0  0  0  0  0  0  0  0  0
  -30.4935  -31.0252   17.8045 C   0  0  1  0  0  0  0  0  0  0  0  0
  -29.2126  -28.1423   19.9213 C   0  0  1  0  0  0  0  0  0  0  0  0
  -20.7474  -28.2160   21.7765 C   0  0  2  0  0  0  0  0  0  0  0  0
  -27.2464  -19.3956   24.6496 C   0  0  2  0  0  0  0  0  0  0  0  0
  -28.4787  -20.4344   19.6897 C   0  0  0  0  0  0  0  0  0  0  0  0
  -29.0860  -25.8426   15.9143 C   0  0  0  0  0  0  0  0  0  0  0  0
  -28.5956  -23.3939   16.0911 C   0  0  0  0  0  0  0  0  0  0  0  0
  -30.8330  -24.2677   16.7641 C   0  0  0  0  0  0  0  0  0  0  0  0
  -27.6785  -22.7050   22.6359 C   0  0  0  0  0  0  0  0  0  0  0  0
  -19.8229  -24.5213   21.4469 C   0  0  0  0  0  0  0  0  0  0  0  0
  -22.0869  -28.9464   21.8319 C   0  0  0  0  0  0  0  0  0  1  0  0
  -28.8277  -24.7338   18.2316 C   0  0  1  0  0  0  0  0  0  0  0  0
  -28.5309  -21.7161   20.5065 C   0  0  2  0  0  0  0  0  0  0  0  0
  -29.3204  -24.5784   16.7651 C   0  0  0  0  0  0  0  0  0  0  0  0
  -27.0040  -17.2716   23.4202 N   0  0  0  0  0  0  0  0  0  0  0  0
  -27.7674  -18.3451   23.6869 N   0  0  0  0  0  0  0  0  0  0  0  0
  -19.7347  -25.9186   21.8496 N   0  0  0  0  0  0  0  0  0  0  0  0
  -28.6282  -26.9012   19.4091 N   0  0  0  0  0  0  0  0  0  0  0  0
  -25.2622  -20.5623   25.5283 N   0  0  0  0  0  0  0  0  0  0  0  0
  -29.8498  -19.3544   23.1815 N   0  0  0  0  0  0  0  0  0  0  0  0
  -31.0632  -15.9749   21.9561 N   0  0  0  0  0  0  0  0  0  0  0  0
  -24.2874  -21.8906   23.8407 N   0  0  0  0  0  0  0  0  0  0  0  0
  -30.2903  -30.0001   18.8056 N   0  0  0  0  0  0  0  0  0  0  0  0
  -29.0615  -23.5614   19.0678 N   0  0  0  0  0  0  0  0  0  0  0  0
  -27.6988  -21.5289   21.7286 N   0  3  0  0  0  0  0  0  0  0  0  0
  -17.6571  -25.6467   22.8512 O   0  0  0  0  0  0  0  0  0  0  0  0
  -30.1041  -17.1112   20.2103 O   0  0  0  0  0  0  0  0  0  0  0  0
  -28.3263  -29.0890   17.9482 O   0  0  0  0  0  0  0  0  0  0  0  0
  -30.7097  -25.9049   19.0761 O   0  0  0  0  0  0  0  0  0  0  0  0
  -26.8424  -23.2138   19.6443 O   0  0  0  0  0  0  0  0  0  0  0  0
  -24.1979  -22.5430   26.0652 O   0  0  0  0  0  0  0  0  0  0  0  0
  -25.8716  -11.7306   20.4934 O   0  0  0  0  0  0  0  0  0  0  0  0
  -22.8398  -28.6261   20.6628 O   0  0  0  0  0  0  0  0  0  1  0  0
  -21.5771   -9.3596   23.0112 F   0  0  0  0  0  0  0  0  0  0  0  0
  -24.0192  -22.0750   21.0723 F   0  0  0  0  0  0  0  0  0  0  0  0
  -23.4438  -13.0382   20.6898 F   0  0  0  0  0  0  0  0  0  0  0  0
  1  2  1  0  0  0  0
  1  5  2  0  0  0  0
  2  6  2  0  0  0  0
  3 10  2  0  0  0  0
  3 18  1  0  0  0  0
  4 11  1  0  0  0  0
  4 18  2  0  0  0  0
  5 20  1  0  0  0  0
  6 22  1  0  0  0  0
  7 12  2  0  0  0  0
  7 21  1  0  0  0  0
  8  9  2  0  0  0  0
  8 24  1  0  0  0  0
  9 25  1  0  0  0  0
 10 26  1  0  0  0  0
 11 26  2  0  0  0  0
 12 27  1  0  0  0  0
 13 14  2  0  0  0  0
 13 28  1  0  0  0  0
 14 29  1  0  0  0  0
 15 23  1  0  0  0  0
 15 27  2  0  0  0  0
 16 24  2  0  0  0  0
 16 30  1  0  0  0  0
 17 29  2  0  0  0  0
 17 31  1  0  0  0  0
 18 32  1  0  0  0  0
 19 32  1  0  0  0  0
 19 33  2  0  0  0  0
 19 35  1  0  0  0  0
 20 22  2  0  0  0  0
 20 40  1  0  0  0  0
 21 23  2  0  0  0  0
 21 41  1  0  0  0  0
 22 52  1  0  0  0  0
 23 42  1  0  0  0  0
 24 61  1  0  0  0  0
 25 30  2  0  0  0  0
 25 73  1  0  0  0  0
 26 83  1  0  0  0  0
 27 84  1  0  0  0  0
 28 31  2  0  0  0  0
 28 83  1  0  0  0  0
 29 85  1  0  0  0  0
 30 86  1  0  0  0  0
 31 87  1  0  0  0  0
 32 66  2  0  0  0  0
 33 67  1  0  0  0  0
 33 71  1  0  0  0  0
 34 43  1  0  0  0  0
 34 68  1  0  0  0  0
 34 77  2  0  0  0  0
 35 72  1  0  0  0  0
 35 78  2  0  0  0  0
 36 53  1  0  0  0  0
 36 74  1  0  0  0  0
 36 79  2  0  0  0  0
 37 63  1  0  0  0  0
 37 69  1  0  0  0  0
 37 80  2  0  0  0  0
 38 64  1  0  0  0  0
 38 75  1  0  0  0  0
 38 81  2  0  0  0  0
 39 70  1  0  0  0  0
 39 73  1  0  0  0  0
 39 82  2  0  0  0  0
 40 44  1  0  0  0  0
 41 53  1  0  0  0  0
 42 69  1  0  0  0  0
 43 45  1  0  0  0  0
 44 47  1  0  0  0  0
 45 54  1  0  0  0  0
 46 48  1  0  0  0  0
 46 49  1  0  0  0  0
 47 52  1  0  0  0  0
 48 55  1  0  0  0  0
 49 70  1  0  0  0  0
 50 54  1  0  0  0  0
 50 68  1  0  0  0  0
 51 55  1  0  0  0  0
 51 70  1  0  0  0  0
 52 74  1  0  0  0  0
 53 69  1  0  0  0  0
 54 62  1  0  0  0  0
 55 67  1  0  0  0  0
 56 64  1  0  0  0  0
 57 65  1  0  0  0  0
 58 65  1  0  0  0  0
 59 65  1  0  0  0  0
 60 76  1  0  0  0  0
 61 68  1  0  0  0  0
 62 84  1  0  0  0  0
 63 65  1  0  0  0  0
 63 75  1  0  0  0  0
 64 76  1  0  0  0  0
 66 67  1  0  0  0  0
M  CHG  1  76   1
M  ISO  4  39 100  62 101  73 100  84 101
M  END
> <Batch ID>
0097

> <Smiles>
CNC(C)C(=O)NC(C(=O)N1Cc2cc([101O:1][101CH2:1]C3CCC(=O)N(Cc4ccc([100NH:0][100C:0](=O)N5CCCC(n6nc(-c7ccc(Oc8ccc(F)cc8F)cc7)c(C(N)=O)c6N)C5)c(F)c4)C3)ccc2CC1C(=O)NC1CCCc2ccccc21)C(C)(C)C

> <Shape>
0.238

> <Color>
0.067

> <Negative vol penalty>
0.000

$$$$

  -OEChem-04052300493D

 86 95  0     1  0  0  0  0  0999 V2000
  -23.9797  -35.4582   18.4170 C   0  0  0  0  0  0  0  0  0  0  0  0
  -24.5795  -34.3985   17.7441 C   0  0  0  0  0  0  0  0  0  0  0  0
  -24.1684   -9.5198   21.4088 C   0  0  0  0  0  0  0  0  0  0  0  0
  -22.0336  -10.6064   21.0939 C   0  0  0  0  0  0  0  0  0  0  0  0
  -24.0997  -35.5601   19.8023 C   0  0  0  0  0  0  0  0  0  0  0  0
  -25.3005  -33.4406   18.4562 C   0  0  0  0  0  0  0  0  0  0  0  0
  -26.9057  -26.4597   18.3727 C   0  0  0  0  0  0  0  0  0  0  0  0
  -27.0921  -19.6597   21.7194 C   0  0  0  0  0  0  0  0  0  0  0  0
  -27.0547  -19.6745   19.3038 C   0  0  0  0  0  0  0  0  0  0  0  0
  -28.2133  -20.4893   21.7072 C   0  0  0  0  0  0  0  0  0  0  0  0
  -28.1760  -20.5041   19.2915 C   0  0  0  0  0  0  0  0  0  0  0  0
  -23.5276   -8.2833   21.4863 C   0  0  0  0  0  0  0  0  0  0  0  0
  -21.3928   -9.3699   21.1714 C   0  0  0  0  0  0  0  0  0  0  0  0
  -28.0080  -25.6074   18.4188 C   0  0  0  0  0  0  0  0  0  0  0  0
  -22.4194   -4.8795   22.1264 C   0  0  0  0  0  0  0  0  0  0  0  0
  -22.8135   -4.0054   23.1394 C   0  0  0  0  0  0  0  0  0  0  0  0
  -28.0816  -25.8421   20.8185 C   0  0  0  0  0  0  0  0  0  0  0  0
  -22.1805   -5.6432   24.7989 C   0  0  0  0  0  0  0  0  0  0  0  0
  -23.4214  -10.6814   21.2127 C   0  0  0  0  0  0  0  0  0  0  0  0
  -25.0571  -12.3551   20.1975 C   0  0  0  0  0  0  0  0  0  0  0  0
  -24.8144  -34.5977   20.5328 C   0  0  0  0  0  0  0  0  0  0  0  0
  -26.3889  -27.0192   19.5501 C   0  0  0  0  0  0  0  0  0  0  0  0
  -25.4313  -33.5304   19.8524 C   0  0  0  0  0  0  0  0  0  0  0  0
  -26.9710  -26.6992   20.7849 C   0  0  0  0  0  0  0  0  0  0  0  0
  -26.5128  -19.2523   20.5177 C   0  0  0  0  0  0  0  0  0  0  0  0
  -28.7553  -20.9115   20.4933 C   0  0  0  0  0  0  0  0  0  0  0  0
  -22.1398   -8.2083   21.3675 C   0  0  0  0  0  0  0  0  0  0  0  0
  -28.5980  -25.3007   19.6415 C   0  0  0  0  0  0  0  0  0  0  0  0
  -21.9058   -6.1355   22.4496 C   0  0  0  0  0  0  0  0  0  0  0  0
  -22.6940   -4.3872   24.4756 C   0  0  0  0  0  0  0  0  0  0  0  0
  -21.7863   -6.5173   23.7859 C   0  0  0  0  0  0  0  0  0  0  0  0
  -24.0827  -11.9590   21.1332 C   0  0  0  0  0  0  0  0  0  0  0  0
  -25.3631  -13.6478   20.5467 C   0  0  0  0  0  0  0  0  0  0  0  0
  -30.5939  -22.2526   21.6114 C   0  0  0  0  0  0  0  0  0  0  0  0
  -25.6339  -11.6204   19.1098 C   0  0  0  0  0  0  0  0  0  0  0  0
  -26.0360  -29.9762   20.6616 C   0  0  0  0  0  0  0  0  0  0  0  0
  -24.4579  -28.4686   23.0613 C   0  0  0  0  0  0  0  0  0  0  0  0
  -23.9533  -25.6037   24.8458 C   0  0  0  0  0  0  0  0  0  0  0  0
  -23.2651  -18.7364   21.9686 C   0  0  0  0  0  0  0  0  0  0  0  0
  -24.9564  -34.7759   22.0237 C   0  0  0  0  0  0  0  0  0  0  0  0
  -25.1827  -27.9156   19.4861 C   0  0  0  0  0  0  0  0  0  0  0  0
  -26.4417  -27.2576   22.0797 C   0  0  0  0  0  0  0  0  0  0  0  0
  -31.7486  -23.0905   21.1155 C   0  0  0  0  0  0  0  0  0  0  0  0
  -25.4220  -33.5144   22.7463 C   0  0  0  0  0  0  0  0  0  0  0  0
  -31.9229  -22.6364   19.6786 C   0  0  0  0  0  0  0  0  0  0  0  0
  -24.1624  -16.3418   24.6450 C   0  0  0  0  0  0  0  0  0  0  0  0
  -26.5995  -32.8819   22.0112 C   0  0  0  0  0  0  0  0  0  0  0  0
  -24.2290  -15.0129   23.8943 C   0  0  0  0  0  0  0  0  0  0  0  0
  -23.1914  -17.3171   23.9865 C   0  0  0  0  0  0  0  0  0  0  0  0
  -23.5310  -16.2281   21.7927 C   0  0  0  0  0  0  0  0  0  0  0  0
  -26.2008  -32.4579   20.5925 C   0  0  1  0  0  0  0  0  0  0  0  0
  -25.0577  -28.8364   20.6960 C   0  0  1  0  0  0  0  0  0  0  0  0
  -24.5355  -15.2395   22.4037 C   0  0  2  0  0  0  0  0  0  0  0  0
  -30.5116  -22.2552   19.2458 C   0  0  2  0  0  0  0  0  0  0  0  0
  -22.6285  -24.6897   26.7712 C   0  0  0  0  0  0  0  0  0  0  0  0
  -26.3059  -29.9109   25.0143 C   0  0  0  0  0  0  0  0  0  0  0  0
  -25.5983  -28.2816   26.7787 C   0  0  0  0  0  0  0  0  0  0  0  0
  -23.9134  -29.7954   25.7336 C   0  0  0  0  0  0  0  0  0  0  0  0
  -23.9193  -20.3808   20.2518 C   0  0  0  0  0  0  0  0  0  0  0  0
  -22.6177  -23.5992   23.1261 C   0  0  0  0  0  0  0  0  0  0  0  0
  -25.3140  -18.3652   20.5309 C   0  0  0  0  0  0  0  0  0  0  0  0
  -29.7647  -23.4651   18.6797 C   0  0  0  0  0  0  0  0  0  1  0  0
  -24.8523  -27.8705   24.3901 C   0  0  1  0  0  0  0  0  0  0  0  0
  -22.6813  -24.8885   25.2644 C   0  0  2  0  0  0  0  0  0  0  0  0
  -25.1789  -28.9555   25.4548 C   0  0  0  0  0  0  0  0  0  0  0  0
  -23.7893  -12.9220   22.0110 N   0  0  0  0  0  0  0  0  0  0  0  0
  -24.5840  -13.9360   21.6285 N   0  0  0  0  0  0  0  0  0  0  0  0
  -29.9063  -21.7635   20.4804 N   0  0  0  0  0  0  0  0  0  0  0  0
  -25.2645  -28.1343   21.9643 N   0  0  0  0  0  0  0  0  0  0  0  0
  -23.4787  -17.4809   22.5611 N   0  0  0  0  0  0  0  0  0  0  0  0
  -26.2199  -14.5546   20.0310 N   0  0  0  0  0  0  0  0  0  0  0  0
  -25.0158  -11.6904   17.8539 N   0  0  0  0  0  0  0  0  0  0  0  0
  -25.4445  -31.2246   20.6273 N   0  0  0  0  0  0  0  0  0  0  0  0
  -23.7703  -26.9682   24.7689 N   0  0  0  0  0  0  0  0  0  0  0  0
  -24.0944  -19.0848   20.8918 N   0  0  0  0  0  0  0  0  0  0  0  0
  -22.5997  -23.5517   24.6108 N   0  3  0  0  0  0  0  0  0  0  0  0
  -30.3594  -22.1081   22.8025 O   0  0  0  0  0  0  0  0  0  0  0  0
  -26.6576  -10.9093   19.2514 O   0  0  0  0  0  0  0  0  0  0  0  0
  -27.2386  -29.7406   20.6672 O   0  0  0  0  0  0  0  0  0  0  0  0
  -23.4662  -29.1995   22.9976 O   0  0  0  0  0  0  0  0  0  0  0  0
  -25.0050  -25.0114   24.6141 O   0  0  0  0  0  0  0  0  0  0  0  0
  -22.3898  -19.5061   22.3850 O   0  0  0  0  0  0  0  0  0  0  0  0
  -21.5142   -7.0018   21.4428 O   0  0  0  0  0  0  0  0  0  0  0  0
  -29.6744  -24.4696   19.6893 O   0  0  0  0  0  0  0  0  0  1  0  0
  -23.0712   -3.5471   25.4484 F   0  0  0  0  0  0  0  0  0  0  0  0
  -21.2926   -7.7221   24.1026 F   0  0  0  0  0  0  0  0  0  0  0  0
  1  2  1  0  0  0  0
  1  5  2  0  0  0  0
  2  6  2  0  0  0  0
  3 12  2  0  0  0  0
  3 19  1  0  0  0  0
  4 13  1  0  0  0  0
  4 19  2  0  0  0  0
  5 21  1  0  0  0  0
  6 23  1  0  0  0  0
  7 14  2  0  0  0  0
  7 22  1  0  0  0  0
  8 10  2  0  0  0  0
  8 25  1  0  0  0  0
  9 11  1  0  0  0  0
  9 25  2  0  0  0  0
 10 26  1  0  0  0  0
 11 26  2  0  0  0  0
 12 27  1  0  0  0  0
 13 27  2  0  0  0  0
 14 28  1  0  0  0  0
 15 16  2  0  0  0  0
 15 29  1  0  0  0  0
 16 30  1  0  0  0  0
 17 24  1  0  0  0  0
 17 28  2  0  0  0  0
 18 30  2  0  0  0  0
 18 31  1  0  0  0  0
 19 32  1  0  0  0  0
 20 32  1  0  0  0  0
 20 33  2  0  0  0  0
 20 35  1  0  0  0  0
 21 23  2  0  0  0  0
 21 40  1  0  0  0  0
 22 24  2  0  0  0  0
 22 41  1  0  0  0  0
 23 51  1  0  0  0  0
 24 42  1  0  0  0  0
 25 61  1  0  0  0  0
 26 68  1  0  0  0  0
 27 83  1  0  0  0  0
 28 84  1  0  0  0  0
 29 31  2  0  0  0  0
 29 83  1  0  0  0  0
 30 85  1  0  0  0  0
 31 86  1  0  0  0  0
 32 66  2  0  0  0  0
 33 67  1  0  0  0  0
 33 71  1  0  0  0  0
 34 43  1  0  0  0  0
 34 68  1  0  0  0  0
 34 77  2  0  0  0  0
 35 72  1  0  0  0  0
 35 78  2  0  0  0  0
 36 52  1  0  0  0  0
 36 73  1  0  0  0  0
 36 79  2  0  0  0  0
 37 63  1  0  0  0  0
 37 69  1  0  0  0  0
 37 80  2  0  0  0  0
 38 64  1  0  0  0  0
 38 74  1  0  0  0  0
 38 81  2  0  0  0  0
 39 70  1  0  0  0  0
 39 75  1  0  0  0  0
 39 82  2  0  0  0  0
 40 44  1  0  0  0  0
 41 52  1  0  0  0  0
 42 69  1  0  0  0  0
 43 45  1  0  0  0  0
 44 47  1  0  0  0  0
 45 54  1  0  0  0  0
 46 48  1  0  0  0  0
 46 49  1  0  0  0  0
 47 51  1  0  0  0  0
 48 53  1  0  0  0  0
 49 70  1  0  0  0  0
 50 53  1  0  0  0  0
 50 70  1  0  0  0  0
 51 73  1  0  0  0  0
 52 69  1  0  0  0  0
 53 67  1  0  0  0  0
 54 62  1  0  0  0  0
 54 68  1  0  0  0  0
 55 64  1  0  0  0  0
 56 65  1  0  0  0  0
 57 65  1  0  0  0  0
 58 65  1  0  0  0  0
 59 75  1  0  0  0  0
 60 76  1  0  0  0  0
 61 75  1  0  0  0  0
 62 84  1  0  0  0  0
 63 65  1  0  0  0  0
 63 74  1  0  0  0  0
 64 76  1  0  0  0  0
 66 67  1  0  0  0  0
M  CHG  1  76   1
M  ISO  4  39 100  62 101  75 100  84 101
M  END
> <Batch ID>
0097

> <Smiles>
CNC(C)C(=O)NC(C(=O)N1Cc2cc([101O:1][101CH2:1]C3CCC(=O)N3c3ccc(C[100N:0](C)[100C:0](=O)N4CCCC(n5nc(-c6ccc(Oc7ccc(F)cc7F)cc6)c(C(N)=O)c5N)C4)cc3)ccc2CC1C(=O)NC1CCCc2ccccc21)C(C)(C)C

> <Shape>
0.236

> <Color>
0.099

> <Negative vol penalty>
0.000

$$$$

  -OEChem-04052300493D

 87 96  0     1  0  0  0  0  0999 V2000
  -29.7712  -34.8979   24.1953 C   0  0  0  0  0  0  0  0  0  0  0  0
  -29.6877  -33.5668   23.7998 C   0  0  0  0  0  0  0  0  0  0  0  0
  -23.0299  -10.4398   21.8608 C   0  0  0  0  0  0  0  0  0  0  0  0
  -24.7095   -8.7092   21.7162 C   0  0  0  0  0  0  0  0  0  0  0  0
  -28.6569  -35.5325   24.7426 C   0  0  0  0  0  0  0  0  0  0  0  0
  -28.4901  -32.8690   23.9524 C   0  0  0  0  0  0  0  0  0  0  0  0
  -27.2981  -30.1369   19.8586 C   0  0  0  0  0  0  0  0  0  0  0  0
  -27.2819  -20.1110   19.1342 C   0  0  0  0  0  0  0  0  0  0  0  0
  -27.3802  -18.7672   19.4949 C   0  0  0  0  0  0  0  0  0  0  0  0
  -22.0285   -9.4806   21.7107 C   0  0  0  0  0  0  0  0  0  0  0  0
  -23.7081   -7.7498   21.5662 C   0  0  0  0  0  0  0  0  0  0  0  0
  -27.9710  -28.9288   19.6813 C   0  0  0  0  0  0  0  0  0  0  0  0
  -21.5308   -6.0932   23.5500 C   0  0  0  0  0  0  0  0  0  0  0  0
  -21.6423   -4.9201   24.2961 C   0  0  0  0  0  0  0  0  0  0  0  0
  -26.0667  -27.7446   20.5704 C   0  0  0  0  0  0  0  0  0  0  0  0
  -29.5271  -18.6290   18.3956 C   0  0  0  0  0  0  0  0  0  0  0  0
  -21.6937   -3.6273   22.2557 C   0  0  0  0  0  0  0  0  0  0  0  0
  -24.3705  -10.0542   21.8634 C   0  0  0  0  0  0  0  0  0  0  0  0
  -25.5914  -11.9172   23.1068 C   0  0  0  0  0  0  0  0  0  0  0  0
  -27.4423  -34.8450   24.8932 C   0  0  0  0  0  0  0  0  0  0  0  0
  -26.0065  -30.1588   20.4042 C   0  0  0  0  0  0  0  0  0  0  0  0
  -27.3589  -33.4946   24.5036 C   0  0  0  0  0  0  0  0  0  0  0  0
  -25.3785  -28.9541   20.7512 C   0  0  0  0  0  0  0  0  0  0  0  0
  -28.3063  -20.7138   18.4041 C   0  0  0  0  0  0  0  0  0  0  0  0
  -28.5027  -18.0262   19.1256 C   0  0  0  0  0  0  0  0  0  0  0  0
  -22.3676   -8.1356   21.5635 C   0  0  0  0  0  0  0  0  0  0  0  0
  -27.3564  -27.7326   20.0399 C   0  0  0  0  0  0  0  0  0  0  0  0
  -21.5006   -6.0335   22.1567 C   0  0  0  0  0  0  0  0  0  0  0  0
  -21.7238   -3.6871   23.6490 C   0  0  0  0  0  0  0  0  0  0  0  0
  -29.4289  -19.9729   18.0348 C   0  0  0  0  0  0  0  0  0  0  0  0
  -21.5821   -4.8005   21.5096 C   0  0  0  0  0  0  0  0  0  0  0  0
  -25.4054  -11.0447   22.0178 C   0  0  0  0  0  0  0  0  0  0  0  0
  -26.7021  -12.6524   22.7719 C   0  0  0  0  0  0  0  0  0  0  0  0
  -27.9574  -24.8475   17.2754 C   0  0  0  0  0  0  0  0  0  0  0  0
  -24.8285  -12.0510   24.3134 C   0  0  0  0  0  0  0  0  0  0  0  0
  -24.6952  -31.4110   23.0149 C   0  0  0  0  0  0  0  0  0  0  0  0
  -21.9404  -30.3599   21.6627 C   0  0  0  0  0  0  0  0  0  0  0  0
  -20.8286  -27.4146   19.9002 C   0  0  0  0  0  0  0  0  0  0  0  0
  -29.2977  -15.6799   18.7332 C   0  0  0  0  0  0  0  0  0  0  0  0
  -26.2785  -35.5592   25.5336 C   0  0  0  0  0  0  0  0  0  0  0  0
  -25.2837  -31.4682   20.5641 C   0  0  0  0  0  0  0  0  0  0  0  0
  -23.9851  -28.9218   21.3220 C   0  0  0  0  0  0  0  0  0  0  0  0
  -28.0845  -23.7466   16.2503 C   0  0  0  0  0  0  0  0  0  0  0  0
  -24.9395  -34.8592   25.3153 C   0  0  0  0  0  0  0  0  0  0  0  0
  -30.0814  -12.0790   19.0681 C   0  0  0  0  0  0  0  0  0  0  0  0
  -25.0678  -33.3642   25.5895 C   0  0  0  0  0  0  0  0  0  0  0  0
  -28.9030  -11.5496   19.8834 C   0  0  0  0  0  0  0  0  0  0  0  0
  -28.8360  -22.5477   16.8161 C   0  0  0  0  0  0  0  0  0  0  0  0
  -29.6898  -13.2902   18.2272 C   0  0  0  0  0  0  0  0  0  0  0  0
  -27.4689  -23.0010   18.8926 C   0  0  0  0  0  0  0  0  0  0  0  0
  -27.9015  -13.8684   19.8425 C   0  0  0  0  0  0  0  0  0  0  0  0
  -26.0703  -32.7114   24.6302 C   0  0  1  0  0  0  0  0  0  0  0  0
  -28.0066  -24.4297   18.7370 C   0  0  2  0  0  0  0  0  0  0  0  0
  -24.1713  -31.4131   21.6067 C   0  0  1  0  0  0  0  0  0  0  0  0
  -28.2806  -12.6728   20.7291 C   0  0  1  0  0  0  0  0  0  0  0  0
  -18.9990  -27.1192   18.2082 C   0  0  0  0  0  0  0  0  0  0  0  0
  -20.2315  -29.5954   24.0721 C   0  0  0  0  0  0  0  0  0  0  0  0
  -19.1375  -27.8465   22.6533 C   0  0  0  0  0  0  0  0  0  0  0  0
  -18.9328  -30.2557   22.0394 C   0  0  0  0  0  0  0  0  0  0  0  0
  -27.7397  -16.1512   20.5723 C   0  0  0  0  0  0  0  0  0  0  0  0
  -22.6877  -26.2307   17.9251 C   0  0  0  0  0  0  0  0  0  0  0  0
  -27.2127  -25.3980   19.6098 C   0  0  0  0  0  0  0  0  0  1  0  0
  -21.1458  -29.0773   21.7138 C   0  0  1  0  0  0  0  0  0  0  0  0
  -20.4921  -27.3121   18.4234 C   0  0  2  0  0  0  0  0  0  0  0  0
  -19.8901  -29.1939   22.6232 C   0  0  0  0  0  0  0  0  0  0  0  0
  -26.3242  -11.2093   21.0625 N   0  0  0  0  0  0  0  0  0  0  0  0
  -27.0982  -12.1938   21.5500 N   0  0  0  0  0  0  0  0  0  0  0  0
  -28.2045  -22.0572   18.0436 N   0  0  3  0  0  0  0  0  0  0  0  0
  -23.3222  -30.2285   21.4652 N   0  0  0  0  0  0  0  0  0  0  0  0
  -29.0442  -14.3261   19.0352 N   0  0  0  0  0  0  0  0  0  0  0  0
  -27.3688  -13.6402   23.4062 N   0  0  0  0  0  0  0  0  0  0  0  0
  -23.7175  -11.2166   24.4974 N   0  0  0  0  0  0  0  0  0  0  0  0
  -25.4686  -32.5122   23.3291 N   0  0  0  0  0  0  0  0  0  0  0  0
  -20.8502  -28.7248   20.3293 N   0  0  0  0  0  0  0  0  0  0  0  0
  -28.6042  -16.6365   19.4988 N   0  0  0  0  0  0  0  0  0  0  0  0
  -21.2085  -26.1595   17.8077 N   0  3  0  0  0  0  0  0  0  0  0  0
  -27.8211  -26.0197   16.9265 O   0  0  0  0  0  0  0  0  0  0  0  0
  -25.1135  -12.8970   25.1946 O   0  0  0  0  0  0  0  0  0  0  0  0
  -24.4170  -30.4801   23.7617 O   0  0  0  0  0  0  0  0  0  0  0  0
  -21.3555  -31.4389   21.7861 O   0  0  0  0  0  0  0  0  0  0  0  0
  -21.0465  -26.4306   20.6036 O   0  0  0  0  0  0  0  0  0  0  0  0
  -30.0478  -16.0146   17.8081 O   0  0  0  0  0  0  0  0  0  0  0  0
  -21.3907   -7.1992   21.4173 O   0  0  0  0  0  0  0  0  0  0  0  0
  -28.0112  -26.5520   19.8686 O   0  0  0  0  0  0  0  0  0  1  0  0
  -21.8324   -2.5606   24.3656 F   0  0  0  0  0  0  0  0  0  0  0  0
  -30.4183  -20.5422   17.3319 F   0  0  0  0  0  0  0  0  0  0  0  0
  -21.5549   -4.7368   20.1713 F   0  0  0  0  0  0  0  0  0  0  0  0
  1  2  1  0  0  0  0
  1  5  2  0  0  0  0
  2  6  2  0  0  0  0
  3 10  2  0  0  0  0
  3 18  1  0  0  0  0
  4 11  1  0  0  0  0
  4 18  2  0  0  0  0
  5 20  1  0  0  0  0
  6 22  1  0  0  0  0
  7 12  2  0  0  0  0
  7 21  1  0  0  0  0
  8  9  2  0  0  0  0
  8 24  1  0  0  0  0
  9 25  1  0  0  0  0
 10 26  1  0  0  0  0
 11 26  2  0  0  0  0
 12 27  1  0  0  0  0
 13 14  2  0  0  0  0
 13 28  1  0  0  0  0
 14 29  1  0  0  0  0
 15 23  1  0  0  0  0
 15 27  2  0  0  0  0
 16 25  2  0  0  0  0
 16 30  1  0  0  0  0
 17 29  2  0  0  0  0
 17 31  1  0  0  0  0
 18 32  1  0  0  0  0
 19 32  1  0  0  0  0
 19 33  2  0  0  0  0
 19 35  1  0  0  0  0
 20 22  2  0  0  0  0
 20 40  1  0  0  0  0
 21 23  2  0  0  0  0
 21 41  1  0  0  0  0
 22 52  1  0  0  0  0
 23 42  1  0  0  0  0
 24 30  2  0  0  0  0
 24 68  1  0  0  0  0
 25 75  1  0  0  0  0
 26 83  1  0  0  0  0
 27 84  1  0  0  0  0
 28 31  2  0  0  0  0
 28 83  1  0  0  0  0
 29 85  1  0  0  0  0
 30 86  1  0  0  0  0
 31 87  1  0  0  0  0
 32 66  2  0  0  0  0
 33 67  1  0  0  0  0
 33 71  1  0  0  0  0
 34 43  1  0  0  0  0
 34 53  1  0  0  0  0
 34 77  2  0  0  0  0
 35 72  1  0  0  0  0
 35 78  2  0  0  0  0
 36 54  1  0  0  0  0
 36 73  1  0  0  0  0
 36 79  2  0  0  0  0
 37 63  1  0  0  0  0
 37 69  1  0  0  0  0
 37 80  2  0  0  0  0
 38 64  1  0  0  0  0
 38 74  1  0  0  0  0
 38 81  2  0  0  0  0
 39 70  1  0  0  0  0
 39 75  1  0  0  0  0
 39 82  2  0  0  0  0
 40 44  1  0  0  0  0
 41 54  1  0  0  0  0
 42 69  1  0  0  0  0
 43 48  1  0  0  0  0
 44 46  1  0  0  0  0
 45 47  1  0  0  0  0
 45 49  1  0  0  0  0
 46 52  1  0  0  0  0
 47 55  1  0  0  0  0
 48 68  1  0  0  0  0
 49 70  1  0  0  0  0
 50 53  1  0  0  0  0
 50 68  1  0  0  0  0
 51 55  1  0  0  0  0
 51 70  1  0  0  0  0
 52 73  1  0  0  0  0
 53 62  1  0  0  0  0
 54 69  1  0  0  0  0
 55 67  1  0  0  0  0
 56 64  1  0  0  0  0
 57 65  1  0  0  0  0
 58 65  1  0  0  0  0
 59 65  1  0  0  0  0
 60 75  1  0  0  0  0
 61 76  1  0  0  0  0
 62 84  1  0  0  0  0
 63 65  1  0  0  0  0
 63 74  1  0  0  0  0
 64 76  1  0  0  0  0
 66 67  1  0  0  0  0
M  CHG  1  76   1
M  ISO  4  39 100  62 101  75 100  84 101
M  END
> <Batch ID>
0097

> <Smiles>
CNC(C)C(=O)NC(C(=O)N1Cc2cc([101O:1][101CH2:1]C3CN(c4ccc([100N:0](C)[100C:0](=O)N5CCCC(n6nc(-c7ccc(Oc8ccc(F)cc8F)cc7)c(C(N)=O)c6N)C5)cc4F)CCC3=O)ccc2CC1C(=O)NC1CCCc2ccccc21)C(C)(C)C

> <Shape>
0.322

> <Color>
0.122

> <Negative vol penalty>
0.000

$$$$

  -OEChem-04052300493D

 85 94  0     1  0  0  0  0  0999 V2000
  -20.7342  -24.4125   24.0358 C   0  0  0  0  0  0  0  0  0  0  0  0
  -21.9016  -25.1671   24.0600 C   0  0  0  0  0  0  0  0  0  0  0  0
  -23.7278  -14.3915   22.2588 C   0  0  0  0  0  0  0  0  0  0  0  0
  -26.1333  -14.5384   22.0875 C   0  0  0  0  0  0  0  0  0  0  0  0
  -19.6149  -24.8887   23.3564 C   0  0  0  0  0  0  0  0  0  0  0  0
  -21.9465  -26.4035   23.4149 C   0  0  0  0  0  0  0  0  0  0  0  0
  -25.9926  -29.1232   24.0749 C   0  0  0  0  0  0  0  0  0  0  0  0
  -23.7483  -13.2036   21.5280 C   0  0  0  0  0  0  0  0  0  0  0  0
  -26.1537  -13.3504   21.3567 C   0  0  0  0  0  0  0  0  0  0  0  0
  -27.2201  -28.8006   23.4979 C   0  0  0  0  0  0  0  0  0  0  0  0
  -24.4378   -9.9422   22.0943 C   0  0  0  0  0  0  0  0  0  0  0  0
  -23.6600   -8.8817   22.5591 C   0  0  0  0  0  0  0  0  0  0  0  0
  -26.8927  -30.5305   21.8488 C   0  0  0  0  0  0  0  0  0  0  0  0
  -28.6694  -23.4386   20.0525 C   0  0  0  0  0  0  0  0  0  0  0  0
  -31.0246  -23.1577   19.5936 C   0  0  0  0  0  0  0  0  0  0  0  0
  -29.9120  -21.6796   21.1474 C   0  0  0  0  0  0  0  0  0  0  0  0
  -22.4228   -8.8796   20.4839 C   0  0  0  0  0  0  0  0  0  0  0  0
  -24.9203  -15.0589   22.5385 C   0  0  0  0  0  0  0  0  0  0  0  0
  -24.9910  -16.4267   24.6907 C   0  0  0  0  0  0  0  0  0  0  0  0
  -19.6509  -26.1260   22.6924 C   0  0  0  0  0  0  0  0  0  0  0  0
  -25.1996  -30.1464   23.5357 C   0  0  0  0  0  0  0  0  0  0  0  0
  -20.8198  -26.9124   22.7440 C   0  0  0  0  0  0  0  0  0  0  0  0
  -25.6568  -30.8659   22.4224 C   0  0  0  0  0  0  0  0  0  0  0  0
  -29.8253  -23.8377   19.3816 C   0  0  0  0  0  0  0  0  0  0  0  0
  -28.7127  -22.3596   20.9354 C   0  0  0  0  0  0  0  0  0  0  0  0
  -24.9612  -12.6830   21.0770 C   0  0  0  0  0  0  0  0  0  0  0  0
  -27.6690  -29.5023   22.3829 C   0  0  0  0  0  0  0  0  0  0  0  0
  -24.2080  -10.4715   20.8243 C   0  0  0  0  0  0  0  0  0  0  0  0
  -22.6526   -8.3504   21.7539 C   0  0  0  0  0  0  0  0  0  0  0  0
  -31.0680  -22.0786   20.4765 C   0  0  0  0  0  0  0  0  0  0  0  0
  -23.2006   -9.9401   20.0191 C   0  0  0  0  0  0  0  0  0  0  0  0
  -24.8998  -16.2863   23.2929 C   0  0  0  0  0  0  0  0  0  0  0  0
  -24.9244  -17.7818   24.9048 C   0  0  0  0  0  0  0  0  0  0  0  0
  -25.1242  -15.4220   25.7049 C   0  0  0  0  0  0  0  0  0  0  0  0
  -22.3004  -30.2913   22.2406 C   0  0  0  0  0  0  0  0  0  0  0  0
  -22.8729  -33.4841   22.2693 C   0  0  0  0  0  0  0  0  0  0  0  0
  -25.1594  -36.0173   22.3063 C   0  0  0  0  0  0  0  0  0  0  0  0
  -26.2678  -22.5201   21.5212 C   0  0  0  0  0  0  0  0  0  0  0  0
  -18.4082  -26.5969   21.9789 C   0  0  0  0  0  0  0  0  0  0  0  0
  -23.8903  -30.5001   24.1861 C   0  0  0  0  0  0  0  0  0  0  0  0
  -24.8526  -31.9866   21.8177 C   0  0  0  0  0  0  0  0  0  0  0  0
  -18.6882  -27.6976   20.9609 C   0  0  0  0  0  0  0  0  0  0  0  0
  -23.1152  -21.7885   23.0055 C   0  0  0  0  0  0  0  0  0  0  0  0
  -19.5327  -28.7915   21.5972 C   0  0  0  0  0  0  0  0  0  0  0  0
  -23.2256  -20.3088   23.3803 C   0  0  0  0  0  0  0  0  0  0  0  0
  -30.1962  -28.5522   18.3486 C   0  0  0  0  0  0  0  0  0  0  0  0
  -23.8253  -22.0943   21.6879 C   0  0  0  0  0  0  0  0  0  0  0  0
  -25.3337  -20.1706   21.9933 C   0  0  0  0  0  0  0  0  0  0  0  0
  -30.8474  -27.2403   17.9419 C   0  0  0  0  0  0  0  0  0  0  0  0
  -29.5189  -26.9721   19.9759 C   0  0  0  0  0  0  0  0  0  0  0  0
  -20.9015  -28.2461   22.0236 C   0  0  1  0  0  0  0  0  0  0  0  0
  -22.9292  -31.2173   23.2430 C   0  0  1  0  0  0  0  0  0  0  0  0
  -29.9889  -28.4111   19.8501 C   0  0  2  0  0  0  0  0  0  0  0  0
  -24.6891  -19.8265   23.3460 C   0  0  2  0  0  0  0  0  0  0  0  0
  -25.3258  -38.5212   22.2873 C   0  0  0  0  0  0  0  0  0  0  0  0
  -22.2092  -33.5031   19.2911 C   0  0  0  0  0  0  0  0  0  0  0  0
  -23.2905  -35.7559   19.1357 C   0  0  0  0  0  0  0  0  0  0  0  0
  -21.2814  -35.4357   20.5791 C   0  0  0  0  0  0  0  0  0  0  0  0
  -26.5316  -36.0619   24.9282 C   0  0  0  0  0  0  0  0  0  0  0  0
  -29.7791  -24.9978   18.4315 C   0  0  0  0  0  0  0  0  0  0  0  0
  -28.9987  -29.4079   20.4134 C   0  0  0  0  0  0  0  0  0  1  0  0
  -23.4993  -34.4665   21.3094 C   0  0  1  0  0  0  0  0  0  0  0  0
  -25.2578  -37.2731   23.1536 C   0  0  2  0  0  0  0  0  0  0  0  0
  -22.5846  -34.7679   20.0888 C   0  0  0  0  0  0  0  0  0  0  0  0
  -24.7839  -17.4587   22.6634 N   0  0  0  0  0  0  0  0  0  0  0  0
  -24.8017  -18.3486   23.6703 N   0  0  0  0  0  0  0  0  0  0  0  0
  -23.5762  -32.2906   22.4856 N   0  0  0  0  0  0  0  0  0  0  0  0
  -25.2077  -21.6127   21.7302 N   0  0  0  0  0  0  0  0  0  0  0  0
  -24.9592  -18.5318   26.0266 N   0  0  0  0  0  0  0  0  0  0  0  0
  -25.1774  -14.0780   25.3110 N   0  0  0  0  0  0  0  0  0  0  0  0
  -27.5386  -21.9541   21.6173 N   0  0  0  0  0  0  0  0  0  0  0  0
  -21.5874  -29.2511   22.8055 N   0  0  0  0  0  0  0  0  0  0  0  0
  -23.8487  -35.6424   22.0991 N   0  0  0  0  0  0  0  0  0  0  0  0
  -30.4009  -26.2372   18.9897 N   0  3  1  0  0  0  0  0  0  0  0  0
  -26.4778  -37.2271   24.0081 N   0  3  0  0  0  0  0  0  0  0  0  0
  -25.1774  -15.7067   26.9254 O   0  0  0  0  0  0  0  0  0  0  0  0
  -22.4498  -30.5055   21.0433 O   0  0  0  0  0  0  0  0  0  0  0  0
  -21.8025  -33.7682   22.8127 O   0  0  0  0  0  0  0  0  0  0  0  0
  -26.1463  -35.4299   21.8688 O   0  0  0  0  0  0  0  0  0  0  0  0
  -26.0639  -23.7169   21.3020 O   0  0  0  0  0  0  0  0  0  0  0  0
  -24.9816  -11.5238   20.3640 O   0  0  0  0  0  0  0  0  0  0  0  0
  -28.8664  -29.1889   21.8173 O   0  0  0  0  0  0  0  0  0  1  0  0
  -21.9068   -7.3309   22.1997 F   0  0  0  0  0  0  0  0  0  0  0  0
  -32.2197  -21.4257   20.6799 F   0  0  0  0  0  0  0  0  0  0  0  0
  -22.9759  -10.4436   18.7977 F   0  0  0  0  0  0  0  0  0  0  0  0
  1  2  1  0  0  0  0
  1  5  2  0  0  0  0
  2  6  2  0  0  0  0
  3  8  2  0  0  0  0
  3 18  1  0  0  0  0
  4  9  1  0  0  0  0
  4 18  2  0  0  0  0
  5 20  1  0  0  0  0
  6 22  1  0  0  0  0
  7 10  2  0  0  0  0
  7 21  1  0  0  0  0
  8 26  1  0  0  0  0
  9 26  2  0  0  0  0
 10 27  1  0  0  0  0
 11 12  2  0  0  0  0
 11 28  1  0  0  0  0
 12 29  1  0  0  0  0
 13 23  1  0  0  0  0
 13 27  2  0  0  0  0
 14 24  2  0  0  0  0
 14 25  1  0  0  0  0
 15 24  1  0  0  0  0
 15 30  2  0  0  0  0
 16 25  2  0  0  0  0
 16 30  1  0  0  0  0
 17 29  2  0  0  0  0
 17 31  1  0  0  0  0
 18 32  1  0  0  0  0
 19 32  1  0  0  0  0
 19 33  2  0  0  0  0
 19 34  1  0  0  0  0
 20 22  2  0  0  0  0
 20 39  1  0  0  0  0
 21 23  2  0  0  0  0
 21 40  1  0  0  0  0
 22 51  1  0  0  0  0
 23 41  1  0  0  0  0
 24 60  1  0  0  0  0
 25 71  1  0  0  0  0
 26 81  1  0  0  0  0
 27 82  1  0  0  0  0
 28 31  2  0  0  0  0
 28 81  1  0  0  0  0
 29 83  1  0  0  0  0
 30 84  1  0  0  0  0
 31 85  1  0  0  0  0
 32 65  2  0  0  0  0
 33 66  1  0  0  0  0
 33 69  1  0  0  0  0
 34 70  1  0  0  0  0
 34 76  2  0  0  0  0
 35 52  1  0  0  0  0
 35 72  1  0  0  0  0
 35 77  2  0  0  0  0
 36 62  1  0  0  0  0
 36 67  1  0  0  0  0
 36 78  2  0  0  0  0
 37 63  1  0  0  0  0
 37 73  1  0  0  0  0
 37 79  2  0  0  0  0
 38 68  1  0  0  0  0
 38 71  1  0  0  0  0
 38 80  2  0  0  0  0
 39 42  1  0  0  0  0
 40 52  1  0  0  0  0
 41 67  1  0  0  0  0
 42 44  1  0  0  0  0
 43 45  1  0  0  0  0
 43 47  1  0  0  0  0
 44 51  1  0  0  0  0
 45 54  1  0  0  0  0
 46 49  1  0  0  0  0
 46 53  1  0  0  0  0
 47 68  1  0  0  0  0
 48 54  1  0  0  0  0
 48 68  1  0  0  0  0
 49 74  1  0  0  0  0
 50 53  1  0  0  0  0
 50 74  1  0  0  0  0
 51 72  1  0  0  0  0
 52 67  1  0  0  0  0
 53 61  1  0  0  0  0
 54 66  1  0  0  0  0
 55 63  1  0  0  0  0
 56 64  1  0  0  0  0
 57 64  1  0  0  0  0
 58 64  1  0  0  0  0
 59 75  1  0  0  0  0
 60 74  1  0  0  0  0
 61 82  1  0  0  0  0
 62 64  1  0  0  0  0
 62 73  1  0  0  0  0
 63 75  1  0  0  0  0
 65 66  1  0  0  0  0
M  CHG  2  74   1  75   1
M  ISO  4  38 100  61 101  71 100  82 101
M  END
> <Batch ID>
0097

> <Smiles>
CNC(C)C(=O)NC(C(=O)N1Cc2cc([101O:1][101CH2:1]C3CCN(Cc4cc(F)cc([100NH:0][100C:0](=O)N5CCCC(n6nc(-c7ccc(Oc8ccc(F)cc8F)cc7)c(C(N)=O)c6N)C5)c4)C3)ccc2CC1C(=O)NC1CCCc2ccccc21)C(C)(C)C

> <Shape>
0.264

> <Color>
0.099

> <Negative vol penalty>
0.000

$$$$

  -OEChem-04052300493D

 85 93  0     1  0  0  0  0  0999 V2000
  -25.8804  -23.0320   21.9051 C   0  0  0  0  0  0  0  0  0  0  0  0
  -25.7378  -22.2803   20.7443 C   0  0  0  0  0  0  0  0  0  0  0  0
  -26.9139  -28.5223   19.2611 C   0  0  0  0  0  0  0  0  0  0  0  0
  -26.0015  -27.4709   21.2358 C   0  0  0  0  0  0  0  0  0  0  0  0
  -26.2779  -22.4122   23.0879 C   0  0  0  0  0  0  0  0  0  0  0  0
  -25.9811  -20.9066   20.7686 C   0  0  0  0  0  0  0  0  0  0  0  0
  -26.6144  -15.0200   16.7242 C   0  0  0  0  0  0  0  0  0  0  0  0
  -32.3169  -16.7588   19.8204 C   0  0  0  0  0  0  0  0  0  0  0  0
  -32.1496  -15.4967   19.2506 C   0  0  0  0  0  0  0  0  0  0  0  0
  -25.7014  -29.1790   19.0506 C   0  0  0  0  0  0  0  0  0  0  0  0
  -24.7891  -28.1277   21.0253 C   0  0  0  0  0  0  0  0  0  0  0  0
  -27.4654  -13.9778   16.3590 C   0  0  0  0  0  0  0  0  0  0  0  0
  -22.0771  -27.7751   19.0375 C   0  0  0  0  0  0  0  0  0  0  0  0
  -20.9053  -27.0295   19.1662 C   0  0  0  0  0  0  0  0  0  0  0  0
  -26.9805  -12.8603   18.4412 C   0  0  0  0  0  0  0  0  0  0  0  0
  -30.2737  -15.0837   20.7161 C   0  0  0  0  0  0  0  0  0  0  0  0
  -20.1640  -28.4997   20.9343 C   0  0  0  0  0  0  0  0  0  0  0  0
  -27.0639  -27.6682   20.3537 C   0  0  0  0  0  0  0  0  0  0  0  0
  -29.4131  -27.4494   21.3237 C   0  0  0  0  0  0  0  0  0  0  0  0
  -26.5380  -21.0323   23.1229 C   0  0  0  0  0  0  0  0  0  0  0  0
  -25.9474  -14.9954   17.9575 C   0  0  0  0  0  0  0  0  0  0  0  0
  -26.3600  -20.2584   21.9581 C   0  0  0  0  0  0  0  0  0  0  0  0
  -26.1196  -13.9022   18.8186 C   0  0  0  0  0  0  0  0  0  0  0  0
  -31.4627  -17.1834   20.8381 C   0  0  0  0  0  0  0  0  0  0  0  0
  -31.1280  -14.6592   19.6984 C   0  0  0  0  0  0  0  0  0  0  0  0
  -24.6391  -28.9818   19.9327 C   0  0  0  0  0  0  0  0  0  0  0  0
  -27.6508  -12.8991   17.2188 C   0  0  0  0  0  0  0  0  0  0  0  0
  -22.2924  -28.8830   19.8572 C   0  0  0  0  0  0  0  0  0  0  0  0
  -19.9487  -27.3918   20.1145 C   0  0  0  0  0  0  0  0  0  0  0  0
  -30.4411  -16.3458   21.2859 C   0  0  0  0  0  0  0  0  0  0  0  0
  -21.3359  -29.2453   20.8056 C   0  0  0  0  0  0  0  0  0  0  0  0
  -28.3159  -26.9891   20.5714 C   0  0  0  0  0  0  0  0  0  0  0  0
  -30.3452  -26.4458   21.2210 C   0  0  0  0  0  0  0  0  0  0  0  0
  -29.5753  -28.6746   22.0504 C   0  0  0  0  0  0  0  0  0  0  0  0
  -25.9553  -16.8359   20.5490 C   0  0  0  0  0  0  0  0  0  0  0  0
  -23.5440  -14.8732   21.4741 C   0  0  0  0  0  0  0  0  0  0  0  0
  -31.7157  -12.7978   18.1070 C   0  0  0  0  0  0  0  0  0  0  0  0
  -22.0169  -11.8332   21.2029 C   0  0  0  0  0  0  0  0  0  0  0  0
  -30.6081  -20.7604   21.0828 C   0  0  0  0  0  0  0  0  0  0  0  0
  -26.9580  -20.4115   24.4319 C   0  0  0  0  0  0  0  0  0  0  0  0
  -25.0122  -16.1146   18.3250 C   0  0  0  0  0  0  0  0  0  0  0  0
  -25.4110  -13.8182   20.1449 C   0  0  0  0  0  0  0  0  0  0  0  0
  -27.6178  -19.0474   24.2583 C   0  0  0  0  0  0  0  0  0  0  0  0
  -31.1103  -22.7085   18.0744 C   0  0  0  0  0  0  0  0  0  0  0  0
  -26.7622  -18.1667   23.3600 C   0  0  0  0  0  0  0  0  0  0  0  0
  -30.5424  -24.0659   18.4928 C   0  0  0  0  0  0  0  0  0  0  0  0
  -30.2938  -21.5622   18.6639 C   0  0  0  0  0  0  0  0  0  0  0  0
  -29.5876  -22.9593   20.5673 C   0  0  0  0  0  0  0  0  0  0  0  0
  -26.6487  -18.7682   21.9535 C   0  0  1  0  0  0  0  0  0  0  0  0
  -24.7829  -16.2323   19.8287 C   0  0  1  0  0  0  0  0  0  0  0  0
  -30.3828  -24.1594   20.0218 C   0  0  2  0  0  0  0  0  0  0  0  0
  -20.0891  -10.5091   22.1125 C   0  0  0  0  0  0  0  0  0  0  0  0
  -25.1016  -14.3804   24.0512 C   0  0  0  0  0  0  0  0  0  0  0  0
  -23.6472  -12.3852   24.4665 C   0  0  0  0  0  0  0  0  0  0  0  0
  -22.6360  -14.6632   24.3602 C   0  0  0  0  0  0  0  0  0  0  0  0
  -20.7669  -11.5984   18.5306 C   0  0  0  0  0  0  0  0  0  0  0  0
  -31.6438  -18.5346   21.4434 C   0  0  0  0  0  0  0  0  0  0  0  0
  -31.1957  -11.4038   17.7842 C   0  0  0  0  0  0  0  0  0  0  0  0
  -30.7398  -11.2678   16.3356 C   0  0  0  0  0  0  0  0  0  0  0  0
  -29.5839  -12.2058   16.0195 C   0  0  0  0  0  0  0  0  0  1  0  0
  -23.4569  -13.5710   22.2329 C   0  0  1  0  0  0  0  0  0  0  0  0
  -20.5598  -11.4511   21.0154 C   0  0  2  0  0  0  0  0  0  0  0  0
  -23.7254  -13.7521   23.7536 C   0  0  0  0  0  0  0  0  0  0  0  0
  -28.5296  -25.7866   20.0305 N   0  0  0  0  0  0  0  0  0  0  0  0
  -29.7720  -25.4830   20.4434 N   0  0  0  0  0  0  0  0  0  0  0  0
  -24.5120  -14.9401   20.4620 N   0  0  0  0  0  0  0  0  0  0  0  0
  -30.1956  -21.7004   20.1238 N   0  0  0  0  0  0  0  0  0  0  0  0
  -31.5909  -26.3018   21.7207 N   0  0  0  0  0  0  0  0  0  0  0  0
  -28.5189  -29.5956   22.0518 N   0  0  0  0  0  0  0  0  0  0  0  0
  -30.9594  -13.3779   19.1216 N   0  0  0  0  0  0  0  0  0  0  0  0
  -25.6671  -18.0211   21.1984 N   0  0  0  0  0  0  0  0  0  0  0  0
  -22.1499  -13.0031   21.9204 N   0  0  0  0  0  0  0  0  0  0  0  0
  -31.1673  -19.5920   20.5799 N   0  0  0  0  0  0  0  0  0  0  0  0
  -20.3664  -10.7758   19.7010 N   0  3  0  0  0  0  0  0  0  0  0  0
  -30.6323  -28.9520   22.6665 O   0  0  0  0  0  0  0  0  0  0  0  0
  -27.0406  -16.2677   20.5192 O   0  0  0  0  0  0  0  0  0  0  0  0
  -22.7766  -15.7944   21.7638 O   0  0  0  0  0  0  0  0  0  0  0  0
  -32.6736  -13.2879   17.5185 O   0  0  0  0  0  0  0  0  0  0  0  0
  -22.9445  -11.1592   20.7605 O   0  0  0  0  0  0  0  0  0  0  0  0
  -30.4917  -20.9505   22.2983 O   0  0  0  0  0  0  0  0  0  0  0  0
  -23.4559  -29.6226   19.7277 O   0  0  0  0  0  0  0  0  0  0  0  0
  -28.4813  -11.8808   16.8650 O   0  0  0  0  0  0  0  0  0  1  0  0
  -18.8228  -26.6766   20.2369 F   0  0  0  0  0  0  0  0  0  0  0  0
  -29.6152  -16.7450   22.2632 F   0  0  0  0  0  0  0  0  0  0  0  0
  -21.5366  -30.3093   21.5952 F   0  0  0  0  0  0  0  0  0  0  0  0
  1  2  1  0  0  0  0
  1  5  2  0  0  0  0
  2  6  2  0  0  0  0
  3 10  2  0  0  0  0
  3 18  1  0  0  0  0
  4 11  1  0  0  0  0
  4 18  2  0  0  0  0
  5 20  1  0  0  0  0
  6 22  1  0  0  0  0
  7 12  2  0  0  0  0
  7 21  1  0  0  0  0
  8  9  2  0  0  0  0
  8 24  1  0  0  0  0
  9 25  1  0  0  0  0
 10 26  1  0  0  0  0
 11 26  2  0  0  0  0
 12 27  1  0  0  0  0
 13 14  2  0  0  0  0
 13 28  1  0  0  0  0
 14 29  1  0  0  0  0
 15 23  1  0  0  0  0
 15 27  2  0  0  0  0
 16 25  2  0  0  0  0
 16 30  1  0  0  0  0
 17 29  2  0  0  0  0
 17 31  1  0  0  0  0
 18 32  1  0  0  0  0
 19 32  1  0  0  0  0
 19 33  2  0  0  0  0
 19 34  1  0  0  0  0
 20 22  2  0  0  0  0
 20 40  1  0  0  0  0
 21 23  2  0  0  0  0
 21 41  1  0  0  0  0
 22 49  1  0  0  0  0
 23 42  1  0  0  0  0
 24 30  2  0  0  0  0
 24 57  1  0  0  0  0
 25 70  1  0  0  0  0
 26 81  1  0  0  0  0
 27 82  1  0  0  0  0
 28 31  2  0  0  0  0
 28 81  1  0  0  0  0
 29 83  1  0  0  0  0
 30 84  1  0  0  0  0
 31 85  1  0  0  0  0
 32 64  2  0  0  0  0
 33 65  1  0  0  0  0
 33 68  1  0  0  0  0
 34 69  1  0  0  0  0
 34 75  2  0  0  0  0
 35 50  1  0  0  0  0
 35 71  1  0  0  0  0
 35 76  2  0  0  0  0
 36 61  1  0  0  0  0
 36 66  1  0  0  0  0
 36 77  2  0  0  0  0
 37 58  1  0  0  0  0
 37 70  1  0  0  0  0
 37 78  2  0  0  0  0
 38 62  1  0  0  0  0
 38 72  1  0  0  0  0
 38 79  2  0  0  0  0
 39 67  1  0  0  0  0
 39 73  1  0  0  0  0
 39 80  2  0  0  0  0
 40 43  1  0  0  0  0
 41 50  1  0  0  0  0
 42 66  1  0  0  0  0
 43 45  1  0  0  0  0
 44 46  1  0  0  0  0
 44 47  1  0  0  0  0
 45 49  1  0  0  0  0
 46 51  1  0  0  0  0
 47 67  1  0  0  0  0
 48 51  1  0  0  0  0
 48 67  1  0  0  0  0
 49 71  1  0  0  0  0
 50 66  1  0  0  0  0
 51 65  1  0  0  0  0
 52 62  1  0  0  0  0
 53 63  1  0  0  0  0
 54 63  1  0  0  0  0
 55 63  1  0  0  0  0
 56 74  1  0  0  0  0
 57 73  1  0  0  0  0
 58 59  1  0  0  0  0
 59 60  1  0  0  0  0
 60 82  1  0  0  0  0
 61 63  1  0  0  0  0
 61 72  1  0  0  0  0
 62 74  1  0  0  0  0
 64 65  1  0  0  0  0
M  CHG  1  74   1
M  ISO  4  39 100  60 101  73 100  82 101
M  END
> <Batch ID>
0097

> <Smiles>
CNC(C)C(=O)NC(C(=O)N1Cc2cc([101O:1][101CH2:1]CCC(=O)Nc3ccc(C[100NH:0][100C:0](=O)N4CCCC(n5nc(-c6ccc(Oc7ccc(F)cc7F)cc6)c(C(N)=O)c5N)C4)c(F)c3)ccc2CC1C(=O)NC1CCCc2ccccc21)C(C)(C)C

> <Shape>
0.225

> <Color>
0.044

> <Negative vol penalty>
0.000

$$$$

  -OEChem-04052300493D

 84 92  0     1  0  0  0  0  0999 V2000
  -29.4307  -31.0244   26.5941 C   0  0  0  0  0  0  0  0  0  0  0  0
  -29.0638  -29.9404   25.8030 C   0  0  0  0  0  0  0  0  0  0  0  0
  -23.7906   -9.8164   22.0577 C   0  0  0  0  0  0  0  0  0  0  0  0
  -23.0901  -12.1070   22.3736 C   0  0  0  0  0  0  0  0  0  0  0  0
  -28.4731  -31.9633   26.9756 C   0  0  0  0  0  0  0  0  0  0  0  0
  -27.7388  -29.7941   25.3938 C   0  0  0  0  0  0  0  0  0  0  0  0
  -27.3425  -28.5603   20.4984 C   0  0  0  0  0  0  0  0  0  0  0  0
  -23.0155   -9.4286   23.1506 C   0  0  0  0  0  0  0  0  0  0  0  0
  -22.3149  -11.7191   23.4665 C   0  0  0  0  0  0  0  0  0  0  0  0
  -27.5878  -27.2316   20.1547 C   0  0  0  0  0  0  0  0  0  0  0  0
  -19.7542   -8.8144   23.7986 C   0  0  0  0  0  0  0  0  0  0  0  0
  -18.9651   -7.6725   23.6610 C   0  0  0  0  0  0  0  0  0  0  0  0
  -25.2122  -26.8214   20.0693 C   0  0  0  0  0  0  0  0  0  0  0  0
  -30.5321  -17.8979   21.4415 C   0  0  0  0  0  0  0  0  0  0  0  0
  -29.5820  -19.9967   22.1689 C   0  0  0  0  0  0  0  0  0  0  0  0
  -28.1761  -18.3308   21.1271 C   0  0  0  0  0  0  0  0  0  0  0  0
  -20.1449   -6.6360   25.4970 C   0  0  0  0  0  0  0  0  0  0  0  0
  -23.8280  -11.1556   21.6693 C   0  0  0  0  0  0  0  0  0  0  0  0
  -24.2277  -11.6203   19.1930 C   0  0  0  0  0  0  0  0  0  0  0  0
  -27.1376  -31.8336   26.5628 C   0  0  0  0  0  0  0  0  0  0  0  0
  -26.0281  -29.0276   20.6409 C   0  0  0  0  0  0  0  0  0  0  0  0
  -26.7622  -30.7314   25.7712 C   0  0  0  0  0  0  0  0  0  0  0  0
  -24.9528  -28.1572   20.4123 C   0  0  0  0  0  0  0  0  0  0  0  0
  -30.6840  -19.1528   22.0312 C   0  0  0  0  0  0  0  0  0  0  0  0
  -29.2781  -17.4869   20.9894 C   0  0  0  0  0  0  0  0  0  0  0  0
  -22.2775  -10.3799   23.8549 C   0  0  0  0  0  0  0  0  0  0  0  0
  -26.5226  -26.3612   19.9430 C   0  0  0  0  0  0  0  0  0  0  0  0
  -20.7387   -8.8671   24.7853 C   0  0  0  0  0  0  0  0  0  0  0  0
  -28.3280  -19.5858   21.7169 C   0  0  0  0  0  0  0  0  0  0  0  0
  -19.1605   -6.5833   24.5102 C   0  0  0  0  0  0  0  0  0  0  0  0
  -20.9341   -7.7779   25.6345 C   0  0  0  0  0  0  0  0  0  0  0  0
  -24.6290  -11.5569   20.5409 C   0  0  0  0  0  0  0  0  0  0  0  0
  -25.3445  -12.0552   18.5222 C   0  0  0  0  0  0  0  0  0  0  0  0
  -22.9587  -11.3135   18.6003 C   0  0  0  0  0  0  0  0  0  0  0  0
  -24.3277  -30.2457   23.0344 C   0  0  0  0  0  0  0  0  0  0  0  0
  -26.4464  -22.7468   20.2456 C   0  0  0  0  0  0  0  0  0  0  0  0
  -22.1074  -30.6952   20.7126 C   0  0  0  0  0  0  0  0  0  0  0  0
  -20.8722  -29.7737   17.6677 C   0  0  0  0  0  0  0  0  0  0  0  0
  -30.1131  -15.2533   20.1771 C   0  0  0  0  0  0  0  0  0  0  0  0
  -26.1287  -32.8483   27.0395 C   0  0  0  0  0  0  0  0  0  0  0  0
  -25.7800  -30.4705   20.9859 C   0  0  0  0  0  0  0  0  0  0  0  0
  -23.5229  -28.6145   20.5329 C   0  0  0  0  0  0  0  0  0  0  0  0
  -24.8209  -32.8229   26.2526 C   0  0  0  0  0  0  0  0  0  0  0  0
  -30.1266  -11.9828   18.7696 C   0  0  0  0  0  0  0  0  0  0  0  0
  -24.3296  -31.3892   26.0798 C   0  0  0  0  0  0  0  0  0  0  0  0
  -28.6804  -11.5106   18.9359 C   0  0  0  0  0  0  0  0  0  0  0  0
  -30.5887  -12.8241   19.9580 C   0  0  0  0  0  0  0  0  0  0  0  0
  -28.2689  -13.4831   20.4614 C   0  0  0  0  0  0  0  0  0  0  0  0
  -25.3399  -30.5516   25.2867 C   0  0  1  0  0  0  0  0  0  0  0  0
  -24.4072  -30.7088   21.6072 C   0  0  1  0  0  0  0  0  0  0  0  0
  -27.7373  -12.6861   19.2589 C   0  0  2  0  0  0  0  0  0  0  0  0
  -32.0246  -19.5925   22.5144 C   0  0  0  0  0  0  0  0  0  0  0  0
  -19.0264  -30.2972   16.0502 C   0  0  0  0  0  0  0  0  0  0  0  0
  -20.1299  -29.1955   22.4875 C   0  0  0  0  0  0  0  0  0  0  0  0
  -18.6501  -28.9204   20.4869 C   0  0  0  0  0  0  0  0  0  0  0  0
  -19.1834  -31.2042   21.3369 C   0  0  0  0  0  0  0  0  0  0  0  0
  -22.7897  -30.5562   15.5535 C   0  0  0  0  0  0  0  0  0  0  0  0
  -25.5110  -21.6293   20.6830 C   0  0  0  0  0  0  0  0  0  0  0  0
  -25.7950  -24.0985   20.0269 C   0  0  0  0  0  0  0  0  0  1  0  0
  -26.2220  -20.2970   20.8714 C   0  0  0  0  0  0  0  0  0  0  0  0
  -20.9739  -29.8760   20.1443 C   0  0  1  0  0  0  0  0  0  0  0  0
  -20.4615  -30.5928   16.4574 C   0  0  2  0  0  0  0  0  0  0  0  0
  -19.7612  -29.7896   21.1134 C   0  0  0  0  0  0  0  0  0  0  0  0
  -25.9016  -11.9223   20.7176 N   0  0  0  0  0  0  0  0  0  0  0  0
  -26.3095  -12.2193   19.4720 N   0  0  0  0  0  0  0  0  0  0  0  0
  -23.3320  -30.0328   20.8784 N   0  0  0  0  0  0  0  0  0  0  0  0
  -29.6494  -13.9209   20.2020 N   0  0  0  0  0  0  0  0  0  0  0  0
  -25.5855  -12.3095   17.2185 N   0  0  0  0  0  0  0  0  0  0  0  0
  -21.9192  -10.8797   19.4343 N   0  0  0  0  0  0  0  0  0  0  0  0
  -29.1234  -16.2123   20.3901 N   0  0  0  0  0  0  0  0  0  0  0  0
  -25.2446  -30.8494   23.8736 N   0  0  0  0  0  0  0  0  0  0  0  0
  -20.6599  -30.4598   18.8447 N   0  0  0  0  0  0  0  0  0  0  0  0
  -21.3504  -30.2890   15.3005 N   0  3  0  0  0  0  0  0  0  0  0  0
  -22.7576  -11.4050   17.3655 O   0  0  0  0  0  0  0  0  0  0  0  0
  -23.4951  -29.4042   23.3510 O   0  0  0  0  0  0  0  0  0  0  0  0
  -27.6531  -22.5756   20.0803 O   0  0  0  0  0  0  0  0  0  0  0  0
  -21.9154  -31.8812   20.9923 O   0  0  0  0  0  0  0  0  0  0  0  0
  -21.3315  -28.6372   17.5781 O   0  0  0  0  0  0  0  0  0  0  0  0
  -31.2957  -15.5247   19.9541 O   0  0  0  0  0  0  0  0  0  0  0  0
  -21.5208  -10.0018   24.9212 O   0  0  0  0  0  0  0  0  0  0  0  0
  -26.7592  -25.0636   19.6081 O   0  0  0  0  0  0  0  0  0  1  0  0
  -27.2456  -20.4149   21.8518 O   0  0  0  0  0  0  0  0  0  0  0  0
  -18.4016   -5.4874   24.3790 F   0  0  0  0  0  0  0  0  0  0  0  0
  -21.8775   -7.8231   26.5852 F   0  0  0  0  0  0  0  0  0  0  0  0
  1  2  1  0  0  0  0
  1  5  2  0  0  0  0
  2  6  2  0  0  0  0
  3  8  2  0  0  0  0
  3 18  1  0  0  0  0
  4  9  1  0  0  0  0
  4 18  2  0  0  0  0
  5 20  1  0  0  0  0
  6 22  1  0  0  0  0
  7 10  2  0  0  0  0
  7 21  1  0  0  0  0
  8 26  1  0  0  0  0
  9 26  2  0  0  0  0
 10 27  1  0  0  0  0
 11 12  2  0  0  0  0
 11 28  1  0  0  0  0
 12 30  1  0  0  0  0
 13 23  1  0  0  0  0
 13 27  2  0  0  0  0
 14 24  1  0  0  0  0
 14 25  2  0  0  0  0
 15 24  2  0  0  0  0
 15 29  1  0  0  0  0
 16 25  1  0  0  0  0
 16 29  2  0  0  0  0
 17 30  2  0  0  0  0
 17 31  1  0  0  0  0
 18 32  1  0  0  0  0
 19 32  1  0  0  0  0
 19 33  2  0  0  0  0
 19 34  1  0  0  0  0
 20 22  2  0  0  0  0
 20 40  1  0  0  0  0
 21 23  2  0  0  0  0
 21 41  1  0  0  0  0
 22 49  1  0  0  0  0
 23 42  1  0  0  0  0
 24 52  1  0  0  0  0
 25 70  1  0  0  0  0
 26 80  1  0  0  0  0
 27 81  1  0  0  0  0
 28 31  2  0  0  0  0
 28 80  1  0  0  0  0
 29 82  1  0  0  0  0
 30 83  1  0  0  0  0
 31 84  1  0  0  0  0
 32 64  2  0  0  0  0
 33 65  1  0  0  0  0
 33 68  1  0  0  0  0
 34 69  1  0  0  0  0
 34 74  2  0  0  0  0
 35 50  1  0  0  0  0
 35 71  1  0  0  0  0
 35 75  2  0  0  0  0
 36 58  1  0  0  0  0
 36 59  1  0  0  0  0
 36 76  2  0  0  0  0
 37 61  1  0  0  0  0
 37 66  1  0  0  0  0
 37 77  2  0  0  0  0
 38 62  1  0  0  0  0
 38 72  1  0  0  0  0
 38 78  2  0  0  0  0
 39 67  1  0  0  0  0
 39 70  1  0  0  0  0
 39 79  2  0  0  0  0
 40 43  1  0  0  0  0
 41 50  1  0  0  0  0
 42 66  1  0  0  0  0
 43 45  1  0  0  0  0
 44 46  1  0  0  0  0
 44 47  1  0  0  0  0
 45 49  1  0  0  0  0
 46 51  1  0  0  0  0
 47 67  1  0  0  0  0
 48 51  1  0  0  0  0
 48 67  1  0  0  0  0
 49 71  1  0  0  0  0
 50 66  1  0  0  0  0
 51 65  1  0  0  0  0
 53 62  1  0  0  0  0
 54 63  1  0  0  0  0
 55 63  1  0  0  0  0
 56 63  1  0  0  0  0
 57 73  1  0  0  0  0
 58 60  1  0  0  0  0
 59 81  1  0  0  0  0
 60 82  1  0  0  0  0
 61 63  1  0  0  0  0
 61 72  1  0  0  0  0
 62 73  1  0  0  0  0
 64 65  1  0  0  0  0
M  CHG  1  73   1
M  ISO  4  39 100  59 101  70 100  81 101
M  END
> <Batch ID>
0097

> <Smiles>
CNC(C)C(=O)NC(C(=O)N1Cc2cc([101O:1][101CH2:1]C(=O)CCOc3cc(C)cc([100NH:0][100C:0](=O)N4CCCC(n5nc(-c6ccc(Oc7ccc(F)cc7F)cc6)c(C(N)=O)c5N)C4)c3)ccc2CC1C(=O)NC1CCCc2ccccc21)C(C)(C)C

> <Shape>
0.271

> <Color>
0.090

> <Negative vol penalty>
0.000

$$$$

  -OEChem-04052300493D

 83 92  0     1  0  0  0  0  0999 V2000
  -30.2708  -25.6812   17.3119 C   0  0  0  0  0  0  0  0  0  0  0  0
  -28.8821  -25.7152   17.3867 C   0  0  0  0  0  0  0  0  0  0  0  0
  -25.9287  -12.0957   20.6000 C   0  0  0  0  0  0  0  0  0  0  0  0
  -24.8791  -12.8069   18.5434 C   0  0  0  0  0  0  0  0  0  0  0  0
  -31.0368  -26.1124   18.3941 C   0  0  0  0  0  0  0  0  0  0  0  0
  -28.2585  -26.1793   18.5443 C   0  0  0  0  0  0  0  0  0  0  0  0
  -23.0122  -29.3194   18.8938 C   0  0  0  0  0  0  0  0  0  0  0  0
  -25.4176  -10.8109   20.4165 C   0  0  0  0  0  0  0  0  0  0  0  0
  -24.3681  -11.5220   18.3598 C   0  0  0  0  0  0  0  0  0  0  0  0
  -21.7027  -28.9300   19.1721 C   0  0  0  0  0  0  0  0  0  0  0  0
  -24.0896   -7.4353   20.6730 C   0  0  0  0  0  0  0  0  0  0  0  0
  -23.5135   -6.8016   21.7739 C   0  0  0  0  0  0  0  0  0  0  0  0
  -21.8366  -24.3735   22.2660 C   0  0  0  0  0  0  0  0  0  0  0  0
  -22.0159  -29.5495   21.4823 C   0  0  0  0  0  0  0  0  0  0  0  0
  -20.4735  -23.7206   20.3289 C   0  0  0  0  0  0  0  0  0  0  0  0
  -21.8903   -8.5825   21.9498 C   0  0  0  0  0  0  0  0  0  0  0  0
  -25.6594  -13.0937   19.6634 C   0  0  0  0  0  0  0  0  0  0  0  0
  -27.4211  -14.9190   19.3946 C   0  0  0  0  0  0  0  0  0  0  0  0
  -30.4224  -26.5912   19.5619 C   0  0  0  0  0  0  0  0  0  0  0  0
  -23.8382  -29.8174   19.9116 C   0  0  0  0  0  0  0  0  0  0  0  0
  -29.0170  -26.6161   19.6437 C   0  0  0  0  0  0  0  0  0  0  0  0
  -22.4200  -23.1384   22.1859 C   0  0  0  0  0  0  0  0  0  0  0  0
  -23.3346  -29.9469   21.2138 C   0  0  0  0  0  0  0  0  0  0  0  0
  -21.0834  -22.4665   20.2653 C   0  0  0  0  0  0  0  0  0  0  0  0
  -22.0342  -22.2424   21.2201 C   0  0  0  0  0  0  0  0  0  0  0  0
  -20.8448  -24.6642   21.3184 C   0  0  0  0  0  0  0  0  0  0  0  0
  -24.6374  -10.5240   19.2964 C   0  0  0  0  0  0  0  0  0  0  0  0
  -21.2053  -29.0423   20.4671 C   0  0  0  0  0  0  0  0  0  0  0  0
  -23.5661   -8.6428   20.2105 C   0  0  0  0  0  0  0  0  0  0  0  0
  -22.4138   -7.3751   22.4123 C   0  0  0  0  0  0  0  0  0  0  0  0
  -22.4665   -9.2163   20.8489 C   0  0  0  0  0  0  0  0  0  0  0  0
  -26.1865  -14.4213   19.8527 C   0  0  0  0  0  0  0  0  0  0  0  0
  -27.4490  -16.2215   19.8297 C   0  0  0  0  0  0  0  0  0  0  0  0
  -28.4506  -14.2628   18.6428 C   0  0  0  0  0  0  0  0  0  0  0  0
  -26.5770  -28.8910   21.2325 C   0  0  0  0  0  0  0  0  0  0  0  0
  -26.3301  -31.7224   22.7959 C   0  0  0  0  0  0  0  0  0  0  0  0
  -24.3237  -34.2344   23.9408 C   0  0  0  0  0  0  0  0  0  0  0  0
  -23.2369  -20.0889   21.0360 C   0  0  0  0  0  0  0  0  0  0  0  0
  -31.2920  -27.0023   20.7236 C   0  0  0  0  0  0  0  0  0  0  0  0
  -25.2398  -30.2581   19.5896 C   0  0  0  0  0  0  0  0  0  0  0  0
  -23.4204  -22.1580   22.7242 C   0  0  0  0  0  0  0  0  0  0  0  0
  -24.1743  -30.4944   22.3380 C   0  0  0  0  0  0  0  0  0  0  0  0
  -30.5553  -27.8311   21.7726 C   0  0  0  0  0  0  0  0  0  0  0  0
  -25.7668  -19.0281   23.3342 C   0  0  0  0  0  0  0  0  0  0  0  0
  -29.2105  -27.1941   22.1083 C   0  0  0  0  0  0  0  0  0  0  0  0
  -26.3071  -17.7806   22.6304 C   0  0  0  0  0  0  0  0  0  0  0  0
  -24.2505  -19.1162   23.1961 C   0  0  0  0  0  0  0  0  0  0  0  0
  -24.2750  -17.8491   21.1048 C   0  0  0  0  0  0  0  0  0  0  0  0
  -28.3038  -27.1361   20.8730 C   0  0  1  0  0  0  0  0  0  0  0  0
  -26.1573  -30.2700   20.8084 C   0  0  1  0  0  0  0  0  0  0  0  0
  -25.8063  -17.6903   21.1752 C   0  0  2  0  0  0  0  0  0  0  0  0
  -20.6955  -21.5018   19.2096 C   0  0  0  0  0  0  0  0  0  0  0  0
  -24.4048  -36.3945   25.2156 C   0  0  0  0  0  0  0  0  0  0  0  0
  -18.1816  -27.8600   22.1577 C   0  0  0  0  0  0  0  0  0  0  0  0
  -26.6600  -30.1695   25.4017 C   0  0  0  0  0  0  0  0  0  0  0  0
  -25.7965  -32.1758   26.6254 C   0  0  0  0  0  0  0  0  0  0  0  0
  -27.9109  -32.3332   25.3112 C   0  0  0  0  0  0  0  0  0  0  0  0
  -23.2600  -35.7652   21.6421 C   0  0  0  0  0  0  0  0  0  0  0  0
  -20.5131  -26.9273   22.3154 C   0  0  0  0  0  0  0  0  0  0  0  0
  -25.7020  -32.1772   24.0912 C   0  0  1  0  0  0  0  0  0  0  0  0
  -24.4440  -35.7444   23.8413 C   0  0  2  0  0  0  0  0  0  0  0  0
  -19.6676  -28.1728   22.0594 C   0  0  1  0  0  0  0  0  0  1  0  0
  -26.5019  -31.7018   25.3368 C   0  0  0  0  0  0  0  0  0  0  0  0
  -25.4813  -15.3331   20.5274 N   0  0  0  0  0  0  0  0  0  0  0  0
  -26.2753  -16.4169   20.4964 N   0  0  0  0  0  0  0  0  0  0  0  0
  -22.9385  -21.2853   21.6361 N   0  0  0  0  0  0  0  0  0  0  0  0
  -25.5402  -30.9059   21.9742 N   0  0  0  0  0  0  0  0  0  0  0  0
  -23.8698  -19.0889   21.7817 N   0  0  0  0  0  0  0  0  0  0  0  0
  -28.3627  -17.2071   19.7034 N   0  0  0  0  0  0  0  0  0  0  0  0
  -28.2603  -12.9231   18.2775 N   0  0  0  0  0  0  0  0  0  0  0  0
  -20.1998  -25.9219   21.3505 N   0  0  0  0  0  0  0  0  0  0  0  0
  -27.7238  -28.4357   20.6103 N   0  0  0  0  0  0  0  0  0  0  0  0
  -25.5599  -33.6256   23.9894 N   0  0  0  0  0  0  0  0  0  0  0  0
  -23.3271  -36.3005   23.0263 N   0  3  0  0  0  0  0  0  0  0  0  0
  -29.5150  -14.8422   18.3191 O   0  0  0  0  0  0  0  0  0  0  0  0
  -25.9106  -28.2855   22.0637 O   0  0  0  0  0  0  0  0  0  0  0  0
  -27.4766  -32.0843   22.5200 O   0  0  0  0  0  0  0  0  0  0  0  0
  -23.2412  -33.6534   23.9760 O   0  0  0  0  0  0  0  0  0  0  0  0
  -22.9775  -19.9164   19.8356 O   0  0  0  0  0  0  0  0  0  0  0  0
  -24.1388   -9.2703   19.1169 O   0  0  0  0  0  0  0  0  0  0  0  0
  -19.9206  -28.6602   20.7431 O   0  0  0  0  0  0  0  0  0  1  0  0
  -21.8597   -6.7656   23.4685 F   0  0  0  0  0  0  0  0  0  0  0  0
  -21.9585  -10.3755   20.4083 F   0  0  0  0  0  0  0  0  0  0  0  0
  1  2  1  0  0  0  0
  1  5  2  0  0  0  0
  2  6  2  0  0  0  0
  3  8  2  0  0  0  0
  3 17  1  0  0  0  0
  4  9  1  0  0  0  0
  4 17  2  0  0  0  0
  5 19  1  0  0  0  0
  6 21  1  0  0  0  0
  7 10  2  0  0  0  0
  7 20  1  0  0  0  0
  8 27  1  0  0  0  0
  9 27  2  0  0  0  0
 10 28  1  0  0  0  0
 11 12  2  0  0  0  0
 11 29  1  0  0  0  0
 12 30  1  0  0  0  0
 13 22  1  0  0  0  0
 13 26  2  0  0  0  0
 14 23  1  0  0  0  0
 14 28  2  0  0  0  0
 15 24  2  0  0  0  0
 15 26  1  0  0  0  0
 16 30  2  0  0  0  0
 16 31  1  0  0  0  0
 17 32  1  0  0  0  0
 18 32  1  0  0  0  0
 18 33  2  0  0  0  0
 18 34  1  0  0  0  0
 19 21  2  0  0  0  0
 19 39  1  0  0  0  0
 20 23  2  0  0  0  0
 20 40  1  0  0  0  0
 21 49  1  0  0  0  0
 22 25  2  0  0  0  0
 22 41  1  0  0  0  0
 23 42  1  0  0  0  0
 24 25  1  0  0  0  0
 24 52  1  0  0  0  0
 25 66  1  0  0  0  0
 26 71  1  0  0  0  0
 27 80  1  0  0  0  0
 28 81  1  0  0  0  0
 29 31  2  0  0  0  0
 29 80  1  0  0  0  0
 30 82  1  0  0  0  0
 31 83  1  0  0  0  0
 32 64  2  0  0  0  0
 33 65  1  0  0  0  0
 33 69  1  0  0  0  0
 34 70  1  0  0  0  0
 34 75  2  0  0  0  0
 35 50  1  0  0  0  0
 35 72  1  0  0  0  0
 35 76  2  0  0  0  0
 36 60  1  0  0  0  0
 36 67  1  0  0  0  0
 36 77  2  0  0  0  0
 37 61  1  0  0  0  0
 37 73  1  0  0  0  0
 37 78  2  0  0  0  0
 38 66  1  0  0  0  0
 38 68  1  0  0  0  0
 38 79  2  0  0  0  0
 39 43  1  0  0  0  0
 40 50  1  0  0  0  0
 41 66  1  0  0  0  0
 42 67  1  0  0  0  0
 43 45  1  0  0  0  0
 44 46  1  0  0  0  0
 44 47  1  0  0  0  0
 45 49  1  0  0  0  0
 46 51  1  0  0  0  0
 47 68  1  0  0  0  0
 48 51  1  0  0  0  0
 48 68  1  0  0  0  0
 49 72  1  0  0  0  0
 50 67  1  0  0  0  0
 51 65  1  0  0  0  0
 53 61  1  0  0  0  0
 54 62  1  0  0  0  0
 55 63  1  0  0  0  0
 56 63  1  0  0  0  0
 57 63  1  0  0  0  0
 58 74  1  0  0  0  0
 59 62  1  0  0  0  0
 59 71  1  0  0  0  0
 60 63  1  0  0  0  0
 60 73  1  0  0  0  0
 61 74  1  0  0  0  0
 62 81  1  0  0  0  0
 64 65  1  0  0  0  0
M  CHG  1  74   1
M  ISO  4  38 100  62 101  66 100  81 101
M  END
> <Batch ID>
0097

> <Smiles>
CNC(C)C(=O)NC(C(=O)N1Cc2cc([101O:1][101CH:1](C)CNc3cc(C)c4c(c3)C[100N:0]4[100C:0](=O)N3CCCC(n4nc(-c5ccc(Oc6ccc(F)cc6F)cc5)c(C(N)=O)c4N)C3)ccc2CC1C(=O)NC1CCCc2ccccc21)C(C)(C)C

> <Shape>
0.315

> <Color>
0.082

> <Negative vol penalty>
0.000

$$$$

  -OEChem-04052300493D

 87 96  0     1  0  0  0  0  0999 V2000
  -17.8317  -25.3740   22.6790 C   0  0  0  0  0  0  0  0  0  0  0  0
  -18.1371  -24.1050   22.1976 C   0  0  0  0  0  0  0  0  0  0  0  0
  -29.5568  -11.8280   18.7769 C   0  0  0  0  0  0  0  0  0  0  0  0
  -28.4493  -26.4021   19.2567 C   0  0  0  0  0  0  0  0  0  0  0  0
  -30.1984  -25.2661   20.4761 C   0  0  0  0  0  0  0  0  0  0  0  0
  -18.8572  -26.2464   23.0412 C   0  0  0  0  0  0  0  0  0  0  0  0
  -19.4684  -23.7080   22.0770 C   0  0  0  0  0  0  0  0  0  0  0  0
  -21.7239  -18.0793   22.9351 C   0  0  0  0  0  0  0  0  0  0  0  0
  -28.5714  -11.5347   19.7195 C   0  0  0  0  0  0  0  0  0  0  0  0
  -30.1637  -13.0840   18.7701 C   0  0  0  0  0  0  0  0  0  0  0  0
  -28.5085  -27.4631   20.1601 C   0  0  0  0  0  0  0  0  0  0  0  0
  -30.2578  -26.3272   21.3795 C   0  0  0  0  0  0  0  0  0  0  0  0
  -22.0584  -17.0575   22.0476 C   0  0  0  0  0  0  0  0  0  0  0  0
  -27.3947  -28.1447   23.2777 C   0  0  0  0  0  0  0  0  0  0  0  0
  -26.1882  -28.6564   23.7554 C   0  0  0  0  0  0  0  0  0  0  0  0
  -24.3575  -17.7872   22.0835 C   0  0  0  0  0  0  0  0  0  0  0  0
  -28.7997  -13.7532   20.6485 C   0  0  0  0  0  0  0  0  0  0  0  0
  -26.7403  -30.8199   22.8326 C   0  0  0  0  0  0  0  0  0  0  0  0
  -29.2942  -25.3035   19.4147 C   0  0  0  0  0  0  0  0  0  0  0  0
  -29.4596  -24.2580   17.0936 C   0  0  0  0  0  0  0  0  0  0  0  0
  -20.2015  -25.8564   22.9341 C   0  0  0  0  0  0  0  0  0  0  0  0
  -22.7033  -18.9710   23.3958 C   0  0  0  0  0  0  0  0  0  0  0  0
  -20.5129  -24.5765   22.4368 C   0  0  0  0  0  0  0  0  0  0  0  0
  -24.0333  -18.8179   22.9788 C   0  0  0  0  0  0  0  0  0  0  0  0
  -28.1928  -12.4973   20.6553 C   0  0  0  0  0  0  0  0  0  0  0  0
  -29.7851  -14.0466   19.7059 C   0  0  0  0  0  0  0  0  0  0  0  0
  -29.4128  -27.4257   21.2215 C   0  0  0  0  0  0  0  0  0  0  0  0
  -23.3748  -16.9131   21.6193 C   0  0  0  0  0  0  0  0  0  0  0  0
  -28.2740  -28.9707   22.5774 C   0  0  0  0  0  0  0  0  0  0  0  0
  -25.8610  -29.9939   23.5328 C   0  0  0  0  0  0  0  0  0  0  0  0
  -27.9468  -30.3082   22.3549 C   0  0  0  0  0  0  0  0  0  0  0  0
  -29.2330  -24.2068   18.4821 C   0  0  0  0  0  0  0  0  0  0  0  0
  -29.2820  -22.9640   16.6689 C   0  0  0  0  0  0  0  0  0  0  0  0
  -25.2551  -11.0084   20.5896 C   0  0  0  0  0  0  0  0  0  0  0  0
  -29.8001  -25.3753   16.2622 C   0  0  0  0  0  0  0  0  0  0  0  0
  -23.1617  -22.1087   23.1763 C   0  0  0  0  0  0  0  0  0  0  0  0
  -25.6247  -21.4969   25.1966 C   0  0  0  0  0  0  0  0  0  0  0  0
  -27.8749  -19.2429   26.4225 C   0  0  0  0  0  0  0  0  0  0  0  0
  -29.8663  -17.7934   19.4579 C   0  0  0  0  0  0  0  0  0  0  0  0
  -21.2767  -26.8512   23.2933 C   0  0  0  0  0  0  0  0  0  0  0  0
  -22.3312  -20.0515   24.3738 C   0  0  0  0  0  0  0  0  0  0  0  0
  -25.1258  -19.7363   23.4597 C   0  0  0  0  0  0  0  0  0  0  0  0
  -23.8949  -11.1074   19.9270 C   0  0  0  0  0  0  0  0  0  0  0  0
  -22.6519  -26.2178   23.4885 C   0  0  0  0  0  0  0  0  0  0  0  0
  -23.0220  -12.2340   20.4440 C   0  0  0  0  0  0  0  0  0  0  0  0
  -26.8942  -18.9605   17.7544 C   0  0  0  0  0  0  0  0  0  0  0  0
  -22.9596  -25.2489   22.3513 C   0  0  0  0  0  0  0  0  0  0  0  0
  -27.1889  -20.4555   17.6184 C   0  0  0  0  0  0  0  0  0  0  0  0
  -27.4032  -18.4156   19.0856 C   0  0  0  0  0  0  0  0  0  0  0  0
  -25.0284  -13.4205   21.2819 C   0  0  0  0  0  0  0  0  0  0  0  0
  -29.1485  -20.1517   19.2019 C   0  0  0  0  0  0  0  0  0  0  0  0
  -21.9442  -24.1003   22.3150 C   0  0  1  0  0  0  0  0  0  0  0  0
  -23.3137  -21.2185   24.3772 C   0  0  1  0  0  0  0  0  0  0  0  0
  -23.8001  -13.5416   20.3853 C   0  0  2  0  0  0  0  0  0  0  0  0
  -28.6785  -20.7579   17.8671 C   0  0  2  0  0  0  0  0  0  0  0  0
  -29.7861  -19.0463   28.0369 C   0  0  0  0  0  0  0  0  0  0  0  0
  -27.4440  -22.9357   23.2143 C   0  0  0  0  0  0  0  0  0  0  0  0
  -29.4076  -21.8988   24.3706 C   0  0  0  0  0  0  0  0  0  0  0  0
  -27.9052  -23.4514   25.6175 C   0  0  0  0  0  0  0  0  0  0  0  0
  -26.4503  -17.2163   28.0419 C   0  0  0  0  0  0  0  0  0  0  0  0
  -27.1331  -12.1802   21.6705 C   0  0  0  0  0  0  0  0  0  0  0  0
  -30.4337  -15.3897   19.6981 C   0  0  0  0  0  0  0  0  0  0  0  0
  -22.9294  -14.7201   20.8143 C   0  0  0  0  0  0  0  0  0  1  0  0
  -27.0807  -21.1351   25.0286 C   0  0  1  0  0  0  0  0  0  0  0  0
  -28.2848  -18.8998   27.8434 C   0  0  2  0  0  0  0  0  0  0  0  0
  -27.9387  -22.3390   24.5470 C   0  0  0  0  0  0  0  0  0  0  0  0
  -28.9342  -22.9776   18.9109 N   0  0  0  0  0  0  0  0  0  0  0  0
  -28.9716  -22.2445   17.7852 N   0  0  0  0  0  0  0  0  0  0  0  0
  -25.7983  -12.1911   21.0869 N   0  0  0  0  0  0  0  0  0  0  0  0
  -24.7108  -20.7811   24.4103 N   0  0  0  0  0  0  0  0  0  0  0  0
  -28.8313  -18.7206   19.2521 N   0  0  0  0  0  0  0  0  0  0  0  0
  -29.3625  -22.3828   15.4531 N   0  0  0  0  0  0  0  0  0  0  0  0
  -31.1555  -25.6703   16.0617 N   0  0  0  0  0  0  0  0  0  0  0  0
  -22.2439  -23.1280   23.3442 N   0  0  0  0  0  0  0  0  0  0  0  0
  -27.5097  -20.5671   26.3020 N   0  0  0  0  0  0  0  0  0  0  0  0
  -29.4808  -16.4591   19.4995 N   0  0  0  0  0  0  0  0  0  0  0  0
  -27.9039  -17.4959   28.1676 N   0  3  0  0  0  0  0  0  0  0  0  0
  -25.8436   -9.9236   20.5869 O   0  0  0  0  0  0  0  0  0  0  0  0
  -28.9282  -26.1008   15.7267 O   0  0  0  0  0  0  0  0  0  0  0  0
  -23.8288  -21.8880   22.1723 O   0  0  0  0  0  0  0  0  0  0  0  0
  -25.3092  -22.3770   26.0013 O   0  0  0  0  0  0  0  0  0  0  0  0
  -27.8818  -18.4196   25.5100 O   0  0  0  0  0  0  0  0  0  0  0  0
  -31.0482  -18.1294   19.5895 O   0  0  0  0  0  0  0  0  0  0  0  0
  -29.4711  -28.4611   22.1031 O   0  0  0  0  0  0  0  0  0  0  0  0
  -23.7039  -15.9170   20.7526 O   0  0  0  0  0  0  0  0  0  1  0  0
  -24.7017  -30.4847   23.9903 F   0  0  0  0  0  0  0  0  0  0  0  0
  -28.7870  -31.1063   21.6818 F   0  0  0  0  0  0  0  0  0  0  0  0
  1  2  1  0  0  0  0
  1  6  2  0  0  0  0
  2  7  2  0  0  0  0
  3  9  2  0  0  0  0
  3 10  1  0  0  0  0
  4 11  2  0  0  0  0
  4 19  1  0  0  0  0
  5 12  1  0  0  0  0
  5 19  2  0  0  0  0
  6 21  1  0  0  0  0
  7 23  1  0  0  0  0
  8 13  2  0  0  0  0
  8 22  1  0  0  0  0
  9 25  1  0  0  0  0
 10 26  2  0  0  0  0
 11 27  1  0  0  0  0
 12 27  2  0  0  0  0
 13 28  1  0  0  0  0
 14 15  2  0  0  0  0
 14 29  1  0  0  0  0
 15 30  1  0  0  0  0
 16 24  1  0  0  0  0
 16 28  2  0  0  0  0
 17 25  2  0  0  0  0
 17 26  1  0  0  0  0
 18 30  2  0  0  0  0
 18 31  1  0  0  0  0
 19 32  1  0  0  0  0
 20 32  1  0  0  0  0
 20 33  2  0  0  0  0
 20 35  1  0  0  0  0
 21 23  2  0  0  0  0
 21 40  1  0  0  0  0
 22 24  2  0  0  0  0
 22 41  1  0  0  0  0
 23 52  1  0  0  0  0
 24 42  1  0  0  0  0
 25 61  1  0  0  0  0
 26 62  1  0  0  0  0
 27 84  1  0  0  0  0
 28 85  1  0  0  0  0
 29 31  2  0  0  0  0
 29 84  1  0  0  0  0
 30 86  1  0  0  0  0
 31 87  1  0  0  0  0
 32 67  2  0  0  0  0
 33 68  1  0  0  0  0
 33 72  1  0  0  0  0
 34 43  1  0  0  0  0
 34 69  1  0  0  0  0
 34 78  2  0  0  0  0
 35 73  1  0  0  0  0
 35 79  2  0  0  0  0
 36 53  1  0  0  0  0
 36 74  1  0  0  0  0
 36 80  2  0  0  0  0
 37 64  1  0  0  0  0
 37 70  1  0  0  0  0
 37 81  2  0  0  0  0
 38 65  1  0  0  0  0
 38 75  1  0  0  0  0
 38 82  2  0  0  0  0
 39 71  1  0  0  0  0
 39 76  1  0  0  0  0
 39 83  2  0  0  0  0
 40 44  1  0  0  0  0
 41 53  1  0  0  0  0
 42 70  1  0  0  0  0
 43 45  1  0  0  0  0
 44 47  1  0  0  0  0
 45 54  1  0  0  0  0
 46 48  1  0  0  0  0
 46 49  1  0  0  0  0
 47 52  1  0  0  0  0
 48 55  1  0  0  0  0
 49 71  1  0  0  0  0
 50 54  1  0  0  0  0
 50 69  1  0  0  0  0
 51 55  1  0  0  0  0
 51 71  1  0  0  0  0
 52 74  1  0  0  0  0
 53 70  1  0  0  0  0
 54 63  1  0  0  0  0
 55 68  1  0  0  0  0
 56 65  1  0  0  0  0
 57 66  1  0  0  0  0
 58 66  1  0  0  0  0
 59 66  1  0  0  0  0
 60 77  1  0  0  0  0
 61 69  1  0  0  0  0
 62 76  1  0  0  0  0
 63 85  1  0  0  0  0
 64 66  1  0  0  0  0
 64 75  1  0  0  0  0
 65 77  1  0  0  0  0
 67 68  1  0  0  0  0
M  CHG  1  77   1
M  ISO  4  39 100  63 101  76 100  85 101
M  END
> <Batch ID>
0097

> <Smiles>
CNC(C)C(=O)NC(C(=O)N1Cc2cc([101O:1][101CH2:1]C3CCC(=O)N(Cc4cccc(C[100NH:0][100C:0](=O)N5CCCC(n6nc(-c7ccc(Oc8ccc(F)cc8F)cc7)c(C(N)=O)c6N)C5)c4)C3)ccc2CC1C(=O)NC1CCCc2ccccc21)C(C)(C)C

> <Shape>
0.211

> <Color>
0.056

> <Negative vol penalty>
0.000

$$$$

  -OEChem-04052300493D

 84 92  0     1  0  0  0  0  0999 V2000
  -27.5936  -29.1043   19.1788 C   0  0  0  0  0  0  0  0  0  0  0  0
  -27.5405  -27.8979   19.8696 C   0  0  0  0  0  0  0  0  0  0  0  0
  -28.7947  -22.8380   20.0401 C   0  0  0  0  0  0  0  0  0  0  0  0
  -29.6043  -22.7716   17.7647 C   0  0  0  0  0  0  0  0  0  0  0  0
  -24.0044  -16.1935   23.4639 C   0  0  0  0  0  0  0  0  0  0  0  0
  -26.5701  -30.0388   19.3306 C   0  0  0  0  0  0  0  0  0  0  0  0
  -26.4644  -27.6257   20.7136 C   0  0  0  0  0  0  0  0  0  0  0  0
  -23.8698  -22.1721   21.7293 C   0  0  0  0  0  0  0  0  0  0  0  0
  -23.7615  -17.0514   24.5365 C   0  0  0  0  0  0  0  0  0  0  0  0
  -29.5444  -23.9909   20.2732 C   0  0  0  0  0  0  0  0  0  0  0  0
  -30.3539  -23.9246   17.9978 C   0  0  0  0  0  0  0  0  0  0  0  0
  -24.0193  -21.2385   22.7539 C   0  0  0  0  0  0  0  0  0  0  0  0
  -32.7669  -24.7772   20.9226 C   0  0  0  0  0  0  0  0  0  0  0  0
  -33.4989  -24.8446   22.1080 C   0  0  0  0  0  0  0  0  0  0  0  0
  -21.6664  -16.2842   22.8619 C   0  0  0  0  0  0  0  0  0  0  0  0
  -22.0887  -22.1610   23.8679 C   0  0  0  0  0  0  0  0  0  0  0  0
  -32.2609  -26.8141   22.7604 C   0  0  0  0  0  0  0  0  0  0  0  0
  -28.8247  -22.2283   18.7858 C   0  0  0  0  0  0  0  0  0  0  0  0
  -22.9568  -15.8099   22.6265 C   0  0  0  0  0  0  0  0  0  0  0  0
  -26.7258  -20.9646   18.0750 C   0  0  0  0  0  0  0  0  0  0  0  0
  -25.4760  -29.7739   20.1694 C   0  0  0  0  0  0  0  0  0  0  0  0
  -22.8334  -23.1158   21.7718 C   0  0  0  0  0  0  0  0  0  0  0  0
  -25.4259  -28.5581   20.8778 C   0  0  0  0  0  0  0  0  0  0  0  0
  -21.9267  -23.1039   22.8413 C   0  0  0  0  0  0  0  0  0  0  0  0
  -22.4711  -17.5257   24.7719 C   0  0  0  0  0  0  0  0  0  0  0  0
  -30.3240  -24.5342   19.2521 C   0  0  0  0  0  0  0  0  0  0  0  0
  -23.1304  -21.2347   23.8249 C   0  0  0  0  0  0  0  0  0  0  0  0
  -31.7819  -25.7282   20.6560 C   0  0  0  0  0  0  0  0  0  0  0  0
  -21.4234  -17.1421   23.9346 C   0  0  0  0  0  0  0  0  0  0  0  0
  -33.2460  -25.8631   23.0269 C   0  0  0  0  0  0  0  0  0  0  0  0
  -31.5289  -26.7467   21.5750 C   0  0  0  0  0  0  0  0  0  0  0  0
  -28.0509  -21.0370   18.5446 C   0  0  0  0  0  0  0  0  0  0  0  0
  -26.4551  -19.6193   18.0170 C   0  0  0  0  0  0  0  0  0  0  0  0
  -24.5926  -14.3887   21.2333 C   0  0  0  0  0  0  0  0  0  0  0  0
  -23.2145  -14.8999   21.4898 C   0  0  0  0  0  0  0  0  0  0  0  0
  -25.8205  -22.0191   17.7226 C   0  0  0  0  0  0  0  0  0  0  0  0
  -22.6927  -26.2889   21.8942 C   0  0  0  0  0  0  0  0  0  0  0  0
  -19.5087  -25.7720   21.5519 C   0  0  0  0  0  0  0  0  0  0  0  0
  -16.8610  -23.6515   21.9266 C   0  0  0  0  0  0  0  0  0  0  0  0
  -26.6183  -14.5595   20.2456 C   0  0  0  0  0  0  0  0  0  0  0  0
  -24.4172  -30.8345   20.3382 C   0  0  0  0  0  0  0  0  0  0  0  0
  -22.6698  -24.0990   20.6454 C   0  0  0  0  0  0  0  0  0  0  0  0
  -20.7851  -24.0828   22.9241 C   0  0  0  0  0  0  0  0  0  0  0  0
  -23.1256  -30.3120   20.9620 C   0  0  0  0  0  0  0  0  0  0  0  0
  -29.5063  -15.6125   18.4313 C   0  0  0  0  0  0  0  0  0  0  0  0
  -23.4332  -29.4438   22.1779 C   0  0  0  0  0  0  0  0  0  0  0  0
  -29.2865  -17.1193   18.2823 C   0  0  0  0  0  0  0  0  0  0  0  0
  -29.0078  -15.1019   19.7807 C   0  0  0  0  0  0  0  0  0  0  0  0
  -27.3755  -16.9575   19.9337 C   0  0  0  0  0  0  0  0  0  0  0  0
  -24.2628  -28.2159   21.7834 C   0  0  1  0  0  0  0  0  0  0  0  0
  -21.8864  -25.3444   21.0484 C   0  0  1  0  0  0  0  0  0  0  0  0
  -27.8209  -17.4982   18.5641 C   0  0  1  0  0  0  0  0  0  0  0  0
  -14.3769  -23.5242   21.5945 C   0  0  0  0  0  0  0  0  0  0  0  0
  -19.0903  -27.4800   24.0454 C   0  0  0  0  0  0  0  0  0  0  0  0
  -16.7719  -26.5492   24.2090 C   0  0  0  0  0  0  0  0  0  0  0  0
  -17.4385  -27.8878   22.2124 C   0  0  0  0  0  0  0  0  0  0  0  0
  -17.1158  -21.4152   20.0050 C   0  0  0  0  0  0  0  0  0  0  0  0
  -19.1472  -17.1543   23.2459 C   0  0  0  0  0  0  0  0  0  0  0  0
  -22.2271  -18.4536   25.9371 C   0  0  0  0  0  0  0  0  0  0  0  0
  -22.0879  -19.9080   25.5009 C   0  0  0  0  0  0  0  0  0  1  0  0
  -18.3541  -25.5485   22.4983 C   0  0  1  0  0  0  0  0  0  0  0  0
  -15.7420  -23.2601   20.9785 C   0  0  2  0  0  0  0  0  0  0  0  0
  -17.9363  -26.8490   23.2410 C   0  0  0  0  0  0  0  0  0  0  0  0
  -28.5849  -19.8335   18.7691 N   0  0  0  0  0  0  0  0  0  0  0  0
  -22.2843  -14.5115   20.6805 N   0  0  0  0  0  0  0  0  0  0  0  0
  -25.3600  -15.0794   20.4659 N   0  0  0  0  0  0  0  0  0  0  0  0
  -27.5902  -18.9921   18.4393 N   0  0  0  0  0  0  0  0  0  0  0  0
  -20.6709  -25.0285   21.8015 N   0  0  0  0  0  0  0  0  0  0  0  0
  -27.6229  -15.5124   20.0108 N   0  0  0  0  0  0  0  0  0  0  0  0
  -25.3591  -18.9235   17.6466 N   0  0  0  0  0  0  0  0  0  0  0  0
  -26.2602  -23.3446   17.8412 N   0  0  0  0  0  0  0  0  0  0  0  0
  -23.4200  -27.2129   21.1685 N   0  0  0  0  0  0  0  0  0  0  0  0
  -17.2883  -24.9439   21.7065 N   0  0  0  0  0  0  0  0  0  0  0  0
  -15.8327  -21.8115   20.6402 N   0  3  0  0  0  0  0  0  0  0  0  0
  -24.6507  -21.7931   17.3303 O   0  0  0  0  0  0  0  0  0  0  0  0
  -22.6565  -26.1879   23.1149 O   0  0  0  0  0  0  0  0  0  0  0  0
  -19.3816  -26.5713   20.6210 O   0  0  0  0  0  0  0  0  0  0  0  0
  -17.3087  -22.8885   22.7798 O   0  0  0  0  0  0  0  0  0  0  0  0
  -26.8518  -13.3494   20.2687 O   0  0  0  0  0  0  0  0  0  0  0  0
  -31.0554  -25.6594   19.4791 O   0  0  0  0  0  0  0  0  0  0  0  0
  -20.1573  -17.5967   24.1502 O   0  0  0  0  0  0  0  0  0  0  0  0
  -23.2744  -20.3250   24.8267 O   0  0  0  0  0  0  0  0  0  1  0  0
  -33.9480  -25.9269   24.1659 F   0  0  0  0  0  0  0  0  0  0  0  0
  -30.5831  -27.6625   21.3250 F   0  0  0  0  0  0  0  0  0  0  0  0
  1  2  1  0  0  0  0
  1  6  2  0  0  0  0
  2  7  2  0  0  0  0
  3 10  2  0  0  0  0
  3 18  1  0  0  0  0
  4 11  1  0  0  0  0
  4 18  2  0  0  0  0
  5  9  2  0  0  0  0
  5 19  1  0  0  0  0
  6 21  1  0  0  0  0
  7 23  1  0  0  0  0
  8 12  2  0  0  0  0
  8 22  1  0  0  0  0
  9 25  1  0  0  0  0
 10 26  1  0  0  0  0
 11 26  2  0  0  0  0
 12 27  1  0  0  0  0
 13 14  2  0  0  0  0
 13 28  1  0  0  0  0
 14 30  1  0  0  0  0
 15 19  2  0  0  0  0
 15 29  1  0  0  0  0
 16 24  1  0  0  0  0
 16 27  2  0  0  0  0
 17 30  2  0  0  0  0
 17 31  1  0  0  0  0
 18 32  1  0  0  0  0
 19 35  1  0  0  0  0
 20 32  1  0  0  0  0
 20 33  2  0  0  0  0
 20 36  1  0  0  0  0
 21 23  2  0  0  0  0
 21 41  1  0  0  0  0
 22 24  2  0  0  0  0
 22 42  1  0  0  0  0
 23 50  1  0  0  0  0
 24 43  1  0  0  0  0
 25 29  2  0  0  0  0
 25 59  1  0  0  0  0
 26 80  1  0  0  0  0
 27 82  1  0  0  0  0
 28 31  2  0  0  0  0
 28 80  1  0  0  0  0
 29 81  1  0  0  0  0
 30 83  1  0  0  0  0
 31 84  1  0  0  0  0
 32 64  2  0  0  0  0
 33 67  1  0  0  0  0
 33 70  1  0  0  0  0
 34 35  1  0  0  0  0
 34 66  2  0  0  0  0
 35 65  2  0  0  0  0
 36 71  1  0  0  0  0
 36 75  2  0  0  0  0
 37 51  1  0  0  0  0
 37 72  1  0  0  0  0
 37 76  2  0  0  0  0
 38 61  1  0  0  0  0
 38 68  1  0  0  0  0
 38 77  2  0  0  0  0
 39 62  1  0  0  0  0
 39 73  1  0  0  0  0
 39 78  2  0  0  0  0
 40 66  1  0  0  0  0
 40 69  1  0  0  0  0
 40 79  2  0  0  0  0
 41 44  1  0  0  0  0
 42 51  1  0  0  0  0
 43 68  1  0  0  0  0
 44 46  1  0  0  0  0
 45 47  1  0  0  0  0
 45 48  1  0  0  0  0
 46 50  1  0  0  0  0
 47 52  1  0  0  0  0
 48 69  1  0  0  0  0
 49 52  1  0  0  0  0
 49 69  1  0  0  0  0
 50 72  1  0  0  0  0
 51 68  1  0  0  0  0
 52 67  1  0  0  0  0
 53 62  1  0  0  0  0
 54 63  1  0  0  0  0
 55 63  1  0  0  0  0
 56 63  1  0  0  0  0
 57 74  1  0  0  0  0
 58 81  1  0  0  0  0
 59 60  1  0  0  0  0
 60 82  1  0  0  0  0
 61 63  1  0  0  0  0
 61 73  1  0  0  0  0
 62 74  1  0  0  0  0
 64 67  1  0  0  0  0
M  CHG  1  74   1
M  ISO  4  40 100  60 101  66 100  82 101
M  END
> <Batch ID>
0097

> <Smiles>
CNC(C)C(=O)NC(C(=O)N1Cc2cc([101O:1][101CH:1]=Cc3ccc(C(=N)C[100NH:0][100C:0](=O)N4CCCC(n5nc(-c6ccc(Oc7ccc(F)cc7F)cc6)c(C(N)=O)c5N)C4)cc3OC)ccc2CC1C(=O)NC1CCCc2ccccc21)C(C)(C)C

> <Shape>
0.186

> <Color>
0.096

> <Negative vol penalty>
0.000

$$$$

  -OEChem-04052300493D

 80 88  0     1  0  0  0  0  0999 V2000
  -26.2946  -30.9958   12.5105 C   0  0  0  0  0  0  0  0  0  0  0  0
  -25.9639  -29.6680   12.7615 C   0  0  0  0  0  0  0  0  0  0  0  0
  -22.9714   -9.9195   19.9995 C   0  0  0  0  0  0  0  0  0  0  0  0
  -23.7529   -9.9485   22.2855 C   0  0  0  0  0  0  0  0  0  0  0  0
  -29.3447  -16.8840   19.7602 C   0  0  0  0  0  0  0  0  0  0  0  0
  -27.3347  -31.5993   13.2162 C   0  0  0  0  0  0  0  0  0  0  0  0
  -26.6738  -28.9426   13.7176 C   0  0  0  0  0  0  0  0  0  0  0  0
  -25.7979  -23.7376   18.5608 C   0  0  0  0  0  0  0  0  0  0  0  0
  -28.6612  -18.0042   19.2875 C   0  0  0  0  0  0  0  0  0  0  0  0
  -22.2021   -8.7895   20.2769 C   0  0  0  0  0  0  0  0  0  0  0  0
  -22.9835   -8.8186   22.5628 C   0  0  0  0  0  0  0  0  0  0  0  0
  -26.3526  -22.5166   18.9421 C   0  0  0  0  0  0  0  0  0  0  0  0
  -23.1882   -5.4811   22.0627 C   0  0  0  0  0  0  0  0  0  0  0  0
  -23.7854   -4.4539   22.7933 C   0  0  0  0  0  0  0  0  0  0  0  0
  -28.9348  -17.5929   22.0332 C   0  0  0  0  0  0  0  0  0  0  0  0
  -28.0779  -23.6865   20.1561 C   0  0  0  0  0  0  0  0  0  0  0  0
  -22.1049   -4.6994   24.5117 C   0  0  0  0  0  0  0  0  0  0  0  0
  -23.7468  -10.4990   21.0038 C   0  0  0  0  0  0  0  0  0  0  0  0
  -29.4814  -16.6783   21.1331 C   0  0  0  0  0  0  0  0  0  0  0  0
  -24.1488  -13.0125   20.8354 C   0  0  0  0  0  0  0  0  0  0  0  0
  -28.0514  -30.8838   14.1883 C   0  0  0  0  0  0  0  0  0  0  0  0
  -26.3863  -24.9442   18.9660 C   0  0  0  0  0  0  0  0  0  0  0  0
  -27.7253  -29.5367   14.4360 C   0  0  0  0  0  0  0  0  0  0  0  0
  -27.5272  -24.9214   19.7807 C   0  0  0  0  0  0  0  0  0  0  0  0
  -28.1145  -18.9189   20.1876 C   0  0  0  0  0  0  0  0  0  0  0  0
  -28.2513  -18.7133   21.5605 C   0  0  0  0  0  0  0  0  0  0  0  0
  -22.2081   -8.2391   21.5585 C   0  0  0  0  0  0  0  0  0  0  0  0
  -27.4945  -22.4910   19.7374 C   0  0  0  0  0  0  0  0  0  0  0  0
  -22.0495   -6.1175   22.5565 C   0  0  0  0  0  0  0  0  0  0  0  0
  -23.2437   -4.0630   24.0178 C   0  0  0  0  0  0  0  0  0  0  0  0
  -21.5078   -5.7266   23.7810 C   0  0  0  0  0  0  0  0  0  0  0  0
  -24.5422  -11.6659   20.7178 C   0  0  0  0  0  0  0  0  0  0  0  0
  -25.2554  -13.7284   20.4489 C   0  0  0  0  0  0  0  0  0  0  0  0
  -30.1946  -15.5104   21.6257 C   0  0  0  0  0  0  0  0  0  0  0  0
  -22.8953  -13.5666   21.2564 C   0  0  0  0  0  0  0  0  0  0  0  0
  -30.7873  -14.5206   20.6972 C   0  0  0  0  0  0  0  0  0  0  0  0
  -27.7044  -27.4138   17.4602 C   0  0  0  0  0  0  0  0  0  0  0  0
  -27.8123  -28.6770   20.4460 C   0  0  0  0  0  0  0  0  0  0  0  0
  -27.8722  -28.1450   23.8165 C   0  0  0  0  0  0  0  0  0  0  0  0
  -29.1985  -31.5647   14.8920 C   0  0  0  0  0  0  0  0  0  0  0  0
  -25.7602  -26.2528   18.5684 C   0  0  0  0  0  0  0  0  0  0  0  0
  -28.1855  -26.1888   20.2592 C   0  0  0  0  0  0  0  0  0  0  0  0
  -29.6560  -30.8384   16.1544 C   0  0  0  0  0  0  0  0  0  0  0  0
  -29.5389  -12.2447   18.2237 C   0  0  0  0  0  0  0  0  0  0  0  0
  -29.7990  -29.3433   15.8880 C   0  0  0  0  0  0  0  0  0  0  0  0
  -28.1075  -11.9722   18.6850 C   0  0  0  0  0  0  0  0  0  0  0  0
  -30.4788  -12.4441   19.4082 C   0  0  0  0  0  0  0  0  0  0  0  0
  -28.6043  -13.2474   20.8187 C   0  0  0  0  0  0  0  0  0  0  0  0
  -28.4558  -28.7241   15.4830 C   0  0  1  0  0  0  0  0  0  0  0  0
  -26.7397  -27.4215   18.6122 C   0  0  1  0  0  0  0  0  0  0  0  0
  -27.6203  -13.0681   19.6495 C   0  0  2  0  0  0  0  0  0  0  0  0
  -27.9999  -29.3710   26.0023 C   0  0  0  0  0  0  0  0  0  0  0  0
  -30.7924  -29.1565   20.0001 C   0  0  0  0  0  0  0  0  0  0  0  0
  -31.0398  -29.4753   22.4710 C   0  0  0  0  0  0  0  0  0  0  0  0
  -29.5962  -31.0255   21.1535 C   0  0  0  0  0  0  0  0  0  0  0  0
  -25.2464  -27.0964   24.6909 C   0  0  0  0  0  0  0  0  0  0  0  0
  -27.3874  -20.1167   19.6511 C   0  0  0  0  0  0  0  0  0  1  0  0
  -28.8104  -28.6603   21.5785 C   0  0  1  0  0  0  0  0  0  0  0  0
  -27.0802  -28.7723   24.9495 C   0  0  2  0  0  0  0  0  0  0  0  0
  -30.0486  -29.5554   21.2903 C   0  0  0  0  0  0  0  0  0  0  0  0
  -25.8003  -11.5317   20.2900 N   0  0  0  0  0  0  0  0  0  0  0  0
  -30.3623  -15.2561   22.8954 N   0  0  0  0  0  0  0  0  0  0  0  0
  -26.2071  -12.8032   20.1352 N   0  0  0  0  0  0  0  0  0  0  0  0
  -29.9688  -13.4645   20.3218 N   0  0  0  0  0  0  0  0  0  0  0  0
  -27.5395  -27.4431   19.8386 N   0  0  0  0  0  0  0  0  0  0  0  0
  -27.7060  -19.6302   22.4860 N   0  0  0  0  0  0  0  0  0  0  0  0
  -25.4974  -15.0528   20.3501 N   0  0  0  0  0  0  0  0  0  0  0  0
  -21.8648  -12.6886   21.6191 N   0  0  0  0  0  0  0  0  0  0  0  0
  -27.6185  -28.5277   16.6469 N   0  0  0  0  0  0  0  0  0  0  0  0
  -28.0709  -29.0322   22.7798 N   0  0  0  0  0  0  0  0  0  0  0  0
  -26.2169  -27.7502   25.6060 N   0  3  0  0  0  0  0  0  0  0  0  0
  -22.6896  -14.8035   21.2938 O   0  0  0  0  0  0  0  0  0  0  0  0
  -31.9428  -14.7410   20.3588 O   0  0  0  0  0  0  0  0  0  0  0  0
  -28.4711  -26.4681   17.3205 O   0  0  0  0  0  0  0  0  0  0  0  0
  -27.2885  -29.7443   20.1173 O   0  0  0  0  0  0  0  0  0  0  0  0
  -28.2774  -26.9852   23.8495 O   0  0  0  0  0  0  0  0  0  0  0  0
  -21.4573   -7.1366   21.8295 O   0  0  0  0  0  0  0  0  0  0  0  0
  -28.0384  -21.3006   20.1104 O   0  0  0  0  0  0  0  0  0  1  0  0
  -23.8163   -3.0756   24.7187 F   0  0  0  0  0  0  0  0  0  0  0  0
  -20.4132   -6.3335   24.2601 F   0  0  0  0  0  0  0  0  0  0  0  0
  1  2  1  0  0  0  0
  1  6  2  0  0  0  0
  2  7  2  0  0  0  0
  3 10  2  0  0  0  0
  3 18  1  0  0  0  0
  4 11  1  0  0  0  0
  4 18  2  0  0  0  0
  5  9  2  0  0  0  0
  5 19  1  0  0  0  0
  6 21  1  0  0  0  0
  7 23  1  0  0  0  0
  8 12  2  0  0  0  0
  8 22  1  0  0  0  0
  9 25  1  0  0  0  0
 10 27  1  0  0  0  0
 11 27  2  0  0  0  0
 12 28  1  0  0  0  0
 13 14  2  0  0  0  0
 13 29  1  0  0  0  0
 14 30  1  0  0  0  0
 15 19  2  0  0  0  0
 15 26  1  0  0  0  0
 16 24  1  0  0  0  0
 16 28  2  0  0  0  0
 17 30  2  0  0  0  0
 17 31  1  0  0  0  0
 18 32  1  0  0  0  0
 19 34  1  0  0  0  0
 20 32  1  0  0  0  0
 20 33  2  0  0  0  0
 20 35  1  0  0  0  0
 21 23  2  0  0  0  0
 21 40  1  0  0  0  0
 22 24  2  0  0  0  0
 22 41  1  0  0  0  0
 23 49  1  0  0  0  0
 24 42  1  0  0  0  0
 25 26  2  0  0  0  0
 25 57  1  0  0  0  0
 26 66  1  0  0  0  0
 27 77  1  0  0  0  0
 28 78  1  0  0  0  0
 29 31  2  0  0  0  0
 29 77  1  0  0  0  0
 30 79  1  0  0  0  0
 31 80  1  0  0  0  0
 32 61  2  0  0  0  0
 33 63  1  0  0  0  0
 33 67  1  0  0  0  0
 34 36  1  0  0  0  0
 34 62  2  0  0  0  0
 35 68  1  0  0  0  0
 35 72  2  0  0  0  0
 36 64  1  0  0  0  0
 36 73  2  0  0  0  0
 37 50  1  0  0  0  0
 37 69  1  0  0  0  0
 37 74  2  0  0  0  0
 38 58  1  0  0  0  0
 38 65  1  0  0  0  0
 38 75  2  0  0  0  0
 39 59  1  0  0  0  0
 39 70  1  0  0  0  0
 39 76  2  0  0  0  0
 40 43  1  0  0  0  0
 41 50  1  0  0  0  0
 42 65  1  0  0  0  0
 43 45  1  0  0  0  0
 44 46  1  0  0  0  0
 44 47  1  0  0  0  0
 45 49  1  0  0  0  0
 46 51  1  0  0  0  0
 47 64  1  0  0  0  0
 48 51  1  0  0  0  0
 48 64  1  0  0  0  0
 49 69  1  0  0  0  0
 50 65  1  0  0  0  0
 51 63  1  0  0  0  0
 52 59  1  0  0  0  0
 53 60  1  0  0  0  0
 54 60  1  0  0  0  0
 55 60  1  0  0  0  0
 56 71  1  0  0  0  0
 57 78  1  0  0  0  0
 58 60  1  0  0  0  0
 58 70  1  0  0  0  0
 59 71  1  0  0  0  0
 61 63  1  0  0  0  0
M  CHG  1  71   1
M  ISO  4  34 100  36 100  57 101  78 101
M  END
> <Batch ID>
0097

> <Smiles>
CNC(C)C(=O)NC(C(=O)N1Cc2cc([101O:1][101CH2:1]c3ccc([100C:0](=N)[100C:0](=O)N4CCCC(n5nc(-c6ccc(Oc7ccc(F)cc7F)cc6)c(C(N)=O)c5N)C4)cc3N)ccc2CC1C(=O)NC1CCCc2ccccc21)C(C)(C)C

> <Shape>
0.279

> <Color>
0.192

> <Negative vol penalty>
0.000

$$$$

  -OEChem-04052300493D

 85 93  0     1  0  0  0  0  0999 V2000
  -29.4370  -33.2450   26.8787 C   0  0  0  0  0  0  0  0  0  0  0  0
  -29.4208  -32.1489   26.0221 C   0  0  0  0  0  0  0  0  0  0  0  0
  -22.9366  -10.9058   19.1585 C   0  0  0  0  0  0  0  0  0  0  0  0
  -23.0918   -9.8823   21.3414 C   0  0  0  0  0  0  0  0  0  0  0  0
  -30.2060  -19.2514   20.0394 C   0  0  0  0  0  0  0  0  0  0  0  0
  -28.2371  -33.7995   27.3221 C   0  0  0  0  0  0  0  0  0  0  0  0
  -28.2046  -31.6058   25.6094 C   0  0  0  0  0  0  0  0  0  0  0  0
  -26.9453  -29.1167   20.1574 C   0  0  0  0  0  0  0  0  0  0  0  0
  -29.3451  -20.3475   19.9851 C   0  0  0  0  0  0  0  0  0  0  0  0
  -21.9267  -10.0092   18.8098 C   0  0  0  0  0  0  0  0  0  0  0  0
  -22.0818   -8.9856   20.9928 C   0  0  0  0  0  0  0  0  0  0  0  0
  -26.8970  -27.7942   19.7187 C   0  0  0  0  0  0  0  0  0  0  0  0
  -18.7113   -9.0050   20.7482 C   0  0  0  0  0  0  0  0  0  0  0  0
  -17.6987   -8.7776   21.6800 C   0  0  0  0  0  0  0  0  0  0  0  0
  -28.5608  -17.9026   18.8943 C   0  0  0  0  0  0  0  0  0  0  0  0
  -24.5117  -27.7686   20.0779 C   0  0  0  0  0  0  0  0  0  0  0  0
  -18.2796   -6.4332   21.7391 C   0  0  0  0  0  0  0  0  0  0  0  0
  -23.5193  -10.8423   20.4243 C   0  0  0  0  0  0  0  0  0  0  0  0
  -29.8139  -18.0289   19.4940 C   0  0  0  0  0  0  0  0  0  0  0  0
  -24.4085  -13.0305   21.3880 C   0  0  0  0  0  0  0  0  0  0  0  0
  -27.0055  -33.2690   26.9069 C   0  0  0  0  0  0  0  0  0  0  0  0
  -25.7768  -29.7727   20.5707 C   0  0  0  0  0  0  0  0  0  0  0  0
  -26.9871  -32.1529   26.0488 C   0  0  0  0  0  0  0  0  0  0  0  0
  -24.5475  -29.1002   20.5190 C   0  0  0  0  0  0  0  0  0  0  0  0
  -28.0921  -20.2212   19.3854 C   0  0  0  0  0  0  0  0  0  0  0  0
  -21.4993   -9.0491   19.7269 C   0  0  0  0  0  0  0  0  0  0  0  0
  -25.6805  -27.1190   19.6817 C   0  0  0  0  0  0  0  0  0  0  0  0
  -19.5081   -7.9466   20.3117 C   0  0  0  0  0  0  0  0  0  0  0  0
  -17.4828   -7.4917   22.1755 C   0  0  0  0  0  0  0  0  0  0  0  0
  -27.6999  -18.9987   18.8400 C   0  0  0  0  0  0  0  0  0  0  0  0
  -19.2922   -6.6607   20.8072 C   0  0  0  0  0  0  0  0  0  0  0  0
  -24.5630  -11.7679   20.7848 C   0  0  0  0  0  0  0  0  0  0  0  0
  -25.6900  -13.5066   21.5211 C   0  0  0  0  0  0  0  0  0  0  0  0
  -30.7300  -16.8609   19.5512 C   0  0  0  0  0  0  0  0  0  0  0  0
  -23.2135  -13.7120   21.7921 C   0  0  0  0  0  0  0  0  0  0  0  0
  -24.7749  -31.0665   23.2958 C   0  0  0  0  0  0  0  0  0  0  0  0
  -26.4073  -23.5647   19.6391 C   0  0  0  0  0  0  0  0  0  0  0  0
  -22.2722  -32.0244   21.4680 C   0  0  0  0  0  0  0  0  0  0  0  0
  -20.3605  -31.5295   18.6846 C   0  0  0  0  0  0  0  0  0  0  0  0
  -30.7922  -14.3871   19.5488 C   0  0  0  0  0  0  0  0  0  0  0  0
  -25.7348  -33.8728   27.4504 C   0  0  0  0  0  0  0  0  0  0  0  0
  -25.8418  -31.2079   21.0159 C   0  0  0  0  0  0  0  0  0  0  0  0
  -23.2614  -29.7660   20.9327 C   0  0  0  0  0  0  0  0  0  0  0  0
  -24.4867  -33.4716   26.6683 C   0  0  0  0  0  0  0  0  0  0  0  0
  -30.1499  -11.1863   20.9049 C   0  0  0  0  0  0  0  0  0  0  0  0
  -24.4804  -31.9687   26.4072 C   0  0  0  0  0  0  0  0  0  0  0  0
  -28.6262  -11.1559   21.0530 C   0  0  0  0  0  0  0  0  0  0  0  0
  -30.5821  -11.9184   19.6353 C   0  0  0  0  0  0  0  0  0  0  0  0
  -28.4997  -13.2305   19.6162 C   0  0  0  0  0  0  0  0  0  0  0  0
  -25.6878  -31.5511   25.5591 C   0  0  1  0  0  0  0  0  0  0  0  0
  -24.6666  -31.6130   21.9003 C   0  0  1  0  0  0  0  0  0  0  0  0
  -28.0163  -12.5654   20.9151 C   0  0  1  0  0  0  0  0  0  0  0  0
  -18.3626  -32.4510   17.4777 C   0  0  0  0  0  0  0  0  0  0  0  0
  -20.4327  -30.7290   23.5291 C   0  0  0  0  0  0  0  0  0  0  0  0
  -18.5848  -30.8340   21.8432 C   0  0  0  0  0  0  0  0  0  0  0  0
  -19.6405  -32.9387   22.6666 C   0  0  0  0  0  0  0  0  0  0  0  0
  -21.9592  -32.1523   16.2731 C   0  0  0  0  0  0  0  0  0  0  0  0
  -27.5592  -22.6100   19.8706 C   0  0  0  0  0  0  0  0  0  0  0  0
  -26.7878  -25.0239   19.4803 C   0  0  0  0  0  0  0  0  0  1  0  0
  -20.9324  -31.4359   21.0967 C   0  0  1  0  0  0  0  0  0  0  0  0
  -19.8770  -32.4880   17.6112 C   0  0  2  0  0  0  0  0  0  0  0  0
  -19.9219  -31.4710   22.2779 C   0  0  0  0  0  0  0  0  0  0  0  0
  -25.8418  -11.4613   20.5507 N   0  0  0  0  0  0  0  0  0  0  0  0
  -26.5025  -12.5381   21.0091 N   0  0  0  0  0  0  0  0  0  0  0  0
  -23.3777  -31.1681   21.3664 N   0  0  0  0  0  0  0  0  0  0  0  0
  -29.9700  -13.2474   19.5851 N   0  0  0  0  0  0  0  0  0  0  0  0
  -26.1898  -14.6550   22.0249 N   0  0  0  0  0  0  0  0  0  0  0  0
  -21.9804  -13.0797   21.5824 N   0  0  0  0  0  0  0  0  0  0  0  0
  -27.2372  -21.3128   19.3332 N   0  0  0  0  0  0  0  0  0  0  0  0
  -30.1121  -15.6100   19.5455 N   0  0  0  0  0  0  0  0  0  0  0  0
  -25.4677  -31.8842   24.1680 N   0  0  0  0  0  0  0  0  0  0  0  0
  -20.4867  -32.1539   19.9075 N   0  0  0  0  0  0  0  0  0  0  0  0
  -20.4739  -32.1328   16.2927 N   0  3  0  0  0  0  0  0  0  0  0  0
  -31.9430  -17.0521   19.5597 O   0  0  0  0  0  0  0  0  0  0  0  0
  -23.2374  -14.8550   22.3082 O   0  0  0  0  0  0  0  0  0  0  0  0
  -24.2663  -29.9838   23.5618 O   0  0  0  0  0  0  0  0  0  0  0  0
  -25.2359  -23.1926   19.5822 O   0  0  0  0  0  0  0  0  0  0  0  0
  -22.3364  -33.2025   21.8278 O   0  0  0  0  0  0  0  0  0  0  0  0
  -20.5985  -30.3446   18.4614 O   0  0  0  0  0  0  0  0  0  0  0  0
  -32.0255  -14.3228   19.5571 O   0  0  0  0  0  0  0  0  0  0  0  0
  -20.5136   -8.1741   19.3871 O   0  0  0  0  0  0  0  0  0  0  0  0
  -25.6306  -25.8279   19.2545 O   0  0  0  0  0  0  0  0  0  1  0  0
  -16.5113   -7.2737   23.0715 F   0  0  0  0  0  0  0  0  0  0  0  0
  -26.4979  -18.8659   18.2614 F   0  0  0  0  0  0  0  0  0  0  0  0
  -20.0552   -5.6400   20.3926 F   0  0  0  0  0  0  0  0  0  0  0  0
  1  2  1  0  0  0  0
  1  6  2  0  0  0  0
  2  7  2  0  0  0  0
  3 10  2  0  0  0  0
  3 18  1  0  0  0  0
  4 11  1  0  0  0  0
  4 18  2  0  0  0  0
  5  9  2  0  0  0  0
  5 19  1  0  0  0  0
  6 21  1  0  0  0  0
  7 23  1  0  0  0  0
  8 12  2  0  0  0  0
  8 22  1  0  0  0  0
  9 25  1  0  0  0  0
 10 26  1  0  0  0  0
 11 26  2  0  0  0  0
 12 27  1  0  0  0  0
 13 14  2  0  0  0  0
 13 28  1  0  0  0  0
 14 29  1  0  0  0  0
 15 19  2  0  0  0  0
 15 30  1  0  0  0  0
 16 24  1  0  0  0  0
 16 27  2  0  0  0  0
 17 29  2  0  0  0  0
 17 31  1  0  0  0  0
 18 32  1  0  0  0  0
 19 34  1  0  0  0  0
 20 32  1  0  0  0  0
 20 33  2  0  0  0  0
 20 35  1  0  0  0  0
 21 23  2  0  0  0  0
 21 41  1  0  0  0  0
 22 24  2  0  0  0  0
 22 42  1  0  0  0  0
 23 50  1  0  0  0  0
 24 43  1  0  0  0  0
 25 30  2  0  0  0  0
 25 69  1  0  0  0  0
 26 81  1  0  0  0  0
 27 82  1  0  0  0  0
 28 31  2  0  0  0  0
 28 81  1  0  0  0  0
 29 83  1  0  0  0  0
 30 84  1  0  0  0  0
 31 85  1  0  0  0  0
 32 63  2  0  0  0  0
 33 64  1  0  0  0  0
 33 67  1  0  0  0  0
 34 70  1  0  0  0  0
 34 74  2  0  0  0  0
 35 68  1  0  0  0  0
 35 75  2  0  0  0  0
 36 51  1  0  0  0  0
 36 71  1  0  0  0  0
 36 76  2  0  0  0  0
 37 58  1  0  0  0  0
 37 59  1  0  0  0  0
 37 77  2  0  0  0  0
 38 60  1  0  0  0  0
 38 65  1  0  0  0  0
 38 78  2  0  0  0  0
 39 61  1  0  0  0  0
 39 72  1  0  0  0  0
 39 79  2  0  0  0  0
 40 66  1  0  0  0  0
 40 70  1  0  0  0  0
 40 80  2  0  0  0  0
 41 44  1  0  0  0  0
 42 51  1  0  0  0  0
 43 65  1  0  0  0  0
 44 46  1  0  0  0  0
 45 47  1  0  0  0  0
 45 48  1  0  0  0  0
 46 50  1  0  0  0  0
 47 52  1  0  0  0  0
 48 66  1  0  0  0  0
 49 52  1  0  0  0  0
 49 66  1  0  0  0  0
 50 71  1  0  0  0  0
 51 65  1  0  0  0  0
 52 64  1  0  0  0  0
 53 61  1  0  0  0  0
 54 62  1  0  0  0  0
 55 62  1  0  0  0  0
 56 62  1  0  0  0  0
 57 73  1  0  0  0  0
 58 69  1  0  0  0  0
 59 82  1  0  0  0  0
 60 62  1  0  0  0  0
 60 72  1  0  0  0  0
 61 73  1  0  0  0  0
 63 64  1  0  0  0  0
M  CHG  1  73   1
M  ISO  4  40 100  59 101  70 100  82 101
M  END
> <Batch ID>
0097

> <Smiles>
CNC(C)C(=O)NC(C(=O)N1Cc2cc([101O:1][101CH2:1]C(=O)CNc3ccc(C(=O)[100NH:0][100C:0](=O)N4CCCC(n5nc(-c6ccc(Oc7ccc(F)cc7F)cc6)c(C(N)=O)c5N)C4)cc3F)ccc2CC1C(=O)NC1CCCc2ccccc21)C(C)(C)C

> <Shape>
0.292

> <Color>
0.112

> <Negative vol penalty>
0.000

$$$$

  -OEChem-04052300493D

 86 94  0     1  0  0  0  0  0999 V2000
  -31.3870  -29.8276   17.0953 C   0  0  0  0  0  0  0  0  0  0  0  0
  -30.2992  -28.9718   17.2360 C   0  0  0  0  0  0  0  0  0  0  0  0
  -26.5364  -12.7248   21.7287 C   0  0  0  0  0  0  0  0  0  0  0  0
  -25.9296  -13.9856   19.7591 C   0  0  0  0  0  0  0  0  0  0  0  0
  -31.8511  -30.5497   18.1940 C   0  0  0  0  0  0  0  0  0  0  0  0
  -29.6756  -28.8368   18.4758 C   0  0  0  0  0  0  0  0  0  0  0  0
  -24.6243  -28.9426   18.1314 C   0  0  0  0  0  0  0  0  0  0  0  0
  -25.2815  -12.1160   21.7256 C   0  0  0  0  0  0  0  0  0  0  0  0
  -24.6747  -13.3767   19.7559 C   0  0  0  0  0  0  0  0  0  0  0  0
  -23.9914  -27.7798   17.6945 C   0  0  0  0  0  0  0  0  0  0  0  0
  -23.7284   -9.6192   20.0562 C   0  0  0  0  0  0  0  0  0  0  0  0
  -23.6765   -8.2401   20.2588 C   0  0  0  0  0  0  0  0  0  0  0  0
  -23.4546  -27.2208   19.9789 C   0  0  0  0  0  0  0  0  0  0  0  0
  -27.6973  -24.0048   18.7949 C   0  0  0  0  0  0  0  0  0  0  0  0
  -28.3496  -21.6801   18.7094 C   0  0  0  0  0  0  0  0  0  0  0  0
  -28.7626  -22.9781   20.7049 C   0  0  0  0  0  0  0  0  0  0  0  0
  -22.3162   -8.5804   22.2263 C   0  0  0  0  0  0  0  0  0  0  0  0
  -26.8605  -13.6597   20.7454 C   0  0  0  0  0  0  0  0  0  0  0  0
  -29.3221  -13.8387   20.1005 C   0  0  0  0  0  0  0  0  0  0  0  0
  -31.2267  -30.4307   19.4457 C   0  0  0  0  0  0  0  0  0  0  0  0
  -24.6867  -29.2483   19.4986 C   0  0  0  0  0  0  0  0  0  0  0  0
  -30.1326  -29.5569   19.5926 C   0  0  0  0  0  0  0  0  0  0  0  0
  -24.0866  -28.3895   20.4304 C   0  0  0  0  0  0  0  0  0  0  0  0
  -27.7771  -22.7973   18.1013 C   0  0  0  0  0  0  0  0  0  0  0  0
  -28.1901  -24.0952   20.0967 C   0  0  0  0  0  0  0  0  0  0  0  0
  -28.8424  -21.7705   20.0113 C   0  0  0  0  0  0  0  0  0  0  0  0
  -24.3506  -12.4419   20.7392 C   0  0  0  0  0  0  0  0  0  0  0  0
  -23.4089  -26.9172   18.6185 C   0  0  0  0  0  0  0  0  0  0  0  0
  -23.0743  -10.4789   20.9387 C   0  0  0  0  0  0  0  0  0  0  0  0
  -22.9704   -7.7207   21.3438 C   0  0  0  0  0  0  0  0  0  0  0  0
  -22.3682   -9.9595   22.0237 C   0  0  0  0  0  0  0  0  0  0  0  0
  -28.1565  -14.2895   20.7485 C   0  0  0  0  0  0  0  0  0  0  0  0
  -30.2728  -14.7806   20.4096 C   0  0  0  0  0  0  0  0  0  0  0  0
  -29.5273  -12.6729   19.2916 C   0  0  0  0  0  0  0  0  0  0  0  0
  -27.0350  -29.6364   21.6054 C   0  0  0  0  0  0  0  0  0  0  0  0
  -24.6053  -30.5183   23.5653 C   0  0  0  0  0  0  0  0  0  0  0  0
  -25.0654  -23.1481   15.6094 C   0  0  0  0  0  0  0  0  0  0  0  0
  -21.2782  -30.3578   24.3081 C   0  0  0  0  0  0  0  0  0  0  0  0
  -29.9602  -20.5551   21.9138 C   0  0  0  0  0  0  0  0  0  0  0  0
  -31.7937  -31.1957   20.6153 C   0  0  0  0  0  0  0  0  0  0  0  0
  -25.3498  -30.5202   19.9516 C   0  0  0  0  0  0  0  0  0  0  0  0
  -24.1084  -28.6824   21.9077 C   0  0  0  0  0  0  0  0  0  0  0  0
  -30.8428  -31.2800   21.8065 C   0  0  0  0  0  0  0  0  0  0  0  0
  -31.4489  -17.9374   23.8134 C   0  0  0  0  0  0  0  0  0  0  0  0
  -30.2377  -29.9118   22.1043 C   0  0  0  0  0  0  0  0  0  0  0  0
  -30.8843  -16.6637   23.1801 C   0  0  0  0  0  0  0  0  0  0  0  0
  -30.4142  -19.0609   23.8467 C   0  0  0  0  0  0  0  0  0  0  0  0
  -29.2218  -18.0914   21.9213 C   0  0  0  0  0  0  0  0  0  0  0  0
  -29.4140  -29.4023   20.9154 C   0  0  1  0  0  0  0  0  0  0  0  0
  -25.8021  -30.4723   21.4078 C   0  0  1  0  0  0  0  0  0  0  0  0
  -30.2474  -16.9518   21.8065 C   0  0  2  0  0  0  0  0  0  0  0  0
  -19.5954  -31.1504   25.9926 C   0  0  0  0  0  0  0  0  0  0  0  0
  -25.6247  -28.4432   25.5565 C   0  0  0  0  0  0  0  0  0  0  0  0
  -23.4250  -28.6018   26.7416 C   0  0  0  0  0  0  0  0  0  0  0  0
  -24.9013  -30.6062   26.5824 C   0  0  0  0  0  0  0  0  0  0  0  0
  -19.7419  -31.8314   22.2522 C   0  0  0  0  0  0  0  0  0  0  0  0
  -27.2467  -22.7002   16.7000 C   0  0  0  0  0  0  0  0  0  0  0  0
  -28.1046  -25.3864   20.8383 C   0  0  0  0  0  0  0  0  0  0  0  0
  -23.5744  -22.9646   15.8294 C   0  0  0  0  0  0  0  0  0  0  0  0
  -23.0786  -23.6736   17.0846 C   0  0  0  0  0  0  0  0  0  0  0  0
  -23.2876  -25.1786   17.0003 C   0  0  0  0  0  0  0  0  0  1  0  0
  -23.6852  -29.7956   24.5194 C   0  0  1  0  0  0  0  0  0  0  0  0
  -20.2717  -31.4379   24.6612 C   0  0  2  0  0  0  0  0  0  0  0  0
  -24.4102  -29.3549   25.8224 C   0  0  0  0  0  0  0  0  0  0  0  0
  -28.3469  -15.4290   21.4186 N   0  0  0  0  0  0  0  0  0  0  0  0
  -29.6434  -15.7022   21.1936 N   0  0  0  0  0  0  0  0  0  0  0  0
  -24.7742  -29.9350   22.3016 N   0  0  0  0  0  0  0  0  0  0  0  0
  -29.8572  -19.2806   22.5101 N   0  0  0  0  0  0  0  0  0  0  0  0
  -31.5774  -14.9021   20.0845 N   0  0  0  0  0  0  0  0  0  0  0  0
  -28.4435  -11.8110   19.0747 N   0  0  0  0  0  0  0  0  0  0  0  0
  -29.4238  -20.6357   20.6291 N   0  0  0  0  0  0  0  0  0  0  0  0
  -28.1266  -30.0619   20.8728 N   0  0  0  0  0  0  0  0  0  0  0  0
  -25.8043  -22.6462   16.6708 N   0  0  0  0  0  0  0  0  0  0  0  0
  -22.5473  -30.6817   24.7391 N   0  0  0  0  0  0  0  0  0  0  0  0
  -26.8466  -25.5364   21.6207 N   0  3  0  0  0  0  0  0  0  0  0  0
  -19.2196  -31.5291   23.6097 N   0  3  0  0  0  0  0  0  0  0  0  0
  -30.6428  -12.3947   18.7899 O   0  0  0  0  0  0  0  0  0  0  0  0
  -26.9989  -28.6774   22.3674 O   0  0  0  0  0  0  0  0  0  0  0  0
  -25.1483  -31.5657   23.9255 O   0  0  0  0  0  0  0  0  0  0  0  0
  -25.5396  -23.6774   14.6079 O   0  0  0  0  0  0  0  0  0  0  0  0
  -20.9689  -29.3278   23.7131 O   0  0  0  0  0  0  0  0  0  0  0  0
  -30.5098  -21.4981   22.4888 O   0  0  0  0  0  0  0  0  0  0  0  0
  -23.1261  -11.8478   20.7357 O   0  0  0  0  0  0  0  0  0  0  0  0
  -22.7911  -25.7811   18.1948 O   0  0  0  0  0  0  0  0  0  1  0  0
  -22.9194   -6.3963   21.5374 F   0  0  0  0  0  0  0  0  0  0  0  0
  -21.7367  -10.7803   22.8742 F   0  0  0  0  0  0  0  0  0  0  0  0
  1  2  1  0  0  0  0
  1  5  2  0  0  0  0
  2  6  2  0  0  0  0
  3  8  2  0  0  0  0
  3 18  1  0  0  0  0
  4  9  1  0  0  0  0
  4 18  2  0  0  0  0
  5 20  1  0  0  0  0
  6 22  1  0  0  0  0
  7 10  2  0  0  0  0
  7 21  1  0  0  0  0
  8 27  1  0  0  0  0
  9 27  2  0  0  0  0
 10 28  1  0  0  0  0
 11 12  2  0  0  0  0
 11 29  1  0  0  0  0
 12 30  1  0  0  0  0
 13 23  1  0  0  0  0
 13 28  2  0  0  0  0
 14 24  1  0  0  0  0
 14 25  2  0  0  0  0
 15 24  2  0  0  0  0
 15 26  1  0  0  0  0
 16 25  1  0  0  0  0
 16 26  2  0  0  0  0
 17 30  2  0  0  0  0
 17 31  1  0  0  0  0
 18 32  1  0  0  0  0
 19 32  1  0  0  0  0
 19 33  2  0  0  0  0
 19 34  1  0  0  0  0
 20 22  2  0  0  0  0
 20 40  1  0  0  0  0
 21 23  2  0  0  0  0
 21 41  1  0  0  0  0
 22 49  1  0  0  0  0
 23 42  1  0  0  0  0
 24 57  1  0  0  0  0
 25 58  1  0  0  0  0
 26 71  1  0  0  0  0
 27 83  1  0  0  0  0
 28 84  1  0  0  0  0
 29 31  2  0  0  0  0
 29 83  1  0  0  0  0
 30 85  1  0  0  0  0
 31 86  1  0  0  0  0
 32 65  2  0  0  0  0
 33 66  1  0  0  0  0
 33 69  1  0  0  0  0
 34 70  1  0  0  0  0
 34 77  2  0  0  0  0
 35 50  1  0  0  0  0
 35 72  1  0  0  0  0
 35 78  2  0  0  0  0
 36 62  1  0  0  0  0
 36 67  1  0  0  0  0
 36 79  2  0  0  0  0
 37 59  1  0  0  0  0
 37 73  1  0  0  0  0
 37 80  2  0  0  0  0
 38 63  1  0  0  0  0
 38 74  1  0  0  0  0
 38 81  2  0  0  0  0
 39 68  1  0  0  0  0
 39 71  1  0  0  0  0
 39 82  2  0  0  0  0
 40 43  1  0  0  0  0
 41 50  1  0  0  0  0
 42 67  1  0  0  0  0
 43 45  1  0  0  0  0
 44 46  1  0  0  0  0
 44 47  1  0  0  0  0
 45 49  1  0  0  0  0
 46 51  1  0  0  0  0
 47 68  1  0  0  0  0
 48 51  1  0  0  0  0
 48 68  1  0  0  0  0
 49 72  1  0  0  0  0
 50 67  1  0  0  0  0
 51 66  1  0  0  0  0
 52 63  1  0  0  0  0
 53 64  1  0  0  0  0
 54 64  1  0  0  0  0
 55 64  1  0  0  0  0
 56 76  1  0  0  0  0
 57 73  1  0  0  0  0
 58 75  1  0  0  0  0
 59 60  1  0  0  0  0
 60 61  1  0  0  0  0
 61 84  1  0  0  0  0
 62 64  1  0  0  0  0
 62 74  1  0  0  0  0
 63 76  1  0  0  0  0
 65 66  1  0  0  0  0
M  CHG  2  75   1  76   1
M  ISO  4  39 100  61 101  71 100  84 101
M  END
> <Batch ID>
0097

> <Smiles>
CNC(C)C(=O)NC(C(=O)N1Cc2cc([101O:1][101CH2:1]CCC(=O)NCc3cc(CN)cc([100NH:0][100C:0](=O)N4CCCC(n5nc(-c6ccc(Oc7ccc(F)cc7F)cc6)c(C(N)=O)c5N)C4)c3)ccc2CC1C(=O)NC1CCCc2ccccc21)C(C)(C)C

> <Shape>
0.256

> <Color>
0.062

> <Negative vol penalty>
0.000

$$$$

  -OEChem-04052300493D

 86 95  0     1  0  0  0  0  0999 V2000
  -27.4864  -33.1214   15.7385 C   0  0  0  0  0  0  0  0  0  0  0  0
  -27.4908  -31.8106   16.2046 C   0  0  0  0  0  0  0  0  0  0  0  0
  -23.2482   -9.6832   21.3208 C   0  0  0  0  0  0  0  0  0  0  0  0
  -23.9055  -10.5867   23.4629 C   0  0  0  0  0  0  0  0  0  0  0  0
  -27.5550  -34.1814   16.6416 C   0  0  0  0  0  0  0  0  0  0  0  0
  -27.5648  -31.5591   17.5741 C   0  0  0  0  0  0  0  0  0  0  0  0
  -24.8839  -26.9756   20.6255 C   0  0  0  0  0  0  0  0  0  0  0  0
  -22.5719   -8.6474   21.9652 C   0  0  0  0  0  0  0  0  0  0  0  0
  -23.2292   -9.5509   24.1074 C   0  0  0  0  0  0  0  0  0  0  0  0
  -25.3577  -25.7432   21.0730 C   0  0  0  0  0  0  0  0  0  0  0  0
  -23.3489   -5.7198   23.4652 C   0  0  0  0  0  0  0  0  0  0  0  0
  -23.5243   -4.4269   22.9722 C   0  0  0  0  0  0  0  0  0  0  0  0
  -25.7795  -26.7012   23.2463 C   0  0  0  0  0  0  0  0  0  0  0  0
  -31.6522  -17.5643   21.4046 C   0  0  0  0  0  0  0  0  0  0  0  0
  -21.1516   -4.2676   22.5455 C   0  0  0  0  0  0  0  0  0  0  0  0
  -23.9150  -10.6529   22.0697 C   0  0  0  0  0  0  0  0  0  0  0  0
  -24.0943  -12.9778   21.0351 C   0  0  0  0  0  0  0  0  0  0  0  0
  -27.6201  -33.9429   18.0234 C   0  0  0  0  0  0  0  0  0  0  0  0
  -24.8645  -28.0848   21.4833 C   0  0  0  0  0  0  0  0  0  0  0  0
  -27.6356  -32.6169   18.4965 C   0  0  0  0  0  0  0  0  0  0  0  0
  -25.3026  -27.9461   22.8080 C   0  0  0  0  0  0  0  0  0  0  0  0
  -29.4076  -18.4317   21.6200 C   0  0  0  0  0  0  0  0  0  0  0  0
  -29.9170  -19.6199   22.1438 C   0  0  0  0  0  0  0  0  0  0  0  0
  -30.2752  -17.4039   21.2504 C   0  0  0  0  0  0  0  0  0  0  0  0
  -32.1616  -18.7525   21.9285 C   0  0  0  0  0  0  0  0  0  0  0  0
  -31.2941  -19.7803   22.2981 C   0  0  0  0  0  0  0  0  0  0  0  0
  -22.5624   -8.5812   23.3584 C   0  0  0  0  0  0  0  0  0  0  0  0
  -25.8083  -25.6065   22.3827 C   0  0  0  0  0  0  0  0  0  0  0  0
  -22.0748   -6.2867   23.4985 C   0  0  0  0  0  0  0  0  0  0  0  0
  -22.4257   -3.7008   22.5123 C   0  0  0  0  0  0  0  0  0  0  0  0
  -20.9762   -5.5606   23.0386 C   0  0  0  0  0  0  0  0  0  0  0  0
  -24.6143  -11.7229   21.4046 C   0  0  0  0  0  0  0  0  0  0  0  0
  -25.1494  -13.6247   20.4394 C   0  0  0  0  0  0  0  0  0  0  0  0
  -22.7755  -13.5111   21.2143 C   0  0  0  0  0  0  0  0  0  0  0  0
  -26.2586  -30.9414   21.4881 C   0  0  0  0  0  0  0  0  0  0  0  0
  -24.3623  -31.4305   24.0740 C   0  0  0  0  0  0  0  0  0  0  0  0
  -22.5808  -30.0866   26.6561 C   0  0  0  0  0  0  0  0  0  0  0  0
  -30.5218  -15.0815   20.3061 C   0  0  0  0  0  0  0  0  0  0  0  0
  -27.7405  -35.1202   18.9584 C   0  0  0  0  0  0  0  0  0  0  0  0
  -24.3254  -29.4007   20.9931 C   0  0  0  0  0  0  0  0  0  0  0  0
  -25.2836  -29.1009   23.7746 C   0  0  0  0  0  0  0  0  0  0  0  0
  -27.4385  -34.7750   20.4144 C   0  0  0  0  0  0  0  0  0  0  0  0
  -29.6733  -11.8906   18.9736 C   0  0  0  0  0  0  0  0  0  0  0  0
  -28.1609  -33.4943   20.8203 C   0  0  0  0  0  0  0  0  0  0  0  0
  -28.2387  -11.6658   19.4569 C   0  0  0  0  0  0  0  0  0  0  0  0
  -27.3949  -21.8387   23.6623 C   0  0  0  0  0  0  0  0  0  0  0  0
  -30.5181  -12.6129   20.0216 C   0  0  0  0  0  0  0  0  0  0  0  0
  -28.4751  -20.7739   23.8406 C   0  0  0  0  0  0  0  0  0  0  0  0
  -28.6104  -21.6935   21.6060 C   0  0  0  0  0  0  0  0  0  0  0  0
  -28.5092  -13.6422   21.0086 C   0  0  0  0  0  0  0  0  0  0  0  0
  -27.6898  -32.3040   19.9761 C   0  0  1  0  0  0  0  0  0  0  0  0
  -24.8312  -30.5918   21.8011 C   0  0  1  0  0  0  0  0  0  0  0  0
  -27.9485  -22.7125   22.5405 C   0  0  1  0  0  0  0  0  0  0  0  0
  -27.6021  -12.9757   19.9613 C   0  0  2  0  0  0  0  0  0  0  0  0
  -27.9295  -18.2574   21.4534 C   0  0  0  0  0  0  0  0  0  0  0  0
  -21.1684  -30.7393   28.6249 C   0  0  0  0  0  0  0  0  0  0  0  0
  -26.8756  -32.2260   25.6103 C   0  0  0  0  0  0  0  0  0  0  0  0
  -25.5828  -31.9407   27.7352 C   0  0  0  0  0  0  0  0  0  0  0  0
  -24.8762  -33.6568   26.0684 C   0  0  0  0  0  0  0  0  0  0  0  0
  -20.2198  -28.6616   25.5820 C   0  0  0  0  0  0  0  0  0  0  0  0
  -26.8850  -23.5526   21.8554 C   0  0  0  0  0  0  0  0  0  1  0  0
  -24.5033  -31.2084   25.5605 C   0  0  1  0  0  0  0  0  0  0  0  0
  -21.1718  -30.3531   27.1540 C   0  0  2  0  0  0  0  0  0  0  0  0
  -25.4618  -32.2365   26.2251 C   0  0  0  0  0  0  0  0  0  0  0  0
  -25.8997  -11.5790   21.0715 N   0  0  0  0  0  0  0  0  0  0  0  0
  -26.1963  -12.7519   20.4863 N   0  0  0  0  0  0  0  0  0  0  0  0
  -29.0568  -20.6340   22.5080 N   0  0  3  0  0  0  0  0  0  0  0  0
  -24.7533  -30.3686   23.2462 N   0  0  0  0  0  0  0  0  0  0  0  0
  -29.8547  -13.8465   20.4493 N   0  0  0  0  0  0  0  0  0  0  0  0
  -33.5601  -18.8919   22.0758 N   0  0  0  0  0  0  0  0  0  0  0  0
  -31.8128  -20.9856   22.8296 N   0  0  0  0  0  0  0  0  0  0  0  0
  -25.2744  -14.8494   19.8854 N   0  0  0  0  0  0  0  0  0  0  0  0
  -21.8121  -12.7127   21.8458 N   0  0  0  0  0  0  0  0  0  0  0  0
  -29.7798  -16.1886   20.7164 N   0  0  0  0  0  0  0  0  0  0  0  0
  -26.4032  -31.8321   20.4415 N   0  0  0  0  0  0  0  0  0  0  0  0
  -23.1496  -31.2151   26.1045 N   0  0  0  0  0  0  0  0  0  0  0  0
  -20.3243  -29.1390   26.9849 N   0  3  0  0  0  0  0  0  0  0  0  0
  -22.4563  -14.6552   20.8113 O   0  0  0  0  0  0  0  0  0  0  0  0
  -27.1618  -30.4413   22.1482 O   0  0  0  0  0  0  0  0  0  0  0  0
  -23.9147  -32.5039   23.6627 O   0  0  0  0  0  0  0  0  0  0  0  0
  -23.1241  -28.9882   26.7507 O   0  0  0  0  0  0  0  0  0  0  0  0
  -31.6566  -15.1545   19.8276 O   0  0  0  0  0  0  0  0  0  0  0  0
  -21.9023   -7.5707   23.9876 O   0  0  0  0  0  0  0  0  0  0  0  0
  -26.2719  -24.4048   22.8219 O   0  0  0  0  0  0  0  0  0  1  0  0
  -22.5946   -2.4598   22.0374 F   0  0  0  0  0  0  0  0  0  0  0  0
  -19.7499   -6.1003   23.0670 F   0  0  0  0  0  0  0  0  0  0  0  0
  1  2  1  0  0  0  0
  1  5  2  0  0  0  0
  2  6  2  0  0  0  0
  3  8  2  0  0  0  0
  3 16  1  0  0  0  0
  4  9  1  0  0  0  0
  4 16  2  0  0  0  0
  5 18  1  0  0  0  0
  6 20  1  0  0  0  0
  7 10  2  0  0  0  0
  7 19  1  0  0  0  0
  8 27  1  0  0  0  0
  9 27  2  0  0  0  0
 10 28  1  0  0  0  0
 11 12  2  0  0  0  0
 11 29  1  0  0  0  0
 12 30  1  0  0  0  0
 13 21  1  0  0  0  0
 13 28  2  0  0  0  0
 14 24  1  0  0  0  0
 14 25  2  0  0  0  0
 15 30  2  0  0  0  0
 15 31  1  0  0  0  0
 16 32  1  0  0  0  0
 17 32  1  0  0  0  0
 17 33  2  0  0  0  0
 17 34  1  0  0  0  0
 18 20  2  0  0  0  0
 18 39  1  0  0  0  0
 19 21  2  0  0  0  0
 19 40  1  0  0  0  0
 20 51  1  0  0  0  0
 21 41  1  0  0  0  0
 22 23  1  0  0  0  0
 22 24  2  0  0  0  0
 22 55  1  0  0  0  0
 23 26  2  0  0  0  0
 23 67  1  0  0  0  0
 24 74  1  0  0  0  0
 25 26  1  0  0  0  0
 25 70  1  0  0  0  0
 26 71  1  0  0  0  0
 27 83  1  0  0  0  0
 28 84  1  0  0  0  0
 29 31  2  0  0  0  0
 29 83  1  0  0  0  0
 30 85  1  0  0  0  0
 31 86  1  0  0  0  0
 32 65  2  0  0  0  0
 33 66  1  0  0  0  0
 33 72  1  0  0  0  0
 34 73  1  0  0  0  0
 34 78  2  0  0  0  0
 35 52  1  0  0  0  0
 35 75  1  0  0  0  0
 35 79  2  0  0  0  0
 36 62  1  0  0  0  0
 36 68  1  0  0  0  0
 36 80  2  0  0  0  0
 37 63  1  0  0  0  0
 37 76  1  0  0  0  0
 37 81  2  0  0  0  0
 38 69  1  0  0  0  0
 38 74  1  0  0  0  0
 38 82  2  0  0  0  0
 39 42  1  0  0  0  0
 40 52  1  0  0  0  0
 41 68  1  0  0  0  0
 42 44  1  0  0  0  0
 43 45  1  0  0  0  0
 43 47  1  0  0  0  0
 44 51  1  0  0  0  0
 45 54  1  0  0  0  0
 46 48  1  0  0  0  0
 46 53  1  0  0  0  0
 47 69  1  0  0  0  0
 48 67  1  0  0  0  0
 49 53  1  0  0  0  0
 49 67  1  0  0  0  0
 50 54  1  0  0  0  0
 50 69  1  0  0  0  0
 51 75  1  0  0  0  0
 52 68  1  0  0  0  0
 53 61  1  0  0  0  0
 54 66  1  0  0  0  0
 56 63  1  0  0  0  0
 57 64  1  0  0  0  0
 58 64  1  0  0  0  0
 59 64  1  0  0  0  0
 60 77  1  0  0  0  0
 61 84  1  0  0  0  0
 62 64  1  0  0  0  0
 62 76  1  0  0  0  0
 63 77  1  0  0  0  0
 65 66  1  0  0  0  0
M  CHG  1  77   1
M  ISO  4  38 100  61 101  74 100  84 101
M  END
> <Batch ID>
0097

> <Smiles>
CNC(C)C(=O)NC(C(=O)N1Cc2cc([101O:1][101CH2:1]C3CCN(c4c(C)c([100NH:0][100C:0](=O)N5CCCC(n6nc(-c7ccc(Oc8ccc(F)cc8F)cc7)c(C(N)=O)c6N)C5)cc(N)c4N)C3)ccc2CC1C(=O)NC1CCCc2ccccc21)C(C)(C)C

> <Shape>
0.264

> <Color>
0.155

> <Negative vol penalty>
0.000

$$$$

  -OEChem-04052300493D

 85 94  0     1  0  0  0  0  0999 V2000
  -22.6501  -23.0422   23.2962 C   0  0  0  0  0  0  0  0  0  0  0  0
  -23.5840  -22.6655   22.3364 C   0  0  0  0  0  0  0  0  0  0  0  0
  -26.7042  -25.5938   20.1346 C   0  0  0  0  0  0  0  0  0  0  0  0
  -29.0183  -26.2798   20.2418 C   0  0  0  0  0  0  0  0  0  0  0  0
  -22.3407  -22.1760   24.3439 C   0  0  0  0  0  0  0  0  0  0  0  0
  -24.2100  -21.4226   22.4245 C   0  0  0  0  0  0  0  0  0  0  0  0
  -26.8778  -16.2104   18.2974 C   0  0  0  0  0  0  0  0  0  0  0  0
  -33.2841  -17.2829   21.1687 C   0  0  0  0  0  0  0  0  0  0  0  0
  -32.4082  -15.7777   22.8433 C   0  0  0  0  0  0  0  0  0  0  0  0
  -32.9920  -16.3480   20.1756 C   0  0  0  0  0  0  0  0  0  0  0  0
  -32.1160  -14.8428   21.8502 C   0  0  0  0  0  0  0  0  0  0  0  0
  -26.3239  -26.9142   19.8946 C   0  0  0  0  0  0  0  0  0  0  0  0
  -28.6380  -27.6002   20.0018 C   0  0  0  0  0  0  0  0  0  0  0  0
  -28.0411  -15.4613   18.1259 C   0  0  0  0  0  0  0  0  0  0  0  0
  -25.8690  -29.7407   21.6914 C   0  0  0  0  0  0  0  0  0  0  0  0
  -24.7769  -30.2391   22.4017 C   0  0  0  0  0  0  0  0  0  0  0  0
  -27.3693  -14.0147   19.9356 C   0  0  0  0  0  0  0  0  0  0  0  0
  -23.6175  -30.6595   20.3242 C   0  0  0  0  0  0  0  0  0  0  0  0
  -28.0514  -25.2766   20.3083 C   0  0  0  0  0  0  0  0  0  0  0  0
  -28.7788  -22.9366   19.5993 C   0  0  0  0  0  0  0  0  0  0  0  0
  -22.9561  -20.9179   24.4395 C   0  0  0  0  0  0  0  0  0  0  0  0
  -25.9552  -15.8731   19.2982 C   0  0  0  0  0  0  0  0  0  0  0  0
  -23.9096  -20.5392   23.4752 C   0  0  0  0  0  0  0  0  0  0  0  0
  -26.1939  -14.7595   20.1161 C   0  0  0  0  0  0  0  0  0  0  0  0
  -32.9922  -16.9977   22.5026 C   0  0  0  0  0  0  0  0  0  0  0  0
  -32.4079  -15.1280   20.5164 C   0  0  0  0  0  0  0  0  0  0  0  0
  -27.2907  -27.9174   19.8281 C   0  0  0  0  0  0  0  0  0  0  0  0
  -28.2884  -14.3651   18.9469 C   0  0  0  0  0  0  0  0  0  0  0  0
  -25.8353  -29.7017   20.2974 C   0  0  0  0  0  0  0  0  0  0  0  0
  -23.6512  -30.6985   21.7181 C   0  0  0  0  0  0  0  0  0  0  0  0
  -24.7096  -30.1611   19.6138 C   0  0  0  0  0  0  0  0  0  0  0  0
  -28.4448  -23.9130   20.5569 C   0  0  0  0  0  0  0  0  0  0  0  0
  -29.0770  -21.8183   20.3389 C   0  0  0  0  0  0  0  0  0  0  0  0
  -32.3455  -14.3187   18.1142 C   0  0  0  0  0  0  0  0  0  0  0  0
  -28.8163  -23.0320   18.1692 C   0  0  0  0  0  0  0  0  0  0  0  0
  -24.8181  -17.3305   21.8841 C   0  0  0  0  0  0  0  0  0  0  0  0
  -22.8722  -14.7384   22.0120 C   0  0  0  0  0  0  0  0  0  0  0  0
  -22.3380  -11.4727   21.1774 C   0  0  0  0  0  0  0  0  0  0  0  0
  -31.5861  -19.3885   24.6916 C   0  0  0  0  0  0  0  0  0  0  0  0
  -22.6243  -20.0350   25.6164 C   0  0  0  0  0  0  0  0  0  0  0  0
  -24.6922  -16.6752   19.4529 C   0  0  0  0  0  0  0  0  0  0  0  0
  -25.2253  -14.3436   21.1919 C   0  0  0  0  0  0  0  0  0  0  0  0
  -31.8889  -13.0505   17.4326 C   0  0  0  0  0  0  0  0  0  0  0  0
  -23.0556  -18.5827   25.4291 C   0  0  0  0  0  0  0  0  0  0  0  0
  -31.8386  -12.0403   18.5632 C   0  0  0  0  0  0  0  0  0  0  0  0
  -28.3838  -20.8398   25.2530 C   0  0  0  0  0  0  0  0  0  0  0  0
  -24.4830  -18.5144   24.8954 C   0  0  0  0  0  0  0  0  0  0  0  0
  -28.1449  -21.6925   24.0057 C   0  0  0  0  0  0  0  0  0  0  0  0
  -29.8510  -20.8571   25.6760 C   0  0  0  0  0  0  0  0  0  0  0  0
  -30.5669  -21.3390   23.3675 C   0  0  0  0  0  0  0  0  0  0  0  0
  -24.5916  -19.1891   23.5227 C   0  0  1  0  0  0  0  0  0  0  0  0
  -24.0708  -16.5495   20.8405 C   0  0  1  0  0  0  0  0  0  0  0  0
  -29.1118  -21.3078   22.8698 C   0  0  2  0  0  0  0  0  0  0  0  0
  -31.4806  -12.8808   19.7838 C   0  0  2  0  0  0  0  0  0  0  0  0
  -20.6736   -9.6153   21.4556 C   0  0  0  0  0  0  0  0  0  0  0  0
  -23.8077  -14.3340   24.8880 C   0  0  0  0  0  0  0  0  0  0  0  0
  -22.8880  -12.0076   24.7864 C   0  0  0  0  0  0  0  0  0  0  0  0
  -21.3613  -13.9630   24.5249 C   0  0  0  0  0  0  0  0  0  0  0  0
  -21.9081  -11.2643   18.2567 C   0  0  0  0  0  0  0  0  0  0  0  0
  -33.3047  -17.9974   23.5643 C   0  0  0  0  0  0  0  0  0  0  0  0
  -29.9633  -13.0012   19.9423 C   0  0  0  0  0  0  0  0  0  1  0  0
  -22.9515  -13.3725   22.6501 C   0  0  1  0  0  0  0  0  0  0  0  0
  -21.1326  -10.7701   20.5790 C   0  0  2  0  0  0  0  0  0  0  0  0
  -22.7715  -13.4280   24.1934 C   0  0  0  0  0  0  0  0  0  0  0  0
  -28.5231  -23.4551   21.8092 N   0  0  0  0  0  0  0  0  0  0  0  0
  -28.9096  -22.1787   21.6436 N   0  0  0  0  0  0  0  0  0  0  0  0
  -32.1076  -14.1681   19.4970 N   0  0  0  0  0  0  0  0  0  0  0  0
  -24.0078  -15.1633   21.3081 N   0  0  0  0  0  0  0  0  0  0  0  0
  -30.7147  -20.4815   24.5539 N   0  0  0  0  0  0  0  0  0  0  0  0
  -29.4633  -20.5716   19.9939 N   0  0  0  0  0  0  0  0  0  0  0  0
  -28.4807  -24.2548   17.5722 N   0  0  0  0  0  0  0  0  0  0  0  0
  -24.0685  -18.3207   22.4899 N   0  0  0  0  0  0  0  0  0  0  0  0
  -21.9671  -12.5433   21.9632 N   0  0  0  0  0  0  0  0  0  0  0  0
  -32.3649  -19.0962   23.5785 N   0  0  0  0  0  0  0  0  0  0  0  0
  -21.4637  -10.2327   19.2290 N   0  3  0  0  0  0  0  0  0  0  0  0
  -32.7996  -15.2660   17.4889 O   0  0  0  0  0  0  0  0  0  0  0  0
  -29.1220  -22.0570   17.4417 O   0  0  0  0  0  0  0  0  0  0  0  0
  -25.9878  -17.0542   22.1231 O   0  0  0  0  0  0  0  0  0  0  0  0
  -21.8380  -15.4008   22.1277 O   0  0  0  0  0  0  0  0  0  0  0  0
  -23.4928  -11.1059   20.9717 O   0  0  0  0  0  0  0  0  0  0  0  0
  -31.6605  -18.7192   25.7276 O   0  0  0  0  0  0  0  0  0  0  0  0
  -26.9200  -29.2058   19.5937 O   0  0  0  0  0  0  0  0  0  0  0  0
  -29.4234  -13.6326   18.7820 O   0  0  0  0  0  0  0  0  0  1  0  0
  -22.6019  -31.1757   22.4004 F   0  0  0  0  0  0  0  0  0  0  0  0
  -24.6710  -30.1250   18.2748 F   0  0  0  0  0  0  0  0  0  0  0  0
  1  2  1  0  0  0  0
  1  5  2  0  0  0  0
  2  6  2  0  0  0  0
  3 12  2  0  0  0  0
  3 19  1  0  0  0  0
  4 13  1  0  0  0  0
  4 19  2  0  0  0  0
  5 21  1  0  0  0  0
  6 23  1  0  0  0  0
  7 14  2  0  0  0  0
  7 22  1  0  0  0  0
  8 10  2  0  0  0  0
  8 25  1  0  0  0  0
  9 11  1  0  0  0  0
  9 25  2  0  0  0  0
 10 26  1  0  0  0  0
 11 26  2  0  0  0  0
 12 27  1  0  0  0  0
 13 27  2  0  0  0  0
 14 28  1  0  0  0  0
 15 16  2  0  0  0  0
 15 29  1  0  0  0  0
 16 30  1  0  0  0  0
 17 24  1  0  0  0  0
 17 28  2  0  0  0  0
 18 30  2  0  0  0  0
 18 31  1  0  0  0  0
 19 32  1  0  0  0  0
 20 32  1  0  0  0  0
 20 33  2  0  0  0  0
 20 35  1  0  0  0  0
 21 23  2  0  0  0  0
 21 40  1  0  0  0  0
 22 24  2  0  0  0  0
 22 41  1  0  0  0  0
 23 51  1  0  0  0  0
 24 42  1  0  0  0  0
 25 60  1  0  0  0  0
 26 67  1  0  0  0  0
 27 82  1  0  0  0  0
 28 83  1  0  0  0  0
 29 31  2  0  0  0  0
 29 82  1  0  0  0  0
 30 84  1  0  0  0  0
 31 85  1  0  0  0  0
 32 65  2  0  0  0  0
 33 66  1  0  0  0  0
 33 70  1  0  0  0  0
 34 43  1  0  0  0  0
 34 67  1  0  0  0  0
 34 76  2  0  0  0  0
 35 71  1  0  0  0  0
 35 77  2  0  0  0  0
 36 52  1  0  0  0  0
 36 72  1  0  0  0  0
 36 78  2  0  0  0  0
 37 62  1  0  0  0  0
 37 68  1  0  0  0  0
 37 79  2  0  0  0  0
 38 63  1  0  0  0  0
 38 73  1  0  0  0  0
 38 80  2  0  0  0  0
 39 69  1  0  0  0  0
 39 74  1  0  0  0  0
 39 81  2  0  0  0  0
 40 44  1  0  0  0  0
 41 52  1  0  0  0  0
 42 68  1  0  0  0  0
 43 45  1  0  0  0  0
 44 47  1  0  0  0  0
 45 54  1  0  0  0  0
 46 48  1  0  0  0  0
 46 49  1  0  0  0  0
 47 51  1  0  0  0  0
 48 53  1  0  0  0  0
 49 69  1  0  0  0  0
 50 53  1  0  0  0  0
 50 69  1  0  0  0  0
 51 72  1  0  0  0  0
 52 68  1  0  0  0  0
 53 66  1  0  0  0  0
 54 61  1  0  0  0  0
 54 67  1  0  0  0  0
 55 63  1  0  0  0  0
 56 64  1  0  0  0  0
 57 64  1  0  0  0  0
 58 64  1  0  0  0  0
 59 75  1  0  0  0  0
 60 74  1  0  0  0  0
 61 83  1  0  0  0  0
 62 64  1  0  0  0  0
 62 73  1  0  0  0  0
 63 75  1  0  0  0  0
 65 66  1  0  0  0  0
M  CHG  1  75   1
M  ISO  4  39 100  61 101  74 100  83 101
M  END
> <Batch ID>
0097

> <Smiles>
CNC(C)C(=O)NC(C(=O)N1Cc2cc([101O:1][101CH2:1]C3CCC(=O)N3c3ccc(C[100NH:0][100C:0](=O)N4CCCC(n5nc(-c6ccc(Oc7ccc(F)cc7F)cc6)c(C(N)=O)c5N)C4)cc3)ccc2CC1C(=O)NC1CCCc2ccccc21)C(C)(C)C

> <Shape>
0.203

> <Color>
0.056

> <Negative vol penalty>
0.000

$$$$

  -OEChem-04052300493D

 87 96  0     1  0  0  0  0  0999 V2000
  -29.3081  -21.4167   15.9132 C   0  0  0  0  0  0  0  0  0  0  0  0
  -28.0928  -22.0902   15.8433 C   0  0  0  0  0  0  0  0  0  0  0  0
  -26.6488  -14.3348   19.9625 C   0  0  0  0  0  0  0  0  0  0  0  0
  -24.9619  -14.4215   21.6899 C   0  0  0  0  0  0  0  0  0  0  0  0
  -30.0419  -21.4263   17.0987 C   0  0  0  0  0  0  0  0  0  0  0  0
  -27.6101  -22.7728   16.9593 C   0  0  0  0  0  0  0  0  0  0  0  0
  -23.7936  -28.5679   18.7393 C   0  0  0  0  0  0  0  0  0  0  0  0
  -26.6048  -12.9410   19.9894 C   0  0  0  0  0  0  0  0  0  0  0  0
  -24.9179  -13.0276   21.7168 C   0  0  0  0  0  0  0  0  0  0  0  0
  -22.6922  -28.9371   19.5102 C   0  0  0  0  0  0  0  0  0  0  0  0
  -23.5472  -10.5445   19.8794 C   0  0  0  0  0  0  0  0  0  0  0  0
  -22.2915   -9.9377   19.9050 C   0  0  0  0  0  0  0  0  0  0  0  0
  -24.0836  -28.9512   21.4807 C   0  0  0  0  0  0  0  0  0  0  0  0
  -22.8607  -24.4436   24.2392 C   0  0  0  0  0  0  0  0  0  0  0  0
  -22.3321  -23.8479   21.9583 C   0  0  0  0  0  0  0  0  0  0  0  0
  -22.8415   -8.8886   22.0107 C   0  0  0  0  0  0  0  0  0  0  0  0
  -25.8274  -15.0751   20.8128 C   0  0  0  0  0  0  0  0  0  0  0  0
  -25.5965  -17.3539   19.6896 C   0  0  0  0  0  0  0  0  0  0  0  0
  -29.5726  -22.1175   18.2269 C   0  0  0  0  0  0  0  0  0  0  0  0
  -25.0481  -28.3766   19.3361 C   0  0  0  0  0  0  0  0  0  0  0  0
  -28.3376  -22.7906   18.1614 C   0  0  0  0  0  0  0  0  0  0  0  0
  -25.2000  -28.5821   20.7148 C   0  0  0  0  0  0  0  0  0  0  0  0
  -21.8104  -25.3614   24.2430 C   0  0  0  0  0  0  0  0  0  0  0  0
  -21.0208  -25.5224   23.1044 C   0  0  0  0  0  0  0  0  0  0  0  0
  -23.1216  -23.6869   23.0968 C   0  0  0  0  0  0  0  0  0  0  0  0
  -21.2817  -24.7656   21.9620 C   0  0  0  0  0  0  0  0  0  0  0  0
  -25.7393  -12.2873   20.8666 C   0  0  0  0  0  0  0  0  0  0  0  0
  -22.8364  -29.1260   20.8815 C   0  0  0  0  0  0  0  0  0  0  0  0
  -24.4500  -10.3233   20.9194 C   0  0  0  0  0  0  0  0  0  0  0  0
  -21.9387   -9.1097   20.9707 C   0  0  0  0  0  0  0  0  0  0  0  0
  -24.0972   -9.4954   21.9851 C   0  0  0  0  0  0  0  0  0  0  0  0
  -25.8728  -16.5150   20.7858 C   0  0  0  0  0  0  0  0  0  0  0  0
  -25.7793  -18.6254   20.1756 C   0  0  0  0  0  0  0  0  0  0  0  0
  -18.5956  -26.0967   22.8955 C   0  0  0  0  0  0  0  0  0  0  0  0
  -25.2093  -17.0141   18.3516 C   0  0  0  0  0  0  0  0  0  0  0  0
  -27.0331  -25.9132   19.6447 C   0  0  0  0  0  0  0  0  0  0  0  0
  -28.9949  -28.1558   20.9272 C   0  0  0  0  0  0  0  0  0  0  0  0
  -28.6759  -30.9546   23.1816 C   0  0  0  0  0  0  0  0  0  0  0  0
  -25.0706  -22.4750   24.1356 C   0  0  0  0  0  0  0  0  0  0  0  0
  -30.3781  -22.0599   19.5006 C   0  0  0  0  0  0  0  0  0  0  0  0
  -26.2321  -28.0044   18.4864 C   0  0  0  0  0  0  0  0  0  0  0  0
  -26.5297  -28.4092   21.4006 C   0  0  0  0  0  0  0  0  0  0  0  0
  -17.6396  -27.2778   22.9026 C   0  0  0  0  0  0  0  0  0  0  0  0
  -29.9769  -23.1197   20.5234 C   0  0  0  0  0  0  0  0  0  0  0  0
  -18.1777  -28.3687   21.9854 C   0  0  0  0  0  0  0  0  0  0  0  0
  -27.8048  -20.2285   24.5287 C   0  0  0  0  0  0  0  0  0  0  0  0
  -28.4594  -23.1745   20.6681 C   0  0  0  0  0  0  0  0  0  0  0  0
  -27.5232  -19.1311   23.4998 C   0  0  0  0  0  0  0  0  0  0  0  0
  -26.5198  -20.7440   25.1742 C   0  0  0  0  0  0  0  0  0  0  0  0
  -20.2108  -27.8788   23.4291 C   0  0  0  0  0  0  0  0  0  0  0  0
  -25.2007  -20.0820   23.2016 C   0  0  0  0  0  0  0  0  0  0  0  0
  -27.7925  -23.5631   19.3430 C   0  0  1  0  0  0  0  0  0  0  0  0
  -27.3505  -27.3359   19.2800 C   0  0  1  0  0  0  0  0  0  0  0  0
  -19.5782  -28.8393   22.4132 C   0  0  1  0  0  0  0  0  0  0  0  0
  -26.4593  -19.5767   22.4775 C   0  0  2  0  0  0  0  0  0  0  0  0
  -21.5553  -26.1569   25.4823 C   0  0  0  0  0  0  0  0  0  0  0  0
  -30.0417  -33.0500   23.3844 C   0  0  0  0  0  0  0  0  0  0  0  0
  -30.5449  -26.5951   23.0419 C   0  0  0  0  0  0  0  0  0  0  0  0
  -30.7097  -28.7057   24.3785 C   0  0  0  0  0  0  0  0  0  0  0  0
  -31.7527  -28.5797   22.1160 C   0  0  0  0  0  0  0  0  0  0  0  0
  -26.2892  -32.6780   22.8783 C   0  0  0  0  0  0  0  0  0  0  0  0
  -20.4806  -29.0405   21.1959 C   0  0  0  0  0  0  0  0  0  1  0  0
  -29.2351  -28.6981   22.3154 C   0  0  1  0  0  0  0  0  0  0  0  0
  -28.7736  -32.4263   22.8227 C   0  0  2  0  0  0  0  0  0  0  0  0
  -30.5352  -28.1344   22.9552 C   0  0  0  0  0  0  0  0  0  0  0  0
  -26.2059  -17.1963   21.8854 N   0  0  0  0  0  0  0  0  0  0  0  0
  -26.1402  -18.4767   21.4824 N   0  0  0  0  0  0  0  0  0  0  0  0
  -19.9388  -26.4704   23.1125 N   0  0  0  0  0  0  0  0  0  0  0  0
  -27.6560  -28.0386   20.5279 N   0  0  0  0  0  0  0  0  0  0  0  0
  -25.5607  -21.1519   24.1453 N   0  0  0  0  0  0  0  0  0  0  0  0
  -20.4954  -24.9116   20.7966 N   0  0  0  0  0  0  0  0  0  0  0  0
  -25.6650  -19.8451   19.6083 N   0  0  0  0  0  0  0  0  0  0  0  0
  -23.8432  -16.8993   18.0602 N   0  0  0  0  0  0  0  0  0  0  0  0
  -24.1899  -22.7560   23.0916 N   0  0  0  0  0  0  0  0  0  0  0  0
  -27.9120  -24.9874   19.1157 N   0  0  0  0  0  0  0  0  0  0  0  0
  -29.2098  -30.1519   22.1957 N   0  0  0  0  0  0  0  0  0  0  0  0
  -27.6028  -33.1709   23.3666 N   0  3  0  0  0  0  0  0  0  0  0  0
  -18.1624  -24.9671   22.6759 O   0  0  0  0  0  0  0  0  0  0  0  0
  -26.0503  -16.8020   17.4453 O   0  0  0  0  0  0  0  0  0  0  0  0
  -26.0636  -25.6734   20.3547 O   0  0  0  0  0  0  0  0  0  0  0  0
  -29.9599  -27.8541   20.2205 O   0  0  0  0  0  0  0  0  0  0  0  0
  -28.1794  -30.5569   24.2332 O   0  0  0  0  0  0  0  0  0  0  0  0
  -25.4285  -23.3057   24.9746 O   0  0  0  0  0  0  0  0  0  0  0  0
  -25.6960  -10.9272   20.8929 O   0  0  0  0  0  0  0  0  0  0  0  0
  -21.7628  -29.4858   21.6364 O   0  0  0  0  0  0  0  0  0  1  0  0
  -20.7322   -8.5283   20.9959 F   0  0  0  0  0  0  0  0  0  0  0  0
  -24.9599   -9.2801   22.9877 F   0  0  0  0  0  0  0  0  0  0  0  0
  1  2  1  0  0  0  0
  1  5  2  0  0  0  0
  2  6  2  0  0  0  0
  3  8  2  0  0  0  0
  3 17  1  0  0  0  0
  4  9  1  0  0  0  0
  4 17  2  0  0  0  0
  5 19  1  0  0  0  0
  6 21  1  0  0  0  0
  7 10  2  0  0  0  0
  7 20  1  0  0  0  0
  8 27  1  0  0  0  0
  9 27  2  0  0  0  0
 10 28  1  0  0  0  0
 11 12  2  0  0  0  0
 11 29  1  0  0  0  0
 12 30  1  0  0  0  0
 13 22  1  0  0  0  0
 13 28  2  0  0  0  0
 14 23  2  0  0  0  0
 14 25  1  0  0  0  0
 15 25  2  0  0  0  0
 15 26  1  0  0  0  0
 16 30  2  0  0  0  0
 16 31  1  0  0  0  0
 17 32  1  0  0  0  0
 18 32  1  0  0  0  0
 18 33  2  0  0  0  0
 18 35  1  0  0  0  0
 19 21  2  0  0  0  0
 19 40  1  0  0  0  0
 20 22  2  0  0  0  0
 20 41  1  0  0  0  0
 21 52  1  0  0  0  0
 22 42  1  0  0  0  0
 23 24  1  0  0  0  0
 23 56  1  0  0  0  0
 24 26  2  0  0  0  0
 24 68  1  0  0  0  0
 25 74  1  0  0  0  0
 26 71  1  0  0  0  0
 27 84  1  0  0  0  0
 28 85  1  0  0  0  0
 29 31  2  0  0  0  0
 29 84  1  0  0  0  0
 30 86  1  0  0  0  0
 31 87  1  0  0  0  0
 32 66  2  0  0  0  0
 33 67  1  0  0  0  0
 33 72  1  0  0  0  0
 34 43  1  0  0  0  0
 34 68  1  0  0  0  0
 34 78  2  0  0  0  0
 35 73  1  0  0  0  0
 35 79  2  0  0  0  0
 36 53  1  0  0  0  0
 36 75  1  0  0  0  0
 36 80  2  0  0  0  0
 37 63  1  0  0  0  0
 37 69  1  0  0  0  0
 37 81  2  0  0  0  0
 38 64  1  0  0  0  0
 38 76  1  0  0  0  0
 38 82  2  0  0  0  0
 39 70  1  0  0  0  0
 39 74  1  0  0  0  0
 39 83  2  0  0  0  0
 40 44  1  0  0  0  0
 41 53  1  0  0  0  0
 42 69  1  0  0  0  0
 43 45  1  0  0  0  0
 44 47  1  0  0  0  0
 45 54  1  0  0  0  0
 46 48  1  0  0  0  0
 46 49  1  0  0  0  0
 47 52  1  0  0  0  0
 48 55  1  0  0  0  0
 49 70  1  0  0  0  0
 50 54  1  0  0  0  0
 50 68  1  0  0  0  0
 51 55  1  0  0  0  0
 51 70  1  0  0  0  0
 52 75  1  0  0  0  0
 53 69  1  0  0  0  0
 54 62  1  0  0  0  0
 55 67  1  0  0  0  0
 57 64  1  0  0  0  0
 58 65  1  0  0  0  0
 59 65  1  0  0  0  0
 60 65  1  0  0  0  0
 61 77  1  0  0  0  0
 62 85  1  0  0  0  0
 63 65  1  0  0  0  0
 63 76  1  0  0  0  0
 64 77  1  0  0  0  0
 66 67  1  0  0  0  0
M  CHG  1  77   1
M  ISO  4  39 100  62 101  74 100  85 101
M  END
> <Batch ID>
0097

> <Smiles>
CNC(C)C(=O)NC(C(=O)N1Cc2cc([101O:1][101CH2:1]C3CCC(=O)N(c4c(C)cc([100NH:0][100C:0](=O)N5CCCC(n6nc(-c7ccc(Oc8ccc(F)cc8F)cc7)c(C(N)=O)c6N)C5)cc4N)C3)ccc2CC1C(=O)NC1CCCc2ccccc21)C(C)(C)C

> <Shape>
0.243

> <Color>
0.060

> <Negative vol penalty>
0.000

$$$$

  -OEChem-04052300493D

 88 97  0     1  0  0  0  0  0999 V2000
  -16.4317  -29.4978   23.5117 C   0  0  0  0  0  0  0  0  0  0  0  0
  -17.1908  -28.5242   24.1529 C   0  0  0  0  0  0  0  0  0  0  0  0
  -22.9364  -10.7315   21.5269 C   0  0  0  0  0  0  0  0  0  0  0  0
  -24.7117   -9.0965   21.6386 C   0  0  0  0  0  0  0  0  0  0  0  0
  -16.9932  -30.2519   22.4821 C   0  0  0  0  0  0  0  0  0  0  0  0
  -18.5117  -28.3034   23.7642 C   0  0  0  0  0  0  0  0  0  0  0  0
  -23.1956  -26.7146   27.3756 C   0  0  0  0  0  0  0  0  0  0  0  0
  -21.9929   -9.7048   21.4932 C   0  0  0  0  0  0  0  0  0  0  0  0
  -23.7681   -8.0697   21.6049 C   0  0  0  0  0  0  0  0  0  0  0  0
  -23.7955  -25.4858   27.6476 C   0  0  0  0  0  0  0  0  0  0  0  0
  -21.6439   -6.5694   23.7630 C   0  0  0  0  0  0  0  0  0  0  0  0
  -21.8041   -5.5143   24.6611 C   0  0  0  0  0  0  0  0  0  0  0  0
  -28.0996  -18.6154   22.7290 C   0  0  0  0  0  0  0  0  0  0  0  0
  -25.4751  -25.9429   25.9775 C   0  0  0  0  0  0  0  0  0  0  0  0
  -26.6316  -20.9749   22.9749 C   0  0  0  0  0  0  0  0  0  0  0  0
  -21.9701   -3.9666   22.8134 C   0  0  0  0  0  0  0  0  0  0  0  0
  -24.2958  -10.4274   21.5996 C   0  0  0  0  0  0  0  0  0  0  0  0
  -27.7919  -19.3667   21.5948 C   0  0  0  0  0  0  0  0  0  0  0  0
  -25.7900  -12.1286   22.7747 C   0  0  0  0  0  0  0  0  0  0  0  0
  -18.3245  -30.0469   22.0871 C   0  0  0  0  0  0  0  0  0  0  0  0
  -23.7255  -27.5634   26.3933 C   0  0  0  0  0  0  0  0  0  0  0  0
  -19.0910  -29.0545   22.7275 C   0  0  0  0  0  0  0  0  0  0  0  0
  -24.8815  -27.1831   25.6968 C   0  0  0  0  0  0  0  0  0  0  0  0
  -27.0580  -20.5464   21.7177 C   0  0  0  0  0  0  0  0  0  0  0  0
  -26.9393  -20.2235   24.1091 C   0  0  0  0  0  0  0  0  0  0  0  0
  -22.4087   -8.3739   21.5322 C   0  0  0  0  0  0  0  0  0  0  0  0
  -24.9337  -25.0985   26.9465 C   0  0  0  0  0  0  0  0  0  0  0  0
  -21.6467   -6.3231   22.3900 C   0  0  0  0  0  0  0  0  0  0  0  0
  -21.9672   -4.2129   24.1864 C   0  0  0  0  0  0  0  0  0  0  0  0
  -27.6732  -19.0437   23.9862 C   0  0  0  0  0  0  0  0  0  0  0  0
  -21.8098   -5.0217   21.9152 C   0  0  0  0  0  0  0  0  0  0  0  0
  -25.2710  -11.4875   21.6339 C   0  0  0  0  0  0  0  0  0  0  0  0
  -26.6745  -13.0537   22.2762 C   0  0  0  0  0  0  0  0  0  0  0  0
  -25.3415  -21.4144   25.6768 C   0  0  0  0  0  0  0  0  0  0  0  0
  -28.2555  -18.8848   20.2683 C   0  0  0  0  0  0  0  0  0  0  0  0
  -25.4986  -11.9077   24.1611 C   0  0  0  0  0  0  0  0  0  0  0  0
  -22.6571  -28.7604   23.6493 C   0  0  0  0  0  0  0  0  0  0  0  0
  -25.4427  -30.4201   23.7384 C   0  0  0  0  0  0  0  0  0  0  0  0
  -28.6499  -30.6381   24.8843 C   0  0  0  0  0  0  0  0  0  0  0  0
  -28.0630  -17.0145   18.6594 C   0  0  0  0  0  0  0  0  0  0  0  0
  -18.8731  -30.8541   20.9372 C   0  0  0  0  0  0  0  0  0  0  0  0
  -23.0821  -28.8974   26.1305 C   0  0  0  0  0  0  0  0  0  0  0  0
  -25.5015  -28.0670   24.6467 C   0  0  0  0  0  0  0  0  0  0  0  0
  -20.3959  -30.8154   20.8376 C   0  0  0  0  0  0  0  0  0  0  0  0
  -28.5092  -13.6728   17.5960 C   0  0  0  0  0  0  0  0  0  0  0  0
  -20.9040  -29.3843   20.9810 C   0  0  0  0  0  0  0  0  0  0  0  0
  -27.7563  -12.8551   18.6491 C   0  0  0  0  0  0  0  0  0  0  0  0
  -26.6750  -21.2904   27.6442 C   0  0  0  0  0  0  0  0  0  0  0  0
  -27.7879  -14.9798   17.2701 C   0  0  0  0  0  0  0  0  0  0  0  0
  -27.2148  -20.3222   26.6105 C   0  0  0  0  0  0  0  0  0  0  0  0
  -26.7020  -14.9961   19.4788 C   0  0  0  0  0  0  0  0  0  0  0  0
  -20.5350  -28.8025   22.3510 C   0  0  1  0  0  0  0  0  0  0  0  0
  -25.2406  -21.5183   27.1901 C   0  0  1  0  0  0  0  0  0  0  0  0
  -23.4082  -29.4563   24.7490 C   0  0  1  0  0  0  0  0  0  0  0  0
  -27.4240  -13.7037   19.8928 C   0  0  1  0  0  0  0  0  0  0  0  0
  -26.7154  -21.3710   20.5197 C   0  0  0  0  0  0  0  0  0  0  0  0
  -30.6930  -32.0896   24.7567 C   0  0  0  0  0  0  0  0  0  0  0  0
  -26.0228  -29.3532   20.9393 C   0  0  0  0  0  0  0  0  0  0  0  0
  -28.4133  -30.0281   21.2532 C   0  0  0  0  0  0  0  0  0  0  0  0
  -26.6165  -31.7582   21.2828 C   0  0  0  0  0  0  0  0  0  0  0  0
  -28.6176  -31.1400   27.8008 C   0  0  0  0  0  0  0  0  0  0  0  0
  -24.6708  -22.8444   27.6576 C   0  0  0  0  0  0  0  0  0  1  0  0
  -26.8479  -30.1778   23.2426 C   0  0  1  0  0  0  0  0  0  0  0  0
  -29.4158  -31.7826   25.5230 C   0  0  2  0  0  0  0  0  0  0  0  0
  -26.9626  -30.3116   21.6978 C   0  0  0  0  0  0  0  0  0  0  0  0
  -25.7830  -11.9650   20.4964 N   0  0  0  0  0  0  0  0  0  0  0  0
  -26.6329  -12.9160   20.9199 N   0  0  0  0  0  0  0  0  0  0  0  0
  -26.5016  -20.6642   25.3940 N   0  0  0  0  0  0  0  0  0  0  0  0
  -24.8321  -29.3588   24.4215 N   0  0  0  0  0  0  0  0  0  0  0  0
  -27.5185  -15.7283   18.4991 N   0  0  0  0  0  0  0  0  0  0  0  0
  -27.4759  -13.9633   22.8701 N   0  0  0  0  0  0  0  0  0  0  0  0
  -24.5651  -10.9182   24.4982 N   0  0  0  0  0  0  0  0  0  0  0  0
  -27.7834  -17.6292   19.8850 N   0  0  0  0  0  0  0  0  0  0  0  0
  -21.4219  -29.3150   23.3733 N   0  0  0  0  0  0  0  0  0  0  0  0
  -27.7068  -31.0925   23.9870 N   0  0  0  0  0  0  0  0  0  0  0  0
  -29.7806  -31.4420   26.9272 N   0  3  0  0  0  0  0  0  0  0  0  0
  -24.4984  -21.8685   24.9169 O   0  0  0  0  0  0  0  0  0  0  0  0
  -28.9733  -19.6106   19.5857 O   0  0  0  0  0  0  0  0  0  0  0  0
  -26.0377  -12.5794   25.0731 O   0  0  0  0  0  0  0  0  0  0  0  0
  -23.1615  -27.7929   23.0914 O   0  0  0  0  0  0  0  0  0  0  0  0
  -24.9093  -31.5133   23.5337 O   0  0  0  0  0  0  0  0  0  0  0  0
  -28.8692  -29.4587   25.1518 O   0  0  0  0  0  0  0  0  0  0  0  0
  -28.7689  -17.5538   17.8014 O   0  0  0  0  0  0  0  0  0  0  0  0
  -21.4883   -7.3717   21.4996 O   0  0  0  0  0  0  0  0  0  0  0  0
  -25.5209  -23.8994   27.2095 O   0  0  0  0  0  0  0  0  0  1  0  0
  -22.1226   -3.2000   25.0490 F   0  0  0  0  0  0  0  0  0  0  0  0
  -27.9736  -18.3132   25.0694 F   0  0  0  0  0  0  0  0  0  0  0  0
  -21.8146   -4.7791   20.5973 F   0  0  0  0  0  0  0  0  0  0  0  0
  1  2  1  0  0  0  0
  1  5  2  0  0  0  0
  2  6  2  0  0  0  0
  3  8  2  0  0  0  0
  3 17  1  0  0  0  0
  4  9  1  0  0  0  0
  4 17  2  0  0  0  0
  5 20  1  0  0  0  0
  6 22  1  0  0  0  0
  7 10  2  0  0  0  0
  7 21  1  0  0  0  0
  8 26  1  0  0  0  0
  9 26  2  0  0  0  0
 10 27  1  0  0  0  0
 11 12  2  0  0  0  0
 11 28  1  0  0  0  0
 12 29  1  0  0  0  0
 13 18  2  0  0  0  0
 13 30  1  0  0  0  0
 14 23  1  0  0  0  0
 14 27  2  0  0  0  0
 15 24  2  0  0  0  0
 15 25  1  0  0  0  0
 16 29  2  0  0  0  0
 16 31  1  0  0  0  0
 17 32  1  0  0  0  0
 18 24  1  0  0  0  0
 18 35  1  0  0  0  0
 19 32  1  0  0  0  0
 19 33  2  0  0  0  0
 19 36  1  0  0  0  0
 20 22  2  0  0  0  0
 20 41  1  0  0  0  0
 21 23  2  0  0  0  0
 21 42  1  0  0  0  0
 22 52  1  0  0  0  0
 23 43  1  0  0  0  0
 24 56  1  0  0  0  0
 25 30  2  0  0  0  0
 25 68  1  0  0  0  0
 26 84  1  0  0  0  0
 27 85  1  0  0  0  0
 28 31  2  0  0  0  0
 28 84  1  0  0  0  0
 29 86  1  0  0  0  0
 30 87  1  0  0  0  0
 31 88  1  0  0  0  0
 32 66  2  0  0  0  0
 33 67  1  0  0  0  0
 33 71  1  0  0  0  0
 34 53  1  0  0  0  0
 34 68  1  0  0  0  0
 34 77  2  0  0  0  0
 35 73  1  0  0  0  0
 35 78  2  0  0  0  0
 36 72  1  0  0  0  0
 36 79  2  0  0  0  0
 37 54  1  0  0  0  0
 37 74  1  0  0  0  0
 37 80  2  0  0  0  0
 38 63  1  0  0  0  0
 38 69  1  0  0  0  0
 38 81  2  0  0  0  0
 39 64  1  0  0  0  0
 39 75  1  0  0  0  0
 39 82  2  0  0  0  0
 40 70  1  0  0  0  0
 40 73  1  0  0  0  0
 40 83  2  0  0  0  0
 41 44  1  0  0  0  0
 42 54  1  0  0  0  0
 43 69  1  0  0  0  0
 44 46  1  0  0  0  0
 45 47  1  0  0  0  0
 45 49  1  0  0  0  0
 46 52  1  0  0  0  0
 47 55  1  0  0  0  0
 48 50  1  0  0  0  0
 48 53  1  0  0  0  0
 49 70  1  0  0  0  0
 50 68  1  0  0  0  0
 51 55  1  0  0  0  0
 51 70  1  0  0  0  0
 52 74  1  0  0  0  0
 53 62  1  0  0  0  0
 54 69  1  0  0  0  0
 55 67  1  0  0  0  0
 57 64  1  0  0  0  0
 58 65  1  0  0  0  0
 59 65  1  0  0  0  0
 60 65  1  0  0  0  0
 61 76  1  0  0  0  0
 62 85  1  0  0  0  0
 63 65  1  0  0  0  0
 63 75  1  0  0  0  0
 64 76  1  0  0  0  0
 66 67  1  0  0  0  0
M  CHG  1  76   1
M  ISO  4  40 100  62 101  73 100  85 101
M  END
> <Batch ID>
0097

> <Smiles>
CNC(C)C(=O)NC(C(=O)N1Cc2cc([101O:1][101CH2:1]C3CCN(c4cc(C)c(C(=O)[100NH:0][100C:0](=O)N5CCCC(n6nc(-c7ccc(Oc8ccc(F)cc8F)cc7)c(C(N)=O)c6N)C5)cc4F)C3=O)ccc2CC1C(=O)NC1CCCc2ccccc21)C(C)(C)C

> <Shape>
0.248

> <Color>
0.109

> <Negative vol penalty>
0.000

$$$$

  -OEChem-04052300493D

 81 89  0     1  0  0  0  0  0999 V2000
  -29.1554  -34.6896   23.0978 C   0  0  0  0  0  0  0  0  0  0  0  0
  -29.2108  -33.3168   23.3164 C   0  0  0  0  0  0  0  0  0  0  0  0
  -24.3347   -9.5788   21.4584 C   0  0  0  0  0  0  0  0  0  0  0  0
  -24.7986  -10.6743   23.5612 C   0  0  0  0  0  0  0  0  0  0  0  0
  -27.9442  -35.2923   22.7608 C   0  0  0  0  0  0  0  0  0  0  0  0
  -28.0547  -32.5460   23.1991 C   0  0  0  0  0  0  0  0  0  0  0  0
  -28.8292  -28.2638   20.6092 C   0  0  0  0  0  0  0  0  0  0  0  0
  -23.9624   -8.4221   22.1431 C   0  0  0  0  0  0  0  0  0  0  0  0
  -24.4263   -9.5175   24.2460 C   0  0  0  0  0  0  0  0  0  0  0  0
  -29.4513  -27.2148   21.2848 C   0  0  0  0  0  0  0  0  0  0  0  0
  -21.2661   -7.2916   23.8416 C   0  0  0  0  0  0  0  0  0  0  0  0
  -20.0995   -6.6445   23.4345 C   0  0  0  0  0  0  0  0  0  0  0  0
  -27.3028  -26.1765   21.6387 C   0  0  0  0  0  0  0  0  0  0  0  0
  -30.4449  -19.3555   21.1326 C   0  0  0  0  0  0  0  0  0  0  0  0
  -28.0546  -19.5923   21.3914 C   0  0  0  0  0  0  0  0  0  0  0  0
  -21.3756   -4.6524   22.9445 C   0  0  0  0  0  0  0  0  0  0  0  0
  -24.7529  -10.7049   22.1675 C   0  0  0  0  0  0  0  0  0  0  0  0
  -29.5212  -21.4156   21.9928 C   0  0  0  0  0  0  0  0  0  0  0  0
  -24.3058  -12.9718   21.0862 C   0  0  0  0  0  0  0  0  0  0  0  0
  -26.7746  -34.5271   22.6298 C   0  0  0  0  0  0  0  0  0  0  0  0
  -27.4358  -28.2825   20.4526 C   0  0  0  0  0  0  0  0  0  0  0  0
  -26.8264  -33.1393   22.8613 C   0  0  0  0  0  0  0  0  0  0  0  0
  -26.6657  -27.2256   20.9585 C   0  0  0  0  0  0  0  0  0  0  0  0
  -29.1593  -18.8267   21.0184 C   0  0  0  0  0  0  0  0  0  0  0  0
  -30.6259  -20.6500   21.6198 C   0  0  0  0  0  0  0  0  0  0  0  0
  -24.0082   -8.3914   23.5369 C   0  0  0  0  0  0  0  0  0  0  0  0
  -28.6879  -26.1724   21.8021 C   0  0  0  0  0  0  0  0  0  0  0  0
  -22.4875   -6.6192   23.8001 C   0  0  0  0  0  0  0  0  0  0  0  0
  -20.1542   -5.3248   22.9859 C   0  0  0  0  0  0  0  0  0  0  0  0
  -28.2355  -20.8868   21.8786 C   0  0  0  0  0  0  0  0  0  0  0  0
  -22.5423   -5.2996   23.3516 C   0  0  0  0  0  0  0  0  0  0  0  0
  -25.1382  -11.9000   21.4607 C   0  0  0  0  0  0  0  0  0  0  0  0
  -25.1446  -13.8500   20.4446 C   0  0  0  0  0  0  0  0  0  0  0  0
  -29.6794  -22.7853   22.5101 C   0  0  0  0  0  0  0  0  0  0  0  0
  -29.1422  -23.8837   21.9647 C   0  0  0  0  0  0  0  0  0  1  0  0
  -22.9001  -13.1570   21.2993 C   0  0  0  0  0  0  0  0  0  0  0  0
  -25.0992  -30.2238   21.3882 C   0  0  0  0  0  0  0  0  0  0  0  0
  -23.2730  -28.2799   19.5421 C   0  0  0  0  0  0  0  0  0  0  0  0
  -22.8502  -25.2195   18.0922 C   0  0  0  0  0  0  0  0  0  0  0  0
  -29.9632  -16.6196   20.1081 C   0  0  0  0  0  0  0  0  0  0  0  0
  -25.4792  -35.2302   22.3100 C   0  0  0  0  0  0  0  0  0  0  0  0
  -26.7825  -29.4078   19.6981 C   0  0  0  0  0  0  0  0  0  0  0  0
  -25.1685  -27.1882   20.7995 C   0  0  0  0  0  0  0  0  0  0  0  0
  -24.3748  -34.2876   21.8387 C   0  0  0  0  0  0  0  0  0  0  0  0
  -29.9192  -13.2847   18.8615 C   0  0  0  0  0  0  0  0  0  0  0  0
  -24.2911  -33.0661   22.7486 C   0  0  0  0  0  0  0  0  0  0  0  0
  -28.6029  -12.7154   19.3958 C   0  0  0  0  0  0  0  0  0  0  0  0
  -30.5806  -14.2245   19.8680 C   0  0  0  0  0  0  0  0  0  0  0  0
  -28.4036  -14.7348   20.9022 C   0  0  0  0  0  0  0  0  0  0  0  0
  -25.5989  -32.2658   22.7193 C   0  0  1  0  0  0  0  0  0  0  0  0
  -25.3073  -29.5829   20.0453 C   0  0  1  0  0  0  0  0  0  0  0  0
  -27.6678  -13.8331   19.8975 C   0  0  2  0  0  0  0  0  0  0  0  0
  -21.2409  -23.9169   16.6743 C   0  0  0  0  0  0  0  0  0  0  0  0
  -21.4519  -27.9016   21.9609 C   0  0  0  0  0  0  0  0  0  0  0  0
  -20.4554  -25.9129   20.8120 C   0  0  0  0  0  0  0  0  0  0  0  0
  -20.2516  -28.1767   19.7842 C   0  0  0  0  0  0  0  0  0  0  0  0
  -24.8503  -24.8695   15.9391 C   0  0  0  0  0  0  0  0  0  0  0  0
  -22.4935  -27.0080   19.7740 C   0  0  1  0  0  0  0  0  0  0  0  0
  -22.4654  -24.8187   16.6795 C   0  0  2  0  0  0  0  0  0  0  0  0
  -21.1911  -27.2512   20.5876 C   0  0  0  0  0  0  0  0  0  0  0  0
  -26.4082  -12.0788   21.0879 N   0  0  0  0  0  0  0  0  0  0  0  0
  -26.3802  -13.2731   20.4724 N   0  0  0  0  0  0  0  0  0  0  0  0
  -24.5757  -28.3146   20.0595 N   0  0  0  0  0  0  0  0  0  0  0  0
  -29.6368  -15.2597   20.2952 N   0  0  0  0  0  0  0  0  0  0  0  0
  -31.9400  -21.1605   21.7255 N   0  0  0  0  0  0  0  0  0  0  0  0
  -24.9384  -15.0516   19.8649 N   0  0  0  0  0  0  0  0  0  0  0  0
  -22.1894  -12.1566   21.9763 N   0  0  0  0  0  0  0  0  0  0  0  0
  -28.9753  -17.5121   20.5228 N   0  0  0  0  0  0  0  0  0  0  0  0
  -25.6788  -31.4722   21.5117 N   0  0  0  0  0  0  0  0  0  0  0  0
  -22.2745  -26.4178   18.4579 N   0  0  0  0  0  0  0  0  0  0  0  0
  -23.5881  -24.0905   16.0236 N   0  3  0  0  0  0  0  0  0  0  0  0
  -22.2891  -14.1719   20.8866 O   0  0  0  0  0  0  0  0  0  0  0  0
  -24.4590  -29.6304   22.2483 O   0  0  0  0  0  0  0  0  0  0  0  0
  -22.7481  -29.2057   18.9185 O   0  0  0  0  0  0  0  0  0  0  0  0
  -23.5849  -24.5360   18.8018 O   0  0  0  0  0  0  0  0  0  0  0  0
  -31.0285  -16.9661   19.5912 O   0  0  0  0  0  0  0  0  0  0  0  0
  -23.6447   -7.2629   24.2054 O   0  0  0  0  0  0  0  0  0  0  0  0
  -29.2925  -25.1476   22.4625 O   0  0  0  0  0  0  0  0  0  1  0  0
  -19.0336   -4.7030   22.5964 F   0  0  0  0  0  0  0  0  0  0  0  0
  -27.1617  -21.6095   22.2303 F   0  0  0  0  0  0  0  0  0  0  0  0
  -23.7126   -4.6480   23.3106 F   0  0  0  0  0  0  0  0  0  0  0  0
  1  2  1  0  0  0  0
  1  5  2  0  0  0  0
  2  6  2  0  0  0  0
  3  8  2  0  0  0  0
  3 17  1  0  0  0  0
  4  9  1  0  0  0  0
  4 17  2  0  0  0  0
  5 20  1  0  0  0  0
  6 22  1  0  0  0  0
  7 10  2  0  0  0  0
  7 21  1  0  0  0  0
  8 26  1  0  0  0  0
  9 26  2  0  0  0  0
 10 27  1  0  0  0  0
 11 12  2  0  0  0  0
 11 28  1  0  0  0  0
 12 29  1  0  0  0  0
 13 23  1  0  0  0  0
 13 27  2  0  0  0  0
 14 24  1  0  0  0  0
 14 25  2  0  0  0  0
 15 24  2  0  0  0  0
 15 30  1  0  0  0  0
 16 29  2  0  0  0  0
 16 31  1  0  0  0  0
 17 32  1  0  0  0  0
 18 25  1  0  0  0  0
 18 30  2  0  0  0  0
 18 34  1  0  0  0  0
 19 32  1  0  0  0  0
 19 33  2  0  0  0  0
 19 36  1  0  0  0  0
 20 22  2  0  0  0  0
 20 41  1  0  0  0  0
 21 23  2  0  0  0  0
 21 42  1  0  0  0  0
 22 50  1  0  0  0  0
 23 43  1  0  0  0  0
 24 68  1  0  0  0  0
 25 65  1  0  0  0  0
 26 77  1  0  0  0  0
 27 78  1  0  0  0  0
 28 31  2  0  0  0  0
 28 77  1  0  0  0  0
 29 79  1  0  0  0  0
 30 80  1  0  0  0  0
 31 81  1  0  0  0  0
 32 61  2  0  0  0  0
 33 62  1  0  0  0  0
 33 66  1  0  0  0  0
 34 35  2  0  0  0  0
 35 78  1  0  0  0  0
 36 67  1  0  0  0  0
 36 72  2  0  0  0  0
 37 51  1  0  0  0  0
 37 69  1  0  0  0  0
 37 73  2  0  0  0  0
 38 58  1  0  0  0  0
 38 63  1  0  0  0  0
 38 74  2  0  0  0  0
 39 59  1  0  0  0  0
 39 70  1  0  0  0  0
 39 75  2  0  0  0  0
 40 64  1  0  0  0  0
 40 68  1  0  0  0  0
 40 76  2  0  0  0  0
 41 44  1  0  0  0  0
 42 51  1  0  0  0  0
 43 63  1  0  0  0  0
 44 46  1  0  0  0  0
 45 47  1  0  0  0  0
 45 48  1  0  0  0  0
 46 50  1  0  0  0  0
 47 52  1  0  0  0  0
 48 64  1  0  0  0  0
 49 52  1  0  0  0  0
 49 64  1  0  0  0  0
 50 69  1  0  0  0  0
 51 63  1  0  0  0  0
 52 62  1  0  0  0  0
 53 59  1  0  0  0  0
 54 60  1  0  0  0  0
 55 60  1  0  0  0  0
 56 60  1  0  0  0  0
 57 71  1  0  0  0  0
 58 60  1  0  0  0  0
 58 70  1  0  0  0  0
 59 71  1  0  0  0  0
 61 62  1  0  0  0  0
M  CHG  1  71   1
M  ISO  4  35 101  40 100  68 100  78 101
M  END
> <Batch ID>
0097

> <Smiles>
CNC(C)C(=O)NC(C(=O)N1Cc2cc([101O:1][101CH:1]=Cc3c(N)cc([100NH:0][100C:0](=O)N4CCCC(n5nc(-c6ccc(Oc7ccc(F)cc7F)cc6)c(C(N)=O)c5N)C4)cc3F)ccc2CC1C(=O)NC1CCCc2ccccc21)C(C)(C)C

> <Shape>
0.290

> <Color>
0.121

> <Negative vol penalty>
0.000

$$$$

  -OEChem-04052300493D

 83 91  0     1  0  0  0  0  0999 V2000
  -32.5869  -30.9078   21.5472 C   0  0  0  0  0  0  0  0  0  0  0  0
  -32.0558  -29.8847   20.7684 C   0  0  0  0  0  0  0  0  0  0  0  0
  -22.9014  -10.4369   19.9775 C   0  0  0  0  0  0  0  0  0  0  0  0
  -23.6640   -9.9371   22.2149 C   0  0  0  0  0  0  0  0  0  0  0  0
  -29.1213  -16.7276   18.5354 C   0  0  0  0  0  0  0  0  0  0  0  0
  -31.9789  -31.2510   22.7541 C   0  0  0  0  0  0  0  0  0  0  0  0
  -30.9169  -29.2035   21.1965 C   0  0  0  0  0  0  0  0  0  0  0  0
  -26.4333  -26.9552   17.6824 C   0  0  0  0  0  0  0  0  0  0  0  0
  -28.3278  -17.8645   18.3821 C   0  0  0  0  0  0  0  0  0  0  0  0
  -21.9773   -9.3953   20.0598 C   0  0  0  0  0  0  0  0  0  0  0  0
  -22.7399   -8.8955   22.2972 C   0  0  0  0  0  0  0  0  0  0  0  0
  -26.1756  -25.6742   17.1961 C   0  0  0  0  0  0  0  0  0  0  0  0
  -22.4710   -5.7107   21.1945 C   0  0  0  0  0  0  0  0  0  0  0  0
  -22.9111   -4.4935   21.7143 C   0  0  0  0  0  0  0  0  0  0  0  0
  -28.4751  -15.9792   16.3311 C   0  0  0  0  0  0  0  0  0  0  0  0
  -24.6767  -25.2806   19.0448 C   0  0  0  0  0  0  0  0  0  0  0  0
  -21.2714   -4.6553   23.4813 C   0  0  0  0  0  0  0  0  0  0  0  0
  -23.7448  -10.7078   21.0551 C   0  0  0  0  0  0  0  0  0  0  0  0
  -29.1949  -15.7849   17.5099 C   0  0  0  0  0  0  0  0  0  0  0  0
  -24.5014  -13.1274   21.3387 C   0  0  0  0  0  0  0  0  0  0  0  0
  -30.8264  -30.5802   23.1925 C   0  0  0  0  0  0  0  0  0  0  0  0
  -25.8220  -27.4053   18.8614 C   0  0  0  0  0  0  0  0  0  0  0  0
  -30.2936  -29.5372   22.4110 C   0  0  0  0  0  0  0  0  0  0  0  0
  -24.9263  -26.5686   19.5425 C   0  0  0  0  0  0  0  0  0  0  0  0
  -27.6080  -18.0587   17.2032 C   0  0  0  0  0  0  0  0  0  0  0  0
  -21.8965   -8.6246   21.2196 C   0  0  0  0  0  0  0  0  0  0  0  0
  -25.2994  -24.8356   17.8789 C   0  0  0  0  0  0  0  0  0  0  0  0
  -21.4311   -6.4003   21.8181 C   0  0  0  0  0  0  0  0  0  0  0  0
  -22.3113   -3.9658   22.8577 C   0  0  0  0  0  0  0  0  0  0  0  0
  -27.6816  -17.1160   16.1778 C   0  0  0  0  0  0  0  0  0  0  0  0
  -20.8313   -5.8726   22.9615 C   0  0  0  0  0  0  0  0  0  0  0  0
  -24.6999  -11.7832   20.9705 C   0  0  0  0  0  0  0  0  0  0  0  0
  -25.7011  -13.7385   21.0671 C   0  0  0  0  0  0  0  0  0  0  0  0
  -25.8463  -22.5620   17.8338 C   0  0  0  0  0  0  0  0  0  1  0  0
  -30.0313  -14.5884   17.6704 C   0  0  0  0  0  0  0  0  0  0  0  0
  -23.3367  -13.7664   21.8780 C   0  0  0  0  0  0  0  0  0  0  0  0
  -25.6883  -21.2942   17.4347 C   0  0  0  0  0  0  0  0  0  0  0  0
  -26.6189  -20.2438   17.9629 C   0  0  0  0  0  0  0  0  0  0  0  0
  -26.8671  -28.3437   21.7129 C   0  0  0  0  0  0  0  0  0  0  0  0
  -23.7397  -29.0603   22.1905 C   0  0  0  0  0  0  0  0  0  0  0  0
  -20.4783  -28.4961   21.3585 C   0  0  0  0  0  0  0  0  0  0  0  0
  -30.2317  -30.9548   24.5270 C   0  0  0  0  0  0  0  0  0  0  0  0
  -26.0900  -28.7995   19.3583 C   0  0  0  0  0  0  0  0  0  0  0  0
  -24.2287  -27.0115   20.8017 C   0  0  0  0  0  0  0  0  0  0  0  0
  -28.8104  -30.4354   24.7279 C   0  0  0  0  0  0  0  0  0  0  0  0
  -30.2111  -11.7858   19.8738 C   0  0  0  0  0  0  0  0  0  0  0  0
  -28.7145  -28.9698   24.3162 C   0  0  0  0  0  0  0  0  0  0  0  0
  -28.7733  -11.6308   20.3727 C   0  0  0  0  0  0  0  0  0  0  0  0
  -30.2562  -12.2431   18.4180 C   0  0  0  0  0  0  0  0  0  0  0  0
  -28.0428  -13.3192   18.6360 C   0  0  0  0  0  0  0  0  0  0  0  0
  -29.0451  -28.7915   22.8295 C   0  0  1  0  0  0  0  0  0  0  0  0
  -25.8083  -28.9673   20.8482 C   0  0  1  0  0  0  0  0  0  0  0  0
  -27.9526  -12.9085   20.1149 C   0  0  1  0  0  0  0  0  0  0  0  0
  -18.1442  -29.2048   21.9474 C   0  0  0  0  0  0  0  0  0  0  0  0
  -23.8692  -27.3702   24.7276 C   0  0  0  0  0  0  0  0  0  0  0  0
  -21.3659  -27.3288   24.7443 C   0  0  0  0  0  0  0  0  0  0  0  0
  -22.5771  -29.4992   24.9571 C   0  0  0  0  0  0  0  0  0  0  0  0
  -19.9732  -29.5127   18.6254 C   0  0  0  0  0  0  0  0  0  0  0  0
  -22.5412  -28.3135   22.7244 C   0  0  1  0  0  0  0  0  0  0  0  0
  -19.3404  -29.4493   21.0408 C   0  0  2  0  0  0  0  0  0  0  0  0
  -22.6028  -28.1186   24.2657 C   0  0  0  0  0  0  0  0  0  0  0  0
  -25.9289  -11.5534   20.5007 N   0  0  0  0  0  0  0  0  0  0  0  0
  -26.5135  -12.7614   20.5718 N   0  0  0  0  0  0  0  0  0  0  0  0
  -29.4491  -13.4479   18.2288 N   0  0  0  0  0  0  0  0  0  0  0  0
  -24.5283  -28.3811   21.2509 N   0  0  0  0  0  0  0  0  0  0  0  0
  -26.1298  -15.0111   21.2061 N   0  0  0  0  0  0  0  0  0  0  0  0
  -22.1894  -12.9913   22.0951 N   0  0  0  0  0  0  0  0  0  0  0  0
  -26.8032  -19.2135   17.0512 N   0  0  0  0  0  0  0  0  0  0  0  0
  -27.9197  -29.1881   22.0104 N   0  0  0  0  0  0  0  0  0  0  0  0
  -21.3660  -29.0431   22.2609 N   0  0  0  0  0  0  0  0  0  0  0  0
  -18.9013  -29.2787   19.6269 N   0  3  0  0  0  0  0  0  0  0  0  0
  -31.2015  -14.6904   17.3054 O   0  0  0  0  0  0  0  0  0  0  0  0
  -23.3089  -14.9921   22.1436 O   0  0  0  0  0  0  0  0  0  0  0  0
  -27.1204  -20.3491   19.0771 O   0  0  0  0  0  0  0  0  0  0  0  0
  -26.7379  -27.1830   22.0840 O   0  0  0  0  0  0  0  0  0  0  0  0
  -23.9637  -30.2067   22.5869 O   0  0  0  0  0  0  0  0  0  0  0  0
  -20.5686  -27.3766   20.8593 O   0  0  0  0  0  0  0  0  0  0  0  0
  -24.6977  -20.9116   16.5532 O   0  0  0  0  0  0  0  0  0  0  0  0
  -20.9948   -7.6083   21.3003 O   0  0  0  0  0  0  0  0  0  0  0  0
  -25.0466  -23.5846   17.4068 O   0  0  0  0  0  0  0  0  0  1  0  0
  -22.7329   -2.7961   23.3559 F   0  0  0  0  0  0  0  0  0  0  0  0
  -26.9939  -17.2920   15.0402 F   0  0  0  0  0  0  0  0  0  0  0  0
  -19.8311   -6.5299   23.5643 F   0  0  0  0  0  0  0  0  0  0  0  0
  1  2  1  0  0  0  0
  1  6  2  0  0  0  0
  2  7  2  0  0  0  0
  3 10  2  0  0  0  0
  3 18  1  0  0  0  0
  4 11  1  0  0  0  0
  4 18  2  0  0  0  0
  5  9  2  0  0  0  0
  5 19  1  0  0  0  0
  6 21  1  0  0  0  0
  7 23  1  0  0  0  0
  8 12  2  0  0  0  0
  8 22  1  0  0  0  0
  9 25  1  0  0  0  0
 10 26  1  0  0  0  0
 11 26  2  0  0  0  0
 12 27  1  0  0  0  0
 13 14  2  0  0  0  0
 13 28  1  0  0  0  0
 14 29  1  0  0  0  0
 15 19  2  0  0  0  0
 15 30  1  0  0  0  0
 16 24  1  0  0  0  0
 16 27  2  0  0  0  0
 17 29  2  0  0  0  0
 17 31  1  0  0  0  0
 18 32  1  0  0  0  0
 19 35  1  0  0  0  0
 20 32  1  0  0  0  0
 20 33  2  0  0  0  0
 20 36  1  0  0  0  0
 21 23  2  0  0  0  0
 21 42  1  0  0  0  0
 22 24  2  0  0  0  0
 22 43  1  0  0  0  0
 23 51  1  0  0  0  0
 24 44  1  0  0  0  0
 25 30  2  0  0  0  0
 25 68  1  0  0  0  0
 26 79  1  0  0  0  0
 27 80  1  0  0  0  0
 28 31  2  0  0  0  0
 28 79  1  0  0  0  0
 29 81  1  0  0  0  0
 30 82  1  0  0  0  0
 31 83  1  0  0  0  0
 32 62  2  0  0  0  0
 33 63  1  0  0  0  0
 33 66  1  0  0  0  0
 34 37  2  0  0  0  0
 34 80  1  0  0  0  0
 35 64  1  0  0  0  0
 35 72  2  0  0  0  0
 36 67  1  0  0  0  0
 36 73  2  0  0  0  0
 37 38  1  0  0  0  0
 37 78  1  0  0  0  0
 38 68  1  0  0  0  0
 38 74  2  0  0  0  0
 39 52  1  0  0  0  0
 39 69  1  0  0  0  0
 39 75  2  0  0  0  0
 40 59  1  0  0  0  0
 40 65  1  0  0  0  0
 40 76  2  0  0  0  0
 41 60  1  0  0  0  0
 41 70  1  0  0  0  0
 41 77  2  0  0  0  0
 42 45  1  0  0  0  0
 43 52  1  0  0  0  0
 44 65  1  0  0  0  0
 45 47  1  0  0  0  0
 46 48  1  0  0  0  0
 46 49  1  0  0  0  0
 47 51  1  0  0  0  0
 48 53  1  0  0  0  0
 49 64  1  0  0  0  0
 50 53  1  0  0  0  0
 50 64  1  0  0  0  0
 51 69  1  0  0  0  0
 52 65  1  0  0  0  0
 53 63  1  0  0  0  0
 54 60  1  0  0  0  0
 55 61  1  0  0  0  0
 56 61  1  0  0  0  0
 57 61  1  0  0  0  0
 58 71  1  0  0  0  0
 59 61  1  0  0  0  0
 59 70  1  0  0  0  0
 60 71  1  0  0  0  0
 62 63  1  0  0  0  0
M  CHG  1  71   1
M  ISO  4  19 100  34 101  35 100  80 101
M  END
> <Batch ID>
0097

> <Smiles>
CNC(C)C(=O)NC(C(=O)N1Cc2cc([101O:1][101CH2:1]C(=O)C(=O)Nc3cc[100c:0]([100C:0](=O)N4CCCC(n5nc(-c6ccc(Oc7ccc(F)cc7F)cc6)c(C(N)=O)c5N)C4)cc3F)ccc2CC1C(=O)NC1CCCc2ccccc21)C(C)(C)C

> <Shape>
0.249

> <Color>
0.144

> <Negative vol penalty>
0.000

$$$$

  -OEChem-04052300493D

 85 93  0     1  0  0  0  0  0999 V2000
  -28.3511  -25.0326   26.2078 C   0  0  0  0  0  0  0  0  0  0  0  0
  -27.0571  -24.7347   25.7926 C   0  0  0  0  0  0  0  0  0  0  0  0
  -29.4790  -28.1328   19.9797 C   0  0  0  0  0  0  0  0  0  0  0  0
  -27.7618  -26.6798   19.0985 C   0  0  0  0  0  0  0  0  0  0  0  0
  -18.5621  -27.3183   23.8328 C   0  0  0  0  0  0  0  0  0  0  0  0
  -29.4421  -24.5360   25.4959 C   0  0  0  0  0  0  0  0  0  0  0  0
  -26.8535  -23.9409   24.6644 C   0  0  0  0  0  0  0  0  0  0  0  0
  -23.2945  -20.4119   25.3886 C   0  0  0  0  0  0  0  0  0  0  0  0
  -19.5990  -28.2334   23.6513 C   0  0  0  0  0  0  0  0  0  0  0  0
  -30.3812  -27.0691   19.9759 C   0  0  0  0  0  0  0  0  0  0  0  0
  -28.6640  -25.6159   19.0946 C   0  0  0  0  0  0  0  0  0  0  0  0
  -21.9648  -20.8268   25.3278 C   0  0  0  0  0  0  0  0  0  0  0  0
  -30.6154  -22.6039   18.5133 C   0  0  0  0  0  0  0  0  0  0  0  0
  -30.6554  -21.7907   17.3808 C   0  0  0  0  0  0  0  0  0  0  0  0
  -18.9605  -26.4285   21.6222 C   0  0  0  0  0  0  0  0  0  0  0  0
  -21.8128  -19.9883   23.0710 C   0  0  0  0  0  0  0  0  0  0  0  0
  -31.2512  -23.7025   16.0290 C   0  0  0  0  0  0  0  0  0  0  0  0
  -28.1693  -27.9382   19.5411 C   0  0  0  0  0  0  0  0  0  0  0  0
  -18.2429  -26.4158   22.8182 C   0  0  0  0  0  0  0  0  0  0  0  0
  -26.9967  -29.9520   18.5032 C   0  0  0  0  0  0  0  0  0  0  0  0
  -29.2518  -23.7277   24.3640 C   0  0  0  0  0  0  0  0  0  0  0  0
  -23.8975  -19.7909   24.2853 C   0  0  0  0  0  0  0  0  0  0  0  0
  -27.9431  -23.4341   23.9358 C   0  0  0  0  0  0  0  0  0  0  0  0
  -23.1494  -19.5642   23.1212 C   0  0  0  0  0  0  0  0  0  0  0  0
  -20.3166  -28.2462   22.4553 C   0  0  0  0  0  0  0  0  0  0  0  0
  -29.9737  -25.8106   19.5333 C   0  0  0  0  0  0  0  0  0  0  0  0
  -21.2246  -20.6176   24.1679 C   0  0  0  0  0  0  0  0  0  0  0  0
  -30.8932  -23.9665   18.4037 C   0  0  0  0  0  0  0  0  0  0  0  0
  -30.9733  -22.3399   16.1386 C   0  0  0  0  0  0  0  0  0  0  0  0
  -19.9974  -27.3437   21.4407 C   0  0  0  0  0  0  0  0  0  0  0  0
  -31.2111  -24.5157   17.1616 C   0  0  0  0  0  0  0  0  0  0  0  0
  -27.2367  -29.0366   19.5454 C   0  0  0  0  0  0  0  0  0  0  0  0
  -26.0300  -30.7919   18.9998 C   0  0  0  0  0  0  0  0  0  0  0  0
  -17.1342  -25.4376   23.0123 C   0  0  0  0  0  0  0  0  0  0  0  0
  -27.5940  -30.0356   17.2025 C   0  0  0  0  0  0  0  0  0  0  0  0
  -26.3498  -20.4830   22.3850 C   0  0  0  0  0  0  0  0  0  0  0  0
  -25.7436  -17.5337   21.1782 C   0  0  0  0  0  0  0  0  0  0  0  0
  -23.4992  -15.0108   20.6836 C   0  0  0  0  0  0  0  0  0  0  0  0
  -21.8113  -30.1397   23.1810 C   0  0  0  0  0  0  0  0  0  0  0  0
  -30.4620  -23.2531   23.5992 C   0  0  0  0  0  0  0  0  0  0  0  0
  -25.3249  -19.3253   24.3763 C   0  0  0  0  0  0  0  0  0  0  0  0
  -23.7442  -18.8838   21.9164 C   0  0  0  0  0  0  0  0  0  0  0  0
  -30.1620  -22.1099   22.6330 C   0  0  0  0  0  0  0  0  0  0  0  0
  -24.3921  -32.5920   23.1242 C   0  0  0  0  0  0  0  0  0  0  0  0
  -28.9070  -22.4129   21.8207 C   0  0  0  0  0  0  0  0  0  0  0  0
  -25.3896  -32.0448   22.1007 C   0  0  0  0  0  0  0  0  0  0  0  0
  -23.7596  -31.4752   23.9528 C   0  0  0  0  0  0  0  0  0  0  0  0
  -24.1482  -29.8440   22.1480 C   0  0  0  0  0  0  0  0  0  0  0  0
  -27.6816  -22.5559   22.7315 C   0  0  1  0  0  0  0  0  0  0  0  0
  -25.9895  -19.1661   23.0124 C   0  0  1  0  0  0  0  0  0  0  0  0
  -24.7630  -30.9262   21.2454 C   0  0  2  0  0  0  0  0  0  0  0  0
  -23.2853  -12.7426   19.6317 C   0  0  0  0  0  0  0  0  0  0  0  0
  -25.5988  -18.8294   18.4195 C   0  0  0  0  0  0  0  0  0  0  0  0
  -24.4714  -16.7567   17.5820 C   0  0  0  0  0  0  0  0  0  0  0  0
  -26.7957  -16.6343   18.4795 C   0  0  0  0  0  0  0  0  0  0  0  0
  -22.8656  -13.7387   23.2796 C   0  0  0  0  0  0  0  0  0  0  0  0
  -18.3927  -22.8881   24.2308 C   0  0  0  0  0  0  0  0  0  0  0  0
  -17.9542  -24.1175   25.0415 C   0  0  0  0  0  0  0  0  0  0  0  0
  -19.5633  -22.1609   24.8850 C   0  0  0  0  0  0  0  0  0  1  0  0
  -16.8128  -24.9286   24.4129 C   0  0  2  0  0  0  0  0  0  0  0  0
  -24.8676  -16.9889   20.0760 C   0  0  1  0  0  0  0  0  0  0  0  0
  -23.6032  -13.5125   20.9041 C   0  0  2  0  0  0  0  0  0  0  0  0
  -25.4224  -17.3169   18.6611 C   0  0  0  0  0  0  0  0  0  0  0  0
  -26.4834  -29.2726   20.6228 N   0  0  0  0  0  0  0  0  0  0  0  0
  -25.7605  -30.3460   20.2603 N   0  0  0  0  0  0  0  0  0  0  0  0
  -25.1453  -18.4524   22.0521 N   0  0  0  0  0  0  0  0  0  0  0  0
  -23.1828  -30.4540   23.0758 N   0  0  0  0  0  0  0  0  0  0  0  0
  -25.3927  -31.8609   18.4769 N   0  0  0  0  0  0  0  0  0  0  0  0
  -28.5712  -29.0932   16.8542 N   0  0  0  0  0  0  0  0  0  0  0  0
  -21.3690  -29.1775   22.2738 N   0  0  0  0  0  0  0  0  0  0  0  0
  -27.2064  -21.2538   23.1476 N   0  0  0  0  0  0  0  0  0  0  0  0
  -24.7159  -15.5626   20.3425 N   0  0  0  0  0  0  0  0  0  0  0  0
  -15.5762  -24.0874   24.3762 N   0  3  0  0  0  0  0  0  0  0  0  0
  -22.6525  -13.0779   21.9663 N   0  3  0  0  0  0  0  0  0  0  0  0
  -16.5053  -25.0566   22.0260 O   0  0  0  0  0  0  0  0  0  0  0  0
  -27.2826  -30.9298   16.3797 O   0  0  0  0  0  0  0  0  0  0  0  0
  -25.8862  -20.7773   21.2895 O   0  0  0  0  0  0  0  0  0  0  0  0
  -26.9136  -17.1526   21.2649 O   0  0  0  0  0  0  0  0  0  0  0  0
  -22.4434  -15.6293   20.7987 O   0  0  0  0  0  0  0  0  0  0  0  0
  -21.0770  -30.7038   23.9962 O   0  0  0  0  0  0  0  0  0  0  0  0
  -30.8538  -24.7724   19.5291 O   0  0  0  0  0  0  0  0  0  0  0  0
  -19.9268  -21.0221   24.1056 O   0  0  0  0  0  0  0  0  0  1  0  0
  -31.0132  -21.5586   15.0514 F   0  0  0  0  0  0  0  0  0  0  0  0
  -20.6799  -27.3470   20.2865 F   0  0  0  0  0  0  0  0  0  0  0  0
  -31.4801  -25.8238   17.0503 F   0  0  0  0  0  0  0  0  0  0  0  0
  1  2  1  0  0  0  0
  1  6  2  0  0  0  0
  2  7  2  0  0  0  0
  3 10  2  0  0  0  0
  3 18  1  0  0  0  0
  4 11  1  0  0  0  0
  4 18  2  0  0  0  0
  5  9  2  0  0  0  0
  5 19  1  0  0  0  0
  6 21  1  0  0  0  0
  7 23  1  0  0  0  0
  8 12  2  0  0  0  0
  8 22  1  0  0  0  0
  9 25  1  0  0  0  0
 10 26  1  0  0  0  0
 11 26  2  0  0  0  0
 12 27  1  0  0  0  0
 13 14  2  0  0  0  0
 13 28  1  0  0  0  0
 14 29  1  0  0  0  0
 15 19  2  0  0  0  0
 15 30  1  0  0  0  0
 16 24  1  0  0  0  0
 16 27  2  0  0  0  0
 17 29  2  0  0  0  0
 17 31  1  0  0  0  0
 18 32  1  0  0  0  0
 19 34  1  0  0  0  0
 20 32  1  0  0  0  0
 20 33  2  0  0  0  0
 20 35  1  0  0  0  0
 21 23  2  0  0  0  0
 21 40  1  0  0  0  0
 22 24  2  0  0  0  0
 22 41  1  0  0  0  0
 23 49  1  0  0  0  0
 24 42  1  0  0  0  0
 25 30  2  0  0  0  0
 25 70  1  0  0  0  0
 26 81  1  0  0  0  0
 27 82  1  0  0  0  0
 28 31  2  0  0  0  0
 28 81  1  0  0  0  0
 29 83  1  0  0  0  0
 30 84  1  0  0  0  0
 31 85  1  0  0  0  0
 32 64  2  0  0  0  0
 33 65  1  0  0  0  0
 33 68  1  0  0  0  0
 34 60  1  0  0  0  0
 34 75  2  0  0  0  0
 35 69  1  0  0  0  0
 35 76  2  0  0  0  0
 36 50  1  0  0  0  0
 36 71  1  0  0  0  0
 36 77  2  0  0  0  0
 37 61  1  0  0  0  0
 37 66  1  0  0  0  0
 37 78  2  0  0  0  0
 38 62  1  0  0  0  0
 38 72  1  0  0  0  0
 38 79  2  0  0  0  0
 39 67  1  0  0  0  0
 39 70  1  0  0  0  0
 39 80  2  0  0  0  0
 40 43  1  0  0  0  0
 41 50  1  0  0  0  0
 42 66  1  0  0  0  0
 43 45  1  0  0  0  0
 44 46  1  0  0  0  0
 44 47  1  0  0  0  0
 45 49  1  0  0  0  0
 46 51  1  0  0  0  0
 47 67  1  0  0  0  0
 48 51  1  0  0  0  0
 48 67  1  0  0  0  0
 49 71  1  0  0  0  0
 50 66  1  0  0  0  0
 51 65  1  0  0  0  0
 52 62  1  0  0  0  0
 53 63  1  0  0  0  0
 54 63  1  0  0  0  0
 55 63  1  0  0  0  0
 56 74  1  0  0  0  0
 57 58  1  0  0  0  0
 57 59  1  0  0  0  0
 58 60  1  0  0  0  0
 59 82  1  0  0  0  0
 60 73  1  0  0  0  0
 61 63  1  0  0  0  0
 61 72  1  0  0  0  0
 62 74  1  0  0  0  0
 64 65  1  0  0  0  0
M  CHG  2  73   1  74   1
M  ISO  4  39 100  59 101  70 100  82 101
M  END
> <Batch ID>
0097

> <Smiles>
CNC(C)C(=O)NC(C(=O)N1Cc2cc([101O:1][101CH2:1]CCC(N)C(=O)c3ccc([100NH:0][100C:0](=O)N4CCCC(n5nc(-c6ccc(Oc7ccc(F)cc7F)cc6)c(C(N)=O)c5N)C4)c(F)c3)ccc2CC1C(=O)NC1CCCc2ccccc21)C(C)(C)C

> <Shape>
0.188

> <Color>
0.079

> <Negative vol penalty>
0.000

$$$$

  -OEChem-04052300493D

 84 93  0     1  0  0  0  0  0999 V2000
  -19.0097  -30.4230   24.9000 C   0  0  0  0  0  0  0  0  0  0  0  0
  -20.3813  -30.2379   24.7588 C   0  0  0  0  0  0  0  0  0  0  0  0
  -23.9987  -12.5093   20.3419 C   0  0  0  0  0  0  0  0  0  0  0  0
  -26.3336  -12.7707   20.9048 C   0  0  0  0  0  0  0  0  0  0  0  0
  -18.1215  -29.5853   24.2268 C   0  0  0  0  0  0  0  0  0  0  0  0
  -20.8654  -29.2142   23.9452 C   0  0  0  0  0  0  0  0  0  0  0  0
  -25.9361  -29.3257   20.5127 C   0  0  0  0  0  0  0  0  0  0  0  0
  -24.2282  -11.1743   20.0096 C   0  0  0  0  0  0  0  0  0  0  0  0
  -26.5632  -11.4356   20.5726 C   0  0  0  0  0  0  0  0  0  0  0  0
  -27.2224  -28.8309   20.7233 C   0  0  0  0  0  0  0  0  0  0  0  0
  -24.1274   -7.5995   19.3569 C   0  0  0  0  0  0  0  0  0  0  0  0
  -23.2172   -6.6500   19.8209 C   0  0  0  0  0  0  0  0  0  0  0  0
  -31.9895  -20.3848   23.3378 C   0  0  0  0  0  0  0  0  0  0  0  0
  -30.9782  -19.4440   23.0288 C   0  0  0  0  0  0  0  0  0  0  0  0
  -26.6508  -26.8375   19.4910 C   0  0  0  0  0  0  0  0  0  0  0  0
  -23.7157   -7.2850   22.0981 C   0  0  0  0  0  0  0  0  0  0  0  0
  -25.0514  -13.3076   20.7895 C   0  0  0  0  0  0  0  0  0  0  0  0
  -23.9414  -15.1798   22.1201 C   0  0  0  0  0  0  0  0  0  0  0  0
  -18.5950  -28.5569   23.3969 C   0  0  0  0  0  0  0  0  0  0  0  0
  -24.9925  -28.5740   19.7978 C   0  0  0  0  0  0  0  0  0  0  0  0
  -19.9827  -28.3610   23.2614 C   0  0  0  0  0  0  0  0  0  0  0  0
  -25.3540  -27.3261   19.2705 C   0  0  0  0  0  0  0  0  0  0  0  0
  -25.5104  -10.6374   20.1250 C   0  0  0  0  0  0  0  0  0  0  0  0
  -27.5791  -27.5854   20.2149 C   0  0  0  0  0  0  0  0  0  0  0  0
  -24.8319   -8.3918   20.2634 C   0  0  0  0  0  0  0  0  0  0  0  0
  -23.0113   -6.4927   21.1915 C   0  0  0  0  0  0  0  0  0  0  0  0
  -24.6260   -8.2345   21.6340 C   0  0  0  0  0  0  0  0  0  0  0  0
  -24.8150  -14.6870   21.1323 C   0  0  0  0  0  0  0  0  0  0  0  0
  -31.8265  -21.4253   22.4530 C   0  0  0  0  0  0  0  0  0  0  0  0
  -24.0800  -16.5445   22.0512 C   0  0  0  0  0  0  0  0  0  0  0  0
  -30.2693  -19.9767   21.9773 C   0  0  0  0  0  0  0  0  0  0  0  0
  -23.0816  -14.4675   23.0196 C   0  0  0  0  0  0  0  0  0  0  0  0
  -32.5688  -22.6841   22.2814 C   0  0  0  0  0  0  0  0  0  0  0  0
  -22.1654  -27.2905   20.4788 C   0  0  0  0  0  0  0  0  0  0  0  0
  -22.1516  -26.6008   17.3092 C   0  0  0  0  0  0  0  0  0  0  0  0
  -23.9410  -26.0606   14.4539 C   0  0  0  0  0  0  0  0  0  0  0  0
  -28.4990  -20.1101   20.1900 C   0  0  0  0  0  0  0  0  0  0  0  0
  -17.5963  -27.6468   22.7268 C   0  0  0  0  0  0  0  0  0  0  0  0
  -23.6173  -29.1335   19.5564 C   0  0  0  0  0  0  0  0  0  0  0  0
  -24.3843  -26.4887   18.4787 C   0  0  0  0  0  0  0  0  0  0  0  0
  -18.1916  -26.8223   21.5884 C   0  0  0  0  0  0  0  0  0  0  0  0
  -25.1550  -20.0485   18.9689 C   0  0  0  0  0  0  0  0  0  0  0  0
  -19.5156  -26.1978   22.0172 C   0  0  0  0  0  0  0  0  0  0  0  0
  -24.6069  -18.7142   19.4801 C   0  0  0  0  0  0  0  0  0  0  0  0
  -31.4813  -25.9206   20.8867 C   0  0  0  0  0  0  0  0  0  0  0  0
  -26.6249  -19.9411   18.5669 C   0  0  0  0  0  0  0  0  0  0  0  0
  -32.5155  -25.0702   21.6080 C   0  0  0  0  0  0  0  0  0  0  0  0
  -30.4433  -23.8544   21.4884 C   0  0  0  0  0  0  0  0  0  0  0  0
  -26.9628  -18.0488   20.1077 C   0  0  0  0  0  0  0  0  0  0  0  0
  -20.5466  -27.2773   22.3683 C   0  0  1  0  0  0  0  0  0  0  0  0
  -22.5789  -28.0574   19.2547 C   0  0  1  0  0  0  0  0  0  0  0  0
  -30.1546  -25.3517   21.3951 C   0  0  2  0  0  0  0  0  0  0  0  0
  -25.5035  -18.1231   20.5857 C   0  0  2  0  0  0  0  0  0  0  0  0
  -23.6541  -25.4803   12.0294 C   0  0  0  0  0  0  0  0  0  0  0  0
  -21.6078  -23.6967   18.0710 C   0  0  0  0  0  0  0  0  0  0  0  0
  -22.2704  -23.0363   15.7488 C   0  0  0  0  0  0  0  0  0  0  0  0
  -20.2990  -24.5224   16.1064 C   0  0  0  0  0  0  0  0  0  0  0  0
  -25.1832  -28.6005   13.5794 C   0  0  0  0  0  0  0  0  0  0  0  0
  -28.9771  -25.6821   20.4956 C   0  0  0  0  0  0  0  0  0  1  0  0
  -22.6263  -25.4428   16.4650 C   0  0  1  0  0  0  0  0  0  0  0  0
  -23.7796  -26.6045   13.0459 C   0  0  2  0  0  0  0  0  0  0  0  0
  -21.7188  -24.1892   16.6143 C   0  0  0  0  0  0  0  0  0  0  0  0
  -25.4607  -15.6596   20.4833 N   0  0  0  0  0  0  0  0  0  0  0  0
  -24.9923  -16.7772   21.0645 N   0  0  0  0  0  0  0  0  0  0  0  0
  -31.8699  -23.7798   21.7985 N   0  0  0  0  0  0  0  0  0  0  0  0
  -23.0499  -27.0764   18.2750 N   0  0  0  0  0  0  0  0  0  0  0  0
  -27.4136  -19.3774   19.6646 N   0  0  0  0  0  0  0  0  0  0  0  0
  -23.5091  -17.5562   22.7389 N   0  0  0  0  0  0  0  0  0  0  0  0
  -23.5905  -14.0853   24.2683 N   0  0  0  0  0  0  0  0  0  0  0  0
  -29.1541  -19.4883   21.2524 N   0  0  0  0  0  0  0  0  0  0  0  0
  -21.1055  -27.8531   21.1639 N   0  0  0  0  0  0  0  0  0  0  0  0
  -22.7281  -25.9476   15.1000 N   0  0  0  0  0  0  0  0  0  0  0  0
  -24.9550  -27.4430   12.6766 N   0  3  0  0  0  0  0  0  0  0  0  0
  -21.9023  -14.1643   22.7183 O   0  0  0  0  0  0  0  0  0  0  0  0
  -33.7594  -22.6841   22.5881 O   0  0  0  0  0  0  0  0  0  0  0  0
  -22.7628  -26.2633   20.7787 O   0  0  0  0  0  0  0  0  0  0  0  0
  -21.0279  -27.0708   17.1140 O   0  0  0  0  0  0  0  0  0  0  0  0
  -25.0334  -25.7620   14.9315 O   0  0  0  0  0  0  0  0  0  0  0  0
  -28.8064  -21.2206   19.7490 O   0  0  0  0  0  0  0  0  0  0  0  0
  -30.7800  -21.1843   21.6203 O   0  0  0  0  0  0  0  0  0  0  0  0
  -25.7347   -9.3346   19.8010 O   0  0  0  0  0  0  0  0  0  0  0  0
  -28.8337  -27.0998   20.4196 O   0  0  0  0  0  0  0  0  0  1  0  0
  -22.1360   -5.5819   21.6370 F   0  0  0  0  0  0  0  0  0  0  0  0
  -25.2990   -8.9935   22.5096 F   0  0  0  0  0  0  0  0  0  0  0  0
  1  2  1  0  0  0  0
  1  5  2  0  0  0  0
  2  6  2  0  0  0  0
  3  8  2  0  0  0  0
  3 17  1  0  0  0  0
  4  9  1  0  0  0  0
  4 17  2  0  0  0  0
  5 19  1  0  0  0  0
  6 21  1  0  0  0  0
  7 10  2  0  0  0  0
  7 20  1  0  0  0  0
  8 23  1  0  0  0  0
  9 23  2  0  0  0  0
 10 24  1  0  0  0  0
 11 12  2  0  0  0  0
 11 25  1  0  0  0  0
 12 26  1  0  0  0  0
 13 14  1  0  0  0  0
 13 29  2  0  0  0  0
 14 31  2  0  0  0  0
 15 22  1  0  0  0  0
 15 24  2  0  0  0  0
 16 26  2  0  0  0  0
 16 27  1  0  0  0  0
 17 28  1  0  0  0  0
 18 28  1  0  0  0  0
 18 30  2  0  0  0  0
 18 32  1  0  0  0  0
 19 21  2  0  0  0  0
 19 38  1  0  0  0  0
 20 22  2  0  0  0  0
 20 39  1  0  0  0  0
 21 50  1  0  0  0  0
 22 40  1  0  0  0  0
 23 81  1  0  0  0  0
 24 82  1  0  0  0  0
 25 27  2  0  0  0  0
 25 81  1  0  0  0  0
 26 83  1  0  0  0  0
 27 84  1  0  0  0  0
 28 63  2  0  0  0  0
 29 33  1  0  0  0  0
 29 80  1  0  0  0  0
 30 64  1  0  0  0  0
 30 68  1  0  0  0  0
 31 70  1  0  0  0  0
 31 80  1  0  0  0  0
 32 69  1  0  0  0  0
 32 74  2  0  0  0  0
 33 65  1  0  0  0  0
 33 75  2  0  0  0  0
 34 51  1  0  0  0  0
 34 71  1  0  0  0  0
 34 76  2  0  0  0  0
 35 60  1  0  0  0  0
 35 66  1  0  0  0  0
 35 77  2  0  0  0  0
 36 61  1  0  0  0  0
 36 72  1  0  0  0  0
 36 78  2  0  0  0  0
 37 67  1  0  0  0  0
 37 70  1  0  0  0  0
 37 79  2  0  0  0  0
 38 41  1  0  0  0  0
 39 51  1  0  0  0  0
 40 66  1  0  0  0  0
 41 43  1  0  0  0  0
 42 44  1  0  0  0  0
 42 46  1  0  0  0  0
 43 50  1  0  0  0  0
 44 53  1  0  0  0  0
 45 47  1  0  0  0  0
 45 52  1  0  0  0  0
 46 67  1  0  0  0  0
 47 65  1  0  0  0  0
 48 52  1  0  0  0  0
 48 65  1  0  0  0  0
 49 53  1  0  0  0  0
 49 67  1  0  0  0  0
 50 71  1  0  0  0  0
 51 66  1  0  0  0  0
 52 59  1  0  0  0  0
 53 64  1  0  0  0  0
 54 61  1  0  0  0  0
 55 62  1  0  0  0  0
 56 62  1  0  0  0  0
 57 62  1  0  0  0  0
 58 73  1  0  0  0  0
 59 82  1  0  0  0  0
 60 62  1  0  0  0  0
 60 72  1  0  0  0  0
 61 73  1  0  0  0  0
 63 64  1  0  0  0  0
M  CHG  1  73   1
M  ISO  4  37 100  59 101  70 100  82 101
M  END
> <Batch ID>
0097

> <Smiles>
CNC(C)C(=O)NC(C(=O)N1Cc2cc([101O:1][101CH2:1]C3CCN(C(=O)c4ccc([100NH:0][100C:0](=O)N5CCCC(n6nc(-c7ccc(Oc8ccc(F)cc8F)cc7)c(C(N)=O)c6N)C5)o4)C3)ccc2CC1C(=O)NC1CCCc2ccccc21)C(C)(C)C

> <Shape>
0.222

> <Color>
0.082

> <Negative vol penalty>
0.000

$$$$

  -OEChem-04052300493D

 87 96  0     1  0  0  0  0  0999 V2000
  -28.6592  -25.3379   15.4773 C   0  0  0  0  0  0  0  0  0  0  0  0
  -27.5321  -25.1570   16.2724 C   0  0  0  0  0  0  0  0  0  0  0  0
  -28.4972  -15.1283   19.9825 C   0  0  0  0  0  0  0  0  0  0  0  0
  -27.3500  -16.9374   21.0997 C   0  0  0  0  0  0  0  0  0  0  0  0
  -29.7624  -26.0266   15.9800 C   0  0  0  0  0  0  0  0  0  0  0  0
  -27.5079  -25.6638   17.5713 C   0  0  0  0  0  0  0  0  0  0  0  0
  -23.1511  -28.0028   18.6631 C   0  0  0  0  0  0  0  0  0  0  0  0
  -17.5770  -19.1884   21.8933 C   0  0  0  0  0  0  0  0  0  0  0  0
  -17.3729  -20.5384   21.6082 C   0  0  0  0  0  0  0  0  0  0  0  0
  -29.6089  -15.9494   19.7943 C   0  0  0  0  0  0  0  0  0  0  0  0
  -28.4618  -17.7585   20.9116 C   0  0  0  0  0  0  0  0  0  0  0  0
  -22.0541  -27.1971   18.9648 C   0  0  0  0  0  0  0  0  0  0  0  0
  -29.8232  -19.5729   18.4045 C   0  0  0  0  0  0  0  0  0  0  0  0
  -29.5992  -20.8738   17.9540 C   0  0  0  0  0  0  0  0  0  0  0  0
  -22.4235  -27.5850   21.3168 C   0  0  0  0  0  0  0  0  0  0  0  0
  -19.9009  -19.6412   22.3744 C   0  0  0  0  0  0  0  0  0  0  0  0
  -30.6362  -21.7453   19.9546 C   0  0  0  0  0  0  0  0  0  0  0  0
  -27.3677  -15.6223   20.6352 C   0  0  0  0  0  0  0  0  0  0  0  0
  -26.1695  -13.5582   21.5359 C   0  0  0  0  0  0  0  0  0  0  0  0
  -29.7480  -26.5505   17.2823 C   0  0  0  0  0  0  0  0  0  0  0  0
  -23.9005  -28.5979   19.6882 C   0  0  0  0  0  0  0  0  0  0  0  0
  -28.6124  -26.3589   18.0924 C   0  0  0  0  0  0  0  0  0  0  0  0
  -23.5281  -28.4000   21.0255 C   0  0  0  0  0  0  0  0  0  0  0  0
  -18.8410  -18.7398   22.2765 C   0  0  0  0  0  0  0  0  0  0  0  0
  -18.4328  -21.4399   21.7062 C   0  0  0  0  0  0  0  0  0  0  0  0
  -29.5912  -17.2645   20.2589 C   0  0  0  0  0  0  0  0  0  0  0  0
  -21.6918  -26.9858   20.2919 C   0  0  0  0  0  0  0  0  0  0  0  0
  -30.4536  -19.3581   19.6301 C   0  0  0  0  0  0  0  0  0  0  0  0
  -30.0057  -21.9600   18.7289 C   0  0  0  0  0  0  0  0  0  0  0  0
  -19.6968  -20.9913   22.0893 C   0  0  0  0  0  0  0  0  0  0  0  0
  -30.8601  -20.4443   20.4051 C   0  0  0  0  0  0  0  0  0  0  0  0
  -26.2188  -14.7747   20.8293 C   0  0  0  0  0  0  0  0  0  0  0  0
  -24.8623  -13.1508   21.4275 C   0  0  0  0  0  0  0  0  0  0  0  0
  -17.8103  -25.6090   20.8614 C   0  0  0  0  0  0  0  0  0  0  0  0
  -27.2122  -12.8589   22.2285 C   0  0  0  0  0  0  0  0  0  0  0  0
  -26.9190  -28.4007   20.6647 C   0  0  0  0  0  0  0  0  0  0  0  0
  -26.0215  -30.7964   22.6590 C   0  0  0  0  0  0  0  0  0  0  0  0
  -23.1513  -31.5913   24.6956 C   0  0  0  0  0  0  0  0  0  0  0  0
  -19.7340  -16.1028   20.5128 C   0  0  0  0  0  0  0  0  0  0  0  0
  -30.9823  -27.2467   17.7984 C   0  0  0  0  0  0  0  0  0  0  0  0
  -25.0650  -29.4860   19.3452 C   0  0  0  0  0  0  0  0  0  0  0  0
  -24.2874  -29.0325   22.1620 C   0  0  0  0  0  0  0  0  0  0  0  0
  -17.0588  -24.8945   21.9585 C   0  0  0  0  0  0  0  0  0  0  0  0
  -30.7327  -28.0774   19.0546 C   0  0  0  0  0  0  0  0  0  0  0  0
  -21.0701  -13.4666   18.5275 C   0  0  0  0  0  0  0  0  0  0  0  0
  -29.9145  -27.2820   20.0668 C   0  0  0  0  0  0  0  0  0  0  0  0
  -22.5367  -13.3931   18.9560 C   0  0  0  0  0  0  0  0  0  0  0  0
  -16.9191  -23.4075   21.6557 C   0  0  0  0  0  0  0  0  0  0  0  0
  -20.5594  -14.9056   18.5074 C   0  0  0  0  0  0  0  0  0  0  0  0
  -19.3136  -23.6081   20.8731 C   0  0  0  0  0  0  0  0  0  0  0  0
  -22.2277  -15.5785   20.1920 C   0  0  0  0  0  0  0  0  0  0  0  0
  -28.5385  -26.9153   19.4978 C   0  0  1  0  0  0  0  0  0  0  0  0
  -18.7696  -24.7700   20.0313 C   0  0  2  0  0  0  0  0  0  0  0  0
  -26.0668  -29.6254   20.4873 C   0  0  1  0  0  0  0  0  0  0  0  0
  -22.7718  -14.1424   20.2814 C   0  0  2  0  0  0  0  0  0  0  0  0
  -22.2574  -33.8077   25.4609 C   0  0  0  0  0  0  0  0  0  0  0  0
  -27.6869  -30.2768   25.1623 C   0  0  0  0  0  0  0  0  0  0  0  0
  -25.8370  -31.2821   26.5171 C   0  0  0  0  0  0  0  0  0  0  0  0
  -27.0333  -32.6666   24.8216 C   0  0  0  0  0  0  0  0  0  0  0  0
  -20.4785  -31.0395   23.5507 C   0  0  0  0  0  0  0  0  0  0  0  0
  -19.0592  -17.2964   22.5814 C   0  0  0  0  0  0  0  0  0  0  0  0
  -19.9153  -25.6220   19.4918 C   0  0  0  0  0  0  0  0  0  1  0  0
  -25.4341  -30.8677   24.0479 C   0  0  1  0  0  0  0  0  0  0  0  0
  -22.1317  -32.6867   24.4409 C   0  0  2  0  0  0  0  0  0  0  0  0
  -26.4928  -31.2512   25.1201 C   0  0  0  0  0  0  0  0  0  0  0  0
  -25.0369  -15.1177   20.3102 N   0  0  0  0  0  0  0  0  0  0  0  0
  -24.2327  -14.1105   20.6909 N   0  0  0  0  0  0  0  0  0  0  0  0
  -18.2262  -22.7892   21.4205 N   0  0  3  0  0  0  0  0  0  0  0  0
  -25.4222  -29.8873   21.7758 N   0  0  0  0  0  0  0  0  0  0  0  0
  -20.8114  -15.5593   19.7939 N   0  0  0  0  0  0  0  0  0  0  0  0
  -24.2016  -12.0687   21.8913 N   0  0  0  0  0  0  0  0  0  0  0  0
  -27.4217  -13.1444   23.5845 N   0  0  0  0  0  0  0  0  0  0  0  0
  -27.6516  -28.0580   19.5443 N   0  0  0  0  0  0  0  0  0  0  0  0
  -24.3052  -31.7882   23.9669 N   0  0  0  0  0  0  0  0  0  0  0  0
  -20.0593  -16.6986   21.7253 N   0  0  0  0  0  0  0  0  0  0  0  0
  -20.7492  -32.1353   24.5166 N   0  3  0  0  0  0  0  0  0  0  0  0
  -17.6420  -26.8119   20.6634 O   0  0  0  0  0  0  0  0  0  0  0  0
  -27.9473  -12.0181   21.6574 O   0  0  0  0  0  0  0  0  0  0  0  0
  -26.9135  -27.8111   21.7390 O   0  0  0  0  0  0  0  0  0  0  0  0
  -26.9723  -31.5257   22.3664 O   0  0  0  0  0  0  0  0  0  0  0  0
  -22.9462  -30.6566   25.4668 O   0  0  0  0  0  0  0  0  0  0  0  0
  -18.5678  -16.0556   20.1070 O   0  0  0  0  0  0  0  0  0  0  0  0
  -30.6760  -18.0660   20.0757 O   0  0  0  0  0  0  0  0  0  0  0  0
  -20.6218  -26.1992   20.5891 O   0  0  0  0  0  0  0  0  0  1  0  0
  -29.7919  -23.2092   18.2954 F   0  0  0  0  0  0  0  0  0  0  0  0
  -20.7225  -21.8491   22.1868 F   0  0  0  0  0  0  0  0  0  0  0  0
  -31.4673  -20.2442   21.5829 F   0  0  0  0  0  0  0  0  0  0  0  0
  1  2  1  0  0  0  0
  1  5  2  0  0  0  0
  2  6  2  0  0  0  0
  3 10  2  0  0  0  0
  3 18  1  0  0  0  0
  4 11  1  0  0  0  0
  4 18  2  0  0  0  0
  5 20  1  0  0  0  0
  6 22  1  0  0  0  0
  7 12  2  0  0  0  0
  7 21  1  0  0  0  0
  8  9  2  0  0  0  0
  8 24  1  0  0  0  0
  9 25  1  0  0  0  0
 10 26  1  0  0  0  0
 11 26  2  0  0  0  0
 12 27  1  0  0  0  0
 13 14  2  0  0  0  0
 13 28  1  0  0  0  0
 14 29  1  0  0  0  0
 15 23  1  0  0  0  0
 15 27  2  0  0  0  0
 16 24  2  0  0  0  0
 16 30  1  0  0  0  0
 17 29  2  0  0  0  0
 17 31  1  0  0  0  0
 18 32  1  0  0  0  0
 19 32  1  0  0  0  0
 19 33  2  0  0  0  0
 19 35  1  0  0  0  0
 20 22  2  0  0  0  0
 20 40  1  0  0  0  0
 21 23  2  0  0  0  0
 21 41  1  0  0  0  0
 22 52  1  0  0  0  0
 23 42  1  0  0  0  0
 24 61  1  0  0  0  0
 25 30  2  0  0  0  0
 25 68  1  0  0  0  0
 26 83  1  0  0  0  0
 27 84  1  0  0  0  0
 28 31  2  0  0  0  0
 28 83  1  0  0  0  0
 29 85  1  0  0  0  0
 30 86  1  0  0  0  0
 31 87  1  0  0  0  0
 32 66  2  0  0  0  0
 33 67  1  0  0  0  0
 33 71  1  0  0  0  0
 34 43  1  0  0  0  0
 34 53  1  0  0  0  0
 34 77  2  0  0  0  0
 35 72  1  0  0  0  0
 35 78  2  0  0  0  0
 36 54  1  0  0  0  0
 36 73  1  0  0  0  0
 36 79  2  0  0  0  0
 37 63  1  0  0  0  0
 37 69  1  0  0  0  0
 37 80  2  0  0  0  0
 38 64  1  0  0  0  0
 38 74  1  0  0  0  0
 38 81  2  0  0  0  0
 39 70  1  0  0  0  0
 39 75  1  0  0  0  0
 39 82  2  0  0  0  0
 40 44  1  0  0  0  0
 41 54  1  0  0  0  0
 42 69  1  0  0  0  0
 43 48  1  0  0  0  0
 44 46  1  0  0  0  0
 45 47  1  0  0  0  0
 45 49  1  0  0  0  0
 46 52  1  0  0  0  0
 47 55  1  0  0  0  0
 48 68  1  0  0  0  0
 49 70  1  0  0  0  0
 50 53  1  0  0  0  0
 50 68  1  0  0  0  0
 51 55  1  0  0  0  0
 51 70  1  0  0  0  0
 52 73  1  0  0  0  0
 53 62  1  0  0  0  0
 54 69  1  0  0  0  0
 55 67  1  0  0  0  0
 56 64  1  0  0  0  0
 57 65  1  0  0  0  0
 58 65  1  0  0  0  0
 59 65  1  0  0  0  0
 60 76  1  0  0  0  0
 61 75  1  0  0  0  0
 62 84  1  0  0  0  0
 63 65  1  0  0  0  0
 63 74  1  0  0  0  0
 64 76  1  0  0  0  0
 66 67  1  0  0  0  0
M  CHG  1  76   1
M  ISO  4  39 100  62 101  75 100  84 101
M  END
> <Batch ID>
0097

> <Smiles>
CNC(C)C(=O)NC(C(=O)N1Cc2cc([101O:1][101CH2:1]C3CN(c4ccc(C[100NH:0][100C:0](=O)N5CCCC(n6nc(-c7ccc(Oc8ccc(F)cc8F)cc7)c(C(N)=O)c6N)C5)cc4F)CCC3=O)ccc2CC1C(=O)NC1CCCc2ccccc21)C(C)(C)C

> <Shape>
0.235

> <Color>
0.060

> <Negative vol penalty>
0.000

$$$$

  -OEChem-04052300493D

 86 94  0     1  0  0  0  0  0999 V2000
  -23.8318  -19.4923   25.4830 C   0  0  0  0  0  0  0  0  0  0  0  0
  -24.6908  -20.1918   24.6414 C   0  0  0  0  0  0  0  0  0  0  0  0
  -22.6598  -11.7952   18.8715 C   0  0  0  0  0  0  0  0  0  0  0  0
  -23.4714   -9.9594   20.2161 C   0  0  0  0  0  0  0  0  0  0  0  0
  -22.5030  -19.8944   25.6114 C   0  0  0  0  0  0  0  0  0  0  0  0
  -24.2212  -21.2934   23.9269 C   0  0  0  0  0  0  0  0  0  0  0  0
  -27.4162  -25.2190   24.0875 C   0  0  0  0  0  0  0  0  0  0  0  0
  -21.7412  -10.9417   18.2606 C   0  0  0  0  0  0  0  0  0  0  0  0
  -22.5527   -9.1058   19.6052 C   0  0  0  0  0  0  0  0  0  0  0  0
  -28.5336  -25.1650   23.2556 C   0  0  0  0  0  0  0  0  0  0  0  0
  -20.1761   -6.5230   18.6570 C   0  0  0  0  0  0  0  0  0  0  0  0
  -19.4548   -5.6531   19.4747 C   0  0  0  0  0  0  0  0  0  0  0  0
  -27.4209  -26.6104   21.6771 C   0  0  0  0  0  0  0  0  0  0  0  0
  -28.5570  -19.9318   20.8213 C   0  0  0  0  0  0  0  0  0  0  0  0
  -29.3232  -19.4794   18.5752 C   0  0  0  0  0  0  0  0  0  0  0  0
  -18.5312   -7.5402   20.6676 C   0  0  0  0  0  0  0  0  0  0  0  0
  -23.5249  -11.3041   19.8493 C   0  0  0  0  0  0  0  0  0  0  0  0
  -24.2793  -12.9515   21.6449 C   0  0  0  0  0  0  0  0  0  0  0  0
  -22.0193  -21.0073   24.9055 C   0  0  0  0  0  0  0  0  0  0  0  0
  -26.2866  -25.9617   23.7147 C   0  0  0  0  0  0  0  0  0  0  0  0
  -22.8843  -21.7100   24.0450 C   0  0  0  0  0  0  0  0  0  0  0  0
  -26.2914  -26.6744   22.5072 C   0  0  0  0  0  0  0  0  0  0  0  0
  -28.6785  -21.3014   20.5870 C   0  0  0  0  0  0  0  0  0  0  0  0
  -29.4448  -20.8490   18.3408 C   0  0  0  0  0  0  0  0  0  0  0  0
  -28.8794  -19.0207   19.8155 C   0  0  0  0  0  0  0  0  0  0  0  0
  -21.6876   -9.5970   18.6274 C   0  0  0  0  0  0  0  0  0  0  0  0
  -28.5350  -25.8583   22.0488 C   0  0  0  0  0  0  0  0  0  0  0  0
  -20.0750   -7.9016   18.8447 C   0  0  0  0  0  0  0  0  0  0  0  0
  -29.1224  -21.7600   19.3467 C   0  0  0  0  0  0  0  0  0  0  0  0
  -18.6323   -6.1617   20.4799 C   0  0  0  0  0  0  0  0  0  0  0  0
  -19.2526   -8.4101   19.8500 C   0  0  0  0  0  0  0  0  0  0  0  0
  -24.4745  -12.1851   20.4803 C   0  0  0  0  0  0  0  0  0  0  0  0
  -25.4709  -13.6100   21.8263 C   0  0  0  0  0  0  0  0  0  0  0  0
  -25.6693  -18.1947   21.5395 C   0  0  0  0  0  0  0  0  0  0  0  0
  -26.4803  -17.4017   20.8301 C   0  0  0  0  0  0  0  0  0  0  0  0
  -23.1242  -13.0586   22.4875 C   0  0  0  0  0  0  0  0  0  0  0  0
  -23.2446  -25.2663   23.1094 C   0  0  0  0  0  0  0  0  0  0  0  0
  -22.9510  -28.4912   22.9190 C   0  0  0  0  0  0  0  0  0  0  0  0
  -24.4458  -31.5088   22.3652 C   0  0  0  0  0  0  0  0  0  0  0  0
  -29.5918  -16.6708   19.4086 C   0  0  0  0  0  0  0  0  0  0  0  0
  -20.5630  -21.3755   25.0403 C   0  0  0  0  0  0  0  0  0  0  0  0
  -25.0995  -26.0315   24.6358 C   0  0  0  0  0  0  0  0  0  0  0  0
  -25.1117  -27.5027   22.0706 C   0  0  0  0  0  0  0  0  0  0  0  0
  -20.2406  -22.7798   24.5360 C   0  0  0  0  0  0  0  0  0  0  0  0
  -29.9598  -13.0048   19.5951 C   0  0  0  0  0  0  0  0  0  0  0  0
  -20.8911  -23.0217   23.1776 C   0  0  0  0  0  0  0  0  0  0  0  0
  -28.5333  -12.5331   19.8722 C   0  0  0  0  0  0  0  0  0  0  0  0
  -29.9819  -14.3030   18.7938 C   0  0  0  0  0  0  0  0  0  0  0  0
  -27.7610  -14.9321   19.6894 C   0  0  0  0  0  0  0  0  0  0  0  0
  -22.4186  -22.9250   23.2723 C   0  0  1  0  0  0  0  0  0  0  0  0
  -23.8062  -26.4024   23.9165 C   0  0  1  0  0  0  0  0  0  0  0  0
  -27.7049  -13.6489   20.5321 C   0  0  1  0  0  0  0  0  0  0  0  0
  -28.3296  -22.2615   21.6760 C   0  0  0  0  0  0  0  0  0  0  0  0
  -29.9196  -21.3210   17.0061 C   0  0  0  0  0  0  0  0  0  0  0  0
  -23.9409  -33.9637   22.2397 C   0  0  0  0  0  0  0  0  0  0  0  0
  -21.6887  -28.0886   20.1704 C   0  0  0  0  0  0  0  0  0  0  0  0
  -22.0819  -30.5182   19.7111 C   0  0  0  0  0  0  0  0  0  0  0  0
  -20.5815  -29.8312   21.5818 C   0  0  0  0  0  0  0  0  0  0  0  0
  -26.2826  -32.1192   24.6040 C   0  0  0  0  0  0  0  0  0  0  0  0
  -27.9121  -17.1558   21.1730 C   0  0  0  0  0  0  0  0  0  0  0  0
  -30.4675  -25.1778   19.0632 C   0  0  0  0  0  0  0  0  0  0  0  0
  -29.3930  -25.9307   19.8319 C   0  0  0  0  0  0  0  0  0  1  0  0
  -30.4950  -23.7006   19.4230 C   0  0  0  0  0  0  0  0  0  0  0  0
  -23.0788  -29.5130   21.8151 C   0  0  1  0  0  0  0  0  0  0  0  0
  -24.3886  -32.8172   23.1328 C   0  0  2  0  0  0  0  0  0  0  0  0
  -21.8794  -29.4707   20.8266 C   0  0  0  0  0  0  0  0  0  0  0  0
  -25.6940  -12.3414   19.9585 N   0  0  0  0  0  0  0  0  0  0  0  0
  -26.2759  -13.2137   20.7991 N   0  0  0  0  0  0  0  0  0  0  0  0
  -23.9724  -27.5343   23.0025 N   0  0  0  0  0  0  0  0  0  0  0  0
  -29.1503  -15.3324   19.4186 N   0  0  0  0  0  0  0  0  0  0  0  0
  -25.8982  -14.4837   22.7625 N   0  0  0  0  0  0  0  0  0  0  0  0
  -21.9844  -12.3132   22.1565 N   0  0  0  0  0  0  0  0  0  0  0  0
  -22.9666  -24.1334   23.8501 N   0  0  0  0  0  0  0  0  0  0  0  0
  -23.2666  -30.8021   22.4718 N   0  0  0  0  0  0  0  0  0  0  0  0
  -28.7546  -17.6030   20.0590 N   0  0  0  0  0  0  0  0  0  0  0  0
  -25.7306  -33.1507   23.6885 N   0  3  0  0  0  0  0  0  0  0  0  0
  -23.0979  -13.8060   23.4946 O   0  0  0  0  0  0  0  0  0  0  0  0
  -23.0746  -25.4076   21.9040 O   0  0  0  0  0  0  0  0  0  0  0  0
  -21.9844  -28.5445   23.6835 O   0  0  0  0  0  0  0  0  0  0  0  0
  -25.4360  -31.1513   21.7310 O   0  0  0  0  0  0  0  0  0  0  0  0
  -30.6632  -17.0005   18.8862 O   0  0  0  0  0  0  0  0  0  0  0  0
  -20.7912   -8.7639   18.0317 O   0  0  0  0  0  0  0  0  0  0  0  0
  -29.6242  -25.8067   21.2346 O   0  0  0  0  0  0  0  0  0  1  0  0
  -29.2415  -23.1057   19.1153 O   0  0  0  0  0  0  0  0  0  0  0  0
  -17.9385   -5.3262   21.2640 F   0  0  0  0  0  0  0  0  0  0  0  0
  -19.1505   -9.7335   20.0343 F   0  0  0  0  0  0  0  0  0  0  0  0
  1  2  1  0  0  0  0
  1  5  2  0  0  0  0
  2  6  2  0  0  0  0
  3  8  2  0  0  0  0
  3 17  1  0  0  0  0
  4  9  1  0  0  0  0
  4 17  2  0  0  0  0
  5 19  1  0  0  0  0
  6 21  1  0  0  0  0
  7 10  2  0  0  0  0
  7 20  1  0  0  0  0
  8 26  1  0  0  0  0
  9 26  2  0  0  0  0
 10 27  1  0  0  0  0
 11 12  2  0  0  0  0
 11 28  1  0  0  0  0
 12 30  1  0  0  0  0
 13 22  1  0  0  0  0
 13 27  2  0  0  0  0
 14 23  2  0  0  0  0
 14 25  1  0  0  0  0
 15 24  1  0  0  0  0
 15 25  2  0  0  0  0
 16 30  2  0  0  0  0
 16 31  1  0  0  0  0
 17 32  1  0  0  0  0
 18 32  1  0  0  0  0
 18 33  2  0  0  0  0
 18 36  1  0  0  0  0
 19 21  2  0  0  0  0
 19 41  1  0  0  0  0
 20 22  2  0  0  0  0
 20 42  1  0  0  0  0
 21 50  1  0  0  0  0
 22 43  1  0  0  0  0
 23 29  1  0  0  0  0
 23 53  1  0  0  0  0
 24 29  2  0  0  0  0
 24 54  1  0  0  0  0
 25 75  1  0  0  0  0
 26 82  1  0  0  0  0
 27 83  1  0  0  0  0
 28 31  2  0  0  0  0
 28 82  1  0  0  0  0
 29 84  1  0  0  0  0
 30 85  1  0  0  0  0
 31 86  1  0  0  0  0
 32 67  2  0  0  0  0
 33 68  1  0  0  0  0
 33 71  1  0  0  0  0
 34 35  2  0  0  0  0
 35 60  1  0  0  0  0
 36 72  1  0  0  0  0
 36 77  2  0  0  0  0
 37 51  1  0  0  0  0
 37 73  1  0  0  0  0
 37 78  2  0  0  0  0
 38 64  1  0  0  0  0
 38 69  1  0  0  0  0
 38 79  2  0  0  0  0
 39 65  1  0  0  0  0
 39 74  1  0  0  0  0
 39 80  2  0  0  0  0
 40 70  1  0  0  0  0
 40 75  1  0  0  0  0
 40 81  2  0  0  0  0
 41 44  1  0  0  0  0
 42 51  1  0  0  0  0
 43 69  1  0  0  0  0
 44 46  1  0  0  0  0
 45 47  1  0  0  0  0
 45 48  1  0  0  0  0
 46 50  1  0  0  0  0
 47 52  1  0  0  0  0
 48 70  1  0  0  0  0
 49 52  1  0  0  0  0
 49 70  1  0  0  0  0
 50 73  1  0  0  0  0
 51 69  1  0  0  0  0
 52 68  1  0  0  0  0
 55 65  1  0  0  0  0
 56 66  1  0  0  0  0
 57 66  1  0  0  0  0
 58 66  1  0  0  0  0
 59 76  1  0  0  0  0
 60 75  1  0  0  0  0
 61 62  1  0  0  0  0
 61 63  1  0  0  0  0
 62 83  1  0  0  0  0
 63 84  1  0  0  0  0
 64 66  1  0  0  0  0
 64 74  1  0  0  0  0
 65 76  1  0  0  0  0
 67 68  1  0  0  0  0
M  CHG  1  76   1
M  ISO  4  40 100  62 101  75 100  83 101
M  END
> <Batch ID>
0097

> <Smiles>
C=CC[100N:0](c1cc(C)c(OCC[101CH2:1][101O:1]c2ccc3c(c2)CN(C(=O)C(NC(=O)C(C)NC)C(C)(C)C)C(C(=O)NC2CCCc4ccccc42)C3)c(C)c1)[100C:0](=O)N1CCCC(n2nc(-c3ccc(Oc4ccc(F)cc4F)cc3)c(C(N)=O)c2N)C1

> <Shape>
0.239

> <Color>
0.076

> <Negative vol penalty>
0.000

$$$$

  -OEChem-04052300493D

 90 99  0     1  0  0  0  0  0999 V2000
  -22.8058  -34.8572   14.4952 C   0  0  0  0  0  0  0  0  0  0  0  0
  -23.4174  -33.6304   14.7325 C   0  0  0  0  0  0  0  0  0  0  0  0
  -21.8465   -9.5055   21.6022 C   0  0  0  0  0  0  0  0  0  0  0  0
  -24.2397   -9.6071   21.2875 C   0  0  0  0  0  0  0  0  0  0  0  0
  -23.0315  -35.9265   15.3610 C   0  0  0  0  0  0  0  0  0  0  0  0
  -24.2559  -33.4725   15.8354 C   0  0  0  0  0  0  0  0  0  0  0  0
  -24.9492  -28.4300   19.2410 C   0  0  0  0  0  0  0  0  0  0  0  0
  -27.4650  -20.0088   18.1258 C   0  0  0  0  0  0  0  0  0  0  0  0
  -26.6434  -19.1879   18.8982 C   0  0  0  0  0  0  0  0  0  0  0  0
  -21.9136   -8.1137   21.6633 C   0  0  0  0  0  0  0  0  0  0  0  0
  -24.3069   -8.2152   21.3486 C   0  0  0  0  0  0  0  0  0  0  0  0
  -25.9089  -27.4187   19.2350 C   0  0  0  0  0  0  0  0  0  0  0  0
  -22.7646   -5.7582   23.9349 C   0  0  0  0  0  0  0  0  0  0  0  0
  -22.0443   -5.1181   24.9434 C   0  0  0  0  0  0  0  0  0  0  0  0
  -27.1058  -28.5525   20.9960 C   0  0  0  0  0  0  0  0  0  0  0  0
  -28.4860  -18.7567   20.4002 C   0  0  0  0  0  0  0  0  0  0  0  0
  -20.7811   -3.9108   23.2749 C   0  0  0  0  0  0  0  0  0  0  0  0
  -23.0096  -10.2523   21.4142 C   0  0  0  0  0  0  0  0  0  0  0  0
  -22.2201  -12.4664   20.4232 C   0  0  0  0  0  0  0  0  0  0  0  0
  -23.8656  -35.7788   16.4804 C   0  0  0  0  0  0  0  0  0  0  0  0
  -25.0666  -29.5175   20.1184 C   0  0  0  0  0  0  0  0  0  0  0  0
  -24.4941  -34.5412   16.7162 C   0  0  0  0  0  0  0  0  0  0  0  0
  -26.1449  -29.5750   21.0129 C   0  0  0  0  0  0  0  0  0  0  0  0
  -28.7972  -20.2036   18.4906 C   0  0  0  0  0  0  0  0  0  0  0  0
  -27.1538  -18.5619   20.0354 C   0  0  0  0  0  0  0  0  0  0  0  0
  -23.1438   -7.4685   21.5365 C   0  0  0  0  0  0  0  0  0  0  0  0
  -26.9890  -27.4813   20.1106 C   0  0  0  0  0  0  0  0  0  0  0  0
  -22.4931   -5.4746   22.5964 C   0  0  0  0  0  0  0  0  0  0  0  0
  -29.3077  -19.5776   19.6277 C   0  0  0  0  0  0  0  0  0  0  0  0
  -21.0526   -4.1944   24.6134 C   0  0  0  0  0  0  0  0  0  0  0  0
  -21.5014   -4.5509   22.2664 C   0  0  0  0  0  0  0  0  0  0  0  0
  -22.9408  -11.6901   21.3504 C   0  0  0  0  0  0  0  0  0  0  0  0
  -22.4804  -13.7651   20.7869 C   0  0  0  0  0  0  0  0  0  0  0  0
  -31.1980  -22.8027   18.5373 C   0  0  0  0  0  0  0  0  0  0  0  0
  -21.3896  -12.0508   19.3309 C   0  0  0  0  0  0  0  0  0  0  0  0
  -25.3968  -32.6591   19.7652 C   0  0  0  0  0  0  0  0  0  0  0  0
  -25.0635  -32.6641   22.9918 C   0  0  0  0  0  0  0  0  0  0  0  0
  -25.3344  -30.9580   25.9351 C   0  0  0  0  0  0  0  0  0  0  0  0
  -26.4689  -17.5397   22.2211 C   0  0  0  0  0  0  0  0  0  0  0  0
  -24.1169  -36.9768   17.3615 C   0  0  0  0  0  0  0  0  0  0  0  0
  -24.0086  -30.5866   20.1309 C   0  0  0  0  0  0  0  0  0  0  0  0
  -26.3061  -30.7109   21.9887 C   0  0  0  0  0  0  0  0  0  0  0  0
  -31.3584  -24.1258   19.2603 C   0  0  0  0  0  0  0  0  0  0  0  0
  -24.7224  -36.6199   18.7166 C   0  0  0  0  0  0  0  0  0  0  0  0
  -30.2340  -25.1146   19.0230 C   0  0  0  0  0  0  0  0  0  0  0  0
  -24.6943  -15.6926   24.8917 C   0  0  0  0  0  0  0  0  0  0  0  0
  -25.8751  -35.6360   18.5438 C   0  0  0  0  0  0  0  0  0  0  0  0
  -24.0936  -14.5053   24.1415 C   0  0  0  0  0  0  0  0  0  0  0  0
  -25.9789  -16.1871   24.2337 C   0  0  0  0  0  0  0  0  0  0  0  0
  -28.7262  -23.2617   18.3683 C   0  0  0  0  0  0  0  0  0  0  0  0
  -25.2130  -15.3376   22.0353 C   0  0  0  0  0  0  0  0  0  0  0  0
  -25.3908  -34.3235   17.9157 C   0  0  1  0  0  0  0  0  0  0  0  0
  -24.5020  -31.9087   20.7107 C   0  0  1  0  0  0  0  0  0  0  0  0
  -28.9006  -24.4416   19.3193 C   0  0  2  0  0  0  0  0  0  0  0  0
  -23.8963  -14.8465   22.6553 C   0  0  1  0  0  0  0  0  0  0  0  0
  -26.1323  -15.5681   19.6329 C   0  0  0  0  0  0  0  0  0  0  0  0
  -25.0275  -31.2382   28.4099 C   0  0  0  0  0  0  0  0  0  0  0  0
  -27.6680  -34.2473   23.1331 C   0  0  0  0  0  0  0  0  0  0  0  0
  -27.8013  -33.6770   25.5673 C   0  0  0  0  0  0  0  0  0  0  0  0
  -25.8873  -35.0258   24.7071 C   0  0  0  0  0  0  0  0  0  0  0  0
  -23.2683  -28.8414   26.0357 C   0  0  0  0  0  0  0  0  0  0  0  0
  -31.0451  -19.0797   21.1735 C   0  0  0  0  0  0  0  0  0  0  0  0
  -29.6669  -21.0904   17.6471 C   0  0  0  0  0  0  0  0  0  0  0  0
  -27.7432  -25.4274   19.1787 C   0  0  0  0  0  0  0  0  0  1  0  0
  -25.4030  -16.7970   20.1369 C   0  0  0  0  0  0  0  0  0  0  0  0
  -26.0085  -32.5595   24.1644 C   0  0  1  0  0  0  0  0  0  0  0  0
  -24.3777  -30.8078   27.1041 C   0  0  2  0  0  0  0  0  0  0  0  0
  -26.8396  -33.8568   24.3734 C   0  0  0  0  0  0  0  0  0  0  0  0
  -23.6089  -12.4335   22.2364 N   0  0  0  0  0  0  0  0  0  0  0  0
  -23.3092  -13.6906   21.8675 N   0  0  0  0  0  0  0  0  0  0  0  0
  -29.8950  -22.3857   18.2737 N   0  0  0  0  0  0  0  0  0  0  0  0
  -25.2489  -31.7351   21.9582 N   0  0  0  0  0  0  0  0  0  0  0  0
  -25.7911  -16.4505   22.8062 N   0  0  0  0  0  0  0  0  0  0  0  0
  -22.0790  -14.9520   20.2845 N   0  0  0  0  0  0  0  0  0  0  0  0
  -21.9808  -11.8707   18.0730 N   0  0  0  0  0  0  0  0  0  0  0  0
  -24.7231  -33.5057   18.9056 N   0  0  0  0  0  0  0  0  0  0  0  0
  -25.1932  -32.1806   25.3133 N   0  0  0  0  0  0  0  0  0  0  0  0
  -26.3041  -17.7123   20.8336 N   0  0  0  0  0  0  0  0  0  0  0  0
  -23.9448  -29.3883   27.2400 N   0  3  0  0  0  0  0  0  0  0  0  0
  -32.2032  -22.1300   18.2920 O   0  0  0  0  0  0  0  0  0  0  0  0
  -20.1566  -11.8611   19.4626 O   0  0  0  0  0  0  0  0  0  0  0  0
  -26.6087  -32.4842   19.8131 O   0  0  0  0  0  0  0  0  0  0  0  0
  -24.1883  -33.5334   22.9962 O   0  0  0  0  0  0  0  0  0  0  0  0
  -26.1303  -30.0802   25.6086 O   0  0  0  0  0  0  0  0  0  0  0  0
  -27.2150  -18.2757   22.8786 O   0  0  0  0  0  0  0  0  0  0  0  0
  -23.2096   -6.1103   21.5963 O   0  0  0  0  0  0  0  0  0  0  0  0
  -30.6067  -19.7572   19.9976 O   0  0  0  0  0  0  0  0  0  0  0  0
  -27.9275  -26.4959   20.1064 O   0  0  0  0  0  0  0  0  0  1  0  0
  -20.3620   -3.5787   25.5820 F   0  0  0  0  0  0  0  0  0  0  0  0
  -21.2369   -4.2735   20.9823 F   0  0  0  0  0  0  0  0  0  0  0  0
  1  2  1  0  0  0  0
  1  5  2  0  0  0  0
  2  6  2  0  0  0  0
  3 10  2  0  0  0  0
  3 18  1  0  0  0  0
  4 11  1  0  0  0  0
  4 18  2  0  0  0  0
  5 20  1  0  0  0  0
  6 22  1  0  0  0  0
  7 12  2  0  0  0  0
  7 21  1  0  0  0  0
  8  9  2  0  0  0  0
  8 24  1  0  0  0  0
  9 25  1  0  0  0  0
 10 26  1  0  0  0  0
 11 26  2  0  0  0  0
 12 27  1  0  0  0  0
 13 14  2  0  0  0  0
 13 28  1  0  0  0  0
 14 30  1  0  0  0  0
 15 23  1  0  0  0  0
 15 27  2  0  0  0  0
 16 25  2  0  0  0  0
 16 29  1  0  0  0  0
 17 30  2  0  0  0  0
 17 31  1  0  0  0  0
 18 32  1  0  0  0  0
 19 32  1  0  0  0  0
 19 33  2  0  0  0  0
 19 35  1  0  0  0  0
 20 22  2  0  0  0  0
 20 40  1  0  0  0  0
 21 23  2  0  0  0  0
 21 41  1  0  0  0  0
 22 52  1  0  0  0  0
 23 42  1  0  0  0  0
 24 29  2  0  0  0  0
 24 63  1  0  0  0  0
 25 78  1  0  0  0  0
 26 86  1  0  0  0  0
 27 88  1  0  0  0  0
 28 31  2  0  0  0  0
 28 86  1  0  0  0  0
 29 87  1  0  0  0  0
 30 89  1  0  0  0  0
 31 90  1  0  0  0  0
 32 69  2  0  0  0  0
 33 70  1  0  0  0  0
 33 74  1  0  0  0  0
 34 43  1  0  0  0  0
 34 71  1  0  0  0  0
 34 80  2  0  0  0  0
 35 75  1  0  0  0  0
 35 81  2  0  0  0  0
 36 53  1  0  0  0  0
 36 76  1  0  0  0  0
 36 82  2  0  0  0  0
 37 66  1  0  0  0  0
 37 72  1  0  0  0  0
 37 83  2  0  0  0  0
 38 67  1  0  0  0  0
 38 77  1  0  0  0  0
 38 84  2  0  0  0  0
 39 73  1  0  0  0  0
 39 78  1  0  0  0  0
 39 85  2  0  0  0  0
 40 44  1  0  0  0  0
 41 53  1  0  0  0  0
 42 72  1  0  0  0  0
 43 45  1  0  0  0  0
 44 47  1  0  0  0  0
 45 54  1  0  0  0  0
 46 48  1  0  0  0  0
 46 49  1  0  0  0  0
 47 52  1  0  0  0  0
 48 55  1  0  0  0  0
 49 73  1  0  0  0  0
 50 54  1  0  0  0  0
 50 71  1  0  0  0  0
 51 55  1  0  0  0  0
 51 73  1  0  0  0  0
 52 76  1  0  0  0  0
 53 72  1  0  0  0  0
 54 64  1  0  0  0  0
 55 70  1  0  0  0  0
 56 65  1  0  0  0  0
 57 67  1  0  0  0  0
 58 68  1  0  0  0  0
 59 68  1  0  0  0  0
 60 68  1  0  0  0  0
 61 79  1  0  0  0  0
 62 87  1  0  0  0  0
 63 71  1  0  0  0  0
 64 88  1  0  0  0  0
 65 78  1  0  0  0  0
 66 68  1  0  0  0  0
 66 77  1  0  0  0  0
 67 79  1  0  0  0  0
 69 70  1  0  0  0  0
M  CHG  1  79   1
M  ISO  4  39 100  64 101  78 100  88 101
M  END
> <Batch ID>
0097

> <Smiles>
CC[100N:0](c1ccc(CN2CC([101CH2:1][101O:1]c3ccc4c(c3)CN(C(=O)C(NC(=O)C(C)NC)C(C)(C)C)C(C(=O)NC3CCCc5ccccc53)C4)CCC2=O)c(OC)c1)[100C:0](=O)N1CCCC(n2nc(-c3ccc(Oc4ccc(F)cc4F)cc3)c(C(N)=O)c2N)C1

> <Shape>
0.284

> <Color>
0.096

> <Negative vol penalty>
0.000

$$$$

  -OEChem-04052300493D

 86 95  0     1  0  0  0  0  0999 V2000
  -32.2452  -31.8746   19.9660 C   0  0  0  0  0  0  0  0  0  0  0  0
  -31.4793  -30.7133   19.9846 C   0  0  0  0  0  0  0  0  0  0  0  0
  -23.2803   -9.4354   19.5923 C   0  0  0  0  0  0  0  0  0  0  0  0
  -24.6865   -8.9664   21.5002 C   0  0  0  0  0  0  0  0  0  0  0  0
  -32.0004  -32.8846   20.8955 C   0  0  0  0  0  0  0  0  0  0  0  0
  -30.4688  -30.5610   20.9334 C   0  0  0  0  0  0  0  0  0  0  0  0
  -26.1859  -28.7419   18.9353 C   0  0  0  0  0  0  0  0  0  0  0  0
  -24.8786  -18.7416   17.9581 C   0  0  0  0  0  0  0  0  0  0  0  0
  -25.5570  -17.5286   18.0761 C   0  0  0  0  0  0  0  0  0  0  0  0
  -22.1802   -8.9179   20.2759 C   0  0  0  0  0  0  0  0  0  0  0  0
  -23.5862   -8.4489   22.1839 C   0  0  0  0  0  0  0  0  0  0  0  0
  -26.1365  -27.3734   18.6734 C   0  0  0  0  0  0  0  0  0  0  0  0
  -21.8044   -5.5759   22.2246 C   0  0  0  0  0  0  0  0  0  0  0  0
  -21.9739   -4.3719   22.9082 C   0  0  0  0  0  0  0  0  0  0  0  0
  -24.8935  -27.0342   20.7128 C   0  0  0  0  0  0  0  0  0  0  0  0
  -27.1703  -18.5733   19.5401 C   0  0  0  0  0  0  0  0  0  0  0  0
  -21.3909   -5.4670   24.9814 C   0  0  0  0  0  0  0  0  0  0  0  0
  -24.5335   -9.4596   20.2045 C   0  0  0  0  0  0  0  0  0  0  0  0
  -26.2071   -9.5348   18.2806 C   0  0  0  0  0  0  0  0  0  0  0  0
  -30.9801  -32.7487   21.8500 C   0  0  0  0  0  0  0  0  0  0  0  0
  -25.5980  -29.2663   20.0953 C   0  0  0  0  0  0  0  0  0  0  0  0
  -30.2111  -31.5696   21.8773 C   0  0  0  0  0  0  0  0  0  0  0  0
  -24.9346  -28.4101   20.9858 C   0  0  0  0  0  0  0  0  0  0  0  0
  -25.3461  -19.8705   18.6310 C   0  0  0  0  0  0  0  0  0  0  0  0
  -26.7029  -17.4444   18.8671 C   0  0  0  0  0  0  0  0  0  0  0  0
  -22.3331   -8.4247   21.5717 C   0  0  0  0  0  0  0  0  0  0  0  0
  -25.4927  -26.5190   19.5637 C   0  0  0  0  0  0  0  0  0  0  0  0
  -21.4283   -6.7255   22.9194 C   0  0  0  0  0  0  0  0  0  0  0  0
  -21.7671   -4.3174   24.2866 C   0  0  0  0  0  0  0  0  0  0  0  0
  -26.4919  -19.7863   19.4220 C   0  0  0  0  0  0  0  0  0  0  0  0
  -21.2214   -6.6710   24.2978 C   0  0  0  0  0  0  0  0  0  0  0  0
  -25.6705   -9.9935   19.4986 C   0  0  0  0  0  0  0  0  0  0  0  0
  -27.2704  -10.3696   18.0378 C   0  0  0  0  0  0  0  0  0  0  0  0
  -23.2481  -23.6081   18.2971 C   0  0  0  0  0  0  0  0  0  0  0  0
  -25.7823   -8.4511   17.4435 C   0  0  0  0  0  0  0  0  0  0  0  0
  -26.6739  -30.8278   22.6463 C   0  0  0  0  0  0  0  0  0  0  0  0
  -23.5165  -31.0581   23.3534 C   0  0  0  0  0  0  0  0  0  0  0  0
  -20.6227  -28.9079   23.2120 C   0  0  0  0  0  0  0  0  0  0  0  0
  -28.5435  -15.9569   19.7307 C   0  0  0  0  0  0  0  0  0  0  0  0
  -30.7840  -33.8474   22.8644 C   0  0  0  0  0  0  0  0  0  0  0  0
  -25.6368  -30.7483   20.3498 C   0  0  0  0  0  0  0  0  0  0  0  0
  -24.2700  -28.9256   22.2351 C   0  0  0  0  0  0  0  0  0  0  0  0
  -22.5899  -22.3685   18.8531 C   0  0  0  0  0  0  0  0  0  0  0  0
  -29.4478  -33.7674   23.5983 C   0  0  0  0  0  0  0  0  0  0  0  0
  -30.5201  -13.0531   20.3121 C   0  0  0  0  0  0  0  0  0  0  0  0
  -29.1800  -32.3403   24.0656 C   0  0  0  0  0  0  0  0  0  0  0  0
  -29.5513  -11.8972   20.0527 C   0  0  0  0  0  0  0  0  0  0  0  0
  -23.2197  -21.1039   18.2815 C   0  0  0  0  0  0  0  0  0  0  0  0
  -29.8249  -14.2359   20.9841 C   0  0  0  0  0  0  0  0  0  0  0  0
  -25.3923  -22.3541   18.6022 C   0  0  0  0  0  0  0  0  0  0  0  0
  -27.6517  -13.5641   20.0379 C   0  0  0  0  0  0  0  0  0  0  0  0
  -29.0897  -31.3778   22.8753 C   0  0  1  0  0  0  0  0  0  0  0  0
  -24.6824  -23.4619   17.8128 C   0  0  2  0  0  0  0  0  0  0  0  0
  -25.4499  -31.1070   21.8207 C   0  0  1  0  0  0  0  0  0  0  0  0
  -28.2919  -12.3748   19.3035 C   0  0  2  0  0  0  0  0  0  0  0  0
  -18.1882  -29.4631   22.9628 C   0  0  0  0  0  0  0  0  0  0  0  0
  -23.4781  -30.9535   26.4025 C   0  0  0  0  0  0  0  0  0  0  0  0
  -21.2246  -29.8710   26.2676 C   0  0  0  0  0  0  0  0  0  0  0  0
  -21.5537  -32.1775   25.3764 C   0  0  0  0  0  0  0  0  0  0  0  0
  -20.3465  -27.1560   20.8427 C   0  0  0  0  0  0  0  0  0  0  0  0
  -25.4404  -24.7804   17.9418 C   0  0  0  0  0  0  0  0  0  1  0  0
  -22.5280  -30.2123   24.1191 C   0  0  1  0  0  0  0  0  0  0  0  0
  -19.4548  -29.0181   22.2485 C   0  0  2  0  0  0  0  0  0  0  0  0
  -22.2185  -30.7920   25.5283 C   0  0  0  0  0  0  0  0  0  0  0  0
  -26.3380  -11.0385   19.9950 N   0  0  0  0  0  0  0  0  0  0  0  0
  -27.3050  -11.2433   19.0845 N   0  0  0  0  0  0  0  0  0  0  0  0
  -24.6666  -21.0823   18.5098 N   0  0  3  0  0  0  0  0  0  0  0  0
  -24.3406  -30.3814   22.4430 N   0  0  0  0  0  0  0  0  0  0  0  0
  -28.6436  -14.6360   20.2164 N   0  0  0  0  0  0  0  0  0  0  0  0
  -28.1700  -10.4340   17.0333 N   0  0  0  0  0  0  0  0  0  0  0  0
  -26.3266   -7.1794   17.6692 N   0  0  0  0  0  0  0  0  0  0  0  0
  -27.3918  -16.2120   18.9869 N   0  0  0  0  0  0  0  0  0  0  0  0
  -27.8040  -31.5006   22.2223 N   0  0  0  0  0  0  0  0  0  0  0  0
  -21.3573  -30.0738   23.2597 N   0  0  0  0  0  0  0  0  0  0  0  0
  -19.1915  -27.7019   21.6010 N   0  3  0  0  0  0  0  0  0  0  0  0
  -22.6381  -24.6757   18.2464 O   0  0  0  0  0  0  0  0  0  0  0  0
  -24.9571   -8.6091   16.5121 O   0  0  0  0  0  0  0  0  0  0  0  0
  -26.5983  -30.0601   23.5984 O   0  0  0  0  0  0  0  0  0  0  0  0
  -23.5511  -32.2753   23.5503 O   0  0  0  0  0  0  0  0  0  0  0  0
  -20.8575  -27.8906   23.8605 O   0  0  0  0  0  0  0  0  0  0  0  0
  -29.4282  -16.7922   19.9347 O   0  0  0  0  0  0  0  0  0  0  0  0
  -21.2597   -7.9198   22.2392 O   0  0  0  0  0  0  0  0  0  0  0  0
  -25.4435  -25.1827   19.3109 O   0  0  0  0  0  0  0  0  0  1  0  0
  -21.9283   -3.1609   24.9427 F   0  0  0  0  0  0  0  0  0  0  0  0
  -26.9504  -20.8656   20.0717 F   0  0  0  0  0  0  0  0  0  0  0  0
  -20.8588   -7.7718   24.9705 F   0  0  0  0  0  0  0  0  0  0  0  0
  1  2  1  0  0  0  0
  1  5  2  0  0  0  0
  2  6  2  0  0  0  0
  3 10  2  0  0  0  0
  3 18  1  0  0  0  0
  4 11  1  0  0  0  0
  4 18  2  0  0  0  0
  5 20  1  0  0  0  0
  6 22  1  0  0  0  0
  7 12  2  0  0  0  0
  7 21  1  0  0  0  0
  8  9  2  0  0  0  0
  8 24  1  0  0  0  0
  9 25  1  0  0  0  0
 10 26  1  0  0  0  0
 11 26  2  0  0  0  0
 12 27  1  0  0  0  0
 13 14  2  0  0  0  0
 13 28  1  0  0  0  0
 14 29  1  0  0  0  0
 15 23  1  0  0  0  0
 15 27  2  0  0  0  0
 16 25  2  0  0  0  0
 16 30  1  0  0  0  0
 17 29  2  0  0  0  0
 17 31  1  0  0  0  0
 18 32  1  0  0  0  0
 19 32  1  0  0  0  0
 19 33  2  0  0  0  0
 19 35  1  0  0  0  0
 20 22  2  0  0  0  0
 20 40  1  0  0  0  0
 21 23  2  0  0  0  0
 21 41  1  0  0  0  0
 22 52  1  0  0  0  0
 23 42  1  0  0  0  0
 24 30  2  0  0  0  0
 24 67  1  0  0  0  0
 25 72  1  0  0  0  0
 26 82  1  0  0  0  0
 27 83  1  0  0  0  0
 28 31  2  0  0  0  0
 28 82  1  0  0  0  0
 29 84  1  0  0  0  0
 30 85  1  0  0  0  0
 31 86  1  0  0  0  0
 32 65  2  0  0  0  0
 33 66  1  0  0  0  0
 33 70  1  0  0  0  0
 34 43  1  0  0  0  0
 34 53  1  0  0  0  0
 34 76  2  0  0  0  0
 35 71  1  0  0  0  0
 35 77  2  0  0  0  0
 36 54  1  0  0  0  0
 36 73  1  0  0  0  0
 36 78  2  0  0  0  0
 37 62  1  0  0  0  0
 37 68  1  0  0  0  0
 37 79  2  0  0  0  0
 38 63  1  0  0  0  0
 38 74  1  0  0  0  0
 38 80  2  0  0  0  0
 39 69  1  0  0  0  0
 39 72  1  0  0  0  0
 39 81  2  0  0  0  0
 40 44  1  0  0  0  0
 41 54  1  0  0  0  0
 42 68  1  0  0  0  0
 43 48  1  0  0  0  0
 44 46  1  0  0  0  0
 45 47  1  0  0  0  0
 45 49  1  0  0  0  0
 46 52  1  0  0  0  0
 47 55  1  0  0  0  0
 48 67  1  0  0  0  0
 49 69  1  0  0  0  0
 50 53  1  0  0  0  0
 50 67  1  0  0  0  0
 51 55  1  0  0  0  0
 51 69  1  0  0  0  0
 52 73  1  0  0  0  0
 53 61  1  0  0  0  0
 54 68  1  0  0  0  0
 55 66  1  0  0  0  0
 56 63  1  0  0  0  0
 57 64  1  0  0  0  0
 58 64  1  0  0  0  0
 59 64  1  0  0  0  0
 60 75  1  0  0  0  0
 61 83  1  0  0  0  0
 62 64  1  0  0  0  0
 62 74  1  0  0  0  0
 63 75  1  0  0  0  0
 65 66  1  0  0  0  0
M  CHG  1  75   1
M  ISO  4  39 100  61 101  72 100  83 101
M  END
> <Batch ID>
0097

> <Smiles>
CNC(C)C(=O)NC(C(=O)N1Cc2cc([101O:1][101CH2:1]C3CN(c4ccc([100NH:0][100C:0](=O)N5CCCC(n6nc(-c7ccc(Oc8ccc(F)cc8F)cc7)c(C(N)=O)c6N)C5)cc4F)CCC3=O)ccc2CC1C(=O)NC1CCCc2ccccc21)C(C)(C)C

> <Shape>
0.252

> <Color>
0.110

> <Negative vol penalty>
0.000

$$$$

  -OEChem-04052300493D

 85 93  0     1  0  0  0  0  0999 V2000
  -15.1064  -19.3776   21.5791 C   0  0  0  0  0  0  0  0  0  0  0  0
  -16.2561  -20.1279   21.8043 C   0  0  0  0  0  0  0  0  0  0  0  0
  -22.3334  -28.9460   20.7026 C   0  0  0  0  0  0  0  0  0  0  0  0
  -23.3492  -27.2025   22.0313 C   0  0  0  0  0  0  0  0  0  0  0  0
  -15.1045  -18.0095   21.8474 C   0  0  0  0  0  0  0  0  0  0  0  0
  -17.4043  -19.5105   22.2990 C   0  0  0  0  0  0  0  0  0  0  0  0
  -23.2107  -20.9077   20.9428 C   0  0  0  0  0  0  0  0  0  0  0  0
  -21.0784  -28.5924   21.1980 C   0  0  0  0  0  0  0  0  0  0  0  0
  -22.0941  -26.8489   22.5267 C   0  0  0  0  0  0  0  0  0  0  0  0
  -24.1708  -21.6720   21.6047 C   0  0  0  0  0  0  0  0  0  0  0  0
  -19.2875  -29.0818   24.0240 C   0  0  0  0  0  0  0  0  0  0  0  0
  -18.4400  -30.1101   24.4360 C   0  0  0  0  0  0  0  0  0  0  0  0
  -29.4534  -22.8512   20.1662 C   0  0  0  0  0  0  0  0  0  0  0  0
  -25.0756  -19.6669   22.5948 C   0  0  0  0  0  0  0  0  0  0  0  0
  -29.3497  -21.2488   18.3610 C   0  0  0  0  0  0  0  0  0  0  0  0
  -16.8013  -29.4140   22.8029 C   0  0  0  0  0  0  0  0  0  0  0  0
  -23.4688  -28.2510   21.1192 C   0  0  0  0  0  0  0  0  0  0  0  0
  -29.0416  -21.8664   21.0641 C   0  0  0  0  0  0  0  0  0  0  0  0
  -25.6620  -29.5535   21.1533 C   0  0  0  0  0  0  0  0  0  0  0  0
  -16.2562  -17.3732   22.3366 C   0  0  0  0  0  0  0  0  0  0  0  0
  -23.1690  -19.5161   21.1108 C   0  0  0  0  0  0  0  0  0  0  0  0
  -17.4174  -18.1327   22.5754 C   0  0  0  0  0  0  0  0  0  0  0  0
  -24.1156  -18.8870   21.9319 C   0  0  0  0  0  0  0  0  0  0  0  0
  -29.6073  -22.5424   18.8146 C   0  0  0  0  0  0  0  0  0  0  0  0
  -28.7839  -20.5728   20.6105 C   0  0  0  0  0  0  0  0  0  0  0  0
  -20.9587  -27.5438   22.1101 C   0  0  0  0  0  0  0  0  0  0  0  0
  -25.1015  -21.0519   22.4331 C   0  0  0  0  0  0  0  0  0  0  0  0
  -18.8920  -28.2196   23.0013 C   0  0  0  0  0  0  0  0  0  0  0  0
  -17.1969  -30.2762   23.8256 C   0  0  0  0  0  0  0  0  0  0  0  0
  -28.9379  -20.2639   19.2589 C   0  0  0  0  0  0  0  0  0  0  0  0
  -17.6489  -28.3856   22.3908 C   0  0  0  0  0  0  0  0  0  0  0  0
  -24.7655  -28.6154   20.6074 C   0  0  0  0  0  0  0  0  0  0  0  0
  -26.7405  -29.5329   20.3032 C   0  0  0  0  0  0  0  0  0  0  0  0
  -28.8866  -22.2296   22.5038 C   0  0  0  0  0  0  0  0  0  0  0  0
  -25.5315  -30.3705   22.3243 C   0  0  0  0  0  0  0  0  0  0  0  0
  -21.0368  -17.4585   22.2612 C   0  0  0  0  0  0  0  0  0  0  0  0
  -23.1664  -15.2558   21.1958 C   0  0  0  0  0  0  0  0  0  0  0  0
  -26.3889  -14.5122   20.3535 C   0  0  0  0  0  0  0  0  0  0  0  0
  -28.9092  -25.3860   16.5680 C   0  0  0  0  0  0  0  0  0  0  0  0
  -16.1917  -15.9007   22.6564 C   0  0  0  0  0  0  0  0  0  0  0  0
  -22.1439  -18.7031   20.3688 C   0  0  0  0  0  0  0  0  0  0  0  0
  -24.1263  -17.3940   22.1298 C   0  0  0  0  0  0  0  0  0  0  0  0
  -17.5639  -15.2533   22.8248 C   0  0  0  0  0  0  0  0  0  0  0  0
  -27.8926  -28.6952   15.7357 C   0  0  0  0  0  0  0  0  0  0  0  0
  -18.4550  -16.1146   23.7140 C   0  0  0  0  0  0  0  0  0  0  0  0
  -27.0568  -29.1346   16.9391 C   0  0  0  0  0  0  0  0  0  0  0  0
  -27.6934  -27.2143   15.4208 C   0  0  0  0  0  0  0  0  0  0  0  0
  -27.0842  -26.7427   17.7618 C   0  0  0  0  0  0  0  0  0  0  0  0
  -18.6903  -17.4946   23.0880 C   0  0  1  0  0  0  0  0  0  0  0  0
  -21.8720  -17.3491   21.0170 C   0  0  1  0  0  0  0  0  0  0  0  0
  -27.2944  -28.2157   18.1525 C   0  0  2  0  0  0  0  0  0  0  0  0
  -31.4291  -24.1730   18.1951 C   0  0  0  0  0  0  0  0  0  0  0  0
  -27.8294  -12.6190   19.5547 C   0  0  0  0  0  0  0  0  0  0  0  0
  -23.1303  -14.0491   23.9981 C   0  0  0  0  0  0  0  0  0  0  0  0
  -25.2305  -12.8157   23.4184 C   0  0  0  0  0  0  0  0  0  0  0  0
  -23.1339  -12.3741   22.1409 C   0  0  0  0  0  0  0  0  0  0  0  0
  -27.1127  -15.9562   17.8736 C   0  0  0  0  0  0  0  0  0  0  0  0
  -27.8929  -23.3213   22.8792 C   0  0  0  0  0  0  0  0  0  0  0  0
  -26.4696  -22.9972   22.4427 C   0  0  0  0  0  0  0  0  0  1  0  0
  -30.0479  -23.5950   17.8543 C   0  0  2  0  0  0  0  0  0  0  0  0
  -24.3649  -14.5540   21.7875 C   0  0  1  0  0  0  0  0  0  0  0  0
  -26.9771  -13.8095   19.1433 C   0  0  2  0  0  0  0  0  0  0  0  0
  -23.9638  -13.4766   22.8342 C   0  0  0  0  0  0  0  0  0  0  0  0
  -25.2337  -28.0408   19.4963 N   0  0  0  0  0  0  0  0  0  0  0  0
  -26.4362  -28.6195   19.3371 N   0  0  0  0  0  0  0  0  0  0  0  0
  -23.1001  -16.6431   21.3878 N   0  0  0  0  0  0  0  0  0  0  0  0
  -27.9355  -26.3975   16.6125 N   0  0  0  0  0  0  0  0  0  0  0  0
  -28.3655  -19.5629   21.5056 N   0  0  0  0  0  0  0  0  0  0  0  0
  -27.9100  -30.2071   20.2952 N   0  0  0  0  0  0  0  0  0  0  0  0
  -24.3582  -30.2669   23.0839 N   0  0  0  0  0  0  0  0  0  0  0  0
  -19.6752  -17.4088   22.0310 N   0  0  0  0  0  0  0  0  0  0  0  0
  -25.1319  -14.0354   20.6600 N   0  0  0  0  0  0  0  0  0  0  0  0
  -29.0798  -24.6631   17.7423 N   0  0  0  0  0  0  0  0  0  0  0  0
  -27.8292  -14.7498   18.3617 N   0  3  0  0  0  0  0  0  0  0  0  0
  -29.5614  -21.6414   23.3458 O   0  0  0  0  0  0  0  0  0  0  0  0
  -26.4217  -31.1807   22.6772 O   0  0  0  0  0  0  0  0  0  0  0  0
  -21.5870  -17.5777   23.3497 O   0  0  0  0  0  0  0  0  0  0  0  0
  -22.3238  -14.5984   20.5797 O   0  0  0  0  0  0  0  0  0  0  0  0
  -26.9863  -15.3932   20.9679 O   0  0  0  0  0  0  0  0  0  0  0  0
  -29.5808  -25.1486   15.5582 O   0  0  0  0  0  0  0  0  0  0  0  0
  -19.7342  -27.1987   22.5939 O   0  0  0  0  0  0  0  0  0  0  0  0
  -26.0393  -21.7956   23.0808 O   0  0  0  0  0  0  0  0  0  1  0  0
  -16.3824  -31.2628   24.2224 F   0  0  0  0  0  0  0  0  0  0  0  0
  -28.6933  -19.0242   18.8107 F   0  0  0  0  0  0  0  0  0  0  0  0
  -17.2629  -27.5597   21.4087 F   0  0  0  0  0  0  0  0  0  0  0  0
  1  2  1  0  0  0  0
  1  5  2  0  0  0  0
  2  6  2  0  0  0  0
  3  8  2  0  0  0  0
  3 17  1  0  0  0  0
  4  9  1  0  0  0  0
  4 17  2  0  0  0  0
  5 20  1  0  0  0  0
  6 22  1  0  0  0  0
  7 10  2  0  0  0  0
  7 21  1  0  0  0  0
  8 26  1  0  0  0  0
  9 26  2  0  0  0  0
 10 27  1  0  0  0  0
 11 12  2  0  0  0  0
 11 28  1  0  0  0  0
 12 29  1  0  0  0  0
 13 18  1  0  0  0  0
 13 24  2  0  0  0  0
 14 23  1  0  0  0  0
 14 27  2  0  0  0  0
 15 24  1  0  0  0  0
 15 30  2  0  0  0  0
 16 29  2  0  0  0  0
 16 31  1  0  0  0  0
 17 32  1  0  0  0  0
 18 25  2  0  0  0  0
 18 34  1  0  0  0  0
 19 32  1  0  0  0  0
 19 33  2  0  0  0  0
 19 35  1  0  0  0  0
 20 22  2  0  0  0  0
 20 40  1  0  0  0  0
 21 23  2  0  0  0  0
 21 41  1  0  0  0  0
 22 49  1  0  0  0  0
 23 42  1  0  0  0  0
 24 60  1  0  0  0  0
 25 30  1  0  0  0  0
 25 68  1  0  0  0  0
 26 81  1  0  0  0  0
 27 82  1  0  0  0  0
 28 31  2  0  0  0  0
 28 81  1  0  0  0  0
 29 83  1  0  0  0  0
 30 84  1  0  0  0  0
 31 85  1  0  0  0  0
 32 64  2  0  0  0  0
 33 65  1  0  0  0  0
 33 69  1  0  0  0  0
 34 58  1  0  0  0  0
 34 75  2  0  0  0  0
 35 70  1  0  0  0  0
 35 76  2  0  0  0  0
 36 50  1  0  0  0  0
 36 71  1  0  0  0  0
 36 77  2  0  0  0  0
 37 61  1  0  0  0  0
 37 66  1  0  0  0  0
 37 78  2  0  0  0  0
 38 62  1  0  0  0  0
 38 72  1  0  0  0  0
 38 79  2  0  0  0  0
 39 67  1  0  0  0  0
 39 73  1  0  0  0  0
 39 80  2  0  0  0  0
 40 43  1  0  0  0  0
 41 50  1  0  0  0  0
 42 66  1  0  0  0  0
 43 45  1  0  0  0  0
 44 46  1  0  0  0  0
 44 47  1  0  0  0  0
 45 49  1  0  0  0  0
 46 51  1  0  0  0  0
 47 67  1  0  0  0  0
 48 51  1  0  0  0  0
 48 67  1  0  0  0  0
 49 71  1  0  0  0  0
 50 66  1  0  0  0  0
 51 65  1  0  0  0  0
 52 60  1  0  0  0  0
 53 62  1  0  0  0  0
 54 63  1  0  0  0  0
 55 63  1  0  0  0  0
 56 63  1  0  0  0  0
 57 74  1  0  0  0  0
 58 59  1  0  0  0  0
 59 82  1  0  0  0  0
 60 73  1  0  0  0  0
 61 63  1  0  0  0  0
 61 72  1  0  0  0  0
 62 74  1  0  0  0  0
 64 65  1  0  0  0  0
M  CHG  1  74   1
M  ISO  4  39 100  59 101  73 100  82 101
M  END
> <Batch ID>
0097

> <Smiles>
CNC(C)C(=O)NC(C(=O)N1Cc2cc([101O:1][101CH2:1]CC(=O)c3cc(C(C)[100NH:0][100C:0](=O)N4CCCC(n5nc(-c6ccc(Oc7ccc(F)cc7F)cc6)c(C(N)=O)c5N)C4)cc(F)c3N)ccc2CC1C(=O)NC1CCCc2ccccc21)C(C)(C)C

> <Shape>
0.227

> <Color>
0.053

> <Negative vol penalty>
0.000

$$$$

  -OEChem-04052300493D

 84 92  0     1  0  0  0  0  0999 V2000
  -16.5463  -28.9211   23.9518 C   0  0  0  0  0  0  0  0  0  0  0  0
  -17.0181  -28.3087   22.7951 C   0  0  0  0  0  0  0  0  0  0  0  0
  -27.7330  -16.8394   22.1575 C   0  0  0  0  0  0  0  0  0  0  0  0
  -28.8442  -16.2292   24.2142 C   0  0  0  0  0  0  0  0  0  0  0  0
  -29.3672  -24.4994   17.0334 C   0  0  0  0  0  0  0  0  0  0  0  0
  -17.2830  -29.9437   24.5479 C   0  0  0  0  0  0  0  0  0  0  0  0
  -18.2264  -28.7194   22.2333 C   0  0  0  0  0  0  0  0  0  0  0  0
  -22.3327  -25.2027   19.3563 C   0  0  0  0  0  0  0  0  0  0  0  0
  -27.6770  -15.4953   21.7890 C   0  0  0  0  0  0  0  0  0  0  0  0
  -28.7881  -14.8851   23.8457 C   0  0  0  0  0  0  0  0  0  0  0  0
  -28.3216  -24.1462   16.1804 C   0  0  0  0  0  0  0  0  0  0  0  0
  -22.5791  -24.9621   18.0053 C   0  0  0  0  0  0  0  0  0  0  0  0
  -27.5642  -12.2549   20.1425 C   0  0  0  0  0  0  0  0  0  0  0  0
  -27.9098  -11.9253   18.8320 C   0  0  0  0  0  0  0  0  0  0  0  0
  -28.3095  -23.2835   18.8334 C   0  0  0  0  0  0  0  0  0  0  0  0
  -24.3063  -26.6460   18.0267 C   0  0  0  0  0  0  0  0  0  0  0  0
  -30.1156  -12.8466   19.1820 C   0  0  0  0  0  0  0  0  0  0  0  0
  -28.3166  -17.2064   23.3701 C   0  0  0  0  0  0  0  0  0  0  0  0
  -29.3612  -24.0679   18.3598 C   0  0  0  0  0  0  0  0  0  0  0  0
  -27.4144  -19.3163   24.4846 C   0  0  0  0  0  0  0  0  0  0  0  0
  -18.5057  -30.3607   23.9985 C   0  0  0  0  0  0  0  0  0  0  0  0
  -23.0651  -26.1760   20.0511 C   0  0  0  0  0  0  0  0  0  0  0  0
  -18.9795  -29.7496   22.8219 C   0  0  0  0  0  0  0  0  0  0  0  0
  -24.0691  -26.8952   19.3871 C   0  0  0  0  0  0  0  0  0  0  0  0
  -27.2639  -22.9304   17.9804 C   0  0  0  0  0  0  0  0  0  0  0  0
  -28.2045  -14.5181   22.6331 C   0  0  0  0  0  0  0  0  0  0  0  0
  -23.5640  -25.6859   17.3396 C   0  0  0  0  0  0  0  0  0  0  0  0
  -27.2699  -23.3618   16.6539 C   0  0  0  0  0  0  0  0  0  0  0  0
  -28.4942  -12.8805   20.9728 C   0  0  0  0  0  0  0  0  0  0  0  0
  -29.1855  -12.2211   18.3517 C   0  0  0  0  0  0  0  0  0  0  0  0
  -29.7700  -13.1763   20.4925 C   0  0  0  0  0  0  0  0  0  0  0  0
  -28.3753  -18.5947   23.7511 C   0  0  0  0  0  0  0  0  0  0  0  0
  -27.9357  -20.5834   24.5798 C   0  0  0  0  0  0  0  0  0  0  0  0
  -30.4755  -24.4442   19.2674 C   0  0  0  0  0  0  0  0  0  0  0  0
  -26.1627  -18.8801   25.0309 C   0  0  0  0  0  0  0  0  0  0  0  0
  -22.3394  -28.8821   21.5525 C   0  0  0  0  0  0  0  0  0  0  0  0
  -25.4713  -28.7995   22.3930 C   0  0  0  0  0  0  0  0  0  0  0  0
  -28.6265  -27.6934   21.7088 C   0  0  0  0  0  0  0  0  0  0  0  0
  -31.7488  -23.7057   21.2566 C   0  0  0  0  0  0  0  0  0  0  0  0
  -19.2434  -31.5024   24.6518 C   0  0  0  0  0  0  0  0  0  0  0  0
  -22.8054  -26.4047   21.5149 C   0  0  0  0  0  0  0  0  0  0  0  0
  -24.8971  -27.9367   20.0928 C   0  0  0  0  0  0  0  0  0  0  0  0
  -20.6978  -31.6234   24.2042 C   0  0  0  0  0  0  0  0  0  0  0  0
  -32.1238  -22.9133   24.6813 C   0  0  0  0  0  0  0  0  0  0  0  0
  -20.8000  -31.5140   22.6862 C   0  0  0  0  0  0  0  0  0  0  0  0
  -31.1065  -21.7911   24.9058 C   0  0  0  0  0  0  0  0  0  0  0  0
  -32.7971  -22.8035   23.3140 C   0  0  0  0  0  0  0  0  0  0  0  0
  -30.8665  -21.5812   22.3993 C   0  0  0  0  0  0  0  0  0  0  0  0
  -20.2979  -30.1504   22.1963 C   0  0  1  0  0  0  0  0  0  0  0  0
  -23.2598  -27.7798   21.9946 C   0  0  1  0  0  0  0  0  0  0  0  0
  -30.1103  -21.6879   23.7334 C   0  0  1  0  0  0  0  0  0  0  0  0
  -31.0801  -27.2951   22.0532 C   0  0  0  0  0  0  0  0  0  0  0  0
  -25.7181  -31.6259   21.2703 C   0  0  0  0  0  0  0  0  0  0  0  0
  -28.2044  -31.3319   21.2652 C   0  0  0  0  0  0  0  0  0  0  0  0
  -26.9443  -31.2452   23.4164 C   0  0  0  0  0  0  0  0  0  0  0  0
  -28.1288  -25.1799   23.1898 C   0  0  0  0  0  0  0  0  0  0  0  0
  -24.4904  -23.8319   14.3704 C   0  0  0  0  0  0  0  0  0  0  0  0
  -23.5650  -24.1321   15.5391 C   0  0  0  0  0  0  0  0  0  1  0  0
  -25.9555  -23.9477   14.7605 C   0  0  0  0  0  0  0  0  0  0  0  0
  -26.7542  -29.3188   21.7900 C   0  0  1  0  0  0  0  0  0  0  0  0
  -29.6791  -27.0437   22.5888 C   0  0  2  0  0  0  0  0  0  0  0  0
  -26.8885  -30.8623   21.9214 C   0  0  0  0  0  0  0  0  0  0  0  0
  -29.4272  -19.3414   23.4049 N   0  0  0  0  0  0  0  0  0  0  0  0
  -29.1304  -20.5454   23.9230 N   0  0  0  0  0  0  0  0  0  0  0  0
  -24.6013  -28.1284   21.5222 N   0  0  0  0  0  0  0  0  0  0  0  0
  -31.7864  -22.7200   22.2582 N   0  0  0  0  0  0  0  0  0  0  0  0
  -26.2060  -22.1350   18.4725 N   0  0  0  0  0  0  0  0  0  0  0  0
  -27.4841  -21.7154   25.1605 N   0  0  0  0  0  0  0  0  0  0  0  0
  -25.7796  -17.5454   24.8410 N   0  0  0  0  0  0  0  0  0  0  0  0
  -30.7204  -23.5605   20.3189 N   0  0  0  0  0  0  0  0  0  0  0  0
  -21.2987  -29.1307   22.4269 N   0  0  0  0  0  0  0  0  0  0  0  0
  -27.8348  -28.5691   22.4213 N   0  0  0  0  0  0  0  0  0  0  0  0
  -29.4595  -25.5713   22.6580 N   0  3  0  0  0  0  0  0  0  0  0  0
  -31.1252  -25.4583   19.0281 O   0  0  0  0  0  0  0  0  0  0  0  0
  -25.3987  -19.6554   25.6545 O   0  0  0  0  0  0  0  0  0  0  0  0
  -22.5581  -29.4649   20.4970 O   0  0  0  0  0  0  0  0  0  0  0  0
  -25.2527  -28.9763   23.5941 O   0  0  0  0  0  0  0  0  0  0  0  0
  -28.5199  -27.4513   20.5086 O   0  0  0  0  0  0  0  0  0  0  0  0
  -32.5386  -24.6545   21.2218 O   0  0  0  0  0  0  0  0  0  0  0  0
  -28.1499  -13.2064   22.2739 O   0  0  0  0  0  0  0  0  0  0  0  0
  -23.8061  -25.4535   16.0207 O   0  0  0  0  0  0  0  0  0  1  0  0
  -26.2525  -23.0247   15.7996 O   0  0  0  0  0  0  0  0  0  0  0  0
  -29.5177  -11.9031   17.0937 F   0  0  0  0  0  0  0  0  0  0  0  0
  -30.6681  -13.7761   21.2858 F   0  0  0  0  0  0  0  0  0  0  0  0
  1  2  1  0  0  0  0
  1  6  2  0  0  0  0
  2  7  2  0  0  0  0
  3  9  2  0  0  0  0
  3 18  1  0  0  0  0
  4 10  1  0  0  0  0
  4 18  2  0  0  0  0
  5 11  2  0  0  0  0
  5 19  1  0  0  0  0
  6 21  1  0  0  0  0
  7 23  1  0  0  0  0
  8 12  2  0  0  0  0
  8 22  1  0  0  0  0
  9 26  1  0  0  0  0
 10 26  2  0  0  0  0
 11 28  1  0  0  0  0
 12 27  1  0  0  0  0
 13 14  2  0  0  0  0
 13 29  1  0  0  0  0
 14 30  1  0  0  0  0
 15 19  2  0  0  0  0
 15 25  1  0  0  0  0
 16 24  1  0  0  0  0
 16 27  2  0  0  0  0
 17 30  2  0  0  0  0
 17 31  1  0  0  0  0
 18 32  1  0  0  0  0
 19 34  1  0  0  0  0
 20 32  1  0  0  0  0
 20 33  2  0  0  0  0
 20 35  1  0  0  0  0
 21 23  2  0  0  0  0
 21 40  1  0  0  0  0
 22 24  2  0  0  0  0
 22 41  1  0  0  0  0
 23 49  1  0  0  0  0
 24 42  1  0  0  0  0
 25 28  2  0  0  0  0
 25 67  1  0  0  0  0
 26 80  1  0  0  0  0
 27 81  1  0  0  0  0
 28 82  1  0  0  0  0
 29 31  2  0  0  0  0
 29 80  1  0  0  0  0
 30 83  1  0  0  0  0
 31 84  1  0  0  0  0
 32 63  2  0  0  0  0
 33 64  1  0  0  0  0
 33 68  1  0  0  0  0
 34 70  1  0  0  0  0
 34 74  2  0  0  0  0
 35 69  1  0  0  0  0
 35 75  2  0  0  0  0
 36 50  1  0  0  0  0
 36 71  1  0  0  0  0
 36 76  2  0  0  0  0
 37 60  1  0  0  0  0
 37 65  1  0  0  0  0
 37 77  2  0  0  0  0
 38 61  1  0  0  0  0
 38 72  1  0  0  0  0
 38 78  2  0  0  0  0
 39 66  1  0  0  0  0
 39 70  1  0  0  0  0
 39 79  2  0  0  0  0
 40 43  1  0  0  0  0
 41 50  1  0  0  0  0
 42 65  1  0  0  0  0
 43 45  1  0  0  0  0
 44 46  1  0  0  0  0
 44 47  1  0  0  0  0
 45 49  1  0  0  0  0
 46 51  1  0  0  0  0
 47 66  1  0  0  0  0
 48 51  1  0  0  0  0
 48 66  1  0  0  0  0
 49 71  1  0  0  0  0
 50 65  1  0  0  0  0
 51 64  1  0  0  0  0
 52 61  1  0  0  0  0
 53 62  1  0  0  0  0
 54 62  1  0  0  0  0
 55 62  1  0  0  0  0
 56 73  1  0  0  0  0
 57 58  1  0  0  0  0
 57 59  1  0  0  0  0
 58 81  1  0  0  0  0
 59 82  1  0  0  0  0
 60 62  1  0  0  0  0
 60 72  1  0  0  0  0
 61 73  1  0  0  0  0
 63 64  1  0  0  0  0
M  CHG  1  73   1
M  ISO  4  39 100  58 101  70 100  81 101
M  END
> <Batch ID>
0097

> <Smiles>
CNC(C)C(=O)NC(C(=O)N1Cc2cc([101O:1][101CH2:1]CCOc3ccc(C(=O)[100NH:0][100C:0](=O)N4CCCC(n5nc(-c6ccc(Oc7ccc(F)cc7F)cc6)c(C(N)=O)c5N)C4)cc3N)ccc2CC1C(=O)NC1CCCc2ccccc21)C(C)(C)C

> <Shape>
0.212

> <Color>
0.075

> <Negative vol penalty>
0.000

$$$$

  -OEChem-04052300493D

 87 96  0     1  0  0  0  0  0999 V2000
  -32.2767  -33.1179   22.8601 C   0  0  0  0  0  0  0  0  0  0  0  0
  -31.1633  -32.4895   23.4086 C   0  0  0  0  0  0  0  0  0  0  0  0
  -22.7487  -10.2439   20.2179 C   0  0  0  0  0  0  0  0  0  0  0  0
  -24.3749   -9.2760   21.7198 C   0  0  0  0  0  0  0  0  0  0  0  0
  -27.7666  -19.7904   17.5147 C   0  0  0  0  0  0  0  0  0  0  0  0
  -26.4140  -17.8465   17.0366 C   0  0  0  0  0  0  0  0  0  0  0  0
  -32.1772  -33.7564   21.6246 C   0  0  0  0  0  0  0  0  0  0  0  0
  -29.9495  -32.5001   22.7224 C   0  0  0  0  0  0  0  0  0  0  0  0
  -26.6990  -26.3529   20.8415 C   0  0  0  0  0  0  0  0  0  0  0  0
  -26.6305  -20.5970   17.4495 C   0  0  0  0  0  0  0  0  0  0  0  0
  -25.2779  -18.6531   16.9714 C   0  0  0  0  0  0  0  0  0  0  0  0
  -21.9968   -9.0705   20.2758 C   0  0  0  0  0  0  0  0  0  0  0  0
  -23.6229   -8.1026   21.7778 C   0  0  0  0  0  0  0  0  0  0  0  0
  -25.9110  -25.2208   20.6325 C   0  0  0  0  0  0  0  0  0  0  0  0
  -20.8461   -7.0011   23.3577 C   0  0  0  0  0  0  0  0  0  0  0  0
  -20.6425   -6.4249   24.6115 C   0  0  0  0  0  0  0  0  0  0  0  0
  -24.2312  -26.5779   19.5440 C   0  0  0  0  0  0  0  0  0  0  0  0
  -21.7435   -4.4085   23.8636 C   0  0  0  0  0  0  0  0  0  0  0  0
  -23.9378  -10.3466   20.9399 C   0  0  0  0  0  0  0  0  0  0  0  0
  -27.6584  -18.4152   17.3082 C   0  0  0  0  0  0  0  0  0  0  0  0
  -24.3045  -12.8513   21.2558 C   0  0  0  0  0  0  0  0  0  0  0  0
  -30.9640  -33.7666   20.9184 C   0  0  0  0  0  0  0  0  0  0  0  0
  -26.2625  -27.6009   20.3884 C   0  0  0  0  0  0  0  0  0  0  0  0
  -29.8333  -33.1405   21.4769 C   0  0  0  0  0  0  0  0  0  0  0  0
  -25.0219  -27.7134   19.7395 C   0  0  0  0  0  0  0  0  0  0  0  0
  -25.3861  -20.0283   17.1779 C   0  0  0  0  0  0  0  0  0  0  0  0
  -22.4339   -7.9998   21.0558 C   0  0  0  0  0  0  0  0  0  0  0  0
  -24.6801  -25.3331   19.9856 C   0  0  0  0  0  0  0  0  0  0  0  0
  -21.4983   -6.2810   22.3568 C   0  0  0  0  0  0  0  0  0  0  0  0
  -21.0912   -5.1286   24.8645 C   0  0  0  0  0  0  0  0  0  0  0  0
  -21.9470   -4.9848   22.6098 C   0  0  0  0  0  0  0  0  0  0  0  0
  -24.7152  -11.5583   20.8800 C   0  0  0  0  0  0  0  0  0  0  0  0
  -25.3986  -13.6443   21.0094 C   0  0  0  0  0  0  0  0  0  0  0  0
  -23.1283  -20.5224   16.2788 C   0  0  0  0  0  0  0  0  0  0  0  0
  -28.8684  -17.5561   17.3774 C   0  0  0  0  0  0  0  0  0  0  0  0
  -23.0466  -13.2958   21.7809 C   0  0  0  0  0  0  0  0  0  0  0  0
  -26.9750  -31.2704   20.0677 C   0  0  0  0  0  0  0  0  0  0  0  0
  -25.7025  -30.3755   17.4238 C   0  0  0  0  0  0  0  0  0  0  0  0
  -24.7596  -30.0018   14.1668 C   0  0  0  0  0  0  0  0  0  0  0  0
  -29.6385  -15.2471   17.8232 C   0  0  0  0  0  0  0  0  0  0  0  0
  -30.8929  -34.5103   19.6083 C   0  0  0  0  0  0  0  0  0  0  0  0
  -27.0502  -28.8567   20.6462 C   0  0  0  0  0  0  0  0  0  0  0  0
  -24.5771  -29.0816   19.2999 C   0  0  0  0  0  0  0  0  0  0  0  0
  -21.8326  -21.2771   16.5088 C   0  0  0  0  0  0  0  0  0  0  0  0
  -29.6670  -34.1540   18.7714 C   0  0  0  0  0  0  0  0  0  0  0  0
  -22.0157  -22.7239   16.9114 C   0  0  0  0  0  0  0  0  0  0  0  0
  -30.1746  -12.4089   19.8615 C   0  0  0  0  0  0  0  0  0  0  0  0
  -28.4106  -34.1575   19.6365 C   0  0  0  0  0  0  0  0  0  0  0  0
  -28.7696  -12.0429   20.3476 C   0  0  0  0  0  0  0  0  0  0  0  0
  -30.1647  -12.8975   18.4137 C   0  0  0  0  0  0  0  0  0  0  0  0
  -24.2747  -22.1808   17.7747 C   0  0  0  0  0  0  0  0  0  0  0  0
  -27.8189  -13.6154   18.6134 C   0  0  0  0  0  0  0  0  0  0  0  0
  -28.5056  -33.1091   20.7515 C   0  0  1  0  0  0  0  0  0  0  0  0
  -26.9445  -29.8810   19.5022 C   0  0  1  0  0  0  0  0  0  0  0  0
  -22.9171  -22.7832   18.1336 C   0  0  1  0  0  0  0  0  0  0  0  0
  -27.7660  -13.1843   20.0880 C   0  0  1  0  0  0  0  0  0  0  0  0
  -23.7955  -31.2823   12.2359 C   0  0  0  0  0  0  0  0  0  0  0  0
  -22.9458  -30.2524   18.7234 C   0  0  0  0  0  0  0  0  0  0  0  0
  -21.9410  -30.6341   16.4623 C   0  0  0  0  0  0  0  0  0  0  0  0
  -23.4186  -32.3686   17.4774 C   0  0  0  0  0  0  0  0  0  0  0  0
  -27.1568  -29.5193   12.4996 C   0  0  0  0  0  0  0  0  0  0  0  0
  -23.0745  -24.2190   18.6297 C   0  0  0  0  0  0  0  0  0  1  0  0
  -24.4383  -30.2211   16.6169 C   0  0  1  0  0  0  0  0  0  0  0  0
  -25.0693  -30.8223   12.9277 C   0  0  2  0  0  0  0  0  0  0  0  0
  -23.2034  -30.8471   17.3245 C   0  0  0  0  0  0  0  0  0  0  0  0
  -25.9720  -11.5272   20.4290 N   0  0  0  0  0  0  0  0  0  0  0  0
  -26.3605  -12.8105   20.5197 N   0  0  0  0  0  0  0  0  0  0  0  0
  -24.2078  -20.8662   17.1107 N   0  0  0  0  0  0  0  0  0  0  0  0
  -25.7082  -29.8105   18.7049 N   0  0  0  0  0  0  0  0  0  0  0  0
  -29.1965  -13.9839   18.2536 N   0  0  0  0  0  0  0  0  0  0  0  0
  -25.6220  -14.9664   21.1658 N   0  0  0  0  0  0  0  0  0  0  0  0
  -22.8663  -13.2991   23.1708 N   0  0  0  0  0  0  0  0  0  0  0  0
  -28.6443  -16.2285   17.7429 N   0  0  0  0  0  0  0  0  0  0  0  0
  -28.2474  -31.7861   20.2246 N   0  0  0  0  0  0  0  0  0  0  0  0
  -24.7223  -30.7844   15.3014 N   0  0  0  0  0  0  0  0  0  0  0  0
  -25.8657  -30.0171   11.9590 N   0  3  0  0  0  0  0  0  0  0  0  0
  -23.1348  -19.6272   15.4294 O   0  0  0  0  0  0  0  0  0  0  0  0
  -29.9595  -18.0348   17.0802 O   0  0  0  0  0  0  0  0  0  0  0  0
  -22.1044  -13.6633   21.0387 O   0  0  0  0  0  0  0  0  0  0  0  0
  -25.9222  -31.8350   20.3406 O   0  0  0  0  0  0  0  0  0  0  0  0
  -26.6587  -30.9848   16.9362 O   0  0  0  0  0  0  0  0  0  0  0  0
  -24.5661  -28.7886   14.1311 O   0  0  0  0  0  0  0  0  0  0  0  0
  -30.8223  -15.4907   17.5690 O   0  0  0  0  0  0  0  0  0  0  0  0
  -21.7003   -6.8548   21.1127 O   0  0  0  0  0  0  0  0  0  0  0  0
  -23.9179  -24.2232   19.7808 O   0  0  0  0  0  0  0  0  0  1  0  0
  -20.8971   -4.5760   26.0691 F   0  0  0  0  0  0  0  0  0  0  0  0
  -22.5753   -4.2885   21.6525 F   0  0  0  0  0  0  0  0  0  0  0  0
  1  2  1  0  0  0  0
  1  7  2  0  0  0  0
  2  8  2  0  0  0  0
  3 12  2  0  0  0  0
  3 19  1  0  0  0  0
  4 13  1  0  0  0  0
  4 19  2  0  0  0  0
  5 10  2  0  0  0  0
  5 20  1  0  0  0  0
  6 11  1  0  0  0  0
  6 20  2  0  0  0  0
  7 22  1  0  0  0  0
  8 24  1  0  0  0  0
  9 14  2  0  0  0  0
  9 23  1  0  0  0  0
 10 26  1  0  0  0  0
 11 26  2  0  0  0  0
 12 27  1  0  0  0  0
 13 27  2  0  0  0  0
 14 28  1  0  0  0  0
 15 16  2  0  0  0  0
 15 29  1  0  0  0  0
 16 30  1  0  0  0  0
 17 25  1  0  0  0  0
 17 28  2  0  0  0  0
 18 30  2  0  0  0  0
 18 31  1  0  0  0  0
 19 32  1  0  0  0  0
 20 35  1  0  0  0  0
 21 32  1  0  0  0  0
 21 33  2  0  0  0  0
 21 36  1  0  0  0  0
 22 24  2  0  0  0  0
 22 41  1  0  0  0  0
 23 25  2  0  0  0  0
 23 42  1  0  0  0  0
 24 53  1  0  0  0  0
 25 43  1  0  0  0  0
 26 68  1  0  0  0  0
 27 84  1  0  0  0  0
 28 85  1  0  0  0  0
 29 31  2  0  0  0  0
 29 84  1  0  0  0  0
 30 86  1  0  0  0  0
 31 87  1  0  0  0  0
 32 66  2  0  0  0  0
 33 67  1  0  0  0  0
 33 71  1  0  0  0  0
 34 44  1  0  0  0  0
 34 68  1  0  0  0  0
 34 77  2  0  0  0  0
 35 73  1  0  0  0  0
 35 78  2  0  0  0  0
 36 72  1  0  0  0  0
 36 79  2  0  0  0  0
 37 54  1  0  0  0  0
 37 74  1  0  0  0  0
 37 80  2  0  0  0  0
 38 63  1  0  0  0  0
 38 69  1  0  0  0  0
 38 81  2  0  0  0  0
 39 64  1  0  0  0  0
 39 75  1  0  0  0  0
 39 82  2  0  0  0  0
 40 70  1  0  0  0  0
 40 73  1  0  0  0  0
 40 83  2  0  0  0  0
 41 45  1  0  0  0  0
 42 54  1  0  0  0  0
 43 69  1  0  0  0  0
 44 46  1  0  0  0  0
 45 48  1  0  0  0  0
 46 55  1  0  0  0  0
 47 49  1  0  0  0  0
 47 50  1  0  0  0  0
 48 53  1  0  0  0  0
 49 56  1  0  0  0  0
 50 70  1  0  0  0  0
 51 55  1  0  0  0  0
 51 68  1  0  0  0  0
 52 56  1  0  0  0  0
 52 70  1  0  0  0  0
 53 74  1  0  0  0  0
 54 69  1  0  0  0  0
 55 62  1  0  0  0  0
 56 67  1  0  0  0  0
 57 64  1  0  0  0  0
 58 65  1  0  0  0  0
 59 65  1  0  0  0  0
 60 65  1  0  0  0  0
 61 76  1  0  0  0  0
 62 85  1  0  0  0  0
 63 65  1  0  0  0  0
 63 75  1  0  0  0  0
 64 76  1  0  0  0  0
 66 67  1  0  0  0  0
M  CHG  1  76   1
M  ISO  4  40 100  62 101  73 100  85 101
M  END
> <Batch ID>
0097

> <Smiles>
CNC(C)C(=O)NC(C(=O)N1Cc2cc([101O:1][101CH2:1]C3CCC(=O)N(c4ccc(C(=O)[100NH:0][100C:0](=O)N5CCCC(n6nc(-c7ccc(Oc8ccc(F)cc8F)cc7)c(C(N)=O)c6N)C5)cc4)C3)ccc2CC1C(=O)NC1CCCc2ccccc21)C(C)(C)C

> <Shape>
0.204

> <Color>
0.149

> <Negative vol penalty>
0.000

$$$$

  -OEChem-04052300493D

 86 95  0     1  0  0  0  0  0999 V2000
  -28.5858  -36.9199   18.4912 C   0  0  0  0  0  0  0  0  0  0  0  0
  -28.5733  -35.5707   18.1521 C   0  0  0  0  0  0  0  0  0  0  0  0
  -31.4513  -22.7465   21.4954 C   0  0  0  0  0  0  0  0  0  0  0  0
  -24.0532  -13.3077   18.9754 C   0  0  0  0  0  0  0  0  0  0  0  0
  -23.2144  -14.7061   20.7581 C   0  0  0  0  0  0  0  0  0  0  0  0
  -28.4040  -37.3055   19.8187 C   0  0  0  0  0  0  0  0  0  0  0  0
  -28.3800  -34.6063   19.1405 C   0  0  0  0  0  0  0  0  0  0  0  0
  -25.4111  -29.2816   18.5583 C   0  0  0  0  0  0  0  0  0  0  0  0
  -30.5911  -23.1229   20.4639 C   0  0  0  0  0  0  0  0  0  0  0  0
  -31.7584  -21.3999   21.6911 C   0  0  0  0  0  0  0  0  0  0  0  0
  -23.3131  -12.2337   19.4695 C   0  0  0  0  0  0  0  0  0  0  0  0
  -22.4742  -13.6320   21.2522 C   0  0  0  0  0  0  0  0  0  0  0  0
  -25.8564  -27.9781   18.3426 C   0  0  0  0  0  0  0  0  0  0  0  0
  -21.9242   -9.0258   20.4715 C   0  0  0  0  0  0  0  0  0  0  0  0
  -22.5567   -7.7856   20.5582 C   0  0  0  0  0  0  0  0  0  0  0  0
  -25.7656  -27.5607   20.7168 C   0  0  0  0  0  0  0  0  0  0  0  0
  -30.3449  -20.8063   19.8238 C   0  0  0  0  0  0  0  0  0  0  0  0
  -24.2015   -8.7291   22.0554 C   0  0  0  0  0  0  0  0  0  0  0  0
  -24.0039  -14.5439   19.6197 C   0  0  0  0  0  0  0  0  0  0  0  0
  -24.6639  -16.2450   17.8368 C   0  0  0  0  0  0  0  0  0  0  0  0
  -28.1989  -36.3458   20.8224 C   0  0  0  0  0  0  0  0  0  0  0  0
  -25.1498  -29.7386   19.8580 C   0  0  0  0  0  0  0  0  0  0  0  0
  -28.1967  -34.9793   20.4828 C   0  0  0  0  0  0  0  0  0  0  0  0
  -25.3147  -28.8697   20.9460 C   0  0  0  0  0  0  0  0  0  0  0  0
  -30.0379  -22.1528   19.6281 C   0  0  0  0  0  0  0  0  0  0  0  0
  -31.2051  -20.4298   20.8553 C   0  0  0  0  0  0  0  0  0  0  0  0
  -22.5235  -12.3958   20.6079 C   0  0  0  0  0  0  0  0  0  0  0  0
  -26.0364  -27.1184   19.4222 C   0  0  0  0  0  0  0  0  0  0  0  0
  -22.4304  -10.1177   21.1767 C   0  0  0  0  0  0  0  0  0  0  0  0
  -23.6953   -7.6372   21.3501 C   0  0  0  0  0  0  0  0  0  0  0  0
  -23.5690   -9.9693   21.9686 C   0  0  0  0  0  0  0  0  0  0  0  0
  -24.7687  -15.6536   19.1100 C   0  0  0  0  0  0  0  0  0  0  0  0
  -25.5988  -17.2510   17.8474 C   0  0  0  0  0  0  0  0  0  0  0  0
  -29.0674  -21.7884   17.3753 C   0  0  0  0  0  0  0  0  0  0  0  0
  -23.7986  -15.9144   16.7424 C   0  0  0  0  0  0  0  0  0  0  0  0
  -26.3392  -32.0309   21.7112 C   0  0  0  0  0  0  0  0  0  0  0  0
  -23.9274  -31.1436   23.6906 C   0  0  0  0  0  0  0  0  0  0  0  0
  -21.7387  -28.7217   24.6861 C   0  0  0  0  0  0  0  0  0  0  0  0
  -30.6024  -18.0191   20.7270 C   0  0  0  0  0  0  0  0  0  0  0  0
  -28.0542  -36.8085   22.2506 C   0  0  0  0  0  0  0  0  0  0  0  0
  -24.6446  -31.1391   20.0714 C   0  0  0  0  0  0  0  0  0  0  0  0
  -25.0287  -29.3052   22.3592 C   0  0  0  0  0  0  0  0  0  0  0  0
  -27.8970  -22.0900   16.4584 C   0  0  0  0  0  0  0  0  0  0  0  0
  -27.4816  -35.7425   23.1812 C   0  0  0  0  0  0  0  0  0  0  0  0
  -27.4886  -23.5464   16.4256 C   0  0  0  0  0  0  0  0  0  0  0  0
  -27.8415  -20.2585   20.8044 C   0  0  0  0  0  0  0  0  0  0  0  0
  -28.1811  -34.4057   22.9560 C   0  0  0  0  0  0  0  0  0  0  0  0
  -26.7193  -19.3756   20.2595 C   0  0  0  0  0  0  0  0  0  0  0  0
  -28.7787  -19.4852   21.7327 C   0  0  0  0  0  0  0  0  0  0  0  0
  -28.4938  -23.8619   18.6691 C   0  0  0  0  0  0  0  0  0  0  0  0
  -28.2105  -17.3658   20.5883 C   0  0  0  0  0  0  0  0  0  0  0  0
  -27.9653  -33.9047   21.5229 C   0  0  1  0  0  0  0  0  0  0  0  0
  -24.9016  -31.6585   21.4827 C   0  0  1  0  0  0  0  0  0  0  0  0
  -27.2150  -24.0117   17.8463 C   0  0  1  0  0  0  0  0  0  0  0  0
  -27.2859  -18.1025   19.6066 C   0  0  1  0  0  0  0  0  0  0  0  0
  -19.9162  -28.2780   26.3531 C   0  0  0  0  0  0  0  0  0  0  0  0
  -26.0202  -30.8065   25.8853 C   0  0  0  0  0  0  0  0  0  0  0  0
  -24.3389  -29.4871   27.1894 C   0  0  0  0  0  0  0  0  0  0  0  0
  -23.8871  -31.8765   26.6333 C   0  0  0  0  0  0  0  0  0  0  0  0
  -32.9070  -18.6748   21.3858 C   0  0  0  0  0  0  0  0  0  0  0  0
  -19.7378  -28.2707   22.5526 C   0  0  0  0  0  0  0  0  0  0  0  0
  -26.7242  -25.4579   17.8647 C   0  0  0  0  0  0  0  0  0  1  0  0
  -23.7739  -30.1354   24.8037 C   0  0  1  0  0  0  0  0  0  0  0  0
  -20.2441  -28.7609   24.9488 C   0  0  2  0  0  0  0  0  0  0  0  0
  -24.5124  -30.5685   26.1016 C   0  0  0  0  0  0  0  0  0  0  0  0
  -25.6972  -16.2354   19.8739 N   0  0  0  0  0  0  0  0  0  0  0  0
  -26.1843  -17.2028   19.0783 N   0  0  0  0  0  0  0  0  0  0  0  0
  -29.1457  -22.5442   18.5577 N   0  0  0  0  0  0  0  0  0  0  0  0
  -24.5428  -30.6860   22.5169 N   0  0  0  0  0  0  0  0  0  0  0  0
  -29.2615  -18.2590   21.0820 N   0  0  0  0  0  0  0  0  0  0  0  0
  -25.9691  -18.1633   16.9238 N   0  0  0  0  0  0  0  0  0  0  0  0
  -22.5483  -16.5431   16.6657 N   0  0  0  0  0  0  0  0  0  0  0  0
  -26.6414  -33.3378   21.3796 N   0  0  0  0  0  0  0  0  0  0  0  0
  -22.3396  -29.9291   24.9728 N   0  0  0  0  0  0  0  0  0  0  0  0
  -31.5235  -19.0360   21.0583 N   0  0  0  0  0  0  0  0  0  0  0  0
  -19.5238  -27.8943   23.9736 N   0  3  0  0  0  0  0  0  0  0  0  0
  -29.8308  -20.8721   17.0585 O   0  0  0  0  0  0  0  0  0  0  0  0
  -24.1178  -15.0739   15.8677 O   0  0  0  0  0  0  0  0  0  0  0  0
  -27.1164  -31.1948   22.1569 O   0  0  0  0  0  0  0  0  0  0  0  0
  -23.5099  -32.2928   23.8539 O   0  0  0  0  0  0  0  0  0  0  0  0
  -22.3160  -27.7189   24.2717 O   0  0  0  0  0  0  0  0  0  0  0  0
  -30.9540  -16.9669   20.1801 O   0  0  0  0  0  0  0  0  0  0  0  0
  -21.8009  -11.3481   21.0902 O   0  0  0  0  0  0  0  0  0  0  0  0
  -26.4715  -25.8458   19.2146 O   0  0  0  0  0  0  0  0  0  1  0  0
  -24.3016   -6.4458   21.4345 F   0  0  0  0  0  0  0  0  0  0  0  0
  -24.0593  -11.0143   22.6494 F   0  0  0  0  0  0  0  0  0  0  0  0
  1  2  1  0  0  0  0
  1  6  2  0  0  0  0
  2  7  2  0  0  0  0
  3  9  2  0  0  0  0
  3 10  1  0  0  0  0
  4 11  2  0  0  0  0
  4 19  1  0  0  0  0
  5 12  1  0  0  0  0
  5 19  2  0  0  0  0
  6 21  1  0  0  0  0
  7 23  1  0  0  0  0
  8 13  2  0  0  0  0
  8 22  1  0  0  0  0
  9 25  1  0  0  0  0
 10 26  2  0  0  0  0
 11 27  1  0  0  0  0
 12 27  2  0  0  0  0
 13 28  1  0  0  0  0
 14 15  2  0  0  0  0
 14 29  1  0  0  0  0
 15 30  1  0  0  0  0
 16 24  1  0  0  0  0
 16 28  2  0  0  0  0
 17 25  2  0  0  0  0
 17 26  1  0  0  0  0
 18 30  2  0  0  0  0
 18 31  1  0  0  0  0
 19 32  1  0  0  0  0
 20 32  1  0  0  0  0
 20 33  2  0  0  0  0
 20 35  1  0  0  0  0
 21 23  2  0  0  0  0
 21 40  1  0  0  0  0
 22 24  2  0  0  0  0
 22 41  1  0  0  0  0
 23 52  1  0  0  0  0
 24 42  1  0  0  0  0
 25 68  1  0  0  0  0
 26 75  1  0  0  0  0
 27 83  1  0  0  0  0
 28 84  1  0  0  0  0
 29 31  2  0  0  0  0
 29 83  1  0  0  0  0
 30 85  1  0  0  0  0
 31 86  1  0  0  0  0
 32 66  2  0  0  0  0
 33 67  1  0  0  0  0
 33 71  1  0  0  0  0
 34 43  1  0  0  0  0
 34 68  1  0  0  0  0
 34 77  2  0  0  0  0
 35 72  1  0  0  0  0
 35 78  2  0  0  0  0
 36 53  1  0  0  0  0
 36 73  1  0  0  0  0
 36 79  2  0  0  0  0
 37 63  1  0  0  0  0
 37 69  1  0  0  0  0
 37 80  2  0  0  0  0
 38 64  1  0  0  0  0
 38 74  1  0  0  0  0
 38 81  2  0  0  0  0
 39 70  1  0  0  0  0
 39 75  1  0  0  0  0
 39 82  2  0  0  0  0
 40 44  1  0  0  0  0
 41 53  1  0  0  0  0
 42 69  1  0  0  0  0
 43 45  1  0  0  0  0
 44 47  1  0  0  0  0
 45 54  1  0  0  0  0
 46 48  1  0  0  0  0
 46 49  1  0  0  0  0
 47 52  1  0  0  0  0
 48 55  1  0  0  0  0
 49 70  1  0  0  0  0
 50 54  1  0  0  0  0
 50 68  1  0  0  0  0
 51 55  1  0  0  0  0
 51 70  1  0  0  0  0
 52 73  1  0  0  0  0
 53 69  1  0  0  0  0
 54 62  1  0  0  0  0
 55 67  1  0  0  0  0
 56 64  1  0  0  0  0
 57 65  1  0  0  0  0
 58 65  1  0  0  0  0
 59 65  1  0  0  0  0
 60 75  1  0  0  0  0
 61 76  1  0  0  0  0
 62 84  1  0  0  0  0
 63 65  1  0  0  0  0
 63 74  1  0  0  0  0
 64 76  1  0  0  0  0
 66 67  1  0  0  0  0
M  CHG  1  76   1
M  ISO  4  39 100  62 101  75 100  84 101
M  END
> <Batch ID>
0097

> <Smiles>
CNC(C)C(=O)NC(C(=O)N1Cc2cc([101O:1][101CH2:1]C3CCC(=O)N(c4cccc([100N:0](C)[100C:0](=O)N5CCCC(n6nc(-c7ccc(Oc8ccc(F)cc8F)cc7)c(C(N)=O)c6N)C5)c4)C3)ccc2CC1C(=O)NC1CCCc2ccccc21)C(C)(C)C

> <Shape>
0.240

> <Color>
0.080

> <Negative vol penalty>
0.000

$$$$

  -OEChem-04052300492D

  0  0  0     0  0  0  0  0  0999 V2000
M  END
$$$$

  -OEChem-04052300493D

 85 93  0     1  0  0  0  0  0999 V2000
  -17.2827  -12.5311   21.9403 C   0  0  0  0  0  0  0  0  0  0  0  0
  -17.9906  -13.7282   21.9779 C   0  0  0  0  0  0  0  0  0  0  0  0
  -23.9230  -32.1658   20.7026 C   0  0  0  0  0  0  0  0  0  0  0  0
  -23.1305  -30.5665   19.0743 C   0  0  0  0  0  0  0  0  0  0  0  0
  -28.9868  -21.9014   17.1686 C   0  0  0  0  0  0  0  0  0  0  0  0
  -17.9072  -11.3414   22.3124 C   0  0  0  0  0  0  0  0  0  0  0  0
  -19.3231  -13.7363   22.3888 C   0  0  0  0  0  0  0  0  0  0  0  0
  -23.7997  -17.3523   20.2935 C   0  0  0  0  0  0  0  0  0  0  0  0
  -23.2952  -33.1935   19.9987 C   0  0  0  0  0  0  0  0  0  0  0  0
  -22.5027  -31.5941   18.3705 C   0  0  0  0  0  0  0  0  0  0  0  0
  -28.8996  -20.5917   17.6404 C   0  0  0  0  0  0  0  0  0  0  0  0
  -24.3603  -18.5309   20.7838 C   0  0  0  0  0  0  0  0  0  0  0  0
  -19.6665  -33.4141   18.6245 C   0  0  0  0  0  0  0  0  0  0  0  0
  -18.3627  -33.1918   18.1817 C   0  0  0  0  0  0  0  0  0  0  0  0
  -29.1415  -22.7093   19.4403 C   0  0  0  0  0  0  0  0  0  0  0  0
  -26.1249  -17.2536   21.8200 C   0  0  0  0  0  0  0  0  0  0  0  0
  -19.0817  -33.5221   15.8989 C   0  0  0  0  0  0  0  0  0  0  0  0
  -23.8407  -30.8523   20.2403 C   0  0  0  0  0  0  0  0  0  0  0  0
  -29.1078  -22.9603   18.0686 C   0  0  0  0  0  0  0  0  0  0  0  0
  -23.9405  -29.0090   22.0010 C   0  0  0  0  0  0  0  0  0  0  0  0
  -19.2508  -11.3335   22.7189 C   0  0  0  0  0  0  0  0  0  0  0  0
  -24.3925  -16.1124   20.5725 C   0  0  0  0  0  0  0  0  0  0  0  0
  -19.9657  -12.5455   22.7680 C   0  0  0  0  0  0  0  0  0  0  0  0
  -25.5713  -16.0609   21.3300 C   0  0  0  0  0  0  0  0  0  0  0  0
  -22.5850  -32.9076   18.8327 C   0  0  0  0  0  0  0  0  0  0  0  0
  -25.5215  -18.4815   21.5495 C   0  0  0  0  0  0  0  0  0  0  0  0
  -28.9333  -20.3407   19.0121 C   0  0  0  0  0  0  0  0  0  0  0  0
  -20.6780  -33.6905   17.7046 C   0  0  0  0  0  0  0  0  0  0  0  0
  -29.0543  -21.3995   19.9120 C   0  0  0  0  0  0  0  0  0  0  0  0
  -18.0702  -33.2458   16.8189 C   0  0  0  0  0  0  0  0  0  0  0  0
  -20.3855  -33.7445   16.3418 C   0  0  0  0  0  0  0  0  0  0  0  0
  -24.4894  -29.7904   20.9667 C   0  0  0  0  0  0  0  0  0  0  0  0
  -24.9506  -28.1479   22.3540 C   0  0  0  0  0  0  0  0  0  0  0  0
  -29.2008  -24.3256   17.5765 C   0  0  0  0  0  0  0  0  0  0  0  0
  -22.6342  -29.0573   22.5901 C   0  0  0  0  0  0  0  0  0  0  0  0
  -23.4781  -13.4838   22.1081 C   0  0  0  0  0  0  0  0  0  0  0  0
  -29.7124  -26.0904   19.3202 C   0  0  0  0  0  0  0  0  0  0  0  0
  -26.2910  -12.3201   20.9873 C   0  0  0  0  0  0  0  0  0  0  0  0
  -29.4454  -12.9610   19.8535 C   0  0  0  0  0  0  0  0  0  0  0  0
  -19.8691  -10.0295   23.1571 C   0  0  0  0  0  0  0  0  0  0  0  0
  -23.7903  -14.8524   20.0139 C   0  0  0  0  0  0  0  0  0  0  0  0
  -26.2579  -14.7568   21.6407 C   0  0  0  0  0  0  0  0  0  0  0  0
  -21.3937  -10.0697   23.2221 C   0  0  0  0  0  0  0  0  0  0  0  0
  -29.7132  -27.7977   22.4706 C   0  0  0  0  0  0  0  0  0  0  0  0
  -21.8644  -11.3320   23.9377 C   0  0  0  0  0  0  0  0  0  0  0  0
  -28.3345  -28.4546   22.5232 C   0  0  0  0  0  0  0  0  0  0  0  0
  -30.2647  -27.7702   21.0486 C   0  0  0  0  0  0  0  0  0  0  0  0
  -27.9764  -27.7749   20.1077 C   0  0  0  0  0  0  0  0  0  0  0  0
  -21.4199  -12.5915   23.1843 C   0  0  1  0  0  0  0  0  0  0  0  0
  -24.1918  -13.6026   20.7912 C   0  0  1  0  0  0  0  0  0  0  0  0
  -27.3695  -27.7956   21.5218 C   0  0  2  0  0  0  0  0  0  0  0  0
  -31.5224  -11.8048   19.0492 C   0  0  0  0  0  0  0  0  0  0  0  0
  -26.9778  -11.5598   23.8614 C   0  0  0  0  0  0  0  0  0  0  0  0
  -29.3648  -11.3059   23.1501 C   0  0  0  0  0  0  0  0  0  0  0  0
  -27.6054   -9.8469   22.1508 C   0  0  0  0  0  0  0  0  0  0  0  0
  -29.2883  -14.2708   17.2042 C   0  0  0  0  0  0  0  0  0  0  0  0
  -28.7259  -18.0333   18.4747 C   0  0  0  0  0  0  0  0  0  0  0  0
  -28.6720  -25.5089   18.3964 C   0  0  0  0  0  0  0  0  0  0  0  0
  -27.7424  -20.8828   23.2370 C   0  0  0  0  0  0  0  0  0  0  0  0
  -27.2605  -19.5061   22.8073 C   0  0  0  0  0  0  0  0  0  1  0  0
  -28.0696  -21.7686   22.0451 C   0  0  0  0  0  0  0  0  0  0  0  0
  -27.7122  -12.2863   21.4952 C   0  0  1  0  0  0  0  0  0  0  0  0
  -30.2047  -12.4469   18.6437 C   0  0  2  0  0  0  0  0  0  0  0  0
  -27.9013  -11.2743   22.6603 C   0  0  0  0  0  0  0  0  0  0  0  0
  -25.7505  -29.4554   20.6811 N   0  0  0  0  0  0  0  0  0  0  0  0
  -29.7489  -24.6016   16.4147 N   0  0  0  0  0  0  0  0  0  0  0  0
  -26.0024  -28.4541   21.5414 N   0  0  0  0  0  0  0  0  0  0  0  0
  -25.6270  -13.5518   21.0773 N   0  0  0  0  0  0  0  0  0  0  0  0
  -29.3096  -27.1570   20.1240 N   0  0  0  0  0  0  0  0  0  0  0  0
  -25.0329  -27.1663   23.2770 N   0  0  0  0  0  0  0  0  0  0  0  0
  -21.7185  -30.0026   22.1083 N   0  0  0  0  0  0  0  0  0  0  0  0
  -22.2690  -12.8188   22.0347 N   0  0  0  0  0  0  0  0  0  0  0  0
  -28.5547  -12.0242   20.3334 N   0  0  0  0  0  0  0  0  0  0  0  0
  -30.4967  -13.5645   17.7020 N   0  3  0  0  0  0  0  0  0  0  0  0
  -22.2947  -28.2959   23.5275 O   0  0  0  0  0  0  0  0  0  0  0  0
  -23.9874  -13.9589   23.1163 O   0  0  0  0  0  0  0  0  0  0  0  0
  -30.8479  -25.6078   19.3279 O   0  0  0  0  0  0  0  0  0  0  0  0
  -25.7908  -11.2934   20.5212 O   0  0  0  0  0  0  0  0  0  0  0  0
  -29.6270  -14.0802   20.3277 O   0  0  0  0  0  0  0  0  0  0  0  0
  -21.9721  -33.9101   18.1458 O   0  0  0  0  0  0  0  0  0  0  0  0
  -28.8474  -19.0571   19.4602 O   0  0  0  0  0  0  0  0  0  0  0  0
  -26.0703  -19.6304   22.0298 O   0  0  0  0  0  0  0  0  0  1  0  0
  -29.0911  -21.1660   21.2621 O   0  0  0  0  0  0  0  0  0  0  0  0
  -16.8184  -33.0308   16.3937 F   0  0  0  0  0  0  0  0  0  0  0  0
  -21.3533  -34.0084   15.4532 F   0  0  0  0  0  0  0  0  0  0  0  0
  1  2  1  0  0  0  0
  1  6  2  0  0  0  0
  2  7  2  0  0  0  0
  3  9  2  0  0  0  0
  3 18  1  0  0  0  0
  4 10  1  0  0  0  0
  4 18  2  0  0  0  0
  5 11  2  0  0  0  0
  5 19  1  0  0  0  0
  6 21  1  0  0  0  0
  7 23  1  0  0  0  0
  8 12  2  0  0  0  0
  8 22  1  0  0  0  0
  9 25  1  0  0  0  0
 10 25  2  0  0  0  0
 11 27  1  0  0  0  0
 12 26  1  0  0  0  0
 13 14  2  0  0  0  0
 13 28  1  0  0  0  0
 14 30  1  0  0  0  0
 15 19  2  0  0  0  0
 15 29  1  0  0  0  0
 16 24  1  0  0  0  0
 16 26  2  0  0  0  0
 17 30  2  0  0  0  0
 17 31  1  0  0  0  0
 18 32  1  0  0  0  0
 19 34  1  0  0  0  0
 20 32  1  0  0  0  0
 20 33  2  0  0  0  0
 20 35  1  0  0  0  0
 21 23  2  0  0  0  0
 21 40  1  0  0  0  0
 22 24  2  0  0  0  0
 22 41  1  0  0  0  0
 23 49  1  0  0  0  0
 24 42  1  0  0  0  0
 25 80  1  0  0  0  0
 26 82  1  0  0  0  0
 27 29  2  0  0  0  0
 27 81  1  0  0  0  0
 28 31  2  0  0  0  0
 28 80  1  0  0  0  0
 29 83  1  0  0  0  0
 30 84  1  0  0  0  0
 31 85  1  0  0  0  0
 32 65  2  0  0  0  0
 33 67  1  0  0  0  0
 33 70  1  0  0  0  0
 34 58  1  0  0  0  0
 34 66  2  0  0  0  0
 35 71  1  0  0  0  0
 35 75  2  0  0  0  0
 36 50  1  0  0  0  0
 36 72  1  0  0  0  0
 36 76  2  0  0  0  0
 37 58  1  0  0  0  0
 37 69  1  0  0  0  0
 37 77  2  0  0  0  0
 38 62  1  0  0  0  0
 38 68  1  0  0  0  0
 38 78  2  0  0  0  0
 39 63  1  0  0  0  0
 39 73  1  0  0  0  0
 39 79  2  0  0  0  0
 40 43  1  0  0  0  0
 41 50  1  0  0  0  0
 42 68  1  0  0  0  0
 43 45  1  0  0  0  0
 44 46  1  0  0  0  0
 44 47  1  0  0  0  0
 45 49  1  0  0  0  0
 46 51  1  0  0  0  0
 47 69  1  0  0  0  0
 48 51  1  0  0  0  0
 48 69  1  0  0  0  0
 49 72  1  0  0  0  0
 50 68  1  0  0  0  0
 51 67  1  0  0  0  0
 52 63  1  0  0  0  0
 53 64  1  0  0  0  0
 54 64  1  0  0  0  0
 55 64  1  0  0  0  0
 56 74  1  0  0  0  0
 57 81  1  0  0  0  0
 59 60  1  0  0  0  0
 59 61  1  0  0  0  0
 60 82  1  0  0  0  0
 61 83  1  0  0  0  0
 62 64  1  0  0  0  0
 62 73  1  0  0  0  0
 63 74  1  0  0  0  0
 65 67  1  0  0  0  0
M  CHG  1  74   1
M  ISO  4  37 100  58 100  60 101  82 101
M  END
> <Batch ID>
0097

> <Smiles>
CNC(C)C(=O)NC(C(=O)N1Cc2cc([101O:1][101CH2:1]CCOc3cc(C(=N)[100CH2:0][100C:0](=O)N4CCCC(n5nc(-c6ccc(Oc7ccc(F)cc7F)cc6)c(C(N)=O)c5N)C4)ccc3OC)ccc2CC1C(=O)NC1CCCc2ccccc21)C(C)(C)C

> <Shape>
0.242

> <Color>
0.073

> <Negative vol penalty>
0.000

$$$$

  -OEChem-04052300493D

 85 94  0     1  0  0  0  0  0999 V2000
  -28.5631  -37.2134   26.5190 C   0  0  0  0  0  0  0  0  0  0  0  0
  -28.8861  -35.9694   25.9865 C   0  0  0  0  0  0  0  0  0  0  0  0
  -24.3619   -9.0390   22.4081 C   0  0  0  0  0  0  0  0  0  0  0  0
  -23.7951   -9.4234   20.0912 C   0  0  0  0  0  0  0  0  0  0  0  0
  -28.3681  -21.2026   20.6595 C   0  0  0  0  0  0  0  0  0  0  0  0
  -30.4376  -21.1435   21.9049 C   0  0  0  0  0  0  0  0  0  0  0  0
  -27.2289  -37.5476   26.7473 C   0  0  0  0  0  0  0  0  0  0  0  0
  -27.8749  -35.0584   25.6829 C   0  0  0  0  0  0  0  0  0  0  0  0
  -28.5347  -32.8562   21.1707 C   0  0  0  0  0  0  0  0  0  0  0  0
  -28.5751  -22.5533   20.3797 C   0  0  0  0  0  0  0  0  0  0  0  0
  -30.6446  -22.4942   21.6250 C   0  0  0  0  0  0  0  0  0  0  0  0
  -23.3128   -8.1258   22.5133 C   0  0  0  0  0  0  0  0  0  0  0  0
  -22.7461   -8.5100   20.1963 C   0  0  0  0  0  0  0  0  0  0  0  0
  -29.4736  -31.8283   21.0951 C   0  0  0  0  0  0  0  0  0  0  0  0
  -22.7153   -4.9093   21.6588 C   0  0  0  0  0  0  0  0  0  0  0  0
  -22.9711   -3.6998   22.3046 C   0  0  0  0  0  0  0  0  0  0  0  0
  -27.6950  -30.2031   21.2147 C   0  0  0  0  0  0  0  0  0  0  0  0
  -21.2656   -4.2112   23.9377 C   0  0  0  0  0  0  0  0  0  0  0  0
  -24.6030   -9.6879   21.1971 C   0  0  0  0  0  0  0  0  0  0  0  0
  -29.2994  -20.4977   21.4222 C   0  0  0  0  0  0  0  0  0  0  0  0
  -27.0558  -10.3819   21.2963 C   0  0  0  0  0  0  0  0  0  0  0  0
  -26.2003  -36.6440   26.4374 C   0  0  0  0  0  0  0  0  0  0  0  0
  -27.1674  -32.5647   21.2801 C   0  0  0  0  0  0  0  0  0  0  0  0
  -26.5258  -35.3803   25.9085 C   0  0  0  0  0  0  0  0  0  0  0  0
  -26.7406  -31.2291   21.2890 C   0  0  0  0  0  0  0  0  0  0  0  0
  -29.7133  -23.1991   20.8624 C   0  0  0  0  0  0  0  0  0  0  0  0
  -22.5050   -7.8613   21.4074 C   0  0  0  0  0  0  0  0  0  0  0  0
  -29.0540  -30.5015   21.1200 C   0  0  0  0  0  0  0  0  0  0  0  0
  -21.7347   -5.7699   22.1524 C   0  0  0  0  0  0  0  0  0  0  0  0
  -22.2463   -3.3507   23.4441 C   0  0  0  0  0  0  0  0  0  0  0  0
  -21.0099   -5.4207   23.2919 C   0  0  0  0  0  0  0  0  0  0  0  0
  -25.6861  -10.6318   21.0880 C   0  0  0  0  0  0  0  0  0  0  0  0
  -27.6638  -11.5928   21.0716 C   0  0  0  0  0  0  0  0  0  0  0  0
  -30.2674  -27.3396   20.0832 C   0  0  0  0  0  0  0  0  0  0  0  0
  -29.0835  -19.0893   21.7139 C   0  0  0  0  0  0  0  0  0  0  0  0
  -29.8788  -28.6197   20.0023 C   0  0  0  0  0  0  0  0  0  1  0  0
  -27.8962  -18.4495   21.6517 C   0  0  0  0  0  0  0  0  0  0  0  0
  -27.7191   -9.1640   21.6604 C   0  0  0  0  0  0  0  0  0  0  0  0
  -27.8409  -17.0083   21.9691 C   0  0  0  0  0  0  0  0  0  0  0  0
  -24.9199  -33.1322   23.4550 C   0  0  0  0  0  0  0  0  0  0  0  0
  -22.9674  -31.8491   21.2047 C   0  0  0  0  0  0  0  0  0  0  0  0
  -23.0737  -29.0782   18.8964 C   0  0  0  0  0  0  0  0  0  0  0  0
  -24.7758  -37.0319   26.7458 C   0  0  0  0  0  0  0  0  0  0  0  0
  -26.1652  -33.6850   21.3338 C   0  0  0  0  0  0  0  0  0  0  0  0
  -25.2827  -30.8631   21.3847 C   0  0  0  0  0  0  0  0  0  0  0  0
  -30.1662  -26.3810   18.9311 C   0  0  0  0  0  0  0  0  0  0  0  0
  -30.8203  -26.7314   21.3410 C   0  0  0  0  0  0  0  0  0  0  0  0
  -23.7406  -36.1539   26.0474 C   0  0  0  0  0  0  0  0  0  0  0  0
  -25.8766  -15.8723   19.0912 C   0  0  0  0  0  0  0  0  0  0  0  0
  -24.1027  -34.6797   26.1972 C   0  0  0  0  0  0  0  0  0  0  0  0
  -25.7277  -14.3861   19.4056 C   0  0  0  0  0  0  0  0  0  0  0  0
  -29.3943  -25.1212   19.3312 C   0  0  0  0  0  0  0  0  0  0  0  0
  -30.0385  -25.4741   21.7262 C   0  0  0  0  0  0  0  0  0  0  0  0
  -25.8813  -16.7270   20.3577 C   0  0  0  0  0  0  0  0  0  0  0  0
  -26.7537  -14.8168   21.6732 C   0  0  0  0  0  0  0  0  0  0  0  0
  -25.4557  -34.3747   25.5430 C   0  0  1  0  0  0  0  0  0  0  0  0
  -24.8380  -33.2699   21.9610 C   0  0  1  0  0  0  0  0  0  0  0  0
  -26.7938  -13.9340   20.4160 C   0  0  1  0  0  0  0  0  0  0  0  0
  -21.9200  -28.7452   16.6929 C   0  0  0  0  0  0  0  0  0  0  0  0
  -20.8412  -30.4206   22.8626 C   0  0  0  0  0  0  0  0  0  0  0  0
  -20.6073  -28.7598   21.0038 C   0  0  0  0  0  0  0  0  0  0  0  0
  -20.0755  -31.1634   20.6006 C   0  0  0  0  0  0  0  0  0  0  0  0
  -25.6338  -28.5701   17.5010 C   0  0  0  0  0  0  0  0  0  0  0  0
  -22.4875  -30.4565   20.8740 C   0  0  1  0  0  0  0  0  0  0  0  0
  -23.2089  -29.1580   17.3865 C   0  0  2  0  0  0  0  0  0  0  0  0
  -21.0281  -30.2046   21.3476 C   0  0  0  0  0  0  0  0  0  0  0  0
  -25.4383  -11.9018   20.7566 N   0  0  0  0  0  0  0  0  0  0  0  0
  -26.6605  -12.4607   20.7550 N   0  0  0  0  0  0  0  0  0  0  0  0
  -29.9213  -24.5554   20.5814 N   0  0  0  0  0  0  0  0  0  0  0  0
  -26.8685  -16.2392   21.3325 N   0  0  0  0  0  0  0  0  0  0  0  0
  -24.3418  -31.9940   21.4412 N   0  0  0  0  0  0  0  0  0  0  0  0
  -28.9535  -11.9892   21.1160 N   0  0  0  0  0  0  0  0  0  0  0  0
  -26.9436   -8.0125   21.8526 N   0  0  0  0  0  0  0  0  0  0  0  0
  -25.3135  -34.2860   24.1056 N   0  0  0  0  0  0  0  0  0  0  0  0
  -22.6879  -30.2857   19.4391 N   0  0  0  0  0  0  0  0  0  0  0  0
  -24.3032  -28.2622   16.9163 N   0  3  0  0  0  0  0  0  0  0  0  0
  -28.9609   -9.1027   21.8267 O   0  0  0  0  0  0  0  0  0  0  0  0
  -28.6574  -16.5738   22.7835 O   0  0  0  0  0  0  0  0  0  0  0  0
  -24.6447  -32.0591   23.9788 O   0  0  0  0  0  0  0  0  0  0  0  0
  -22.1539  -32.7756   21.2444 O   0  0  0  0  0  0  0  0  0  0  0  0
  -23.2854  -28.0470   19.5305 O   0  0  0  0  0  0  0  0  0  0  0  0
  -21.4814   -6.9700   21.5096 O   0  0  0  0  0  0  0  0  0  0  0  0
  -29.9684  -29.4963   21.0469 O   0  0  0  0  0  0  0  0  0  1  0  0
  -22.4910   -2.1884   24.0634 F   0  0  0  0  0  0  0  0  0  0  0  0
  -20.0658   -6.2428   23.7701 F   0  0  0  0  0  0  0  0  0  0  0  0
  1  2  1  0  0  0  0
  1  7  2  0  0  0  0
  2  8  2  0  0  0  0
  3 12  2  0  0  0  0
  3 19  1  0  0  0  0
  4 13  1  0  0  0  0
  4 19  2  0  0  0  0
  5 10  2  0  0  0  0
  5 20  1  0  0  0  0
  6 11  1  0  0  0  0
  6 20  2  0  0  0  0
  7 22  1  0  0  0  0
  8 24  1  0  0  0  0
  9 14  2  0  0  0  0
  9 23  1  0  0  0  0
 10 26  1  0  0  0  0
 11 26  2  0  0  0  0
 12 27  1  0  0  0  0
 13 27  2  0  0  0  0
 14 28  1  0  0  0  0
 15 16  2  0  0  0  0
 15 29  1  0  0  0  0
 16 30  1  0  0  0  0
 17 25  1  0  0  0  0
 17 28  2  0  0  0  0
 18 30  2  0  0  0  0
 18 31  1  0  0  0  0
 19 32  1  0  0  0  0
 20 35  1  0  0  0  0
 21 32  1  0  0  0  0
 21 33  2  0  0  0  0
 21 38  1  0  0  0  0
 22 24  2  0  0  0  0
 22 43  1  0  0  0  0
 23 25  2  0  0  0  0
 23 44  1  0  0  0  0
 24 56  1  0  0  0  0
 25 45  1  0  0  0  0
 26 69  1  0  0  0  0
 27 82  1  0  0  0  0
 28 83  1  0  0  0  0
 29 31  2  0  0  0  0
 29 82  1  0  0  0  0
 30 84  1  0  0  0  0
 31 85  1  0  0  0  0
 32 67  2  0  0  0  0
 33 68  1  0  0  0  0
 33 72  1  0  0  0  0
 34 36  2  0  0  0  0
 34 46  1  0  0  0  0
 34 47  1  0  0  0  0
 35 37  2  0  0  0  0
 36 83  1  0  0  0  0
 37 39  1  0  0  0  0
 38 73  1  0  0  0  0
 38 77  2  0  0  0  0
 39 70  1  0  0  0  0
 39 78  2  0  0  0  0
 40 57  1  0  0  0  0
 40 74  1  0  0  0  0
 40 79  2  0  0  0  0
 41 64  1  0  0  0  0
 41 71  1  0  0  0  0
 41 80  2  0  0  0  0
 42 65  1  0  0  0  0
 42 75  1  0  0  0  0
 42 81  2  0  0  0  0
 43 48  1  0  0  0  0
 44 57  1  0  0  0  0
 45 71  1  0  0  0  0
 46 52  1  0  0  0  0
 47 53  1  0  0  0  0
 48 50  1  0  0  0  0
 49 51  1  0  0  0  0
 49 54  1  0  0  0  0
 50 56  1  0  0  0  0
 51 58  1  0  0  0  0
 52 69  1  0  0  0  0
 53 69  1  0  0  0  0
 54 70  1  0  0  0  0
 55 58  1  0  0  0  0
 55 70  1  0  0  0  0
 56 74  1  0  0  0  0
 57 71  1  0  0  0  0
 58 68  1  0  0  0  0
 59 65  1  0  0  0  0
 60 66  1  0  0  0  0
 61 66  1  0  0  0  0
 62 66  1  0  0  0  0
 63 76  1  0  0  0  0
 64 66  1  0  0  0  0
 64 75  1  0  0  0  0
 65 76  1  0  0  0  0
 67 68  1  0  0  0  0
M  CHG  1  76   1
M  ISO  4  36 101  37 100  39 100  83 101
M  END
> <Batch ID>
0097

> <Smiles>
CNC(C)C(=O)NC(C(=O)N1Cc2cc([101O:1][101CH:1]=C3CCN(c4ccc(C=[100CH:0][100C:0](=O)N5CCCC(n6nc(-c7ccc(Oc8ccc(F)cc8F)cc7)c(C(N)=O)c6N)C5)cc4)CC3)ccc2CC1C(=O)NC1CCCc2ccccc21)C(C)(C)C

> <Shape>
0.289

> <Color>
0.076

> <Negative vol penalty>
0.000

$$$$

  -OEChem-04052300493D

 88 97  0     1  0  0  0  0  0999 V2000
  -24.8584  -35.6145   22.2757 C   0  0  0  0  0  0  0  0  0  0  0  0
  -25.5598  -34.5744   22.8772 C   0  0  0  0  0  0  0  0  0  0  0  0
  -22.6242  -10.4610   20.8161 C   0  0  0  0  0  0  0  0  0  0  0  0
  -24.4848   -9.1418   21.6128 C   0  0  0  0  0  0  0  0  0  0  0  0
  -23.5673  -35.3975   21.7963 C   0  0  0  0  0  0  0  0  0  0  0  0
  -24.9700  -33.3169   23.0005 C   0  0  0  0  0  0  0  0  0  0  0  0
  -28.0254  -27.4849   20.0775 C   0  0  0  0  0  0  0  0  0  0  0  0
  -29.8603  -16.6411   19.2793 C   0  0  0  0  0  0  0  0  0  0  0  0
  -29.9286  -17.7617   18.4515 C   0  0  0  0  0  0  0  0  0  0  0  0
  -21.8038   -9.3341   20.8659 C   0  0  0  0  0  0  0  0  0  0  0  0
  -23.6644   -8.0148   21.6627 C   0  0  0  0  0  0  0  0  0  0  0  0
  -28.6551  -26.2902   19.7280 C   0  0  0  0  0  0  0  0  0  0  0  0
  -21.3036   -6.7436   23.7197 C   0  0  0  0  0  0  0  0  0  0  0  0
  -21.3799   -5.9381   24.8558 C   0  0  0  0  0  0  0  0  0  0  0  0
  -26.7357  -25.0396   20.5025 C   0  0  0  0  0  0  0  0  0  0  0  0
  -30.3090  -19.1643   20.3815 C   0  0  0  0  0  0  0  0  0  0  0  0
  -22.0472   -4.0652   23.4832 C   0  0  0  0  0  0  0  0  0  0  0  0
  -23.9647  -10.3649   21.1895 C   0  0  0  0  0  0  0  0  0  0  0  0
  -24.6415  -12.7373   21.8386 C   0  0  0  0  0  0  0  0  0  0  0  0
  -22.9650  -34.1342   21.9052 C   0  0  0  0  0  0  0  0  0  0  0  0
  -26.7406  -27.4624   20.6273 C   0  0  0  0  0  0  0  0  0  0  0  0
  -23.6691  -33.0832   22.5233 C   0  0  0  0  0  0  0  0  0  0  0  0
  -26.0949  -26.2338   20.8430 C   0  0  0  0  0  0  0  0  0  0  0  0
  -30.0163  -16.7822   20.6582 C   0  0  0  0  0  0  0  0  0  0  0  0
  -30.1530  -19.0233   19.0026 C   0  0  0  0  0  0  0  0  0  0  0  0
  -22.3239   -8.1110   21.2893 C   0  0  0  0  0  0  0  0  0  0  0  0
  -28.0119  -25.0705   19.9402 C   0  0  0  0  0  0  0  0  0  0  0  0
  -21.5990   -6.2099   22.4652 C   0  0  0  0  0  0  0  0  0  0  0  0
  -21.7517   -4.5989   24.7376 C   0  0  0  0  0  0  0  0  0  0  0  0
  -30.2407  -18.0437   21.2093 C   0  0  0  0  0  0  0  0  0  0  0  0
  -21.9708   -4.8707   22.3470 C   0  0  0  0  0  0  0  0  0  0  0  0
  -24.8128  -11.5285   21.1377 C   0  0  0  0  0  0  0  0  0  0  0  0
  -25.7045  -13.5144   21.4480 C   0  0  0  0  0  0  0  0  0  0  0  0
  -30.6861  -20.0766   16.8217 C   0  0  0  0  0  0  0  0  0  0  0  0
  -23.6134  -13.1230   22.7605 C   0  0  0  0  0  0  0  0  0  0  0  0
  -23.8444  -29.4342   21.9688 C   0  0  0  0  0  0  0  0  0  0  0  0
  -22.6677  -27.1573   20.2832 C   0  0  0  0  0  0  0  0  0  0  0  0
  -20.7391  -25.1810   18.2801 C   0  0  0  0  0  0  0  0  0  0  0  0
  -31.3231  -13.6792   20.5989 C   0  0  0  0  0  0  0  0  0  0  0  0
  -21.5495  -33.9602   21.4147 C   0  0  0  0  0  0  0  0  0  0  0  0
  -26.0490  -28.7212   21.0755 C   0  0  0  0  0  0  0  0  0  0  0  0
  -24.7272  -26.2560   21.4690 C   0  0  0  0  0  0  0  0  0  0  0  0
  -30.4291  -21.2661   15.9158 C   0  0  0  0  0  0  0  0  0  0  0  0
  -21.1380  -32.4997   21.2473 C   0  0  0  0  0  0  0  0  0  0  0  0
  -30.5055  -22.6080   16.6104 C   0  0  0  0  0  0  0  0  0  0  0  0
  -29.0907  -12.8776   17.7572 C   0  0  0  0  0  0  0  0  0  0  0  0
  -21.5503  -31.6855   22.4696 C   0  0  0  0  0  0  0  0  0  0  0  0
  -27.7893  -12.4872   18.4557 C   0  0  0  0  0  0  0  0  0  0  0  0
  -30.3100  -12.5917   18.6285 C   0  0  0  0  0  0  0  0  0  0  0  0
  -29.9921  -21.5020   18.7682 C   0  0  0  0  0  0  0  0  0  0  0  0
  -28.9444  -12.8255   20.6765 C   0  0  0  0  0  0  0  0  0  0  0  0
  -23.0726  -31.6985   22.6533 C   0  0  1  0  0  0  0  0  0  0  0  0
  -24.5249  -28.6804   20.8643 C   0  0  1  0  0  0  0  0  0  0  0  0
  -29.5582  -22.6004   17.7987 C   0  0  1  0  0  0  0  0  0  0  0  0
  -27.6935  -13.1438   19.8438 C   0  0  2  0  0  0  0  0  0  0  0  0
  -18.4155  -24.2558   18.0756 C   0  0  0  0  0  0  0  0  0  0  0  0
  -23.2845  -25.1326   22.4795 C   0  0  0  0  0  0  0  0  0  0  0  0
  -21.4216  -23.7127   21.5955 C   0  0  0  0  0  0  0  0  0  0  0  0
  -20.9363  -25.9930   22.4828 C   0  0  0  0  0  0  0  0  0  0  0  0
  -32.3201  -15.3163   22.1499 C   0  0  0  0  0  0  0  0  0  0  0  0
  -20.3011  -26.5406   15.6881 C   0  0  0  0  0  0  0  0  0  0  0  0
  -29.9445  -15.5810   21.5398 C   0  0  0  0  0  0  0  0  0  0  0  0
  -29.5388  -23.9605   18.4932 C   0  0  0  0  0  0  0  0  0  1  0  0
  -22.1187  -25.7533   20.2610 C   0  0  1  0  0  0  0  0  0  0  0  0
  -19.3550  -25.3884   17.6922 C   0  0  2  0  0  0  0  0  0  0  0  0
  -21.9617  -25.1557   21.6878 C   0  0  0  0  0  0  0  0  0  0  0  0
  -25.8991  -11.5327   20.3605 N   0  0  0  0  0  0  0  0  0  0  0  0
  -26.4199  -12.7537   20.5707 N   0  0  0  0  0  0  0  0  0  0  0  0
  -30.2218  -20.1863   18.1438 N   0  0  0  0  0  0  0  0  0  0  0  0
  -23.9220  -27.3367   20.8789 N   0  0  0  0  0  0  0  0  0  0  0  0
  -30.1735  -13.1909   19.9565 N   0  0  0  0  0  0  0  0  0  0  0  0
  -26.0876  -14.7675   21.7728 N   0  0  0  0  0  0  0  0  0  0  0  0
  -23.8036  -12.8565   24.1233 N   0  0  0  0  0  0  0  0  0  0  0  0
  -23.7018  -30.7864   21.7223 N   0  0  0  0  0  0  0  0  0  0  0  0
  -20.8766  -25.8126   19.4981 N   0  0  0  0  0  0  0  0  0  0  0  0
  -31.1561  -14.7671   21.4691 N   0  0  0  0  0  0  0  0  0  0  0  0
  -19.4286  -25.4551   16.2052 N   0  3  0  0  0  0  0  0  0  0  0  0
  -31.2249  -19.0805   16.3316 O   0  0  0  0  0  0  0  0  0  0  0  0
  -22.5501  -13.6726   22.3850 O   0  0  0  0  0  0  0  0  0  0  0  0
  -23.4740  -28.8341   22.9710 O   0  0  0  0  0  0  0  0  0  0  0  0
  -22.0021  -28.0730   19.7914 O   0  0  0  0  0  0  0  0  0  0  0  0
  -21.6100  -24.5213   17.7172 O   0  0  0  0  0  0  0  0  0  0  0  0
  -32.4368  -13.1778   20.3984 O   0  0  0  0  0  0  0  0  0  0  0  0
  -21.5235   -7.0111   21.3383 O   0  0  0  0  0  0  0  0  0  0  0  0
  -28.6305  -23.9081   19.5926 O   0  0  0  0  0  0  0  0  0  1  0  0
  -21.8265   -3.8259   25.8290 F   0  0  0  0  0  0  0  0  0  0  0  0
  -30.3920  -18.1893   22.5331 F   0  0  0  0  0  0  0  0  0  0  0  0
  -22.2570   -4.3527   21.1447 F   0  0  0  0  0  0  0  0  0  0  0  0
  1  2  1  0  0  0  0
  1  5  2  0  0  0  0
  2  6  2  0  0  0  0
  3 10  2  0  0  0  0
  3 18  1  0  0  0  0
  4 11  1  0  0  0  0
  4 18  2  0  0  0  0
  5 20  1  0  0  0  0
  6 22  1  0  0  0  0
  7 12  2  0  0  0  0
  7 21  1  0  0  0  0
  8  9  2  0  0  0  0
  8 24  1  0  0  0  0
  9 25  1  0  0  0  0
 10 26  1  0  0  0  0
 11 26  2  0  0  0  0
 12 27  1  0  0  0  0
 13 14  2  0  0  0  0
 13 28  1  0  0  0  0
 14 29  1  0  0  0  0
 15 23  1  0  0  0  0
 15 27  2  0  0  0  0
 16 25  2  0  0  0  0
 16 30  1  0  0  0  0
 17 29  2  0  0  0  0
 17 31  1  0  0  0  0
 18 32  1  0  0  0  0
 19 32  1  0  0  0  0
 19 33  2  0  0  0  0
 19 35  1  0  0  0  0
 20 22  2  0  0  0  0
 20 40  1  0  0  0  0
 21 23  2  0  0  0  0
 21 41  1  0  0  0  0
 22 52  1  0  0  0  0
 23 42  1  0  0  0  0
 24 30  2  0  0  0  0
 24 62  1  0  0  0  0
 25 69  1  0  0  0  0
 26 84  1  0  0  0  0
 27 85  1  0  0  0  0
 28 31  2  0  0  0  0
 28 84  1  0  0  0  0
 29 86  1  0  0  0  0
 30 87  1  0  0  0  0
 31 88  1  0  0  0  0
 32 67  2  0  0  0  0
 33 68  1  0  0  0  0
 33 72  1  0  0  0  0
 34 43  1  0  0  0  0
 34 69  1  0  0  0  0
 34 78  2  0  0  0  0
 35 73  1  0  0  0  0
 35 79  2  0  0  0  0
 36 53  1  0  0  0  0
 36 74  1  0  0  0  0
 36 80  2  0  0  0  0
 37 64  1  0  0  0  0
 37 70  1  0  0  0  0
 37 81  2  0  0  0  0
 38 65  1  0  0  0  0
 38 75  1  0  0  0  0
 38 82  2  0  0  0  0
 39 71  1  0  0  0  0
 39 76  1  0  0  0  0
 39 83  2  0  0  0  0
 40 44  1  0  0  0  0
 41 53  1  0  0  0  0
 42 70  1  0  0  0  0
 43 45  1  0  0  0  0
 44 47  1  0  0  0  0
 45 54  1  0  0  0  0
 46 48  1  0  0  0  0
 46 49  1  0  0  0  0
 47 52  1  0  0  0  0
 48 55  1  0  0  0  0
 49 71  1  0  0  0  0
 50 54  1  0  0  0  0
 50 69  1  0  0  0  0
 51 55  1  0  0  0  0
 51 71  1  0  0  0  0
 52 74  1  0  0  0  0
 53 70  1  0  0  0  0
 54 63  1  0  0  0  0
 55 68  1  0  0  0  0
 56 65  1  0  0  0  0
 57 66  1  0  0  0  0
 58 66  1  0  0  0  0
 59 66  1  0  0  0  0
 60 76  1  0  0  0  0
 61 77  1  0  0  0  0
 62 76  1  0  0  0  0
 63 85  1  0  0  0  0
 64 66  1  0  0  0  0
 64 75  1  0  0  0  0
 65 77  1  0  0  0  0
 67 68  1  0  0  0  0
M  CHG  1  77   1
M  ISO  4  39 100  63 101  76 100  85 101
M  END
> <Batch ID>
0097

> <Smiles>
CNC(C)C(=O)NC(C(=O)N1Cc2cc([101O:1][101CH2:1]C3CCC(=O)N(c4ccc(C[100N:0](C)[100C:0](=O)N5CCCC(n6nc(-c7ccc(Oc8ccc(F)cc8F)cc7)c(C(N)=O)c6N)C5)c(F)c4)C3)ccc2CC1C(=O)NC1CCCc2ccccc21)C(C)(C)C

> <Shape>
0.331

> <Color>
0.146

> <Negative vol penalty>
0.000

$$$$

  -OEChem-04052300493D

 87 96  0     1  0  0  0  0  0999 V2000
  -35.7170  -29.6341   20.6441 C   0  0  0  0  0  0  0  0  0  0  0  0
  -34.6280  -30.0951   19.9113 C   0  0  0  0  0  0  0  0  0  0  0  0
  -28.3443  -14.1371   21.6214 C   0  0  0  0  0  0  0  0  0  0  0  0
  -27.9095  -14.8024   19.3398 C   0  0  0  0  0  0  0  0  0  0  0  0
  -35.9295  -28.2636   20.7875 C   0  0  0  0  0  0  0  0  0  0  0  0
  -33.7515  -29.1857   19.3205 C   0  0  0  0  0  0  0  0  0  0  0  0
  -26.7355  -29.2014   20.9536 C   0  0  0  0  0  0  0  0  0  0  0  0
  -19.1189  -22.5550   22.0822 C   0  0  0  0  0  0  0  0  0  0  0  0
  -21.0215  -22.8474   23.5422 C   0  0  0  0  0  0  0  0  0  0  0  0
  -19.1378  -23.9176   21.7846 C   0  0  0  0  0  0  0  0  0  0  0  0
  -21.0404  -24.2100   23.2445 C   0  0  0  0  0  0  0  0  0  0  0  0
  -29.7161  -14.2309   21.3873 C   0  0  0  0  0  0  0  0  0  0  0  0
  -29.2813  -14.8962   19.1057 C   0  0  0  0  0  0  0  0  0  0  0  0
  -25.3462  -29.2785   21.0548 C   0  0  0  0  0  0  0  0  0  0  0  0
  -32.0467  -16.6718   21.1804 C   0  0  0  0  0  0  0  0  0  0  0  0
  -32.8261  -17.3143   22.1423 C   0  0  0  0  0  0  0  0  0  0  0  0
  -25.1232  -27.3568   19.6039 C   0  0  0  0  0  0  0  0  0  0  0  0
  -34.1069  -15.2900   22.4566 C   0  0  0  0  0  0  0  0  0  0  0  0
  -27.4409  -14.4228   20.5976 C   0  0  0  0  0  0  0  0  0  0  0  0
  -25.3054  -13.1819   21.2356 C   0  0  0  0  0  0  0  0  0  0  0  0
  -35.0496  -27.3370   20.2062 C   0  0  0  0  0  0  0  0  0  0  0  0
  -27.3249  -28.1911   20.1885 C   0  0  0  0  0  0  0  0  0  0  0  0
  -33.9531  -27.8015   19.4551 C   0  0  0  0  0  0  0  0  0  0  0  0
  -26.5145  -27.2670   19.5088 C   0  0  0  0  0  0  0  0  0  0  0  0
  -20.0607  -22.0199   22.9610 C   0  0  0  0  0  0  0  0  0  0  0  0
  -20.0986  -24.7451   22.3657 C   0  0  0  0  0  0  0  0  0  0  0  0
  -30.1847  -14.6104   20.1294 C   0  0  0  0  0  0  0  0  0  0  0  0
  -24.5421  -28.3586   20.3815 C   0  0  0  0  0  0  0  0  0  0  0  0
  -32.2974  -15.3384   20.8565 C   0  0  0  0  0  0  0  0  0  0  0  0
  -33.8562  -16.6234   22.7804 C   0  0  0  0  0  0  0  0  0  0  0  0
  -33.3275  -14.6475   21.4946 C   0  0  0  0  0  0  0  0  0  0  0  0
  -26.0237  -14.3257   20.8387 C   0  0  0  0  0  0  0  0  0  0  0  0
  -24.0032  -13.6090   21.3276 C   0  0  0  0  0  0  0  0  0  0  0  0
  -18.8867  -26.7826   21.7411 C   0  0  0  0  0  0  0  0  0  0  0  0
  -21.3765  -26.8218   22.0802 C   0  0  0  0  0  0  0  0  0  0  0  0
  -25.7734  -11.8522   21.4977 C   0  0  0  0  0  0  0  0  0  0  0  0
  -30.4931  -26.6061   18.9531 C   0  0  0  0  0  0  0  0  0  0  0  0
  -28.5687  -24.3223   19.6542 C   0  0  0  0  0  0  0  0  0  0  0  0
  -27.1443  -21.3698   20.5982 C   0  0  0  0  0  0  0  0  0  0  0  0
  -21.6743  -18.9335   22.3670 C   0  0  0  0  0  0  0  0  0  0  0  0
  -35.3470  -25.8653   20.3489 C   0  0  0  0  0  0  0  0  0  0  0  0
  -28.8155  -28.1072   20.0014 C   0  0  0  0  0  0  0  0  0  0  0  0
  -27.1916  -26.2182   18.6695 C   0  0  0  0  0  0  0  0  0  0  0  0
  -18.9452  -28.2171   21.2584 C   0  0  0  0  0  0  0  0  0  0  0  0
  -34.1606  -24.9681   20.0059 C   0  0  0  0  0  0  0  0  0  0  0  0
  -20.3256  -28.6736   20.8478 C   0  0  0  0  0  0  0  0  0  0  0  0
  -20.9836  -16.8398   19.4970 C   0  0  0  0  0  0  0  0  0  0  0  0
  -33.5108  -25.4179   18.7011 C   0  0  0  0  0  0  0  0  0  0  0  0
  -22.1429  -15.8438   19.5612 C   0  0  0  0  0  0  0  0  0  0  0  0
  -21.4337  -18.2390   19.9069 C   0  0  0  0  0  0  0  0  0  0  0  0
  -23.2321  -17.3168   21.3172 C   0  0  0  0  0  0  0  0  0  0  0  0
  -32.9660  -26.8464   18.8199 C   0  0  1  0  0  0  0  0  0  0  0  0
  -21.2930  -28.3375   21.9686 C   0  0  2  0  0  0  0  0  0  0  0  0
  -29.3304  -26.6602   19.9001 C   0  0  1  0  0  0  0  0  0  0  0  0
  -22.8363  -15.8787   20.9360 C   0  0  2  0  0  0  0  0  0  0  0  0
  -26.7722  -18.8900   20.6949 C   0  0  0  0  0  0  0  0  0  0  0  0
  -26.9442  -24.8346   17.1239 C   0  0  0  0  0  0  0  0  0  0  0  0
  -26.2172  -22.4398   17.1910 C   0  0  0  0  0  0  0  0  0  0  0  0
  -28.6333  -23.0009   16.9263 C   0  0  0  0  0  0  0  0  0  0  0  0
  -29.1273  -21.0399   22.7703 C   0  0  0  0  0  0  0  0  0  0  0  0
  -20.0403  -20.5630   23.2792 C   0  0  0  0  0  0  0  0  0  0  0  0
  -22.6615  -28.9622   21.7067 C   0  0  0  0  0  0  0  0  0  1  0  0
  -27.5154  -23.3606   19.1652 C   0  0  1  0  0  0  0  0  0  0  0  0
  -27.7531  -20.0241   20.9486 C   0  0  2  0  0  0  0  0  0  0  0  0
  -27.3228  -23.4262   17.6238 C   0  0  0  0  0  0  0  0  0  0  0  0
  -25.2427  -15.3987   20.6887 N   0  0  0  0  0  0  0  0  0  0  0  0
  -24.0200  -14.9310   20.9929 N   0  0  0  0  0  0  0  0  0  0  0  0
  -20.1187  -26.1611   22.0564 N   0  0  0  0  0  0  0  0  0  0  0  0
  -28.3598  -25.6802   19.3839 N   0  0  0  0  0  0  0  0  0  0  0  0
  -22.0686  -18.2058   21.2320 N   0  0  0  0  0  0  0  0  0  0  0  0
  -22.8569  -12.9788   21.6612 N   0  0  0  0  0  0  0  0  0  0  0  0
  -26.1722  -11.5293   22.8020 N   0  0  0  0  0  0  0  0  0  0  0  0
  -31.7156  -26.8514   19.5486 N   0  0  0  0  0  0  0  0  0  0  0  0
  -27.9010  -22.0449   19.6638 N   0  0  0  0  0  0  0  0  0  0  0  0
  -20.5677  -19.7572   22.2005 N   0  0  0  0  0  0  0  0  0  0  0  0
  -28.1469  -19.9921   22.3856 N   0  3  0  0  0  0  0  0  0  0  0  0
  -17.7727  -26.2755   21.9090 O   0  0  0  0  0  0  0  0  0  0  0  0
  -22.4708  -26.2607   22.1647 O   0  0  0  0  0  0  0  0  0  0  0  0
  -25.8515  -10.9812   20.5984 O   0  0  0  0  0  0  0  0  0  0  0  0
  -30.2969  -26.3584   17.7691 O   0  0  0  0  0  0  0  0  0  0  0  0
  -29.5537  -23.8838   20.2549 O   0  0  0  0  0  0  0  0  0  0  0  0
  -26.0999  -21.7794   21.1001 O   0  0  0  0  0  0  0  0  0  0  0  0
  -22.2619  -18.8513   23.4510 O   0  0  0  0  0  0  0  0  0  0  0  0
  -31.5233  -14.7022   19.9007 O   0  0  0  0  0  0  0  0  0  0  0  0
  -23.1867  -28.4368   20.4883 O   0  0  0  0  0  0  0  0  0  1  0  0
  -34.6056  -17.2410   23.7031 F   0  0  0  0  0  0  0  0  0  0  0  0
  -33.5738  -13.3667   21.1869 F   0  0  0  0  0  0  0  0  0  0  0  0
  1  2  1  0  0  0  0
  1  5  2  0  0  0  0
  2  6  2  0  0  0  0
  3 12  2  0  0  0  0
  3 19  1  0  0  0  0
  4 13  1  0  0  0  0
  4 19  2  0  0  0  0
  5 21  1  0  0  0  0
  6 23  1  0  0  0  0
  7 14  2  0  0  0  0
  7 22  1  0  0  0  0
  8 10  2  0  0  0  0
  8 25  1  0  0  0  0
  9 11  1  0  0  0  0
  9 25  2  0  0  0  0
 10 26  1  0  0  0  0
 11 26  2  0  0  0  0
 12 27  1  0  0  0  0
 13 27  2  0  0  0  0
 14 28  1  0  0  0  0
 15 16  2  0  0  0  0
 15 29  1  0  0  0  0
 16 30  1  0  0  0  0
 17 24  1  0  0  0  0
 17 28  2  0  0  0  0
 18 30  2  0  0  0  0
 18 31  1  0  0  0  0
 19 32  1  0  0  0  0
 20 32  1  0  0  0  0
 20 33  2  0  0  0  0
 20 36  1  0  0  0  0
 21 23  2  0  0  0  0
 21 41  1  0  0  0  0
 22 24  2  0  0  0  0
 22 42  1  0  0  0  0
 23 52  1  0  0  0  0
 24 43  1  0  0  0  0
 25 61  1  0  0  0  0
 26 68  1  0  0  0  0
 27 84  1  0  0  0  0
 28 85  1  0  0  0  0
 29 31  2  0  0  0  0
 29 84  1  0  0  0  0
 30 86  1  0  0  0  0
 31 87  1  0  0  0  0
 32 66  2  0  0  0  0
 33 67  1  0  0  0  0
 33 71  1  0  0  0  0
 34 44  1  0  0  0  0
 34 68  1  0  0  0  0
 34 77  2  0  0  0  0
 35 53  1  0  0  0  0
 35 68  1  0  0  0  0
 35 78  2  0  0  0  0
 36 72  1  0  0  0  0
 36 79  2  0  0  0  0
 37 54  1  0  0  0  0
 37 73  1  0  0  0  0
 37 80  2  0  0  0  0
 38 63  1  0  0  0  0
 38 69  1  0  0  0  0
 38 81  2  0  0  0  0
 39 64  1  0  0  0  0
 39 74  1  0  0  0  0
 39 82  2  0  0  0  0
 40 70  1  0  0  0  0
 40 75  1  0  0  0  0
 40 83  2  0  0  0  0
 41 45  1  0  0  0  0
 42 54  1  0  0  0  0
 43 69  1  0  0  0  0
 44 46  1  0  0  0  0
 45 48  1  0  0  0  0
 46 53  1  0  0  0  0
 47 49  1  0  0  0  0
 47 50  1  0  0  0  0
 48 52  1  0  0  0  0
 49 55  1  0  0  0  0
 50 70  1  0  0  0  0
 51 55  1  0  0  0  0
 51 70  1  0  0  0  0
 52 73  1  0  0  0  0
 53 62  1  0  0  0  0
 54 69  1  0  0  0  0
 55 67  1  0  0  0  0
 56 64  1  0  0  0  0
 57 65  1  0  0  0  0
 58 65  1  0  0  0  0
 59 65  1  0  0  0  0
 60 76  1  0  0  0  0
 61 75  1  0  0  0  0
 62 85  1  0  0  0  0
 63 65  1  0  0  0  0
 63 74  1  0  0  0  0
 64 76  1  0  0  0  0
 66 67  1  0  0  0  0
M  CHG  1  76   1
M  ISO  4  40 100  62 101  75 100  85 101
M  END
> <Batch ID>
0097

> <Smiles>
CNC(C)C(=O)NC(C(=O)N1Cc2cc([101O:1][101CH2:1]C3CCC(=O)N(c4ccc(C[100NH:0][100C:0](=O)N5CCCC(n6nc(-c7ccc(Oc8ccc(F)cc8F)cc7)c(C(N)=O)c6N)C5)cc4)C3=O)ccc2CC1C(=O)NC1CCCc2ccccc21)C(C)(C)C

> <Shape>
0.228

> <Color>
0.080

> <Negative vol penalty>
0.000

$$$$

  -OEChem-04052300493D

 86 95  0     1  0  0  0  0  0999 V2000
  -19.9591  -28.7360   28.3188 C   0  0  0  0  0  0  0  0  0  0  0  0
  -20.7759  -28.1576   27.3525 C   0  0  0  0  0  0  0  0  0  0  0  0
  -22.6502  -10.2335   20.1862 C   0  0  0  0  0  0  0  0  0  0  0  0
  -24.3477   -9.3925   21.6857 C   0  0  0  0  0  0  0  0  0  0  0  0
  -29.2936  -17.0063   20.1085 C   0  0  0  0  0  0  0  0  0  0  0  0
  -28.9861  -17.4316   22.4668 C   0  0  0  0  0  0  0  0  0  0  0  0
  -20.4839  -29.0639   29.5681 C   0  0  0  0  0  0  0  0  0  0  0  0
  -22.1185  -27.9079   27.6347 C   0  0  0  0  0  0  0  0  0  0  0  0
  -23.6058  -23.3180   26.0967 C   0  0  0  0  0  0  0  0  0  0  0  0
  -28.5690  -18.1591   19.8061 C   0  0  0  0  0  0  0  0  0  0  0  0
  -28.2616  -18.5845   22.1644 C   0  0  0  0  0  0  0  0  0  0  0  0
  -21.9139   -9.0621   20.3628 C   0  0  0  0  0  0  0  0  0  0  0  0
  -23.6113   -8.2211   21.8623 C   0  0  0  0  0  0  0  0  0  0  0  0
  -23.8690  -23.1564   24.7371 C   0  0  0  0  0  0  0  0  0  0  0  0
  -20.9144   -7.2199   23.6357 C   0  0  0  0  0  0  0  0  0  0  0  0
  -20.7694   -6.7374   24.9364 C   0  0  0  0  0  0  0  0  0  0  0  0
  -26.2316  -23.3686   25.1754 C   0  0  0  0  0  0  0  0  0  0  0  0
  -21.8596   -4.6791   24.2943 C   0  0  0  0  0  0  0  0  0  0  0  0
  -23.8672  -10.3987   20.8476 C   0  0  0  0  0  0  0  0  0  0  0  0
  -29.5021  -16.6425   21.4388 C   0  0  0  0  0  0  0  0  0  0  0  0
  -24.2203  -12.9226   20.9609 C   0  0  0  0  0  0  0  0  0  0  0  0
  -21.8312  -28.8092   29.8691 C   0  0  0  0  0  0  0  0  0  0  0  0
  -24.6546  -23.5174   27.0059 C   0  0  0  0  0  0  0  0  0  0  0  0
  -22.6622  -28.2340   28.8888 C   0  0  0  0  0  0  0  0  0  0  0  0
  -25.9793  -23.5300   26.5463 C   0  0  0  0  0  0  0  0  0  0  0  0
  -28.0530  -18.9483   20.8340 C   0  0  0  0  0  0  0  0  0  0  0  0
  -22.3944   -8.0560   21.2009 C   0  0  0  0  0  0  0  0  0  0  0  0
  -25.1818  -23.1845   24.2759 C   0  0  0  0  0  0  0  0  0  0  0  0
  -21.5320   -6.4321   22.6643 C   0  0  0  0  0  0  0  0  0  0  0  0
  -21.2420   -5.4670   25.2657 C   0  0  0  0  0  0  0  0  0  0  0  0
  -22.0046   -5.1617   22.9936 C   0  0  0  0  0  0  0  0  0  0  0  0
  -24.6286  -11.6083   20.6651 C   0  0  0  0  0  0  0  0  0  0  0  0
  -25.2946  -13.7031   20.6102 C   0  0  0  0  0  0  0  0  0  0  0  0
  -27.5724  -20.8762   19.3500 C   0  0  0  0  0  0  0  0  0  0  0  0
  -30.2574  -15.4404   21.7542 C   0  0  0  0  0  0  0  0  0  0  0  0
  -22.9806  -13.3957   21.5043 C   0  0  0  0  0  0  0  0  0  0  0  0
  -30.8187  -14.5804   20.6872 C   0  0  0  0  0  0  0  0  0  0  0  0
  -25.4880  -25.8556   28.9914 C   0  0  0  0  0  0  0  0  0  0  0  0
  -27.7430  -23.7231   29.9345 C   0  0  0  0  0  0  0  0  0  0  0  0
  -29.9589  -21.3589   28.3477 C   0  0  0  0  0  0  0  0  0  0  0  0
  -22.3649  -29.2245   31.2172 C   0  0  0  0  0  0  0  0  0  0  0  0
  -24.3559  -23.6634   28.4728 C   0  0  0  0  0  0  0  0  0  0  0  0
  -27.1423  -23.7206   27.4841 C   0  0  0  0  0  0  0  0  0  0  0  0
  -26.5423  -21.9161   18.9513 C   0  0  0  0  0  0  0  0  0  0  0  0
  -23.7059  -28.5834   31.5652 C   0  0  0  0  0  0  0  0  0  0  0  0
  -25.8783  -22.6161   20.1166 C   0  0  0  0  0  0  0  0  0  0  0  0
  -29.4848  -12.5863   18.0224 C   0  0  0  0  0  0  0  0  0  0  0  0
  -24.6657  -28.6783   30.3835 C   0  0  0  0  0  0  0  0  0  0  0  0
  -28.0828  -12.2302   18.5156 C   0  0  0  0  0  0  0  0  0  0  0  0
  -30.4794  -12.6646   19.1761 C   0  0  0  0  0  0  0  0  0  0  0  0
  -26.4032  -20.6725   21.5622 C   0  0  0  0  0  0  0  0  0  0  0  0
  -28.6650  -13.2546   20.7600 C   0  0  0  0  0  0  0  0  0  0  0  0
  -24.1175  -27.9249   29.1656 C   0  0  1  0  0  0  0  0  0  0  0  0
  -25.4661  -24.3740   29.2408 C   0  0  1  0  0  0  0  0  0  0  0  0
  -25.2808  -21.5694   21.0424 C   0  0  1  0  0  0  0  0  0  0  0  0
  -27.6268  -13.1935   19.6260 C   0  0  2  0  0  0  0  0  0  0  0  0
  -30.9740  -19.2357   29.2190 C   0  0  0  0  0  0  0  0  0  0  0  0
  -30.1156  -25.4978   30.6633 C   0  0  0  0  0  0  0  0  0  0  0  0
  -31.6345  -23.6277   29.9821 C   0  0  0  0  0  0  0  0  0  0  0  0
  -30.0387  -23.3103   31.8730 C   0  0  0  0  0  0  0  0  0  0  0  0
  -28.8705  -19.7774   26.0953 C   0  0  0  0  0  0  0  0  0  0  0  0
  -24.5302  -22.2252   22.1996 C   0  0  0  0  0  0  0  0  0  1  0  0
  -29.1541  -23.3995   29.5063 C   0  0  1  0  0  0  0  0  0  0  0  0
  -29.8539  -19.8450   28.3903 C   0  0  2  0  0  0  0  0  0  0  0  0
  -30.2167  -23.9694   30.4879 C   0  0  0  0  0  0  0  0  0  0  0  0
  -25.8658  -11.5530   20.1648 N   0  0  0  0  0  0  0  0  0  0  0  0
  -30.4924  -15.0412   22.9750 N   0  0  0  0  0  0  0  0  0  0  0  0
  -26.2441  -12.8424   20.1435 N   0  0  0  0  0  0  0  0  0  0  0  0
  -27.3014  -20.1445   20.5191 N   0  0  0  0  0  0  0  0  0  0  0  0
  -29.9994  -13.5586   20.2280 N   0  0  0  0  0  0  0  0  0  0  0  0
  -26.7983  -23.8653   28.9083 N   0  0  0  0  0  0  0  0  0  0  0  0
  -25.5103  -15.0349   20.6585 N   0  0  0  0  0  0  0  0  0  0  0  0
  -22.8584  -13.5013   22.8965 N   0  0  0  0  0  0  0  0  0  0  0  0
  -24.3114  -26.4995   29.3237 N   0  0  0  0  0  0  0  0  0  0  0  0
  -29.2087  -21.9510   29.3416 N   0  0  0  0  0  0  0  0  0  0  0  0
  -29.9286  -19.2817   27.0126 N   0  3  0  0  0  0  0  0  0  0  0  0
  -28.5380  -20.7003   18.6021 O   0  0  0  0  0  0  0  0  0  0  0  0
  -22.0045  -13.6997   20.7774 O   0  0  0  0  0  0  0  0  0  0  0  0
  -31.9523  -14.8643   20.3227 O   0  0  0  0  0  0  0  0  0  0  0  0
  -26.4981  -26.3762   28.5328 O   0  0  0  0  0  0  0  0  0  0  0  0
  -27.4870  -23.8381   31.1357 O   0  0  0  0  0  0  0  0  0  0  0  0
  -30.6413  -21.9562   27.5183 O   0  0  0  0  0  0  0  0  0  0  0  0
  -21.6760   -6.9129   21.3737 O   0  0  0  0  0  0  0  0  0  0  0  0
  -25.4414  -23.0277   22.9493 O   0  0  0  0  0  0  0  0  0  1  0  0
  -21.1040   -5.0043   26.5151 F   0  0  0  0  0  0  0  0  0  0  0  0
  -22.5998   -4.4007   22.0650 F   0  0  0  0  0  0  0  0  0  0  0  0
  1  2  1  0  0  0  0
  1  7  2  0  0  0  0
  2  8  2  0  0  0  0
  3 12  2  0  0  0  0
  3 19  1  0  0  0  0
  4 13  1  0  0  0  0
  4 19  2  0  0  0  0
  5 10  2  0  0  0  0
  5 20  1  0  0  0  0
  6 11  1  0  0  0  0
  6 20  2  0  0  0  0
  7 22  1  0  0  0  0
  8 24  1  0  0  0  0
  9 14  2  0  0  0  0
  9 23  1  0  0  0  0
 10 26  1  0  0  0  0
 11 26  2  0  0  0  0
 12 27  1  0  0  0  0
 13 27  2  0  0  0  0
 14 28  1  0  0  0  0
 15 16  2  0  0  0  0
 15 29  1  0  0  0  0
 16 30  1  0  0  0  0
 17 25  1  0  0  0  0
 17 28  2  0  0  0  0
 18 30  2  0  0  0  0
 18 31  1  0  0  0  0
 19 32  1  0  0  0  0
 20 35  1  0  0  0  0
 21 32  1  0  0  0  0
 21 33  2  0  0  0  0
 21 36  1  0  0  0  0
 22 24  2  0  0  0  0
 22 41  1  0  0  0  0
 23 25  2  0  0  0  0
 23 42  1  0  0  0  0
 24 53  1  0  0  0  0
 25 43  1  0  0  0  0
 26 69  1  0  0  0  0
 27 83  1  0  0  0  0
 28 84  1  0  0  0  0
 29 31  2  0  0  0  0
 29 83  1  0  0  0  0
 30 85  1  0  0  0  0
 31 86  1  0  0  0  0
 32 66  2  0  0  0  0
 33 68  1  0  0  0  0
 33 72  1  0  0  0  0
 34 44  1  0  0  0  0
 34 69  1  0  0  0  0
 34 77  2  0  0  0  0
 35 37  1  0  0  0  0
 35 67  2  0  0  0  0
 36 73  1  0  0  0  0
 36 78  2  0  0  0  0
 37 70  1  0  0  0  0
 37 79  2  0  0  0  0
 38 54  1  0  0  0  0
 38 74  1  0  0  0  0
 38 80  2  0  0  0  0
 39 63  1  0  0  0  0
 39 71  1  0  0  0  0
 39 81  2  0  0  0  0
 40 64  1  0  0  0  0
 40 75  1  0  0  0  0
 40 82  2  0  0  0  0
 41 45  1  0  0  0  0
 42 54  1  0  0  0  0
 43 71  1  0  0  0  0
 44 46  1  0  0  0  0
 45 48  1  0  0  0  0
 46 55  1  0  0  0  0
 47 49  1  0  0  0  0
 47 50  1  0  0  0  0
 48 53  1  0  0  0  0
 49 56  1  0  0  0  0
 50 70  1  0  0  0  0
 51 55  1  0  0  0  0
 51 69  1  0  0  0  0
 52 56  1  0  0  0  0
 52 70  1  0  0  0  0
 53 74  1  0  0  0  0
 54 71  1  0  0  0  0
 55 62  1  0  0  0  0
 56 68  1  0  0  0  0
 57 64  1  0  0  0  0
 58 65  1  0  0  0  0
 59 65  1  0  0  0  0
 60 65  1  0  0  0  0
 61 76  1  0  0  0  0
 62 84  1  0  0  0  0
 63 65  1  0  0  0  0
 63 75  1  0  0  0  0
 64 76  1  0  0  0  0
 66 68  1  0  0  0  0
M  CHG  1  76   1
M  ISO  4  35 100  37 100  62 101  84 101
M  END
> <Batch ID>
0097

> <Smiles>
CNC(C)C(=O)NC(C(=O)N1Cc2cc([101O:1][101CH2:1]C3CCC(=O)N(c4ccc([100C:0](=N)[100C:0](=O)N5CCCC(n6nc(-c7ccc(Oc8ccc(F)cc8F)cc7)c(C(N)=O)c6N)C5)cc4)C3)ccc2CC1C(=O)NC1CCCc2ccccc21)C(C)(C)C

> <Shape>
0.215

> <Color>
0.175

> <Negative vol penalty>
0.000

$$$$

  -OEChem-04052300493D

 88 97  0     1  0  0  0  0  0999 V2000
  -24.9048  -39.2287   17.6273 C   0  0  0  0  0  0  0  0  0  0  0  0
  -25.5991  -38.0291   17.5075 C   0  0  0  0  0  0  0  0  0  0  0  0
  -23.2713   -9.7611   19.9713 C   0  0  0  0  0  0  0  0  0  0  0  0
  -24.8407   -8.5716   21.3709 C   0  0  0  0  0  0  0  0  0  0  0  0
  -24.6028  -39.7348   18.8909 C   0  0  0  0  0  0  0  0  0  0  0  0
  -25.9926  -37.3354   18.6513 C   0  0  0  0  0  0  0  0  0  0  0  0
  -23.8029  -30.5738   19.8248 C   0  0  0  0  0  0  0  0  0  0  0  0
  -27.3695  -17.2193   19.2231 C   0  0  0  0  0  0  0  0  0  0  0  0
  -27.0464  -18.5533   19.4714 C   0  0  0  0  0  0  0  0  0  0  0  0
  -22.2293   -9.3822   20.8176 C   0  0  0  0  0  0  0  0  0  0  0  0
  -23.7987   -8.1927   22.2173 C   0  0  0  0  0  0  0  0  0  0  0  0
  -23.5984  -29.2073   20.0175 C   0  0  0  0  0  0  0  0  0  0  0  0
  -21.5024   -6.6112   24.5488 C   0  0  0  0  0  0  0  0  0  0  0  0
  -21.4630   -5.2835   24.9743 C   0  0  0  0  0  0  0  0  0  0  0  0
  -24.7643  -29.3204   22.1332 C   0  0  0  0  0  0  0  0  0  0  0  0
  -29.4669  -17.5108   20.3862 C   0  0  0  0  0  0  0  0  0  0  0  0
  -21.2919   -4.5525   22.6779 C   0  0  0  0  0  0  0  0  0  0  0  0
  -24.5770   -9.3558   20.2479 C   0  0  0  0  0  0  0  0  0  0  0  0
  -25.7872   -9.4494   18.0042 C   0  0  0  0  0  0  0  0  0  0  0  0
  -24.9844  -39.0421   20.0507 C   0  0  0  0  0  0  0  0  0  0  0  0
  -24.4763  -31.3226   20.7939 C   0  0  0  0  0  0  0  0  0  0  0  0
  -25.6966  -37.8334   19.9316 C   0  0  0  0  0  0  0  0  0  0  0  0
  -24.9612  -30.6919   21.9514 C   0  0  0  0  0  0  0  0  0  0  0  0
  -28.5797  -16.6980   19.6806 C   0  0  0  0  0  0  0  0  0  0  0  0
  -27.9335  -19.3660   20.1770 C   0  0  0  0  0  0  0  0  0  0  0  0
  -22.4930   -8.5980   21.9406 C   0  0  0  0  0  0  0  0  0  0  0  0
  -24.0781  -28.5822   21.1688 C   0  0  0  0  0  0  0  0  0  0  0  0
  -21.4364   -6.9097   23.1877 C   0  0  0  0  0  0  0  0  0  0  0  0
  -29.1438  -18.8448   20.6345 C   0  0  0  0  0  0  0  0  0  0  0  0
  -21.3578   -4.2541   24.0389 C   0  0  0  0  0  0  0  0  0  0  0  0
  -21.3312   -5.8803   22.2523 C   0  0  0  0  0  0  0  0  0  0  0  0
  -25.6537   -9.7464   19.3737 C   0  0  0  0  0  0  0  0  0  0  0  0
  -26.9709  -10.0419   17.6380 C   0  0  0  0  0  0  0  0  0  0  0  0
  -24.9187   -8.7044   17.1402 C   0  0  0  0  0  0  0  0  0  0  0  0
  -25.7523  -34.6845   21.8641 C   0  0  0  0  0  0  0  0  0  0  0  0
  -24.6045  -33.3295   24.3655 C   0  0  0  0  0  0  0  0  0  0  0  0
  -23.1712  -32.6175   27.3781 C   0  0  0  0  0  0  0  0  0  0  0  0
  -30.0649  -14.6675   19.8143 C   0  0  0  0  0  0  0  0  0  0  0  0
  -24.6768  -39.6525   21.3951 C   0  0  0  0  0  0  0  0  0  0  0  0
  -24.7731  -32.7848   20.5996 C   0  0  0  0  0  0  0  0  0  0  0  0
  -25.7102  -31.5305   22.9507 C   0  0  0  0  0  0  0  0  0  0  0  0
  -24.8016  -38.6672   22.5543 C   0  0  0  0  0  0  0  0  0  0  0  0
  -31.2258  -11.3245   19.4227 C   0  0  0  0  0  0  0  0  0  0  0  0
  -26.0957  -37.8679   22.4387 C   0  0  0  0  0  0  0  0  0  0  0  0
  -25.3475  -23.5814   19.6389 C   0  0  0  0  0  0  0  0  0  0  0  0
  -25.9896  -22.8287   21.9622 C   0  0  0  0  0  0  0  0  0  0  0  0
  -25.2495  -25.0236   20.1333 C   0  0  0  0  0  0  0  0  0  0  0  0
  -25.8915  -24.2708   22.4565 C   0  0  0  0  0  0  0  0  0  0  0  0
  -29.9412  -10.5142   19.2349 C   0  0  0  0  0  0  0  0  0  0  0  0
  -31.0370  -12.4632   20.4234 C   0  0  0  0  0  0  0  0  0  0  0  0
  -28.6197  -12.5445   19.9552 C   0  0  0  0  0  0  0  0  0  0  0  0
  -26.1188  -37.0392   21.1486 C   0  0  1  0  0  0  0  0  0  0  0  0
  -24.7278  -33.5892   21.9111 C   0  0  1  0  0  0  0  0  0  0  0  0
  -26.3432  -22.7634   20.4710 C   0  0  0  0  0  0  0  0  0  0  0  0
  -24.8958  -25.0887   21.6244 C   0  0  0  0  0  0  0  0  0  0  0  0
  -28.7425  -11.4261   18.9074 C   0  0  2  0  0  0  0  0  0  0  0  0
  -23.3634  -33.1433   29.8243 C   0  0  0  0  0  0  0  0  0  0  0  0
  -27.0374  -31.5005   24.5638 C   0  0  0  0  0  0  0  0  0  0  0  0
  -26.6004  -31.3034   27.0211 C   0  0  0  0  0  0  0  0  0  0  0  0
  -27.1339  -33.5275   26.0254 C   0  0  0  0  0  0  0  0  0  0  0  0
  -20.4447  -33.7654   27.4641 C   0  0  0  0  0  0  0  0  0  0  0  0
  -29.8857  -19.6562   22.7433 C   0  0  0  0  0  0  0  0  0  0  0  0
  -26.3861  -21.3144   19.9896 C   0  0  0  0  0  0  0  0  0  0  0  0
  -24.8527  -26.5378   22.1058 C   0  0  0  0  0  0  0  0  0  1  0  0
  -24.8761  -32.4800   25.5812 C   0  0  1  0  0  0  0  0  0  0  0  0
  -22.7004  -33.5161   28.5073 C   0  0  2  0  0  0  0  0  0  0  0  0
  -26.3919  -32.1958   25.7790 C   0  0  0  0  0  0  0  0  0  0  0  0
  -26.6715  -10.4713   19.8457 N   0  0  0  0  0  0  0  0  0  0  0  0
  -27.4558  -10.6346   18.7667 N   0  0  0  0  0  0  0  0  0  0  0  0
  -25.0307  -32.8228   23.1317 N   0  0  0  0  0  0  0  0  0  0  0  0
  -29.8865  -13.2873   20.0466 N   0  0  0  0  0  0  0  0  0  0  0  0
  -27.6339  -10.1086   16.4640 N   0  0  0  0  0  0  0  0  0  0  0  0
  -25.1196   -7.3225   17.0210 N   0  0  0  0  0  0  0  0  0  0  0  0
  -28.9064  -15.3421   19.4304 N   0  0  0  0  0  0  0  0  0  0  0  0
  -27.5971  -20.7000   20.4185 N   0  0  0  0  0  0  0  0  0  0  0  0
  -25.2965  -35.8571   21.2925 N   0  0  0  0  0  0  0  0  0  0  0  0
  -24.2444  -33.1624   26.7054 N   0  0  0  0  0  0  0  0  0  0  0  0
  -21.2239  -33.4050   28.6765 N   0  3  0  0  0  0  0  0  0  0  0  0
  -24.0024   -9.2507   16.4803 O   0  0  0  0  0  0  0  0  0  0  0  0
  -26.8739  -34.4825   22.3144 O   0  0  0  0  0  0  0  0  0  0  0  0
  -24.0353  -34.4159   24.5037 O   0  0  0  0  0  0  0  0  0  0  0  0
  -22.6424  -31.5382   27.1210 O   0  0  0  0  0  0  0  0  0  0  0  0
  -31.1699  -15.2059   19.9198 O   0  0  0  0  0  0  0  0  0  0  0  0
  -21.4765   -8.2283   22.7668 O   0  0  0  0  0  0  0  0  0  0  0  0
  -30.0245  -19.6231   21.3245 O   0  0  0  0  0  0  0  0  0  0  0  0
  -23.8710  -27.2488   21.3527 O   0  0  0  0  0  0  0  0  0  1  0  0
  -21.3215   -2.9791   24.4477 F   0  0  0  0  0  0  0  0  0  0  0  0
  -21.2687   -6.1607   20.9434 F   0  0  0  0  0  0  0  0  0  0  0  0
  1  2  1  0  0  0  0
  1  5  2  0  0  0  0
  2  6  2  0  0  0  0
  3 10  2  0  0  0  0
  3 18  1  0  0  0  0
  4 11  1  0  0  0  0
  4 18  2  0  0  0  0
  5 20  1  0  0  0  0
  6 22  1  0  0  0  0
  7 12  2  0  0  0  0
  7 21  1  0  0  0  0
  8  9  2  0  0  0  0
  8 24  1  0  0  0  0
  9 25  1  0  0  0  0
 10 26  1  0  0  0  0
 11 26  2  0  0  0  0
 12 27  1  0  0  0  0
 13 14  2  0  0  0  0
 13 28  1  0  0  0  0
 14 30  1  0  0  0  0
 15 23  1  0  0  0  0
 15 27  2  0  0  0  0
 16 24  2  0  0  0  0
 16 29  1  0  0  0  0
 17 30  2  0  0  0  0
 17 31  1  0  0  0  0
 18 32  1  0  0  0  0
 19 32  1  0  0  0  0
 19 33  2  0  0  0  0
 19 34  1  0  0  0  0
 20 22  2  0  0  0  0
 20 39  1  0  0  0  0
 21 23  2  0  0  0  0
 21 40  1  0  0  0  0
 22 52  1  0  0  0  0
 23 41  1  0  0  0  0
 24 74  1  0  0  0  0
 25 29  2  0  0  0  0
 25 75  1  0  0  0  0
 26 84  1  0  0  0  0
 27 86  1  0  0  0  0
 28 31  2  0  0  0  0
 28 84  1  0  0  0  0
 29 85  1  0  0  0  0
 30 87  1  0  0  0  0
 31 88  1  0  0  0  0
 32 68  2  0  0  0  0
 33 69  1  0  0  0  0
 33 72  1  0  0  0  0
 34 73  1  0  0  0  0
 34 79  2  0  0  0  0
 35 53  1  0  0  0  0
 35 76  1  0  0  0  0
 35 80  2  0  0  0  0
 36 65  1  0  0  0  0
 36 70  1  0  0  0  0
 36 81  2  0  0  0  0
 37 66  1  0  0  0  0
 37 77  1  0  0  0  0
 37 82  2  0  0  0  0
 38 71  1  0  0  0  0
 38 74  1  0  0  0  0
 38 83  2  0  0  0  0
 39 42  1  0  0  0  0
 40 53  1  0  0  0  0
 41 70  1  0  0  0  0
 42 44  1  0  0  0  0
 43 49  1  0  0  0  0
 43 50  1  0  0  0  0
 44 52  1  0  0  0  0
 45 47  1  0  0  0  0
 45 54  1  0  0  0  0
 46 48  1  0  0  0  0
 46 54  1  0  0  0  0
 47 55  1  0  0  0  0
 48 55  1  0  0  0  0
 49 56  1  0  0  0  0
 50 71  1  0  0  0  0
 51 56  1  0  0  0  0
 51 71  1  0  0  0  0
 52 76  1  0  0  0  0
 53 70  1  0  0  0  0
 54 63  1  0  0  0  0
 55 64  1  0  0  0  0
 56 69  1  0  0  0  0
 57 66  1  0  0  0  0
 58 67  1  0  0  0  0
 59 67  1  0  0  0  0
 60 67  1  0  0  0  0
 61 78  1  0  0  0  0
 62 85  1  0  0  0  0
 63 75  1  0  0  0  0
 64 86  1  0  0  0  0
 65 67  1  0  0  0  0
 65 77  1  0  0  0  0
 66 78  1  0  0  0  0
 68 69  1  0  0  0  0
M  CHG  1  78   1
M  ISO  4  38 100  64 101  74 100  86 101
M  END
> <Batch ID>
0097

> <Smiles>
CNC(C)C(=O)NC(C(=O)N1Cc2cc([101O:1][101CH2:1]C3CCC(CNc4ccc([100NH:0][100C:0](=O)N5CCCC(n6nc(-c7ccc(Oc8ccc(F)cc8F)cc7)c(C(N)=O)c6N)C5)cc4OC)CC3)ccc2CC1C(=O)NC1CCCc2ccccc21)C(C)(C)C

> <Shape>
0.257

> <Color>
0.087

> <Negative vol penalty>
0.000

$$$$
