
  -OEChem-04052300513D

 87 96  0     1  0  0  0  0  0999 V2000
  -18.3748  -28.1866   18.7636 C   0  0  0  0  0  0  0  0  0  0  0  0
  -19.7561  -28.0589   18.6578 C   0  0  0  0  0  0  0  0  0  0  0  0
  -24.8514   -8.7631   21.9274 C   0  0  0  0  0  0  0  0  0  0  0  0
  -23.2298  -10.3532   21.1032 C   0  0  0  0  0  0  0  0  0  0  0  0
  -17.8251  -29.0056   19.7489 C   0  0  0  0  0  0  0  0  0  0  0  0
  -20.5885  -28.7512   19.5366 C   0  0  0  0  0  0  0  0  0  0  0  0
  -24.3374  -25.8647   21.3419 C   0  0  0  0  0  0  0  0  0  0  0  0
  -30.8462  -20.8032   18.4453 C   0  0  0  0  0  0  0  0  0  0  0  0
  -28.8920  -21.2133   19.8054 C   0  0  0  0  0  0  0  0  0  0  0  0
  -30.3969  -19.5076   18.1902 C   0  0  0  0  0  0  0  0  0  0  0  0
  -28.4426  -19.9176   19.5502 C   0  0  0  0  0  0  0  0  0  0  0  0
  -23.8949   -7.7505   21.8558 C   0  0  0  0  0  0  0  0  0  0  0  0
  -22.2732   -9.3405   21.0316 C   0  0  0  0  0  0  0  0  0  0  0  0
  -25.4263  -25.6364   20.5017 C   0  0  0  0  0  0  0  0  0  0  0  0
  -21.2565   -6.6835   23.6792 C   0  0  0  0  0  0  0  0  0  0  0  0
  -21.1524   -5.8135   24.7645 C   0  0  0  0  0  0  0  0  0  0  0  0
  -26.6748  -27.3402   21.6668 C   0  0  0  0  0  0  0  0  0  0  0  0
  -21.6723   -3.9485   23.3193 C   0  0  0  0  0  0  0  0  0  0  0  0
  -24.5189  -10.0645   21.5511 C   0  0  0  0  0  0  0  0  0  0  0  0
  -26.1918  -11.5533   22.7728 C   0  0  0  0  0  0  0  0  0  0  0  0
  -18.6510  -29.7007   20.6464 C   0  0  0  0  0  0  0  0  0  0  0  0
  -24.4053  -26.8417   22.3455 C   0  0  0  0  0  0  0  0  0  0  0  0
  -20.0493  -29.5814   20.5340 C   0  0  0  0  0  0  0  0  0  0  0  0
  -25.5863  -27.5772   22.5201 C   0  0  0  0  0  0  0  0  0  0  0  0
  -30.0938  -21.6560   19.2529 C   0  0  0  0  0  0  0  0  0  0  0  0
  -29.1950  -19.0648   18.7426 C   0  0  0  0  0  0  0  0  0  0  0  0
  -22.6058   -8.0392   21.4079 C   0  0  0  0  0  0  0  0  0  0  0  0
  -26.5942  -26.3762   20.6622 C   0  0  0  0  0  0  0  0  0  0  0  0
  -21.5684   -6.1861   22.4139 C   0  0  0  0  0  0  0  0  0  0  0  0
  -21.3603   -4.4460   24.5845 C   0  0  0  0  0  0  0  0  0  0  0  0
  -21.7764   -4.8186   22.2340 C   0  0  0  0  0  0  0  0  0  0  0  0
  -25.5064  -11.1112   21.6254 C   0  0  0  0  0  0  0  0  0  0  0  0
  -27.0120  -12.5565   22.3174 C   0  0  0  0  0  0  0  0  0  0  0  0
  -31.9350  -23.2911   19.5477 C   0  0  0  0  0  0  0  0  0  0  0  0
  -26.0958  -11.0978   24.1289 C   0  0  0  0  0  0  0  0  0  0  0  0
  -22.8264  -29.5287   22.9708 C   0  0  0  0  0  0  0  0  0  0  0  0
  -24.5966  -29.4771   25.6885 C   0  0  0  0  0  0  0  0  0  0  0  0
  -28.0072  -28.7275   26.5959 C   0  0  0  0  0  0  0  0  0  0  0  0
  -27.9450  -17.0228   19.4198 C   0  0  0  0  0  0  0  0  0  0  0  0
  -18.0118  -30.6113   21.6648 C   0  0  0  0  0  0  0  0  0  0  0  0
  -23.2313  -27.0573   23.2608 C   0  0  0  0  0  0  0  0  0  0  0  0
  -25.7172  -28.6235   23.5955 C   0  0  0  0  0  0  0  0  0  0  0  0
  -32.3145  -24.7596   19.5193 C   0  0  0  0  0  0  0  0  0  0  0  0
  -18.9539  -31.0169   22.7954 C   0  0  0  0  0  0  0  0  0  0  0  0
  -31.3576  -25.6663   20.2618 C   0  0  0  0  0  0  0  0  0  0  0  0
  -28.2049  -13.9686   17.6177 C   0  0  0  0  0  0  0  0  0  0  0  0
  -20.3055  -31.4485   22.2351 C   0  0  0  0  0  0  0  0  0  0  0  0
  -27.5675  -12.9834   18.5968 C   0  0  0  0  0  0  0  0  0  0  0  0
  -27.4708  -15.3097   17.5958 C   0  0  0  0  0  0  0  0  0  0  0  0
  -29.5587  -23.9883   19.9593 C   0  0  0  0  0  0  0  0  0  0  0  0
  -26.6760  -14.9454   19.9109 C   0  0  0  0  0  0  0  0  0  0  0  0
  -20.9847  -30.2967   21.4845 C   0  0  1  0  0  0  0  0  0  0  0  0
  -23.2307  -28.4343   23.9176 C   0  0  1  0  0  0  0  0  0  0  0  0
  -29.9538  -25.4452   19.7230 C   0  0  1  0  0  0  0  0  0  0  0  0
  -27.4278  -13.6079   19.9963 C   0  0  1  0  0  0  0  0  0  0  0  0
  -27.7947  -17.7051   16.1945 C   0  0  0  0  0  0  0  0  0  0  0  0
  -28.9767  -27.9049   28.7594 C   0  0  0  0  0  0  0  0  0  0  0  0
  -25.0647  -32.4359   26.2688 C   0  0  0  0  0  0  0  0  0  0  0  0
  -27.2459  -31.8115   27.3275 C   0  0  0  0  0  0  0  0  0  0  0  0
  -25.1068  -30.9578   28.2857 C   0  0  0  0  0  0  0  0  0  0  0  0
  -29.2858  -26.4080   25.2752 C   0  0  0  0  0  0  0  0  0  0  0  0
  -28.9564  -26.3925   20.3866 C   0  0  0  0  0  0  0  0  0  1  0  0
  -28.8755  -17.1866   17.1215 C   0  0  0  0  0  0  0  0  0  0  0  0
  -25.9470  -30.0156   26.0952 C   0  0  1  0  0  0  0  0  0  0  0  0
  -28.4965  -27.5166   27.3697 C   0  0  2  0  0  0  0  0  0  0  0  0
  -25.8355  -31.2979   26.9674 C   0  0  0  0  0  0  0  0  0  0  0  0
  -25.8602  -11.7789   20.5240 N   0  0  0  0  0  0  0  0  0  0  0  0
  -26.7769  -12.6509   20.9773 N   0  0  0  0  0  0  0  0  0  0  0  0
  -30.5601  -23.0004   19.5181 N   0  0  0  0  0  0  0  0  0  0  0  0
  -24.5398  -28.8018   24.4611 N   0  0  0  0  0  0  0  0  0  0  0  0
  -27.3258  -15.8467   18.9562 N   0  0  0  0  0  0  0  0  0  0  0  0
  -27.9042  -13.3584   22.9367 N   0  0  0  0  0  0  0  0  0  0  0  0
  -25.1611  -11.7102   24.9747 N   0  0  0  0  0  0  0  0  0  0  0  0
  -21.5707  -29.3601   22.4193 N   0  0  0  0  0  0  0  0  0  0  0  0
  -26.6486  -28.9121   26.7421 N   0  0  0  0  0  0  0  0  0  0  0  0
  -28.7295  -17.7236   18.4787 N   0  0  0  0  0  0  0  0  0  0  0  0
  -29.6246  -26.8622   26.6484 N   0  3  0  0  0  0  0  0  0  0  0  0
  -32.8443  -22.4570   19.5348 O   0  0  0  0  0  0  0  0  0  0  0  0
  -26.8290  -10.1863   24.5817 O   0  0  0  0  0  0  0  0  0  0  0  0
  -23.5962  -30.4581   22.7576 O   0  0  0  0  0  0  0  0  0  0  0  0
  -23.6293  -29.6431   26.4358 O   0  0  0  0  0  0  0  0  0  0  0  0
  -28.7559  -29.4405   25.9315 O   0  0  0  0  0  0  0  0  0  0  0  0
  -27.7880  -17.4297   20.5773 O   0  0  0  0  0  0  0  0  0  0  0  0
  -21.6722   -7.0512   21.3376 O   0  0  0  0  0  0  0  0  0  0  0  0
  -27.6583  -26.1558   19.8431 O   0  0  0  0  0  0  0  0  0  1  0  0
  -21.2618   -3.6108   25.6271 F   0  0  0  0  0  0  0  0  0  0  0  0
  -22.0775   -4.3349   21.0210 F   0  0  0  0  0  0  0  0  0  0  0  0
  1  2  1  0  0  0  0
  1  5  2  0  0  0  0
  2  6  2  0  0  0  0
  3 12  2  0  0  0  0
  3 19  1  0  0  0  0
  4 13  1  0  0  0  0
  4 19  2  0  0  0  0
  5 21  1  0  0  0  0
  6 23  1  0  0  0  0
  7 14  2  0  0  0  0
  7 22  1  0  0  0  0
  8 10  2  0  0  0  0
  8 25  1  0  0  0  0
  9 11  1  0  0  0  0
  9 25  2  0  0  0  0
 10 26  1  0  0  0  0
 11 26  2  0  0  0  0
 12 27  1  0  0  0  0
 13 27  2  0  0  0  0
 14 28  1  0  0  0  0
 15 16  2  0  0  0  0
 15 29  1  0  0  0  0
 16 30  1  0  0  0  0
 17 24  1  0  0  0  0
 17 28  2  0  0  0  0
 18 30  2  0  0  0  0
 18 31  1  0  0  0  0
 19 32  1  0  0  0  0
 20 32  1  0  0  0  0
 20 33  2  0  0  0  0
 20 35  1  0  0  0  0
 21 23  2  0  0  0  0
 21 40  1  0  0  0  0
 22 24  2  0  0  0  0
 22 41  1  0  0  0  0
 23 52  1  0  0  0  0
 24 42  1  0  0  0  0
 25 69  1  0  0  0  0
 26 76  1  0  0  0  0
 27 84  1  0  0  0  0
 28 85  1  0  0  0  0
 29 31  2  0  0  0  0
 29 84  1  0  0  0  0
 30 86  1  0  0  0  0
 31 87  1  0  0  0  0
 32 67  2  0  0  0  0
 33 68  1  0  0  0  0
 33 72  1  0  0  0  0
 34 43  1  0  0  0  0
 34 69  1  0  0  0  0
 34 78  2  0  0  0  0
 35 73  1  0  0  0  0
 35 79  2  0  0  0  0
 36 53  1  0  0  0  0
 36 74  1  0  0  0  0
 36 80  2  0  0  0  0
 37 64  1  0  0  0  0
 37 70  1  0  0  0  0
 37 81  2  0  0  0  0
 38 65  1  0  0  0  0
 38 75  1  0  0  0  0
 38 82  2  0  0  0  0
 39 71  1  0  0  0  0
 39 76  1  0  0  0  0
 39 83  2  0  0  0  0
 40 44  1  0  0  0  0
 41 53  1  0  0  0  0
 42 70  1  0  0  0  0
 43 45  1  0  0  0  0
 44 47  1  0  0  0  0
 45 54  1  0  0  0  0
 46 48  1  0  0  0  0
 46 49  1  0  0  0  0
 47 52  1  0  0  0  0
 48 55  1  0  0  0  0
 49 71  1  0  0  0  0
 50 54  1  0  0  0  0
 50 69  1  0  0  0  0
 51 55  1  0  0  0  0
 51 71  1  0  0  0  0
 52 74  1  0  0  0  0
 53 70  1  0  0  0  0
 54 62  1  0  0  0  0
 55 68  1  0  0  0  0
 56 63  1  0  0  0  0
 57 65  1  0  0  0  0
 58 66  1  0  0  0  0
 59 66  1  0  0  0  0
 60 66  1  0  0  0  0
 61 77  1  0  0  0  0
 62 85  1  0  0  0  0
 63 76  1  0  0  0  0
 64 66  1  0  0  0  0
 64 75  1  0  0  0  0
 65 77  1  0  0  0  0
 67 68  1  0  0  0  0
M  CHG  1  77   1
M  ISO  4  39 100  62 101  76 100  85 101
M  END
> <Batch ID>
0098

> <Smiles>
CC[100N:0](c1ccc(N2CC([101CH2:1][101O:1]c3ccc4c(c3)CN(C(=O)C(NC(=O)C(C)NC)C(C)(C)C)C(C(=O)NC3CCCc5ccccc53)C4)CCC2=O)cc1)[100C:0](=O)N1CCCC(n2nc(-c3ccc(Oc4ccc(F)cc4F)cc3)c(C(N)=O)c2N)C1

> <Shape>
0.265

> <Color>
0.105

> <Negative vol penalty>
0.000

$$$$

  -OEChem-04052300513D

 84 92  0     1  0  0  0  0  0999 V2000
  -25.6320  -18.0066   19.6912 C   0  0  0  0  0  0  0  0  0  0  0  0
  -24.6705  -18.9838   19.9279 C   0  0  0  0  0  0  0  0  0  0  0  0
  -28.3555  -13.1420   19.0520 C   0  0  0  0  0  0  0  0  0  0  0  0
  -28.5169  -13.6069   21.4173 C   0  0  0  0  0  0  0  0  0  0  0  0
  -26.9632  -18.2431   20.0318 C   0  0  0  0  0  0  0  0  0  0  0  0
  -25.0395  -20.1977   20.5064 C   0  0  0  0  0  0  0  0  0  0  0  0
  -22.9401  -24.1760   18.1803 C   0  0  0  0  0  0  0  0  0  0  0  0
  -29.7076  -13.4485   18.8994 C   0  0  0  0  0  0  0  0  0  0  0  0
  -29.8691  -13.9134   21.2647 C   0  0  0  0  0  0  0  0  0  0  0  0
  -21.6047  -24.4516   18.4709 C   0  0  0  0  0  0  0  0  0  0  0  0
  -33.2767  -15.1659   21.4372 C   0  0  0  0  0  0  0  0  0  0  0  0
  -33.7577  -16.3106   22.0728 C   0  0  0  0  0  0  0  0  0  0  0  0
  -22.3011  -26.1824   20.0003 C   0  0  0  0  0  0  0  0  0  0  0  0
  -18.2858  -21.4210   21.7013 C   0  0  0  0  0  0  0  0  0  0  0  0
  -20.0418  -21.7450   23.3288 C   0  0  0  0  0  0  0  0  0  0  0  0
  -32.2074  -17.6645   20.8077 C   0  0  0  0  0  0  0  0  0  0  0  0
  -27.7601  -13.2213   20.3109 C   0  0  0  0  0  0  0  0  0  0  0  0
  -25.8037  -11.6456   20.7551 C   0  0  0  0  0  0  0  0  0  0  0  0
  -27.3503  -19.4642   20.6059 C   0  0  0  0  0  0  0  0  0  0  0  0
  -23.9680  -24.8953   18.8068 C   0  0  0  0  0  0  0  0  0  0  0  0
  -26.3769  -20.4502   20.8562 C   0  0  0  0  0  0  0  0  0  0  0  0
  -23.6486  -25.9156   19.7140 C   0  0  0  0  0  0  0  0  0  0  0  0
  -18.3825  -20.0400   21.8720 C   0  0  0  0  0  0  0  0  0  0  0  0
  -19.3087  -19.5115   22.7711 C   0  0  0  0  0  0  0  0  0  0  0  0
  -19.1155  -22.2735   22.4297 C   0  0  0  0  0  0  0  0  0  0  0  0
  -30.4645  -13.8342   20.0057 C   0  0  0  0  0  0  0  0  0  0  0  0
  -21.2850  -25.4530   19.3832 C   0  0  0  0  0  0  0  0  0  0  0  0
  -32.2610  -15.2706   20.4868 C   0  0  0  0  0  0  0  0  0  0  0  0
  -33.2231  -17.5599   21.7580 C   0  0  0  0  0  0  0  0  0  0  0  0
  -20.1384  -20.3640   23.4995 C   0  0  0  0  0  0  0  0  0  0  0  0
  -31.7264  -16.5199   20.1721 C   0  0  0  0  0  0  0  0  0  0  0  0
  -26.3632  -12.9053   20.4691 C   0  0  0  0  0  0  0  0  0  0  0  0
  -24.4502  -11.8741   20.8035 C   0  0  0  0  0  0  0  0  0  0  0  0
  -26.4496  -10.3819   20.9590 C   0  0  0  0  0  0  0  0  0  0  0  0
  -26.3743  -24.1435   20.7428 C   0  0  0  0  0  0  0  0  0  0  0  0
  -27.1807  -27.2557   20.3116 C   0  0  0  0  0  0  0  0  0  0  0  0
  -26.1877  -30.4225   19.5162 C   0  0  0  0  0  0  0  0  0  0  0  0
  -21.3219  -16.7246   22.0451 C   0  0  0  0  0  0  0  0  0  0  0  0
  -28.7933  -19.6557   21.0006 C   0  0  0  0  0  0  0  0  0  0  0  0
  -25.4029  -24.6038   18.4623 C   0  0  0  0  0  0  0  0  0  0  0  0
  -24.7145  -26.7305   20.3983 C   0  0  0  0  0  0  0  0  0  0  0  0
  -29.1641  -21.1127   21.2653 C   0  0  0  0  0  0  0  0  0  0  0  0
  -21.0729  -14.7572   19.0177 C   0  0  0  0  0  0  0  0  0  0  0  0
  -28.1128  -21.7795   22.1467 C   0  0  0  0  0  0  0  0  0  0  0  0
  -22.3618  -13.9357   19.0820 C   0  0  0  0  0  0  0  0  0  0  0  0
  -21.2944  -16.1747   19.5372 C   0  0  0  0  0  0  0  0  0  0  0  0
  -23.1447  -15.4247   20.9820 C   0  0  0  0  0  0  0  0  0  0  0  0
  -26.7422  -21.7893   21.4593 C   0  0  1  0  0  0  0  0  0  0  0  0
  -26.3800  -25.0510   19.5452 C   0  0  1  0  0  0  0  0  0  0  0  0
  -22.9813  -13.9746   20.4916 C   0  0  2  0  0  0  0  0  0  0  0  0
  -17.4840  -19.1472   21.0807 C   0  0  0  0  0  0  0  0  0  0  0  0
  -27.0645  -32.7625   19.2859 C   0  0  0  0  0  0  0  0  0  0  0  0
  -27.2271  -27.5347   23.3497 C   0  0  0  0  0  0  0  0  0  0  0  0
  -27.1588  -30.0197   23.0529 C   0  0  0  0  0  0  0  0  0  0  0  0
  -29.0888  -28.7120   22.1655 C   0  0  0  0  0  0  0  0  0  0  0  0
  -25.4688  -30.5336   16.6474 C   0  0  0  0  0  0  0  0  0  0  0  0
  -19.4280  -18.0357   22.9677 C   0  0  0  0  0  0  0  0  0  0  0  0
  -18.2803  -25.7912   21.3595 C   0  0  0  0  0  0  0  0  0  0  0  0
  -18.0918  -24.2790   21.3549 C   0  0  0  0  0  0  0  0  0  0  0  0
  -19.6933  -26.2158   20.9770 C   0  0  0  0  0  0  0  0  0  1  0  0
  -26.8468  -28.5530   21.0078 C   0  0  1  0  0  0  0  0  0  0  0  0
  -26.7734  -31.4536   18.5684 C   0  0  2  0  0  0  0  0  0  0  0  0
  -27.5601  -28.6883   22.3827 C   0  0  0  0  0  0  0  0  0  0  0  0
  -25.4406  -13.8630   20.3444 N   0  0  0  0  0  0  0  0  0  0  0  0
  -24.2876  -13.2048   20.5529 N   0  0  0  0  0  0  0  0  0  0  0  0
  -26.1027  -26.4035   20.0331 N   0  0  0  0  0  0  0  0  0  0  0  0
  -21.8682  -16.1413   20.8898 N   0  0  0  0  0  0  0  0  0  0  0  0
  -23.3951  -11.0644   21.0354 N   0  0  0  0  0  0  0  0  0  0  0  0
  -27.8474  -10.3246   20.8740 N   0  0  0  0  0  0  0  0  0  0  0  0
  -19.0196  -23.6460   22.2608 N   0  0  0  0  0  0  0  0  0  0  0  0
  -26.6883  -22.8291   20.4541 N   0  0  0  0  0  0  0  0  0  0  0  0
  -27.1649  -29.6174   20.0622 N   0  0  0  0  0  0  0  0  0  0  0  0
  -20.1149  -17.3906   21.8709 N   0  0  0  0  0  0  0  0  0  0  0  0
  -25.8245  -31.7300   17.4531 N   0  3  0  0  0  0  0  0  0  0  0  0
  -25.8052   -9.3314   21.1928 O   0  0  0  0  0  0  0  0  0  0  0  0
  -26.1064  -24.6021   21.8471 O   0  0  0  0  0  0  0  0  0  0  0  0
  -28.3538  -27.0109   20.0191 O   0  0  0  0  0  0  0  0  0  0  0  0
  -24.9842  -30.3419   19.7516 O   0  0  0  0  0  0  0  0  0  0  0  0
  -21.8669  -16.6526   23.1518 O   0  0  0  0  0  0  0  0  0  0  0  0
  -31.7840  -14.1331   19.8573 O   0  0  0  0  0  0  0  0  0  0  0  0
  -19.9824  -25.7237   19.6692 O   0  0  0  0  0  0  0  0  0  1  0  0
  -33.6841  -18.6588   22.3696 F   0  0  0  0  0  0  0  0  0  0  0  0
  -21.0320  -19.8662   24.3659 F   0  0  0  0  0  0  0  0  0  0  0  0
  -30.7497  -16.6265   19.2607 F   0  0  0  0  0  0  0  0  0  0  0  0
  1  2  1  0  0  0  0
  1  5  2  0  0  0  0
  2  6  2  0  0  0  0
  3  8  2  0  0  0  0
  3 17  1  0  0  0  0
  4  9  1  0  0  0  0
  4 17  2  0  0  0  0
  5 19  1  0  0  0  0
  6 21  1  0  0  0  0
  7 10  2  0  0  0  0
  7 20  1  0  0  0  0
  8 26  1  0  0  0  0
  9 26  2  0  0  0  0
 10 27  1  0  0  0  0
 11 12  2  0  0  0  0
 11 28  1  0  0  0  0
 12 29  1  0  0  0  0
 13 22  1  0  0  0  0
 13 27  2  0  0  0  0
 14 23  2  0  0  0  0
 14 25  1  0  0  0  0
 15 25  2  0  0  0  0
 15 30  1  0  0  0  0
 16 29  2  0  0  0  0
 16 31  1  0  0  0  0
 17 32  1  0  0  0  0
 18 32  1  0  0  0  0
 18 33  2  0  0  0  0
 18 34  1  0  0  0  0
 19 21  2  0  0  0  0
 19 39  1  0  0  0  0
 20 22  2  0  0  0  0
 20 40  1  0  0  0  0
 21 48  1  0  0  0  0
 22 41  1  0  0  0  0
 23 24  1  0  0  0  0
 23 51  1  0  0  0  0
 24 30  2  0  0  0  0
 24 57  1  0  0  0  0
 25 70  1  0  0  0  0
 26 80  1  0  0  0  0
 27 81  1  0  0  0  0
 28 31  2  0  0  0  0
 28 80  1  0  0  0  0
 29 82  1  0  0  0  0
 30 83  1  0  0  0  0
 31 84  1  0  0  0  0
 32 64  2  0  0  0  0
 33 65  1  0  0  0  0
 33 68  1  0  0  0  0
 34 69  1  0  0  0  0
 34 75  2  0  0  0  0
 35 49  1  0  0  0  0
 35 71  1  0  0  0  0
 35 76  2  0  0  0  0
 36 61  1  0  0  0  0
 36 66  1  0  0  0  0
 36 77  2  0  0  0  0
 37 62  1  0  0  0  0
 37 72  1  0  0  0  0
 37 78  2  0  0  0  0
 38 67  1  0  0  0  0
 38 73  1  0  0  0  0
 38 79  2  0  0  0  0
 39 42  1  0  0  0  0
 40 49  1  0  0  0  0
 41 66  1  0  0  0  0
 42 44  1  0  0  0  0
 43 45  1  0  0  0  0
 43 46  1  0  0  0  0
 44 48  1  0  0  0  0
 45 50  1  0  0  0  0
 46 67  1  0  0  0  0
 47 50  1  0  0  0  0
 47 67  1  0  0  0  0
 48 71  1  0  0  0  0
 49 66  1  0  0  0  0
 50 65  1  0  0  0  0
 52 62  1  0  0  0  0
 53 63  1  0  0  0  0
 54 63  1  0  0  0  0
 55 63  1  0  0  0  0
 56 74  1  0  0  0  0
 57 73  1  0  0  0  0
 58 59  1  0  0  0  0
 58 60  1  0  0  0  0
 59 70  1  0  0  0  0
 60 81  1  0  0  0  0
 61 63  1  0  0  0  0
 61 72  1  0  0  0  0
 62 74  1  0  0  0  0
 64 65  1  0  0  0  0
M  CHG  1  74   1
M  ISO  4  38 100  60 101  73 100  81 101
M  END
> <Batch ID>
0098

> <Smiles>
CNC(C)C(=O)NC(C(=O)N1Cc2cc([101O:1][101CH2:1]CCNc3cc(C)c(C[100NH:0][100C:0](=O)N4CCCC(n5nc(-c6ccc(Oc7ccc(F)cc7F)cc6)c(C(N)=O)c5N)C4)c(F)c3)ccc2CC1C(=O)NC1CCCc2ccccc21)C(C)(C)C

> <Shape>
0.184

> <Color>
0.062

> <Negative vol penalty>
0.000

$$$$

  -OEChem-04052300513D

 86 95  0     1  0  0  0  0  0999 V2000
  -15.8045  -27.2289   24.1265 C   0  0  0  0  0  0  0  0  0  0  0  0
  -16.8685  -26.7548   23.3658 C   0  0  0  0  0  0  0  0  0  0  0  0
  -24.5827   -8.8022   21.3180 C   0  0  0  0  0  0  0  0  0  0  0  0
  -22.7249  -10.1908   20.6419 C   0  0  0  0  0  0  0  0  0  0  0  0
  -15.6784  -28.5957   24.3711 C   0  0  0  0  0  0  0  0  0  0  0  0
  -17.8065  -27.6474   22.8484 C   0  0  0  0  0  0  0  0  0  0  0  0
  -22.5680  -26.0393   23.4702 C   0  0  0  0  0  0  0  0  0  0  0  0
  -27.5426  -19.0764   21.6964 C   0  0  0  0  0  0  0  0  0  0  0  0
  -26.6353  -20.7360   23.1997 C   0  0  0  0  0  0  0  0  0  0  0  0
  -27.4202  -18.1074   22.6922 C   0  0  0  0  0  0  0  0  0  0  0  0
  -26.5128  -19.7669   24.1955 C   0  0  0  0  0  0  0  0  0  0  0  0
  -23.7159   -7.7216   21.4809 C   0  0  0  0  0  0  0  0  0  0  0  0
  -21.8580   -9.1102   20.8047 C   0  0  0  0  0  0  0  0  0  0  0  0
  -23.0284  -25.0582   22.5930 C   0  0  0  0  0  0  0  0  0  0  0  0
  -21.4892   -6.6400   23.7823 C   0  0  0  0  0  0  0  0  0  0  0  0
  -21.6273   -5.8674   24.9354 C   0  0  0  0  0  0  0  0  0  0  0  0
  -24.1610  -26.7524   21.3023 C   0  0  0  0  0  0  0  0  0  0  0  0
  -22.0752   -3.9202   23.5771 C   0  0  0  0  0  0  0  0  0  0  0  0
  -24.0872  -10.0368   20.8986 C   0  0  0  0  0  0  0  0  0  0  0  0
  -26.0875  -11.2342   19.8628 C   0  0  0  0  0  0  0  0  0  0  0  0
  -16.6207  -29.5046   23.8645 C   0  0  0  0  0  0  0  0  0  0  0  0
  -22.8922  -27.3878   23.2634 C   0  0  0  0  0  0  0  0  0  0  0  0
  -17.6921  -29.0278   23.0853 C   0  0  0  0  0  0  0  0  0  0  0  0
  -23.7056  -27.7483   22.1797 C   0  0  0  0  0  0  0  0  0  0  0  0
  -27.1502  -20.3907   21.9502 C   0  0  0  0  0  0  0  0  0  0  0  0
  -26.9052  -18.4526   23.9417 C   0  0  0  0  0  0  0  0  0  0  0  0
  -22.3535   -7.8756   21.2242 C   0  0  0  0  0  0  0  0  0  0  0  0
  -23.8226  -25.4151   21.5072 C   0  0  0  0  0  0  0  0  0  0  0  0
  -21.6440   -6.0527   22.5266 C   0  0  0  0  0  0  0  0  0  0  0  0
  -21.9203   -4.5076   24.8328 C   0  0  0  0  0  0  0  0  0  0  0  0
  -21.9370   -4.6929   22.4240 C   0  0  0  0  0  0  0  0  0  0  0  0
  -24.9821  -11.1536   20.7307 C   0  0  0  0  0  0  0  0  0  0  0  0
  -26.6021  -12.4893   20.0778 C   0  0  0  0  0  0  0  0  0  0  0  0
  -28.2911  -21.3061   19.9475 C   0  0  0  0  0  0  0  0  0  0  0  0
  -26.6030  -10.2614   18.9443 C   0  0  0  0  0  0  0  0  0  0  0  0
  -21.2257  -30.0328   22.6888 C   0  0  0  0  0  0  0  0  0  0  0  0
  -24.1216  -31.4596   23.0053 C   0  0  0  0  0  0  0  0  0  0  0  0
  -27.5138  -30.7901   21.9747 C   0  0  0  0  0  0  0  0  0  0  0  0
  -26.5498  -16.0944   24.6514 C   0  0  0  0  0  0  0  0  0  0  0  0
  -16.4164  -30.9777   24.1156 C   0  0  0  0  0  0  0  0  0  0  0  0
  -22.4098  -28.4308   24.2339 C   0  0  0  0  0  0  0  0  0  0  0  0
  -24.0989  -29.1797   21.9250 C   0  0  0  0  0  0  0  0  0  0  0  0
  -28.1538  -22.2162   18.7415 C   0  0  0  0  0  0  0  0  0  0  0  0
  -17.6606  -31.8199   23.8456 C   0  0  0  0  0  0  0  0  0  0  0  0
  -27.5495  -23.5693   19.0460 C   0  0  0  0  0  0  0  0  0  0  0  0
  -25.3191  -16.8928   21.4125 C   0  0  0  0  0  0  0  0  0  0  0  0
  -18.2921  -31.4277   22.5137 C   0  0  0  0  0  0  0  0  0  0  0  0
  -25.1904  -15.5047   20.7861 C   0  0  0  0  0  0  0  0  0  0  0  0
  -24.9020  -16.8980   22.8835 C   0  0  0  0  0  0  0  0  0  0  0  0
  -26.4498  -22.6094   21.0492 C   0  0  0  0  0  0  0  0  0  0  0  0
  -25.4723  -14.4982   23.0836 C   0  0  0  0  0  0  0  0  0  0  0  0
  -18.7437  -29.9623   22.5275 C   0  0  1  0  0  0  0  0  0  0  0  0
  -22.3755  -29.8336   23.6353 C   0  0  1  0  0  0  0  0  0  0  0  0
  -26.2141  -23.3653   19.7424 C   0  0  1  0  0  0  0  0  0  0  0  0
  -25.9395  -14.4507   21.6205 C   0  0  1  0  0  0  0  0  0  0  0  0
  -29.6971  -31.4851   22.9979 C   0  0  0  0  0  0  0  0  0  0  0  0
  -23.9614  -33.7976   21.0513 C   0  0  0  0  0  0  0  0  0  0  0  0
  -26.4345  -33.5973   20.7172 C   0  0  0  0  0  0  0  0  0  0  0  0
  -25.5231  -34.1491   22.9727 C   0  0  0  0  0  0  0  0  0  0  0  0
  -27.1312  -17.8130   26.3496 C   0  0  0  0  0  0  0  0  0  0  0  0
  -28.4579  -27.9903   22.1454 C   0  0  0  0  0  0  0  0  0  0  0  0
  -25.5232  -24.7017   20.0055 C   0  0  0  0  0  0  0  0  0  1  0  0
  -25.2518  -31.8047   22.0659 C   0  0  1  0  0  0  0  0  0  0  0  0
  -28.6689  -30.3724   22.8666 C   0  0  2  0  0  0  0  0  0  0  0  0
  -25.2756  -33.3149   21.6969 C   0  0  0  0  0  0  0  0  0  0  0  0
  -24.8042  -12.2687   21.4441 N   0  0  0  0  0  0  0  0  0  0  0  0
  -25.8049  -13.0618   21.0248 N   0  0  0  0  0  0  0  0  0  0  0  0
  -27.2776  -21.3965   20.9171 N   0  0  0  0  0  0  0  0  0  0  0  0
  -23.5971  -30.1637   22.8985 N   0  0  0  0  0  0  0  0  0  0  0  0
  -25.6123  -15.8501   23.6302 N   0  0  0  0  0  0  0  0  0  0  0  0
  -27.6542  -13.1481   19.5474 N   0  0  0  0  0  0  0  0  0  0  0  0
  -26.1150  -10.2586   17.6304 N   0  0  0  0  0  0  0  0  0  0  0  0
  -19.9846  -29.8228   23.2591 N   0  0  0  0  0  0  0  0  0  0  0  0
  -26.4734  -31.3261   22.7038 N   0  0  0  0  0  0  0  0  0  0  0  0
  -26.7783  -17.4497   24.9729 N   0  0  0  0  0  0  0  0  0  0  0  0
  -29.3472  -29.1694   22.3065 N   0  3  0  0  0  0  0  0  0  0  0  0
  -29.2372  -20.5142   19.9714 O   0  0  0  0  0  0  0  0  0  0  0  0
  -27.4588   -9.4092   19.2831 O   0  0  0  0  0  0  0  0  0  0  0  0
  -21.4478  -30.3548   21.5275 O   0  0  0  0  0  0  0  0  0  0  0  0
  -23.7237  -32.3063   23.8094 O   0  0  0  0  0  0  0  0  0  0  0  0
  -27.5339  -30.6577   20.7529 O   0  0  0  0  0  0  0  0  0  0  0  0
  -27.1192  -15.1726   25.2482 O   0  0  0  0  0  0  0  0  0  0  0  0
  -21.5074   -6.8213   21.3827 O   0  0  0  0  0  0  0  0  0  0  0  0
  -24.2728  -24.4596   20.6492 O   0  0  0  0  0  0  0  0  0  1  0  0
  -22.0544   -3.7661   25.9402 F   0  0  0  0  0  0  0  0  0  0  0  0
  -22.0881   -4.1233   21.2204 F   0  0  0  0  0  0  0  0  0  0  0  0
  1  2  1  0  0  0  0
  1  5  2  0  0  0  0
  2  6  2  0  0  0  0
  3 12  2  0  0  0  0
  3 19  1  0  0  0  0
  4 13  1  0  0  0  0
  4 19  2  0  0  0  0
  5 21  1  0  0  0  0
  6 23  1  0  0  0  0
  7 14  2  0  0  0  0
  7 22  1  0  0  0  0
  8 10  2  0  0  0  0
  8 25  1  0  0  0  0
  9 11  1  0  0  0  0
  9 25  2  0  0  0  0
 10 26  1  0  0  0  0
 11 26  2  0  0  0  0
 12 27  1  0  0  0  0
 13 27  2  0  0  0  0
 14 28  1  0  0  0  0
 15 16  2  0  0  0  0
 15 29  1  0  0  0  0
 16 30  1  0  0  0  0
 17 24  1  0  0  0  0
 17 28  2  0  0  0  0
 18 30  2  0  0  0  0
 18 31  1  0  0  0  0
 19 32  1  0  0  0  0
 20 32  1  0  0  0  0
 20 33  2  0  0  0  0
 20 35  1  0  0  0  0
 21 23  2  0  0  0  0
 21 40  1  0  0  0  0
 22 24  2  0  0  0  0
 22 41  1  0  0  0  0
 23 52  1  0  0  0  0
 24 42  1  0  0  0  0
 25 68  1  0  0  0  0
 26 75  1  0  0  0  0
 27 83  1  0  0  0  0
 28 84  1  0  0  0  0
 29 31  2  0  0  0  0
 29 83  1  0  0  0  0
 30 85  1  0  0  0  0
 31 86  1  0  0  0  0
 32 66  2  0  0  0  0
 33 67  1  0  0  0  0
 33 71  1  0  0  0  0
 34 43  1  0  0  0  0
 34 68  1  0  0  0  0
 34 77  2  0  0  0  0
 35 72  1  0  0  0  0
 35 78  2  0  0  0  0
 36 53  1  0  0  0  0
 36 73  1  0  0  0  0
 36 79  2  0  0  0  0
 37 63  1  0  0  0  0
 37 69  1  0  0  0  0
 37 80  2  0  0  0  0
 38 64  1  0  0  0  0
 38 74  1  0  0  0  0
 38 81  2  0  0  0  0
 39 70  1  0  0  0  0
 39 75  1  0  0  0  0
 39 82  2  0  0  0  0
 40 44  1  0  0  0  0
 41 53  1  0  0  0  0
 42 69  1  0  0  0  0
 43 45  1  0  0  0  0
 44 47  1  0  0  0  0
 45 54  1  0  0  0  0
 46 48  1  0  0  0  0
 46 49  1  0  0  0  0
 47 52  1  0  0  0  0
 48 55  1  0  0  0  0
 49 70  1  0  0  0  0
 50 54  1  0  0  0  0
 50 68  1  0  0  0  0
 51 55  1  0  0  0  0
 51 70  1  0  0  0  0
 52 73  1  0  0  0  0
 53 69  1  0  0  0  0
 54 62  1  0  0  0  0
 55 67  1  0  0  0  0
 56 64  1  0  0  0  0
 57 65  1  0  0  0  0
 58 65  1  0  0  0  0
 59 65  1  0  0  0  0
 60 75  1  0  0  0  0
 61 76  1  0  0  0  0
 62 84  1  0  0  0  0
 63 65  1  0  0  0  0
 63 74  1  0  0  0  0
 64 76  1  0  0  0  0
 66 67  1  0  0  0  0
M  CHG  1  76   1
M  ISO  4  39 100  62 101  75 100  84 101
M  END
> <Batch ID>
0098

> <Smiles>
CNC(C)C(=O)NC(C(=O)N1Cc2cc([101O:1][101CH2:1]C3CCC(=O)N(c4ccc([100N:0](C)[100C:0](=O)N5CCCC(n6nc(-c7ccc(Oc8ccc(F)cc8F)cc7)c(C(N)=O)c6N)C5)cc4)C3)ccc2CC1C(=O)NC1CCCc2ccccc21)C(C)(C)C

> <Shape>
0.271

> <Color>
0.119

> <Negative vol penalty>
0.000

$$$$

  -OEChem-04052300513D

 90 99  0     1  0  0  0  0  0999 V2000
  -20.8433  -32.1350   21.6592 C   0  0  0  0  0  0  0  0  0  0  0  0
  -20.6293  -31.0683   20.7921 C   0  0  0  0  0  0  0  0  0  0  0  0
  -22.9522  -10.1959   20.3669 C   0  0  0  0  0  0  0  0  0  0  0  0
  -24.5912   -9.1371   21.7915 C   0  0  0  0  0  0  0  0  0  0  0  0
  -22.1282  -32.6503   21.8248 C   0  0  0  0  0  0  0  0  0  0  0  0
  -21.7000  -30.5171   20.0891 C   0  0  0  0  0  0  0  0  0  0  0  0
  -22.4750  -24.6322   18.5815 C   0  0  0  0  0  0  0  0  0  0  0  0
  -27.8917  -18.9668   16.0632 C   0  0  0  0  0  0  0  0  0  0  0  0
  -26.9057  -19.3629   15.1595 C   0  0  0  0  0  0  0  0  0  0  0  0
  -21.9304   -9.5475   21.0606 C   0  0  0  0  0  0  0  0  0  0  0  0
  -23.5694   -8.4887   22.4853 C   0  0  0  0  0  0  0  0  0  0  0  0
  -22.2331  -23.9258   17.4041 C   0  0  0  0  0  0  0  0  0  0  0  0
  -21.5669   -5.8022   22.0342 C   0  0  0  0  0  0  0  0  0  0  0  0
  -21.7329   -4.4459   22.3143 C   0  0  0  0  0  0  0  0  0  0  0  0
  -24.5437  -24.2043   16.7693 C   0  0  0  0  0  0  0  0  0  0  0  0
  -27.7180  -16.6958   15.2575 C   0  0  0  0  0  0  0  0  0  0  0  0
  -21.5804   -4.9155   24.6793 C   0  0  0  0  0  0  0  0  0  0  0  0
  -24.2826   -9.9906   20.7323 C   0  0  0  0  0  0  0  0  0  0  0  0
  -25.6355  -10.5523   18.6439 C   0  0  0  0  0  0  0  0  0  0  0  0
  -23.2167  -32.0989   21.1308 C   0  0  0  0  0  0  0  0  0  0  0  0
  -23.7527  -25.1402   18.8570 C   0  0  0  0  0  0  0  0  0  0  0  0
  -23.0004  -31.0265   20.2445 C   0  0  0  0  0  0  0  0  0  0  0  0
  -24.7998  -24.9145   17.9521 C   0  0  0  0  0  0  0  0  0  0  0  0
  -28.2979  -17.6333   16.1122 C   0  0  0  0  0  0  0  0  0  0  0  0
  -26.3259  -18.4254   14.3049 C   0  0  0  0  0  0  0  0  0  0  0  0
  -22.2390   -8.6940   22.1198 C   0  0  0  0  0  0  0  0  0  0  0  0
  -23.2667  -23.7143   16.4964 C   0  0  0  0  0  0  0  0  0  0  0  0
  -21.4077   -6.7152   23.0768 C   0  0  0  0  0  0  0  0  0  0  0  0
  -26.7320  -17.0918   14.3538 C   0  0  0  0  0  0  0  0  0  0  0  0
  -21.7397   -4.0025   23.6368 C   0  0  0  0  0  0  0  0  0  0  0  0
  -21.4144   -6.2719   24.3993 C   0  0  0  0  0  0  0  0  0  0  0  0
  -25.3386  -10.6596   20.0158 C   0  0  0  0  0  0  0  0  0  0  0  0
  -26.7181  -11.3777   18.4613 C   0  0  0  0  0  0  0  0  0  0  0  0
  -23.0689  -18.0685   14.1769 C   0  0  0  0  0  0  0  0  0  0  0  0
  -24.9904   -9.7761   17.6255 C   0  0  0  0  0  0  0  0  0  0  0  0
  -24.9656  -28.0459   19.2919 C   0  0  0  0  0  0  0  0  0  0  0  0
  -27.6558  -26.3885   20.0256 C   0  0  0  0  0  0  0  0  0  0  0  0
  -29.4621  -23.5103   19.7098 C   0  0  0  0  0  0  0  0  0  0  0  0
  -29.3546  -16.2152   19.3516 C   0  0  0  0  0  0  0  0  0  0  0  0
  -24.5797  -32.7204   21.3064 C   0  0  0  0  0  0  0  0  0  0  0  0
  -24.0037  -25.8769   20.1441 C   0  0  0  0  0  0  0  0  0  0  0  0
  -26.1943  -25.4216   18.2105 C   0  0  0  0  0  0  0  0  0  0  0  0
  -21.8298  -18.4983   14.9357 C   0  0  0  0  0  0  0  0  0  0  0  0
  -25.7207  -31.8368   20.8087 C   0  0  0  0  0  0  0  0  0  0  0  0
  -21.2990  -19.8130   14.3790 C   0  0  0  0  0  0  0  0  0  0  0  0
  -29.7054  -13.6831   21.8299 C   0  0  0  0  0  0  0  0  0  0  0  0
  -25.3936  -31.2676   19.4318 C   0  0  0  0  0  0  0  0  0  0  0  0
  -28.6215  -12.6657   21.4694 C   0  0  0  0  0  0  0  0  0  0  0  0
  -29.2445  -15.1153   21.5685 C   0  0  0  0  0  0  0  0  0  0  0  0
  -23.7729  -20.3932   14.6364 C   0  0  0  0  0  0  0  0  0  0  0  0
  -27.6607  -14.3483   19.8431 C   0  0  0  0  0  0  0  0  0  0  0  0
  -24.1403  -30.3854   19.4831 C   0  0  1  0  0  0  0  0  0  0  0  0
  -25.2221  -26.7929   20.0804 C   0  0  1  0  0  0  0  0  0  0  0  0
  -22.3595  -20.9287   14.3749 C   0  0  2  0  0  0  0  0  0  0  0  0
  -28.0993  -12.8866   20.0370 C   0  0  2  0  0  0  0  0  0  0  0  0
  -30.5902  -16.6182   16.3884 C   0  0  0  0  0  0  0  0  0  0  0  0
  -31.6399  -22.4665   20.3918 C   0  0  0  0  0  0  0  0  0  0  0  0
  -29.1148  -28.0809   17.9479 C   0  0  0  0  0  0  0  0  0  0  0  0
  -30.9722  -26.4026   17.9870 C   0  0  0  0  0  0  0  0  0  0  0  0
  -30.4013  -27.6768   20.0541 C   0  0  0  0  0  0  0  0  0  0  0  0
  -28.0931  -21.3282   21.1669 C   0  0  0  0  0  0  0  0  0  0  0  0
  -26.6512  -14.8238   13.6429 C   0  0  0  0  0  0  0  0  0  0  0  0
  -25.2650  -18.8695   13.3397 C   0  0  0  0  0  0  0  0  0  0  0  0
  -22.0161  -22.0254   15.3831 C   0  0  0  0  0  0  0  0  0  1  0  0
  -29.3527  -17.2105   17.0781 C   0  0  2  0  0  0  0  0  0  0  0  0
  -28.8357  -25.8649   19.2430 C   0  0  1  0  0  0  0  0  0  0  0  0
  -30.1703  -22.6475   20.7386 C   0  0  2  0  0  0  0  0  0  0  0  0
  -29.8044  -26.9983   18.8019 C   0  0  0  0  0  0  0  0  0  0  0  0
  -26.1658  -11.4877   20.6592 N   0  0  0  0  0  0  0  0  0  0  0  0
  -26.9932  -11.9082   19.6873 N   0  0  0  0  0  0  0  0  0  0  0  0
  -23.9911  -19.0996   13.9999 N   0  0  0  0  0  0  0  0  0  0  0  0
  -26.3880  -26.1416   19.4799 N   0  0  0  0  0  0  0  0  0  0  0  0
  -28.7630  -15.2581   20.1924 N   0  0  0  0  0  0  0  0  0  0  0  0
  -27.4520  -11.6941   17.3734 N   0  0  0  0  0  0  0  0  0  0  0  0
  -25.4478   -8.4726   17.3887 N   0  0  0  0  0  0  0  0  0  0  0  0
  -24.4575  -29.0889   20.0425 N   0  0  0  0  0  0  0  0  0  0  0  0
  -29.4553  -24.8397   20.0757 N   0  0  0  0  0  0  0  0  0  0  0  0
  -28.8431  -16.2807   18.0613 N   0  0  0  0  0  0  0  0  0  0  0  0
  -29.5352  -21.3013   20.8111 N   0  3  0  0  0  0  0  0  0  0  0  0
  -23.2139  -16.9076   13.7989 O   0  0  0  0  0  0  0  0  0  0  0  0
  -24.0474  -10.2309   16.9346 O   0  0  0  0  0  0  0  0  0  0  0  0
  -25.2120  -28.0655   18.0916 O   0  0  0  0  0  0  0  0  0  0  0  0
  -27.8513  -26.9881   21.0857 O   0  0  0  0  0  0  0  0  0  0  0  0
  -28.9678  -23.0514   18.6823 O   0  0  0  0  0  0  0  0  0  0  0  0
  -30.2743  -16.9529   19.7216 O   0  0  0  0  0  0  0  0  0  0  0  0
  -21.2422   -8.0614   22.7971 O   0  0  0  0  0  0  0  0  0  0  0  0
  -26.1768  -16.1635   13.5254 O   0  0  0  0  0  0  0  0  0  0  0  0
  -23.0331  -23.0257   15.3461 O   0  0  0  0  0  0  0  0  0  1  0  0
  -21.8976   -2.6998   23.9054 F   0  0  0  0  0  0  0  0  0  0  0  0
  -21.2608   -7.1441   25.4049 F   0  0  0  0  0  0  0  0  0  0  0  0
  1  2  1  0  0  0  0
  1  5  2  0  0  0  0
  2  6  2  0  0  0  0
  3 10  2  0  0  0  0
  3 18  1  0  0  0  0
  4 11  1  0  0  0  0
  4 18  2  0  0  0  0
  5 20  1  0  0  0  0
  6 22  1  0  0  0  0
  7 12  2  0  0  0  0
  7 21  1  0  0  0  0
  8  9  2  0  0  0  0
  8 24  1  0  0  0  0
  9 25  1  0  0  0  0
 10 26  1  0  0  0  0
 11 26  2  0  0  0  0
 12 27  1  0  0  0  0
 13 14  2  0  0  0  0
 13 28  1  0  0  0  0
 14 30  1  0  0  0  0
 15 23  1  0  0  0  0
 15 27  2  0  0  0  0
 16 24  2  0  0  0  0
 16 29  1  0  0  0  0
 17 30  2  0  0  0  0
 17 31  1  0  0  0  0
 18 32  1  0  0  0  0
 19 32  1  0  0  0  0
 19 33  2  0  0  0  0
 19 35  1  0  0  0  0
 20 22  2  0  0  0  0
 20 40  1  0  0  0  0
 21 23  2  0  0  0  0
 21 41  1  0  0  0  0
 22 52  1  0  0  0  0
 23 42  1  0  0  0  0
 24 65  1  0  0  0  0
 25 29  2  0  0  0  0
 25 63  1  0  0  0  0
 26 86  1  0  0  0  0
 27 88  1  0  0  0  0
 28 31  2  0  0  0  0
 28 86  1  0  0  0  0
 29 87  1  0  0  0  0
 30 89  1  0  0  0  0
 31 90  1  0  0  0  0
 32 69  2  0  0  0  0
 33 70  1  0  0  0  0
 33 74  1  0  0  0  0
 34 43  1  0  0  0  0
 34 71  1  0  0  0  0
 34 80  2  0  0  0  0
 35 75  1  0  0  0  0
 35 81  2  0  0  0  0
 36 53  1  0  0  0  0
 36 76  1  0  0  0  0
 36 82  2  0  0  0  0
 37 66  1  0  0  0  0
 37 72  1  0  0  0  0
 37 83  2  0  0  0  0
 38 67  1  0  0  0  0
 38 77  1  0  0  0  0
 38 84  2  0  0  0  0
 39 73  1  0  0  0  0
 39 78  1  0  0  0  0
 39 85  2  0  0  0  0
 40 44  1  0  0  0  0
 41 53  1  0  0  0  0
 42 72  1  0  0  0  0
 43 45  1  0  0  0  0
 44 47  1  0  0  0  0
 45 54  1  0  0  0  0
 46 48  1  0  0  0  0
 46 49  1  0  0  0  0
 47 52  1  0  0  0  0
 48 55  1  0  0  0  0
 49 73  1  0  0  0  0
 50 54  1  0  0  0  0
 50 71  1  0  0  0  0
 51 55  1  0  0  0  0
 51 73  1  0  0  0  0
 52 76  1  0  0  0  0
 53 72  1  0  0  0  0
 54 64  1  0  0  0  0
 55 70  1  0  0  0  0
 56 65  1  0  0  0  0
 57 67  1  0  0  0  0
 58 68  1  0  0  0  0
 59 68  1  0  0  0  0
 60 68  1  0  0  0  0
 61 79  1  0  0  0  0
 62 87  1  0  0  0  0
 63 71  1  0  0  0  0
 64 88  1  0  0  0  0
 65 78  1  0  0  0  0
 66 68  1  0  0  0  0
 66 77  1  0  0  0  0
 67 79  1  0  0  0  0
 69 70  1  0  0  0  0
M  CHG  1  79   1
M  ISO  4  39 100  64 101  78 100  88 101
M  END
> <Batch ID>
0098

> <Smiles>
CNC(C)C(=O)NC(C(=O)N1Cc2cc([101O:1][101CH2:1]C3CCC(=O)N(Cc4ccc(C(C)[100NH:0][100C:0](=O)N5CCCC(n6nc(-c7ccc(Oc8ccc(F)cc8F)cc7)c(C(N)=O)c6N)C5)cc4OC)C3)ccc2CC1C(=O)NC1CCCc2ccccc21)C(C)(C)C

> <Shape>
0.246

> <Color>
0.089

> <Negative vol penalty>
0.000

$$$$

  -OEChem-04052300513D

 84 92  0     1  0  0  0  0  0999 V2000
  -29.9752  -25.4571   17.2916 C   0  0  0  0  0  0  0  0  0  0  0  0
  -28.5896  -25.5153   17.4011 C   0  0  0  0  0  0  0  0  0  0  0  0
  -25.8146  -16.1477   20.0297 C   0  0  0  0  0  0  0  0  0  0  0  0
  -24.6093  -15.3379   21.9607 C   0  0  0  0  0  0  0  0  0  0  0  0
  -20.6709  -23.2243   24.7235 C   0  0  0  0  0  0  0  0  0  0  0  0
  -30.7756  -25.8916   18.3473 C   0  0  0  0  0  0  0  0  0  0  0  0
  -28.0035  -26.0070   18.5670 C   0  0  0  0  0  0  0  0  0  0  0  0
  -22.8198  -29.2390   19.0014 C   0  0  0  0  0  0  0  0  0  0  0  0
  -26.2478  -14.8504   19.7560 C   0  0  0  0  0  0  0  0  0  0  0  0
  -25.0424  -14.0405   21.6869 C   0  0  0  0  0  0  0  0  0  0  0  0
  -19.9442  -23.8663   23.7208 C   0  0  0  0  0  0  0  0  0  0  0  0
  -21.5117  -28.8757   19.3188 C   0  0  0  0  0  0  0  0  0  0  0  0
  -27.9646  -11.8048   18.7557 C   0  0  0  0  0  0  0  0  0  0  0  0
  -29.3076  -11.6240   18.4253 C   0  0  0  0  0  0  0  0  0  0  0  0
  -22.7100  -24.1994   23.8702 C   0  0  0  0  0  0  0  0  0  0  0  0
  -21.8941  -29.5242   21.6106 C   0  0  0  0  0  0  0  0  0  0  0  0
  -29.9571  -12.5385   20.5652 C   0  0  0  0  0  0  0  0  0  0  0  0
  -24.9955  -16.3915   21.1321 C   0  0  0  0  0  0  0  0  0  0  0  0
  -22.0538  -23.3909   24.7983 C   0  0  0  0  0  0  0  0  0  0  0  0
  -23.3763  -18.3539   20.9456 C   0  0  0  0  0  0  0  0  0  0  0  0
  -30.1992  -26.3978   19.5229 C   0  0  0  0  0  0  0  0  0  0  0  0
  -23.6796  -29.7382   19.9903 C   0  0  0  0  0  0  0  0  0  0  0  0
  -28.7970  -26.4474   19.6399 C   0  0  0  0  0  0  0  0  0  0  0  0
  -23.2118  -29.8955   21.3027 C   0  0  0  0  0  0  0  0  0  0  0  0
  -25.8617  -13.7968   20.5845 C   0  0  0  0  0  0  0  0  0  0  0  0
  -21.0495  -29.0155   20.6242 C   0  0  0  0  0  0  0  0  0  0  0  0
  -20.6005  -24.6748   22.7927 C   0  0  0  0  0  0  0  0  0  0  0  0
  -27.6178  -12.3526   19.9908 C   0  0  0  0  0  0  0  0  0  0  0  0
  -21.9834  -24.8413   22.8674 C   0  0  0  0  0  0  0  0  0  0  0  0
  -30.3039  -11.9908   19.3301 C   0  0  0  0  0  0  0  0  0  0  0  0
  -28.6140  -12.7193   20.8955 C   0  0  0  0  0  0  0  0  0  0  0  0
  -24.5482  -17.7315   21.4158 C   0  0  0  0  0  0  0  0  0  0  0  0
  -23.4112  -19.6118   21.4960 C   0  0  0  0  0  0  0  0  0  0  0  0
  -22.8110  -22.7232   25.8451 C   0  0  0  0  0  0  0  0  0  0  0  0
  -22.3482  -17.8409   20.0881 C   0  0  0  0  0  0  0  0  0  0  0  0
  -24.2798  -22.8786   25.9530 C   0  0  0  0  0  0  0  0  0  0  0  0
  -26.4359  -28.7861   21.2552 C   0  0  0  0  0  0  0  0  0  0  0  0
  -26.2753  -31.6441   22.7809 C   0  0  0  0  0  0  0  0  0  0  0  0
  -24.3401  -34.2060   23.9378 C   0  0  0  0  0  0  0  0  0  0  0  0
  -31.1049  -26.8116   20.6557 C   0  0  0  0  0  0  0  0  0  0  0  0
  -25.0795  -30.1507   19.6261 C   0  0  0  0  0  0  0  0  0  0  0  0
  -24.0887  -30.4456   22.3967 C   0  0  0  0  0  0  0  0  0  0  0  0
  -30.4089  -27.6680   21.7103 C   0  0  0  0  0  0  0  0  0  0  0  0
  -27.1099  -22.0610   23.9089 C   0  0  0  0  0  0  0  0  0  0  0  0
  -29.0630  -27.0586   22.0897 C   0  0  0  0  0  0  0  0  0  0  0  0
  -26.6104  -20.8870   23.0674 C   0  0  0  0  0  0  0  0  0  0  0  0
  -26.5054  -22.0415   25.3091 C   0  0  0  0  0  0  0  0  0  0  0  0
  -24.5046  -20.8355   24.4776 C   0  0  0  0  0  0  0  0  0  0  0  0
  -28.1241  -26.9974   20.8788 C   0  0  1  0  0  0  0  0  0  0  0  0
  -26.0280  -30.1654   20.8209 C   0  0  1  0  0  0  0  0  0  0  0  0
  -25.0722  -20.8371   23.0475 C   0  0  2  0  0  0  0  0  0  0  0  0
  -24.4891  -36.3832   25.1769 C   0  0  0  0  0  0  0  0  0  0  0  0
  -26.6466  -30.1249   25.4009 C   0  0  0  0  0  0  0  0  0  0  0  0
  -25.8475  -32.1633   26.6153 C   0  0  0  0  0  0  0  0  0  0  0  0
  -27.9299  -32.2658   25.2455 C   0  0  0  0  0  0  0  0  0  0  0  0
  -23.2430  -35.7200   21.6437 C   0  0  0  0  0  0  0  0  0  0  0  0
  -23.1080  -25.0025   20.7781 C   0  0  0  0  0  0  0  0  0  0  0  0
  -18.1951  -26.8385   21.0312 C   0  0  0  0  0  0  0  0  0  0  0  0
  -19.1858  -27.6089   20.1726 C   0  0  0  0  0  0  0  0  0  1  0  0
  -18.8639  -26.2025   22.2397 C   0  0  0  0  0  0  0  0  0  0  0  0
  -25.6881  -32.1286   24.0846 C   0  0  1  0  0  0  0  0  0  0  0  0
  -24.4825  -35.7121   23.8122 C   0  0  2  0  0  0  0  0  0  0  0  0
  -26.5119  -31.6584   25.3166 C   0  0  0  0  0  0  0  0  0  0  0  0
  -25.2746  -18.5283   22.2040 N   0  0  0  0  0  0  0  0  0  0  0  0
  -22.2624  -21.9560   26.7481 N   0  0  0  0  0  0  0  0  0  0  0  0
  -24.5573  -19.6644   22.2333 N   0  0  0  0  0  0  0  0  0  0  0  0
  -25.0473  -21.9574   25.2541 N   0  0  0  0  0  0  0  0  0  0  0  0
  -25.4515  -30.8288   21.9921 N   0  0  0  0  0  0  0  0  0  0  0  0
  -22.5730  -20.6670   21.4162 N   0  0  0  0  0  0  0  0  0  0  0  0
  -22.4686  -16.5283   19.6118 N   0  0  0  0  0  0  0  0  0  0  0  0
  -27.5588  -28.3025   20.6112 N   0  0  0  0  0  0  0  0  0  0  0  0
  -25.5671  -33.5775   23.9643 N   0  0  0  0  0  0  0  0  0  0  0  0
  -23.3542  -36.2746   23.0174 N   0  3  0  0  0  0  0  0  0  0  0  0
  -21.3604  -18.5318   19.7408 O   0  0  0  0  0  0  0  0  0  0  0  0
  -24.6618  -23.8083   26.6516 O   0  0  0  0  0  0  0  0  0  0  0  0
  -25.7813  -28.2042   22.1122 O   0  0  0  0  0  0  0  0  0  0  0  0
  -27.4202  -31.9827   22.4705 O   0  0  0  0  0  0  0  0  0  0  0  0
  -23.2496  -33.6437   24.0094 O   0  0  0  0  0  0  0  0  0  0  0  0
  -26.2839  -12.5307   20.3176 O   0  0  0  0  0  0  0  0  0  0  0  0
  -22.6356  -25.6302   21.9685 O   0  0  0  0  0  0  0  0  0  0  0  0
  -19.7734  -28.6611   20.9368 O   0  0  0  0  0  0  0  0  0  1  0  0
  -19.8752  -25.3002   21.8122 O   0  0  0  0  0  0  0  0  0  0  0  0
  -31.5935  -11.8157   19.0134 F   0  0  0  0  0  0  0  0  0  0  0  0
  -28.2869  -13.2449   22.0841 F   0  0  0  0  0  0  0  0  0  0  0  0
  1  2  1  0  0  0  0
  1  6  2  0  0  0  0
  2  7  2  0  0  0  0
  3  9  2  0  0  0  0
  3 18  1  0  0  0  0
  4 10  1  0  0  0  0
  4 18  2  0  0  0  0
  5 11  2  0  0  0  0
  5 19  1  0  0  0  0
  6 21  1  0  0  0  0
  7 23  1  0  0  0  0
  8 12  2  0  0  0  0
  8 22  1  0  0  0  0
  9 25  1  0  0  0  0
 10 25  2  0  0  0  0
 11 27  1  0  0  0  0
 12 26  1  0  0  0  0
 13 14  2  0  0  0  0
 13 28  1  0  0  0  0
 14 30  1  0  0  0  0
 15 19  2  0  0  0  0
 15 29  1  0  0  0  0
 16 24  1  0  0  0  0
 16 26  2  0  0  0  0
 17 30  2  0  0  0  0
 17 31  1  0  0  0  0
 18 32  1  0  0  0  0
 19 34  1  0  0  0  0
 20 32  1  0  0  0  0
 20 33  2  0  0  0  0
 20 35  1  0  0  0  0
 21 23  2  0  0  0  0
 21 40  1  0  0  0  0
 22 24  2  0  0  0  0
 22 41  1  0  0  0  0
 23 49  1  0  0  0  0
 24 42  1  0  0  0  0
 25 79  1  0  0  0  0
 26 81  1  0  0  0  0
 27 29  2  0  0  0  0
 27 82  1  0  0  0  0
 28 31  2  0  0  0  0
 28 79  1  0  0  0  0
 29 80  1  0  0  0  0
 30 83  1  0  0  0  0
 31 84  1  0  0  0  0
 32 64  2  0  0  0  0
 33 66  1  0  0  0  0
 33 69  1  0  0  0  0
 34 36  1  0  0  0  0
 34 65  2  0  0  0  0
 35 70  1  0  0  0  0
 35 74  2  0  0  0  0
 36 67  1  0  0  0  0
 36 75  2  0  0  0  0
 37 50  1  0  0  0  0
 37 71  1  0  0  0  0
 37 76  2  0  0  0  0
 38 61  1  0  0  0  0
 38 68  1  0  0  0  0
 38 77  2  0  0  0  0
 39 62  1  0  0  0  0
 39 72  1  0  0  0  0
 39 78  2  0  0  0  0
 40 43  1  0  0  0  0
 41 50  1  0  0  0  0
 42 68  1  0  0  0  0
 43 45  1  0  0  0  0
 44 46  1  0  0  0  0
 44 47  1  0  0  0  0
 45 49  1  0  0  0  0
 46 51  1  0  0  0  0
 47 67  1  0  0  0  0
 48 51  1  0  0  0  0
 48 67  1  0  0  0  0
 49 71  1  0  0  0  0
 50 68  1  0  0  0  0
 51 66  1  0  0  0  0
 52 62  1  0  0  0  0
 53 63  1  0  0  0  0
 54 63  1  0  0  0  0
 55 63  1  0  0  0  0
 56 73  1  0  0  0  0
 57 80  1  0  0  0  0
 58 59  1  0  0  0  0
 58 60  1  0  0  0  0
 59 81  1  0  0  0  0
 60 82  1  0  0  0  0
 61 63  1  0  0  0  0
 61 72  1  0  0  0  0
 62 73  1  0  0  0  0
 64 66  1  0  0  0  0
M  CHG  1  73   1
M  ISO  4  34 100  36 100  59 101  81 101
M  END
> <Batch ID>
0098

> <Smiles>
CNC(C)C(=O)NC(C(=O)N1Cc2cc([101O:1][101CH2:1]CCOc3ccc([100C:0](=N)[100C:0](=O)N4CCCC(n5nc(-c6ccc(Oc7ccc(F)cc7F)cc6)c(C(N)=O)c5N)C4)cc3OC)ccc2CC1C(=O)NC1CCCc2ccccc21)C(C)(C)C

> <Shape>
0.293

> <Color>
0.074

> <Negative vol penalty>
0.000

$$$$

  -OEChem-04052300513D

 85 93  0     1  0  0  0  0  0999 V2000
  -32.2275  -27.0741   23.0029 C   0  0  0  0  0  0  0  0  0  0  0  0
  -30.8742  -26.7664   22.9060 C   0  0  0  0  0  0  0  0  0  0  0  0
  -26.4648  -27.8169   15.5676 C   0  0  0  0  0  0  0  0  0  0  0  0
  -28.4227  -26.9287   16.6696 C   0  0  0  0  0  0  0  0  0  0  0  0
  -33.1254  -26.5671   22.0645 C   0  0  0  0  0  0  0  0  0  0  0  0
  -30.4179  -25.9523   21.8700 C   0  0  0  0  0  0  0  0  0  0  0  0
  -27.1473  -22.4298   23.4637 C   0  0  0  0  0  0  0  0  0  0  0  0
  -17.7727  -28.2697   22.2811 C   0  0  0  0  0  0  0  0  0  0  0  0
  -18.1953  -26.9439   22.1856 C   0  0  0  0  0  0  0  0  0  0  0  0
  -27.1379  -27.7855   14.3463 C   0  0  0  0  0  0  0  0  0  0  0  0
  -29.0959  -26.8972   15.4483 C   0  0  0  0  0  0  0  0  0  0  0  0
  -25.8376  -22.8409   23.7078 C   0  0  0  0  0  0  0  0  0  0  0  0
  -30.6803  -29.0894   13.4198 C   0  0  0  0  0  0  0  0  0  0  0  0
  -31.9903  -29.5673   13.3893 C   0  0  0  0  0  0  0  0  0  0  0  0
  -20.4121  -27.5998   22.8875 C   0  0  0  0  0  0  0  0  0  0  0  0
  -25.1684  -21.9623   21.5632 C   0  0  0  0  0  0  0  0  0  0  0  0
  -32.7633  -27.4012   12.6494 C   0  0  0  0  0  0  0  0  0  0  0  0
  -27.1072  -27.3885   16.7292 C   0  0  0  0  0  0  0  0  0  0  0  0
  -19.9895  -28.9257   22.9830 C   0  0  0  0  0  0  0  0  0  0  0  0
  -25.6297  -26.3974   18.5574 C   0  0  0  0  0  0  0  0  0  0  0  0
  -32.6812  -25.7385   21.0220 C   0  0  0  0  0  0  0  0  0  0  0  0
  -27.4801  -21.7905   22.2608 C   0  0  0  0  0  0  0  0  0  0  0  0
  -31.3105  -25.4348   20.9159 C   0  0  0  0  0  0  0  0  0  0  0  0
  -26.4825  -21.5418   21.3073 C   0  0  0  0  0  0  0  0  0  0  0  0
  -18.6699  -29.2607   22.6798 C   0  0  0  0  0  0  0  0  0  0  0  0
  -19.5149  -26.6089   22.4888 C   0  0  0  0  0  0  0  0  0  0  0  0
  -28.4534  -27.3257   14.2866 C   0  0  0  0  0  0  0  0  0  0  0  0
  -24.8485  -22.6098   22.7563 C   0  0  0  0  0  0  0  0  0  0  0  0
  -30.4117  -27.7674   13.0651 C   0  0  0  0  0  0  0  0  0  0  0  0
  -33.0319  -28.7232   13.0041 C   0  0  0  0  0  0  0  0  0  0  0  0
  -31.4532  -26.9233   12.6798 C   0  0  0  0  0  0  0  0  0  0  0  0
  -26.4126  -27.4213   17.9912 C   0  0  0  0  0  0  0  0  0  0  0  0
  -25.1949  -26.9183   19.7517 C   0  0  0  0  0  0  0  0  0  0  0  0
  -20.9655  -29.9608   23.4107 C   0  0  0  0  0  0  0  0  0  0  0  0
  -25.3230  -25.0923   18.0494 C   0  0  0  0  0  0  0  0  0  0  0  0
  -29.4172  -22.4535   19.8294 C   0  0  0  0  0  0  0  0  0  0  0  0
  -28.5641  -19.4821   18.8470 C   0  0  0  0  0  0  0  0  0  0  0  0
  -21.2134  -24.7561   22.6519 C   0  0  0  0  0  0  0  0  0  0  0  0
  -26.2815  -16.9465   18.9322 C   0  0  0  0  0  0  0  0  0  0  0  0
  -23.1011  -31.0482   22.7943 C   0  0  0  0  0  0  0  0  0  0  0  0
  -33.6824  -25.2527   20.0040 C   0  0  0  0  0  0  0  0  0  0  0  0
  -28.8920  -21.3293   22.0240 C   0  0  0  0  0  0  0  0  0  0  0  0
  -26.7839  -20.8412   20.0086 C   0  0  0  0  0  0  0  0  0  0  0  0
  -33.1723  -24.0920   19.1538 C   0  0  0  0  0  0  0  0  0  0  0  0
  -26.5888  -31.1153   22.2207 C   0  0  0  0  0  0  0  0  0  0  0  0
  -31.7606  -24.3781   18.6518 C   0  0  0  0  0  0  0  0  0  0  0  0
  -26.7940  -30.0703   21.1207 C   0  0  0  0  0  0  0  0  0  0  0  0
  -25.2953  -31.9038   22.0201 C   0  0  0  0  0  0  0  0  0  0  0  0
  -24.2945  -30.0469   20.7520 C   0  0  0  0  0  0  0  0  0  0  0  0
  -30.7806  -24.5349   19.8207 C   0  0  1  0  0  0  0  0  0  0  0  0
  -29.2212  -21.1472   20.5456 C   0  0  1  0  0  0  0  0  0  0  0  0
  -25.5479  -29.1787   20.9479 C   0  0  1  0  0  0  0  0  0  0  0  0
  -18.1910  -30.6727   22.7738 C   0  0  0  0  0  0  0  0  0  0  0  0
  -25.8419  -14.6595   17.9974 C   0  0  0  0  0  0  0  0  0  0  0  0
  -27.7720  -20.7284   16.1769 C   0  0  0  0  0  0  0  0  0  0  0  0
  -26.4930  -18.6390   15.6604 C   0  0  0  0  0  0  0  0  0  0  0  0
  -28.9632  -18.5371   15.9929 C   0  0  0  0  0  0  0  0  0  0  0  0
  -26.2785  -15.7194   21.6254 C   0  0  0  0  0  0  0  0  0  0  0  0
  -21.2441  -23.2498   22.4194 C   0  0  0  0  0  0  0  0  0  0  0  0
  -22.6067  -22.7416   21.9735 C   0  0  0  0  0  0  0  0  0  1  0  0
  -27.4585  -18.9161   17.9890 C   0  0  1  0  0  0  0  0  0  0  0  0
  -26.4431  -15.4525   19.1474 C   0  0  2  0  0  0  0  0  0  0  0  0
  -27.6660  -19.2201   16.4783 C   0  0  0  0  0  0  0  0  0  0  0  0
  -26.4733  -28.5102   18.7622 N   0  0  0  0  0  0  0  0  0  0  0  0
  -25.7230  -28.1737   19.8251 N   0  0  0  0  0  0  0  0  0  0  0  0
  -28.1806  -20.4150   19.8209 N   0  0  0  0  0  0  0  0  0  0  0  0
  -24.1626  -30.9878   21.8745 N   0  0  0  0  0  0  0  0  0  0  0  0
  -24.4162  -26.4204   20.7355 N   0  0  0  0  0  0  0  0  0  0  0  0
  -25.8517  -24.7178   16.8066 N   0  0  0  0  0  0  0  0  0  0  0  0
  -19.9437  -25.2638   22.3898 N   0  0  0  0  0  0  0  0  0  0  0  0
  -22.0881  -30.1037   22.5948 N   0  0  0  0  0  0  0  0  0  0  0  0
  -30.4234  -23.2394   20.3581 N   0  0  0  0  0  0  0  0  0  0  0  0
  -27.3818  -17.4945   18.3074 N   0  0  0  0  0  0  0  0  0  0  0  0
  -25.7690  -15.0350   20.4092 N   0  3  0  0  0  0  0  0  0  0  0  0
  -20.7202  -30.6399   24.4040 O   0  0  0  0  0  0  0  0  0  0  0  0
  -24.5880  -24.2882   18.6713 O   0  0  0  0  0  0  0  0  0  0  0  0
  -28.7091  -22.7274   18.8675 O   0  0  0  0  0  0  0  0  0  0  0  0
  -29.7243  -19.1049   18.6648 O   0  0  0  0  0  0  0  0  0  0  0  0
  -22.2034  -25.3804   23.0186 O   0  0  0  0  0  0  0  0  0  0  0  0
  -25.2779  -17.5649   19.2800 O   0  0  0  0  0  0  0  0  0  0  0  0
  -23.0755  -31.8484   23.7347 O   0  0  0  0  0  0  0  0  0  0  0  0
  -29.1104  -27.2947   13.0950 O   0  0  0  0  0  0  0  0  0  0  0  0
  -23.5696  -23.0106   22.9918 O   0  0  0  0  0  0  0  0  0  1  0  0
  -34.2897  -29.1827   12.9735 F   0  0  0  0  0  0  0  0  0  0  0  0
  -31.2012  -25.6526   12.3368 F   0  0  0  0  0  0  0  0  0  0  0  0
  1  2  1  0  0  0  0
  1  5  2  0  0  0  0
  2  6  2  0  0  0  0
  3 10  2  0  0  0  0
  3 18  1  0  0  0  0
  4 11  1  0  0  0  0
  4 18  2  0  0  0  0
  5 21  1  0  0  0  0
  6 23  1  0  0  0  0
  7 12  2  0  0  0  0
  7 22  1  0  0  0  0
  8  9  2  0  0  0  0
  8 25  1  0  0  0  0
  9 26  1  0  0  0  0
 10 27  1  0  0  0  0
 11 27  2  0  0  0  0
 12 28  1  0  0  0  0
 13 14  2  0  0  0  0
 13 29  1  0  0  0  0
 14 30  1  0  0  0  0
 15 19  1  0  0  0  0
 15 26  2  0  0  0  0
 16 24  1  0  0  0  0
 16 28  2  0  0  0  0
 17 30  2  0  0  0  0
 17 31  1  0  0  0  0
 18 32  1  0  0  0  0
 19 25  2  0  0  0  0
 19 34  1  0  0  0  0
 20 32  1  0  0  0  0
 20 33  2  0  0  0  0
 20 35  1  0  0  0  0
 21 23  2  0  0  0  0
 21 41  1  0  0  0  0
 22 24  2  0  0  0  0
 22 42  1  0  0  0  0
 23 50  1  0  0  0  0
 24 43  1  0  0  0  0
 25 53  1  0  0  0  0
 26 70  1  0  0  0  0
 27 82  1  0  0  0  0
 28 83  1  0  0  0  0
 29 31  2  0  0  0  0
 29 82  1  0  0  0  0
 30 84  1  0  0  0  0
 31 85  1  0  0  0  0
 32 64  2  0  0  0  0
 33 65  1  0  0  0  0
 33 68  1  0  0  0  0
 34 71  1  0  0  0  0
 34 75  2  0  0  0  0
 35 69  1  0  0  0  0
 35 76  2  0  0  0  0
 36 51  1  0  0  0  0
 36 72  1  0  0  0  0
 36 77  2  0  0  0  0
 37 61  1  0  0  0  0
 37 66  1  0  0  0  0
 37 78  2  0  0  0  0
 38 59  1  0  0  0  0
 38 70  1  0  0  0  0
 38 79  2  0  0  0  0
 39 62  1  0  0  0  0
 39 73  1  0  0  0  0
 39 80  2  0  0  0  0
 40 67  1  0  0  0  0
 40 71  1  0  0  0  0
 40 81  2  0  0  0  0
 41 44  1  0  0  0  0
 42 51  1  0  0  0  0
 43 66  1  0  0  0  0
 44 46  1  0  0  0  0
 45 47  1  0  0  0  0
 45 48  1  0  0  0  0
 46 50  1  0  0  0  0
 47 52  1  0  0  0  0
 48 67  1  0  0  0  0
 49 52  1  0  0  0  0
 49 67  1  0  0  0  0
 50 72  1  0  0  0  0
 51 66  1  0  0  0  0
 52 65  1  0  0  0  0
 54 62  1  0  0  0  0
 55 63  1  0  0  0  0
 56 63  1  0  0  0  0
 57 63  1  0  0  0  0
 58 74  1  0  0  0  0
 59 60  1  0  0  0  0
 60 83  1  0  0  0  0
 61 63  1  0  0  0  0
 61 73  1  0  0  0  0
 62 74  1  0  0  0  0
 64 65  1  0  0  0  0
M  CHG  1  74   1
M  ISO  4  40 100  60 101  71 100  83 101
M  END
> <Batch ID>
0098

> <Smiles>
CNC(C)C(=O)NC(C(=O)N1Cc2cc([101O:1][101CH2:1]CC(=O)Nc3ccc(C)c(C(=O)[100NH:0][100C:0](=O)N4CCCC(n5nc(-c6ccc(Oc7ccc(F)cc7F)cc6)c(C(N)=O)c5N)C4)c3)ccc2CC1C(=O)NC1CCCc2ccccc21)C(C)(C)C

> <Shape>
0.202

> <Color>
0.081

> <Negative vol penalty>
0.000

$$$$

  -OEChem-04052300513D

 84 92  0     1  0  0  0  0  0999 V2000
  -27.0907  -10.2798   20.1053 C   0  0  0  0  0  0  0  0  0  0  0  0
  -27.3337  -11.1220   21.1856 C   0  0  0  0  0  0  0  0  0  0  0  0
  -27.8181  -26.4470   17.9314 C   0  0  0  0  0  0  0  0  0  0  0  0
  -27.1210  -25.9576   20.1923 C   0  0  0  0  0  0  0  0  0  0  0  0
  -26.6908  -10.8153   18.8817 C   0  0  0  0  0  0  0  0  0  0  0  0
  -27.1779  -12.5003   21.0426 C   0  0  0  0  0  0  0  0  0  0  0  0
  -24.6944  -14.5885   24.9306 C   0  0  0  0  0  0  0  0  0  0  0  0
  -26.8294  -27.4265   17.8386 C   0  0  0  0  0  0  0  0  0  0  0  0
  -26.1324  -26.9372   20.0995 C   0  0  0  0  0  0  0  0  0  0  0  0
  -25.4136  -14.7990   26.1063 C   0  0  0  0  0  0  0  0  0  0  0  0
  -25.9397  -30.3055   20.2929 C   0  0  0  0  0  0  0  0  0  0  0  0
  -25.7924  -31.1796   21.3699 C   0  0  0  0  0  0  0  0  0  0  0  0
  -25.6890  -17.1214   25.5147 C   0  0  0  0  0  0  0  0  0  0  0  0
  -31.6230  -15.8108   23.4711 C   0  0  0  0  0  0  0  0  0  0  0  0
  -30.6863  -17.5352   25.4538 C   0  0  0  0  0  0  0  0  0  0  0  0
  -23.5134  -30.4332   21.6640 C   0  0  0  0  0  0  0  0  0  0  0  0
  -27.9639  -25.7125   19.1082 C   0  0  0  0  0  0  0  0  0  0  0  0
  -30.3096  -24.8684   19.6496 C   0  0  0  0  0  0  0  0  0  0  0  0
  -26.5207  -12.2000   18.7263 C   0  0  0  0  0  0  0  0  0  0  0  0
  -24.4761  -15.6422   24.0314 C   0  0  0  0  0  0  0  0  0  0  0  0
  -26.7767  -13.0549   19.8154 C   0  0  0  0  0  0  0  0  0  0  0  0
  -24.9645  -16.9222   24.3296 C   0  0  0  0  0  0  0  0  0  0  0  0
  -31.7205  -17.1913   23.2976 C   0  0  0  0  0  0  0  0  0  0  0  0
  -31.0571  -15.2924   24.6359 C   0  0  0  0  0  0  0  0  0  0  0  0
  -30.5888  -16.1546   25.6273 C   0  0  0  0  0  0  0  0  0  0  0  0
  -25.9866  -27.6716   18.9226 C   0  0  0  0  0  0  0  0  0  0  0  0
  -25.9135  -16.0650   26.3971 C   0  0  0  0  0  0  0  0  0  0  0  0
  -24.8738  -29.4954   19.9014 C   0  0  0  0  0  0  0  0  0  0  0  0
  -24.5793  -31.2434   22.0555 C   0  0  0  0  0  0  0  0  0  0  0  0
  -31.2521  -18.0536   24.2890 C   0  0  0  0  0  0  0  0  0  0  0  0
  -23.6607  -29.5592   20.5870 C   0  0  0  0  0  0  0  0  0  0  0  0
  -28.9847  -24.7001   19.2045 C   0  0  0  0  0  0  0  0  0  0  0  0
  -30.8664  -23.6167   19.5513 C   0  0  0  0  0  0  0  0  0  0  0  0
  -30.9772  -26.0505   20.1109 C   0  0  0  0  0  0  0  0  0  0  0  0
  -25.2761  -16.2136   21.0086 C   0  0  0  0  0  0  0  0  0  0  0  0
  -23.3829  -18.8171   21.4079 C   0  0  0  0  0  0  0  0  0  0  0  0
  -21.9654  -21.0681   23.5458 C   0  0  0  0  0  0  0  0  0  0  0  0
  -30.5910  -18.0944   20.3083 C   0  0  0  0  0  0  0  0  0  0  0  0
  -26.1327  -12.7362   17.3711 C   0  0  0  0  0  0  0  0  0  0  0  0
  -23.6754  -15.4048   22.7804 C   0  0  0  0  0  0  0  0  0  0  0  0
  -24.7401  -18.0914   23.4071 C   0  0  0  0  0  0  0  0  0  0  0  0
  -25.6284  -14.1766   17.4075 C   0  0  0  0  0  0  0  0  0  0  0  0
  -29.1402  -19.4102   17.3350 C   0  0  0  0  0  0  0  0  0  0  0  0
  -26.5533  -15.0448   18.2546 C   0  0  0  0  0  0  0  0  0  0  0  0
  -29.0740  -20.9161   17.5957 C   0  0  0  0  0  0  0  0  0  0  0  0
  -28.8676  -18.6053   18.6038 C   0  0  0  0  0  0  0  0  0  0  0  0
  -29.6499  -20.4663   20.0174 C   0  0  0  0  0  0  0  0  0  0  0  0
  -26.5948  -14.5532   19.7065 C   0  0  1  0  0  0  0  0  0  0  0  0
  -23.9542  -16.4329   21.6884 C   0  0  1  0  0  0  0  0  0  0  0  0
  -29.9733  -21.3203   18.7795 C   0  0  2  0  0  0  0  0  0  0  0  0
  -20.4990  -23.1044   23.5741 C   0  0  0  0  0  0  0  0  0  0  0  0
  -25.7247  -20.5140   20.4351 C   0  0  0  0  0  0  0  0  0  0  0  0
  -24.5652  -22.5259   21.3711 C   0  0  0  0  0  0  0  0  0  0  0  0
  -23.4930  -21.2077   19.5448 C   0  0  0  0  0  0  0  0  0  0  0  0
  -19.9086  -19.7068   25.1814 C   0  0  0  0  0  0  0  0  0  0  0  0
  -32.3238  -17.7422   22.0497 C   0  0  0  0  0  0  0  0  0  0  0  0
  -28.5972  -15.7053   28.7737 C   0  0  0  0  0  0  0  0  0  0  0  0
  -29.5216  -16.4969   27.8565 C   0  0  0  0  0  0  0  0  0  0  0  0
  -27.3630  -15.1705   28.0569 C   0  0  0  0  0  0  0  0  0  1  0  0
  -23.6006  -20.2356   21.8762 C   0  0  1  0  0  0  0  0  0  0  0  0
  -20.5437  -21.5870   23.6648 C   0  0  2  0  0  0  0  0  0  0  0  0
  -24.3519  -21.0985   20.8235 C   0  0  0  0  0  0  0  0  0  0  0  0
  -28.7160  -23.4408   18.8496 N   0  0  0  0  0  0  0  0  0  0  0  0
  -29.8798  -22.8065   19.0716 N   0  0  0  0  0  0  0  0  0  0  0  0
  -23.9566  -17.8074   22.1934 N   0  0  0  0  0  0  0  0  0  0  0  0
  -29.7542  -19.0363   19.6873 N   0  0  0  0  0  0  0  0  0  0  0  0
  -30.9690  -13.8909   24.7915 N   0  0  0  0  0  0  0  0  0  0  0  0
  -32.0989  -23.1412   19.8291 N   0  0  0  0  0  0  0  0  0  0  0  0
  -30.2576  -27.2526   20.1485 N   0  0  0  0  0  0  0  0  0  0  0  0
  -30.0239  -15.6610   26.7929 N   0  0  0  0  0  0  0  0  0  0  0  0
  -25.4049  -14.9719   20.4160 N   0  0  0  0  0  0  0  0  0  0  0  0
  -22.2858  -20.7509   22.2427 N   0  0  0  0  0  0  0  0  0  0  0  0
  -31.4041  -18.5875   21.3213 N   0  0  0  0  0  0  0  0  0  0  0  0
  -19.9499  -21.1764   24.9686 N   0  3  0  0  0  0  0  0  0  0  0  0
  -32.1810  -26.0443   20.4633 O   0  0  0  0  0  0  0  0  0  0  0  0
  -26.1165  -17.1054   21.0196 O   0  0  0  0  0  0  0  0  0  0  0  0
  -22.7218  -18.6121   20.3869 O   0  0  0  0  0  0  0  0  0  0  0  0
  -22.7176  -20.9589   24.5115 O   0  0  0  0  0  0  0  0  0  0  0  0
  -30.6158  -16.9033   19.9802 O   0  0  0  0  0  0  0  0  0  0  0  0
  -25.0219  -28.6275   18.8325 O   0  0  0  0  0  0  0  0  0  0  0  0
  -26.6164  -16.2730   27.5436 O   0  0  0  0  0  0  0  0  0  1  0  0
  -24.4385  -32.0817   23.0907 F   0  0  0  0  0  0  0  0  0  0  0  0
  -31.3400  -19.3817   24.1305 F   0  0  0  0  0  0  0  0  0  0  0  0
  -22.6336  -28.7824   20.2162 F   0  0  0  0  0  0  0  0  0  0  0  0
  1  2  1  0  0  0  0
  1  5  2  0  0  0  0
  2  6  2  0  0  0  0
  3  8  2  0  0  0  0
  3 17  1  0  0  0  0
  4  9  1  0  0  0  0
  4 17  2  0  0  0  0
  5 19  1  0  0  0  0
  6 21  1  0  0  0  0
  7 10  2  0  0  0  0
  7 20  1  0  0  0  0
  8 26  1  0  0  0  0
  9 26  2  0  0  0  0
 10 27  1  0  0  0  0
 11 12  2  0  0  0  0
 11 28  1  0  0  0  0
 12 29  1  0  0  0  0
 13 22  1  0  0  0  0
 13 27  2  0  0  0  0
 14 23  2  0  0  0  0
 14 24  1  0  0  0  0
 15 25  1  0  0  0  0
 15 30  2  0  0  0  0
 16 29  2  0  0  0  0
 16 31  1  0  0  0  0
 17 32  1  0  0  0  0
 18 32  1  0  0  0  0
 18 33  2  0  0  0  0
 18 34  1  0  0  0  0
 19 21  2  0  0  0  0
 19 39  1  0  0  0  0
 20 22  2  0  0  0  0
 20 40  1  0  0  0  0
 21 48  1  0  0  0  0
 22 41  1  0  0  0  0
 23 30  1  0  0  0  0
 23 56  1  0  0  0  0
 24 25  2  0  0  0  0
 24 67  1  0  0  0  0
 25 70  1  0  0  0  0
 26 80  1  0  0  0  0
 27 81  1  0  0  0  0
 28 31  2  0  0  0  0
 28 80  1  0  0  0  0
 29 82  1  0  0  0  0
 30 83  1  0  0  0  0
 31 84  1  0  0  0  0
 32 63  2  0  0  0  0
 33 64  1  0  0  0  0
 33 68  1  0  0  0  0
 34 69  1  0  0  0  0
 34 75  2  0  0  0  0
 35 49  1  0  0  0  0
 35 71  1  0  0  0  0
 35 76  2  0  0  0  0
 36 60  1  0  0  0  0
 36 65  1  0  0  0  0
 36 77  2  0  0  0  0
 37 61  1  0  0  0  0
 37 72  1  0  0  0  0
 37 78  2  0  0  0  0
 38 66  1  0  0  0  0
 38 73  1  0  0  0  0
 38 79  2  0  0  0  0
 39 42  1  0  0  0  0
 40 49  1  0  0  0  0
 41 65  1  0  0  0  0
 42 44  1  0  0  0  0
 43 45  1  0  0  0  0
 43 46  1  0  0  0  0
 44 48  1  0  0  0  0
 45 50  1  0  0  0  0
 46 66  1  0  0  0  0
 47 50  1  0  0  0  0
 47 66  1  0  0  0  0
 48 71  1  0  0  0  0
 49 65  1  0  0  0  0
 50 64  1  0  0  0  0
 51 61  1  0  0  0  0
 52 62  1  0  0  0  0
 53 62  1  0  0  0  0
 54 62  1  0  0  0  0
 55 74  1  0  0  0  0
 56 73  1  0  0  0  0
 57 58  1  0  0  0  0
 57 59  1  0  0  0  0
 58 70  1  0  0  0  0
 59 81  1  0  0  0  0
 60 62  1  0  0  0  0
 60 72  1  0  0  0  0
 61 74  1  0  0  0  0
 63 64  1  0  0  0  0
M  CHG  1  74   1
M  ISO  4  38 100  59 101  73 100  81 101
M  END
> <Batch ID>
0098

> <Smiles>
CNC(C)C(=O)NC(C(=O)N1Cc2cc([101O:1][101CH2:1]CCNc3cc(F)c(C[100NH:0][100C:0](=O)N4CCCC(n5nc(-c6ccc(Oc7ccc(F)cc7F)cc6)c(C(N)=O)c5N)C4)cc3N)ccc2CC1C(=O)NC1CCCc2ccccc21)C(C)(C)C

> <Shape>
0.189

> <Color>
0.060

> <Negative vol penalty>
0.000

$$$$

  -OEChem-04052300513D

 85 93  0     1  0  0  0  0  0999 V2000
  -28.7666  -24.4056   18.1877 C   0  0  0  0  0  0  0  0  0  0  0  0
  -27.5720  -24.6128   18.8699 C   0  0  0  0  0  0  0  0  0  0  0  0
  -26.4304  -12.4621   19.7527 C   0  0  0  0  0  0  0  0  0  0  0  0
  -24.2157  -13.1202   20.4595 C   0  0  0  0  0  0  0  0  0  0  0  0
  -29.9169  -25.0920   18.5743 C   0  0  0  0  0  0  0  0  0  0  0  0
  -27.5274  -25.5058   19.9400 C   0  0  0  0  0  0  0  0  0  0  0  0
  -23.4744  -28.5375   19.7725 C   0  0  0  0  0  0  0  0  0  0  0  0
  -22.4108  -20.8654   22.1655 C   0  0  0  0  0  0  0  0  0  0  0  0
  -26.3103  -11.2776   20.4793 C   0  0  0  0  0  0  0  0  0  0  0  0
  -24.0957  -11.9356   21.1861 C   0  0  0  0  0  0  0  0  0  0  0  0
  -22.2570  -27.9961   20.1829 C   0  0  0  0  0  0  0  0  0  0  0  0
  -21.5492  -21.4772   23.0760 C   0  0  0  0  0  0  0  0  0  0  0  0
  -23.4149   -8.6862   20.5546 C   0  0  0  0  0  0  0  0  0  0  0  0
  -22.2174   -7.9794   20.4455 C   0  0  0  0  0  0  0  0  0  0  0  0
  -22.5102  -29.0686   22.3288 C   0  0  0  0  0  0  0  0  0  0  0  0
  -24.2216  -22.2659   22.9380 C   0  0  0  0  0  0  0  0  0  0  0  0
  -21.8632   -8.2124   22.8241 C   0  0  0  0  0  0  0  0  0  0  0  0
  -25.3831  -13.3835   19.7428 C   0  0  0  0  0  0  0  0  0  0  0  0
  -25.1419  -14.8225   17.6503 C   0  0  0  0  0  0  0  0  0  0  0  0
  -29.8841  -26.0010   19.6435 C   0  0  0  0  0  0  0  0  0  0  0  0
  -24.2255  -29.3409   20.6425 C   0  0  0  0  0  0  0  0  0  0  0  0
  -28.6787  -26.2040   20.3421 C   0  0  0  0  0  0  0  0  0  0  0  0
  -23.7357  -29.6211   21.9261 C   0  0  0  0  0  0  0  0  0  0  0  0
  -23.3600  -22.8777   23.8485 C   0  0  0  0  0  0  0  0  0  0  0  0
  -23.7471  -21.2597   22.0965 C   0  0  0  0  0  0  0  0  0  0  0  0
  -25.1430  -11.0143   21.1960 C   0  0  0  0  0  0  0  0  0  0  0  0
  -21.7761  -28.2593   21.4622 C   0  0  0  0  0  0  0  0  0  0  0  0
  -22.0238  -22.4833   23.9174 C   0  0  0  0  0  0  0  0  0  0  0  0
  -23.8366   -9.1561   21.7984 C   0  0  0  0  0  0  0  0  0  0  0  0
  -21.4415   -7.7425   21.5802 C   0  0  0  0  0  0  0  0  0  0  0  0
  -23.0608   -8.9192   22.9331 C   0  0  0  0  0  0  0  0  0  0  0  0
  -25.5067  -14.6076   18.9929 C   0  0  0  0  0  0  0  0  0  0  0  0
  -25.4570  -16.1386   17.4154 C   0  0  0  0  0  0  0  0  0  0  0  0
  -24.5693  -13.9138   16.7005 C   0  0  0  0  0  0  0  0  0  0  0  0
  -27.1103  -29.1319   21.9608 C   0  0  0  0  0  0  0  0  0  0  0  0
  -26.4182  -32.1213   23.0129 C   0  0  0  0  0  0  0  0  0  0  0  0
  -19.5287  -26.2638   23.4709 C   0  0  0  0  0  0  0  0  0  0  0  0
  -24.0382  -34.4366   23.8016 C   0  0  0  0  0  0  0  0  0  0  0  0
  -25.9754  -20.9102   20.9746 C   0  0  0  0  0  0  0  0  0  0  0  0
  -31.1642  -26.6842   20.0550 C   0  0  0  0  0  0  0  0  0  0  0  0
  -25.5240  -29.9392   20.1753 C   0  0  0  0  0  0  0  0  0  0  0  0
  -24.4940  -30.4942   22.8911 C   0  0  0  0  0  0  0  0  0  0  0  0
  -30.9453  -27.8936   20.9604 C   0  0  0  0  0  0  0  0  0  0  0  0
  -28.4803  -19.5746   18.8254 C   0  0  0  0  0  0  0  0  0  0  0  0
  -29.9546  -27.5571   22.0704 C   0  0  0  0  0  0  0  0  0  0  0  0
  -27.9658  -18.1711   18.4974 C   0  0  0  0  0  0  0  0  0  0  0  0
  -28.1647  -19.9719   20.2663 C   0  0  0  0  0  0  0  0  0  0  0  0
  -26.2396  -18.4358   20.3242 C   0  0  0  0  0  0  0  0  0  0  0  0
  -28.5844  -27.1831   21.4922 C   0  0  1  0  0  0  0  0  0  0  0  0
  -26.4524  -30.3230   21.3234 C   0  0  1  0  0  0  0  0  0  0  0  0
  -26.4767  -18.0167   18.8641 C   0  0  2  0  0  0  0  0  0  0  0  0
  -23.8849  -23.9529   24.7417 C   0  0  0  0  0  0  0  0  0  0  0  0
  -23.7776  -36.7763   24.6707 C   0  0  0  0  0  0  0  0  0  0  0  0
  -27.0649  -31.1442   25.8302 C   0  0  0  0  0  0  0  0  0  0  0  0
  -25.8988  -33.1707   26.7255 C   0  0  0  0  0  0  0  0  0  0  0  0
  -27.9262  -33.4305   25.2956 C   0  0  0  0  0  0  0  0  0  0  0  0
  -22.6792  -35.3280   21.3282 C   0  0  0  0  0  0  0  0  0  0  0  0
  -20.4404  -27.4532   23.2573 C   0  0  0  0  0  0  0  0  0  1  0  0
  -19.1605  -24.3733   25.0444 C   0  0  0  0  0  0  0  0  0  0  0  0
  -19.7957  -23.1419   24.4248 C   0  0  0  0  0  0  0  0  0  0  0  0
  -25.7502  -32.6952   24.2390 C   0  0  1  0  0  0  0  0  0  0  0  0
  -23.8971  -35.9022   23.4319 C   0  0  2  0  0  0  0  0  0  0  0  0
  -26.6464  -32.5921   25.5053 C   0  0  0  0  0  0  0  0  0  0  0  0
  -26.0149  -15.6995   19.5703 N   0  0  0  0  0  0  0  0  0  0  0  0
  -25.9717  -16.6133   18.5858 N   0  0  0  0  0  0  0  0  0  0  0  0
  -25.7615  -31.0507   22.3899 N   0  0  0  0  0  0  0  0  0  0  0  0
  -26.7358  -19.8040   20.5401 N   0  0  0  0  0  0  0  0  0  0  0  0
  -25.3414  -16.9244   16.3238 N   0  0  0  0  0  0  0  0  0  0  0  0
  -24.3091  -12.5982   17.1075 N   0  0  0  0  0  0  0  0  0  0  0  0
  -24.6220  -20.6379   21.1715 N   0  0  0  0  0  0  0  0  0  0  0  0
  -27.8649  -28.3719   21.0877 N   0  0  0  0  0  0  0  0  0  0  0  0
  -19.8706  -25.5546   24.6117 N   0  0  0  0  0  0  0  0  0  0  0  0
  -25.3609  -34.0577   23.8918 N   0  0  0  0  0  0  0  0  0  0  0  0
  -22.6842  -36.1099   22.5913 N   0  3  0  0  0  0  0  0  0  0  0  0
  -24.3117  -14.2539   15.5209 O   0  0  0  0  0  0  0  0  0  0  0  0
  -26.9466  -28.9192   23.1565 O   0  0  0  0  0  0  0  0  0  0  0  0
  -27.4800  -32.6098   22.6182 O   0  0  0  0  0  0  0  0  0  0  0  0
  -18.6078  -25.9870   22.7072 O   0  0  0  0  0  0  0  0  0  0  0  0
  -23.0718  -33.7023   23.9948 O   0  0  0  0  0  0  0  0  0  0  0  0
  -26.4818  -22.0241   21.1322 O   0  0  0  0  0  0  0  0  0  0  0  0
  -25.0254   -9.8583   21.9050 O   0  0  0  0  0  0  0  0  0  0  0  0
  -20.5883  -27.7316   21.8655 O   0  0  0  0  0  0  0  0  0  1  0  0
  -21.1638  -23.0736   24.8060 O   0  0  0  0  0  0  0  0  0  0  0  0
  -20.2908   -7.0650   21.4751 F   0  0  0  0  0  0  0  0  0  0  0  0
  -23.4602   -9.3691   24.1306 F   0  0  0  0  0  0  0  0  0  0  0  0
  1  2  1  0  0  0  0
  1  5  2  0  0  0  0
  2  6  2  0  0  0  0
  3  9  2  0  0  0  0
  3 18  1  0  0  0  0
  4 10  1  0  0  0  0
  4 18  2  0  0  0  0
  5 20  1  0  0  0  0
  6 22  1  0  0  0  0
  7 11  2  0  0  0  0
  7 21  1  0  0  0  0
  8 12  2  0  0  0  0
  8 25  1  0  0  0  0
  9 26  1  0  0  0  0
 10 26  2  0  0  0  0
 11 27  1  0  0  0  0
 12 28  1  0  0  0  0
 13 14  2  0  0  0  0
 13 29  1  0  0  0  0
 14 30  1  0  0  0  0
 15 23  1  0  0  0  0
 15 27  2  0  0  0  0
 16 24  1  0  0  0  0
 16 25  2  0  0  0  0
 17 30  2  0  0  0  0
 17 31  1  0  0  0  0
 18 32  1  0  0  0  0
 19 32  1  0  0  0  0
 19 33  2  0  0  0  0
 19 34  1  0  0  0  0
 20 22  2  0  0  0  0
 20 40  1  0  0  0  0
 21 23  2  0  0  0  0
 21 41  1  0  0  0  0
 22 49  1  0  0  0  0
 23 42  1  0  0  0  0
 24 28  2  0  0  0  0
 24 52  1  0  0  0  0
 25 70  1  0  0  0  0
 26 81  1  0  0  0  0
 27 82  1  0  0  0  0
 28 83  1  0  0  0  0
 29 31  2  0  0  0  0
 29 81  1  0  0  0  0
 30 84  1  0  0  0  0
 31 85  1  0  0  0  0
 32 64  2  0  0  0  0
 33 65  1  0  0  0  0
 33 68  1  0  0  0  0
 34 69  1  0  0  0  0
 34 75  2  0  0  0  0
 35 50  1  0  0  0  0
 35 71  1  0  0  0  0
 35 76  2  0  0  0  0
 36 61  1  0  0  0  0
 36 66  1  0  0  0  0
 36 77  2  0  0  0  0
 37 58  1  0  0  0  0
 37 72  1  0  0  0  0
 37 78  2  0  0  0  0
 38 62  1  0  0  0  0
 38 73  1  0  0  0  0
 38 79  2  0  0  0  0
 39 67  1  0  0  0  0
 39 70  1  0  0  0  0
 39 80  2  0  0  0  0
 40 43  1  0  0  0  0
 41 50  1  0  0  0  0
 42 66  1  0  0  0  0
 43 45  1  0  0  0  0
 44 46  1  0  0  0  0
 44 47  1  0  0  0  0
 45 49  1  0  0  0  0
 46 51  1  0  0  0  0
 47 67  1  0  0  0  0
 48 51  1  0  0  0  0
 48 67  1  0  0  0  0
 49 71  1  0  0  0  0
 50 66  1  0  0  0  0
 51 65  1  0  0  0  0
 53 62  1  0  0  0  0
 54 63  1  0  0  0  0
 55 63  1  0  0  0  0
 56 63  1  0  0  0  0
 57 74  1  0  0  0  0
 58 82  1  0  0  0  0
 59 60  1  0  0  0  0
 59 72  1  0  0  0  0
 60 83  1  0  0  0  0
 61 63  1  0  0  0  0
 61 73  1  0  0  0  0
 62 74  1  0  0  0  0
 64 65  1  0  0  0  0
M  CHG  1  74   1
M  ISO  4  39 100  58 101  70 100  82 101
M  END
> <Batch ID>
0098

> <Smiles>
CNC(C)C(=O)NC(C(=O)N1Cc2cc([101O:1][101CH2:1]C(=O)NCCOc3ccc([100NH:0][100C:0](=O)N4CCCC(n5nc(-c6ccc(Oc7ccc(F)cc7F)cc6)c(C(N)=O)c5N)C4)cc3C)ccc2CC1C(=O)NC1CCCc2ccccc21)C(C)(C)C

> <Shape>
0.298

> <Color>
0.059

> <Negative vol penalty>
0.000

$$$$

  -OEChem-04052300513D

 86 95  0     1  0  0  0  0  0999 V2000
  -24.6595  -27.5665   12.5376 C   0  0  0  0  0  0  0  0  0  0  0  0
  -25.7192  -27.2535   13.3828 C   0  0  0  0  0  0  0  0  0  0  0  0
  -22.9918  -11.6279   22.5750 C   0  0  0  0  0  0  0  0  0  0  0  0
  -23.6160   -9.8354   21.0802 C   0  0  0  0  0  0  0  0  0  0  0  0
  -23.8264  -28.6440   12.8357 C   0  0  0  0  0  0  0  0  0  0  0  0
  -25.9470  -28.0184   14.5262 C   0  0  0  0  0  0  0  0  0  0  0  0
  -26.9070  -25.1758   18.6059 C   0  0  0  0  0  0  0  0  0  0  0  0
  -32.3538  -18.8526   21.1988 C   0  0  0  0  0  0  0  0  0  0  0  0
  -31.8752  -17.5966   20.8261 C   0  0  0  0  0  0  0  0  0  0  0  0
  -22.1627  -10.7534   23.2775 C   0  0  0  0  0  0  0  0  0  0  0  0
  -22.7870   -8.9608   21.7827 C   0  0  0  0  0  0  0  0  0  0  0  0
  -28.1880  -24.6374   18.7196 C   0  0  0  0  0  0  0  0  0  0  0  0
  -19.0911   -9.3933   22.9039 C   0  0  0  0  0  0  0  0  0  0  0  0
  -17.8149   -9.8429   23.2428 C   0  0  0  0  0  0  0  0  0  0  0  0
  -28.7831  -26.3947   20.2614 C   0  0  0  0  0  0  0  0  0  0  0  0
  -30.1480  -19.7867   20.8836 C   0  0  0  0  0  0  0  0  0  0  0  0
  -18.3259   -9.5293   25.5832 C   0  0  0  0  0  0  0  0  0  0  0  0
  -23.7185  -11.1689   21.4763 C   0  0  0  0  0  0  0  0  0  0  0  0
  -24.1947  -13.2516   20.0824 C   0  0  0  0  0  0  0  0  0  0  0  0
  -24.0382  -29.4166   13.9884 C   0  0  0  0  0  0  0  0  0  0  0  0
  -26.5572  -26.3359   19.3117 C   0  0  0  0  0  0  0  0  0  0  0  0
  -25.1167  -29.1080   14.8394 C   0  0  0  0  0  0  0  0  0  0  0  0
  -27.4962  -26.9444   20.1568 C   0  0  0  0  0  0  0  0  0  0  0  0
  -31.4902  -19.9477   21.2276 C   0  0  0  0  0  0  0  0  0  0  0  0
  -30.5331  -17.4356   20.4820 C   0  0  0  0  0  0  0  0  0  0  0  0
  -22.0603   -9.4199   22.8814 C   0  0  0  0  0  0  0  0  0  0  0  0
  -29.1271  -25.2485   19.5452 C   0  0  0  0  0  0  0  0  0  0  0  0
  -19.9847   -9.0116   23.9047 C   0  0  0  0  0  0  0  0  0  0  0  0
  -17.4323   -9.9109   24.5824 C   0  0  0  0  0  0  0  0  0  0  0  0
  -29.6695  -18.5306   20.5107 C   0  0  0  0  0  0  0  0  0  0  0  0
  -19.6021   -9.0796   25.2444 C   0  0  0  0  0  0  0  0  0  0  0  0
  -24.5746  -12.0719   20.7499 C   0  0  0  0  0  0  0  0  0  0  0  0
  -25.3653  -13.7408   19.5563 C   0  0  0  0  0  0  0  0  0  0  0  0
  -33.0553  -21.3739   22.5186 C   0  0  0  0  0  0  0  0  0  0  0  0
  -22.8993  -13.8518   19.9498 C   0  0  0  0  0  0  0  0  0  0  0  0
  -25.6295  -29.2645   18.4952 C   0  0  0  0  0  0  0  0  0  0  0  0
  -25.2200  -29.6055   21.6950 C   0  0  0  0  0  0  0  0  0  0  0  0
  -26.9990  -28.6717   24.6918 C   0  0  0  0  0  0  0  0  0  0  0  0
  -30.7758  -14.9706   20.0227 C   0  0  0  0  0  0  0  0  0  0  0  0
  -23.1397  -30.6006   14.2440 C   0  0  0  0  0  0  0  0  0  0  0  0
  -25.1630  -26.8889   19.1989 C   0  0  0  0  0  0  0  0  0  0  0  0
  -27.1644  -28.1799   20.9517 C   0  0  0  0  0  0  0  0  0  0  0  0
  -33.7014  -22.7429   22.6176 C   0  0  0  0  0  0  0  0  0  0  0  0
  -23.2226  -31.1310   15.6730 C   0  0  0  0  0  0  0  0  0  0  0  0
  -32.7400  -23.9001   22.4579 C   0  0  0  0  0  0  0  0  0  0  0  0
  -29.9431  -11.6160   19.1680 C   0  0  0  0  0  0  0  0  0  0  0  0
  -24.6782  -31.2617   16.1102 C   0  0  0  0  0  0  0  0  0  0  0  0
  -28.4410  -11.5326   19.4484 C   0  0  0  0  0  0  0  0  0  0  0  0
  -30.6630  -12.4938   20.1901 C   0  0  0  0  0  0  0  0  0  0  0  0
  -31.2009  -22.4256   21.1929 C   0  0  0  0  0  0  0  0  0  0  0  0
  -28.5955  -13.7548   20.6421 C   0  0  0  0  0  0  0  0  0  0  0  0
  -25.3811  -29.8989   16.1022 C   0  0  1  0  0  0  0  0  0  0  0  0
  -25.0750  -28.3672   19.5654 C   0  0  1  0  0  0  0  0  0  0  0  0
  -31.9865  -23.7353   21.1483 C   0  0  1  0  0  0  0  0  0  0  0  0
  -27.8175  -12.9339   19.6007 C   0  0  2  0  0  0  0  0  0  0  0  0
  -26.1626  -28.2398   27.0180 C   0  0  0  0  0  0  0  0  0  0  0  0
  -25.9012  -32.5409   22.1736 C   0  0  0  0  0  0  0  0  0  0  0  0
  -26.7040  -31.9098   24.4595 C   0  0  0  0  0  0  0  0  0  0  0  0
  -24.3150  -31.5537   23.8360 C   0  0  0  0  0  0  0  0  0  0  0  0
  -28.2284  -25.9804   24.7588 C   0  0  0  0  0  0  0  0  0  0  0  0
  -31.0542  -24.9191   20.8994 C   0  0  0  0  0  0  0  0  0  1  0  0
  -26.0920  -30.0545   22.8426 C   0  0  1  0  0  0  0  0  0  0  0  0
  -26.5888  -27.6131   25.6995 C   0  0  2  0  0  0  0  0  0  0  0  0
  -25.7641  -31.5024   23.3048 C   0  0  0  0  0  0  0  0  0  0  0  0
  -25.8843  -11.8262   20.6577 N   0  0  0  0  0  0  0  0  0  0  0  0
  -26.3374  -12.8584   19.9260 N   0  0  0  0  0  0  0  0  0  0  0  0
  -31.9867  -21.2513   21.6138 N   0  0  0  0  0  0  0  0  0  0  0  0
  -25.7900  -28.6863   20.8028 N   0  0  0  0  0  0  0  0  0  0  0  0
  -30.0199  -13.8067   20.2773 N   0  0  0  0  0  0  0  0  0  0  0  0
  -25.6477  -14.8352   18.8181 N   0  0  0  0  0  0  0  0  0  0  0  0
  -22.1020  -13.4856   18.8569 N   0  0  0  0  0  0  0  0  0  0  0  0
  -30.0500  -16.1585   20.1032 N   0  0  0  0  0  0  0  0  0  0  0  0
  -25.0061  -29.1298   17.2694 N   0  0  0  0  0  0  0  0  0  0  0  0
  -25.9442  -29.0461   23.8864 N   0  0  0  0  0  0  0  0  0  0  0  0
  -27.7233  -26.6841   25.9658 N   0  3  0  0  0  0  0  0  0  0  0  0
  -33.5399  -20.4547   23.1841 O   0  0  0  0  0  0  0  0  0  0  0  0
  -22.4685  -14.7003   20.7671 O   0  0  0  0  0  0  0  0  0  0  0  0
  -26.5535  -30.0239   18.7623 O   0  0  0  0  0  0  0  0  0  0  0  0
  -24.0728  -30.0483   21.5979 O   0  0  0  0  0  0  0  0  0  0  0  0
  -28.1400  -29.1241   24.6280 O   0  0  0  0  0  0  0  0  0  0  0  0
  -31.9721  -14.9155   19.7263 O   0  0  0  0  0  0  0  0  0  0  0  0
  -21.2516   -8.5662   23.5667 O   0  0  0  0  0  0  0  0  0  0  0  0
  -30.3784  -24.7254   19.6576 O   0  0  0  0  0  0  0  0  0  1  0  0
  -16.2073  -10.3441   24.9078 F   0  0  0  0  0  0  0  0  0  0  0  0
  -28.3778  -18.3880   20.1806 F   0  0  0  0  0  0  0  0  0  0  0  0
  -20.4566   -8.7155   26.2103 F   0  0  0  0  0  0  0  0  0  0  0  0
  1  2  1  0  0  0  0
  1  5  2  0  0  0  0
  2  6  2  0  0  0  0
  3 10  2  0  0  0  0
  3 18  1  0  0  0  0
  4 11  1  0  0  0  0
  4 18  2  0  0  0  0
  5 20  1  0  0  0  0
  6 22  1  0  0  0  0
  7 12  2  0  0  0  0
  7 21  1  0  0  0  0
  8  9  2  0  0  0  0
  8 24  1  0  0  0  0
  9 25  1  0  0  0  0
 10 26  1  0  0  0  0
 11 26  2  0  0  0  0
 12 27  1  0  0  0  0
 13 14  2  0  0  0  0
 13 28  1  0  0  0  0
 14 29  1  0  0  0  0
 15 23  1  0  0  0  0
 15 27  2  0  0  0  0
 16 24  2  0  0  0  0
 16 30  1  0  0  0  0
 17 29  2  0  0  0  0
 17 31  1  0  0  0  0
 18 32  1  0  0  0  0
 19 32  1  0  0  0  0
 19 33  2  0  0  0  0
 19 35  1  0  0  0  0
 20 22  2  0  0  0  0
 20 40  1  0  0  0  0
 21 23  2  0  0  0  0
 21 41  1  0  0  0  0
 22 52  1  0  0  0  0
 23 42  1  0  0  0  0
 24 67  1  0  0  0  0
 25 30  2  0  0  0  0
 25 72  1  0  0  0  0
 26 82  1  0  0  0  0
 27 83  1  0  0  0  0
 28 31  2  0  0  0  0
 28 82  1  0  0  0  0
 29 84  1  0  0  0  0
 30 85  1  0  0  0  0
 31 86  1  0  0  0  0
 32 65  2  0  0  0  0
 33 66  1  0  0  0  0
 33 70  1  0  0  0  0
 34 43  1  0  0  0  0
 34 67  1  0  0  0  0
 34 76  2  0  0  0  0
 35 71  1  0  0  0  0
 35 77  2  0  0  0  0
 36 53  1  0  0  0  0
 36 73  1  0  0  0  0
 36 78  2  0  0  0  0
 37 62  1  0  0  0  0
 37 68  1  0  0  0  0
 37 79  2  0  0  0  0
 38 63  1  0  0  0  0
 38 74  1  0  0  0  0
 38 80  2  0  0  0  0
 39 69  1  0  0  0  0
 39 72  1  0  0  0  0
 39 81  2  0  0  0  0
 40 44  1  0  0  0  0
 41 53  1  0  0  0  0
 42 68  1  0  0  0  0
 43 45  1  0  0  0  0
 44 47  1  0  0  0  0
 45 54  1  0  0  0  0
 46 48  1  0  0  0  0
 46 49  1  0  0  0  0
 47 52  1  0  0  0  0
 48 55  1  0  0  0  0
 49 69  1  0  0  0  0
 50 54  1  0  0  0  0
 50 67  1  0  0  0  0
 51 55  1  0  0  0  0
 51 69  1  0  0  0  0
 52 73  1  0  0  0  0
 53 68  1  0  0  0  0
 54 61  1  0  0  0  0
 55 66  1  0  0  0  0
 56 63  1  0  0  0  0
 57 64  1  0  0  0  0
 58 64  1  0  0  0  0
 59 64  1  0  0  0  0
 60 75  1  0  0  0  0
 61 83  1  0  0  0  0
 62 64  1  0  0  0  0
 62 74  1  0  0  0  0
 63 75  1  0  0  0  0
 65 66  1  0  0  0  0
M  CHG  1  75   1
M  ISO  4  39 100  61 101  72 100  83 101
M  END
> <Batch ID>
0098

> <Smiles>
CNC(C)C(=O)NC(C(=O)N1Cc2cc([101O:1][101CH2:1]C3CCC(=O)N(c4ccc([100NH:0][100C:0](=O)N5CCCC(n6nc(-c7ccc(Oc8ccc(F)cc8F)cc7)c(C(N)=O)c6N)C5)c(F)c4)C3)ccc2CC1C(=O)NC1CCCc2ccccc21)C(C)(C)C

> <Shape>
0.240

> <Color>
0.117

> <Negative vol penalty>
0.000

$$$$

  -OEChem-04052300513D

 85 94  0     1  0  0  0  0  0999 V2000
  -22.6501  -23.0422   23.2962 C   0  0  0  0  0  0  0  0  0  0  0  0
  -23.5840  -22.6655   22.3364 C   0  0  0  0  0  0  0  0  0  0  0  0
  -26.7042  -25.5938   20.1346 C   0  0  0  0  0  0  0  0  0  0  0  0
  -29.0183  -26.2798   20.2418 C   0  0  0  0  0  0  0  0  0  0  0  0
  -22.3407  -22.1760   24.3439 C   0  0  0  0  0  0  0  0  0  0  0  0
  -24.2100  -21.4226   22.4245 C   0  0  0  0  0  0  0  0  0  0  0  0
  -26.8778  -16.2104   18.2974 C   0  0  0  0  0  0  0  0  0  0  0  0
  -33.2841  -17.2829   21.1687 C   0  0  0  0  0  0  0  0  0  0  0  0
  -32.4082  -15.7777   22.8433 C   0  0  0  0  0  0  0  0  0  0  0  0
  -32.9920  -16.3480   20.1756 C   0  0  0  0  0  0  0  0  0  0  0  0
  -32.1160  -14.8428   21.8502 C   0  0  0  0  0  0  0  0  0  0  0  0
  -26.3239  -26.9142   19.8946 C   0  0  0  0  0  0  0  0  0  0  0  0
  -28.6380  -27.6002   20.0018 C   0  0  0  0  0  0  0  0  0  0  0  0
  -28.0411  -15.4613   18.1259 C   0  0  0  0  0  0  0  0  0  0  0  0
  -25.8690  -29.7407   21.6914 C   0  0  0  0  0  0  0  0  0  0  0  0
  -24.7769  -30.2391   22.4017 C   0  0  0  0  0  0  0  0  0  0  0  0
  -27.3693  -14.0147   19.9356 C   0  0  0  0  0  0  0  0  0  0  0  0
  -23.6175  -30.6595   20.3242 C   0  0  0  0  0  0  0  0  0  0  0  0
  -28.0514  -25.2766   20.3083 C   0  0  0  0  0  0  0  0  0  0  0  0
  -28.7788  -22.9366   19.5993 C   0  0  0  0  0  0  0  0  0  0  0  0
  -22.9561  -20.9179   24.4395 C   0  0  0  0  0  0  0  0  0  0  0  0
  -25.9552  -15.8731   19.2982 C   0  0  0  0  0  0  0  0  0  0  0  0
  -23.9096  -20.5392   23.4752 C   0  0  0  0  0  0  0  0  0  0  0  0
  -26.1939  -14.7595   20.1161 C   0  0  0  0  0  0  0  0  0  0  0  0
  -32.9922  -16.9977   22.5026 C   0  0  0  0  0  0  0  0  0  0  0  0
  -32.4079  -15.1280   20.5164 C   0  0  0  0  0  0  0  0  0  0  0  0
  -27.2907  -27.9174   19.8281 C   0  0  0  0  0  0  0  0  0  0  0  0
  -28.2884  -14.3651   18.9469 C   0  0  0  0  0  0  0  0  0  0  0  0
  -25.8353  -29.7017   20.2974 C   0  0  0  0  0  0  0  0  0  0  0  0
  -23.6512  -30.6985   21.7181 C   0  0  0  0  0  0  0  0  0  0  0  0
  -24.7096  -30.1611   19.6138 C   0  0  0  0  0  0  0  0  0  0  0  0
  -28.4448  -23.9130   20.5569 C   0  0  0  0  0  0  0  0  0  0  0  0
  -29.0770  -21.8183   20.3389 C   0  0  0  0  0  0  0  0  0  0  0  0
  -32.3455  -14.3187   18.1142 C   0  0  0  0  0  0  0  0  0  0  0  0
  -28.8163  -23.0320   18.1692 C   0  0  0  0  0  0  0  0  0  0  0  0
  -24.8181  -17.3305   21.8841 C   0  0  0  0  0  0  0  0  0  0  0  0
  -22.8722  -14.7384   22.0120 C   0  0  0  0  0  0  0  0  0  0  0  0
  -22.3380  -11.4727   21.1774 C   0  0  0  0  0  0  0  0  0  0  0  0
  -31.5861  -19.3885   24.6916 C   0  0  0  0  0  0  0  0  0  0  0  0
  -22.6243  -20.0350   25.6164 C   0  0  0  0  0  0  0  0  0  0  0  0
  -24.6922  -16.6752   19.4529 C   0  0  0  0  0  0  0  0  0  0  0  0
  -25.2253  -14.3436   21.1919 C   0  0  0  0  0  0  0  0  0  0  0  0
  -31.8889  -13.0505   17.4326 C   0  0  0  0  0  0  0  0  0  0  0  0
  -23.0556  -18.5827   25.4291 C   0  0  0  0  0  0  0  0  0  0  0  0
  -31.8386  -12.0403   18.5632 C   0  0  0  0  0  0  0  0  0  0  0  0
  -28.3838  -20.8398   25.2530 C   0  0  0  0  0  0  0  0  0  0  0  0
  -24.4830  -18.5144   24.8954 C   0  0  0  0  0  0  0  0  0  0  0  0
  -28.1449  -21.6925   24.0057 C   0  0  0  0  0  0  0  0  0  0  0  0
  -29.8510  -20.8571   25.6760 C   0  0  0  0  0  0  0  0  0  0  0  0
  -30.5669  -21.3390   23.3675 C   0  0  0  0  0  0  0  0  0  0  0  0
  -24.5916  -19.1891   23.5227 C   0  0  1  0  0  0  0  0  0  0  0  0
  -24.0708  -16.5495   20.8405 C   0  0  1  0  0  0  0  0  0  0  0  0
  -29.1118  -21.3078   22.8698 C   0  0  2  0  0  0  0  0  0  0  0  0
  -31.4806  -12.8808   19.7838 C   0  0  2  0  0  0  0  0  0  0  0  0
  -20.6736   -9.6153   21.4556 C   0  0  0  0  0  0  0  0  0  0  0  0
  -23.8077  -14.3340   24.8880 C   0  0  0  0  0  0  0  0  0  0  0  0
  -22.8880  -12.0076   24.7864 C   0  0  0  0  0  0  0  0  0  0  0  0
  -21.3613  -13.9630   24.5249 C   0  0  0  0  0  0  0  0  0  0  0  0
  -21.9081  -11.2643   18.2567 C   0  0  0  0  0  0  0  0  0  0  0  0
  -33.3047  -17.9974   23.5643 C   0  0  0  0  0  0  0  0  0  0  0  0
  -29.9633  -13.0012   19.9423 C   0  0  0  0  0  0  0  0  0  1  0  0
  -22.9515  -13.3725   22.6501 C   0  0  1  0  0  0  0  0  0  0  0  0
  -21.1326  -10.7701   20.5790 C   0  0  2  0  0  0  0  0  0  0  0  0
  -22.7715  -13.4280   24.1934 C   0  0  0  0  0  0  0  0  0  0  0  0
  -28.5231  -23.4551   21.8092 N   0  0  0  0  0  0  0  0  0  0  0  0
  -28.9096  -22.1787   21.6436 N   0  0  0  0  0  0  0  0  0  0  0  0
  -32.1076  -14.1681   19.4970 N   0  0  0  0  0  0  0  0  0  0  0  0
  -24.0078  -15.1633   21.3081 N   0  0  0  0  0  0  0  0  0  0  0  0
  -30.7147  -20.4815   24.5539 N   0  0  0  0  0  0  0  0  0  0  0  0
  -29.4633  -20.5716   19.9939 N   0  0  0  0  0  0  0  0  0  0  0  0
  -28.4807  -24.2548   17.5722 N   0  0  0  0  0  0  0  0  0  0  0  0
  -24.0685  -18.3207   22.4899 N   0  0  0  0  0  0  0  0  0  0  0  0
  -21.9671  -12.5433   21.9632 N   0  0  0  0  0  0  0  0  0  0  0  0
  -32.3649  -19.0962   23.5785 N   0  0  0  0  0  0  0  0  0  0  0  0
  -21.4637  -10.2327   19.2290 N   0  3  0  0  0  0  0  0  0  0  0  0
  -32.7996  -15.2660   17.4889 O   0  0  0  0  0  0  0  0  0  0  0  0
  -29.1220  -22.0570   17.4417 O   0  0  0  0  0  0  0  0  0  0  0  0
  -25.9878  -17.0542   22.1231 O   0  0  0  0  0  0  0  0  0  0  0  0
  -21.8380  -15.4008   22.1277 O   0  0  0  0  0  0  0  0  0  0  0  0
  -23.4928  -11.1059   20.9717 O   0  0  0  0  0  0  0  0  0  0  0  0
  -31.6605  -18.7192   25.7276 O   0  0  0  0  0  0  0  0  0  0  0  0
  -26.9200  -29.2058   19.5937 O   0  0  0  0  0  0  0  0  0  0  0  0
  -29.4234  -13.6326   18.7820 O   0  0  0  0  0  0  0  0  0  1  0  0
  -22.6019  -31.1757   22.4004 F   0  0  0  0  0  0  0  0  0  0  0  0
  -24.6710  -30.1250   18.2748 F   0  0  0  0  0  0  0  0  0  0  0  0
  1  2  1  0  0  0  0
  1  5  2  0  0  0  0
  2  6  2  0  0  0  0
  3 12  2  0  0  0  0
  3 19  1  0  0  0  0
  4 13  1  0  0  0  0
  4 19  2  0  0  0  0
  5 21  1  0  0  0  0
  6 23  1  0  0  0  0
  7 14  2  0  0  0  0
  7 22  1  0  0  0  0
  8 10  2  0  0  0  0
  8 25  1  0  0  0  0
  9 11  1  0  0  0  0
  9 25  2  0  0  0  0
 10 26  1  0  0  0  0
 11 26  2  0  0  0  0
 12 27  1  0  0  0  0
 13 27  2  0  0  0  0
 14 28  1  0  0  0  0
 15 16  2  0  0  0  0
 15 29  1  0  0  0  0
 16 30  1  0  0  0  0
 17 24  1  0  0  0  0
 17 28  2  0  0  0  0
 18 30  2  0  0  0  0
 18 31  1  0  0  0  0
 19 32  1  0  0  0  0
 20 32  1  0  0  0  0
 20 33  2  0  0  0  0
 20 35  1  0  0  0  0
 21 23  2  0  0  0  0
 21 40  1  0  0  0  0
 22 24  2  0  0  0  0
 22 41  1  0  0  0  0
 23 51  1  0  0  0  0
 24 42  1  0  0  0  0
 25 60  1  0  0  0  0
 26 67  1  0  0  0  0
 27 82  1  0  0  0  0
 28 83  1  0  0  0  0
 29 31  2  0  0  0  0
 29 82  1  0  0  0  0
 30 84  1  0  0  0  0
 31 85  1  0  0  0  0
 32 65  2  0  0  0  0
 33 66  1  0  0  0  0
 33 70  1  0  0  0  0
 34 43  1  0  0  0  0
 34 67  1  0  0  0  0
 34 76  2  0  0  0  0
 35 71  1  0  0  0  0
 35 77  2  0  0  0  0
 36 52  1  0  0  0  0
 36 72  1  0  0  0  0
 36 78  2  0  0  0  0
 37 62  1  0  0  0  0
 37 68  1  0  0  0  0
 37 79  2  0  0  0  0
 38 63  1  0  0  0  0
 38 73  1  0  0  0  0
 38 80  2  0  0  0  0
 39 69  1  0  0  0  0
 39 74  1  0  0  0  0
 39 81  2  0  0  0  0
 40 44  1  0  0  0  0
 41 52  1  0  0  0  0
 42 68  1  0  0  0  0
 43 45  1  0  0  0  0
 44 47  1  0  0  0  0
 45 54  1  0  0  0  0
 46 48  1  0  0  0  0
 46 49  1  0  0  0  0
 47 51  1  0  0  0  0
 48 53  1  0  0  0  0
 49 69  1  0  0  0  0
 50 53  1  0  0  0  0
 50 69  1  0  0  0  0
 51 72  1  0  0  0  0
 52 68  1  0  0  0  0
 53 66  1  0  0  0  0
 54 61  1  0  0  0  0
 54 67  1  0  0  0  0
 55 63  1  0  0  0  0
 56 64  1  0  0  0  0
 57 64  1  0  0  0  0
 58 64  1  0  0  0  0
 59 75  1  0  0  0  0
 60 74  1  0  0  0  0
 61 83  1  0  0  0  0
 62 64  1  0  0  0  0
 62 73  1  0  0  0  0
 63 75  1  0  0  0  0
 65 66  1  0  0  0  0
M  CHG  1  75   1
M  ISO  4  39 100  61 101  74 100  83 101
M  END
> <Batch ID>
0098

> <Smiles>
CNC(C)C(=O)NC(C(=O)N1Cc2cc([101O:1][101CH2:1]C3CCC(=O)N3c3ccc(C[100NH:0][100C:0](=O)N4CCCC(n5nc(-c6ccc(Oc7ccc(F)cc7F)cc6)c(C(N)=O)c5N)C4)cc3)ccc2CC1C(=O)NC1CCCc2ccccc21)C(C)(C)C

> <Shape>
0.203

> <Color>
0.056

> <Negative vol penalty>
0.000

$$$$

  -OEChem-04052300513D

 83 91  0     1  0  0  0  0  0999 V2000
  -33.9208  -25.3539   32.0477 C   0  0  0  0  0  0  0  0  0  0  0  0
  -33.2966  -24.1201   31.8941 C   0  0  0  0  0  0  0  0  0  0  0  0
  -33.8822  -11.6649   24.1037 C   0  0  0  0  0  0  0  0  0  0  0  0
  -23.1564   -9.8646   20.0535 C   0  0  0  0  0  0  0  0  0  0  0  0
  -23.8014   -9.9806   22.3789 C   0  0  0  0  0  0  0  0  0  0  0  0
  -33.4101  -11.6837   25.4161 C   0  0  0  0  0  0  0  0  0  0  0  0
  -33.8724  -26.2915   31.0170 C   0  0  0  0  0  0  0  0  0  0  0  0
  -32.6226  -23.8236   30.7099 C   0  0  0  0  0  0  0  0  0  0  0  0
  -33.6586  -19.1719   28.9973 C   0  0  0  0  0  0  0  0  0  0  0  0
  -33.0328  -12.0086   23.0520 C   0  0  0  0  0  0  0  0  0  0  0  0
  -22.4110   -8.7156   20.3176 C   0  0  0  0  0  0  0  0  0  0  0  0
  -23.0560   -8.8316   22.6430 C   0  0  0  0  0  0  0  0  0  0  0  0
  -33.0145  -18.1051   29.6225 C   0  0  0  0  0  0  0  0  0  0  0  0
  -22.9967   -5.4195   20.7835 C   0  0  0  0  0  0  0  0  0  0  0  0
  -23.1189   -4.3504   19.8961 C   0  0  0  0  0  0  0  0  0  0  0  0
  -31.2392  -12.3897   24.6250 C   0  0  0  0  0  0  0  0  0  0  0  0
  -31.4210  -18.0151   27.8137 C   0  0  0  0  0  0  0  0  0  0  0  0
  -20.7534   -4.4748   19.4204 C   0  0  0  0  0  0  0  0  0  0  0  0
  -23.8517  -10.4971   21.0841 C   0  0  0  0  0  0  0  0  0  0  0  0
  -32.0886  -12.0460   25.6768 C   0  0  0  0  0  0  0  0  0  0  0  0
  -24.1773  -13.0180   20.8689 C   0  0  0  0  0  0  0  0  0  0  0  0
  -33.2057  -26.0027   29.8158 C   0  0  0  0  0  0  0  0  0  0  0  0
  -33.1814  -19.6762   27.7789 C   0  0  0  0  0  0  0  0  0  0  0  0
  -32.5641  -24.7588   29.6626 C   0  0  0  0  0  0  0  0  0  0  0  0
  -32.0624  -19.0867   27.1738 C   0  0  0  0  0  0  0  0  0  0  0  0
  -31.7113  -12.3709   23.3126 C   0  0  0  0  0  0  0  0  0  0  0  0
  -22.3607   -8.1991   21.6123 C   0  0  0  0  0  0  0  0  0  0  0  0
  -31.8938  -17.5284   29.0321 C   0  0  0  0  0  0  0  0  0  0  0  0
  -21.7528   -6.0162   20.9896 C   0  0  0  0  0  0  0  0  0  0  0  0
  -21.9973   -3.8781   19.2145 C   0  0  0  0  0  0  0  0  0  0  0  0
  -20.6312   -5.5439   20.3080 C   0  0  0  0  0  0  0  0  0  0  0  0
  -24.6223  -11.6837   20.8118 C   0  0  0  0  0  0  0  0  0  0  0  0
  -25.2797  -13.7626   20.5268 C   0  0  0  0  0  0  0  0  0  0  0  0
  -31.5871  -12.0656   27.0751 C   0  0  0  0  0  0  0  0  0  0  0  0
  -22.8832  -13.5380   21.2015 C   0  0  0  0  0  0  0  0  0  0  0  0
  -32.0354  -22.4766   26.8051 C   0  0  0  0  0  0  0  0  0  0  0  0
  -32.1036  -21.0509   23.8922 C   0  0  0  0  0  0  0  0  0  0  0  0
  -32.0809  -18.1585   22.0810 C   0  0  0  0  0  0  0  0  0  0  0  0
  -31.1584  -12.7537   20.8848 C   0  0  0  0  0  0  0  0  0  0  0  0
  -33.1400  -27.0659   28.7482 C   0  0  0  0  0  0  0  0  0  0  0  0
  -33.9034  -20.8101   27.1041 C   0  0  0  0  0  0  0  0  0  0  0  0
  -31.5224  -19.5778   25.8563 C   0  0  0  0  0  0  0  0  0  0  0  0
  -32.7245  -26.5308   27.3803 C   0  0  0  0  0  0  0  0  0  0  0  0
  -29.3052  -13.5238   17.9438 C   0  0  0  0  0  0  0  0  0  0  0  0
  -31.5162  -25.6091   27.5121 C   0  0  0  0  0  0  0  0  0  0  0  0
  -27.8530  -13.2666   18.3525 C   0  0  0  0  0  0  0  0  0  0  0  0
  -30.2605  -12.5157   18.5800 C   0  0  0  0  0  0  0  0  0  0  0  0
  -28.7000  -12.1360   20.4481 C   0  0  0  0  0  0  0  0  0  0  0  0
  -31.8443  -24.3906   28.3834 C   0  0  1  0  0  0  0  0  0  0  0  0
  -33.0248  -21.5767   26.1203 C   0  0  1  0  0  0  0  0  0  0  0  0
  -27.7079  -13.1660   19.8837 C   0  0  2  0  0  0  0  0  0  0  0  0
  -32.1069  -17.3136   19.7183 C   0  0  0  0  0  0  0  0  0  0  0  0
  -29.1632  -21.8084   23.5915 C   0  0  0  0  0  0  0  0  0  0  0  0
  -29.0022  -20.1589   21.7149 C   0  0  0  0  0  0  0  0  0  0  0  0
  -30.5366  -22.1165   21.5243 C   0  0  0  0  0  0  0  0  0  0  0  0
  -34.6316  -16.7177   22.5016 C   0  0  0  0  0  0  0  0  0  0  0  0
  -30.6553  -14.1728   29.4629 C   0  0  0  0  0  0  0  0  0  0  0  0
  -29.9626  -13.0911   28.6452 C   0  0  0  0  0  0  0  0  0  0  0  0
  -30.6073  -15.5422   28.7961 C   0  0  0  0  0  0  0  0  0  1  0  0
  -31.1349  -20.2202   23.0856 C   0  0  1  0  0  0  0  0  0  0  0  0
  -32.9487  -17.6844   20.9293 C   0  0  2  0  0  0  0  0  0  0  0  0
  -29.9680  -21.0678   22.5049 C   0  0  0  0  0  0  0  0  0  0  0  0
  -25.9072  -11.5832   20.4610 N   0  0  0  0  0  0  0  0  0  0  0  0
  -26.2789  -12.8639   20.2944 N   0  0  0  0  0  0  0  0  0  0  0  0
  -32.2592  -20.6929   25.2389 N   0  0  0  0  0  0  0  0  0  0  0  0
  -30.0691  -12.4779   20.0315 N   0  0  0  0  0  0  0  0  0  0  0  0
  -25.4820  -15.0917   20.4051 N   0  0  0  0  0  0  0  0  0  0  0  0
  -21.8637  -12.6337   21.5286 N   0  0  0  0  0  0  0  0  0  0  0  0
  -30.8488  -12.7203   22.2441 N   0  0  0  0  0  0  0  0  0  0  0  0
  -30.5390  -12.9406   27.3378 N   0  0  0  0  0  0  0  0  0  0  0  0
  -32.6128  -23.4229   27.6302 N   0  0  0  0  0  0  0  0  0  0  0  0
  -31.9311  -19.5292   22.0771 N   0  0  0  0  0  0  0  0  0  0  0  0
  -33.7404  -16.4889   21.3353 N   0  3  0  0  0  0  0  0  0  0  0  0
  -32.1202  -11.3440   27.9138 O   0  0  0  0  0  0  0  0  0  0  0  0
  -22.6338  -14.7674   21.1923 O   0  0  0  0  0  0  0  0  0  0  0  0
  -30.8370  -22.3247   26.5991 O   0  0  0  0  0  0  0  0  0  0  0  0
  -32.7055  -21.9786   23.3457 O   0  0  0  0  0  0  0  0  0  0  0  0
  -31.5824  -17.3895   22.8999 O   0  0  0  0  0  0  0  0  0  0  0  0
  -32.2766  -13.0279   20.4418 O   0  0  0  0  0  0  0  0  0  0  0  0
  -21.6333   -7.0781   21.8704 O   0  0  0  0  0  0  0  0  0  0  0  0
  -31.2629  -16.4875   29.6405 O   0  0  0  0  0  0  0  0  0  1  0  0
  -22.1151   -2.8524   18.3611 F   0  0  0  0  0  0  0  0  0  0  0  0
  -19.4338   -6.1139   20.5009 F   0  0  0  0  0  0  0  0  0  0  0  0
  1  2  1  0  0  0  0
  1  7  2  0  0  0  0
  2  8  2  0  0  0  0
  3  6  2  0  0  0  0
  3 10  1  0  0  0  0
  4 11  2  0  0  0  0
  4 19  1  0  0  0  0
  5 12  1  0  0  0  0
  5 19  2  0  0  0  0
  6 20  1  0  0  0  0
  7 22  1  0  0  0  0
  8 24  1  0  0  0  0
  9 13  2  0  0  0  0
  9 23  1  0  0  0  0
 10 26  2  0  0  0  0
 11 27  1  0  0  0  0
 12 27  2  0  0  0  0
 13 28  1  0  0  0  0
 14 15  2  0  0  0  0
 14 29  1  0  0  0  0
 15 30  1  0  0  0  0
 16 20  2  0  0  0  0
 16 26  1  0  0  0  0
 17 25  1  0  0  0  0
 17 28  2  0  0  0  0
 18 30  2  0  0  0  0
 18 31  1  0  0  0  0
 19 32  1  0  0  0  0
 20 34  1  0  0  0  0
 21 32  1  0  0  0  0
 21 33  2  0  0  0  0
 21 35  1  0  0  0  0
 22 24  2  0  0  0  0
 22 40  1  0  0  0  0
 23 25  2  0  0  0  0
 23 41  1  0  0  0  0
 24 49  1  0  0  0  0
 25 42  1  0  0  0  0
 26 69  1  0  0  0  0
 27 80  1  0  0  0  0
 28 81  1  0  0  0  0
 29 31  2  0  0  0  0
 29 80  1  0  0  0  0
 30 82  1  0  0  0  0
 31 83  1  0  0  0  0
 32 63  2  0  0  0  0
 33 64  1  0  0  0  0
 33 67  1  0  0  0  0
 34 70  1  0  0  0  0
 34 74  2  0  0  0  0
 35 68  1  0  0  0  0
 35 75  2  0  0  0  0
 36 50  1  0  0  0  0
 36 71  1  0  0  0  0
 36 76  2  0  0  0  0
 37 60  1  0  0  0  0
 37 65  1  0  0  0  0
 37 77  2  0  0  0  0
 38 61  1  0  0  0  0
 38 72  1  0  0  0  0
 38 78  2  0  0  0  0
 39 66  1  0  0  0  0
 39 69  1  0  0  0  0
 39 79  2  0  0  0  0
 40 43  1  0  0  0  0
 41 50  1  0  0  0  0
 42 65  1  0  0  0  0
 43 45  1  0  0  0  0
 44 46  1  0  0  0  0
 44 47  1  0  0  0  0
 45 49  1  0  0  0  0
 46 51  1  0  0  0  0
 47 66  1  0  0  0  0
 48 51  1  0  0  0  0
 48 66  1  0  0  0  0
 49 71  1  0  0  0  0
 50 65  1  0  0  0  0
 51 64  1  0  0  0  0
 52 61  1  0  0  0  0
 53 62  1  0  0  0  0
 54 62  1  0  0  0  0
 55 62  1  0  0  0  0
 56 73  1  0  0  0  0
 57 58  1  0  0  0  0
 57 59  1  0  0  0  0
 58 70  1  0  0  0  0
 59 81  1  0  0  0  0
 60 62  1  0  0  0  0
 60 72  1  0  0  0  0
 61 73  1  0  0  0  0
 63 64  1  0  0  0  0
M  CHG  1  73   1
M  ISO  4  39 100  59 101  69 100  81 101
M  END
> <Batch ID>
0098

> <Smiles>
CNC(C)C(=O)NC(C(=O)N1Cc2cc([101O:1][101CH2:1]CCNC(=O)c3cccc([100NH:0][100C:0](=O)N4CCCC(n5nc(-c6ccc(Oc7ccc(F)cc7F)cc6)c(C(N)=O)c5N)C4)c3)ccc2CC1C(=O)NC1CCCc2ccccc21)C(C)(C)C

> <Shape>
0.142

> <Color>
0.167

> <Negative vol penalty>
0.000

$$$$

  -OEChem-04052300513D

 86 95  0     1  0  0  0  0  0999 V2000
  -19.0599  -15.4874   19.1586 C   0  0  0  0  0  0  0  0  0  0  0  0
  -19.9883  -16.5229   19.1930 C   0  0  0  0  0  0  0  0  0  0  0  0
  -30.8768  -23.4836   17.4129 C   0  0  0  0  0  0  0  0  0  0  0  0
  -23.4277  -28.5442   23.4579 C   0  0  0  0  0  0  0  0  0  0  0  0
  -22.3314  -29.4024   21.4835 C   0  0  0  0  0  0  0  0  0  0  0  0
  -19.4009  -14.2302   19.6556 C   0  0  0  0  0  0  0  0  0  0  0  0
  -21.2580  -16.3021   19.7254 C   0  0  0  0  0  0  0  0  0  0  0  0
  -26.5225  -18.8084   17.8523 C   0  0  0  0  0  0  0  0  0  0  0  0
  -31.0606  -22.8077   18.6191 C   0  0  0  0  0  0  0  0  0  0  0  0
  -30.3342  -24.7687   17.4092 C   0  0  0  0  0  0  0  0  0  0  0  0
  -22.2157  -28.0147   23.9009 C   0  0  0  0  0  0  0  0  0  0  0  0
  -21.1193  -28.8729   21.9264 C   0  0  0  0  0  0  0  0  0  0  0  0
  -27.2672  -19.8886   18.3238 C   0  0  0  0  0  0  0  0  0  0  0  0
  -18.7148  -29.6831   24.1608 C   0  0  0  0  0  0  0  0  0  0  0  0
  -17.5832  -30.4941   24.0745 C   0  0  0  0  0  0  0  0  0  0  0  0
  -28.6506  -18.3735   19.5925 C   0  0  0  0  0  0  0  0  0  0  0  0
  -16.5314  -28.8719   22.6255 C   0  0  0  0  0  0  0  0  0  0  0  0
  -23.4856  -29.2381   22.2492 C   0  0  0  0  0  0  0  0  0  0  0  0
  -25.5382  -30.7398   22.4472 C   0  0  0  0  0  0  0  0  0  0  0  0
  -20.6786  -13.9912   20.1856 C   0  0  0  0  0  0  0  0  0  0  0  0
  -26.8300  -17.5013   18.2566 C   0  0  0  0  0  0  0  0  0  0  0  0
  -21.6160  -15.0408   20.2312 C   0  0  0  0  0  0  0  0  0  0  0  0
  -27.9100  -17.2781   19.1227 C   0  0  0  0  0  0  0  0  0  0  0  0
  -30.1590  -24.7017   19.8178 C   0  0  0  0  0  0  0  0  0  0  0  0
  -30.7016  -23.4167   19.8216 C   0  0  0  0  0  0  0  0  0  0  0  0
  -29.9753  -25.3777   18.6116 C   0  0  0  0  0  0  0  0  0  0  0  0
  -21.0615  -28.1790   23.1351 C   0  0  0  0  0  0  0  0  0  0  0  0
  -28.3296  -19.6716   19.1963 C   0  0  0  0  0  0  0  0  0  0  0  0
  -18.7548  -28.4666   23.4795 C   0  0  0  0  0  0  0  0  0  0  0  0
  -16.4915  -30.0885   23.3069 C   0  0  0  0  0  0  0  0  0  0  0  0
  -17.6630  -28.0610   22.7119 C   0  0  0  0  0  0  0  0  0  0  0  0
  -24.7372  -29.7857   21.7915 C   0  0  0  0  0  0  0  0  0  0  0  0
  -26.6097  -30.9237   21.6078 C   0  0  0  0  0  0  0  0  0  0  0  0
  -31.2693  -21.4517   23.5285 C   0  0  0  0  0  0  0  0  0  0  0  0
  -25.3322  -31.4006   23.7028 C   0  0  0  0  0  0  0  0  0  0  0  0
  -25.2866  -15.2243   19.8493 C   0  0  0  0  0  0  0  0  0  0  0  0
  -27.8892  -13.4539   19.0655 C   0  0  0  0  0  0  0  0  0  0  0  0
  -31.4618  -13.9398   18.9329 C   0  0  0  0  0  0  0  0  0  0  0  0
  -29.1873  -27.4767   17.4630 C   0  0  0  0  0  0  0  0  0  0  0  0
  -20.9854  -12.6284   20.7543 C   0  0  0  0  0  0  0  0  0  0  0  0
  -26.0339  -16.3444   17.7179 C   0  0  0  0  0  0  0  0  0  0  0  0
  -28.2937  -15.8924   19.5710 C   0  0  0  0  0  0  0  0  0  0  0  0
  -32.4078  -22.2181   22.9073 C   0  0  0  0  0  0  0  0  0  0  0  0
  -29.8837  -21.8842   23.1177 C   0  0  0  0  0  0  0  0  0  0  0  0
  -22.4769  -12.3755   20.9591 C   0  0  0  0  0  0  0  0  0  0  0  0
  -27.8165  -30.7268   16.9776 C   0  0  0  0  0  0  0  0  0  0  0  0
  -23.1324  -13.5720   21.6414 C   0  0  0  0  0  0  0  0  0  0  0  0
  -26.9490  -30.9436   18.2196 C   0  0  0  0  0  0  0  0  0  0  0  0
  -32.2511  -22.3003   21.3951 C   0  0  0  0  0  0  0  0  0  0  0  0
  -27.7703  -29.2765   16.4996 C   0  0  0  0  0  0  0  0  0  0  0  0
  -27.2166  -28.4911   18.7680 C   0  0  0  0  0  0  0  0  0  0  0  0
  -23.0117  -14.8337   20.7783 C   0  0  1  0  0  0  0  0  0  0  0  0
  -26.1128  -15.1024   18.6003 C   0  0  1  0  0  0  0  0  0  0  0  0
  -27.2823  -29.9225   19.3250 C   0  0  2  0  0  0  0  0  0  0  0  0
  -29.7533  -21.9803   21.5954 C   0  0  2  0  0  0  0  0  0  0  0  0
  -29.7746  -25.3556   21.1089 C   0  0  0  0  0  0  0  0  0  0  0  0
  -33.2097  -12.8184   17.5240 C   0  0  0  0  0  0  0  0  0  0  0  0
  -28.2054  -11.5868   21.4581 C   0  0  0  0  0  0  0  0  0  0  0  0
  -30.6732  -11.5772   21.0359 C   0  0  0  0  0  0  0  0  0  0  0  0
  -29.1103  -10.6882   19.3068 C   0  0  0  0  0  0  0  0  0  0  0  0
  -32.4428  -16.5276   17.8842 C   0  0  0  0  0  0  0  0  0  0  0  0
  -29.6401  -20.5919   20.9545 C   0  0  0  0  0  0  0  0  0  1  0  0
  -29.2294  -13.1821   19.7051 C   0  0  1  0  0  0  0  0  0  0  0  0
  -32.3195  -14.0409   17.6844 C   0  0  2  0  0  0  0  0  0  0  0  0
  -29.2907  -11.7831   20.3808 C   0  0  0  0  0  0  0  0  0  0  0  0
  -25.2555  -29.3912   20.6254 N   0  0  0  0  0  0  0  0  0  0  0  0
  -26.3936  -30.1010   20.5417 N   0  0  0  0  0  0  0  0  0  0  0  0
  -30.8953  -22.7218   21.0216 N   0  0  2  0  0  0  0  0  0  0  0  0
  -27.4810  -14.7945   19.0217 N   0  0  0  0  0  0  0  0  0  0  0  0
  -28.1010  -28.3669   17.5987 N   0  0  0  0  0  0  0  0  0  0  0  0
  -27.7062  -31.7075   21.6850 N   0  0  0  0  0  0  0  0  0  0  0  0
  -24.6297  -32.6134   23.7122 N   0  0  0  0  0  0  0  0  0  0  0  0
  -29.4266  -26.6838   18.5849 N   0  0  0  0  0  0  0  0  0  0  0  0
  -23.9785  -14.8041   19.7018 N   0  0  0  0  0  0  0  0  0  0  0  0
  -30.2285  -13.3861   18.6618 N   0  0  0  0  0  0  0  0  0  0  0  0
  -33.1885  -15.2498   17.7495 N   0  3  0  0  0  0  0  0  0  0  0  0
  -31.4547  -20.5975   24.3928 O   0  0  0  0  0  0  0  0  0  0  0  0
  -25.7726  -30.9378   24.7823 O   0  0  0  0  0  0  0  0  0  0  0  0
  -25.7984  -15.6655   20.8716 O   0  0  0  0  0  0  0  0  0  0  0  0
  -27.2321  -12.5123   18.6148 O   0  0  0  0  0  0  0  0  0  0  0  0
  -31.8488  -14.3112   20.0387 O   0  0  0  0  0  0  0  0  0  0  0  0
  -29.8729  -27.4411   16.4380 O   0  0  0  0  0  0  0  0  0  0  0  0
  -19.8786  -27.6623   23.5669 O   0  0  0  0  0  0  0  0  0  0  0  0
  -29.0576  -20.7242   19.6586 O   0  0  0  0  0  0  0  0  0  1  0  0
  -15.4043  -30.8666   23.2253 F   0  0  0  0  0  0  0  0  0  0  0  0
  -17.6951  -26.8929   22.0560 F   0  0  0  0  0  0  0  0  0  0  0  0
  1  2  1  0  0  0  0
  1  6  2  0  0  0  0
  2  7  2  0  0  0  0
  3  9  2  0  0  0  0
  3 10  1  0  0  0  0
  4 11  2  0  0  0  0
  4 18  1  0  0  0  0
  5 12  1  0  0  0  0
  5 18  2  0  0  0  0
  6 20  1  0  0  0  0
  7 22  1  0  0  0  0
  8 13  2  0  0  0  0
  8 21  1  0  0  0  0
  9 25  1  0  0  0  0
 10 26  2  0  0  0  0
 11 27  1  0  0  0  0
 12 27  2  0  0  0  0
 13 28  1  0  0  0  0
 14 15  2  0  0  0  0
 14 29  1  0  0  0  0
 15 30  1  0  0  0  0
 16 23  1  0  0  0  0
 16 28  2  0  0  0  0
 17 30  2  0  0  0  0
 17 31  1  0  0  0  0
 18 32  1  0  0  0  0
 19 32  1  0  0  0  0
 19 33  2  0  0  0  0
 19 35  1  0  0  0  0
 20 22  2  0  0  0  0
 20 40  1  0  0  0  0
 21 23  2  0  0  0  0
 21 41  1  0  0  0  0
 22 52  1  0  0  0  0
 23 42  1  0  0  0  0
 24 25  2  0  0  0  0
 24 26  1  0  0  0  0
 24 56  1  0  0  0  0
 25 68  1  0  0  0  0
 26 73  1  0  0  0  0
 27 83  1  0  0  0  0
 28 84  1  0  0  0  0
 29 31  2  0  0  0  0
 29 83  1  0  0  0  0
 30 85  1  0  0  0  0
 31 86  1  0  0  0  0
 32 66  2  0  0  0  0
 33 67  1  0  0  0  0
 33 71  1  0  0  0  0
 34 43  1  0  0  0  0
 34 44  1  0  0  0  0
 34 77  2  0  0  0  0
 35 72  1  0  0  0  0
 35 78  2  0  0  0  0
 36 53  1  0  0  0  0
 36 74  1  0  0  0  0
 36 79  2  0  0  0  0
 37 63  1  0  0  0  0
 37 69  1  0  0  0  0
 37 80  2  0  0  0  0
 38 64  1  0  0  0  0
 38 75  1  0  0  0  0
 38 81  2  0  0  0  0
 39 70  1  0  0  0  0
 39 73  1  0  0  0  0
 39 82  2  0  0  0  0
 40 45  1  0  0  0  0
 41 53  1  0  0  0  0
 42 69  1  0  0  0  0
 43 49  1  0  0  0  0
 44 55  1  0  0  0  0
 45 47  1  0  0  0  0
 46 48  1  0  0  0  0
 46 50  1  0  0  0  0
 47 52  1  0  0  0  0
 48 54  1  0  0  0  0
 49 68  1  0  0  0  0
 50 70  1  0  0  0  0
 51 54  1  0  0  0  0
 51 70  1  0  0  0  0
 52 74  1  0  0  0  0
 53 69  1  0  0  0  0
 54 67  1  0  0  0  0
 55 62  1  0  0  0  0
 55 68  1  0  0  0  0
 57 64  1  0  0  0  0
 58 65  1  0  0  0  0
 59 65  1  0  0  0  0
 60 65  1  0  0  0  0
 61 76  1  0  0  0  0
 62 84  1  0  0  0  0
 63 65  1  0  0  0  0
 63 75  1  0  0  0  0
 64 76  1  0  0  0  0
 66 67  1  0  0  0  0
M  CHG  1  76   1
M  ISO  4  39 100  62 101  73 100  84 101
M  END
> <Batch ID>
0098

> <Smiles>
CNC(C)C(=O)NC(C(=O)N1Cc2cc([101O:1][101CH2:1]C3CC(=O)CCN3c3cccc([100NH:0][100C:0](=O)N4CCCC(n5nc(-c6ccc(Oc7ccc(F)cc7F)cc6)c(C(N)=O)c5N)C4)c3C)ccc2CC1C(=O)NC1CCCc2ccccc21)C(C)(C)C

> <Shape>
0.312

> <Color>
0.069

> <Negative vol penalty>
0.000

$$$$

  -OEChem-04052300513D

 85 93  0     1  0  0  0  0  0999 V2000
  -26.0688  -38.4377   25.8550 C   0  0  0  0  0  0  0  0  0  0  0  0
  -25.9035  -37.2739   26.5991 C   0  0  0  0  0  0  0  0  0  0  0  0
  -26.4868  -13.8509   21.5432 C   0  0  0  0  0  0  0  0  0  0  0  0
  -26.3216  -13.8724   19.1330 C   0  0  0  0  0  0  0  0  0  0  0  0
  -25.6218  -38.4894   24.5354 C   0  0  0  0  0  0  0  0  0  0  0  0
  -25.2900  -36.1614   26.0242 C   0  0  0  0  0  0  0  0  0  0  0  0
  -26.6080  -30.2746   27.0798 C   0  0  0  0  0  0  0  0  0  0  0  0
  -25.6386  -12.7447   21.5915 C   0  0  0  0  0  0  0  0  0  0  0  0
  -25.4735  -12.7661   19.1812 C   0  0  0  0  0  0  0  0  0  0  0  0
  -26.0188  -29.3141   27.9009 C   0  0  0  0  0  0  0  0  0  0  0  0
  -23.8053   -9.6931   22.3277 C   0  0  0  0  0  0  0  0  0  0  0  0
  -24.1605   -8.6399   23.1704 C   0  0  0  0  0  0  0  0  0  0  0  0
  -27.7360  -23.0837   26.3318 C   0  0  0  0  0  0  0  0  0  0  0  0
  -25.3471  -22.7247   26.3605 C   0  0  0  0  0  0  0  0  0  0  0  0
  -24.7397  -28.5026   26.0235 C   0  0  0  0  0  0  0  0  0  0  0  0
  -26.2216   -8.3529   21.9429 C   0  0  0  0  0  0  0  0  0  0  0  0
  -26.8283  -14.4149   20.3139 C   0  0  0  0  0  0  0  0  0  0  0  0
  -26.4918  -23.2820   26.9303 C   0  0  0  0  0  0  0  0  0  0  0  0
  -29.1084  -15.5494   20.1669 C   0  0  0  0  0  0  0  0  0  0  0  0
  -25.0113  -37.3738   23.9410 C   0  0  0  0  0  0  0  0  0  0  0  0
  -26.2587  -30.3635   25.7246 C   0  0  0  0  0  0  0  0  0  0  0  0
  -24.8332  -36.1987   24.6958 C   0  0  0  0  0  0  0  0  0  0  0  0
  -25.3278  -29.4635   25.1868 C   0  0  0  0  0  0  0  0  0  0  0  0
  -27.8356  -22.3282   25.1634 C   0  0  0  0  0  0  0  0  0  0  0  0
  -25.1320  -12.2022   20.4105 C   0  0  0  0  0  0  0  0  0  0  0  0
  -25.0824  -28.4298   27.3734 C   0  0  0  0  0  0  0  0  0  0  0  0
  -24.6582  -10.0762   21.2926 C   0  0  0  0  0  0  0  0  0  0  0  0
  -25.4466  -21.9692   25.1922 C   0  0  0  0  0  0  0  0  0  0  0  0
  -26.6908  -21.7709   24.5937 C   0  0  0  0  0  0  0  0  0  0  0  0
  -25.3686   -7.9698   22.9780 C   0  0  0  0  0  0  0  0  0  0  0  0
  -25.8663   -9.4062   21.1002 C   0  0  0  0  0  0  0  0  0  0  0  0
  -27.7040  -15.5580   20.2634 C   0  0  0  0  0  0  0  0  0  0  0  0
  -29.4598  -16.8771   20.1538 C   0  0  0  0  0  0  0  0  0  0  0  0
  -26.3858  -24.0868   28.1745 C   0  0  0  0  0  0  0  0  0  0  0  0
  -30.0143  -14.4404   20.0954 C   0  0  0  0  0  0  0  0  0  0  0  0
  -24.9239  -32.5929   23.8939 C   0  0  0  0  0  0  0  0  0  0  0  0
  -25.6102  -30.4969   21.5152 C   0  0  0  0  0  0  0  0  0  0  0  0
  -26.2292  -27.2725   20.5841 C   0  0  0  0  0  0  0  0  0  0  0  0
  -26.6525  -21.7578   22.2469 C   0  0  0  0  0  0  0  0  0  0  0  0
  -24.5017  -37.4929   22.5265 C   0  0  0  0  0  0  0  0  0  0  0  0
  -26.9232  -31.3879   24.8462 C   0  0  0  0  0  0  0  0  0  0  0  0
  -24.9335  -29.5041   23.7337 C   0  0  0  0  0  0  0  0  0  0  0  0
  -24.1994  -36.1470   21.8726 C   0  0  0  0  0  0  0  0  0  0  0  0
  -27.8229  -21.1835   18.8915 C   0  0  0  0  0  0  0  0  0  0  0  0
  -23.4004  -35.2598   22.8220 C   0  0  0  0  0  0  0  0  0  0  0  0
  -28.0169  -19.6681   18.8456 C   0  0  0  0  0  0  0  0  0  0  0  0
  -26.6386  -21.5691   19.7723 C   0  0  0  0  0  0  0  0  0  0  0  0
  -26.9137  -19.5061   21.1215 C   0  0  0  0  0  0  0  0  0  0  0  0
  -24.1948  -34.9629   24.0996 C   0  0  1  0  0  0  0  0  0  0  0  0
  -26.1116  -31.7213   23.5982 C   0  0  1  0  0  0  0  0  0  0  0  0
  -28.1185  -19.0807   20.2647 C   0  0  1  0  0  0  0  0  0  0  0  0
  -26.7175  -25.8642   18.5653 C   0  0  0  0  0  0  0  0  0  0  0  0
  -22.6760  -30.6604   20.6945 C   0  0  0  0  0  0  0  0  0  0  0  0
  -23.0106  -28.5804   19.3418 C   0  0  0  0  0  0  0  0  0  0  0  0
  -24.2935  -30.6466   18.7872 C   0  0  0  0  0  0  0  0  0  0  0  0
  -28.8507  -26.4253   21.6654 C   0  0  0  0  0  0  0  0  0  0  0  0
  -23.9512  -20.1233   25.0806 C   0  0  0  0  0  0  0  0  0  0  0  0
  -24.9201  -25.5549   29.5355 C   0  0  0  0  0  0  0  0  0  0  0  0
  -25.2809  -27.0050   29.2672 C   0  0  0  0  0  0  0  0  0  1  0  0
  -24.8878  -29.3399   20.8684 C   0  0  1  0  0  0  0  0  0  0  0  0
  -27.3135  -26.6665   19.7115 C   0  0  2  0  0  0  0  0  0  0  0  0
  -23.7227  -29.8070   19.9508 C   0  0  0  0  0  0  0  0  0  0  0  0
  -27.1978  -16.7932   20.3086 N   0  0  0  0  0  0  0  0  0  0  0  0
  -28.2901  -17.5731   20.2402 N   0  0  0  0  0  0  0  0  0  0  0  0
  -25.6063  -30.5277   22.9169 N   0  0  0  0  0  0  0  0  0  0  0  0
  -26.7496  -20.9645   21.0991 N   0  0  0  0  0  0  0  0  0  0  0  0
  -29.1017  -22.1362   24.5689 N   0  0  0  0  0  0  0  0  0  0  0  0
  -30.6522  -17.5054   20.0769 N   0  0  0  0  0  0  0  0  0  0  0  0
  -29.4853  -13.1428   20.1208 N   0  0  0  0  0  0  0  0  0  0  0  0
  -25.1687  -24.7210   28.3895 N   0  0  0  0  0  0  0  0  0  0  0  0
  -25.1947  -33.9472   23.8485 N   0  0  0  0  0  0  0  0  0  0  0  0
  -25.9080  -28.5525   20.1846 N   0  0  0  0  0  0  0  0  0  0  0  0
  -28.1814  -25.7616   20.5171 N   0  3  0  0  0  0  0  0  0  0  0  0
  -27.3575  -24.1676   28.9214 O   0  0  0  0  0  0  0  0  0  0  0  0
  -31.2573  -14.5954   20.0279 O   0  0  0  0  0  0  0  0  0  0  0  0
  -23.8416  -32.0751   24.1432 O   0  0  0  0  0  0  0  0  0  0  0  0
  -26.1639  -31.3383   20.8031 O   0  0  0  0  0  0  0  0  0  0  0  0
  -25.7157  -26.6692   21.5237 O   0  0  0  0  0  0  0  0  0  0  0  0
  -26.4738  -22.9751   22.2338 O   0  0  0  0  0  0  0  0  0  0  0  0
  -24.3045  -11.1226   20.4573 O   0  0  0  0  0  0  0  0  0  0  0  0
  -26.7823  -21.0125   23.4222 O   0  0  0  0  0  0  0  0  0  0  0  0
  -24.3205  -21.4306   24.6463 O   0  0  0  0  0  0  0  0  0  0  0  0
  -24.5053  -27.4918   28.1728 O   0  0  0  0  0  0  0  0  0  1  0  0
  -25.7103   -6.9595   23.7883 F   0  0  0  0  0  0  0  0  0  0  0  0
  -26.6904   -9.7704   20.1082 F   0  0  0  0  0  0  0  0  0  0  0  0
  1  2  1  0  0  0  0
  1  5  2  0  0  0  0
  2  6  2  0  0  0  0
  3  8  2  0  0  0  0
  3 17  1  0  0  0  0
  4  9  1  0  0  0  0
  4 17  2  0  0  0  0
  5 20  1  0  0  0  0
  6 22  1  0  0  0  0
  7 10  2  0  0  0  0
  7 21  1  0  0  0  0
  8 25  1  0  0  0  0
  9 25  2  0  0  0  0
 10 26  1  0  0  0  0
 11 12  2  0  0  0  0
 11 27  1  0  0  0  0
 12 30  1  0  0  0  0
 13 18  1  0  0  0  0
 13 24  2  0  0  0  0
 14 18  2  0  0  0  0
 14 28  1  0  0  0  0
 15 23  1  0  0  0  0
 15 26  2  0  0  0  0
 16 30  2  0  0  0  0
 16 31  1  0  0  0  0
 17 32  1  0  0  0  0
 18 34  1  0  0  0  0
 19 32  1  0  0  0  0
 19 33  2  0  0  0  0
 19 35  1  0  0  0  0
 20 22  2  0  0  0  0
 20 40  1  0  0  0  0
 21 23  2  0  0  0  0
 21 41  1  0  0  0  0
 22 49  1  0  0  0  0
 23 42  1  0  0  0  0
 24 29  1  0  0  0  0
 24 67  1  0  0  0  0
 25 80  1  0  0  0  0
 26 83  1  0  0  0  0
 27 31  2  0  0  0  0
 27 80  1  0  0  0  0
 28 29  2  0  0  0  0
 28 82  1  0  0  0  0
 29 81  1  0  0  0  0
 30 84  1  0  0  0  0
 31 85  1  0  0  0  0
 32 63  2  0  0  0  0
 33 64  1  0  0  0  0
 33 68  1  0  0  0  0
 34 70  1  0  0  0  0
 34 74  2  0  0  0  0
 35 69  1  0  0  0  0
 35 75  2  0  0  0  0
 36 50  1  0  0  0  0
 36 71  1  0  0  0  0
 36 76  2  0  0  0  0
 37 60  1  0  0  0  0
 37 65  1  0  0  0  0
 37 77  2  0  0  0  0
 38 61  1  0  0  0  0
 38 72  1  0  0  0  0
 38 78  2  0  0  0  0
 39 66  1  0  0  0  0
 39 79  2  0  0  0  0
 39 81  1  0  0  0  0
 40 43  1  0  0  0  0
 41 50  1  0  0  0  0
 42 65  1  0  0  0  0
 43 45  1  0  0  0  0
 44 46  1  0  0  0  0
 44 47  1  0  0  0  0
 45 49  1  0  0  0  0
 46 51  1  0  0  0  0
 47 66  1  0  0  0  0
 48 51  1  0  0  0  0
 48 66  1  0  0  0  0
 49 71  1  0  0  0  0
 50 65  1  0  0  0  0
 51 64  1  0  0  0  0
 52 61  1  0  0  0  0
 53 62  1  0  0  0  0
 54 62  1  0  0  0  0
 55 62  1  0  0  0  0
 56 73  1  0  0  0  0
 57 82  1  0  0  0  0
 58 59  1  0  0  0  0
 58 70  1  0  0  0  0
 59 83  1  0  0  0  0
 60 62  1  0  0  0  0
 60 72  1  0  0  0  0
 61 73  1  0  0  0  0
 63 64  1  0  0  0  0
M  CHG  1  73   1
M  ISO  4  39 100  59 101  81 100  83 101
M  END
> <Batch ID>
0098

> <Smiles>
CNC(C)C(=O)NC(C(=O)N1Cc2cc([101O:1][101CH2:1]CNC(=O)c3cc(N)c([100O:0][100C:0](=O)N4CCCC(n5nc(-c6ccc(Oc7ccc(F)cc7F)cc6)c(C(N)=O)c5N)C4)c(OC)c3)ccc2CC1C(=O)NC1CCCc2ccccc21)C(C)(C)C

> <Shape>
0.264

> <Color>
0.066

> <Negative vol penalty>
0.000

$$$$

  -OEChem-04052300513D

 85 93  0     1  0  0  0  0  0999 V2000
  -26.1889  -33.2765   27.7964 C   0  0  0  0  0  0  0  0  0  0  0  0
  -26.7718  -32.2692   27.0343 C   0  0  0  0  0  0  0  0  0  0  0  0
  -23.8688   -9.8245   21.5630 C   0  0  0  0  0  0  0  0  0  0  0  0
  -24.4393  -10.9336   23.6321 C   0  0  0  0  0  0  0  0  0  0  0  0
  -24.8024  -33.4220   27.8141 C   0  0  0  0  0  0  0  0  0  0  0  0
  -25.9684  -31.4060   26.2902 C   0  0  0  0  0  0  0  0  0  0  0  0
  -27.2874  -28.9203   20.8507 C   0  0  0  0  0  0  0  0  0  0  0  0
  -23.3767   -8.7355   22.2823 C   0  0  0  0  0  0  0  0  0  0  0  0
  -23.9472   -9.8445   24.3515 C   0  0  0  0  0  0  0  0  0  0  0  0
  -27.7787  -27.6675   20.4863 C   0  0  0  0  0  0  0  0  0  0  0  0
  -20.5737   -7.9468   24.0010 C   0  0  0  0  0  0  0  0  0  0  0  0
  -19.3470   -7.4114   23.6083 C   0  0  0  0  0  0  0  0  0  0  0  0
  -25.5250  -26.9077   20.0830 C   0  0  0  0  0  0  0  0  0  0  0  0
  -32.4882  -17.6648   21.7557 C   0  0  0  0  0  0  0  0  0  0  0  0
  -30.3565  -19.0467   22.9084 C   0  0  0  0  0  0  0  0  0  0  0  0
  -20.4103   -5.2827   23.1896 C   0  0  0  0  0  0  0  0  0  0  0  0
  -24.4001  -10.9235   22.2379 C   0  0  0  0  0  0  0  0  0  0  0  0
  -24.1935  -13.1882   21.0820 C   0  0  0  0  0  0  0  0  0  0  0  0
  -23.9821  -32.5661   27.0623 C   0  0  0  0  0  0  0  0  0  0  0  0
  -25.9082  -29.1733   20.8445 C   0  0  0  0  0  0  0  0  0  0  0  0
  -24.5695  -31.5392   26.2989 C   0  0  0  0  0  0  0  0  0  0  0  0
  -25.0189  -28.1653   20.4454 C   0  0  0  0  0  0  0  0  0  0  0  0
  -31.5742  -16.9887   22.5637 C   0  0  0  0  0  0  0  0  0  0  0  0
  -30.5083  -17.6796   23.1401 C   0  0  0  0  0  0  0  0  0  0  0  0
  -32.3364  -19.0319   21.5240 C   0  0  0  0  0  0  0  0  0  0  0  0
  -23.4159   -8.7455   23.6766 C   0  0  0  0  0  0  0  0  0  0  0  0
  -26.8973  -26.6600   20.1052 C   0  0  0  0  0  0  0  0  0  0  0  0
  -21.7187   -7.1503   23.9879 C   0  0  0  0  0  0  0  0  0  0  0  0
  -31.2705  -19.7228   22.1004 C   0  0  0  0  0  0  0  0  0  0  0  0
  -19.2653   -6.0794   23.2026 C   0  0  0  0  0  0  0  0  0  0  0  0
  -21.6369   -5.8182   23.5823 C   0  0  0  0  0  0  0  0  0  0  0  0
  -24.9091  -12.0485   21.4953 C   0  0  0  0  0  0  0  0  0  0  0  0
  -25.1205  -13.9533   20.4173 C   0  0  0  0  0  0  0  0  0  0  0  0
  -22.8143  -13.5252   21.2811 C   0  0  0  0  0  0  0  0  0  0  0  0
  -23.7642  -29.9720   23.0511 C   0  0  0  0  0  0  0  0  0  0  0  0
  -21.7929  -30.2195   20.4869 C   0  0  0  0  0  0  0  0  0  0  0  0
  -21.0899  -29.3076   17.2742 C   0  0  0  0  0  0  0  0  0  0  0  0
  -31.0884  -14.3191   20.7359 C   0  0  0  0  0  0  0  0  0  0  0  0
  -22.4857  -32.7324   27.1502 C   0  0  0  0  0  0  0  0  0  0  0  0
  -25.3960  -30.5382   21.2146 C   0  0  0  0  0  0  0  0  0  0  0  0
  -23.5306  -28.3923   20.4022 C   0  0  0  0  0  0  0  0  0  0  0  0
  -21.7264  -32.0125   26.0387 C   0  0  0  0  0  0  0  0  0  0  0  0
  -29.1402  -13.5748   17.8503 C   0  0  0  0  0  0  0  0  0  0  0  0
  -22.2543  -30.5920   25.8650 C   0  0  0  0  0  0  0  0  0  0  0  0
  -27.7704  -13.2021   18.4199 C   0  0  0  0  0  0  0  0  0  0  0  0
  -30.2761  -13.0865   18.7467 C   0  0  0  0  0  0  0  0  0  0  0  0
  -28.8083  -13.1369   20.7258 C   0  0  0  0  0  0  0  0  0  0  0  0
  -23.7330  -30.5987   25.4588 C   0  0  1  0  0  0  0  0  0  0  0  0
  -23.9387  -30.5274   21.6659 C   0  0  1  0  0  0  0  0  0  0  0  0
  -27.6298  -13.6569   19.8851 C   0  0  2  0  0  0  0  0  0  0  0  0
  -29.5180  -16.9778   24.0106 C   0  0  0  0  0  0  0  0  0  0  0  0
  -19.3903  -29.6423   15.4586 C   0  0  0  0  0  0  0  0  0  0  0  0
  -19.8803  -28.3323   21.9327 C   0  0  0  0  0  0  0  0  0  0  0  0
  -18.7112  -27.9577   19.7507 C   0  0  0  0  0  0  0  0  0  0  0  0
  -18.7720  -30.2401   20.7554 C   0  0  0  0  0  0  0  0  0  0  0  0
  -23.0974  -30.4987   15.4548 C   0  0  0  0  0  0  0  0  0  0  0  0
  -31.7576  -15.5252   22.7992 C   0  0  0  0  0  0  0  0  0  0  0  0
  -28.6110  -23.4879   20.4605 C   0  0  0  0  0  0  0  0  0  0  0  0
  -29.8841  -22.9857   21.1327 C   0  0  0  0  0  0  0  0  0  0  0  0
  -28.5878  -25.0077   20.3659 C   0  0  0  0  0  0  0  0  0  1  0  0
  -29.8887  -21.4694   21.2663 C   0  0  0  0  0  0  0  0  0  0  0  0
  -20.8789  -29.2737   19.7458 C   0  0  1  0  0  0  0  0  0  0  0  0
  -20.7019  -30.1268   16.0566 C   0  0  2  0  0  0  0  0  0  0  0  0
  -19.5885  -28.9458   20.5487 C   0  0  0  0  0  0  0  0  0  0  0  0
  -26.1917  -12.0823   21.1241 N   0  0  0  0  0  0  0  0  0  0  0  0
  -26.2894  -13.2525   20.4705 N   0  0  0  0  0  0  0  0  0  0  0  0
  -23.0782  -29.7416   20.7792 N   0  0  0  0  0  0  0  0  0  0  0  0
  -30.0837  -13.5535   20.1218 N   0  0  0  0  0  0  0  0  0  0  0  0
  -33.2686  -19.7045   20.7038 N   0  0  0  0  0  0  0  0  0  0  0  0
  -25.0417  -15.1504   19.7982 N   0  0  0  0  0  0  0  0  0  0  0  0
  -22.0019  -12.6265   21.9859 N   0  0  0  0  0  0  0  0  0  0  0  0
  -23.8697  -30.9170   24.0537 N   0  0  0  0  0  0  0  0  0  0  0  0
  -20.6334  -29.8809   18.4422 N   0  0  0  0  0  0  0  0  0  0  0  0
  -30.8232  -14.7265   22.0377 N   0  0  0  0  0  0  0  0  0  0  0  0
  -21.7589  -30.0321   15.0102 N   0  3  0  0  0  0  0  0  0  0  0  0
  -22.3130  -14.5841   20.8327 O   0  0  0  0  0  0  0  0  0  0  0  0
  -23.5482  -28.7748   23.1992 O   0  0  0  0  0  0  0  0  0  0  0  0
  -21.3840  -31.3434   20.7887 O   0  0  0  0  0  0  0  0  0  0  0  0
  -21.7305  -28.2615   17.1967 O   0  0  0  0  0  0  0  0  0  0  0  0
  -32.1414  -14.6221   20.1646 O   0  0  0  0  0  0  0  0  0  0  0  0
  -22.9356   -7.6831   24.3789 O   0  0  0  0  0  0  0  0  0  0  0  0
  -27.3741  -25.4361   19.7496 O   0  0  0  0  0  0  0  0  0  1  0  0
  -31.1030  -21.0660   21.8842 O   0  0  0  0  0  0  0  0  0  0  0  0
  -18.0870   -5.5649   22.8270 F   0  0  0  0  0  0  0  0  0  0  0  0
  -22.7333   -5.0477   23.5688 F   0  0  0  0  0  0  0  0  0  0  0  0
  1  2  1  0  0  0  0
  1  5  2  0  0  0  0
  2  6  2  0  0  0  0
  3  8  2  0  0  0  0
  3 17  1  0  0  0  0
  4  9  1  0  0  0  0
  4 17  2  0  0  0  0
  5 19  1  0  0  0  0
  6 21  1  0  0  0  0
  7 10  2  0  0  0  0
  7 20  1  0  0  0  0
  8 26  1  0  0  0  0
  9 26  2  0  0  0  0
 10 27  1  0  0  0  0
 11 12  2  0  0  0  0
 11 28  1  0  0  0  0
 12 30  1  0  0  0  0
 13 22  1  0  0  0  0
 13 27  2  0  0  0  0
 14 23  2  0  0  0  0
 14 25  1  0  0  0  0
 15 24  2  0  0  0  0
 15 29  1  0  0  0  0
 16 30  2  0  0  0  0
 16 31  1  0  0  0  0
 17 32  1  0  0  0  0
 18 32  1  0  0  0  0
 18 33  2  0  0  0  0
 18 34  1  0  0  0  0
 19 21  2  0  0  0  0
 19 39  1  0  0  0  0
 20 22  2  0  0  0  0
 20 40  1  0  0  0  0
 21 48  1  0  0  0  0
 22 41  1  0  0  0  0
 23 24  1  0  0  0  0
 23 57  1  0  0  0  0
 24 51  1  0  0  0  0
 25 29  2  0  0  0  0
 25 69  1  0  0  0  0
 26 81  1  0  0  0  0
 27 82  1  0  0  0  0
 28 31  2  0  0  0  0
 28 81  1  0  0  0  0
 29 83  1  0  0  0  0
 30 84  1  0  0  0  0
 31 85  1  0  0  0  0
 32 65  2  0  0  0  0
 33 66  1  0  0  0  0
 33 70  1  0  0  0  0
 34 71  1  0  0  0  0
 34 76  2  0  0  0  0
 35 49  1  0  0  0  0
 35 72  1  0  0  0  0
 35 77  2  0  0  0  0
 36 62  1  0  0  0  0
 36 67  1  0  0  0  0
 36 78  2  0  0  0  0
 37 63  1  0  0  0  0
 37 73  1  0  0  0  0
 37 79  2  0  0  0  0
 38 68  1  0  0  0  0
 38 74  1  0  0  0  0
 38 80  2  0  0  0  0
 39 42  1  0  0  0  0
 40 49  1  0  0  0  0
 41 67  1  0  0  0  0
 42 44  1  0  0  0  0
 43 45  1  0  0  0  0
 43 46  1  0  0  0  0
 44 48  1  0  0  0  0
 45 50  1  0  0  0  0
 46 68  1  0  0  0  0
 47 50  1  0  0  0  0
 47 68  1  0  0  0  0
 48 72  1  0  0  0  0
 49 67  1  0  0  0  0
 50 66  1  0  0  0  0
 52 63  1  0  0  0  0
 53 64  1  0  0  0  0
 54 64  1  0  0  0  0
 55 64  1  0  0  0  0
 56 75  1  0  0  0  0
 57 74  1  0  0  0  0
 58 59  1  0  0  0  0
 58 60  1  0  0  0  0
 59 61  1  0  0  0  0
 60 82  1  0  0  0  0
 61 83  1  0  0  0  0
 62 64  1  0  0  0  0
 62 73  1  0  0  0  0
 63 75  1  0  0  0  0
 65 66  1  0  0  0  0
M  CHG  1  75   1
M  ISO  4  38 100  60 101  74 100  82 101
M  END
> <Batch ID>
0098

> <Smiles>
CNC(C)C(=O)NC(C(=O)N1Cc2cc([101O:1][101CH2:1]CCCOc3cc(C)c(C[100NH:0][100C:0](=O)N4CCCC(n5nc(-c6ccc(Oc7ccc(F)cc7F)cc6)c(C(N)=O)c5N)C4)cc3N)ccc2CC1C(=O)NC1CCCc2ccccc21)C(C)(C)C

> <Shape>
0.296

> <Color>
0.174

> <Negative vol penalty>
0.000

$$$$

  -OEChem-04052300513D

 83 91  0     1  0  0  0  0  0999 V2000
  -25.4862  -35.1939   22.2797 C   0  0  0  0  0  0  0  0  0  0  0  0
  -24.6821  -34.1537   22.7344 C   0  0  0  0  0  0  0  0  0  0  0  0
  -28.1888  -21.1175   24.1192 C   0  0  0  0  0  0  0  0  0  0  0  0
  -24.4264   -9.5537   21.2090 C   0  0  0  0  0  0  0  0  0  0  0  0
  -24.8454  -10.5061   23.3894 C   0  0  0  0  0  0  0  0  0  0  0  0
  -26.3691  -34.9799   21.2220 C   0  0  0  0  0  0  0  0  0  0  0  0
  -24.7597  -32.8990   22.1310 C   0  0  0  0  0  0  0  0  0  0  0  0
  -24.1796  -25.9242   23.6582 C   0  0  0  0  0  0  0  0  0  0  0  0
  -28.8595  -20.5287   23.0472 C   0  0  0  0  0  0  0  0  0  0  0  0
  -26.8004  -21.0194   24.2118 C   0  0  0  0  0  0  0  0  0  0  0  0
  -24.1156   -8.3305   21.8030 C   0  0  0  0  0  0  0  0  0  0  0  0
  -24.5346   -9.2829   23.9835 C   0  0  0  0  0  0  0  0  0  0  0  0
  -23.5102  -24.7794   23.2278 C   0  0  0  0  0  0  0  0  0  0  0  0
  -22.8623   -5.0576   22.7685 C   0  0  0  0  0  0  0  0  0  0  0  0
  -21.7296   -4.3840   22.3116 C   0  0  0  0  0  0  0  0  0  0  0  0
  -25.1290  -24.5046   21.4606 C   0  0  0  0  0  0  0  0  0  0  0  0
  -26.7536  -19.7440   22.1605 C   0  0  0  0  0  0  0  0  0  0  0  0
  -20.3534   -6.2633   22.9531 C   0  0  0  0  0  0  0  0  0  0  0  0
  -24.7914  -10.6415   22.0022 C   0  0  0  0  0  0  0  0  0  0  0  0
  -24.2265  -12.9595   21.0992 C   0  0  0  0  0  0  0  0  0  0  0  0
  -26.4645  -33.7193   20.6117 C   0  0  0  0  0  0  0  0  0  0  0  0
  -25.3244  -26.3747   22.9852 C   0  0  0  0  0  0  0  0  0  0  0  0
  -25.6438  -32.6682   21.0633 C   0  0  0  0  0  0  0  0  0  0  0  0
  -25.8126  -25.6539   21.8860 C   0  0  0  0  0  0  0  0  0  0  0  0
  -28.1419  -19.8420   22.0679 C   0  0  0  0  0  0  0  0  0  0  0  0
  -24.1697   -8.1951   23.1902 C   0  0  0  0  0  0  0  0  0  0  0  0
  -23.9832  -24.0711   22.1271 C   0  0  0  0  0  0  0  0  0  0  0  0
  -26.0828  -20.3328   23.2324 C   0  0  0  0  0  0  0  0  0  0  0  0
  -22.7406   -6.3340   23.3177 C   0  0  0  0  0  0  0  0  0  0  0  0
  -20.4751   -4.9868   22.4039 C   0  0  0  0  0  0  0  0  0  0  0  0
  -21.4861   -6.9369   23.4100 C   0  0  0  0  0  0  0  0  0  0  0  0
  -25.1131  -11.9051   21.3892 C   0  0  0  0  0  0  0  0  0  0  0  0
  -25.0173  -13.9253   20.5263 C   0  0  0  0  0  0  0  0  0  0  0  0
  -22.8144  -13.0571   21.3275 C   0  0  0  0  0  0  0  0  0  0  0  0
  -26.0981  -29.0164   21.3958 C   0  0  0  0  0  0  0  0  0  0  0  0
  -29.0319  -27.6355   21.3053 C   0  0  0  0  0  0  0  0  0  0  0  0
  -30.8947  -24.7788   21.4342 C   0  0  0  0  0  0  0  0  0  0  0  0
  -29.7141  -16.9377   20.4204 C   0  0  0  0  0  0  0  0  0  0  0  0
  -27.3996  -33.5487   19.4407 C   0  0  0  0  0  0  0  0  0  0  0  0
  -26.0504  -27.5962   23.4783 C   0  0  0  0  0  0  0  0  0  0  0  0
  -27.0490  -26.0842   21.1413 C   0  0  0  0  0  0  0  0  0  0  0  0
  -27.6910  -32.0891   19.1016 C   0  0  0  0  0  0  0  0  0  0  0  0
  -29.8006  -13.7223   18.8937 C   0  0  0  0  0  0  0  0  0  0  0  0
  -26.3991  -31.2785   19.0774 C   0  0  0  0  0  0  0  0  0  0  0  0
  -28.5194  -13.0482   19.3879 C   0  0  0  0  0  0  0  0  0  0  0  0
  -30.4241  -14.6074   19.9707 C   0  0  0  0  0  0  0  0  0  0  0  0
  -28.2313  -14.9362   21.0465 C   0  0  0  0  0  0  0  0  0  0  0  0
  -25.7170  -31.2863   20.4508 C   0  0  1  0  0  0  0  0  0  0  0  0
  -26.9107  -28.2543   22.4040 C   0  0  1  0  0  0  0  0  0  0  0  0
  -27.5357  -14.0771   19.9767 C   0  0  2  0  0  0  0  0  0  0  0  0
  -28.4211  -19.7767   19.5620 C   0  0  0  0  0  0  0  0  0  0  0  0
  -32.9495  -23.3407   21.5174 C   0  0  0  0  0  0  0  0  0  0  0  0
  -28.9812  -28.0187   18.2787 C   0  0  0  0  0  0  0  0  0  0  0  0
  -30.8648  -26.3781   18.1093 C   0  0  0  0  0  0  0  0  0  0  0  0
  -31.1827  -28.5151   19.3563 C   0  0  0  0  0  0  0  0  0  0  0  0
  -31.0175  -24.9235   24.3877 C   0  0  0  0  0  0  0  0  0  0  0  0
  -22.6041  -20.7265   22.2812 C   0  0  0  0  0  0  0  0  0  0  0  0
  -22.6440  -22.1894   22.6943 C   0  0  0  0  0  0  0  0  0  1  0  0
  -23.9989  -20.1479   22.1016 C   0  0  0  0  0  0  0  0  0  0  0  0
  -28.8592  -19.2130   20.9216 C   0  0  2  0  0  0  0  0  0  0  0  0
  -29.7428  -26.6961   20.3612 C   0  0  1  0  0  0  0  0  0  0  0  0
  -32.1476  -24.4278   22.2161 C   0  0  2  0  0  0  0  0  0  0  0  0
  -30.1684  -27.3947   19.0390 C   0  0  0  0  0  0  0  0  0  0  0  0
  -26.3708  -12.1755   21.0299 N   0  0  0  0  0  0  0  0  0  0  0  0
  -26.2802  -13.4107   20.5083 N   0  0  0  0  0  0  0  0  0  0  0  0
  -27.7201  -27.2885   21.6580 N   0  0  0  0  0  0  0  0  0  0  0  0
  -29.4395  -15.5617   20.4864 N   0  0  0  0  0  0  0  0  0  0  0  0
  -24.7486  -15.1561   20.0411 N   0  0  0  0  0  0  0  0  0  0  0  0
  -22.1578  -11.9733   21.9262 N   0  0  0  0  0  0  0  0  0  0  0  0
  -26.3817  -30.3681   21.3505 N   0  0  0  0  0  0  0  0  0  0  0  0
  -30.8503  -26.1197   21.1158 N   0  0  0  0  0  0  0  0  0  0  0  0
  -28.7253  -17.7733   20.9252 N   0  0  0  0  0  0  0  0  0  0  0  0
  -31.7890  -23.9444   23.5795 N   0  3  0  0  0  0  0  0  0  0  0  0
  -22.1515  -14.0688   20.9949 O   0  0  0  0  0  0  0  0  0  0  0  0
  -25.2759  -28.4219   20.7086 O   0  0  0  0  0  0  0  0  0  0  0  0
  -29.6216  -28.6363   21.7204 O   0  0  0  0  0  0  0  0  0  0  0  0
  -30.0425  -23.9461   21.1326 O   0  0  0  0  0  0  0  0  0  0  0  0
  -30.7604  -17.3884   19.9417 O   0  0  0  0  0  0  0  0  0  0  0  0
  -23.8663   -7.0017   23.7702 O   0  0  0  0  0  0  0  0  0  0  0  0
  -23.3314  -22.9537   21.7046 O   0  0  0  0  0  0  0  0  0  1  0  0
  -24.7187  -20.2360   23.3239 O   0  0  0  0  0  0  0  0  0  0  0  0
  -19.3876   -4.3405   21.9637 F   0  0  0  0  0  0  0  0  0  0  0  0
  -21.3631   -8.1634   23.9356 F   0  0  0  0  0  0  0  0  0  0  0  0
  1  2  1  0  0  0  0
  1  6  2  0  0  0  0
  2  7  2  0  0  0  0
  3  9  1  0  0  0  0
  3 10  2  0  0  0  0
  4 11  2  0  0  0  0
  4 19  1  0  0  0  0
  5 12  1  0  0  0  0
  5 19  2  0  0  0  0
  6 21  1  0  0  0  0
  7 23  1  0  0  0  0
  8 13  2  0  0  0  0
  8 22  1  0  0  0  0
  9 25  2  0  0  0  0
 10 28  1  0  0  0  0
 11 26  1  0  0  0  0
 12 26  2  0  0  0  0
 13 27  1  0  0  0  0
 14 15  2  0  0  0  0
 14 29  1  0  0  0  0
 15 30  1  0  0  0  0
 16 24  1  0  0  0  0
 16 27  2  0  0  0  0
 17 25  1  0  0  0  0
 17 28  2  0  0  0  0
 18 30  2  0  0  0  0
 18 31  1  0  0  0  0
 19 32  1  0  0  0  0
 20 32  1  0  0  0  0
 20 33  2  0  0  0  0
 20 34  1  0  0  0  0
 21 23  2  0  0  0  0
 21 39  1  0  0  0  0
 22 24  2  0  0  0  0
 22 40  1  0  0  0  0
 23 48  1  0  0  0  0
 24 41  1  0  0  0  0
 25 60  1  0  0  0  0
 26 79  1  0  0  0  0
 27 80  1  0  0  0  0
 28 81  1  0  0  0  0
 29 31  2  0  0  0  0
 29 79  1  0  0  0  0
 30 82  1  0  0  0  0
 31 83  1  0  0  0  0
 32 64  2  0  0  0  0
 33 65  1  0  0  0  0
 33 68  1  0  0  0  0
 34 69  1  0  0  0  0
 34 74  2  0  0  0  0
 35 49  1  0  0  0  0
 35 70  1  0  0  0  0
 35 75  2  0  0  0  0
 36 61  1  0  0  0  0
 36 66  1  0  0  0  0
 36 76  2  0  0  0  0
 37 62  1  0  0  0  0
 37 71  1  0  0  0  0
 37 77  2  0  0  0  0
 38 67  1  0  0  0  0
 38 72  1  0  0  0  0
 38 78  2  0  0  0  0
 39 42  1  0  0  0  0
 40 49  1  0  0  0  0
 41 66  1  0  0  0  0
 42 44  1  0  0  0  0
 43 45  1  0  0  0  0
 43 46  1  0  0  0  0
 44 48  1  0  0  0  0
 45 50  1  0  0  0  0
 46 67  1  0  0  0  0
 47 50  1  0  0  0  0
 47 67  1  0  0  0  0
 48 70  1  0  0  0  0
 49 66  1  0  0  0  0
 50 65  1  0  0  0  0
 51 60  1  0  0  0  0
 52 62  1  0  0  0  0
 53 63  1  0  0  0  0
 54 63  1  0  0  0  0
 55 63  1  0  0  0  0
 56 73  1  0  0  0  0
 57 58  1  0  0  0  0
 57 59  1  0  0  0  0
 58 80  1  0  0  0  0
 59 81  1  0  0  0  0
 60 72  1  0  0  0  0
 61 63  1  0  0  0  0
 61 71  1  0  0  0  0
 62 73  1  0  0  0  0
 64 65  1  0  0  0  0
M  CHG  1  73   1
M  ISO  4  38 100  58 101  72 100  80 101
M  END
> <Batch ID>
0098

> <Smiles>
CNC(C)C(=O)NC(C(=O)N1Cc2cc([101O:1][101CH2:1]CCOc3cccc(C(C)[100NH:0][100C:0](=O)N4CCCC(n5nc(-c6ccc(Oc7ccc(F)cc7F)cc6)c(C(N)=O)c5N)C4)c3)ccc2CC1C(=O)NC1CCCc2ccccc21)C(C)(C)C

> <Shape>
0.244

> <Color>
0.100

> <Negative vol penalty>
0.000

$$$$

  -OEChem-04052300513D

 85 94  0     1  0  0  0  0  0999 V2000
  -29.9519  -24.5125   29.1317 C   0  0  0  0  0  0  0  0  0  0  0  0
  -30.0204  -24.3802   27.7485 C   0  0  0  0  0  0  0  0  0  0  0  0
  -23.2948   -9.6701   21.2291 C   0  0  0  0  0  0  0  0  0  0  0  0
  -24.0192  -10.5297   23.3677 C   0  0  0  0  0  0  0  0  0  0  0  0
  -28.9584  -25.3037   29.7068 C   0  0  0  0  0  0  0  0  0  0  0  0
  -29.0945  -25.0383   26.9396 C   0  0  0  0  0  0  0  0  0  0  0  0
  -31.2557  -27.3017   22.9583 C   0  0  0  0  0  0  0  0  0  0  0  0
  -30.8090  -19.1378   18.5484 C   0  0  0  0  0  0  0  0  0  0  0  0
  -30.7464  -17.8283   19.0248 C   0  0  0  0  0  0  0  0  0  0  0  0
  -22.6365   -8.6225   21.8731 C   0  0  0  0  0  0  0  0  0  0  0  0
  -23.3608   -9.4822   24.0117 C   0  0  0  0  0  0  0  0  0  0  0  0
  -31.6106  -26.4916   21.8805 C   0  0  0  0  0  0  0  0  0  0  0  0
  -20.1937   -8.7011   24.8948 C   0  0  0  0  0  0  0  0  0  0  0  0
  -19.4252   -9.0128   26.0164 C   0  0  0  0  0  0  0  0  0  0  0  0
  -29.6119  -27.1757   20.7159 C   0  0  0  0  0  0  0  0  0  0  0  0
  -29.0800  -18.4963   20.6416 C   0  0  0  0  0  0  0  0  0  0  0  0
  -20.7985   -7.5510   27.3634 C   0  0  0  0  0  0  0  0  0  0  0  0
  -23.9862  -10.6237   21.9764 C   0  0  0  0  0  0  0  0  0  0  0  0
  -24.1384  -12.9685   20.9832 C   0  0  0  0  0  0  0  0  0  0  0  0
  -28.0258  -25.9795   28.9042 C   0  0  0  0  0  0  0  0  0  0  0  0
  -30.0687  -28.0477   22.9274 C   0  0  0  0  0  0  0  0  0  0  0  0
  -28.0868  -25.8382   27.5046 C   0  0  0  0  0  0  0  0  0  0  0  0
  -29.2455  -27.9964   21.7934 C   0  0  0  0  0  0  0  0  0  0  0  0
  -29.1427  -19.8058   20.1652 C   0  0  0  0  0  0  0  0  0  0  0  0
  -30.0073  -20.1265   19.1186 C   0  0  0  0  0  0  0  0  0  0  0  0
  -29.8818  -17.5076   20.0714 C   0  0  0  0  0  0  0  0  0  0  0  0
  -22.6695   -8.5286   23.2644 C   0  0  0  0  0  0  0  0  0  0  0  0
  -30.7873  -26.4263   20.7603 C   0  0  0  0  0  0  0  0  0  0  0  0
  -21.2645   -7.8144   25.0075 C   0  0  0  0  0  0  0  0  0  0  0  0
  -19.7276   -8.4377   27.2507 C   0  0  0  0  0  0  0  0  0  0  0  0
  -21.5669   -7.2393   26.2418 C   0  0  0  0  0  0  0  0  0  0  0  0
  -24.6670  -11.7057   21.3116 C   0  0  0  0  0  0  0  0  0  0  0  0
  -25.1761  -13.6257   20.3686 C   0  0  0  0  0  0  0  0  0  0  0  0
  -30.4514  -22.6128   19.3425 C   0  0  0  0  0  0  0  0  0  0  0  0
  -22.8268  -13.4999   21.2134 C   0  0  0  0  0  0  0  0  0  0  0  0
  -27.4063  -28.0999   24.6631 C   0  0  0  0  0  0  0  0  0  0  0  0
  -26.7176  -30.6775   22.8181 C   0  0  0  0  0  0  0  0  0  0  0  0
  -27.2119  -32.3600   19.8903 C   0  0  0  0  0  0  0  0  0  0  0  0
  -30.5448  -15.0773   20.0997 C   0  0  0  0  0  0  0  0  0  0  0  0
  -26.9409  -26.7854   29.5736 C   0  0  0  0  0  0  0  0  0  0  0  0
  -29.7134  -28.9374   24.0870 C   0  0  0  0  0  0  0  0  0  0  0  0
  -27.9707  -28.7934   21.7022 C   0  0  0  0  0  0  0  0  0  0  0  0
  -26.2279  -27.7499   28.6293 C   0  0  0  0  0  0  0  0  0  0  0  0
  -29.6495  -11.9149   18.7306 C   0  0  0  0  0  0  0  0  0  0  0  0
  -25.8617  -27.0477   27.3256 C   0  0  0  0  0  0  0  0  0  0  0  0
  -28.2300  -11.6824   19.2530 C   0  0  0  0  0  0  0  0  0  0  0  0
  -29.6278  -23.2761   17.2104 C   0  0  0  0  0  0  0  0  0  0  0  0
  -30.5275  -12.6149   19.7664 C   0  0  0  0  0  0  0  0  0  0  0  0
  -29.8377  -21.7752   17.2223 C   0  0  0  0  0  0  0  0  0  0  0  0
  -28.5518  -13.6271   20.8347 C   0  0  0  0  0  0  0  0  0  0  0  0
  -27.1157  -26.5561   26.5926 C   0  0  1  0  0  0  0  0  0  0  0  0
  -30.5170  -23.7596   18.3468 C   0  0  1  0  0  0  0  0  0  0  0  0
  -28.2234  -29.2565   24.1607 C   0  0  1  0  0  0  0  0  0  0  0  0
  -27.6118  -12.9829   19.8027 C   0  0  2  0  0  0  0  0  0  0  0  0
  -28.2730  -20.8450   20.7949 C   0  0  0  0  0  0  0  0  0  0  0  0
  -26.4814  -34.4174   18.6531 C   0  0  0  0  0  0  0  0  0  0  0  0
  -24.0713  -29.3224   22.1320 C   0  0  0  0  0  0  0  0  0  0  0  0
  -23.8323  -30.9156   20.2155 C   0  0  0  0  0  0  0  0  0  0  0  0
  -23.9053  -31.7819   22.5536 C   0  0  0  0  0  0  0  0  0  0  0  0
  -29.9647  -33.4454   19.8355 C   0  0  0  0  0  0  0  0  0  0  0  0
  -30.0659  -25.0834   18.9349 C   0  0  0  0  0  0  0  0  0  1  0  0
  -26.0213  -30.8902   21.4956 C   0  0  1  0  0  0  0  0  0  0  0  0
  -27.5062  -33.8218   19.6060 C   0  0  2  0  0  0  0  0  0  0  0  0
  -24.4805  -30.7109   21.6014 C   0  0  0  0  0  0  0  0  0  0  0  0
  -25.9413  -11.5667   20.9364 N   0  0  0  0  0  0  0  0  0  0  0  0
  -26.2222  -12.7506   20.3659 N   0  0  0  0  0  0  0  0  0  0  0  0
  -30.0864  -21.4602   18.6167 N   0  0  0  0  0  0  0  0  0  0  0  0
  -27.6635  -29.6436   22.8642 N   0  0  0  0  0  0  0  0  0  0  0  0
  -29.8799  -13.8407   20.2387 N   0  0  0  0  0  0  0  0  0  0  0  0
  -25.2865  -14.8610   19.8354 N   0  0  0  0  0  0  0  0  0  0  0  0
  -21.8816  -12.6904   21.8580 N   0  0  0  0  0  0  0  0  0  0  0  0
  -29.8179  -16.1771   20.5545 N   0  0  0  0  0  0  0  0  0  0  0  0
  -27.7719  -27.6567   25.9198 N   0  0  0  0  0  0  0  0  0  0  0  0
  -26.4387  -32.2053   21.0215 N   0  0  0  0  0  0  0  0  0  0  0  0
  -28.8574  -33.9688   18.9947 N   0  3  0  0  0  0  0  0  0  0  0  0
  -30.7390  -22.7352   20.5244 O   0  0  0  0  0  0  0  0  0  0  0  0
  -22.4977  -14.6524   20.8431 O   0  0  0  0  0  0  0  0  0  0  0  0
  -26.5096  -27.6444   23.9631 O   0  0  0  0  0  0  0  0  0  0  0  0
  -26.4378  -31.4066   23.7730 O   0  0  0  0  0  0  0  0  0  0  0  0
  -27.6235  -31.4469   19.1781 O   0  0  0  0  0  0  0  0  0  0  0  0
  -31.6646  -15.1583   19.5882 O   0  0  0  0  0  0  0  0  0  0  0  0
  -22.0270   -7.5066   23.8932 O   0  0  0  0  0  0  0  0  0  0  0  0
  -31.1311  -25.6358   19.7072 O   0  0  0  0  0  0  0  0  0  1  0  0
  -18.9905   -8.7382   28.3280 F   0  0  0  0  0  0  0  0  0  0  0  0
  -22.5952   -6.3876   26.3565 F   0  0  0  0  0  0  0  0  0  0  0  0
  1  2  1  0  0  0  0
  1  5  2  0  0  0  0
  2  6  2  0  0  0  0
  3 10  2  0  0  0  0
  3 18  1  0  0  0  0
  4 11  1  0  0  0  0
  4 18  2  0  0  0  0
  5 20  1  0  0  0  0
  6 22  1  0  0  0  0
  7 12  2  0  0  0  0
  7 21  1  0  0  0  0
  8  9  2  0  0  0  0
  8 25  1  0  0  0  0
  9 26  1  0  0  0  0
 10 27  1  0  0  0  0
 11 27  2  0  0  0  0
 12 28  1  0  0  0  0
 13 14  2  0  0  0  0
 13 29  1  0  0  0  0
 14 30  1  0  0  0  0
 15 23  1  0  0  0  0
 15 28  2  0  0  0  0
 16 24  1  0  0  0  0
 16 26  2  0  0  0  0
 17 30  2  0  0  0  0
 17 31  1  0  0  0  0
 18 32  1  0  0  0  0
 19 32  1  0  0  0  0
 19 33  2  0  0  0  0
 19 35  1  0  0  0  0
 20 22  2  0  0  0  0
 20 40  1  0  0  0  0
 21 23  2  0  0  0  0
 21 41  1  0  0  0  0
 22 51  1  0  0  0  0
 23 42  1  0  0  0  0
 24 25  2  0  0  0  0
 24 55  1  0  0  0  0
 25 67  1  0  0  0  0
 26 72  1  0  0  0  0
 27 82  1  0  0  0  0
 28 83  1  0  0  0  0
 29 31  2  0  0  0  0
 29 82  1  0  0  0  0
 30 84  1  0  0  0  0
 31 85  1  0  0  0  0
 32 65  2  0  0  0  0
 33 66  1  0  0  0  0
 33 70  1  0  0  0  0
 34 52  1  0  0  0  0
 34 67  1  0  0  0  0
 34 76  2  0  0  0  0
 35 71  1  0  0  0  0
 35 77  2  0  0  0  0
 36 53  1  0  0  0  0
 36 73  1  0  0  0  0
 36 78  2  0  0  0  0
 37 62  1  0  0  0  0
 37 68  1  0  0  0  0
 37 79  2  0  0  0  0
 38 63  1  0  0  0  0
 38 74  1  0  0  0  0
 38 80  2  0  0  0  0
 39 69  1  0  0  0  0
 39 72  1  0  0  0  0
 39 81  2  0  0  0  0
 40 43  1  0  0  0  0
 41 53  1  0  0  0  0
 42 68  1  0  0  0  0
 43 45  1  0  0  0  0
 44 46  1  0  0  0  0
 44 48  1  0  0  0  0
 45 51  1  0  0  0  0
 46 54  1  0  0  0  0
 47 49  1  0  0  0  0
 47 52  1  0  0  0  0
 48 69  1  0  0  0  0
 49 67  1  0  0  0  0
 50 54  1  0  0  0  0
 50 69  1  0  0  0  0
 51 73  1  0  0  0  0
 52 61  1  0  0  0  0
 53 68  1  0  0  0  0
 54 66  1  0  0  0  0
 56 63  1  0  0  0  0
 57 64  1  0  0  0  0
 58 64  1  0  0  0  0
 59 64  1  0  0  0  0
 60 75  1  0  0  0  0
 61 83  1  0  0  0  0
 62 64  1  0  0  0  0
 62 74  1  0  0  0  0
 63 75  1  0  0  0  0
 65 66  1  0  0  0  0
M  CHG  1  75   1
M  ISO  4  39 100  61 101  72 100  83 101
M  END
> <Batch ID>
0098

> <Smiles>
CNC(C)C(=O)NC(C(=O)N1Cc2cc([101O:1][101CH2:1]C3CCN(c4ccc([100NH:0][100C:0](=O)N5CCCC(n6nc(-c7ccc(Oc8ccc(F)cc8F)cc7)c(C(N)=O)c6N)C5)cc4C)C3=O)ccc2CC1C(=O)NC1CCCc2ccccc21)C(C)(C)C

> <Shape>
0.288

> <Color>
0.154

> <Negative vol penalty>
0.000

$$$$

  -OEChem-04052300513D

 86 95  0     1  0  0  0  0  0999 V2000
  -27.1131  -29.1158   19.2891 C   0  0  0  0  0  0  0  0  0  0  0  0
  -26.9262  -27.8808   18.6786 C   0  0  0  0  0  0  0  0  0  0  0  0
  -30.4668  -20.2754   19.7377 C   0  0  0  0  0  0  0  0  0  0  0  0
  -28.1648  -19.9425   20.3915 C   0  0  0  0  0  0  0  0  0  0  0  0
  -26.8190  -29.2719   20.6420 C   0  0  0  0  0  0  0  0  0  0  0  0
  -26.4337  -26.8047   19.4178 C   0  0  0  0  0  0  0  0  0  0  0  0
  -24.0254  -19.3677   20.8718 C   0  0  0  0  0  0  0  0  0  0  0  0
  -22.6972  -13.7950   23.2709 C   0  0  0  0  0  0  0  0  0  0  0  0
  -24.8263  -14.0335   24.3876 C   0  0  0  0  0  0  0  0  0  0  0  0
  -22.1183  -14.6729   24.1872 C   0  0  0  0  0  0  0  0  0  0  0  0
  -24.2474  -14.9115   25.3039 C   0  0  0  0  0  0  0  0  0  0  0  0
  -30.1418  -21.5352   19.2348 C   0  0  0  0  0  0  0  0  0  0  0  0
  -27.8398  -21.2024   19.8886 C   0  0  0  0  0  0  0  0  0  0  0  0
  -23.8011  -18.4515   21.8985 C   0  0  0  0  0  0  0  0  0  0  0  0
  -29.5711  -24.6348   20.4595 C   0  0  0  0  0  0  0  0  0  0  0  0
  -30.4211  -25.6960   20.7708 C   0  0  0  0  0  0  0  0  0  0  0  0
  -22.3203  -20.0251   22.9710 C   0  0  0  0  0  0  0  0  0  0  0  0
  -30.8400  -26.0507   18.4180 C   0  0  0  0  0  0  0  0  0  0  0  0
  -29.4783  -19.4790   20.3160 C   0  0  0  0  0  0  0  0  0  0  0  0
  -30.7350  -17.8811   21.8570 C   0  0  0  0  0  0  0  0  0  0  0  0
  -26.3346  -28.1935   21.4004 C   0  0  0  0  0  0  0  0  0  0  0  0
  -23.4062  -20.6258   20.8927 C   0  0  0  0  0  0  0  0  0  0  0  0
  -26.1083  -26.9486   20.7787 C   0  0  0  0  0  0  0  0  0  0  0  0
  -22.5363  -20.9544   21.9421 C   0  0  0  0  0  0  0  0  0  0  0  0
  -24.0513  -13.4752   23.3711 C   0  0  0  0  0  0  0  0  0  0  0  0
  -22.8933  -15.2312   25.2037 C   0  0  0  0  0  0  0  0  0  0  0  0
  -28.8284  -21.9987   19.3103 C   0  0  0  0  0  0  0  0  0  0  0  0
  -22.9507  -18.7812   22.9498 C   0  0  0  0  0  0  0  0  0  0  0  0
  -29.3557  -24.2814   19.1274 C   0  0  0  0  0  0  0  0  0  0  0  0
  -31.0555  -26.4040   19.7501 C   0  0  0  0  0  0  0  0  0  0  0  0
  -29.9901  -24.9894   18.1067 C   0  0  0  0  0  0  0  0  0  0  0  0
  -29.8132  -18.1773   20.8351 C   0  0  0  0  0  0  0  0  0  0  0  0
  -30.6879  -16.5136   21.9761 C   0  0  0  0  0  0  0  0  0  0  0  0
  -21.2114  -17.8225   28.0986 C   0  0  0  0  0  0  0  0  0  0  0  0
  -31.5599  -18.7632   22.6297 C   0  0  0  0  0  0  0  0  0  0  0  0
  -24.4355  -23.6306   21.0152 C   0  0  0  0  0  0  0  0  0  0  0  0
  -21.2914  -24.3137   20.6028 C   0  0  0  0  0  0  0  0  0  0  0  0
  -18.1412  -23.0686   21.8450 C   0  0  0  0  0  0  0  0  0  0  0  0
  -26.4795  -12.4517   20.6947 C   0  0  0  0  0  0  0  0  0  0  0  0
  -26.0251  -28.4202   22.8592 C   0  0  0  0  0  0  0  0  0  0  0  0
  -23.6376  -21.5926   19.7639 C   0  0  0  0  0  0  0  0  0  0  0  0
  -21.8313  -22.2841   22.0009 C   0  0  0  0  0  0  0  0  0  0  0  0
  -20.6048  -16.4625   27.8713 C   0  0  0  0  0  0  0  0  0  0  0  0
  -22.6661  -17.9647   27.7252 C   0  0  0  0  0  0  0  0  0  0  0  0
  -25.9333  -27.1229   23.6560 C   0  0  0  0  0  0  0  0  0  0  0  0
  -29.8052  -12.5614   19.4281 C   0  0  0  0  0  0  0  0  0  0  0  0
  -25.0244  -26.1357   22.9391 C   0  0  0  0  0  0  0  0  0  0  0  0
  -30.2676  -13.9864   19.7373 C   0  0  0  0  0  0  0  0  0  0  0  0
  -20.8924  -15.9641   26.4617 C   0  0  0  0  0  0  0  0  0  0  0  0
  -28.3273  -12.5179   19.0462 C   0  0  0  0  0  0  0  0  0  0  0  0
  -27.8794  -14.5738   20.3294 C   0  0  0  0  0  0  0  0  0  0  0  0
  -25.6027  -25.7559   21.5701 C   0  0  1  0  0  0  0  0  0  0  0  0
  -23.3569  -23.0413   20.1510 C   0  0  1  0  0  0  0  0  0  0  0  0
  -29.3495  -14.6613   20.7741 C   0  0  2  0  0  0  0  0  0  0  0  0
  -22.9377  -17.4394   26.3132 C   0  0  2  0  0  0  0  0  0  0  0  0
  -15.8537  -23.0994   20.8136 C   0  0  0  0  0  0  0  0  0  0  0  0
  -20.9273  -26.8943   22.1897 C   0  0  0  0  0  0  0  0  0  0  0  0
  -18.5641  -26.2013   22.6410 C   0  0  0  0  0  0  0  0  0  0  0  0
  -19.3198  -26.5979   20.2970 C   0  0  0  0  0  0  0  0  0  0  0  0
  -17.8520  -20.1358   22.1174 C   0  0  0  0  0  0  0  0  0  0  0  0
  -24.6710  -12.5363   22.3922 C   0  0  0  0  0  0  0  0  0  0  0  0
  -22.4434  -18.4227   25.2455 C   0  0  0  0  0  0  0  0  0  1  0  0
  -20.1158  -24.5355   21.5236 C   0  0  1  0  0  0  0  0  0  0  0  0
  -17.1068  -22.2757   21.0666 C   0  0  2  0  0  0  0  0  0  0  0  0
  -19.7534  -26.0403   21.6702 C   0  0  0  0  0  0  0  0  0  0  0  0
  -29.2238  -17.0858   20.3400 N   0  0  0  0  0  0  0  0  0  0  0  0
  -29.7766  -16.0903   21.0538 N   0  0  0  0  0  0  0  0  0  0  0  0
  -22.3129  -16.1141   26.1225 N   0  0  2  0  0  0  0  0  0  0  0  0
  -22.0949  -23.1979   20.8770 N   0  0  0  0  0  0  0  0  0  0  0  0
  -27.5112  -13.1729   20.0713 N   0  0  0  0  0  0  0  0  0  0  0  0
  -31.3376  -15.6439   22.7786 N   0  0  0  0  0  0  0  0  0  0  0  0
  -31.0478  -19.2780   23.8285 N   0  0  0  0  0  0  0  0  0  0  0  0
  -24.6188  -24.9888   20.8383 N   0  0  0  0  0  0  0  0  0  0  0  0
  -19.0313  -23.7072   21.0077 N   0  0  0  0  0  0  0  0  0  0  0  0
  -25.7586  -13.1451   21.6593 N   0  0  0  0  0  0  0  0  0  0  0  0
  -16.7192  -21.0498   21.8202 N   0  3  0  0  0  0  0  0  0  0  0  0
  -20.5895  -18.7289   28.6489 O   0  0  0  0  0  0  0  0  0  0  0  0
  -32.7107  -19.0983   22.2597 O   0  0  0  0  0  0  0  0  0  0  0  0
  -25.0546  -22.9070   21.7865 O   0  0  0  0  0  0  0  0  0  0  0  0
  -21.4853  -25.0975   19.6702 O   0  0  0  0  0  0  0  0  0  0  0  0
  -18.1556  -23.1195   23.0729 O   0  0  0  0  0  0  0  0  0  0  0  0
  -26.2235  -11.2753   20.4164 O   0  0  0  0  0  0  0  0  0  0  0  0
  -28.5109  -23.2281   18.8200 O   0  0  0  0  0  0  0  0  0  0  0  0
  -22.7306  -17.8891   23.9535 O   0  0  0  0  0  0  0  0  0  1  0  0
  -31.8705  -27.4241   20.0491 F   0  0  0  0  0  0  0  0  0  0  0  0
  -29.7861  -24.6553   16.8251 F   0  0  0  0  0  0  0  0  0  0  0  0
  1  2  1  0  0  0  0
  1  5  2  0  0  0  0
  2  6  2  0  0  0  0
  3 12  2  0  0  0  0
  3 19  1  0  0  0  0
  4 13  1  0  0  0  0
  4 19  2  0  0  0  0
  5 21  1  0  0  0  0
  6 23  1  0  0  0  0
  7 14  2  0  0  0  0
  7 22  1  0  0  0  0
  8 10  2  0  0  0  0
  8 25  1  0  0  0  0
  9 11  1  0  0  0  0
  9 25  2  0  0  0  0
 10 26  1  0  0  0  0
 11 26  2  0  0  0  0
 12 27  1  0  0  0  0
 13 27  2  0  0  0  0
 14 28  1  0  0  0  0
 15 16  2  0  0  0  0
 15 29  1  0  0  0  0
 16 30  1  0  0  0  0
 17 24  1  0  0  0  0
 17 28  2  0  0  0  0
 18 30  2  0  0  0  0
 18 31  1  0  0  0  0
 19 32  1  0  0  0  0
 20 32  1  0  0  0  0
 20 33  2  0  0  0  0
 20 35  1  0  0  0  0
 21 23  2  0  0  0  0
 21 40  1  0  0  0  0
 22 24  2  0  0  0  0
 22 41  1  0  0  0  0
 23 52  1  0  0  0  0
 24 42  1  0  0  0  0
 25 61  1  0  0  0  0
 26 68  1  0  0  0  0
 27 83  1  0  0  0  0
 28 84  1  0  0  0  0
 29 31  2  0  0  0  0
 29 83  1  0  0  0  0
 30 85  1  0  0  0  0
 31 86  1  0  0  0  0
 32 66  2  0  0  0  0
 33 67  1  0  0  0  0
 33 71  1  0  0  0  0
 34 43  1  0  0  0  0
 34 44  1  0  0  0  0
 34 77  2  0  0  0  0
 35 72  1  0  0  0  0
 35 78  2  0  0  0  0
 36 53  1  0  0  0  0
 36 73  1  0  0  0  0
 36 79  2  0  0  0  0
 37 63  1  0  0  0  0
 37 69  1  0  0  0  0
 37 80  2  0  0  0  0
 38 64  1  0  0  0  0
 38 74  1  0  0  0  0
 38 81  2  0  0  0  0
 39 70  1  0  0  0  0
 39 75  1  0  0  0  0
 39 82  2  0  0  0  0
 40 45  1  0  0  0  0
 41 53  1  0  0  0  0
 42 69  1  0  0  0  0
 43 49  1  0  0  0  0
 44 55  1  0  0  0  0
 45 47  1  0  0  0  0
 46 48  1  0  0  0  0
 46 50  1  0  0  0  0
 47 52  1  0  0  0  0
 48 54  1  0  0  0  0
 49 68  1  0  0  0  0
 50 70  1  0  0  0  0
 51 54  1  0  0  0  0
 51 70  1  0  0  0  0
 52 73  1  0  0  0  0
 53 69  1  0  0  0  0
 54 67  1  0  0  0  0
 55 62  1  0  0  0  0
 55 68  1  0  0  0  0
 56 64  1  0  0  0  0
 57 65  1  0  0  0  0
 58 65  1  0  0  0  0
 59 65  1  0  0  0  0
 60 76  1  0  0  0  0
 61 75  1  0  0  0  0
 62 84  1  0  0  0  0
 63 65  1  0  0  0  0
 63 74  1  0  0  0  0
 64 76  1  0  0  0  0
 66 67  1  0  0  0  0
M  CHG  1  76   1
M  ISO  4  39 100  62 101  75 100  84 101
M  END
> <Batch ID>
0098

> <Smiles>
CNC(C)C(=O)NC(C(=O)N1Cc2cc([101O:1][101CH2:1]C3CC(=O)CCN3c3ccc(C[100NH:0][100C:0](=O)N4CCCC(n5nc(-c6ccc(Oc7ccc(F)cc7F)cc6)c(C(N)=O)c5N)C4)cc3)ccc2CC1C(=O)NC1CCCc2ccccc21)C(C)(C)C

> <Shape>
0.208

> <Color>
0.053

> <Negative vol penalty>
0.000

$$$$

  -OEChem-04052300513D

 84 92  0     1  0  0  0  0  0999 V2000
  -25.4178  -34.5712   19.4412 C   0  0  0  0  0  0  0  0  0  0  0  0
  -26.0394  -33.3770   19.7918 C   0  0  0  0  0  0  0  0  0  0  0  0
  -22.9322  -10.2115   20.2896 C   0  0  0  0  0  0  0  0  0  0  0  0
  -24.2620   -9.3319   22.1048 C   0  0  0  0  0  0  0  0  0  0  0  0
  -24.1688  -34.8881   19.9736 C   0  0  0  0  0  0  0  0  0  0  0  0
  -25.4129  -32.4995   20.6759 C   0  0  0  0  0  0  0  0  0  0  0  0
  -25.6498  -27.6836   19.1280 C   0  0  0  0  0  0  0  0  0  0  0  0
  -32.1344  -17.9516   21.0502 C   0  0  0  0  0  0  0  0  0  0  0  0
  -31.8221  -19.2587   20.6766 C   0  0  0  0  0  0  0  0  0  0  0  0
  -22.1506   -9.0563   20.3024 C   0  0  0  0  0  0  0  0  0  0  0  0
  -23.4804   -8.1767   22.1176 C   0  0  0  0  0  0  0  0  0  0  0  0
  -26.8546  -27.0101   19.3247 C   0  0  0  0  0  0  0  0  0  0  0  0
  -20.4528   -7.2326   23.2851 C   0  0  0  0  0  0  0  0  0  0  0  0
  -20.0299   -6.7518   24.5242 C   0  0  0  0  0  0  0  0  0  0  0  0
  -25.9336  -25.9474   21.2846 C   0  0  0  0  0  0  0  0  0  0  0  0
  -29.9208  -19.2304   22.1669 C   0  0  0  0  0  0  0  0  0  0  0  0
  -21.1862   -4.6709   24.1115 C   0  0  0  0  0  0  0  0  0  0  0  0
  -23.9880  -10.3493   21.1908 C   0  0  0  0  0  0  0  0  0  0  0  0
  -24.5785  -12.7244   21.9102 C   0  0  0  0  0  0  0  0  0  0  0  0
  -23.5223  -34.0095   20.8573 C   0  0  0  0  0  0  0  0  0  0  0  0
  -24.5797  -27.5021   20.0159 C   0  0  0  0  0  0  0  0  0  0  0  0
  -24.1546  -32.8055   21.2218 C   0  0  0  0  0  0  0  0  0  0  0  0
  -24.7154  -26.6178   21.0956 C   0  0  0  0  0  0  0  0  0  0  0  0
  -31.3399  -17.2839   21.9821 C   0  0  0  0  0  0  0  0  0  0  0  0
  -30.7153  -19.8981   21.2350 C   0  0  0  0  0  0  0  0  0  0  0  0
  -22.4247   -8.0389   21.2164 C   0  0  0  0  0  0  0  0  0  0  0  0
  -26.9976  -26.1441   20.4047 C   0  0  0  0  0  0  0  0  0  0  0  0
  -21.2423   -6.4325   22.4590 C   0  0  0  0  0  0  0  0  0  0  0  0
  -20.3966   -5.4710   24.9375 C   0  0  0  0  0  0  0  0  0  0  0  0
  -30.2331  -17.9233   22.5405 C   0  0  0  0  0  0  0  0  0  0  0  0
  -21.6091   -5.1517   22.8722 C   0  0  0  0  0  0  0  0  0  0  0  0
  -24.7961  -11.5421   21.1777 C   0  0  0  0  0  0  0  0  0  0  0  0
  -25.6170  -13.5478   21.5495 C   0  0  0  0  0  0  0  0  0  0  0  0
  -23.5314  -13.0493   22.8342 C   0  0  0  0  0  0  0  0  0  0  0  0
  -22.9462  -29.3964   21.9772 C   0  0  0  0  0  0  0  0  0  0  0  0
  -29.2446  -23.3192   20.7713 C   0  0  0  0  0  0  0  0  0  0  0  0
  -21.1152  -26.7493   22.3798 C   0  0  0  0  0  0  0  0  0  0  0  0
  -20.8696  -23.3481   22.2430 C   0  0  0  0  0  0  0  0  0  0  0  0
  -31.0384  -14.3759   20.5164 C   0  0  0  0  0  0  0  0  0  0  0  0
  -22.1939  -34.4171   21.4439 C   0  0  0  0  0  0  0  0  0  0  0  0
  -23.2777  -28.2155   19.7746 C   0  0  0  0  0  0  0  0  0  0  0  0
  -23.5900  -26.3725   22.0660 C   0  0  0  0  0  0  0  0  0  0  0  0
  -21.4293  -33.2603   22.0821 C   0  0  0  0  0  0  0  0  0  0  0  0
  -29.0449  -13.0989   17.8571 C   0  0  0  0  0  0  0  0  0  0  0  0
  -22.3537  -32.4361   22.9727 C   0  0  0  0  0  0  0  0  0  0  0  0
  -27.7471  -12.6721   18.5452 C   0  0  0  0  0  0  0  0  0  0  0  0
  -30.2640  -12.8350   18.7381 C   0  0  0  0  0  0  0  0  0  0  0  0
  -28.8909  -12.9918   20.7787 C   0  0  0  0  0  0  0  0  0  0  0  0
  -23.4958  -31.8163   22.1585 C   0  0  1  0  0  0  0  0  0  0  0  0
  -22.4269  -28.3485   21.0339 C   0  0  1  0  0  0  0  0  0  0  0  0
  -27.6287  -13.2899   19.9515 C   0  0  2  0  0  0  0  0  0  0  0  0
  -19.2591  -21.4708   22.6665 C   0  0  0  0  0  0  0  0  0  0  0  0
  -21.5446  -27.0619   25.3844 C   0  0  0  0  0  0  0  0  0  0  0  0
  -20.7525  -24.7043   25.6724 C   0  0  0  0  0  0  0  0  0  0  0  0
  -19.2177  -26.4268   24.7237 C   0  0  0  0  0  0  0  0  0  0  0  0
  -20.9702  -22.4701   19.4185 C   0  0  0  0  0  0  0  0  0  0  0  0
  -31.6766  -15.8863   22.3794 C   0  0  0  0  0  0  0  0  0  0  0  0
  -29.2842  -21.9364   21.3863 C   0  0  0  0  0  0  0  0  0  0  0  0
  -28.1045  -24.2076   21.2299 C   0  0  0  0  0  0  0  0  0  1  0  0
  -21.1361  -25.5675   23.3189 C   0  0  1  0  0  0  0  0  0  0  0  0
  -19.8182  -22.4378   21.6345 C   0  0  2  0  0  0  0  0  0  0  0  0
  -20.6848  -25.9460   24.7578 C   0  0  0  0  0  0  0  0  0  0  0  0
  -25.8869  -11.6049   20.4095 N   0  0  0  0  0  0  0  0  0  0  0  0
  -26.3641  -12.8365   20.6573 N   0  0  0  0  0  0  0  0  0  0  0  0
  -22.3389  -27.0983   21.7912 N   0  0  0  0  0  0  0  0  0  0  0  0
  -30.0888  -13.4486   20.0567 N   0  0  0  0  0  0  0  0  0  0  0  0
  -25.9547  -14.8037   21.9116 N   0  0  0  0  0  0  0  0  0  0  0  0
  -22.5444  -12.0878   23.0905 N   0  0  0  0  0  0  0  0  0  0  0  0
  -30.4053  -21.1985   20.8632 N   0  0  0  0  0  0  0  0  0  0  0  0
  -23.0247  -30.6609   21.4254 N   0  0  0  0  0  0  0  0  0  0  0  0
  -20.3228  -24.5322   22.6905 N   0  0  0  0  0  0  0  0  0  0  0  0
  -30.7935  -14.9147   21.7735 N   0  0  0  0  0  0  0  0  0  0  0  0
  -20.4037  -21.6452   20.5165 N   0  3  0  0  0  0  0  0  0  0  0  0
  -23.4637  -14.1653   23.4029 O   0  0  0  0  0  0  0  0  0  0  0  0
  -23.2516  -29.0814   23.1214 O   0  0  0  0  0  0  0  0  0  0  0  0
  -30.0768  -23.7073   19.9524 O   0  0  0  0  0  0  0  0  0  0  0  0
  -20.0508  -27.3365   22.1704 O   0  0  0  0  0  0  0  0  0  0  0  0
  -22.0566  -23.0382   22.3176 O   0  0  0  0  0  0  0  0  0  0  0  0
  -32.0282  -14.7037   19.8531 O   0  0  0  0  0  0  0  0  0  0  0  0
  -21.6620   -6.9116   21.2294 O   0  0  0  0  0  0  0  0  0  0  0  0
  -28.1727  -25.4860   20.5994 O   0  0  0  0  0  0  0  0  0  1  0  0
  -19.9918   -5.0100   26.1282 F   0  0  0  0  0  0  0  0  0  0  0  0
  -29.4630  -17.2893   23.4359 F   0  0  0  0  0  0  0  0  0  0  0  0
  -22.3684   -4.3790   22.0835 F   0  0  0  0  0  0  0  0  0  0  0  0
  1  2  1  0  0  0  0
  1  5  2  0  0  0  0
  2  6  2  0  0  0  0
  3 10  2  0  0  0  0
  3 18  1  0  0  0  0
  4 11  1  0  0  0  0
  4 18  2  0  0  0  0
  5 20  1  0  0  0  0
  6 22  1  0  0  0  0
  7 12  2  0  0  0  0
  7 21  1  0  0  0  0
  8  9  2  0  0  0  0
  8 24  1  0  0  0  0
  9 25  1  0  0  0  0
 10 26  1  0  0  0  0
 11 26  2  0  0  0  0
 12 27  1  0  0  0  0
 13 14  2  0  0  0  0
 13 28  1  0  0  0  0
 14 29  1  0  0  0  0
 15 23  1  0  0  0  0
 15 27  2  0  0  0  0
 16 25  2  0  0  0  0
 16 30  1  0  0  0  0
 17 29  2  0  0  0  0
 17 31  1  0  0  0  0
 18 32  1  0  0  0  0
 19 32  1  0  0  0  0
 19 33  2  0  0  0  0
 19 34  1  0  0  0  0
 20 22  2  0  0  0  0
 20 40  1  0  0  0  0
 21 23  2  0  0  0  0
 21 41  1  0  0  0  0
 22 49  1  0  0  0  0
 23 42  1  0  0  0  0
 24 30  2  0  0  0  0
 24 57  1  0  0  0  0
 25 69  1  0  0  0  0
 26 80  1  0  0  0  0
 27 81  1  0  0  0  0
 28 31  2  0  0  0  0
 28 80  1  0  0  0  0
 29 82  1  0  0  0  0
 30 83  1  0  0  0  0
 31 84  1  0  0  0  0
 32 63  2  0  0  0  0
 33 64  1  0  0  0  0
 33 67  1  0  0  0  0
 34 68  1  0  0  0  0
 34 74  2  0  0  0  0
 35 50  1  0  0  0  0
 35 70  1  0  0  0  0
 35 75  2  0  0  0  0
 36 58  1  0  0  0  0
 36 59  1  0  0  0  0
 36 76  2  0  0  0  0
 37 60  1  0  0  0  0
 37 65  1  0  0  0  0
 37 77  2  0  0  0  0
 38 61  1  0  0  0  0
 38 71  1  0  0  0  0
 38 78  2  0  0  0  0
 39 66  1  0  0  0  0
 39 72  1  0  0  0  0
 39 79  2  0  0  0  0
 40 43  1  0  0  0  0
 41 50  1  0  0  0  0
 42 65  1  0  0  0  0
 43 45  1  0  0  0  0
 44 46  1  0  0  0  0
 44 47  1  0  0  0  0
 45 49  1  0  0  0  0
 46 51  1  0  0  0  0
 47 66  1  0  0  0  0
 48 51  1  0  0  0  0
 48 66  1  0  0  0  0
 49 70  1  0  0  0  0
 50 65  1  0  0  0  0
 51 64  1  0  0  0  0
 52 61  1  0  0  0  0
 53 62  1  0  0  0  0
 54 62  1  0  0  0  0
 55 62  1  0  0  0  0
 56 73  1  0  0  0  0
 57 72  1  0  0  0  0
 58 69  1  0  0  0  0
 59 81  1  0  0  0  0
 60 62  1  0  0  0  0
 60 71  1  0  0  0  0
 61 73  1  0  0  0  0
 63 64  1  0  0  0  0
M  CHG  1  73   1
M  ISO  4  39 100  59 101  72 100  81 101
M  END
> <Batch ID>
0098

> <Smiles>
CNC(C)C(=O)NC(C(=O)N1Cc2cc([101O:1][101CH2:1]C(=O)CNc3ccc(C[100NH:0][100C:0](=O)N4CCCC(n5nc(-c6ccc(Oc7ccc(F)cc7F)cc6)c(C(N)=O)c5N)C4)c(F)c3)ccc2CC1C(=O)NC1CCCc2ccccc21)C(C)(C)C

> <Shape>
0.300

> <Color>
0.148

> <Negative vol penalty>
0.000

$$$$

  -OEChem-04052300513D

 89 98  0     1  0  0  0  0  0999 V2000
  -16.5714  -28.9511   23.8571 C   0  0  0  0  0  0  0  0  0  0  0  0
  -17.2478  -27.9932   23.1086 C   0  0  0  0  0  0  0  0  0  0  0  0
  -26.5265  -13.3389   21.6442 C   0  0  0  0  0  0  0  0  0  0  0  0
  -26.0524  -14.2955   19.4769 C   0  0  0  0  0  0  0  0  0  0  0  0
  -17.1081  -30.2301   23.9989 C   0  0  0  0  0  0  0  0  0  0  0  0
  -18.4610  -28.3141   22.5005 C   0  0  0  0  0  0  0  0  0  0  0  0
  -21.9605  -24.7072   23.1240 C   0  0  0  0  0  0  0  0  0  0  0  0
  -27.1043  -20.0892   19.2909 C   0  0  0  0  0  0  0  0  0  0  0  0
  -28.3201  -20.2563   18.6280 C   0  0  0  0  0  0  0  0  0  0  0  0
  -25.9090  -12.1503   21.2547 C   0  0  0  0  0  0  0  0  0  0  0  0
  -25.4350  -13.1070   19.0873 C   0  0  0  0  0  0  0  0  0  0  0  0
  -21.8615  -23.5771   22.3135 C   0  0  0  0  0  0  0  0  0  0  0  0
  -22.7581  -10.9723   20.9261 C   0  0  0  0  0  0  0  0  0  0  0  0
  -21.8778  -10.3743   21.8278 C   0  0  0  0  0  0  0  0  0  0  0  0
  -23.5735  -24.4711   20.8681 C   0  0  0  0  0  0  0  0  0  0  0  0
  -26.4600  -18.4035   17.6845 C   0  0  0  0  0  0  0  0  0  0  0  0
  -23.2565   -8.3905   21.8582 C   0  0  0  0  0  0  0  0  0  0  0  0
  -26.5981  -14.4115   20.7553 C   0  0  0  0  0  0  0  0  0  0  0  0
  -26.8708  -16.4748   22.2305 C   0  0  0  0  0  0  0  0  0  0  0  0
  -18.3332  -30.5639   23.4003 C   0  0  0  0  0  0  0  0  0  0  0  0
  -22.8605  -25.7345   22.8060 C   0  0  0  0  0  0  0  0  0  0  0  0
  -19.0139  -29.5991   22.6334 C   0  0  0  0  0  0  0  0  0  0  0  0
  -23.6838  -25.6120   21.6776 C   0  0  0  0  0  0  0  0  0  0  0  0
  -27.6758  -18.5706   17.0216 C   0  0  0  0  0  0  0  0  0  0  0  0
  -26.1742  -19.1628   18.8192 C   0  0  0  0  0  0  0  0  0  0  0  0
  -28.6058  -19.4970   17.4933 C   0  0  0  0  0  0  0  0  0  0  0  0
  -25.3633  -12.0344   19.9762 C   0  0  0  0  0  0  0  0  0  0  0  0
  -22.6660  -23.4602   21.1838 C   0  0  0  0  0  0  0  0  0  0  0  0
  -23.8876  -10.2793   20.4903 C   0  0  0  0  0  0  0  0  0  0  0  0
  -22.1270   -9.0835   22.2939 C   0  0  0  0  0  0  0  0  0  0  0  0
  -24.1368   -8.9885   20.9565 C   0  0  0  0  0  0  0  0  0  0  0  0
  -27.2353  -15.6397   21.1574 C   0  0  0  0  0  0  0  0  0  0  0  0
  -27.7806  -17.5030   22.1898 C   0  0  0  0  0  0  0  0  0  0  0  0
  -22.4475  -18.6400   20.8979 C   0  0  0  0  0  0  0  0  0  0  0  0
  -25.8052  -16.3337   23.1793 C   0  0  0  0  0  0  0  0  0  0  0  0
  -22.5807  -28.8145   22.0718 C   0  0  0  0  0  0  0  0  0  0  0  0
  -25.8210  -28.7398   22.2046 C   0  0  0  0  0  0  0  0  0  0  0  0
  -28.4492  -26.5075   21.1433 C   0  0  0  0  0  0  0  0  0  0  0  0
  -31.1135  -19.4719   17.4475 C   0  0  0  0  0  0  0  0  0  0  0  0
  -18.8504  -31.9735   23.5425 C   0  0  0  0  0  0  0  0  0  0  0  0
  -22.9743  -26.9349   23.7052 C   0  0  0  0  0  0  0  0  0  0  0  0
  -24.6806  -26.6775   21.3038 C   0  0  0  0  0  0  0  0  0  0  0  0
  -23.4328  -17.5093   20.7263 C   0  0  0  0  0  0  0  0  0  0  0  0
  -20.3252  -32.1209   23.1773 C   0  0  0  0  0  0  0  0  0  0  0  0
  -32.2500  -18.5285   20.8404 C   0  0  0  0  0  0  0  0  0  0  0  0
  -20.6241  -31.4050   21.8639 C   0  0  0  0  0  0  0  0  0  0  0  0
  -31.0921  -17.6798   21.3623 C   0  0  0  0  0  0  0  0  0  0  0  0
  -24.2788  -17.6980   19.4728 C   0  0  0  0  0  0  0  0  0  0  0  0
  -32.3675  -18.4533   19.3211 C   0  0  0  0  0  0  0  0  0  0  0  0
  -24.3396  -20.1191   20.1943 C   0  0  0  0  0  0  0  0  0  0  0  0
  -29.9451  -17.9667   19.1299 C   0  0  0  0  0  0  0  0  0  0  0  0
  -20.3446  -29.9016   21.9791 C   0  0  1  0  0  0  0  0  0  0  0  0
  -22.8138  -19.9694   20.2564 C   0  0  2  0  0  0  0  0  0  0  0  0
  -23.5598  -28.1552   23.0015 C   0  0  1  0  0  0  0  0  0  0  0  0
  -29.7805  -18.0577   20.6544 C   0  0  1  0  0  0  0  0  0  0  0  0
  -27.9559  -17.7427   15.8095 C   0  0  0  0  0  0  0  0  0  0  0  0
  -29.7130  -22.5953   14.3314 C   0  0  0  0  0  0  0  0  0  0  0  0
  -30.7613  -26.1594   22.0548 C   0  0  0  0  0  0  0  0  0  0  0  0
  -26.6501  -30.7681   20.0812 C   0  0  0  0  0  0  0  0  0  0  0  0
  -28.7241  -29.4181   19.7013 C   0  0  0  0  0  0  0  0  0  0  0  0
  -28.3054  -30.4575   21.9300 C   0  0  0  0  0  0  0  0  0  0  0  0
  -27.9952  -23.6055   21.5050 C   0  0  0  0  0  0  0  0  0  0  0  0
  -22.1926  -21.1353   21.0208 C   0  0  0  0  0  0  0  0  0  1  0  0
  -29.7449  -21.8781   15.6738 C   0  0  0  0  0  0  0  0  0  0  0  0
  -29.8647  -20.3655   15.5308 C   0  0  0  0  0  0  0  0  0  0  0  0
  -26.9255  -28.4640   21.2132 C   0  0  1  0  0  0  0  0  0  0  0  0
  -29.3285  -25.6499   22.0354 C   0  0  2  0  0  0  0  0  0  0  0  0
  -27.6256  -29.7650   20.7288 C   0  0  0  0  0  0  0  0  0  0  0  0
  -28.2939  -16.0978   20.4840 N   0  0  0  0  0  0  0  0  0  0  0  0
  -28.6025  -17.2319   21.1356 N   0  0  0  0  0  0  0  0  0  0  0  0
  -24.9589  -18.9955   19.4825 N   0  0  3  0  0  0  0  0  0  0  0  0
  -24.7501  -27.8349   22.2110 N   0  0  0  0  0  0  0  0  0  0  0  0
  -31.0959  -18.7568   18.6626 N   0  0  0  0  0  0  0  0  0  0  0  0
  -27.9498  -18.6034   22.9532 N   0  0  0  0  0  0  0  0  0  0  0  0
  -24.9634  -15.2178   23.0776 N   0  0  0  0  0  0  0  0  0  0  0  0
  -21.4194  -29.2405   22.6877 N   0  0  0  0  0  0  0  0  0  0  0  0
  -27.8206  -27.5073   21.8550 N   0  0  0  0  0  0  0  0  0  0  0  0
  -29.8695  -19.6835   16.8231 N   0  0  0  0  0  0  0  0  0  0  0  0
  -29.3376  -24.2400   21.5525 N   0  3  0  0  0  0  0  0  0  0  0  0
  -21.4041  -18.4752   21.5294 O   0  0  0  0  0  0  0  0  0  0  0  0
  -25.5954  -17.1809   24.0803 O   0  0  0  0  0  0  0  0  0  0  0  0
  -22.8589  -28.9296   20.8840 O   0  0  0  0  0  0  0  0  0  0  0  0
  -25.9086  -29.7181   22.9510 O   0  0  0  0  0  0  0  0  0  0  0  0
  -28.3347  -26.3125   19.9353 O   0  0  0  0  0  0  0  0  0  0  0  0
  -32.1699  -19.8482   16.9250 O   0  0  0  0  0  0  0  0  0  0  0  0
  -24.7610  -10.8746   19.5957 O   0  0  0  0  0  0  0  0  0  0  0  0
  -22.5709  -22.3585   20.3907 O   0  0  0  0  0  0  0  0  0  1  0  0
  -21.2824   -8.5100   23.1610 F   0  0  0  0  0  0  0  0  0  0  0  0
  -25.2209   -8.3183   20.5424 F   0  0  0  0  0  0  0  0  0  0  0  0
  1  2  1  0  0  0  0
  1  5  2  0  0  0  0
  2  6  2  0  0  0  0
  3 10  2  0  0  0  0
  3 18  1  0  0  0  0
  4 11  1  0  0  0  0
  4 18  2  0  0  0  0
  5 20  1  0  0  0  0
  6 22  1  0  0  0  0
  7 12  2  0  0  0  0
  7 21  1  0  0  0  0
  8  9  2  0  0  0  0
  8 25  1  0  0  0  0
  9 26  1  0  0  0  0
 10 27  1  0  0  0  0
 11 27  2  0  0  0  0
 12 28  1  0  0  0  0
 13 14  2  0  0  0  0
 13 29  1  0  0  0  0
 14 30  1  0  0  0  0
 15 23  1  0  0  0  0
 15 28  2  0  0  0  0
 16 24  1  0  0  0  0
 16 25  2  0  0  0  0
 17 30  2  0  0  0  0
 17 31  1  0  0  0  0
 18 32  1  0  0  0  0
 19 32  1  0  0  0  0
 19 33  2  0  0  0  0
 19 35  1  0  0  0  0
 20 22  2  0  0  0  0
 20 40  1  0  0  0  0
 21 23  2  0  0  0  0
 21 41  1  0  0  0  0
 22 52  1  0  0  0  0
 23 42  1  0  0  0  0
 24 26  2  0  0  0  0
 24 56  1  0  0  0  0
 25 71  1  0  0  0  0
 26 78  1  0  0  0  0
 27 86  1  0  0  0  0
 28 87  1  0  0  0  0
 29 31  2  0  0  0  0
 29 86  1  0  0  0  0
 30 88  1  0  0  0  0
 31 89  1  0  0  0  0
 32 69  2  0  0  0  0
 33 70  1  0  0  0  0
 33 74  1  0  0  0  0
 34 43  1  0  0  0  0
 34 53  1  0  0  0  0
 34 80  2  0  0  0  0
 35 75  1  0  0  0  0
 35 81  2  0  0  0  0
 36 54  1  0  0  0  0
 36 76  1  0  0  0  0
 36 82  2  0  0  0  0
 37 66  1  0  0  0  0
 37 72  1  0  0  0  0
 37 83  2  0  0  0  0
 38 67  1  0  0  0  0
 38 77  1  0  0  0  0
 38 84  2  0  0  0  0
 39 73  1  0  0  0  0
 39 78  1  0  0  0  0
 39 85  2  0  0  0  0
 40 44  1  0  0  0  0
 41 54  1  0  0  0  0
 42 72  1  0  0  0  0
 43 48  1  0  0  0  0
 44 46  1  0  0  0  0
 45 47  1  0  0  0  0
 45 49  1  0  0  0  0
 46 52  1  0  0  0  0
 47 55  1  0  0  0  0
 48 71  1  0  0  0  0
 49 73  1  0  0  0  0
 50 53  1  0  0  0  0
 50 71  1  0  0  0  0
 51 55  1  0  0  0  0
 51 73  1  0  0  0  0
 52 76  1  0  0  0  0
 53 63  1  0  0  0  0
 54 72  1  0  0  0  0
 55 70  1  0  0  0  0
 57 64  1  0  0  0  0
 58 67  1  0  0  0  0
 59 68  1  0  0  0  0
 60 68  1  0  0  0  0
 61 68  1  0  0  0  0
 62 79  1  0  0  0  0
 63 87  1  0  0  0  0
 64 65  1  0  0  0  0
 65 78  1  0  0  0  0
 66 68  1  0  0  0  0
 66 77  1  0  0  0  0
 67 79  1  0  0  0  0
 69 70  1  0  0  0  0
M  CHG  1  79   1
M  ISO  4  39 100  63 101  78 100  87 101
M  END
> <Batch ID>
0098

> <Smiles>
CCC[100N:0](c1ccc(N2CCC(=O)C([101CH2:1][101O:1]c3ccc4c(c3)CN(C(=O)C(NC(=O)C(C)NC)C(C)(C)C)C(C(=O)NC3CCCc5ccccc53)C4)C2)cc1C)[100C:0](=O)N1CCCC(n2nc(-c3ccc(Oc4ccc(F)cc4F)cc3)c(C(N)=O)c2N)C1

> <Shape>
0.209

> <Color>
0.074

> <Negative vol penalty>
0.000

$$$$

  -OEChem-04052300513D

 82 90  0     1  0  0  0  0  0999 V2000
  -29.2373  -35.9959   19.1492 C   0  0  0  0  0  0  0  0  0  0  0  0
  -29.7319  -34.7307   19.4493 C   0  0  0  0  0  0  0  0  0  0  0  0
  -24.3067   -9.4720   21.4974 C   0  0  0  0  0  0  0  0  0  0  0  0
  -24.7906  -10.6269   23.5635 C   0  0  0  0  0  0  0  0  0  0  0  0
  -27.9706  -36.3716   19.5945 C   0  0  0  0  0  0  0  0  0  0  0  0
  -28.9605  -33.8408   20.1958 C   0  0  0  0  0  0  0  0  0  0  0  0
  -28.7467  -27.7503   19.5911 C   0  0  0  0  0  0  0  0  0  0  0  0
  -23.9430   -8.3346   22.2183 C   0  0  0  0  0  0  0  0  0  0  0  0
  -24.4269   -9.4896   24.2845 C   0  0  0  0  0  0  0  0  0  0  0  0
  -29.3713  -26.7161   20.2869 C   0  0  0  0  0  0  0  0  0  0  0  0
  -21.2658   -7.2497   23.9757 C   0  0  0  0  0  0  0  0  0  0  0  0
  -20.0960   -6.5900   23.5991 C   0  0  0  0  0  0  0  0  0  0  0  0
  -28.2214  -20.8020   21.5593 C   0  0  0  0  0  0  0  0  0  0  0  0
  -27.4078  -26.4660   21.6657 C   0  0  0  0  0  0  0  0  0  0  0  0
  -30.4056  -19.2285   20.8272 C   0  0  0  0  0  0  0  0  0  0  0  0
  -21.3698   -4.5862   23.1524 C   0  0  0  0  0  0  0  0  0  0  0  0
  -24.7305  -10.6182   22.1700 C   0  0  0  0  0  0  0  0  0  0  0  0
  -29.5134  -21.3215   21.6399 C   0  0  0  0  0  0  0  0  0  0  0  0
  -24.2692  -12.8531   21.0298 C   0  0  0  0  0  0  0  0  0  0  0  0
  -27.1794  -35.4824   20.3387 C   0  0  0  0  0  0  0  0  0  0  0  0
  -27.4499  -28.1581   19.9352 C   0  0  0  0  0  0  0  0  0  0  0  0
  -27.6826  -34.2054   20.6527 C   0  0  0  0  0  0  0  0  0  0  0  0
  -26.7680  -27.5039   20.9711 C   0  0  0  0  0  0  0  0  0  0  0  0
  -30.6055  -20.5348   21.2739 C   0  0  0  0  0  0  0  0  0  0  0  0
  -29.1136  -18.7090   20.7467 C   0  0  0  0  0  0  0  0  0  0  0  0
  -24.0031   -8.3434   23.6118 C   0  0  0  0  0  0  0  0  0  0  0  0
  -28.7030  -26.0757   21.3263 C   0  0  0  0  0  0  0  0  0  0  0  0
  -22.4877   -6.5777   23.9407 C   0  0  0  0  0  0  0  0  0  0  0  0
  -28.0215  -19.4957   21.1127 C   0  0  0  0  0  0  0  0  0  0  0  0
  -20.1480   -5.2583   23.1874 C   0  0  0  0  0  0  0  0  0  0  0  0
  -22.5397   -5.2460   23.5290 C   0  0  0  0  0  0  0  0  0  0  0  0
  -25.1068  -11.7932   21.4258 C   0  0  0  0  0  0  0  0  0  0  0  0
  -25.1002  -13.7137   20.3550 C   0  0  0  0  0  0  0  0  0  0  0  0
  -29.6855  -22.7042   22.1165 C   0  0  0  0  0  0  0  0  0  0  0  0
  -29.1472  -23.7900   21.5473 C   0  0  0  0  0  0  0  0  0  1  0  0
  -22.8655  -13.0427   21.2520 C   0  0  0  0  0  0  0  0  0  0  0  0
  -26.1566  -30.8585   21.0023 C   0  0  0  0  0  0  0  0  0  0  0  0
  -23.3790  -29.2349   20.5880 C   0  0  0  0  0  0  0  0  0  0  0  0
  -21.7885  -26.2235   20.3679 C   0  0  0  0  0  0  0  0  0  0  0  0
  -29.9112  -16.4780   19.8908 C   0  0  0  0  0  0  0  0  0  0  0  0
  -25.8356  -35.9504   20.8386 C   0  0  0  0  0  0  0  0  0  0  0  0
  -26.7799  -29.2574   19.1573 C   0  0  0  0  0  0  0  0  0  0  0  0
  -25.3669  -27.8903   21.3662 C   0  0  0  0  0  0  0  0  0  0  0  0
  -24.9295  -34.8138   21.3049 C   0  0  0  0  0  0  0  0  0  0  0  0
  -29.8589  -13.1092   18.7394 C   0  0  0  0  0  0  0  0  0  0  0  0
  -25.7011  -33.8487   22.1994 C   0  0  0  0  0  0  0  0  0  0  0  0
  -28.5491  -12.5537   19.3031 C   0  0  0  0  0  0  0  0  0  0  0  0
  -30.5294  -14.0778   19.7121 C   0  0  0  0  0  0  0  0  0  0  0  0
  -28.3624  -14.6146   20.7538 C   0  0  0  0  0  0  0  0  0  0  0  0
  -26.8658  -33.2031   21.4390 C   0  0  1  0  0  0  0  0  0  0  0  0
  -25.6522  -29.9345   19.9301 C   0  0  1  0  0  0  0  0  0  0  0  0
  -27.6176  -13.6842   19.7826 C   0  0  2  0  0  0  0  0  0  0  0  0
  -19.5100  -25.2166   20.0651 C   0  0  0  0  0  0  0  0  0  0  0  0
  -22.6999  -29.9063   23.4859 C   0  0  0  0  0  0  0  0  0  0  0  0
  -20.9402  -28.1270   23.4127 C   0  0  0  0  0  0  0  0  0  0  0  0
  -20.7814  -30.0990   21.8933 C   0  0  0  0  0  0  0  0  0  0  0  0
  -33.0569  -20.2026   21.5989 C   0  0  0  0  0  0  0  0  0  0  0  0
  -22.5921  -24.8706   17.8614 C   0  0  0  0  0  0  0  0  0  0  0  0
  -22.5314  -28.3294   21.4486 C   0  0  1  0  0  0  0  0  0  0  0  0
  -20.7773  -25.6890   19.3698 C   0  0  2  0  0  0  0  0  0  0  0  0
  -21.7653  -29.1092   22.5542 C   0  0  0  0  0  0  0  0  0  0  0  0
  -26.3728  -11.9628   21.0351 N   0  0  0  0  0  0  0  0  0  0  0  0
  -26.3368  -13.1392   20.3864 N   0  0  0  0  0  0  0  0  0  0  0  0
  -24.7568  -28.9751   20.5798 N   0  0  0  0  0  0  0  0  0  0  0  0
  -29.5886  -15.1236   20.1196 N   0  0  0  0  0  0  0  0  0  0  0  0
  -24.8864  -14.8982   19.7438 N   0  0  0  0  0  0  0  0  0  0  0  0
  -22.1632  -12.0610   21.9644 N   0  0  0  0  0  0  0  0  0  0  0  0
  -28.9263  -17.3807   20.2903 N   0  0  0  0  0  0  0  0  0  0  0  0
  -31.9252  -21.0364   21.3451 N   0  0  0  0  0  0  0  0  0  0  0  0
  -26.3813  -32.1517   20.5704 N   0  0  0  0  0  0  0  0  0  0  0  0
  -21.6698  -27.5870   20.5348 N   0  0  0  0  0  0  0  0  0  0  0  0
  -21.3534  -24.5419   18.6127 N   0  3  0  0  0  0  0  0  0  0  0  0
  -22.2489  -14.0448   20.8172 O   0  0  0  0  0  0  0  0  0  0  0  0
  -26.3277  -30.4302   22.1376 O   0  0  0  0  0  0  0  0  0  0  0  0
  -22.8377  -30.1350   19.9411 O   0  0  0  0  0  0  0  0  0  0  0  0
  -22.6000  -25.5029   20.9448 O   0  0  0  0  0  0  0  0  0  0  0  0
  -30.9706  -16.8109   19.3533 O   0  0  0  0  0  0  0  0  0  0  0  0
  -26.7510  -19.0070   21.0411 O   0  0  0  0  0  0  0  0  0  0  0  0
  -23.6481   -7.2338   24.3157 O   0  0  0  0  0  0  0  0  0  0  0  0
  -29.3106  -25.0664   22.0075 O   0  0  0  0  0  0  0  0  0  1  0  0
  -19.0243   -4.6244   22.8272 F   0  0  0  0  0  0  0  0  0  0  0  0
  -23.7104   -4.5948   23.4944 F   0  0  0  0  0  0  0  0  0  0  0  0
  1  2  1  0  0  0  0
  1  5  2  0  0  0  0
  2  6  2  0  0  0  0
  3  8  2  0  0  0  0
  3 17  1  0  0  0  0
  4  9  1  0  0  0  0
  4 17  2  0  0  0  0
  5 20  1  0  0  0  0
  6 22  1  0  0  0  0
  7 10  2  0  0  0  0
  7 21  1  0  0  0  0
  8 26  1  0  0  0  0
  9 26  2  0  0  0  0
 10 27  1  0  0  0  0
 11 12  2  0  0  0  0
 11 28  1  0  0  0  0
 12 30  1  0  0  0  0
 13 18  1  0  0  0  0
 13 29  2  0  0  0  0
 14 23  1  0  0  0  0
 14 27  2  0  0  0  0
 15 24  1  0  0  0  0
 15 25  2  0  0  0  0
 16 30  2  0  0  0  0
 16 31  1  0  0  0  0
 17 32  1  0  0  0  0
 18 24  2  0  0  0  0
 18 34  1  0  0  0  0
 19 32  1  0  0  0  0
 19 33  2  0  0  0  0
 19 36  1  0  0  0  0
 20 22  2  0  0  0  0
 20 41  1  0  0  0  0
 21 23  2  0  0  0  0
 21 42  1  0  0  0  0
 22 50  1  0  0  0  0
 23 43  1  0  0  0  0
 24 69  1  0  0  0  0
 25 29  1  0  0  0  0
 25 68  1  0  0  0  0
 26 79  1  0  0  0  0
 27 80  1  0  0  0  0
 28 31  2  0  0  0  0
 28 79  1  0  0  0  0
 29 78  1  0  0  0  0
 30 81  1  0  0  0  0
 31 82  1  0  0  0  0
 32 62  2  0  0  0  0
 33 63  1  0  0  0  0
 33 66  1  0  0  0  0
 34 35  2  0  0  0  0
 35 80  1  0  0  0  0
 36 67  1  0  0  0  0
 36 73  2  0  0  0  0
 37 51  1  0  0  0  0
 37 70  1  0  0  0  0
 37 74  2  0  0  0  0
 38 59  1  0  0  0  0
 38 64  1  0  0  0  0
 38 75  2  0  0  0  0
 39 60  1  0  0  0  0
 39 71  1  0  0  0  0
 39 76  2  0  0  0  0
 40 65  1  0  0  0  0
 40 68  1  0  0  0  0
 40 77  2  0  0  0  0
 41 44  1  0  0  0  0
 42 51  1  0  0  0  0
 43 64  1  0  0  0  0
 44 46  1  0  0  0  0
 45 47  1  0  0  0  0
 45 48  1  0  0  0  0
 46 50  1  0  0  0  0
 47 52  1  0  0  0  0
 48 65  1  0  0  0  0
 49 52  1  0  0  0  0
 49 65  1  0  0  0  0
 50 70  1  0  0  0  0
 51 64  1  0  0  0  0
 52 63  1  0  0  0  0
 53 60  1  0  0  0  0
 54 61  1  0  0  0  0
 55 61  1  0  0  0  0
 56 61  1  0  0  0  0
 57 69  1  0  0  0  0
 58 72  1  0  0  0  0
 59 61  1  0  0  0  0
 59 71  1  0  0  0  0
 60 72  1  0  0  0  0
 62 63  1  0  0  0  0
M  CHG  1  72   1
M  ISO  4  35 101  40 100  68 100  80 101
M  END
> <Batch ID>
0098

> <Smiles>
CNc1cc([100NH:0][100C:0](=O)N2CCCC(n3nc(-c4ccc(Oc5ccc(F)cc5F)cc4)c(C(N)=O)c3N)C2)c(O)cc1C=[101CH:1][101O:1]c1ccc2c(c1)CN(C(=O)C(NC(=O)C(C)NC)C(C)(C)C)C(C(=O)NC1CCCc3ccccc31)C2

> <Shape>
0.293

> <Color>
0.110

> <Negative vol penalty>
0.000

$$$$

  -OEChem-04052300513D

 86 95  0     1  0  0  0  0  0999 V2000
  -19.4329  -33.8206   21.8984 C   0  0  0  0  0  0  0  0  0  0  0  0
  -20.7329  -33.4997   21.5207 C   0  0  0  0  0  0  0  0  0  0  0  0
  -26.6998  -11.9799   21.0592 C   0  0  0  0  0  0  0  0  0  0  0  0
  -25.7347  -13.9456   20.0385 C   0  0  0  0  0  0  0  0  0  0  0  0
  -18.7481  -33.0049   22.7980 C   0  0  0  0  0  0  0  0  0  0  0  0
  -21.3491  -32.3632   22.0434 C   0  0  0  0  0  0  0  0  0  0  0  0
  -25.3138  -28.6782   19.1785 C   0  0  0  0  0  0  0  0  0  0  0  0
  -25.4327  -11.5763   21.4801 C   0  0  0  0  0  0  0  0  0  0  0  0
  -24.4676  -13.5420   20.4594 C   0  0  0  0  0  0  0  0  0  0  0  0
  -26.7056  -28.5999   19.2002 C   0  0  0  0  0  0  0  0  0  0  0  0
  -22.7145  -10.0894   20.1260 C   0  0  0  0  0  0  0  0  0  0  0  0
  -22.3661   -8.7513   19.9422 C   0  0  0  0  0  0  0  0  0  0  0  0
  -26.5758  -26.8623   20.8685 C   0  0  0  0  0  0  0  0  0  0  0  0
  -32.4212  -21.0382   20.0096 C   0  0  0  0  0  0  0  0  0  0  0  0
  -30.2790  -22.0334   18.5254 C   0  0  0  0  0  0  0  0  0  0  0  0
  -22.0575   -8.5043   22.3257 C   0  0  0  0  0  0  0  0  0  0  0  0
  -26.8508  -13.1646   20.3385 C   0  0  0  0  0  0  0  0  0  0  0  0
  -28.7939  -13.2628   18.6885 C   0  0  0  0  0  0  0  0  0  0  0  0
  -19.3527  -31.8526   23.3246 C   0  0  0  0  0  0  0  0  0  0  0  0
  -24.5415  -27.8554   20.0110 C   0  0  0  0  0  0  0  0  0  0  0  0
  -20.6721  -31.5320   22.9520 C   0  0  0  0  0  0  0  0  0  0  0  0
  -25.1743  -26.9303   20.8536 C   0  0  0  0  0  0  0  0  0  0  0  0
  -32.6031  -22.1420   19.1766 C   0  0  0  0  0  0  0  0  0  0  0  0
  -31.5319  -22.6397   18.4345 C   0  0  0  0  0  0  0  0  0  0  0  0
  -31.1683  -20.4319   20.1006 C   0  0  0  0  0  0  0  0  0  0  0  0
  -24.3166  -12.3573   21.1801 C   0  0  0  0  0  0  0  0  0  0  0  0
  -27.3369  -27.6939   20.0474 C   0  0  0  0  0  0  0  0  0  0  0  0
  -22.7346  -10.6349   21.4097 C   0  0  0  0  0  0  0  0  0  0  0  0
  -22.0375   -7.9588   21.0420 C   0  0  0  0  0  0  0  0  0  0  0  0
  -30.0972  -20.9295   19.3585 C   0  0  0  0  0  0  0  0  0  0  0  0
  -22.4060   -9.8423   22.5095 C   0  0  0  0  0  0  0  0  0  0  0  0
  -28.1596  -13.5823   19.9039 C   0  0  0  0  0  0  0  0  0  0  0  0
  -30.0100  -13.8974   18.7587 C   0  0  0  0  0  0  0  0  0  0  0  0
  -28.3257  -12.4640   17.5938 C   0  0  0  0  0  0  0  0  0  0  0  0
  -22.4796  -28.3610   22.3766 C   0  0  0  0  0  0  0  0  0  0  0  0
  -22.0551  -25.1517   22.1710 C   0  0  0  0  0  0  0  0  0  0  0  0
  -23.3127  -22.1161   21.2486 C   0  0  0  0  0  0  0  0  0  0  0  0
  -31.9449  -18.6941   21.7508 C   0  0  0  0  0  0  0  0  0  0  0  0
  -18.5897  -31.0274   24.3303 C   0  0  0  0  0  0  0  0  0  0  0  0
  -23.0404  -27.9333   19.9562 C   0  0  0  0  0  0  0  0  0  0  0  0
  -24.3902  -26.0103   21.7520 C   0  0  0  0  0  0  0  0  0  0  0  0
  -19.1791  -29.6364   24.5496 C   0  0  0  0  0  0  0  0  0  0  0  0
  -33.2747  -15.3959   21.9258 C   0  0  0  0  0  0  0  0  0  0  0  0
  -20.6915  -29.7198   24.7300 C   0  0  0  0  0  0  0  0  0  0  0  0
  -32.1741  -14.5282   21.3110 C   0  0  0  0  0  0  0  0  0  0  0  0
  -31.4901  -27.3989   17.5516 C   0  0  0  0  0  0  0  0  0  0  0  0
  -32.6969  -16.5461   22.7486 C   0  0  0  0  0  0  0  0  0  0  0  0
  -30.6168  -16.5151   21.4289 C   0  0  0  0  0  0  0  0  0  0  0  0
  -32.4703  -26.2381   17.5037 C   0  0  0  0  0  0  0  0  0  0  0  0
  -30.4581  -25.6422   18.7567 C   0  0  0  0  0  0  0  0  0  0  0  0
  -21.3656  -30.2940   23.4781 C   0  0  1  0  0  0  0  0  0  0  0  0
  -22.3683  -27.4075   21.2208 C   0  0  1  0  0  0  0  0  0  0  0  0
  -30.6781  -27.1441   18.8138 C   0  0  2  0  0  0  0  0  0  0  0  0
  -31.1498  -15.3814   20.5376 C   0  0  2  0  0  0  0  0  0  0  0  0
  -33.9536  -22.7745   19.0949 C   0  0  0  0  0  0  0  0  0  0  0  0
  -22.7495  -19.6707   21.2402 C   0  0  0  0  0  0  0  0  0  0  0  0
  -22.6454  -25.0080   25.1611 C   0  0  0  0  0  0  0  0  0  0  0  0
  -23.0068  -22.5443   24.9005 C   0  0  0  0  0  0  0  0  0  0  0  0
  -20.7743  -23.5360   24.3952 C   0  0  0  0  0  0  0  0  0  0  0  0
  -23.4635  -21.9729   18.2963 C   0  0  0  0  0  0  0  0  0  0  0  0
  -31.7031  -23.8256   17.5315 C   0  0  0  0  0  0  0  0  0  0  0  0
  -29.3851  -27.9296   18.8618 C   0  0  0  0  0  0  0  0  0  1  0  0
  -22.7000  -23.9450   22.8089 C   0  0  1  0  0  0  0  0  0  0  0  0
  -22.7051  -20.9729   20.4559 C   0  0  2  0  0  0  0  0  0  0  0  0
  -22.2967  -23.7769   24.3010 C   0  0  0  0  0  0  0  0  0  0  0  0
  -28.9107  -14.3593   20.6889 N   0  0  0  0  0  0  0  0  0  0  0  0
  -30.0295  -14.5333   19.9651 N   0  0  0  0  0  0  0  0  0  0  0  0
  -22.9252  -26.1288   21.6670 N   0  0  0  0  0  0  0  0  0  0  0  0
  -31.7381  -17.3127   21.9499 N   0  0  0  0  0  0  0  0  0  0  0  0
  -31.0539  -13.9678   17.9056 N   0  0  0  0  0  0  0  0  0  0  0  0
  -27.0524  -11.8855   17.6855 N   0  0  0  0  0  0  0  0  0  0  0  0
  -30.9861  -19.3108   20.9478 N   0  0  0  0  0  0  0  0  0  0  0  0
  -21.4546  -29.2853   22.4442 N   0  0  0  0  0  0  0  0  0  0  0  0
  -22.3572  -22.8052   21.9652 N   0  0  0  0  0  0  0  0  0  0  0  0
  -31.7942  -25.1193   18.2748 N   0  3  1  0  0  0  0  0  0  0  0  0
  -23.4464  -20.7773   19.1779 N   0  3  0  0  0  0  0  0  0  0  0  0
  -29.0226  -12.2555   16.5719 O   0  0  0  0  0  0  0  0  0  0  0  0
  -23.4247  -28.2644   23.1507 O   0  0  0  0  0  0  0  0  0  0  0  0
  -20.8248  -25.2213   22.1153 O   0  0  0  0  0  0  0  0  0  0  0  0
  -24.5151  -22.3701   21.2364 O   0  0  0  0  0  0  0  0  0  0  0  0
  -32.9171  -19.2808   22.2331 O   0  0  0  0  0  0  0  0  0  0  0  0
  -23.0800  -11.9637   21.5905 O   0  0  0  0  0  0  0  0  0  0  0  0
  -28.6953  -27.6160   20.0710 O   0  0  0  0  0  0  0  0  0  1  0  0
  -21.7014   -6.6743   20.8652 F   0  0  0  0  0  0  0  0  0  0  0  0
  -28.8884  -20.3550   19.4383 F   0  0  0  0  0  0  0  0  0  0  0  0
  -22.4223  -10.3611   23.7450 F   0  0  0  0  0  0  0  0  0  0  0  0
  1  2  1  0  0  0  0
  1  5  2  0  0  0  0
  2  6  2  0  0  0  0
  3  8  2  0  0  0  0
  3 17  1  0  0  0  0
  4  9  1  0  0  0  0
  4 17  2  0  0  0  0
  5 19  1  0  0  0  0
  6 21  1  0  0  0  0
  7 10  2  0  0  0  0
  7 20  1  0  0  0  0
  8 26  1  0  0  0  0
  9 26  2  0  0  0  0
 10 27  1  0  0  0  0
 11 12  2  0  0  0  0
 11 28  1  0  0  0  0
 12 29  1  0  0  0  0
 13 22  1  0  0  0  0
 13 27  2  0  0  0  0
 14 23  1  0  0  0  0
 14 25  2  0  0  0  0
 15 24  1  0  0  0  0
 15 30  2  0  0  0  0
 16 29  2  0  0  0  0
 16 31  1  0  0  0  0
 17 32  1  0  0  0  0
 18 32  1  0  0  0  0
 18 33  2  0  0  0  0
 18 34  1  0  0  0  0
 19 21  2  0  0  0  0
 19 39  1  0  0  0  0
 20 22  2  0  0  0  0
 20 40  1  0  0  0  0
 21 51  1  0  0  0  0
 22 41  1  0  0  0  0
 23 24  2  0  0  0  0
 23 55  1  0  0  0  0
 24 61  1  0  0  0  0
 25 30  1  0  0  0  0
 25 72  1  0  0  0  0
 26 82  1  0  0  0  0
 27 83  1  0  0  0  0
 28 31  2  0  0  0  0
 28 82  1  0  0  0  0
 29 84  1  0  0  0  0
 30 85  1  0  0  0  0
 31 86  1  0  0  0  0
 32 66  2  0  0  0  0
 33 67  1  0  0  0  0
 33 70  1  0  0  0  0
 34 71  1  0  0  0  0
 34 77  2  0  0  0  0
 35 52  1  0  0  0  0
 35 73  1  0  0  0  0
 35 78  2  0  0  0  0
 36 63  1  0  0  0  0
 36 68  1  0  0  0  0
 36 79  2  0  0  0  0
 37 64  1  0  0  0  0
 37 74  1  0  0  0  0
 37 80  2  0  0  0  0
 38 69  1  0  0  0  0
 38 72  1  0  0  0  0
 38 81  2  0  0  0  0
 39 42  1  0  0  0  0
 40 52  1  0  0  0  0
 41 68  1  0  0  0  0
 42 44  1  0  0  0  0
 43 45  1  0  0  0  0
 43 47  1  0  0  0  0
 44 51  1  0  0  0  0
 45 54  1  0  0  0  0
 46 49  1  0  0  0  0
 46 53  1  0  0  0  0
 47 69  1  0  0  0  0
 48 54  1  0  0  0  0
 48 69  1  0  0  0  0
 49 75  1  0  0  0  0
 50 53  1  0  0  0  0
 50 75  1  0  0  0  0
 51 73  1  0  0  0  0
 52 68  1  0  0  0  0
 53 62  1  0  0  0  0
 54 67  1  0  0  0  0
 56 64  1  0  0  0  0
 57 65  1  0  0  0  0
 58 65  1  0  0  0  0
 59 65  1  0  0  0  0
 60 76  1  0  0  0  0
 61 75  1  0  0  0  0
 62 83  1  0  0  0  0
 63 65  1  0  0  0  0
 63 74  1  0  0  0  0
 64 76  1  0  0  0  0
 66 67  1  0  0  0  0
M  CHG  2  75   1  76   1
M  ISO  4  38 100  62 101  72 100  83 101
M  END
> <Batch ID>
0098

> <Smiles>
CNC(C)C(=O)NC(C(=O)N1Cc2cc([101O:1][101CH2:1]C3CCN(Cc4cc(F)c([100NH:0][100C:0](=O)N5CCCC(n6nc(-c7ccc(Oc8ccc(F)cc8F)cc7)c(C(N)=O)c6N)C5)cc4C)C3)ccc2CC1C(=O)NC1CCCc2ccccc21)C(C)(C)C

> <Shape>
0.251

> <Color>
0.087

> <Negative vol penalty>
0.000

$$$$

  -OEChem-04052300513D

 84 92  0     1  0  0  0  0  0999 V2000
  -21.6387  -31.3218   14.8547 C   0  0  0  0  0  0  0  0  0  0  0  0
  -22.3026  -30.2456   15.4345 C   0  0  0  0  0  0  0  0  0  0  0  0
  -22.9820  -10.7559   19.1324 C   0  0  0  0  0  0  0  0  0  0  0  0
  -23.3008   -9.6672   21.2656 C   0  0  0  0  0  0  0  0  0  0  0  0
  -21.7419  -32.5910   15.4226 C   0  0  0  0  0  0  0  0  0  0  0  0
  -23.0712  -30.4381   16.5820 C   0  0  0  0  0  0  0  0  0  0  0  0
  -22.2814  -26.8555   20.0729 C   0  0  0  0  0  0  0  0  0  0  0  0
  -22.0945   -9.7495   18.7514 C   0  0  0  0  0  0  0  0  0  0  0  0
  -22.4132   -8.6608   20.8846 C   0  0  0  0  0  0  0  0  0  0  0  0
  -22.9023  -25.6234   19.8725 C   0  0  0  0  0  0  0  0  0  0  0  0
  -22.4729   -5.8864   18.9533 C   0  0  0  0  0  0  0  0  0  0  0  0
  -22.8404   -4.5660   19.2123 C   0  0  0  0  0  0  0  0  0  0  0  0
  -27.9230  -18.7044   20.7668 C   0  0  0  0  0  0  0  0  0  0  0  0
  -24.6296  -26.2462   21.4370 C   0  0  0  0  0  0  0  0  0  0  0  0
  -27.7861  -20.6334   18.7561 C   0  0  0  0  0  0  0  0  0  0  0  0
  -20.8779   -4.2909   20.5944 C   0  0  0  0  0  0  0  0  0  0  0  0
  -23.5852  -10.7147   20.3895 C   0  0  0  0  0  0  0  0  0  0  0  0
  -28.8629  -18.7055   19.7362 C   0  0  0  0  0  0  0  0  0  0  0  0
  -24.1910  -12.9570   21.4443 C   0  0  0  0  0  0  0  0  0  0  0  0
  -22.5043  -32.7974   16.5831 C   0  0  0  0  0  0  0  0  0  0  0  0
  -22.8368  -27.7981   20.9501 C   0  0  0  0  0  0  0  0  0  0  0  0
  -23.1858  -31.7115   17.1652 C   0  0  0  0  0  0  0  0  0  0  0  0
  -24.0125  -27.4886   21.6487 C   0  0  0  0  0  0  0  0  0  0  0  0
  -28.7945  -19.6700   18.7309 C   0  0  0  0  0  0  0  0  0  0  0  0
  -26.9145  -19.6677   20.7920 C   0  0  0  0  0  0  0  0  0  0  0  0
  -26.8461  -20.6322   19.7867 C   0  0  0  0  0  0  0  0  0  0  0  0
  -21.8101   -8.7020   19.6275 C   0  0  0  0  0  0  0  0  0  0  0  0
  -24.0781  -25.3197   20.5524 C   0  0  0  0  0  0  0  0  0  0  0  0
  -21.3079   -6.4091   19.5149 C   0  0  0  0  0  0  0  0  0  0  0  0
  -22.0429   -3.7682   20.0328 C   0  0  0  0  0  0  0  0  0  0  0  0
  -20.5104   -5.6113   20.3354 C   0  0  0  0  0  0  0  0  0  0  0  0
  -24.5025  -11.7537   20.7834 C   0  0  0  0  0  0  0  0  0  0  0  0
  -25.4001  -13.5923   21.5888 C   0  0  0  0  0  0  0  0  0  0  0  0
  -29.9259  -17.6677   19.7335 C   0  0  0  0  0  0  0  0  0  0  0  0
  -22.9221  -13.4559   21.8880 C   0  0  0  0  0  0  0  0  0  0  0  0
  -23.9844  -30.7463   20.6413 C   0  0  0  0  0  0  0  0  0  0  0  0
  -24.1713  -30.5937   23.8761 C   0  0  0  0  0  0  0  0  0  0  0  0
  -24.4014  -28.6571   26.6767 C   0  0  0  0  0  0  0  0  0  0  0  0
  -30.3140  -15.2264   19.6186 C   0  0  0  0  0  0  0  0  0  0  0  0
  -22.6244  -34.1964   17.1335 C   0  0  0  0  0  0  0  0  0  0  0  0
  -22.1404  -29.1122   21.1754 C   0  0  0  0  0  0  0  0  0  0  0  0
  -24.6383  -28.4579   22.6167 C   0  0  0  0  0  0  0  0  0  0  0  0
  -23.1550  -34.2447   18.5640 C   0  0  0  0  0  0  0  0  0  0  0  0
  -30.1183  -11.9124   20.8335 C   0  0  0  0  0  0  0  0  0  0  0  0
  -24.3721  -33.3372   18.7129 C   0  0  0  0  0  0  0  0  0  0  0  0
  -28.6142  -11.6741   20.9920 C   0  0  0  0  0  0  0  0  0  0  0  0
  -30.4327  -12.7503   19.5950 C   0  0  0  0  0  0  0  0  0  0  0  0
  -28.1953  -13.7745   19.6515 C   0  0  0  0  0  0  0  0  0  0  0  0
  -24.0090  -31.8756   18.4243 C   0  0  1  0  0  0  0  0  0  0  0  0
  -23.0719  -30.1994   21.7024 C   0  0  1  0  0  0  0  0  0  0  0  0
  -27.8218  -12.9950   20.9227 C   0  0  1  0  0  0  0  0  0  0  0  0
  -29.7882  -19.6936   17.6155 C   0  0  0  0  0  0  0  0  0  0  0  0
  -24.5746  -28.8191   29.1750 C   0  0  0  0  0  0  0  0  0  0  0  0
  -27.1067  -31.3860   23.6189 C   0  0  0  0  0  0  0  0  0  0  0  0
  -27.4492  -30.6152   25.9761 C   0  0  0  0  0  0  0  0  0  0  0  0
  -25.8863  -32.4993   25.4965 C   0  0  0  0  0  0  0  0  0  0  0  0
  -21.8622  -27.1871   27.0642 C   0  0  0  0  0  0  0  0  0  0  0  0
  -25.7278  -22.6249   18.7845 C   0  0  0  0  0  0  0  0  0  0  0  0
  -24.5270  -23.5087   19.0778 C   0  0  0  0  0  0  0  0  0  1  0  0
  -25.2182  -30.1438   24.8665 C   0  0  1  0  0  0  0  0  0  0  0  0
  -23.6349  -28.6854   27.9867 C   0  0  2  0  0  0  0  0  0  0  0  0
  -26.4046  -31.1434   24.9699 C   0  0  0  0  0  0  0  0  0  0  0  0
  -25.8071  -11.6297   20.5257 N   0  0  0  0  0  0  0  0  0  0  0  0
  -26.3262  -12.7634   21.0272 N   0  0  0  0  0  0  0  0  0  0  0  0
  -23.9232  -29.7320   22.7983 N   0  0  0  0  0  0  0  0  0  0  0  0
  -29.6499  -13.9874   19.6098 N   0  0  0  0  0  0  0  0  0  0  0  0
  -25.9733  -19.6492   21.8455 N   0  0  0  0  0  0  0  0  0  0  0  0
  -25.7508  -14.7736   22.1400 N   0  0  0  0  0  0  0  0  0  0  0  0
  -21.7805  -12.6756   21.6596 N   0  0  0  0  0  0  0  0  0  0  0  0
  -25.8537  -21.5984   19.7937 N   0  0  0  0  0  0  0  0  0  0  0  0
  -29.4785  -16.3475   19.6760 N   0  0  0  0  0  0  0  0  0  0  0  0
  -23.3234  -31.2920   19.5574 N   0  0  0  0  0  0  0  0  0  0  0  0
  -24.5175  -29.9157   26.1256 N   0  0  0  0  0  0  0  0  0  0  0  0
  -22.8442  -27.4329   28.1514 N   0  3  0  0  0  0  0  0  0  0  0  0
  -31.1030  -18.0173   19.7412 O   0  0  0  0  0  0  0  0  0  0  0  0
  -22.8021  -14.5683   22.4552 O   0  0  0  0  0  0  0  0  0  0  0  0
  -25.1983  -30.6795   20.7953 O   0  0  0  0  0  0  0  0  0  0  0  0
  -23.5900  -31.6666   24.0562 O   0  0  0  0  0  0  0  0  0  0  0  0
  -24.8553  -27.6225   26.1927 O   0  0  0  0  0  0  0  0  0  0  0  0
  -31.5450  -15.3258   19.6144 O   0  0  0  0  0  0  0  0  0  0  0  0
  -20.9440   -7.7199   19.2561 O   0  0  0  0  0  0  0  0  0  0  0  0
  -24.6866  -24.1181   20.3582 O   0  0  0  0  0  0  0  0  0  1  0  0
  -22.3952   -2.4998   20.2802 F   0  0  0  0  0  0  0  0  0  0  0  0
  -19.3895   -6.1075   20.8768 F   0  0  0  0  0  0  0  0  0  0  0  0
  1  2  1  0  0  0  0
  1  5  2  0  0  0  0
  2  6  2  0  0  0  0
  3  8  2  0  0  0  0
  3 17  1  0  0  0  0
  4  9  1  0  0  0  0
  4 17  2  0  0  0  0
  5 20  1  0  0  0  0
  6 22  1  0  0  0  0
  7 10  2  0  0  0  0
  7 21  1  0  0  0  0
  8 27  1  0  0  0  0
  9 27  2  0  0  0  0
 10 28  1  0  0  0  0
 11 12  2  0  0  0  0
 11 29  1  0  0  0  0
 12 30  1  0  0  0  0
 13 18  2  0  0  0  0
 13 25  1  0  0  0  0
 14 23  1  0  0  0  0
 14 28  2  0  0  0  0
 15 24  2  0  0  0  0
 15 26  1  0  0  0  0
 16 30  2  0  0  0  0
 16 31  1  0  0  0  0
 17 32  1  0  0  0  0
 18 24  1  0  0  0  0
 18 34  1  0  0  0  0
 19 32  1  0  0  0  0
 19 33  2  0  0  0  0
 19 35  1  0  0  0  0
 20 22  2  0  0  0  0
 20 40  1  0  0  0  0
 21 23  2  0  0  0  0
 21 41  1  0  0  0  0
 22 49  1  0  0  0  0
 23 42  1  0  0  0  0
 24 52  1  0  0  0  0
 25 26  2  0  0  0  0
 25 67  1  0  0  0  0
 26 70  1  0  0  0  0
 27 81  1  0  0  0  0
 28 82  1  0  0  0  0
 29 31  2  0  0  0  0
 29 81  1  0  0  0  0
 30 83  1  0  0  0  0
 31 84  1  0  0  0  0
 32 63  2  0  0  0  0
 33 64  1  0  0  0  0
 33 68  1  0  0  0  0
 34 71  1  0  0  0  0
 34 75  2  0  0  0  0
 35 69  1  0  0  0  0
 35 76  2  0  0  0  0
 36 50  1  0  0  0  0
 36 72  1  0  0  0  0
 36 77  2  0  0  0  0
 37 60  1  0  0  0  0
 37 65  1  0  0  0  0
 37 78  2  0  0  0  0
 38 61  1  0  0  0  0
 38 73  1  0  0  0  0
 38 79  2  0  0  0  0
 39 66  1  0  0  0  0
 39 71  1  0  0  0  0
 39 80  2  0  0  0  0
 40 43  1  0  0  0  0
 41 50  1  0  0  0  0
 42 65  1  0  0  0  0
 43 45  1  0  0  0  0
 44 46  1  0  0  0  0
 44 47  1  0  0  0  0
 45 49  1  0  0  0  0
 46 51  1  0  0  0  0
 47 66  1  0  0  0  0
 48 51  1  0  0  0  0
 48 66  1  0  0  0  0
 49 72  1  0  0  0  0
 50 65  1  0  0  0  0
 51 64  1  0  0  0  0
 53 61  1  0  0  0  0
 54 62  1  0  0  0  0
 55 62  1  0  0  0  0
 56 62  1  0  0  0  0
 57 74  1  0  0  0  0
 58 59  1  0  0  0  0
 58 70  1  0  0  0  0
 59 82  1  0  0  0  0
 60 62  1  0  0  0  0
 60 73  1  0  0  0  0
 61 74  1  0  0  0  0
 63 64  1  0  0  0  0
M  CHG  1  74   1
M  ISO  4  39 100  59 101  71 100  82 101
M  END
> <Batch ID>
0098

> <Smiles>
CNC(C)C(=O)NC(C(=O)N1Cc2cc([101O:1][101CH2:1]CNc3cc(C)c(C(=O)[100NH:0][100C:0](=O)N4CCCC(n5nc(-c6ccc(Oc7ccc(F)cc7F)cc6)c(C(N)=O)c5N)C4)cc3N)ccc2CC1C(=O)NC1CCCc2ccccc21)C(C)(C)C

> <Shape>
0.237

> <Color>
0.118

> <Negative vol penalty>
0.000

$$$$

  -OEChem-04052300513D

 86 94  0     1  0  0  0  0  0999 V2000
  -31.3168  -16.2737    8.9199 C   0  0  0  0  0  0  0  0  0  0  0  0
  -30.0450  -16.4010    9.4693 C   0  0  0  0  0  0  0  0  0  0  0  0
  -23.2349   -9.8257   19.9080 C   0  0  0  0  0  0  0  0  0  0  0  0
  -23.7718   -9.9271   22.2614 C   0  0  0  0  0  0  0  0  0  0  0  0
  -32.4183  -16.8137    9.5824 C   0  0  0  0  0  0  0  0  0  0  0  0
  -29.8742  -17.0675   10.6821 C   0  0  0  0  0  0  0  0  0  0  0  0
  -25.1035  -20.5318   12.3391 C   0  0  0  0  0  0  0  0  0  0  0  0
  -26.6418  -14.3395   15.6571 C   0  0  0  0  0  0  0  0  0  0  0  0
  -25.5753  -15.1973   15.9259 C   0  0  0  0  0  0  0  0  0  0  0  0
  -22.5068   -8.6559   20.1245 C   0  0  0  0  0  0  0  0  0  0  0  0
  -23.0437   -8.7572   22.4780 C   0  0  0  0  0  0  0  0  0  0  0  0
  -23.9767  -20.2665   13.1160 C   0  0  0  0  0  0  0  0  0  0  0  0
  -20.8054   -5.4444   19.9990 C   0  0  0  0  0  0  0  0  0  0  0  0
  -20.9900   -4.3892   19.1057 C   0  0  0  0  0  0  0  0  0  0  0  0
  -25.0911  -21.2008   15.0407 C   0  0  0  0  0  0  0  0  0  0  0  0
  -28.0148  -15.5527   17.2319 C   0  0  0  0  0  0  0  0  0  0  0  0
  -23.3348   -4.3110   19.6825 C   0  0  0  0  0  0  0  0  0  0  0  0
  -23.8675  -10.4613   20.9765 C   0  0  0  0  0  0  0  0  0  0  0  0
  -24.1405  -12.9920   20.8061 C   0  0  0  0  0  0  0  0  0  0  0  0
  -32.2597  -17.4955   10.7992 C   0  0  0  0  0  0  0  0  0  0  0  0
  -26.2386  -21.1246   12.9106 C   0  0  0  0  0  0  0  0  0  0  0  0
  -30.9748  -17.6160   11.3622 C   0  0  0  0  0  0  0  0  0  0  0  0
  -26.2301  -21.4749   14.2683 C   0  0  0  0  0  0  0  0  0  0  0  0
  -26.9483  -16.4106   17.5007 C   0  0  0  0  0  0  0  0  0  0  0  0
  -27.8615  -14.5171   16.3101 C   0  0  0  0  0  0  0  0  0  0  0  0
  -25.7286  -16.2329   16.8477 C   0  0  0  0  0  0  0  0  0  0  0  0
  -22.4112   -8.1216   21.4095 C   0  0  0  0  0  0  0  0  0  0  0  0
  -23.9714  -20.5984   14.4677 C   0  0  0  0  0  0  0  0  0  0  0  0
  -21.8856   -5.9330   20.7341 C   0  0  0  0  0  0  0  0  0  0  0  0
  -22.2547   -3.8225   18.9475 C   0  0  0  0  0  0  0  0  0  0  0  0
  -23.1503   -5.3663   20.5758 C   0  0  0  0  0  0  0  0  0  0  0  0
  -24.6202  -11.6695   20.7534 C   0  0  0  0  0  0  0  0  0  0  0  0
  -25.2385  -13.7671   20.5230 C   0  0  0  0  0  0  0  0  0  0  0  0
  -22.8204  -13.4764   21.0859 C   0  0  0  0  0  0  0  0  0  0  0  0
  -29.2647  -20.2420   13.3198 C   0  0  0  0  0  0  0  0  0  0  0  0
  -29.5979  -23.2831   14.3985 C   0  0  0  0  0  0  0  0  0  0  0  0
  -23.3632  -17.0418   16.5421 C   0  0  0  0  0  0  0  0  0  0  0  0
  -28.1365  -26.0518   15.7569 C   0  0  0  0  0  0  0  0  0  0  0  0
  -29.9537  -13.3079   16.9822 C   0  0  0  0  0  0  0  0  0  0  0  0
  -33.4862  -18.0212   11.5020 C   0  0  0  0  0  0  0  0  0  0  0  0
  -27.4363  -21.4286   12.0530 C   0  0  0  0  0  0  0  0  0  0  0  0
  -27.4158  -22.1315   14.9253 C   0  0  0  0  0  0  0  0  0  0  0  0
  -33.1723  -19.0384   12.5962 C   0  0  0  0  0  0  0  0  0  0  0  0
  -30.1287  -13.1263   20.6740 C   0  0  0  0  0  0  0  0  0  0  0  0
  -32.0320  -18.5393   13.4778 C   0  0  0  0  0  0  0  0  0  0  0  0
  -28.6954  -12.7703   21.0645 C   0  0  0  0  0  0  0  0  0  0  0  0
  -30.4875  -12.5940   19.2899 C   0  0  0  0  0  0  0  0  0  0  0  0
  -28.1059  -12.6774   18.6098 C   0  0  0  0  0  0  0  0  0  0  0  0
  -30.7458  -18.3535   12.6637 C   0  0  1  0  0  0  0  0  0  0  0  0
  -28.7265  -21.5658   12.8554 C   0  0  1  0  0  0  0  0  0  0  0  0
  -27.7068  -13.2373   19.9834 C   0  0  1  0  0  0  0  0  0  0  0  0
  -27.1397  -17.5102   18.4942 C   0  0  0  0  0  0  0  0  0  0  0  0
  -29.9205  -14.3478   13.8811 C   0  0  0  0  0  0  0  0  0  0  0  0
  -28.6718  -28.3678   16.5612 C   0  0  0  0  0  0  0  0  0  0  0  0
  -30.8255  -22.1155   16.9362 C   0  0  0  0  0  0  0  0  0  0  0  0
  -30.4590  -24.3284   18.0482 C   0  0  0  0  0  0  0  0  0  0  0  0
  -31.9702  -24.1636   16.0704 C   0  0  0  0  0  0  0  0  0  0  0  0
  -26.3317  -27.2866   13.7628 C   0  0  0  0  0  0  0  0  0  0  0  0
  -22.4861  -18.1533   17.1015 C   0  0  0  0  0  0  0  0  0  0  0  0
  -21.4356  -18.6305   16.1047 C   0  0  0  0  0  0  0  0  0  0  0  0
  -29.2062  -13.2502   14.6435 C   0  0  0  0  0  0  0  0  0  0  0  0
  -22.0731  -19.2190   14.8545 C   0  0  0  0  0  0  0  0  0  1  0  0
  -29.4717  -23.9609   15.7415 C   0  0  1  0  0  0  0  0  0  0  0  0
  -28.2188  -27.5206   15.3823 C   0  0  2  0  0  0  0  0  0  0  0  0
  -30.6598  -23.6280   16.6874 C   0  0  0  0  0  0  0  0  0  0  0  0
  -25.9216  -11.6044   20.4598 N   0  0  0  0  0  0  0  0  0  0  0  0
  -26.2689  -12.8957   20.3254 N   0  0  0  0  0  0  0  0  0  0  0  0
  -28.5652  -22.4026   14.0462 N   0  0  0  0  0  0  0  0  0  0  0  0
  -29.5051  -12.9964   18.2821 N   0  0  0  0  0  0  0  0  0  0  0  0
  -25.4133  -15.1022   20.4264 N   0  0  0  0  0  0  0  0  0  0  0  0
  -21.8097  -12.5437   21.3559 N   0  0  0  0  0  0  0  0  0  0  0  0
  -24.6342  -17.0915   17.1079 N   0  0  0  0  0  0  0  0  0  0  0  0
  -30.1147  -19.6323   12.4170 N   0  0  0  0  0  0  0  0  0  0  0  0
  -29.3075  -25.3842   15.4664 N   0  0  0  0  0  0  0  0  0  0  0  0
  -28.9635  -13.6281   16.0340 N   0  0  0  0  0  0  0  0  0  0  0  0
  -26.8872  -28.0156   14.9320 N   0  3  0  0  0  0  0  0  0  0  0  0
  -22.5415  -14.6994   21.0801 O   0  0  0  0  0  0  0  0  0  0  0  0
  -28.9345  -19.8068   14.4168 O   0  0  0  0  0  0  0  0  0  0  0  0
  -30.5732  -23.5312   13.6852 O   0  0  0  0  0  0  0  0  0  0  0  0
  -22.9495  -16.2429   15.7085 O   0  0  0  0  0  0  0  0  0  0  0  0
  -27.1350  -25.5478   16.2605 O   0  0  0  0  0  0  0  0  0  0  0  0
  -31.1499  -13.2506   16.6715 O   0  0  0  0  0  0  0  0  0  0  0  0
  -21.7006   -6.9802   21.6211 O   0  0  0  0  0  0  0  0  0  0  0  0
  -22.8730  -20.3400   15.2284 O   0  0  0  0  0  0  0  0  0  1  0  0
  -22.4314   -2.8081   18.0907 F   0  0  0  0  0  0  0  0  0  0  0  0
  -24.1915   -5.8306   21.2801 F   0  0  0  0  0  0  0  0  0  0  0  0
  1  2  1  0  0  0  0
  1  5  2  0  0  0  0
  2  6  2  0  0  0  0
  3 10  2  0  0  0  0
  3 18  1  0  0  0  0
  4 11  1  0  0  0  0
  4 18  2  0  0  0  0
  5 20  1  0  0  0  0
  6 22  1  0  0  0  0
  7 12  2  0  0  0  0
  7 21  1  0  0  0  0
  8  9  2  0  0  0  0
  8 25  1  0  0  0  0
  9 26  1  0  0  0  0
 10 27  1  0  0  0  0
 11 27  2  0  0  0  0
 12 28  1  0  0  0  0
 13 14  2  0  0  0  0
 13 29  1  0  0  0  0
 14 30  1  0  0  0  0
 15 23  1  0  0  0  0
 15 28  2  0  0  0  0
 16 24  1  0  0  0  0
 16 25  2  0  0  0  0
 17 30  2  0  0  0  0
 17 31  1  0  0  0  0
 18 32  1  0  0  0  0
 19 32  1  0  0  0  0
 19 33  2  0  0  0  0
 19 34  1  0  0  0  0
 20 22  2  0  0  0  0
 20 40  1  0  0  0  0
 21 23  2  0  0  0  0
 21 41  1  0  0  0  0
 22 49  1  0  0  0  0
 23 42  1  0  0  0  0
 24 26  2  0  0  0  0
 24 52  1  0  0  0  0
 25 75  1  0  0  0  0
 26 72  1  0  0  0  0
 27 83  1  0  0  0  0
 28 84  1  0  0  0  0
 29 31  2  0  0  0  0
 29 83  1  0  0  0  0
 30 85  1  0  0  0  0
 31 86  1  0  0  0  0
 32 66  2  0  0  0  0
 33 67  1  0  0  0  0
 33 70  1  0  0  0  0
 34 71  1  0  0  0  0
 34 77  2  0  0  0  0
 35 50  1  0  0  0  0
 35 73  1  0  0  0  0
 35 78  2  0  0  0  0
 36 63  1  0  0  0  0
 36 68  1  0  0  0  0
 36 79  2  0  0  0  0
 37 59  1  0  0  0  0
 37 72  1  0  0  0  0
 37 80  2  0  0  0  0
 38 64  1  0  0  0  0
 38 74  1  0  0  0  0
 38 81  2  0  0  0  0
 39 69  1  0  0  0  0
 39 75  1  0  0  0  0
 39 82  2  0  0  0  0
 40 43  1  0  0  0  0
 41 50  1  0  0  0  0
 42 68  1  0  0  0  0
 43 45  1  0  0  0  0
 44 46  1  0  0  0  0
 44 47  1  0  0  0  0
 45 49  1  0  0  0  0
 46 51  1  0  0  0  0
 47 69  1  0  0  0  0
 48 51  1  0  0  0  0
 48 69  1  0  0  0  0
 49 73  1  0  0  0  0
 50 68  1  0  0  0  0
 51 67  1  0  0  0  0
 53 61  1  0  0  0  0
 54 64  1  0  0  0  0
 55 65  1  0  0  0  0
 56 65  1  0  0  0  0
 57 65  1  0  0  0  0
 58 76  1  0  0  0  0
 59 60  1  0  0  0  0
 60 62  1  0  0  0  0
 61 75  1  0  0  0  0
 62 84  1  0  0  0  0
 63 65  1  0  0  0  0
 63 74  1  0  0  0  0
 64 76  1  0  0  0  0
 66 67  1  0  0  0  0
M  CHG  1  76   1
M  ISO  4  39 100  62 101  75 100  84 101
M  END
> <Batch ID>
0098

> <Smiles>
CC[100N:0](c1ccc(NC(=O)CC[101CH2:1][101O:1]c2ccc3c(c2)CN(C(=O)C(NC(=O)C(C)NC)C(C)(C)C)C(C(=O)NC2CCCc4ccccc42)C3)c(C)c1)[100C:0](=O)N1CCCC(n2nc(-c3ccc(Oc4ccc(F)cc4F)cc3)c(C(N)=O)c2N)C1

> <Shape>
0.141

> <Color>
0.177

> <Negative vol penalty>
0.000

$$$$

  -OEChem-04052300513D

 88 97  0     1  0  0  0  0  0999 V2000
  -16.3201  -29.3508   23.5039 C   0  0  0  0  0  0  0  0  0  0  0  0
  -17.1121  -28.2495   23.1952 C   0  0  0  0  0  0  0  0  0  0  0  0
  -26.5153  -12.5128   21.0453 C   0  0  0  0  0  0  0  0  0  0  0  0
  -24.8788  -13.8168   19.8376 C   0  0  0  0  0  0  0  0  0  0  0  0
  -16.9105  -30.5971   23.7089 C   0  0  0  0  0  0  0  0  0  0  0  0
  -18.4950  -28.3942   23.0902 C   0  0  0  0  0  0  0  0  0  0  0  0
  -22.7559  -24.2833   24.6557 C   0  0  0  0  0  0  0  0  0  0  0  0
  -29.0702  -21.6475   16.2132 C   0  0  0  0  0  0  0  0  0  0  0  0
  -29.3625  -23.6526   17.5289 C   0  0  0  0  0  0  0  0  0  0  0  0
  -29.9773  -22.1331   15.2714 C   0  0  0  0  0  0  0  0  0  0  0  0
  -30.2697  -24.1383   16.5872 C   0  0  0  0  0  0  0  0  0  0  0  0
  -25.4902  -11.8620   21.7317 C   0  0  0  0  0  0  0  0  0  0  0  0
  -23.8536  -13.1659   20.5240 C   0  0  0  0  0  0  0  0  0  0  0  0
  -23.4884  -23.3610   23.9096 C   0  0  0  0  0  0  0  0  0  0  0  0
  -20.7936  -11.5926   21.6984 C   0  0  0  0  0  0  0  0  0  0  0  0
  -19.6964  -11.1502   20.9595 C   0  0  0  0  0  0  0  0  0  0  0  0
  -25.3144  -24.9315   23.7722 C   0  0  0  0  0  0  0  0  0  0  0  0
  -21.1531   -9.7499   19.6349 C   0  0  0  0  0  0  0  0  0  0  0  0
  -26.2096  -13.4903   20.0983 C   0  0  0  0  0  0  0  0  0  0  0  0
  -27.8568  -13.7744   18.1712 C   0  0  0  0  0  0  0  0  0  0  0  0
  -18.3023  -30.7551   23.6159 C   0  0  0  0  0  0  0  0  0  0  0  0
  -23.2938  -25.5428   24.9569 C   0  0  0  0  0  0  0  0  0  0  0  0
  -19.1045  -29.6440   23.2928 C   0  0  0  0  0  0  0  0  0  0  0  0
  -24.5877  -25.8670   24.5245 C   0  0  0  0  0  0  0  0  0  0  0  0
  -28.7628  -22.4072   17.3419 C   0  0  0  0  0  0  0  0  0  0  0  0
  -30.5770  -23.3785   15.4584 C   0  0  0  0  0  0  0  0  0  0  0  0
  -24.1594  -12.1885   21.4710 C   0  0  0  0  0  0  0  0  0  0  0  0
  -24.7667  -23.6861   23.4653 C   0  0  0  0  0  0  0  0  0  0  0  0
  -22.0706  -11.1138   21.4055 C   0  0  0  0  0  0  0  0  0  0  0  0
  -19.8761  -10.2288   19.9278 C   0  0  0  0  0  0  0  0  0  0  0  0
  -22.2503  -10.1924   20.3738 C   0  0  0  0  0  0  0  0  0  0  0  0
  -27.2681  -14.1634   19.3893 C   0  0  0  0  0  0  0  0  0  0  0  0
  -28.8046  -14.7374   17.9249 C   0  0  0  0  0  0  0  0  0  0  0  0
  -31.9150  -23.2298   13.3128 C   0  0  0  0  0  0  0  0  0  0  0  0
  -27.5722  -12.6436   17.3368 C   0  0  0  0  0  0  0  0  0  0  0  0
  -22.4888  -28.5441   24.2874 C   0  0  0  0  0  0  0  0  0  0  0  0
  -24.9393  -29.2382   26.2963 C   0  0  0  0  0  0  0  0  0  0  0  0
  -27.8602  -28.2445   27.7549 C   0  0  0  0  0  0  0  0  0  0  0  0
  -29.3573  -20.4474   19.6399 C   0  0  0  0  0  0  0  0  0  0  0  0
  -18.8905  -32.1317   23.7993 C   0  0  0  0  0  0  0  0  0  0  0  0
  -22.5013  -26.5163   25.7855 C   0  0  0  0  0  0  0  0  0  0  0  0
  -25.2185  -27.1981   24.8385 C   0  0  0  0  0  0  0  0  0  0  0  0
  -32.9795  -24.0946   12.6766 C   0  0  0  0  0  0  0  0  0  0  0  0
  -20.3981  -32.1230   24.0384 C   0  0  0  0  0  0  0  0  0  0  0  0
  -32.7457  -25.4552   13.3020 C   0  0  0  0  0  0  0  0  0  0  0  0
  -31.6913  -17.8139   20.1818 C   0  0  0  0  0  0  0  0  0  0  0  0
  -21.0919  -31.2033   23.0386 C   0  0  0  0  0  0  0  0  0  0  0  0
  -30.8754  -16.5446   19.9302 C   0  0  0  0  0  0  0  0  0  0  0  0
  -32.2222  -25.1215   14.6833 C   0  0  0  0  0  0  0  0  0  0  0  0
  -30.8552  -18.8969   20.8600 C   0  0  0  0  0  0  0  0  0  0  0  0
  -28.7793  -17.9604   19.9181 C   0  0  0  0  0  0  0  0  0  0  0  0
  -20.6105  -29.7557   23.1945 C   0  0  1  0  0  0  0  0  0  0  0  0
  -22.9461  -27.9632   25.5955 C   0  0  1  0  0  0  0  0  0  0  0  0
  -29.5643  -16.8592   19.1851 C   0  0  2  0  0  0  0  0  0  0  0  0
  -29.6512  -29.0426   29.3210 C   0  0  0  0  0  0  0  0  0  0  0  0
  -26.4156  -21.6545   17.6594 C   0  0  0  0  0  0  0  0  0  0  0  0
  -26.0996  -30.9816   24.0773 C   0  0  0  0  0  0  0  0  0  0  0  0
  -28.2811  -30.9720   25.3059 C   0  0  0  0  0  0  0  0  0  0  0  0
  -26.2569  -31.9689   26.3696 C   0  0  0  0  0  0  0  0  0  0  0  0
  -27.3033  -26.0708   29.6845 C   0  0  0  0  0  0  0  0  0  0  0  0
  -26.5562  -22.3241   20.6390 C   0  0  0  0  0  0  0  0  0  0  0  0
  -27.5329  -22.8425   19.5746 C   0  0  0  0  0  0  0  0  0  0  0  0
  -26.4115  -23.3141   21.7883 C   0  0  0  0  0  0  0  0  0  1  0  0
  -26.4243  -29.4571   26.1356 C   0  0  1  0  0  0  0  0  0  0  0  0
  -28.3339  -28.2931   29.1963 C   0  0  2  0  0  0  0  0  0  0  0  0
  -27.7633  -21.8721   18.3794 C   0  0  2  0  0  0  0  0  0  0  0  0
  -26.7531  -30.8205   25.4643 C   0  0  0  0  0  0  0  0  0  0  0  0
  -27.7977  -15.2860   19.8827 N   0  0  0  0  0  0  0  0  0  0  0  0
  -28.7292  -15.6105   18.9700 N   0  0  0  0  0  0  0  0  0  0  0  0
  -31.5049  -23.8753   14.4957 N   0  0  0  0  0  0  0  0  0  0  0  0
  -24.4013  -28.1185   25.6463 N   0  0  0  0  0  0  0  0  0  0  0  0
  -29.6269  -19.1489   20.1026 N   0  0  0  0  0  0  0  0  0  0  0  0
  -29.6870  -14.9140   16.9185 N   0  0  0  0  0  0  0  0  0  0  0  0
  -26.5673  -11.7530   17.7384 N   0  0  0  0  0  0  0  0  0  0  0  0
  -21.2404  -29.1341   24.3395 N   0  0  0  0  0  0  0  0  0  0  0  0
  -27.0077  -29.2880   27.4620 N   0  0  0  0  0  0  0  0  0  0  0  0
  -28.1751  -20.5980   18.9253 N   0  0  0  0  0  0  0  0  0  0  0  0
  -28.5264  -26.9131   29.7250 N   0  3  0  0  0  0  0  0  0  0  0  0
  -31.5783  -22.1513   12.8461 O   0  0  0  0  0  0  0  0  0  0  0  0
  -28.2020  -12.4204   16.2752 O   0  0  0  0  0  0  0  0  0  0  0  0
  -23.2155  -28.4642   23.3039 O   0  0  0  0  0  0  0  0  0  0  0  0
  -24.2821  -30.0275   26.9796 O   0  0  0  0  0  0  0  0  0  0  0  0
  -28.2143  -27.3707   26.9664 O   0  0  0  0  0  0  0  0  0  0  0  0
  -30.1166  -21.4008   19.8436 O   0  0  0  0  0  0  0  0  0  0  0  0
  -23.1588  -11.5534   22.1404 O   0  0  0  0  0  0  0  0  0  0  0  0
  -25.4836  -22.7881   22.7363 O   0  0  0  0  0  0  0  0  0  1  0  0
  -18.8222   -9.8028   19.2194 F   0  0  0  0  0  0  0  0  0  0  0  0
  -23.4745   -9.7279   20.0885 F   0  0  0  0  0  0  0  0  0  0  0  0
  1  2  1  0  0  0  0
  1  5  2  0  0  0  0
  2  6  2  0  0  0  0
  3 12  2  0  0  0  0
  3 19  1  0  0  0  0
  4 13  1  0  0  0  0
  4 19  2  0  0  0  0
  5 21  1  0  0  0  0
  6 23  1  0  0  0  0
  7 14  2  0  0  0  0
  7 22  1  0  0  0  0
  8 10  2  0  0  0  0
  8 25  1  0  0  0  0
  9 11  1  0  0  0  0
  9 25  2  0  0  0  0
 10 26  1  0  0  0  0
 11 26  2  0  0  0  0
 12 27  1  0  0  0  0
 13 27  2  0  0  0  0
 14 28  1  0  0  0  0
 15 16  2  0  0  0  0
 15 29  1  0  0  0  0
 16 30  1  0  0  0  0
 17 24  1  0  0  0  0
 17 28  2  0  0  0  0
 18 30  2  0  0  0  0
 18 31  1  0  0  0  0
 19 32  1  0  0  0  0
 20 32  1  0  0  0  0
 20 33  2  0  0  0  0
 20 35  1  0  0  0  0
 21 23  2  0  0  0  0
 21 40  1  0  0  0  0
 22 24  2  0  0  0  0
 22 41  1  0  0  0  0
 23 52  1  0  0  0  0
 24 42  1  0  0  0  0
 25 66  1  0  0  0  0
 26 70  1  0  0  0  0
 27 85  1  0  0  0  0
 28 86  1  0  0  0  0
 29 31  2  0  0  0  0
 29 85  1  0  0  0  0
 30 87  1  0  0  0  0
 31 88  1  0  0  0  0
 32 68  2  0  0  0  0
 33 69  1  0  0  0  0
 33 73  1  0  0  0  0
 34 43  1  0  0  0  0
 34 70  1  0  0  0  0
 34 79  2  0  0  0  0
 35 74  1  0  0  0  0
 35 80  2  0  0  0  0
 36 53  1  0  0  0  0
 36 75  1  0  0  0  0
 36 81  2  0  0  0  0
 37 64  1  0  0  0  0
 37 71  1  0  0  0  0
 37 82  2  0  0  0  0
 38 65  1  0  0  0  0
 38 76  1  0  0  0  0
 38 83  2  0  0  0  0
 39 72  1  0  0  0  0
 39 77  1  0  0  0  0
 39 84  2  0  0  0  0
 40 44  1  0  0  0  0
 41 53  1  0  0  0  0
 42 71  1  0  0  0  0
 43 45  1  0  0  0  0
 44 47  1  0  0  0  0
 45 49  1  0  0  0  0
 46 48  1  0  0  0  0
 46 50  1  0  0  0  0
 47 52  1  0  0  0  0
 48 54  1  0  0  0  0
 49 70  1  0  0  0  0
 50 72  1  0  0  0  0
 51 54  1  0  0  0  0
 51 72  1  0  0  0  0
 52 75  1  0  0  0  0
 53 71  1  0  0  0  0
 54 69  1  0  0  0  0
 55 65  1  0  0  0  0
 56 66  1  0  0  0  0
 57 67  1  0  0  0  0
 58 67  1  0  0  0  0
 59 67  1  0  0  0  0
 60 78  1  0  0  0  0
 61 62  1  0  0  0  0
 61 63  1  0  0  0  0
 62 66  1  0  0  0  0
 63 86  1  0  0  0  0
 64 67  1  0  0  0  0
 64 76  1  0  0  0  0
 65 78  1  0  0  0  0
 66 77  1  0  0  0  0
 68 69  1  0  0  0  0
M  CHG  1  78   1
M  ISO  4  39 100  63 101  77 100  86 101
M  END
> <Batch ID>
0098

> <Smiles>
CNC(C)C(=O)NC(C(=O)N1Cc2cc([101O:1][101CH2:1]CCC(C)([100NH:0][100C:0](=O)N3CCCC(n4nc(-c5ccc(Oc6ccc(F)cc6F)cc5)c(C(N)=O)c4N)C3)c3ccc(N4CCCC4=O)cc3)ccc2CC1C(=O)NC1CCCc2ccccc21)C(C)(C)C

> <Shape>
0.219

> <Color>
0.075

> <Negative vol penalty>
0.000

$$$$

  -OEChem-04052300513D

 85 93  0     1  0  0  0  0  0999 V2000
  -29.5449  -26.8497   16.0637 C   0  0  0  0  0  0  0  0  0  0  0  0
  -28.1720  -26.8530   16.2888 C   0  0  0  0  0  0  0  0  0  0  0  0
  -24.8709  -12.7782   19.7344 C   0  0  0  0  0  0  0  0  0  0  0  0
  -25.3992  -12.6683   22.0894 C   0  0  0  0  0  0  0  0  0  0  0  0
  -30.4217  -27.1467   17.1062 C   0  0  0  0  0  0  0  0  0  0  0  0
  -27.6752  -27.1523   17.5569 C   0  0  0  0  0  0  0  0  0  0  0  0
  -22.4939  -30.1415   18.8698 C   0  0  0  0  0  0  0  0  0  0  0  0
  -25.5286  -11.5652   19.5303 C   0  0  0  0  0  0  0  0  0  0  0  0
  -26.0569  -11.4553   21.8853 C   0  0  0  0  0  0  0  0  0  0  0  0
  -21.2219  -29.6997   19.2312 C   0  0  0  0  0  0  0  0  0  0  0  0
  -24.8857   -8.2764   19.9807 C   0  0  0  0  0  0  0  0  0  0  0  0
  -24.2534   -7.3222   19.1837 C   0  0  0  0  0  0  0  0  0  0  0  0
  -21.7794  -30.0158   21.5568 C   0  0  0  0  0  0  0  0  0  0  0  0
  -20.8485  -25.0347   23.4113 C   0  0  0  0  0  0  0  0  0  0  0  0
  -23.0713  -24.0678   22.0303 C   0  0  0  0  0  0  0  0  0  0  0  0
  -26.1225   -7.3618   17.6534 C   0  0  0  0  0  0  0  0  0  0  0  0
  -24.8062  -13.3298   21.0140 C   0  0  0  0  0  0  0  0  0  0  0  0
  -22.7680  -14.7712   21.5394 C   0  0  0  0  0  0  0  0  0  0  0  0
  -29.9351  -27.4593   18.3853 C   0  0  0  0  0  0  0  0  0  0  0  0
  -23.4235  -30.5141   19.8513 C   0  0  0  0  0  0  0  0  0  0  0  0
  -28.5464  -27.4524   18.6178 C   0  0  0  0  0  0  0  0  0  0  0  0
  -23.0617  -30.4644   21.2051 C   0  0  0  0  0  0  0  0  0  0  0  0
  -21.9115  -24.4651   24.1122 C   0  0  0  0  0  0  0  0  0  0  0  0
  -23.0229  -23.9817   23.4217 C   0  0  0  0  0  0  0  0  0  0  0  0
  -22.0082  -24.6373   21.3294 C   0  0  0  0  0  0  0  0  0  0  0  0
  -20.8968  -25.1207   22.0199 C   0  0  0  0  0  0  0  0  0  0  0  0
  -26.1216  -10.9038   20.6057 C   0  0  0  0  0  0  0  0  0  0  0  0
  -20.8655  -29.6340   20.5749 C   0  0  0  0  0  0  0  0  0  0  0  0
  -26.1364   -8.7733   19.6141 C   0  0  0  0  0  0  0  0  0  0  0  0
  -24.8718   -6.8649   18.0200 C   0  0  0  0  0  0  0  0  0  0  0  0
  -26.7548   -8.3160   18.4504 C   0  0  0  0  0  0  0  0  0  0  0  0
  -24.1274  -14.5830   21.2255 C   0  0  0  0  0  0  0  0  0  0  0  0
  -22.6234  -16.1336   21.6363 C   0  0  0  0  0  0  0  0  0  0  0  0
  -21.7290  -13.8011   21.7268 C   0  0  0  0  0  0  0  0  0  0  0  0
  -26.2883  -29.4633   20.7416 C   0  0  0  0  0  0  0  0  0  0  0  0
  -26.2076  -32.0615   22.6819 C   0  0  0  0  0  0  0  0  0  0  0  0
  -24.3330  -34.3719   24.3536 C   0  0  0  0  0  0  0  0  0  0  0  0
  -24.3481  -20.9792   23.5050 C   0  0  0  0  0  0  0  0  0  0  0  0
  -30.9234  -27.7274   19.4925 C   0  0  0  0  0  0  0  0  0  0  0  0
  -24.7824  -31.0139   19.4439 C   0  0  0  0  0  0  0  0  0  0  0  0
  -24.0161  -30.8723   22.2965 C   0  0  0  0  0  0  0  0  0  0  0  0
  -30.3022  -28.4007   20.7137 C   0  0  0  0  0  0  0  0  0  0  0  0
  -25.7767  -19.8801   20.3668 C   0  0  0  0  0  0  0  0  0  0  0  0
  -29.0015  -27.7053   21.1027 C   0  0  0  0  0  0  0  0  0  0  0  0
  -25.3573  -18.4091   20.3403 C   0  0  0  0  0  0  0  0  0  0  0  0
  -26.1355  -20.3272   21.7808 C   0  0  0  0  0  0  0  0  0  0  0  0
  -24.6413  -18.6322   22.7646 C   0  0  0  0  0  0  0  0  0  0  0  0
  -27.9682  -27.7963   19.9733 C   0  0  1  0  0  0  0  0  0  0  0  0
  -25.8247  -30.8796   20.5498 C   0  0  1  0  0  0  0  0  0  0  0  0
  -24.2442  -18.1253   21.3662 C   0  0  2  0  0  0  0  0  0  0  0  0
  -21.8376  -24.3825   25.6015 C   0  0  0  0  0  0  0  0  0  0  0  0
  -25.2399  -24.3977   24.5501 C   0  0  0  0  0  0  0  0  0  0  0  0
  -24.5481  -36.3474   25.8861 C   0  0  0  0  0  0  0  0  0  0  0  0
  -26.8149  -30.1857   25.0105 C   0  0  0  0  0  0  0  0  0  0  0  0
  -26.0854  -32.0014   26.5724 C   0  0  0  0  0  0  0  0  0  0  0  0
  -28.0474  -32.3609   25.0743 C   0  0  0  0  0  0  0  0  0  0  0  0
  -23.0289  -36.1748   22.4021 C   0  0  0  0  0  0  0  0  0  0  0  0
  -18.0967  -27.3523   20.9030 C   0  0  0  0  0  0  0  0  0  0  0  0
  -18.8639  -26.5661   21.9592 C   0  0  0  0  0  0  0  0  0  0  0  0
  -18.9935  -28.2579   20.0671 C   0  0  0  0  0  0  0  0  0  1  0  0
  -24.1736  -23.3688   24.1503 C   0  0  2  0  0  0  0  0  0  0  0  0
  -25.7210  -32.3334   24.0848 C   0  0  1  0  0  0  0  0  0  0  0  0
  -24.4409  -35.8836   24.4418 C   0  0  2  0  0  0  0  0  0  0  0  0
  -26.6496  -31.7108   25.1653 C   0  0  0  0  0  0  0  0  0  0  0  0
  -24.7984  -15.7339   21.1291 N   0  0  0  0  0  0  0  0  0  0  0  0
  -23.8567  -16.6583   21.3839 N   0  0  0  0  0  0  0  0  0  0  0  0
  -25.3351  -31.3481   21.8479 N   0  0  0  0  0  0  0  0  0  0  0  0
  -25.0272  -20.0459   22.7042 N   0  0  0  0  0  0  0  0  0  0  0  0
  -22.0785  -24.7146   19.9203 N   0  0  0  0  0  0  0  0  0  0  0  0
  -21.5627  -16.9220   21.9117 N   0  0  0  0  0  0  0  0  0  0  0  0
  -22.0499  -12.4436   21.5907 N   0  0  0  0  0  0  0  0  0  0  0  0
  -19.8302  -25.6901   21.3419 N   0  0  0  0  0  0  0  0  0  0  0  0
  -27.3625  -29.1104   19.9471 N   0  0  0  0  0  0  0  0  0  0  0  0
  -25.5678  -33.7804   24.1905 N   0  0  0  0  0  0  0  0  0  0  0  0
  -24.7793  -22.2954   23.3940 N   0  0  0  0  0  0  0  0  0  0  0  0
  -23.2430  -36.5250   23.8299 N   0  3  0  0  0  0  0  0  0  0  0  0
  -20.5473  -14.1292   21.9904 O   0  0  0  0  0  0  0  0  0  0  0  0
  -25.7149  -28.7443   21.5515 O   0  0  0  0  0  0  0  0  0  0  0  0
  -27.3179  -32.4733   22.3365 O   0  0  0  0  0  0  0  0  0  0  0  0
  -23.2609  -33.7753   24.4261 O   0  0  0  0  0  0  0  0  0  0  0  0
  -23.4218  -20.6636   24.2597 O   0  0  0  0  0  0  0  0  0  0  0  0
  -26.7633   -9.7200   20.4069 O   0  0  0  0  0  0  0  0  0  0  0  0
  -19.6248  -29.2025   20.9305 O   0  0  0  0  0  0  0  0  0  1  0  0
  -24.2651   -5.9475   17.2555 F   0  0  0  0  0  0  0  0  0  0  0  0
  -27.9569   -8.7889   18.0937 F   0  0  0  0  0  0  0  0  0  0  0  0
  1  2  1  0  0  0  0
  1  5  2  0  0  0  0
  2  6  2  0  0  0  0
  3  8  2  0  0  0  0
  3 17  1  0  0  0  0
  4  9  1  0  0  0  0
  4 17  2  0  0  0  0
  5 19  1  0  0  0  0
  6 21  1  0  0  0  0
  7 10  2  0  0  0  0
  7 20  1  0  0  0  0
  8 27  1  0  0  0  0
  9 27  2  0  0  0  0
 10 28  1  0  0  0  0
 11 12  2  0  0  0  0
 11 29  1  0  0  0  0
 12 30  1  0  0  0  0
 13 22  1  0  0  0  0
 13 28  2  0  0  0  0
 14 23  2  0  0  0  0
 14 26  1  0  0  0  0
 15 24  2  0  0  0  0
 15 25  1  0  0  0  0
 16 30  2  0  0  0  0
 16 31  1  0  0  0  0
 17 32  1  0  0  0  0
 18 32  1  0  0  0  0
 18 33  2  0  0  0  0
 18 34  1  0  0  0  0
 19 21  2  0  0  0  0
 19 39  1  0  0  0  0
 20 22  2  0  0  0  0
 20 40  1  0  0  0  0
 21 48  1  0  0  0  0
 22 41  1  0  0  0  0
 23 24  1  0  0  0  0
 23 51  1  0  0  0  0
 24 61  1  0  0  0  0
 25 26  2  0  0  0  0
 25 69  1  0  0  0  0
 26 72  1  0  0  0  0
 27 82  1  0  0  0  0
 28 83  1  0  0  0  0
 29 31  2  0  0  0  0
 29 82  1  0  0  0  0
 30 84  1  0  0  0  0
 31 85  1  0  0  0  0
 32 65  2  0  0  0  0
 33 66  1  0  0  0  0
 33 70  1  0  0  0  0
 34 71  1  0  0  0  0
 34 77  2  0  0  0  0
 35 49  1  0  0  0  0
 35 73  1  0  0  0  0
 35 78  2  0  0  0  0
 36 62  1  0  0  0  0
 36 67  1  0  0  0  0
 36 79  2  0  0  0  0
 37 63  1  0  0  0  0
 37 74  1  0  0  0  0
 37 80  2  0  0  0  0
 38 68  1  0  0  0  0
 38 75  1  0  0  0  0
 38 81  2  0  0  0  0
 39 42  1  0  0  0  0
 40 49  1  0  0  0  0
 41 67  1  0  0  0  0
 42 44  1  0  0  0  0
 43 45  1  0  0  0  0
 43 46  1  0  0  0  0
 44 48  1  0  0  0  0
 45 50  1  0  0  0  0
 46 68  1  0  0  0  0
 47 50  1  0  0  0  0
 47 68  1  0  0  0  0
 48 73  1  0  0  0  0
 49 67  1  0  0  0  0
 50 66  1  0  0  0  0
 52 61  1  0  0  0  0
 53 63  1  0  0  0  0
 54 64  1  0  0  0  0
 55 64  1  0  0  0  0
 56 64  1  0  0  0  0
 57 76  1  0  0  0  0
 58 59  1  0  0  0  0
 58 60  1  0  0  0  0
 59 72  1  0  0  0  0
 60 83  1  0  0  0  0
 61 75  1  0  0  0  0
 62 64  1  0  0  0  0
 62 74  1  0  0  0  0
 63 76  1  0  0  0  0
 65 66  1  0  0  0  0
M  CHG  1  76   1
M  ISO  4  38 100  60 101  75 100  83 101
M  END
> <Batch ID>
0098

> <Smiles>
CNC(C)C(=O)NC(C(=O)N1Cc2cc([101O:1][101CH2:1]CCNc3cc(C)c(C(C)[100NH:0][100C:0](=O)N4CCCC(n5nc(-c6ccc(Oc7ccc(F)cc7F)cc6)c(C(N)=O)c5N)C4)cc3N)ccc2CC1C(=O)NC1CCCc2ccccc21)C(C)(C)C

> <Shape>
0.233

> <Color>
0.080

> <Negative vol penalty>
0.000

$$$$

  -OEChem-04052300513D

 86 95  0     1  0  0  0  0  0999 V2000
  -25.0963  -28.2234   14.0992 C   0  0  0  0  0  0  0  0  0  0  0  0
  -26.1452  -27.7806   14.8987 C   0  0  0  0  0  0  0  0  0  0  0  0
  -22.8545  -11.3283   22.4883 C   0  0  0  0  0  0  0  0  0  0  0  0
  -23.4232   -9.6714   20.8245 C   0  0  0  0  0  0  0  0  0  0  0  0
  -24.3130  -29.3003   14.5124 C   0  0  0  0  0  0  0  0  0  0  0  0
  -26.4122  -28.4152   16.1113 C   0  0  0  0  0  0  0  0  0  0  0  0
  -27.2654  -25.1351   19.8740 C   0  0  0  0  0  0  0  0  0  0  0  0
  -32.4404  -18.3513   21.7647 C   0  0  0  0  0  0  0  0  0  0  0  0
  -31.9054  -17.1609   21.2723 C   0  0  0  0  0  0  0  0  0  0  0  0
  -22.0021  -10.4142   23.1074 C   0  0  0  0  0  0  0  0  0  0  0  0
  -22.5708   -8.7572   21.4436 C   0  0  0  0  0  0  0  0  0  0  0  0
  -28.5219  -24.5327   19.9209 C   0  0  0  0  0  0  0  0  0  0  0  0
  -22.6390   -6.7221   24.1407 C   0  0  0  0  0  0  0  0  0  0  0  0
  -23.1105   -5.4228   24.3277 C   0  0  0  0  0  0  0  0  0  0  0  0
  -29.2016  -26.0973   21.6265 C   0  0  0  0  0  0  0  0  0  0  0  0
  -30.2760  -19.4063   21.5663 C   0  0  0  0  0  0  0  0  0  0  0  0
  -21.2941   -4.5701   22.9821 C   0  0  0  0  0  0  0  0  0  0  0  0
  -23.5650  -10.9570   21.3468 C   0  0  0  0  0  0  0  0  0  0  0  0
  -24.0980  -13.1501   20.1579 C   0  0  0  0  0  0  0  0  0  0  0  0
  -24.5644  -29.9423   15.7352 C   0  0  0  0  0  0  0  0  0  0  0  0
  -26.9707  -26.2318   20.6966 C   0  0  0  0  0  0  0  0  0  0  0  0
  -25.6324  -29.5026   16.5406 C   0  0  0  0  0  0  0  0  0  0  0  0
  -27.9398  -26.7102   21.5900 C   0  0  0  0  0  0  0  0  0  0  0  0
  -31.6257  -19.4740   21.9117 C   0  0  0  0  0  0  0  0  0  0  0  0
  -30.5556  -17.0933   20.9269 C   0  0  0  0  0  0  0  0  0  0  0  0
  -29.7409  -18.2160   21.0739 C   0  0  0  0  0  0  0  0  0  0  0  0
  -21.8602   -9.1286   22.5851 C   0  0  0  0  0  0  0  0  0  0  0  0
  -29.4912  -25.0156   20.7951 C   0  0  0  0  0  0  0  0  0  0  0  0
  -21.4951   -6.9455   23.3744 C   0  0  0  0  0  0  0  0  0  0  0  0
  -22.4380   -4.3468   23.7484 C   0  0  0  0  0  0  0  0  0  0  0  0
  -20.8226   -5.8695   22.7951 C   0  0  0  0  0  0  0  0  0  0  0  0
  -24.4453  -11.9011   20.7066 C   0  0  0  0  0  0  0  0  0  0  0  0
  -25.2811  -13.6541   19.6755 C   0  0  0  0  0  0  0  0  0  0  0  0
  -33.2587  -20.6927   23.3254 C   0  0  0  0  0  0  0  0  0  0  0  0
  -22.8203  -13.7970   20.0904 C   0  0  0  0  0  0  0  0  0  0  0  0
  -26.1694  -29.2656   20.1886 C   0  0  0  0  0  0  0  0  0  0  0  0
  -25.7910  -29.2982   23.4101 C   0  0  0  0  0  0  0  0  0  0  0  0
  -27.5415  -27.9893   26.2806 C   0  0  0  0  0  0  0  0  0  0  0  0
  -30.7259  -14.6782   20.2308 C   0  0  0  0  0  0  0  0  0  0  0  0
  -23.7204  -31.1323   16.1174 C   0  0  0  0  0  0  0  0  0  0  0  0
  -25.6018  -26.8535   20.6531 C   0  0  0  0  0  0  0  0  0  0  0  0
  -27.6668  -27.8721   22.5086 C   0  0  0  0  0  0  0  0  0  0  0  0
  -33.9651  -22.0152   23.5561 C   0  0  0  0  0  0  0  0  0  0  0  0
  -23.8337  -31.5112   17.5918 C   0  0  0  0  0  0  0  0  0  0  0  0
  -33.0550  -23.2234   23.5230 C   0  0  0  0  0  0  0  0  0  0  0  0
  -29.7947  -11.4469   19.0608 C   0  0  0  0  0  0  0  0  0  0  0  0
  -25.2957  -31.5335   18.0264 C   0  0  0  0  0  0  0  0  0  0  0  0
  -28.2914  -11.3798   19.3395 C   0  0  0  0  0  0  0  0  0  0  0  0
  -30.5420  -12.2011   20.1592 C   0  0  0  0  0  0  0  0  0  0  0  0
  -31.4461  -21.9528   22.1300 C   0  0  0  0  0  0  0  0  0  0  0  0
  -28.5128  -13.4710   20.7411 C   0  0  0  0  0  0  0  0  0  0  0  0
  -25.9377  -30.1492   17.8742 C   0  0  1  0  0  0  0  0  0  0  0  0
  -25.5811  -28.2895   21.1678 C   0  0  1  0  0  0  0  0  0  0  0  0
  -32.2886  -23.2250   22.2106 C   0  0  1  0  0  0  0  0  0  0  0  0
  -27.7090  -12.7771   19.6294 C   0  0  2  0  0  0  0  0  0  0  0  0
  -26.6982  -27.3608   28.5590 C   0  0  0  0  0  0  0  0  0  0  0  0
  -26.6037  -32.1377   24.1762 C   0  0  0  0  0  0  0  0  0  0  0  0
  -27.3888  -31.2440   26.3792 C   0  0  0  0  0  0  0  0  0  0  0  0
  -24.9834  -31.0571   25.7452 C   0  0  0  0  0  0  0  0  0  0  0  0
  -28.6511  -25.2541   26.0641 C   0  0  0  0  0  0  0  0  0  0  0  0
  -31.4084  -24.4673   22.0911 C   0  0  0  0  0  0  0  0  0  1  0  0
  -26.6876  -29.5904   24.5890 C   0  0  1  0  0  0  0  0  0  0  0  0
  -27.0899  -26.8529   27.1801 C   0  0  2  0  0  0  0  0  0  0  0  0
  -26.4263  -30.9969   25.1980 C   0  0  0  0  0  0  0  0  0  0  0  0
  -25.7470  -11.6282   20.5844 N   0  0  0  0  0  0  0  0  0  0  0  0
  -26.2282  -12.7128   19.9534 N   0  0  0  0  0  0  0  0  0  0  0  0
  -32.1813  -20.7089   22.4229 N   0  0  0  0  0  0  0  0  0  0  0  0
  -26.3154  -28.4502   22.4244 N   0  0  0  0  0  0  0  0  0  0  0  0
  -29.9373  -13.5172   20.3758 N   0  0  0  0  0  0  0  0  0  0  0  0
  -28.3711  -18.1694   20.7304 N   0  0  0  0  0  0  0  0  0  0  0  0
  -25.5933  -14.8062   19.0448 N   0  0  0  0  0  0  0  0  0  0  0  0
  -22.0102  -13.5610   18.9712 N   0  0  0  0  0  0  0  0  0  0  0  0
  -30.0350  -15.8731   20.4292 N   0  0  0  0  0  0  0  0  0  0  0  0
  -25.5347  -29.2830   18.9613 N   0  0  0  0  0  0  0  0  0  0  0  0
  -26.5005  -28.4889   25.5270 N   0  0  0  0  0  0  0  0  0  0  0  0
  -28.1835  -25.8533   27.3406 N   0  3  0  0  0  0  0  0  0  0  0  0
  -33.7054  -19.6906   23.8902 O   0  0  0  0  0  0  0  0  0  0  0  0
  -22.4160  -14.5746   20.9879 O   0  0  0  0  0  0  0  0  0  0  0  0
  -27.1273  -29.9531   20.5224 O   0  0  0  0  0  0  0  0  0  0  0  0
  -24.6640  -29.7981   23.3689 O   0  0  0  0  0  0  0  0  0  0  0  0
  -28.7011  -28.3958   26.2521 O   0  0  0  0  0  0  0  0  0  0  0  0
  -31.9195  -14.6179   19.9244 O   0  0  0  0  0  0  0  0  0  0  0  0
  -21.0287   -8.2362   23.1890 O   0  0  0  0  0  0  0  0  0  0  0  0
  -30.7186  -24.4299   20.8425 O   0  0  0  0  0  0  0  0  0  1  0  0
  -22.8917   -3.0992   23.9268 F   0  0  0  0  0  0  0  0  0  0  0  0
  -19.7238   -6.0779   22.0569 F   0  0  0  0  0  0  0  0  0  0  0  0
  1  2  1  0  0  0  0
  1  5  2  0  0  0  0
  2  6  2  0  0  0  0
  3 10  2  0  0  0  0
  3 18  1  0  0  0  0
  4 11  1  0  0  0  0
  4 18  2  0  0  0  0
  5 20  1  0  0  0  0
  6 22  1  0  0  0  0
  7 12  2  0  0  0  0
  7 21  1  0  0  0  0
  8  9  2  0  0  0  0
  8 24  1  0  0  0  0
  9 25  1  0  0  0  0
 10 27  1  0  0  0  0
 11 27  2  0  0  0  0
 12 28  1  0  0  0  0
 13 14  2  0  0  0  0
 13 29  1  0  0  0  0
 14 30  1  0  0  0  0
 15 23  1  0  0  0  0
 15 28  2  0  0  0  0
 16 24  2  0  0  0  0
 16 26  1  0  0  0  0
 17 30  2  0  0  0  0
 17 31  1  0  0  0  0
 18 32  1  0  0  0  0
 19 32  1  0  0  0  0
 19 33  2  0  0  0  0
 19 35  1  0  0  0  0
 20 22  2  0  0  0  0
 20 40  1  0  0  0  0
 21 23  2  0  0  0  0
 21 41  1  0  0  0  0
 22 52  1  0  0  0  0
 23 42  1  0  0  0  0
 24 67  1  0  0  0  0
 25 26  2  0  0  0  0
 25 73  1  0  0  0  0
 26 70  1  0  0  0  0
 27 83  1  0  0  0  0
 28 84  1  0  0  0  0
 29 31  2  0  0  0  0
 29 83  1  0  0  0  0
 30 85  1  0  0  0  0
 31 86  1  0  0  0  0
 32 65  2  0  0  0  0
 33 66  1  0  0  0  0
 33 71  1  0  0  0  0
 34 43  1  0  0  0  0
 34 67  1  0  0  0  0
 34 77  2  0  0  0  0
 35 72  1  0  0  0  0
 35 78  2  0  0  0  0
 36 53  1  0  0  0  0
 36 74  1  0  0  0  0
 36 79  2  0  0  0  0
 37 62  1  0  0  0  0
 37 68  1  0  0  0  0
 37 80  2  0  0  0  0
 38 63  1  0  0  0  0
 38 75  1  0  0  0  0
 38 81  2  0  0  0  0
 39 69  1  0  0  0  0
 39 73  1  0  0  0  0
 39 82  2  0  0  0  0
 40 44  1  0  0  0  0
 41 53  1  0  0  0  0
 42 68  1  0  0  0  0
 43 45  1  0  0  0  0
 44 47  1  0  0  0  0
 45 54  1  0  0  0  0
 46 48  1  0  0  0  0
 46 49  1  0  0  0  0
 47 52  1  0  0  0  0
 48 55  1  0  0  0  0
 49 69  1  0  0  0  0
 50 54  1  0  0  0  0
 50 67  1  0  0  0  0
 51 55  1  0  0  0  0
 51 69  1  0  0  0  0
 52 74  1  0  0  0  0
 53 68  1  0  0  0  0
 54 61  1  0  0  0  0
 55 66  1  0  0  0  0
 56 63  1  0  0  0  0
 57 64  1  0  0  0  0
 58 64  1  0  0  0  0
 59 64  1  0  0  0  0
 60 76  1  0  0  0  0
 61 84  1  0  0  0  0
 62 64  1  0  0  0  0
 62 75  1  0  0  0  0
 63 76  1  0  0  0  0
 65 66  1  0  0  0  0
M  CHG  1  76   1
M  ISO  4  39 100  61 101  73 100  84 101
M  END
> <Batch ID>
0098

> <Smiles>
CNC(C)C(=O)NC(C(=O)N1Cc2cc([101O:1][101CH2:1]C3CCC(=O)N(c4ccc([100NH:0][100C:0](=O)N5CCCC(n6nc(-c7ccc(Oc8ccc(F)cc8F)cc7)c(C(N)=O)c6N)C5)c(N)c4)C3)ccc2CC1C(=O)NC1CCCc2ccccc21)C(C)(C)C

> <Shape>
0.256

> <Color>
0.133

> <Negative vol penalty>
0.000

$$$$

  -OEChem-04052300513D

 86 94  0     1  0  0  0  0  0999 V2000
  -16.4708  -26.1061   24.4701 C   0  0  0  0  0  0  0  0  0  0  0  0
  -17.5153  -25.8237   23.5957 C   0  0  0  0  0  0  0  0  0  0  0  0
  -22.9078  -11.4308   18.4378 C   0  0  0  0  0  0  0  0  0  0  0  0
  -22.7370  -10.3945   20.6136 C   0  0  0  0  0  0  0  0  0  0  0  0
  -16.1606  -27.4298   24.7793 C   0  0  0  0  0  0  0  0  0  0  0  0
  -18.2497  -26.8650   23.0293 C   0  0  0  0  0  0  0  0  0  0  0  0
  -23.2396  -26.0087   23.1421 C   0  0  0  0  0  0  0  0  0  0  0  0
  -21.8536  -10.6411   17.9789 C   0  0  0  0  0  0  0  0  0  0  0  0
  -21.6827   -9.6048   20.1547 C   0  0  0  0  0  0  0  0  0  0  0  0
  -23.7573  -25.1340   22.1878 C   0  0  0  0  0  0  0  0  0  0  0  0
  -18.3735   -9.9649   19.5715 C   0  0  0  0  0  0  0  0  0  0  0  0
  -17.2538   -9.8400   20.3938 C   0  0  0  0  0  0  0  0  0  0  0  0
  -24.4841  -27.0163   20.8657 C   0  0  0  0  0  0  0  0  0  0  0  0
  -29.9166  -19.9006   18.4110 C   0  0  0  0  0  0  0  0  0  0  0  0
  -28.6307  -19.2610   20.3538 C   0  0  0  0  0  0  0  0  0  0  0  0
  -17.5874   -7.4488   20.4847 C   0  0  0  0  0  0  0  0  0  0  0  0
  -23.3496  -11.3075   19.7552 C   0  0  0  0  0  0  0  0  0  0  0  0
  -30.3956  -17.8224   19.5460 C   0  0  0  0  0  0  0  0  0  0  0  0
  -24.3515  -13.3936   20.8284 C   0  0  0  0  0  0  0  0  0  0  0  0
  -16.8977  -28.4875   24.2239 C   0  0  0  0  0  0  0  0  0  0  0  0
  -23.3308  -27.3961   22.9598 C   0  0  0  0  0  0  0  0  0  0  0  0
  -17.9483  -28.2041   23.3303 C   0  0  0  0  0  0  0  0  0  0  0  0
  -23.9691  -27.9064   21.8204 C   0  0  0  0  0  0  0  0  0  0  0  0
  -30.6645  -18.7284   18.5201 C   0  0  0  0  0  0  0  0  0  0  0  0
  -28.8997  -20.1670   19.3279 C   0  0  0  0  0  0  0  0  0  0  0  0
  -21.2410   -9.7282   18.8373 C   0  0  0  0  0  0  0  0  0  0  0  0
  -24.3771  -25.6378   21.0480 C   0  0  0  0  0  0  0  0  0  0  0  0
  -19.1002   -8.8318   19.2057 C   0  0  0  0  0  0  0  0  0  0  0  0
  -16.8607   -8.5819   20.8504 C   0  0  0  0  0  0  0  0  0  0  0  0
  -29.3787  -18.0887   20.4629 C   0  0  0  0  0  0  0  0  0  0  0  0
  -18.7072   -7.5738   19.6624 C   0  0  0  0  0  0  0  0  0  0  0  0
  -24.4389  -12.1225   20.2296 C   0  0  0  0  0  0  0  0  0  0  0  0
  -25.6541  -13.7376   21.0955 C   0  0  0  0  0  0  0  0  0  0  0  0
  -31.1793  -16.5677   19.6822 C   0  0  0  0  0  0  0  0  0  0  0  0
  -23.1961  -14.1919   21.1174 C   0  0  0  0  0  0  0  0  0  0  0  0
  -21.2293  -29.7604   22.6477 C   0  0  0  0  0  0  0  0  0  0  0  0
  -26.4965  -23.0231   19.7147 C   0  0  0  0  0  0  0  0  0  0  0  0
  -23.8883  -31.6155   22.7504 C   0  0  0  0  0  0  0  0  0  0  0  0
  -27.2575  -31.8786   22.2748 C   0  0  0  0  0  0  0  0  0  0  0  0
  -30.9927  -14.1003   19.6581 C   0  0  0  0  0  0  0  0  0  0  0  0
  -16.4949  -29.9036   24.5511 C   0  0  0  0  0  0  0  0  0  0  0  0
  -22.7911  -28.3262   24.0115 C   0  0  0  0  0  0  0  0  0  0  0  0
  -24.1107  -29.3877   21.5873 C   0  0  0  0  0  0  0  0  0  0  0  0
  -17.5623  -30.9370   24.2005 C   0  0  0  0  0  0  0  0  0  0  0  0
  -29.8979  -10.9793   20.9063 C   0  0  0  0  0  0  0  0  0  0  0  0
  -18.1132  -30.6817   22.8011 C   0  0  0  0  0  0  0  0  0  0  0  0
  -28.3718  -11.1029   20.8996 C   0  0  0  0  0  0  0  0  0  0  0  0
  -30.5282  -11.6654   19.6951 C   0  0  0  0  0  0  0  0  0  0  0  0
  -28.6008  -13.1811   19.4809 C   0  0  0  0  0  0  0  0  0  0  0  0
  -18.7840  -29.3054   22.7149 C   0  0  1  0  0  0  0  0  0  0  0  0
  -22.4831  -29.7207   23.4747 C   0  0  1  0  0  0  0  0  0  0  0  0
  -27.9237  -12.5669   20.7167 C   0  0  1  0  0  0  0  0  0  0  0  0
  -31.7479  -18.4681   17.5247 C   0  0  0  0  0  0  0  0  0  0  0  0
  -29.1421  -33.5305   22.4040 C   0  0  0  0  0  0  0  0  0  0  0  0
  -22.9517  -32.8845   20.1384 C   0  0  0  0  0  0  0  0  0  0  0  0
  -25.2634  -33.7963   19.8336 C   0  0  0  0  0  0  0  0  0  0  0  0
  -23.8980  -34.4958   21.8006 C   0  0  0  0  0  0  0  0  0  0  0  0
  -28.6660  -30.2863   24.3338 C   0  0  0  0  0  0  0  0  0  0  0  0
  -27.0886  -21.6898   20.1195 C   0  0  0  0  0  0  0  0  0  0  0  0
  -25.3526  -23.5206   20.5768 C   0  0  0  0  0  0  0  0  0  1  0  0
  -24.8545  -32.1567   21.7245 C   0  0  1  0  0  0  0  0  0  0  0  0
  -28.3553  -32.4616   23.1463 C   0  0  2  0  0  0  0  0  0  0  0  0
  -24.2377  -33.3054   20.8774 C   0  0  0  0  0  0  0  0  0  0  0  0
  -25.6976  -11.6885   20.1223 N   0  0  0  0  0  0  0  0  0  0  0  0
  -26.4130  -12.6926   20.6572 N   0  0  0  0  0  0  0  0  0  0  0  0
  -23.5614  -30.2564   22.6413 N   0  0  0  0  0  0  0  0  0  0  0  0
  -30.0608  -13.0494   19.5985 N   0  0  0  0  0  0  0  0  0  0  0  0
  -26.2129  -14.8292   21.6600 N   0  0  0  0  0  0  0  0  0  0  0  0
  -21.9335  -13.6876   20.7773 N   0  0  0  0  0  0  0  0  0  0  0  0
  -28.1554  -21.3330   19.2197 N   0  0  0  0  0  0  0  0  0  0  0  0
  -30.4427  -15.3857   19.6001 N   0  0  0  0  0  0  0  0  0  0  0  0
  -20.0971  -29.3443   23.3220 N   0  0  0  0  0  0  0  0  0  0  0  0
  -26.0583  -32.5345   22.4569 N   0  0  0  0  0  0  0  0  0  0  0  0
  -29.3017  -31.3919   23.5720 N   0  3  0  0  0  0  0  0  0  0  0  0
  -32.3981  -16.6354   19.8153 O   0  0  0  0  0  0  0  0  0  0  0  0
  -23.2821  -15.3261   21.6463 O   0  0  0  0  0  0  0  0  0  0  0  0
  -21.2845  -30.1418   21.4844 O   0  0  0  0  0  0  0  0  0  0  0  0
  -26.9080  -23.6689   18.7517 O   0  0  0  0  0  0  0  0  0  0  0  0
  -23.4456  -32.3691   23.6208 O   0  0  0  0  0  0  0  0  0  0  0  0
  -27.4458  -30.9380   21.5065 O   0  0  0  0  0  0  0  0  0  0  0  0
  -32.2061  -13.9118   19.7902 O   0  0  0  0  0  0  0  0  0  0  0  0
  -20.2121   -8.9576   18.3900 O   0  0  0  0  0  0  0  0  0  0  0  0
  -24.8826  -24.7862   20.1146 O   0  0  0  0  0  0  0  0  0  1  0  0
  -15.7863   -8.4622   21.6413 F   0  0  0  0  0  0  0  0  0  0  0  0
  -29.1104  -17.2258   21.4533 F   0  0  0  0  0  0  0  0  0  0  0  0
  -19.4020   -6.4817   19.3153 F   0  0  0  0  0  0  0  0  0  0  0  0
  1  2  1  0  0  0  0
  1  5  2  0  0  0  0
  2  6  2  0  0  0  0
  3  8  2  0  0  0  0
  3 17  1  0  0  0  0
  4  9  1  0  0  0  0
  4 17  2  0  0  0  0
  5 20  1  0  0  0  0
  6 22  1  0  0  0  0
  7 10  2  0  0  0  0
  7 21  1  0  0  0  0
  8 26  1  0  0  0  0
  9 26  2  0  0  0  0
 10 27  1  0  0  0  0
 11 12  2  0  0  0  0
 11 28  1  0  0  0  0
 12 29  1  0  0  0  0
 13 23  1  0  0  0  0
 13 27  2  0  0  0  0
 14 24  2  0  0  0  0
 14 25  1  0  0  0  0
 15 25  2  0  0  0  0
 15 30  1  0  0  0  0
 16 29  2  0  0  0  0
 16 31  1  0  0  0  0
 17 32  1  0  0  0  0
 18 24  1  0  0  0  0
 18 30  2  0  0  0  0
 18 34  1  0  0  0  0
 19 32  1  0  0  0  0
 19 33  2  0  0  0  0
 19 35  1  0  0  0  0
 20 22  2  0  0  0  0
 20 41  1  0  0  0  0
 21 23  2  0  0  0  0
 21 42  1  0  0  0  0
 22 50  1  0  0  0  0
 23 43  1  0  0  0  0
 24 53  1  0  0  0  0
 25 70  1  0  0  0  0
 26 82  1  0  0  0  0
 27 83  1  0  0  0  0
 28 31  2  0  0  0  0
 28 82  1  0  0  0  0
 29 84  1  0  0  0  0
 30 85  1  0  0  0  0
 31 86  1  0  0  0  0
 32 64  2  0  0  0  0
 33 65  1  0  0  0  0
 33 68  1  0  0  0  0
 34 71  1  0  0  0  0
 34 75  2  0  0  0  0
 35 69  1  0  0  0  0
 35 76  2  0  0  0  0
 36 51  1  0  0  0  0
 36 72  1  0  0  0  0
 36 77  2  0  0  0  0
 37 59  1  0  0  0  0
 37 60  1  0  0  0  0
 37 78  2  0  0  0  0
 38 61  1  0  0  0  0
 38 66  1  0  0  0  0
 38 79  2  0  0  0  0
 39 62  1  0  0  0  0
 39 73  1  0  0  0  0
 39 80  2  0  0  0  0
 40 67  1  0  0  0  0
 40 71  1  0  0  0  0
 40 81  2  0  0  0  0
 41 44  1  0  0  0  0
 42 51  1  0  0  0  0
 43 66  1  0  0  0  0
 44 46  1  0  0  0  0
 45 47  1  0  0  0  0
 45 48  1  0  0  0  0
 46 50  1  0  0  0  0
 47 52  1  0  0  0  0
 48 67  1  0  0  0  0
 49 52  1  0  0  0  0
 49 67  1  0  0  0  0
 50 72  1  0  0  0  0
 51 66  1  0  0  0  0
 52 65  1  0  0  0  0
 54 62  1  0  0  0  0
 55 63  1  0  0  0  0
 56 63  1  0  0  0  0
 57 63  1  0  0  0  0
 58 74  1  0  0  0  0
 59 70  1  0  0  0  0
 60 83  1  0  0  0  0
 61 63  1  0  0  0  0
 61 73  1  0  0  0  0
 62 74  1  0  0  0  0
 64 65  1  0  0  0  0
M  CHG  1  74   1
M  ISO  4  40 100  60 101  71 100  83 101
M  END
> <Batch ID>
0098

> <Smiles>
CNC(C)C(=O)NC(C(=O)N1Cc2cc([101O:1][101CH2:1]C(=O)CNc3cc(C)c(C(=O)[100NH:0][100C:0](=O)N4CCCC(n5nc(-c6ccc(Oc7ccc(F)cc7F)cc6)c(C(N)=O)c5N)C4)c(F)c3)ccc2CC1C(=O)NC1CCCc2ccccc21)C(C)(C)C

> <Shape>
0.270

> <Color>
0.094

> <Negative vol penalty>
0.000

$$$$

  -OEChem-04052300513D

 83 91  0     1  0  0  0  0  0999 V2000
  -32.0651  -14.8830   20.9488 C   0  0  0  0  0  0  0  0  0  0  0  0
  -31.1066  -15.8906   20.9089 C   0  0  0  0  0  0  0  0  0  0  0  0
  -18.4914  -27.9525   22.0549 C   0  0  0  0  0  0  0  0  0  0  0  0
  -29.2183  -26.3142   19.0024 C   0  0  0  0  0  0  0  0  0  0  0  0
  -27.4148  -24.9041   19.7745 C   0  0  0  0  0  0  0  0  0  0  0  0
  -31.7139  -13.5750   20.6175 C   0  0  0  0  0  0  0  0  0  0  0  0
  -29.7966  -15.5909   20.5367 C   0  0  0  0  0  0  0  0  0  0  0  0
  -26.3703  -17.7667   23.5650 C   0  0  0  0  0  0  0  0  0  0  0  0
  -19.3375  -28.9161   22.6039 C   0  0  0  0  0  0  0  0  0  0  0  0
  -18.7711  -26.5973   22.2306 C   0  0  0  0  0  0  0  0  0  0  0  0
  -30.1295  -25.2904   19.2611 C   0  0  0  0  0  0  0  0  0  0  0  0
  -28.3261  -23.8802   20.0332 C   0  0  0  0  0  0  0  0  0  0  0  0
  -26.1103  -19.1214   23.3623 C   0  0  0  0  0  0  0  0  0  0  0  0
  -30.0017  -21.5348   18.2692 C   0  0  0  0  0  0  0  0  0  0  0  0
  -29.6618  -20.2469   17.8555 C   0  0  0  0  0  0  0  0  0  0  0  0
  -24.1154  -18.5483   22.1330 C   0  0  0  0  0  0  0  0  0  0  0  0
  -20.7430  -27.1692   23.5040 C   0  0  0  0  0  0  0  0  0  0  0  0
  -29.7896  -19.4785   20.1426 C   0  0  0  0  0  0  0  0  0  0  0  0
  -27.8609  -26.1211   19.2591 C   0  0  0  0  0  0  0  0  0  0  0  0
  -26.2215  -27.4132   17.7926 C   0  0  0  0  0  0  0  0  0  0  0  0
  -30.3968  -13.2573   20.2504 C   0  0  0  0  0  0  0  0  0  0  0  0
  -25.5092  -16.7908   23.0431 C   0  0  0  0  0  0  0  0  0  0  0  0
  -29.4279  -14.2776   20.1989 C   0  0  0  0  0  0  0  0  0  0  0  0
  -24.3653  -17.1820   22.3327 C   0  0  0  0  0  0  0  0  0  0  0  0
  -20.4633  -28.5245   23.3283 C   0  0  0  0  0  0  0  0  0  0  0  0
  -29.6835  -24.0734   19.7765 C   0  0  0  0  0  0  0  0  0  0  0  0
  -24.9843  -19.5123   22.6437 C   0  0  0  0  0  0  0  0  0  0  0  0
  -19.8969  -26.2056   22.9550 C   0  0  0  0  0  0  0  0  0  0  0  0
  -30.2357  -21.7947   19.6196 C   0  0  0  0  0  0  0  0  0  0  0  0
  -29.5557  -19.2187   18.7922 C   0  0  0  0  0  0  0  0  0  0  0  0
  -30.1296  -20.7665   20.5562 C   0  0  0  0  0  0  0  0  0  0  0  0
  -26.9191  -27.1785   18.9926 C   0  0  0  0  0  0  0  0  0  0  0  0
  -25.4600  -28.5268   18.0502 C   0  0  0  0  0  0  0  0  0  0  0  0
  -26.2586  -26.6892   16.5556 C   0  0  0  0  0  0  0  0  0  0  0  0
  -25.8114  -14.4246   20.9423 C   0  0  0  0  0  0  0  0  0  0  0  0
  -22.7840  -13.7295   21.8771 C   0  0  0  0  0  0  0  0  0  0  0  0
  -19.8466  -14.8207   23.2290 C   0  0  0  0  0  0  0  0  0  0  0  0
  -23.2864  -30.9014   23.0987 C   0  0  0  0  0  0  0  0  0  0  0  0
  -30.0757  -11.8377   19.8551 C   0  0  0  0  0  0  0  0  0  0  0  0
  -25.7893  -15.3343   23.2934 C   0  0  0  0  0  0  0  0  0  0  0  0
  -23.3985  -16.1741   21.7690 C   0  0  0  0  0  0  0  0  0  0  0  0
  -28.5796  -11.5351   19.8334 C   0  0  0  0  0  0  0  0  0  0  0  0
  -25.4113  -32.4926   20.7261 C   0  0  0  0  0  0  0  0  0  0  0  0
  -27.8214  -12.6421   19.1079 C   0  0  0  0  0  0  0  0  0  0  0  0
  -25.9757  -31.3323   19.9045 C   0  0  0  0  0  0  0  0  0  0  0  0
  -25.2481  -32.1158   22.1970 C   0  0  0  0  0  0  0  0  0  0  0  0
  -25.0275  -29.7306   21.6174 C   0  0  0  0  0  0  0  0  0  0  0  0
  -27.9907  -13.9875   19.8240 C   0  0  1  0  0  0  0  0  0  0  0  0
  -25.1209  -14.4140   22.2767 C   0  0  1  0  0  0  0  0  0  0  0  0
  -25.1575  -30.0445   20.1172 C   0  0  2  0  0  0  0  0  0  0  0  0
  -17.5422  -14.0312   23.8321 C   0  0  0  0  0  0  0  0  0  0  0  0
  -21.9919  -13.7993   18.9313 C   0  0  0  0  0  0  0  0  0  0  0  0
  -19.5989  -13.9571   19.6504 C   0  0  0  0  0  0  0  0  0  0  0  0
  -20.9492  -11.9466   20.2483 C   0  0  0  0  0  0  0  0  0  0  0  0
  -20.2566  -15.4439   26.0930 C   0  0  0  0  0  0  0  0  0  0  0  0
  -21.3680  -29.5548   23.9147 C   0  0  0  0  0  0  0  0  0  0  0  0
  -23.1810  -22.6498   22.8151 C   0  0  0  0  0  0  0  0  0  0  0  0
  -21.7265  -23.0981   22.7236 C   0  0  0  0  0  0  0  0  0  0  0  0
  -23.3599  -21.2196   22.3235 C   0  0  0  0  0  0  0  0  0  1  0  0
  -21.5396  -24.5123   23.2547 C   0  0  0  0  0  0  0  0  0  0  0  0
  -21.4040  -14.1391   21.4223 C   0  0  1  0  0  0  0  0  0  0  0  0
  -18.9657  -14.2445   24.3228 C   0  0  2  0  0  0  0  0  0  0  0  0
  -21.0051  -13.4797   20.0719 C   0  0  0  0  0  0  0  0  0  0  0  0
  -26.6268  -28.0714   19.9420 N   0  0  0  0  0  0  0  0  0  0  0  0
  -25.7372  -28.8780   19.3386 N   0  0  0  0  0  0  0  0  0  0  0  0
  -23.7193  -14.7620   22.0350 N   0  0  0  0  0  0  0  0  0  0  0  0
  -24.4615  -30.8871   22.3294 N   0  0  0  0  0  0  0  0  0  0  0  0
  -24.5871  -29.2301   17.2980 N   0  0  0  0  0  0  0  0  0  0  0  0
  -27.0955  -25.5688   16.4620 N   0  0  0  0  0  0  0  0  0  0  0  0
  -27.1401  -14.0483   20.9933 N   0  0  0  0  0  0  0  0  0  0  0  0
  -20.5021  -13.8314   22.5270 N   0  0  0  0  0  0  0  0  0  0  0  0
  -22.5975  -29.6966   23.1670 N   0  0  0  0  0  0  0  0  0  0  0  0
  -18.9260  -15.1646   25.4945 N   0  3  0  0  0  0  0  0  0  0  0  0
  -25.5824  -27.0354   15.5574 O   0  0  0  0  0  0  0  0  0  0  0  0
  -25.1848  -14.7487   19.9403 O   0  0  0  0  0  0  0  0  0  0  0  0
  -23.0213  -12.5381   22.0915 O   0  0  0  0  0  0  0  0  0  0  0  0
  -19.9408  -16.0275   23.0161 O   0  0  0  0  0  0  0  0  0  0  0  0
  -22.8783  -31.9142   23.6772 O   0  0  0  0  0  0  0  0  0  0  0  0
  -30.5724  -23.0741   20.0288 O   0  0  0  0  0  0  0  0  0  0  0  0
  -24.7285  -20.8339   22.4438 O   0  0  0  0  0  0  0  0  0  1  0  0
  -20.1713  -24.8738   23.1281 O   0  0  0  0  0  0  0  0  0  0  0  0
  -29.2277  -17.9823   18.3950 F   0  0  0  0  0  0  0  0  0  0  0  0
  -30.3521  -21.0103   21.8550 F   0  0  0  0  0  0  0  0  0  0  0  0
  1  2  1  0  0  0  0
  1  6  2  0  0  0  0
  2  7  2  0  0  0  0
  3  9  1  0  0  0  0
  3 10  2  0  0  0  0
  4 11  2  0  0  0  0
  4 19  1  0  0  0  0
  5 12  1  0  0  0  0
  5 19  2  0  0  0  0
  6 21  1  0  0  0  0
  7 23  1  0  0  0  0
  8 13  2  0  0  0  0
  8 22  1  0  0  0  0
  9 25  2  0  0  0  0
 10 28  1  0  0  0  0
 11 26  1  0  0  0  0
 12 26  2  0  0  0  0
 13 27  1  0  0  0  0
 14 15  2  0  0  0  0
 14 29  1  0  0  0  0
 15 30  1  0  0  0  0
 16 24  1  0  0  0  0
 16 27  2  0  0  0  0
 17 25  1  0  0  0  0
 17 28  2  0  0  0  0
 18 30  2  0  0  0  0
 18 31  1  0  0  0  0
 19 32  1  0  0  0  0
 20 32  1  0  0  0  0
 20 33  2  0  0  0  0
 20 34  1  0  0  0  0
 21 23  2  0  0  0  0
 21 39  1  0  0  0  0
 22 24  2  0  0  0  0
 22 40  1  0  0  0  0
 23 48  1  0  0  0  0
 24 41  1  0  0  0  0
 25 56  1  0  0  0  0
 26 79  1  0  0  0  0
 27 80  1  0  0  0  0
 28 81  1  0  0  0  0
 29 31  2  0  0  0  0
 29 79  1  0  0  0  0
 30 82  1  0  0  0  0
 31 83  1  0  0  0  0
 32 64  2  0  0  0  0
 33 65  1  0  0  0  0
 33 68  1  0  0  0  0
 34 69  1  0  0  0  0
 34 74  2  0  0  0  0
 35 49  1  0  0  0  0
 35 70  1  0  0  0  0
 35 75  2  0  0  0  0
 36 61  1  0  0  0  0
 36 66  1  0  0  0  0
 36 76  2  0  0  0  0
 37 62  1  0  0  0  0
 37 71  1  0  0  0  0
 37 77  2  0  0  0  0
 38 67  1  0  0  0  0
 38 72  1  0  0  0  0
 38 78  2  0  0  0  0
 39 42  1  0  0  0  0
 40 49  1  0  0  0  0
 41 66  1  0  0  0  0
 42 44  1  0  0  0  0
 43 45  1  0  0  0  0
 43 46  1  0  0  0  0
 44 48  1  0  0  0  0
 45 50  1  0  0  0  0
 46 67  1  0  0  0  0
 47 50  1  0  0  0  0
 47 67  1  0  0  0  0
 48 70  1  0  0  0  0
 49 66  1  0  0  0  0
 50 65  1  0  0  0  0
 51 62  1  0  0  0  0
 52 63  1  0  0  0  0
 53 63  1  0  0  0  0
 54 63  1  0  0  0  0
 55 73  1  0  0  0  0
 56 72  1  0  0  0  0
 57 58  1  0  0  0  0
 57 59  1  0  0  0  0
 58 60  1  0  0  0  0
 59 80  1  0  0  0  0
 60 81  1  0  0  0  0
 61 63  1  0  0  0  0
 61 71  1  0  0  0  0
 62 73  1  0  0  0  0
 64 65  1  0  0  0  0
M  CHG  1  73   1
M  ISO  4  38 100  59 101  72 100  80 101
M  END
> <Batch ID>
0098

> <Smiles>
CNC(C)C(=O)NC(C(=O)N1Cc2cc([101O:1][101CH2:1]CCCOc3cccc(C[100NH:0][100C:0](=O)N4CCCC(n5nc(-c6ccc(Oc7ccc(F)cc7F)cc6)c(C(N)=O)c5N)C4)c3)ccc2CC1C(=O)NC1CCCc2ccccc21)C(C)(C)C

> <Shape>
0.259

> <Color>
0.072

> <Negative vol penalty>
0.000

$$$$

  -OEChem-04052300513D

 87 96  0     1  0  0  0  0  0999 V2000
  -26.3907  -38.3560   23.1958 C   0  0  0  0  0  0  0  0  0  0  0  0
  -27.1140  -37.4742   22.3992 C   0  0  0  0  0  0  0  0  0  0  0  0
  -24.2523   -9.5442   21.5057 C   0  0  0  0  0  0  0  0  0  0  0  0
  -24.8563  -10.7493   23.5107 C   0  0  0  0  0  0  0  0  0  0  0  0
  -25.6180  -37.8688   24.2491 C   0  0  0  0  0  0  0  0  0  0  0  0
  -27.0658  -36.1044   22.6561 C   0  0  0  0  0  0  0  0  0  0  0  0
  -27.2920  -29.7824   19.2950 C   0  0  0  0  0  0  0  0  0  0  0  0
  -23.9092   -8.4336   22.2766 C   0  0  0  0  0  0  0  0  0  0  0  0
  -24.5131   -9.6386   24.2816 C   0  0  0  0  0  0  0  0  0  0  0  0
  -27.9713  -28.5656   19.3340 C   0  0  0  0  0  0  0  0  0  0  0  0
  -21.3087   -7.4411   24.1962 C   0  0  0  0  0  0  0  0  0  0  0  0
  -20.1120   -6.7896   23.8977 C   0  0  0  0  0  0  0  0  0  0  0  0
  -26.5397  -27.8310   21.1313 C   0  0  0  0  0  0  0  0  0  0  0  0
  -28.3264  -20.8072   21.0455 C   0  0  0  0  0  0  0  0  0  0  0  0
  -30.4488  -19.1812   20.2494 C   0  0  0  0  0  0  0  0  0  0  0  0
  -21.3328   -4.7541   23.4463 C   0  0  0  0  0  0  0  0  0  0  0  0
  -24.7259  -10.7021   22.1228 C   0  0  0  0  0  0  0  0  0  0  0  0
  -24.2399  -12.9109   20.9427 C   0  0  0  0  0  0  0  0  0  0  0  0
  -25.5527  -36.4916   24.5131 C   0  0  0  0  0  0  0  0  0  0  0  0
  -26.2368  -30.0374   20.1826 C   0  0  0  0  0  0  0  0  0  0  0  0
  -26.2925  -35.5984   23.7148 C   0  0  0  0  0  0  0  0  0  0  0  0
  -25.8470  -29.0509   21.0998 C   0  0  0  0  0  0  0  0  0  0  0  0
  -29.6278  -21.3090   21.0466 C   0  0  0  0  0  0  0  0  0  0  0  0
  -30.6891  -20.4960   20.6485 C   0  0  0  0  0  0  0  0  0  0  0  0
  -29.1473  -18.6794   20.2483 C   0  0  0  0  0  0  0  0  0  0  0  0
  -24.0395   -8.4807   23.6645 C   0  0  0  0  0  0  0  0  0  0  0  0
  -27.5971  -27.5907   20.2542 C   0  0  0  0  0  0  0  0  0  0  0  0
  -22.5174   -6.7492   24.1197 C   0  0  0  0  0  0  0  0  0  0  0  0
  -28.0861  -19.4924   20.6464 C   0  0  0  0  0  0  0  0  0  0  0  0
  -20.1241   -5.4461   23.5228 C   0  0  0  0  0  0  0  0  0  0  0  0
  -22.5295   -5.4057   23.7448 C   0  0  0  0  0  0  0  0  0  0  0  0
  -25.0811  -11.8496   21.3270 C   0  0  0  0  0  0  0  0  0  0  0  0
  -25.0480  -13.7389   20.2026 C   0  0  0  0  0  0  0  0  0  0  0  0
  -29.5652  -24.9122   21.6112 C   0  0  0  0  0  0  0  0  0  0  0  0
  -28.8861  -26.0547   21.4583 C   0  0  0  0  0  0  0  0  0  1  0  0
  -22.8520  -13.1289   21.2292 C   0  0  0  0  0  0  0  0  0  0  0  0
  -25.7063  -32.1638   22.4849 C   0  0  0  0  0  0  0  0  0  0  0  0
  -22.7615  -30.8040   22.5262 C   0  0  0  0  0  0  0  0  0  0  0  0
  -20.8182  -28.0806   21.8530 C   0  0  0  0  0  0  0  0  0  0  0  0
  -29.8688  -16.4128   19.4187 C   0  0  0  0  0  0  0  0  0  0  0  0
  -24.7411  -36.0161   25.6921 C   0  0  0  0  0  0  0  0  0  0  0  0
  -25.4968  -31.3448   20.1098 C   0  0  0  0  0  0  0  0  0  0  0  0
  -24.7076  -29.2674   22.0607 C   0  0  0  0  0  0  0  0  0  0  0  0
  -30.2656  -24.4919   22.8638 C   0  0  0  0  0  0  0  0  0  0  0  0
  -24.4471  -34.5184   25.6648 C   0  0  0  0  0  0  0  0  0  0  0  0
  -29.7103  -13.0140   18.3696 C   0  0  0  0  0  0  0  0  0  0  0  0
  -25.7118  -33.7320   25.3350 C   0  0  0  0  0  0  0  0  0  0  0  0
  -28.4226  -12.4954   19.0138 C   0  0  0  0  0  0  0  0  0  0  0  0
  -30.1148  -22.9741   22.8425 C   0  0  0  0  0  0  0  0  0  0  0  0
  -30.4426  -13.9990   19.2791 C   0  0  0  0  0  0  0  0  0  0  0  0
  -28.3388  -14.5992   20.4117 C   0  0  0  0  0  0  0  0  0  0  0  0
  -26.2462  -34.1037   23.9465 C   0  0  1  0  0  0  0  0  0  0  0  0
  -29.6346  -23.7972   20.5994 C   0  0  1  0  0  0  0  0  0  0  0  0
  -24.7720  -31.6942   21.4059 C   0  0  1  0  0  0  0  0  0  0  0  0
  -27.5328  -13.6535   19.5063 C   0  0  2  0  0  0  0  0  0  0  0  0
  -30.8156  -24.0067   19.6530 C   0  0  0  0  0  0  0  0  0  0  0  0
  -18.4553  -27.2543   22.0304 C   0  0  0  0  0  0  0  0  0  0  0  0
  -23.1396  -30.3735   25.5231 C   0  0  0  0  0  0  0  0  0  0  0  0
  -21.2400  -28.7439   25.4580 C   0  0  0  0  0  0  0  0  0  0  0  0
  -20.8516  -31.1341   24.8589 C   0  0  0  0  0  0  0  0  0  0  0  0
  -20.5967  -27.7338   18.9222 C   0  0  0  0  0  0  0  0  0  0  0  0
  -26.3498  -18.4069   21.8557 C   0  0  0  0  0  0  0  0  0  0  0  0
  -22.1281  -29.6475   23.2612 C   0  0  1  0  0  0  0  0  0  0  0  0
  -19.4811  -27.9470   21.1468 C   0  0  2  0  0  0  0  0  0  0  0  0
  -21.8626  -29.9711   24.7586 C   0  0  0  0  0  0  0  0  0  0  0  0
  -26.3281  -11.9881   20.8688 N   0  0  0  0  0  0  0  0  0  0  0  0
  -26.2763  -13.1461   20.1889 N   0  0  0  0  0  0  0  0  0  0  0  0
  -29.8453  -22.6165   21.4469 N   0  0  3  0  0  0  0  0  0  0  0  0
  -24.0192  -30.5645   21.9548 N   0  0  0  0  0  0  0  0  0  0  0  0
  -29.5387  -15.0706   19.7026 N   0  0  0  0  0  0  0  0  0  0  0  0
  -32.0153  -20.9830   20.6434 N   0  0  0  0  0  0  0  0  0  0  0  0
  -24.8207  -14.9090   19.5688 N   0  0  0  0  0  0  0  0  0  0  0  0
  -22.1725  -12.1789   22.0039 N   0  0  0  0  0  0  0  0  0  0  0  0
  -28.9183  -17.3419   19.8406 N   0  0  0  0  0  0  0  0  0  0  0  0
  -25.4660  -33.4550   22.9145 N   0  0  0  0  0  0  0  0  0  0  0  0
  -20.9323  -29.2896   22.5061 N   0  0  0  0  0  0  0  0  0  0  0  0
  -19.6339  -27.1544   19.8940 N   0  3  0  0  0  0  0  0  0  0  0  0
  -22.2287  -14.1279   20.7968 O   0  0  0  0  0  0  0  0  0  0  0  0
  -26.5795  -31.4099   22.8983 O   0  0  0  0  0  0  0  0  0  0  0  0
  -22.1592  -31.8782   22.4553 O   0  0  0  0  0  0  0  0  0  0  0  0
  -21.6742  -27.1989   21.8309 O   0  0  0  0  0  0  0  0  0  0  0  0
  -30.9044  -16.7136   18.8196 O   0  0  0  0  0  0  0  0  0  0  0  0
  -23.7046   -7.3972   24.4171 O   0  0  0  0  0  0  0  0  0  0  0  0
  -28.2589  -26.4023   20.2949 O   0  0  0  0  0  0  0  0  0  1  0  0
  -26.8069  -19.0216   20.6531 O   0  0  0  0  0  0  0  0  0  0  0  0
  -18.9747   -4.8201   23.2377 F   0  0  0  0  0  0  0  0  0  0  0  0
  -23.6875   -4.7354   23.6706 F   0  0  0  0  0  0  0  0  0  0  0  0
  1  2  1  0  0  0  0
  1  5  2  0  0  0  0
  2  6  2  0  0  0  0
  3  8  2  0  0  0  0
  3 17  1  0  0  0  0
  4  9  1  0  0  0  0
  4 17  2  0  0  0  0
  5 19  1  0  0  0  0
  6 21  1  0  0  0  0
  7 10  2  0  0  0  0
  7 20  1  0  0  0  0
  8 26  1  0  0  0  0
  9 26  2  0  0  0  0
 10 27  1  0  0  0  0
 11 12  2  0  0  0  0
 11 28  1  0  0  0  0
 12 30  1  0  0  0  0
 13 22  1  0  0  0  0
 13 27  2  0  0  0  0
 14 23  1  0  0  0  0
 14 29  2  0  0  0  0
 15 24  1  0  0  0  0
 15 25  2  0  0  0  0
 16 30  2  0  0  0  0
 16 31  1  0  0  0  0
 17 32  1  0  0  0  0
 18 32  1  0  0  0  0
 18 33  2  0  0  0  0
 18 36  1  0  0  0  0
 19 21  2  0  0  0  0
 19 41  1  0  0  0  0
 20 22  2  0  0  0  0
 20 42  1  0  0  0  0
 21 52  1  0  0  0  0
 22 43  1  0  0  0  0
 23 24  2  0  0  0  0
 23 68  1  0  0  0  0
 24 71  1  0  0  0  0
 25 29  1  0  0  0  0
 25 74  1  0  0  0  0
 26 83  1  0  0  0  0
 27 84  1  0  0  0  0
 28 31  2  0  0  0  0
 28 83  1  0  0  0  0
 29 85  1  0  0  0  0
 30 86  1  0  0  0  0
 31 87  1  0  0  0  0
 32 66  2  0  0  0  0
 33 67  1  0  0  0  0
 33 72  1  0  0  0  0
 34 35  2  0  0  0  0
 34 44  1  0  0  0  0
 34 53  1  0  0  0  0
 35 84  1  0  0  0  0
 36 73  1  0  0  0  0
 36 78  2  0  0  0  0
 37 54  1  0  0  0  0
 37 75  1  0  0  0  0
 37 79  2  0  0  0  0
 38 63  1  0  0  0  0
 38 69  1  0  0  0  0
 38 80  2  0  0  0  0
 39 64  1  0  0  0  0
 39 76  1  0  0  0  0
 39 81  2  0  0  0  0
 40 70  1  0  0  0  0
 40 74  1  0  0  0  0
 40 82  2  0  0  0  0
 41 45  1  0  0  0  0
 42 54  1  0  0  0  0
 43 69  1  0  0  0  0
 44 49  1  0  0  0  0
 45 47  1  0  0  0  0
 46 48  1  0  0  0  0
 46 50  1  0  0  0  0
 47 52  1  0  0  0  0
 48 55  1  0  0  0  0
 49 68  1  0  0  0  0
 50 70  1  0  0  0  0
 51 55  1  0  0  0  0
 51 70  1  0  0  0  0
 52 75  1  0  0  0  0
 53 56  1  0  0  0  0
 53 68  1  0  0  0  0
 54 69  1  0  0  0  0
 55 67  1  0  0  0  0
 57 64  1  0  0  0  0
 58 65  1  0  0  0  0
 59 65  1  0  0  0  0
 60 65  1  0  0  0  0
 61 77  1  0  0  0  0
 62 85  1  0  0  0  0
 63 65  1  0  0  0  0
 63 76  1  0  0  0  0
 64 77  1  0  0  0  0
 66 67  1  0  0  0  0
M  CHG  1  77   1
M  ISO  4  35 101  40 100  74 100  84 101
M  END
> <Batch ID>
0098

> <Smiles>
CNC(C)C(=O)NC(C(=O)N1Cc2cc([101O:1][101CH:1]=C3CCN(c4cc(OC)c([100NH:0][100C:0](=O)N5CCCC(n6nc(-c7ccc(Oc8ccc(F)cc8F)cc7)c(C(N)=O)c6N)C5)cc4N)C3C)ccc2CC1C(=O)NC1CCCc2ccccc21)C(C)(C)C

> <Shape>
0.377

> <Color>
0.148

> <Negative vol penalty>
0.000

$$$$

  -OEChem-04052300513D

 85 94  0     1  0  0  0  0  0999 V2000
  -33.6395  -25.8096   17.4405 C   0  0  0  0  0  0  0  0  0  0  0  0
  -32.8113  -25.1966   18.3752 C   0  0  0  0  0  0  0  0  0  0  0  0
  -30.7984  -17.9821   24.7165 C   0  0  0  0  0  0  0  0  0  0  0  0
  -24.2605   -8.7522   21.0920 C   0  0  0  0  0  0  0  0  0  0  0  0
  -24.7729  -10.1170   23.0186 C   0  0  0  0  0  0  0  0  0  0  0  0
  -29.7527  -18.3612   25.5582 C   0  0  0  0  0  0  0  0  0  0  0  0
  -33.8429  -27.1881   17.4890 C   0  0  0  0  0  0  0  0  0  0  0  0
  -32.1869  -25.9616   19.3597 C   0  0  0  0  0  0  0  0  0  0  0  0
  -27.3100  -24.7403   19.9672 C   0  0  0  0  0  0  0  0  0  0  0  0
  -30.5383  -17.2059   23.5871 C   0  0  0  0  0  0  0  0  0  0  0  0
  -23.9083   -7.6969   21.9332 C   0  0  0  0  0  0  0  0  0  0  0  0
  -24.4207   -9.0616   23.8599 C   0  0  0  0  0  0  0  0  0  0  0  0
  -27.0288  -23.5856   20.6962 C   0  0  0  0  0  0  0  0  0  0  0  0
  -21.2576   -6.8035   23.8329 C   0  0  0  0  0  0  0  0  0  0  0  0
  -20.0832   -6.1086   23.5443 C   0  0  0  0  0  0  0  0  0  0  0  0
  -28.1868  -17.1876   24.1413 C   0  0  0  0  0  0  0  0  0  0  0  0
  -26.5500  -24.9353   22.6375 C   0  0  0  0  0  0  0  0  0  0  0  0
  -21.3523   -4.0684   23.2917 C   0  0  0  0  0  0  0  0  0  0  0  0
  -24.6928   -9.9623   21.6347 C   0  0  0  0  0  0  0  0  0  0  0  0
  -28.4469  -17.9639   25.2706 C   0  0  0  0  0  0  0  0  0  0  0  0
  -24.2362  -11.6994   19.8232 C   0  0  0  0  0  0  0  0  0  0  0  0
  -33.2130  -27.9717   18.4687 C   0  0  0  0  0  0  0  0  0  0  0  0
  -27.2237  -26.0025   20.5718 C   0  0  0  0  0  0  0  0  0  0  0  0
  -32.3831  -27.3517   19.4222 C   0  0  0  0  0  0  0  0  0  0  0  0
  -26.8281  -26.1045   21.9132 C   0  0  0  0  0  0  0  0  0  0  0  0
  -29.2325  -16.8086   23.2996 C   0  0  0  0  0  0  0  0  0  0  0  0
  -23.9884   -7.8515   23.3172 C   0  0  0  0  0  0  0  0  0  0  0  0
  -26.6515  -23.6828   22.0324 C   0  0  0  0  0  0  0  0  0  0  0  0
  -22.4795   -6.1309   23.8509 C   0  0  0  0  0  0  0  0  0  0  0  0
  -20.1305   -4.7411   23.2737 C   0  0  0  0  0  0  0  0  0  0  0  0
  -22.5268   -4.7633   23.5803 C   0  0  0  0  0  0  0  0  0  0  0  0
  -25.0573  -11.0527   20.7662 C   0  0  0  0  0  0  0  0  0  0  0  0
  -25.0456  -12.6570   19.2625 C   0  0  0  0  0  0  0  0  0  0  0  0
  -27.3448  -18.3645   26.1595 C   0  0  0  0  0  0  0  0  0  0  0  0
  -22.8644  -11.4564   19.4844 C   0  0  0  0  0  0  0  0  0  0  0  0
  -29.2820  -28.3511   21.1649 C   0  0  0  0  0  0  0  0  0  0  0  0
  -26.6145  -29.9163   22.1431 C   0  0  0  0  0  0  0  0  0  0  0  0
  -23.4167  -29.7346   23.3211 C   0  0  0  0  0  0  0  0  0  0  0  0
  -29.8909  -15.5590   21.2136 C   0  0  0  0  0  0  0  0  0  0  0  0
  -33.5008  -29.4517   18.5101 C   0  0  0  0  0  0  0  0  0  0  0  0
  -27.5044  -27.2400   19.7642 C   0  0  0  0  0  0  0  0  0  0  0  0
  -26.7008  -27.4372   22.6033 C   0  0  0  0  0  0  0  0  0  0  0  0
  -32.5055  -30.2423   19.3554 C   0  0  0  0  0  0  0  0  0  0  0  0
  -29.6430  -13.5639   18.2749 C   0  0  0  0  0  0  0  0  0  0  0  0
  -32.2701  -29.5469   20.6926 C   0  0  0  0  0  0  0  0  0  0  0  0
  -28.3610  -12.7569   18.4918 C   0  0  0  0  0  0  0  0  0  0  0  0
  -25.3123  -21.4418   26.1970 C   0  0  0  0  0  0  0  0  0  0  0  0
  -30.4151  -13.7630   19.5781 C   0  0  0  0  0  0  0  0  0  0  0  0
  -25.5908  -20.0329   26.6975 C   0  0  0  0  0  0  0  0  0  0  0  0
  -26.9480  -20.4608   24.7580 C   0  0  0  0  0  0  0  0  0  0  0  0
  -28.3499  -13.5236   20.8999 C   0  0  0  0  0  0  0  0  0  0  0  0
  -31.6685  -28.1510   20.4901 C   0  0  1  0  0  0  0  0  0  0  0  0
  -27.8829  -28.4418   20.6244 C   0  0  1  0  0  0  0  0  0  0  0  0
  -25.7203  -21.3694   24.7237 C   0  0  2  0  0  0  0  0  0  0  0  0
  -27.5052  -13.3526   19.6268 C   0  0  2  0  0  0  0  0  0  0  0  0
  -21.5055  -31.1818   24.0630 C   0  0  0  0  0  0  0  0  0  0  0  0
  -28.0497  -30.4551   24.7812 C   0  0  0  0  0  0  0  0  0  0  0  0
  -25.8321  -31.0339   25.7891 C   0  0  0  0  0  0  0  0  0  0  0  0
  -26.7317  -32.3878   23.8970 C   0  0  0  0  0  0  0  0  0  0  0  0
  -21.6457  -28.6868   21.1940 C   0  0  0  0  0  0  0  0  0  0  0  0
  -25.9965  -22.7305   24.1109 C   0  0  0  0  0  0  0  0  0  1  0  0
  -25.8737  -30.0518   23.4514 C   0  0  1  0  0  0  0  0  0  0  0  0
  -22.1446  -30.4456   22.8958 C   0  0  2  0  0  0  0  0  0  0  0  0
  -26.6260  -30.9568   24.4675 C   0  0  0  0  0  0  0  0  0  0  0  0
  -26.2936  -11.5568   20.8051 N   0  0  0  0  0  0  0  0  0  0  0  0
  -26.2553  -12.5304   19.8795 N   0  0  0  0  0  0  0  0  0  0  0  0
  -26.7001  -19.5603   25.8826 N   0  0  0  0  0  0  0  0  0  0  0  0
  -26.9920  -28.6177   21.7731 N   0  0  0  0  0  0  0  0  0  0  0  0
  -29.5419  -14.3345   20.6056 N   0  0  0  0  0  0  0  0  0  0  0  0
  -24.8334  -13.5866   18.3068 N   0  0  0  0  0  0  0  0  0  0  0  0
  -22.1809  -10.4344   20.1573 N   0  0  0  0  0  0  0  0  0  0  0  0
  -28.9685  -16.0203   22.1521 N   0  0  0  0  0  0  0  0  0  0  0  0
  -30.2560  -28.2480   20.1902 N   0  0  0  0  0  0  0  0  0  0  0  0
  -24.5327  -30.5177   23.1150 N   0  0  0  0  0  0  0  0  0  0  0  0
  -21.1575  -29.4655   22.3611 N   0  3  0  0  0  0  0  0  0  0  0  0
  -27.0610  -17.6060   27.0845 O   0  0  0  0  0  0  0  0  0  0  0  0
  -22.2673  -12.1148   18.5992 O   0  0  0  0  0  0  0  0  0  0  0  0
  -29.4643  -28.3744   22.3764 O   0  0  0  0  0  0  0  0  0  0  0  0
  -26.8433  -30.9248   21.4705 O   0  0  0  0  0  0  0  0  0  0  0  0
  -23.4196  -28.5997   23.7927 O   0  0  0  0  0  0  0  0  0  0  0  0
  -30.9180  -16.1680   20.9034 O   0  0  0  0  0  0  0  0  0  0  0  0
  -23.6446   -6.8220   24.1384 O   0  0  0  0  0  0  0  0  0  0  0  0
  -26.3772  -22.5574   22.7465 O   0  0  0  0  0  0  0  0  0  1  0  0
  -19.0023   -4.0736   22.9981 F   0  0  0  0  0  0  0  0  0  0  0  0
  -23.6975   -4.1114   23.5973 F   0  0  0  0  0  0  0  0  0  0  0  0
  1  2  1  0  0  0  0
  1  7  2  0  0  0  0
  2  8  2  0  0  0  0
  3  6  2  0  0  0  0
  3 10  1  0  0  0  0
  4 11  2  0  0  0  0
  4 19  1  0  0  0  0
  5 12  1  0  0  0  0
  5 19  2  0  0  0  0
  6 20  1  0  0  0  0
  7 22  1  0  0  0  0
  8 24  1  0  0  0  0
  9 13  2  0  0  0  0
  9 23  1  0  0  0  0
 10 26  2  0  0  0  0
 11 27  1  0  0  0  0
 12 27  2  0  0  0  0
 13 28  1  0  0  0  0
 14 15  2  0  0  0  0
 14 29  1  0  0  0  0
 15 30  1  0  0  0  0
 16 20  2  0  0  0  0
 16 26  1  0  0  0  0
 17 25  1  0  0  0  0
 17 28  2  0  0  0  0
 18 30  2  0  0  0  0
 18 31  1  0  0  0  0
 19 32  1  0  0  0  0
 20 34  1  0  0  0  0
 21 32  1  0  0  0  0
 21 33  2  0  0  0  0
 21 35  1  0  0  0  0
 22 24  2  0  0  0  0
 22 40  1  0  0  0  0
 23 25  2  0  0  0  0
 23 41  1  0  0  0  0
 24 52  1  0  0  0  0
 25 42  1  0  0  0  0
 26 72  1  0  0  0  0
 27 82  1  0  0  0  0
 28 83  1  0  0  0  0
 29 31  2  0  0  0  0
 29 82  1  0  0  0  0
 30 84  1  0  0  0  0
 31 85  1  0  0  0  0
 32 65  2  0  0  0  0
 33 66  1  0  0  0  0
 33 70  1  0  0  0  0
 34 67  1  0  0  0  0
 34 76  2  0  0  0  0
 35 71  1  0  0  0  0
 35 77  2  0  0  0  0
 36 53  1  0  0  0  0
 36 73  1  0  0  0  0
 36 78  2  0  0  0  0
 37 62  1  0  0  0  0
 37 68  1  0  0  0  0
 37 79  2  0  0  0  0
 38 63  1  0  0  0  0
 38 74  1  0  0  0  0
 38 80  2  0  0  0  0
 39 69  1  0  0  0  0
 39 72  1  0  0  0  0
 39 81  2  0  0  0  0
 40 43  1  0  0  0  0
 41 53  1  0  0  0  0
 42 68  1  0  0  0  0
 43 45  1  0  0  0  0
 44 46  1  0  0  0  0
 44 48  1  0  0  0  0
 45 52  1  0  0  0  0
 46 55  1  0  0  0  0
 47 49  1  0  0  0  0
 47 54  1  0  0  0  0
 48 69  1  0  0  0  0
 49 67  1  0  0  0  0
 50 54  1  0  0  0  0
 50 67  1  0  0  0  0
 51 55  1  0  0  0  0
 51 69  1  0  0  0  0
 52 73  1  0  0  0  0
 53 68  1  0  0  0  0
 54 61  1  0  0  0  0
 55 66  1  0  0  0  0
 56 63  1  0  0  0  0
 57 64  1  0  0  0  0
 58 64  1  0  0  0  0
 59 64  1  0  0  0  0
 60 75  1  0  0  0  0
 61 83  1  0  0  0  0
 62 64  1  0  0  0  0
 62 74  1  0  0  0  0
 63 75  1  0  0  0  0
 65 66  1  0  0  0  0
M  CHG  1  75   1
M  ISO  4  39 100  61 101  72 100  83 101
M  END
> <Batch ID>
0098

> <Smiles>
CNC(C)C(=O)NC(C(=O)N1Cc2cc([101O:1][101CH2:1]C3CCN(C(=O)c4cccc([100NH:0][100C:0](=O)N5CCCC(n6nc(-c7ccc(Oc8ccc(F)cc8F)cc7)c(C(N)=O)c6N)C5)c4)C3)ccc2CC1C(=O)NC1CCCc2ccccc21)C(C)(C)C

> <Shape>
0.249

> <Color>
0.098

> <Negative vol penalty>
0.000

$$$$

  -OEChem-04052300513D

 86 95  0     1  0  0  0  0  0999 V2000
  -24.0782  -26.7191   19.2653 C   0  0  0  0  0  0  0  0  0  0  0  0
  -24.9128  -25.9504   20.0702 C   0  0  0  0  0  0  0  0  0  0  0  0
  -22.8004  -10.1446   20.0971 C   0  0  0  0  0  0  0  0  0  0  0  0
  -24.1816   -9.5731   21.9953 C   0  0  0  0  0  0  0  0  0  0  0  0
  -23.3535  -27.7729   19.8205 C   0  0  0  0  0  0  0  0  0  0  0  0
  -25.0241  -26.2358   21.4306 C   0  0  0  0  0  0  0  0  0  0  0  0
  -24.8310  -22.0749   24.3107 C   0  0  0  0  0  0  0  0  0  0  0  0
  -30.6109  -14.9777   24.9980 C   0  0  0  0  0  0  0  0  0  0  0  0
  -32.7214  -15.2867   23.8633 C   0  0  0  0  0  0  0  0  0  0  0  0
  -30.6216  -16.3184   25.3829 C   0  0  0  0  0  0  0  0  0  0  0  0
  -32.7321  -16.6274   24.2482 C   0  0  0  0  0  0  0  0  0  0  0  0
  -22.0660   -8.9727   20.2786 C   0  0  0  0  0  0  0  0  0  0  0  0
  -23.4471   -8.4012   22.1768 C   0  0  0  0  0  0  0  0  0  0  0  0
  -25.9867  -21.2988   24.3864 C   0  0  0  0  0  0  0  0  0  0  0  0
  -23.2903   -5.3199   20.7940 C   0  0  0  0  0  0  0  0  0  0  0  0
  -23.9981   -4.1423   21.0346 C   0  0  0  0  0  0  0  0  0  0  0  0
  -26.5128  -22.3006   26.5168 C   0  0  0  0  0  0  0  0  0  0  0  0
  -22.8755   -3.9019   23.1604 C   0  0  0  0  0  0  0  0  0  0  0  0
  -23.8583  -10.4447   20.9554 C   0  0  0  0  0  0  0  0  0  0  0  0
  -24.1337  -12.9763   20.8042 C   0  0  0  0  0  0  0  0  0  0  0  0
  -23.4485  -28.0653   21.1902 C   0  0  0  0  0  0  0  0  0  0  0  0
  -24.5127  -22.9792   25.3341 C   0  0  0  0  0  0  0  0  0  0  0  0
  -24.3010  -27.2954   22.0043 C   0  0  0  0  0  0  0  0  0  0  0  0
  -25.3512  -23.0853   26.4530 C   0  0  0  0  0  0  0  0  0  0  0  0
  -31.6609  -14.4618   24.2383 C   0  0  0  0  0  0  0  0  0  0  0  0
  -31.6821  -17.1432   25.0080 C   0  0  0  0  0  0  0  0  0  0  0  0
  -22.3894   -8.1010   21.3185 C   0  0  0  0  0  0  0  0  0  0  0  0
  -26.8293  -21.4136   25.4882 C   0  0  0  0  0  0  0  0  0  0  0  0
  -22.3752   -5.7886   21.7367 C   0  0  0  0  0  0  0  0  0  0  0  0
  -23.7906   -3.4333   22.2177 C   0  0  0  0  0  0  0  0  0  0  0  0
  -22.1678   -5.0796   22.9198 C   0  0  0  0  0  0  0  0  0  0  0  0
  -24.6176  -11.6548   20.7681 C   0  0  0  0  0  0  0  0  0  0  0  0
  -25.2413  -13.7541   20.5704 C   0  0  0  0  0  0  0  0  0  0  0  0
  -32.9068  -19.2109   25.6202 C   0  0  0  0  0  0  0  0  0  0  0  0
  -22.8020  -13.4577   21.0291 C   0  0  0  0  0  0  0  0  0  0  0  0
  -24.1456  -26.1318   25.5078 C   0  0  0  0  0  0  0  0  0  0  0  0
  -23.2004  -25.4633   28.5380 C   0  0  0  0  0  0  0  0  0  0  0  0
  -24.2564  -23.2724   31.2030 C   0  0  0  0  0  0  0  0  0  0  0  0
  -31.1019  -12.8615   21.4120 C   0  0  0  0  0  0  0  0  0  0  0  0
  -22.6821  -29.2442   21.7357 C   0  0  0  0  0  0  0  0  0  0  0  0
  -23.2485  -23.7899   25.2501 C   0  0  0  0  0  0  0  0  0  0  0  0
  -25.0438  -24.0264   27.5879 C   0  0  0  0  0  0  0  0  0  0  0  0
  -32.8270  -20.7222   25.7253 C   0  0  0  0  0  0  0  0  0  0  0  0
  -22.5687  -29.2452   23.2580 C   0  0  0  0  0  0  0  0  0  0  0  0
  -31.5734  -21.2360   26.3987 C   0  0  0  0  0  0  0  0  0  0  0  0
  -29.4772  -13.6659   18.3477 C   0  0  0  0  0  0  0  0  0  0  0  0
  -23.9227  -28.9477   23.8944 C   0  0  0  0  0  0  0  0  0  0  0  0
  -28.0039  -13.3610   18.6238 C   0  0  0  0  0  0  0  0  0  0  0  0
  -30.4001  -12.6683   19.0441 C   0  0  0  0  0  0  0  0  0  0  0  0
  -30.4025  -19.1405   25.7813 C   0  0  0  0  0  0  0  0  0  0  0  0
  -28.6998  -12.2176   20.7702 C   0  0  0  0  0  0  0  0  0  0  0  0
  -24.4294  -27.5583   23.4890 C   0  0  1  0  0  0  0  0  0  0  0  0
  -23.2897  -25.0517   26.1066 C   0  0  1  0  0  0  0  0  0  0  0  0
  -30.3614  -20.6647   25.6815 C   0  0  1  0  0  0  0  0  0  0  0  0
  -27.7319  -13.2302   20.1345 C   0  0  2  0  0  0  0  0  0  0  0  0
  -22.9551  -22.2591   33.0944 C   0  0  0  0  0  0  0  0  0  0  0  0
  -24.1619  -27.8907   30.1170 C   0  0  0  0  0  0  0  0  0  0  0  0
  -24.4383  -26.3986   32.1084 C   0  0  0  0  0  0  0  0  0  0  0  0
  -22.1799  -26.7248   31.1003 C   0  0  0  0  0  0  0  0  0  0  0  0
  -25.0870  -20.5309   30.4591 C   0  0  0  0  0  0  0  0  0  0  0  0
  -31.6494  -13.0284   23.8268 C   0  0  0  0  0  0  0  0  0  0  0  0
  -29.0649  -21.2125   26.2742 C   0  0  0  0  0  0  0  0  0  1  0  0
  -23.8968  -25.3343   29.8712 C   0  0  1  0  0  0  0  0  0  0  0  0
  -23.5314  -22.0366   31.7047 C   0  0  2  0  0  0  0  0  0  0  0  0
  -23.6826  -26.5813   30.7748 C   0  0  0  0  0  0  0  0  0  0  0  0
  -25.9304  -11.5928   20.5299 N   0  0  0  0  0  0  0  0  0  0  0  0
  -26.2808  -12.8851   20.4141 N   0  0  0  0  0  0  0  0  0  0  0  0
  -31.6933  -18.5345   25.4070 N   0  0  0  0  0  0  0  0  0  0  0  0
  -23.7994  -24.8021   27.4564 N   0  0  0  0  0  0  0  0  0  0  0  0
  -30.0913  -12.5929   20.4741 N   0  0  0  0  0  0  0  0  0  0  0  0
  -25.4178  -15.0898   20.4852 N   0  0  0  0  0  0  0  0  0  0  0  0
  -22.4034  -13.7302   22.3449 N   0  0  0  0  0  0  0  0  0  0  0  0
  -23.7472  -26.5308   24.2463 N   0  0  0  0  0  0  0  0  0  0  0  0
  -23.4272  -24.0837   30.4577 N   0  0  0  0  0  0  0  0  0  0  0  0
  -30.7232  -12.7740   22.7460 N   0  0  0  0  0  0  0  0  0  0  0  0
  -24.4648  -20.8763   31.7631 N   0  3  0  0  0  0  0  0  0  0  0  0
  -34.0219  -18.6846   25.6683 O   0  0  0  0  0  0  0  0  0  0  0  0
  -21.9843  -13.6252   20.0928 O   0  0  0  0  0  0  0  0  0  0  0  0
  -25.0961  -26.5718   26.1440 O   0  0  0  0  0  0  0  0  0  0  0  0
  -22.1594  -26.1204   28.4606 O   0  0  0  0  0  0  0  0  0  0  0  0
  -25.4390  -23.4974   31.4508 O   0  0  0  0  0  0  0  0  0  0  0  0
  -32.2548  -13.1625   21.0847 O   0  0  0  0  0  0  0  0  0  0  0  0
  -21.6728   -6.9575   21.4960 O   0  0  0  0  0  0  0  0  0  0  0  0
  -27.9583  -20.6577   25.5643 O   0  0  0  0  0  0  0  0  0  1  0  0
  -24.4692   -2.3016   22.4479 F   0  0  0  0  0  0  0  0  0  0  0  0
  -21.2890   -5.5243   23.8287 F   0  0  0  0  0  0  0  0  0  0  0  0
  1  2  1  0  0  0  0
  1  5  2  0  0  0  0
  2  6  2  0  0  0  0
  3 12  2  0  0  0  0
  3 19  1  0  0  0  0
  4 13  1  0  0  0  0
  4 19  2  0  0  0  0
  5 21  1  0  0  0  0
  6 23  1  0  0  0  0
  7 14  2  0  0  0  0
  7 22  1  0  0  0  0
  8 10  2  0  0  0  0
  8 25  1  0  0  0  0
  9 11  1  0  0  0  0
  9 25  2  0  0  0  0
 10 26  1  0  0  0  0
 11 26  2  0  0  0  0
 12 27  1  0  0  0  0
 13 27  2  0  0  0  0
 14 28  1  0  0  0  0
 15 16  2  0  0  0  0
 15 29  1  0  0  0  0
 16 30  1  0  0  0  0
 17 24  1  0  0  0  0
 17 28  2  0  0  0  0
 18 30  2  0  0  0  0
 18 31  1  0  0  0  0
 19 32  1  0  0  0  0
 20 32  1  0  0  0  0
 20 33  2  0  0  0  0
 20 35  1  0  0  0  0
 21 23  2  0  0  0  0
 21 40  1  0  0  0  0
 22 24  2  0  0  0  0
 22 41  1  0  0  0  0
 23 52  1  0  0  0  0
 24 42  1  0  0  0  0
 25 61  1  0  0  0  0
 26 68  1  0  0  0  0
 27 83  1  0  0  0  0
 28 84  1  0  0  0  0
 29 31  2  0  0  0  0
 29 83  1  0  0  0  0
 30 85  1  0  0  0  0
 31 86  1  0  0  0  0
 32 66  2  0  0  0  0
 33 67  1  0  0  0  0
 33 71  1  0  0  0  0
 34 43  1  0  0  0  0
 34 68  1  0  0  0  0
 34 77  2  0  0  0  0
 35 72  1  0  0  0  0
 35 78  2  0  0  0  0
 36 53  1  0  0  0  0
 36 73  1  0  0  0  0
 36 79  2  0  0  0  0
 37 63  1  0  0  0  0
 37 69  1  0  0  0  0
 37 80  2  0  0  0  0
 38 64  1  0  0  0  0
 38 74  1  0  0  0  0
 38 81  2  0  0  0  0
 39 70  1  0  0  0  0
 39 75  1  0  0  0  0
 39 82  2  0  0  0  0
 40 44  1  0  0  0  0
 41 53  1  0  0  0  0
 42 69  1  0  0  0  0
 43 45  1  0  0  0  0
 44 47  1  0  0  0  0
 45 54  1  0  0  0  0
 46 48  1  0  0  0  0
 46 49  1  0  0  0  0
 47 52  1  0  0  0  0
 48 55  1  0  0  0  0
 49 70  1  0  0  0  0
 50 54  1  0  0  0  0
 50 68  1  0  0  0  0
 51 55  1  0  0  0  0
 51 70  1  0  0  0  0
 52 73  1  0  0  0  0
 53 69  1  0  0  0  0
 54 62  1  0  0  0  0
 55 67  1  0  0  0  0
 56 64  1  0  0  0  0
 57 65  1  0  0  0  0
 58 65  1  0  0  0  0
 59 65  1  0  0  0  0
 60 76  1  0  0  0  0
 61 75  1  0  0  0  0
 62 84  1  0  0  0  0
 63 65  1  0  0  0  0
 63 74  1  0  0  0  0
 64 76  1  0  0  0  0
 66 67  1  0  0  0  0
M  CHG  1  76   1
M  ISO  4  39 100  62 101  75 100  84 101
M  END
> <Batch ID>
0098

> <Smiles>
CNC(C)C(=O)NC(C(=O)N1Cc2cc([101O:1][101CH2:1]C3CCC(=O)N(c4ccc(C[100NH:0][100C:0](=O)N5CCCC(n6nc(-c7ccc(Oc8ccc(F)cc8F)cc7)c(C(N)=O)c6N)C5)cc4)C3)ccc2CC1C(=O)NC1CCCc2ccccc21)C(C)(C)C

> <Shape>
0.169

> <Color>
0.155

> <Negative vol penalty>
0.000

$$$$

  -OEChem-04052300513D

 84 92  0     1  0  0  0  0  0999 V2000
  -20.5016  -34.5479   23.0938 C   0  0  0  0  0  0  0  0  0  0  0  0
  -21.7516  -34.0653   22.7199 C   0  0  0  0  0  0  0  0  0  0  0  0
  -21.9705  -14.8373   20.5447 C   0  0  0  0  0  0  0  0  0  0  0  0
  -24.0132  -14.1412   21.6309 C   0  0  0  0  0  0  0  0  0  0  0  0
  -19.5784  -33.6951   23.6975 C   0  0  0  0  0  0  0  0  0  0  0  0
  -22.0796  -32.7297   22.9503 C   0  0  0  0  0  0  0  0  0  0  0  0
  -25.5742  -29.1369   19.4310 C   0  0  0  0  0  0  0  0  0  0  0  0
  -31.3209  -21.9322   18.1659 C   0  0  0  0  0  0  0  0  0  0  0  0
  -31.2702  -23.2982   18.4438 C   0  0  0  0  0  0  0  0  0  0  0  0
  -21.4053  -13.5896   20.8078 C   0  0  0  0  0  0  0  0  0  0  0  0
  -23.4480  -12.8934   21.8940 C   0  0  0  0  0  0  0  0  0  0  0  0
  -26.9148  -28.7628   19.5119 C   0  0  0  0  0  0  0  0  0  0  0  0
  -22.6712   -9.4011   22.5349 C   0  0  0  0  0  0  0  0  0  0  0  0
  -23.4513   -8.2712   22.2892 C   0  0  0  0  0  0  0  0  0  0  0  0
  -26.2728  -26.7277   20.6368 C   0  0  0  0  0  0  0  0  0  0  0  0
  -30.4608  -22.8156   20.6685 C   0  0  0  0  0  0  0  0  0  0  0  0
  -23.6225   -8.8956   19.9616 C   0  0  0  0  0  0  0  0  0  0  0  0
  -23.2745  -15.1131   20.9562 C   0  0  0  0  0  0  0  0  0  0  0  0
  -23.8137  -17.5457   21.5032 C   0  0  0  0  0  0  0  0  0  0  0  0
  -19.8917  -32.3460   23.9267 C   0  0  0  0  0  0  0  0  0  0  0  0
  -24.5720  -28.3129   19.9631 C   0  0  0  0  0  0  0  0  0  0  0  0
  -21.1602  -31.8584   23.5588 C   0  0  0  0  0  0  0  0  0  0  0  0
  -24.9200  -27.0924   20.5592 C   0  0  0  0  0  0  0  0  0  0  0  0
  -30.9414  -21.0079   19.1393 C   0  0  0  0  0  0  0  0  0  0  0  0
  -30.5114  -21.4496   20.3905 C   0  0  0  0  0  0  0  0  0  0  0  0
  -30.8402  -23.7398   19.6951 C   0  0  0  0  0  0  0  0  0  0  0  0
  -22.1440  -12.6176   21.4825 C   0  0  0  0  0  0  0  0  0  0  0  0
  -27.2645  -27.5594   20.1174 C   0  0  0  0  0  0  0  0  0  0  0  0
  -22.3667  -10.2782   21.4939 C   0  0  0  0  0  0  0  0  0  0  0  0
  -23.9270   -8.0185   21.0026 C   0  0  0  0  0  0  0  0  0  0  0  0
  -22.8424  -10.0255   20.2073 C   0  0  0  0  0  0  0  0  0  0  0  0
  -23.8591  -16.4017   20.6842 C   0  0  0  0  0  0  0  0  0  0  0  0
  -24.5121  -18.4980   20.8019 C   0  0  0  0  0  0  0  0  0  0  0  0
  -23.1955  -17.7311   22.7836 C   0  0  0  0  0  0  0  0  0  0  0  0
  -22.3899  -28.6280   22.2529 C   0  0  0  0  0  0  0  0  0  0  0  0
  -21.3933  -25.7404   21.1616 C   0  0  0  0  0  0  0  0  0  0  0  0
  -31.1313  -26.1775   19.1321 C   0  0  0  0  0  0  0  0  0  0  0  0
  -22.1510  -22.8422   19.5267 C   0  0  0  0  0  0  0  0  0  0  0  0
  -29.1050  -19.0076   17.3148 C   0  0  0  0  0  0  0  0  0  0  0  0
  -18.8785  -31.4741   24.6252 C   0  0  0  0  0  0  0  0  0  0  0  0
  -23.1284  -28.7182   19.8440 C   0  0  0  0  0  0  0  0  0  0  0  0
  -23.8805  -26.1625   21.1277 C   0  0  0  0  0  0  0  0  0  0  0  0
  -19.1664  -29.9807   24.4936 C   0  0  0  0  0  0  0  0  0  0  0  0
  -25.7742  -19.1060   16.0606 C   0  0  0  0  0  0  0  0  0  0  0  0
  -20.6374  -29.6936   24.7778 C   0  0  0  0  0  0  0  0  0  0  0  0
  -24.9366  -18.5250   17.2012 C   0  0  0  0  0  0  0  0  0  0  0  0
  -27.1291  -18.4112   15.9448 C   0  0  0  0  0  0  0  0  0  0  0  0
  -27.0798  -17.7987   18.3315 C   0  0  0  0  0  0  0  0  0  0  0  0
  -21.5440  -30.4098   23.7696 C   0  0  1  0  0  0  0  0  0  0  0  0
  -22.2313  -28.0440   20.8776 C   0  0  1  0  0  0  0  0  0  0  0  0
  -25.7268  -18.5050   18.5234 C   0  0  2  0  0  0  0  0  0  0  0  0
  -30.1023  -20.4783   21.4487 C   0  0  0  0  0  0  0  0  0  0  0  0
  -21.1411  -20.6551   18.8237 C   0  0  0  0  0  0  0  0  0  0  0  0
  -21.6061  -24.7229   24.0302 C   0  0  0  0  0  0  0  0  0  0  0  0
  -21.5230  -22.3867   23.1339 C   0  0  0  0  0  0  0  0  0  0  0  0
  -19.5889  -23.9234   22.7867 C   0  0  0  0  0  0  0  0  0  0  0  0
  -22.6029  -23.4223   16.6600 C   0  0  0  0  0  0  0  0  0  0  0  0
  -31.0033  -19.5506   18.8182 C   0  0  0  0  0  0  0  0  0  0  0  0
  -30.9298  -27.5148   19.8358 C   0  0  0  0  0  0  0  0  0  0  0  0
  -29.5341  -28.0877   19.6419 C   0  0  0  0  0  0  0  0  0  1  0  0
  -21.7230  -24.3033   21.4854 C   0  0  1  0  0  0  0  0  0  0  0  0
  -21.4317  -22.0922   18.4201 C   0  0  2  0  0  0  0  0  0  0  0  0
  -21.1302  -23.8523   22.8502 C   0  0  0  0  0  0  0  0  0  0  0  0
  -24.5329  -16.6064   19.5493 N   0  0  0  0  0  0  0  0  0  0  0  0
  -24.9173  -17.8902   19.6502 N   0  0  0  0  0  0  0  0  0  0  0  0
  -22.4832  -26.6061   20.9926 N   0  0  0  0  0  0  0  0  0  0  0  0
  -27.8280  -18.4282   17.2321 N   0  0  0  0  0  0  0  0  0  0  0  0
  -24.8130  -19.7876   21.0643 N   0  0  0  0  0  0  0  0  0  0  0  0
  -22.5184  -16.6486   23.3615 N   0  0  0  0  0  0  0  0  0  0  0  0
  -30.7905  -25.1255   19.9781 N   0  0  0  0  0  0  0  0  0  0  0  0
  -21.5567  -29.7004   22.5083 N   0  0  0  0  0  0  0  0  0  0  0  0
  -21.2684  -23.5135   20.3461 N   0  0  0  0  0  0  0  0  0  0  0  0
  -29.6943  -18.9875   18.5729 N   0  0  0  0  0  0  0  0  0  0  0  0
  -22.2616  -22.0741   17.1824 N   0  3  0  0  0  0  0  0  0  0  0  0
  -23.2282  -18.8290   23.3894 O   0  0  0  0  0  0  0  0  0  0  0  0
  -23.2067  -28.1408   23.0256 O   0  0  0  0  0  0  0  0  0  0  0  0
  -20.2124  -26.0808   21.0552 O   0  0  0  0  0  0  0  0  0  0  0  0
  -31.5407  -26.1021   17.9784 O   0  0  0  0  0  0  0  0  0  0  0  0
  -23.3734  -22.8303   19.6539 O   0  0  0  0  0  0  0  0  0  0  0  0
  -29.6751  -19.5106   16.3407 O   0  0  0  0  0  0  0  0  0  0  0  0
  -21.5928  -11.4000   21.7396 O   0  0  0  0  0  0  0  0  0  0  0  0
  -28.5724  -27.1922   20.1983 O   0  0  0  0  0  0  0  0  0  1  0  0
  -24.6774   -6.9342   20.7671 F   0  0  0  0  0  0  0  0  0  0  0  0
  -22.5541  -10.8651   19.2034 F   0  0  0  0  0  0  0  0  0  0  0  0
  1  2  1  0  0  0  0
  1  5  2  0  0  0  0
  2  6  2  0  0  0  0
  3 10  2  0  0  0  0
  3 18  1  0  0  0  0
  4 11  1  0  0  0  0
  4 18  2  0  0  0  0
  5 20  1  0  0  0  0
  6 22  1  0  0  0  0
  7 12  2  0  0  0  0
  7 21  1  0  0  0  0
  8  9  2  0  0  0  0
  8 24  1  0  0  0  0
  9 26  1  0  0  0  0
 10 27  1  0  0  0  0
 11 27  2  0  0  0  0
 12 28  1  0  0  0  0
 13 14  2  0  0  0  0
 13 29  1  0  0  0  0
 14 30  1  0  0  0  0
 15 23  1  0  0  0  0
 15 28  2  0  0  0  0
 16 25  1  0  0  0  0
 16 26  2  0  0  0  0
 17 30  2  0  0  0  0
 17 31  1  0  0  0  0
 18 32  1  0  0  0  0
 19 32  1  0  0  0  0
 19 33  2  0  0  0  0
 19 34  1  0  0  0  0
 20 22  2  0  0  0  0
 20 40  1  0  0  0  0
 21 23  2  0  0  0  0
 21 41  1  0  0  0  0
 22 49  1  0  0  0  0
 23 42  1  0  0  0  0
 24 25  2  0  0  0  0
 24 58  1  0  0  0  0
 25 52  1  0  0  0  0
 26 70  1  0  0  0  0
 27 81  1  0  0  0  0
 28 82  1  0  0  0  0
 29 31  2  0  0  0  0
 29 81  1  0  0  0  0
 30 83  1  0  0  0  0
 31 84  1  0  0  0  0
 32 64  2  0  0  0  0
 33 65  1  0  0  0  0
 33 68  1  0  0  0  0
 34 69  1  0  0  0  0
 34 75  2  0  0  0  0
 35 50  1  0  0  0  0
 35 71  1  0  0  0  0
 35 76  2  0  0  0  0
 36 61  1  0  0  0  0
 36 66  1  0  0  0  0
 36 77  2  0  0  0  0
 37 59  1  0  0  0  0
 37 70  1  0  0  0  0
 37 78  2  0  0  0  0
 38 62  1  0  0  0  0
 38 72  1  0  0  0  0
 38 79  2  0  0  0  0
 39 67  1  0  0  0  0
 39 73  1  0  0  0  0
 39 80  2  0  0  0  0
 40 43  1  0  0  0  0
 41 50  1  0  0  0  0
 42 66  1  0  0  0  0
 43 45  1  0  0  0  0
 44 46  1  0  0  0  0
 44 47  1  0  0  0  0
 45 49  1  0  0  0  0
 46 51  1  0  0  0  0
 47 67  1  0  0  0  0
 48 51  1  0  0  0  0
 48 67  1  0  0  0  0
 49 71  1  0  0  0  0
 50 66  1  0  0  0  0
 51 65  1  0  0  0  0
 53 62  1  0  0  0  0
 54 63  1  0  0  0  0
 55 63  1  0  0  0  0
 56 63  1  0  0  0  0
 57 74  1  0  0  0  0
 58 73  1  0  0  0  0
 59 60  1  0  0  0  0
 60 82  1  0  0  0  0
 61 63  1  0  0  0  0
 61 72  1  0  0  0  0
 62 74  1  0  0  0  0
 64 65  1  0  0  0  0
M  CHG  1  74   1
M  ISO  4  39 100  60 101  73 100  82 101
M  END
> <Batch ID>
0098

> <Smiles>
CNC(C)C(=O)NC(C(=O)N1Cc2cc([101O:1][101CH2:1]CC(=O)Nc3ccc(C[100NH:0][100C:0](=O)N4CCCC(n5nc(-c6ccc(Oc7ccc(F)cc7F)cc6)c(C(N)=O)c5N)C4)c(C)c3)ccc2CC1C(=O)NC1CCCc2ccccc21)C(C)(C)C

> <Shape>
0.197

> <Color>
0.079

> <Negative vol penalty>
0.000

$$$$

  -OEChem-04052300513D

 86 94  0     1  0  0  0  0  0999 V2000
  -17.7089  -29.6531   19.7080 C   0  0  0  0  0  0  0  0  0  0  0  0
  -18.3210  -28.4131   19.8603 C   0  0  0  0  0  0  0  0  0  0  0  0
  -23.2231   -9.7185   19.8981 C   0  0  0  0  0  0  0  0  0  0  0  0
  -23.8995   -9.8056   22.2159 C   0  0  0  0  0  0  0  0  0  0  0  0
  -17.4559  -30.4463   20.8264 C   0  0  0  0  0  0  0  0  0  0  0  0
  -18.6816  -27.9661   21.1309 C   0  0  0  0  0  0  0  0  0  0  0  0
  -17.4259  -23.1233   21.9156 C   0  0  0  0  0  0  0  0  0  0  0  0
  -27.9072  -19.0321   21.9526 C   0  0  0  0  0  0  0  0  0  0  0  0
  -26.5405  -19.2749   21.8150 C   0  0  0  0  0  0  0  0  0  0  0  0
  -22.5421   -8.5258   20.1416 C   0  0  0  0  0  0  0  0  0  0  0  0
  -23.2184   -8.6130   22.4594 C   0  0  0  0  0  0  0  0  0  0  0  0
  -18.2495  -22.1520   21.3481 C   0  0  0  0  0  0  0  0  0  0  0  0
  -20.0252   -7.6283   22.9637 C   0  0  0  0  0  0  0  0  0  0  0  0
  -19.2310   -7.5594   24.1083 C   0  0  0  0  0  0  0  0  0  0  0  0
  -19.3309  -21.8318   23.4805 C   0  0  0  0  0  0  0  0  0  0  0  0
  -28.0381  -18.4432   19.6131 C   0  0  0  0  0  0  0  0  0  0  0  0
  -20.5606   -5.7125   24.9196 C   0  0  0  0  0  0  0  0  0  0  0  0
  -23.9019  -10.3584   20.9352 C   0  0  0  0  0  0  0  0  0  0  0  0
  -24.0942  -12.8977   20.7845 C   0  0  0  0  0  0  0  0  0  0  0  0
  -17.8047  -30.0046   22.1124 C   0  0  0  0  0  0  0  0  0  0  0  0
  -17.5562  -23.4645   23.2695 C   0  0  0  0  0  0  0  0  0  0  0  0
  -18.4342  -28.7547   22.2674 C   0  0  0  0  0  0  0  0  0  0  0  0
  -18.5061  -22.8060   24.0633 C   0  0  0  0  0  0  0  0  0  0  0  0
  -28.6560  -18.6163   20.8516 C   0  0  0  0  0  0  0  0  0  0  0  0
  -25.9226  -19.1018   20.5765 C   0  0  0  0  0  0  0  0  0  0  0  0
  -26.6714  -18.6859   19.4755 C   0  0  0  0  0  0  0  0  0  0  0  0
  -22.5397   -7.9731   21.4223 C   0  0  0  0  0  0  0  0  0  0  0  0
  -19.2041  -21.5082   22.1298 C   0  0  0  0  0  0  0  0  0  0  0  0
  -21.0870   -6.7393   22.7970 C   0  0  0  0  0  0  0  0  0  0  0  0
  -19.4987   -6.6016   25.0863 C   0  0  0  0  0  0  0  0  0  0  0  0
  -21.3547   -5.7814   23.7749 C   0  0  0  0  0  0  0  0  0  0  0  0
  -24.6061  -11.5901   20.6841 C   0  0  0  0  0  0  0  0  0  0  0  0
  -25.1512  -13.7071   20.4465 C   0  0  0  0  0  0  0  0  0  0  0  0
  -22.7808  -13.3410   21.1506 C   0  0  0  0  0  0  0  0  0  0  0  0
  -18.3052  -26.1174   24.8521 C   0  0  0  0  0  0  0  0  0  0  0  0
  -22.3049  -19.9619   21.0809 C   0  0  0  0  0  0  0  0  0  0  0  0
  -17.5519  -24.3185   27.4442 C   0  0  0  0  0  0  0  0  0  0  0  0
  -17.2250  -21.2121   28.8190 C   0  0  0  0  0  0  0  0  0  0  0  0
  -30.5530  -15.0620   20.8066 C   0  0  0  0  0  0  0  0  0  0  0  0
  -17.5541  -30.9176   23.2864 C   0  0  0  0  0  0  0  0  0  0  0  0
  -16.6421  -24.4953   23.8729 C   0  0  0  0  0  0  0  0  0  0  0  0
  -18.6723  -23.1213   25.5267 C   0  0  0  0  0  0  0  0  0  0  0  0
  -17.6274  -30.2083   24.6361 C   0  0  0  0  0  0  0  0  0  0  0  0
  -29.6472  -12.5776   18.4225 C   0  0  0  0  0  0  0  0  0  0  0  0
  -18.8645  -29.3186   24.7052 C   0  0  0  0  0  0  0  0  0  0  0  0
  -28.2157  -12.2029   18.8105 C   0  0  0  0  0  0  0  0  0  0  0  0
  -30.5061  -12.8717   19.6504 C   0  0  0  0  0  0  0  0  0  0  0  0
  -28.5157  -13.5055   20.9581 C   0  0  0  0  0  0  0  0  0  0  0  0
  -18.8177  -28.2244   23.6319 C   0  0  1  0  0  0  0  0  0  0  0  0
  -17.2099  -25.1296   25.1388 C   0  0  1  0  0  0  0  0  0  0  0  0
  -27.5962  -13.2544   19.7507 C   0  0  2  0  0  0  0  0  0  0  0  0
  -30.8923  -19.6328   21.3898 C   0  0  0  0  0  0  0  0  0  0  0  0
  -16.6299  -20.0619   30.9685 C   0  0  0  0  0  0  0  0  0  0  0  0
  -20.2862  -25.0449   28.5870 C   0  0  0  0  0  0  0  0  0  0  0  0
  -20.0275  -23.1626   30.2173 C   0  0  0  0  0  0  0  0  0  0  0  0
  -18.4198  -25.0697   30.2515 C   0  0  0  0  0  0  0  0  0  0  0  0
  -14.9245  -19.8263   27.5756 C   0  0  0  0  0  0  0  0  0  0  0  0
  -23.7312  -19.7827   21.5561 C   0  0  0  0  0  0  0  0  0  0  0  0
  -21.3142  -20.4111   22.1373 C   0  0  0  0  0  0  0  0  0  1  0  0
  -30.4446  -17.2305   22.0086 C   0  0  0  0  0  0  0  0  0  0  0  0
  -30.1173  -18.3572   20.9987 C   0  0  1  0  0  0  0  0  0  0  0  0
  -18.3144  -23.3935   28.3617 C   0  0  1  0  0  0  0  0  0  0  0  0
  -16.1112  -20.5853   29.6382 C   0  0  2  0  0  0  0  0  0  0  0  0
  -19.2604  -24.1629   29.3264 C   0  0  0  0  0  0  0  0  0  0  0  0
  -25.8885  -11.5656   20.3113 N   0  0  0  0  0  0  0  0  0  0  0  0
  -26.1913  -12.8678   20.1745 N   0  0  0  0  0  0  0  0  0  0  0  0
  -17.7592  -24.1410   26.0689 N   0  0  0  0  0  0  0  0  0  0  0  0
  -29.8633  -13.8775   20.4995 N   0  0  0  0  0  0  0  0  0  0  0  0
  -26.0657  -18.5056   18.2121 N   0  0  0  0  0  0  0  0  0  0  0  0
  -25.2830  -15.0477   20.3584 N   0  0  0  0  0  0  0  0  0  0  0  0
  -21.8145  -12.3767   21.4681 N   0  0  0  0  0  0  0  0  0  0  0  0
  -24.5624  -19.3502   20.4619 N   0  0  0  0  0  0  0  0  0  0  0  0
  -17.9209  -27.1615   24.0326 N   0  0  0  0  0  0  0  0  0  0  0  0
  -17.3150  -22.5710   29.0347 N   0  0  0  0  0  0  0  0  0  0  0  0
  -29.8693  -15.9647   21.6117 N   0  0  0  0  0  0  0  0  0  0  0  0
  -15.4968  -19.4498   28.8938 N   0  3  0  0  0  0  0  0  0  0  0  0
  -22.4686  -14.5556   21.1791 O   0  0  0  0  0  0  0  0  0  0  0  0
  -19.4164  -25.9458   25.3396 O   0  0  0  0  0  0  0  0  0  0  0  0
  -21.9609  -19.7591   19.9172 O   0  0  0  0  0  0  0  0  0  0  0  0
  -16.7947  -25.1626   27.9296 O   0  0  0  0  0  0  0  0  0  0  0  0
  -17.9457  -20.5608   28.0660 O   0  0  0  0  0  0  0  0  0  0  0  0
  -31.6916  -15.2999   20.3895 O   0  0  0  0  0  0  0  0  0  0  0  0
  -21.8750   -6.8094   21.6604 O   0  0  0  0  0  0  0  0  0  0  0  0
  -20.0097  -20.5602   21.5783 O   0  0  0  0  0  0  0  0  0  1  0  0
  -18.7370   -6.5365   26.1861 F   0  0  0  0  0  0  0  0  0  0  0  0
  -22.3742   -4.9254   23.6209 F   0  0  0  0  0  0  0  0  0  0  0  0
  1  2  1  0  0  0  0
  1  5  2  0  0  0  0
  2  6  2  0  0  0  0
  3 10  2  0  0  0  0
  3 18  1  0  0  0  0
  4 11  1  0  0  0  0
  4 18  2  0  0  0  0
  5 20  1  0  0  0  0
  6 22  1  0  0  0  0
  7 12  2  0  0  0  0
  7 21  1  0  0  0  0
  8  9  2  0  0  0  0
  8 24  1  0  0  0  0
  9 25  1  0  0  0  0
 10 27  1  0  0  0  0
 11 27  2  0  0  0  0
 12 28  1  0  0  0  0
 13 14  2  0  0  0  0
 13 29  1  0  0  0  0
 14 30  1  0  0  0  0
 15 23  1  0  0  0  0
 15 28  2  0  0  0  0
 16 24  2  0  0  0  0
 16 26  1  0  0  0  0
 17 30  2  0  0  0  0
 17 31  1  0  0  0  0
 18 32  1  0  0  0  0
 19 32  1  0  0  0  0
 19 33  2  0  0  0  0
 19 34  1  0  0  0  0
 20 22  2  0  0  0  0
 20 40  1  0  0  0  0
 21 23  2  0  0  0  0
 21 41  1  0  0  0  0
 22 49  1  0  0  0  0
 23 42  1  0  0  0  0
 24 61  1  0  0  0  0
 25 26  2  0  0  0  0
 25 72  1  0  0  0  0
 26 69  1  0  0  0  0
 27 83  1  0  0  0  0
 28 84  1  0  0  0  0
 29 31  2  0  0  0  0
 29 83  1  0  0  0  0
 30 85  1  0  0  0  0
 31 86  1  0  0  0  0
 32 65  2  0  0  0  0
 33 66  1  0  0  0  0
 33 70  1  0  0  0  0
 34 71  1  0  0  0  0
 34 77  2  0  0  0  0
 35 50  1  0  0  0  0
 35 73  1  0  0  0  0
 35 78  2  0  0  0  0
 36 58  1  0  0  0  0
 36 59  1  0  0  0  0
 36 79  2  0  0  0  0
 37 62  1  0  0  0  0
 37 67  1  0  0  0  0
 37 80  2  0  0  0  0
 38 63  1  0  0  0  0
 38 74  1  0  0  0  0
 38 81  2  0  0  0  0
 39 68  1  0  0  0  0
 39 75  1  0  0  0  0
 39 82  2  0  0  0  0
 40 43  1  0  0  0  0
 41 50  1  0  0  0  0
 42 67  1  0  0  0  0
 43 45  1  0  0  0  0
 44 46  1  0  0  0  0
 44 47  1  0  0  0  0
 45 49  1  0  0  0  0
 46 51  1  0  0  0  0
 47 68  1  0  0  0  0
 48 51  1  0  0  0  0
 48 68  1  0  0  0  0
 49 73  1  0  0  0  0
 50 67  1  0  0  0  0
 51 66  1  0  0  0  0
 52 61  1  0  0  0  0
 53 63  1  0  0  0  0
 54 64  1  0  0  0  0
 55 64  1  0  0  0  0
 56 64  1  0  0  0  0
 57 76  1  0  0  0  0
 58 72  1  0  0  0  0
 59 84  1  0  0  0  0
 60 61  1  0  0  0  0
 60 75  1  0  0  0  0
 62 64  1  0  0  0  0
 62 74  1  0  0  0  0
 63 76  1  0  0  0  0
 65 66  1  0  0  0  0
M  CHG  1  76   1
M  ISO  4  39 100  59 101  75 100  84 101
M  END
> <Batch ID>
0098

> <Smiles>
CNC(C)C(=O)NC(C(=O)N1Cc2cc([101O:1][101CH2:1]C(=O)CNc3ccc(C(C)C[100NH:0][100C:0](=O)N4CCCC(n5nc(-c6ccc(Oc7ccc(F)cc7F)cc6)c(C(N)=O)c5N)C4)cc3N)ccc2CC1C(=O)NC1CCCc2ccccc21)C(C)(C)C

> <Shape>
0.225

> <Color>
0.190

> <Negative vol penalty>
0.000

$$$$

  -OEChem-04052300513D

 84 92  0     1  0  0  0  0  0999 V2000
  -25.8704  -11.2302   20.2028 C   0  0  0  0  0  0  0  0  0  0  0  0
  -25.6147  -12.4442   20.8321 C   0  0  0  0  0  0  0  0  0  0  0  0
  -22.9582  -25.7162   17.2239 C   0  0  0  0  0  0  0  0  0  0  0  0
  -24.9956  -26.4364   16.1434 C   0  0  0  0  0  0  0  0  0  0  0  0
  -27.1024  -11.0110   19.5878 C   0  0  0  0  0  0  0  0  0  0  0  0
  -26.5912  -13.4395   20.8478 C   0  0  0  0  0  0  0  0  0  0  0  0
  -24.7170  -18.0175   19.7645 C   0  0  0  0  0  0  0  0  0  0  0  0
  -23.3477  -28.1367   24.1475 C   0  0  0  0  0  0  0  0  0  0  0  0
  -22.3546  -25.5532   15.9771 C   0  0  0  0  0  0  0  0  0  0  0  0
  -24.3920  -26.2733   14.8966 C   0  0  0  0  0  0  0  0  0  0  0  0
  -24.0332  -18.6825   20.7813 C   0  0  0  0  0  0  0  0  0  0  0  0
  -23.3690  -26.7595   24.3670 C   0  0  0  0  0  0  0  0  0  0  0  0
  -20.3934  -24.6022   13.0678 C   0  0  0  0  0  0  0  0  0  0  0  0
  -19.6534  -23.4396   12.8525 C   0  0  0  0  0  0  0  0  0  0  0  0
  -26.0010  -20.0026   21.2331 C   0  0  0  0  0  0  0  0  0  0  0  0
  -21.3257  -27.8982   22.8468 C   0  0  0  0  0  0  0  0  0  0  0  0
  -21.6259  -22.1074   13.2667 C   0  0  0  0  0  0  0  0  0  0  0  0
  -24.2787  -26.1579   17.3071 C   0  0  0  0  0  0  0  0  0  0  0  0
  -25.6285  -25.3637   19.3209 C   0  0  0  0  0  0  0  0  0  0  0  0
  -28.0910  -12.0076   19.5877 C   0  0  0  0  0  0  0  0  0  0  0  0
  -26.0536  -18.3330   19.4811 C   0  0  0  0  0  0  0  0  0  0  0  0
  -27.8381  -13.2329   20.2335 C   0  0  0  0  0  0  0  0  0  0  0  0
  -26.6987  -19.3419   20.2105 C   0  0  0  0  0  0  0  0  0  0  0  0
  -22.3260  -28.7061   23.3874 C   0  0  0  0  0  0  0  0  0  0  0  0
  -21.3471  -26.5208   23.0662 C   0  0  0  0  0  0  0  0  0  0  0  0
  -23.0714  -25.8317   14.8134 C   0  0  0  0  0  0  0  0  0  0  0  0
  -24.6761  -19.6732   21.5178 C   0  0  0  0  0  0  0  0  0  0  0  0
  -22.3688  -25.9515   23.8264 C   0  0  0  0  0  0  0  0  0  0  0  0
  -21.7497  -24.5174   13.3824 C   0  0  0  0  0  0  0  0  0  0  0  0
  -20.2696  -22.1922   12.9520 C   0  0  0  0  0  0  0  0  0  0  0  0
  -22.3659  -23.2700   13.4819 C   0  0  0  0  0  0  0  0  0  0  0  0
  -24.9027  -26.3270   18.5948 C   0  0  0  0  0  0  0  0  0  0  0  0
  -26.0087  -26.0140   20.4694 C   0  0  0  0  0  0  0  0  0  0  0  0
  -25.9319  -24.0028   18.9870 C   0  0  0  0  0  0  0  0  0  0  0  0
  -28.8010  -16.7365   19.5621 C   0  0  0  0  0  0  0  0  0  0  0  0
  -29.9704  -19.4545   18.2326 C   0  0  0  0  0  0  0  0  0  0  0  0
  -29.6418  -22.8166   17.7481 C   0  0  0  0  0  0  0  0  0  0  0  0
  -23.4674  -30.9214   23.1027 C   0  0  0  0  0  0  0  0  0  0  0  0
  -29.4247  -11.7071   18.9508 C   0  0  0  0  0  0  0  0  0  0  0  0
  -26.7689  -17.6251   18.3633 C   0  0  0  0  0  0  0  0  0  0  0  0
  -28.1266  -19.7322   19.9322 C   0  0  0  0  0  0  0  0  0  0  0  0
  -30.2684  -12.9518   18.6878 C   0  0  0  0  0  0  0  0  0  0  0  0
  -27.0078  -30.3632   22.1823 C   0  0  0  0  0  0  0  0  0  0  0  0
  -30.2776  -13.8593   19.9138 C   0  0  0  0  0  0  0  0  0  0  0  0
  -26.9177  -29.2368   21.1545 C   0  0  0  0  0  0  0  0  0  0  0  0
  -25.7477  -31.2233   22.1920 C   0  0  0  0  0  0  0  0  0  0  0  0
  -24.4020  -29.3103   21.3729 C   0  0  0  0  0  0  0  0  0  0  0  0
  -28.8629  -14.3462   20.2503 C   0  0  1  0  0  0  0  0  0  0  0  0
  -28.2874  -17.6700   18.5026 C   0  0  1  0  0  0  0  0  0  0  0  0
  -25.6429  -28.4049   21.3719 C   0  0  1  0  0  0  0  0  0  0  0  0
  -20.6145  -31.0564   24.6971 C   0  0  0  0  0  0  0  0  0  0  0  0
  -30.1413  -25.0958   16.8246 C   0  0  0  0  0  0  0  0  0  0  0  0
  -32.0418  -19.5099   20.4723 C   0  0  0  0  0  0  0  0  0  0  0  0
  -32.5002  -21.9025   19.8945 C   0  0  0  0  0  0  0  0  0  0  0  0
  -32.9314  -20.1106   18.2134 C   0  0  0  0  0  0  0  0  0  0  0  0
  -27.9144  -22.3660   15.3875 C   0  0  0  0  0  0  0  0  0  0  0  0
  -23.1963  -22.4629   23.2730 C   0  0  0  0  0  0  0  0  0  0  0  0
  -21.0184  -30.8188   23.2560 C   0  0  0  0  0  0  0  0  0  0  0  0
  -24.3961  -21.6717   22.7761 C   0  0  0  0  0  0  0  0  0  1  0  0
  -23.5579  -23.9055   23.5899 C   0  0  0  0  0  0  0  0  0  0  0  0
  -30.5469  -20.7435   18.7665 C   0  0  1  0  0  0  0  0  0  0  0  0
  -29.7362  -23.6676   16.4946 C   0  0  2  0  0  0  0  0  0  0  0  0
  -31.9788  -20.5582   19.3435 C   0  0  0  0  0  0  0  0  0  0  0  0
  -24.8249  -27.4999   19.2290 N   0  0  0  0  0  0  0  0  0  0  0  0
  -25.5067  -27.2780   20.3656 N   0  0  0  0  0  0  0  0  0  0  0  0
  -28.7854  -19.0067   18.8335 N   0  0  0  0  0  0  0  0  0  0  0  0
  -24.5381  -30.4123   22.3394 N   0  0  0  0  0  0  0  0  0  0  0  0
  -20.3283  -25.7147   22.5132 N   0  0  0  0  0  0  0  0  0  0  0  0
  -26.7199  -25.6223   21.5478 N   0  0  0  0  0  0  0  0  0  0  0  0
  -25.4643  -23.4938   17.7677 N   0  0  0  0  0  0  0  0  0  0  0  0
  -28.4684  -15.4115   19.3537 N   0  0  0  0  0  0  0  0  0  0  0  0
  -30.4621  -21.7105   17.6775 N   0  0  0  0  0  0  0  0  0  0  0  0
  -22.3040  -30.1307   23.1616 N   0  0  0  0  0  0  0  0  0  0  0  0
  -28.4225  -23.7022   15.7917 N   0  3  0  0  0  0  0  0  0  0  0  0
  -26.5840  -23.2552   19.7547 O   0  0  0  0  0  0  0  0  0  0  0  0
  -29.4520  -17.1849   20.4984 O   0  0  0  0  0  0  0  0  0  0  0  0
  -30.5463  -18.8702   17.3114 O   0  0  0  0  0  0  0  0  0  0  0  0
  -28.9159  -23.1062   18.6967 O   0  0  0  0  0  0  0  0  0  0  0  0
  -23.5223  -32.0300   23.6490 O   0  0  0  0  0  0  0  0  0  0  0  0
  -22.4828  -25.6726   13.5966 O   0  0  0  0  0  0  0  0  0  0  0  0
  -24.0111  -20.3234   22.5113 O   0  0  0  0  0  0  0  0  0  1  0  0
  -22.4080  -24.6004   24.0534 O   0  0  0  0  0  0  0  0  0  0  0  0
  -19.5586  -21.0757   12.7468 F   0  0  0  0  0  0  0  0  0  0  0  0
  -23.6683  -23.1822   13.7851 F   0  0  0  0  0  0  0  0  0  0  0  0
  1  2  1  0  0  0  0
  1  5  2  0  0  0  0
  2  6  2  0  0  0  0
  3  9  2  0  0  0  0
  3 18  1  0  0  0  0
  4 10  1  0  0  0  0
  4 18  2  0  0  0  0
  5 20  1  0  0  0  0
  6 22  1  0  0  0  0
  7 11  2  0  0  0  0
  7 21  1  0  0  0  0
  8 12  2  0  0  0  0
  8 24  1  0  0  0  0
  9 26  1  0  0  0  0
 10 26  2  0  0  0  0
 11 27  1  0  0  0  0
 12 28  1  0  0  0  0
 13 14  2  0  0  0  0
 13 29  1  0  0  0  0
 14 30  1  0  0  0  0
 15 23  1  0  0  0  0
 15 27  2  0  0  0  0
 16 24  2  0  0  0  0
 16 25  1  0  0  0  0
 17 30  2  0  0  0  0
 17 31  1  0  0  0  0
 18 32  1  0  0  0  0
 19 32  1  0  0  0  0
 19 33  2  0  0  0  0
 19 34  1  0  0  0  0
 20 22  2  0  0  0  0
 20 39  1  0  0  0  0
 21 23  2  0  0  0  0
 21 40  1  0  0  0  0
 22 48  1  0  0  0  0
 23 41  1  0  0  0  0
 24 73  1  0  0  0  0
 25 28  2  0  0  0  0
 25 68  1  0  0  0  0
 26 80  1  0  0  0  0
 27 81  1  0  0  0  0
 28 82  1  0  0  0  0
 29 31  2  0  0  0  0
 29 80  1  0  0  0  0
 30 83  1  0  0  0  0
 31 84  1  0  0  0  0
 32 64  2  0  0  0  0
 33 65  1  0  0  0  0
 33 69  1  0  0  0  0
 34 70  1  0  0  0  0
 34 75  2  0  0  0  0
 35 49  1  0  0  0  0
 35 71  1  0  0  0  0
 35 76  2  0  0  0  0
 36 61  1  0  0  0  0
 36 66  1  0  0  0  0
 36 77  2  0  0  0  0
 37 62  1  0  0  0  0
 37 72  1  0  0  0  0
 37 78  2  0  0  0  0
 38 67  1  0  0  0  0
 38 73  1  0  0  0  0
 38 79  2  0  0  0  0
 39 42  1  0  0  0  0
 40 49  1  0  0  0  0
 41 66  1  0  0  0  0
 42 44  1  0  0  0  0
 43 45  1  0  0  0  0
 43 46  1  0  0  0  0
 44 48  1  0  0  0  0
 45 50  1  0  0  0  0
 46 67  1  0  0  0  0
 47 50  1  0  0  0  0
 47 67  1  0  0  0  0
 48 71  1  0  0  0  0
 49 66  1  0  0  0  0
 50 65  1  0  0  0  0
 51 58  1  0  0  0  0
 52 62  1  0  0  0  0
 53 63  1  0  0  0  0
 54 63  1  0  0  0  0
 55 63  1  0  0  0  0
 56 74  1  0  0  0  0
 57 59  1  0  0  0  0
 57 60  1  0  0  0  0
 58 73  1  0  0  0  0
 59 81  1  0  0  0  0
 60 82  1  0  0  0  0
 61 63  1  0  0  0  0
 61 72  1  0  0  0  0
 62 74  1  0  0  0  0
 64 65  1  0  0  0  0
M  CHG  1  74   1
M  ISO  4  38 100  59 101  73 100  81 101
M  END
> <Batch ID>
0098

> <Smiles>
CC[100N:0](c1ccc(OCC[101CH2:1][101O:1]c2ccc3c(c2)CN(C(=O)C(NC(=O)C(C)NC)C(C)(C)C)C(C(=O)NC2CCCc4ccccc42)C3)c(N)c1)[100C:0](=O)N1CCCC(n2nc(-c3ccc(Oc4ccc(F)cc4F)cc3)c(C(N)=O)c2N)C1

> <Shape>
0.207

> <Color>
0.065

> <Negative vol penalty>
0.000

$$$$

  -OEChem-04052300513D

 85 93  0     1  0  0  0  0  0999 V2000
  -33.7675  -19.1249   23.5049 C   0  0  0  0  0  0  0  0  0  0  0  0
  -32.7185  -19.6500   24.2527 C   0  0  0  0  0  0  0  0  0  0  0  0
  -29.4698  -26.7907   21.1257 C   0  0  0  0  0  0  0  0  0  0  0  0
  -27.6898  -25.2088   20.7176 C   0  0  0  0  0  0  0  0  0  0  0  0
  -33.5515  -18.7277   22.1860 C   0  0  0  0  0  0  0  0  0  0  0  0
  -31.4530  -19.7792   23.6816 C   0  0  0  0  0  0  0  0  0  0  0  0
  -24.5018  -19.4897   25.3886 C   0  0  0  0  0  0  0  0  0  0  0  0
  -18.2919  -28.1896   23.9168 C   0  0  0  0  0  0  0  0  0  0  0  0
  -19.4169  -28.8991   23.4966 C   0  0  0  0  0  0  0  0  0  0  0  0
  -30.2699  -25.7620   21.6230 C   0  0  0  0  0  0  0  0  0  0  0  0
  -28.4900  -24.1801   21.2147 C   0  0  0  0  0  0  0  0  0  0  0  0
  -23.3319  -20.2390   25.2718 C   0  0  0  0  0  0  0  0  0  0  0  0
  -32.9116  -23.4924   22.6647 C   0  0  0  0  0  0  0  0  0  0  0  0
  -34.2400  -23.4421   22.2422 C   0  0  0  0  0  0  0  0  0  0  0  0
  -23.0571  -19.4462   23.0101 C   0  0  0  0  0  0  0  0  0  0  0  0
  -19.8817  -27.1892   21.8542 C   0  0  0  0  0  0  0  0  0  0  0  0
  -33.5031  -23.2109   19.9530 C   0  0  0  0  0  0  0  0  0  0  0  0
  -28.1797  -26.5141   20.6731 C   0  0  0  0  0  0  0  0  0  0  0  0
  -27.2660  -28.0176   18.8259 C   0  0  0  0  0  0  0  0  0  0  0  0
  -32.2804  -18.8431   21.6016 C   0  0  0  0  0  0  0  0  0  0  0  0
  -24.9648  -18.7202   24.3116 C   0  0  0  0  0  0  0  0  0  0  0  0
  -31.2200  -19.3844   22.3533 C   0  0  0  0  0  0  0  0  0  0  0  0
  -24.2318  -18.6860   23.1167 C   0  0  0  0  0  0  0  0  0  0  0  0
  -17.9618  -26.9799   23.3058 C   0  0  0  0  0  0  0  0  0  0  0  0
  -20.2118  -28.3989   22.4652 C   0  0  0  0  0  0  0  0  0  0  0  0
  -29.7801  -24.4568   21.6674 C   0  0  0  0  0  0  0  0  0  0  0  0
  -22.6109  -20.2196   24.0815 C   0  0  0  0  0  0  0  0  0  0  0  0
  -31.8790  -23.4018   21.7314 C   0  0  0  0  0  0  0  0  0  0  0  0
  -34.5357  -23.3013   20.8864 C   0  0  0  0  0  0  0  0  0  0  0  0
  -32.1747  -23.2611   20.3755 C   0  0  0  0  0  0  0  0  0  0  0  0
  -18.7567  -26.4797   22.2745 C   0  0  0  0  0  0  0  0  0  0  0  0
  -27.3524  -27.5763   20.1599 C   0  0  0  0  0  0  0  0  0  0  0  0
  -26.3488  -29.0393   18.8610 C   0  0  0  0  0  0  0  0  0  0  0  0
  -27.9532  -27.5460   17.6593 C   0  0  0  0  0  0  0  0  0  0  0  0
  -27.5885  -18.7226   22.5172 C   0  0  0  0  0  0  0  0  0  0  0  0
  -26.2772  -16.0240   21.2841 C   0  0  0  0  0  0  0  0  0  0  0  0
  -23.4700  -14.1753   20.6936 C   0  0  0  0  0  0  0  0  0  0  0  0
  -21.8209  -30.3359   22.5382 C   0  0  0  0  0  0  0  0  0  0  0  0
  -32.1064  -18.4443   20.1575 C   0  0  0  0  0  0  0  0  0  0  0  0
  -26.2142  -17.8965   24.4627 C   0  0  0  0  0  0  0  0  0  0  0  0
  -24.6752  -17.8602   21.9377 C   0  0  0  0  0  0  0  0  0  0  0  0
  -30.6472  -18.2662   19.7463 C   0  0  0  0  0  0  0  0  0  0  0  0
  -24.6116  -32.4135   21.7818 C   0  0  0  0  0  0  0  0  0  0  0  0
  -29.8052  -19.4360   20.2458 C   0  0  0  0  0  0  0  0  0  0  0  0
  -25.6210  -31.4502   21.1531 C   0  0  0  0  0  0  0  0  0  0  0  0
  -23.8270  -31.7534   22.9142 C   0  0  0  0  0  0  0  0  0  0  0  0
  -24.1845  -29.5224   21.9323 C   0  0  0  0  0  0  0  0  0  0  0  0
  -29.8271  -19.5173   21.7769 C   0  0  1  0  0  0  0  0  0  0  0  0
  -26.8688  -17.5535   23.1280 C   0  0  1  0  0  0  0  0  0  0  0  0
  -24.9534  -30.1226   20.7439 C   0  0  2  0  0  0  0  0  0  0  0  0
  -16.7503  -26.2455   23.7792 C   0  0  0  0  0  0  0  0  0  0  0  0
  -22.7098  -12.0322   19.6323 C   0  0  0  0  0  0  0  0  0  0  0  0
  -26.5919  -17.2827   18.5226 C   0  0  0  0  0  0  0  0  0  0  0  0
  -24.9940  -15.5709   17.6369 C   0  0  0  0  0  0  0  0  0  0  0  0
  -27.1651  -14.8509   18.6320 C   0  0  0  0  0  0  0  0  0  0  0  0
  -22.4179  -13.1424   23.2597 C   0  0  0  0  0  0  0  0  0  0  0  0
  -20.0528  -22.8297   24.4353 C   0  0  0  0  0  0  0  0  0  0  0  0
  -19.8886  -23.2056   22.9692 C   0  0  0  0  0  0  0  0  0  0  0  0
  -21.3866  -22.1531   24.7284 C   0  0  0  0  0  0  0  0  0  1  0  0
  -25.3346  -15.7171   20.1456 C   0  0  1  0  0  0  0  0  0  0  0  0
  -23.1667  -12.7048   20.9174 C   0  0  2  0  0  0  0  0  0  0  0  0
  -26.0138  -15.8726   18.7556 C   0  0  0  0  0  0  0  0  0  0  0  0
  -26.5540  -28.2618   20.9825 N   0  0  0  0  0  0  0  0  0  0  0  0
  -25.9571  -29.1441   20.1632 N   0  0  0  0  0  0  0  0  0  0  0  0
  -25.9065  -17.0770   22.1325 N   0  0  0  0  0  0  0  0  0  0  0  0
  -23.2191  -30.5036   22.4520 N   0  0  0  0  0  0  0  0  0  0  0  0
  -25.8472  -29.8494   17.9046 N   0  0  0  0  0  0  0  0  0  0  0  0
  -28.8618  -26.4882   17.8009 N   0  0  0  0  0  0  0  0  0  0  0  0
  -21.3540  -29.1206   22.0384 N   0  0  0  0  0  0  0  0  0  0  0  0
  -28.9453  -18.5222   22.3486 N   0  0  0  0  0  0  0  0  0  0  0  0
  -24.8020  -14.3839   20.4046 N   0  0  0  0  0  0  0  0  0  0  0  0
  -18.5695  -23.8350   22.7439 N   0  0  0  0  0  0  0  0  0  0  0  0
  -22.0924  -12.5470   21.9381 N   0  3  0  0  0  0  0  0  0  0  0  0
  -27.7794  -28.0586   16.5276 O   0  0  0  0  0  0  0  0  0  0  0  0
  -26.9592  -19.7310   22.2195 O   0  0  0  0  0  0  0  0  0  0  0  0
  -27.3010  -15.3494   21.4202 O   0  0  0  0  0  0  0  0  0  0  0  0
  -22.6105  -15.0509   20.7641 O   0  0  0  0  0  0  0  0  0  0  0  0
  -21.0884  -31.2174   22.9949 O   0  0  0  0  0  0  0  0  0  0  0  0
  -16.9691  -24.9915   21.0912 O   0  0  0  0  0  0  0  0  0  0  0  0
  -19.3932  -24.7205   20.4791 O   0  0  0  0  0  0  0  0  0  0  0  0
  -30.5607  -23.4527   22.1523 O   0  0  0  0  0  0  0  0  0  0  0  0
  -21.4691  -20.9506   23.9645 O   0  0  0  0  0  0  0  0  0  1  0  0
  -35.8114  -23.2546   20.4806 F   0  0  0  0  0  0  0  0  0  0  0  0
  -31.1869  -23.1748   19.4740 F   0  0  0  0  0  0  0  0  0  0  0  0
  -18.3666  -24.9509   21.4774 S   0  0  0  0  0  0  0  0  0  0  0  0
  1  2  1  0  0  0  0
  1  5  2  0  0  0  0
  2  6  2  0  0  0  0
  3 10  2  0  0  0  0
  3 18  1  0  0  0  0
  4 11  1  0  0  0  0
  4 18  2  0  0  0  0
  5 20  1  0  0  0  0
  6 22  1  0  0  0  0
  7 12  2  0  0  0  0
  7 21  1  0  0  0  0
  8  9  2  0  0  0  0
  8 24  1  0  0  0  0
  9 25  1  0  0  0  0
 10 26  1  0  0  0  0
 11 26  2  0  0  0  0
 12 27  1  0  0  0  0
 13 14  2  0  0  0  0
 13 28  1  0  0  0  0
 14 29  1  0  0  0  0
 15 23  1  0  0  0  0
 15 27  2  0  0  0  0
 16 25  2  0  0  0  0
 16 31  1  0  0  0  0
 17 29  2  0  0  0  0
 17 30  1  0  0  0  0
 18 32  1  0  0  0  0
 19 32  1  0  0  0  0
 19 33  2  0  0  0  0
 19 34  1  0  0  0  0
 20 22  2  0  0  0  0
 20 39  1  0  0  0  0
 21 23  2  0  0  0  0
 21 40  1  0  0  0  0
 22 48  1  0  0  0  0
 23 41  1  0  0  0  0
 24 31  2  0  0  0  0
 24 51  1  0  0  0  0
 25 69  1  0  0  0  0
 26 81  1  0  0  0  0
 27 82  1  0  0  0  0
 28 30  2  0  0  0  0
 28 81  1  0  0  0  0
 29 83  1  0  0  0  0
 30 84  1  0  0  0  0
 31 85  1  0  0  0  0
 32 63  2  0  0  0  0
 33 64  1  0  0  0  0
 33 67  1  0  0  0  0
 34 68  1  0  0  0  0
 34 74  2  0  0  0  0
 35 49  1  0  0  0  0
 35 70  1  0  0  0  0
 35 75  2  0  0  0  0
 36 60  1  0  0  0  0
 36 65  1  0  0  0  0
 36 76  2  0  0  0  0
 37 61  1  0  0  0  0
 37 71  1  0  0  0  0
 37 77  2  0  0  0  0
 38 66  1  0  0  0  0
 38 69  1  0  0  0  0
 38 78  2  0  0  0  0
 39 42  1  0  0  0  0
 40 49  1  0  0  0  0
 41 65  1  0  0  0  0
 42 44  1  0  0  0  0
 43 45  1  0  0  0  0
 43 46  1  0  0  0  0
 44 48  1  0  0  0  0
 45 50  1  0  0  0  0
 46 66  1  0  0  0  0
 47 50  1  0  0  0  0
 47 66  1  0  0  0  0
 48 70  1  0  0  0  0
 49 65  1  0  0  0  0
 50 64  1  0  0  0  0
 52 61  1  0  0  0  0
 53 62  1  0  0  0  0
 54 62  1  0  0  0  0
 55 62  1  0  0  0  0
 56 73  1  0  0  0  0
 57 58  1  0  0  0  0
 57 59  1  0  0  0  0
 58 72  1  0  0  0  0
 59 82  1  0  0  0  0
 60 62  1  0  0  0  0
 60 71  1  0  0  0  0
 61 73  1  0  0  0  0
 63 64  1  0  0  0  0
 72 85  1  0  0  0  0
 79 85  2  0  0  0  0
 80 85  2  0  0  0  0
M  CHG  1  73   1
M  ISO  4  38 100  59 101  69 100  82 101
M  END
> <Batch ID>
0098

> <Smiles>
CNC(C)C(=O)NC(C(=O)N1Cc2cc([101O:1][101CH2:1]CCNS(=O)(=O)c3cc([100NH:0][100C:0](=O)N4CCCC(n5nc(-c6ccc(Oc7ccc(F)cc7F)cc6)c(C(N)=O)c5N)C4)ccc3C)ccc2CC1C(=O)NC1CCCc2ccccc21)C(C)(C)C

> <Shape>
0.198

> <Color>
0.087

> <Negative vol penalty>
0.000

$$$$

  -OEChem-04052300513D

 86 94  0     1  0  0  0  0  0999 V2000
  -27.0123  -35.6067   24.0279 C   0  0  0  0  0  0  0  0  0  0  0  0
  -27.6755  -34.3850   23.9742 C   0  0  0  0  0  0  0  0  0  0  0  0
  -22.9819  -10.0000   22.0006 C   0  0  0  0  0  0  0  0  0  0  0  0
  -23.6850   -9.2202   19.8247 C   0  0  0  0  0  0  0  0  0  0  0  0
  -25.6345  -35.6604   23.8214 C   0  0  0  0  0  0  0  0  0  0  0  0
  -26.9609  -33.2159   23.7150 C   0  0  0  0  0  0  0  0  0  0  0  0
  -28.9026  -28.3364   20.5644 C   0  0  0  0  0  0  0  0  0  0  0  0
  -22.3006   -8.8011   22.2101 C   0  0  0  0  0  0  0  0  0  0  0  0
  -23.0037   -8.0212   20.0342 C   0  0  0  0  0  0  0  0  0  0  0  0
  -29.4259  -27.1081   20.9660 C   0  0  0  0  0  0  0  0  0  0  0  0
  -20.6760   -5.8015   23.4666 C   0  0  0  0  0  0  0  0  0  0  0  0
  -20.8222   -5.1808   24.7071 C   0  0  0  0  0  0  0  0  0  0  0  0
  -27.2315  -26.1221   20.7886 C   0  0  0  0  0  0  0  0  0  0  0  0
  -29.7357  -18.8276   18.8301 C   0  0  0  0  0  0  0  0  0  0  0  0
  -28.4843  -20.6566   17.8678 C   0  0  0  0  0  0  0  0  0  0  0  0
  -23.2036   -5.0059   24.3389 C   0  0  0  0  0  0  0  0  0  0  0  0
  -23.6741  -10.2096   20.8078 C   0  0  0  0  0  0  0  0  0  0  0  0
  -25.7160  -11.7347   20.9201 C   0  0  0  0  0  0  0  0  0  0  0  0
  -24.9042  -34.4927   23.5500 C   0  0  0  0  0  0  0  0  0  0  0  0
  -27.5356  -28.4696   20.2820 C   0  0  0  0  0  0  0  0  0  0  0  0
  -25.5718  -33.2538   23.5060 C   0  0  0  0  0  0  0  0  0  0  0  0
  -26.6938  -27.3525   20.3812 C   0  0  0  0  0  0  0  0  0  0  0  0
  -29.1451  -17.9468   17.9240 C   0  0  0  0  0  0  0  0  0  0  0  0
  -28.2241  -18.4208   16.9898 C   0  0  0  0  0  0  0  0  0  0  0  0
  -29.4052  -20.1825   18.8020 C   0  0  0  0  0  0  0  0  0  0  0  0
  -22.3115   -7.8117   21.2270 C   0  0  0  0  0  0  0  0  0  0  0  0
  -28.5898  -26.0014   21.0809 C   0  0  0  0  0  0  0  0  0  0  0  0
  -21.7936   -6.0244   22.6622 C   0  0  0  0  0  0  0  0  0  0  0  0
  -27.8937  -19.7758   16.9617 C   0  0  0  0  0  0  0  0  0  0  0  0
  -22.0860   -4.7829   25.1432 C   0  0  0  0  0  0  0  0  0  0  0  0
  -23.0574   -5.6266   23.0983 C   0  0  0  0  0  0  0  0  0  0  0  0
  -24.3777  -11.4481   20.5906 C   0  0  0  0  0  0  0  0  0  0  0  0
  -25.8993  -13.0335   20.5129 C   0  0  0  0  0  0  0  0  0  0  0  0
  -26.7050  -10.9012   21.5388 C   0  0  0  0  0  0  0  0  0  0  0  0
  -25.1491  -30.1785   21.5019 C   0  0  0  0  0  0  0  0  0  0  0  0
  -23.4988  -28.9377   19.0000 C   0  0  0  0  0  0  0  0  0  0  0  0
  -29.7927  -22.4478   19.8327 C   0  0  0  0  0  0  0  0  0  0  0  0
  -23.1777  -26.4443   16.6921 C   0  0  0  0  0  0  0  0  0  0  0  0
  -25.2469  -17.0869   16.7327 C   0  0  0  0  0  0  0  0  0  0  0  0
  -23.4090  -34.5945   23.3804 C   0  0  0  0  0  0  0  0  0  0  0  0
  -26.9915  -29.7951   19.8242 C   0  0  0  0  0  0  0  0  0  0  0  0
  -25.2227  -27.4380   20.0699 C   0  0  0  0  0  0  0  0  0  0  0  0
  -22.7830  -33.3581   22.7402 C   0  0  0  0  0  0  0  0  0  0  0  0
  -22.5549  -16.5096   18.9902 C   0  0  0  0  0  0  0  0  0  0  0  0
  -23.3189  -32.0888   23.3948 C   0  0  0  0  0  0  0  0  0  0  0  0
  -22.8964  -15.1627   19.6299 C   0  0  0  0  0  0  0  0  0  0  0  0
  -22.9588  -16.5539   17.5182 C   0  0  0  0  0  0  0  0  0  0  0  0
  -24.7085  -14.8589   17.8913 C   0  0  0  0  0  0  0  0  0  0  0  0
  -24.8354  -31.9670   23.2029 C   0  0  1  0  0  0  0  0  0  0  0  0
  -25.4909  -29.9381   20.0586 C   0  0  1  0  0  0  0  0  0  0  0  0
  -24.3708  -14.7859   19.3903 C   0  0  2  0  0  0  0  0  0  0  0  0
  -29.5154  -16.5006   17.9745 C   0  0  0  0  0  0  0  0  0  0  0  0
  -21.7085  -25.6840   14.8051 C   0  0  0  0  0  0  0  0  0  0  0  0
  -21.4158  -27.9771   21.0121 C   0  0  0  0  0  0  0  0  0  0  0  0
  -20.5125  -26.4523   19.2437 C   0  0  0  0  0  0  0  0  0  0  0  0
  -20.4677  -28.9226   18.8999 C   0  0  0  0  0  0  0  0  0  0  0  0
  -25.3950  -26.6229   14.7400 C   0  0  0  0  0  0  0  0  0  0  0  0
  -26.7185  -21.6551   16.0999 C   0  0  0  0  0  0  0  0  0  0  0  0
  -27.5895  -17.4815   16.0146 C   0  0  0  0  0  0  0  0  0  0  0  0
  -30.6423  -23.0291   20.9572 C   0  0  0  0  0  0  0  0  0  0  0  0
  -30.4565  -24.5287   21.1324 C   0  0  0  0  0  0  0  0  0  1  0  0
  -22.6736  -27.6937   18.7752 C   0  0  1  0  0  0  0  0  0  0  0  0
  -22.9426  -26.4836   15.1929 C   0  0  2  0  0  0  0  0  0  0  0  0
  -21.2947  -27.7600   19.4905 C   0  0  0  0  0  0  0  0  0  0  0  0
  -23.7548  -12.4819   20.0183 N   0  0  0  0  0  0  0  0  0  0  0  0
  -24.7060  -13.4307   19.9851 N   0  0  0  0  0  0  0  0  0  0  0  0
  -24.7372  -28.7572   19.6323 N   0  0  0  0  0  0  0  0  0  0  0  0
  -24.3685  -16.1880   17.3599 N   0  0  0  0  0  0  0  0  0  0  0  0
  -26.9632  -13.8633   20.5585 N   0  0  0  0  0  0  0  0  0  0  0  0
  -26.3492   -9.5928   21.8936 N   0  0  0  0  0  0  0  0  0  0  0  0
  -30.0049  -21.0763   19.7209 N   0  0  0  0  0  0  0  0  0  0  0  0
  -25.1404  -31.5122   21.8633 N   0  0  0  0  0  0  0  0  0  0  0  0
  -22.5889  -27.5158   17.3296 N   0  0  0  0  0  0  0  0  0  0  0  0
  -26.5667  -16.6648   16.6291 N   0  0  0  0  0  0  0  0  0  0  0  0
  -24.1160  -25.9172   14.4695 N   0  3  0  0  0  0  0  0  0  0  0  0
  -27.8650  -11.3101   21.7852 O   0  0  0  0  0  0  0  0  0  0  0  0
  -24.9095  -29.2247   22.2330 O   0  0  0  0  0  0  0  0  0  0  0  0
  -23.0640  -30.0284   18.6219 O   0  0  0  0  0  0  0  0  0  0  0  0
  -29.0443  -23.1429   19.1537 O   0  0  0  0  0  0  0  0  0  0  0  0
  -23.8163  -25.5503   17.2430 O   0  0  0  0  0  0  0  0  0  0  0  0
  -24.8832  -18.1865   16.3019 O   0  0  0  0  0  0  0  0  0  0  0  0
  -21.6469   -6.6415   21.4312 O   0  0  0  0  0  0  0  0  0  0  0  0
  -26.9963  -20.2570   16.0564 O   0  0  0  0  0  0  0  0  0  0  0  0
  -29.0979  -24.8015   21.4733 O   0  0  0  0  0  0  0  0  0  1  0  0
  -22.2265   -4.1882   26.3352 F   0  0  0  0  0  0  0  0  0  0  0  0
  -24.1349   -5.8391   22.3305 F   0  0  0  0  0  0  0  0  0  0  0  0
  1  2  1  0  0  0  0
  1  5  2  0  0  0  0
  2  6  2  0  0  0  0
  3  8  2  0  0  0  0
  3 17  1  0  0  0  0
  4  9  1  0  0  0  0
  4 17  2  0  0  0  0
  5 19  1  0  0  0  0
  6 21  1  0  0  0  0
  7 10  2  0  0  0  0
  7 20  1  0  0  0  0
  8 26  1  0  0  0  0
  9 26  2  0  0  0  0
 10 27  1  0  0  0  0
 11 12  2  0  0  0  0
 11 28  1  0  0  0  0
 12 30  1  0  0  0  0
 13 22  1  0  0  0  0
 13 27  2  0  0  0  0
 14 23  2  0  0  0  0
 14 25  1  0  0  0  0
 15 25  2  0  0  0  0
 15 29  1  0  0  0  0
 16 30  2  0  0  0  0
 16 31  1  0  0  0  0
 17 32  1  0  0  0  0
 18 32  1  0  0  0  0
 18 33  2  0  0  0  0
 18 34  1  0  0  0  0
 19 21  2  0  0  0  0
 19 40  1  0  0  0  0
 20 22  2  0  0  0  0
 20 41  1  0  0  0  0
 21 49  1  0  0  0  0
 22 42  1  0  0  0  0
 23 24  1  0  0  0  0
 23 52  1  0  0  0  0
 24 29  2  0  0  0  0
 24 59  1  0  0  0  0
 25 71  1  0  0  0  0
 26 82  1  0  0  0  0
 27 84  1  0  0  0  0
 28 31  2  0  0  0  0
 28 82  1  0  0  0  0
 29 83  1  0  0  0  0
 30 85  1  0  0  0  0
 31 86  1  0  0  0  0
 32 65  2  0  0  0  0
 33 66  1  0  0  0  0
 33 69  1  0  0  0  0
 34 70  1  0  0  0  0
 34 76  2  0  0  0  0
 35 50  1  0  0  0  0
 35 72  1  0  0  0  0
 35 77  2  0  0  0  0
 36 62  1  0  0  0  0
 36 67  1  0  0  0  0
 36 78  2  0  0  0  0
 37 60  1  0  0  0  0
 37 71  1  0  0  0  0
 37 79  2  0  0  0  0
 38 63  1  0  0  0  0
 38 73  1  0  0  0  0
 38 80  2  0  0  0  0
 39 68  1  0  0  0  0
 39 74  1  0  0  0  0
 39 81  2  0  0  0  0
 40 43  1  0  0  0  0
 41 50  1  0  0  0  0
 42 67  1  0  0  0  0
 43 45  1  0  0  0  0
 44 46  1  0  0  0  0
 44 47  1  0  0  0  0
 45 49  1  0  0  0  0
 46 51  1  0  0  0  0
 47 68  1  0  0  0  0
 48 51  1  0  0  0  0
 48 68  1  0  0  0  0
 49 72  1  0  0  0  0
 50 67  1  0  0  0  0
 51 66  1  0  0  0  0
 53 63  1  0  0  0  0
 54 64  1  0  0  0  0
 55 64  1  0  0  0  0
 56 64  1  0  0  0  0
 57 75  1  0  0  0  0
 58 83  1  0  0  0  0
 59 74  1  0  0  0  0
 60 61  1  0  0  0  0
 61 84  1  0  0  0  0
 62 64  1  0  0  0  0
 62 73  1  0  0  0  0
 63 75  1  0  0  0  0
 65 66  1  0  0  0  0
M  CHG  1  75   1
M  ISO  4  39 100  61 101  74 100  84 101
M  END
> <Batch ID>
0098

> <Smiles>
CNC(C)C(=O)NC(C(=O)N1Cc2cc([101O:1][101CH2:1]CC(=O)Nc3cc(C)c(C[100NH:0][100C:0](=O)N4CCCC(n5nc(-c6ccc(Oc7ccc(F)cc7F)cc6)c(C(N)=O)c5N)C4)c(OC)c3)ccc2CC1C(=O)NC1CCCc2ccccc21)C(C)(C)C

> <Shape>
0.272

> <Color>
0.101

> <Negative vol penalty>
0.000

$$$$

  -OEChem-04052300513D

 82 90  0     1  0  0  0  0  0999 V2000
  -19.3703  -31.5287   21.8495 C   0  0  0  0  0  0  0  0  0  0  0  0
  -20.7157  -31.2131   22.0094 C   0  0  0  0  0  0  0  0  0  0  0  0
  -29.2589  -24.5030   16.9305 C   0  0  0  0  0  0  0  0  0  0  0  0
  -26.3242  -13.8440   21.7548 C   0  0  0  0  0  0  0  0  0  0  0  0
  -25.2435  -15.1961   20.0693 C   0  0  0  0  0  0  0  0  0  0  0  0
  -18.4016  -30.5349   21.9834 C   0  0  0  0  0  0  0  0  0  0  0  0
  -21.0932  -29.9036   22.3045 C   0  0  0  0  0  0  0  0  0  0  0  0
  -25.0379  -28.3481   19.5360 C   0  0  0  0  0  0  0  0  0  0  0  0
  -29.9490  -23.4961   17.6055 C   0  0  0  0  0  0  0  0  0  0  0  0
  -29.4819  -25.8407   17.2566 C   0  0  0  0  0  0  0  0  0  0  0  0
  -25.1882  -13.0389   21.8374 C   0  0  0  0  0  0  0  0  0  0  0  0
  -24.1074  -14.3910   20.1519 C   0  0  0  0  0  0  0  0  0  0  0  0
  -26.3017  -28.7918   19.9227 C   0  0  0  0  0  0  0  0  0  0  0  0
  -22.7075  -10.4110   22.2319 C   0  0  0  0  0  0  0  0  0  0  0  0
  -22.8927   -9.0287   22.2575 C   0  0  0  0  0  0  0  0  0  0  0  0
  -26.7046  -26.6771   21.0111 C   0  0  0  0  0  0  0  0  0  0  0  0
  -31.0849  -25.1648   18.9331 C   0  0  0  0  0  0  0  0  0  0  0  0
  -23.9732   -9.1334   20.0991 C   0  0  0  0  0  0  0  0  0  0  0  0
  -26.3519  -14.9226   20.8708 C   0  0  0  0  0  0  0  0  0  0  0  0
  -28.6321  -15.5789   19.9340 C   0  0  0  0  0  0  0  0  0  0  0  0
  -18.7680  -29.2106   22.2708 C   0  0  0  0  0  0  0  0  0  0  0  0
  -24.5929  -27.0673   19.8938 C   0  0  0  0  0  0  0  0  0  0  0  0
  -20.1284  -28.8914   22.4438 C   0  0  0  0  0  0  0  0  0  0  0  0
  -25.4357  -26.2185   20.6255 C   0  0  0  0  0  0  0  0  0  0  0  0
  -30.8619  -23.8270   18.6068 C   0  0  0  0  0  0  0  0  0  0  0  0
  -24.0798  -13.3123   21.0360 C   0  0  0  0  0  0  0  0  0  0  0  0
  -27.1342  -27.9574   20.6629 C   0  0  0  0  0  0  0  0  0  0  0  0
  -30.3949  -26.1716   18.2579 C   0  0  0  0  0  0  0  0  0  0  0  0
  -23.1551  -11.1545   21.1398 C   0  0  0  0  0  0  0  0  0  0  0  0
  -23.5256   -8.3899   21.1912 C   0  0  0  0  0  0  0  0  0  0  0  0
  -23.7879  -10.5157   20.0734 C   0  0  0  0  0  0  0  0  0  0  0  0
  -27.5249  -15.7550   20.7854 C   0  0  0  0  0  0  0  0  0  0  0  0
  -29.4679  -16.6259   20.2367 C   0  0  0  0  0  0  0  0  0  0  0  0
  -28.8825  -14.5601   18.9567 C   0  0  0  0  0  0  0  0  0  0  0  0
  -22.1939  -25.9338   21.6441 C   0  0  0  0  0  0  0  0  0  0  0  0
  -23.2612  -23.0729   20.5494 C   0  0  0  0  0  0  0  0  0  0  0  0
  -25.8478  -21.2320   19.2974 C   0  0  0  0  0  0  0  0  0  0  0  0
  -30.2942  -22.0386   21.3162 C   0  0  0  0  0  0  0  0  0  0  0  0
  -17.6820  -28.1801   22.4530 C   0  0  0  0  0  0  0  0  0  0  0  0
  -23.2374  -26.5937   19.4460 C   0  0  0  0  0  0  0  0  0  0  0  0
  -25.0133  -24.8270   21.0176 C   0  0  0  0  0  0  0  0  0  0  0  0
  -18.1911  -26.7421   22.3964 C   0  0  0  0  0  0  0  0  0  0  0  0
  -29.3259  -19.9589   24.0390 C   0  0  0  0  0  0  0  0  0  0  0  0
  -19.4430  -26.5849   23.2537 C   0  0  0  0  0  0  0  0  0  0  0  0
  -28.8568  -18.6684   23.3648 C   0  0  0  0  0  0  0  0  0  0  0  0
  -28.9529  -21.1919   23.2190 C   0  0  0  0  0  0  0  0  0  0  0  0
  -28.9309  -19.8691   21.1396 C   0  0  0  0  0  0  0  0  0  0  0  0
  -20.5791  -27.4774   22.7399 C   0  0  1  0  0  0  0  0  0  0  0  0
  -22.6863  -25.4603   20.3058 C   0  0  1  0  0  0  0  0  0  0  0  0
  -29.3333  -18.5949   21.9017 C   0  0  2  0  0  0  0  0  0  0  0  0
  -26.4269  -18.9125   18.5346 C   0  0  0  0  0  0  0  0  0  0  0  0
  -23.4044  -22.1554   23.4558 C   0  0  0  0  0  0  0  0  0  0  0  0
  -24.8476  -20.2502   22.7105 C   0  0  0  0  0  0  0  0  0  0  0  0
  -22.5088  -20.4460   21.8652 C   0  0  0  0  0  0  0  0  0  0  0  0
  -26.4817  -22.1651   16.5612 C   0  0  0  0  0  0  0  0  0  0  0  0
  -31.5992  -22.7504   19.3289 C   0  0  0  0  0  0  0  0  0  0  0  0
  -30.5278  -29.1670   20.3003 C   0  0  0  0  0  0  0  0  0  0  0  0
  -29.0198  -29.3262   20.1867 C   0  0  0  0  0  0  0  0  0  1  0  0
  -30.9821  -27.7660   19.9219 C   0  0  0  0  0  0  0  0  0  0  0  0
  -24.2691  -22.0547   21.0252 C   0  0  1  0  0  0  0  0  0  0  0  0
  -25.9305  -20.2867   18.1125 C   0  0  2  0  0  0  0  0  0  0  0  0
  -23.7650  -21.2535   22.2586 C   0  0  0  0  0  0  0  0  0  0  0  0
  -27.6437  -16.8292   21.5703 N   0  0  0  0  0  0  0  0  0  0  0  0
  -28.8354  -17.3375   21.2133 N   0  0  0  0  0  0  0  0  0  0  0  0
  -23.6763  -24.4121   20.5616 N   0  0  0  0  0  0  0  0  0  0  0  0
  -29.4352  -21.0596   21.8421 N   0  0  0  0  0  0  0  0  0  0  0  0
  -30.6750  -16.9980   19.7602 N   0  0  0  0  0  0  0  0  0  0  0  0
  -27.9188  -13.5593   18.7729 N   0  0  0  0  0  0  0  0  0  0  0  0
  -21.1964  -26.8873   21.5715 N   0  0  0  0  0  0  0  0  0  0  0  0
  -24.5922  -21.2282   19.8672 N   0  0  0  0  0  0  0  0  0  0  0  0
  -30.7094  -21.8336   20.0061 N   0  0  0  0  0  0  0  0  0  0  0  0
  -26.8624  -20.8271   17.0827 N   0  3  0  0  0  0  0  0  0  0  0  0
  -29.9373  -14.5287   18.2786 O   0  0  0  0  0  0  0  0  0  0  0  0
  -22.6817  -25.4674   22.6670 O   0  0  0  0  0  0  0  0  0  0  0  0
  -22.1493  -22.6934   20.1737 O   0  0  0  0  0  0  0  0  0  0  0  0
  -26.8027  -21.9037   19.6815 O   0  0  0  0  0  0  0  0  0  0  0  0
  -30.6681  -23.0197   21.9679 O   0  0  0  0  0  0  0  0  0  0  0  0
  -22.9712  -12.5268   21.1161 O   0  0  0  0  0  0  0  0  0  0  0  0
  -28.3680  -28.3883   21.0422 O   0  0  0  0  0  0  0  0  0  1  0  0
  -30.6144  -27.4862   18.5780 O   0  0  0  0  0  0  0  0  0  0  0  0
  -23.7047   -7.0628   21.2167 F   0  0  0  0  0  0  0  0  0  0  0  0
  -24.2211  -11.2248   19.0221 F   0  0  0  0  0  0  0  0  0  0  0  0
  1  2  1  0  0  0  0
  1  6  2  0  0  0  0
  2  7  2  0  0  0  0
  3  9  1  0  0  0  0
  3 10  2  0  0  0  0
  4 11  2  0  0  0  0
  4 19  1  0  0  0  0
  5 12  1  0  0  0  0
  5 19  2  0  0  0  0
  6 21  1  0  0  0  0
  7 23  1  0  0  0  0
  8 13  2  0  0  0  0
  8 22  1  0  0  0  0
  9 25  2  0  0  0  0
 10 28  1  0  0  0  0
 11 26  1  0  0  0  0
 12 26  2  0  0  0  0
 13 27  1  0  0  0  0
 14 15  2  0  0  0  0
 14 29  1  0  0  0  0
 15 30  1  0  0  0  0
 16 24  1  0  0  0  0
 16 27  2  0  0  0  0
 17 25  1  0  0  0  0
 17 28  2  0  0  0  0
 18 30  2  0  0  0  0
 18 31  1  0  0  0  0
 19 32  1  0  0  0  0
 20 32  1  0  0  0  0
 20 33  2  0  0  0  0
 20 34  1  0  0  0  0
 21 23  2  0  0  0  0
 21 39  1  0  0  0  0
 22 24  2  0  0  0  0
 22 40  1  0  0  0  0
 23 48  1  0  0  0  0
 24 41  1  0  0  0  0
 25 56  1  0  0  0  0
 26 78  1  0  0  0  0
 27 79  1  0  0  0  0
 28 80  1  0  0  0  0
 29 31  2  0  0  0  0
 29 78  1  0  0  0  0
 30 81  1  0  0  0  0
 31 82  1  0  0  0  0
 32 63  2  0  0  0  0
 33 64  1  0  0  0  0
 33 67  1  0  0  0  0
 34 68  1  0  0  0  0
 34 73  2  0  0  0  0
 35 49  1  0  0  0  0
 35 69  1  0  0  0  0
 35 74  2  0  0  0  0
 36 60  1  0  0  0  0
 36 65  1  0  0  0  0
 36 75  2  0  0  0  0
 37 61  1  0  0  0  0
 37 70  1  0  0  0  0
 37 76  2  0  0  0  0
 38 66  1  0  0  0  0
 38 71  1  0  0  0  0
 38 77  2  0  0  0  0
 39 42  1  0  0  0  0
 40 49  1  0  0  0  0
 41 65  1  0  0  0  0
 42 44  1  0  0  0  0
 43 45  1  0  0  0  0
 43 46  1  0  0  0  0
 44 48  1  0  0  0  0
 45 50  1  0  0  0  0
 46 66  1  0  0  0  0
 47 50  1  0  0  0  0
 47 66  1  0  0  0  0
 48 69  1  0  0  0  0
 49 65  1  0  0  0  0
 50 64  1  0  0  0  0
 51 61  1  0  0  0  0
 52 62  1  0  0  0  0
 53 62  1  0  0  0  0
 54 62  1  0  0  0  0
 55 72  1  0  0  0  0
 56 71  1  0  0  0  0
 57 58  1  0  0  0  0
 57 59  1  0  0  0  0
 58 79  1  0  0  0  0
 59 80  1  0  0  0  0
 60 62  1  0  0  0  0
 60 70  1  0  0  0  0
 61 72  1  0  0  0  0
 63 64  1  0  0  0  0
M  CHG  1  72   1
M  ISO  4  38 100  58 101  71 100  79 101
M  END
> <Batch ID>
0098

> <Smiles>
CNC(C)C(=O)NC(C(=O)N1Cc2cc([101O:1][101CH2:1]CCOc3cccc(C[100NH:0][100C:0](=O)N4CCCC(n5nc(-c6ccc(Oc7ccc(F)cc7F)cc6)c(C(N)=O)c5N)C4)c3)ccc2CC1C(=O)NC1CCCc2ccccc21)C(C)(C)C

> <Shape>
0.260

> <Color>
0.055

> <Negative vol penalty>
0.000

$$$$

  -OEChem-04052300513D

 81 89  0     1  0  0  0  0  0999 V2000
  -25.0213  -10.7255   21.1649 C   0  0  0  0  0  0  0  0  0  0  0  0
  -23.9648  -11.6051   21.3781 C   0  0  0  0  0  0  0  0  0  0  0  0
  -29.6486  -28.2631   18.7126 C   0  0  0  0  0  0  0  0  0  0  0  0
  -29.1145  -26.4702   20.2414 C   0  0  0  0  0  0  0  0  0  0  0  0
  -26.3127  -11.2195   20.9852 C   0  0  0  0  0  0  0  0  0  0  0  0
  -24.1992  -12.9792   21.4129 C   0  0  0  0  0  0  0  0  0  0  0  0
  -20.4596  -17.4032   19.4255 C   0  0  0  0  0  0  0  0  0  0  0  0
  -30.9539  -27.7833   18.6058 C   0  0  0  0  0  0  0  0  0  0  0  0
  -30.4199  -25.9903   20.1346 C   0  0  0  0  0  0  0  0  0  0  0  0
  -19.5590  -18.2373   20.0865 C   0  0  0  0  0  0  0  0  0  0  0  0
  -32.2325  -24.1751   17.9347 C   0  0  0  0  0  0  0  0  0  0  0  0
  -32.4045  -22.8015   17.7639 C   0  0  0  0  0  0  0  0  0  0  0  0
  -18.7610  -28.1701   21.5810 C   0  0  0  0  0  0  0  0  0  0  0  0
  -18.3713  -26.8618   21.1729 C   0  0  0  0  0  0  0  0  0  0  0  0
  -21.2435  -19.9606   20.1946 C   0  0  0  0  0  0  0  0  0  0  0  0
  -33.6823  -22.7068   19.8121 C   0  0  0  0  0  0  0  0  0  0  0  0
  -28.7289  -27.6066   19.5304 C   0  0  0  0  0  0  0  0  0  0  0  0
  -26.2765  -27.7492   18.8424 C   0  0  0  0  0  0  0  0  0  0  0  0
  -26.5615  -12.6009   21.0081 C   0  0  0  0  0  0  0  0  0  0  0  0
  -21.7646  -17.8383   19.1533 C   0  0  0  0  0  0  0  0  0  0  0  0
  -25.4953  -13.4921   21.2346 C   0  0  0  0  0  0  0  0  0  0  0  0
  -22.1580  -19.1310   19.5278 C   0  0  0  0  0  0  0  0  0  0  0  0
  -31.3396  -26.6469   19.3168 C   0  0  0  0  0  0  0  0  0  0  0  0
  -19.9517  -19.5151   20.4737 C   0  0  0  0  0  0  0  0  0  0  0  0
  -32.7855  -24.8146   19.0442 C   0  0  0  0  0  0  0  0  0  0  0  0
  -33.1293  -22.0673   18.7026 C   0  0  0  0  0  0  0  0  0  0  0  0
  -33.5104  -24.0805   19.9829 C   0  0  0  0  0  0  0  0  0  0  0  0
  -27.3804  -28.1021   19.6415 C   0  0  0  0  0  0  0  0  0  0  0  0
  -19.5664  -28.1453   22.6982 C   0  0  0  0  0  0  0  0  0  0  0  0
  -25.2359  -28.4893   19.3482 C   0  0  0  0  0  0  0  0  0  0  0  0
  -18.8941  -25.8867   21.9938 C   0  0  0  0  0  0  0  0  0  0  0  0
  -26.1987  -26.8341   17.7414 C   0  0  0  0  0  0  0  0  0  0  0  0
  -24.6727  -16.8777   20.0042 C   0  0  0  0  0  0  0  0  0  0  0  0
  -25.6174  -19.1554   17.8966 C   0  0  0  0  0  0  0  0  0  0  0  0
  -24.8886  -22.0453   16.2340 C   0  0  0  0  0  0  0  0  0  0  0  0
  -22.3320  -30.4782   23.6791 C   0  0  0  0  0  0  0  0  0  0  0  0
  -27.9817  -13.0853   20.8561 C   0  0  0  0  0  0  0  0  0  0  0  0
  -22.7158  -16.9363   18.4158 C   0  0  0  0  0  0  0  0  0  0  0  0
  -23.5413  -19.6533   19.2410 C   0  0  0  0  0  0  0  0  0  0  0  0
  -28.0863  -14.5736   20.5335 C   0  0  0  0  0  0  0  0  0  0  0  0
  -25.2181  -32.3032   22.6709 C   0  0  0  0  0  0  0  0  0  0  0  0
  -27.1748  -15.3838   21.4498 C   0  0  0  0  0  0  0  0  0  0  0  0
  -25.9495  -31.3418   21.7324 C   0  0  0  0  0  0  0  0  0  0  0  0
  -24.5534  -31.5640   23.8301 C   0  0  0  0  0  0  0  0  0  0  0  0
  -24.3892  -29.5012   22.4917 C   0  0  0  0  0  0  0  0  0  0  0  0
  -25.7056  -14.9906   21.2543 C   0  0  1  0  0  0  0  0  0  0  0  0
  -24.1804  -17.2950   18.6473 C   0  0  1  0  0  0  0  0  0  0  0  0
  -25.0284  -30.1943   21.2762 C   0  0  2  0  0  0  0  0  0  0  0  0
  -25.8729  -23.6852   14.6094 C   0  0  0  0  0  0  0  0  0  0  0  0
  -27.3406  -20.3260   20.1259 C   0  0  0  0  0  0  0  0  0  0  0  0
  -27.5324  -22.4278   18.7791 C   0  0  0  0  0  0  0  0  0  0  0  0
  -28.4325  -20.2836   17.8764 C   0  0  0  0  0  0  0  0  0  0  0  0
  -22.7654  -21.5211   14.2400 C   0  0  0  0  0  0  0  0  0  0  0  0
  -20.1716  -29.2841   23.4222 C   0  0  0  0  0  0  0  0  0  0  0  0
  -17.8573  -22.3964   21.0138 C   0  0  0  0  0  0  0  0  0  0  0  0
  -17.9122  -23.9085   20.8327 C   0  0  0  0  0  0  0  0  0  0  0  0
  -19.2278  -21.7359   20.9211 C   0  0  0  0  0  0  0  0  0  1  0  0
  -25.9304  -20.6296   17.9847 C   0  0  1  0  0  0  0  0  0  0  0  0
  -25.0303  -22.4296   14.7723 C   0  0  2  0  0  0  0  0  0  0  0  0
  -27.2835  -20.9065   18.6988 C   0  0  0  0  0  0  0  0  0  0  0  0
  -27.0701  -28.9969   20.5833 N   0  0  0  0  0  0  0  0  0  0  0  0
  -25.7595  -29.2126   20.3792 N   0  0  0  0  0  0  0  0  0  0  0  0
  -24.4369  -18.7313   18.5231 N   0  0  0  0  0  0  0  0  0  0  0  0
  -23.6924  -30.4897   23.3296 N   0  0  0  0  0  0  0  0  0  0  0  0
  -23.9333  -28.5855   19.0071 N   0  0  0  0  0  0  0  0  0  0  0  0
  -27.3622  -26.1566   17.3521 N   0  0  0  0  0  0  0  0  0  0  0  0
  -18.7067  -24.5187   21.8712 N   0  0  0  0  0  0  0  0  0  0  0  0
  -25.1775  -15.5921   20.0486 N   0  0  0  0  0  0  0  0  0  0  0  0
  -25.8579  -21.1444   16.6216 N   0  0  0  0  0  0  0  0  0  0  0  0
  -21.5858  -29.4287   23.1573 N   0  0  0  0  0  0  0  0  0  0  0  0
  -23.6904  -22.6815   14.1706 N   0  3  0  0  0  0  0  0  0  0  0  0
  -25.1327  -26.6358   17.1106 O   0  0  0  0  0  0  0  0  0  0  0  0
  -24.6013  -17.6643   20.9411 O   0  0  0  0  0  0  0  0  0  0  0  0
  -26.3880  -18.4088   17.2880 O   0  0  0  0  0  0  0  0  0  0  0  0
  -24.0085  -22.5017   16.9604 O   0  0  0  0  0  0  0  0  0  0  0  0
  -21.8193  -31.3423   24.3984 O   0  0  0  0  0  0  0  0  0  0  0  0
  -32.6132  -26.1783   19.2127 O   0  0  0  0  0  0  0  0  0  0  0  0
  -19.0748  -20.3310   21.1196 O   0  0  0  0  0  0  0  0  0  1  0  0
  -33.2931  -20.7480   18.5393 F   0  0  0  0  0  0  0  0  0  0  0  0
  -34.0430  -24.6891   21.0514 F   0  0  0  0  0  0  0  0  0  0  0  0
  -19.8499  -26.5494   23.2505 S   0  0  0  0  0  0  0  0  0  0  0  0
  1  2  1  0  0  0  0
  1  5  2  0  0  0  0
  2  6  2  0  0  0  0
  3  8  2  0  0  0  0
  3 17  1  0  0  0  0
  4  9  1  0  0  0  0
  4 17  2  0  0  0  0
  5 19  1  0  0  0  0
  6 21  1  0  0  0  0
  7 10  2  0  0  0  0
  7 20  1  0  0  0  0
  8 23  1  0  0  0  0
  9 23  2  0  0  0  0
 10 24  1  0  0  0  0
 11 12  2  0  0  0  0
 11 25  1  0  0  0  0
 12 26  1  0  0  0  0
 13 14  1  0  0  0  0
 13 29  2  0  0  0  0
 14 31  2  0  0  0  0
 15 22  1  0  0  0  0
 15 24  2  0  0  0  0
 16 26  2  0  0  0  0
 16 27  1  0  0  0  0
 17 28  1  0  0  0  0
 18 28  1  0  0  0  0
 18 30  2  0  0  0  0
 18 32  1  0  0  0  0
 19 21  2  0  0  0  0
 19 37  1  0  0  0  0
 20 22  2  0  0  0  0
 20 38  1  0  0  0  0
 21 46  1  0  0  0  0
 22 39  1  0  0  0  0
 23 77  1  0  0  0  0
 24 78  1  0  0  0  0
 25 27  2  0  0  0  0
 25 77  1  0  0  0  0
 26 79  1  0  0  0  0
 27 80  1  0  0  0  0
 28 61  2  0  0  0  0
 29 54  1  0  0  0  0
 29 81  1  0  0  0  0
 30 62  1  0  0  0  0
 30 65  1  0  0  0  0
 31 67  1  0  0  0  0
 31 81  1  0  0  0  0
 32 66  1  0  0  0  0
 32 72  2  0  0  0  0
 33 47  1  0  0  0  0
 33 68  1  0  0  0  0
 33 73  2  0  0  0  0
 34 58  1  0  0  0  0
 34 63  1  0  0  0  0
 34 74  2  0  0  0  0
 35 59  1  0  0  0  0
 35 69  1  0  0  0  0
 35 75  2  0  0  0  0
 36 64  1  0  0  0  0
 36 70  1  0  0  0  0
 36 76  2  0  0  0  0
 37 40  1  0  0  0  0
 38 47  1  0  0  0  0
 39 63  1  0  0  0  0
 40 42  1  0  0  0  0
 41 43  1  0  0  0  0
 41 44  1  0  0  0  0
 42 46  1  0  0  0  0
 43 48  1  0  0  0  0
 44 64  1  0  0  0  0
 45 48  1  0  0  0  0
 45 64  1  0  0  0  0
 46 68  1  0  0  0  0
 47 63  1  0  0  0  0
 48 62  1  0  0  0  0
 49 59  1  0  0  0  0
 50 60  1  0  0  0  0
 51 60  1  0  0  0  0
 52 60  1  0  0  0  0
 53 71  1  0  0  0  0
 54 70  1  0  0  0  0
 55 56  1  0  0  0  0
 55 57  1  0  0  0  0
 56 67  1  0  0  0  0
 57 78  1  0  0  0  0
 58 60  1  0  0  0  0
 58 69  1  0  0  0  0
 59 71  1  0  0  0  0
 61 62  1  0  0  0  0
M  CHG  1  71   1
M  ISO  4  36 100  57 101  70 100  78 101
M  END
> <Batch ID>
0098

> <Smiles>
CNC(C)C(=O)NC(C(=O)N1Cc2cc([101O:1][101CH2:1]CCNc3ccc(C[100NH:0][100C:0](=O)N4CCCC(n5nc(-c6ccc(Oc7ccc(F)cc7F)cc6)c(C(N)=O)c5N)C4)s3)ccc2CC1C(=O)NC1CCCc2ccccc21)C(C)(C)C

> <Shape>
0.207

> <Color>
0.062

> <Negative vol penalty>
0.000

$$$$

  -OEChem-04052300513D

 86 95  0     1  0  0  0  0  0999 V2000
  -22.7526   -8.5734   21.9433 C   0  0  0  0  0  0  0  0  0  0  0  0
  -23.9808   -9.1495   22.2515 C   0  0  0  0  0  0  0  0  0  0  0  0
  -22.1990  -29.0550   23.5663 C   0  0  0  0  0  0  0  0  0  0  0  0
  -21.2368  -28.6253   21.3923 C   0  0  0  0  0  0  0  0  0  0  0  0
  -31.9128  -23.5236   20.0060 C   0  0  0  0  0  0  0  0  0  0  0  0
  -21.9842   -9.0888   20.9003 C   0  0  0  0  0  0  0  0  0  0  0  0
  -24.4419  -10.2409   21.5161 C   0  0  0  0  0  0  0  0  0  0  0  0
  -28.3025  -16.2314   22.2407 C   0  0  0  0  0  0  0  0  0  0  0  0
  -30.8392  -24.3905   19.8025 C   0  0  0  0  0  0  0  0  0  0  0  0
  -21.0495  -28.5510   24.1747 C   0  0  0  0  0  0  0  0  0  0  0  0
  -20.0873  -28.1212   22.0007 C   0  0  0  0  0  0  0  0  0  0  0  0
  -29.3867  -16.8905   21.6629 C   0  0  0  0  0  0  0  0  0  0  0  0
  -17.3094  -29.3521   23.4837 C   0  0  0  0  0  0  0  0  0  0  0  0
  -16.0758  -29.7633   22.9792 C   0  0  0  0  0  0  0  0  0  0  0  0
  -32.5786  -23.8070   17.7009 C   0  0  0  0  0  0  0  0  0  0  0  0
  -27.9379  -17.7460   19.9344 C   0  0  0  0  0  0  0  0  0  0  0  0
  -15.5171  -27.4676   22.4742 C   0  0  0  0  0  0  0  0  0  0  0  0
  -22.2926  -29.0922   22.1751 C   0  0  0  0  0  0  0  0  0  0  0  0
  -32.7826  -23.2319   18.9552 C   0  0  0  0  0  0  0  0  0  0  0  0
  -24.0117  -30.9100   21.6770 C   0  0  0  0  0  0  0  0  0  0  0  0
  -22.4317  -10.1930   20.1580 C   0  0  0  0  0  0  0  0  0  0  0  0
  -27.0278  -16.3160   21.6625 C   0  0  0  0  0  0  0  0  0  0  0  0
  -23.6794  -10.7707   20.4613 C   0  0  0  0  0  0  0  0  0  0  0  0
  -26.8386  -17.0892   20.5082 C   0  0  0  0  0  0  0  0  0  0  0  0
  -30.6352  -24.9656   18.5482 C   0  0  0  0  0  0  0  0  0  0  0  0
  -19.9936  -28.0841   23.3919 C   0  0  0  0  0  0  0  0  0  0  0  0
  -29.2051  -17.6456   20.5080 C   0  0  0  0  0  0  0  0  0  0  0  0
  -17.6470  -27.9987   23.4834 C   0  0  0  0  0  0  0  0  0  0  0  0
  -15.1796  -28.8211   22.4745 C   0  0  0  0  0  0  0  0  0  0  0  0
  -31.5049  -24.6739   17.4974 C   0  0  0  0  0  0  0  0  0  0  0  0
  -16.7509  -27.0565   22.9787 C   0  0  0  0  0  0  0  0  0  0  0  0
  -23.4796  -29.6133   21.5460 C   0  0  0  0  0  0  0  0  0  0  0  0
  -25.1351  -30.9016   20.8869 C   0  0  0  0  0  0  0  0  0  0  0  0
  -33.9150  -22.3172   19.1699 C   0  0  0  0  0  0  0  0  0  0  0  0
  -23.5333  -32.0227   22.4444 C   0  0  0  0  0  0  0  0  0  0  0  0
  -24.9926  -14.2240   20.4034 C   0  0  0  0  0  0  0  0  0  0  0  0
  -23.0323  -16.8047   20.2643 C   0  0  0  0  0  0  0  0  0  0  0  0
  -22.7177  -20.2007   20.1419 C   0  0  0  0  0  0  0  0  0  0  0  0
  -28.5816  -26.2448   19.2768 C   0  0  0  0  0  0  0  0  0  0  0  0
  -21.5878  -10.6855   19.0091 C   0  0  0  0  0  0  0  0  0  0  0  0
  -25.8633  -15.6209   22.3130 C   0  0  0  0  0  0  0  0  0  0  0  0
  -25.4863  -17.2285   19.8598 C   0  0  0  0  0  0  0  0  0  0  0  0
  -21.9766  -12.0786   18.5210 C   0  0  0  0  0  0  0  0  0  0  0  0
  -26.2815  -28.2852   16.9811 C   0  0  0  0  0  0  0  0  0  0  0  0
  -23.4899  -12.1854   18.3617 C   0  0  0  0  0  0  0  0  0  0  0  0
  -25.9196  -29.4238   17.9319 C   0  0  0  0  0  0  0  0  0  0  0  0
  -33.9710  -18.8441   20.4095 C   0  0  0  0  0  0  0  0  0  0  0  0
  -27.5916  -27.6080   17.3632 C   0  0  0  0  0  0  0  0  0  0  0  0
  -34.6785  -20.0424   19.7959 C   0  0  0  0  0  0  0  0  0  0  0  0
  -32.3040  -20.4252   19.7539 C   0  0  0  0  0  0  0  0  0  0  0  0
  -26.5398  -27.6200   19.6325 C   0  0  0  0  0  0  0  0  0  0  0  0
  -24.2023  -11.9711   19.7026 C   0  0  1  0  0  0  0  0  0  0  0  0
  -24.7106  -15.3570   21.3491 C   0  0  1  0  0  0  0  0  0  0  0  0
  -32.5708  -18.9216   19.7964 C   0  0  2  0  0  0  0  0  0  0  0  0
  -26.2617  -29.1137   19.4027 C   0  0  2  0  0  0  0  0  0  0  0  0
  -20.9902  -22.0150   19.9954 C   0  0  0  0  0  0  0  0  0  0  0  0
  -22.6494  -16.1973   17.2987 C   0  0  0  0  0  0  0  0  0  0  0  0
  -21.7299  -18.5087   17.0154 C   0  0  0  0  0  0  0  0  0  0  0  0
  -20.5653  -16.8785   18.5017 C   0  0  0  0  0  0  0  0  0  0  0  0
  -23.5434  -21.3565   22.7383 C   0  0  0  0  0  0  0  0  0  0  0  0
  -31.5284  -18.1480   20.5836 C   0  0  0  0  0  0  0  0  0  1  0  0
  -22.7603  -17.8871   19.2477 C   0  0  1  0  0  0  0  0  0  0  0  0
  -21.8382  -21.1597   20.9239 C   0  0  2  0  0  0  0  0  0  0  0  0
  -21.9522  -17.3639   18.0268 C   0  0  0  0  0  0  0  0  0  0  0  0
  -24.2052  -28.8376   20.7362 N   0  0  0  0  0  0  0  0  0  0  0  0
  -25.2047  -29.6492   20.3512 N   0  0  0  0  0  0  0  0  0  0  0  0
  -33.6259  -21.0221   19.5713 N   0  0  0  0  0  0  0  0  0  0  0  0
  -24.3802  -16.5248   20.5299 N   0  0  0  0  0  0  0  0  0  0  0  0
  -27.6143  -27.1390   18.7563 N   0  0  0  0  0  0  0  0  0  0  0  0
  -26.0603  -31.8434   20.6049 N   0  0  0  0  0  0  0  0  0  0  0  0
  -22.6368  -32.9147   21.8404 N   0  0  0  0  0  0  0  0  0  0  0  0
  -29.5430  -25.8456   18.3446 N   0  0  0  0  0  0  0  0  0  0  0  0
  -24.1141  -13.1635   20.5181 N   0  0  0  0  0  0  0  0  0  0  0  0
  -22.1111  -18.9741   19.9725 N   0  0  0  0  0  0  0  0  0  0  0  0
  -22.6753  -22.0639   21.7621 N   0  3  0  0  0  0  0  0  0  0  0  0
  -35.0443  -22.7597   18.9687 O   0  0  0  0  0  0  0  0  0  0  0  0
  -23.9030  -32.2291   23.6251 O   0  0  0  0  0  0  0  0  0  0  0  0
  -25.9364  -14.3064   19.6262 O   0  0  0  0  0  0  0  0  0  0  0  0
  -22.0837  -16.2337   20.8081 O   0  0  0  0  0  0  0  0  0  0  0  0
  -23.8298  -20.5102   19.7202 O   0  0  0  0  0  0  0  0  0  0  0  0
  -28.5592  -25.8797   20.4541 O   0  0  0  0  0  0  0  0  0  0  0  0
  -18.8719  -27.5919   23.9853 O   0  0  0  0  0  0  0  0  0  0  0  0
  -30.2618  -18.2894   19.9417 O   0  0  0  0  0  0  0  0  0  1  0  0
  -13.9943  -29.2159   21.9915 F   0  0  0  0  0  0  0  0  0  0  0  0
  -31.3184  -25.2203   16.2872 F   0  0  0  0  0  0  0  0  0  0  0  0
  -17.0691  -25.7547   22.9768 F   0  0  0  0  0  0  0  0  0  0  0  0
  1  2  1  0  0  0  0
  1  6  2  0  0  0  0
  2  7  2  0  0  0  0
  3 10  2  0  0  0  0
  3 18  1  0  0  0  0
  4 11  1  0  0  0  0
  4 18  2  0  0  0  0
  5  9  2  0  0  0  0
  5 19  1  0  0  0  0
  6 21  1  0  0  0  0
  7 23  1  0  0  0  0
  8 12  2  0  0  0  0
  8 22  1  0  0  0  0
  9 25  1  0  0  0  0
 10 26  1  0  0  0  0
 11 26  2  0  0  0  0
 12 27  1  0  0  0  0
 13 14  2  0  0  0  0
 13 28  1  0  0  0  0
 14 29  1  0  0  0  0
 15 19  2  0  0  0  0
 15 30  1  0  0  0  0
 16 24  1  0  0  0  0
 16 27  2  0  0  0  0
 17 29  2  0  0  0  0
 17 31  1  0  0  0  0
 18 32  1  0  0  0  0
 19 34  1  0  0  0  0
 20 32  1  0  0  0  0
 20 33  2  0  0  0  0
 20 35  1  0  0  0  0
 21 23  2  0  0  0  0
 21 40  1  0  0  0  0
 22 24  2  0  0  0  0
 22 41  1  0  0  0  0
 23 52  1  0  0  0  0
 24 42  1  0  0  0  0
 25 30  2  0  0  0  0
 25 72  1  0  0  0  0
 26 82  1  0  0  0  0
 27 83  1  0  0  0  0
 28 31  2  0  0  0  0
 28 82  1  0  0  0  0
 29 84  1  0  0  0  0
 30 85  1  0  0  0  0
 31 86  1  0  0  0  0
 32 65  2  0  0  0  0
 33 66  1  0  0  0  0
 33 70  1  0  0  0  0
 34 67  1  0  0  0  0
 34 76  2  0  0  0  0
 35 71  1  0  0  0  0
 35 77  2  0  0  0  0
 36 53  1  0  0  0  0
 36 73  1  0  0  0  0
 36 78  2  0  0  0  0
 37 62  1  0  0  0  0
 37 68  1  0  0  0  0
 37 79  2  0  0  0  0
 38 63  1  0  0  0  0
 38 74  1  0  0  0  0
 38 80  2  0  0  0  0
 39 69  1  0  0  0  0
 39 72  1  0  0  0  0
 39 81  2  0  0  0  0
 40 43  1  0  0  0  0
 41 53  1  0  0  0  0
 42 68  1  0  0  0  0
 43 45  1  0  0  0  0
 44 46  1  0  0  0  0
 44 48  1  0  0  0  0
 45 52  1  0  0  0  0
 46 55  1  0  0  0  0
 47 49  1  0  0  0  0
 47 54  1  0  0  0  0
 48 69  1  0  0  0  0
 49 67  1  0  0  0  0
 50 54  1  0  0  0  0
 50 67  1  0  0  0  0
 51 55  1  0  0  0  0
 51 69  1  0  0  0  0
 52 73  1  0  0  0  0
 53 68  1  0  0  0  0
 54 61  1  0  0  0  0
 55 66  1  0  0  0  0
 56 63  1  0  0  0  0
 57 64  1  0  0  0  0
 58 64  1  0  0  0  0
 59 64  1  0  0  0  0
 60 75  1  0  0  0  0
 61 83  1  0  0  0  0
 62 64  1  0  0  0  0
 62 74  1  0  0  0  0
 63 75  1  0  0  0  0
 65 66  1  0  0  0  0
M  CHG  1  75   1
M  ISO  4  39 100  61 101  72 100  83 101
M  END
> <Batch ID>
0098

> <Smiles>
CNC(C)C(=O)NC(C(=O)N1Cc2cc([101O:1][101CH2:1]C3CCN(C(=O)c4ccc([100NH:0][100C:0](=O)N5CCCC(n6nc(-c7ccc(Oc8ccc(F)cc8F)cc7)c(C(N)=O)c6N)C5)c(F)c4)C3)ccc2CC1C(=O)NC1CCCc2ccccc21)C(C)(C)C

> <Shape>
0.251

> <Color>
0.076

> <Negative vol penalty>
0.000

$$$$

  -OEChem-04052300513D

 87 96  0     1  0  0  0  0  0999 V2000
  -29.6505  -17.5938   27.3732 C   0  0  0  0  0  0  0  0  0  0  0  0
  -29.6130  -18.3435   26.2019 C   0  0  0  0  0  0  0  0  0  0  0  0
  -23.2455  -10.1706   22.1503 C   0  0  0  0  0  0  0  0  0  0  0  0
  -23.5393   -9.5419   19.8362 C   0  0  0  0  0  0  0  0  0  0  0  0
  -29.4421  -18.2148   28.6040 C   0  0  0  0  0  0  0  0  0  0  0  0
  -29.3659  -19.7146   26.2606 C   0  0  0  0  0  0  0  0  0  0  0  0
  -32.4870  -22.3799   23.2942 C   0  0  0  0  0  0  0  0  0  0  0  0
  -31.6319  -18.2927   20.2069 C   0  0  0  0  0  0  0  0  0  0  0  0
  -31.4605  -19.3473   19.3103 C   0  0  0  0  0  0  0  0  0  0  0  0
  -22.4904   -9.0182   22.3676 C   0  0  0  0  0  0  0  0  0  0  0  0
  -22.7843   -8.3894   20.0534 C   0  0  0  0  0  0  0  0  0  0  0  0
  -32.2085  -22.3956   21.9282 C   0  0  0  0  0  0  0  0  0  0  0  0
  -23.0619   -5.7232   22.8676 C   0  0  0  0  0  0  0  0  0  0  0  0
  -23.3328   -4.9775   24.0147 C   0  0  0  0  0  0  0  0  0  0  0  0
  -31.1819  -24.5653   22.1686 C   0  0  0  0  0  0  0  0  0  0  0  0
  -29.2077  -19.6706   20.1211 C   0  0  0  0  0  0  0  0  0  0  0  0
  -21.0616   -5.3113   24.7681 C   0  0  0  0  0  0  0  0  0  0  0  0
  -23.7699  -10.4326   20.8846 C   0  0  0  0  0  0  0  0  0  0  0  0
  -24.1326  -12.9571   20.8292 C   0  0  0  0  0  0  0  0  0  0  0  0
  -29.2020  -19.5959   28.6786 C   0  0  0  0  0  0  0  0  0  0  0  0
  -32.1047  -23.4538   24.1109 C   0  0  0  0  0  0  0  0  0  0  0  0
  -29.1528  -20.3545   27.4935 C   0  0  0  0  0  0  0  0  0  0  0  0
  -31.4590  -24.5620   23.5442 C   0  0  0  0  0  0  0  0  0  0  0  0
  -30.5912  -17.9269   21.0606 C   0  0  0  0  0  0  0  0  0  0  0  0
  -30.2484  -20.0363   19.2674 C   0  0  0  0  0  0  0  0  0  0  0  0
  -29.3791  -18.6159   21.0177 C   0  0  0  0  0  0  0  0  0  0  0  0
  -22.2598   -8.1275   21.3192 C   0  0  0  0  0  0  0  0  0  0  0  0
  -31.5532  -23.4871   21.3657 C   0  0  0  0  0  0  0  0  0  0  0  0
  -21.7909   -6.2632   22.6707 C   0  0  0  0  0  0  0  0  0  0  0  0
  -22.3326   -4.7715   24.9650 C   0  0  0  0  0  0  0  0  0  0  0  0
  -20.7907   -6.0572   23.6209 C   0  0  0  0  0  0  0  0  0  0  0  0
  -24.5495  -11.6232   20.6594 C   0  0  0  0  0  0  0  0  0  0  0  0
  -25.2321  -13.7065   20.4885 C   0  0  0  0  0  0  0  0  0  0  0  0
  -30.7467  -21.1584   17.1051 C   0  0  0  0  0  0  0  0  0  0  0  0
  -22.8649  -13.4726   21.2568 C   0  0  0  0  0  0  0  0  0  0  0  0
  -30.1619  -23.7957   26.6033 C   0  0  0  0  0  0  0  0  0  0  0  0
  -31.3761  -26.8035   26.6421 C   0  0  0  0  0  0  0  0  0  0  0  0
  -32.2212  -29.3336   24.2127 C   0  0  0  0  0  0  0  0  0  0  0  0
  -30.7232  -14.6755   20.7203 C   0  0  0  0  0  0  0  0  0  0  0  0
  -28.9356  -20.2145   30.0281 C   0  0  0  0  0  0  0  0  0  0  0  0
  -32.4364  -23.4335   25.5779 C   0  0  0  0  0  0  0  0  0  0  0  0
  -31.0457  -25.7490   24.3740 C   0  0  0  0  0  0  0  0  0  0  0  0
  -30.4894  -22.4238   16.3092 C   0  0  0  0  0  0  0  0  0  0  0  0
  -29.0518  -21.7366   30.0340 C   0  0  0  0  0  0  0  0  0  0  0  0
  -30.6066  -23.6299   17.2235 C   0  0  0  0  0  0  0  0  0  0  0  0
  -29.5746  -12.3611   18.2706 C   0  0  0  0  0  0  0  0  0  0  0  0
  -28.3097  -22.3333   28.8423 C   0  0  0  0  0  0  0  0  0  0  0  0
  -28.1333  -12.0684   18.6913 C   0  0  0  0  0  0  0  0  0  0  0  0
  -30.4893  -12.5442   19.4797 C   0  0  0  0  0  0  0  0  0  0  0  0
  -29.0570  -22.1493   18.6130 C   0  0  0  0  0  0  0  0  0  0  0  0
  -28.5888  -13.2557   20.8780 C   0  0  0  0  0  0  0  0  0  0  0  0
  -28.9122  -21.8484   27.5182 C   0  0  1  0  0  0  0  0  0  0  0  0
  -31.5432  -24.3529   26.4052 C   0  0  1  0  0  0  0  0  0  0  0  0
  -29.5628  -23.5794   18.3459 C   0  0  1  0  0  0  0  0  0  0  0  0
  -27.6173  -13.1188   19.6932 C   0  0  2  0  0  0  0  0  0  0  0  0
  -33.9040  -31.1926   24.3112 C   0  0  0  0  0  0  0  0  0  0  0  0
  -29.0271  -28.4883   27.6187 C   0  0  0  0  0  0  0  0  0  0  0  0
  -29.9227  -30.3953   26.2660 C   0  0  0  0  0  0  0  0  0  0  0  0
  -31.2807  -29.4446   28.1300 C   0  0  0  0  0  0  0  0  0  0  0  0
  -33.5320  -28.4355   21.7159 C   0  0  0  0  0  0  0  0  0  0  0  0
  -30.8022  -16.7937   22.0111 C   0  0  0  0  0  0  0  0  0  0  0  0
  -30.1185  -24.2229   19.6175 C   0  0  0  0  0  0  0  0  0  1  0  0
  -31.0015  -28.1160   25.9972 C   0  0  1  0  0  0  0  0  0  0  0  0
  -33.6160  -29.7836   23.8169 C   0  0  2  0  0  0  0  0  0  0  0  0
  -30.3019  -29.0861   26.9906 C   0  0  0  0  0  0  0  0  0  0  0  0
  -25.8150  -11.5276   20.2430 N   0  0  0  0  0  0  0  0  0  0  0  0
  -26.2027  -12.8108   20.1482 N   0  0  0  0  0  0  0  0  0  0  0  0
  -30.0723  -21.1235   18.3422 N   0  0  0  0  0  0  0  0  0  0  0  0
  -31.3866  -25.6791   25.8045 N   0  0  0  0  0  0  0  0  0  0  0  0
  -29.9440  -13.5546   20.3895 N   0  0  0  0  0  0  0  0  0  0  0  0
  -28.3146  -18.2581   21.8742 N   0  0  0  0  0  0  0  0  0  0  0  0
  -25.4535  -15.0376   20.4497 N   0  0  0  0  0  0  0  0  0  0  0  0
  -21.8445  -12.5635   21.5678 N   0  0  0  0  0  0  0  0  0  0  0  0
  -30.1365  -22.5635   27.2280 N   0  0  0  0  0  0  0  0  0  0  0  0
  -32.2265  -28.6454   25.4076 N   0  0  0  0  0  0  0  0  0  0  0  0
  -30.1287  -15.5878   21.5835 N   0  0  0  0  0  0  0  0  0  0  0  0
  -33.7646  -29.7661   22.3342 N   0  3  0  0  0  0  0  0  0  0  0  0
  -31.4434  -20.2663   16.6225 O   0  0  0  0  0  0  0  0  0  0  0  0
  -22.6384  -14.7032   21.3443 O   0  0  0  0  0  0  0  0  0  0  0  0
  -29.1909  -24.4371   26.2193 O   0  0  0  0  0  0  0  0  0  0  0  0
  -31.6563  -26.7780   27.8431 O   0  0  0  0  0  0  0  0  0  0  0  0
  -31.2261  -29.5721   23.5320 O   0  0  0  0  0  0  0  0  0  0  0  0
  -31.8621  -14.8530   20.2750 O   0  0  0  0  0  0  0  0  0  0  0  0
  -21.5233   -7.0027   21.5309 O   0  0  0  0  0  0  0  0  0  0  0  0
  -31.2795  -23.5046   20.0328 O   0  0  0  0  0  0  0  0  0  1  0  0
  -22.5925   -4.0540   26.0658 F   0  0  0  0  0  0  0  0  0  0  0  0
  -19.5674   -6.5724   23.4367 F   0  0  0  0  0  0  0  0  0  0  0  0
  1  2  1  0  0  0  0
  1  5  2  0  0  0  0
  2  6  2  0  0  0  0
  3 10  2  0  0  0  0
  3 18  1  0  0  0  0
  4 11  1  0  0  0  0
  4 18  2  0  0  0  0
  5 20  1  0  0  0  0
  6 22  1  0  0  0  0
  7 12  2  0  0  0  0
  7 21  1  0  0  0  0
  8  9  2  0  0  0  0
  8 24  1  0  0  0  0
  9 25  1  0  0  0  0
 10 27  1  0  0  0  0
 11 27  2  0  0  0  0
 12 28  1  0  0  0  0
 13 14  2  0  0  0  0
 13 29  1  0  0  0  0
 14 30  1  0  0  0  0
 15 23  1  0  0  0  0
 15 28  2  0  0  0  0
 16 25  2  0  0  0  0
 16 26  1  0  0  0  0
 17 30  2  0  0  0  0
 17 31  1  0  0  0  0
 18 32  1  0  0  0  0
 19 32  1  0  0  0  0
 19 33  2  0  0  0  0
 19 35  1  0  0  0  0
 20 22  2  0  0  0  0
 20 40  1  0  0  0  0
 21 23  2  0  0  0  0
 21 41  1  0  0  0  0
 22 52  1  0  0  0  0
 23 42  1  0  0  0  0
 24 26  2  0  0  0  0
 24 61  1  0  0  0  0
 25 68  1  0  0  0  0
 26 71  1  0  0  0  0
 27 84  1  0  0  0  0
 28 85  1  0  0  0  0
 29 31  2  0  0  0  0
 29 84  1  0  0  0  0
 30 86  1  0  0  0  0
 31 87  1  0  0  0  0
 32 66  2  0  0  0  0
 33 67  1  0  0  0  0
 33 72  1  0  0  0  0
 34 43  1  0  0  0  0
 34 68  1  0  0  0  0
 34 78  2  0  0  0  0
 35 73  1  0  0  0  0
 35 79  2  0  0  0  0
 36 53  1  0  0  0  0
 36 74  1  0  0  0  0
 36 80  2  0  0  0  0
 37 63  1  0  0  0  0
 37 69  1  0  0  0  0
 37 81  2  0  0  0  0
 38 64  1  0  0  0  0
 38 75  1  0  0  0  0
 38 82  2  0  0  0  0
 39 70  1  0  0  0  0
 39 76  1  0  0  0  0
 39 83  2  0  0  0  0
 40 44  1  0  0  0  0
 41 53  1  0  0  0  0
 42 69  1  0  0  0  0
 43 45  1  0  0  0  0
 44 47  1  0  0  0  0
 45 54  1  0  0  0  0
 46 48  1  0  0  0  0
 46 49  1  0  0  0  0
 47 52  1  0  0  0  0
 48 55  1  0  0  0  0
 49 70  1  0  0  0  0
 50 54  1  0  0  0  0
 50 68  1  0  0  0  0
 51 55  1  0  0  0  0
 51 70  1  0  0  0  0
 52 74  1  0  0  0  0
 53 69  1  0  0  0  0
 54 62  1  0  0  0  0
 55 67  1  0  0  0  0
 56 64  1  0  0  0  0
 57 65  1  0  0  0  0
 58 65  1  0  0  0  0
 59 65  1  0  0  0  0
 60 77  1  0  0  0  0
 61 76  1  0  0  0  0
 62 85  1  0  0  0  0
 63 65  1  0  0  0  0
 63 75  1  0  0  0  0
 64 77  1  0  0  0  0
 66 67  1  0  0  0  0
M  CHG  1  77   1
M  ISO  4  39 100  62 101  76 100  85 101
M  END
> <Batch ID>
0098

> <Smiles>
CNC(C)C(=O)NC(C(=O)N1Cc2cc([101O:1][101CH2:1]C3CCC(=O)N(c4ccc(C[100NH:0][100C:0](=O)N5CCCC(n6nc(-c7ccc(Oc8ccc(F)cc8F)cc7)c(C(N)=O)c6N)C5)c(N)c4)C3)ccc2CC1C(=O)NC1CCCc2ccccc21)C(C)(C)C

> <Shape>
0.223

> <Color>
0.200

> <Negative vol penalty>
0.000

$$$$

  -OEChem-04052300513D

 83 91  0     1  0  0  0  0  0999 V2000
  -22.7312   -8.1898   21.8555 C   0  0  0  0  0  0  0  0  0  0  0  0
  -24.0397   -8.6575   21.9230 C   0  0  0  0  0  0  0  0  0  0  0  0
  -22.5659  -25.5786   23.5508 C   0  0  0  0  0  0  0  0  0  0  0  0
  -22.6614  -27.6369   22.2895 C   0  0  0  0  0  0  0  0  0  0  0  0
  -29.3209  -25.4386   16.2763 C   0  0  0  0  0  0  0  0  0  0  0  0
  -21.7523   -8.9502   21.2172 C   0  0  0  0  0  0  0  0  0  0  0  0
  -24.3703   -9.8855   21.3510 C   0  0  0  0  0  0  0  0  0  0  0  0
  -28.7579  -15.4727   22.2722 C   0  0  0  0  0  0  0  0  0  0  0  0
  -29.0729  -24.2556   15.5803 C   0  0  0  0  0  0  0  0  0  0  0  0
  -21.5112  -26.0905   24.3065 C   0  0  0  0  0  0  0  0  0  0  0  0
  -21.6067  -28.1489   23.0451 C   0  0  0  0  0  0  0  0  0  0  0  0
  -29.6936  -16.2341   21.5732 C   0  0  0  0  0  0  0  0  0  0  0  0
  -18.7012  -29.8623   24.4019 C   0  0  0  0  0  0  0  0  0  0  0  0
  -17.6752  -30.5195   23.7229 C   0  0  0  0  0  0  0  0  0  0  0  0
  -30.1755  -24.1624   18.1412 C   0  0  0  0  0  0  0  0  0  0  0  0
  -27.9032  -17.4982   20.5654 C   0  0  0  0  0  0  0  0  0  0  0  0
  -17.2140  -28.5055   22.4706 C   0  0  0  0  0  0  0  0  0  0  0  0
  -23.1411  -26.3518   22.5423 C   0  0  0  0  0  0  0  0  0  0  0  0
  -29.8723  -25.3921   17.5567 C   0  0  0  0  0  0  0  0  0  0  0  0
  -24.1414  -25.0928   20.5619 C   0  0  0  0  0  0  0  0  0  0  0  0
  -22.0690  -10.1926   20.6455 C   0  0  0  0  0  0  0  0  0  0  0  0
  -27.3851  -15.7116   22.1144 C   0  0  0  0  0  0  0  0  0  0  0  0
  -23.3950  -10.6626   20.7032 C   0  0  0  0  0  0  0  0  0  0  0  0
  -26.9522  -16.7402   21.2654 C   0  0  0  0  0  0  0  0  0  0  0  0
  -29.3762  -23.0259   16.1648 C   0  0  0  0  0  0  0  0  0  0  0  0
  -29.9275  -22.9793   17.4452 C   0  0  0  0  0  0  0  0  0  0  0  0
  -21.0315  -27.3757   24.0536 C   0  0  0  0  0  0  0  0  0  0  0  0
  -29.2662  -17.2451   20.7174 C   0  0  0  0  0  0  0  0  0  0  0  0
  -18.9837  -28.5268   24.1151 C   0  0  0  0  0  0  0  0  0  0  0  0
  -16.9315  -29.8411   22.7573 C   0  0  0  0  0  0  0  0  0  0  0  0
  -18.2401  -27.8484   23.1495 C   0  0  0  0  0  0  0  0  0  0  0  0
  -24.2310  -25.8237   21.7618 C   0  0  0  0  0  0  0  0  0  0  0  0
  -25.4458  -24.8262   20.2241 C   0  0  0  0  0  0  0  0  0  0  0  0
  -30.1303  -26.6260   18.2821 C   0  0  0  0  0  0  0  0  0  0  0  0
  -22.9828  -24.6909   19.8192 C   0  0  0  0  0  0  0  0  0  0  0  0
  -30.7147  -26.6126   19.6428 C   0  0  0  0  0  0  0  0  0  0  0  0
  -24.9200  -14.0103   21.0501 C   0  0  0  0  0  0  0  0  0  0  0  0
  -23.2136  -16.5790   22.0560 C   0  0  0  0  0  0  0  0  0  0  0  0
  -23.1559  -19.9108   22.7927 C   0  0  0  0  0  0  0  0  0  0  0  0
  -20.9870  -10.9570   19.9247 C   0  0  0  0  0  0  0  0  0  0  0  0
  -26.3894  -14.8991   22.8959 C   0  0  0  0  0  0  0  0  0  0  0  0
  -25.4904  -17.0501   21.0766 C   0  0  0  0  0  0  0  0  0  0  0  0
  -21.3405  -12.4203   19.6716 C   0  0  0  0  0  0  0  0  0  0  0  0
  -29.7193  -25.3759   22.8577 C   0  0  0  0  0  0  0  0  0  0  0  0
  -22.7564  -12.5393   19.1170 C   0  0  0  0  0  0  0  0  0  0  0  0
  -28.1934  -25.3597   22.7728 C   0  0  0  0  0  0  0  0  0  0  0  0
  -30.3099  -26.5419   22.0717 C   0  0  0  0  0  0  0  0  0  0  0  0
  -28.3529  -26.5657   20.5490 C   0  0  0  0  0  0  0  0  0  0  0  0
  -23.7875  -12.0012   20.1164 C   0  0  1  0  0  0  0  0  0  0  0  0
  -25.0000  -14.8896   22.2659 C   0  0  1  0  0  0  0  0  0  0  0  0
  -27.7216  -25.3856   21.3081 C   0  0  2  0  0  0  0  0  0  0  0  0
  -21.6080  -21.7335   23.5537 C   0  0  0  0  0  0  0  0  0  0  0  0
  -21.9884  -16.7010   19.2642 C   0  0  0  0  0  0  0  0  0  0  0  0
  -21.2184  -19.0269   19.7796 C   0  0  0  0  0  0  0  0  0  0  0  0
  -20.3741  -17.1073   21.1306 C   0  0  0  0  0  0  0  0  0  0  0  0
  -24.7496  -20.4027   25.2374 C   0  0  0  0  0  0  0  0  0  0  0  0
  -31.0798  -20.1884   19.7036 C   0  0  0  0  0  0  0  0  0  0  0  0
  -30.8055  -21.6485   19.3645 C   0  0  0  0  0  0  0  0  0  0  0  0
  -29.8170  -19.3352   19.7256 C   0  0  0  0  0  0  0  0  0  1  0  0
  -22.7641  -17.8763   21.4283 C   0  0  1  0  0  0  0  0  0  0  0  0
  -22.6042  -20.6691   23.9865 C   0  0  2  0  0  0  0  0  0  0  0  0
  -21.6138  -17.6710   20.4025 C   0  0  0  0  0  0  0  0  0  0  0  0
  -25.4925  -26.0094   22.1595 N   0  0  0  0  0  0  0  0  0  0  0  0
  -29.8729  -27.8102   17.7960 N   0  0  0  0  0  0  0  0  0  0  0  0
  -26.2076  -25.3913   21.2041 N   0  0  0  0  0  0  0  0  0  0  0  0
  -29.8138  -26.5579   20.6970 N   0  0  0  0  0  0  0  0  0  0  0  0
  -24.5553  -16.2238   21.8578 N   0  0  0  0  0  0  0  0  0  0  0  0
  -29.1150  -21.8398   15.4428 N   0  0  0  0  0  0  0  0  0  0  0  0
  -26.0038  -24.1659   19.1873 N   0  0  0  0  0  0  0  0  0  0  0  0
  -21.7187  -25.0482   20.3079 N   0  0  0  0  0  0  0  0  0  0  0  0
  -30.2352  -21.7678   18.0444 N   0  0  0  0  0  0  0  0  0  0  0  0
  -24.0225  -12.9663   21.1689 N   0  0  0  0  0  0  0  0  0  0  0  0
  -22.4281  -18.7690   22.5321 N   0  0  0  0  0  0  0  0  0  0  0  0
  -23.7090  -21.3351   24.7327 N   0  3  0  0  0  0  0  0  0  0  0  0
  -23.0653  -24.0203   18.7623 O   0  0  0  0  0  0  0  0  0  0  0  0
  -31.9372  -26.6521   19.6921 O   0  0  0  0  0  0  0  0  0  0  0  0
  -25.6196  -14.2613   20.0758 O   0  0  0  0  0  0  0  0  0  0  0  0
  -22.4058  -15.9092   22.7046 O   0  0  0  0  0  0  0  0  0  0  0  0
  -24.1323  -20.2951   22.1528 O   0  0  0  0  0  0  0  0  0  0  0  0
  -20.0022  -27.8755   24.7906 O   0  0  0  0  0  0  0  0  0  0  0  0
  -30.1774  -17.9893   20.0335 O   0  0  0  0  0  0  0  0  0  1  0  0
  -15.9453  -30.4718   22.1065 F   0  0  0  0  0  0  0  0  0  0  0  0
  -18.5060  -26.5649   22.8706 F   0  0  0  0  0  0  0  0  0  0  0  0
  1  2  1  0  0  0  0
  1  6  2  0  0  0  0
  2  7  2  0  0  0  0
  3 10  2  0  0  0  0
  3 18  1  0  0  0  0
  4 11  1  0  0  0  0
  4 18  2  0  0  0  0
  5  9  2  0  0  0  0
  5 19  1  0  0  0  0
  6 21  1  0  0  0  0
  7 23  1  0  0  0  0
  8 12  2  0  0  0  0
  8 22  1  0  0  0  0
  9 25  1  0  0  0  0
 10 27  1  0  0  0  0
 11 27  2  0  0  0  0
 12 28  1  0  0  0  0
 13 14  2  0  0  0  0
 13 29  1  0  0  0  0
 14 30  1  0  0  0  0
 15 19  2  0  0  0  0
 15 26  1  0  0  0  0
 16 24  1  0  0  0  0
 16 28  2  0  0  0  0
 17 30  2  0  0  0  0
 17 31  1  0  0  0  0
 18 32  1  0  0  0  0
 19 34  1  0  0  0  0
 20 32  1  0  0  0  0
 20 33  2  0  0  0  0
 20 35  1  0  0  0  0
 21 23  2  0  0  0  0
 21 40  1  0  0  0  0
 22 24  2  0  0  0  0
 22 41  1  0  0  0  0
 23 49  1  0  0  0  0
 24 42  1  0  0  0  0
 25 26  2  0  0  0  0
 25 68  1  0  0  0  0
 26 71  1  0  0  0  0
 27 80  1  0  0  0  0
 28 81  1  0  0  0  0
 29 31  2  0  0  0  0
 29 80  1  0  0  0  0
 30 82  1  0  0  0  0
 31 83  1  0  0  0  0
 32 63  2  0  0  0  0
 33 65  1  0  0  0  0
 33 69  1  0  0  0  0
 34 36  1  0  0  0  0
 34 64  2  0  0  0  0
 35 70  1  0  0  0  0
 35 75  2  0  0  0  0
 36 66  1  0  0  0  0
 36 76  2  0  0  0  0
 37 50  1  0  0  0  0
 37 72  1  0  0  0  0
 37 77  2  0  0  0  0
 38 60  1  0  0  0  0
 38 67  1  0  0  0  0
 38 78  2  0  0  0  0
 39 61  1  0  0  0  0
 39 73  1  0  0  0  0
 39 79  2  0  0  0  0
 40 43  1  0  0  0  0
 41 50  1  0  0  0  0
 42 67  1  0  0  0  0
 43 45  1  0  0  0  0
 44 46  1  0  0  0  0
 44 47  1  0  0  0  0
 45 49  1  0  0  0  0
 46 51  1  0  0  0  0
 47 66  1  0  0  0  0
 48 51  1  0  0  0  0
 48 66  1  0  0  0  0
 49 72  1  0  0  0  0
 50 67  1  0  0  0  0
 51 65  1  0  0  0  0
 52 61  1  0  0  0  0
 53 62  1  0  0  0  0
 54 62  1  0  0  0  0
 55 62  1  0  0  0  0
 56 74  1  0  0  0  0
 57 58  1  0  0  0  0
 57 59  1  0  0  0  0
 58 71  1  0  0  0  0
 59 81  1  0  0  0  0
 60 62  1  0  0  0  0
 60 73  1  0  0  0  0
 61 74  1  0  0  0  0
 63 65  1  0  0  0  0
M  CHG  1  74   1
M  ISO  4  34 100  36 100  59 101  81 101
M  END
> <Batch ID>
0098

> <Smiles>
CNC(C)C(=O)NC(C(=O)N1Cc2cc([101O:1][101CH2:1]CCNc3cc([100C:0](=N)[100C:0](=O)N4CCCC(n5nc(-c6ccc(Oc7ccc(F)cc7F)cc6)c(C(N)=O)c5N)C4)ccc3N)ccc2CC1C(=O)NC1CCCc2ccccc21)C(C)(C)C

> <Shape>
0.218

> <Color>
0.058

> <Negative vol penalty>
0.000

$$$$

  -OEChem-04052300513D

 84 92  0     1  0  0  0  0  0999 V2000
  -16.5463  -28.9211   23.9518 C   0  0  0  0  0  0  0  0  0  0  0  0
  -17.0181  -28.3087   22.7951 C   0  0  0  0  0  0  0  0  0  0  0  0
  -27.7330  -16.8394   22.1575 C   0  0  0  0  0  0  0  0  0  0  0  0
  -28.8442  -16.2292   24.2142 C   0  0  0  0  0  0  0  0  0  0  0  0
  -29.3672  -24.4994   17.0334 C   0  0  0  0  0  0  0  0  0  0  0  0
  -17.2830  -29.9437   24.5479 C   0  0  0  0  0  0  0  0  0  0  0  0
  -18.2264  -28.7194   22.2333 C   0  0  0  0  0  0  0  0  0  0  0  0
  -22.3327  -25.2027   19.3563 C   0  0  0  0  0  0  0  0  0  0  0  0
  -27.6770  -15.4953   21.7890 C   0  0  0  0  0  0  0  0  0  0  0  0
  -28.7881  -14.8851   23.8457 C   0  0  0  0  0  0  0  0  0  0  0  0
  -28.3216  -24.1462   16.1804 C   0  0  0  0  0  0  0  0  0  0  0  0
  -22.5791  -24.9621   18.0053 C   0  0  0  0  0  0  0  0  0  0  0  0
  -27.5642  -12.2549   20.1425 C   0  0  0  0  0  0  0  0  0  0  0  0
  -27.9098  -11.9253   18.8320 C   0  0  0  0  0  0  0  0  0  0  0  0
  -28.3095  -23.2835   18.8334 C   0  0  0  0  0  0  0  0  0  0  0  0
  -24.3063  -26.6460   18.0267 C   0  0  0  0  0  0  0  0  0  0  0  0
  -30.1156  -12.8466   19.1820 C   0  0  0  0  0  0  0  0  0  0  0  0
  -28.3166  -17.2064   23.3701 C   0  0  0  0  0  0  0  0  0  0  0  0
  -29.3612  -24.0679   18.3598 C   0  0  0  0  0  0  0  0  0  0  0  0
  -27.4144  -19.3163   24.4846 C   0  0  0  0  0  0  0  0  0  0  0  0
  -18.5057  -30.3607   23.9985 C   0  0  0  0  0  0  0  0  0  0  0  0
  -23.0651  -26.1760   20.0511 C   0  0  0  0  0  0  0  0  0  0  0  0
  -18.9795  -29.7496   22.8219 C   0  0  0  0  0  0  0  0  0  0  0  0
  -24.0691  -26.8952   19.3871 C   0  0  0  0  0  0  0  0  0  0  0  0
  -27.2639  -22.9304   17.9804 C   0  0  0  0  0  0  0  0  0  0  0  0
  -28.2045  -14.5181   22.6331 C   0  0  0  0  0  0  0  0  0  0  0  0
  -23.5640  -25.6859   17.3396 C   0  0  0  0  0  0  0  0  0  0  0  0
  -27.2699  -23.3618   16.6539 C   0  0  0  0  0  0  0  0  0  0  0  0
  -28.4942  -12.8805   20.9728 C   0  0  0  0  0  0  0  0  0  0  0  0
  -29.1855  -12.2211   18.3517 C   0  0  0  0  0  0  0  0  0  0  0  0
  -29.7700  -13.1763   20.4925 C   0  0  0  0  0  0  0  0  0  0  0  0
  -28.3753  -18.5947   23.7511 C   0  0  0  0  0  0  0  0  0  0  0  0
  -27.9357  -20.5834   24.5798 C   0  0  0  0  0  0  0  0  0  0  0  0
  -30.4755  -24.4442   19.2674 C   0  0  0  0  0  0  0  0  0  0  0  0
  -26.1627  -18.8801   25.0309 C   0  0  0  0  0  0  0  0  0  0  0  0
  -22.3394  -28.8821   21.5525 C   0  0  0  0  0  0  0  0  0  0  0  0
  -25.4713  -28.7995   22.3930 C   0  0  0  0  0  0  0  0  0  0  0  0
  -28.6265  -27.6934   21.7088 C   0  0  0  0  0  0  0  0  0  0  0  0
  -31.7488  -23.7057   21.2566 C   0  0  0  0  0  0  0  0  0  0  0  0
  -19.2434  -31.5024   24.6518 C   0  0  0  0  0  0  0  0  0  0  0  0
  -22.8054  -26.4047   21.5149 C   0  0  0  0  0  0  0  0  0  0  0  0
  -24.8971  -27.9367   20.0928 C   0  0  0  0  0  0  0  0  0  0  0  0
  -20.6978  -31.6234   24.2042 C   0  0  0  0  0  0  0  0  0  0  0  0
  -32.1238  -22.9133   24.6813 C   0  0  0  0  0  0  0  0  0  0  0  0
  -20.8000  -31.5140   22.6862 C   0  0  0  0  0  0  0  0  0  0  0  0
  -31.1065  -21.7911   24.9058 C   0  0  0  0  0  0  0  0  0  0  0  0
  -32.7971  -22.8035   23.3140 C   0  0  0  0  0  0  0  0  0  0  0  0
  -30.8665  -21.5812   22.3993 C   0  0  0  0  0  0  0  0  0  0  0  0
  -20.2979  -30.1504   22.1963 C   0  0  1  0  0  0  0  0  0  0  0  0
  -23.2598  -27.7798   21.9946 C   0  0  1  0  0  0  0  0  0  0  0  0
  -30.1103  -21.6879   23.7334 C   0  0  1  0  0  0  0  0  0  0  0  0
  -31.0801  -27.2951   22.0532 C   0  0  0  0  0  0  0  0  0  0  0  0
  -25.7181  -31.6259   21.2703 C   0  0  0  0  0  0  0  0  0  0  0  0
  -28.2044  -31.3319   21.2652 C   0  0  0  0  0  0  0  0  0  0  0  0
  -26.9443  -31.2452   23.4164 C   0  0  0  0  0  0  0  0  0  0  0  0
  -28.1288  -25.1799   23.1898 C   0  0  0  0  0  0  0  0  0  0  0  0
  -24.4904  -23.8319   14.3704 C   0  0  0  0  0  0  0  0  0  0  0  0
  -23.5650  -24.1321   15.5391 C   0  0  0  0  0  0  0  0  0  1  0  0
  -25.9555  -23.9477   14.7605 C   0  0  0  0  0  0  0  0  0  0  0  0
  -26.7542  -29.3188   21.7900 C   0  0  1  0  0  0  0  0  0  0  0  0
  -29.6791  -27.0437   22.5888 C   0  0  2  0  0  0  0  0  0  0  0  0
  -26.8885  -30.8623   21.9214 C   0  0  0  0  0  0  0  0  0  0  0  0
  -29.4272  -19.3414   23.4049 N   0  0  0  0  0  0  0  0  0  0  0  0
  -29.1304  -20.5454   23.9230 N   0  0  0  0  0  0  0  0  0  0  0  0
  -24.6013  -28.1284   21.5222 N   0  0  0  0  0  0  0  0  0  0  0  0
  -31.7864  -22.7200   22.2582 N   0  0  0  0  0  0  0  0  0  0  0  0
  -26.2060  -22.1350   18.4725 N   0  0  0  0  0  0  0  0  0  0  0  0
  -27.4841  -21.7154   25.1605 N   0  0  0  0  0  0  0  0  0  0  0  0
  -25.7796  -17.5454   24.8410 N   0  0  0  0  0  0  0  0  0  0  0  0
  -30.7204  -23.5605   20.3189 N   0  0  0  0  0  0  0  0  0  0  0  0
  -21.2987  -29.1307   22.4269 N   0  0  0  0  0  0  0  0  0  0  0  0
  -27.8348  -28.5691   22.4213 N   0  0  0  0  0  0  0  0  0  0  0  0
  -29.4595  -25.5713   22.6580 N   0  3  0  0  0  0  0  0  0  0  0  0
  -31.1252  -25.4583   19.0281 O   0  0  0  0  0  0  0  0  0  0  0  0
  -25.3987  -19.6554   25.6545 O   0  0  0  0  0  0  0  0  0  0  0  0
  -22.5581  -29.4649   20.4970 O   0  0  0  0  0  0  0  0  0  0  0  0
  -25.2527  -28.9763   23.5941 O   0  0  0  0  0  0  0  0  0  0  0  0
  -28.5199  -27.4513   20.5086 O   0  0  0  0  0  0  0  0  0  0  0  0
  -32.5386  -24.6545   21.2218 O   0  0  0  0  0  0  0  0  0  0  0  0
  -28.1499  -13.2064   22.2739 O   0  0  0  0  0  0  0  0  0  0  0  0
  -23.8061  -25.4535   16.0207 O   0  0  0  0  0  0  0  0  0  1  0  0
  -26.2525  -23.0247   15.7996 O   0  0  0  0  0  0  0  0  0  0  0  0
  -29.5177  -11.9031   17.0937 F   0  0  0  0  0  0  0  0  0  0  0  0
  -30.6681  -13.7761   21.2858 F   0  0  0  0  0  0  0  0  0  0  0  0
  1  2  1  0  0  0  0
  1  6  2  0  0  0  0
  2  7  2  0  0  0  0
  3  9  2  0  0  0  0
  3 18  1  0  0  0  0
  4 10  1  0  0  0  0
  4 18  2  0  0  0  0
  5 11  2  0  0  0  0
  5 19  1  0  0  0  0
  6 21  1  0  0  0  0
  7 23  1  0  0  0  0
  8 12  2  0  0  0  0
  8 22  1  0  0  0  0
  9 26  1  0  0  0  0
 10 26  2  0  0  0  0
 11 28  1  0  0  0  0
 12 27  1  0  0  0  0
 13 14  2  0  0  0  0
 13 29  1  0  0  0  0
 14 30  1  0  0  0  0
 15 19  2  0  0  0  0
 15 25  1  0  0  0  0
 16 24  1  0  0  0  0
 16 27  2  0  0  0  0
 17 30  2  0  0  0  0
 17 31  1  0  0  0  0
 18 32  1  0  0  0  0
 19 34  1  0  0  0  0
 20 32  1  0  0  0  0
 20 33  2  0  0  0  0
 20 35  1  0  0  0  0
 21 23  2  0  0  0  0
 21 40  1  0  0  0  0
 22 24  2  0  0  0  0
 22 41  1  0  0  0  0
 23 49  1  0  0  0  0
 24 42  1  0  0  0  0
 25 28  2  0  0  0  0
 25 67  1  0  0  0  0
 26 80  1  0  0  0  0
 27 81  1  0  0  0  0
 28 82  1  0  0  0  0
 29 31  2  0  0  0  0
 29 80  1  0  0  0  0
 30 83  1  0  0  0  0
 31 84  1  0  0  0  0
 32 63  2  0  0  0  0
 33 64  1  0  0  0  0
 33 68  1  0  0  0  0
 34 70  1  0  0  0  0
 34 74  2  0  0  0  0
 35 69  1  0  0  0  0
 35 75  2  0  0  0  0
 36 50  1  0  0  0  0
 36 71  1  0  0  0  0
 36 76  2  0  0  0  0
 37 60  1  0  0  0  0
 37 65  1  0  0  0  0
 37 77  2  0  0  0  0
 38 61  1  0  0  0  0
 38 72  1  0  0  0  0
 38 78  2  0  0  0  0
 39 66  1  0  0  0  0
 39 70  1  0  0  0  0
 39 79  2  0  0  0  0
 40 43  1  0  0  0  0
 41 50  1  0  0  0  0
 42 65  1  0  0  0  0
 43 45  1  0  0  0  0
 44 46  1  0  0  0  0
 44 47  1  0  0  0  0
 45 49  1  0  0  0  0
 46 51  1  0  0  0  0
 47 66  1  0  0  0  0
 48 51  1  0  0  0  0
 48 66  1  0  0  0  0
 49 71  1  0  0  0  0
 50 65  1  0  0  0  0
 51 64  1  0  0  0  0
 52 61  1  0  0  0  0
 53 62  1  0  0  0  0
 54 62  1  0  0  0  0
 55 62  1  0  0  0  0
 56 73  1  0  0  0  0
 57 58  1  0  0  0  0
 57 59  1  0  0  0  0
 58 81  1  0  0  0  0
 59 82  1  0  0  0  0
 60 62  1  0  0  0  0
 60 72  1  0  0  0  0
 61 73  1  0  0  0  0
 63 64  1  0  0  0  0
M  CHG  1  73   1
M  ISO  4  39 100  58 101  70 100  81 101
M  END
> <Batch ID>
0098

> <Smiles>
CNC(C)C(=O)NC(C(=O)N1Cc2cc([101O:1][101CH2:1]CCOc3ccc(C(=O)[100NH:0][100C:0](=O)N4CCCC(n5nc(-c6ccc(Oc7ccc(F)cc7F)cc6)c(C(N)=O)c5N)C4)cc3N)ccc2CC1C(=O)NC1CCCc2ccccc21)C(C)(C)C

> <Shape>
0.212

> <Color>
0.075

> <Negative vol penalty>
0.000

$$$$

  -OEChem-04052300513D

 87 96  0     1  0  0  0  0  0999 V2000
  -16.3043  -28.6177   22.9151 C   0  0  0  0  0  0  0  0  0  0  0  0
  -17.5410  -28.5783   23.5511 C   0  0  0  0  0  0  0  0  0  0  0  0
  -26.4161  -13.3018   19.1000 C   0  0  0  0  0  0  0  0  0  0  0  0
  -26.3665  -12.9600   21.4912 C   0  0  0  0  0  0  0  0  0  0  0  0
  -31.4963  -23.1106   19.1682 C   0  0  0  0  0  0  0  0  0  0  0  0
  -15.8605  -27.5143   22.1875 C   0  0  0  0  0  0  0  0  0  0  0  0
  -18.3342  -27.4351   23.4606 C   0  0  0  0  0  0  0  0  0  0  0  0
  -24.9803  -27.7417   20.6988 C   0  0  0  0  0  0  0  0  0  0  0  0
  -31.0268  -22.2126   20.1267 C   0  0  0  0  0  0  0  0  0  0  0  0
  -25.1702  -12.6851   18.9860 C   0  0  0  0  0  0  0  0  0  0  0  0
  -25.1205  -12.3433   21.3772 C   0  0  0  0  0  0  0  0  0  0  0  0
  -26.3378  -27.7574   20.3779 C   0  0  0  0  0  0  0  0  0  0  0  0
  -23.9111   -9.3198   20.4681 C   0  0  0  0  0  0  0  0  0  0  0  0
  -23.7071   -8.1353   21.1757 C   0  0  0  0  0  0  0  0  0  0  0  0
  -29.8866  -22.2579   17.5811 C   0  0  0  0  0  0  0  0  0  0  0  0
  -26.4473  -25.3602   20.6775 C   0  0  0  0  0  0  0  0  0  0  0  0
  -21.8873   -9.1694   22.3823 C   0  0  0  0  0  0  0  0  0  0  0  0
  -27.0143  -13.4392   20.3527 C   0  0  0  0  0  0  0  0  0  0  0  0
  -30.9261  -23.1333   17.8953 C   0  0  0  0  0  0  0  0  0  0  0  0
  -29.5089  -13.6695   19.8717 C   0  0  0  0  0  0  0  0  0  0  0  0
  -16.6529  -26.3605   22.0800 C   0  0  0  0  0  0  0  0  0  0  0  0
  -24.3468  -26.5317   20.9957 C   0  0  0  0  0  0  0  0  0  0  0  0
  -17.9000  -26.3147   22.7319 C   0  0  0  0  0  0  0  0  0  0  0  0
  -25.0849  -25.3367   20.9876 C   0  0  0  0  0  0  0  0  0  0  0  0
  -29.9873  -21.3373   19.8125 C   0  0  0  0  0  0  0  0  0  0  0  0
  -24.5224  -12.2059   20.1246 C   0  0  0  0  0  0  0  0  0  0  0  0
  -27.0695  -26.5696   20.3675 C   0  0  0  0  0  0  0  0  0  0  0  0
  -23.1032  -10.4293   20.7176 C   0  0  0  0  0  0  0  0  0  0  0  0
  -22.6952   -8.0600   22.1328 C   0  0  0  0  0  0  0  0  0  0  0  0
  -29.4171  -21.3599   18.5396 C   0  0  0  0  0  0  0  0  0  0  0  0
  -22.0913  -10.3540   21.6747 C   0  0  0  0  0  0  0  0  0  0  0  0
  -28.3016  -14.0756   20.4710 C   0  0  0  0  0  0  0  0  0  0  0  0
  -30.4299  -14.5981   20.2914 C   0  0  0  0  0  0  0  0  0  0  0  0
  -31.4205  -24.0785   16.8862 C   0  0  0  0  0  0  0  0  0  0  0  0
  -29.7743  -12.5529   19.0125 C   0  0  0  0  0  0  0  0  0  0  0  0
  -21.1632  -24.7791   21.9279 C   0  0  0  0  0  0  0  0  0  0  0  0
  -22.5903  -23.0021   19.8746 C   0  0  0  0  0  0  0  0  0  0  0  0
  -23.3899  -20.8004   17.3946 C   0  0  0  0  0  0  0  0  0  0  0  0
  -29.9707  -20.2756   22.0970 C   0  0  0  0  0  0  0  0  0  0  0  0
  -16.1102  -25.1752   21.3217 C   0  0  0  0  0  0  0  0  0  0  0  0
  -22.9006  -26.4752   21.4070 C   0  0  0  0  0  0  0  0  0  0  0  0
  -24.3696  -24.0632   21.3473 C   0  0  0  0  0  0  0  0  0  0  0  0
  -17.1750  -24.1417   20.9635 C   0  0  0  0  0  0  0  0  0  0  0  0
  -31.6694  -27.6279   16.5048 C   0  0  0  0  0  0  0  0  0  0  0  0
  -31.3653  -17.5631   23.9339 C   0  0  0  0  0  0  0  0  0  0  0  0
  -18.0572  -23.8434   22.1717 C   0  0  0  0  0  0  0  0  0  0  0  0
  -30.5234  -28.1578   17.3661 C   0  0  0  0  0  0  0  0  0  0  0  0
  -30.8528  -16.3241   23.1962 C   0  0  0  0  0  0  0  0  0  0  0  0
  -31.3022  -26.3092   15.8305 C   0  0  0  0  0  0  0  0  0  0  0  0
  -30.3199  -18.6766   23.9668 C   0  0  0  0  0  0  0  0  0  0  0  0
  -29.6859  -25.7927   17.6277 C   0  0  0  0  0  0  0  0  0  0  0  0
  -29.2567  -17.8110   21.9199 C   0  0  0  0  0  0  0  0  0  0  0  0
  -18.8001  -25.1019   22.6365 C   0  0  1  0  0  0  0  0  0  0  0  0
  -22.1817  -25.2071   20.9126 C   0  0  1  0  0  0  0  0  0  0  0  0
  -30.0312  -27.0954   18.3603 C   0  0  2  0  0  0  0  0  0  0  0  0
  -30.2984  -16.6861   21.8044 C   0  0  2  0  0  0  0  0  0  0  0  0
  -23.0391  -18.4186   16.6865 C   0  0  0  0  0  0  0  0  0  0  0  0
  -24.6007  -22.0847   21.9772 C   0  0  0  0  0  0  0  0  0  0  0  0
  -24.9243  -19.9867   20.6499 C   0  0  0  0  0  0  0  0  0  0  0  0
  -22.6851  -20.5191   21.6118 C   0  0  0  0  0  0  0  0  0  0  0  0
  -22.0545  -21.6216   14.8844 C   0  0  0  0  0  0  0  0  0  0  0  0
  -28.8264  -27.6082   19.1460 C   0  0  0  0  0  0  0  0  0  1  0  0
  -23.5344  -21.8506   19.6375 C   0  0  1  0  0  0  0  0  0  0  0  0
  -22.5345  -19.8491   16.5774 C   0  0  2  0  0  0  0  0  0  0  0  0
  -23.9404  -21.1357   20.9572 C   0  0  0  0  0  0  0  0  0  0  0  0
  -28.4398  -15.1763   21.2149 N   0  0  0  0  0  0  0  0  0  0  0  0
  -29.7449  -15.4697   21.0859 N   0  0  0  0  0  0  0  0  0  0  0  0
  -30.8231  -25.3396   16.8149 N   0  0  0  0  0  0  0  0  0  0  0  0
  -23.0457  -24.0324   20.7063 N   0  0  0  0  0  0  0  0  0  0  0  0
  -29.8436  -18.9686   22.6130 N   0  0  0  0  0  0  0  0  0  0  0  0
  -31.7507  -14.7458   20.0547 N   0  0  0  0  0  0  0  0  0  0  0  0
  -30.1520  -11.3358   19.5959 N   0  0  0  0  0  0  0  0  0  0  0  0
  -29.5131  -20.4259   20.7883 N   0  0  0  0  0  0  0  0  0  0  0  0
  -19.9260  -25.3736   21.7688 N   0  0  0  0  0  0  0  0  0  0  0  0
  -22.8821  -20.9819   18.6636 N   0  0  0  0  0  0  0  0  0  0  0  0
  -22.5485  -20.2442   15.1405 N   0  3  0  0  0  0  0  0  0  0  0  0
  -32.3454  -23.6823   16.1784 O   0  0  0  0  0  0  0  0  0  0  0  0
  -29.6952  -12.6365   17.7634 O   0  0  0  0  0  0  0  0  0  0  0  0
  -21.4752  -23.9679   22.7918 O   0  0  0  0  0  0  0  0  0  0  0  0
  -21.4767  -22.9883   19.3428 O   0  0  0  0  0  0  0  0  0  0  0  0
  -24.4088  -21.3267   16.9526 O   0  0  0  0  0  0  0  0  0  0  0  0
  -30.4750  -21.1877   22.7571 O   0  0  0  0  0  0  0  0  0  0  0  0
  -23.3065  -11.6043   20.0137 O   0  0  0  0  0  0  0  0  0  0  0  0
  -28.3934  -26.5915   20.0489 O   0  0  0  0  0  0  0  0  0  1  0  0
  -22.4984   -6.9219   22.8112 F   0  0  0  0  0  0  0  0  0  0  0  0
  -28.4178  -20.5228   18.2259 F   0  0  0  0  0  0  0  0  0  0  0  0
  -21.3112  -11.4162   21.9179 F   0  0  0  0  0  0  0  0  0  0  0  0
  1  2  1  0  0  0  0
  1  6  2  0  0  0  0
  2  7  2  0  0  0  0
  3 10  2  0  0  0  0
  3 18  1  0  0  0  0
  4 11  1  0  0  0  0
  4 18  2  0  0  0  0
  5  9  2  0  0  0  0
  5 19  1  0  0  0  0
  6 21  1  0  0  0  0
  7 23  1  0  0  0  0
  8 12  2  0  0  0  0
  8 22  1  0  0  0  0
  9 25  1  0  0  0  0
 10 26  1  0  0  0  0
 11 26  2  0  0  0  0
 12 27  1  0  0  0  0
 13 14  2  0  0  0  0
 13 28  1  0  0  0  0
 14 29  1  0  0  0  0
 15 19  2  0  0  0  0
 15 30  1  0  0  0  0
 16 24  1  0  0  0  0
 16 27  2  0  0  0  0
 17 29  2  0  0  0  0
 17 31  1  0  0  0  0
 18 32  1  0  0  0  0
 19 34  1  0  0  0  0
 20 32  1  0  0  0  0
 20 33  2  0  0  0  0
 20 35  1  0  0  0  0
 21 23  2  0  0  0  0
 21 40  1  0  0  0  0
 22 24  2  0  0  0  0
 22 41  1  0  0  0  0
 23 53  1  0  0  0  0
 24 42  1  0  0  0  0
 25 30  2  0  0  0  0
 25 73  1  0  0  0  0
 26 83  1  0  0  0  0
 27 84  1  0  0  0  0
 28 31  2  0  0  0  0
 28 83  1  0  0  0  0
 29 85  1  0  0  0  0
 30 86  1  0  0  0  0
 31 87  1  0  0  0  0
 32 66  2  0  0  0  0
 33 67  1  0  0  0  0
 33 71  1  0  0  0  0
 34 68  1  0  0  0  0
 34 77  2  0  0  0  0
 35 72  1  0  0  0  0
 35 78  2  0  0  0  0
 36 54  1  0  0  0  0
 36 74  1  0  0  0  0
 36 79  2  0  0  0  0
 37 63  1  0  0  0  0
 37 69  1  0  0  0  0
 37 80  2  0  0  0  0
 38 64  1  0  0  0  0
 38 75  1  0  0  0  0
 38 81  2  0  0  0  0
 39 70  1  0  0  0  0
 39 73  1  0  0  0  0
 39 82  2  0  0  0  0
 40 43  1  0  0  0  0
 41 54  1  0  0  0  0
 42 69  1  0  0  0  0
 43 46  1  0  0  0  0
 44 47  1  0  0  0  0
 44 49  1  0  0  0  0
 45 48  1  0  0  0  0
 45 50  1  0  0  0  0
 46 53  1  0  0  0  0
 47 55  1  0  0  0  0
 48 56  1  0  0  0  0
 49 68  1  0  0  0  0
 50 70  1  0  0  0  0
 51 55  1  0  0  0  0
 51 68  1  0  0  0  0
 52 56  1  0  0  0  0
 52 70  1  0  0  0  0
 53 74  1  0  0  0  0
 54 69  1  0  0  0  0
 55 62  1  0  0  0  0
 56 67  1  0  0  0  0
 57 64  1  0  0  0  0
 58 65  1  0  0  0  0
 59 65  1  0  0  0  0
 60 65  1  0  0  0  0
 61 76  1  0  0  0  0
 62 84  1  0  0  0  0
 63 65  1  0  0  0  0
 63 75  1  0  0  0  0
 64 76  1  0  0  0  0
 66 67  1  0  0  0  0
M  CHG  1  76   1
M  ISO  4  39 100  62 101  73 100  84 101
M  END
> <Batch ID>
0098

> <Smiles>
CNC(C)C(=O)NC(C(=O)N1Cc2cc([101O:1][101CH2:1]C3CCCN(C(=O)c4ccc([100NH:0][100C:0](=O)N5CCCC(n6nc(-c7ccc(Oc8ccc(F)cc8F)cc7)c(C(N)=O)c6N)C5)c(F)c4)C3)ccc2CC1C(=O)NC1CCCc2ccccc21)C(C)(C)C

> <Shape>
0.246

> <Color>
0.067

> <Negative vol penalty>
0.000

$$$$

  -OEChem-04052300513D

 82 90  0     1  0  0  0  0  0999 V2000
  -22.4484  -31.7157   14.2516 C   0  0  0  0  0  0  0  0  0  0  0  0
  -23.4521  -30.9585   14.8471 C   0  0  0  0  0  0  0  0  0  0  0  0
  -23.4192  -10.1209   21.3718 C   0  0  0  0  0  0  0  0  0  0  0  0
  -22.7585  -12.3435   20.6931 C   0  0  0  0  0  0  0  0  0  0  0  0
  -22.0701  -32.9345   14.8132 C   0  0  0  0  0  0  0  0  0  0  0  0
  -24.0790  -31.4202   16.0039 C   0  0  0  0  0  0  0  0  0  0  0  0
  -24.6063  -27.7996   19.5050 C   0  0  0  0  0  0  0  0  0  0  0  0
  -28.2489  -18.1662   19.2409 C   0  0  0  0  0  0  0  0  0  0  0  0
  -28.2562  -19.5503   19.4134 C   0  0  0  0  0  0  0  0  0  0  0  0
  -22.3122  -10.0501   22.2174 C   0  0  0  0  0  0  0  0  0  0  0  0
  -21.6515  -12.2727   21.5387 C   0  0  0  0  0  0  0  0  0  0  0  0
  -25.6389  -26.8812   19.3207 C   0  0  0  0  0  0  0  0  0  0  0  0
  -18.9942   -9.4641   21.9336 C   0  0  0  0  0  0  0  0  0  0  0  0
  -18.2427   -8.2891   21.9206 C   0  0  0  0  0  0  0  0  0  0  0  0
  -26.9934  -28.0952   20.9051 C   0  0  0  0  0  0  0  0  0  0  0  0
  -30.3502  -18.0077   20.4226 C   0  0  0  0  0  0  0  0  0  0  0  0
  -18.7082   -7.9655   24.2692 C   0  0  0  0  0  0  0  0  0  0  0  0
  -23.6424  -11.2677   20.6096 C   0  0  0  0  0  0  0  0  0  0  0  0
  -24.8513  -10.9490   18.3860 C   0  0  0  0  0  0  0  0  0  0  0  0
  -22.6860  -33.4068   15.9829 C   0  0  0  0  0  0  0  0  0  0  0  0
  -24.7638  -28.8807   20.3841 C   0  0  0  0  0  0  0  0  0  0  0  0
  -23.7096  -32.6471   16.5809 C   0  0  0  0  0  0  0  0  0  0  0  0
  -25.9604  -29.0245   21.1008 C   0  0  0  0  0  0  0  0  0  0  0  0
  -29.2959  -17.3949   19.7455 C   0  0  0  0  0  0  0  0  0  0  0  0
  -29.3105  -20.1631   20.0905 C   0  0  0  0  0  0  0  0  0  0  0  0
  -21.4283  -11.1259   22.3009 C   0  0  0  0  0  0  0  0  0  0  0  0
  -26.8338  -27.0305   20.0186 C   0  0  0  0  0  0  0  0  0  0  0  0
  -19.6028   -9.8898   23.1143 C   0  0  0  0  0  0  0  0  0  0  0  0
  -18.0997   -7.5398   23.0884 C   0  0  0  0  0  0  0  0  0  0  0  0
  -30.3576  -19.3919   20.5951 C   0  0  0  0  0  0  0  0  0  0  0  0
  -19.4597   -9.1405   24.2821 C   0  0  0  0  0  0  0  0  0  0  0  0
  -24.7860  -11.3417   19.7363 C   0  0  0  0  0  0  0  0  0  0  0  0
  -26.1448  -11.2201   18.0117 C   0  0  0  0  0  0  0  0  0  0  0  0
  -23.8338  -10.3893   17.5451 C   0  0  0  0  0  0  0  0  0  0  0  0
  -24.7541  -32.0441   20.0735 C   0  0  0  0  0  0  0  0  0  0  0  0
  -24.9352  -31.9725   23.3114 C   0  0  0  0  0  0  0  0  0  0  0  0
  -25.8176  -30.2569   26.1266 C   0  0  0  0  0  0  0  0  0  0  0  0
  -30.2486  -15.0775   20.0077 C   0  0  0  0  0  0  0  0  0  0  0  0
  -22.2761  -34.7527   16.5265 C   0  0  0  0  0  0  0  0  0  0  0  0
  -23.6305  -29.8476   20.5919 C   0  0  0  0  0  0  0  0  0  0  0  0
  -26.1722  -30.1565   22.0715 C   0  0  0  0  0  0  0  0  0  0  0  0
  -22.7304  -34.9930   17.9639 C   0  0  0  0  0  0  0  0  0  0  0  0
  -30.5738  -11.5377   19.8054 C   0  0  0  0  0  0  0  0  0  0  0  0
  -24.1931  -34.5956   18.1350 C   0  0  0  0  0  0  0  0  0  0  0  0
  -29.1330  -11.0504   19.6357 C   0  0  0  0  0  0  0  0  0  0  0  0
  -30.6590  -12.7399   20.7441 C   0  0  0  0  0  0  0  0  0  0  0  0
  -28.3347  -13.3736   20.2292 C   0  0  0  0  0  0  0  0  0  0  0  0
  -24.3961  -33.1025   17.8503 C   0  0  1  0  0  0  0  0  0  0  0  0
  -24.0900  -31.2011   21.1251 C   0  0  1  0  0  0  0  0  0  0  0  0
  -28.1905  -12.2044   19.2414 C   0  0  2  0  0  0  0  0  0  0  0  0
  -25.8815  -30.4725   28.6259 C   0  0  0  0  0  0  0  0  0  0  0  0
  -27.3786  -33.7866   23.0900 C   0  0  0  0  0  0  0  0  0  0  0  0
  -27.9445  -33.1964   25.4564 C   0  0  0  0  0  0  0  0  0  0  0  0
  -25.8067  -34.3754   24.9439 C   0  0  0  0  0  0  0  0  0  0  0  0
  -23.9892  -27.9578   26.4877 C   0  0  0  0  0  0  0  0  0  0  0  0
  -28.5440  -23.8489   20.0340 C   0  0  0  0  0  0  0  0  0  0  0  0
  -28.2338  -22.3871   19.7435 C   0  0  0  0  0  0  0  0  0  0  0  0
  -27.4748  -24.7983   19.5066 C   0  0  0  0  0  0  0  0  0  1  0  0
  -26.0590  -31.9387   24.3188 C   0  0  1  0  0  0  0  0  0  0  0  0
  -25.0744  -30.0027   27.4256 C   0  0  2  0  0  0  0  0  0  0  0  0
  -26.7942  -33.3039   24.4326 C   0  0  0  0  0  0  0  0  0  0  0  0
  -25.9457  -11.8253   20.1893 N   0  0  0  0  0  0  0  0  0  0  0  0
  -26.7520  -11.7382   19.1177 N   0  0  0  0  0  0  0  0  0  0  0  0
  -25.0368  -31.0793   22.2354 N   0  0  0  0  0  0  0  0  0  0  0  0
  -29.7424  -13.7947   20.3058 N   0  0  0  0  0  0  0  0  0  0  0  0
  -26.8105  -11.0634   16.8479 N   0  0  0  0  0  0  0  0  0  0  0  0
  -22.5600  -10.1760   18.0893 N   0  0  0  0  0  0  0  0  0  0  0  0
  -29.2883  -15.9889   19.5697 N   0  0  0  0  0  0  0  0  0  0  0  0
  -29.3156  -21.5194   20.2573 N   0  0  0  0  0  0  0  0  0  0  0  0
  -23.9555  -32.3086   18.9773 N   0  0  0  0  0  0  0  0  0  0  0  0
  -25.4721  -31.4700   25.5695 N   0  0  0  0  0  0  0  0  0  0  0  0
  -24.7961  -28.5475   27.5869 N   0  3  0  0  0  0  0  0  0  0  0  0
  -24.0524  -10.0720   16.3514 O   0  0  0  0  0  0  0  0  0  0  0  0
  -25.9054  -32.4275   20.2446 O   0  0  0  0  0  0  0  0  0  0  0  0
  -23.9981  -32.7574   23.4770 O   0  0  0  0  0  0  0  0  0  0  0  0
  -26.6266  -29.4608   25.6551 O   0  0  0  0  0  0  0  0  0  0  0  0
  -31.4501  -15.3400   20.1057 O   0  0  0  0  0  0  0  0  0  0  0  0
  -20.3479  -11.0570   23.1258 O   0  0  0  0  0  0  0  0  0  0  0  0
  -27.8435  -26.1359   19.8400 O   0  0  0  0  0  0  0  0  0  1  0  0
  -17.3767   -6.4123   23.0762 F   0  0  0  0  0  0  0  0  0  0  0  0
  -31.3766  -19.9709   21.2459 F   0  0  0  0  0  0  0  0  0  0  0  0
  -20.0410   -9.5451   25.4198 F   0  0  0  0  0  0  0  0  0  0  0  0
  1  2  1  0  0  0  0
  1  5  2  0  0  0  0
  2  6  2  0  0  0  0
  3 10  2  0  0  0  0
  3 18  1  0  0  0  0
  4 11  1  0  0  0  0
  4 18  2  0  0  0  0
  5 20  1  0  0  0  0
  6 22  1  0  0  0  0
  7 12  2  0  0  0  0
  7 21  1  0  0  0  0
  8  9  2  0  0  0  0
  8 24  1  0  0  0  0
  9 25  1  0  0  0  0
 10 26  1  0  0  0  0
 11 26  2  0  0  0  0
 12 27  1  0  0  0  0
 13 14  2  0  0  0  0
 13 28  1  0  0  0  0
 14 29  1  0  0  0  0
 15 23  1  0  0  0  0
 15 27  2  0  0  0  0
 16 24  2  0  0  0  0
 16 30  1  0  0  0  0
 17 29  2  0  0  0  0
 17 31  1  0  0  0  0
 18 32  1  0  0  0  0
 19 32  1  0  0  0  0
 19 33  2  0  0  0  0
 19 34  1  0  0  0  0
 20 22  2  0  0  0  0
 20 39  1  0  0  0  0
 21 23  2  0  0  0  0
 21 40  1  0  0  0  0
 22 48  1  0  0  0  0
 23 41  1  0  0  0  0
 24 68  1  0  0  0  0
 25 30  2  0  0  0  0
 25 69  1  0  0  0  0
 26 78  1  0  0  0  0
 27 79  1  0  0  0  0
 28 31  2  0  0  0  0
 28 78  1  0  0  0  0
 29 80  1  0  0  0  0
 30 81  1  0  0  0  0
 31 82  1  0  0  0  0
 32 62  2  0  0  0  0
 33 63  1  0  0  0  0
 33 66  1  0  0  0  0
 34 67  1  0  0  0  0
 34 73  2  0  0  0  0
 35 49  1  0  0  0  0
 35 70  1  0  0  0  0
 35 74  2  0  0  0  0
 36 59  1  0  0  0  0
 36 64  1  0  0  0  0
 36 75  2  0  0  0  0
 37 60  1  0  0  0  0
 37 71  1  0  0  0  0
 37 76  2  0  0  0  0
 38 65  1  0  0  0  0
 38 68  1  0  0  0  0
 38 77  2  0  0  0  0
 39 42  1  0  0  0  0
 40 49  1  0  0  0  0
 41 64  1  0  0  0  0
 42 44  1  0  0  0  0
 43 45  1  0  0  0  0
 43 46  1  0  0  0  0
 44 48  1  0  0  0  0
 45 50  1  0  0  0  0
 46 65  1  0  0  0  0
 47 50  1  0  0  0  0
 47 65  1  0  0  0  0
 48 70  1  0  0  0  0
 49 64  1  0  0  0  0
 50 63  1  0  0  0  0
 51 60  1  0  0  0  0
 52 61  1  0  0  0  0
 53 61  1  0  0  0  0
 54 61  1  0  0  0  0
 55 72  1  0  0  0  0
 56 57  1  0  0  0  0
 56 58  1  0  0  0  0
 57 69  1  0  0  0  0
 58 79  1  0  0  0  0
 59 61  1  0  0  0  0
 59 71  1  0  0  0  0
 60 72  1  0  0  0  0
 62 63  1  0  0  0  0
M  CHG  1  72   1
M  ISO  4  38 100  58 101  68 100  79 101
M  END
> <Batch ID>
0098

> <Smiles>
CNC(C)C(=O)NC(C(=O)N1Cc2cc([101O:1][101CH2:1]CCNc3ccc([100NH:0][100C:0](=O)N4CCCC(n5nc(-c6ccc(Oc7ccc(F)cc7F)cc6)c(C(N)=O)c5N)C4)cc3F)ccc2CC1C(=O)NC1CCCc2ccccc21)C(C)(C)C

> <Shape>
0.272

> <Color>
0.097

> <Negative vol penalty>
0.000

$$$$

  -OEChem-04052300513D

 88 97  0     1  0  0  0  0  0999 V2000
  -25.7727  -32.7747   20.8808 C   0  0  0  0  0  0  0  0  0  0  0  0
  -26.7285  -31.7826   20.6873 C   0  0  0  0  0  0  0  0  0  0  0  0
  -22.9097  -10.0984   19.9901 C   0  0  0  0  0  0  0  0  0  0  0  0
  -24.3505   -9.4319   21.8113 C   0  0  0  0  0  0  0  0  0  0  0  0
  -24.9763  -32.7602   22.0251 C   0  0  0  0  0  0  0  0  0  0  0  0
  -26.8893  -30.7759   21.6387 C   0  0  0  0  0  0  0  0  0  0  0  0
  -27.2993  -26.1794   19.5532 C   0  0  0  0  0  0  0  0  0  0  0  0
  -32.9443  -18.8333   17.3195 C   0  0  0  0  0  0  0  0  0  0  0  0
  -30.9078  -19.4473   18.4652 C   0  0  0  0  0  0  0  0  0  0  0  0
  -32.5716  -17.4904   17.3766 C   0  0  0  0  0  0  0  0  0  0  0  0
  -30.5350  -18.1044   18.5222 C   0  0  0  0  0  0  0  0  0  0  0  0
  -22.2268   -8.8860   20.0865 C   0  0  0  0  0  0  0  0  0  0  0  0
  -23.6676   -8.2194   21.9078 C   0  0  0  0  0  0  0  0  0  0  0  0
  -28.5318  -25.8403   18.9967 C   0  0  0  0  0  0  0  0  0  0  0  0
  -20.7571   -7.0986   23.2089 C   0  0  0  0  0  0  0  0  0  0  0  0
  -20.4050   -6.6545   24.4834 C   0  0  0  0  0  0  0  0  0  0  0  0
  -29.0752  -24.5822   20.9819 C   0  0  0  0  0  0  0  0  0  0  0  0
  -21.7192   -4.6549   24.1497 C   0  0  0  0  0  0  0  0  0  0  0  0
  -23.9716  -10.3714   20.8524 C   0  0  0  0  0  0  0  0  0  0  0  0
  -24.1418  -12.9161   20.9060 C   0  0  0  0  0  0  0  0  0  0  0  0
  -25.1207  -31.7473   22.9863 C   0  0  0  0  0  0  0  0  0  0  0  0
  -26.9494  -25.7306   20.8349 C   0  0  0  0  0  0  0  0  0  0  0  0
  -26.0950  -30.7485   22.7976 C   0  0  0  0  0  0  0  0  0  0  0  0
  -27.8366  -24.9148   21.5514 C   0  0  0  0  0  0  0  0  0  0  0  0
  -32.1125  -19.8118   17.8638 C   0  0  0  0  0  0  0  0  0  0  0  0
  -31.3669  -17.1260   17.9779 C   0  0  0  0  0  0  0  0  0  0  0  0
  -22.6058   -7.9465   21.0454 C   0  0  0  0  0  0  0  0  0  0  0  0
  -29.4212  -25.0440   19.7123 C   0  0  0  0  0  0  0  0  0  0  0  0
  -21.5902   -6.3208   22.4047 C   0  0  0  0  0  0  0  0  0  0  0  0
  -20.8860   -5.4327   24.9538 C   0  0  0  0  0  0  0  0  0  0  0  0
  -22.0713   -5.0990   22.8752 C   0  0  0  0  0  0  0  0  0  0  0  0
  -24.6777  -11.6234   20.7529 C   0  0  0  0  0  0  0  0  0  0  0  0
  -25.2123  -13.7560   20.7187 C   0  0  0  0  0  0  0  0  0  0  0  0
  -33.8552  -21.5753   17.8111 C   0  0  0  0  0  0  0  0  0  0  0  0
  -22.7966  -13.3215   21.1920 C   0  0  0  0  0  0  0  0  0  0  0  0
  -26.2675  -27.1455   23.5984 C   0  0  0  0  0  0  0  0  0  0  0  0
  -25.5766  -24.1167   24.5320 C   0  0  0  0  0  0  0  0  0  0  0  0
  -27.0093  -20.8346   24.0937 C   0  0  0  0  0  0  0  0  0  0  0  0
  -29.6221  -15.3528   18.0322 C   0  0  0  0  0  0  0  0  0  0  0  0
  -24.2693  -31.8002   24.2301 C   0  0  0  0  0  0  0  0  0  0  0  0
  -25.6050  -26.0831   21.4101 C   0  0  0  0  0  0  0  0  0  0  0  0
  -27.5003  -24.3905   22.9227 C   0  0  0  0  0  0  0  0  0  0  0  0
  -34.1639  -23.0121   17.4343 C   0  0  0  0  0  0  0  0  0  0  0  0
  -24.2461  -30.4872   25.0085 C   0  0  0  0  0  0  0  0  0  0  0  0
  -33.1286  -24.0146   17.8948 C   0  0  0  0  0  0  0  0  0  0  0  0
  -30.1600  -12.7853   20.4325 C   0  0  0  0  0  0  0  0  0  0  0  0
  -25.6587  -29.9324   25.1618 C   0  0  0  0  0  0  0  0  0  0  0  0
  -28.7272  -12.3493   20.7367 C   0  0  0  0  0  0  0  0  0  0  0  0
  -30.3615  -13.0945   18.9487 C   0  0  0  0  0  0  0  0  0  0  0  0
  -31.4305  -22.2101   17.9522 C   0  0  0  0  0  0  0  0  0  0  0  0
  -27.9590  -13.6360   18.7056 C   0  0  0  0  0  0  0  0  0  0  0  0
  -26.2823  -29.6258   23.7949 C   0  0  1  0  0  0  0  0  0  0  0  0
  -25.5652  -25.9960   22.9327 C   0  0  1  0  0  0  0  0  0  0  0  0
  -31.7655  -23.5856   17.3775 C   0  0  1  0  0  0  0  0  0  0  0  0
  -27.7124  -13.3739   20.1996 C   0  0  1  0  0  0  0  0  0  0  0  0
  -34.0628  -13.5956   18.8576 C   0  0  0  0  0  0  0  0  0  0  0  0
  -25.9338  -18.5675   24.1248 C   0  0  0  0  0  0  0  0  0  0  0  0
  -26.3718  -24.0994   27.4777 C   0  0  0  0  0  0  0  0  0  0  0  0
  -26.9182  -21.6673   27.2440 C   0  0  0  0  0  0  0  0  0  0  0  0
  -24.5829  -22.4607   26.8704 C   0  0  0  0  0  0  0  0  0  0  0  0
  -28.0752  -20.1642   21.4154 C   0  0  0  0  0  0  0  0  0  0  0  0
  -30.6917  -24.6057   17.7502 C   0  0  0  0  0  0  0  0  0  1  0  0
  -32.9680  -14.6364   19.0463 C   0  0  0  0  0  0  0  0  0  0  0  0
  -32.0171  -14.7133   17.8577 C   0  0  0  0  0  0  0  0  0  0  0  0
  -26.3598  -22.9835   25.1495 C   0  0  1  0  0  0  0  0  0  0  0  0
  -26.4474  -19.7026   23.2527 C   0  0  2  0  0  0  0  0  0  0  0  0
  -26.0707  -22.8220   26.6687 C   0  0  0  0  0  0  0  0  0  0  0  0
  -25.9869  -11.6359   20.4885 N   0  0  0  0  0  0  0  0  0  0  0  0
  -26.2826  -12.9468   20.4739 N   0  0  0  0  0  0  0  0  0  0  0  0
  -32.4993  -21.2053   17.8050 N   0  0  0  0  0  0  0  0  0  0  0  0
  -26.1765  -24.7679   23.4448 N   0  0  0  0  0  0  0  0  0  0  0  0
  -29.3463  -14.0443   18.4719 N   0  0  0  0  0  0  0  0  0  0  0  0
  -25.3331  -15.1004   20.7410 N   0  0  0  0  0  0  0  0  0  0  0  0
  -22.4138  -13.4687   22.5322 N   0  0  0  0  0  0  0  0  0  0  0  0
  -25.7563  -28.3856   23.2661 N   0  0  0  0  0  0  0  0  0  0  0  0
  -26.0580  -21.7980   24.3546 N   0  0  0  0  0  0  0  0  0  0  0  0
  -30.9807  -15.7358   18.0372 N   0  0  0  0  0  0  0  0  0  0  0  0
  -27.4982  -19.1600   22.3458 N   0  3  0  0  0  0  0  0  0  0  0  0
  -34.8036  -20.8189   18.0373 O   0  0  0  0  0  0  0  0  0  0  0  0
  -21.9542  -13.5307   20.2864 O   0  0  0  0  0  0  0  0  0  0  0  0
  -27.2028  -26.9237   24.3584 O   0  0  0  0  0  0  0  0  0  0  0  0
  -24.4702  -24.4087   24.9926 O   0  0  0  0  0  0  0  0  0  0  0  0
  -28.1746  -20.8597   24.4836 O   0  0  0  0  0  0  0  0  0  0  0  0
  -28.7272  -16.1114   17.6404 O   0  0  0  0  0  0  0  0  0  0  0  0
  -21.9395   -6.7634   21.1399 O   0  0  0  0  0  0  0  0  0  0  0  0
  -30.6251  -24.7121   19.1717 O   0  0  0  0  0  0  0  0  0  1  0  0
  -20.5491   -5.0070   26.1784 F   0  0  0  0  0  0  0  0  0  0  0  0
  -22.8730   -4.3479   22.1077 F   0  0  0  0  0  0  0  0  0  0  0  0
  1  2  1  0  0  0  0
  1  5  2  0  0  0  0
  2  6  2  0  0  0  0
  3 12  2  0  0  0  0
  3 19  1  0  0  0  0
  4 13  1  0  0  0  0
  4 19  2  0  0  0  0
  5 21  1  0  0  0  0
  6 23  1  0  0  0  0
  7 14  2  0  0  0  0
  7 22  1  0  0  0  0
  8 10  2  0  0  0  0
  8 25  1  0  0  0  0
  9 11  1  0  0  0  0
  9 25  2  0  0  0  0
 10 26  1  0  0  0  0
 11 26  2  0  0  0  0
 12 27  1  0  0  0  0
 13 27  2  0  0  0  0
 14 28  1  0  0  0  0
 15 16  2  0  0  0  0
 15 29  1  0  0  0  0
 16 30  1  0  0  0  0
 17 24  1  0  0  0  0
 17 28  2  0  0  0  0
 18 30  2  0  0  0  0
 18 31  1  0  0  0  0
 19 32  1  0  0  0  0
 20 32  1  0  0  0  0
 20 33  2  0  0  0  0
 20 35  1  0  0  0  0
 21 23  2  0  0  0  0
 21 40  1  0  0  0  0
 22 24  2  0  0  0  0
 22 41  1  0  0  0  0
 23 52  1  0  0  0  0
 24 42  1  0  0  0  0
 25 70  1  0  0  0  0
 26 77  1  0  0  0  0
 27 85  1  0  0  0  0
 28 86  1  0  0  0  0
 29 31  2  0  0  0  0
 29 85  1  0  0  0  0
 30 87  1  0  0  0  0
 31 88  1  0  0  0  0
 32 68  2  0  0  0  0
 33 69  1  0  0  0  0
 33 73  1  0  0  0  0
 34 43  1  0  0  0  0
 34 70  1  0  0  0  0
 34 79  2  0  0  0  0
 35 74  1  0  0  0  0
 35 80  2  0  0  0  0
 36 53  1  0  0  0  0
 36 75  1  0  0  0  0
 36 81  2  0  0  0  0
 37 65  1  0  0  0  0
 37 71  1  0  0  0  0
 37 82  2  0  0  0  0
 38 66  1  0  0  0  0
 38 76  1  0  0  0  0
 38 83  2  0  0  0  0
 39 72  1  0  0  0  0
 39 77  1  0  0  0  0
 39 84  2  0  0  0  0
 40 44  1  0  0  0  0
 41 53  1  0  0  0  0
 42 71  1  0  0  0  0
 43 45  1  0  0  0  0
 44 47  1  0  0  0  0
 45 54  1  0  0  0  0
 46 48  1  0  0  0  0
 46 49  1  0  0  0  0
 47 52  1  0  0  0  0
 48 55  1  0  0  0  0
 49 72  1  0  0  0  0
 50 54  1  0  0  0  0
 50 70  1  0  0  0  0
 51 55  1  0  0  0  0
 51 72  1  0  0  0  0
 52 75  1  0  0  0  0
 53 71  1  0  0  0  0
 54 62  1  0  0  0  0
 55 69  1  0  0  0  0
 56 63  1  0  0  0  0
 57 66  1  0  0  0  0
 58 67  1  0  0  0  0
 59 67  1  0  0  0  0
 60 67  1  0  0  0  0
 61 78  1  0  0  0  0
 62 86  1  0  0  0  0
 63 64  1  0  0  0  0
 64 77  1  0  0  0  0
 65 67  1  0  0  0  0
 65 76  1  0  0  0  0
 66 78  1  0  0  0  0
 68 69  1  0  0  0  0
M  CHG  1  78   1
M  ISO  4  39 100  62 101  77 100  86 101
M  END
> <Batch ID>
0098

> <Smiles>
CCC[100N:0](c1ccc(N2CC([101CH2:1][101O:1]c3ccc4c(c3)CN(C(=O)C(NC(=O)C(C)NC)C(C)(C)C)C(C(=O)NC3CCCc5ccccc53)C4)CCC2=O)cc1)[100C:0](=O)N1CCCC(n2nc(-c3ccc(Oc4ccc(F)cc4F)cc3)c(C(N)=O)c2N)C1

> <Shape>
0.253

> <Color>
0.171

> <Negative vol penalty>
0.000

$$$$

  -OEChem-04052300513D

 88 97  0     1  0  0  0  0  0999 V2000
  -16.4397  -29.1898   23.5936 C   0  0  0  0  0  0  0  0  0  0  0  0
  -17.3821  -28.2772   23.1306 C   0  0  0  0  0  0  0  0  0  0  0  0
  -22.9380   -9.6978   20.0550 C   0  0  0  0  0  0  0  0  0  0  0  0
  -24.1663   -9.5386   22.1294 C   0  0  0  0  0  0  0  0  0  0  0  0
  -16.8455  -30.4543   24.0184 C   0  0  0  0  0  0  0  0  0  0  0  0
  -18.7309  -28.6289   23.0911 C   0  0  0  0  0  0  0  0  0  0  0  0
  -23.5253  -24.9492   24.0804 C   0  0  0  0  0  0  0  0  0  0  0  0
  -22.2462   -8.5297   20.3750 C   0  0  0  0  0  0  0  0  0  0  0  0
  -23.4745   -8.3705   22.4494 C   0  0  0  0  0  0  0  0  0  0  0  0
  -24.3857  -24.2762   23.2140 C   0  0  0  0  0  0  0  0  0  0  0  0
  -20.4352   -7.5314   23.6656 C   0  0  0  0  0  0  0  0  0  0  0  0
  -19.9429   -7.4069   24.9647 C   0  0  0  0  0  0  0  0  0  0  0  0
  -25.9701  -26.0866   23.3908 C   0  0  0  0  0  0  0  0  0  0  0  0
  -29.0711  -19.8242   22.0982 C   0  0  0  0  0  0  0  0  0  0  0  0
  -30.1298  -19.3967   19.9690 C   0  0  0  0  0  0  0  0  0  0  0  0
  -21.2820   -5.4211   25.2818 C   0  0  0  0  0  0  0  0  0  0  0  0
  -23.8981  -10.2023   20.9322 C   0  0  0  0  0  0  0  0  0  0  0  0
  -24.0665  -12.6850   20.3705 C   0  0  0  0  0  0  0  0  0  0  0  0
  -18.2011  -30.8182   23.9932 C   0  0  0  0  0  0  0  0  0  0  0  0
  -23.8767  -26.2031   24.6007 C   0  0  0  0  0  0  0  0  0  0  0  0
  -19.1551  -29.8998   23.5147 C   0  0  0  0  0  0  0  0  0  0  0  0
  -25.1136  -26.7723   24.2655 C   0  0  0  0  0  0  0  0  0  0  0  0
  -29.0124  -18.4525   22.3444 C   0  0  0  0  0  0  0  0  0  0  0  0
  -29.6297  -20.2963   20.9104 C   0  0  0  0  0  0  0  0  0  0  0  0
  -29.5125  -17.5529   21.4030 C   0  0  0  0  0  0  0  0  0  0  0  0
  -22.5144   -7.8660   21.5722 C   0  0  0  0  0  0  0  0  0  0  0  0
  -25.6070  -24.8462   22.8668 C   0  0  0  0  0  0  0  0  0  0  0  0
  -21.3509   -6.6008   23.1746 C   0  0  0  0  0  0  0  0  0  0  0  0
  -30.0712  -18.0250   20.2153 C   0  0  0  0  0  0  0  0  0  0  0  0
  -20.3663   -6.3518   25.7729 C   0  0  0  0  0  0  0  0  0  0  0  0
  -21.7743   -5.5456   23.9827 C   0  0  0  0  0  0  0  0  0  0  0  0
  -24.6135  -11.4086   20.6019 C   0  0  0  0  0  0  0  0  0  0  0  0
  -25.1530  -13.4798   20.0974 C   0  0  0  0  0  0  0  0  0  0  0  0
  -30.7197  -22.2655   19.8691 C   0  0  0  0  0  0  0  0  0  0  0  0
  -22.6987  -13.1139   20.4000 C   0  0  0  0  0  0  0  0  0  0  0  0
  -22.6562  -29.1320   24.4123 C   0  0  0  0  0  0  0  0  0  0  0  0
  -24.9719  -29.8150   26.5786 C   0  0  0  0  0  0  0  0  0  0  0  0
  -27.9968  -29.0086   27.9376 C   0  0  0  0  0  0  0  0  0  0  0  0
  -30.3400  -15.1830   21.1913 C   0  0  0  0  0  0  0  0  0  0  0  0
  -18.5863  -32.2131   24.4182 C   0  0  0  0  0  0  0  0  0  0  0  0
  -22.9492  -26.9039   25.5551 C   0  0  0  0  0  0  0  0  0  0  0  0
  -25.5467  -28.1069   24.8130 C   0  0  0  0  0  0  0  0  0  0  0  0
  -30.5252  -23.6952   19.4003 C   0  0  0  0  0  0  0  0  0  0  0  0
  -20.0785  -32.3749   24.6964 C   0  0  0  0  0  0  0  0  0  0  0  0
  -29.8086  -24.5854   20.3917 C   0  0  0  0  0  0  0  0  0  0  0  0
  -29.9811  -12.2604   19.1895 C   0  0  0  0  0  0  0  0  0  0  0  0
  -20.9015  -31.7414   23.5792 C   0  0  0  0  0  0  0  0  0  0  0  0
  -28.5076  -11.8833   19.3595 C   0  0  0  0  0  0  0  0  0  0  0  0
  -30.5779  -12.8131   20.4826 C   0  0  0  0  0  0  0  0  0  0  0  0
  -28.7633  -22.5820   21.4102 C   0  0  0  0  0  0  0  0  0  0  0  0
  -28.3569  -13.5463   21.2565 C   0  0  0  0  0  0  0  0  0  0  0  0
  -20.6303  -30.2354   23.4800 C   0  0  1  0  0  0  0  0  0  0  0  0
  -23.1844  -28.4099   25.6195 C   0  0  1  0  0  0  0  0  0  0  0  0
  -28.4848  -23.9387   20.7648 C   0  0  1  0  0  0  0  0  0  0  0  0
  -27.6944  -13.0454   19.9627 C   0  0  2  0  0  0  0  0  0  0  0  0
  -28.4081  -17.9768   23.6259 C   0  0  0  0  0  0  0  0  0  0  0  0
  -29.6474  -29.7751   29.6654 C   0  0  0  0  0  0  0  0  0  0  0  0
  -25.8841  -32.0498   24.7122 C   0  0  0  0  0  0  0  0  0  0  0  0
  -28.0381  -32.1391   25.9853 C   0  0  0  0  0  0  0  0  0  0  0  0
  -25.8869  -32.6516   27.1396 C   0  0  0  0  0  0  0  0  0  0  0  0
  -27.7447  -26.4864   29.4653 C   0  0  0  0  0  0  0  0  0  0  0  0
  -29.6589  -16.7049   18.2805 C   0  0  0  0  0  0  0  0  0  0  0  0
  -27.6837  -24.8340   21.7077 C   0  0  0  0  0  0  0  0  0  1  0  0
  -26.4115  -30.2627   26.4994 C   0  0  1  0  0  0  0  0  0  0  0  0
  -28.4509  -28.8807   29.3805 C   0  0  2  0  0  0  0  0  0  0  0  0
  -26.5464  -31.7515   26.0721 C   0  0  0  0  0  0  0  0  0  0  0  0
  -25.9440  -11.3890   20.4858 N   0  0  0  0  0  0  0  0  0  0  0  0
  -26.2421  -12.6628   20.1783 N   0  0  0  0  0  0  0  0  0  0  0  0
  -29.6889  -21.7195   20.6532 N   0  0  0  0  0  0  0  0  0  0  0  0
  -24.6024  -28.7560   25.7374 N   0  0  0  0  0  0  0  0  0  0  0  0
  -29.7572  -13.9134   20.9933 N   0  0  0  0  0  0  0  0  0  0  0  0
  -25.2733  -14.7906   19.7983 N   0  0  0  0  0  0  0  0  0  0  0  0
  -22.1698  -13.5775   21.6122 N   0  0  0  0  0  0  0  0  0  0  0  0
  -29.4550  -16.1586   21.6488 N   0  0  0  0  0  0  0  0  0  0  0  0
  -21.3361  -29.5249   24.5247 N   0  0  0  0  0  0  0  0  0  0  0  0
  -27.0060  -29.9570   27.7962 N   0  0  0  0  0  0  0  0  0  0  0  0
  -28.8352  -27.4722   29.6797 N   0  3  0  0  0  0  0  0  0  0  0  0
  -31.7268  -21.6625   19.4884 O   0  0  0  0  0  0  0  0  0  0  0  0
  -21.9625  -13.0714   19.3852 O   0  0  0  0  0  0  0  0  0  0  0  0
  -23.3921  -29.3200   23.4507 O   0  0  0  0  0  0  0  0  0  0  0  0
  -24.2054  -30.3793   27.3633 O   0  0  0  0  0  0  0  0  0  0  0  0
  -28.4759  -28.3371   27.0265 O   0  0  0  0  0  0  0  0  0  0  0  0
  -31.5300  -15.3963   20.9453 O   0  0  0  0  0  0  0  0  0  0  0  0
  -21.8394   -6.7262   21.8849 O   0  0  0  0  0  0  0  0  0  0  0  0
  -30.5653  -17.1641   19.2807 O   0  0  0  0  0  0  0  0  0  0  0  0
  -26.4484  -24.1917   22.0208 O   0  0  0  0  0  0  0  0  0  1  0  0
  -19.8946   -6.2332   27.0209 F   0  0  0  0  0  0  0  0  0  0  0  0
  -22.6547   -4.6491   23.5169 F   0  0  0  0  0  0  0  0  0  0  0  0
  1  2  1  0  0  0  0
  1  5  2  0  0  0  0
  2  6  2  0  0  0  0
  3  8  2  0  0  0  0
  3 17  1  0  0  0  0
  4  9  1  0  0  0  0
  4 17  2  0  0  0  0
  5 19  1  0  0  0  0
  6 21  1  0  0  0  0
  7 10  2  0  0  0  0
  7 20  1  0  0  0  0
  8 26  1  0  0  0  0
  9 26  2  0  0  0  0
 10 27  1  0  0  0  0
 11 12  2  0  0  0  0
 11 28  1  0  0  0  0
 12 30  1  0  0  0  0
 13 22  1  0  0  0  0
 13 27  2  0  0  0  0
 14 23  2  0  0  0  0
 14 24  1  0  0  0  0
 15 24  2  0  0  0  0
 15 29  1  0  0  0  0
 16 30  2  0  0  0  0
 16 31  1  0  0  0  0
 17 32  1  0  0  0  0
 18 32  1  0  0  0  0
 18 33  2  0  0  0  0
 18 35  1  0  0  0  0
 19 21  2  0  0  0  0
 19 40  1  0  0  0  0
 20 22  2  0  0  0  0
 20 41  1  0  0  0  0
 21 52  1  0  0  0  0
 22 42  1  0  0  0  0
 23 25  1  0  0  0  0
 23 56  1  0  0  0  0
 24 69  1  0  0  0  0
 25 29  2  0  0  0  0
 25 74  1  0  0  0  0
 26 84  1  0  0  0  0
 27 86  1  0  0  0  0
 28 31  2  0  0  0  0
 28 84  1  0  0  0  0
 29 85  1  0  0  0  0
 30 87  1  0  0  0  0
 31 88  1  0  0  0  0
 32 67  2  0  0  0  0
 33 68  1  0  0  0  0
 33 72  1  0  0  0  0
 34 43  1  0  0  0  0
 34 69  1  0  0  0  0
 34 78  2  0  0  0  0
 35 73  1  0  0  0  0
 35 79  2  0  0  0  0
 36 53  1  0  0  0  0
 36 75  1  0  0  0  0
 36 80  2  0  0  0  0
 37 64  1  0  0  0  0
 37 70  1  0  0  0  0
 37 81  2  0  0  0  0
 38 65  1  0  0  0  0
 38 76  1  0  0  0  0
 38 82  2  0  0  0  0
 39 71  1  0  0  0  0
 39 74  1  0  0  0  0
 39 83  2  0  0  0  0
 40 44  1  0  0  0  0
 41 53  1  0  0  0  0
 42 70  1  0  0  0  0
 43 45  1  0  0  0  0
 44 47  1  0  0  0  0
 45 54  1  0  0  0  0
 46 48  1  0  0  0  0
 46 49  1  0  0  0  0
 47 52  1  0  0  0  0
 48 55  1  0  0  0  0
 49 71  1  0  0  0  0
 50 54  1  0  0  0  0
 50 69  1  0  0  0  0
 51 55  1  0  0  0  0
 51 71  1  0  0  0  0
 52 75  1  0  0  0  0
 53 70  1  0  0  0  0
 54 63  1  0  0  0  0
 55 68  1  0  0  0  0
 57 65  1  0  0  0  0
 58 66  1  0  0  0  0
 59 66  1  0  0  0  0
 60 66  1  0  0  0  0
 61 77  1  0  0  0  0
 62 85  1  0  0  0  0
 63 86  1  0  0  0  0
 64 66  1  0  0  0  0
 64 76  1  0  0  0  0
 65 77  1  0  0  0  0
 67 68  1  0  0  0  0
M  CHG  1  77   1
M  ISO  4  39 100  63 101  74 100  86 101
M  END
> <Batch ID>
0098

> <Smiles>
CNC(C)C(=O)NC(C(=O)N1Cc2cc([101O:1][101CH2:1]C3CCC(=O)N(c4cc(C)c([100NH:0][100C:0](=O)N5CCCC(n6nc(-c7ccc(Oc8ccc(F)cc8F)cc7)c(C(N)=O)c6N)C5)c(OC)c4)C3)ccc2CC1C(=O)NC1CCCc2ccccc21)C(C)(C)C

> <Shape>
0.332

> <Color>
0.180

> <Negative vol penalty>
0.000

$$$$

  -OEChem-04052300513D

 86 95  0     1  0  0  0  0  0999 V2000
  -21.8798  -34.1290   15.0366 C   0  0  0  0  0  0  0  0  0  0  0  0
  -22.5614  -32.9275   15.2017 C   0  0  0  0  0  0  0  0  0  0  0  0
  -23.9940   -9.0098   20.5094 C   0  0  0  0  0  0  0  0  0  0  0  0
  -23.1005  -11.0331   21.4815 C   0  0  0  0  0  0  0  0  0  0  0  0
  -22.1069  -35.1848   15.9185 C   0  0  0  0  0  0  0  0  0  0  0  0
  -23.4712  -32.7814   16.2482 C   0  0  0  0  0  0  0  0  0  0  0  0
  -24.6034  -27.6905   19.4586 C   0  0  0  0  0  0  0  0  0  0  0  0
  -23.1849   -8.2476   21.3520 C   0  0  0  0  0  0  0  0  0  0  0  0
  -22.2914  -10.2708   22.3242 C   0  0  0  0  0  0  0  0  0  0  0  0
  -25.6073  -26.7274   19.3667 C   0  0  0  0  0  0  0  0  0  0  0  0
  -19.9470   -7.2840   21.4947 C   0  0  0  0  0  0  0  0  0  0  0  0
  -19.2585   -6.2085   20.9337 C   0  0  0  0  0  0  0  0  0  0  0  0
  -26.8535  -27.8712   21.0866 C   0  0  0  0  0  0  0  0  0  0  0  0
  -29.8433  -18.0350   20.8307 C   0  0  0  0  0  0  0  0  0  0  0  0
  -20.3989   -4.6962   22.4336 C   0  0  0  0  0  0  0  0  0  0  0  0
  -23.9518  -10.4026   20.5742 C   0  0  0  0  0  0  0  0  0  0  0  0
  -24.4669  -11.6666   18.4191 C   0  0  0  0  0  0  0  0  0  0  0  0
  -23.0128  -35.0483   16.9821 C   0  0  0  0  0  0  0  0  0  0  0  0
  -24.7222  -28.7589   20.3590 C   0  0  0  0  0  0  0  0  0  0  0  0
  -23.7116  -33.8368   17.1444 C   0  0  0  0  0  0  0  0  0  0  0  0
  -25.8485  -28.8451   21.1898 C   0  0  0  0  0  0  0  0  0  0  0  0
  -29.7361  -19.4200   20.7695 C   0  0  0  0  0  0  0  0  0  0  0  0
  -28.8007  -17.2855   21.3641 C   0  0  0  0  0  0  0  0  0  0  0  0
  -22.3336   -8.8781   22.2593 C   0  0  0  0  0  0  0  0  0  0  0  0
  -26.7339  -26.8193   20.1787 C   0  0  0  0  0  0  0  0  0  0  0  0
  -20.8616   -7.0657   22.5251 C   0  0  0  0  0  0  0  0  0  0  0  0
  -19.4844   -4.9146   21.4032 C   0  0  0  0  0  0  0  0  0  0  0  0
  -21.0875   -5.7718   22.9945 C   0  0  0  0  0  0  0  0  0  0  0  0
  -24.7878  -11.1905   19.7044 C   0  0  0  0  0  0  0  0  0  0  0  0
  -28.5748  -20.0025   21.2511 C   0  0  0  0  0  0  0  0  0  0  0  0
  -27.6814  -17.9636   21.8193 C   0  0  0  0  0  0  0  0  0  0  0  0
  -25.5863  -12.3545   18.0184 C   0  0  0  0  0  0  0  0  0  0  0  0
  -23.2646  -11.5020   17.6556 C   0  0  0  0  0  0  0  0  0  0  0  0
  -24.8831  -31.9211   20.0788 C   0  0  0  0  0  0  0  0  0  0  0  0
  -24.7445  -31.8249   23.3182 C   0  0  0  0  0  0  0  0  0  0  0  0
  -25.2716  -30.0571   26.1894 C   0  0  0  0  0  0  0  0  0  0  0  0
  -29.9820  -15.0902   21.0014 C   0  0  0  0  0  0  0  0  0  0  0  0
  -23.2602  -36.2334   17.8815 C   0  0  0  0  0  0  0  0  0  0  0  0
  -23.6181  -29.7748   20.4649 C   0  0  0  0  0  0  0  0  0  0  0  0
  -26.0147  -29.9614   22.1872 C   0  0  0  0  0  0  0  0  0  0  0  0
  -23.9621  -35.8707   19.1877 C   0  0  0  0  0  0  0  0  0  0  0  0
  -30.3351  -12.4596   18.6282 C   0  0  0  0  0  0  0  0  0  0  0  0
  -25.1472  -34.9488   18.9187 C   0  0  0  0  0  0  0  0  0  0  0  0
  -28.9222  -11.8829   18.5133 C   0  0  0  0  0  0  0  0  0  0  0  0
  -28.3072  -23.6285   21.8595 C   0  0  0  0  0  0  0  0  0  0  0  0
  -30.6564  -12.8927   20.0575 C   0  0  0  0  0  0  0  0  0  0  0  0
  -28.8979  -22.2773   22.2565 C   0  0  0  0  0  0  0  0  0  0  0  0
  -27.8912  -22.1039   20.0624 C   0  0  0  0  0  0  0  0  0  0  0  0
  -28.2659  -13.2284   20.5495 C   0  0  0  0  0  0  0  0  0  0  0  0
  -24.6880  -33.6314   18.2822 C   0  0  1  0  0  0  0  0  0  0  0  0
  -24.0830  -31.1035   21.0530 C   0  0  1  0  0  0  0  0  0  0  0  0
  -28.2778  -23.5619   20.3353 C   0  0  1  0  0  0  0  0  0  0  0  0
  -27.8730  -12.8380   19.1153 C   0  0  2  0  0  0  0  0  0  0  0  0
  -32.0240  -20.3645   21.1693 C   0  0  0  0  0  0  0  0  0  0  0  0
  -25.1012  -30.2568   28.6851 C   0  0  0  0  0  0  0  0  0  0  0  0
  -27.2759  -33.5282   23.3522 C   0  0  0  0  0  0  0  0  0  0  0  0
  -27.5818  -32.9012   25.7567 C   0  0  0  0  0  0  0  0  0  0  0  0
  -25.5585  -34.1778   25.0502 C   0  0  0  0  0  0  0  0  0  0  0  0
  -23.3167  -27.8408   26.3496 C   0  0  0  0  0  0  0  0  0  0  0  0
  -30.8559  -20.2205   20.1969 C   0  0  0  0  0  0  0  0  0  0  0  0
  -27.3222  -24.5631   19.7103 C   0  0  0  0  0  0  0  0  0  1  0  0
  -25.7623  -31.7354   24.4296 C   0  0  1  0  0  0  0  0  0  0  0  0
  -24.3949  -29.8299   27.4077 C   0  0  2  0  0  0  0  0  0  0  0  0
  -26.5427  -33.0656   24.6271 C   0  0  0  0  0  0  0  0  0  0  0  0
  -26.0149  -11.5456   20.0944 N   0  0  0  0  0  0  0  0  0  0  0  0
  -27.5410  -19.3075   21.7763 N   0  0  0  0  0  0  0  0  0  0  0  0
  -26.4750  -12.2522   19.0479 N   0  0  0  0  0  0  0  0  0  0  0  0
  -28.4640  -21.3755   21.1924 N   0  0  3  0  0  0  0  0  0  0  0  0
  -24.9108  -30.9336   22.2488 N   0  0  0  0  0  0  0  0  0  0  0  0
  -29.6219  -13.7994   20.5601 N   0  0  0  0  0  0  0  0  0  0  0  0
  -26.6132  -17.2077   22.3651 N   0  0  0  0  0  0  0  0  0  0  0  0
  -25.8871  -13.0307   16.8894 N   0  0  0  0  0  0  0  0  0  0  0  0
  -22.2120  -10.7664   18.2171 N   0  0  0  0  0  0  0  0  0  0  0  0
  -28.9099  -15.8742   21.4265 N   0  0  0  0  0  0  0  0  0  0  0  0
  -24.1200  -32.7564   19.2853 N   0  0  0  0  0  0  0  0  0  0  0  0
  -25.0361  -31.2873   25.6129 N   0  0  0  0  0  0  0  0  0  0  0  0
  -24.0379  -28.3880   27.5274 N   0  3  0  0  0  0  0  0  0  0  0  0
  -23.1338  -11.9787   16.5027 O   0  0  0  0  0  0  0  0  0  0  0  0
  -26.1026  -31.8040   20.0502 O   0  0  0  0  0  0  0  0  0  0  0  0
  -23.8314  -32.6503   23.3994 O   0  0  0  0  0  0  0  0  0  0  0  0
  -26.0866  -29.2277   25.7912 O   0  0  0  0  0  0  0  0  0  0  0  0
  -31.1516  -15.4818   20.9765 O   0  0  0  0  0  0  0  0  0  0  0  0
  -21.5438   -8.1346   23.0815 O   0  0  0  0  0  0  0  0  0  0  0  0
  -27.7156  -25.8810   20.0906 O   0  0  0  0  0  0  0  0  0  1  0  0
  -18.8220   -3.8820   20.8654 F   0  0  0  0  0  0  0  0  0  0  0  0
  -21.9640   -5.5559   23.9850 F   0  0  0  0  0  0  0  0  0  0  0  0
  1  2  1  0  0  0  0
  1  5  2  0  0  0  0
  2  6  2  0  0  0  0
  3  8  2  0  0  0  0
  3 16  1  0  0  0  0
  4  9  1  0  0  0  0
  4 16  2  0  0  0  0
  5 18  1  0  0  0  0
  6 20  1  0  0  0  0
  7 10  2  0  0  0  0
  7 19  1  0  0  0  0
  8 24  1  0  0  0  0
  9 24  2  0  0  0  0
 10 25  1  0  0  0  0
 11 12  2  0  0  0  0
 11 26  1  0  0  0  0
 12 27  1  0  0  0  0
 13 21  1  0  0  0  0
 13 25  2  0  0  0  0
 14 22  1  0  0  0  0
 14 23  2  0  0  0  0
 15 27  2  0  0  0  0
 15 28  1  0  0  0  0
 16 29  1  0  0  0  0
 17 29  1  0  0  0  0
 17 32  2  0  0  0  0
 17 33  1  0  0  0  0
 18 20  2  0  0  0  0
 18 38  1  0  0  0  0
 19 21  2  0  0  0  0
 19 39  1  0  0  0  0
 20 50  1  0  0  0  0
 21 40  1  0  0  0  0
 22 30  2  0  0  0  0
 22 60  1  0  0  0  0
 23 31  1  0  0  0  0
 23 74  1  0  0  0  0
 24 83  1  0  0  0  0
 25 84  1  0  0  0  0
 26 28  2  0  0  0  0
 26 83  1  0  0  0  0
 27 85  1  0  0  0  0
 28 86  1  0  0  0  0
 29 65  2  0  0  0  0
 30 66  1  0  0  0  0
 30 68  1  0  0  0  0
 31 66  2  0  0  0  0
 31 71  1  0  0  0  0
 32 67  1  0  0  0  0
 32 72  1  0  0  0  0
 33 73  1  0  0  0  0
 33 78  2  0  0  0  0
 34 51  1  0  0  0  0
 34 75  1  0  0  0  0
 34 79  2  0  0  0  0
 35 62  1  0  0  0  0
 35 69  1  0  0  0  0
 35 80  2  0  0  0  0
 36 63  1  0  0  0  0
 36 76  1  0  0  0  0
 36 81  2  0  0  0  0
 37 70  1  0  0  0  0
 37 74  1  0  0  0  0
 37 82  2  0  0  0  0
 38 41  1  0  0  0  0
 39 51  1  0  0  0  0
 40 69  1  0  0  0  0
 41 43  1  0  0  0  0
 42 44  1  0  0  0  0
 42 46  1  0  0  0  0
 43 50  1  0  0  0  0
 44 53  1  0  0  0  0
 45 47  1  0  0  0  0
 45 52  1  0  0  0  0
 46 70  1  0  0  0  0
 47 68  1  0  0  0  0
 48 52  1  0  0  0  0
 48 68  1  0  0  0  0
 49 53  1  0  0  0  0
 49 70  1  0  0  0  0
 50 75  1  0  0  0  0
 51 69  1  0  0  0  0
 52 61  1  0  0  0  0
 53 67  1  0  0  0  0
 54 60  1  0  0  0  0
 55 63  1  0  0  0  0
 56 64  1  0  0  0  0
 57 64  1  0  0  0  0
 58 64  1  0  0  0  0
 59 77  1  0  0  0  0
 61 84  1  0  0  0  0
 62 64  1  0  0  0  0
 62 76  1  0  0  0  0
 63 77  1  0  0  0  0
 65 67  1  0  0  0  0
M  CHG  1  77   1
M  ISO  4  37 100  61 101  74 100  84 101
M  END
> <Batch ID>
0098

> <Smiles>
CCc1cc([100NH:0][100C:0](=O)N2CCCC(n3nc(-c4ccc(Oc5ccc(F)cc5F)cc4)c(C(N)=O)c3N)C2)c(N)nc1N1CCC([101CH2:1][101O:1]c2ccc3c(c2)CN(C(=O)C(NC(=O)C(C)NC)C(C)(C)C)C(C(=O)NC2CCCc4ccccc42)C3)C1

> <Shape>
0.296

> <Color>
0.097

> <Negative vol penalty>
0.000

$$$$

  -OEChem-04052300513D

 85 93  0     1  0  0  0  0  0999 V2000
  -21.1173   -7.9340   23.9586 C   0  0  0  0  0  0  0  0  0  0  0  0
  -21.9433   -8.9409   24.4476 C   0  0  0  0  0  0  0  0  0  0  0  0
  -28.8631  -18.4211   23.3939 C   0  0  0  0  0  0  0  0  0  0  0  0
  -26.8717  -29.6898   19.4973 C   0  0  0  0  0  0  0  0  0  0  0  0
  -26.4378  -28.8848   21.7335 C   0  0  0  0  0  0  0  0  0  0  0  0
  -21.2665   -7.4876   22.6462 C   0  0  0  0  0  0  0  0  0  0  0  0
  -22.9197   -9.5013   23.6249 C   0  0  0  0  0  0  0  0  0  0  0  0
  -23.0586  -14.5538   23.9384 C   0  0  0  0  0  0  0  0  0  0  0  0
  -28.5345  -18.8120   24.6919 C   0  0  0  0  0  0  0  0  0  0  0  0
  -28.9237  -19.3706   22.3738 C   0  0  0  0  0  0  0  0  0  0  0  0
  -25.7391  -30.5006   19.5693 C   0  0  0  0  0  0  0  0  0  0  0  0
  -25.3051  -29.6956   21.8056 C   0  0  0  0  0  0  0  0  0  0  0  0
  -23.6905  -15.1055   25.0519 C   0  0  0  0  0  0  0  0  0  0  0  0
  -22.0982  -31.2827   22.4434 C   0  0  0  0  0  0  0  0  0  0  0  0
  -20.9304  -30.7209   22.9595 C   0  0  0  0  0  0  0  0  0  0  0  0
  -25.6664  -15.5028   23.7262 C   0  0  0  0  0  0  0  0  0  0  0  0
  -28.3268  -21.1018   23.9497 C   0  0  0  0  0  0  0  0  0  0  0  0
  -20.9481  -29.0666   21.1988 C   0  0  0  0  0  0  0  0  0  0  0  0
  -27.2211  -28.8818   20.5793 C   0  0  0  0  0  0  0  0  0  0  0  0
  -29.7042  -28.3818   20.8822 C   0  0  0  0  0  0  0  0  0  0  0  0
  -22.2388   -8.0495   21.8039 C   0  0  0  0  0  0  0  0  0  0  0  0
  -23.7307  -14.4623   22.7111 C   0  0  0  0  0  0  0  0  0  0  0  0
  -23.0829   -9.0611   22.3004 C   0  0  0  0  0  0  0  0  0  0  0  0
  -25.0398  -14.9518   22.5980 C   0  0  0  0  0  0  0  0  0  0  0  0
  -28.2663  -20.1523   24.9698 C   0  0  0  0  0  0  0  0  0  0  0  0
  -28.6555  -20.7109   22.6517 C   0  0  0  0  0  0  0  0  0  0  0  0
  -24.9558  -30.5036   20.7234 C   0  0  0  0  0  0  0  0  0  0  0  0
  -24.9956  -15.5775   24.9467 C   0  0  0  0  0  0  0  0  0  0  0  0
  -22.6908  -30.7365   21.3049 C   0  0  0  0  0  0  0  0  0  0  0  0
  -20.3554  -29.6128   22.3373 C   0  0  0  0  0  0  0  0  0  0  0  0
  -22.1158  -29.6284   20.6827 C   0  0  0  0  0  0  0  0  0  0  0  0
  -28.3907  -28.0436   20.5053 C   0  0  0  0  0  0  0  0  0  0  0  0
  -30.4388  -27.2515   20.6188 C   0  0  0  0  0  0  0  0  0  0  0  0
  -30.2146  -29.6080   21.4222 C   0  0  0  0  0  0  0  0  0  0  0  0
  -24.6297  -12.0718   20.8187 C   0  0  0  0  0  0  0  0  0  0  0  0
  -25.4854  -14.4859   18.8280 C   0  0  0  0  0  0  0  0  0  0  0  0
  -26.0465  -18.9509   26.7092 C   0  0  0  0  0  0  0  0  0  0  0  0
  -26.3902  -17.7560   18.4615 C   0  0  0  0  0  0  0  0  0  0  0  0
  -29.0293  -21.4550   20.2741 C   0  0  0  0  0  0  0  0  0  0  0  0
  -22.3939   -7.5013   20.4074 C   0  0  0  0  0  0  0  0  0  0  0  0
  -23.0257  -13.8889   21.5125 C   0  0  0  0  0  0  0  0  0  0  0  0
  -25.7980  -14.8953   21.2978 C   0  0  0  0  0  0  0  0  0  0  0  0
  -23.2038   -8.4076   19.4838 C   0  0  0  0  0  0  0  0  0  0  0  0
  -30.5327  -23.4360   17.7261 C   0  0  0  0  0  0  0  0  0  0  0  0
  -24.4725   -8.8854   20.1829 C   0  0  0  0  0  0  0  0  0  0  0  0
  -30.2788  -24.8731   18.1870 C   0  0  0  0  0  0  0  0  0  0  0  0
  -29.3550  -22.5194   18.0524 C   0  0  0  0  0  0  0  0  0  0  0  0
  -28.6690  -23.9765   19.9167 C   0  0  0  0  0  0  0  0  0  0  0  0
  -24.1373   -9.7110   21.4309 C   0  0  1  0  0  0  0  0  0  0  0  0
  -23.9856  -13.3764   20.4432 C   0  0  1  0  0  0  0  0  0  0  0  0
  -29.8545  -24.9233   19.6679 C   0  0  2  0  0  0  0  0  0  0  0  0
  -27.0641  -19.4299   16.7175 C   0  0  0  0  0  0  0  0  0  0  0  0
  -29.1788  -20.9507   27.1802 C   0  0  0  0  0  0  0  0  0  0  0  0
  -26.9580  -21.7957   26.3644 C   0  0  0  0  0  0  0  0  0  0  0  0
  -28.2581  -13.2200   18.6879 C   0  0  0  0  0  0  0  0  0  0  0  0
  -29.1188  -15.3762   17.7508 C   0  0  0  0  0  0  0  0  0  0  0  0
  -27.3915  -14.0779   16.5045 C   0  0  0  0  0  0  0  0  0  0  0  0
  -24.0678  -19.4895   19.0616 C   0  0  0  0  0  0  0  0  0  0  0  0
  -25.5803  -17.8733   27.6756 C   0  0  0  0  0  0  0  0  0  0  0  0
  -24.7879  -16.7678   26.9951 C   0  0  0  0  0  0  0  0  0  1  0  0
  -26.7361  -15.3043   18.6160 C   0  0  1  0  0  0  0  0  0  0  0  0
  -25.9089  -18.8333   17.5064 C   0  0  2  0  0  0  0  0  0  0  0  0
  -27.9048  -20.5818   26.3979 C   0  0  0  0  0  0  0  0  0  0  0  0
  -27.8628  -14.4940   17.9149 C   0  0  0  0  0  0  0  0  0  0  0  0
  -28.2934  -26.7961   20.0379 N   0  0  0  0  0  0  0  0  0  0  0  0
  -29.5551  -26.3406   20.1192 N   0  0  0  0  0  0  0  0  0  0  0  0
  -25.0679  -14.3200   20.1561 N   0  0  0  0  0  0  0  0  0  0  0  0
  -29.0120  -22.6163   19.4729 N   0  0  0  0  0  0  0  0  0  0  0  0
  -31.7480  -26.9580   20.7680 N   0  0  0  0  0  0  0  0  0  0  0  0
  -29.3227  -30.6689   21.6302 N   0  0  0  0  0  0  0  0  0  0  0  0
  -28.7177  -21.6753   21.6154 N   0  0  0  0  0  0  0  0  0  0  0  0
  -23.7317  -11.0492   21.0577 N   0  0  0  0  0  0  0  0  0  0  0  0
  -26.3226  -16.5018   17.8926 N   0  0  0  0  0  0  0  0  0  0  0  0
  -27.2359  -19.5294   27.1285 N   0  0  0  0  0  0  0  0  0  0  0  0
  -25.2376  -19.9305   18.2591 N   0  3  0  0  0  0  0  0  0  0  0  0
  -31.4288  -29.7639   21.6963 O   0  0  0  0  0  0  0  0  0  0  0  0
  -25.8511  -11.9982   20.8850 O   0  0  0  0  0  0  0  0  0  0  0  0
  -24.8965  -14.0172   17.8507 O   0  0  0  0  0  0  0  0  0  0  0  0
  -25.4311  -19.2546   25.6909 O   0  0  0  0  0  0  0  0  0  0  0  0
  -26.7900  -18.0028   19.5972 O   0  0  0  0  0  0  0  0  0  0  0  0
  -29.3270  -20.3512   19.8106 O   0  0  0  0  0  0  0  0  0  0  0  0
  -23.8506  -31.2949   20.7942 O   0  0  0  0  0  0  0  0  0  0  0  0
  -25.6150  -16.1158   26.0322 O   0  0  0  0  0  0  0  0  0  1  0  0
  -19.2349  -29.0725   22.8339 F   0  0  0  0  0  0  0  0  0  0  0  0
  -22.6813  -29.0986   19.5894 F   0  0  0  0  0  0  0  0  0  0  0  0
  1  2  1  0  0  0  0
  1  6  2  0  0  0  0
  2  7  2  0  0  0  0
  3  9  2  0  0  0  0
  3 10  1  0  0  0  0
  4 11  2  0  0  0  0
  4 19  1  0  0  0  0
  5 12  1  0  0  0  0
  5 19  2  0  0  0  0
  6 21  1  0  0  0  0
  7 23  1  0  0  0  0
  8 13  2  0  0  0  0
  8 22  1  0  0  0  0
  9 25  1  0  0  0  0
 10 26  2  0  0  0  0
 11 27  1  0  0  0  0
 12 27  2  0  0  0  0
 13 28  1  0  0  0  0
 14 15  2  0  0  0  0
 14 29  1  0  0  0  0
 15 30  1  0  0  0  0
 16 24  1  0  0  0  0
 16 28  2  0  0  0  0
 17 25  2  0  0  0  0
 17 26  1  0  0  0  0
 18 30  2  0  0  0  0
 18 31  1  0  0  0  0
 19 32  1  0  0  0  0
 20 32  1  0  0  0  0
 20 33  2  0  0  0  0
 20 34  1  0  0  0  0
 21 23  2  0  0  0  0
 21 40  1  0  0  0  0
 22 24  2  0  0  0  0
 22 41  1  0  0  0  0
 23 49  1  0  0  0  0
 24 42  1  0  0  0  0
 25 63  1  0  0  0  0
 26 71  1  0  0  0  0
 27 82  1  0  0  0  0
 28 83  1  0  0  0  0
 29 31  2  0  0  0  0
 29 82  1  0  0  0  0
 30 84  1  0  0  0  0
 31 85  1  0  0  0  0
 32 65  2  0  0  0  0
 33 66  1  0  0  0  0
 33 69  1  0  0  0  0
 34 70  1  0  0  0  0
 34 76  2  0  0  0  0
 35 50  1  0  0  0  0
 35 72  1  0  0  0  0
 35 77  2  0  0  0  0
 36 61  1  0  0  0  0
 36 67  1  0  0  0  0
 36 78  2  0  0  0  0
 37 59  1  0  0  0  0
 37 74  1  0  0  0  0
 37 79  2  0  0  0  0
 38 62  1  0  0  0  0
 38 73  1  0  0  0  0
 38 80  2  0  0  0  0
 39 68  1  0  0  0  0
 39 71  1  0  0  0  0
 39 81  2  0  0  0  0
 40 43  1  0  0  0  0
 41 50  1  0  0  0  0
 42 67  1  0  0  0  0
 43 45  1  0  0  0  0
 44 46  1  0  0  0  0
 44 47  1  0  0  0  0
 45 49  1  0  0  0  0
 46 51  1  0  0  0  0
 47 68  1  0  0  0  0
 48 51  1  0  0  0  0
 48 68  1  0  0  0  0
 49 72  1  0  0  0  0
 50 67  1  0  0  0  0
 51 66  1  0  0  0  0
 52 62  1  0  0  0  0
 53 63  1  0  0  0  0
 54 63  1  0  0  0  0
 55 64  1  0  0  0  0
 56 64  1  0  0  0  0
 57 64  1  0  0  0  0
 58 75  1  0  0  0  0
 59 60  1  0  0  0  0
 60 83  1  0  0  0  0
 61 64  1  0  0  0  0
 61 73  1  0  0  0  0
 62 75  1  0  0  0  0
 63 74  1  0  0  0  0
 65 66  1  0  0  0  0
M  CHG  1  75   1
M  ISO  4  39 100  60 101  71 100  83 101
M  END
> <Batch ID>
0098

> <Smiles>
CNC(C)C(=O)NC(C(=O)N1Cc2cc([101O:1][101CH2:1]CC(=O)NC(C)(C)c3cccc([100NH:0][100C:0](=O)N4CCCC(n5nc(-c6ccc(Oc7ccc(F)cc7F)cc6)c(C(N)=O)c5N)C4)c3)ccc2CC1C(=O)NC1CCCc2ccccc21)C(C)(C)C

> <Shape>
0.251

> <Color>
0.068

> <Negative vol penalty>
0.000

$$$$

  -OEChem-04052300513D

 85 93  0     1  0  0  0  0  0999 V2000
  -27.1593  -33.2186   26.8889 C   0  0  0  0  0  0  0  0  0  0  0  0
  -27.5001  -32.0067   26.2968 C   0  0  0  0  0  0  0  0  0  0  0  0
  -23.0581   -9.9009   20.1166 C   0  0  0  0  0  0  0  0  0  0  0  0
  -23.8005  -10.0909   22.4079 C   0  0  0  0  0  0  0  0  0  0  0  0
  -28.8618  -17.7904   21.7423 C   0  0  0  0  0  0  0  0  0  0  0  0
  -25.8219  -33.6057   26.9619 C   0  0  0  0  0  0  0  0  0  0  0  0
  -26.5035  -31.1807   25.7783 C   0  0  0  0  0  0  0  0  0  0  0  0
  -26.9030  -27.5861   20.8361 C   0  0  0  0  0  0  0  0  0  0  0  0
  -28.1682  -18.8659   21.1875 C   0  0  0  0  0  0  0  0  0  0  0  0
  -22.3026   -8.7782   20.4545 C   0  0  0  0  0  0  0  0  0  0  0  0
  -23.0449   -8.9682   22.7458 C   0  0  0  0  0  0  0  0  0  0  0  0
  -27.1504  -26.2223   20.6857 C   0  0  0  0  0  0  0  0  0  0  0  0
  -19.8055   -8.2482   23.3851 C   0  0  0  0  0  0  0  0  0  0  0  0
  -19.0393   -8.3109   24.5489 C   0  0  0  0  0  0  0  0  0  0  0  0
  -29.3217  -16.9440   19.5266 C   0  0  0  0  0  0  0  0  0  0  0  0
  -24.7764  -25.8107   20.5687 C   0  0  0  0  0  0  0  0  0  0  0  0
  -20.2584   -6.4311   25.4528 C   0  0  0  0  0  0  0  0  0  0  0  0
  -23.8071  -10.5573   21.0933 C   0  0  0  0  0  0  0  0  0  0  0  0
  -29.4386  -16.8294   20.9118 C   0  0  0  0  0  0  0  0  0  0  0  0
  -24.1714  -13.0612   20.7685 C   0  0  0  0  0  0  0  0  0  0  0  0
  -24.8092  -32.7885   26.4354 C   0  0  0  0  0  0  0  0  0  0  0  0
  -25.5879  -28.0720   20.8649 C   0  0  0  0  0  0  0  0  0  0  0  0
  -25.1511  -31.5566   25.8456 C   0  0  0  0  0  0  0  0  0  0  0  0
  -24.5150  -27.1814   20.7170 C   0  0  0  0  0  0  0  0  0  0  0  0
  -28.0513  -18.9804   19.8023 C   0  0  0  0  0  0  0  0  0  0  0  0
  -22.2959   -8.3118   21.7691 C   0  0  0  0  0  0  0  0  0  0  0  0
  -26.0869  -25.3341   20.5549 C   0  0  0  0  0  0  0  0  0  0  0  0
  -20.7982   -7.2769   23.2550 C   0  0  0  0  0  0  0  0  0  0  0  0
  -28.6280  -18.0195   18.9718 C   0  0  0  0  0  0  0  0  0  0  0  0
  -19.2658   -7.4024   25.5828 C   0  0  0  0  0  0  0  0  0  0  0  0
  -21.0246   -6.3684   24.2889 C   0  0  0  0  0  0  0  0  0  0  0  0
  -24.5883  -11.7167   20.7448 C   0  0  0  0  0  0  0  0  0  0  0  0
  -25.2727  -13.7695   20.3539 C   0  0  0  0  0  0  0  0  0  0  0  0
  -30.1620  -15.7083   21.4902 C   0  0  0  0  0  0  0  0  0  0  0  0
  -22.9022  -13.6197   21.1329 C   0  0  0  0  0  0  0  0  0  0  0  0
  -30.7861  -14.6708   20.6374 C   0  0  0  0  0  0  0  0  0  0  0  0
  -23.8109  -29.6092   23.0058 C   0  0  0  0  0  0  0  0  0  0  0  0
  -21.6801  -29.7443   20.5637 C   0  0  0  0  0  0  0  0  0  0  0  0
  -26.7204  -21.1141   19.9430 C   0  0  0  0  0  0  0  0  0  0  0  0
  -20.5494  -28.4199   17.6286 C   0  0  0  0  0  0  0  0  0  0  0  0
  -23.3735  -33.2274   26.5800 C   0  0  0  0  0  0  0  0  0  0  0  0
  -25.3385  -29.5491   21.0011 C   0  0  0  0  0  0  0  0  0  0  0  0
  -23.0851  -27.6547   20.7212 C   0  0  0  0  0  0  0  0  0  0  0  0
  -22.4100  -32.4680   25.6716 C   0  0  0  0  0  0  0  0  0  0  0  0
  -29.6163  -12.2188   18.2973 C   0  0  0  0  0  0  0  0  0  0  0  0
  -22.6836  -30.9688   25.7376 C   0  0  0  0  0  0  0  0  0  0  0  0
  -28.1820  -11.9522   18.7528 C   0  0  0  0  0  0  0  0  0  0  0  0
  -30.5328  -12.5104   19.4811 C   0  0  0  0  0  0  0  0  0  0  0  0
  -28.6221  -13.3709   20.8068 C   0  0  0  0  0  0  0  0  0  0  0  0
  -24.1008  -30.6446   25.2496 C   0  0  1  0  0  0  0  0  0  0  0  0
  -23.9459  -29.8734   21.5328 C   0  0  1  0  0  0  0  0  0  0  0  0
  -27.6609  -13.0996   19.6364 C   0  0  2  0  0  0  0  0  0  0  0  0
  -18.7678  -28.7233   15.8876 C   0  0  0  0  0  0  0  0  0  0  0  0
  -19.6279  -28.5054   22.4514 C   0  0  0  0  0  0  0  0  0  0  0  0
  -18.2197  -27.9644   20.4532 C   0  0  0  0  0  0  0  0  0  0  0  0
  -18.7393  -30.3412   21.0040 C   0  0  0  0  0  0  0  0  0  0  0  0
  -22.5486  -28.9022   15.5003 C   0  0  0  0  0  0  0  0  0  0  0  0
  -27.4027  -17.4826   17.0056 C   0  0  0  0  0  0  0  0  0  0  0  0
  -26.0766  -22.0917   18.9663 C   0  0  0  0  0  0  0  0  0  0  0  0
  -25.3737  -23.2506   19.6567 C   0  0  0  0  0  0  0  0  0  1  0  0
  -20.5618  -28.8583   20.0704 C   0  0  1  0  0  0  0  0  0  0  0  0
  -20.1894  -29.0678   16.3038 C   0  0  2  0  0  0  0  0  0  0  0  0
  -19.3140  -28.9078   20.9966 C   0  0  0  0  0  0  0  0  0  0  0  0
  -25.8555  -11.5768   20.3464 N   0  0  0  0  0  0  0  0  0  0  0  0
  -30.3126  -15.5392   22.7762 N   0  0  0  0  0  0  0  0  0  0  0  0
  -26.2443  -12.8424   20.1159 N   0  0  0  0  0  0  0  0  0  0  0  0
  -29.9912  -13.5789   20.3184 N   0  0  0  0  0  0  0  0  0  0  0  0
  -22.8927  -29.1073   20.8633 N   0  0  0  0  0  0  0  0  0  0  0  0
  -25.4950  -15.0887   20.1732 N   0  0  0  0  0  0  0  0  0  0  0  0
  -21.8800  -12.7495   21.5355 N   0  0  0  0  0  0  0  0  0  0  0  0
  -27.3462  -20.0784   19.2545 N   0  0  0  0  0  0  0  0  0  0  0  0
  -24.1585  -30.6823   23.8040 N   0  0  0  0  0  0  0  0  0  0  0  0
  -20.2998  -29.2605   18.6927 N   0  0  0  0  0  0  0  0  0  0  0  0
  -21.1174  -28.6069   15.2327 N   0  3  0  0  0  0  0  0  0  0  0  0
  -22.6760  -14.8527   21.0867 O   0  0  0  0  0  0  0  0  0  0  0  0
  -31.9435  -14.8887   20.3036 O   0  0  0  0  0  0  0  0  0  0  0  0
  -23.4190  -28.5134   23.3896 O   0  0  0  0  0  0  0  0  0  0  0  0
  -21.4872  -30.9578   20.6721 O   0  0  0  0  0  0  0  0  0  0  0  0
  -26.6611  -21.2711   21.1580 O   0  0  0  0  0  0  0  0  0  0  0  0
  -21.0030  -27.2807   17.7115 O   0  0  0  0  0  0  0  0  0  0  0  0
  -21.5585   -7.2165   22.0993 O   0  0  0  0  0  0  0  0  0  0  0  0
  -28.5266  -18.1131   17.6158 O   0  0  0  0  0  0  0  0  0  0  0  0
  -26.3256  -24.0023   20.4086 O   0  0  0  0  0  0  0  0  0  1  0  0
  -18.5309   -7.4637   26.7010 F   0  0  0  0  0  0  0  0  0  0  0  0
  -21.9776   -5.4338   24.1703 F   0  0  0  0  0  0  0  0  0  0  0  0
  1  2  1  0  0  0  0
  1  6  2  0  0  0  0
  2  7  2  0  0  0  0
  3 10  2  0  0  0  0
  3 18  1  0  0  0  0
  4 11  1  0  0  0  0
  4 18  2  0  0  0  0
  5  9  2  0  0  0  0
  5 19  1  0  0  0  0
  6 21  1  0  0  0  0
  7 23  1  0  0  0  0
  8 12  2  0  0  0  0
  8 22  1  0  0  0  0
  9 25  1  0  0  0  0
 10 26  1  0  0  0  0
 11 26  2  0  0  0  0
 12 27  1  0  0  0  0
 13 14  2  0  0  0  0
 13 28  1  0  0  0  0
 14 30  1  0  0  0  0
 15 19  2  0  0  0  0
 15 29  1  0  0  0  0
 16 24  1  0  0  0  0
 16 27  2  0  0  0  0
 17 30  2  0  0  0  0
 17 31  1  0  0  0  0
 18 32  1  0  0  0  0
 19 34  1  0  0  0  0
 20 32  1  0  0  0  0
 20 33  2  0  0  0  0
 20 35  1  0  0  0  0
 21 23  2  0  0  0  0
 21 41  1  0  0  0  0
 22 24  2  0  0  0  0
 22 42  1  0  0  0  0
 23 50  1  0  0  0  0
 24 43  1  0  0  0  0
 25 29  2  0  0  0  0
 25 71  1  0  0  0  0
 26 81  1  0  0  0  0
 27 83  1  0  0  0  0
 28 31  2  0  0  0  0
 28 81  1  0  0  0  0
 29 82  1  0  0  0  0
 30 84  1  0  0  0  0
 31 85  1  0  0  0  0
 32 64  2  0  0  0  0
 33 66  1  0  0  0  0
 33 69  1  0  0  0  0
 34 36  1  0  0  0  0
 34 65  2  0  0  0  0
 35 70  1  0  0  0  0
 35 75  2  0  0  0  0
 36 67  1  0  0  0  0
 36 76  2  0  0  0  0
 37 51  1  0  0  0  0
 37 72  1  0  0  0  0
 37 77  2  0  0  0  0
 38 61  1  0  0  0  0
 38 68  1  0  0  0  0
 38 78  2  0  0  0  0
 39 59  1  0  0  0  0
 39 71  1  0  0  0  0
 39 79  2  0  0  0  0
 40 62  1  0  0  0  0
 40 73  1  0  0  0  0
 40 80  2  0  0  0  0
 41 44  1  0  0  0  0
 42 51  1  0  0  0  0
 43 68  1  0  0  0  0
 44 46  1  0  0  0  0
 45 47  1  0  0  0  0
 45 48  1  0  0  0  0
 46 50  1  0  0  0  0
 47 52  1  0  0  0  0
 48 67  1  0  0  0  0
 49 52  1  0  0  0  0
 49 67  1  0  0  0  0
 50 72  1  0  0  0  0
 51 68  1  0  0  0  0
 52 66  1  0  0  0  0
 53 62  1  0  0  0  0
 54 63  1  0  0  0  0
 55 63  1  0  0  0  0
 56 63  1  0  0  0  0
 57 74  1  0  0  0  0
 58 82  1  0  0  0  0
 59 60  1  0  0  0  0
 60 83  1  0  0  0  0
 61 63  1  0  0  0  0
 61 73  1  0  0  0  0
 62 74  1  0  0  0  0
 64 66  1  0  0  0  0
M  CHG  1  74   1
M  ISO  4  34 100  36 100  60 101  83 101
M  END
> <Batch ID>
0098

> <Smiles>
CNC(C)C(=O)NC(C(=O)N1Cc2cc([101O:1][101CH2:1]CC(=O)Nc3ccc([100C:0](=N)[100C:0](=O)N4CCCC(n5nc(-c6ccc(Oc7ccc(F)cc7F)cc6)c(C(N)=O)c5N)C4)cc3OC)ccc2CC1C(=O)NC1CCCc2ccccc21)C(C)(C)C

> <Shape>
0.331

> <Color>
0.199

> <Negative vol penalty>
0.000

$$$$

  -OEChem-04052300513D

 88 97  0     1  0  0  0  0  0999 V2000
  -16.3945  -30.0173   23.1658 C   0  0  0  0  0  0  0  0  0  0  0  0
  -17.4207  -30.9452   23.0284 C   0  0  0  0  0  0  0  0  0  0  0  0
  -28.5174  -13.4989   21.0358 C   0  0  0  0  0  0  0  0  0  0  0  0
  -26.8737  -14.3460   19.4808 C   0  0  0  0  0  0  0  0  0  0  0  0
  -16.6978  -28.6664   23.3216 C   0  0  0  0  0  0  0  0  0  0  0  0
  -18.7500  -30.5212   23.0347 C   0  0  0  0  0  0  0  0  0  0  0  0
  -26.6719  -31.1468   22.7596 C   0  0  0  0  0  0  0  0  0  0  0  0
  -30.6047  -24.3721   20.5112 C   0  0  0  0  0  0  0  0  0  0  0  0
  -32.2543  -24.3600   18.7461 C   0  0  0  0  0  0  0  0  0  0  0  0
  -31.1041  -25.5911   20.9696 C   0  0  0  0  0  0  0  0  0  0  0  0
  -32.7537  -25.5790   19.2044 C   0  0  0  0  0  0  0  0  0  0  0  0
  -27.8302  -12.2869   21.1020 C   0  0  0  0  0  0  0  0  0  0  0  0
  -26.1865  -13.1339   19.5470 C   0  0  0  0  0  0  0  0  0  0  0  0
  -27.8525  -30.4775   23.0787 C   0  0  0  0  0  0  0  0  0  0  0  0
  -25.0834  -11.0626   22.6448 C   0  0  0  0  0  0  0  0  0  0  0  0
  -24.8839  -10.4996   23.9053 C   0  0  0  0  0  0  0  0  0  0  0  0
  -27.1264  -28.5853   21.7704 C   0  0  0  0  0  0  0  0  0  0  0  0
  -26.1103   -8.5336   23.2212 C   0  0  0  0  0  0  0  0  0  0  0  0
  -28.0392  -14.5285   20.2252 C   0  0  0  0  0  0  0  0  0  0  0  0
  -30.0760  -15.9841   19.7354 C   0  0  0  0  0  0  0  0  0  0  0  0
  -18.0321  -28.2279   23.3422 C   0  0  0  0  0  0  0  0  0  0  0  0
  -25.7031  -30.5350   21.9510 C   0  0  0  0  0  0  0  0  0  0  0  0
  -19.0758  -29.1592   23.1667 C   0  0  0  0  0  0  0  0  0  0  0  0
  -25.9354  -29.2499   21.4404 C   0  0  0  0  0  0  0  0  0  0  0  0
  -31.1798  -23.7565   19.3995 C   0  0  0  0  0  0  0  0  0  0  0  0
  -32.1786  -26.1946   20.3162 C   0  0  0  0  0  0  0  0  0  0  0  0
  -26.6648  -12.1044   20.3576 C   0  0  0  0  0  0  0  0  0  0  0  0
  -28.0787  -29.1954   22.5865 C   0  0  0  0  0  0  0  0  0  0  0  0
  -25.7962  -10.3611   21.6725 C   0  0  0  0  0  0  0  0  0  0  0  0
  -25.3974   -9.2351   24.1935 C   0  0  0  0  0  0  0  0  0  0  0  0
  -26.3097   -9.0966   21.9607 C   0  0  0  0  0  0  0  0  0  0  0  0
  -28.7483  -15.7809   20.1568 C   0  0  0  0  0  0  0  0  0  0  0  0
  -30.2707  -17.3385   19.8549 C   0  0  0  0  0  0  0  0  0  0  0  0
  -34.5814  -28.7064   21.6531 C   0  0  0  0  0  0  0  0  0  0  0  0
  -31.0466  -15.0336   19.2769 C   0  0  0  0  0  0  0  0  0  0  0  0
  -22.6752  -29.6559   22.3538 C   0  0  0  0  0  0  0  0  0  0  0  0
  -22.8573  -28.9810   19.1862 C   0  0  0  0  0  0  0  0  0  0  0  0
  -25.2532  -27.4748   16.9482 C   0  0  0  0  0  0  0  0  0  0  0  0
  -28.1196  -22.4912   18.7873 C   0  0  0  0  0  0  0  0  0  0  0  0
  -18.3032  -26.7532   23.5058 C   0  0  0  0  0  0  0  0  0  0  0  0
  -24.4466  -31.2809   21.5941 C   0  0  0  0  0  0  0  0  0  0  0  0
  -24.9361  -28.5571   20.5517 C   0  0  0  0  0  0  0  0  0  0  0  0
  -34.1764  -28.4393   23.0850 C   0  0  0  0  0  0  0  0  0  0  0  0
  -34.0928  -27.7462   20.5934 C   0  0  0  0  0  0  0  0  0  0  0  0
  -19.7339  -26.4567   23.9436 C   0  0  0  0  0  0  0  0  0  0  0  0
  -32.8719  -29.1515   23.4121 C   0  0  0  0  0  0  0  0  0  0  0  0
  -27.4612  -20.9041   22.0659 C   0  0  0  0  0  0  0  0  0  0  0  0
  -20.7151  -27.2090   23.0571 C   0  0  0  0  0  0  0  0  0  0  0  0
  -27.7815  -19.4350   21.7951 C   0  0  0  0  0  0  0  0  0  0  0  0
  -26.9932  -21.6243   20.8049 C   0  0  0  0  0  0  0  0  0  0  0  0
  -31.7541  -28.4781   21.2003 C   0  0  0  0  0  0  0  0  0  0  0  0
  -28.2567  -20.0392   19.3889 C   0  0  0  0  0  0  0  0  0  0  0  0
  -20.5300  -28.7248   23.2013 C   0  0  1  0  0  0  0  0  0  0  0  0
  -23.3015  -30.3603   21.1837 C   0  0  1  0  0  0  0  0  0  0  0  0
  -31.6350  -28.5323   22.7350 C   0  0  2  0  0  0  0  0  0  0  0  0
  -28.7757  -19.2962   20.6291 C   0  0  2  0  0  0  0  0  0  0  0  0
  -25.6189  -27.8046   14.4875 C   0  0  0  0  0  0  0  0  0  0  0  0
  -21.0169  -26.5663   18.8835 C   0  0  0  0  0  0  0  0  0  0  0  0
  -22.4646  -25.7872   16.9953 C   0  0  0  0  0  0  0  0  0  0  0  0
  -21.2546  -27.9617   16.8218 C   0  0  0  0  0  0  0  0  0  0  0  0
  -29.4886  -23.1742   16.8537 C   0  0  0  0  0  0  0  0  0  0  0  0
  -28.1038  -28.1638   17.3462 C   0  0  0  0  0  0  0  0  0  0  0  0
  -30.6468  -22.4529   18.9089 C   0  0  0  0  0  0  0  0  0  0  0  0
  -30.3906  -29.3377   23.1254 C   0  0  0  0  0  0  0  0  0  1  0  0
  -23.2429  -27.7699   18.3716 C   0  0  1  0  0  0  0  0  0  0  0  0
  -26.0763  -28.1833   15.8876 C   0  0  2  0  0  0  0  0  0  0  0  0
  -22.0059  -27.0260   17.7938 C   0  0  0  0  0  0  0  0  0  0  0  0
  -28.1423  -16.9153   20.5173 N   0  0  0  0  0  0  0  0  0  0  0  0
  -29.0937  -17.8444   20.3227 N   0  0  0  0  0  0  0  0  0  0  0  0
  -32.6785  -27.4181   20.7745 N   0  0  3  0  0  0  0  0  0  0  0  0
  -23.7202  -29.3251   20.2364 N   0  0  0  0  0  0  0  0  0  0  0  0
  -27.9350  -21.4400   19.7003 N   0  0  0  0  0  0  0  0  0  0  0  0
  -31.3322  -18.1341   19.6044 N   0  0  0  0  0  0  0  0  0  0  0  0
  -31.1073  -14.7492   17.9058 N   0  0  0  0  0  0  0  0  0  0  0  0
  -21.3271  -29.3953   22.1978 N   0  0  0  0  0  0  0  0  0  0  0  0
  -24.1832  -28.2407   17.3603 N   0  0  0  0  0  0  0  0  0  0  0  0
  -29.3839  -22.6044   18.1894 N   0  0  0  0  0  0  0  0  0  0  0  0
  -27.5164  -27.8250   16.0244 N   0  3  0  0  0  0  0  0  0  0  0  0
  -35.3099  -29.6563   21.3636 O   0  0  0  0  0  0  0  0  0  0  0  0
  -31.8256  -14.4415   20.0618 O   0  0  0  0  0  0  0  0  0  0  0  0
  -23.3643  -29.3686   23.3256 O   0  0  0  0  0  0  0  0  0  0  0  0
  -21.8322  -29.6031   18.8968 O   0  0  0  0  0  0  0  0  0  0  0  0
  -25.5295  -26.3527   17.3664 O   0  0  0  0  0  0  0  0  0  0  0  0
  -27.2094  -23.2890   18.5288 O   0  0  0  0  0  0  0  0  0  0  0  0
  -25.9941  -10.9218   20.4218 O   0  0  0  0  0  0  0  0  0  0  0  0
  -29.2299  -28.5396   22.8970 O   0  0  0  0  0  0  0  0  0  1  0  0
  -25.2071   -8.6952   25.4045 F   0  0  0  0  0  0  0  0  0  0  0  0
  -26.9964   -8.4184   21.0311 F   0  0  0  0  0  0  0  0  0  0  0  0
  1  2  1  0  0  0  0
  1  5  2  0  0  0  0
  2  6  2  0  0  0  0
  3 12  2  0  0  0  0
  3 19  1  0  0  0  0
  4 13  1  0  0  0  0
  4 19  2  0  0  0  0
  5 21  1  0  0  0  0
  6 23  1  0  0  0  0
  7 14  2  0  0  0  0
  7 22  1  0  0  0  0
  8 10  2  0  0  0  0
  8 25  1  0  0  0  0
  9 11  1  0  0  0  0
  9 25  2  0  0  0  0
 10 26  1  0  0  0  0
 11 26  2  0  0  0  0
 12 27  1  0  0  0  0
 13 27  2  0  0  0  0
 14 28  1  0  0  0  0
 15 16  2  0  0  0  0
 15 29  1  0  0  0  0
 16 30  1  0  0  0  0
 17 24  1  0  0  0  0
 17 28  2  0  0  0  0
 18 30  2  0  0  0  0
 18 31  1  0  0  0  0
 19 32  1  0  0  0  0
 20 32  1  0  0  0  0
 20 33  2  0  0  0  0
 20 35  1  0  0  0  0
 21 23  2  0  0  0  0
 21 40  1  0  0  0  0
 22 24  2  0  0  0  0
 22 41  1  0  0  0  0
 23 53  1  0  0  0  0
 24 42  1  0  0  0  0
 25 63  1  0  0  0  0
 26 70  1  0  0  0  0
 27 85  1  0  0  0  0
 28 86  1  0  0  0  0
 29 31  2  0  0  0  0
 29 85  1  0  0  0  0
 30 87  1  0  0  0  0
 31 88  1  0  0  0  0
 32 68  2  0  0  0  0
 33 69  1  0  0  0  0
 33 73  1  0  0  0  0
 34 43  1  0  0  0  0
 34 44  1  0  0  0  0
 34 79  2  0  0  0  0
 35 74  1  0  0  0  0
 35 80  2  0  0  0  0
 36 54  1  0  0  0  0
 36 75  1  0  0  0  0
 36 81  2  0  0  0  0
 37 65  1  0  0  0  0
 37 71  1  0  0  0  0
 37 82  2  0  0  0  0
 38 66  1  0  0  0  0
 38 76  1  0  0  0  0
 38 83  2  0  0  0  0
 39 72  1  0  0  0  0
 39 77  1  0  0  0  0
 39 84  2  0  0  0  0
 40 45  1  0  0  0  0
 41 54  1  0  0  0  0
 42 71  1  0  0  0  0
 43 46  1  0  0  0  0
 44 70  1  0  0  0  0
 45 48  1  0  0  0  0
 46 55  1  0  0  0  0
 47 49  1  0  0  0  0
 47 50  1  0  0  0  0
 48 53  1  0  0  0  0
 49 56  1  0  0  0  0
 50 72  1  0  0  0  0
 51 55  1  0  0  0  0
 51 70  1  0  0  0  0
 52 56  1  0  0  0  0
 52 72  1  0  0  0  0
 53 75  1  0  0  0  0
 54 71  1  0  0  0  0
 55 64  1  0  0  0  0
 56 69  1  0  0  0  0
 57 66  1  0  0  0  0
 58 67  1  0  0  0  0
 59 67  1  0  0  0  0
 60 67  1  0  0  0  0
 61 77  1  0  0  0  0
 62 78  1  0  0  0  0
 63 77  1  0  0  0  0
 64 86  1  0  0  0  0
 65 67  1  0  0  0  0
 65 76  1  0  0  0  0
 66 78  1  0  0  0  0
 68 69  1  0  0  0  0
M  CHG  1  78   1
M  ISO  4  39 100  64 101  77 100  86 101
M  END
> <Batch ID>
0098

> <Smiles>
CNC(C)C(=O)NC(C(=O)N1Cc2cc([101O:1][101CH2:1]C3CCC(=O)CN(c4ccc(C[100N:0](C)[100C:0](=O)N5CCCC(n6nc(-c7ccc(Oc8ccc(F)cc8F)cc7)c(C(N)=O)c6N)C5)cc4)C3)ccc2CC1C(=O)NC1CCCc2ccccc21)C(C)(C)C

> <Shape>
0.271

> <Color>
0.120

> <Negative vol penalty>
0.000

$$$$

  -OEChem-04052300513D

 82 90  0     1  0  0  0  0  0999 V2000
  -32.9207  -21.6279   13.6635 C   0  0  0  0  0  0  0  0  0  0  0  0
  -32.2312  -21.0448   14.7218 C   0  0  0  0  0  0  0  0  0  0  0  0
  -22.9787  -10.0778   19.8311 C   0  0  0  0  0  0  0  0  0  0  0  0
  -23.8975   -9.7485   22.0412 C   0  0  0  0  0  0  0  0  0  0  0  0
  -33.2724  -22.9759   13.7206 C   0  0  0  0  0  0  0  0  0  0  0  0
  -31.8940  -21.8091   15.8383 C   0  0  0  0  0  0  0  0  0  0  0  0
  -26.8509  -21.2835   19.2730 C   0  0  0  0  0  0  0  0  0  0  0  0
  -22.2152   -8.9195   19.9758 C   0  0  0  0  0  0  0  0  0  0  0  0
  -23.1339   -8.5902   22.1860 C   0  0  0  0  0  0  0  0  0  0  0  0
  -26.6073  -20.6502   20.4909 C   0  0  0  0  0  0  0  0  0  0  0  0
  -22.6926   -5.5799   19.7679 C   0  0  0  0  0  0  0  0  0  0  0  0
  -22.6582   -4.6890   18.6952 C   0  0  0  0  0  0  0  0  0  0  0  0
  -26.9526  -22.7424   21.6409 C   0  0  0  0  0  0  0  0  0  0  0  0
  -31.3429  -17.5439   20.9492 C   0  0  0  0  0  0  0  0  0  0  0  0
  -30.9176  -19.5824   22.1740 C   0  0  0  0  0  0  0  0  0  0  0  0
  -29.8474  -17.5234   22.8466 C   0  0  0  0  0  0  0  0  0  0  0  0
  -20.2619   -4.9596   18.5474 C   0  0  0  0  0  0  0  0  0  0  0  0
  -23.8199  -10.4923   20.8637 C   0  0  0  0  0  0  0  0  0  0  0  0
  -24.2387  -13.0007   21.0644 C   0  0  0  0  0  0  0  0  0  0  0  0
  -32.9309  -23.7595   14.8341 C   0  0  0  0  0  0  0  0  0  0  0  0
  -27.1584  -22.6510   19.2307 C   0  0  0  0  0  0  0  0  0  0  0  0
  -32.2427  -23.1685   15.9109 C   0  0  0  0  0  0  0  0  0  0  0  0
  -27.1971  -23.3912   20.4210 C   0  0  0  0  0  0  0  0  0  0  0  0
  -31.5578  -18.9097   21.1333 C   0  0  0  0  0  0  0  0  0  0  0  0
  -30.4876  -16.8507   21.8058 C   0  0  0  0  0  0  0  0  0  0  0  0
  -22.2928   -8.1757   21.1533 C   0  0  0  0  0  0  0  0  0  0  0  0
  -26.6610  -21.3790   21.6754 C   0  0  0  0  0  0  0  0  0  0  0  0
  -21.5117   -6.1606   20.2304 C   0  0  0  0  0  0  0  0  0  0  0  0
  -30.0623  -18.8893   23.0307 C   0  0  0  0  0  0  0  0  0  0  0  0
  -21.4429   -4.3789   18.0849 C   0  0  0  0  0  0  0  0  0  0  0  0
  -20.2964   -5.8505   19.6202 C   0  0  0  0  0  0  0  0  0  0  0  0
  -24.6093  -11.6884   20.7145 C   0  0  0  0  0  0  0  0  0  0  0  0
  -25.3277  -13.7666   20.7267 C   0  0  0  0  0  0  0  0  0  0  0  0
  -23.0191  -13.4841   21.6429 C   0  0  0  0  0  0  0  0  0  0  0  0
  -29.6624  -24.3586   18.2728 C   0  0  0  0  0  0  0  0  0  0  0  0
  -27.7009  -26.8646   18.9010 C   0  0  0  0  0  0  0  0  0  0  0  0
  -25.0069  -28.0780   20.6089 C   0  0  0  0  0  0  0  0  0  0  0  0
  -30.8252  -14.6451   20.6363 C   0  0  0  0  0  0  0  0  0  0  0  0
  -33.3742  -25.2006   14.8711 C   0  0  0  0  0  0  0  0  0  0  0  0
  -27.3922  -23.3250   17.9066 C   0  0  0  0  0  0  0  0  0  0  0  0
  -27.5028  -24.8660   20.4280 C   0  0  0  0  0  0  0  0  0  0  0  0
  -32.6509  -26.0334   15.9263 C   0  0  0  0  0  0  0  0  0  0  0  0
  -29.4654  -12.6105   18.0501 C   0  0  0  0  0  0  0  0  0  0  0  0
  -32.6093  -25.2894   17.2573 C   0  0  0  0  0  0  0  0  0  0  0  0
  -28.0503  -12.2972   18.5415 C   0  0  0  0  0  0  0  0  0  0  0  0
  -30.4699  -12.6484   19.2004 C   0  0  0  0  0  0  0  0  0  0  0  0
  -28.6905  -13.2204   20.8053 C   0  0  0  0  0  0  0  0  0  0  0  0
  -31.8374  -23.9707   17.1284 C   0  0  1  0  0  0  0  0  0  0  0  0
  -28.2021  -24.6123   18.0261 C   0  0  1  0  0  0  0  0  0  0  0  0
  -27.6320  -13.2357   19.6904 C   0  0  2  0  0  0  0  0  0  0  0  0
  -32.4719  -19.6510   20.2174 C   0  0  0  0  0  0  0  0  0  0  0  0
  -23.6680  -30.1737   20.9443 C   0  0  0  0  0  0  0  0  0  0  0  0
  -29.9166  -27.9943   20.6687 C   0  0  0  0  0  0  0  0  0  0  0  0
  -28.2223  -29.5267   21.6932 C   0  0  0  0  0  0  0  0  0  0  0  0
  -28.7396  -29.6916   19.2585 C   0  0  0  0  0  0  0  0  0  0  0  0
  -22.5402  -26.8048   19.5825 C   0  0  0  0  0  0  0  0  0  0  0  0
  -27.3233  -20.1816   25.0279 C   0  0  0  0  0  0  0  0  0  0  0  0
  -27.0898  -21.2896   24.0129 C   0  0  0  0  0  0  0  0  0  1  0  0
  -28.1637  -19.0519   24.4536 C   0  0  0  0  0  0  0  0  0  0  0  0
  -27.4106  -27.7176   20.1123 C   0  0  1  0  0  0  0  0  0  0  0  0
  -23.8036  -28.8828   20.1519 C   0  0  2  0  0  0  0  0  0  0  0  0
  -28.5684  -28.7043   20.4336 C   0  0  0  0  0  0  0  0  0  0  0  0
  -25.8377  -11.6208   20.1944 N   0  0  0  0  0  0  0  0  0  0  0  0
  -26.2483  -12.9003   20.2148 N   0  0  0  0  0  0  0  0  0  0  0  0
  -27.7304  -25.4783   19.1086 N   0  0  0  0  0  0  0  0  0  0  0  0
  -30.0095  -13.5609   20.2493 N   0  0  0  0  0  0  0  0  0  0  0  0
  -25.5779  -15.0898   20.8207 N   0  0  0  0  0  0  0  0  0  0  0  0
  -22.0029  -12.5617   21.9271 N   0  0  0  0  0  0  0  0  0  0  0  0
  -30.2689  -15.4633   21.6190 N   0  0  0  0  0  0  0  0  0  0  0  0
  -30.4116  -24.2184   17.1201 N   0  0  0  0  0  0  0  0  0  0  0  0
  -26.1277  -28.3640   19.8584 N   0  0  0  0  0  0  0  0  0  0  0  0
  -22.5537  -28.0905   20.3268 N   0  3  0  0  0  0  0  0  0  0  0  0
  -22.8297  -14.7002   21.8850 O   0  0  0  0  0  0  0  0  0  0  0  0
  -30.0789  -24.2961   19.4236 O   0  0  0  0  0  0  0  0  0  0  0  0
  -27.8873  -27.4080   17.8094 O   0  0  0  0  0  0  0  0  0  0  0  0
  -24.9584  -27.2784   21.5410 O   0  0  0  0  0  0  0  0  0  0  0  0
  -31.9238  -14.8496   20.1135 O   0  0  0  0  0  0  0  0  0  0  0  0
  -21.5477   -7.0455   21.2950 O   0  0  0  0  0  0  0  0  0  0  0  0
  -26.4243  -20.7632   22.8656 O   0  0  0  0  0  0  0  0  0  1  0  0
  -29.4329  -19.5504   24.0531 O   0  0  0  0  0  0  0  0  0  0  0  0
  -21.4101   -3.5245   17.0538 F   0  0  0  0  0  0  0  0  0  0  0  0
  -19.1588   -6.4062   20.0593 F   0  0  0  0  0  0  0  0  0  0  0  0
  1  2  1  0  0  0  0
  1  5  2  0  0  0  0
  2  6  2  0  0  0  0
  3  8  2  0  0  0  0
  3 18  1  0  0  0  0
  4  9  1  0  0  0  0
  4 18  2  0  0  0  0
  5 20  1  0  0  0  0
  6 22  1  0  0  0  0
  7 10  2  0  0  0  0
  7 21  1  0  0  0  0
  8 26  1  0  0  0  0
  9 26  2  0  0  0  0
 10 27  1  0  0  0  0
 11 12  2  0  0  0  0
 11 28  1  0  0  0  0
 12 30  1  0  0  0  0
 13 23  1  0  0  0  0
 13 27  2  0  0  0  0
 14 24  1  0  0  0  0
 14 25  2  0  0  0  0
 15 24  2  0  0  0  0
 15 29  1  0  0  0  0
 16 25  1  0  0  0  0
 16 29  2  0  0  0  0
 17 30  2  0  0  0  0
 17 31  1  0  0  0  0
 18 32  1  0  0  0  0
 19 32  1  0  0  0  0
 19 33  2  0  0  0  0
 19 34  1  0  0  0  0
 20 22  2  0  0  0  0
 20 39  1  0  0  0  0
 21 23  2  0  0  0  0
 21 40  1  0  0  0  0
 22 48  1  0  0  0  0
 23 41  1  0  0  0  0
 24 51  1  0  0  0  0
 25 69  1  0  0  0  0
 26 78  1  0  0  0  0
 27 79  1  0  0  0  0
 28 31  2  0  0  0  0
 28 78  1  0  0  0  0
 29 80  1  0  0  0  0
 30 81  1  0  0  0  0
 31 82  1  0  0  0  0
 32 63  2  0  0  0  0
 33 64  1  0  0  0  0
 33 67  1  0  0  0  0
 34 68  1  0  0  0  0
 34 73  2  0  0  0  0
 35 49  1  0  0  0  0
 35 70  1  0  0  0  0
 35 74  2  0  0  0  0
 36 60  1  0  0  0  0
 36 65  1  0  0  0  0
 36 75  2  0  0  0  0
 37 61  1  0  0  0  0
 37 71  1  0  0  0  0
 37 76  2  0  0  0  0
 38 66  1  0  0  0  0
 38 69  1  0  0  0  0
 38 77  2  0  0  0  0
 39 42  1  0  0  0  0
 40 49  1  0  0  0  0
 41 65  1  0  0  0  0
 42 44  1  0  0  0  0
 43 45  1  0  0  0  0
 43 46  1  0  0  0  0
 44 48  1  0  0  0  0
 45 50  1  0  0  0  0
 46 66  1  0  0  0  0
 47 50  1  0  0  0  0
 47 66  1  0  0  0  0
 48 70  1  0  0  0  0
 49 65  1  0  0  0  0
 50 64  1  0  0  0  0
 52 61  1  0  0  0  0
 53 62  1  0  0  0  0
 54 62  1  0  0  0  0
 55 62  1  0  0  0  0
 56 72  1  0  0  0  0
 57 58  1  0  0  0  0
 57 59  1  0  0  0  0
 58 79  1  0  0  0  0
 59 80  1  0  0  0  0
 60 62  1  0  0  0  0
 60 71  1  0  0  0  0
 61 72  1  0  0  0  0
 63 64  1  0  0  0  0
M  CHG  1  72   1
M  ISO  4  38 100  58 101  69 100  79 101
M  END
> <Batch ID>
0098

> <Smiles>
CNC(C)C(=O)NC(C(=O)N1Cc2cc([101O:1][101CH2:1]CCOc3cc(C)cc([100NH:0][100C:0](=O)N4CCCC(n5nc(-c6ccc(Oc7ccc(F)cc7F)cc6)c(C(N)=O)c5N)C4)c3)ccc2CC1C(=O)NC1CCCc2ccccc21)C(C)(C)C

> <Shape>
0.261

> <Color>
0.186

> <Negative vol penalty>
0.000

$$$$

  -OEChem-04052300513D

 86 95  0     1  0  0  0  0  0999 V2000
  -24.0782  -26.7191   19.2653 C   0  0  0  0  0  0  0  0  0  0  0  0
  -24.9128  -25.9504   20.0702 C   0  0  0  0  0  0  0  0  0  0  0  0
  -22.8004  -10.1446   20.0971 C   0  0  0  0  0  0  0  0  0  0  0  0
  -24.1816   -9.5731   21.9953 C   0  0  0  0  0  0  0  0  0  0  0  0
  -23.3535  -27.7729   19.8205 C   0  0  0  0  0  0  0  0  0  0  0  0
  -25.0241  -26.2358   21.4306 C   0  0  0  0  0  0  0  0  0  0  0  0
  -24.8310  -22.0749   24.3107 C   0  0  0  0  0  0  0  0  0  0  0  0
  -30.6109  -14.9777   24.9980 C   0  0  0  0  0  0  0  0  0  0  0  0
  -32.7214  -15.2867   23.8633 C   0  0  0  0  0  0  0  0  0  0  0  0
  -30.6216  -16.3184   25.3829 C   0  0  0  0  0  0  0  0  0  0  0  0
  -32.7321  -16.6274   24.2482 C   0  0  0  0  0  0  0  0  0  0  0  0
  -22.0660   -8.9727   20.2786 C   0  0  0  0  0  0  0  0  0  0  0  0
  -23.4471   -8.4012   22.1768 C   0  0  0  0  0  0  0  0  0  0  0  0
  -25.9867  -21.2988   24.3864 C   0  0  0  0  0  0  0  0  0  0  0  0
  -23.2903   -5.3199   20.7940 C   0  0  0  0  0  0  0  0  0  0  0  0
  -23.9981   -4.1423   21.0346 C   0  0  0  0  0  0  0  0  0  0  0  0
  -26.5128  -22.3006   26.5168 C   0  0  0  0  0  0  0  0  0  0  0  0
  -22.8755   -3.9019   23.1604 C   0  0  0  0  0  0  0  0  0  0  0  0
  -23.8583  -10.4447   20.9554 C   0  0  0  0  0  0  0  0  0  0  0  0
  -24.1337  -12.9763   20.8042 C   0  0  0  0  0  0  0  0  0  0  0  0
  -23.4485  -28.0653   21.1902 C   0  0  0  0  0  0  0  0  0  0  0  0
  -24.5127  -22.9792   25.3341 C   0  0  0  0  0  0  0  0  0  0  0  0
  -24.3010  -27.2954   22.0043 C   0  0  0  0  0  0  0  0  0  0  0  0
  -25.3512  -23.0853   26.4530 C   0  0  0  0  0  0  0  0  0  0  0  0
  -31.6609  -14.4618   24.2383 C   0  0  0  0  0  0  0  0  0  0  0  0
  -31.6821  -17.1432   25.0080 C   0  0  0  0  0  0  0  0  0  0  0  0
  -22.3894   -8.1010   21.3185 C   0  0  0  0  0  0  0  0  0  0  0  0
  -26.8293  -21.4136   25.4882 C   0  0  0  0  0  0  0  0  0  0  0  0
  -22.3752   -5.7886   21.7367 C   0  0  0  0  0  0  0  0  0  0  0  0
  -23.7906   -3.4333   22.2177 C   0  0  0  0  0  0  0  0  0  0  0  0
  -22.1678   -5.0796   22.9198 C   0  0  0  0  0  0  0  0  0  0  0  0
  -24.6176  -11.6548   20.7681 C   0  0  0  0  0  0  0  0  0  0  0  0
  -25.2413  -13.7541   20.5704 C   0  0  0  0  0  0  0  0  0  0  0  0
  -32.9068  -19.2109   25.6202 C   0  0  0  0  0  0  0  0  0  0  0  0
  -22.8020  -13.4577   21.0291 C   0  0  0  0  0  0  0  0  0  0  0  0
  -24.1456  -26.1318   25.5078 C   0  0  0  0  0  0  0  0  0  0  0  0
  -23.2004  -25.4633   28.5380 C   0  0  0  0  0  0  0  0  0  0  0  0
  -24.2564  -23.2724   31.2030 C   0  0  0  0  0  0  0  0  0  0  0  0
  -31.1019  -12.8615   21.4120 C   0  0  0  0  0  0  0  0  0  0  0  0
  -22.6821  -29.2442   21.7357 C   0  0  0  0  0  0  0  0  0  0  0  0
  -23.2485  -23.7899   25.2501 C   0  0  0  0  0  0  0  0  0  0  0  0
  -25.0438  -24.0264   27.5879 C   0  0  0  0  0  0  0  0  0  0  0  0
  -32.8270  -20.7222   25.7253 C   0  0  0  0  0  0  0  0  0  0  0  0
  -22.5687  -29.2452   23.2580 C   0  0  0  0  0  0  0  0  0  0  0  0
  -31.5734  -21.2360   26.3987 C   0  0  0  0  0  0  0  0  0  0  0  0
  -29.4772  -13.6659   18.3477 C   0  0  0  0  0  0  0  0  0  0  0  0
  -23.9227  -28.9477   23.8944 C   0  0  0  0  0  0  0  0  0  0  0  0
  -28.0039  -13.3610   18.6238 C   0  0  0  0  0  0  0  0  0  0  0  0
  -30.4001  -12.6683   19.0441 C   0  0  0  0  0  0  0  0  0  0  0  0
  -30.4025  -19.1405   25.7813 C   0  0  0  0  0  0  0  0  0  0  0  0
  -28.6998  -12.2176   20.7702 C   0  0  0  0  0  0  0  0  0  0  0  0
  -24.4294  -27.5583   23.4890 C   0  0  1  0  0  0  0  0  0  0  0  0
  -23.2897  -25.0517   26.1066 C   0  0  1  0  0  0  0  0  0  0  0  0
  -30.3614  -20.6647   25.6815 C   0  0  1  0  0  0  0  0  0  0  0  0
  -27.7319  -13.2302   20.1345 C   0  0  2  0  0  0  0  0  0  0  0  0
  -22.9551  -22.2591   33.0944 C   0  0  0  0  0  0  0  0  0  0  0  0
  -24.1619  -27.8907   30.1170 C   0  0  0  0  0  0  0  0  0  0  0  0
  -24.4383  -26.3986   32.1084 C   0  0  0  0  0  0  0  0  0  0  0  0
  -22.1799  -26.7248   31.1003 C   0  0  0  0  0  0  0  0  0  0  0  0
  -25.0870  -20.5309   30.4591 C   0  0  0  0  0  0  0  0  0  0  0  0
  -31.6494  -13.0284   23.8268 C   0  0  0  0  0  0  0  0  0  0  0  0
  -29.0649  -21.2125   26.2742 C   0  0  0  0  0  0  0  0  0  1  0  0
  -23.8968  -25.3343   29.8712 C   0  0  1  0  0  0  0  0  0  0  0  0
  -23.5314  -22.0366   31.7047 C   0  0  2  0  0  0  0  0  0  0  0  0
  -23.6826  -26.5813   30.7748 C   0  0  0  0  0  0  0  0  0  0  0  0
  -25.9304  -11.5928   20.5299 N   0  0  0  0  0  0  0  0  0  0  0  0
  -26.2808  -12.8851   20.4141 N   0  0  0  0  0  0  0  0  0  0  0  0
  -31.6933  -18.5345   25.4070 N   0  0  0  0  0  0  0  0  0  0  0  0
  -23.7994  -24.8021   27.4564 N   0  0  0  0  0  0  0  0  0  0  0  0
  -30.0913  -12.5929   20.4741 N   0  0  0  0  0  0  0  0  0  0  0  0
  -25.4178  -15.0898   20.4852 N   0  0  0  0  0  0  0  0  0  0  0  0
  -22.4034  -13.7302   22.3449 N   0  0  0  0  0  0  0  0  0  0  0  0
  -23.7472  -26.5308   24.2463 N   0  0  0  0  0  0  0  0  0  0  0  0
  -23.4272  -24.0837   30.4577 N   0  0  0  0  0  0  0  0  0  0  0  0
  -30.7232  -12.7740   22.7460 N   0  0  0  0  0  0  0  0  0  0  0  0
  -24.4648  -20.8763   31.7631 N   0  3  0  0  0  0  0  0  0  0  0  0
  -34.0219  -18.6846   25.6683 O   0  0  0  0  0  0  0  0  0  0  0  0
  -21.9843  -13.6252   20.0928 O   0  0  0  0  0  0  0  0  0  0  0  0
  -25.0961  -26.5718   26.1440 O   0  0  0  0  0  0  0  0  0  0  0  0
  -22.1594  -26.1204   28.4606 O   0  0  0  0  0  0  0  0  0  0  0  0
  -25.4390  -23.4974   31.4508 O   0  0  0  0  0  0  0  0  0  0  0  0
  -32.2548  -13.1625   21.0847 O   0  0  0  0  0  0  0  0  0  0  0  0
  -21.6728   -6.9575   21.4960 O   0  0  0  0  0  0  0  0  0  0  0  0
  -27.9583  -20.6577   25.5643 O   0  0  0  0  0  0  0  0  0  1  0  0
  -24.4692   -2.3016   22.4479 F   0  0  0  0  0  0  0  0  0  0  0  0
  -21.2890   -5.5243   23.8287 F   0  0  0  0  0  0  0  0  0  0  0  0
  1  2  1  0  0  0  0
  1  5  2  0  0  0  0
  2  6  2  0  0  0  0
  3 12  2  0  0  0  0
  3 19  1  0  0  0  0
  4 13  1  0  0  0  0
  4 19  2  0  0  0  0
  5 21  1  0  0  0  0
  6 23  1  0  0  0  0
  7 14  2  0  0  0  0
  7 22  1  0  0  0  0
  8 10  2  0  0  0  0
  8 25  1  0  0  0  0
  9 11  1  0  0  0  0
  9 25  2  0  0  0  0
 10 26  1  0  0  0  0
 11 26  2  0  0  0  0
 12 27  1  0  0  0  0
 13 27  2  0  0  0  0
 14 28  1  0  0  0  0
 15 16  2  0  0  0  0
 15 29  1  0  0  0  0
 16 30  1  0  0  0  0
 17 24  1  0  0  0  0
 17 28  2  0  0  0  0
 18 30  2  0  0  0  0
 18 31  1  0  0  0  0
 19 32  1  0  0  0  0
 20 32  1  0  0  0  0
 20 33  2  0  0  0  0
 20 35  1  0  0  0  0
 21 23  2  0  0  0  0
 21 40  1  0  0  0  0
 22 24  2  0  0  0  0
 22 41  1  0  0  0  0
 23 52  1  0  0  0  0
 24 42  1  0  0  0  0
 25 61  1  0  0  0  0
 26 68  1  0  0  0  0
 27 83  1  0  0  0  0
 28 84  1  0  0  0  0
 29 31  2  0  0  0  0
 29 83  1  0  0  0  0
 30 85  1  0  0  0  0
 31 86  1  0  0  0  0
 32 66  2  0  0  0  0
 33 67  1  0  0  0  0
 33 71  1  0  0  0  0
 34 43  1  0  0  0  0
 34 68  1  0  0  0  0
 34 77  2  0  0  0  0
 35 72  1  0  0  0  0
 35 78  2  0  0  0  0
 36 53  1  0  0  0  0
 36 73  1  0  0  0  0
 36 79  2  0  0  0  0
 37 63  1  0  0  0  0
 37 69  1  0  0  0  0
 37 80  2  0  0  0  0
 38 64  1  0  0  0  0
 38 74  1  0  0  0  0
 38 81  2  0  0  0  0
 39 70  1  0  0  0  0
 39 75  1  0  0  0  0
 39 82  2  0  0  0  0
 40 44  1  0  0  0  0
 41 53  1  0  0  0  0
 42 69  1  0  0  0  0
 43 45  1  0  0  0  0
 44 47  1  0  0  0  0
 45 54  1  0  0  0  0
 46 48  1  0  0  0  0
 46 49  1  0  0  0  0
 47 52  1  0  0  0  0
 48 55  1  0  0  0  0
 49 70  1  0  0  0  0
 50 54  1  0  0  0  0
 50 68  1  0  0  0  0
 51 55  1  0  0  0  0
 51 70  1  0  0  0  0
 52 73  1  0  0  0  0
 53 69  1  0  0  0  0
 54 62  1  0  0  0  0
 55 67  1  0  0  0  0
 56 64  1  0  0  0  0
 57 65  1  0  0  0  0
 58 65  1  0  0  0  0
 59 65  1  0  0  0  0
 60 76  1  0  0  0  0
 61 75  1  0  0  0  0
 62 84  1  0  0  0  0
 63 65  1  0  0  0  0
 63 74  1  0  0  0  0
 64 76  1  0  0  0  0
 66 67  1  0  0  0  0
M  CHG  1  76   1
M  ISO  4  39 100  62 101  75 100  84 101
M  END
> <Batch ID>
0098

> <Smiles>
CNC(C)C(=O)NC(C(=O)N1Cc2cc([101O:1][101CH2:1]C3CCC(=O)N(c4ccc(C[100NH:0][100C:0](=O)N5CCCC(n6nc(-c7ccc(Oc8ccc(F)cc8F)cc7)c(C(N)=O)c6N)C5)cc4)C3)ccc2CC1C(=O)NC1CCCc2ccccc21)C(C)(C)C

> <Shape>
0.169

> <Color>
0.155

> <Negative vol penalty>
0.000

$$$$

  -OEChem-04052300513D

 83 91  0     1  0  0  0  0  0999 V2000
  -27.4594  -34.8146   17.0151 C   0  0  0  0  0  0  0  0  0  0  0  0
  -27.9281  -33.6180   16.4822 C   0  0  0  0  0  0  0  0  0  0  0  0
  -23.9658   -9.7793   21.8996 C   0  0  0  0  0  0  0  0  0  0  0  0
  -21.9616  -10.4126   20.7082 C   0  0  0  0  0  0  0  0  0  0  0  0
  -24.7587  -19.1872   21.6749 C   0  0  0  0  0  0  0  0  0  0  0  0
  -27.1791  -34.9071   18.3777 C   0  0  0  0  0  0  0  0  0  0  0  0
  -28.1178  -32.5135   17.3120 C   0  0  0  0  0  0  0  0  0  0  0  0
  -27.7480  -25.3597   17.2563 C   0  0  0  0  0  0  0  0  0  0  0  0
  -25.9885  -19.4471   21.0703 C   0  0  0  0  0  0  0  0  0  0  0  0
  -23.5421   -8.4504   21.9060 C   0  0  0  0  0  0  0  0  0  0  0  0
  -21.5380   -9.0836   20.7146 C   0  0  0  0  0  0  0  0  0  0  0  0
  -28.5156  -24.2391   17.5704 C   0  0  0  0  0  0  0  0  0  0  0  0
  -21.3650   -6.5390   23.6470 C   0  0  0  0  0  0  0  0  0  0  0  0
  -21.4827   -5.8278   24.8410 C   0  0  0  0  0  0  0  0  0  0  0  0
  -23.6586  -19.4171   19.5362 C   0  0  0  0  0  0  0  0  0  0  0  0
  -27.9228  -24.4922   19.8950 C   0  0  0  0  0  0  0  0  0  0  0  0
  -22.9345   -4.2350   23.7492 C   0  0  0  0  0  0  0  0  0  0  0  0
  -23.1755  -10.7605   21.3007 C   0  0  0  0  0  0  0  0  0  0  0  0
  -23.5937  -19.1722   20.9078 C   0  0  0  0  0  0  0  0  0  0  0  0
  -24.3962  -12.7716   20.3144 C   0  0  0  0  0  0  0  0  0  0  0  0
  -27.3563  -33.8004   19.2229 C   0  0  0  0  0  0  0  0  0  0  0  0
  -27.0697  -26.0626   18.2624 C   0  0  0  0  0  0  0  0  0  0  0  0
  -27.8409  -32.5917   18.6875 C   0  0  0  0  0  0  0  0  0  0  0  0
  -27.1452  -25.6199   19.5907 C   0  0  0  0  0  0  0  0  0  0  0  0
  -26.0534  -19.6921   19.6987 C   0  0  0  0  0  0  0  0  0  0  0  0
  -22.3282   -8.1025   21.3135 C   0  0  0  0  0  0  0  0  0  0  0  0
  -28.6055  -23.8068   18.8903 C   0  0  0  0  0  0  0  0  0  0  0  0
  -22.0319   -6.0982   22.5039 C   0  0  0  0  0  0  0  0  0  0  0  0
  -22.2675   -4.6758   24.8922 C   0  0  0  0  0  0  0  0  0  0  0  0
  -24.8885  -19.6771   18.9316 C   0  0  0  0  0  0  0  0  0  0  0  0
  -22.8167   -4.9462   22.5550 C   0  0  0  0  0  0  0  0  0  0  0  0
  -23.6123  -12.1335   21.2943 C   0  0  0  0  0  0  0  0  0  0  0  0
  -24.5321  -14.0605   20.7692 C   0  0  0  0  0  0  0  0  0  0  0  0
  -22.3110  -18.9012   21.5372 C   0  0  0  0  0  0  0  0  0  0  0  0
  -24.9518  -12.2463   19.1016 C   0  0  0  0  0  0  0  0  0  0  0  0
  -22.2057  -18.6370   22.9906 C   0  0  0  0  0  0  0  0  0  0  0  0
  -27.2016  -29.0246   19.4083 C   0  0  0  0  0  0  0  0  0  0  0  0
  -24.6315  -28.0549   21.1336 C   0  0  0  0  0  0  0  0  0  0  0  0
  -22.8671  -25.4738   22.5016 C   0  0  0  0  0  0  0  0  0  0  0  0
  -27.0849  -33.9624   20.6976 C   0  0  0  0  0  0  0  0  0  0  0  0
  -26.2243  -27.2538   17.9033 C   0  0  0  0  0  0  0  0  0  0  0  0
  -26.4198  -26.3275   20.7049 C   0  0  0  0  0  0  0  0  0  0  0  0
  -26.9565  -32.6362   21.4426 C   0  0  0  0  0  0  0  0  0  0  0  0
  -23.4137  -16.1211   25.2418 C   0  0  0  0  0  0  0  0  0  0  0  0
  -28.0869  -31.6908   21.0483 C   0  0  0  0  0  0  0  0  0  0  0  0
  -23.5998  -14.9008   24.3406 C   0  0  0  0  0  0  0  0  0  0  0  0
  -22.2226  -16.9651   24.7998 C   0  0  0  0  0  0  0  0  0  0  0  0
  -22.4739  -16.1772   22.4621 C   0  0  0  0  0  0  0  0  0  0  0  0
  -28.0360  -31.3643   19.5509 C   0  0  1  0  0  0  0  0  0  0  0  0
  -25.9913  -28.1973   19.0793 C   0  0  1  0  0  0  0  0  0  0  0  0
  -23.6844  -15.3152   22.8607 C   0  0  2  0  0  0  0  0  0  0  0  0
  -20.8304  -24.9961   23.8877 C   0  0  0  0  0  0  0  0  0  0  0  0
  -26.1202  -28.9741   23.6334 C   0  0  0  0  0  0  0  0  0  0  0  0
  -24.5059  -27.6362   25.0019 C   0  0  0  0  0  0  0  0  0  0  0  0
  -23.6826  -29.5328   23.6062 C   0  0  0  0  0  0  0  0  0  0  0  0
  -21.6272  -23.8783   20.3392 C   0  0  0  0  0  0  0  0  0  0  0  0
  -29.6745  -20.3563   18.8839 C   0  0  0  0  0  0  0  0  0  0  0  0
  -28.5283  -19.9861   19.8174 C   0  0  0  0  0  0  0  0  0  0  0  0
  -29.4730  -21.7031   18.1993 C   0  0  0  0  0  0  0  0  0  1  0  0
  -24.4327  -27.3980   22.4782 C   0  0  1  0  0  0  0  0  0  0  0  0
  -21.3857  -25.1429   22.4795 C   0  0  2  0  0  0  0  0  0  0  0  0
  -24.7007  -28.3729   23.6595 C   0  0  0  0  0  0  0  0  0  0  0  0
  -23.2741  -12.9497   22.2960 N   0  0  0  0  0  0  0  0  0  0  0  0
  -21.1823  -18.8736   20.8812 N   0  0  0  0  0  0  0  0  0  0  0  0
  -23.8483  -14.1139   21.9480 N   0  0  0  0  0  0  0  0  0  0  0  0
  -22.3162  -17.3102   23.3827 N   0  0  0  0  0  0  0  0  0  0  0  0
  -25.6111  -27.4907   20.3042 N   0  0  0  0  0  0  0  0  0  0  0  0
  -25.1687  -15.1420   20.2717 N   0  0  0  0  0  0  0  0  0  0  0  0
  -24.7154  -10.9013   18.7860 N   0  0  0  0  0  0  0  0  0  0  0  0
  -27.2767  -19.9508   19.1002 N   0  0  0  0  0  0  0  0  0  0  0  0
  -27.0038  -30.3863   19.2817 N   0  0  0  0  0  0  0  0  0  0  0  0
  -23.0871  -26.8344   22.4622 N   0  0  0  0  0  0  0  0  0  0  0  0
  -21.1508  -23.8670   21.7463 N   0  3  0  0  0  0  0  0  0  0  0  0
  -25.6513  -12.9443   18.3290 O   0  0  0  0  0  0  0  0  0  0  0  0
  -22.0311  -19.6230   23.6946 O   0  0  0  0  0  0  0  0  0  0  0  0
  -28.2379  -28.4687   19.7532 O   0  0  0  0  0  0  0  0  0  0  0  0
  -23.9382  -29.0281   20.8275 O   0  0  0  0  0  0  0  0  0  0  0  0
  -23.7414  -24.6116   22.5528 O   0  0  0  0  0  0  0  0  0  0  0  0
  -21.9146   -6.8058   21.3194 O   0  0  0  0  0  0  0  0  0  0  0  0
  -29.3545  -22.7137   19.1998 O   0  0  0  0  0  0  0  0  0  1  0  0
  -22.3817   -3.9938   26.0393 F   0  0  0  0  0  0  0  0  0  0  0  0
  -24.9391  -19.9114   17.6125 F   0  0  0  0  0  0  0  0  0  0  0  0
  -23.4608   -4.5185   21.4605 F   0  0  0  0  0  0  0  0  0  0  0  0
  1  2  1  0  0  0  0
  1  6  2  0  0  0  0
  2  7  2  0  0  0  0
  3 10  2  0  0  0  0
  3 18  1  0  0  0  0
  4 11  1  0  0  0  0
  4 18  2  0  0  0  0
  5  9  2  0  0  0  0
  5 19  1  0  0  0  0
  6 21  1  0  0  0  0
  7 23  1  0  0  0  0
  8 12  2  0  0  0  0
  8 22  1  0  0  0  0
  9 25  1  0  0  0  0
 10 26  1  0  0  0  0
 11 26  2  0  0  0  0
 12 27  1  0  0  0  0
 13 14  2  0  0  0  0
 13 28  1  0  0  0  0
 14 29  1  0  0  0  0
 15 19  2  0  0  0  0
 15 30  1  0  0  0  0
 16 24  1  0  0  0  0
 16 27  2  0  0  0  0
 17 29  2  0  0  0  0
 17 31  1  0  0  0  0
 18 32  1  0  0  0  0
 19 34  1  0  0  0  0
 20 32  1  0  0  0  0
 20 33  2  0  0  0  0
 20 35  1  0  0  0  0
 21 23  2  0  0  0  0
 21 40  1  0  0  0  0
 22 24  2  0  0  0  0
 22 41  1  0  0  0  0
 23 49  1  0  0  0  0
 24 42  1  0  0  0  0
 25 30  2  0  0  0  0
 25 70  1  0  0  0  0
 26 79  1  0  0  0  0
 27 80  1  0  0  0  0
 28 31  2  0  0  0  0
 28 79  1  0  0  0  0
 29 81  1  0  0  0  0
 30 82  1  0  0  0  0
 31 83  1  0  0  0  0
 32 63  2  0  0  0  0
 33 65  1  0  0  0  0
 33 68  1  0  0  0  0
 34 36  1  0  0  0  0
 34 64  2  0  0  0  0
 35 69  1  0  0  0  0
 35 74  2  0  0  0  0
 36 66  1  0  0  0  0
 36 75  2  0  0  0  0
 37 50  1  0  0  0  0
 37 71  1  0  0  0  0
 37 76  2  0  0  0  0
 38 60  1  0  0  0  0
 38 67  1  0  0  0  0
 38 77  2  0  0  0  0
 39 61  1  0  0  0  0
 39 72  1  0  0  0  0
 39 78  2  0  0  0  0
 40 43  1  0  0  0  0
 41 50  1  0  0  0  0
 42 67  1  0  0  0  0
 43 45  1  0  0  0  0
 44 46  1  0  0  0  0
 44 47  1  0  0  0  0
 45 49  1  0  0  0  0
 46 51  1  0  0  0  0
 47 66  1  0  0  0  0
 48 51  1  0  0  0  0
 48 66  1  0  0  0  0
 49 71  1  0  0  0  0
 50 67  1  0  0  0  0
 51 65  1  0  0  0  0
 52 61  1  0  0  0  0
 53 62  1  0  0  0  0
 54 62  1  0  0  0  0
 55 62  1  0  0  0  0
 56 73  1  0  0  0  0
 57 58  1  0  0  0  0
 57 59  1  0  0  0  0
 58 70  1  0  0  0  0
 59 80  1  0  0  0  0
 60 62  1  0  0  0  0
 60 72  1  0  0  0  0
 61 73  1  0  0  0  0
 63 65  1  0  0  0  0
M  CHG  1  73   1
M  ISO  4  34 100  36 100  59 101  80 101
M  END
> <Batch ID>
0098

> <Smiles>
CNC(C)C(=O)NC(C(=O)N1Cc2cc([101O:1][101CH2:1]CCNc3ccc([100C:0](=N)[100C:0](=O)N4CCCC(n5nc(-c6ccc(Oc7ccc(F)cc7F)cc6)c(C(N)=O)c5N)C4)cc3F)ccc2CC1C(=O)NC1CCCc2ccccc21)C(C)(C)C

> <Shape>
0.190

> <Color>
0.102

> <Negative vol penalty>
0.000

$$$$

  -OEChem-04052300513D

 85 94  0     1  0  0  0  0  0999 V2000
  -23.4241  -38.0879   19.1970 C   0  0  0  0  0  0  0  0  0  0  0  0
  -23.6784  -36.9650   18.4162 C   0  0  0  0  0  0  0  0  0  0  0  0
  -27.4112  -11.8194   16.7968 C   0  0  0  0  0  0  0  0  0  0  0  0
  -26.0374  -11.3599   18.7304 C   0  0  0  0  0  0  0  0  0  0  0  0
  -23.9573  -38.1772   20.4822 C   0  0  0  0  0  0  0  0  0  0  0  0
  -24.4670  -35.9311   18.9197 C   0  0  0  0  0  0  0  0  0  0  0  0
  -25.1967  -28.8112   18.6181 C   0  0  0  0  0  0  0  0  0  0  0  0
  -29.7193  -21.0522   17.9241 C   0  0  0  0  0  0  0  0  0  0  0  0
  -28.8730  -22.0909   19.9345 C   0  0  0  0  0  0  0  0  0  0  0  0
  -29.7908  -19.8271   18.5871 C   0  0  0  0  0  0  0  0  0  0  0  0
  -28.9444  -20.8657   20.5975 C   0  0  0  0  0  0  0  0  0  0  0  0
  -26.3996  -11.3408   15.9643 C   0  0  0  0  0  0  0  0  0  0  0  0
  -25.0257  -10.8814   17.8978 C   0  0  0  0  0  0  0  0  0  0  0  0
  -26.1628  -27.8370   18.3699 C   0  0  0  0  0  0  0  0  0  0  0  0
  -24.3429   -8.0499   16.1811 C   0  0  0  0  0  0  0  0  0  0  0  0
  -23.7164   -6.8571   16.5423 C   0  0  0  0  0  0  0  0  0  0  0  0
  -26.9655  -28.0651   20.6333 C   0  0  0  0  0  0  0  0  0  0  0  0
  -21.5958   -8.0083   16.6652 C   0  0  0  0  0  0  0  0  0  0  0  0
  -27.2302  -11.8289   18.1799 C   0  0  0  0  0  0  0  0  0  0  0  0
  -29.5876  -11.8265   19.1548 C   0  0  0  0  0  0  0  0  0  0  0  0
  -24.7449  -37.1396   21.0054 C   0  0  0  0  0  0  0  0  0  0  0  0
  -25.1147  -29.4285   19.8745 C   0  0  0  0  0  0  0  0  0  0  0  0
  -25.0124  -36.0072   20.2126 C   0  0  0  0  0  0  0  0  0  0  0  0
  -25.9958  -29.0450   20.8956 C   0  0  0  0  0  0  0  0  0  0  0  0
  -29.2605  -22.1841   18.5978 C   0  0  0  0  0  0  0  0  0  0  0  0
  -29.4032  -19.7338   19.9238 C   0  0  0  0  0  0  0  0  0  0  0  0
  -25.2068  -10.8719   16.5148 C   0  0  0  0  0  0  0  0  0  0  0  0
  -27.0492  -27.4659   19.3767 C   0  0  0  0  0  0  0  0  0  0  0  0
  -23.5960   -9.2219   16.0621 C   0  0  0  0  0  0  0  0  0  0  0  0
  -22.3428   -6.8364   16.7843 C   0  0  0  0  0  0  0  0  0  0  0  0
  -22.2224   -9.2011   16.3041 C   0  0  0  0  0  0  0  0  0  0  0  0
  -28.2751  -12.3226   19.0405 C   0  0  0  0  0  0  0  0  0  0  0  0
  -30.1783  -12.6323   20.0972 C   0  0  0  0  0  0  0  0  0  0  0  0
  -30.2165  -10.7349   18.4702 C   0  0  0  0  0  0  0  0  0  0  0  0
  -25.4331  -32.4080   20.9350 C   0  0  0  0  0  0  0  0  0  0  0  0
  -24.4759  -31.0966   23.7432 C   0  0  0  0  0  0  0  0  0  0  0  0
  -24.2069  -28.3119   25.6977 C   0  0  0  0  0  0  0  0  0  0  0  0
  -29.1298  -18.2246   21.9222 C   0  0  0  0  0  0  0  0  0  0  0  0
  -25.3386  -37.3023   22.3822 C   0  0  0  0  0  0  0  0  0  0  0  0
  -24.0497  -30.4584   20.1343 C   0  0  0  0  0  0  0  0  0  0  0  0
  -25.9363  -29.6628   22.2679 C   0  0  0  0  0  0  0  0  0  0  0  0
  -25.8544  -35.9964   22.9813 C   0  0  0  0  0  0  0  0  0  0  0  0
  -32.2352  -26.4811   18.7548 C   0  0  0  0  0  0  0  0  0  0  0  0
  -29.1286  -15.2908   23.9396 C   0  0  0  0  0  0  0  0  0  0  0  0
  -32.3032  -25.1040   19.3961 C   0  0  0  0  0  0  0  0  0  0  0  0
  -26.6858  -35.2309   21.9569 C   0  0  0  0  0  0  0  0  0  0  0  0
  -29.0352  -14.1513   22.9223 C   0  0  0  0  0  0  0  0  0  0  0  0
  -30.7915  -26.9418   18.6071 C   0  0  0  0  0  0  0  0  0  0  0  0
  -28.3028  -16.5026   23.5114 C   0  0  0  0  0  0  0  0  0  0  0  0
  -28.4904  -15.8591   21.1408 C   0  0  0  0  0  0  0  0  0  0  0  0
  -31.4703  -24.0919   18.6281 C   0  0  0  0  0  0  0  0  0  0  0  0
  -25.8427  -34.8539   20.7328 C   0  0  1  0  0  0  0  0  0  0  0  0
  -24.3889  -31.3891   21.2945 C   0  0  1  0  0  0  0  0  0  0  0  0
  -29.3578  -14.6407   21.4968 C   0  0  2  0  0  0  0  0  0  0  0  0
  -29.9320  -25.9311   17.8373 C   0  0  2  0  0  0  0  0  0  0  0  0
  -23.4159  -27.5602   27.9575 C   0  0  0  0  0  0  0  0  0  0  0  0
  -26.9644  -32.3181   25.0180 C   0  0  0  0  0  0  0  0  0  0  0  0
  -26.6330  -30.7842   26.9687 C   0  0  0  0  0  0  0  0  0  0  0  0
  -24.8926  -32.4814   26.4091 C   0  0  0  0  0  0  0  0  0  0  0  0
  -22.2116  -26.4731   24.5160 C   0  0  0  0  0  0  0  0  0  0  0  0
  -29.1838  -23.5019   17.8846 C   0  0  0  0  0  0  0  0  0  0  0  0
  -28.4814  -26.4077   17.8003 C   0  0  0  0  0  0  0  0  0  1  0  0
  -25.1759  -30.4588   24.9189 C   0  0  1  0  0  0  0  0  0  0  0  0
  -23.0440  -27.7494   26.4951 C   0  0  2  0  0  0  0  0  0  0  0  0
  -25.9191  -31.5002   25.8023 C   0  0  0  0  0  0  0  0  0  0  0  0
  -28.0451  -13.3628   19.8460 N   0  0  0  0  0  0  0  0  0  0  0  0
  -29.2210  -13.5269   20.4756 N   0  0  0  0  0  0  0  0  0  0  0  0
  -24.8816  -30.6697   22.4709 N   0  0  0  0  0  0  0  0  0  0  0  0
  -28.6656  -16.9124   22.1530 N   0  0  0  0  0  0  0  0  0  0  0  0
  -31.4181  -12.6556   20.6309 N   0  0  0  0  0  0  0  0  0  0  0  0
  -29.4655  -10.0123   17.5332 N   0  0  0  0  0  0  0  0  0  0  0  0
  -29.4754  -18.4894   20.5974 N   0  0  0  0  0  0  0  0  0  0  0  0
  -24.9991  -33.7164   21.0310 N   0  0  0  0  0  0  0  0  0  0  0  0
  -24.1609  -29.6883   25.6293 N   0  0  0  0  0  0  0  0  0  0  0  0
  -30.0355  -24.5715   18.5248 N   0  3  1  0  0  0  0  0  0  0  0  0
  -22.6266  -26.4301   25.9418 N   0  3  0  0  0  0  0  0  0  0  0  0
  -31.4042  -10.3997   18.6951 O   0  0  0  0  0  0  0  0  0  0  0  0
  -26.5503  -32.0348   20.5970 O   0  0  0  0  0  0  0  0  0  0  0  0
  -23.5964  -31.9373   23.9465 O   0  0  0  0  0  0  0  0  0  0  0  0
  -25.0717  -27.6016   25.1897 O   0  0  0  0  0  0  0  0  0  0  0  0
  -29.2403  -19.0443   22.8377 O   0  0  0  0  0  0  0  0  0  0  0  0
  -24.2193  -10.4050   15.7027 O   0  0  0  0  0  0  0  0  0  0  0  0
  -27.9935  -26.5158   19.1370 O   0  0  0  0  0  0  0  0  0  1  0  0
  -21.7410   -5.6906   17.1296 F   0  0  0  0  0  0  0  0  0  0  0  0
  -21.4993  -10.3236   16.1902 F   0  0  0  0  0  0  0  0  0  0  0  0
  1  2  1  0  0  0  0
  1  5  2  0  0  0  0
  2  6  2  0  0  0  0
  3 12  2  0  0  0  0
  3 19  1  0  0  0  0
  4 13  1  0  0  0  0
  4 19  2  0  0  0  0
  5 21  1  0  0  0  0
  6 23  1  0  0  0  0
  7 14  2  0  0  0  0
  7 22  1  0  0  0  0
  8 10  2  0  0  0  0
  8 25  1  0  0  0  0
  9 11  1  0  0  0  0
  9 25  2  0  0  0  0
 10 26  1  0  0  0  0
 11 26  2  0  0  0  0
 12 27  1  0  0  0  0
 13 27  2  0  0  0  0
 14 28  1  0  0  0  0
 15 16  2  0  0  0  0
 15 29  1  0  0  0  0
 16 30  1  0  0  0  0
 17 24  1  0  0  0  0
 17 28  2  0  0  0  0
 18 30  2  0  0  0  0
 18 31  1  0  0  0  0
 19 32  1  0  0  0  0
 20 32  1  0  0  0  0
 20 33  2  0  0  0  0
 20 34  1  0  0  0  0
 21 23  2  0  0  0  0
 21 39  1  0  0  0  0
 22 24  2  0  0  0  0
 22 40  1  0  0  0  0
 23 52  1  0  0  0  0
 24 41  1  0  0  0  0
 25 61  1  0  0  0  0
 26 72  1  0  0  0  0
 27 82  1  0  0  0  0
 28 83  1  0  0  0  0
 29 31  2  0  0  0  0
 29 82  1  0  0  0  0
 30 84  1  0  0  0  0
 31 85  1  0  0  0  0
 32 66  2  0  0  0  0
 33 67  1  0  0  0  0
 33 70  1  0  0  0  0
 34 71  1  0  0  0  0
 34 77  2  0  0  0  0
 35 53  1  0  0  0  0
 35 73  1  0  0  0  0
 35 78  2  0  0  0  0
 36 63  1  0  0  0  0
 36 68  1  0  0  0  0
 36 79  2  0  0  0  0
 37 64  1  0  0  0  0
 37 74  1  0  0  0  0
 37 80  2  0  0  0  0
 38 69  1  0  0  0  0
 38 72  1  0  0  0  0
 38 81  2  0  0  0  0
 39 42  1  0  0  0  0
 40 53  1  0  0  0  0
 41 68  1  0  0  0  0
 42 46  1  0  0  0  0
 43 45  1  0  0  0  0
 43 48  1  0  0  0  0
 44 47  1  0  0  0  0
 44 49  1  0  0  0  0
 45 51  1  0  0  0  0
 46 52  1  0  0  0  0
 47 54  1  0  0  0  0
 48 55  1  0  0  0  0
 49 69  1  0  0  0  0
 50 54  1  0  0  0  0
 50 69  1  0  0  0  0
 51 75  1  0  0  0  0
 52 73  1  0  0  0  0
 53 68  1  0  0  0  0
 54 67  1  0  0  0  0
 55 62  1  0  0  0  0
 55 75  1  0  0  0  0
 56 64  1  0  0  0  0
 57 65  1  0  0  0  0
 58 65  1  0  0  0  0
 59 65  1  0  0  0  0
 60 76  1  0  0  0  0
 61 75  1  0  0  0  0
 62 83  1  0  0  0  0
 63 65  1  0  0  0  0
 63 74  1  0  0  0  0
 64 76  1  0  0  0  0
 66 67  1  0  0  0  0
M  CHG  2  75   1  76   1
M  ISO  4  38 100  62 101  72 100  83 101
M  END
> <Batch ID>
0098

> <Smiles>
CNC(C)C(=O)NC(C(=O)N1Cc2cc([101O:1][101CH2:1]C3CCCCN3Cc3ccc([100NH:0][100C:0](=O)N4CCCC(n5nc(-c6ccc(Oc7ccc(F)cc7F)cc6)c(C(N)=O)c5N)C4)cc3)ccc2CC1C(=O)NC1CCCc2ccccc21)C(C)(C)C

> <Shape>
0.260

> <Color>
0.083

> <Negative vol penalty>
0.000

$$$$

  -OEChem-04052300513D

 86 95  0     1  0  0  0  0  0999 V2000
  -25.2510  -38.1211   23.3017 C   0  0  0  0  0  0  0  0  0  0  0  0
  -26.0266  -37.3421   22.4490 C   0  0  0  0  0  0  0  0  0  0  0  0
  -21.9449  -11.4611   21.1801 C   0  0  0  0  0  0  0  0  0  0  0  0
  -24.1067  -12.3607   20.5848 C   0  0  0  0  0  0  0  0  0  0  0  0
  -27.5144  -21.4544   17.9891 C   0  0  0  0  0  0  0  0  0  0  0  0
  -24.5857  -37.5281   24.3739 C   0  0  0  0  0  0  0  0  0  0  0  0
  -26.1381  -35.9696   22.6687 C   0  0  0  0  0  0  0  0  0  0  0  0
  -26.8841  -29.7904   19.1222 C   0  0  0  0  0  0  0  0  0  0  0  0
  -26.2484  -20.9671   18.3136 C   0  0  0  0  0  0  0  0  0  0  0  0
  -22.3535  -10.1973   20.7540 C   0  0  0  0  0  0  0  0  0  0  0  0
  -24.5153  -11.0969   20.1587 C   0  0  0  0  0  0  0  0  0  0  0  0
  -27.6914  -28.6540   19.0965 C   0  0  0  0  0  0  0  0  0  0  0  0
  -24.2396   -7.6562   21.9449 C   0  0  0  0  0  0  0  0  0  0  0  0
  -23.9442   -6.5683   22.7664 C   0  0  0  0  0  0  0  0  0  0  0  0
  -26.4335  -27.7262   20.9338 C   0  0  0  0  0  0  0  0  0  0  0  0
  -27.2136  -19.6411   20.0876 C   0  0  0  0  0  0  0  0  0  0  0  0
  -22.6556   -5.5712   20.9824 C   0  0  0  0  0  0  0  0  0  0  0  0
  -22.8215  -12.5428   21.0955 C   0  0  0  0  0  0  0  0  0  0  0  0
  -28.6301  -21.0350   18.7138 C   0  0  0  0  0  0  0  0  0  0  0  0
  -21.9762  -14.2152   22.8264 C   0  0  0  0  0  0  0  0  0  0  0  0
  -24.6814  -36.1462   24.6012 C   0  0  0  0  0  0  0  0  0  0  0  0
  -25.8506  -29.9082   20.0627 C   0  0  0  0  0  0  0  0  0  0  0  0
  -25.4745  -35.3577   23.7458 C   0  0  0  0  0  0  0  0  0  0  0  0
  -25.6129  -28.8639   20.9677 C   0  0  0  0  0  0  0  0  0  0  0  0
  -26.0980  -20.0604   19.3629 C   0  0  0  0  0  0  0  0  0  0  0  0
  -23.6386  -10.0152   20.2434 C   0  0  0  0  0  0  0  0  0  0  0  0
  -27.4680  -27.6229   20.0042 C   0  0  0  0  0  0  0  0  0  0  0  0
  -23.7429   -7.7017   20.6423 C   0  0  0  0  0  0  0  0  0  0  0  0
  -23.1522   -5.5258   22.2851 C   0  0  0  0  0  0  0  0  0  0  0  0
  -28.4796  -20.1284   19.7631 C   0  0  0  0  0  0  0  0  0  0  0  0
  -22.9510   -6.6592   20.1610 C   0  0  0  0  0  0  0  0  0  0  0  0
  -22.3999  -13.8487   21.5350 C   0  0  0  0  0  0  0  0  0  0  0  0
  -21.6880  -15.5544   22.7261 C   0  0  0  0  0  0  0  0  0  0  0  0
  -29.9640  -21.5497   18.3661 C   0  0  0  0  0  0  0  0  0  0  0  0
  -21.8542  -13.4166   24.0110 C   0  0  0  0  0  0  0  0  0  0  0  0
  -25.2037  -31.9096   22.4458 C   0  0  0  0  0  0  0  0  0  0  0  0
  -22.4274  -30.2372   22.5788 C   0  0  0  0  0  0  0  0  0  0  0  0
  -20.7587  -27.3351   21.9152 C   0  0  0  0  0  0  0  0  0  0  0  0
  -23.6019  -19.8794   19.0742 C   0  0  0  0  0  0  0  0  0  0  0  0
  -23.9822  -35.5577   25.8010 C   0  0  0  0  0  0  0  0  0  0  0  0
  -24.9717  -31.1288   20.0599 C   0  0  0  0  0  0  0  0  0  0  0  0
  -24.5034  -28.9326   21.9840 C   0  0  0  0  0  0  0  0  0  0  0  0
  -23.8500  -34.0380   25.7442 C   0  0  0  0  0  0  0  0  0  0  0  0
  -20.2308  -18.8447   19.5662 C   0  0  0  0  0  0  0  0  0  0  0  0
  -25.1749  -33.4017   25.3363 C   0  0  0  0  0  0  0  0  0  0  0  0
  -20.3659  -17.4822   20.2500 C   0  0  0  0  0  0  0  0  0  0  0  0
  -31.1929  -25.0192   18.1320 C   0  0  0  0  0  0  0  0  0  0  0  0
  -21.3211  -19.0642   18.5189 C   0  0  0  0  0  0  0  0  0  0  0  0
  -31.4506  -23.5203   18.1288 C   0  0  0  0  0  0  0  0  0  0  0  0
  -29.2055  -23.9303   18.8890 C   0  0  0  0  0  0  0  0  0  0  0  0
  -22.8290  -17.5033   19.6846 C   0  0  0  0  0  0  0  0  0  0  0  0
  -25.6002  -33.8618   23.9367 C   0  0  1  0  0  0  0  0  0  0  0  0
  -24.2755  -31.3667   21.3964 C   0  0  1  0  0  0  0  0  0  0  0  0
  -30.0593  -25.1701   19.1491 C   0  0  2  0  0  0  0  0  0  0  0  0
  -21.7915  -17.2633   20.7935 C   0  0  2  0  0  0  0  0  0  0  0  0
  -18.5094  -26.2529   22.1736 C   0  0  0  0  0  0  0  0  0  0  0  0
  -22.9905  -29.7799   25.5426 C   0  0  0  0  0  0  0  0  0  0  0  0
  -21.2762  -27.9555   25.5154 C   0  0  0  0  0  0  0  0  0  0  0  0
  -20.6053  -30.3027   25.0024 C   0  0  0  0  0  0  0  0  0  0  0  0
  -20.4378  -27.0353   18.9885 C   0  0  0  0  0  0  0  0  0  0  0  0
  -29.2911  -26.4711   19.0014 C   0  0  0  0  0  0  0  0  0  1  0  0
  -21.9575  -29.0017   23.3081 C   0  0  1  0  0  0  0  0  0  0  0  0
  -19.4119  -27.0736   21.2655 C   0  0  2  0  0  0  0  0  0  0  0  0
  -21.7296  -29.2592   24.8244 C   0  0  0  0  0  0  0  0  0  0  0  0
  -22.3837  -14.8722   20.6771 N   0  0  0  0  0  0  0  0  0  0  0  0
  -21.9462  -15.8952   21.4309 N   0  0  0  0  0  0  0  0  0  0  0  0
  -30.1622  -22.9198   18.4409 N   0  0  0  0  0  0  0  0  0  0  0  0
  -23.6753  -30.1492   21.9457 N   0  0  0  0  0  0  0  0  0  0  0  0
  -22.6443  -18.8437   19.1067 N   0  0  0  0  0  0  0  0  0  0  0  0
  -21.2414  -16.4619   23.6202 N   0  0  0  0  0  0  0  0  0  0  0  0
  -22.1921  -12.0584   23.9388 N   0  0  0  0  0  0  0  0  0  0  0  0
  -24.8118  -19.5655   19.6924 N   0  0  0  0  0  0  0  0  0  0  0  0
  -24.8465  -33.1566   22.9222 N   0  0  0  0  0  0  0  0  0  0  0  0
  -20.7728  -28.5337   22.5968 N   0  0  0  0  0  0  0  0  0  0  0  0
  -19.5898  -26.3320   19.9851 N   0  3  0  0  0  0  0  0  0  0  0  0
  -30.8193  -20.7283   18.0415 O   0  0  0  0  0  0  0  0  0  0  0  0
  -21.4416  -13.8897   25.0970 O   0  0  0  0  0  0  0  0  0  0  0  0
  -26.1714  -31.2456   22.7984 O   0  0  0  0  0  0  0  0  0  0  0  0
  -21.7104  -31.2408   22.5653 O   0  0  0  0  0  0  0  0  0  0  0  0
  -21.7026  -26.5525   21.8301 O   0  0  0  0  0  0  0  0  0  0  0  0
  -23.3566  -20.9743   18.5614 O   0  0  0  0  0  0  0  0  0  0  0  0
  -24.0377   -8.7821   19.8277 O   0  0  0  0  0  0  0  0  0  0  0  0
  -28.2549  -26.5129   19.9817 O   0  0  0  0  0  0  0  0  0  1  0  0
  -22.8699   -4.4804   23.0736 F   0  0  0  0  0  0  0  0  0  0  0  0
  -29.5449  -19.7180   20.4662 F   0  0  0  0  0  0  0  0  0  0  0  0
  -22.4720   -6.6967   18.9100 F   0  0  0  0  0  0  0  0  0  0  0  0
  1  2  1  0  0  0  0
  1  6  2  0  0  0  0
  2  7  2  0  0  0  0
  3 10  2  0  0  0  0
  3 18  1  0  0  0  0
  4 11  1  0  0  0  0
  4 18  2  0  0  0  0
  5  9  2  0  0  0  0
  5 19  1  0  0  0  0
  6 21  1  0  0  0  0
  7 23  1  0  0  0  0
  8 12  2  0  0  0  0
  8 22  1  0  0  0  0
  9 25  1  0  0  0  0
 10 26  1  0  0  0  0
 11 26  2  0  0  0  0
 12 27  1  0  0  0  0
 13 14  2  0  0  0  0
 13 28  1  0  0  0  0
 14 29  1  0  0  0  0
 15 24  1  0  0  0  0
 15 27  2  0  0  0  0
 16 25  2  0  0  0  0
 16 30  1  0  0  0  0
 17 29  2  0  0  0  0
 17 31  1  0  0  0  0
 18 32  1  0  0  0  0
 19 30  2  0  0  0  0
 19 34  1  0  0  0  0
 20 32  1  0  0  0  0
 20 33  2  0  0  0  0
 20 35  1  0  0  0  0
 21 23  2  0  0  0  0
 21 40  1  0  0  0  0
 22 24  2  0  0  0  0
 22 41  1  0  0  0  0
 23 52  1  0  0  0  0
 24 42  1  0  0  0  0
 25 72  1  0  0  0  0
 26 82  1  0  0  0  0
 27 83  1  0  0  0  0
 28 31  2  0  0  0  0
 28 82  1  0  0  0  0
 29 84  1  0  0  0  0
 30 85  1  0  0  0  0
 31 86  1  0  0  0  0
 32 65  2  0  0  0  0
 33 66  1  0  0  0  0
 33 70  1  0  0  0  0
 34 67  1  0  0  0  0
 34 76  2  0  0  0  0
 35 71  1  0  0  0  0
 35 77  2  0  0  0  0
 36 53  1  0  0  0  0
 36 73  1  0  0  0  0
 36 78  2  0  0  0  0
 37 62  1  0  0  0  0
 37 68  1  0  0  0  0
 37 79  2  0  0  0  0
 38 63  1  0  0  0  0
 38 74  1  0  0  0  0
 38 80  2  0  0  0  0
 39 69  1  0  0  0  0
 39 72  1  0  0  0  0
 39 81  2  0  0  0  0
 40 43  1  0  0  0  0
 41 53  1  0  0  0  0
 42 68  1  0  0  0  0
 43 45  1  0  0  0  0
 44 46  1  0  0  0  0
 44 48  1  0  0  0  0
 45 52  1  0  0  0  0
 46 55  1  0  0  0  0
 47 49  1  0  0  0  0
 47 54  1  0  0  0  0
 48 69  1  0  0  0  0
 49 67  1  0  0  0  0
 50 54  1  0  0  0  0
 50 67  1  0  0  0  0
 51 55  1  0  0  0  0
 51 69  1  0  0  0  0
 52 73  1  0  0  0  0
 53 68  1  0  0  0  0
 54 61  1  0  0  0  0
 55 66  1  0  0  0  0
 56 63  1  0  0  0  0
 57 64  1  0  0  0  0
 58 64  1  0  0  0  0
 59 64  1  0  0  0  0
 60 75  1  0  0  0  0
 61 83  1  0  0  0  0
 62 64  1  0  0  0  0
 62 74  1  0  0  0  0
 63 75  1  0  0  0  0
 65 66  1  0  0  0  0
M  CHG  1  75   1
M  ISO  4  39 100  61 101  72 100  83 101
M  END
> <Batch ID>
0098

> <Smiles>
CNC(C)C(=O)NC(C(=O)N1Cc2cc([101O:1][101CH2:1]C3CCN(C(=O)c4ccc([100NH:0][100C:0](=O)N5CCCC(n6nc(-c7ccc(Oc8ccc(F)cc8F)cc7)c(C(N)=O)c6N)C5)cc4F)C3)ccc2CC1C(=O)NC1CCCc2ccccc21)C(C)(C)C

> <Shape>
0.298

> <Color>
0.072

> <Negative vol penalty>
0.000

$$$$

  -OEChem-04052300513D

 86 94  0     1  0  0  0  0  0999 V2000
  -25.5347  -17.9010   21.5526 C   0  0  0  0  0  0  0  0  0  0  0  0
  -26.0669  -19.0786   21.0374 C   0  0  0  0  0  0  0  0  0  0  0  0
  -26.2409  -12.3413   21.4237 C   0  0  0  0  0  0  0  0  0  0  0  0
  -25.2797  -13.7086   19.6791 C   0  0  0  0  0  0  0  0  0  0  0  0
  -29.3148  -23.3014   17.0785 C   0  0  0  0  0  0  0  0  0  0  0  0
  -24.1585  -17.7838   21.7427 C   0  0  0  0  0  0  0  0  0  0  0  0
  -25.2228  -20.1395   20.7110 C   0  0  0  0  0  0  0  0  0  0  0  0
  -26.9905  -24.5987   22.3346 C   0  0  0  0  0  0  0  0  0  0  0  0
  -28.5266  -22.1836   16.8048 C   0  0  0  0  0  0  0  0  0  0  0  0
  -24.9676  -11.8909   21.7722 C   0  0  0  0  0  0  0  0  0  0  0  0
  -24.0064  -13.2581   20.0276 C   0  0  0  0  0  0  0  0  0  0  0  0
  -28.0095  -25.1894   21.5887 C   0  0  0  0  0  0  0  0  0  0  0  0
  -20.4699  -12.7451   20.6909 C   0  0  0  0  0  0  0  0  0  0  0  0
  -19.4500  -13.6921   20.7838 C   0  0  0  0  0  0  0  0  0  0  0  0
  -30.3304  -22.1313   18.9323 C   0  0  0  0  0  0  0  0  0  0  0  0
  -26.3913  -26.6337   20.5330 C   0  0  0  0  0  0  0  0  0  0  0  0
  -20.6819  -14.8496   22.5100 C   0  0  0  0  0  0  0  0  0  0  0  0
  -26.3969  -13.2502   20.3771 C   0  0  0  0  0  0  0  0  0  0  0  0
  -30.2168  -23.2752   18.1422 C   0  0  0  0  0  0  0  0  0  0  0  0
  -28.5912  -13.1401   19.0807 C   0  0  0  0  0  0  0  0  0  0  0  0
  -23.2981  -18.8474   21.4276 C   0  0  0  0  0  0  0  0  0  0  0  0
  -25.6605  -25.0143   22.1771 C   0  0  0  0  0  0  0  0  0  0  0  0
  -23.8336  -20.0360   20.8959 C   0  0  0  0  0  0  0  0  0  0  0  0
  -25.3575  -26.0484   21.2799 C   0  0  0  0  0  0  0  0  0  0  0  0
  -28.6403  -21.0397   17.5948 C   0  0  0  0  0  0  0  0  0  0  0  0
  -29.5422  -21.0135   18.6586 C   0  0  0  0  0  0  0  0  0  0  0  0
  -23.8504  -12.3492   21.0742 C   0  0  0  0  0  0  0  0  0  0  0  0
  -27.7096  -26.2051   20.6856 C   0  0  0  0  0  0  0  0  0  0  0  0
  -21.5958  -12.8503   21.5077 C   0  0  0  0  0  0  0  0  0  0  0  0
  -19.5560  -14.7444   21.6933 C   0  0  0  0  0  0  0  0  0  0  0  0
  -21.7018  -13.9025   22.4172 C   0  0  0  0  0  0  0  0  0  0  0  0
  -27.7119  -13.7163   20.0170 C   0  0  0  0  0  0  0  0  0  0  0  0
  -29.6989  -13.9518   19.1053 C   0  0  0  0  0  0  0  0  0  0  0  0
  -31.0563  -24.4661   18.4325 C   0  0  0  0  0  0  0  0  0  0  0  0
  -28.4217  -11.9755   18.2619 C   0  0  0  0  0  0  0  0  0  0  0  0
  -22.9706  -23.6137   21.2248 C   0  0  0  0  0  0  0  0  0  0  0  0
  -30.9815  -27.5260   19.6212 C   0  0  0  0  0  0  0  0  0  0  0  0
  -21.6448  -26.4383   22.1117 C   0  0  0  0  0  0  0  0  0  0  0  0
  -22.0514  -29.7795   22.6751 C   0  0  0  0  0  0  0  0  0  0  0  0
  -30.5254  -19.6877   20.5617 C   0  0  0  0  0  0  0  0  0  0  0  0
  -21.8127  -18.6568   21.6061 C   0  0  0  0  0  0  0  0  0  0  0  0
  -24.5763  -24.3853   23.0087 C   0  0  0  0  0  0  0  0  0  0  0  0
  -23.9485  -26.5449   21.0885 C   0  0  0  0  0  0  0  0  0  0  0  0
  -21.0242  -19.9637   21.5863 C   0  0  0  0  0  0  0  0  0  0  0  0
  -32.1410  -16.8675   22.0154 C   0  0  0  0  0  0  0  0  0  0  0  0
  -21.4728  -20.8402   20.4212 C   0  0  0  0  0  0  0  0  0  0  0  0
  -31.2720  -15.6863   21.5777 C   0  0  0  0  0  0  0  0  0  0  0  0
  -31.3020  -18.1083   22.3159 C   0  0  0  0  0  0  0  0  0  0  0  0
  -29.5185  -17.3333   20.8034 C   0  0  0  0  0  0  0  0  0  0  0  0
  -22.9531  -21.2181   20.5531 C   0  0  1  0  0  0  0  0  0  0  0  0
  -23.1886  -24.5338   22.3926 C   0  0  1  0  0  0  0  0  0  0  0  0
  -30.3247  -16.0795   20.4272 C   0  0  2  0  0  0  0  0  0  0  0  0
  -27.7825  -19.8575   17.2792 C   0  0  0  0  0  0  0  0  0  0  0  0
  -30.8662  -27.9259   17.1435 C   0  0  0  0  0  0  0  0  0  0  0  0
  -20.7775  -31.8320   23.3547 C   0  0  0  0  0  0  0  0  0  0  0  0
  -20.4029  -26.5861   19.3285 C   0  0  0  0  0  0  0  0  0  0  0  0
  -19.9639  -29.0181   19.7296 C   0  0  0  0  0  0  0  0  0  0  0  0
  -18.8887  -27.3016   21.1858 C   0  0  0  0  0  0  0  0  0  0  0  0
  -23.7362  -30.1714   25.0766 C   0  0  0  0  0  0  0  0  0  0  0  0
  -29.9992  -26.8335   20.5488 C   0  0  0  0  0  0  0  0  0  1  0  0
  -31.2348  -26.9329   18.2352 C   0  0  2  0  0  0  0  0  0  0  0  0
  -21.3654  -27.7516   21.4216 C   0  0  1  0  0  0  0  0  0  0  0  0
  -21.6270  -30.6647   23.8330 C   0  0  2  0  0  0  0  0  0  0  0  0
  -20.1816  -27.6539   20.4184 C   0  0  0  0  0  0  0  0  0  0  0  0
  -28.2175  -14.8094   20.5944 N   0  0  0  0  0  0  0  0  0  0  0  0
  -29.4266  -14.9266   20.0195 N   0  0  0  0  0  0  0  0  0  0  0  0
  -22.9226  -25.8940   21.9200 N   0  0  0  0  0  0  0  0  0  0  0  0
  -30.4325  -18.4229   21.1802 N   0  0  0  0  0  0  0  0  0  0  0  0
  -30.8697  -13.9195   18.4340 N   0  0  0  0  0  0  0  0  0  0  0  0
  -27.2221  -11.2576   18.3613 N   0  0  0  0  0  0  0  0  0  0  0  0
  -29.6726  -19.8607   19.4720 N   0  0  0  0  0  0  0  0  0  0  0  0
  -30.5312  -25.6924   18.0446 N   0  0  0  0  0  0  0  0  0  0  0  0
  -23.1201  -22.2740   21.5285 N   0  0  0  0  0  0  0  0  0  0  0  0
  -21.1714  -28.7360   22.4807 N   0  0  0  0  0  0  0  0  0  0  0  0
  -22.8237  -31.2104   24.5337 N   0  3  0  0  0  0  0  0  0  0  0  0
  -32.1513  -24.3123   18.9670 O   0  0  0  0  0  0  0  0  0  0  0  0
  -29.3145  -11.5736   17.4777 O   0  0  0  0  0  0  0  0  0  0  0  0
  -22.6862  -24.0844   20.1297 O   0  0  0  0  0  0  0  0  0  0  0  0
  -31.6073  -28.5222   19.9940 O   0  0  0  0  0  0  0  0  0  0  0  0
  -20.7641  -25.9182   22.8013 O   0  0  0  0  0  0  0  0  0  0  0  0
  -23.0606  -29.9945   22.0074 O   0  0  0  0  0  0  0  0  0  0  0  0
  -31.3233  -20.5439   20.9519 O   0  0  0  0  0  0  0  0  0  0  0  0
  -22.6078  -11.9097   21.4138 O   0  0  0  0  0  0  0  0  0  0  0  0
  -28.7023  -26.7830   19.9558 O   0  0  0  0  0  0  0  0  0  1  0  0
  -18.5773  -15.6546   21.7812 F   0  0  0  0  0  0  0  0  0  0  0  0
  -22.7815  -14.0094   23.2037 F   0  0  0  0  0  0  0  0  0  0  0  0
  1  2  1  0  0  0  0
  1  6  2  0  0  0  0
  2  7  2  0  0  0  0
  3 10  2  0  0  0  0
  3 18  1  0  0  0  0
  4 11  1  0  0  0  0
  4 18  2  0  0  0  0
  5  9  2  0  0  0  0
  5 19  1  0  0  0  0
  6 21  1  0  0  0  0
  7 23  1  0  0  0  0
  8 12  2  0  0  0  0
  8 22  1  0  0  0  0
  9 25  1  0  0  0  0
 10 27  1  0  0  0  0
 11 27  2  0  0  0  0
 12 28  1  0  0  0  0
 13 14  2  0  0  0  0
 13 29  1  0  0  0  0
 14 30  1  0  0  0  0
 15 19  2  0  0  0  0
 15 26  1  0  0  0  0
 16 24  1  0  0  0  0
 16 28  2  0  0  0  0
 17 30  2  0  0  0  0
 17 31  1  0  0  0  0
 18 32  1  0  0  0  0
 19 34  1  0  0  0  0
 20 32  1  0  0  0  0
 20 33  2  0  0  0  0
 20 35  1  0  0  0  0
 21 23  2  0  0  0  0
 21 41  1  0  0  0  0
 22 24  2  0  0  0  0
 22 42  1  0  0  0  0
 23 50  1  0  0  0  0
 24 43  1  0  0  0  0
 25 26  2  0  0  0  0
 25 53  1  0  0  0  0
 26 71  1  0  0  0  0
 27 83  1  0  0  0  0
 28 84  1  0  0  0  0
 29 31  2  0  0  0  0
 29 83  1  0  0  0  0
 30 85  1  0  0  0  0
 31 86  1  0  0  0  0
 32 65  2  0  0  0  0
 33 66  1  0  0  0  0
 33 69  1  0  0  0  0
 34 72  1  0  0  0  0
 34 76  2  0  0  0  0
 35 70  1  0  0  0  0
 35 77  2  0  0  0  0
 36 51  1  0  0  0  0
 36 73  1  0  0  0  0
 36 78  2  0  0  0  0
 37 60  1  0  0  0  0
 37 61  1  0  0  0  0
 37 79  2  0  0  0  0
 38 62  1  0  0  0  0
 38 67  1  0  0  0  0
 38 80  2  0  0  0  0
 39 63  1  0  0  0  0
 39 74  1  0  0  0  0
 39 81  2  0  0  0  0
 40 68  1  0  0  0  0
 40 71  1  0  0  0  0
 40 82  2  0  0  0  0
 41 44  1  0  0  0  0
 42 51  1  0  0  0  0
 43 67  1  0  0  0  0
 44 46  1  0  0  0  0
 45 47  1  0  0  0  0
 45 48  1  0  0  0  0
 46 50  1  0  0  0  0
 47 52  1  0  0  0  0
 48 68  1  0  0  0  0
 49 52  1  0  0  0  0
 49 68  1  0  0  0  0
 50 73  1  0  0  0  0
 51 67  1  0  0  0  0
 52 66  1  0  0  0  0
 54 61  1  0  0  0  0
 55 63  1  0  0  0  0
 56 64  1  0  0  0  0
 57 64  1  0  0  0  0
 58 64  1  0  0  0  0
 59 75  1  0  0  0  0
 60 84  1  0  0  0  0
 61 72  1  0  0  0  0
 62 64  1  0  0  0  0
 62 74  1  0  0  0  0
 63 75  1  0  0  0  0
 65 66  1  0  0  0  0
M  CHG  1  75   1
M  ISO  4  40 100  60 101  71 100  84 101
M  END
> <Batch ID>
0098

> <Smiles>
CNC(C)C(=O)NC(C(=O)N1Cc2cc([101O:1][101CH2:1]C(=O)C(C)NC(=O)c3ccc(C)c([100NH:0][100C:0](=O)N4CCCC(n5nc(-c6ccc(Oc7ccc(F)cc7F)cc6)c(C(N)=O)c5N)C4)c3)ccc2CC1C(=O)NC1CCCc2ccccc21)C(C)(C)C

> <Shape>
0.250

> <Color>
0.051

> <Negative vol penalty>
0.000

$$$$

  -OEChem-04052300513D

 84 92  0     1  0  0  0  0  0999 V2000
  -36.8680  -31.2030   20.2633 C   0  0  0  0  0  0  0  0  0  0  0  0
  -35.5695  -31.3478   20.7411 C   0  0  0  0  0  0  0  0  0  0  0  0
  -23.0771   -9.8480   19.9482 C   0  0  0  0  0  0  0  0  0  0  0  0
  -23.8657   -9.8611   22.2318 C   0  0  0  0  0  0  0  0  0  0  0  0
  -37.1320  -30.3111   19.2247 C   0  0  0  0  0  0  0  0  0  0  0  0
  -34.5339  -30.6015   20.1798 C   0  0  0  0  0  0  0  0  0  0  0  0
  -30.5561  -26.1554   24.2171 C   0  0  0  0  0  0  0  0  0  0  0  0
  -29.1226  -18.1542   22.8324 C   0  0  0  0  0  0  0  0  0  0  0  0
  -28.5687  -19.1111   23.6829 C   0  0  0  0  0  0  0  0  0  0  0  0
  -22.3490   -8.6866   20.2063 C   0  0  0  0  0  0  0  0  0  0  0  0
  -23.1376   -8.6996   22.4899 C   0  0  0  0  0  0  0  0  0  0  0  0
  -29.6153  -25.4432   24.9614 C   0  0  0  0  0  0  0  0  0  0  0  0
  -19.9262   -7.8661   23.1322 C   0  0  0  0  0  0  0  0  0  0  0  0
  -19.1846   -7.8167   24.3125 C   0  0  0  0  0  0  0  0  0  0  0  0
  -28.4723  -24.8068   22.9276 C   0  0  0  0  0  0  0  0  0  0  0  0
  -30.7581  -19.5646   24.5984 C   0  0  0  0  0  0  0  0  0  0  0  0
  -20.4562   -5.8922   25.0311 C   0  0  0  0  0  0  0  0  0  0  0  0
  -23.8355  -10.4353   20.9610 C   0  0  0  0  0  0  0  0  0  0  0  0
  -24.1482  -12.9641   20.8395 C   0  0  0  0  0  0  0  0  0  0  0  0
  -36.1008  -29.5464   18.6568 C   0  0  0  0  0  0  0  0  0  0  0  0
  -30.4673  -26.1832   22.8226 C   0  0  0  0  0  0  0  0  0  0  0  0
  -34.7841  -29.6995   19.1317 C   0  0  0  0  0  0  0  0  0  0  0  0
  -29.4189  -25.5081   22.1760 C   0  0  0  0  0  0  0  0  0  0  0  0
  -30.4942  -17.9025   22.8650 C   0  0  0  0  0  0  0  0  0  0  0  0
  -31.3119  -18.6077   23.7480 C   0  0  0  0  0  0  0  0  0  0  0  0
  -29.3865  -19.8163   24.5659 C   0  0  0  0  0  0  0  0  0  0  0  0
  -22.3792   -8.1124   21.4771 C   0  0  0  0  0  0  0  0  0  0  0  0
  -28.5759  -24.7708   24.3182 C   0  0  0  0  0  0  0  0  0  0  0  0
  -20.9328   -6.9284   22.9013 C   0  0  0  0  0  0  0  0  0  0  0  0
  -19.4496   -6.8298   25.2619 C   0  0  0  0  0  0  0  0  0  0  0  0
  -21.1978   -5.9415   23.8507 C   0  0  0  0  0  0  0  0  0  0  0  0
  -24.5882  -11.6347   20.6949 C   0  0  0  0  0  0  0  0  0  0  0  0
  -25.2275  -13.7258   20.4633 C   0  0  0  0  0  0  0  0  0  0  0  0
  -22.8776  -13.4656   21.2750 C   0  0  0  0  0  0  0  0  0  0  0  0
  -31.9343  -27.3924   19.5881 C   0  0  0  0  0  0  0  0  0  0  0  0
  -30.7246  -14.7381   20.6803 C   0  0  0  0  0  0  0  0  0  0  0  0
  -31.0357  -24.4951   19.1310 C   0  0  0  0  0  0  0  0  0  0  0  0
  -27.4886  -21.1655   25.5258 C   0  0  0  0  0  0  0  0  0  0  0  0
  -30.8093  -21.3691   19.4128 C   0  0  0  0  0  0  0  0  0  0  0  0
  -36.4268  -28.6300   17.5042 C   0  0  0  0  0  0  0  0  0  0  0  0
  -31.4228  -26.9883   21.9843 C   0  0  0  0  0  0  0  0  0  0  0  0
  -29.3431  -25.5944   20.6761 C   0  0  0  0  0  0  0  0  0  0  0  0
  -35.3362  -27.6015   17.2164 C   0  0  0  0  0  0  0  0  0  0  0  0
  -29.5535  -12.4314   18.2009 C   0  0  0  0  0  0  0  0  0  0  0  0
  -33.9642  -28.2681   17.2018 C   0  0  0  0  0  0  0  0  0  0  0  0
  -28.1322  -12.1046   18.6574 C   0  0  0  0  0  0  0  0  0  0  0  0
  -30.4868  -12.6429   19.3888 C   0  0  0  0  0  0  0  0  0  0  0  0
  -28.5934  -13.3554   20.8132 C   0  0  0  0  0  0  0  0  0  0  0  0
  -33.6382  -28.8894   18.5653 C   0  0  1  0  0  0  0  0  0  0  0  0
  -31.7392  -26.3299   20.6295 C   0  0  1  0  0  0  0  0  0  0  0  0
  -27.6111  -13.1645   19.6440 C   0  0  2  0  0  0  0  0  0  0  0  0
  -32.7833  -18.3565   23.7989 C   0  0  0  0  0  0  0  0  0  0  0  0
  -30.4514  -19.0461   18.5336 C   0  0  0  0  0  0  0  0  0  0  0  0
  -28.5196  -25.5173   17.7424 C   0  0  0  0  0  0  0  0  0  0  0  0
  -28.0393  -23.1639   17.0357 C   0  0  0  0  0  0  0  0  0  0  0  0
  -30.1152  -24.3016   16.2488 C   0  0  0  0  0  0  0  0  0  0  0  0
  -33.4756  -20.4819   20.3416 C   0  0  0  0  0  0  0  0  0  0  0  0
  -31.0641  -16.8728   21.9455 C   0  0  0  0  0  0  0  0  0  0  0  0
  -30.0977  -15.7243   21.6334 C   0  0  0  0  0  0  0  0  0  0  0  0
  -27.3165  -22.2504   26.5828 C   0  0  0  0  0  0  0  0  0  0  0  0
  -28.1142  -23.5101   26.2816 C   0  0  0  0  0  0  0  0  0  1  0  0
  -29.9421  -23.5689   18.6624 C   0  0  1  0  0  0  0  0  0  0  0  0
  -31.4776  -20.1105   18.8894 C   0  0  2  0  0  0  0  0  0  0  0  0
  -29.1573  -24.1444   17.4498 C   0  0  0  0  0  0  0  0  0  0  0  0
  -25.8487  -11.5531   20.2606 N   0  0  0  0  0  0  0  0  0  0  0  0
  -26.2099  -12.8408   20.1290 N   0  0  0  0  0  0  0  0  0  0  0  0
  -30.6872  -25.4480   20.0959 N   0  0  0  0  0  0  0  0  0  0  0  0
  -29.9457  -13.6403   20.3138 N   0  0  0  0  0  0  0  0  0  0  0  0
  -25.4225  -15.0595   20.3892 N   0  0  0  0  0  0  0  0  0  0  0  0
  -21.8800  -12.5451   21.6240 N   0  0  0  0  0  0  0  0  0  0  0  0
  -28.8253  -20.7886   25.4275 N   0  0  0  0  0  0  0  0  0  0  0  0
  -33.2299  -27.8653   19.5028 N   0  0  0  0  0  0  0  0  0  0  0  0
  -30.5794  -22.2820   18.4053 N   0  0  0  0  0  0  0  0  0  0  0  0
  -32.4006  -19.5490   19.9159 N   0  3  0  0  0  0  0  0  0  0  0  0
  -22.6287  -14.6935   21.3367 O   0  0  0  0  0  0  0  0  0  0  0  0
  -30.9806  -27.7562   18.9101 O   0  0  0  0  0  0  0  0  0  0  0  0
  -31.8713  -14.9406   20.2725 O   0  0  0  0  0  0  0  0  0  0  0  0
  -32.1676  -24.3828   18.6521 O   0  0  0  0  0  0  0  0  0  0  0  0
  -26.5419  -20.7254   24.8819 O   0  0  0  0  0  0  0  0  0  0  0  0
  -30.5168  -21.5251   20.5963 O   0  0  0  0  0  0  0  0  0  0  0  0
  -21.6687   -6.9792   21.7293 O   0  0  0  0  0  0  0  0  0  0  0  0
  -27.6635  -24.0738   25.0506 O   0  0  0  0  0  0  0  0  0  1  0  0
  -18.7383   -6.7835   26.3960 F   0  0  0  0  0  0  0  0  0  0  0  0
  -22.1644   -5.0388   23.6350 F   0  0  0  0  0  0  0  0  0  0  0  0
  1  2  1  0  0  0  0
  1  5  2  0  0  0  0
  2  6  2  0  0  0  0
  3 10  2  0  0  0  0
  3 18  1  0  0  0  0
  4 11  1  0  0  0  0
  4 18  2  0  0  0  0
  5 20  1  0  0  0  0
  6 22  1  0  0  0  0
  7 12  2  0  0  0  0
  7 21  1  0  0  0  0
  8  9  2  0  0  0  0
  8 24  1  0  0  0  0
  9 26  1  0  0  0  0
 10 27  1  0  0  0  0
 11 27  2  0  0  0  0
 12 28  1  0  0  0  0
 13 14  2  0  0  0  0
 13 29  1  0  0  0  0
 14 30  1  0  0  0  0
 15 23  1  0  0  0  0
 15 28  2  0  0  0  0
 16 25  1  0  0  0  0
 16 26  2  0  0  0  0
 17 30  2  0  0  0  0
 17 31  1  0  0  0  0
 18 32  1  0  0  0  0
 19 32  1  0  0  0  0
 19 33  2  0  0  0  0
 19 34  1  0  0  0  0
 20 22  2  0  0  0  0
 20 40  1  0  0  0  0
 21 23  2  0  0  0  0
 21 41  1  0  0  0  0
 22 49  1  0  0  0  0
 23 42  1  0  0  0  0
 24 25  2  0  0  0  0
 24 58  1  0  0  0  0
 25 52  1  0  0  0  0
 26 71  1  0  0  0  0
 27 81  1  0  0  0  0
 28 82  1  0  0  0  0
 29 31  2  0  0  0  0
 29 81  1  0  0  0  0
 30 83  1  0  0  0  0
 31 84  1  0  0  0  0
 32 65  2  0  0  0  0
 33 66  1  0  0  0  0
 33 69  1  0  0  0  0
 34 70  1  0  0  0  0
 34 75  2  0  0  0  0
 35 50  1  0  0  0  0
 35 72  1  0  0  0  0
 35 76  2  0  0  0  0
 36 59  1  0  0  0  0
 36 68  1  0  0  0  0
 36 77  2  0  0  0  0
 37 62  1  0  0  0  0
 37 67  1  0  0  0  0
 37 78  2  0  0  0  0
 38 60  1  0  0  0  0
 38 71  1  0  0  0  0
 38 79  2  0  0  0  0
 39 63  1  0  0  0  0
 39 73  1  0  0  0  0
 39 80  2  0  0  0  0
 40 43  1  0  0  0  0
 41 50  1  0  0  0  0
 42 67  1  0  0  0  0
 43 45  1  0  0  0  0
 44 46  1  0  0  0  0
 44 47  1  0  0  0  0
 45 49  1  0  0  0  0
 46 51  1  0  0  0  0
 47 68  1  0  0  0  0
 48 51  1  0  0  0  0
 48 68  1  0  0  0  0
 49 72  1  0  0  0  0
 50 67  1  0  0  0  0
 51 66  1  0  0  0  0
 53 63  1  0  0  0  0
 54 64  1  0  0  0  0
 55 64  1  0  0  0  0
 56 64  1  0  0  0  0
 57 74  1  0  0  0  0
 58 59  1  0  0  0  0
 60 61  1  0  0  0  0
 61 82  1  0  0  0  0
 62 64  1  0  0  0  0
 62 73  1  0  0  0  0
 63 74  1  0  0  0  0
 65 66  1  0  0  0  0
M  CHG  1  74   1
M  ISO  4  36 100  59 100  61 101  82 101
M  END
> <Batch ID>
0098

> <Smiles>
CNC(C)C(=O)NC(C(=O)N1Cc2cc([101O:1][101CH2:1]CC(=O)Nc3ccc(C[100CH2:0][100C:0](=O)N4CCCC(n5nc(-c6ccc(Oc7ccc(F)cc7F)cc6)c(C(N)=O)c5N)C4)c(C)c3)ccc2CC1C(=O)NC1CCCc2ccccc21)C(C)(C)C

> <Shape>
0.242

> <Color>
0.197

> <Negative vol penalty>
0.000

$$$$

  -OEChem-04052300513D

 89 98  0     1  0  0  0  0  0999 V2000
  -28.6422  -37.8068   24.7389 C   0  0  0  0  0  0  0  0  0  0  0  0
  -29.1780  -36.5732   24.3835 C   0  0  0  0  0  0  0  0  0  0  0  0
  -23.9797   -9.6446   21.3226 C   0  0  0  0  0  0  0  0  0  0  0  0
  -24.5433  -10.6404   23.4504 C   0  0  0  0  0  0  0  0  0  0  0  0
  -27.4002  -37.8707   25.3691 C   0  0  0  0  0  0  0  0  0  0  0  0
  -28.4725  -35.4024   24.6591 C   0  0  0  0  0  0  0  0  0  0  0  0
  -28.3310  -30.3047   21.2680 C   0  0  0  0  0  0  0  0  0  0  0  0
  -29.7775  -20.2226   18.5279 C   0  0  0  0  0  0  0  0  0  0  0  0
  -29.9364  -18.9264   19.0180 C   0  0  0  0  0  0  0  0  0  0  0  0
  -23.5083   -8.5079   21.9794 C   0  0  0  0  0  0  0  0  0  0  0  0
  -24.0719   -9.5038   24.1072 C   0  0  0  0  0  0  0  0  0  0  0  0
  -29.0177  -29.0951   21.3637 C   0  0  0  0  0  0  0  0  0  0  0  0
  -20.7266   -7.5764   23.6608 C   0  0  0  0  0  0  0  0  0  0  0  0
  -19.5065   -7.0453   23.2426 C   0  0  0  0  0  0  0  0  0  0  0  0
  -27.1517  -28.1369   22.5549 C   0  0  0  0  0  0  0  0  0  0  0  0
  -28.1797  -19.3201   20.6293 C   0  0  0  0  0  0  0  0  0  0  0  0
  -20.6007   -4.9617   22.6964 C   0  0  0  0  0  0  0  0  0  0  0  0
  -24.4973  -10.7108   22.0581 C   0  0  0  0  0  0  0  0  0  0  0  0
  -24.2496  -13.0353   21.0368 C   0  0  0  0  0  0  0  0  0  0  0  0
  -26.6747  -36.7007   25.6439 C   0  0  0  0  0  0  0  0  0  0  0  0
  -27.0517  -30.4429   21.8256 C   0  0  0  0  0  0  0  0  0  0  0  0
  -27.2202  -35.4505   25.2947 C   0  0  0  0  0  0  0  0  0  0  0  0
  -26.4498  -29.3485   22.4627 C   0  0  0  0  0  0  0  0  0  0  0  0
  -28.8197  -21.0676   19.0886 C   0  0  0  0  0  0  0  0  0  0  0  0
  -29.1376  -18.4751   20.0686 C   0  0  0  0  0  0  0  0  0  0  0  0
  -23.5544   -8.4375   23.3717 C   0  0  0  0  0  0  0  0  0  0  0  0
  -28.4292  -28.0119   22.0097 C   0  0  0  0  0  0  0  0  0  0  0  0
  -21.8838   -6.8002   23.5967 C   0  0  0  0  0  0  0  0  0  0  0  0
  -19.4435   -5.7380   22.7605 C   0  0  0  0  0  0  0  0  0  0  0  0
  -28.0208  -20.6164   20.1392 C   0  0  0  0  0  0  0  0  0  0  0  0
  -21.8208   -5.4928   23.1145 C   0  0  0  0  0  0  0  0  0  0  0  0
  -24.9849  -11.8850   21.3802 C   0  0  0  0  0  0  0  0  0  0  0  0
  -25.1612  -13.8523   20.4139 C   0  0  0  0  0  0  0  0  0  0  0  0
  -28.9223  -24.4266   20.1298 C   0  0  0  0  0  0  0  0  0  0  0  0
  -22.8662  -13.3382   21.2609 C   0  0  0  0  0  0  0  0  0  0  0  0
  -25.7808  -32.2641   24.0997 C   0  0  0  0  0  0  0  0  0  0  0  0
  -23.0123  -30.8981   23.1039 C   0  0  0  0  0  0  0  0  0  0  0  0
  -21.4660  -28.2718   21.5682 C   0  0  0  0  0  0  0  0  0  0  0  0
  -30.2047  -16.1939   20.1260 C   0  0  0  0  0  0  0  0  0  0  0  0
  -25.3576  -36.8168   26.3694 C   0  0  0  0  0  0  0  0  0  0  0  0
  -26.3133  -31.7463   21.6905 C   0  0  0  0  0  0  0  0  0  0  0  0
  -25.0702  -29.4391   23.0602 C   0  0  0  0  0  0  0  0  0  0  0  0
  -24.5041  -35.5538   26.2884 C   0  0  0  0  0  0  0  0  0  0  0  0
  -29.8636  -12.9091   18.7953 C   0  0  0  0  0  0  0  0  0  0  0  0
  -25.3490  -34.3187   26.5845 C   0  0  0  0  0  0  0  0  0  0  0  0
  -28.5034  -12.4444   19.3209 C   0  0  0  0  0  0  0  0  0  0  0  0
  -31.3049  -24.5430   20.0993 C   0  0  0  0  0  0  0  0  0  0  0  0
  -30.6077  -13.7607   19.8223 C   0  0  0  0  0  0  0  0  0  0  0  0
  -30.8598  -23.2155   19.5150 C   0  0  0  0  0  0  0  0  0  0  0  0
  -28.4866  -14.4342   20.8790 C   0  0  0  0  0  0  0  0  0  0  0  0
  -26.4739  -34.1599   25.5545 C   0  0  1  0  0  0  0  0  0  0  0  0
  -30.0906  -25.0070   20.9071 C   0  0  1  0  0  0  0  0  0  0  0  0
  -25.2255  -31.9288   22.7444 C   0  0  1  0  0  0  0  0  0  0  0  0
  -27.6718  -13.6270   19.8551 C   0  0  2  0  0  0  0  0  0  0  0  0
  -28.8198  -23.9046   14.9299 C   0  0  0  0  0  0  0  0  0  0  0  0
  -19.1913  -27.4204   20.9370 C   0  0  0  0  0  0  0  0  0  0  0  0
  -22.5088  -30.0994   26.0053 C   0  0  0  0  0  0  0  0  0  0  0  0
  -20.7806  -28.4830   25.1875 C   0  0  0  0  0  0  0  0  0  0  0  0
  -20.4887  -30.9276   24.7857 C   0  0  0  0  0  0  0  0  0  0  0  0
  -22.1312  -28.2916   18.6845 C   0  0  0  0  0  0  0  0  0  0  0  0
  -30.0108  -26.5141   21.0551 C   0  0  0  0  0  0  0  0  0  1  0  0
  -28.4220  -23.8161   16.3952 C   0  0  0  0  0  0  0  0  0  0  0  0
  -29.0136  -22.5694   17.0611 C   0  0  0  0  0  0  0  0  0  0  0  0
  -28.6489  -22.4750   18.5517 C   0  0  2  0  0  0  0  0  0  0  0  0
  -22.2384  -29.6565   23.4761 C   0  0  1  0  0  0  0  0  0  0  0  0
  -20.4026  -28.2218   20.4860 C   0  0  2  0  0  0  0  0  0  0  0  0
  -21.5309  -29.7902   24.8542 C   0  0  0  0  0  0  0  0  0  0  0  0
  -26.2650  -11.9606   21.0063 N   0  0  0  0  0  0  0  0  0  0  0  0
  -26.3411  -13.1682   20.4215 N   0  0  0  0  0  0  0  0  0  0  0  0
  -29.4331  -23.3806   19.3629 N   0  0  0  0  0  0  0  0  0  0  0  0
  -24.3912  -30.7365   22.9079 N   0  0  0  0  0  0  0  0  0  0  0  0
  -29.7599  -14.8637   20.2800 N   0  0  0  0  0  0  0  0  0  0  0  0
  -25.0606  -15.0819   19.8659 N   0  0  0  0  0  0  0  0  0  0  0  0
  -22.0716  -12.3873   21.9156 N   0  0  0  0  0  0  0  0  0  0  0  0
  -29.3004  -17.1590   20.5677 N   0  0  0  0  0  0  0  0  0  0  0  0
  -25.9538  -33.6177   24.3176 N   0  0  0  0  0  0  0  0  0  0  0  0
  -21.3334  -29.3906   22.3632 N   0  0  0  0  0  0  0  0  0  0  0  0
  -20.9495  -27.5920   19.2510 N   0  3  0  0  0  0  0  0  0  0  0  0
  -27.7606  -24.7949   20.2203 O   0  0  0  0  0  0  0  0  0  0  0  0
  -22.3463  -14.4133   20.8769 O   0  0  0  0  0  0  0  0  0  0  0  0
  -26.0323  -31.3618   24.8898 O   0  0  0  0  0  0  0  0  0  0  0  0
  -22.4143  -31.9703   22.9841 O   0  0  0  0  0  0  0  0  0  0  0  0
  -22.3258  -27.4032   21.6978 O   0  0  0  0  0  0  0  0  0  0  0  0
  -31.2952  -16.4582   19.6132 O   0  0  0  0  0  0  0  0  0  0  0  0
  -23.0942   -7.3286   24.0129 O   0  0  0  0  0  0  0  0  0  0  0  0
  -29.0976  -26.8303   22.1051 O   0  0  0  0  0  0  0  0  0  1  0  0
  -18.2715   -5.2276   22.3604 F   0  0  0  0  0  0  0  0  0  0  0  0
  -27.0978  -21.4209   20.6843 F   0  0  0  0  0  0  0  0  0  0  0  0
  -22.9289   -4.7419   23.0517 F   0  0  0  0  0  0  0  0  0  0  0  0
  1  2  1  0  0  0  0
  1  5  2  0  0  0  0
  2  6  2  0  0  0  0
  3 10  2  0  0  0  0
  3 18  1  0  0  0  0
  4 11  1  0  0  0  0
  4 18  2  0  0  0  0
  5 20  1  0  0  0  0
  6 22  1  0  0  0  0
  7 12  2  0  0  0  0
  7 21  1  0  0  0  0
  8  9  2  0  0  0  0
  8 24  1  0  0  0  0
  9 25  1  0  0  0  0
 10 26  1  0  0  0  0
 11 26  2  0  0  0  0
 12 27  1  0  0  0  0
 13 14  2  0  0  0  0
 13 28  1  0  0  0  0
 14 29  1  0  0  0  0
 15 23  1  0  0  0  0
 15 27  2  0  0  0  0
 16 25  2  0  0  0  0
 16 30  1  0  0  0  0
 17 29  2  0  0  0  0
 17 31  1  0  0  0  0
 18 32  1  0  0  0  0
 19 32  1  0  0  0  0
 19 33  2  0  0  0  0
 19 35  1  0  0  0  0
 20 22  2  0  0  0  0
 20 40  1  0  0  0  0
 21 23  2  0  0  0  0
 21 41  1  0  0  0  0
 22 51  1  0  0  0  0
 23 42  1  0  0  0  0
 24 30  2  0  0  0  0
 24 64  1  0  0  0  0
 25 75  1  0  0  0  0
 26 85  1  0  0  0  0
 27 86  1  0  0  0  0
 28 31  2  0  0  0  0
 28 85  1  0  0  0  0
 29 87  1  0  0  0  0
 30 88  1  0  0  0  0
 31 89  1  0  0  0  0
 32 68  2  0  0  0  0
 33 69  1  0  0  0  0
 33 73  1  0  0  0  0
 34 52  1  0  0  0  0
 34 70  1  0  0  0  0
 34 79  2  0  0  0  0
 35 74  1  0  0  0  0
 35 80  2  0  0  0  0
 36 53  1  0  0  0  0
 36 76  1  0  0  0  0
 36 81  2  0  0  0  0
 37 65  1  0  0  0  0
 37 71  1  0  0  0  0
 37 82  2  0  0  0  0
 38 66  1  0  0  0  0
 38 77  1  0  0  0  0
 38 83  2  0  0  0  0
 39 72  1  0  0  0  0
 39 75  1  0  0  0  0
 39 84  2  0  0  0  0
 40 43  1  0  0  0  0
 41 53  1  0  0  0  0
 42 71  1  0  0  0  0
 43 45  1  0  0  0  0
 44 46  1  0  0  0  0
 44 48  1  0  0  0  0
 45 51  1  0  0  0  0
 46 54  1  0  0  0  0
 47 49  1  0  0  0  0
 47 52  1  0  0  0  0
 48 72  1  0  0  0  0
 49 70  1  0  0  0  0
 50 54  1  0  0  0  0
 50 72  1  0  0  0  0
 51 76  1  0  0  0  0
 52 61  1  0  0  0  0
 53 71  1  0  0  0  0
 54 69  1  0  0  0  0
 55 62  1  0  0  0  0
 56 66  1  0  0  0  0
 57 67  1  0  0  0  0
 58 67  1  0  0  0  0
 59 67  1  0  0  0  0
 60 78  1  0  0  0  0
 61 86  1  0  0  0  0
 62 63  1  0  0  0  0
 63 64  1  0  0  0  0
 64 70  1  0  0  0  0
 65 67  1  0  0  0  0
 65 77  1  0  0  0  0
 66 78  1  0  0  0  0
 68 69  1  0  0  0  0
M  CHG  1  78   1
M  ISO  4  39 100  61 101  75 100  86 101
M  END
> <Batch ID>
0098

> <Smiles>
CCCC(c1ccc([100NH:0][100C:0](=O)N2CCCC(n3nc(-c4ccc(Oc5ccc(F)cc5F)cc4)c(C(N)=O)c3N)C2)cc1F)N1CCC([101CH2:1][101O:1]c2ccc3c(c2)CN(C(=O)C(NC(=O)C(C)NC)C(C)(C)C)C(C(=O)NC2CCCc4ccccc42)C3)C1=O

> <Shape>
0.379

> <Color>
0.148

> <Negative vol penalty>
0.000

$$$$

  -OEChem-04052300513D

 86 95  0     1  0  0  0  0  0999 V2000
  -17.4266  -26.7316   22.9792 C   0  0  0  0  0  0  0  0  0  0  0  0
  -18.3633  -26.4355   21.9942 C   0  0  0  0  0  0  0  0  0  0  0  0
  -22.8497   -9.9395   20.0684 C   0  0  0  0  0  0  0  0  0  0  0  0
  -24.5877   -9.0032   21.4611 C   0  0  0  0  0  0  0  0  0  0  0  0
  -17.4570  -27.9702   23.6187 C   0  0  0  0  0  0  0  0  0  0  0  0
  -19.3304  -27.3782   21.6473 C   0  0  0  0  0  0  0  0  0  0  0  0
  -23.9511  -25.3520   21.2136 C   0  0  0  0  0  0  0  0  0  0  0  0
  -27.3221  -18.9027   19.6372 C   0  0  0  0  0  0  0  0  0  0  0  0
  -27.4420  -20.1127   18.9538 C   0  0  0  0  0  0  0  0  0  0  0  0
  -21.8810   -9.4042   20.9173 C   0  0  0  0  0  0  0  0  0  0  0  0
  -23.6189   -8.4679   22.3100 C   0  0  0  0  0  0  0  0  0  0  0  0
  -24.2297  -24.6464   20.0439 C   0  0  0  0  0  0  0  0  0  0  0  0
  -21.5343   -5.8064   22.3464 C   0  0  0  0  0  0  0  0  0  0  0  0
  -21.6988   -4.4866   22.7668 C   0  0  0  0  0  0  0  0  0  0  0  0
  -25.3945  -26.5691   19.1687 C   0  0  0  0  0  0  0  0  0  0  0  0
  -28.0410  -18.9170   16.9418 C   0  0  0  0  0  0  0  0  0  0  0  0
  -21.7641   -5.2269   25.0656 C   0  0  0  0  0  0  0  0  0  0  0  0
  -24.2030   -9.7390   20.3402 C   0  0  0  0  0  0  0  0  0  0  0  0
  -25.3770  -10.0197   18.0929 C   0  0  0  0  0  0  0  0  0  0  0  0
  -18.4310  -28.9250   23.2863 C   0  0  0  0  0  0  0  0  0  0  0  0
  -24.3834  -26.6773   21.3655 C   0  0  0  0  0  0  0  0  0  0  0  0
  -19.3731  -28.6312   22.2820 C   0  0  0  0  0  0  0  0  0  0  0  0
  -25.1223  -27.2884   20.3424 C   0  0  0  0  0  0  0  0  0  0  0  0
  -27.5618  -17.6998   18.9729 C   0  0  0  0  0  0  0  0  0  0  0  0
  -27.8014  -20.1199   17.6061 C   0  0  0  0  0  0  0  0  0  0  0  0
  -22.2656   -8.6684   22.0381 C   0  0  0  0  0  0  0  0  0  0  0  0
  -24.9490  -25.2559   19.0200 C   0  0  0  0  0  0  0  0  0  0  0  0
  -21.4847   -6.8365   23.2857 C   0  0  0  0  0  0  0  0  0  0  0  0
  -21.8137   -4.1968   24.1263 C   0  0  0  0  0  0  0  0  0  0  0  0
  -27.9212  -17.7070   17.6252 C   0  0  0  0  0  0  0  0  0  0  0  0
  -21.5996   -6.5467   24.6453 C   0  0  0  0  0  0  0  0  0  0  0  0
  -25.2042  -10.2912   19.4634 C   0  0  0  0  0  0  0  0  0  0  0  0
  -26.4546  -10.7873   17.7241 C   0  0  0  0  0  0  0  0  0  0  0  0
  -28.8319  -21.5102   15.8298 C   0  0  0  0  0  0  0  0  0  0  0  0
  -24.6302   -9.1514   17.2303 C   0  0  0  0  0  0  0  0  0  0  0  0
  -22.9342  -29.4765   21.7752 C   0  0  0  0  0  0  0  0  0  0  0  0
  -28.7779  -15.8203   20.0443 C   0  0  0  0  0  0  0  0  0  0  0  0
  -25.9715  -30.5544   22.1426 C   0  0  0  0  0  0  0  0  0  0  0  0
  -29.1708  -30.0004   20.5693 C   0  0  0  0  0  0  0  0  0  0  0  0
  -18.3948  -30.2679   23.9717 C   0  0  0  0  0  0  0  0  0  0  0  0
  -24.0978  -27.4158   22.6443 C   0  0  0  0  0  0  0  0  0  0  0  0
  -25.6266  -28.7024   20.4643 C   0  0  0  0  0  0  0  0  0  0  0  0
  -28.6704  -22.7431   14.9607 C   0  0  0  0  0  0  0  0  0  0  0  0
  -19.6837  -31.0695   23.8094 C   0  0  0  0  0  0  0  0  0  0  0  0
  -28.2314  -23.9821   15.7098 C   0  0  0  0  0  0  0  0  0  0  0  0
  -30.4638  -12.7112   19.4686 C   0  0  0  0  0  0  0  0  0  0  0  0
  -20.1460  -31.0484   22.3560 C   0  0  0  0  0  0  0  0  0  0  0  0
  -29.3221  -11.7086   19.3058 C   0  0  0  0  0  0  0  0  0  0  0  0
  -30.1178  -13.7904   20.4898 C   0  0  0  0  0  0  0  0  0  0  0  0
  -27.2374  -22.5464   17.4688 C   0  0  0  0  0  0  0  0  0  0  0  0
  -27.7012  -13.5155   20.0357 C   0  0  0  0  0  0  0  0  0  0  0  0
  -20.4530  -29.6184   21.8954 C   0  0  1  0  0  0  0  0  0  0  0  0
  -24.1433  -28.9320   22.4817 C   0  0  1  0  0  0  0  0  0  0  0  0
  -26.9540  -23.6686   16.4713 C   0  0  1  0  0  0  0  0  0  0  0  0
  -27.9975  -12.4257   18.9903 C   0  0  2  0  0  0  0  0  0  0  0  0
  -31.4978  -30.2183   21.4830 C   0  0  0  0  0  0  0  0  0  0  0  0
  -25.8552  -33.3708   20.9746 C   0  0  0  0  0  0  0  0  0  0  0  0
  -28.2548  -33.1178   20.3068 C   0  0  0  0  0  0  0  0  0  0  0  0
  -27.6175  -33.0361   22.7172 C   0  0  0  0  0  0  0  0  0  0  0  0
  -29.8512  -27.2201   19.8168 C   0  0  0  0  0  0  0  0  0  0  0  0
  -27.4307  -16.4079   19.7070 C   0  0  0  0  0  0  0  0  0  0  0  0
  -26.4236  -24.9094   17.1866 C   0  0  0  0  0  0  0  0  0  1  0  0
  -27.0363  -31.0876   21.2147 C   0  0  1  0  0  0  0  0  0  0  0  0
  -30.3589  -29.2634   21.1607 C   0  0  2  0  0  0  0  0  0  0  0  0
  -27.1714  -32.6344   21.2944 C   0  0  0  0  0  0  0  0  0  0  0  0
  -26.1003  -11.1630   19.9334 N   0  0  0  0  0  0  0  0  0  0  0  0
  -26.8467  -11.4460   18.8522 N   0  0  0  0  0  0  0  0  0  0  0  0
  -27.9277  -21.3756   16.8975 N   0  0  0  0  0  0  0  0  0  0  0  0
  -25.3164  -29.3850   21.7314 N   0  0  0  0  0  0  0  0  0  0  0  0
  -28.8421  -14.4322   20.1674 N   0  0  0  0  0  0  0  0  0  0  0  0
  -27.0956  -10.9563   16.5481 N   0  0  0  0  0  0  0  0  0  0  0  0
  -25.0403   -7.8168   17.1082 N   0  0  0  0  0  0  0  0  0  0  0  0
  -21.7379  -29.1884   22.4040 N   0  0  0  0  0  0  0  0  0  0  0  0
  -28.2605  -30.3633   21.5393 N   0  0  0  0  0  0  0  0  0  0  0  0
  -30.8617  -28.2384   20.2029 N   0  3  0  0  0  0  0  0  0  0  0  0
  -29.6949  -20.6869   15.5134 O   0  0  0  0  0  0  0  0  0  0  0  0
  -23.6387   -9.5515   16.5743 O   0  0  0  0  0  0  0  0  0  0  0  0
  -23.0762  -30.1123   20.7372 O   0  0  0  0  0  0  0  0  0  0  0  0
  -29.7438  -16.5739   20.1907 O   0  0  0  0  0  0  0  0  0  0  0  0
  -25.7350  -31.1494   23.1969 O   0  0  0  0  0  0  0  0  0  0  0  0
  -29.0629  -30.2342   19.3675 O   0  0  0  0  0  0  0  0  0  0  0  0
  -21.3206   -8.1462   22.8668 O   0  0  0  0  0  0  0  0  0  0  0  0
  -25.2218  -24.5697   17.8770 O   0  0  0  0  0  0  0  0  0  1  0  0
  -21.9701   -2.9292   24.5299 F   0  0  0  0  0  0  0  0  0  0  0  0
  -28.1535  -16.5563   16.9783 F   0  0  0  0  0  0  0  0  0  0  0  0
  -21.5516   -7.5319   25.5524 F   0  0  0  0  0  0  0  0  0  0  0  0
  1  2  1  0  0  0  0
  1  5  2  0  0  0  0
  2  6  2  0  0  0  0
  3 10  2  0  0  0  0
  3 18  1  0  0  0  0
  4 11  1  0  0  0  0
  4 18  2  0  0  0  0
  5 20  1  0  0  0  0
  6 22  1  0  0  0  0
  7 12  2  0  0  0  0
  7 21  1  0  0  0  0
  8  9  2  0  0  0  0
  8 24  1  0  0  0  0
  9 25  1  0  0  0  0
 10 26  1  0  0  0  0
 11 26  2  0  0  0  0
 12 27  1  0  0  0  0
 13 14  2  0  0  0  0
 13 28  1  0  0  0  0
 14 29  1  0  0  0  0
 15 23  1  0  0  0  0
 15 27  2  0  0  0  0
 16 25  2  0  0  0  0
 16 30  1  0  0  0  0
 17 29  2  0  0  0  0
 17 31  1  0  0  0  0
 18 32  1  0  0  0  0
 19 32  1  0  0  0  0
 19 33  2  0  0  0  0
 19 35  1  0  0  0  0
 20 22  2  0  0  0  0
 20 40  1  0  0  0  0
 21 23  2  0  0  0  0
 21 41  1  0  0  0  0
 22 52  1  0  0  0  0
 23 42  1  0  0  0  0
 24 30  2  0  0  0  0
 24 61  1  0  0  0  0
 25 68  1  0  0  0  0
 26 82  1  0  0  0  0
 27 83  1  0  0  0  0
 28 31  2  0  0  0  0
 28 82  1  0  0  0  0
 29 84  1  0  0  0  0
 30 85  1  0  0  0  0
 31 86  1  0  0  0  0
 32 66  2  0  0  0  0
 33 67  1  0  0  0  0
 33 71  1  0  0  0  0
 34 43  1  0  0  0  0
 34 68  1  0  0  0  0
 34 76  2  0  0  0  0
 35 72  1  0  0  0  0
 35 77  2  0  0  0  0
 36 53  1  0  0  0  0
 36 73  1  0  0  0  0
 36 78  2  0  0  0  0
 37 61  1  0  0  0  0
 37 70  1  0  0  0  0
 37 79  2  0  0  0  0
 38 63  1  0  0  0  0
 38 69  1  0  0  0  0
 38 80  2  0  0  0  0
 39 64  1  0  0  0  0
 39 74  1  0  0  0  0
 39 81  2  0  0  0  0
 40 44  1  0  0  0  0
 41 53  1  0  0  0  0
 42 69  1  0  0  0  0
 43 45  1  0  0  0  0
 44 47  1  0  0  0  0
 45 54  1  0  0  0  0
 46 48  1  0  0  0  0
 46 49  1  0  0  0  0
 47 52  1  0  0  0  0
 48 55  1  0  0  0  0
 49 70  1  0  0  0  0
 50 54  1  0  0  0  0
 50 68  1  0  0  0  0
 51 55  1  0  0  0  0
 51 70  1  0  0  0  0
 52 73  1  0  0  0  0
 53 69  1  0  0  0  0
 54 62  1  0  0  0  0
 55 67  1  0  0  0  0
 56 64  1  0  0  0  0
 57 65  1  0  0  0  0
 58 65  1  0  0  0  0
 59 65  1  0  0  0  0
 60 75  1  0  0  0  0
 62 83  1  0  0  0  0
 63 65  1  0  0  0  0
 63 74  1  0  0  0  0
 64 75  1  0  0  0  0
 66 67  1  0  0  0  0
M  CHG  1  75   1
M  ISO  4  37 100  61 100  62 101  83 101
M  END
> <Batch ID>
0098

> <Smiles>
CNC(C)C(=O)NC(C(=O)N1Cc2cc([101O:1][101CH2:1]C3CCC(=O)N(c4ccc([100CH2:0][100C:0](=O)N5CCCC(n6nc(-c7ccc(Oc8ccc(F)cc8F)cc7)c(C(N)=O)c6N)C5)c(F)c4)C3)ccc2CC1C(=O)NC1CCCc2ccccc21)C(C)(C)C

> <Shape>
0.292

> <Color>
0.097

> <Negative vol penalty>
0.000

$$$$

  -OEChem-04052300513D

 85 93  0     1  0  0  0  0  0999 V2000
  -17.0446  -19.6624   32.8258 C   0  0  0  0  0  0  0  0  0  0  0  0
  -18.3424  -19.2027   33.0258 C   0  0  0  0  0  0  0  0  0  0  0  0
  -23.0009   -9.8937   19.9812 C   0  0  0  0  0  0  0  0  0  0  0  0
  -23.7309   -9.9437   22.2838 C   0  0  0  0  0  0  0  0  0  0  0  0
  -16.7447  -20.4335   31.7036 C   0  0  0  0  0  0  0  0  0  0  0  0
  -19.3408  -19.5131   32.1032 C   0  0  0  0  0  0  0  0  0  0  0  0
  -26.3647  -20.8677   31.7220 C   0  0  0  0  0  0  0  0  0  0  0  0
  -31.3064  -17.3545   24.2805 C   0  0  0  0  0  0  0  0  0  0  0  0
  -30.9056  -17.7949   25.5418 C   0  0  0  0  0  0  0  0  0  0  0  0
  -22.2362   -8.7582   20.2483 C   0  0  0  0  0  0  0  0  0  0  0  0
  -22.9661   -8.8082   22.5509 C   0  0  0  0  0  0  0  0  0  0  0  0
  -27.5057  -20.4543   31.0357 C   0  0  0  0  0  0  0  0  0  0  0  0
  -23.2132   -5.4699   22.0758 C   0  0  0  0  0  0  0  0  0  0  0  0
  -23.8034   -4.4528   22.8259 C   0  0  0  0  0  0  0  0  0  0  0  0
  -26.8886  -21.8603   29.1752 C   0  0  0  0  0  0  0  0  0  0  0  0
  -29.0695  -17.7177   23.4429 C   0  0  0  0  0  0  0  0  0  0  0  0
  -22.0827   -4.6925   24.5049 C   0  0  0  0  0  0  0  0  0  0  0  0
  -23.7483  -10.4865   20.9990 C   0  0  0  0  0  0  0  0  0  0  0  0
  -24.1305  -13.0026   20.8241 C   0  0  0  0  0  0  0  0  0  0  0  0
  -17.7420  -20.7616   30.7718 C   0  0  0  0  0  0  0  0  0  0  0  0
  -25.4700  -21.7737   31.1347 C   0  0  0  0  0  0  0  0  0  0  0  0
  -19.0536  -20.2883   30.9668 C   0  0  0  0  0  0  0  0  0  0  0  0
  -25.7383  -22.2856   29.8572 C   0  0  0  0  0  0  0  0  0  0  0  0
  -30.3883  -17.3159   23.2310 C   0  0  0  0  0  0  0  0  0  0  0  0
  -29.5868  -18.1967   25.7538 C   0  0  0  0  0  0  0  0  0  0  0  0
  -22.2188   -8.2154   21.5331 C   0  0  0  0  0  0  0  0  0  0  0  0
  -27.7663  -20.9483   29.7609 C   0  0  0  0  0  0  0  0  0  0  0  0
  -22.0577   -6.0984   22.5403 C   0  0  0  0  0  0  0  0  0  0  0  0
  -28.6687  -18.1581   24.7043 C   0  0  0  0  0  0  0  0  0  0  0  0
  -23.2382   -4.0640   24.0404 C   0  0  0  0  0  0  0  0  0  0  0  0
  -21.4925   -5.7096   23.7548 C   0  0  0  0  0  0  0  0  0  0  0  0
  -24.5389  -11.6592   20.7236 C   0  0  0  0  0  0  0  0  0  0  0  0
  -25.2387  -13.7267   20.4580 C   0  0  0  0  0  0  0  0  0  0  0  0
  -22.8627  -13.5473   21.2137 C   0  0  0  0  0  0  0  0  0  0  0  0
  -22.4110  -21.6686   30.2772 C   0  0  0  0  0  0  0  0  0  0  0  0
  -22.8793  -24.8184   29.6597 C   0  0  0  0  0  0  0  0  0  0  0  0
  -25.0651  -27.3307   28.9129 C   0  0  0  0  0  0  0  0  0  0  0  0
  -30.7345  -14.6672   20.6958 C   0  0  0  0  0  0  0  0  0  0  0  0
  -17.3597  -21.5582   29.5495 C   0  0  0  0  0  0  0  0  0  0  0  0
  -24.2576  -22.2302   31.8990 C   0  0  0  0  0  0  0  0  0  0  0  0
  -24.8198  -23.2758   29.1906 C   0  0  0  0  0  0  0  0  0  0  0  0
  -18.5558  -22.1573   28.8142 C   0  0  0  0  0  0  0  0  0  0  0  0
  -29.5916  -12.2441   18.3508 C   0  0  0  0  0  0  0  0  0  0  0  0
  -19.6543  -21.1130   28.6420 C   0  0  0  0  0  0  0  0  0  0  0  0
  -28.1443  -11.9825   18.7712 C   0  0  0  0  0  0  0  0  0  0  0  0
  -30.4963  -12.4796   19.5583 C   0  0  0  0  0  0  0  0  0  0  0  0
  -28.5881  -13.2719   20.9017 C   0  0  0  0  0  0  0  0  0  0  0  0
  -20.1693  -20.6248   30.0013 C   0  0  1  0  0  0  0  0  0  0  0  0
  -23.1480  -22.7622   30.9972 C   0  0  1  0  0  0  0  0  0  0  0  0
  -27.6268  -13.0841   19.7155 C   0  0  2  0  0  0  0  0  0  0  0  0
  -31.4580  -19.1850   21.0451 C   0  0  0  0  0  0  0  0  0  0  0  0
  -25.1470  -29.7919   28.4300 C   0  0  0  0  0  0  0  0  0  0  0  0
  -21.7923  -24.3020   26.8558 C   0  0  0  0  0  0  0  0  0  0  0  0
  -22.7673  -26.4970   26.1490 C   0  0  0  0  0  0  0  0  0  0  0  0
  -20.9989  -26.4280   27.9070 C   0  0  0  0  0  0  0  0  0  0  0  0
  -26.7994  -27.8502   31.2541 C   0  0  0  0  0  0  0  0  0  0  0  0
  -27.0738  -19.9217   24.6628 C   0  0  0  0  0  0  0  0  0  0  0  0
  -30.6345  -17.9280   20.7924 C   0  0  0  0  0  0  0  0  0  0  0  0
  -30.0966  -18.6978   28.1443 C   0  0  0  0  0  0  0  0  0  0  0  0
  -29.3647  -19.2328   29.3637 C   0  0  0  0  0  0  0  0  0  1  0  0
  -30.8173  -16.8453   21.8825 C   0  0  2  0  0  0  0  0  0  0  0  0
  -23.3289  -25.6174   28.4603 C   0  0  1  0  0  0  0  0  0  0  0  0
  -25.2447  -28.7180   29.5024 C   0  0  2  0  0  0  0  0  0  0  0  0
  -22.2384  -25.6910   27.3546 C   0  0  0  0  0  0  0  0  0  0  0  0
  -25.8075  -11.5344   20.3247 N   0  0  0  0  0  0  0  0  0  0  0  0
  -26.2058  -12.8087   20.1712 N   0  0  0  0  0  0  0  0  0  0  0  0
  -23.6443  -23.6868   29.9759 N   0  0  0  0  0  0  0  0  0  0  0  0
  -29.9501  -13.5370   20.4124 N   0  0  0  0  0  0  0  0  0  0  0  0
  -25.4705  -15.0528   20.3565 N   0  0  0  0  0  0  0  0  0  0  0  0
  -21.8326  -12.6618   21.5587 N   0  0  0  0  0  0  0  0  0  0  0  0
  -29.2022  -18.6313   27.0114 N   0  0  0  0  0  0  0  0  0  0  0  0
  -21.0651  -21.6014   30.5829 N   0  0  0  0  0  0  0  0  0  0  0  0
  -23.7509  -26.9174   28.9707 N   0  0  0  0  0  0  0  0  0  0  0  0
  -30.1388  -15.6247   21.5076 N   0  0  0  0  0  0  0  0  0  0  0  0
  -26.5762  -28.8322   30.1620 N   0  3  0  0  0  0  0  0  0  0  0  0
  -22.6447  -14.7824   21.2389 O   0  0  0  0  0  0  0  0  0  0  0  0
  -23.0181  -20.9406   29.5006 O   0  0  0  0  0  0  0  0  0  0  0  0
  -21.8901  -25.1889   30.2968 O   0  0  0  0  0  0  0  0  0  0  0  0
  -25.9968  -26.6803   28.4443 O   0  0  0  0  0  0  0  0  0  0  0  0
  -31.8789  -14.8147   20.2534 O   0  0  0  0  0  0  0  0  0  0  0  0
  -21.4725   -7.1075   21.7941 O   0  0  0  0  0  0  0  0  0  0  0  0
  -27.3759  -18.5470   24.8910 O   0  0  0  0  0  0  0  0  0  0  0  0
  -28.8788  -20.5460   29.0885 O   0  0  0  0  0  0  0  0  0  1  0  0
  -23.8042   -3.0862   24.7599 F   0  0  0  0  0  0  0  0  0  0  0  0
  -20.3819   -6.3089   24.2056 F   0  0  0  0  0  0  0  0  0  0  0  0
  1  2  1  0  0  0  0
  1  5  2  0  0  0  0
  2  6  2  0  0  0  0
  3 10  2  0  0  0  0
  3 18  1  0  0  0  0
  4 11  1  0  0  0  0
  4 18  2  0  0  0  0
  5 20  1  0  0  0  0
  6 22  1  0  0  0  0
  7 12  2  0  0  0  0
  7 21  1  0  0  0  0
  8  9  2  0  0  0  0
  8 24  1  0  0  0  0
  9 25  1  0  0  0  0
 10 26  1  0  0  0  0
 11 26  2  0  0  0  0
 12 27  1  0  0  0  0
 13 14  2  0  0  0  0
 13 28  1  0  0  0  0
 14 30  1  0  0  0  0
 15 23  1  0  0  0  0
 15 27  2  0  0  0  0
 16 24  2  0  0  0  0
 16 29  1  0  0  0  0
 17 30  2  0  0  0  0
 17 31  1  0  0  0  0
 18 32  1  0  0  0  0
 19 32  1  0  0  0  0
 19 33  2  0  0  0  0
 19 34  1  0  0  0  0
 20 22  2  0  0  0  0
 20 39  1  0  0  0  0
 21 23  2  0  0  0  0
 21 40  1  0  0  0  0
 22 48  1  0  0  0  0
 23 41  1  0  0  0  0
 24 61  1  0  0  0  0
 25 29  2  0  0  0  0
 25 71  1  0  0  0  0
 26 81  1  0  0  0  0
 27 83  1  0  0  0  0
 28 31  2  0  0  0  0
 28 81  1  0  0  0  0
 29 82  1  0  0  0  0
 30 84  1  0  0  0  0
 31 85  1  0  0  0  0
 32 65  2  0  0  0  0
 33 66  1  0  0  0  0
 33 69  1  0  0  0  0
 34 70  1  0  0  0  0
 34 76  2  0  0  0  0
 35 49  1  0  0  0  0
 35 72  1  0  0  0  0
 35 77  2  0  0  0  0
 36 62  1  0  0  0  0
 36 67  1  0  0  0  0
 36 78  2  0  0  0  0
 37 63  1  0  0  0  0
 37 73  1  0  0  0  0
 37 79  2  0  0  0  0
 38 68  1  0  0  0  0
 38 74  1  0  0  0  0
 38 80  2  0  0  0  0
 39 42  1  0  0  0  0
 40 49  1  0  0  0  0
 41 67  1  0  0  0  0
 42 44  1  0  0  0  0
 43 45  1  0  0  0  0
 43 46  1  0  0  0  0
 44 48  1  0  0  0  0
 45 50  1  0  0  0  0
 46 68  1  0  0  0  0
 47 50  1  0  0  0  0
 47 68  1  0  0  0  0
 48 72  1  0  0  0  0
 49 67  1  0  0  0  0
 50 66  1  0  0  0  0
 51 58  1  0  0  0  0
 52 63  1  0  0  0  0
 53 64  1  0  0  0  0
 54 64  1  0  0  0  0
 55 64  1  0  0  0  0
 56 75  1  0  0  0  0
 57 82  1  0  0  0  0
 58 61  1  0  0  0  0
 59 60  1  0  0  0  0
 59 71  1  0  0  0  0
 60 83  1  0  0  0  0
 61 74  1  0  0  0  0
 62 64  1  0  0  0  0
 62 73  1  0  0  0  0
 63 75  1  0  0  0  0
 65 66  1  0  0  0  0
M  CHG  1  75   1
M  ISO  4  38 100  60 101  74 100  83 101
M  END
> <Batch ID>
0098

> <Smiles>
CCC([100NH:0][100C:0](=O)N1CCCC(n2nc(-c3ccc(Oc4ccc(F)cc4F)cc3)c(C(N)=O)c2N)C1)c1ccc(NC[101CH2:1][101O:1]c2ccc3c(c2)CN(C(=O)C(NC(=O)C(C)NC)C(C)(C)C)C(C(=O)NC2CCCc4ccccc42)C3)c(OC)c1

> <Shape>
0.177

> <Color>
0.193

> <Negative vol penalty>
0.000

$$$$

  -OEChem-04052300513D

 84 92  0     1  0  0  0  0  0999 V2000
  -16.5463  -28.9211   23.9518 C   0  0  0  0  0  0  0  0  0  0  0  0
  -17.0181  -28.3087   22.7951 C   0  0  0  0  0  0  0  0  0  0  0  0
  -27.7330  -16.8394   22.1575 C   0  0  0  0  0  0  0  0  0  0  0  0
  -28.8442  -16.2292   24.2142 C   0  0  0  0  0  0  0  0  0  0  0  0
  -29.3672  -24.4994   17.0334 C   0  0  0  0  0  0  0  0  0  0  0  0
  -17.2830  -29.9437   24.5479 C   0  0  0  0  0  0  0  0  0  0  0  0
  -18.2264  -28.7194   22.2333 C   0  0  0  0  0  0  0  0  0  0  0  0
  -22.3327  -25.2027   19.3563 C   0  0  0  0  0  0  0  0  0  0  0  0
  -27.6770  -15.4953   21.7890 C   0  0  0  0  0  0  0  0  0  0  0  0
  -28.7881  -14.8851   23.8457 C   0  0  0  0  0  0  0  0  0  0  0  0
  -28.3216  -24.1462   16.1804 C   0  0  0  0  0  0  0  0  0  0  0  0
  -22.5791  -24.9621   18.0053 C   0  0  0  0  0  0  0  0  0  0  0  0
  -27.5642  -12.2549   20.1425 C   0  0  0  0  0  0  0  0  0  0  0  0
  -27.9098  -11.9253   18.8320 C   0  0  0  0  0  0  0  0  0  0  0  0
  -28.3095  -23.2835   18.8334 C   0  0  0  0  0  0  0  0  0  0  0  0
  -24.3063  -26.6460   18.0267 C   0  0  0  0  0  0  0  0  0  0  0  0
  -30.1156  -12.8466   19.1820 C   0  0  0  0  0  0  0  0  0  0  0  0
  -28.3166  -17.2064   23.3701 C   0  0  0  0  0  0  0  0  0  0  0  0
  -29.3612  -24.0679   18.3598 C   0  0  0  0  0  0  0  0  0  0  0  0
  -27.4144  -19.3163   24.4846 C   0  0  0  0  0  0  0  0  0  0  0  0
  -18.5057  -30.3607   23.9985 C   0  0  0  0  0  0  0  0  0  0  0  0
  -23.0651  -26.1760   20.0511 C   0  0  0  0  0  0  0  0  0  0  0  0
  -18.9795  -29.7496   22.8219 C   0  0  0  0  0  0  0  0  0  0  0  0
  -24.0691  -26.8952   19.3871 C   0  0  0  0  0  0  0  0  0  0  0  0
  -27.2639  -22.9304   17.9804 C   0  0  0  0  0  0  0  0  0  0  0  0
  -28.2045  -14.5181   22.6331 C   0  0  0  0  0  0  0  0  0  0  0  0
  -23.5640  -25.6859   17.3396 C   0  0  0  0  0  0  0  0  0  0  0  0
  -27.2699  -23.3618   16.6539 C   0  0  0  0  0  0  0  0  0  0  0  0
  -28.4942  -12.8805   20.9728 C   0  0  0  0  0  0  0  0  0  0  0  0
  -29.1855  -12.2211   18.3517 C   0  0  0  0  0  0  0  0  0  0  0  0
  -29.7700  -13.1763   20.4925 C   0  0  0  0  0  0  0  0  0  0  0  0
  -28.3753  -18.5947   23.7511 C   0  0  0  0  0  0  0  0  0  0  0  0
  -27.9357  -20.5834   24.5798 C   0  0  0  0  0  0  0  0  0  0  0  0
  -30.4755  -24.4442   19.2674 C   0  0  0  0  0  0  0  0  0  0  0  0
  -26.1627  -18.8801   25.0309 C   0  0  0  0  0  0  0  0  0  0  0  0
  -22.3394  -28.8821   21.5525 C   0  0  0  0  0  0  0  0  0  0  0  0
  -25.4713  -28.7995   22.3930 C   0  0  0  0  0  0  0  0  0  0  0  0
  -28.6265  -27.6934   21.7088 C   0  0  0  0  0  0  0  0  0  0  0  0
  -31.7488  -23.7057   21.2566 C   0  0  0  0  0  0  0  0  0  0  0  0
  -19.2434  -31.5024   24.6518 C   0  0  0  0  0  0  0  0  0  0  0  0
  -22.8054  -26.4047   21.5149 C   0  0  0  0  0  0  0  0  0  0  0  0
  -24.8971  -27.9367   20.0928 C   0  0  0  0  0  0  0  0  0  0  0  0
  -20.6978  -31.6234   24.2042 C   0  0  0  0  0  0  0  0  0  0  0  0
  -32.1238  -22.9133   24.6813 C   0  0  0  0  0  0  0  0  0  0  0  0
  -20.8000  -31.5140   22.6862 C   0  0  0  0  0  0  0  0  0  0  0  0
  -31.1065  -21.7911   24.9058 C   0  0  0  0  0  0  0  0  0  0  0  0
  -32.7971  -22.8035   23.3140 C   0  0  0  0  0  0  0  0  0  0  0  0
  -30.8665  -21.5812   22.3993 C   0  0  0  0  0  0  0  0  0  0  0  0
  -20.2979  -30.1504   22.1963 C   0  0  1  0  0  0  0  0  0  0  0  0
  -23.2598  -27.7798   21.9946 C   0  0  1  0  0  0  0  0  0  0  0  0
  -30.1103  -21.6879   23.7334 C   0  0  1  0  0  0  0  0  0  0  0  0
  -31.0801  -27.2951   22.0532 C   0  0  0  0  0  0  0  0  0  0  0  0
  -25.7181  -31.6259   21.2703 C   0  0  0  0  0  0  0  0  0  0  0  0
  -28.2044  -31.3319   21.2652 C   0  0  0  0  0  0  0  0  0  0  0  0
  -26.9443  -31.2452   23.4164 C   0  0  0  0  0  0  0  0  0  0  0  0
  -28.1288  -25.1799   23.1898 C   0  0  0  0  0  0  0  0  0  0  0  0
  -24.4904  -23.8319   14.3704 C   0  0  0  0  0  0  0  0  0  0  0  0
  -23.5650  -24.1321   15.5391 C   0  0  0  0  0  0  0  0  0  1  0  0
  -25.9555  -23.9477   14.7605 C   0  0  0  0  0  0  0  0  0  0  0  0
  -26.7542  -29.3188   21.7900 C   0  0  1  0  0  0  0  0  0  0  0  0
  -29.6791  -27.0437   22.5888 C   0  0  2  0  0  0  0  0  0  0  0  0
  -26.8885  -30.8623   21.9214 C   0  0  0  0  0  0  0  0  0  0  0  0
  -29.4272  -19.3414   23.4049 N   0  0  0  0  0  0  0  0  0  0  0  0
  -29.1304  -20.5454   23.9230 N   0  0  0  0  0  0  0  0  0  0  0  0
  -24.6013  -28.1284   21.5222 N   0  0  0  0  0  0  0  0  0  0  0  0
  -31.7864  -22.7200   22.2582 N   0  0  0  0  0  0  0  0  0  0  0  0
  -26.2060  -22.1350   18.4725 N   0  0  0  0  0  0  0  0  0  0  0  0
  -27.4841  -21.7154   25.1605 N   0  0  0  0  0  0  0  0  0  0  0  0
  -25.7796  -17.5454   24.8410 N   0  0  0  0  0  0  0  0  0  0  0  0
  -30.7204  -23.5605   20.3189 N   0  0  0  0  0  0  0  0  0  0  0  0
  -21.2987  -29.1307   22.4269 N   0  0  0  0  0  0  0  0  0  0  0  0
  -27.8348  -28.5691   22.4213 N   0  0  0  0  0  0  0  0  0  0  0  0
  -29.4595  -25.5713   22.6580 N   0  3  0  0  0  0  0  0  0  0  0  0
  -31.1252  -25.4583   19.0281 O   0  0  0  0  0  0  0  0  0  0  0  0
  -25.3987  -19.6554   25.6545 O   0  0  0  0  0  0  0  0  0  0  0  0
  -22.5581  -29.4649   20.4970 O   0  0  0  0  0  0  0  0  0  0  0  0
  -25.2527  -28.9763   23.5941 O   0  0  0  0  0  0  0  0  0  0  0  0
  -28.5199  -27.4513   20.5086 O   0  0  0  0  0  0  0  0  0  0  0  0
  -32.5386  -24.6545   21.2218 O   0  0  0  0  0  0  0  0  0  0  0  0
  -28.1499  -13.2064   22.2739 O   0  0  0  0  0  0  0  0  0  0  0  0
  -23.8061  -25.4535   16.0207 O   0  0  0  0  0  0  0  0  0  1  0  0
  -26.2525  -23.0247   15.7996 O   0  0  0  0  0  0  0  0  0  0  0  0
  -29.5177  -11.9031   17.0937 F   0  0  0  0  0  0  0  0  0  0  0  0
  -30.6681  -13.7761   21.2858 F   0  0  0  0  0  0  0  0  0  0  0  0
  1  2  1  0  0  0  0
  1  6  2  0  0  0  0
  2  7  2  0  0  0  0
  3  9  2  0  0  0  0
  3 18  1  0  0  0  0
  4 10  1  0  0  0  0
  4 18  2  0  0  0  0
  5 11  2  0  0  0  0
  5 19  1  0  0  0  0
  6 21  1  0  0  0  0
  7 23  1  0  0  0  0
  8 12  2  0  0  0  0
  8 22  1  0  0  0  0
  9 26  1  0  0  0  0
 10 26  2  0  0  0  0
 11 28  1  0  0  0  0
 12 27  1  0  0  0  0
 13 14  2  0  0  0  0
 13 29  1  0  0  0  0
 14 30  1  0  0  0  0
 15 19  2  0  0  0  0
 15 25  1  0  0  0  0
 16 24  1  0  0  0  0
 16 27  2  0  0  0  0
 17 30  2  0  0  0  0
 17 31  1  0  0  0  0
 18 32  1  0  0  0  0
 19 34  1  0  0  0  0
 20 32  1  0  0  0  0
 20 33  2  0  0  0  0
 20 35  1  0  0  0  0
 21 23  2  0  0  0  0
 21 40  1  0  0  0  0
 22 24  2  0  0  0  0
 22 41  1  0  0  0  0
 23 49  1  0  0  0  0
 24 42  1  0  0  0  0
 25 28  2  0  0  0  0
 25 67  1  0  0  0  0
 26 80  1  0  0  0  0
 27 81  1  0  0  0  0
 28 82  1  0  0  0  0
 29 31  2  0  0  0  0
 29 80  1  0  0  0  0
 30 83  1  0  0  0  0
 31 84  1  0  0  0  0
 32 63  2  0  0  0  0
 33 64  1  0  0  0  0
 33 68  1  0  0  0  0
 34 70  1  0  0  0  0
 34 74  2  0  0  0  0
 35 69  1  0  0  0  0
 35 75  2  0  0  0  0
 36 50  1  0  0  0  0
 36 71  1  0  0  0  0
 36 76  2  0  0  0  0
 37 60  1  0  0  0  0
 37 65  1  0  0  0  0
 37 77  2  0  0  0  0
 38 61  1  0  0  0  0
 38 72  1  0  0  0  0
 38 78  2  0  0  0  0
 39 66  1  0  0  0  0
 39 70  1  0  0  0  0
 39 79  2  0  0  0  0
 40 43  1  0  0  0  0
 41 50  1  0  0  0  0
 42 65  1  0  0  0  0
 43 45  1  0  0  0  0
 44 46  1  0  0  0  0
 44 47  1  0  0  0  0
 45 49  1  0  0  0  0
 46 51  1  0  0  0  0
 47 66  1  0  0  0  0
 48 51  1  0  0  0  0
 48 66  1  0  0  0  0
 49 71  1  0  0  0  0
 50 65  1  0  0  0  0
 51 64  1  0  0  0  0
 52 61  1  0  0  0  0
 53 62  1  0  0  0  0
 54 62  1  0  0  0  0
 55 62  1  0  0  0  0
 56 73  1  0  0  0  0
 57 58  1  0  0  0  0
 57 59  1  0  0  0  0
 58 81  1  0  0  0  0
 59 82  1  0  0  0  0
 60 62  1  0  0  0  0
 60 72  1  0  0  0  0
 61 73  1  0  0  0  0
 63 64  1  0  0  0  0
M  CHG  1  73   1
M  ISO  4  39 100  58 101  70 100  81 101
M  END
> <Batch ID>
0098

> <Smiles>
CNC(C)C(=O)NC(C(=O)N1Cc2cc([101O:1][101CH2:1]CCOc3ccc(C(=O)[100NH:0][100C:0](=O)N4CCCC(n5nc(-c6ccc(Oc7ccc(F)cc7F)cc6)c(C(N)=O)c5N)C4)cc3N)ccc2CC1C(=O)NC1CCCc2ccccc21)C(C)(C)C

> <Shape>
0.212

> <Color>
0.075

> <Negative vol penalty>
0.000

$$$$

  -OEChem-04052300513D

 84 93  0     1  0  0  0  0  0999 V2000
  -28.1350  -11.1022   18.9753 C   0  0  0  0  0  0  0  0  0  0  0  0
  -28.3659  -12.4588   18.7710 C   0  0  0  0  0  0  0  0  0  0  0  0
  -25.7848  -29.7126   20.5408 C   0  0  0  0  0  0  0  0  0  0  0  0
  -23.4009  -29.5097   20.8768 C   0  0  0  0  0  0  0  0  0  0  0  0
  -25.7351  -22.2233   15.4610 C   0  0  0  0  0  0  0  0  0  0  0  0
  -26.7947  -23.8325   14.0035 C   0  0  0  0  0  0  0  0  0  0  0  0
  -26.9595  -10.6822   19.5965 C   0  0  0  0  0  0  0  0  0  0  0  0
  -27.4210  -13.3961   19.1868 C   0  0  0  0  0  0  0  0  0  0  0  0
  -29.5179  -17.3450   21.5647 C   0  0  0  0  0  0  0  0  0  0  0  0
  -26.9873  -21.7275   15.8240 C   0  0  0  0  0  0  0  0  0  0  0  0
  -28.0469  -23.3366   14.3664 C   0  0  0  0  0  0  0  0  0  0  0  0
  -25.7560  -30.9874   21.1061 C   0  0  0  0  0  0  0  0  0  0  0  0
  -23.3721  -30.7845   21.4422 C   0  0  0  0  0  0  0  0  0  0  0  0
  -30.1233  -18.3182   20.7708 C   0  0  0  0  0  0  0  0  0  0  0  0
  -25.6238  -32.3363   24.2038 C   0  0  0  0  0  0  0  0  0  0  0  0
  -26.6117  -32.6546   25.1357 C   0  0  0  0  0  0  0  0  0  0  0  0
  -28.1606  -19.7044   20.9840 C   0  0  0  0  0  0  0  0  0  0  0  0
  -27.3577  -34.4687   23.7252 C   0  0  0  0  0  0  0  0  0  0  0  0
  -24.6072  -28.9737   20.4261 C   0  0  0  0  0  0  0  0  0  0  0  0
  -25.6387  -23.2758   14.5508 C   0  0  0  0  0  0  0  0  0  0  0  0
  -25.3637  -26.5409   20.2966 C   0  0  0  0  0  0  0  0  0  0  0  0
  -26.0042  -11.6154   20.0289 C   0  0  0  0  0  0  0  0  0  0  0  0
  -28.2229  -17.5399   22.0661 C   0  0  0  0  0  0  0  0  0  0  0  0
  -26.2311  -12.9881   19.8132 C   0  0  0  0  0  0  0  0  0  0  0  0
  -27.5421  -18.7333   21.7862 C   0  0  0  0  0  0  0  0  0  0  0  0
  -28.1432  -22.2841   15.2767 C   0  0  0  0  0  0  0  0  0  0  0  0
  -24.5497  -31.5234   21.5568 C   0  0  0  0  0  0  0  0  0  0  0  0
  -29.4435  -19.4968   20.4779 C   0  0  0  0  0  0  0  0  0  0  0  0
  -25.5030  -33.0841   23.0325 C   0  0  0  0  0  0  0  0  0  0  0  0
  -27.4786  -33.7208   24.8964 C   0  0  0  0  0  0  0  0  0  0  0  0
  -26.3699  -34.1503   22.7932 C   0  0  0  0  0  0  0  0  0  0  0  0
  -24.6362  -27.6570   19.8417 C   0  0  0  0  0  0  0  0  0  0  0  0
  -25.0540  -25.5427   19.4054 C   0  0  0  0  0  0  0  0  0  0  0  0
  -30.5220  -21.8153   14.7556 C   0  0  0  0  0  0  0  0  0  0  0  0
  -24.3202  -23.7973   14.1685 C   0  0  0  0  0  0  0  0  0  0  0  0
  -26.2410  -26.4175   21.4239 C   0  0  0  0  0  0  0  0  0  0  0  0
  -25.4353  -16.0528   21.7177 C   0  0  0  0  0  0  0  0  0  0  0  0
  -24.4725  -18.1546   23.9932 C   0  0  0  0  0  0  0  0  0  0  0  0
  -25.4701  -21.3720   24.5406 C   0  0  0  0  0  0  0  0  0  0  0  0
  -24.7272  -11.1109   20.6530 C   0  0  0  0  0  0  0  0  0  0  0  0
  -27.5944  -16.4920   22.9431 C   0  0  0  0  0  0  0  0  0  0  0  0
  -26.1580  -18.9999   22.3169 C   0  0  0  0  0  0  0  0  0  0  0  0
  -31.8969  -21.5491   15.3389 C   0  0  0  0  0  0  0  0  0  0  0  0
  -23.9475  -12.1891   21.4012 C   0  0  0  0  0  0  0  0  0  0  0  0
  -31.9147  -20.5278   16.4549 C   0  0  0  0  0  0  0  0  0  0  0  0
  -21.5260  -25.3169   15.7888 C   0  0  0  0  0  0  0  0  0  0  0  0
  -23.8507  -13.4583   20.5604 C   0  0  0  0  0  0  0  0  0  0  0  0
  -22.1460  -25.9875   17.0160 C   0  0  0  0  0  0  0  0  0  0  0  0
  -22.4612  -25.3727   14.5834 C   0  0  0  0  0  0  0  0  0  0  0  0
  -29.5300  -21.0182   16.9195 C   0  0  0  0  0  0  0  0  0  0  0  0
  -24.4376  -25.5013   16.0605 C   0  0  0  0  0  0  0  0  0  0  0  0
  -25.2414  -14.0367   20.2726 C   0  0  1  0  0  0  0  0  0  0  0  0
  -26.0714  -16.5746   22.9750 C   0  0  1  0  0  0  0  0  0  0  0  0
  -30.9296  -20.9576   17.5295 C   0  0  1  0  0  0  0  0  0  0  0  0
  -23.5479  -25.4222   17.3120 C   0  0  1  0  0  0  0  0  0  0  0  0
  -26.4923  -23.4817   25.4360 C   0  0  0  0  0  0  0  0  0  0  0  0
  -21.5611  -18.6920   23.2551 C   0  0  0  0  0  0  0  0  0  0  0  0
  -21.8147  -20.9904   24.2149 C   0  0  0  0  0  0  0  0  0  0  0  0
  -22.0947  -18.9910   25.6800 C   0  0  0  0  0  0  0  0  0  0  0  0
  -27.2784  -19.8703   26.3389 C   0  0  0  0  0  0  0  0  0  0  0  0
  -30.9625  -19.9994   18.7183 C   0  0  0  0  0  0  0  0  0  1  0  0
  -23.8861  -19.5457   23.9842 C   0  0  1  0  0  0  0  0  0  0  0  0
  -26.1722  -22.0222   25.7191 C   0  0  2  0  0  0  0  0  0  0  0  0
  -22.3564  -19.5458   24.2628 C   0  0  0  0  0  0  0  0  0  0  0  0
  -23.9185  -27.3932   18.7466 N   0  0  0  0  0  0  0  0  0  0  0  0
  -24.1936  -26.1000   18.5058 N   0  0  0  0  0  0  0  0  0  0  0  0
  -29.4426  -21.7705   15.6546 N   0  0  0  0  0  0  0  0  0  0  0  0
  -23.7790  -24.8390   14.9258 N   0  0  0  0  0  0  0  0  0  0  0  0
  -25.5834  -17.9422   23.1646 N   0  0  0  0  0  0  0  0  0  0  0  0
  -25.4365  -24.2515   19.3113 N   0  0  0  0  0  0  0  0  0  0  0  0
  -25.6964  -26.0260   22.6545 N   0  0  0  0  0  0  0  0  0  0  0  0
  -25.7476  -14.7371   21.4334 N   0  0  0  0  0  0  0  0  0  0  0  0
  -24.6674  -20.3241   24.9392 N   0  0  0  0  0  0  0  0  0  0  0  0
  -27.4471  -21.3112   26.0191 N   0  3  0  0  0  0  0  0  0  0  0  0
  -30.4467  -22.1085   13.5593 O   0  0  0  0  0  0  0  0  0  0  0  0
  -23.7818  -23.2585   13.2026 O   0  0  0  0  0  0  0  0  0  0  0  0
  -27.4686  -26.6634   21.3462 O   0  0  0  0  0  0  0  0  0  0  0  0
  -24.7133  -16.7889   21.0554 O   0  0  0  0  0  0  0  0  0  0  0  0
  -23.9679  -17.2903   24.7144 O   0  0  0  0  0  0  0  0  0  0  0  0
  -25.6161  -21.7576   23.3828 O   0  0  0  0  0  0  0  0  0  0  0  0
  -24.5213  -32.7672   22.1087 O   0  0  0  0  0  0  0  0  0  0  0  0
  -30.0318  -20.4480   19.7027 O   0  0  0  0  0  0  0  0  0  1  0  0
  -28.4262  -34.0274   25.7921 F   0  0  0  0  0  0  0  0  0  0  0  0
  -26.2579  -34.8731   21.6704 F   0  0  0  0  0  0  0  0  0  0  0  0
  1  2  1  0  0  0  0
  1  7  2  0  0  0  0
  2  8  2  0  0  0  0
  3 12  2  0  0  0  0
  3 19  1  0  0  0  0
  4 13  1  0  0  0  0
  4 19  2  0  0  0  0
  5 10  2  0  0  0  0
  5 20  1  0  0  0  0
  6 11  1  0  0  0  0
  6 20  2  0  0  0  0
  7 22  1  0  0  0  0
  8 24  1  0  0  0  0
  9 14  2  0  0  0  0
  9 23  1  0  0  0  0
 10 26  1  0  0  0  0
 11 26  2  0  0  0  0
 12 27  1  0  0  0  0
 13 27  2  0  0  0  0
 14 28  1  0  0  0  0
 15 16  2  0  0  0  0
 15 29  1  0  0  0  0
 16 30  1  0  0  0  0
 17 25  1  0  0  0  0
 17 28  2  0  0  0  0
 18 30  2  0  0  0  0
 18 31  1  0  0  0  0
 19 32  1  0  0  0  0
 20 35  1  0  0  0  0
 21 32  1  0  0  0  0
 21 33  2  0  0  0  0
 21 36  1  0  0  0  0
 22 24  2  0  0  0  0
 22 40  1  0  0  0  0
 23 25  2  0  0  0  0
 23 41  1  0  0  0  0
 24 52  1  0  0  0  0
 25 42  1  0  0  0  0
 26 67  1  0  0  0  0
 27 81  1  0  0  0  0
 28 82  1  0  0  0  0
 29 31  2  0  0  0  0
 29 81  1  0  0  0  0
 30 83  1  0  0  0  0
 31 84  1  0  0  0  0
 32 65  2  0  0  0  0
 33 66  1  0  0  0  0
 33 70  1  0  0  0  0
 34 43  1  0  0  0  0
 34 67  1  0  0  0  0
 34 75  2  0  0  0  0
 35 68  1  0  0  0  0
 35 76  2  0  0  0  0
 36 71  1  0  0  0  0
 36 77  2  0  0  0  0
 37 53  1  0  0  0  0
 37 72  1  0  0  0  0
 37 78  2  0  0  0  0
 38 62  1  0  0  0  0
 38 69  1  0  0  0  0
 38 79  2  0  0  0  0
 39 63  1  0  0  0  0
 39 73  1  0  0  0  0
 39 80  2  0  0  0  0
 40 44  1  0  0  0  0
 41 53  1  0  0  0  0
 42 69  1  0  0  0  0
 43 45  1  0  0  0  0
 44 47  1  0  0  0  0
 45 54  1  0  0  0  0
 46 48  1  0  0  0  0
 46 49  1  0  0  0  0
 47 52  1  0  0  0  0
 48 55  1  0  0  0  0
 49 68  1  0  0  0  0
 50 54  1  0  0  0  0
 50 67  1  0  0  0  0
 51 55  1  0  0  0  0
 51 68  1  0  0  0  0
 52 72  1  0  0  0  0
 53 69  1  0  0  0  0
 54 61  1  0  0  0  0
 55 66  1  0  0  0  0
 56 63  1  0  0  0  0
 57 64  1  0  0  0  0
 58 64  1  0  0  0  0
 59 64  1  0  0  0  0
 60 74  1  0  0  0  0
 61 82  1  0  0  0  0
 62 64  1  0  0  0  0
 62 73  1  0  0  0  0
 63 74  1  0  0  0  0
 65 66  1  0  0  0  0
M  CHG  1  74   1
M  ISO  4  20 100  35 100  61 101  82 101
M  END
> <Batch ID>
0098

> <Smiles>
CNC(C)C(=O)NC(C(=O)N1Cc2cc([101O:1][101CH2:1]C3CCC(=O)N(c4cc[100c:0]([100C:0](=O)N5CCCC(n6nc(-c7ccc(Oc8ccc(F)cc8F)cc7)c(C(N)=O)c6N)C5)cc4)C3)ccc2CC1C(=O)NC1CCCc2ccccc21)C(C)(C)C

> <Shape>
0.185

> <Color>
0.055

> <Negative vol penalty>
0.000

$$$$

  -OEChem-04052300513D

 85 94  0     1  0  0  0  0  0999 V2000
  -26.7044  -30.5078   23.1695 C   0  0  0  0  0  0  0  0  0  0  0  0
  -26.9914  -29.2351   23.6525 C   0  0  0  0  0  0  0  0  0  0  0  0
  -22.9738  -10.0589   21.7606 C   0  0  0  0  0  0  0  0  0  0  0  0
  -24.6283  -10.2604   23.5097 C   0  0  0  0  0  0  0  0  0  0  0  0
  -26.3073  -30.6757   21.8436 C   0  0  0  0  0  0  0  0  0  0  0  0
  -26.8804  -28.1294   22.8102 C   0  0  0  0  0  0  0  0  0  0  0  0
  -30.8132  -24.9665   23.2272 C   0  0  0  0  0  0  0  0  0  0  0  0
  -22.3549   -9.0263   22.4650 C   0  0  0  0  0  0  0  0  0  0  0  0
  -24.0093   -9.2278   24.2141 C   0  0  0  0  0  0  0  0  0  0  0  0
  -30.8310  -24.1148   24.3308 C   0  0  0  0  0  0  0  0  0  0  0  0
  -22.8513   -5.7248   22.9926 C   0  0  0  0  0  0  0  0  0  0  0  0
  -22.4718   -4.5896   22.2766 C   0  0  0  0  0  0  0  0  0  0  0  0
  -32.3977  -18.5001   21.7213 C   0  0  0  0  0  0  0  0  0  0  0  0
  -32.7326  -18.8695   23.0560 C   0  0  0  0  0  0  0  0  0  0  0  0
  -30.0064  -22.3173   22.9495 C   0  0  0  0  0  0  0  0  0  0  0  0
  -20.1706   -4.9565   22.9146 C   0  0  0  0  0  0  0  0  0  0  0  0
  -24.1106  -10.6760   22.2830 C   0  0  0  0  0  0  0  0  0  0  0  0
  -24.1826  -12.9734   21.1764 C   0  0  0  0  0  0  0  0  0  0  0  0
  -26.2006  -29.5727   20.9819 C   0  0  0  0  0  0  0  0  0  0  0  0
  -30.3807  -24.5021   21.9767 C   0  0  0  0  0  0  0  0  0  0  0  0
  -26.4801  -28.2826   21.4719 C   0  0  0  0  0  0  0  0  0  0  0  0
  -29.9864  -23.1644   21.8310 C   0  0  0  0  0  0  0  0  0  0  0  0
  -22.8726   -8.6107   23.6917 C   0  0  0  0  0  0  0  0  0  0  0  0
  -30.4249  -22.7908   24.1928 C   0  0  0  0  0  0  0  0  0  0  0  0
  -21.8905   -6.4759   23.6697 C   0  0  0  0  0  0  0  0  0  0  0  0
  -21.1314   -4.2054   22.2376 C   0  0  0  0  0  0  0  0  0  0  0  0
  -20.5502   -6.0918   23.6307 C   0  0  0  0  0  0  0  0  0  0  0  0
  -24.7507  -11.7424   21.5555 C   0  0  0  0  0  0  0  0  0  0  0  0
  -31.0836  -18.1026   21.6086 C   0  0  0  0  0  0  0  0  0  0  0  0
  -25.1919  -13.6275   20.5131 C   0  0  0  0  0  0  0  0  0  0  0  0
  -31.6614  -18.7404   23.9127 C   0  0  0  0  0  0  0  0  0  0  0  0
  -30.6541  -18.2753   26.1381 C   0  0  0  0  0  0  0  0  0  0  0  0
  -22.8608  -13.4803   21.4036 C   0  0  0  0  0  0  0  0  0  0  0  0
  -28.0033  -25.2527   20.0048 C   0  0  0  0  0  0  0  0  0  0  0  0
  -29.4860  -23.1407   18.0392 C   0  0  0  0  0  0  0  0  0  0  0  0
  -31.2130  -20.2997   18.8091 C   0  0  0  0  0  0  0  0  0  0  0  0
  -30.5340  -15.1893   20.1044 C   0  0  0  0  0  0  0  0  0  0  0  0
  -25.7218  -29.7984   19.5696 C   0  0  0  0  0  0  0  0  0  0  0  0
  -30.3927  -25.4263   20.7901 C   0  0  0  0  0  0  0  0  0  0  0  0
  -29.5326  -22.6113   20.5056 C   0  0  0  0  0  0  0  0  0  0  0  0
  -30.6262  -18.7501   27.5784 C   0  0  0  0  0  0  0  0  0  0  0  0
  -25.9906  -28.6182   18.6395 C   0  0  0  0  0  0  0  0  0  0  0  0
  -30.5589  -20.2663   27.6109 C   0  0  0  0  0  0  0  0  0  0  0  0
  -29.6777  -11.9591   18.8761 C   0  0  0  0  0  0  0  0  0  0  0  0
  -25.5812  -27.3088   19.3063 C   0  0  0  0  0  0  0  0  0  0  0  0
  -28.2760  -11.7141   19.4374 C   0  0  0  0  0  0  0  0  0  0  0  0
  -30.5556  -12.7239   19.8642 C   0  0  0  0  0  0  0  0  0  0  0  0
  -32.4854  -19.9272   25.9683 C   0  0  0  0  0  0  0  0  0  0  0  0
  -28.5748  -13.7423   20.9192 C   0  0  0  0  0  0  0  0  0  0  0  0
  -26.3952  -27.0614   20.5822 C   0  0  1  0  0  0  0  0  0  0  0  0
  -29.4454  -24.9844   19.6789 C   0  0  1  0  0  0  0  0  0  0  0  0
  -31.7940  -20.8911   26.9507 C   0  0  1  0  0  0  0  0  0  0  0  0
  -27.6351  -13.0231   19.9364 C   0  0  2  0  0  0  0  0  0  0  0  0
  -33.5593  -21.1476   18.5388 C   0  0  0  0  0  0  0  0  0  0  0  0
  -27.1709  -21.8743   16.5074 C   0  0  0  0  0  0  0  0  0  0  0  0
  -28.5226  -19.7735   16.3396 C   0  0  0  0  0  0  0  0  0  0  0  0
  -29.3531  -21.8764   15.2856 C   0  0  0  0  0  0  0  0  0  0  0  0
  -32.0226  -17.9089   17.2639 C   0  0  0  0  0  0  0  0  0  0  0  0
  -30.3597  -17.6470   20.4020 C   0  0  0  0  0  0  0  0  0  0  0  0
  -31.4232  -22.2109   26.2719 C   0  0  0  0  0  0  0  0  0  1  0  0
  -29.3928  -21.6525   17.8036 C   0  0  1  0  0  0  0  0  0  0  0  0
  -32.6674  -19.9175   18.6013 C   0  0  2  0  0  0  0  0  0  0  0  0
  -28.6040  -21.3056   16.5094 C   0  0  0  0  0  0  0  0  0  0  0  0
  -26.0222  -11.6193   21.1654 N   0  0  0  0  0  0  0  0  0  0  0  0
  -26.2613  -12.7814   20.5341 N   0  0  0  0  0  0  0  0  0  0  0  0
  -31.5483  -18.9985   25.3232 N   0  0  0  0  0  0  0  0  0  0  0  0
  -29.5562  -23.5559   19.3765 N   0  0  0  0  0  0  0  0  0  0  0  0
  -29.8909  -13.9555   20.2970 N   0  0  0  0  0  0  0  0  0  0  0  0
  -25.2599  -14.8381   19.9197 N   0  0  0  0  0  0  0  0  0  0  0  0
  -21.9485  -12.6780   22.1025 N   0  0  0  0  0  0  0  0  0  0  0  0
  -27.7202  -26.5826   20.2514 N   0  0  0  0  0  0  0  0  0  0  0  0
  -30.7622  -21.1498   17.8215 N   0  0  0  0  0  0  0  0  0  0  0  0
  -29.8321  -16.3076   20.5374 N   0  0  0  0  0  0  0  0  0  0  0  0
  -32.8264  -19.1565   17.3299 N   0  3  0  0  0  0  0  0  0  0  0  0
  -29.9748  -17.3055   25.8030 O   0  0  0  0  0  0  0  0  0  0  0  0
  -22.4944  -14.6044   20.9845 O   0  0  0  0  0  0  0  0  0  0  0  0
  -27.2062  -24.3223   20.0292 O   0  0  0  0  0  0  0  0  0  0  0  0
  -29.5033  -23.9062   17.0720 O   0  0  0  0  0  0  0  0  0  0  0  0
  -30.5427  -19.8827   19.7511 O   0  0  0  0  0  0  0  0  0  0  0  0
  -31.6488  -15.2875   19.5803 O   0  0  0  0  0  0  0  0  0  0  0  0
  -22.2688   -7.6032   24.3795 O   0  0  0  0  0  0  0  0  0  0  0  0
  -30.4407  -21.9575   25.2685 O   0  0  0  0  0  0  0  0  0  1  0  0
  -20.7669   -3.1160   21.5487 F   0  0  0  0  0  0  0  0  0  0  0  0
  -19.6225   -6.8100   24.2782 F   0  0  0  0  0  0  0  0  0  0  0  0
  -30.2595  -18.1756   23.1079 S   0  0  0  0  0  0  0  0  0  0  0  0
  1  2  1  0  0  0  0
  1  5  2  0  0  0  0
  2  6  2  0  0  0  0
  3  8  2  0  0  0  0
  3 17  1  0  0  0  0
  4  9  1  0  0  0  0
  4 17  2  0  0  0  0
  5 19  1  0  0  0  0
  6 21  1  0  0  0  0
  7 10  2  0  0  0  0
  7 20  1  0  0  0  0
  8 23  1  0  0  0  0
  9 23  2  0  0  0  0
 10 24  1  0  0  0  0
 11 12  2  0  0  0  0
 11 25  1  0  0  0  0
 12 26  1  0  0  0  0
 13 14  1  0  0  0  0
 13 29  2  0  0  0  0
 14 31  2  0  0  0  0
 15 22  1  0  0  0  0
 15 24  2  0  0  0  0
 16 26  2  0  0  0  0
 16 27  1  0  0  0  0
 17 28  1  0  0  0  0
 18 28  1  0  0  0  0
 18 30  2  0  0  0  0
 18 33  1  0  0  0  0
 19 21  2  0  0  0  0
 19 38  1  0  0  0  0
 20 22  2  0  0  0  0
 20 39  1  0  0  0  0
 21 50  1  0  0  0  0
 22 40  1  0  0  0  0
 23 81  1  0  0  0  0
 24 82  1  0  0  0  0
 25 27  2  0  0  0  0
 25 81  1  0  0  0  0
 26 83  1  0  0  0  0
 27 84  1  0  0  0  0
 28 64  2  0  0  0  0
 29 59  1  0  0  0  0
 29 85  1  0  0  0  0
 30 65  1  0  0  0  0
 30 69  1  0  0  0  0
 31 66  1  0  0  0  0
 31 85  1  0  0  0  0
 32 41  1  0  0  0  0
 32 66  1  0  0  0  0
 32 75  2  0  0  0  0
 33 70  1  0  0  0  0
 33 76  2  0  0  0  0
 34 51  1  0  0  0  0
 34 71  1  0  0  0  0
 34 77  2  0  0  0  0
 35 61  1  0  0  0  0
 35 67  1  0  0  0  0
 35 78  2  0  0  0  0
 36 62  1  0  0  0  0
 36 72  1  0  0  0  0
 36 79  2  0  0  0  0
 37 68  1  0  0  0  0
 37 73  1  0  0  0  0
 37 80  2  0  0  0  0
 38 42  1  0  0  0  0
 39 51  1  0  0  0  0
 40 67  1  0  0  0  0
 41 43  1  0  0  0  0
 42 45  1  0  0  0  0
 43 52  1  0  0  0  0
 44 46  1  0  0  0  0
 44 47  1  0  0  0  0
 45 50  1  0  0  0  0
 46 53  1  0  0  0  0
 47 68  1  0  0  0  0
 48 52  1  0  0  0  0
 48 66  1  0  0  0  0
 49 53  1  0  0  0  0
 49 68  1  0  0  0  0
 50 71  1  0  0  0  0
 51 67  1  0  0  0  0
 52 60  1  0  0  0  0
 53 65  1  0  0  0  0
 54 62  1  0  0  0  0
 55 63  1  0  0  0  0
 56 63  1  0  0  0  0
 57 63  1  0  0  0  0
 58 74  1  0  0  0  0
 59 73  1  0  0  0  0
 60 82  1  0  0  0  0
 61 63  1  0  0  0  0
 61 72  1  0  0  0  0
 62 74  1  0  0  0  0
 64 65  1  0  0  0  0
M  CHG  1  74   1
M  ISO  4  37 100  60 101  73 100  82 101
M  END
> <Batch ID>
0098

> <Smiles>
CNC(C)C(=O)NC(C(=O)N1Cc2cc([101O:1][101CH2:1]C3CCC(=O)N(c4ccc(C[100NH:0][100C:0](=O)N5CCCC(n6nc(-c7ccc(Oc8ccc(F)cc8F)cc7)c(C(N)=O)c6N)C5)s4)C3)ccc2CC1C(=O)NC1CCCc2ccccc21)C(C)(C)C

> <Shape>
0.257

> <Color>
0.168

> <Negative vol penalty>
0.000

$$$$

  -OEChem-04052300513D

 85 93  0     1  0  0  0  0  0999 V2000
  -21.1435  -29.6024   19.8889 C   0  0  0  0  0  0  0  0  0  0  0  0
  -21.8199  -28.3892   19.8106 C   0  0  0  0  0  0  0  0  0  0  0  0
  -23.1147   -9.8237   19.9525 C   0  0  0  0  0  0  0  0  0  0  0  0
  -23.5400   -9.9733   22.3260 C   0  0  0  0  0  0  0  0  0  0  0  0
  -21.8191  -30.7505   20.3003 C   0  0  0  0  0  0  0  0  0  0  0  0
  -23.1726  -28.3237   20.1425 C   0  0  0  0  0  0  0  0  0  0  0  0
  -26.0803  -23.6557   22.8372 C   0  0  0  0  0  0  0  0  0  0  0  0
  -22.3168   -8.6998   20.1662 C   0  0  0  0  0  0  0  0  0  0  0  0
  -22.7421   -8.8493   22.5398 C   0  0  0  0  0  0  0  0  0  0  0  0
  -26.8628  -22.6195   22.3296 C   0  0  0  0  0  0  0  0  0  0  0  0
  -23.0339   -5.4940   22.2438 C   0  0  0  0  0  0  0  0  0  0  0  0
  -23.5174   -4.5107   23.1068 C   0  0  0  0  0  0  0  0  0  0  0  0
  -31.5747  -16.9884   21.9049 C   0  0  0  0  0  0  0  0  0  0  0  0
  -32.2454  -15.7977   22.3079 C   0  0  0  0  0  0  0  0  0  0  0  0
  -28.8529  -23.8968   22.8066 C   0  0  0  0  0  0  0  0  0  0  0  0
  -21.5945   -4.8202   24.5366 C   0  0  0  0  0  0  0  0  0  0  0  0
  -23.7263  -10.4604   21.0324 C   0  0  0  0  0  0  0  0  0  0  0  0
  -24.1391  -12.9672   20.8014 C   0  0  0  0  0  0  0  0  0  0  0  0
  -23.1785  -30.6971   20.6467 C   0  0  0  0  0  0  0  0  0  0  0  0
  -26.6786  -24.8267   23.3241 C   0  0  0  0  0  0  0  0  0  0  0  0
  -23.8674  -29.4725   20.5576 C   0  0  0  0  0  0  0  0  0  0  0  0
  -28.0758  -24.9453   23.3222 C   0  0  0  0  0  0  0  0  0  0  0  0
  -22.1304   -8.2126   21.4599 C   0  0  0  0  0  0  0  0  0  0  0  0
  -28.2492  -22.7411   22.3115 C   0  0  0  0  0  0  0  0  0  0  0  0
  -21.8308   -6.1405   22.5271 C   0  0  0  0  0  0  0  0  0  0  0  0
  -22.7977   -4.1737   24.2532 C   0  0  0  0  0  0  0  0  0  0  0  0
  -21.1111   -5.8036   23.6735 C   0  0  0  0  0  0  0  0  0  0  0  0
  -24.5512  -11.6212   20.8121 C   0  0  0  0  0  0  0  0  0  0  0  0
  -25.2886  -13.6762   20.5516 C   0  0  0  0  0  0  0  0  0  0  0  0
  -30.2852  -17.0441   22.3862 C   0  0  0  0  0  0  0  0  0  0  0  0
  -31.4429  -14.9886   23.0820 C   0  0  0  0  0  0  0  0  0  0  0  0
  -22.8339  -13.5267   20.9995 C   0  0  0  0  0  0  0  0  0  0  0  0
  -26.5747  -27.9003   22.5202 C   0  0  0  0  0  0  0  0  0  0  0  0
  -28.3563  -28.2617   25.2067 C   0  0  0  0  0  0  0  0  0  0  0  0
  -31.0834  -12.3787   21.4725 C   0  0  0  0  0  0  0  0  0  0  0  0
  -29.6400  -19.4007   22.0637 C   0  0  0  0  0  0  0  0  0  0  0  0
  -30.5004  -26.8732   27.4698 C   0  0  0  0  0  0  0  0  0  0  0  0
  -23.8780  -31.9740   21.0403 C   0  0  0  0  0  0  0  0  0  0  0  0
  -25.8218  -25.9243   23.8930 C   0  0  0  0  0  0  0  0  0  0  0  0
  -28.7681  -26.1736   23.8519 C   0  0  0  0  0  0  0  0  0  0  0  0
  -25.2185  -31.7453   21.7339 C   0  0  0  0  0  0  0  0  0  0  0  0
  -29.5278  -13.3074   18.3810 C   0  0  0  0  0  0  0  0  0  0  0  0
  -26.0436  -30.7122   20.9732 C   0  0  0  0  0  0  0  0  0  0  0  0
  -28.0404  -13.0754   18.6437 C   0  0  0  0  0  0  0  0  0  0  0  0
  -30.3896  -12.2752   19.1014 C   0  0  0  0  0  0  0  0  0  0  0  0
  -28.6548  -11.9655   20.8381 C   0  0  0  0  0  0  0  0  0  0  0  0
  -25.3288  -29.3562   20.9331 C   0  0  1  0  0  0  0  0  0  0  0  0
  -26.5127  -27.2844   23.8893 C   0  0  1  0  0  0  0  0  0  0  0  0
  -27.7501  -13.0052   20.1534 C   0  0  2  0  0  0  0  0  0  0  0  0
  -30.7858  -10.8992   23.4491 C   0  0  0  0  0  0  0  0  0  0  0  0
  -31.8152  -27.4267   29.5343 C   0  0  0  0  0  0  0  0  0  0  0  0
  -30.3920  -29.7669   23.5037 C   0  0  0  0  0  0  0  0  0  0  0  0
  -32.0586  -29.4570   25.3462 C   0  0  0  0  0  0  0  0  0  0  0  0
  -29.9756  -30.7662   25.7581 C   0  0  0  0  0  0  0  0  0  0  0  0
  -27.8450  -17.6391   22.2392 C   0  0  0  0  0  0  0  0  0  0  0  0
  -29.0573  -24.8466   29.0728 C   0  0  0  0  0  0  0  0  0  0  0  0
  -28.5035  -20.4055   21.9427 C   0  0  0  0  0  0  0  0  0  1  0  0
  -29.8332  -28.2533   25.5193 C   0  0  1  0  0  0  0  0  0  0  0  0
  -30.6743  -12.3170   22.9227 C   0  0  1  0  0  0  0  0  0  0  0  0
  -30.5057  -26.8798   28.9878 C   0  0  2  0  0  0  0  0  0  0  0  0
  -30.5520  -29.5384   25.0200 C   0  0  0  0  0  0  0  0  0  0  0  0
  -25.8602  -11.4809   20.5869 N   0  0  0  0  0  0  0  0  0  0  0  0
  -26.2806  -12.7479   20.4322 N   0  0  0  0  0  0  0  0  0  0  0  0
  -27.8866  -27.2218   24.3919 N   0  0  0  0  0  0  0  0  0  0  0  0
  -30.0680  -12.2232   20.5287 N   0  0  0  0  0  0  0  0  0  0  0  0
  -25.5374  -14.9970   20.4245 N   0  0  0  0  0  0  0  0  0  0  0  0
  -21.7639  -12.6555   21.2454 N   0  0  0  0  0  0  0  0  0  0  0  0
  -25.4734  -28.6709   22.1995 N   0  0  0  0  0  0  0  0  0  0  0  0
  -29.9451  -28.0260   26.9560 N   0  0  0  0  0  0  0  0  0  0  0  0
  -29.2568  -18.0523   22.2266 N   0  0  0  0  0  0  0  0  0  0  0  0
  -30.3183  -25.4976   29.5125 N   0  3  0  0  0  0  0  0  0  0  0  0
  -22.6199  -14.7614   20.9435 O   0  0  0  0  0  0  0  0  0  0  0  0
  -27.5501  -27.6929   21.8080 O   0  0  0  0  0  0  0  0  0  0  0  0
  -27.6443  -29.1540   25.6743 O   0  0  0  0  0  0  0  0  0  0  0  0
  -32.2700  -12.5627   21.1891 O   0  0  0  0  0  0  0  0  0  0  0  0
  -30.8022  -19.8139   22.0439 O   0  0  0  0  0  0  0  0  0  0  0  0
  -30.9478  -25.9405   26.8062 O   0  0  0  0  0  0  0  0  0  0  0  0
  -33.0750  -13.0298   23.6457 O   0  0  0  0  0  0  0  0  0  0  0  0
  -31.1557  -13.5201   25.2021 O   0  0  0  0  0  0  0  0  0  0  0  0
  -21.3517   -7.1160   21.6689 O   0  0  0  0  0  0  0  0  0  0  0  0
  -29.0153  -21.7315   21.8160 O   0  0  0  0  0  0  0  0  0  1  0  0
  -23.2613   -3.2283   25.0811 F   0  0  0  0  0  0  0  0  0  0  0  0
  -19.9540   -6.4203   23.9504 F   0  0  0  0  0  0  0  0  0  0  0  0
  -29.8878  -15.6647   23.3199 S   0  0  0  0  0  0  0  0  0  0  0  0
  -31.6945  -13.4308   23.8563 S   0  0  0  0  0  0  0  0  0  0  0  0
  1  2  1  0  0  0  0
  1  5  2  0  0  0  0
  2  6  2  0  0  0  0
  3  8  2  0  0  0  0
  3 17  1  0  0  0  0
  4  9  1  0  0  0  0
  4 17  2  0  0  0  0
  5 19  1  0  0  0  0
  6 21  1  0  0  0  0
  7 10  2  0  0  0  0
  7 20  1  0  0  0  0
  8 23  1  0  0  0  0
  9 23  2  0  0  0  0
 10 24  1  0  0  0  0
 11 12  2  0  0  0  0
 11 25  1  0  0  0  0
 12 26  1  0  0  0  0
 13 14  1  0  0  0  0
 13 30  2  0  0  0  0
 14 31  2  0  0  0  0
 15 22  1  0  0  0  0
 15 24  2  0  0  0  0
 16 26  2  0  0  0  0
 16 27  1  0  0  0  0
 17 28  1  0  0  0  0
 18 28  1  0  0  0  0
 18 29  2  0  0  0  0
 18 32  1  0  0  0  0
 19 21  2  0  0  0  0
 19 38  1  0  0  0  0
 20 22  2  0  0  0  0
 20 39  1  0  0  0  0
 21 47  1  0  0  0  0
 22 40  1  0  0  0  0
 23 80  1  0  0  0  0
 24 81  1  0  0  0  0
 25 27  2  0  0  0  0
 25 80  1  0  0  0  0
 26 82  1  0  0  0  0
 27 83  1  0  0  0  0
 28 62  2  0  0  0  0
 29 63  1  0  0  0  0
 29 66  1  0  0  0  0
 30 70  1  0  0  0  0
 30 84  1  0  0  0  0
 31 84  1  0  0  0  0
 31 85  1  0  0  0  0
 32 67  1  0  0  0  0
 32 72  2  0  0  0  0
 33 48  1  0  0  0  0
 33 68  1  0  0  0  0
 33 73  2  0  0  0  0
 34 58  1  0  0  0  0
 34 64  1  0  0  0  0
 34 74  2  0  0  0  0
 35 59  1  0  0  0  0
 35 65  1  0  0  0  0
 35 75  2  0  0  0  0
 36 57  1  0  0  0  0
 36 70  1  0  0  0  0
 36 76  2  0  0  0  0
 37 60  1  0  0  0  0
 37 69  1  0  0  0  0
 37 77  2  0  0  0  0
 38 41  1  0  0  0  0
 39 48  1  0  0  0  0
 40 64  1  0  0  0  0
 41 43  1  0  0  0  0
 42 44  1  0  0  0  0
 42 45  1  0  0  0  0
 43 47  1  0  0  0  0
 44 49  1  0  0  0  0
 45 65  1  0  0  0  0
 46 49  1  0  0  0  0
 46 65  1  0  0  0  0
 47 68  1  0  0  0  0
 48 64  1  0  0  0  0
 49 63  1  0  0  0  0
 50 59  1  0  0  0  0
 51 60  1  0  0  0  0
 52 61  1  0  0  0  0
 53 61  1  0  0  0  0
 54 61  1  0  0  0  0
 55 70  1  0  0  0  0
 56 71  1  0  0  0  0
 57 81  1  0  0  0  0
 58 61  1  0  0  0  0
 58 69  1  0  0  0  0
 59 85  1  0  0  0  0
 60 71  1  0  0  0  0
 62 63  1  0  0  0  0
 78 85  2  0  0  0  0
 79 85  2  0  0  0  0
M  CHG  1  71   1
M  ISO  4  35 100  57 101  59 100  81 101
M  END
> <Batch ID>
0098

> <Smiles>
CNC(C)C(=O)NC(C(=O)N1Cc2cc([101O:1][101CH2:1]C(=O)N(C)c3ccc(S(=O)(=O)[100CH:0](C)[100C:0](=O)N4CCCC(n5nc(-c6ccc(Oc7ccc(F)cc7F)cc6)c(C(N)=O)c5N)C4)s3)ccc2CC1C(=O)NC1CCCc2ccccc21)C(C)(C)C

> <Shape>
0.252

> <Color>
0.198

> <Negative vol penalty>
0.000

$$$$

  -OEChem-04052300513D

 84 92  0     1  0  0  0  0  0999 V2000
  -28.9154  -32.9268   24.6326 C   0  0  0  0  0  0  0  0  0  0  0  0
  -28.6264  -31.5667   24.6780 C   0  0  0  0  0  0  0  0  0  0  0  0
  -22.7676  -11.4899   18.9529 C   0  0  0  0  0  0  0  0  0  0  0  0
  -23.0096   -9.9529   20.8012 C   0  0  0  0  0  0  0  0  0  0  0  0
  -27.8885  -33.8505   24.4426 C   0  0  0  0  0  0  0  0  0  0  0  0
  -27.3100  -31.1296   24.5345 C   0  0  0  0  0  0  0  0  0  0  0  0
  -26.9076  -27.1728   21.3997 C   0  0  0  0  0  0  0  0  0  0  0  0
  -21.7139  -10.7242   18.4540 C   0  0  0  0  0  0  0  0  0  0  0  0
  -21.9558   -9.1871   20.3023 C   0  0  0  0  0  0  0  0  0  0  0  0
  -27.2602  -25.9220   21.9047 C   0  0  0  0  0  0  0  0  0  0  0  0
  -19.0937   -7.0247   19.7107 C   0  0  0  0  0  0  0  0  0  0  0  0
  -18.1260   -6.5851   20.6140 C   0  0  0  0  0  0  0  0  0  0  0  0
  -24.9283  -25.4119   22.2528 C   0  0  0  0  0  0  0  0  0  0  0  0
  -29.0677  -20.4224   20.1283 C   0  0  0  0  0  0  0  0  0  0  0  0
  -28.1466  -19.2044   22.0005 C   0  0  0  0  0  0  0  0  0  0  0  0
  -17.6091   -8.8773   21.1758 C   0  0  0  0  0  0  0  0  0  0  0  0
  -23.4155  -11.1043   20.1265 C   0  0  0  0  0  0  0  0  0  0  0  0
  -29.8631  -18.1971   20.6307 C   0  0  0  0  0  0  0  0  0  0  0  0
  -24.4205  -12.9695   21.5472 C   0  0  0  0  0  0  0  0  0  0  0  0
  -26.5602  -33.4240   24.2870 C   0  0  0  0  0  0  0  0  0  0  0  0
  -25.5610  -27.5574   21.3275 C   0  0  0  0  0  0  0  0  0  0  0  0
  -26.2642  -32.0486   24.3435 C   0  0  0  0  0  0  0  0  0  0  0  0
  -24.5611  -26.6671   21.7441 C   0  0  0  0  0  0  0  0  0  0  0  0
  -29.9050  -19.3449   19.8392 C   0  0  0  0  0  0  0  0  0  0  0  0
  -28.1885  -20.3521   21.2090 C   0  0  0  0  0  0  0  0  0  0  0  0
  -21.3080   -9.5728   19.1287 C   0  0  0  0  0  0  0  0  0  0  0  0
  -26.2707  -25.0425   22.3340 C   0  0  0  0  0  0  0  0  0  0  0  0
  -19.3192   -8.3906   19.5400 C   0  0  0  0  0  0  0  0  0  0  0  0
  -17.3837   -7.5114   21.3465 C   0  0  0  0  0  0  0  0  0  0  0  0
  -28.9839  -18.1268   21.7114 C   0  0  0  0  0  0  0  0  0  0  0  0
  -18.5769   -9.3169   20.2725 C   0  0  0  0  0  0  0  0  0  0  0  0
  -24.5044  -11.8946   20.6421 C   0  0  0  0  0  0  0  0  0  0  0  0
  -25.7209  -13.3774   21.7173 C   0  0  0  0  0  0  0  0  0  0  0  0
  -30.7456  -17.0375   20.3422 C   0  0  0  0  0  0  0  0  0  0  0  0
  -23.2699  -13.5476   22.1780 C   0  0  0  0  0  0  0  0  0  0  0  0
  -23.8175  -29.8757   22.6275 C   0  0  0  0  0  0  0  0  0  0  0  0
  -21.5120  -28.7091   20.6663 C   0  0  0  0  0  0  0  0  0  0  0  0
  -20.2905  -26.0703   18.8798 C   0  0  0  0  0  0  0  0  0  0  0  0
  -30.7334  -14.6415   19.7236 C   0  0  0  0  0  0  0  0  0  0  0  0
  -25.4777  -34.4626   24.1312 C   0  0  0  0  0  0  0  0  0  0  0  0
  -25.1956  -28.8997   20.7555 C   0  0  0  0  0  0  0  0  0  0  0  0
  -23.0998  -27.0240   21.6687 C   0  0  0  0  0  0  0  0  0  0  0  0
  -24.1589  -33.8949   23.6129 C   0  0  0  0  0  0  0  0  0  0  0  0
  -30.0697  -11.2142   20.2809 C   0  0  0  0  0  0  0  0  0  0  0  0
  -23.7912  -32.6226   24.3698 C   0  0  0  0  0  0  0  0  0  0  0  0
  -28.5560  -11.1718   20.5075 C   0  0  0  0  0  0  0  0  0  0  0  0
  -30.4545  -12.2326   19.2086 C   0  0  0  0  0  0  0  0  0  0  0  0
  -28.4144  -13.5404   19.6393 C   0  0  0  0  0  0  0  0  0  0  0  0
  -24.8520  -31.5340   24.1671 C   0  0  1  0  0  0  0  0  0  0  0  0
  -23.8223  -29.3876   21.2064 C   0  0  1  0  0  0  0  0  0  0  0  0
  -27.9820  -12.5805   20.7595 C   0  0  1  0  0  0  0  0  0  0  0  0
  -30.8370  -19.4468   18.6760 C   0  0  0  0  0  0  0  0  0  0  0  0
  -18.3682  -25.4083   17.4089 C   0  0  0  0  0  0  0  0  0  0  0  0
  -19.7162  -28.4764   23.1221 C   0  0  0  0  0  0  0  0  0  0  0  0
  -18.2192  -26.9682   21.7982 C   0  0  0  0  0  0  0  0  0  0  0  0
  -18.5703  -29.3277   21.0686 C   0  0  0  0  0  0  0  0  0  0  0  0
  -22.0814  -25.5244   16.5878 C   0  0  0  0  0  0  0  0  0  0  0  0
  -26.4178  -21.4342   22.5943 C   0  0  0  0  0  0  0  0  0  0  0  0
  -25.6768  -22.7600   22.6400 C   0  0  0  0  0  0  0  0  0  1  0  0
  -20.4416  -27.6513   20.7856 C   0  0  1  0  0  0  0  0  0  0  0  0
  -19.7811  -25.9691   17.4534 C   0  0  2  0  0  0  0  0  0  0  0  0
  -19.2644  -28.0996   21.6970 C   0  0  0  0  0  0  0  0  0  0  0  0
  -25.7589  -11.6360   20.2635 N   0  0  0  0  0  0  0  0  0  0  0  0
  -26.4753  -12.5543   20.9340 N   0  0  0  0  0  0  0  0  0  0  0  0
  -22.7935  -28.3503   21.1077 N   0  0  0  0  0  0  0  0  0  0  0  0
  -29.8806  -13.5415   19.5257 N   0  0  0  0  0  0  0  0  0  0  0  0
  -26.2813  -14.3564   22.4590 N   0  0  0  0  0  0  0  0  0  0  0  0
  -22.0090  -13.0066   21.8922 N   0  0  0  0  0  0  0  0  0  0  0  0
  -27.3570  -21.4219   21.4963 N   0  0  0  0  0  0  0  0  0  0  0  0
  -30.0911  -15.8372   20.0639 N   0  0  0  0  0  0  0  0  0  0  0  0
  -24.6976  -30.9133   22.8689 N   0  0  0  0  0  0  0  0  0  0  0  0
  -20.0469  -27.3144   19.4221 N   0  0  0  0  0  0  0  0  0  0  0  0
  -20.6655  -25.0790   16.6494 N   0  3  0  0  0  0  0  0  0  0  0  0
  -31.9624  -17.2016   20.3255 O   0  0  0  0  0  0  0  0  0  0  0  0
  -23.3558  -14.5256   22.9587 O   0  0  0  0  0  0  0  0  0  0  0  0
  -23.0696  -29.3508   23.4440 O   0  0  0  0  0  0  0  0  0  0  0  0
  -21.2234  -29.8107   20.1921 O   0  0  0  0  0  0  0  0  0  0  0  0
  -20.8455  -25.1377   19.4567 O   0  0  0  0  0  0  0  0  0  0  0  0
  -31.9629  -14.5579   19.6422 O   0  0  0  0  0  0  0  0  0  0  0  0
  -20.2797   -8.8254   18.6423 O   0  0  0  0  0  0  0  0  0  0  0  0
  -26.6121  -23.8212   22.8278 O   0  0  0  0  0  0  0  0  0  1  0  0
  -16.4534   -7.0892   22.2128 F   0  0  0  0  0  0  0  0  0  0  0  0
  -28.9342  -17.0292   22.4797 F   0  0  0  0  0  0  0  0  0  0  0  0
  -18.7882  -10.6304   20.1119 F   0  0  0  0  0  0  0  0  0  0  0  0
  1  2  1  0  0  0  0
  1  5  2  0  0  0  0
  2  6  2  0  0  0  0
  3  8  2  0  0  0  0
  3 17  1  0  0  0  0
  4  9  1  0  0  0  0
  4 17  2  0  0  0  0
  5 20  1  0  0  0  0
  6 22  1  0  0  0  0
  7 10  2  0  0  0  0
  7 21  1  0  0  0  0
  8 26  1  0  0  0  0
  9 26  2  0  0  0  0
 10 27  1  0  0  0  0
 11 12  2  0  0  0  0
 11 28  1  0  0  0  0
 12 29  1  0  0  0  0
 13 23  1  0  0  0  0
 13 27  2  0  0  0  0
 14 24  2  0  0  0  0
 14 25  1  0  0  0  0
 15 25  2  0  0  0  0
 15 30  1  0  0  0  0
 16 29  2  0  0  0  0
 16 31  1  0  0  0  0
 17 32  1  0  0  0  0
 18 24  1  0  0  0  0
 18 30  2  0  0  0  0
 18 34  1  0  0  0  0
 19 32  1  0  0  0  0
 19 33  2  0  0  0  0
 19 35  1  0  0  0  0
 20 22  2  0  0  0  0
 20 40  1  0  0  0  0
 21 23  2  0  0  0  0
 21 41  1  0  0  0  0
 22 49  1  0  0  0  0
 23 42  1  0  0  0  0
 24 52  1  0  0  0  0
 25 69  1  0  0  0  0
 26 80  1  0  0  0  0
 27 81  1  0  0  0  0
 28 31  2  0  0  0  0
 28 80  1  0  0  0  0
 29 82  1  0  0  0  0
 30 83  1  0  0  0  0
 31 84  1  0  0  0  0
 32 63  2  0  0  0  0
 33 64  1  0  0  0  0
 33 67  1  0  0  0  0
 34 70  1  0  0  0  0
 34 74  2  0  0  0  0
 35 68  1  0  0  0  0
 35 75  2  0  0  0  0
 36 50  1  0  0  0  0
 36 71  1  0  0  0  0
 36 76  2  0  0  0  0
 37 60  1  0  0  0  0
 37 65  1  0  0  0  0
 37 77  2  0  0  0  0
 38 61  1  0  0  0  0
 38 72  1  0  0  0  0
 38 78  2  0  0  0  0
 39 66  1  0  0  0  0
 39 70  1  0  0  0  0
 39 79  2  0  0  0  0
 40 43  1  0  0  0  0
 41 50  1  0  0  0  0
 42 65  1  0  0  0  0
 43 45  1  0  0  0  0
 44 46  1  0  0  0  0
 44 47  1  0  0  0  0
 45 49  1  0  0  0  0
 46 51  1  0  0  0  0
 47 66  1  0  0  0  0
 48 51  1  0  0  0  0
 48 66  1  0  0  0  0
 49 71  1  0  0  0  0
 50 65  1  0  0  0  0
 51 64  1  0  0  0  0
 53 61  1  0  0  0  0
 54 62  1  0  0  0  0
 55 62  1  0  0  0  0
 56 62  1  0  0  0  0
 57 73  1  0  0  0  0
 58 59  1  0  0  0  0
 58 69  1  0  0  0  0
 59 81  1  0  0  0  0
 60 62  1  0  0  0  0
 60 72  1  0  0  0  0
 61 73  1  0  0  0  0
 63 64  1  0  0  0  0
M  CHG  1  73   1
M  ISO  4  39 100  59 101  70 100  81 101
M  END
> <Batch ID>
0098

> <Smiles>
CNC(C)C(=O)NC(C(=O)N1Cc2cc([101O:1][101CH2:1]CNc3cc(C)c(C(=O)[100NH:0][100C:0](=O)N4CCCC(n5nc(-c6ccc(Oc7ccc(F)cc7F)cc6)c(C(N)=O)c5N)C4)c(F)c3)ccc2CC1C(=O)NC1CCCc2ccccc21)C(C)(C)C

> <Shape>
0.276

> <Color>
0.096

> <Negative vol penalty>
0.000

$$$$

  -OEChem-04052300513D

 86 95  0     1  0  0  0  0  0999 V2000
  -29.4224  -33.6579   25.4506 C   0  0  0  0  0  0  0  0  0  0  0  0
  -29.1815  -32.3676   24.9895 C   0  0  0  0  0  0  0  0  0  0  0  0
  -26.6164  -12.2424   24.2837 C   0  0  0  0  0  0  0  0  0  0  0  0
  -25.4585  -14.3045   23.7896 C   0  0  0  0  0  0  0  0  0  0  0  0
  -28.3554  -34.5259   25.6788 C   0  0  0  0  0  0  0  0  0  0  0  0
  -27.8733  -31.9443   24.7574 C   0  0  0  0  0  0  0  0  0  0  0  0
  -27.3871  -29.4496   20.3773 C   0  0  0  0  0  0  0  0  0  0  0  0
  -26.7212  -12.6219   25.6219 C   0  0  0  0  0  0  0  0  0  0  0  0
  -25.5632  -14.6840   25.1277 C   0  0  0  0  0  0  0  0  0  0  0  0
  -27.8137  -28.1226   20.3496 C   0  0  0  0  0  0  0  0  0  0  0  0
  -27.9247  -15.9763   27.1732 C   0  0  0  0  0  0  0  0  0  0  0  0
  -28.3202  -17.2857   27.4465 C   0  0  0  0  0  0  0  0  0  0  0  0
  -25.5288  -27.3891   20.5950 C   0  0  0  0  0  0  0  0  0  0  0  0
  -28.8539  -18.8345   23.4420 C   0  0  0  0  0  0  0  0  0  0  0  0
  -28.0410  -18.0880   21.2928 C   0  0  0  0  0  0  0  0  0  0  0  0
  -29.8295  -16.8905   22.3902 C   0  0  0  0  0  0  0  0  0  0  0  0
  -26.2409  -17.6698   28.6153 C   0  0  0  0  0  0  0  0  0  0  0  0
  -25.9851  -13.0837   23.3676 C   0  0  0  0  0  0  0  0  0  0  0  0
  -24.8321  -11.9627   21.3872 C   0  0  0  0  0  0  0  0  0  0  0  0
  -27.0342  -34.1162   25.4402 C   0  0  0  0  0  0  0  0  0  0  0  0
  -26.0269  -29.7570   20.5253 C   0  0  0  0  0  0  0  0  0  0  0  0
  -26.7876  -32.8072   24.9839 C   0  0  0  0  0  0  0  0  0  0  0  0
  -25.0872  -28.7208   20.6217 C   0  0  0  0  0  0  0  0  0  0  0  0
  -27.9868  -18.9849   22.3598 C   0  0  0  0  0  0  0  0  0  0  0  0
  -29.7753  -17.7873   23.4572 C   0  0  0  0  0  0  0  0  0  0  0  0
  -28.9624  -17.0408   21.3080 C   0  0  0  0  0  0  0  0  0  0  0  0
  -26.1946  -13.8426   26.0439 C   0  0  0  0  0  0  0  0  0  0  0  0
  -26.8849  -27.0922   20.4613 C   0  0  0  0  0  0  0  0  0  0  0  0
  -26.6873  -15.5136   27.6210 C   0  0  0  0  0  0  0  0  0  0  0  0
  -27.4783  -18.1324   28.1675 C   0  0  0  0  0  0  0  0  0  0  0  0
  -25.8454  -16.3604   28.3421 C   0  0  0  0  0  0  0  0  0  0  0  0
  -25.8770  -12.6925   21.9850 C   0  0  0  0  0  0  0  0  0  0  0  0
  -25.1999  -11.8542   20.0684 C   0  0  0  0  0  0  0  0  0  0  0  0
  -23.6360  -11.4306   21.9718 C   0  0  0  0  0  0  0  0  0  0  0  0
  -24.3016  -31.3106   22.6963 C   0  0  0  0  0  0  0  0  0  0  0  0
  -21.9070  -30.8446   20.5583 C   0  0  0  0  0  0  0  0  0  0  0  0
  -20.6530  -29.0127   17.9664 C   0  0  0  0  0  0  0  0  0  0  0  0
  -29.8715  -15.0364   20.0826 C   0  0  0  0  0  0  0  0  0  0  0  0
  -25.9104  -35.0743   25.7465 C   0  0  0  0  0  0  0  0  0  0  0  0
  -25.5800  -31.1932   20.5265 C   0  0  0  0  0  0  0  0  0  0  0  0
  -23.6133  -28.9974   20.7620 C   0  0  0  0  0  0  0  0  0  0  0  0
  -24.5785  -34.6717   25.1187 C   0  0  0  0  0  0  0  0  0  0  0  0
  -29.3975  -11.4827   19.3151 C   0  0  0  0  0  0  0  0  0  0  0  0
  -24.3048  -33.1893   25.3520 C   0  0  0  0  0  0  0  0  0  0  0  0
  -28.1380  -11.4511   18.4582 C   0  0  0  0  0  0  0  0  0  0  0  0
  -28.0906  -22.9781   20.4920 C   0  0  0  0  0  0  0  0  0  0  0  0
  -30.1635  -12.7803   19.1066 C   0  0  0  0  0  0  0  0  0  0  0  0
  -28.0395  -13.9926   18.6188 C   0  0  0  0  0  0  0  0  0  0  0  0
  -28.5669  -21.6829   21.1291 C   0  0  0  0  0  0  0  0  0  0  0  0
  -26.6665  -22.6189   22.3484 C   0  0  0  0  0  0  0  0  0  0  0  0
  -25.3842  -32.3193   24.6967 C   0  0  1  0  0  0  0  0  0  0  0  0
  -24.2254  -31.3969   21.1982 C   0  0  1  0  0  0  0  0  0  0  0  0
  -27.4217  -23.7276   21.6357 C   0  0  2  0  0  0  0  0  0  0  0  0
  -27.2407  -12.6738   18.7033 C   0  0  2  0  0  0  0  0  0  0  0  0
  -26.0365  -20.0826   23.5362 C   0  0  0  0  0  0  0  0  0  0  0  0
  -18.6574  -28.8492   16.4536 C   0  0  0  0  0  0  0  0  0  0  0  0
  -20.2912  -29.6011   22.8283 C   0  0  0  0  0  0  0  0  0  0  0  0
  -18.7573  -28.6238   21.1078 C   0  0  0  0  0  0  0  0  0  0  0  0
  -18.9809  -31.0996   21.3144 C   0  0  0  0  0  0  0  0  0  0  0  0
  -22.3004  -29.4745   15.5514 C   0  0  0  0  0  0  0  0  0  0  0  0
  -26.5209  -24.8510   21.1688 C   0  0  0  0  0  0  0  0  0  1  0  0
  -26.9887  -20.1195   22.3435 C   0  0  1  0  0  0  0  0  0  0  0  0
  -20.8821  -29.7621   20.3201 C   0  0  1  0  0  0  0  0  0  0  0  0
  -20.0511  -29.4297   16.6366 C   0  0  2  0  0  0  0  0  0  0  0  0
  -19.7558  -29.7661   21.3920 C   0  0  0  0  0  0  0  0  0  0  0  0
  -26.8367  -13.0240   21.1172 N   0  0  0  0  0  0  0  0  0  0  0  0
  -26.3963  -12.5001   19.9606 N   0  0  0  0  0  0  0  0  0  0  0  0
  -23.2265  -30.4179   20.7644 N   0  0  0  0  0  0  0  0  0  0  0  0
  -29.3306  -13.9643   19.3307 N   0  0  0  0  0  0  0  0  0  0  0  0
  -30.6522  -17.6356   24.5518 N   0  0  0  0  0  0  0  0  0  0  0  0
  -24.6134  -11.2701   19.0019 N   0  0  0  0  0  0  0  0  0  0  0  0
  -23.4140  -11.6332   23.3408 N   0  0  0  0  0  0  0  0  0  0  0  0
  -29.0167  -16.1298   20.2242 N   0  0  0  0  0  0  0  0  0  0  0  0
  -25.1619  -32.2276   23.2696 N   0  0  0  0  0  0  0  0  0  0  0  0
  -20.4066  -29.9439   18.9529 N   0  0  0  0  0  0  0  0  0  0  0  0
  -27.6430  -21.4631   22.3130 N   0  3  1  0  0  0  0  0  0  0  0  0
  -20.9072  -28.9604   15.5106 N   0  3  0  0  0  0  0  0  0  0  0  0
  -22.7970  -10.7802   21.3035 O   0  0  0  0  0  0  0  0  0  0  0  0
  -23.6285  -30.4751   23.2884 O   0  0  0  0  0  0  0  0  0  0  0  0
  -21.5511  -32.0257   20.5544 O   0  0  0  0  0  0  0  0  0  0  0  0
  -21.2761  -27.9639   18.1159 O   0  0  0  0  0  0  0  0  0  0  0  0
  -31.0138  -14.9951   20.5468 O   0  0  0  0  0  0  0  0  0  0  0  0
  -26.2964  -14.2132   27.3496 O   0  0  0  0  0  0  0  0  0  0  0  0
  -27.2988  -25.7960   20.4352 O   0  0  0  0  0  0  0  0  0  1  0  0
  -27.8589  -19.3894   28.4312 F   0  0  0  0  0  0  0  0  0  0  0  0
  -24.6560  -15.9212   28.7759 F   0  0  0  0  0  0  0  0  0  0  0  0
  1  2  1  0  0  0  0
  1  5  2  0  0  0  0
  2  6  2  0  0  0  0
  3  8  2  0  0  0  0
  3 18  1  0  0  0  0
  4  9  1  0  0  0  0
  4 18  2  0  0  0  0
  5 20  1  0  0  0  0
  6 22  1  0  0  0  0
  7 10  2  0  0  0  0
  7 21  1  0  0  0  0
  8 27  1  0  0  0  0
  9 27  2  0  0  0  0
 10 28  1  0  0  0  0
 11 12  2  0  0  0  0
 11 29  1  0  0  0  0
 12 30  1  0  0  0  0
 13 23  1  0  0  0  0
 13 28  2  0  0  0  0
 14 24  1  0  0  0  0
 14 25  2  0  0  0  0
 15 24  2  0  0  0  0
 15 26  1  0  0  0  0
 16 25  1  0  0  0  0
 16 26  2  0  0  0  0
 17 30  2  0  0  0  0
 17 31  1  0  0  0  0
 18 32  1  0  0  0  0
 19 32  1  0  0  0  0
 19 33  2  0  0  0  0
 19 34  1  0  0  0  0
 20 22  2  0  0  0  0
 20 39  1  0  0  0  0
 21 23  2  0  0  0  0
 21 40  1  0  0  0  0
 22 51  1  0  0  0  0
 23 41  1  0  0  0  0
 24 62  1  0  0  0  0
 25 70  1  0  0  0  0
 26 73  1  0  0  0  0
 27 83  1  0  0  0  0
 28 84  1  0  0  0  0
 29 31  2  0  0  0  0
 29 83  1  0  0  0  0
 30 85  1  0  0  0  0
 31 86  1  0  0  0  0
 32 66  2  0  0  0  0
 33 67  1  0  0  0  0
 33 71  1  0  0  0  0
 34 72  1  0  0  0  0
 34 78  2  0  0  0  0
 35 52  1  0  0  0  0
 35 74  1  0  0  0  0
 35 79  2  0  0  0  0
 36 63  1  0  0  0  0
 36 68  1  0  0  0  0
 36 80  2  0  0  0  0
 37 64  1  0  0  0  0
 37 75  1  0  0  0  0
 37 81  2  0  0  0  0
 38 69  1  0  0  0  0
 38 73  1  0  0  0  0
 38 82  2  0  0  0  0
 39 42  1  0  0  0  0
 40 52  1  0  0  0  0
 41 68  1  0  0  0  0
 42 44  1  0  0  0  0
 43 45  1  0  0  0  0
 43 47  1  0  0  0  0
 44 51  1  0  0  0  0
 45 54  1  0  0  0  0
 46 49  1  0  0  0  0
 46 53  1  0  0  0  0
 47 69  1  0  0  0  0
 48 54  1  0  0  0  0
 48 69  1  0  0  0  0
 49 76  1  0  0  0  0
 50 53  1  0  0  0  0
 50 76  1  0  0  0  0
 51 74  1  0  0  0  0
 52 68  1  0  0  0  0
 53 61  1  0  0  0  0
 54 67  1  0  0  0  0
 55 62  1  0  0  0  0
 56 64  1  0  0  0  0
 57 65  1  0  0  0  0
 58 65  1  0  0  0  0
 59 65  1  0  0  0  0
 60 77  1  0  0  0  0
 61 84  1  0  0  0  0
 62 76  1  0  0  0  0
 63 65  1  0  0  0  0
 63 75  1  0  0  0  0
 64 77  1  0  0  0  0
 66 67  1  0  0  0  0
M  CHG  2  76   1  77   1
M  ISO  4  38 100  61 101  73 100  84 101
M  END
> <Batch ID>
0098

> <Smiles>
CNC(C)C(=O)NC(C(=O)N1Cc2cc([101O:1][101CH2:1]C3CCN(C(C)c4cc(N)cc([100NH:0][100C:0](=O)N5CCCC(n6nc(-c7ccc(Oc8ccc(F)cc8F)cc7)c(C(N)=O)c6N)C5)c4)C3)ccc2CC1C(=O)NC1CCCc2ccccc21)C(C)(C)C

> <Shape>
0.247

> <Color>
0.064

> <Negative vol penalty>
0.000

$$$$

  -OEChem-04052300513D

 88 97  0     1  0  0  0  0  0999 V2000
  -16.9669  -12.6356   22.4643 C   0  0  0  0  0  0  0  0  0  0  0  0
  -17.7679  -13.7718   22.4100 C   0  0  0  0  0  0  0  0  0  0  0  0
  -23.5961  -30.2376   23.7288 C   0  0  0  0  0  0  0  0  0  0  0  0
  -24.2854  -30.5946   21.4410 C   0  0  0  0  0  0  0  0  0  0  0  0
  -17.5322  -11.3999   22.7761 C   0  0  0  0  0  0  0  0  0  0  0  0
  -19.1346  -13.6730   22.6687 C   0  0  0  0  0  0  0  0  0  0  0  0
  -21.9351  -16.2529   19.3302 C   0  0  0  0  0  0  0  0  0  0  0  0
  -22.2763  -30.0788   23.3064 C   0  0  0  0  0  0  0  0  0  0  0  0
  -22.9656  -30.4357   21.0185 C   0  0  0  0  0  0  0  0  0  0  0  0
  -22.0110  -17.6351   19.4961 C   0  0  0  0  0  0  0  0  0  0  0  0
  -20.3893  -27.6585   21.8870 C   0  0  0  0  0  0  0  0  0  0  0  0
  -19.6607  -26.5964   22.4223 C   0  0  0  0  0  0  0  0  0  0  0  0
  -24.1658  -17.3842   20.5509 C   0  0  0  0  0  0  0  0  0  0  0  0
  -25.3350  -23.9286   17.7528 C   0  0  0  0  0  0  0  0  0  0  0  0
  -26.0755  -25.0254   19.7741 C   0  0  0  0  0  0  0  0  0  0  0  0
  -18.0518  -28.1557   23.3263 C   0  0  0  0  0  0  0  0  0  0  0  0
  -24.6007  -30.4956   22.7961 C   0  0  0  0  0  0  0  0  0  0  0  0
  -26.4601  -31.6295   24.1245 C   0  0  0  0  0  0  0  0  0  0  0  0
  -18.9081  -11.2842   23.0293 C   0  0  0  0  0  0  0  0  0  0  0  0
  -22.9709  -15.4237   19.7839 C   0  0  0  0  0  0  0  0  0  0  0  0
  -19.7185  -12.4347   22.9855 C   0  0  0  0  0  0  0  0  0  0  0  0
  -24.1019  -15.9920   20.3872 C   0  0  0  0  0  0  0  0  0  0  0  0
  -27.2707  -25.3735   17.7036 C   0  0  0  0  0  0  0  0  0  0  0  0
  -25.1835  -24.1781   19.1167 C   0  0  0  0  0  0  0  0  0  0  0  0
  -26.3787  -24.5263   17.0462 C   0  0  0  0  0  0  0  0  0  0  0  0
  -27.1192  -25.6231   19.0675 C   0  0  0  0  0  0  0  0  0  0  0  0
  -21.9610  -30.1778   21.9512 C   0  0  0  0  0  0  0  0  0  0  0  0
  -23.1251  -18.2007   20.1092 C   0  0  0  0  0  0  0  0  0  0  0  0
  -19.9492  -28.9693   22.0714 C   0  0  0  0  0  0  0  0  0  0  0  0
  -18.4920  -26.8450   23.1420 C   0  0  0  0  0  0  0  0  0  0  0  0
  -18.7805  -29.2178   22.7910 C   0  0  0  0  0  0  0  0  0  0  0  0
  -25.9641  -30.6603   23.2320 C   0  0  0  0  0  0  0  0  0  0  0  0
  -27.8049  -31.3629   24.2082 C   0  0  0  0  0  0  0  0  0  0  0  0
  -23.5719  -24.2595   20.9623 C   0  0  0  0  0  0  0  0  0  0  0  0
  -23.6500  -22.2836   19.4114 C   0  0  0  0  0  0  0  0  0  0  0  0
  -25.7671  -32.6769   24.8162 C   0  0  0  0  0  0  0  0  0  0  0  0
  -23.1979  -13.0863   21.9261 C   0  0  0  0  0  0  0  0  0  0  0  0
  -26.2032  -12.8153   20.7358 C   0  0  0  0  0  0  0  0  0  0  0  0
  -28.8235  -14.2891   19.1206 C   0  0  0  0  0  0  0  0  0  0  0  0
  -27.9942  -26.8303   21.1086 C   0  0  0  0  0  0  0  0  0  0  0  0
  -19.4656   -9.9352   23.4086 C   0  0  0  0  0  0  0  0  0  0  0  0
  -22.8860  -13.9368   19.5733 C   0  0  0  0  0  0  0  0  0  0  0  0
  -25.2500  -15.1472   20.8736 C   0  0  0  0  0  0  0  0  0  0  0  0
  -22.5581  -23.5283   21.8179 C   0  0  0  0  0  0  0  0  0  0  0  0
  -20.9861   -9.8525   23.3017 C   0  0  0  0  0  0  0  0  0  0  0  0
  -22.5082  -22.0378   21.5765 C   0  0  0  0  0  0  0  0  0  0  0  0
  -30.9591  -29.2938   21.1925 C   0  0  0  0  0  0  0  0  0  0  0  0
  -21.6338  -11.0735   23.9471 C   0  0  0  0  0  0  0  0  0  0  0  0
  -30.1355  -30.2922   21.9962 C   0  0  0  0  0  0  0  0  0  0  0  0
  -30.0495  -28.2405   20.5660 C   0  0  0  0  0  0  0  0  0  0  0  0
  -29.1822  -28.0793   22.9014 C   0  0  0  0  0  0  0  0  0  0  0  0
  -21.2094  -12.3639   23.2356 C   0  0  1  0  0  0  0  0  0  0  0  0
  -22.3728  -21.7999   20.0832 C   0  0  2  0  0  0  0  0  0  0  0  0
  -23.7659  -13.1457   20.5363 C   0  0  1  0  0  0  0  0  0  0  0  0
  -29.3481  -29.5965   23.1246 C   0  0  2  0  0  0  0  0  0  0  0  0
  -28.3907  -26.0155   16.9447 C   0  0  0  0  0  0  0  0  0  0  0  0
  -31.1584  -13.8277   18.3252 C   0  0  0  0  0  0  0  0  0  0  0  0
  -27.2255  -13.0649   23.5998 C   0  0  0  0  0  0  0  0  0  0  0  0
  -29.4995  -13.5508   22.6719 C   0  0  0  0  0  0  0  0  0  0  0  0
  -28.4111  -11.3534   22.2144 C   0  0  0  0  0  0  0  0  0  0  0  0
  -28.0837  -14.7822   16.2977 C   0  0  0  0  0  0  0  0  0  0  0  0
  -22.1039  -20.3252   19.7931 C   0  0  0  0  0  0  0  0  0  1  0  0
  -27.5424  -13.4302   21.0636 C   0  0  1  0  0  0  0  0  0  0  0  0
  -29.6824  -13.8220   17.9593 C   0  0  2  0  0  0  0  0  0  0  0  0
  -28.1473  -12.8658   22.3801 C   0  0  0  0  0  0  0  0  0  0  0  0
  -26.9164  -29.8396   22.7808 N   0  0  0  0  0  0  0  0  0  0  0  0
  -28.0242  -30.2923   23.3922 N   0  0  0  0  0  0  0  0  0  0  0  0
  -24.0989  -23.5579   19.8516 N   0  0  0  0  0  0  0  0  0  0  0  0
  -25.1173  -13.6980   20.6506 N   0  0  0  0  0  0  0  0  0  0  0  0
  -29.0330  -27.7160   21.4899 N   0  0  0  0  0  0  0  0  0  0  0  0
  -26.5153  -24.2608   15.6657 N   0  0  0  0  0  0  0  0  0  0  0  0
  -28.8093  -31.9423   24.8994 N   0  0  0  0  0  0  0  0  0  0  0  0
  -25.6540  -33.9276   24.1939 N   0  0  0  0  0  0  0  0  0  0  0  0
  -28.0132  -26.4818   19.7554 N   0  0  0  0  0  0  0  0  0  0  0  0
  -21.9390  -12.5208   21.9956 N   0  0  0  0  0  0  0  0  0  0  0  0
  -28.3819  -13.2315   19.8871 N   0  0  0  0  0  0  0  0  0  0  0  0
  -29.4871  -14.7117   16.7798 N   0  3  0  0  0  0  0  0  0  0  0  0
  -23.8110  -25.4406   21.2340 O   0  0  0  0  0  0  0  0  0  0  0  0
  -24.2195  -21.5821   18.5729 O   0  0  0  0  0  0  0  0  0  0  0  0
  -25.2774  -32.5135   25.9594 O   0  0  0  0  0  0  0  0  0  0  0  0
  -23.8539  -13.5199   22.8659 O   0  0  0  0  0  0  0  0  0  0  0  0
  -26.1250  -11.5977   20.5547 O   0  0  0  0  0  0  0  0  0  0  0  0
  -28.5728  -15.4741   19.3292 O   0  0  0  0  0  0  0  0  0  0  0  0
  -27.1642  -26.4175   21.9213 O   0  0  0  0  0  0  0  0  0  0  0  0
  -20.6733  -30.0226   21.5386 O   0  0  0  0  0  0  0  0  0  0  0  0
  -23.2014  -19.5495   20.2730 O   0  0  0  0  0  0  0  0  0  1  0  0
  -17.7915  -25.8248   23.6547 F   0  0  0  0  0  0  0  0  0  0  0  0
  -18.3521  -30.4749   22.9704 F   0  0  0  0  0  0  0  0  0  0  0  0
  1  2  1  0  0  0  0
  1  5  2  0  0  0  0
  2  6  2  0  0  0  0
  3  8  2  0  0  0  0
  3 17  1  0  0  0  0
  4  9  1  0  0  0  0
  4 17  2  0  0  0  0
  5 19  1  0  0  0  0
  6 21  1  0  0  0  0
  7 10  2  0  0  0  0
  7 20  1  0  0  0  0
  8 27  1  0  0  0  0
  9 27  2  0  0  0  0
 10 28  1  0  0  0  0
 11 12  2  0  0  0  0
 11 29  1  0  0  0  0
 12 30  1  0  0  0  0
 13 22  1  0  0  0  0
 13 28  2  0  0  0  0
 14 24  1  0  0  0  0
 14 25  2  0  0  0  0
 15 24  2  0  0  0  0
 15 26  1  0  0  0  0
 16 30  2  0  0  0  0
 16 31  1  0  0  0  0
 17 32  1  0  0  0  0
 18 32  1  0  0  0  0
 18 33  2  0  0  0  0
 18 36  1  0  0  0  0
 19 21  2  0  0  0  0
 19 41  1  0  0  0  0
 20 22  2  0  0  0  0
 20 42  1  0  0  0  0
 21 52  1  0  0  0  0
 22 43  1  0  0  0  0
 23 25  1  0  0  0  0
 23 26  2  0  0  0  0
 23 56  1  0  0  0  0
 24 68  1  0  0  0  0
 25 71  1  0  0  0  0
 26 74  1  0  0  0  0
 27 85  1  0  0  0  0
 28 86  1  0  0  0  0
 29 31  2  0  0  0  0
 29 85  1  0  0  0  0
 30 87  1  0  0  0  0
 31 88  1  0  0  0  0
 32 66  2  0  0  0  0
 33 67  1  0  0  0  0
 33 72  1  0  0  0  0
 34 44  1  0  0  0  0
 34 68  1  0  0  0  0
 34 78  2  0  0  0  0
 35 53  1  0  0  0  0
 35 68  1  0  0  0  0
 35 79  2  0  0  0  0
 36 73  1  0  0  0  0
 36 80  2  0  0  0  0
 37 54  1  0  0  0  0
 37 75  1  0  0  0  0
 37 81  2  0  0  0  0
 38 63  1  0  0  0  0
 38 69  1  0  0  0  0
 38 82  2  0  0  0  0
 39 64  1  0  0  0  0
 39 76  1  0  0  0  0
 39 83  2  0  0  0  0
 40 70  1  0  0  0  0
 40 74  1  0  0  0  0
 40 84  2  0  0  0  0
 41 45  1  0  0  0  0
 42 54  1  0  0  0  0
 43 69  1  0  0  0  0
 44 46  1  0  0  0  0
 45 48  1  0  0  0  0
 46 53  1  0  0  0  0
 47 49  1  0  0  0  0
 47 50  1  0  0  0  0
 48 52  1  0  0  0  0
 49 55  1  0  0  0  0
 50 70  1  0  0  0  0
 51 55  1  0  0  0  0
 51 70  1  0  0  0  0
 52 75  1  0  0  0  0
 53 62  1  0  0  0  0
 54 69  1  0  0  0  0
 55 67  1  0  0  0  0
 57 64  1  0  0  0  0
 58 65  1  0  0  0  0
 59 65  1  0  0  0  0
 60 65  1  0  0  0  0
 61 77  1  0  0  0  0
 62 86  1  0  0  0  0
 63 65  1  0  0  0  0
 63 76  1  0  0  0  0
 64 77  1  0  0  0  0
 66 67  1  0  0  0  0
M  CHG  1  77   1
M  ISO  4  40 100  62 101  74 100  86 101
M  END
> <Batch ID>
0098

> <Smiles>
CNC(C)C(=O)NC(C(=O)N1Cc2cc([101O:1][101CH2:1]C3CCC(=O)N(c4cc(N)c(C)c([100NH:0][100C:0](=O)N5CCCC(n6nc(-c7ccc(Oc8ccc(F)cc8F)cc7)c(C(N)=O)c6N)C5)c4)C3=O)ccc2CC1C(=O)NC1CCCc2ccccc21)C(C)(C)C

> <Shape>
0.242

> <Color>
0.069

> <Negative vol penalty>
0.000

$$$$

  -OEChem-04052300513D

 85 93  0     1  0  0  0  0  0999 V2000
  -25.6387  -28.9939   20.5631 C   0  0  0  0  0  0  0  0  0  0  0  0
  -24.9172  -27.9108   21.0548 C   0  0  0  0  0  0  0  0  0  0  0  0
  -28.4971  -13.4564   21.3239 C   0  0  0  0  0  0  0  0  0  0  0  0
  -28.2187  -13.1787   18.9401 C   0  0  0  0  0  0  0  0  0  0  0  0
  -26.6924  -28.7826   19.6749 C   0  0  0  0  0  0  0  0  0  0  0  0
  -25.2483  -26.6158   20.6576 C   0  0  0  0  0  0  0  0  0  0  0  0
  -24.9162  -21.5268   24.0484 C   0  0  0  0  0  0  0  0  0  0  0  0
  -22.9109  -11.9372   25.3906 C   0  0  0  0  0  0  0  0  0  0  0  0
  -22.5745  -13.2792   25.2136 C   0  0  0  0  0  0  0  0  0  0  0  0
  -29.8668  -13.6468   21.1417 C   0  0  0  0  0  0  0  0  0  0  0  0
  -29.5884  -13.3691   18.7579 C   0  0  0  0  0  0  0  0  0  0  0  0
  -23.9591  -20.5166   24.1326 C   0  0  0  0  0  0  0  0  0  0  0  0
  -32.4220  -11.5552   19.0915 C   0  0  0  0  0  0  0  0  0  0  0  0
  -33.0888  -10.6828   18.2313 C   0  0  0  0  0  0  0  0  0  0  0  0
  -25.2395  -19.1827   22.5832 C   0  0  0  0  0  0  0  0  0  0  0  0
  -21.2599  -11.3061   23.7435 C   0  0  0  0  0  0  0  0  0  0  0  0
  -33.7334  -12.5489   16.8386 C   0  0  0  0  0  0  0  0  0  0  0  0
  -27.6730  -13.2223   20.2230 C   0  0  0  0  0  0  0  0  0  0  0  0
  -25.2549  -14.0126   20.4125 C   0  0  0  0  0  0  0  0  0  0  0  0
  -27.0428  -27.4837   19.2741 C   0  0  0  0  0  0  0  0  0  0  0  0
  -26.0385  -21.3769   23.2212 C   0  0  0  0  0  0  0  0  0  0  0  0
  -26.3068  -26.3871   19.7621 C   0  0  0  0  0  0  0  0  0  0  0  0
  -26.2107  -20.1915   22.4923 C   0  0  0  0  0  0  0  0  0  0  0  0
  -22.2536  -10.9506   24.6555 C   0  0  0  0  0  0  0  0  0  0  0  0
  -21.5808  -13.6347   24.3016 C   0  0  0  0  0  0  0  0  0  0  0  0
  -30.4125  -13.6032   19.8587 C   0  0  0  0  0  0  0  0  0  0  0  0
  -24.1192  -19.3455   23.3977 C   0  0  0  0  0  0  0  0  0  0  0  0
  -32.4108  -12.9244   18.8252 C   0  0  0  0  0  0  0  0  0  0  0  0
  -33.7446  -11.1796   17.1049 C   0  0  0  0  0  0  0  0  0  0  0  0
  -20.9235  -12.6481   23.5665 C   0  0  0  0  0  0  0  0  0  0  0  0
  -33.0666  -13.4212   17.6988 C   0  0  0  0  0  0  0  0  0  0  0  0
  -26.2581  -13.0249   20.4106 C   0  0  0  0  0  0  0  0  0  0  0  0
  -24.0898  -13.3181   20.6287 C   0  0  0  0  0  0  0  0  0  0  0  0
  -25.3662  -15.4309   20.2347 C   0  0  0  0  0  0  0  0  0  0  0  0
  -27.1767  -22.9162   20.6838 C   0  0  0  0  0  0  0  0  0  0  0  0
  -29.6921  -20.9066   21.0793 C   0  0  0  0  0  0  0  0  0  0  0  0
  -21.7924  -16.1002   24.7712 C   0  0  0  0  0  0  0  0  0  0  0  0
  -30.8701  -17.9442   22.2973 C   0  0  0  0  0  0  0  0  0  0  0  0
  -22.4961   -8.5988   23.8179 C   0  0  0  0  0  0  0  0  0  0  0  0
  -28.1592  -27.3084   18.2753 C   0  0  0  0  0  0  0  0  0  0  0  0
  -27.0754  -22.4649   23.1621 C   0  0  0  0  0  0  0  0  0  0  0  0
  -27.4081  -19.9728   21.6053 C   0  0  0  0  0  0  0  0  0  0  0  0
  -28.6862  -25.8780   18.1956 C   0  0  0  0  0  0  0  0  0  0  0  0
  -22.6460   -8.6272   20.1206 C   0  0  0  0  0  0  0  0  0  0  0  0
  -27.5296  -24.8864   18.1194 C   0  0  0  0  0  0  0  0  0  0  0  0
  -23.5706   -9.8072   19.8276 C   0  0  0  0  0  0  0  0  0  0  0  0
  -22.9599   -7.9825   21.4673 C   0  0  0  0  0  0  0  0  0  0  0  0
  -23.8616  -10.1290   22.3162 C   0  0  0  0  0  0  0  0  0  0  0  0
  -26.6515  -24.9655   19.3741 C   0  0  1  0  0  0  0  0  0  0  0  0
  -27.9187  -22.4181   21.8917 C   0  0  1  0  0  0  0  0  0  0  0  0
  -23.5392  -10.8209   20.9833 C   0  0  1  0  0  0  0  0  0  0  0  0
  -21.5156   -8.8401   26.9291 C   0  0  0  0  0  0  0  0  0  0  0  0
  -32.9601  -16.5621   22.4338 C   0  0  0  0  0  0  0  0  0  0  0  0
  -29.3474  -20.1011   18.1566 C   0  0  0  0  0  0  0  0  0  0  0  0
  -30.7798  -18.0988   18.6120 C   0  0  0  0  0  0  0  0  0  0  0  0
  -31.7219  -20.3924   18.8853 C   0  0  0  0  0  0  0  0  0  0  0  0
  -30.8736  -18.0319   25.2555 C   0  0  0  0  0  0  0  0  0  0  0  0
  -21.1366  -17.3871   24.2834 C   0  0  0  0  0  0  0  0  0  0  0  0
  -22.8223   -9.0868   26.2026 C   0  0  0  0  0  0  0  0  0  0  0  0
  -22.0680  -18.5887   24.3337 C   0  0  0  0  0  0  0  0  0  1  0  0
  -30.0502  -19.5297   20.5744 C   0  0  1  0  0  0  0  0  0  0  0  0
  -32.1011  -17.6120   23.1211 C   0  0  2  0  0  0  0  0  0  0  0  0
  -30.4512  -19.5351   19.0722 C   0  0  0  0  0  0  0  0  0  0  0  0
  -25.7728  -11.7966   20.6099 N   0  0  0  0  0  0  0  0  0  0  0  0
  -24.4519  -12.0078   20.7392 N   0  0  0  0  0  0  0  0  0  0  0  0
  -28.3910  -21.0685   21.5761 N   0  0  0  0  0  0  0  0  0  0  0  0
  -22.9858   -8.9689   22.5485 N   0  0  0  0  0  0  0  0  0  0  0  0
  -22.8012  -13.7065   20.7332 N   0  0  0  0  0  0  0  0  0  0  0  0
  -26.6383  -15.9799   20.0229 N   0  0  0  0  0  0  0  0  0  0  0  0
  -21.2413  -14.9971   24.1245 N   0  0  0  0  0  0  0  0  0  0  0  0
  -27.2855  -24.2784   20.4788 N   0  0  0  0  0  0  0  0  0  0  0  0
  -31.0868  -19.0241   21.4678 N   0  0  0  0  0  0  0  0  0  0  0  0
  -22.6009   -9.5626   24.8389 N   0  0  0  0  0  0  0  0  0  0  0  0
  -31.7036  -17.0912   24.4596 N   0  3  0  0  0  0  0  0  0  0  0  0
  -24.3692  -16.1908   20.2792 O   0  0  0  0  0  0  0  0  0  0  0  0
  -26.5529  -22.1231   19.9884 O   0  0  0  0  0  0  0  0  0  0  0  0
  -30.5381  -21.8036   21.0411 O   0  0  0  0  0  0  0  0  0  0  0  0
  -22.6783  -16.0998   25.6194 O   0  0  0  0  0  0  0  0  0  0  0  0
  -29.8223  -17.3070   22.3786 O   0  0  0  0  0  0  0  0  0  0  0  0
  -22.0471   -7.4679   24.0418 O   0  0  0  0  0  0  0  0  0  0  0  0
  -31.7490  -13.7892   19.6806 O   0  0  0  0  0  0  0  0  0  0  0  0
  -23.1861  -18.3581   23.4775 O   0  0  0  0  0  0  0  0  0  1  0  0
  -34.3862  -10.3420   16.2798 F   0  0  0  0  0  0  0  0  0  0  0  0
  -19.9656  -12.9780   22.6882 F   0  0  0  0  0  0  0  0  0  0  0  0
  -33.0603  -14.7357   17.4385 F   0  0  0  0  0  0  0  0  0  0  0  0
  1  2  1  0  0  0  0
  1  5  2  0  0  0  0
  2  6  2  0  0  0  0
  3 10  2  0  0  0  0
  3 18  1  0  0  0  0
  4 11  1  0  0  0  0
  4 18  2  0  0  0  0
  5 20  1  0  0  0  0
  6 22  1  0  0  0  0
  7 12  2  0  0  0  0
  7 21  1  0  0  0  0
  8  9  2  0  0  0  0
  8 24  1  0  0  0  0
  9 25  1  0  0  0  0
 10 26  1  0  0  0  0
 11 26  2  0  0  0  0
 12 27  1  0  0  0  0
 13 14  2  0  0  0  0
 13 28  1  0  0  0  0
 14 29  1  0  0  0  0
 15 23  1  0  0  0  0
 15 27  2  0  0  0  0
 16 24  2  0  0  0  0
 16 30  1  0  0  0  0
 17 29  2  0  0  0  0
 17 31  1  0  0  0  0
 18 32  1  0  0  0  0
 19 32  1  0  0  0  0
 19 33  2  0  0  0  0
 19 34  1  0  0  0  0
 20 22  2  0  0  0  0
 20 40  1  0  0  0  0
 21 23  2  0  0  0  0
 21 41  1  0  0  0  0
 22 49  1  0  0  0  0
 23 42  1  0  0  0  0
 24 73  1  0  0  0  0
 25 30  2  0  0  0  0
 25 70  1  0  0  0  0
 26 81  1  0  0  0  0
 27 82  1  0  0  0  0
 28 31  2  0  0  0  0
 28 81  1  0  0  0  0
 29 83  1  0  0  0  0
 30 84  1  0  0  0  0
 31 85  1  0  0  0  0
 32 64  2  0  0  0  0
 33 65  1  0  0  0  0
 33 68  1  0  0  0  0
 34 69  1  0  0  0  0
 34 75  2  0  0  0  0
 35 50  1  0  0  0  0
 35 71  1  0  0  0  0
 35 76  2  0  0  0  0
 36 61  1  0  0  0  0
 36 66  1  0  0  0  0
 36 77  2  0  0  0  0
 37 58  1  0  0  0  0
 37 70  1  0  0  0  0
 37 78  2  0  0  0  0
 38 62  1  0  0  0  0
 38 72  1  0  0  0  0
 38 79  2  0  0  0  0
 39 67  1  0  0  0  0
 39 73  1  0  0  0  0
 39 80  2  0  0  0  0
 40 43  1  0  0  0  0
 41 50  1  0  0  0  0
 42 66  1  0  0  0  0
 43 45  1  0  0  0  0
 44 46  1  0  0  0  0
 44 47  1  0  0  0  0
 45 49  1  0  0  0  0
 46 51  1  0  0  0  0
 47 67  1  0  0  0  0
 48 51  1  0  0  0  0
 48 67  1  0  0  0  0
 49 71  1  0  0  0  0
 50 66  1  0  0  0  0
 51 65  1  0  0  0  0
 52 59  1  0  0  0  0
 53 62  1  0  0  0  0
 54 63  1  0  0  0  0
 55 63  1  0  0  0  0
 56 63  1  0  0  0  0
 57 74  1  0  0  0  0
 58 60  1  0  0  0  0
 59 73  1  0  0  0  0
 60 82  1  0  0  0  0
 61 63  1  0  0  0  0
 61 72  1  0  0  0  0
 62 74  1  0  0  0  0
 64 65  1  0  0  0  0
M  CHG  1  74   1
M  ISO  4  39 100  60 101  73 100  82 101
M  END
> <Batch ID>
0098

> <Smiles>
CC[100N:0](c1ccc(NC(=O)C[101CH2:1][101O:1]c2ccc3c(c2)CN(C(=O)C(NC(=O)C(C)NC)C(C)(C)C)C(C(=O)NC2CCCc4ccccc42)C3)c(F)c1)[100C:0](=O)N1CCCC(n2nc(-c3ccc(Oc4ccc(F)cc4F)cc3)c(C(N)=O)c2N)C1

> <Shape>
0.210

> <Color>
0.105

> <Negative vol penalty>
0.000

$$$$

  -OEChem-04052300513D

 83 91  0     1  0  0  0  0  0999 V2000
  -17.4701  -30.8908   24.2220 C   0  0  0  0  0  0  0  0  0  0  0  0
  -18.8392  -31.1371   24.2359 C   0  0  0  0  0  0  0  0  0  0  0  0
  -24.6316  -12.3089   19.6575 C   0  0  0  0  0  0  0  0  0  0  0  0
  -25.4399  -13.1372   21.7782 C   0  0  0  0  0  0  0  0  0  0  0  0
  -16.9839  -29.6915   23.7031 C   0  0  0  0  0  0  0  0  0  0  0  0
  -19.7231  -30.1836   23.7319 C   0  0  0  0  0  0  0  0  0  0  0  0
  -26.0027  -29.6397   20.3278 C   0  0  0  0  0  0  0  0  0  0  0  0
  -25.4293  -11.1733   19.7969 C   0  0  0  0  0  0  0  0  0  0  0  0
  -26.2377  -12.0016   21.9177 C   0  0  0  0  0  0  0  0  0  0  0  0
  -27.2365  -29.0002   20.4394 C   0  0  0  0  0  0  0  0  0  0  0  0
  -26.9800   -7.8855   19.7652 C   0  0  0  0  0  0  0  0  0  0  0  0
  -26.4052   -6.6491   19.4712 C   0  0  0  0  0  0  0  0  0  0  0  0
  -28.5033  -22.7840   23.1883 C   0  0  0  0  0  0  0  0  0  0  0  0
  -27.3982  -22.3817   21.0779 C   0  0  0  0  0  0  0  0  0  0  0  0
  -26.2774  -26.9981   19.4956 C   0  0  0  0  0  0  0  0  0  0  0  0
  -26.8230  -21.0567   23.0146 C   0  0  0  0  0  0  0  0  0  0  0  0
  -24.7493   -7.0093   21.1932 C   0  0  0  0  0  0  0  0  0  0  0  0
  -24.6369  -13.2909   20.6481 C   0  0  0  0  0  0  0  0  0  0  0  0
  -28.3267  -23.0915   21.8393 C   0  0  0  0  0  0  0  0  0  0  0  0
  -22.4868  -14.6314   20.9450 C   0  0  0  0  0  0  0  0  0  0  0  0
  -17.8616  -28.7270   23.1837 C   0  0  0  0  0  0  0  0  0  0  0  0
  -24.8924  -28.9586   19.8084 C   0  0  0  0  0  0  0  0  0  0  0  0
  -19.2483  -28.9697   23.2068 C   0  0  0  0  0  0  0  0  0  0  0  0
  -25.0312  -27.6321   19.3760 C   0  0  0  0  0  0  0  0  0  0  0  0
  -27.7515  -21.7665   23.7759 C   0  0  0  0  0  0  0  0  0  0  0  0
  -26.6463  -21.3642   21.6656 C   0  0  0  0  0  0  0  0  0  0  0  0
  -26.2324  -11.0196   20.9270 C   0  0  0  0  0  0  0  0  0  0  0  0
  -27.3733  -27.6783   20.0260 C   0  0  0  0  0  0  0  0  0  0  0  0
  -26.4395   -8.6838   20.7733 C   0  0  0  0  0  0  0  0  0  0  0  0
  -25.2899   -6.2110   20.1851 C   0  0  0  0  0  0  0  0  0  0  0  0
  -25.3242   -8.2458   21.4873 C   0  0  0  0  0  0  0  0  0  0  0  0
  -23.8134  -14.4645   20.5043 C   0  0  0  0  0  0  0  0  0  0  0  0
  -22.1592  -15.9117   20.5708 C   0  0  0  0  0  0  0  0  0  0  0  0
  -29.1266  -24.1761   21.2140 C   0  0  0  0  0  0  0  0  0  0  0  0
  -21.6276  -13.7114   21.6313 C   0  0  0  0  0  0  0  0  0  0  0  0
  -22.0414  -28.1250   20.9401 C   0  0  0  0  0  0  0  0  0  0  0  0
  -21.5414  -27.1645   17.8823 C   0  0  0  0  0  0  0  0  0  0  0  0
  -22.8749  -26.1415   14.9121 C   0  0  0  0  0  0  0  0  0  0  0  0
  -25.4062  -20.8210   19.5411 C   0  0  0  0  0  0  0  0  0  0  0  0
  -17.2924  -27.4256   22.6766 C   0  0  0  0  0  0  0  0  0  0  0  0
  -23.5750  -29.6711   19.6698 C   0  0  0  0  0  0  0  0  0  0  0  0
  -23.8751  -26.8630   18.7926 C   0  0  0  0  0  0  0  0  0  0  0  0
  -18.2701  -26.6262   21.8190 C   0  0  0  0  0  0  0  0  0  0  0  0
  -23.1801  -19.2246   17.2667 C   0  0  0  0  0  0  0  0  0  0  0  0
  -19.6406  -26.5670   22.4863 C   0  0  0  0  0  0  0  0  0  0  0  0
  -22.9643  -17.8401   17.8822 C   0  0  0  0  0  0  0  0  0  0  0  0
  -24.6137  -19.7148   17.4618 C   0  0  0  0  0  0  0  0  0  0  0  0
  -24.8795  -18.3046   19.4643 C   0  0  0  0  0  0  0  0  0  0  0  0
  -20.2372  -27.9706   22.6465 C   0  0  1  0  0  0  0  0  0  0  0  0
  -22.3849  -28.7189   19.6033 C   0  0  1  0  0  0  0  0  0  0  0  0
  -23.4330  -17.7965   19.3498 C   0  0  2  0  0  0  0  0  0  0  0  0
  -22.2140  -25.3913   12.6104 C   0  0  0  0  0  0  0  0  0  0  0  0
  -20.7541  -24.4368   19.0001 C   0  0  0  0  0  0  0  0  0  0  0  0
  -21.0315  -23.4912   16.6986 C   0  0  0  0  0  0  0  0  0  0  0  0
  -19.3147  -25.2502   17.1237 C   0  0  0  0  0  0  0  0  0  0  0  0
  -24.2918  -28.4075   13.6407 C   0  0  0  0  0  0  0  0  0  0  0  0
  -30.3266  -26.3118   21.6075 C   0  0  0  0  0  0  0  0  0  0  0  0
  -29.4322  -27.4681   21.1976 C   0  0  0  0  0  0  0  0  0  1  0  0
  -21.7623  -25.8837   17.1144 C   0  0  1  0  0  0  0  0  0  0  0  0
  -22.6021  -26.5748   13.4830 C   0  0  2  0  0  0  0  0  0  0  0  0
  -20.7371  -24.7791   17.4969 C   0  0  0  0  0  0  0  0  0  0  0  0
  -24.2955  -15.5518   19.8965 N   0  0  0  0  0  0  0  0  0  0  0  0
  -23.2662  -16.4141   19.9525 N   0  0  0  0  0  0  0  0  0  0  0  0
  -22.6059  -27.6012   18.6835 N   0  0  0  0  0  0  0  0  0  0  0  0
  -24.9867  -19.6492   18.8766 N   0  0  0  0  0  0  0  0  0  0  0  0
  -27.9302  -21.4550   25.1398 N   0  0  0  0  0  0  0  0  0  0  0  0
  -21.0351  -16.6454   20.7135 N   0  0  0  0  0  0  0  0  0  0  0  0
  -22.1231  -12.4371   21.9393 N   0  0  0  0  0  0  0  0  0  0  0  0
  -25.7037  -20.6428   20.8918 N   0  0  0  0  0  0  0  0  0  0  0  0
  -29.5633  -25.1819   22.0670 N   0  0  0  0  0  0  0  0  0  0  0  0
  -20.7719  -28.4393   21.3860 N   0  0  0  0  0  0  0  0  0  0  0  0
  -21.7494  -26.2474   15.7016 N   0  0  0  0  0  0  0  0  0  0  0  0
  -23.8130  -27.2147   12.8956 N   0  3  0  0  0  0  0  0  0  0  0  0
  -29.3397  -24.1437   20.0049 O   0  0  0  0  0  0  0  0  0  0  0  0
  -20.4496  -14.0049   21.9471 O   0  0  0  0  0  0  0  0  0  0  0  0
  -22.8666  -27.4315   21.5231 O   0  0  0  0  0  0  0  0  0  0  0  0
  -20.4667  -27.7595   17.7697 O   0  0  0  0  0  0  0  0  0  0  0  0
  -23.9753  -25.7450   15.2894 O   0  0  0  0  0  0  0  0  0  0  0  0
  -25.4689  -21.9085   18.9618 O   0  0  0  0  0  0  0  0  0  0  0  0
  -27.0108   -9.9114   21.0635 O   0  0  0  0  0  0  0  0  0  0  0  0
  -28.5763  -27.0515   20.1345 O   0  0  0  0  0  0  0  0  0  1  0  0
  -24.7371   -5.0243   19.9016 F   0  0  0  0  0  0  0  0  0  0  0  0
  -24.7997   -9.0088   22.4561 F   0  0  0  0  0  0  0  0  0  0  0  0
  1  2  1  0  0  0  0
  1  5  2  0  0  0  0
  2  6  2  0  0  0  0
  3  8  2  0  0  0  0
  3 18  1  0  0  0  0
  4  9  1  0  0  0  0
  4 18  2  0  0  0  0
  5 21  1  0  0  0  0
  6 23  1  0  0  0  0
  7 10  2  0  0  0  0
  7 22  1  0  0  0  0
  8 27  1  0  0  0  0
  9 27  2  0  0  0  0
 10 28  1  0  0  0  0
 11 12  2  0  0  0  0
 11 29  1  0  0  0  0
 12 30  1  0  0  0  0
 13 19  1  0  0  0  0
 13 25  2  0  0  0  0
 14 19  2  0  0  0  0
 14 26  1  0  0  0  0
 15 24  1  0  0  0  0
 15 28  2  0  0  0  0
 16 25  1  0  0  0  0
 16 26  2  0  0  0  0
 17 30  2  0  0  0  0
 17 31  1  0  0  0  0
 18 32  1  0  0  0  0
 19 34  1  0  0  0  0
 20 32  1  0  0  0  0
 20 33  2  0  0  0  0
 20 35  1  0  0  0  0
 21 23  2  0  0  0  0
 21 40  1  0  0  0  0
 22 24  2  0  0  0  0
 22 41  1  0  0  0  0
 23 49  1  0  0  0  0
 24 42  1  0  0  0  0
 25 66  1  0  0  0  0
 26 69  1  0  0  0  0
 27 80  1  0  0  0  0
 28 81  1  0  0  0  0
 29 31  2  0  0  0  0
 29 80  1  0  0  0  0
 30 82  1  0  0  0  0
 31 83  1  0  0  0  0
 32 62  2  0  0  0  0
 33 63  1  0  0  0  0
 33 67  1  0  0  0  0
 34 70  1  0  0  0  0
 34 74  2  0  0  0  0
 35 68  1  0  0  0  0
 35 75  2  0  0  0  0
 36 50  1  0  0  0  0
 36 71  1  0  0  0  0
 36 76  2  0  0  0  0
 37 59  1  0  0  0  0
 37 64  1  0  0  0  0
 37 77  2  0  0  0  0
 38 60  1  0  0  0  0
 38 72  1  0  0  0  0
 38 78  2  0  0  0  0
 39 65  1  0  0  0  0
 39 69  1  0  0  0  0
 39 79  2  0  0  0  0
 40 43  1  0  0  0  0
 41 50  1  0  0  0  0
 42 64  1  0  0  0  0
 43 45  1  0  0  0  0
 44 46  1  0  0  0  0
 44 47  1  0  0  0  0
 45 49  1  0  0  0  0
 46 51  1  0  0  0  0
 47 65  1  0  0  0  0
 48 51  1  0  0  0  0
 48 65  1  0  0  0  0
 49 71  1  0  0  0  0
 50 64  1  0  0  0  0
 51 63  1  0  0  0  0
 52 60  1  0  0  0  0
 53 61  1  0  0  0  0
 54 61  1  0  0  0  0
 55 61  1  0  0  0  0
 56 73  1  0  0  0  0
 57 58  1  0  0  0  0
 57 70  1  0  0  0  0
 58 81  1  0  0  0  0
 59 61  1  0  0  0  0
 59 72  1  0  0  0  0
 60 73  1  0  0  0  0
 62 63  1  0  0  0  0
M  CHG  1  73   1
M  ISO  4  39 100  58 101  69 100  81 101
M  END
> <Batch ID>
0098

> <Smiles>
CNC(C)C(=O)NC(C(=O)N1Cc2cc([101O:1][101CH2:1]CNC(=O)c3cc(N)cc([100NH:0][100C:0](=O)N4CCCC(n5nc(-c6ccc(Oc7ccc(F)cc7F)cc6)c(C(N)=O)c5N)C4)c3)ccc2CC1C(=O)NC1CCCc2ccccc21)C(C)(C)C

> <Shape>
0.204

> <Color>
0.096

> <Negative vol penalty>
0.000

$$$$

  -OEChem-04052300513D

 85 93  0     1  0  0  0  0  0999 V2000
  -25.9153  -34.4949   15.0390 C   0  0  0  0  0  0  0  0  0  0  0  0
  -26.5271  -33.3813   15.6056 C   0  0  0  0  0  0  0  0  0  0  0  0
  -25.0678   -9.5406   21.9785 C   0  0  0  0  0  0  0  0  0  0  0  0
  -22.9692   -9.1711   20.8400 C   0  0  0  0  0  0  0  0  0  0  0  0
  -25.4216  -35.5098   15.8578 C   0  0  0  0  0  0  0  0  0  0  0  0
  -26.6464  -33.2824   16.9914 C   0  0  0  0  0  0  0  0  0  0  0  0
  -25.4246  -28.6832   18.7231 C   0  0  0  0  0  0  0  0  0  0  0  0
  -28.1213  -20.4521   20.1201 C   0  0  0  0  0  0  0  0  0  0  0  0
  -27.0602  -19.5469   20.1051 C   0  0  0  0  0  0  0  0  0  0  0  0
  -25.0403   -8.2299   22.4548 C   0  0  0  0  0  0  0  0  0  0  0  0
  -22.9416   -7.8603   21.3163 C   0  0  0  0  0  0  0  0  0  0  0  0
  -26.3755  -27.6742   18.5765 C   0  0  0  0  0  0  0  0  0  0  0  0
  -22.1713   -6.2733   24.2005 C   0  0  0  0  0  0  0  0  0  0  0  0
  -20.9680   -5.7984   24.7221 C   0  0  0  0  0  0  0  0  0  0  0  0
  -27.0283  -27.9628   20.8808 C   0  0  0  0  0  0  0  0  0  0  0  0
  -26.7501  -19.8711   22.4791 C   0  0  0  0  0  0  0  0  0  0  0  0
  -20.9322   -4.0537   23.0512 C   0  0  0  0  0  0  0  0  0  0  0  0
  -24.0322  -10.0112   21.1712 C   0  0  0  0  0  0  0  0  0  0  0  0
  -24.6317  -11.8214   19.4766 C   0  0  0  0  0  0  0  0  0  0  0  0
  -25.5264  -35.4187   17.2547 C   0  0  0  0  0  0  0  0  0  0  0  0
  -25.2756  -29.3481   19.9488 C   0  0  0  0  0  0  0  0  0  0  0  0
  -26.1549  -34.2976   17.8296 C   0  0  0  0  0  0  0  0  0  0  0  0
  -26.0729  -28.9780   21.0411 C   0  0  0  0  0  0  0  0  0  0  0  0
  -28.4969  -21.0668   21.3146 C   0  0  0  0  0  0  0  0  0  0  0  0
  -26.3745  -19.2565   21.2845 C   0  0  0  0  0  0  0  0  0  0  0  0
  -23.9773   -7.3897   22.1236 C   0  0  0  0  0  0  0  0  0  0  0  0
  -27.1795  -27.3158   19.6545 C   0  0  0  0  0  0  0  0  0  0  0  0
  -22.7551   -5.6384   23.1042 C   0  0  0  0  0  0  0  0  0  0  0  0
  -27.8112  -20.7763   22.4941 C   0  0  0  0  0  0  0  0  0  0  0  0
  -20.3484   -4.6886   24.1474 C   0  0  0  0  0  0  0  0  0  0  0  0
  -22.1356   -4.5286   22.5296 C   0  0  0  0  0  0  0  0  0  0  0  0
  -24.0598  -11.3653   20.6793 C   0  0  0  0  0  0  0  0  0  0  0  0
  -24.3937  -13.1741   19.4744 C   0  0  0  0  0  0  0  0  0  0  0  0
  -25.3168  -11.0878   18.4527 C   0  0  0  0  0  0  0  0  0  0  0  0
  -25.6104  -32.3545   20.9249 C   0  0  0  0  0  0  0  0  0  0  0  0
  -24.4246  -31.1739   23.7038 C   0  0  0  0  0  0  0  0  0  0  0  0
  -28.8618  -24.1670   20.2889 C   0  0  0  0  0  0  0  0  0  0  0  0
  -23.9390  -28.4712   25.7302 C   0  0  0  0  0  0  0  0  0  0  0  0
  -24.5638  -18.0047   22.4462 C   0  0  0  0  0  0  0  0  0  0  0  0
  -25.0200  -36.5629   18.0967 C   0  0  0  0  0  0  0  0  0  0  0  0
  -24.2268  -30.4159   20.0983 C   0  0  0  0  0  0  0  0  0  0  0  0
  -25.9385  -29.6471   22.3838 C   0  0  0  0  0  0  0  0  0  0  0  0
  -24.8512  -36.2059   19.5713 C   0  0  0  0  0  0  0  0  0  0  0  0
  -21.4529  -16.0217   22.4302 C   0  0  0  0  0  0  0  0  0  0  0  0
  -26.0799  -35.4618   20.0845 C   0  0  0  0  0  0  0  0  0  0  0  0
  -21.9231  -14.6546   21.9362 C   0  0  0  0  0  0  0  0  0  0  0  0
  -22.5534  -16.7606   23.1859 C   0  0  0  0  0  0  0  0  0  0  0  0
  -24.2918  -15.5344   21.9192 C   0  0  0  0  0  0  0  0  0  0  0  0
  -26.2811  -34.1423   19.3296 C   0  0  1  0  0  0  0  0  0  0  0  0
  -24.5139  -31.3788   21.2462 C   0  0  1  0  0  0  0  0  0  0  0  0
  -23.2187  -14.7832   21.1167 C   0  0  1  0  0  0  0  0  0  0  0  0
  -22.9733  -27.8249   27.9544 C   0  0  0  0  0  0  0  0  0  0  0  0
  -26.8560  -32.3719   25.1048 C   0  0  0  0  0  0  0  0  0  0  0  0
  -26.3461  -30.9202   27.0799 C   0  0  0  0  0  0  0  0  0  0  0  0
  -24.6999  -32.6433   26.3426 C   0  0  0  0  0  0  0  0  0  0  0  0
  -24.7506  -17.8788   19.9725 C   0  0  0  0  0  0  0  0  0  0  0  0
  -21.9746  -26.6462   24.4774 C   0  0  0  0  0  0  0  0  0  0  0  0
  -27.4111  -21.0132   24.8263 C   0  0  0  0  0  0  0  0  0  0  0  0
  -29.6416  -22.0383   21.3118 C   0  0  0  0  0  0  0  0  0  0  0  0
  -28.4216  -25.5630   20.6747 C   0  0  0  0  0  0  0  0  0  1  0  0
  -25.0231  -30.5604   24.9465 C   0  0  1  0  0  0  0  0  0  0  0  0
  -22.7080  -27.9706   26.4641 C   0  0  2  0  0  0  0  0  0  0  0  0
  -25.7354  -31.6125   25.8427 C   0  0  0  0  0  0  0  0  0  0  0  0
  -23.5007  -12.3485   21.3898 N   0  0  0  0  0  0  0  0  0  0  0  0
  -23.7202  -13.4359   20.6312 N   0  0  0  0  0  0  0  0  0  0  0  0
  -24.9032  -30.6895   22.4781 N   0  0  0  0  0  0  0  0  0  0  0  0
  -23.7878  -16.8290   22.4029 N   0  0  0  0  0  0  0  0  0  0  0  0
  -24.6970  -14.1533   18.5960 N   0  0  0  0  0  0  0  0  0  0  0  0
  -25.4741   -9.7044   18.6134 N   0  0  0  0  0  0  0  0  0  0  0  0
  -25.3593  -33.1373   19.8142 N   0  0  0  0  0  0  0  0  0  0  0  0
  -29.1890  -23.4073   21.4012 N   0  0  0  0  0  0  0  0  0  0  0  0
  -23.9393  -29.8449   25.6112 N   0  0  0  0  0  0  0  0  0  0  0  0
  -25.2766  -18.3188   21.2689 N   0  0  0  0  0  0  0  0  0  0  0  0
  -22.2898  -26.6440   25.9292 N   0  3  0  0  0  0  0  0  0  0  0  0
  -25.7903  -11.6452   17.4336 O   0  0  0  0  0  0  0  0  0  0  0  0
  -26.6096  -32.3953   21.6332 O   0  0  0  0  0  0  0  0  0  0  0  0
  -23.5590  -32.0455   23.8163 O   0  0  0  0  0  0  0  0  0  0  0  0
  -28.9135  -23.7850   19.1230 O   0  0  0  0  0  0  0  0  0  0  0  0
  -24.8147  -27.7190   25.3083 O   0  0  0  0  0  0  0  0  0  0  0  0
  -24.5929  -18.7307   23.4470 O   0  0  0  0  0  0  0  0  0  0  0  0
  -23.9502   -6.1106   22.5880 O   0  0  0  0  0  0  0  0  0  0  0  0
  -28.1656  -21.3677   23.6693 O   0  0  0  0  0  0  0  0  0  0  0  0
  -28.1089  -26.3318   19.5139 O   0  0  0  0  0  0  0  0  0  1  0  0
  -19.1937   -4.2318   24.6494 F   0  0  0  0  0  0  0  0  0  0  0  0
  -22.6922   -3.9138   21.4769 F   0  0  0  0  0  0  0  0  0  0  0  0
  1  2  1  0  0  0  0
  1  5  2  0  0  0  0
  2  6  2  0  0  0  0
  3 10  2  0  0  0  0
  3 18  1  0  0  0  0
  4 11  1  0  0  0  0
  4 18  2  0  0  0  0
  5 20  1  0  0  0  0
  6 22  1  0  0  0  0
  7 12  2  0  0  0  0
  7 21  1  0  0  0  0
  8  9  2  0  0  0  0
  8 24  1  0  0  0  0
  9 25  1  0  0  0  0
 10 26  1  0  0  0  0
 11 26  2  0  0  0  0
 12 27  1  0  0  0  0
 13 14  2  0  0  0  0
 13 28  1  0  0  0  0
 14 30  1  0  0  0  0
 15 23  1  0  0  0  0
 15 27  2  0  0  0  0
 16 25  2  0  0  0  0
 16 29  1  0  0  0  0
 17 30  2  0  0  0  0
 17 31  1  0  0  0  0
 18 32  1  0  0  0  0
 19 32  1  0  0  0  0
 19 33  2  0  0  0  0
 19 34  1  0  0  0  0
 20 22  2  0  0  0  0
 20 40  1  0  0  0  0
 21 23  2  0  0  0  0
 21 41  1  0  0  0  0
 22 49  1  0  0  0  0
 23 42  1  0  0  0  0
 24 29  2  0  0  0  0
 24 59  1  0  0  0  0
 25 73  1  0  0  0  0
 26 81  1  0  0  0  0
 27 83  1  0  0  0  0
 28 31  2  0  0  0  0
 28 81  1  0  0  0  0
 29 82  1  0  0  0  0
 30 84  1  0  0  0  0
 31 85  1  0  0  0  0
 32 64  2  0  0  0  0
 33 65  1  0  0  0  0
 33 68  1  0  0  0  0
 34 69  1  0  0  0  0
 34 75  2  0  0  0  0
 35 50  1  0  0  0  0
 35 70  1  0  0  0  0
 35 76  2  0  0  0  0
 36 61  1  0  0  0  0
 36 66  1  0  0  0  0
 36 77  2  0  0  0  0
 37 60  1  0  0  0  0
 37 71  1  0  0  0  0
 37 78  2  0  0  0  0
 38 62  1  0  0  0  0
 38 72  1  0  0  0  0
 38 79  2  0  0  0  0
 39 67  1  0  0  0  0
 39 73  1  0  0  0  0
 39 80  2  0  0  0  0
 40 43  1  0  0  0  0
 41 50  1  0  0  0  0
 42 66  1  0  0  0  0
 43 45  1  0  0  0  0
 44 46  1  0  0  0  0
 44 47  1  0  0  0  0
 45 49  1  0  0  0  0
 46 51  1  0  0  0  0
 47 67  1  0  0  0  0
 48 51  1  0  0  0  0
 48 67  1  0  0  0  0
 49 70  1  0  0  0  0
 50 66  1  0  0  0  0
 51 65  1  0  0  0  0
 52 62  1  0  0  0  0
 53 63  1  0  0  0  0
 54 63  1  0  0  0  0
 55 63  1  0  0  0  0
 56 73  1  0  0  0  0
 57 74  1  0  0  0  0
 58 82  1  0  0  0  0
 59 71  1  0  0  0  0
 60 83  1  0  0  0  0
 61 63  1  0  0  0  0
 61 72  1  0  0  0  0
 62 74  1  0  0  0  0
 64 65  1  0  0  0  0
M  CHG  1  74   1
M  ISO  4  39 100  60 101  73 100  83 101
M  END
> <Batch ID>
0098

> <Smiles>
CNC(C)C(=O)NC(C(=O)N1Cc2cc([101O:1][101CH2:1]C(=O)NCc3ccc([100N:0](C)[100C:0](=O)N4CCCC(n5nc(-c6ccc(Oc7ccc(F)cc7F)cc6)c(C(N)=O)c5N)C4)cc3OC)ccc2CC1C(=O)NC1CCCc2ccccc21)C(C)(C)C

> <Shape>
0.238

> <Color>
0.111

> <Negative vol penalty>
0.000

$$$$

  -OEChem-04052300513D

 85 94  0     1  0  0  0  0  0999 V2000
  -27.9104  -36.0862   22.3595 C   0  0  0  0  0  0  0  0  0  0  0  0
  -28.2126  -34.7349   22.2254 C   0  0  0  0  0  0  0  0  0  0  0  0
  -21.0074  -11.5648   20.0711 C   0  0  0  0  0  0  0  0  0  0  0  0
  -23.4101  -11.4579   20.3011 C   0  0  0  0  0  0  0  0  0  0  0  0
  -26.7247  -36.4759   22.9808 C   0  0  0  0  0  0  0  0  0  0  0  0
  -27.3297  -33.7724   22.7138 C   0  0  0  0  0  0  0  0  0  0  0  0
  -26.6012  -29.9700   19.4493 C   0  0  0  0  0  0  0  0  0  0  0  0
  -21.0238  -10.3734   19.3460 C   0  0  0  0  0  0  0  0  0  0  0  0
  -23.4265  -10.2664   19.5760 C   0  0  0  0  0  0  0  0  0  0  0  0
  -27.6005  -29.0012   19.3670 C   0  0  0  0  0  0  0  0  0  0  0  0
  -22.7786   -6.9985   20.1429 C   0  0  0  0  0  0  0  0  0  0  0  0
  -23.5634   -5.9544   20.6325 C   0  0  0  0  0  0  0  0  0  0  0  0
  -26.2973  -27.5455   20.7819 C   0  0  0  0  0  0  0  0  0  0  0  0
  -29.5215  -19.4934   18.7067 C   0  0  0  0  0  0  0  0  0  0  0  0
  -27.1650  -20.0221   18.7719 C   0  0  0  0  0  0  0  0  0  0  0  0
  -28.0199  -18.1556   20.0455 C   0  0  0  0  0  0  0  0  0  0  0  0
  -24.8495   -5.9622   18.5872 C   0  0  0  0  0  0  0  0  0  0  0  0
  -22.2006  -12.1071   20.5486 C   0  0  0  0  0  0  0  0  0  0  0  0
  -22.0576  -13.4835   22.6916 C   0  0  0  0  0  0  0  0  0  0  0  0
  -25.8222  -35.5175   23.4684 C   0  0  0  0  0  0  0  0  0  0  0  0
  -25.4454  -29.7377   20.2087 C   0  0  0  0  0  0  0  0  0  0  0  0
  -26.1314  -34.1496   23.3434 C   0  0  0  0  0  0  0  0  0  0  0  0
  -25.2837  -28.5119   20.8701 C   0  0  0  0  0  0  0  0  0  0  0  0
  -28.4511  -20.2918   18.3039 C   0  0  0  0  0  0  0  0  0  0  0  0
  -29.3059  -18.4252   19.5775 C   0  0  0  0  0  0  0  0  0  0  0  0
  -26.9494  -18.9540   19.6427 C   0  0  0  0  0  0  0  0  0  0  0  0
  -22.2333   -9.7241   19.0985 C   0  0  0  0  0  0  0  0  0  0  0  0
  -27.4499  -27.7899   20.0357 C   0  0  0  0  0  0  0  0  0  0  0  0
  -23.0292   -7.5243   18.8755 C   0  0  0  0  0  0  0  0  0  0  0  0
  -24.5989   -5.4363   19.8547 C   0  0  0  0  0  0  0  0  0  0  0  0
  -24.0646   -7.0062   18.0977 C   0  0  0  0  0  0  0  0  0  0  0  0
  -22.1844  -13.3382   21.2971 C   0  0  0  0  0  0  0  0  0  0  0  0
  -22.0988  -14.8404   22.9005 C   0  0  0  0  0  0  0  0  0  0  0  0
  -21.9153  -12.4816   23.7073 C   0  0  0  0  0  0  0  0  0  0  0  0
  -24.1213  -31.1058   22.7540 C   0  0  0  0  0  0  0  0  0  0  0  0
  -21.7101  -29.0268   22.1322 C   0  0  0  0  0  0  0  0  0  0  0  0
  -20.7127  -26.0873   20.7141 C   0  0  0  0  0  0  0  0  0  0  0  0
  -24.4718  -19.3753   19.8169 C   0  0  0  0  0  0  0  0  0  0  0  0
  -24.5754  -35.9876   24.1749 C   0  0  0  0  0  0  0  0  0  0  0  0
  -24.3648  -30.7824   20.2656 C   0  0  0  0  0  0  0  0  0  0  0  0
  -24.0527  -28.2053   21.6820 C   0  0  0  0  0  0  0  0  0  0  0  0
  -23.5164  -34.8993   24.3305 C   0  0  0  0  0  0  0  0  0  0  0  0
  -21.0582  -18.9931   20.7542 C   0  0  0  0  0  0  0  0  0  0  0  0
  -24.1497  -33.6063   24.8345 C   0  0  0  0  0  0  0  0  0  0  0  0
  -20.9496  -17.5142   21.1325 C   0  0  0  0  0  0  0  0  0  0  0  0
  -28.9833  -24.9854   17.7647 C   0  0  0  0  0  0  0  0  0  0  0  0
  -22.0043  -19.2086   19.5743 C   0  0  0  0  0  0  0  0  0  0  0  0
  -23.2316  -17.1414   20.1126 C   0  0  0  0  0  0  0  0  0  0  0  0
  -29.6199  -23.7771   17.0976 C   0  0  0  0  0  0  0  0  0  0  0  0
  -28.5496  -23.1585   19.2061 C   0  0  0  0  0  0  0  0  0  0  0  0
  -25.1873  -33.0753   23.8381 C   0  0  1  0  0  0  0  0  0  0  0  0
  -23.4611  -30.6414   21.4866 C   0  0  1  0  0  0  0  0  0  0  0  0
  -28.9591  -24.6209   19.2425 C   0  0  2  0  0  0  0  0  0  0  0  0
  -22.3399  -16.8813   21.3377 C   0  0  2  0  0  0  0  0  0  0  0  0
  -18.6882  -24.6374   20.4028 C   0  0  0  0  0  0  0  0  0  0  0  0
  -21.9389  -28.0901   25.0270 C   0  0  0  0  0  0  0  0  0  0  0  0
  -20.6112  -26.0614   24.4023 C   0  0  0  0  0  0  0  0  0  0  0  0
  -19.5943  -28.3294   24.1902 C   0  0  0  0  0  0  0  0  0  0  0  0
  -20.8545  -26.3218   17.7673 C   0  0  0  0  0  0  0  0  0  0  0  0
  -28.6831  -21.4406   17.3672 C   0  0  0  0  0  0  0  0  0  0  0  0
  -28.0137  -25.4796   20.0551 C   0  0  0  0  0  0  0  0  0  1  0  0
  -21.3817  -27.6142   22.5513 C   0  0  1  0  0  0  0  0  0  0  0  0
  -19.5387  -25.7512   19.8123 C   0  0  2  0  0  0  0  0  0  0  0  0
  -20.9057  -27.5300   24.0291 C   0  0  0  0  0  0  0  0  0  0  0  0
  -22.2975  -14.5092   20.6648 N   0  0  0  0  0  0  0  0  0  0  0  0
  -22.2419  -15.4034   21.6665 N   0  0  0  0  0  0  0  0  0  0  0  0
  -23.0271  -29.2612   21.7122 N   0  0  0  0  0  0  0  0  0  0  0  0
  -23.3026  -18.5859   19.8417 N   0  0  0  0  0  0  0  0  0  0  0  0
  -30.3888  -17.6179   19.9846 N   0  0  0  0  0  0  0  0  0  0  0  0
  -22.0262  -15.5950   24.0176 N   0  0  0  0  0  0  0  0  0  0  0  0
  -21.8919  -11.1352   23.3189 N   0  0  0  0  0  0  0  0  0  0  0  0
  -25.6429  -18.6808   20.1182 N   0  0  0  0  0  0  0  0  0  0  0  0
  -24.5315  -32.4250   22.7239 N   0  0  0  0  0  0  0  0  0  0  0  0
  -20.4121  -27.1158   21.5819 N   0  0  0  0  0  0  0  0  0  0  0  0
  -29.3300  -22.6145   18.0291 N   0  3  1  0  0  0  0  0  0  0  0  0
  -20.0233  -25.3128   18.4729 N   0  3  0  0  0  0  0  0  0  0  0  0
  -21.7956  -12.7725   24.9216 O   0  0  0  0  0  0  0  0  0  0  0  0
  -24.2476  -30.3255   23.6904 O   0  0  0  0  0  0  0  0  0  0  0  0
  -20.8286  -29.8890   22.1690 O   0  0  0  0  0  0  0  0  0  0  0  0
  -21.7875  -25.4940   20.6572 O   0  0  0  0  0  0  0  0  0  0  0  0
  -24.4335  -20.5844   19.5748 O   0  0  0  0  0  0  0  0  0  0  0  0
  -22.2496   -8.5613   18.3912 O   0  0  0  0  0  0  0  0  0  0  0  0
  -28.4240  -26.8429   19.9575 O   0  0  0  0  0  0  0  0  0  1  0  0
  -25.3535   -4.4348   20.3255 F   0  0  0  0  0  0  0  0  0  0  0  0
  -24.3109   -7.5081   16.8798 F   0  0  0  0  0  0  0  0  0  0  0  0
  1  2  1  0  0  0  0
  1  5  2  0  0  0  0
  2  6  2  0  0  0  0
  3  8  2  0  0  0  0
  3 18  1  0  0  0  0
  4  9  1  0  0  0  0
  4 18  2  0  0  0  0
  5 20  1  0  0  0  0
  6 22  1  0  0  0  0
  7 10  2  0  0  0  0
  7 21  1  0  0  0  0
  8 27  1  0  0  0  0
  9 27  2  0  0  0  0
 10 28  1  0  0  0  0
 11 12  2  0  0  0  0
 11 29  1  0  0  0  0
 12 30  1  0  0  0  0
 13 23  1  0  0  0  0
 13 28  2  0  0  0  0
 14 24  1  0  0  0  0
 14 25  2  0  0  0  0
 15 24  2  0  0  0  0
 15 26  1  0  0  0  0
 16 25  1  0  0  0  0
 16 26  2  0  0  0  0
 17 30  2  0  0  0  0
 17 31  1  0  0  0  0
 18 32  1  0  0  0  0
 19 32  1  0  0  0  0
 19 33  2  0  0  0  0
 19 34  1  0  0  0  0
 20 22  2  0  0  0  0
 20 39  1  0  0  0  0
 21 23  2  0  0  0  0
 21 40  1  0  0  0  0
 22 51  1  0  0  0  0
 23 41  1  0  0  0  0
 24 60  1  0  0  0  0
 25 69  1  0  0  0  0
 26 72  1  0  0  0  0
 27 82  1  0  0  0  0
 28 83  1  0  0  0  0
 29 31  2  0  0  0  0
 29 82  1  0  0  0  0
 30 84  1  0  0  0  0
 31 85  1  0  0  0  0
 32 65  2  0  0  0  0
 33 66  1  0  0  0  0
 33 70  1  0  0  0  0
 34 71  1  0  0  0  0
 34 77  2  0  0  0  0
 35 52  1  0  0  0  0
 35 73  1  0  0  0  0
 35 78  2  0  0  0  0
 36 62  1  0  0  0  0
 36 67  1  0  0  0  0
 36 79  2  0  0  0  0
 37 63  1  0  0  0  0
 37 74  1  0  0  0  0
 37 80  2  0  0  0  0
 38 68  1  0  0  0  0
 38 72  1  0  0  0  0
 38 81  2  0  0  0  0
 39 42  1  0  0  0  0
 40 52  1  0  0  0  0
 41 67  1  0  0  0  0
 42 44  1  0  0  0  0
 43 45  1  0  0  0  0
 43 47  1  0  0  0  0
 44 51  1  0  0  0  0
 45 54  1  0  0  0  0
 46 49  1  0  0  0  0
 46 53  1  0  0  0  0
 47 68  1  0  0  0  0
 48 54  1  0  0  0  0
 48 68  1  0  0  0  0
 49 75  1  0  0  0  0
 50 53  1  0  0  0  0
 50 75  1  0  0  0  0
 51 73  1  0  0  0  0
 52 67  1  0  0  0  0
 53 61  1  0  0  0  0
 54 66  1  0  0  0  0
 55 63  1  0  0  0  0
 56 64  1  0  0  0  0
 57 64  1  0  0  0  0
 58 64  1  0  0  0  0
 59 76  1  0  0  0  0
 60 75  1  0  0  0  0
 61 83  1  0  0  0  0
 62 64  1  0  0  0  0
 62 74  1  0  0  0  0
 63 76  1  0  0  0  0
 65 66  1  0  0  0  0
M  CHG  2  75   1  76   1
M  ISO  4  38 100  61 101  72 100  83 101
M  END
> <Batch ID>
0098

> <Smiles>
CNC(C)C(=O)NC(C(=O)N1Cc2cc([101O:1][101CH2:1]C3CCN(Cc4cc(N)cc([100NH:0][100C:0](=O)N5CCCC(n6nc(-c7ccc(Oc8ccc(F)cc8F)cc7)c(C(N)=O)c6N)C5)c4)C3)ccc2CC1C(=O)NC1CCCc2ccccc21)C(C)(C)C

> <Shape>
0.258

> <Color>
0.078

> <Negative vol penalty>
0.000

$$$$

  -OEChem-04052300513D

 87 96  0     1  0  0  0  0  0999 V2000
  -16.5614  -27.3872   23.0669 C   0  0  0  0  0  0  0  0  0  0  0  0
  -17.7461  -26.6646   22.9685 C   0  0  0  0  0  0  0  0  0  0  0  0
  -23.1177  -10.2922   21.9278 C   0  0  0  0  0  0  0  0  0  0  0  0
  -23.5902  -12.6171   22.3842 C   0  0  0  0  0  0  0  0  0  0  0  0
  -16.5233  -28.7202   22.6598 C   0  0  0  0  0  0  0  0  0  0  0  0
  -18.8933  -27.2743   22.4618 C   0  0  0  0  0  0  0  0  0  0  0  0
  -24.6771  -26.2541   24.1976 C   0  0  0  0  0  0  0  0  0  0  0  0
  -30.8672  -18.9010   20.8176 C   0  0  0  0  0  0  0  0  0  0  0  0
  -30.7780  -17.5172   20.6666 C   0  0  0  0  0  0  0  0  0  0  0  0
  -22.2649  -10.2489   23.0307 C   0  0  0  0  0  0  0  0  0  0  0  0
  -22.7374  -12.5739   23.4872 C   0  0  0  0  0  0  0  0  0  0  0  0
  -25.6930  -25.4660   23.6586 C   0  0  0  0  0  0  0  0  0  0  0  0
  -19.4094  -12.6736   24.0658 C   0  0  0  0  0  0  0  0  0  0  0  0
  -18.5143  -13.7302   24.2327 C   0  0  0  0  0  0  0  0  0  0  0  0
  -26.5707  -27.3954   22.5071 C   0  0  0  0  0  0  0  0  0  0  0  0
  -28.9778  -18.8586   22.3227 C   0  0  0  0  0  0  0  0  0  0  0  0
  -19.5084  -14.2336   26.3764 C   0  0  0  0  0  0  0  0  0  0  0  0
  -23.7804  -11.4763   21.6046 C   0  0  0  0  0  0  0  0  0  0  0  0
  -24.3275  -11.2705   19.1214 C   0  0  0  0  0  0  0  0  0  0  0  0
  -17.6731  -29.3493   22.1569 C   0  0  0  0  0  0  0  0  0  0  0  0
  -24.5938  -27.6188   23.8862 C   0  0  0  0  0  0  0  0  0  0  0  0
  -18.8702  -28.6166   22.0464 C   0  0  0  0  0  0  0  0  0  0  0  0
  -25.5543  -28.1992   23.0455 C   0  0  0  0  0  0  0  0  0  0  0  0
  -29.9671  -19.5717   21.6457 C   0  0  0  0  0  0  0  0  0  0  0  0
  -29.7886  -16.8041   21.3436 C   0  0  0  0  0  0  0  0  0  0  0  0
  -22.0747  -11.3898   23.8104 C   0  0  0  0  0  0  0  0  0  0  0  0
  -26.6383  -26.0359   22.8110 C   0  0  0  0  0  0  0  0  0  0  0  0
  -20.3540  -12.3969   25.0542 C   0  0  0  0  0  0  0  0  0  0  0  0
  -28.8885  -17.4748   22.1717 C   0  0  0  0  0  0  0  0  0  0  0  0
  -18.5638  -14.5103   25.3880 C   0  0  0  0  0  0  0  0  0  0  0  0
  -20.4035  -13.1769   26.2095 C   0  0  0  0  0  0  0  0  0  0  0  0
  -24.6619  -11.5214   20.4657 C   0  0  0  0  0  0  0  0  0  0  0  0
  -25.5059  -11.4413   18.4369 C   0  0  0  0  0  0  0  0  0  0  0  0
  -31.2979  -21.6638   21.6946 C   0  0  0  0  0  0  0  0  0  0  0  0
  -23.0646  -10.9149   18.5432 C   0  0  0  0  0  0  0  0  0  0  0  0
  -22.4451  -29.4631   22.4420 C   0  0  0  0  0  0  0  0  0  0  0  0
  -24.4441  -31.8453   23.3646 C   0  0  0  0  0  0  0  0  0  0  0  0
  -27.5960  -32.7983   24.2611 C   0  0  0  0  0  0  0  0  0  0  0  0
  -30.5282  -14.5842   20.3924 C   0  0  0  0  0  0  0  0  0  0  0  0
  -17.5712  -30.7783   21.6853 C   0  0  0  0  0  0  0  0  0  0  0  0
  -23.5075  -28.4610   24.4970 C   0  0  0  0  0  0  0  0  0  0  0  0
  -25.5211  -29.6639   22.6961 C   0  0  0  0  0  0  0  0  0  0  0  0
  -31.2515  -23.1741   21.5601 C   0  0  0  0  0  0  0  0  0  0  0  0
  -18.9258  -31.4597   21.5094 C   0  0  0  0  0  0  0  0  0  0  0  0
  -30.1362  -23.8365   22.3387 C   0  0  0  0  0  0  0  0  0  0  0  0
  -30.2473  -11.0466   19.3604 C   0  0  0  0  0  0  0  0  0  0  0  0
  -19.8869  -30.5493   20.7515 C   0  0  0  0  0  0  0  0  0  0  0  0
  -28.7546  -10.7814   19.1581 C   0  0  0  0  0  0  0  0  0  0  0  0
  -30.6379  -12.4882   19.0655 C   0  0  0  0  0  0  0  0  0  0  0  0
  -28.8572  -21.7142   22.2804 C   0  0  0  0  0  0  0  0  0  0  0  0
  -28.4577  -13.1155   20.1256 C   0  0  0  0  0  0  0  0  0  0  0  0
  -20.1419  -29.2501   21.5251 C   0  0  1  0  0  0  0  0  0  0  0  0
  -23.2178  -29.7307   23.7025 C   0  0  1  0  0  0  0  0  0  0  0  0
  -28.8142  -23.2027   21.9382 C   0  0  1  0  0  0  0  0  0  0  0  0
  -27.9096  -12.0662   19.1458 C   0  0  2  0  0  0  0  0  0  0  0  0
  -28.9303  -34.8184   24.9216 C   0  0  0  0  0  0  0  0  0  0  0  0
  -24.4941  -32.7607   20.4543 C   0  0  0  0  0  0  0  0  0  0  0  0
  -26.5204  -34.1292   20.9923 C   0  0  0  0  0  0  0  0  0  0  0  0
  -24.3530  -34.6133   22.1283 C   0  0  0  0  0  0  0  0  0  0  0  0
  -28.2558  -31.6420   26.9044 C   0  0  0  0  0  0  0  0  0  0  0  0
  -26.6634  -16.6354   22.1741 C   0  0  0  0  0  0  0  0  0  0  0  0
  -27.6430  -23.8872   22.6399 C   0  0  0  0  0  0  0  0  0  1  0  0
  -25.6429  -32.5312   22.7551 C   0  0  1  0  0  0  0  0  0  0  0  0
  -28.1028  -33.6424   25.4166 C   0  0  2  0  0  0  0  0  0  0  0  0
  -25.2524  -33.4806   21.5874 C   0  0  0  0  0  0  0  0  0  0  0  0
  -25.9517  -11.8281   20.6276 N   0  0  0  0  0  0  0  0  0  0  0  0
  -26.4383  -11.7709   19.3762 N   0  0  0  0  0  0  0  0  0  0  0  0
  -30.0594  -21.0077   21.8015 N   0  0  0  0  0  0  0  0  0  0  0  0
  -24.4359  -30.4442   23.3133 N   0  0  0  0  0  0  0  0  0  0  0  0
  -29.8773  -13.4306   19.8912 N   0  0  0  0  0  0  0  0  0  0  0  0
  -25.8253  -11.3400   17.1291 N   0  0  0  0  0  0  0  0  0  0  0  0
  -22.2121  -11.9424   18.1167 N   0  0  0  0  0  0  0  0  0  0  0  0
  -29.7101  -15.3988   21.1793 N   0  0  0  0  0  0  0  0  0  0  0  0
  -21.0735  -29.4813   22.6083 N   0  0  0  0  0  0  0  0  0  0  0  0
  -26.3384  -33.1911   23.8547 N   0  0  0  0  0  0  0  0  0  0  0  0
  -28.9508  -32.8206   26.3257 N   0  3  0  0  0  0  0  0  0  0  0  0
  -32.3998  -21.1107   21.6425 O   0  0  0  0  0  0  0  0  0  0  0  0
  -22.6959   -9.7219   18.4237 O   0  0  0  0  0  0  0  0  0  0  0  0
  -23.0487  -29.2567   21.3956 O   0  0  0  0  0  0  0  0  0  0  0  0
  -23.5513  -32.5274   23.8739 O   0  0  0  0  0  0  0  0  0  0  0  0
  -28.2519  -31.8843   23.7661 O   0  0  0  0  0  0  0  0  0  0  0  0
  -31.7154  -14.8139   20.1515 O   0  0  0  0  0  0  0  0  0  0  0  0
  -21.2424  -11.3480   24.8866 O   0  0  0  0  0  0  0  0  0  0  0  0
  -27.9132  -16.7973   22.8410 O   0  0  0  0  0  0  0  0  0  0  0  0
  -27.6306  -25.2688   22.2830 O   0  0  0  0  0  0  0  0  0  1  0  0
  -17.7052  -15.5259   25.5475 F   0  0  0  0  0  0  0  0  0  0  0  0
  -21.3095  -12.9167   27.1619 F   0  0  0  0  0  0  0  0  0  0  0  0
  1  2  1  0  0  0  0
  1  5  2  0  0  0  0
  2  6  2  0  0  0  0
  3 10  2  0  0  0  0
  3 18  1  0  0  0  0
  4 11  1  0  0  0  0
  4 18  2  0  0  0  0
  5 20  1  0  0  0  0
  6 22  1  0  0  0  0
  7 12  2  0  0  0  0
  7 21  1  0  0  0  0
  8  9  2  0  0  0  0
  8 24  1  0  0  0  0
  9 25  1  0  0  0  0
 10 26  1  0  0  0  0
 11 26  2  0  0  0  0
 12 27  1  0  0  0  0
 13 14  2  0  0  0  0
 13 28  1  0  0  0  0
 14 30  1  0  0  0  0
 15 23  1  0  0  0  0
 15 27  2  0  0  0  0
 16 24  2  0  0  0  0
 16 29  1  0  0  0  0
 17 30  2  0  0  0  0
 17 31  1  0  0  0  0
 18 32  1  0  0  0  0
 19 32  1  0  0  0  0
 19 33  2  0  0  0  0
 19 35  1  0  0  0  0
 20 22  2  0  0  0  0
 20 40  1  0  0  0  0
 21 23  2  0  0  0  0
 21 41  1  0  0  0  0
 22 52  1  0  0  0  0
 23 42  1  0  0  0  0
 24 68  1  0  0  0  0
 25 29  2  0  0  0  0
 25 73  1  0  0  0  0
 26 83  1  0  0  0  0
 27 85  1  0  0  0  0
 28 31  2  0  0  0  0
 28 83  1  0  0  0  0
 29 84  1  0  0  0  0
 30 86  1  0  0  0  0
 31 87  1  0  0  0  0
 32 66  2  0  0  0  0
 33 67  1  0  0  0  0
 33 71  1  0  0  0  0
 34 43  1  0  0  0  0
 34 68  1  0  0  0  0
 34 77  2  0  0  0  0
 35 72  1  0  0  0  0
 35 78  2  0  0  0  0
 36 53  1  0  0  0  0
 36 74  1  0  0  0  0
 36 79  2  0  0  0  0
 37 63  1  0  0  0  0
 37 69  1  0  0  0  0
 37 80  2  0  0  0  0
 38 64  1  0  0  0  0
 38 75  1  0  0  0  0
 38 81  2  0  0  0  0
 39 70  1  0  0  0  0
 39 73  1  0  0  0  0
 39 82  2  0  0  0  0
 40 44  1  0  0  0  0
 41 53  1  0  0  0  0
 42 69  1  0  0  0  0
 43 45  1  0  0  0  0
 44 47  1  0  0  0  0
 45 54  1  0  0  0  0
 46 48  1  0  0  0  0
 46 49  1  0  0  0  0
 47 52  1  0  0  0  0
 48 55  1  0  0  0  0
 49 70  1  0  0  0  0
 50 54  1  0  0  0  0
 50 68  1  0  0  0  0
 51 55  1  0  0  0  0
 51 70  1  0  0  0  0
 52 74  1  0  0  0  0
 53 69  1  0  0  0  0
 54 62  1  0  0  0  0
 55 67  1  0  0  0  0
 56 64  1  0  0  0  0
 57 65  1  0  0  0  0
 58 65  1  0  0  0  0
 59 65  1  0  0  0  0
 60 76  1  0  0  0  0
 61 84  1  0  0  0  0
 62 85  1  0  0  0  0
 63 65  1  0  0  0  0
 63 75  1  0  0  0  0
 64 76  1  0  0  0  0
 66 67  1  0  0  0  0
M  CHG  1  76   1
M  ISO  4  39 100  62 101  73 100  85 101
M  END
> <Batch ID>
0098

> <Smiles>
CNC(C)C(=O)NC(C(=O)N1Cc2cc([101O:1][101CH2:1]C3CCC(=O)N(c4ccc([100NH:0][100C:0](=O)N5CCCC(n6nc(-c7ccc(Oc8ccc(F)cc8F)cc7)c(C(N)=O)c6N)C5)c(OC)c4)C3)ccc2CC1C(=O)NC1CCCc2ccccc21)C(C)(C)C

> <Shape>
0.242

> <Color>
0.092

> <Negative vol penalty>
0.000

$$$$

  -OEChem-04052300513D

 88 97  0     1  0  0  0  0  0999 V2000
  -32.4902  -14.3244   19.4480 C   0  0  0  0  0  0  0  0  0  0  0  0
  -31.6858  -15.3211   18.9047 C   0  0  0  0  0  0  0  0  0  0  0  0
  -30.6428  -26.5157   19.7449 C   0  0  0  0  0  0  0  0  0  0  0  0
  -28.6237  -25.5632   20.6684 C   0  0  0  0  0  0  0  0  0  0  0  0
  -31.9244  -13.1149   19.8489 C   0  0  0  0  0  0  0  0  0  0  0  0
  -30.3153  -15.1083   18.7611 C   0  0  0  0  0  0  0  0  0  0  0  0
  -25.5338  -19.4561   21.9430 C   0  0  0  0  0  0  0  0  0  0  0  0
  -20.7512  -27.9746   24.1231 C   0  0  0  0  0  0  0  0  0  0  0  0
  -21.4312  -27.6296   21.8305 C   0  0  0  0  0  0  0  0  0  0  0  0
  -20.3454  -26.6425   24.2032 C   0  0  0  0  0  0  0  0  0  0  0  0
  -21.0255  -26.2975   21.9107 C   0  0  0  0  0  0  0  0  0  0  0  0
  -31.3328  -25.3402   20.0410 C   0  0  0  0  0  0  0  0  0  0  0  0
  -29.3137  -24.3876   20.9645 C   0  0  0  0  0  0  0  0  0  0  0  0
  -24.5564  -20.3663   22.3462 C   0  0  0  0  0  0  0  0  0  0  0  0
  -30.4562  -21.0021   21.6360 C   0  0  0  0  0  0  0  0  0  0  0  0
  -29.8392  -19.7908   21.3236 C   0  0  0  0  0  0  0  0  0  0  0  0
  -22.8301  -18.9171   21.4699 C   0  0  0  0  0  0  0  0  0  0  0  0
  -29.7654  -20.4293   18.9946 C   0  0  0  0  0  0  0  0  0  0  0  0
  -29.2883  -26.6272   20.0587 C   0  0  0  0  0  0  0  0  0  0  0  0
  -28.3914  -28.4236   18.4851 C   0  0  0  0  0  0  0  0  0  0  0  0
  -30.5447  -12.8908   19.7190 C   0  0  0  0  0  0  0  0  0  0  0  0
  -25.1616  -18.2644   21.3147 C   0  0  0  0  0  0  0  0  0  0  0  0
  -29.7307  -13.8940   19.1593 C   0  0  0  0  0  0  0  0  0  0  0  0
  -23.8039  -17.9959   21.0750 C   0  0  0  0  0  0  0  0  0  0  0  0
  -21.2940  -28.4682   22.9367 C   0  0  0  0  0  0  0  0  0  0  0  0
  -20.4826  -25.8039   23.0970 C   0  0  0  0  0  0  0  0  0  0  0  0
  -30.6682  -24.2761   20.6507 C   0  0  0  0  0  0  0  0  0  0  0  0
  -23.2080  -20.0975   22.1101 C   0  0  0  0  0  0  0  0  0  0  0  0
  -30.7278  -21.9270   20.6278 C   0  0  0  0  0  0  0  0  0  0  0  0
  -29.4938  -19.5044   20.0028 C   0  0  0  0  0  0  0  0  0  0  0  0
  -30.3824  -21.6406   19.3071 C   0  0  0  0  0  0  0  0  0  0  0  0
  -28.5751  -27.8415   19.7536 C   0  0  0  0  0  0  0  0  0  0  0  0
  -27.6521  -29.5549   18.7302 C   0  0  0  0  0  0  0  0  0  0  0  0
  -18.9915  -24.1092   24.0535 C   0  0  0  0  0  0  0  0  0  0  0  0
  -20.7609  -23.4703   22.3872 C   0  0  0  0  0  0  0  0  0  0  0  0
  -28.8480  -27.9812   17.2000 C   0  0  0  0  0  0  0  0  0  0  0  0
  -26.2679  -15.0291   19.7704 C   0  0  0  0  0  0  0  0  0  0  0  0
  -23.7472  -14.4186   21.4086 C   0  0  0  0  0  0  0  0  0  0  0  0
  -21.3073  -12.9840   23.3129 C   0  0  0  0  0  0  0  0  0  0  0  0
  -23.8839  -31.0910   23.1225 C   0  0  0  0  0  0  0  0  0  0  0  0
  -29.9860  -11.5493   20.1226 C   0  0  0  0  0  0  0  0  0  0  0  0
  -26.1839  -17.2836   20.8082 C   0  0  0  0  0  0  0  0  0  0  0  0
  -23.4523  -16.7173   20.3648 C   0  0  0  0  0  0  0  0  0  0  0  0
  -18.6741  -22.6420   24.2560 C   0  0  0  0  0  0  0  0  0  0  0  0
  -28.4679  -11.5450   20.2827 C   0  0  0  0  0  0  0  0  0  0  0  0
  -19.7576  -21.7049   23.7760 C   0  0  0  0  0  0  0  0  0  0  0  0
  -26.8273  -32.8267   22.1222 C   0  0  0  0  0  0  0  0  0  0  0  0
  -27.8042  -12.2415   19.0990 C   0  0  0  0  0  0  0  0  0  0  0  0
  -27.5924  -31.7984   21.2873 C   0  0  0  0  0  0  0  0  0  0  0  0
  -26.1050  -32.1737   23.2986 C   0  0  0  0  0  0  0  0  0  0  0  0
  -25.9845  -30.0232   22.1009 C   0  0  0  0  0  0  0  0  0  0  0  0
  -28.2360  -13.7102   19.0102 C   0  0  1  0  0  0  0  0  0  0  0  0
  -20.1249  -22.0878   22.3536 C   0  0  2  0  0  0  0  0  0  0  0  0
  -25.7248  -15.8191   20.9247 C   0  0  1  0  0  0  0  0  0  0  0  0
  -26.6835  -30.6264   20.8706 C   0  0  2  0  0  0  0  0  0  0  0  0
  -20.9718  -30.6826   21.7728 C   0  0  0  0  0  0  0  0  0  0  0  0
  -19.7781  -10.9956   23.3842 C   0  0  0  0  0  0  0  0  0  0  0  0
  -21.9805  -15.7055   19.2810 C   0  0  0  0  0  0  0  0  0  0  0  0
  -20.0990  -14.2520   20.0654 C   0  0  0  0  0  0  0  0  0  0  0  0
  -22.1623  -13.2164   19.1205 C   0  0  0  0  0  0  0  0  0  0  0  0
  -22.4816  -12.0262   25.8550 C   0  0  0  0  0  0  0  0  0  0  0  0
  -21.0600  -21.0492   21.7386 C   0  0  0  0  0  0  0  0  0  1  0  0
  -21.7277  -29.8926   22.8511 C   0  0  2  0  0  0  0  0  0  0  0  0
  -22.2462  -14.2760   21.4145 C   0  0  1  0  0  0  0  0  0  0  0  0
  -21.1235  -11.5618   23.8109 C   0  0  2  0  0  0  0  0  0  0  0  0
  -21.6354  -14.3799   19.9885 C   0  0  0  0  0  0  0  0  0  0  0  0
  -27.9992  -28.5450   20.7321 N   0  0  0  0  0  0  0  0  0  0  0  0
  -27.4463  -29.5808   20.0783 N   0  0  0  0  0  0  0  0  0  0  0  0
  -20.0614  -24.4195   23.1801 N   0  0  0  0  0  0  0  0  0  0  0  0
  -24.2673  -15.6105   20.8898 N   0  0  0  0  0  0  0  0  0  0  0  0
  -25.2588  -31.0713   22.8354 N   0  0  0  0  0  0  0  0  0  0  0  0
  -27.1646  -30.5201   17.9221 N   0  0  0  0  0  0  0  0  0  0  0  0
  -28.0224  -27.1283   16.4548 N   0  0  0  0  0  0  0  0  0  0  0  0
  -27.5276  -14.5054   19.9902 N   0  0  0  0  0  0  0  0  0  0  0  0
  -21.9582  -13.0196   22.0978 N   0  0  0  0  0  0  0  0  0  0  0  0
  -23.1534  -30.0113   22.6415 N   0  0  0  0  0  0  0  0  0  0  0  0
  -21.2006  -11.5199   25.2986 N   0  3  0  0  0  0  0  0  0  0  0  0
  -18.2510  -24.9390   24.5912 O   0  0  0  0  0  0  0  0  0  0  0  0
  -21.8068  -23.6921   21.7736 O   0  0  0  0  0  0  0  0  0  0  0  0
  -29.9625  -28.3186   16.7336 O   0  0  0  0  0  0  0  0  0  0  0  0
  -25.5939  -14.9020   18.7549 O   0  0  0  0  0  0  0  0  0  0  0  0
  -24.4423  -13.4973   21.8461 O   0  0  0  0  0  0  0  0  0  0  0  0
  -20.9097  -13.9650   23.9373 O   0  0  0  0  0  0  0  0  0  0  0  0
  -23.3463  -32.0058   23.7558 O   0  0  0  0  0  0  0  0  0  0  0  0
  -31.3412  -23.1288   20.9396 O   0  0  0  0  0  0  0  0  0  0  0  0
  -22.2588  -20.9882   22.5104 O   0  0  0  0  0  0  0  0  0  1  0  0
  -28.9026  -18.3405   19.7027 F   0  0  0  0  0  0  0  0  0  0  0  0
  -30.6418  -22.5247   18.3341 F   0  0  0  0  0  0  0  0  0  0  0  0
  1  2  1  0  0  0  0
  1  5  2  0  0  0  0
  2  6  2  0  0  0  0
  3 12  2  0  0  0  0
  3 19  1  0  0  0  0
  4 13  1  0  0  0  0
  4 19  2  0  0  0  0
  5 21  1  0  0  0  0
  6 23  1  0  0  0  0
  7 14  2  0  0  0  0
  7 22  1  0  0  0  0
  8 10  2  0  0  0  0
  8 25  1  0  0  0  0
  9 11  1  0  0  0  0
  9 25  2  0  0  0  0
 10 26  1  0  0  0  0
 11 26  2  0  0  0  0
 12 27  1  0  0  0  0
 13 27  2  0  0  0  0
 14 28  1  0  0  0  0
 15 16  2  0  0  0  0
 15 29  1  0  0  0  0
 16 30  1  0  0  0  0
 17 24  1  0  0  0  0
 17 28  2  0  0  0  0
 18 30  2  0  0  0  0
 18 31  1  0  0  0  0
 19 32  1  0  0  0  0
 20 32  1  0  0  0  0
 20 33  2  0  0  0  0
 20 36  1  0  0  0  0
 21 23  2  0  0  0  0
 21 41  1  0  0  0  0
 22 24  2  0  0  0  0
 22 42  1  0  0  0  0
 23 52  1  0  0  0  0
 24 43  1  0  0  0  0
 25 63  1  0  0  0  0
 26 69  1  0  0  0  0
 27 85  1  0  0  0  0
 28 86  1  0  0  0  0
 29 31  2  0  0  0  0
 29 85  1  0  0  0  0
 30 87  1  0  0  0  0
 31 88  1  0  0  0  0
 32 67  2  0  0  0  0
 33 68  1  0  0  0  0
 33 72  1  0  0  0  0
 34 44  1  0  0  0  0
 34 69  1  0  0  0  0
 34 78  2  0  0  0  0
 35 53  1  0  0  0  0
 35 69  1  0  0  0  0
 35 79  2  0  0  0  0
 36 73  1  0  0  0  0
 36 80  2  0  0  0  0
 37 54  1  0  0  0  0
 37 74  1  0  0  0  0
 37 81  2  0  0  0  0
 38 64  1  0  0  0  0
 38 70  1  0  0  0  0
 38 82  2  0  0  0  0
 39 65  1  0  0  0  0
 39 75  1  0  0  0  0
 39 83  2  0  0  0  0
 40 71  1  0  0  0  0
 40 76  1  0  0  0  0
 40 84  2  0  0  0  0
 41 45  1  0  0  0  0
 42 54  1  0  0  0  0
 43 70  1  0  0  0  0
 44 46  1  0  0  0  0
 45 48  1  0  0  0  0
 46 53  1  0  0  0  0
 47 49  1  0  0  0  0
 47 50  1  0  0  0  0
 48 52  1  0  0  0  0
 49 55  1  0  0  0  0
 50 71  1  0  0  0  0
 51 55  1  0  0  0  0
 51 71  1  0  0  0  0
 52 74  1  0  0  0  0
 53 62  1  0  0  0  0
 54 70  1  0  0  0  0
 55 68  1  0  0  0  0
 56 63  1  0  0  0  0
 57 65  1  0  0  0  0
 58 66  1  0  0  0  0
 59 66  1  0  0  0  0
 60 66  1  0  0  0  0
 61 77  1  0  0  0  0
 62 86  1  0  0  0  0
 63 76  1  0  0  0  0
 64 66  1  0  0  0  0
 64 75  1  0  0  0  0
 65 77  1  0  0  0  0
 67 68  1  0  0  0  0
M  CHG  1  77   1
M  ISO  4  40 100  62 101  76 100  86 101
M  END
> <Batch ID>
0098

> <Smiles>
CNC(C)C(=O)NC(C(=O)N1Cc2cc([101O:1][101CH2:1]C3CCC(=O)N(c4ccc(C(C)[100NH:0][100C:0](=O)N5CCCC(n6nc(-c7ccc(Oc8ccc(F)cc8F)cc7)c(C(N)=O)c6N)C5)cc4)C3=O)ccc2CC1C(=O)NC1CCCc2ccccc21)C(C)(C)C

> <Shape>
0.251

> <Color>
0.057

> <Negative vol penalty>
0.000

$$$$

  -OEChem-04052300513D

 82 90  0     1  0  0  0  0  0999 V2000
  -29.7591  -12.2930   19.7204 C   0  0  0  0  0  0  0  0  0  0  0  0
  -29.7248  -13.6370   20.0781 C   0  0  0  0  0  0  0  0  0  0  0  0
  -28.8269  -26.7159   18.6771 C   0  0  0  0  0  0  0  0  0  0  0  0
  -26.8340  -25.4071   18.2870 C   0  0  0  0  0  0  0  0  0  0  0  0
  -28.6091  -11.6728   19.2338 C   0  0  0  0  0  0  0  0  0  0  0  0
  -28.5406  -14.3618   19.9485 C   0  0  0  0  0  0  0  0  0  0  0  0
  -24.9046  -19.7122   23.0257 C   0  0  0  0  0  0  0  0  0  0  0  0
  -29.5955  -25.5522   18.6550 C   0  0  0  0  0  0  0  0  0  0  0  0
  -27.6026  -24.2433   18.2648 C   0  0  0  0  0  0  0  0  0  0  0  0
  -24.2925  -20.9230   22.7045 C   0  0  0  0  0  0  0  0  0  0  0  0
  -28.9923  -20.8909   18.4639 C   0  0  0  0  0  0  0  0  0  0  0  0
  -28.5181  -19.7871   19.1727 C   0  0  0  0  0  0  0  0  0  0  0  0
  -22.3474  -19.7266   21.9272 C   0  0  0  0  0  0  0  0  0  0  0  0
  -19.7969  -26.3009   22.0257 C   0  0  0  0  0  0  0  0  0  0  0  0
  -18.6338  -27.8934   20.6300 C   0  0  0  0  0  0  0  0  0  0  0  0
  -18.4364  -25.5269   20.1853 C   0  0  0  0  0  0  0  0  0  0  0  0
  -28.5855  -21.0715   21.2179 C   0  0  0  0  0  0  0  0  0  0  0  0
  -27.4461  -26.6434   18.4931 C   0  0  0  0  0  0  0  0  0  0  0  0
  -26.3241  -28.6691   17.4230 C   0  0  0  0  0  0  0  0  0  0  0  0
  -27.4077  -12.3879   19.1072 C   0  0  0  0  0  0  0  0  0  0  0  0
  -24.2460  -18.4970   22.7895 C   0  0  0  0  0  0  0  0  0  0  0  0
  -27.3738  -13.7509   19.4585 C   0  0  0  0  0  0  0  0  0  0  0  0
  -22.9523  -18.5019   22.2486 C   0  0  0  0  0  0  0  0  0  0  0  0
  -19.4751  -27.6206   21.7087 C   0  0  0  0  0  0  0  0  0  0  0  0
  -19.2776  -25.2541   21.2640 C   0  0  0  0  0  0  0  0  0  0  0  0
  -18.1145  -26.8466   19.8683 C   0  0  0  0  0  0  0  0  0  0  0  0
  -28.9834  -24.3159   18.4488 C   0  0  0  0  0  0  0  0  0  0  0  0
  -23.0149  -20.9302   22.1526 C   0  0  0  0  0  0  0  0  0  0  0  0
  -29.2632  -22.0850   19.1321 C   0  0  0  0  0  0  0  0  0  0  0  0
  -28.3147  -19.8774   20.5497 C   0  0  0  0  0  0  0  0  0  0  0  0
  -29.0597  -22.1753   20.5091 C   0  0  0  0  0  0  0  0  0  0  0  0
  -26.6515  -27.8451   18.5164 C   0  0  0  0  0  0  0  0  0  0  0  0
  -25.5583  -29.6718   17.9658 C   0  0  0  0  0  0  0  0  0  0  0  0
  -20.6556  -23.4486   21.0051 C   0  0  0  0  0  0  0  0  0  0  0  0
  -26.6803  -28.5397   16.0402 C   0  0  0  0  0  0  0  0  0  0  0  0
  -24.8222  -15.9479   20.9801 C   0  0  0  0  0  0  0  0  0  0  0  0
  -22.2235  -14.7565   22.5130 C   0  0  0  0  0  0  0  0  0  0  0  0
  -19.3295  -15.3700   24.2145 C   0  0  0  0  0  0  0  0  0  0  0  0
  -22.1441  -29.9923   22.8742 C   0  0  0  0  0  0  0  0  0  0  0  0
  -26.2027  -11.6867   18.5319 C   0  0  0  0  0  0  0  0  0  0  0  0
  -24.9092  -17.2006   23.1662 C   0  0  0  0  0  0  0  0  0  0  0  0
  -22.1943  -17.2254   21.9943 C   0  0  0  0  0  0  0  0  0  0  0  0
  -24.8914  -12.4284   18.7778 C   0  0  0  0  0  0  0  0  0  0  0  0
  -24.8975  -32.0902   22.0408 C   0  0  0  0  0  0  0  0  0  0  0  0
  -25.0476  -13.9108   18.4540 C   0  0  0  0  0  0  0  0  0  0  0  0
  -25.6297  -31.3144   20.9444 C   0  0  0  0  0  0  0  0  0  0  0  0
  -24.3186  -31.1569   23.1019 C   0  0  0  0  0  0  0  0  0  0  0  0
  -24.1892  -29.3054   21.4805 C   0  0  0  0  0  0  0  0  0  0  0  0
  -26.1019  -14.5644   19.3556 C   0  0  1  0  0  0  0  0  0  0  0  0
  -24.3516  -16.0012   22.4061 C   0  0  1  0  0  0  0  0  0  0  0  0
  -24.7424  -30.2000   20.3580 C   0  0  2  0  0  0  0  0  0  0  0  0
  -17.4003  -14.1952   25.3078 C   0  0  0  0  0  0  0  0  0  0  0  0
  -21.0301  -14.1666   19.7675 C   0  0  0  0  0  0  0  0  0  0  0  0
  -18.7988  -13.9013   20.8716 C   0  0  0  0  0  0  0  0  0  0  0  0
  -20.6738  -12.3680   21.4683 C   0  0  0  0  0  0  0  0  0  0  0  0
  -19.9740  -16.5274   26.8610 C   0  0  0  0  0  0  0  0  0  0  0  0
  -20.0308  -28.7393   22.5234 C   0  0  0  0  0  0  0  0  0  0  0  0
  -21.1056  -22.0440   21.2752 C   0  0  0  0  0  0  0  0  0  1  0  0
  -20.7351  -14.7680   22.2610 C   0  0  1  0  0  0  0  0  0  0  0  0
  -18.7818  -14.7979   25.5096 C   0  0  2  0  0  0  0  0  0  0  0  0
  -20.3242  -13.8251   21.0950 C   0  0  0  0  0  0  0  0  0  0  0  0
  -26.1360  -28.2861   19.6670 N   0  0  0  0  0  0  0  0  0  0  0  0
  -19.6020  -23.9248   21.5836 N   0  0  0  0  0  0  0  0  0  0  0  0
  -25.4770  -29.3983   19.2995 N   0  0  0  0  0  0  0  0  0  0  0  0
  -22.8878  -15.9834   22.3736 N   0  0  0  0  0  0  0  0  0  0  0  0
  -23.4860  -30.1243   22.4803 N   0  0  0  0  0  0  0  0  0  0  0  0
  -17.2642  -27.1225   18.7774 N   0  0  0  0  0  0  0  0  0  0  0  0
  -24.9534  -30.7520   17.4277 N   0  0  0  0  0  0  0  0  0  0  0  0
  -27.4725  -27.4501   15.6535 N   0  0  0  0  0  0  0  0  0  0  0  0
  -25.5548  -14.8177   20.6713 N   0  0  0  0  0  0  0  0  0  0  0  0
  -20.1026  -14.4511   23.5369 N   0  0  0  0  0  0  0  0  0  0  0  0
  -21.4239  -28.9932   22.2309 N   0  0  0  0  0  0  0  0  0  0  0  0
  -18.6825  -15.8644   26.5458 N   0  3  0  0  0  0  0  0  0  0  0  0
  -26.3208  -29.3748   15.1760 O   0  0  0  0  0  0  0  0  0  0  0  0
  -24.5402  -16.8637   20.2162 O   0  0  0  0  0  0  0  0  0  0  0  0
  -22.7752  -13.6995   22.8291 O   0  0  0  0  0  0  0  0  0  0  0  0
  -19.0919  -16.5161   23.8395 O   0  0  0  0  0  0  0  0  0  0  0  0
  -21.6249  -30.7150   23.7315 O   0  0  0  0  0  0  0  0  0  0  0  0
  -29.7332  -23.1801   18.4269 O   0  0  0  0  0  0  0  0  0  0  0  0
  -22.4154  -22.1106   21.8376 O   0  0  0  0  0  0  0  0  0  1  0  0
  -27.8578  -18.8178   21.2300 F   0  0  0  0  0  0  0  0  0  0  0  0
  -29.3170  -23.3202   21.1563 F   0  0  0  0  0  0  0  0  0  0  0  0
  1  2  1  0  0  0  0
  1  5  2  0  0  0  0
  2  6  2  0  0  0  0
  3  8  2  0  0  0  0
  3 18  1  0  0  0  0
  4  9  1  0  0  0  0
  4 18  2  0  0  0  0
  5 20  1  0  0  0  0
  6 22  1  0  0  0  0
  7 10  2  0  0  0  0
  7 21  1  0  0  0  0
  8 27  1  0  0  0  0
  9 27  2  0  0  0  0
 10 28  1  0  0  0  0
 11 12  2  0  0  0  0
 11 29  1  0  0  0  0
 12 30  1  0  0  0  0
 13 23  1  0  0  0  0
 13 28  2  0  0  0  0
 14 24  1  0  0  0  0
 14 25  2  0  0  0  0
 15 24  2  0  0  0  0
 15 26  1  0  0  0  0
 16 25  1  0  0  0  0
 16 26  2  0  0  0  0
 17 30  2  0  0  0  0
 17 31  1  0  0  0  0
 18 32  1  0  0  0  0
 19 32  1  0  0  0  0
 19 33  2  0  0  0  0
 19 35  1  0  0  0  0
 20 22  2  0  0  0  0
 20 40  1  0  0  0  0
 21 23  2  0  0  0  0
 21 41  1  0  0  0  0
 22 49  1  0  0  0  0
 23 42  1  0  0  0  0
 24 57  1  0  0  0  0
 25 63  1  0  0  0  0
 26 67  1  0  0  0  0
 27 79  1  0  0  0  0
 28 80  1  0  0  0  0
 29 31  2  0  0  0  0
 29 79  1  0  0  0  0
 30 81  1  0  0  0  0
 31 82  1  0  0  0  0
 32 62  2  0  0  0  0
 33 64  1  0  0  0  0
 33 68  1  0  0  0  0
 34 58  1  0  0  0  0
 34 63  2  0  0  0  0
 35 69  1  0  0  0  0
 35 74  2  0  0  0  0
 36 50  1  0  0  0  0
 36 70  1  0  0  0  0
 36 75  2  0  0  0  0
 37 59  1  0  0  0  0
 37 65  1  0  0  0  0
 37 76  2  0  0  0  0
 38 60  1  0  0  0  0
 38 71  1  0  0  0  0
 38 77  2  0  0  0  0
 39 66  1  0  0  0  0
 39 72  1  0  0  0  0
 39 78  2  0  0  0  0
 40 43  1  0  0  0  0
 41 50  1  0  0  0  0
 42 65  1  0  0  0  0
 43 45  1  0  0  0  0
 44 46  1  0  0  0  0
 44 47  1  0  0  0  0
 45 49  1  0  0  0  0
 46 51  1  0  0  0  0
 47 66  1  0  0  0  0
 48 51  1  0  0  0  0
 48 66  1  0  0  0  0
 49 70  1  0  0  0  0
 50 65  1  0  0  0  0
 51 64  1  0  0  0  0
 52 60  1  0  0  0  0
 53 61  1  0  0  0  0
 54 61  1  0  0  0  0
 55 61  1  0  0  0  0
 56 73  1  0  0  0  0
 57 72  1  0  0  0  0
 58 80  1  0  0  0  0
 59 61  1  0  0  0  0
 59 71  1  0  0  0  0
 60 73  1  0  0  0  0
 62 64  1  0  0  0  0
M  CHG  1  73   1
M  ISO  4  39 100  58 101  72 100  80 101
M  END
> <Batch ID>
0098

> <Smiles>
CNC(C)C(=O)NC(C(=O)N1Cc2cc([101O:1][101CH:1]=CNc3cc(N)cc(C[100NH:0][100C:0](=O)N4CCCC(n5nc(-c6ccc(Oc7ccc(F)cc7F)cc6)c(C(N)=O)c5N)C4)c3)ccc2CC1C(=O)NC1CCCc2ccccc21)C(C)(C)C

> <Shape>
0.228

> <Color>
0.064

> <Negative vol penalty>
0.000

$$$$

  -OEChem-04052300513D

 83 91  0     1  0  0  0  0  0999 V2000
  -22.2968  -11.6043   18.9542 C   0  0  0  0  0  0  0  0  0  0  0  0
  -21.9713  -12.9479   19.1091 C   0  0  0  0  0  0  0  0  0  0  0  0
  -25.0934  -28.6862   19.1995 C   0  0  0  0  0  0  0  0  0  0  0  0
  -26.1386  -27.5397   21.0515 C   0  0  0  0  0  0  0  0  0  0  0  0
  -23.4929  -11.1133   19.4759 C   0  0  0  0  0  0  0  0  0  0  0  0
  -22.8413  -13.8013   19.7869 C   0  0  0  0  0  0  0  0  0  0  0  0
  -23.4852  -18.2186   17.3958 C   0  0  0  0  0  0  0  0  0  0  0  0
  -15.5118  -24.1162   16.3710 C   0  0  0  0  0  0  0  0  0  0  0  0
  -26.2426  -29.4581   19.0287 C   0  0  0  0  0  0  0  0  0  0  0  0
  -27.2879  -28.3115   20.8807 C   0  0  0  0  0  0  0  0  0  0  0  0
  -22.4695  -19.1652   17.5226 C   0  0  0  0  0  0  0  0  0  0  0  0
  -16.5202  -23.1613   16.2415 C   0  0  0  0  0  0  0  0  0  0  0  0
  -29.9665  -28.3656   18.8210 C   0  0  0  0  0  0  0  0  0  0  0  0
  -31.1972  -27.7102   18.8599 C   0  0  0  0  0  0  0  0  0  0  0  0
  -17.1518  -23.5158   18.5464 C   0  0  0  0  0  0  0  0  0  0  0  0
  -23.7576  -20.3126   19.2089 C   0  0  0  0  0  0  0  0  0  0  0  0
  -31.8629  -29.0720   20.7413 C   0  0  0  0  0  0  0  0  0  0  0  0
  -25.0414  -27.7271   20.2110 C   0  0  0  0  0  0  0  0  0  0  0  0
  -16.1434  -24.4708   18.6759 C   0  0  0  0  0  0  0  0  0  0  0  0
  -23.5642  -25.6912   19.7854 C   0  0  0  0  0  0  0  0  0  0  0  0
  -24.3825  -11.9631   20.1521 C   0  0  0  0  0  0  0  0  0  0  0  0
  -24.6419  -18.3059   18.1838 C   0  0  0  0  0  0  0  0  0  0  0  0
  -24.0498  -13.3209   20.3193 C   0  0  0  0  0  0  0  0  0  0  0  0
  -24.7876  -19.3673   19.0884 C   0  0  0  0  0  0  0  0  0  0  0  0
  -15.3234  -24.7710   17.5882 C   0  0  0  0  0  0  0  0  0  0  0  0
  -27.3399  -29.2707   19.8693 C   0  0  0  0  0  0  0  0  0  0  0  0
  -17.3402  -22.8610   17.3292 C   0  0  0  0  0  0  0  0  0  0  0  0
  -22.6043  -20.2108   18.4313 C   0  0  0  0  0  0  0  0  0  0  0  0
  -29.6841  -29.3743   19.7422 C   0  0  0  0  0  0  0  0  0  0  0  0
  -32.1454  -28.0633   19.8200 C   0  0  0  0  0  0  0  0  0  0  0  0
  -30.6323  -29.7274   20.7023 C   0  0  0  0  0  0  0  0  0  0  0  0
  -23.8543  -26.9299   20.3883 C   0  0  0  0  0  0  0  0  0  0  0  0
  -22.3266  -25.3524   20.2753 C   0  0  0  0  0  0  0  0  0  0  0  0
  -15.9698  -25.1512   19.9849 C   0  0  0  0  0  0  0  0  0  0  0  0
  -24.3438  -24.9162   18.8650 C   0  0  0  0  0  0  0  0  0  0  0  0
  -26.0053  -16.4555   20.3794 C   0  0  0  0  0  0  0  0  0  0  0  0
  -28.3775  -18.6609   20.2030 C   0  0  0  0  0  0  0  0  0  0  0  0
  -29.3167  -21.8505   19.4340 C   0  0  0  0  0  0  0  0  0  0  0  0
  -17.1038  -26.6189   21.6231 C   0  0  0  0  0  0  0  0  0  0  0  0
  -25.6415  -11.3765   20.7399 C   0  0  0  0  0  0  0  0  0  0  0  0
  -25.7401  -17.2919   18.0159 C   0  0  0  0  0  0  0  0  0  0  0  0
  -26.0186  -19.5175   19.9431 C   0  0  0  0  0  0  0  0  0  0  0  0
  -26.6833  -12.4261   21.1185 C   0  0  0  0  0  0  0  0  0  0  0  0
  -19.5885  -27.3949   24.0150 C   0  0  0  0  0  0  0  0  0  0  0  0
  -26.0320  -13.5723   21.8857 C   0  0  0  0  0  0  0  0  0  0  0  0
  -20.8989  -27.2342   23.2395 C   0  0  0  0  0  0  0  0  0  0  0  0
  -18.4865  -28.0012   23.1473 C   0  0  0  0  0  0  0  0  0  0  0  0
  -19.5595  -27.1593   21.0984 C   0  0  0  0  0  0  0  0  0  0  0  0
  -24.9791  -14.2832   21.0268 C   0  0  1  0  0  0  0  0  0  0  0  0
  -26.6493  -17.1882   19.2366 C   0  0  1  0  0  0  0  0  0  0  0  0
  -20.6805  -26.4878   21.9081 C   0  0  1  0  0  0  0  0  0  0  0  0
  -31.3147  -23.3688   19.4297 C   0  0  0  0  0  0  0  0  0  0  0  0
  -28.1521  -18.9621   23.2310 C   0  0  0  0  0  0  0  0  0  0  0  0
  -29.4418  -21.0998   23.0444 C   0  0  0  0  0  0  0  0  0  0  0  0
  -30.4948  -18.9459   22.3557 C   0  0  0  0  0  0  0  0  0  0  0  0
  -29.1595  -22.2400   16.5044 C   0  0  0  0  0  0  0  0  0  0  0  0
  -19.4873  -22.0984   18.0105 C   0  0  0  0  0  0  0  0  0  0  0  0
  -20.4646  -20.9740   17.7276 C   0  0  0  0  0  0  0  0  0  1  0  0
  -28.6851  -19.9589   20.9097 C   0  0  1  0  0  0  0  0  0  0  0  0
  -30.4789  -22.3897   18.6199 C   0  0  2  0  0  0  0  0  0  0  0  0
  -29.1693  -19.7380   22.3706 C   0  0  0  0  0  0  0  0  0  0  0  0
  -22.8794  -27.3496   21.1991 N   0  0  0  0  0  0  0  0  0  0  0  0
  -21.9645  -26.3693   21.1090 N   0  0  0  0  0  0  0  0  0  0  0  0
  -27.0618  -18.4972   19.7469 N   0  0  0  0  0  0  0  0  0  0  0  0
  -18.3358  -27.2317   21.9110 N   0  0  0  0  0  0  0  0  0  0  0  0
  -14.2981  -25.7365   17.6980 N   0  0  0  0  0  0  0  0  0  0  0  0
  -21.5235  -24.2869   20.0698 N   0  0  0  0  0  0  0  0  0  0  0  0
  -25.5928  -25.4110   18.4655 N   0  0  0  0  0  0  0  0  0  0  0  0
  -17.0743  -25.8716   20.4404 N   0  0  0  0  0  0  0  0  0  0  0  0
  -25.6168  -15.1653   20.0729 N   0  0  0  0  0  0  0  0  0  0  0  0
  -29.6400  -20.6676   20.0644 N   0  0  0  0  0  0  0  0  0  0  0  0
  -29.9784  -23.0921   17.4046 N   0  3  0  0  0  0  0  0  0  0  0  0
  -14.8860  -25.0785   20.5576 O   0  0  0  0  0  0  0  0  0  0  0  0
  -23.9376  -23.8253   18.3976 O   0  0  0  0  0  0  0  0  0  0  0  0
  -25.8721  -17.0184   21.4597 O   0  0  0  0  0  0  0  0  0  0  0  0
  -29.2733  -17.8260   20.0546 O   0  0  0  0  0  0  0  0  0  0  0  0
  -28.2318  -22.4234   19.5067 O   0  0  0  0  0  0  0  0  0  0  0  0
  -16.1257  -26.6982   22.3730 O   0  0  0  0  0  0  0  0  0  0  0  0
  -28.4615  -30.0235   19.7028 O   0  0  0  0  0  0  0  0  0  0  0  0
  -18.3302  -21.9226   17.2019 O   0  0  0  0  0  0  0  0  0  0  0  0
  -21.6142  -21.1357   18.5575 O   0  0  0  0  0  0  0  0  0  1  0  0
  -33.3265  -27.4328   19.8582 F   0  0  0  0  0  0  0  0  0  0  0  0
  -30.3662  -30.6948   21.5907 F   0  0  0  0  0  0  0  0  0  0  0  0
  1  2  1  0  0  0  0
  1  5  2  0  0  0  0
  2  6  2  0  0  0  0
  3  9  2  0  0  0  0
  3 18  1  0  0  0  0
  4 10  1  0  0  0  0
  4 18  2  0  0  0  0
  5 21  1  0  0  0  0
  6 23  1  0  0  0  0
  7 11  2  0  0  0  0
  7 22  1  0  0  0  0
  8 12  2  0  0  0  0
  8 25  1  0  0  0  0
  9 26  1  0  0  0  0
 10 26  2  0  0  0  0
 11 28  1  0  0  0  0
 12 27  1  0  0  0  0
 13 14  2  0  0  0  0
 13 29  1  0  0  0  0
 14 30  1  0  0  0  0
 15 19  1  0  0  0  0
 15 27  2  0  0  0  0
 16 24  1  0  0  0  0
 16 28  2  0  0  0  0
 17 30  2  0  0  0  0
 17 31  1  0  0  0  0
 18 32  1  0  0  0  0
 19 25  2  0  0  0  0
 19 34  1  0  0  0  0
 20 32  1  0  0  0  0
 20 33  2  0  0  0  0
 20 35  1  0  0  0  0
 21 23  2  0  0  0  0
 21 40  1  0  0  0  0
 22 24  2  0  0  0  0
 22 41  1  0  0  0  0
 23 49  1  0  0  0  0
 24 42  1  0  0  0  0
 25 66  1  0  0  0  0
 26 79  1  0  0  0  0
 27 80  1  0  0  0  0
 28 81  1  0  0  0  0
 29 31  2  0  0  0  0
 29 79  1  0  0  0  0
 30 82  1  0  0  0  0
 31 83  1  0  0  0  0
 32 62  2  0  0  0  0
 33 63  1  0  0  0  0
 33 67  1  0  0  0  0
 34 69  1  0  0  0  0
 34 73  2  0  0  0  0
 35 68  1  0  0  0  0
 35 74  2  0  0  0  0
 36 50  1  0  0  0  0
 36 70  1  0  0  0  0
 36 75  2  0  0  0  0
 37 59  1  0  0  0  0
 37 64  1  0  0  0  0
 37 76  2  0  0  0  0
 38 60  1  0  0  0  0
 38 71  1  0  0  0  0
 38 77  2  0  0  0  0
 39 65  1  0  0  0  0
 39 69  1  0  0  0  0
 39 78  2  0  0  0  0
 40 43  1  0  0  0  0
 41 50  1  0  0  0  0
 42 64  1  0  0  0  0
 43 45  1  0  0  0  0
 44 46  1  0  0  0  0
 44 47  1  0  0  0  0
 45 49  1  0  0  0  0
 46 51  1  0  0  0  0
 47 65  1  0  0  0  0
 48 51  1  0  0  0  0
 48 65  1  0  0  0  0
 49 70  1  0  0  0  0
 50 64  1  0  0  0  0
 51 63  1  0  0  0  0
 52 60  1  0  0  0  0
 53 61  1  0  0  0  0
 54 61  1  0  0  0  0
 55 61  1  0  0  0  0
 56 72  1  0  0  0  0
 57 58  1  0  0  0  0
 57 80  1  0  0  0  0
 58 81  1  0  0  0  0
 59 61  1  0  0  0  0
 59 71  1  0  0  0  0
 60 72  1  0  0  0  0
 62 63  1  0  0  0  0
M  CHG  1  72   1
M  ISO  4  39 100  58 101  69 100  81 101
M  END
> <Batch ID>
0098

> <Smiles>
CNC(C)C(=O)NC(C(=O)N1Cc2cc([101O:1][101CH2:1]COc3ccc(N)c(C(=O)[100NH:0][100C:0](=O)N4CCCC(n5nc(-c6ccc(Oc7ccc(F)cc7F)cc6)c(C(N)=O)c5N)C4)c3)ccc2CC1C(=O)NC1CCCc2ccccc21)C(C)(C)C

> <Shape>
0.192

> <Color>
0.076

> <Negative vol penalty>
0.000

$$$$

  -OEChem-04052300513D

 84 92  0     1  0  0  0  0  0999 V2000
  -27.8692  -24.6787   16.7211 C   0  0  0  0  0  0  0  0  0  0  0  0
  -26.6878  -24.9147   17.4167 C   0  0  0  0  0  0  0  0  0  0  0  0
  -27.6009  -14.6108   19.5584 C   0  0  0  0  0  0  0  0  0  0  0  0
  -25.3048  -14.6777   18.8097 C   0  0  0  0  0  0  0  0  0  0  0  0
  -29.0818  -25.1389   17.2327 C   0  0  0  0  0  0  0  0  0  0  0  0
  -26.7184  -25.6102   18.6250 C   0  0  0  0  0  0  0  0  0  0  0  0
  -23.0729  -29.1106   18.9448 C   0  0  0  0  0  0  0  0  0  0  0  0
  -20.9876  -21.5702   18.9093 C   0  0  0  0  0  0  0  0  0  0  0  0
  -27.3846  -13.3476   20.1089 C   0  0  0  0  0  0  0  0  0  0  0  0
  -25.0885  -13.4144   19.3602 C   0  0  0  0  0  0  0  0  0  0  0  0
  -21.7861  -28.6644   19.2426 C   0  0  0  0  0  0  0  0  0  0  0  0
  -19.6401  -21.8613   19.1218 C   0  0  0  0  0  0  0  0  0  0  0  0
  -24.5226  -12.0942   22.4208 C   0  0  0  0  0  0  0  0  0  0  0  0
  -23.3574  -11.9014   23.1629 C   0  0  0  0  0  0  0  0  0  0  0  0
  -21.6051  -23.2241   20.5587 C   0  0  0  0  0  0  0  0  0  0  0  0
  -22.0999  -29.3140   21.5444 C   0  0  0  0  0  0  0  0  0  0  0  0
  -22.6658  -10.1694   21.6270 C   0  0  0  0  0  0  0  0  0  0  0  0
  -26.5609  -15.2759   18.9088 C   0  0  0  0  0  0  0  0  0  0  0  0
  -20.2576  -23.5152   20.7712 C   0  0  0  0  0  0  0  0  0  0  0  0
  -27.2178  -16.8768   17.0344 C   0  0  0  0  0  0  0  0  0  0  0  0
  -29.1262  -25.8487   18.4430 C   0  0  0  0  0  0  0  0  0  0  0  0
  -23.8883  -29.6528   19.9486 C   0  0  0  0  0  0  0  0  0  0  0  0
  -27.9329  -26.0791   19.1539 C   0  0  0  0  0  0  0  0  0  0  0  0
  -23.3958  -29.7687   21.2563 C   0  0  0  0  0  0  0  0  0  0  0  0
  -21.9701  -22.2515   19.6278 C   0  0  0  0  0  0  0  0  0  0  0  0
  -26.1285  -12.7494   20.0098 C   0  0  0  0  0  0  0  0  0  0  0  0
  -21.3004  -28.7633   20.5431 C   0  0  0  0  0  0  0  0  0  0  0  0
  -19.2751  -22.8338   20.0527 C   0  0  0  0  0  0  0  0  0  0  0  0
  -24.7594  -11.3246   21.2818 C   0  0  0  0  0  0  0  0  0  0  0  0
  -22.4290  -10.9391   22.7660 C   0  0  0  0  0  0  0  0  0  0  0  0
  -23.8310  -10.3622   20.8849 C   0  0  0  0  0  0  0  0  0  0  0  0
  -26.7835  -16.5811   18.3405 C   0  0  0  0  0  0  0  0  0  0  0  0
  -27.2706  -18.2486   16.9924 C   0  0  0  0  0  0  0  0  0  0  0  0
  -19.8905  -24.5544   21.7674 C   0  0  0  0  0  0  0  0  0  0  0  0
  -27.5442  -15.9906   15.9556 C   0  0  0  0  0  0  0  0  0  0  0  0
  -26.6827  -28.8608   21.2400 C   0  0  0  0  0  0  0  0  0  0  0  0
  -26.3274  -31.6894   22.7878 C   0  0  0  0  0  0  0  0  0  0  0  0
  -24.2237  -34.1162   23.9418 C   0  0  0  0  0  0  0  0  0  0  0  0
  -24.4388  -22.5379   20.0400 C   0  0  0  0  0  0  0  0  0  0  0  0
  -30.4663  -26.2852   18.9799 C   0  0  0  0  0  0  0  0  0  0  0  0
  -25.2643  -30.1542   19.6056 C   0  0  0  0  0  0  0  0  0  0  0  0
  -24.2238  -30.3618   22.3659 C   0  0  0  0  0  0  0  0  0  0  0  0
  -30.3679  -27.3398   20.0792 C   0  0  0  0  0  0  0  0  0  0  0  0
  -27.9594  -22.0577   19.8121 C   0  0  0  0  0  0  0  0  0  0  0  0
  -29.3088  -26.9458   21.1037 C   0  0  0  0  0  0  0  0  0  0  0  0
  -28.0968  -20.6278   19.2842 C   0  0  0  0  0  0  0  0  0  0  0  0
  -26.7858  -22.1944   20.7805 C   0  0  0  0  0  0  0  0  0  0  0  0
  -25.6352  -20.2810   19.7394 C   0  0  0  0  0  0  0  0  0  0  0  0
  -27.9223  -26.8512   20.4554 C   0  0  1  0  0  0  0  0  0  0  0  0
  -26.1956  -30.2164   20.8123 C   0  0  1  0  0  0  0  0  0  0  0  0
  -26.7641  -20.1086   18.7100 C   0  0  2  0  0  0  0  0  0  0  0  0
  -24.2229  -36.2868   25.2010 C   0  0  0  0  0  0  0  0  0  0  0  0
  -26.7602  -30.1718   25.3992 C   0  0  0  0  0  0  0  0  0  0  0  0
  -25.8221  -32.1457   26.6207 C   0  0  0  0  0  0  0  0  0  0  0  0
  -27.9104  -32.3892   25.2782 C   0  0  0  0  0  0  0  0  0  0  0  0
  -23.0628  -35.5807   21.6469 C   0  0  0  0  0  0  0  0  0  0  0  0
  -17.2762  -22.3459   21.2453 C   0  0  0  0  0  0  0  0  0  0  0  0
  -18.7703  -26.7407   22.1158 C   0  0  0  0  0  0  0  0  0  0  0  0
  -19.8201  -27.8367   22.1574 C   0  0  0  0  0  0  0  0  0  1  0  0
  -25.6957  -32.1246   24.0880 C   0  0  1  0  0  0  0  0  0  0  0  0
  -24.2742  -35.6293   23.8307 C   0  0  2  0  0  0  0  0  0  0  0  0
  -26.5319  -31.6948   25.3262 C   0  0  0  0  0  0  0  0  0  0  0  0
  -26.5754  -17.6770   19.0751 N   0  0  0  0  0  0  0  0  0  0  0  0
  -26.8803  -18.6747   18.2279 N   0  0  0  0  0  0  0  0  0  0  0  0
  -25.5650  -30.8321   21.9817 N   0  0  0  0  0  0  0  0  0  0  0  0
  -25.5568  -21.6867   20.1669 N   0  0  0  0  0  0  0  0  0  0  0  0
  -27.6124  -19.1200   16.0196 N   0  0  0  0  0  0  0  0  0  0  0  0
  -27.4352  -14.6097   16.1690 N   0  0  0  0  0  0  0  0  0  0  0  0
  -23.3387  -21.9552   19.4116 N   0  0  0  0  0  0  0  0  0  0  0  0
  -19.1768  -25.6421   21.2801 N   0  0  0  0  0  0  0  0  0  0  0  0
  -27.3664  -28.1724   20.2561 N   0  0  0  0  0  0  0  0  0  0  0  0
  -25.4868  -33.5643   23.9785 N   0  0  0  0  0  0  0  0  0  0  0  0
  -23.1230  -36.1283   23.0266 N   0  3  0  0  0  0  0  0  0  0  0  0
  -20.2429  -24.4165   22.9359 O   0  0  0  0  0  0  0  0  0  0  0  0
  -27.9371  -16.4104   14.8407 O   0  0  0  0  0  0  0  0  0  0  0  0
  -26.4564  -28.4691   22.3789 O   0  0  0  0  0  0  0  0  0  0  0  0
  -27.4528  -32.1008   22.4947 O   0  0  0  0  0  0  0  0  0  0  0  0
  -23.1692  -33.4870   23.9949 O   0  0  0  0  0  0  0  0  0  0  0  0
  -24.4652  -23.7069   20.4336 O   0  0  0  0  0  0  0  0  0  0  0  0
  -25.9171  -11.5166   20.5466 O   0  0  0  0  0  0  0  0  0  0  0  0
  -17.9533  -23.1043   20.2454 O   0  0  0  0  0  0  0  0  0  0  0  0
  -20.0450  -28.3279   20.8366 O   0  0  0  0  0  0  0  0  0  1  0  0
  -21.3108  -10.7530   23.4796 F   0  0  0  0  0  0  0  0  0  0  0  0
  -24.0536   -9.6191   19.7922 F   0  0  0  0  0  0  0  0  0  0  0  0
  1  2  1  0  0  0  0
  1  5  2  0  0  0  0
  2  6  2  0  0  0  0
  3  9  2  0  0  0  0
  3 18  1  0  0  0  0
  4 10  1  0  0  0  0
  4 18  2  0  0  0  0
  5 21  1  0  0  0  0
  6 23  1  0  0  0  0
  7 11  2  0  0  0  0
  7 22  1  0  0  0  0
  8 12  2  0  0  0  0
  8 25  1  0  0  0  0
  9 26  1  0  0  0  0
 10 26  2  0  0  0  0
 11 27  1  0  0  0  0
 12 28  1  0  0  0  0
 13 14  2  0  0  0  0
 13 29  1  0  0  0  0
 14 30  1  0  0  0  0
 15 19  1  0  0  0  0
 15 25  2  0  0  0  0
 16 24  1  0  0  0  0
 16 27  2  0  0  0  0
 17 30  2  0  0  0  0
 17 31  1  0  0  0  0
 18 32  1  0  0  0  0
 19 28  2  0  0  0  0
 19 34  1  0  0  0  0
 20 32  1  0  0  0  0
 20 33  2  0  0  0  0
 20 35  1  0  0  0  0
 21 23  2  0  0  0  0
 21 40  1  0  0  0  0
 22 24  2  0  0  0  0
 22 41  1  0  0  0  0
 23 49  1  0  0  0  0
 24 42  1  0  0  0  0
 25 69  1  0  0  0  0
 26 80  1  0  0  0  0
 27 82  1  0  0  0  0
 28 81  1  0  0  0  0
 29 31  2  0  0  0  0
 29 80  1  0  0  0  0
 30 83  1  0  0  0  0
 31 84  1  0  0  0  0
 32 63  2  0  0  0  0
 33 64  1  0  0  0  0
 33 67  1  0  0  0  0
 34 70  1  0  0  0  0
 34 74  2  0  0  0  0
 35 68  1  0  0  0  0
 35 75  2  0  0  0  0
 36 50  1  0  0  0  0
 36 71  1  0  0  0  0
 36 76  2  0  0  0  0
 37 60  1  0  0  0  0
 37 65  1  0  0  0  0
 37 77  2  0  0  0  0
 38 61  1  0  0  0  0
 38 72  1  0  0  0  0
 38 78  2  0  0  0  0
 39 66  1  0  0  0  0
 39 69  1  0  0  0  0
 39 79  2  0  0  0  0
 40 43  1  0  0  0  0
 41 50  1  0  0  0  0
 42 65  1  0  0  0  0
 43 45  1  0  0  0  0
 44 46  1  0  0  0  0
 44 47  1  0  0  0  0
 45 49  1  0  0  0  0
 46 51  1  0  0  0  0
 47 66  1  0  0  0  0
 48 51  1  0  0  0  0
 48 66  1  0  0  0  0
 49 71  1  0  0  0  0
 50 65  1  0  0  0  0
 51 64  1  0  0  0  0
 52 61  1  0  0  0  0
 53 62  1  0  0  0  0
 54 62  1  0  0  0  0
 55 62  1  0  0  0  0
 56 73  1  0  0  0  0
 57 81  1  0  0  0  0
 58 59  1  0  0  0  0
 58 70  1  0  0  0  0
 59 82  1  0  0  0  0
 60 62  1  0  0  0  0
 60 72  1  0  0  0  0
 61 73  1  0  0  0  0
 63 64  1  0  0  0  0
M  CHG  1  73   1
M  ISO  4  39 100  59 101  69 100  82 101
M  END
> <Batch ID>
0098

> <Smiles>
CNC(C)C(=O)NC(C(=O)N1Cc2cc([101O:1][101CH2:1]CNC(=O)c3cc([100NH:0][100C:0](=O)N4CCCC(n5nc(-c6ccc(Oc7ccc(F)cc7F)cc6)c(C(N)=O)c5N)C4)ccc3OC)ccc2CC1C(=O)NC1CCCc2ccccc21)C(C)(C)C

> <Shape>
0.279

> <Color>
0.073

> <Negative vol penalty>
0.000

$$$$

  -OEChem-04052300513D

 88 97  0     1  0  0  0  0  0999 V2000
  -19.2001  -30.9450   25.7117 C   0  0  0  0  0  0  0  0  0  0  0  0
  -19.3787  -29.5654   25.6976 C   0  0  0  0  0  0  0  0  0  0  0  0
  -22.8772  -10.3244   19.8218 C   0  0  0  0  0  0  0  0  0  0  0  0
  -23.9034   -9.6452   21.9009 C   0  0  0  0  0  0  0  0  0  0  0  0
  -19.4438  -31.6902   24.5588 C   0  0  0  0  0  0  0  0  0  0  0  0
  -19.8001  -28.9300   24.5300 C   0  0  0  0  0  0  0  0  0  0  0  0
  -23.7176  -23.3594   22.3079 C   0  0  0  0  0  0  0  0  0  0  0  0
  -22.0832   -9.1777   19.8390 C   0  0  0  0  0  0  0  0  0  0  0  0
  -23.1093   -8.4985   21.9182 C   0  0  0  0  0  0  0  0  0  0  0  0
  -23.6300  -22.2452   21.4744 C   0  0  0  0  0  0  0  0  0  0  0  0
  -19.2772   -8.1140   21.3971 C   0  0  0  0  0  0  0  0  0  0  0  0
  -17.9221   -8.2593   21.1004 C   0  0  0  0  0  0  0  0  0  0  0  0
  -24.0967  -23.6440   19.5653 C   0  0  0  0  0  0  0  0  0  0  0  0
  -25.2677  -15.1795   16.7545 C   0  0  0  0  0  0  0  0  0  0  0  0
  -26.9803  -16.5393   17.7818 C   0  0  0  0  0  0  0  0  0  0  0  0
  -18.1714   -6.7559   19.2256 C   0  0  0  0  0  0  0  0  0  0  0  0
  -23.7873  -10.5581   20.8527 C   0  0  0  0  0  0  0  0  0  0  0  0
  -24.3027  -12.9967   21.3961 C   0  0  0  0  0  0  0  0  0  0  0  0
  -19.8776  -31.0648   23.3793 C   0  0  0  0  0  0  0  0  0  0  0  0
  -23.9851  -24.6283   21.7741 C   0  0  0  0  0  0  0  0  0  0  0  0
  -20.0485  -29.6674   23.3599 C   0  0  0  0  0  0  0  0  0  0  0  0
  -24.1898  -24.7723   20.3944 C   0  0  0  0  0  0  0  0  0  0  0  0
  -26.2506  -14.3539   16.2088 C   0  0  0  0  0  0  0  0  0  0  0  0
  -25.6325  -16.2723   17.5409 C   0  0  0  0  0  0  0  0  0  0  0  0
  -27.5983  -14.6208   16.4497 C   0  0  0  0  0  0  0  0  0  0  0  0
  -22.1993   -8.2648   20.8872 C   0  0  0  0  0  0  0  0  0  0  0  0
  -23.8167  -22.3878   20.1026 C   0  0  0  0  0  0  0  0  0  0  0  0
  -20.0795   -7.2897   20.6081 C   0  0  0  0  0  0  0  0  0  0  0  0
  -27.9632  -15.7136   17.2361 C   0  0  0  0  0  0  0  0  0  0  0  0
  -17.3691   -7.5803   20.0147 C   0  0  0  0  0  0  0  0  0  0  0  0
  -19.5265   -6.6106   19.5224 C   0  0  0  0  0  0  0  0  0  0  0  0
  -24.6082  -11.7422   20.8352 C   0  0  0  0  0  0  0  0  0  0  0  0
  -25.3973  -13.7759   21.1113 C   0  0  0  0  0  0  0  0  0  0  0  0
  -24.7479  -18.4949   18.3815 C   0  0  0  0  0  0  0  0  0  0  0  0
  -23.1339  -13.4199   22.1107 C   0  0  0  0  0  0  0  0  0  0  0  0
  -22.4212  -27.3936   21.6707 C   0  0  0  0  0  0  0  0  0  0  0  0
  -25.1894  -28.4639   20.3615 C   0  0  0  0  0  0  0  0  0  0  0  0
  -28.0603  -27.7422   18.6633 C   0  0  0  0  0  0  0  0  0  0  0  0
  -29.5481  -13.0584   16.6694 C   0  0  0  0  0  0  0  0  0  0  0  0
  -20.0827  -31.9063   22.1446 C   0  0  0  0  0  0  0  0  0  0  0  0
  -24.1029  -25.8158   22.6897 C   0  0  0  0  0  0  0  0  0  0  0  0
  -24.4995  -26.1093   19.7740 C   0  0  0  0  0  0  0  0  0  0  0  0
  -20.8874  -31.2028   21.0547 C   0  0  0  0  0  0  0  0  0  0  0  0
  -30.1006  -13.5140   20.2999 C   0  0  0  0  0  0  0  0  0  0  0  0
  -20.3732  -29.7821   20.8445 C   0  0  0  0  0  0  0  0  0  0  0  0
  -28.7478  -13.1345   20.8992 C   0  0  0  0  0  0  0  0  0  0  0  0
  -22.7085  -17.6942   19.3111 C   0  0  0  0  0  0  0  0  0  0  0  0
  -30.3646  -12.7809   18.9881 C   0  0  0  0  0  0  0  0  0  0  0  0
  -23.2915  -16.6368   18.3951 C   0  0  0  0  0  0  0  0  0  0  0  0
  -27.9291  -12.5901   18.5722 C   0  0  0  0  0  0  0  0  0  0  0  0
  -20.5284  -28.9449   22.1198 C   0  0  1  0  0  0  0  0  0  0  0  0
  -23.3778  -18.9745   18.8329 C   0  0  1  0  0  0  0  0  0  0  0  0
  -23.8709  -27.1448   21.9774 C   0  0  1  0  0  0  0  0  0  0  0  0
  -27.6218  -13.3458   19.8737 C   0  0  1  0  0  0  0  0  0  0  0  0
  -25.8290  -13.1908   15.3703 C   0  0  0  0  0  0  0  0  0  0  0  0
  -30.1083  -28.8302   17.7044 C   0  0  0  0  0  0  0  0  0  0  0  0
  -23.5301  -29.5300   18.0334 C   0  0  0  0  0  0  0  0  0  0  0  0
  -25.6456  -29.7341   16.7101 C   0  0  0  0  0  0  0  0  0  0  0  0
  -25.3525  -31.0603   18.8025 C   0  0  0  0  0  0  0  0  0  0  0  0
  -28.8615  -13.8516   14.4488 C   0  0  0  0  0  0  0  0  0  0  0  0
  -29.8571  -26.1592   20.4024 C   0  0  0  0  0  0  0  0  0  0  0  0
  -29.5499  -17.1312   18.2986 C   0  0  0  0  0  0  0  0  0  0  0  0
  -23.4470  -20.0470   19.9037 C   0  0  0  0  0  0  0  0  0  1  0  0
  -25.7393  -28.5667   18.9594 C   0  0  1  0  0  0  0  0  0  0  0  0
  -29.5051  -28.1345   18.9148 C   0  0  2  0  0  0  0  0  0  0  0  0
  -25.0591  -29.6978   18.1375 C   0  0  0  0  0  0  0  0  0  0  0  0
  -25.8032  -11.7211   20.2391 N   0  0  0  0  0  0  0  0  0  0  0  0
  -26.2583  -12.9721   20.4237 N   0  0  0  0  0  0  0  0  0  0  0  0
  -24.6275  -17.1188   18.0978 N   0  0  0  0  0  0  0  0  0  0  0  0
  -24.5981  -27.2413   20.7101 N   0  0  0  0  0  0  0  0  0  0  0  0
  -29.2575  -12.9415   18.0442 N   0  0  0  0  0  0  0  0  0  0  0  0
  -25.6978  -15.0634   21.3845 N   0  0  0  0  0  0  0  0  0  0  0  0
  -22.1035  -12.4922   22.3153 N   0  0  0  0  0  0  0  0  0  0  0  0
  -21.9023  -28.5195   22.2810 N   0  0  0  0  0  0  0  0  0  0  0  0
  -27.1841  -28.7144   19.0974 N   0  0  0  0  0  0  0  0  0  0  0  0
  -28.6183  -13.7698   15.8874 N   0  0  0  0  0  0  0  0  0  0  0  0
  -30.3240  -26.9273   19.2196 N   0  3  0  0  0  0  0  0  0  0  0  0
  -25.7089  -19.2395   18.2529 O   0  0  0  0  0  0  0  0  0  0  0  0
  -23.0001  -14.5909   22.5403 O   0  0  0  0  0  0  0  0  0  0  0  0
  -21.8185  -26.6221   20.9337 O   0  0  0  0  0  0  0  0  0  0  0  0
  -25.2874  -29.4303   21.1219 O   0  0  0  0  0  0  0  0  0  0  0  0
  -27.7411  -26.6813   18.1314 O   0  0  0  0  0  0  0  0  0  0  0  0
  -30.5390  -12.5187   16.1619 O   0  0  0  0  0  0  0  0  0  0  0  0
  -21.4245   -7.1458   20.9045 O   0  0  0  0  0  0  0  0  0  0  0  0
  -29.2742  -15.9939   17.4840 O   0  0  0  0  0  0  0  0  0  0  0  0
  -23.7310  -21.3020   19.2868 O   0  0  0  0  0  0  0  0  0  1  0  0
  -16.0674   -7.7187   19.7307 F   0  0  0  0  0  0  0  0  0  0  0  0
  -20.2920   -5.8163   18.7615 F   0  0  0  0  0  0  0  0  0  0  0  0
  1  2  1  0  0  0  0
  1  5  2  0  0  0  0
  2  6  2  0  0  0  0
  3  8  2  0  0  0  0
  3 17  1  0  0  0  0
  4  9  1  0  0  0  0
  4 17  2  0  0  0  0
  5 19  1  0  0  0  0
  6 21  1  0  0  0  0
  7 10  2  0  0  0  0
  7 20  1  0  0  0  0
  8 26  1  0  0  0  0
  9 26  2  0  0  0  0
 10 27  1  0  0  0  0
 11 12  2  0  0  0  0
 11 28  1  0  0  0  0
 12 30  1  0  0  0  0
 13 22  1  0  0  0  0
 13 27  2  0  0  0  0
 14 23  2  0  0  0  0
 14 24  1  0  0  0  0
 15 24  2  0  0  0  0
 15 29  1  0  0  0  0
 16 30  2  0  0  0  0
 16 31  1  0  0  0  0
 17 32  1  0  0  0  0
 18 32  1  0  0  0  0
 18 33  2  0  0  0  0
 18 35  1  0  0  0  0
 19 21  2  0  0  0  0
 19 40  1  0  0  0  0
 20 22  2  0  0  0  0
 20 41  1  0  0  0  0
 21 51  1  0  0  0  0
 22 42  1  0  0  0  0
 23 25  1  0  0  0  0
 23 55  1  0  0  0  0
 24 69  1  0  0  0  0
 25 29  2  0  0  0  0
 25 76  1  0  0  0  0
 26 84  1  0  0  0  0
 27 86  1  0  0  0  0
 28 31  2  0  0  0  0
 28 84  1  0  0  0  0
 29 85  1  0  0  0  0
 30 87  1  0  0  0  0
 31 88  1  0  0  0  0
 32 67  2  0  0  0  0
 33 68  1  0  0  0  0
 33 72  1  0  0  0  0
 34 52  1  0  0  0  0
 34 69  1  0  0  0  0
 34 78  2  0  0  0  0
 35 73  1  0  0  0  0
 35 79  2  0  0  0  0
 36 53  1  0  0  0  0
 36 74  1  0  0  0  0
 36 80  2  0  0  0  0
 37 64  1  0  0  0  0
 37 70  1  0  0  0  0
 37 81  2  0  0  0  0
 38 65  1  0  0  0  0
 38 75  1  0  0  0  0
 38 82  2  0  0  0  0
 39 71  1  0  0  0  0
 39 76  1  0  0  0  0
 39 83  2  0  0  0  0
 40 43  1  0  0  0  0
 41 53  1  0  0  0  0
 42 70  1  0  0  0  0
 43 45  1  0  0  0  0
 44 46  1  0  0  0  0
 44 48  1  0  0  0  0
 45 51  1  0  0  0  0
 46 54  1  0  0  0  0
 47 49  1  0  0  0  0
 47 52  1  0  0  0  0
 48 71  1  0  0  0  0
 49 69  1  0  0  0  0
 50 54  1  0  0  0  0
 50 71  1  0  0  0  0
 51 74  1  0  0  0  0
 52 63  1  0  0  0  0
 53 70  1  0  0  0  0
 54 68  1  0  0  0  0
 56 65  1  0  0  0  0
 57 66  1  0  0  0  0
 58 66  1  0  0  0  0
 59 66  1  0  0  0  0
 60 76  1  0  0  0  0
 61 77  1  0  0  0  0
 62 85  1  0  0  0  0
 63 86  1  0  0  0  0
 64 66  1  0  0  0  0
 64 75  1  0  0  0  0
 65 77  1  0  0  0  0
 67 68  1  0  0  0  0
M  CHG  1  77   1
M  ISO  4  39 100  63 101  76 100  86 101
M  END
> <Batch ID>
0098

> <Smiles>
CNC(C)C(=O)NC(C(=O)N1Cc2cc([101O:1][101CH2:1]C3CCN(c4cc(C)c([100N:0](C)[100C:0](=O)N5CCCC(n6nc(-c7ccc(Oc8ccc(F)cc8F)cc7)c(C(N)=O)c6N)C5)c(OC)c4)C3=O)ccc2CC1C(=O)NC1CCCc2ccccc21)C(C)(C)C

> <Shape>
0.214

> <Color>
0.125

> <Negative vol penalty>
0.000

$$$$

  -OEChem-04052300513D

 86 95  0     1  0  0  0  0  0999 V2000
  -28.7446  -30.3710   22.0682 C   0  0  0  0  0  0  0  0  0  0  0  0
  -29.4466  -29.1758   21.9496 C   0  0  0  0  0  0  0  0  0  0  0  0
  -22.6695  -10.1487   20.2014 C   0  0  0  0  0  0  0  0  0  0  0  0
  -24.3002   -9.4538   21.8430 C   0  0  0  0  0  0  0  0  0  0  0  0
  -27.4791  -30.4946   21.4961 C   0  0  0  0  0  0  0  0  0  0  0  0
  -28.8831  -28.1031   21.2596 C   0  0  0  0  0  0  0  0  0  0  0  0
  -32.1723  -25.8651   18.1263 C   0  0  0  0  0  0  0  0  0  0  0  0
  -21.9518   -8.9721   20.4162 C   0  0  0  0  0  0  0  0  0  0  0  0
  -23.5825   -8.2772   22.0578 C   0  0  0  0  0  0  0  0  0  0  0  0
  -33.1056  -24.9997   18.6952 C   0  0  0  0  0  0  0  0  0  0  0  0
  -19.7868   -7.7590   22.7127 C   0  0  0  0  0  0  0  0  0  0  0  0
  -18.4022   -7.8597   22.8478 C   0  0  0  0  0  0  0  0  0  0  0  0
  -31.7554  -23.1151   18.0284 C   0  0  0  0  0  0  0  0  0  0  0  0
  -31.6650  -17.6339   21.8539 C   0  0  0  0  0  0  0  0  0  0  0  0
  -18.1103   -6.4182   20.9310 C   0  0  0  0  0  0  0  0  0  0  0  0
  -23.8437  -10.3895   20.9147 C   0  0  0  0  0  0  0  0  0  0  0  0
  -24.1313  -12.9240   20.8775 C   0  0  0  0  0  0  0  0  0  0  0  0
  -26.9038  -29.4260   20.7905 C   0  0  0  0  0  0  0  0  0  0  0  0
  -31.0161  -25.3617   17.5128 C   0  0  0  0  0  0  0  0  0  0  0  0
  -27.6082  -28.2120   20.6787 C   0  0  0  0  0  0  0  0  0  0  0  0
  -30.8102  -23.9761   17.4502 C   0  0  0  0  0  0  0  0  0  0  0  0
  -31.7306  -18.8723   22.5556 C   0  0  0  0  0  0  0  0  0  0  0  0
  -22.4083   -8.0363   21.3444 C   0  0  0  0  0  0  0  0  0  0  0  0
  -32.8958  -23.6245   18.6488 C   0  0  0  0  0  0  0  0  0  0  0  0
  -20.3332   -6.9879   21.6868 C   0  0  0  0  0  0  0  0  0  0  0  0
  -17.5639   -7.1893   21.9570 C   0  0  0  0  0  0  0  0  0  0  0  0
  -19.4950   -6.3175   20.7960 C   0  0  0  0  0  0  0  0  0  0  0  0
  -24.5858  -11.6045   20.6928 C   0  0  0  0  0  0  0  0  0  0  0  0
  -25.2051  -13.7083   20.5336 C   0  0  0  0  0  0  0  0  0  0  0  0
  -30.4683  -16.9841   22.0618 C   0  0  0  0  0  0  0  0  0  0  0  0
  -30.5812  -19.1219   23.2730 C   0  0  0  0  0  0  0  0  0  0  0  0
  -33.1810  -20.5913   23.6159 C   0  0  0  0  0  0  0  0  0  0  0  0
  -22.8528  -13.3983   21.3204 C   0  0  0  0  0  0  0  0  0  0  0  0
  -27.8939  -25.6426   18.0387 C   0  0  0  0  0  0  0  0  0  0  0  0
  -27.6720  -23.9771   15.2640 C   0  0  0  0  0  0  0  0  0  0  0  0
  -29.1269  -21.8205   13.0551 C   0  0  0  0  0  0  0  0  0  0  0  0
  -30.6490  -14.8638   20.7134 C   0  0  0  0  0  0  0  0  0  0  0  0
  -25.5135  -29.5910   20.2298 C   0  0  0  0  0  0  0  0  0  0  0  0
  -30.0322  -26.3073   16.8803 C   0  0  0  0  0  0  0  0  0  0  0  0
  -29.5954  -23.3842   16.7853 C   0  0  0  0  0  0  0  0  0  0  0  0
  -34.3601  -21.5094   23.3557 C   0  0  0  0  0  0  0  0  0  0  0  0
  -25.1446  -28.5319   19.1943 C   0  0  0  0  0  0  0  0  0  0  0  0
  -34.2111  -22.1501   21.9876 C   0  0  0  0  0  0  0  0  0  0  0  0
  -29.5712  -12.5074   18.2716 C   0  0  0  0  0  0  0  0  0  0  0  0
  -25.5277  -27.1419   19.6925 C   0  0  0  0  0  0  0  0  0  0  0  0
  -28.1407  -12.1710   18.6990 C   0  0  0  0  0  0  0  0  0  0  0  0
  -30.4887  -12.7153   19.4752 C   0  0  0  0  0  0  0  0  0  0  0  0
  -33.7992  -19.7000   21.3945 C   0  0  0  0  0  0  0  0  0  0  0  0
  -28.5754  -13.3523   20.8904 C   0  0  0  0  0  0  0  0  0  0  0  0
  -27.0408  -27.0339   19.9168 C   0  0  1  0  0  0  0  0  0  0  0  0
  -28.6368  -25.7082   16.7343 C   0  0  1  0  0  0  0  0  0  0  0  0
  -34.2053  -21.0927   20.8770 C   0  0  1  0  0  0  0  0  0  0  0  0
  -27.5992  -13.1979   19.7128 C   0  0  2  0  0  0  0  0  0  0  0  0
  -28.6857  -20.6129   10.9000 C   0  0  0  0  0  0  0  0  0  0  0  0
  -25.8902  -21.9912   16.7443 C   0  0  0  0  0  0  0  0  0  0  0  0
  -26.2643  -20.3685   14.8748 C   0  0  0  0  0  0  0  0  0  0  0  0
  -25.1326  -22.5459   14.4264 C   0  0  0  0  0  0  0  0  0  0  0  0
  -29.4542  -20.1936   25.2241 C   0  0  0  0  0  0  0  0  0  0  0  0
  -31.3802  -23.1776   11.6988 C   0  0  0  0  0  0  0  0  0  0  0  0
  -33.3111  -21.5423   19.7201 C   0  0  0  0  0  0  0  0  0  1  0  0
  -27.6165  -22.5138   14.8970 C   0  0  1  0  0  0  0  0  0  0  0  0
  -29.2608  -21.8650   11.5436 C   0  0  2  0  0  0  0  0  0  0  0  0
  -26.2479  -21.8657   15.2499 C   0  0  0  0  0  0  0  0  0  0  0  0
  -25.8498  -11.5497   20.2647 N   0  0  0  0  0  0  0  0  0  0  0  0
  -26.1987  -12.8446   20.1774 N   0  0  0  0  0  0  0  0  0  0  0  0
  -32.8617  -19.7602   22.5232 N   0  0  0  0  0  0  0  0  0  0  0  0
  -28.6592  -24.3502   16.1870 N   0  0  0  0  0  0  0  0  0  0  0  0
  -29.9135  -13.7041   20.3897 N   0  0  0  0  0  0  0  0  0  0  0  0
  -25.3868  -15.0457   20.5041 N   0  0  0  0  0  0  0  0  0  0  0  0
  -22.6511  -13.5917   22.6938 N   0  0  0  0  0  0  0  0  0  0  0  0
  -29.9873  -15.7470   21.5660 N   0  0  0  0  0  0  0  0  0  0  0  0
  -30.3168  -20.2061   24.0473 N   0  0  0  0  0  0  0  0  0  0  0  0
  -27.7284  -26.8687   18.6541 N   0  0  0  0  0  0  0  0  0  0  0  0
  -27.9686  -22.4339   13.4834 N   0  0  0  0  0  0  0  0  0  0  0  0
  -30.6948  -21.9775   11.1538 N   0  3  0  0  0  0  0  0  0  0  0  0
  -32.6433  -20.5890   24.7227 O   0  0  0  0  0  0  0  0  0  0  0  0
  -21.9117  -13.6277   20.5234 O   0  0  0  0  0  0  0  0  0  0  0  0
  -27.4988  -24.5600   18.4552 O   0  0  0  0  0  0  0  0  0  0  0  0
  -26.8735  -24.7613   14.7453 O   0  0  0  0  0  0  0  0  0  0  0  0
  -29.9640  -21.2910   13.7827 O   0  0  0  0  0  0  0  0  0  0  0  0
  -31.7713  -15.0722   20.2455 O   0  0  0  0  0  0  0  0  0  0  0  0
  -21.7081   -6.8882   21.5545 O   0  0  0  0  0  0  0  0  0  0  0  0
  -33.8049  -22.7776   19.2039 O   0  0  0  0  0  0  0  0  0  1  0  0
  -16.2343   -7.2849   22.0877 F   0  0  0  0  0  0  0  0  0  0  0  0
  -20.0141   -5.5742   19.8091 F   0  0  0  0  0  0  0  0  0  0  0  0
  -29.4300  -17.8662   23.0992 S   0  0  0  0  0  0  0  0  0  0  0  0
  1  2  1  0  0  0  0
  1  5  2  0  0  0  0
  2  6  2  0  0  0  0
  3  8  2  0  0  0  0
  3 16  1  0  0  0  0
  4  9  1  0  0  0  0
  4 16  2  0  0  0  0
  5 18  1  0  0  0  0
  6 20  1  0  0  0  0
  7 10  2  0  0  0  0
  7 19  1  0  0  0  0
  8 23  1  0  0  0  0
  9 23  2  0  0  0  0
 10 24  1  0  0  0  0
 11 12  2  0  0  0  0
 11 25  1  0  0  0  0
 12 26  1  0  0  0  0
 13 21  1  0  0  0  0
 13 24  2  0  0  0  0
 14 22  1  0  0  0  0
 14 30  2  0  0  0  0
 15 26  2  0  0  0  0
 15 27  1  0  0  0  0
 16 28  1  0  0  0  0
 17 28  1  0  0  0  0
 17 29  2  0  0  0  0
 17 33  1  0  0  0  0
 18 20  2  0  0  0  0
 18 38  1  0  0  0  0
 19 21  2  0  0  0  0
 19 39  1  0  0  0  0
 20 50  1  0  0  0  0
 21 40  1  0  0  0  0
 22 31  2  0  0  0  0
 22 66  1  0  0  0  0
 23 82  1  0  0  0  0
 24 83  1  0  0  0  0
 25 27  2  0  0  0  0
 25 82  1  0  0  0  0
 26 84  1  0  0  0  0
 27 85  1  0  0  0  0
 28 64  2  0  0  0  0
 29 65  1  0  0  0  0
 29 69  1  0  0  0  0
 30 71  1  0  0  0  0
 30 86  1  0  0  0  0
 31 72  1  0  0  0  0
 31 86  1  0  0  0  0
 32 41  1  0  0  0  0
 32 66  1  0  0  0  0
 32 76  2  0  0  0  0
 33 70  1  0  0  0  0
 33 77  2  0  0  0  0
 34 51  1  0  0  0  0
 34 73  1  0  0  0  0
 34 78  2  0  0  0  0
 35 61  1  0  0  0  0
 35 67  1  0  0  0  0
 35 79  2  0  0  0  0
 36 62  1  0  0  0  0
 36 74  1  0  0  0  0
 36 80  2  0  0  0  0
 37 68  1  0  0  0  0
 37 71  1  0  0  0  0
 37 81  2  0  0  0  0
 38 42  1  0  0  0  0
 39 51  1  0  0  0  0
 40 67  1  0  0  0  0
 41 43  1  0  0  0  0
 42 45  1  0  0  0  0
 43 52  1  0  0  0  0
 44 46  1  0  0  0  0
 44 47  1  0  0  0  0
 45 50  1  0  0  0  0
 46 53  1  0  0  0  0
 47 68  1  0  0  0  0
 48 52  1  0  0  0  0
 48 66  1  0  0  0  0
 49 53  1  0  0  0  0
 49 68  1  0  0  0  0
 50 73  1  0  0  0  0
 51 67  1  0  0  0  0
 52 60  1  0  0  0  0
 53 65  1  0  0  0  0
 54 62  1  0  0  0  0
 55 63  1  0  0  0  0
 56 63  1  0  0  0  0
 57 63  1  0  0  0  0
 58 72  1  0  0  0  0
 59 75  1  0  0  0  0
 60 83  1  0  0  0  0
 61 63  1  0  0  0  0
 61 74  1  0  0  0  0
 62 75  1  0  0  0  0
 64 65  1  0  0  0  0
M  CHG  1  75   1
M  ISO  4  37 100  60 101  71 100  83 101
M  END
> <Batch ID>
0098

> <Smiles>
CNc1sc([100NH:0][100C:0](=O)N2CCCC(n3nc(-c4ccc(Oc5ccc(F)cc5F)cc4)c(C(N)=O)c3N)C2)cc1N1CC([101CH2:1][101O:1]c2ccc3c(c2)CN(C(=O)C(NC(=O)C(C)NC)C(C)(C)C)C(C(=O)NC2CCCc4ccccc42)C3)CCC1=O

> <Shape>
0.236

> <Color>
0.189

> <Negative vol penalty>
0.000

$$$$

  -OEChem-04052300513D

 85 94  0     1  0  0  0  0  0999 V2000
  -21.0182  -36.4229   23.3311 C   0  0  0  0  0  0  0  0  0  0  0  0
  -21.0574  -35.7520   22.1130 C   0  0  0  0  0  0  0  0  0  0  0  0
  -22.6584  -10.2150   20.1926 C   0  0  0  0  0  0  0  0  0  0  0  0
  -24.3770   -9.4094   21.6874 C   0  0  0  0  0  0  0  0  0  0  0  0
  -29.1604  -17.1232   20.0957 C   0  0  0  0  0  0  0  0  0  0  0  0
  -28.8509  -17.5426   22.4548 C   0  0  0  0  0  0  0  0  0  0  0  0
  -22.1702  -36.5176   24.1108 C   0  0  0  0  0  0  0  0  0  0  0  0
  -22.2489  -35.1764   21.6733 C   0  0  0  0  0  0  0  0  0  0  0  0
  -23.7780  -27.7969   19.6161 C   0  0  0  0  0  0  0  0  0  0  0  0
  -28.4115  -18.2609   19.7952 C   0  0  0  0  0  0  0  0  0  0  0  0
  -28.1020  -18.6803   22.1543 C   0  0  0  0  0  0  0  0  0  0  0  0
  -21.9468   -9.0287   20.3713 C   0  0  0  0  0  0  0  0  0  0  0  0
  -23.6654   -8.2231   21.8662 C   0  0  0  0  0  0  0  0  0  0  0  0
  -24.2093  -26.4916   19.3788 C   0  0  0  0  0  0  0  0  0  0  0  0
  -20.9947   -7.1667   23.6472 C   0  0  0  0  0  0  0  0  0  0  0  0
  -20.8633   -6.6815   24.9482 C   0  0  0  0  0  0  0  0  0  0  0  0
  -26.4486  -27.0956   20.0633 C   0  0  0  0  0  0  0  0  0  0  0  0
  -21.9939   -4.6461   24.3033 C   0  0  0  0  0  0  0  0  0  0  0  0
  -23.8735  -10.4053   20.8505 C   0  0  0  0  0  0  0  0  0  0  0  0
  -29.3801  -16.7640   21.4256 C   0  0  0  0  0  0  0  0  0  0  0  0
  -24.1748  -12.9360   20.9627 C   0  0  0  0  0  0  0  0  0  0  0  0
  -23.3741  -35.9345   23.6849 C   0  0  0  0  0  0  0  0  0  0  0  0
  -24.6781  -28.7539   20.0930 C   0  0  0  0  0  0  0  0  0  0  0  0
  -23.4184  -35.2646   22.4474 C   0  0  0  0  0  0  0  0  0  0  0  0
  -26.0196  -28.4016   20.3146 C   0  0  0  0  0  0  0  0  0  0  0  0
  -27.8823  -19.0395   20.8245 C   0  0  0  0  0  0  0  0  0  0  0  0
  -22.4503   -8.0328   21.2082 C   0  0  0  0  0  0  0  0  0  0  0  0
  -25.5413  -26.1419   19.6017 C   0  0  0  0  0  0  0  0  0  0  0  0
  -21.6257   -6.3916   22.6741 C   0  0  0  0  0  0  0  0  0  0  0  0
  -21.3629   -5.4212   25.2763 C   0  0  0  0  0  0  0  0  0  0  0  0
  -22.1253   -5.1313   23.0022 C   0  0  0  0  0  0  0  0  0  0  0  0
  -24.6093  -11.6303   20.6658 C   0  0  0  0  0  0  0  0  0  0  0  0
  -25.2319  -13.7384   20.6089 C   0  0  0  0  0  0  0  0  0  0  0  0
  -25.6857  -22.5675   19.9384 C   0  0  0  0  0  0  0  0  0  0  0  0
  -25.3594  -23.8595   20.0817 C   0  0  0  0  0  0  0  0  0  1  0  0
  -30.1609  -15.5778   21.7389 C   0  0  0  0  0  0  0  0  0  0  0  0
  -22.9272  -13.3835   21.5094 C   0  0  0  0  0  0  0  0  0  0  0  0
  -30.7369  -14.7294   20.6704 C   0  0  0  0  0  0  0  0  0  0  0  0
  -25.2301  -32.2967   21.1973 C   0  0  0  0  0  0  0  0  0  0  0  0
  -26.8246  -30.5078   23.1124 C   0  0  0  0  0  0  0  0  0  0  0  0
  -28.0968  -28.1722   25.2487 C   0  0  0  0  0  0  0  0  0  0  0  0
  -24.6050  -36.1039   24.5399 C   0  0  0  0  0  0  0  0  0  0  0  0
  -24.2718  -30.1872   20.3039 C   0  0  0  0  0  0  0  0  0  0  0  0
  -26.9603  -29.4727   20.7950 C   0  0  0  0  0  0  0  0  0  0  0  0
  -25.0267  -21.4672   20.7204 C   0  0  0  0  0  0  0  0  0  0  0  0
  -26.7589  -22.0951   18.9990 C   0  0  0  0  0  0  0  0  0  0  0  0
  -25.7351  -35.1438   24.1774 C   0  0  0  0  0  0  0  0  0  0  0  0
  -29.4369  -12.7079   18.0095 C   0  0  0  0  0  0  0  0  0  0  0  0
  -25.9430  -35.1101   22.6666 C   0  0  0  0  0  0  0  0  0  0  0  0
  -28.0439  -12.3230   18.5067 C   0  0  0  0  0  0  0  0  0  0  0  0
  -26.0672  -20.6086   21.4438 C   0  0  0  0  0  0  0  0  0  0  0  0
  -27.7894  -21.2388   19.7372 C   0  0  0  0  0  0  0  0  0  0  0  0
  -30.4329  -12.8068   19.1604 C   0  0  0  0  0  0  0  0  0  0  0  0
  -28.6112  -13.3595   20.7493 C   0  0  0  0  0  0  0  0  0  0  0  0
  -24.6859  -34.6057   21.9479 C   0  0  1  0  0  0  0  0  0  0  0  0
  -24.9851  -30.8472   21.4976 C   0  0  1  0  0  0  0  0  0  0  0  0
  -27.5713  -13.2769   19.6182 C   0  0  2  0  0  0  0  0  0  0  0  0
  -29.4287  -27.9559   27.3645 C   0  0  0  0  0  0  0  0  0  0  0  0
  -29.3731  -31.1659   21.5711 C   0  0  0  0  0  0  0  0  0  0  0  0
  -30.6777  -30.0397   23.3871 C   0  0  0  0  0  0  0  0  0  0  0  0
  -29.3064  -32.0576   23.9066 C   0  0  0  0  0  0  0  0  0  0  0  0
  -25.8745  -26.8045   26.6449 C   0  0  0  0  0  0  0  0  0  0  0  0
  -28.1485  -29.8608   23.4320 C   0  0  1  0  0  0  0  0  0  0  0  0
  -28.0362  -28.0505   26.7606 C   0  0  2  0  0  0  0  0  0  0  0  0
  -29.3560  -30.7670   23.0602 C   0  0  0  0  0  0  0  0  0  0  0  0
  -25.8460  -11.6005   20.1621 N   0  0  0  0  0  0  0  0  0  0  0  0
  -30.4075  -15.1837   22.9591 N   0  0  0  0  0  0  0  0  0  0  0  0
  -26.1976  -12.8974   20.1396 N   0  0  0  0  0  0  0  0  0  0  0  0
  -27.1304  -20.1819   20.5227 N   0  0  0  0  0  0  0  0  0  0  0  0
  -29.9375  -13.6909   20.2136 N   0  0  0  0  0  0  0  0  0  0  0  0
  -26.3064  -30.2881   21.8304 N   0  0  0  0  0  0  0  0  0  0  0  0
  -25.4202  -15.0744   20.6565 N   0  0  0  0  0  0  0  0  0  0  0  0
  -21.9506  -12.4263   21.8164 N   0  0  0  0  0  0  0  0  0  0  0  0
  -24.5851  -33.1661   22.0562 N   0  0  0  0  0  0  0  0  0  0  0  0
  -28.0917  -29.4896   24.8418 N   0  0  0  0  0  0  0  0  0  0  0  0
  -27.2706  -26.8332   27.1520 N   0  3  0  0  0  0  0  0  0  0  0  0
  -22.6794  -14.5977   21.7042 O   0  0  0  0  0  0  0  0  0  0  0  0
  -31.8633  -15.0366   20.3027 O   0  0  0  0  0  0  0  0  0  0  0  0
  -25.9524  -32.6052   20.2567 O   0  0  0  0  0  0  0  0  0  0  0  0
  -26.2657  -31.1944   23.9723 O   0  0  0  0  0  0  0  0  0  0  0  0
  -28.1478  -27.1963   24.5034 O   0  0  0  0  0  0  0  0  0  0  0  0
  -21.7561   -6.8751   21.3830 O   0  0  0  0  0  0  0  0  0  0  0  0
  -25.9546  -24.8647   19.3723 O   0  0  0  0  0  0  0  0  0  1  0  0
  -21.2379   -4.9559   26.5262 F   0  0  0  0  0  0  0  0  0  0  0  0
  -22.7335   -4.3826   22.0720 F   0  0  0  0  0  0  0  0  0  0  0  0
  1  2  1  0  0  0  0
  1  7  2  0  0  0  0
  2  8  2  0  0  0  0
  3 12  2  0  0  0  0
  3 19  1  0  0  0  0
  4 13  1  0  0  0  0
  4 19  2  0  0  0  0
  5 10  2  0  0  0  0
  5 20  1  0  0  0  0
  6 11  1  0  0  0  0
  6 20  2  0  0  0  0
  7 22  1  0  0  0  0
  8 24  1  0  0  0  0
  9 14  2  0  0  0  0
  9 23  1  0  0  0  0
 10 26  1  0  0  0  0
 11 26  2  0  0  0  0
 12 27  1  0  0  0  0
 13 27  2  0  0  0  0
 14 28  1  0  0  0  0
 15 16  2  0  0  0  0
 15 29  1  0  0  0  0
 16 30  1  0  0  0  0
 17 25  1  0  0  0  0
 17 28  2  0  0  0  0
 18 30  2  0  0  0  0
 18 31  1  0  0  0  0
 19 32  1  0  0  0  0
 20 36  1  0  0  0  0
 21 32  1  0  0  0  0
 21 33  2  0  0  0  0
 21 37  1  0  0  0  0
 22 24  2  0  0  0  0
 22 42  1  0  0  0  0
 23 25  2  0  0  0  0
 23 43  1  0  0  0  0
 24 55  1  0  0  0  0
 25 44  1  0  0  0  0
 26 69  1  0  0  0  0
 27 82  1  0  0  0  0
 28 83  1  0  0  0  0
 29 31  2  0  0  0  0
 29 82  1  0  0  0  0
 30 84  1  0  0  0  0
 31 85  1  0  0  0  0
 32 66  2  0  0  0  0
 33 68  1  0  0  0  0
 33 72  1  0  0  0  0
 34 35  2  0  0  0  0
 34 45  1  0  0  0  0
 34 46  1  0  0  0  0
 35 83  1  0  0  0  0
 36 38  1  0  0  0  0
 36 67  2  0  0  0  0
 37 73  1  0  0  0  0
 37 77  2  0  0  0  0
 38 70  1  0  0  0  0
 38 78  2  0  0  0  0
 39 56  1  0  0  0  0
 39 74  1  0  0  0  0
 39 79  2  0  0  0  0
 40 63  1  0  0  0  0
 40 71  1  0  0  0  0
 40 80  2  0  0  0  0
 41 64  1  0  0  0  0
 41 75  1  0  0  0  0
 41 81  2  0  0  0  0
 42 47  1  0  0  0  0
 43 56  1  0  0  0  0
 44 71  1  0  0  0  0
 45 51  1  0  0  0  0
 46 52  1  0  0  0  0
 47 49  1  0  0  0  0
 48 50  1  0  0  0  0
 48 53  1  0  0  0  0
 49 55  1  0  0  0  0
 50 57  1  0  0  0  0
 51 69  1  0  0  0  0
 52 69  1  0  0  0  0
 53 70  1  0  0  0  0
 54 57  1  0  0  0  0
 54 70  1  0  0  0  0
 55 74  1  0  0  0  0
 56 71  1  0  0  0  0
 57 68  1  0  0  0  0
 58 64  1  0  0  0  0
 59 65  1  0  0  0  0
 60 65  1  0  0  0  0
 61 65  1  0  0  0  0
 62 76  1  0  0  0  0
 63 65  1  0  0  0  0
 63 75  1  0  0  0  0
 64 76  1  0  0  0  0
 66 68  1  0  0  0  0
M  CHG  1  76   1
M  ISO  4  35 101  36 100  38 100  83 101
M  END
> <Batch ID>
0098

> <Smiles>
CNC(C)C(=O)NC(C(=O)N1Cc2cc([101O:1][101CH:1]=C3CCN(c4ccc([100C:0](=N)[100C:0](=O)N5CCCC(n6nc(-c7ccc(Oc8ccc(F)cc8F)cc7)c(C(N)=O)c6N)C5)cc4)CC3)ccc2CC1C(=O)NC1CCCc2ccccc21)C(C)(C)C

> <Shape>
0.365

> <Color>
0.209

> <Negative vol penalty>
0.000

$$$$

  -OEChem-04052300513D

 86 94  0     1  0  0  0  0  0999 V2000
  -27.3630  -32.6627   26.8661 C   0  0  0  0  0  0  0  0  0  0  0  0
  -28.1670  -31.5904   26.4930 C   0  0  0  0  0  0  0  0  0  0  0  0
  -22.4431  -22.8264   20.4785 C   0  0  0  0  0  0  0  0  0  0  0  0
  -20.6562  -22.5658   22.0836 C   0  0  0  0  0  0  0  0  0  0  0  0
  -26.0790  -32.7869   26.3371 C   0  0  0  0  0  0  0  0  0  0  0  0
  -27.6869  -30.6410   25.5916 C   0  0  0  0  0  0  0  0  0  0  0  0
  -29.9134  -26.2808   20.3621 C   0  0  0  0  0  0  0  0  0  0  0  0
  -21.9504  -24.0851   20.1343 C   0  0  0  0  0  0  0  0  0  0  0  0
  -20.1635  -23.8245   21.7394 C   0  0  0  0  0  0  0  0  0  0  0  0
  -29.8565  -24.9414   19.9792 C   0  0  0  0  0  0  0  0  0  0  0  0
  -18.6435  -27.1212   21.5406 C   0  0  0  0  0  0  0  0  0  0  0  0
  -18.2675  -27.9767   22.5761 C   0  0  0  0  0  0  0  0  0  0  0  0
  -28.3233  -13.5477   22.0962 C   0  0  0  0  0  0  0  0  0  0  0  0
  -27.8428  -15.6719   21.0504 C   0  0  0  0  0  0  0  0  0  0  0  0
  -27.6516  -25.3015   19.0693 C   0  0  0  0  0  0  0  0  0  0  0  0
  -29.8442  -15.4038   22.3768 C   0  0  0  0  0  0  0  0  0  0  0  0
  -20.5200  -27.9121   23.4473 C   0  0  0  0  0  0  0  0  0  0  0  0
  -21.7960  -22.0667   21.4531 C   0  0  0  0  0  0  0  0  0  0  0  0
  -27.4960  -14.3452   21.3055 C   0  0  0  0  0  0  0  0  0  0  0  0
  -23.2471  -20.4666   22.8102 C   0  0  0  0  0  0  0  0  0  0  0  0
  -25.5865  -31.8439   25.4214 C   0  0  0  0  0  0  0  0  0  0  0  0
  -28.8336  -27.1394   20.1108 C   0  0  0  0  0  0  0  0  0  0  0  0
  -26.3946  -30.7520   25.0509 C   0  0  0  0  0  0  0  0  0  0  0  0
  -27.6983  -26.6519   19.4477 C   0  0  0  0  0  0  0  0  0  0  0  0
  -29.4974  -14.0771   22.6319 C   0  0  0  0  0  0  0  0  0  0  0  0
  -29.0169  -16.2013   21.5860 C   0  0  0  0  0  0  0  0  0  0  0  0
  -20.8106  -24.5842   20.7647 C   0  0  0  0  0  0  0  0  0  0  0  0
  -28.7243  -24.4508   19.3353 C   0  0  0  0  0  0  0  0  0  0  0  0
  -19.9577  -26.6611   21.4584 C   0  0  0  0  0  0  0  0  0  0  0  0
  -19.2057  -28.3722   23.5295 C   0  0  0  0  0  0  0  0  0  0  0  0
  -20.8960  -27.0566   22.4118 C   0  0  0  0  0  0  0  0  0  0  0  0
  -22.3042  -20.7662   21.8088 C   0  0  0  0  0  0  0  0  0  0  0  0
  -23.3906  -19.1020   22.7496 C   0  0  0  0  0  0  0  0  0  0  0  0
  -26.2464  -13.7808   20.7339 C   0  0  0  0  0  0  0  0  0  0  0  0
  -23.9321  -21.3435   23.7144 C   0  0  0  0  0  0  0  0  0  0  0  0
  -26.8509  -28.8396   21.9224 C   0  0  0  0  0  0  0  0  0  0  0  0
  -25.8168  -29.9590   19.0589 C   0  0  0  0  0  0  0  0  0  0  0  0
  -28.6646  -18.4773   20.5672 C   0  0  0  0  0  0  0  0  0  0  0  0
  -25.5030  -29.4643   15.6968 C   0  0  0  0  0  0  0  0  0  0  0  0
  -23.9944  -14.3857   19.9054 C   0  0  0  0  0  0  0  0  0  0  0  0
  -24.1746  -31.9944   24.9128 C   0  0  0  0  0  0  0  0  0  0  0  0
  -28.9214  -28.5880   20.5062 C   0  0  0  0  0  0  0  0  0  0  0  0
  -26.5204  -27.5374   19.1365 C   0  0  0  0  0  0  0  0  0  0  0  0
  -23.8794  -31.1497   23.6760 C   0  0  0  0  0  0  0  0  0  0  0  0
  -20.6972  -15.6110   20.2571 C   0  0  0  0  0  0  0  0  0  0  0  0
  -24.3972  -29.7274   23.8649 C   0  0  0  0  0  0  0  0  0  0  0  0
  -20.8954  -17.0354   20.7825 C   0  0  0  0  0  0  0  0  0  0  0  0
  -21.7637  -15.2312   19.2309 C   0  0  0  0  0  0  0  0  0  0  0  0
  -23.3452  -16.8544   20.1912 C   0  0  0  0  0  0  0  0  0  0  0  0
  -25.9186  -29.7151   24.0567 C   0  0  1  0  0  0  0  0  0  0  0  0
  -27.5552  -29.2493   20.6600 C   0  0  1  0  0  0  0  0  0  0  0  0
  -22.3378  -17.2595   21.2793 C   0  0  1  0  0  0  0  0  0  0  0  0
  -24.5792  -30.5382   13.6254 C   0  0  0  0  0  0  0  0  0  0  0  0
  -22.9957  -29.1656   19.9087 C   0  0  0  0  0  0  0  0  0  0  0  0
  -22.2934  -29.3649   17.5139 C   0  0  0  0  0  0  0  0  0  0  0  0
  -23.1503  -31.3665   18.7311 C   0  0  0  0  0  0  0  0  0  0  0  0
  -28.1757  -29.5949   14.4325 C   0  0  0  0  0  0  0  0  0  0  0  0
  -29.3956  -19.8126   20.5464 C   0  0  0  0  0  0  0  0  0  0  0  0
  -28.6653  -20.8693   19.7248 C   0  0  0  0  0  0  0  0  0  0  0  0
  -29.3898  -22.2071   19.7579 C   0  0  0  0  0  0  0  0  0  1  0  0
  -24.7630  -29.5374   18.0636 C   0  0  1  0  0  0  0  0  0  0  0  0
  -25.8017  -30.3672   14.5136 C   0  0  2  0  0  0  0  0  0  0  0  0
  -23.3218  -29.8412   18.5618 C   0  0  0  0  0  0  0  0  0  0  0  0
  -21.8788  -19.6793   21.1594 N   0  0  0  0  0  0  0  0  0  0  0  0
  -22.5576  -18.6834   21.7541 N   0  0  0  0  0  0  0  0  0  0  0  0
  -26.6516  -28.9446   19.5488 N   0  0  0  0  0  0  0  0  0  0  0  0
  -23.1002  -15.4633   19.7816 N   0  0  0  0  0  0  0  0  0  0  0  0
  -30.3339  -13.2712   23.4319 N   0  0  0  0  0  0  0  0  0  0  0  0
  -24.1469  -18.2312   23.4512 N   0  0  0  0  0  0  0  0  0  0  0  0
  -23.6672  -22.7179   23.6416 N   0  0  0  0  0  0  0  0  0  0  0  0
  -29.3682  -17.5476   21.3277 N   0  0  0  0  0  0  0  0  0  0  0  0
  -25.2296  -14.7022   20.4818 N   0  0  0  0  0  0  0  0  0  0  0  0
  -26.5896  -29.8863   22.7859 N   0  0  0  0  0  0  0  0  0  0  0  0
  -25.1088  -30.1862   16.8035 N   0  0  0  0  0  0  0  0  0  0  0  0
  -26.9043  -29.7946   13.6905 N   0  3  0  0  0  0  0  0  0  0  0  0
  -26.1918  -12.5795   20.4851 O   0  0  0  0  0  0  0  0  0  0  0  0
  -24.7668  -20.9226   24.5508 O   0  0  0  0  0  0  0  0  0  0  0  0
  -26.5644  -27.6613   22.0993 O   0  0  0  0  0  0  0  0  0  0  0  0
  -25.9009  -31.1459   19.3842 O   0  0  0  0  0  0  0  0  0  0  0  0
  -27.6043  -18.3061   19.9749 O   0  0  0  0  0  0  0  0  0  0  0  0
  -25.6053  -28.2407   15.6435 O   0  0  0  0  0  0  0  0  0  0  0  0
  -23.7047  -13.2337   19.5674 O   0  0  0  0  0  0  0  0  0  0  0  0
  -20.3297  -25.8125   20.4293 O   0  0  0  0  0  0  0  0  0  0  0  0
  -28.6659  -23.1438   18.9611 O   0  0  0  0  0  0  0  0  0  1  0  0
  -18.8449  -29.1949   24.5230 F   0  0  0  0  0  0  0  0  0  0  0  0
  -22.1604  -26.6189   22.3374 F   0  0  0  0  0  0  0  0  0  0  0  0
  1  2  1  0  0  0  0
  1  5  2  0  0  0  0
  2  6  2  0  0  0  0
  3  8  2  0  0  0  0
  3 18  1  0  0  0  0
  4  9  1  0  0  0  0
  4 18  2  0  0  0  0
  5 21  1  0  0  0  0
  6 23  1  0  0  0  0
  7 10  2  0  0  0  0
  7 22  1  0  0  0  0
  8 27  1  0  0  0  0
  9 27  2  0  0  0  0
 10 28  1  0  0  0  0
 11 12  2  0  0  0  0
 11 29  1  0  0  0  0
 12 30  1  0  0  0  0
 13 19  2  0  0  0  0
 13 25  1  0  0  0  0
 14 19  1  0  0  0  0
 14 26  2  0  0  0  0
 15 24  1  0  0  0  0
 15 28  2  0  0  0  0
 16 25  2  0  0  0  0
 16 26  1  0  0  0  0
 17 30  2  0  0  0  0
 17 31  1  0  0  0  0
 18 32  1  0  0  0  0
 19 34  1  0  0  0  0
 20 32  1  0  0  0  0
 20 33  2  0  0  0  0
 20 35  1  0  0  0  0
 21 23  2  0  0  0  0
 21 41  1  0  0  0  0
 22 24  2  0  0  0  0
 22 42  1  0  0  0  0
 23 50  1  0  0  0  0
 24 43  1  0  0  0  0
 25 68  1  0  0  0  0
 26 71  1  0  0  0  0
 27 83  1  0  0  0  0
 28 84  1  0  0  0  0
 29 31  2  0  0  0  0
 29 83  1  0  0  0  0
 30 85  1  0  0  0  0
 31 86  1  0  0  0  0
 32 64  2  0  0  0  0
 33 65  1  0  0  0  0
 33 69  1  0  0  0  0
 34 72  1  0  0  0  0
 34 76  2  0  0  0  0
 35 70  1  0  0  0  0
 35 77  2  0  0  0  0
 36 51  1  0  0  0  0
 36 73  1  0  0  0  0
 36 78  2  0  0  0  0
 37 61  1  0  0  0  0
 37 66  1  0  0  0  0
 37 79  2  0  0  0  0
 38 58  1  0  0  0  0
 38 71  1  0  0  0  0
 38 80  2  0  0  0  0
 39 62  1  0  0  0  0
 39 74  1  0  0  0  0
 39 81  2  0  0  0  0
 40 67  1  0  0  0  0
 40 72  1  0  0  0  0
 40 82  2  0  0  0  0
 41 44  1  0  0  0  0
 42 51  1  0  0  0  0
 43 66  1  0  0  0  0
 44 46  1  0  0  0  0
 45 47  1  0  0  0  0
 45 48  1  0  0  0  0
 46 50  1  0  0  0  0
 47 52  1  0  0  0  0
 48 67  1  0  0  0  0
 49 52  1  0  0  0  0
 49 67  1  0  0  0  0
 50 73  1  0  0  0  0
 51 66  1  0  0  0  0
 52 65  1  0  0  0  0
 53 62  1  0  0  0  0
 54 63  1  0  0  0  0
 55 63  1  0  0  0  0
 56 63  1  0  0  0  0
 57 75  1  0  0  0  0
 58 59  1  0  0  0  0
 59 60  1  0  0  0  0
 60 84  1  0  0  0  0
 61 63  1  0  0  0  0
 61 74  1  0  0  0  0
 62 75  1  0  0  0  0
 64 65  1  0  0  0  0
M  CHG  1  75   1
M  ISO  4  40 100  60 101  72 100  84 101
M  END
> <Batch ID>
0098

> <Smiles>
CNC(C)C(=O)NC(C(=O)N1Cc2cc([101O:1][101CH2:1]CCC(=O)Nc3cc(N)cc(C(=O)[100NH:0][100C:0](=O)N4CCCC(n5nc(-c6ccc(Oc7ccc(F)cc7F)cc6)c(C(N)=O)c5N)C4)c3)ccc2CC1C(=O)NC1CCCc2ccccc21)C(C)(C)C

> <Shape>
0.265

> <Color>
0.054

> <Negative vol penalty>
0.000

$$$$

  -OEChem-04052300513D

 85 94  0     1  0  0  0  0  0999 V2000
  -19.5331   -8.8402   19.8927 C   0  0  0  0  0  0  0  0  0  0  0  0
  -19.4657  -10.0283   20.6133 C   0  0  0  0  0  0  0  0  0  0  0  0
  -22.6160  -29.4579   21.0739 C   0  0  0  0  0  0  0  0  0  0  0  0
  -23.9028  -28.9678   23.0591 C   0  0  0  0  0  0  0  0  0  0  0  0
  -20.7323   -8.1318   19.8291 C   0  0  0  0  0  0  0  0  0  0  0  0
  -20.5973  -10.5081   21.2718 C   0  0  0  0  0  0  0  0  0  0  0  0
  -23.2935  -17.0128   19.7514 C   0  0  0  0  0  0  0  0  0  0  0  0
  -30.4327  -24.7131   21.8009 C   0  0  0  0  0  0  0  0  0  0  0  0
  -28.7410  -26.1606   20.8628 C   0  0  0  0  0  0  0  0  0  0  0  0
  -31.1241  -25.8281   22.2746 C   0  0  0  0  0  0  0  0  0  0  0  0
  -29.4323  -27.2756   21.3366 C   0  0  0  0  0  0  0  0  0  0  0  0
  -21.5618  -29.9084   21.8684 C   0  0  0  0  0  0  0  0  0  0  0  0
  -22.8486  -29.4183   23.8536 C   0  0  0  0  0  0  0  0  0  0  0  0
  -23.7451  -18.3300   19.6675 C   0  0  0  0  0  0  0  0  0  0  0  0
  -18.3930  -30.8519   23.3824 C   0  0  0  0  0  0  0  0  0  0  0  0
  -17.1044  -30.4331   23.0512 C   0  0  0  0  0  0  0  0  0  0  0  0
  -25.5180  -17.8333   21.2353 C   0  0  0  0  0  0  0  0  0  0  0  0
  -17.7717  -28.1323   23.3647 C   0  0  0  0  0  0  0  0  0  0  0  0
  -23.7865  -28.9876   21.6692 C   0  0  0  0  0  0  0  0  0  0  0  0
  -24.8492  -27.4620   19.9225 C   0  0  0  0  0  0  0  0  0  0  0  0
  -21.8817   -8.6082   20.4792 C   0  0  0  0  0  0  0  0  0  0  0  0
  -23.9626  -16.0957   20.5667 C   0  0  0  0  0  0  0  0  0  0  0  0
  -21.8127   -9.8047   21.2180 C   0  0  0  0  0  0  0  0  0  0  0  0
  -25.0778  -16.5093   21.3138 C   0  0  0  0  0  0  0  0  0  0  0  0
  -29.2412  -24.8794   21.0949 C   0  0  0  0  0  0  0  0  0  0  0  0
  -30.6239  -27.1094   22.0424 C   0  0  0  0  0  0  0  0  0  0  0  0
  -21.6781  -29.8886   23.2582 C   0  0  0  0  0  0  0  0  0  0  0  0
  -24.8545  -18.7393   20.4078 C   0  0  0  0  0  0  0  0  0  0  0  0
  -19.3710  -29.9109   23.7046 C   0  0  0  0  0  0  0  0  0  0  0  0
  -16.7937  -29.0733   23.0424 C   0  0  0  0  0  0  0  0  0  0  0  0
  -19.0603  -28.5512   23.6958 C   0  0  0  0  0  0  0  0  0  0  0  0
  -24.8756  -28.5215   20.8490 C   0  0  0  0  0  0  0  0  0  0  0  0
  -26.1228  -27.4223   19.4098 C   0  0  0  0  0  0  0  0  0  0  0  0
  -27.1043  -21.4621   19.7483 C   0  0  0  0  0  0  0  0  0  0  0  0
  -26.5682  -20.2404   19.8764 C   0  0  0  0  0  0  0  0  0  1  0  0
  -23.7698  -26.5915   19.5578 C   0  0  0  0  0  0  0  0  0  0  0  0
  -24.1757  -12.5751   21.8458 C   0  0  0  0  0  0  0  0  0  0  0  0
  -27.0501  -13.5057   21.3144 C   0  0  0  0  0  0  0  0  0  0  0  0
  -29.6138  -14.5420   19.8123 C   0  0  0  0  0  0  0  0  0  0  0  0
  -31.3102  -29.5173   21.8947 C   0  0  0  0  0  0  0  0  0  0  0  0
  -23.1430   -7.7833   20.4211 C   0  0  0  0  0  0  0  0  0  0  0  0
  -23.4743  -14.6826   20.7351 C   0  0  0  0  0  0  0  0  0  0  0  0
  -25.7453  -15.4972   22.2042 C   0  0  0  0  0  0  0  0  0  0  0  0
  -28.5072  -21.6915   19.2625 C   0  0  0  0  0  0  0  0  0  0  0  0
  -26.3632  -22.7207   20.1006 C   0  0  0  0  0  0  0  0  0  0  0  0
  -24.3940   -8.5533   20.8364 C   0  0  0  0  0  0  0  0  0  0  0  0
  -29.9195  -30.1905   18.5323 C   0  0  0  0  0  0  0  0  0  0  0  0
  -24.1381   -9.3341   22.1216 C   0  0  0  0  0  0  0  0  0  0  0  0
  -28.4451  -29.8263   18.6959 C   0  0  0  0  0  0  0  0  0  0  0  0
  -29.2979  -22.5493   20.2533 C   0  0  0  0  0  0  0  0  0  0  0  0
  -27.1670  -23.5659   21.0905 C   0  0  0  0  0  0  0  0  0  0  0  0
  -30.5346  -30.6655   19.8453 C   0  0  0  0  0  0  0  0  0  0  0  0
  -28.8933  -29.3259   21.1311 C   0  0  0  0  0  0  0  0  0  0  0  0
  -23.0251  -10.3704   21.9253 C   0  0  1  0  0  0  0  0  0  0  0  0
  -24.6167  -13.6669   20.9157 C   0  0  1  0  0  0  0  0  0  0  0  0
  -28.2611  -28.8060   19.8314 C   0  0  1  0  0  0  0  0  0  0  0  0
  -30.5676  -12.5406   18.6368 C   0  0  0  0  0  0  0  0  0  0  0  0
  -27.4081  -14.0327   24.2974 C   0  0  0  0  0  0  0  0  0  0  0  0
  -29.8498  -14.3844   23.8700 C   0  0  0  0  0  0  0  0  0  0  0  0
  -28.8081  -12.1688   23.3915 C   0  0  0  0  0  0  0  0  0  0  0  0
  -32.3352  -28.0553   23.5810 C   0  0  0  0  0  0  0  0  0  0  0  0
  -32.3913  -15.4725   20.2350 C   0  0  0  0  0  0  0  0  0  0  0  0
  -28.3022  -14.1292   21.8772 C   0  0  1  0  0  0  0  0  0  0  0  0
  -30.7860  -13.9968   19.0167 C   0  0  2  0  0  0  0  0  0  0  0  0
  -28.5726  -13.6943   23.3453 C   0  0  0  0  0  0  0  0  0  0  0  0
  -26.0713  -29.1122   20.9228 N   0  0  0  0  0  0  0  0  0  0  0  0
  -26.8081  -28.4214   20.0362 N   0  0  0  0  0  0  0  0  0  0  0  0
  -28.5479  -23.7600   20.6175 N   0  0  0  0  0  0  0  0  0  0  0  0
  -25.8534  -14.2070   21.5054 N   0  0  0  0  0  0  0  0  0  0  0  0
  -30.2996  -29.7122   20.9310 N   0  0  0  0  0  0  0  0  0  0  0  0
  -26.7121  -26.6306   18.4887 N   0  0  0  0  0  0  0  0  0  0  0  0
  -23.6001  -25.4004   20.2766 N   0  0  0  0  0  0  0  0  0  0  0  0
  -23.5307  -11.5270   21.2174 N   0  0  0  0  0  0  0  0  0  0  0  0
  -29.3768  -13.7969   20.9481 N   0  0  0  0  0  0  0  0  0  0  0  0
  -31.3389  -28.2624   22.5324 N   0  0  0  0  0  0  0  0  0  0  0  0
  -32.0418  -14.0914   19.8136 N   0  3  0  0  0  0  0  0  0  0  0  0
  -22.9893  -26.8541   18.6116 O   0  0  0  0  0  0  0  0  0  0  0  0
  -24.4046  -12.6744   23.0455 O   0  0  0  0  0  0  0  0  0  0  0  0
  -27.1272  -12.4235   20.7260 O   0  0  0  0  0  0  0  0  0  0  0  0
  -28.9748  -15.5321   19.4633 O   0  0  0  0  0  0  0  0  0  0  0  0
  -32.0990  -30.4178   22.2071 O   0  0  0  0  0  0  0  0  0  0  0  0
  -20.6497  -30.3284   24.0339 O   0  0  0  0  0  0  0  0  0  0  0  0
  -25.2928  -20.0256   20.3178 O   0  0  0  0  0  0  0  0  0  1  0  0
  -15.5558  -28.6713   22.7259 F   0  0  0  0  0  0  0  0  0  0  0  0
  -19.9953  -27.6426   24.0056 F   0  0  0  0  0  0  0  0  0  0  0  0
  1  2  1  0  0  0  0
  1  5  2  0  0  0  0
  2  6  2  0  0  0  0
  3 12  2  0  0  0  0
  3 19  1  0  0  0  0
  4 13  1  0  0  0  0
  4 19  2  0  0  0  0
  5 21  1  0  0  0  0
  6 23  1  0  0  0  0
  7 14  2  0  0  0  0
  7 22  1  0  0  0  0
  8 10  2  0  0  0  0
  8 25  1  0  0  0  0
  9 11  1  0  0  0  0
  9 25  2  0  0  0  0
 10 26  1  0  0  0  0
 11 26  2  0  0  0  0
 12 27  1  0  0  0  0
 13 27  2  0  0  0  0
 14 28  1  0  0  0  0
 15 16  2  0  0  0  0
 15 29  1  0  0  0  0
 16 30  1  0  0  0  0
 17 24  1  0  0  0  0
 17 28  2  0  0  0  0
 18 30  2  0  0  0  0
 18 31  1  0  0  0  0
 19 32  1  0  0  0  0
 20 32  1  0  0  0  0
 20 33  2  0  0  0  0
 20 36  1  0  0  0  0
 21 23  2  0  0  0  0
 21 41  1  0  0  0  0
 22 24  2  0  0  0  0
 22 42  1  0  0  0  0
 23 54  1  0  0  0  0
 24 43  1  0  0  0  0
 25 68  1  0  0  0  0
 26 75  1  0  0  0  0
 27 82  1  0  0  0  0
 28 83  1  0  0  0  0
 29 31  2  0  0  0  0
 29 82  1  0  0  0  0
 30 84  1  0  0  0  0
 31 85  1  0  0  0  0
 32 66  2  0  0  0  0
 33 67  1  0  0  0  0
 33 71  1  0  0  0  0
 34 35  2  0  0  0  0
 34 44  1  0  0  0  0
 34 45  1  0  0  0  0
 35 83  1  0  0  0  0
 36 72  1  0  0  0  0
 36 77  2  0  0  0  0
 37 55  1  0  0  0  0
 37 73  1  0  0  0  0
 37 78  2  0  0  0  0
 38 63  1  0  0  0  0
 38 69  1  0  0  0  0
 38 79  2  0  0  0  0
 39 64  1  0  0  0  0
 39 74  1  0  0  0  0
 39 80  2  0  0  0  0
 40 70  1  0  0  0  0
 40 75  1  0  0  0  0
 40 81  2  0  0  0  0
 41 46  1  0  0  0  0
 42 55  1  0  0  0  0
 43 69  1  0  0  0  0
 44 50  1  0  0  0  0
 45 51  1  0  0  0  0
 46 48  1  0  0  0  0
 47 49  1  0  0  0  0
 47 52  1  0  0  0  0
 48 54  1  0  0  0  0
 49 56  1  0  0  0  0
 50 68  1  0  0  0  0
 51 68  1  0  0  0  0
 52 70  1  0  0  0  0
 53 56  1  0  0  0  0
 53 70  1  0  0  0  0
 54 73  1  0  0  0  0
 55 69  1  0  0  0  0
 56 67  1  0  0  0  0
 57 64  1  0  0  0  0
 58 65  1  0  0  0  0
 59 65  1  0  0  0  0
 60 65  1  0  0  0  0
 61 75  1  0  0  0  0
 62 76  1  0  0  0  0
 63 65  1  0  0  0  0
 63 74  1  0  0  0  0
 64 76  1  0  0  0  0
 66 67  1  0  0  0  0
M  CHG  1  76   1
M  ISO  4  35 101  40 100  75 100  83 101
M  END
> <Batch ID>
0098

> <Smiles>
CNC(C)C(=O)NC(C(=O)N1Cc2cc([101O:1][101CH:1]=C3CCN(c4ccc([100N:0](C)[100C:0](=O)N5CCCC(n6nc(-c7ccc(Oc8ccc(F)cc8F)cc7)c(C(N)=O)c6N)C5)cc4)CC3)ccc2CC1C(=O)NC1CCCc2ccccc21)C(C)(C)C

> <Shape>
0.270

> <Color>
0.058

> <Negative vol penalty>
0.000

$$$$

  -OEChem-04052300513D

 88 97  0     1  0  0  0  0  0999 V2000
  -15.8041  -27.2315   24.1162 C   0  0  0  0  0  0  0  0  0  0  0  0
  -16.8688  -26.7578   23.3563 C   0  0  0  0  0  0  0  0  0  0  0  0
  -24.5832   -8.8007   21.3191 C   0  0  0  0  0  0  0  0  0  0  0  0
  -22.7265  -10.1890   20.6393 C   0  0  0  0  0  0  0  0  0  0  0  0
  -15.6779  -28.5981   24.3617 C   0  0  0  0  0  0  0  0  0  0  0  0
  -17.8075  -27.6507   22.8406 C   0  0  0  0  0  0  0  0  0  0  0  0
  -22.5681  -26.0413   23.4663 C   0  0  0  0  0  0  0  0  0  0  0  0
  -26.6346  -20.7372   23.1960 C   0  0  0  0  0  0  0  0  0  0  0  0
  -26.5113  -19.7671   24.1906 C   0  0  0  0  0  0  0  0  0  0  0  0
  -23.7160   -7.7205   21.4819 C   0  0  0  0  0  0  0  0  0  0  0  0
  -21.8592   -9.1088   20.8021 C   0  0  0  0  0  0  0  0  0  0  0  0
  -23.0293  -25.0610   22.5888 C   0  0  0  0  0  0  0  0  0  0  0  0
  -21.4863   -6.6417   23.7817 C   0  0  0  0  0  0  0  0  0  0  0  0
  -21.6228   -5.8702   24.9357 C   0  0  0  0  0  0  0  0  0  0  0  0
  -24.1635  -26.7560   21.3006 C   0  0  0  0  0  0  0  0  0  0  0  0
  -27.5444  -19.0795   21.6921 C   0  0  0  0  0  0  0  0  0  0  0  0
  -22.0719   -3.9215   23.5798 C   0  0  0  0  0  0  0  0  0  0  0  0
  -24.0885  -10.0350   20.8978 C   0  0  0  0  0  0  0  0  0  0  0  0
  -26.0903  -11.2310   19.8632 C   0  0  0  0  0  0  0  0  0  0  0  0
  -16.6209  -29.5073   23.8569 C   0  0  0  0  0  0  0  0  0  0  0  0
  -22.8927  -27.3900   23.2609 C   0  0  0  0  0  0  0  0  0  0  0  0
  -17.6931  -29.0310   23.0785 C   0  0  0  0  0  0  0  0  0  0  0  0
  -23.7073  -27.7513   22.1784 C   0  0  0  0  0  0  0  0  0  0  0  0
  -27.1511  -20.3933   21.9466 C   0  0  0  0  0  0  0  0  0  0  0  0
  -26.9046  -18.4533   23.9361 C   0  0  0  0  0  0  0  0  0  0  0  0
  -22.3540   -7.8745   21.2234 C   0  0  0  0  0  0  0  0  0  0  0  0
  -23.8247  -25.4185   21.5042 C   0  0  0  0  0  0  0  0  0  0  0  0
  -21.6425   -6.0531   22.5267 C   0  0  0  0  0  0  0  0  0  0  0  0
  -21.9157   -4.5101   24.8348 C   0  0  0  0  0  0  0  0  0  0  0  0
  -27.4211  -18.1094   22.6868 C   0  0  0  0  0  0  0  0  0  0  0  0
  -21.9353   -4.6931   22.4258 C   0  0  0  0  0  0  0  0  0  0  0  0
  -24.9838  -11.1515   20.7299 C   0  0  0  0  0  0  0  0  0  0  0  0
  -26.6048  -12.4862   20.0777 C   0  0  0  0  0  0  0  0  0  0  0  0
  -28.2943  -21.3101   19.9460 C   0  0  0  0  0  0  0  0  0  0  0  0
  -26.6067  -10.2572   18.9463 C   0  0  0  0  0  0  0  0  0  0  0  0
  -21.2272  -30.0358   22.6866 C   0  0  0  0  0  0  0  0  0  0  0  0
  -24.1230  -31.4618   23.0075 C   0  0  0  0  0  0  0  0  0  0  0  0
  -27.5162  -30.7926   21.9800 C   0  0  0  0  0  0  0  0  0  0  0  0
  -26.5478  -16.0958   24.6477 C   0  0  0  0  0  0  0  0  0  0  0  0
  -16.4165  -30.9801   24.1090 C   0  0  0  0  0  0  0  0  0  0  0  0
  -22.4094  -28.4323   24.2317 C   0  0  0  0  0  0  0  0  0  0  0  0
  -24.1011  -29.1828   21.9253 C   0  0  0  0  0  0  0  0  0  0  0  0
  -28.1584  -22.2212   18.7406 C   0  0  0  0  0  0  0  0  0  0  0  0
  -17.6611  -31.8224   23.8411 C   0  0  0  0  0  0  0  0  0  0  0  0
  -27.5540  -23.5742   19.0455 C   0  0  0  0  0  0  0  0  0  0  0  0
  -25.3212  -16.8913   21.4064 C   0  0  0  0  0  0  0  0  0  0  0  0
  -18.2940  -31.4311   22.5094 C   0  0  0  0  0  0  0  0  0  0  0  0
  -25.1929  -15.5026   20.7813 C   0  0  0  0  0  0  0  0  0  0  0  0
  -24.9023  -16.8980   22.8769 C   0  0  0  0  0  0  0  0  0  0  0  0
  -26.4521  -22.6128   21.0467 C   0  0  0  0  0  0  0  0  0  0  0  0
  -25.4719  -14.4983   23.0801 C   0  0  0  0  0  0  0  0  0  0  0  0
  -18.7455  -29.9657   22.5226 C   0  0  1  0  0  0  0  0  0  0  0  0
  -22.3760  -29.8356   23.6342 C   0  0  1  0  0  0  0  0  0  0  0  0
  -26.2179  -23.3699   19.7402 C   0  0  1  0  0  0  0  0  0  0  0  0
  -25.9408  -14.4493   21.6176 C   0  0  1  0  0  0  0  0  0  0  0  0
  -28.6267  -17.7976   26.5642 C   0  0  0  0  0  0  0  0  0  0  0  0
  -29.6986  -31.4865   23.0062 C   0  0  0  0  0  0  0  0  0  0  0  0
  -23.9653  -33.8014   21.0551 C   0  0  0  0  0  0  0  0  0  0  0  0
  -26.4387  -33.6010   20.7236 C   0  0  0  0  0  0  0  0  0  0  0  0
  -25.5249  -34.1511   22.9786 C   0  0  0  0  0  0  0  0  0  0  0  0
  -28.4597  -27.9926   22.1495 C   0  0  0  0  0  0  0  0  0  0  0  0
  -25.5268  -24.7061   20.0037 C   0  0  0  0  0  0  0  0  0  1  0  0
  -27.1275  -17.8159   26.3449 C   0  0  0  0  0  0  0  0  0  0  0  0
  -25.2543  -31.8075   22.0695 C   0  0  1  0  0  0  0  0  0  0  0  0
  -28.6703  -30.3740   22.8729 C   0  0  2  0  0  0  0  0  0  0  0  0
  -25.2787  -33.3180   21.7018 C   0  0  0  0  0  0  0  0  0  0  0  0
  -24.8053  -12.2673   21.4420 N   0  0  0  0  0  0  0  0  0  0  0  0
  -25.8066  -13.0598   21.0232 N   0  0  0  0  0  0  0  0  0  0  0  0
  -27.2797  -21.3999   20.9145 N   0  0  0  0  0  0  0  0  0  0  0  0
  -23.5985  -30.1661   22.8990 N   0  0  0  0  0  0  0  0  0  0  0  0
  -25.6115  -15.8507   23.6255 N   0  0  0  0  0  0  0  0  0  0  0  0
  -27.6578  -13.1443   19.5478 N   0  0  0  0  0  0  0  0  0  0  0  0
  -26.1202  -10.2532   17.6319 N   0  0  0  0  0  0  0  0  0  0  0  0
  -19.9855  -29.8255   23.2554 N   0  0  0  0  0  0  0  0  0  0  0  0
  -26.4751  -31.3282   22.7084 N   0  0  0  0  0  0  0  0  0  0  0  0
  -26.7762  -17.4514   24.9681 N   0  0  0  0  0  0  0  0  0  0  0  0
  -29.3490  -29.1714   22.3125 N   0  3  0  0  0  0  0  0  0  0  0  0
  -29.2403  -20.5181   19.9702 O   0  0  0  0  0  0  0  0  0  0  0  0
  -27.4619   -9.4051   19.2870 O   0  0  0  0  0  0  0  0  0  0  0  0
  -21.4507  -30.3586   21.5258 O   0  0  0  0  0  0  0  0  0  0  0  0
  -23.7244  -32.3079   23.8118 O   0  0  0  0  0  0  0  0  0  0  0  0
  -27.5377  -30.6613   20.7582 O   0  0  0  0  0  0  0  0  0  0  0  0
  -27.1163  -15.1745   25.2460 O   0  0  0  0  0  0  0  0  0  0  0  0
  -21.5074   -6.8206   21.3820 O   0  0  0  0  0  0  0  0  0  0  0  0
  -24.2757  -24.4637   20.6458 O   0  0  0  0  0  0  0  0  0  1  0  0
  -22.0483   -3.7697   25.9431 F   0  0  0  0  0  0  0  0  0  0  0  0
  -27.8037  -16.8500   22.4313 F   0  0  0  0  0  0  0  0  0  0  0  0
  -22.0877   -4.1223   21.2230 F   0  0  0  0  0  0  0  0  0  0  0  0
  1  2  1  0  0  0  0
  1  5  2  0  0  0  0
  2  6  2  0  0  0  0
  3 10  2  0  0  0  0
  3 18  1  0  0  0  0
  4 11  1  0  0  0  0
  4 18  2  0  0  0  0
  5 20  1  0  0  0  0
  6 22  1  0  0  0  0
  7 12  2  0  0  0  0
  7 21  1  0  0  0  0
  8  9  2  0  0  0  0
  8 24  1  0  0  0  0
  9 25  1  0  0  0  0
 10 26  1  0  0  0  0
 11 26  2  0  0  0  0
 12 27  1  0  0  0  0
 13 14  2  0  0  0  0
 13 28  1  0  0  0  0
 14 29  1  0  0  0  0
 15 23  1  0  0  0  0
 15 27  2  0  0  0  0
 16 24  2  0  0  0  0
 16 30  1  0  0  0  0
 17 29  2  0  0  0  0
 17 31  1  0  0  0  0
 18 32  1  0  0  0  0
 19 32  1  0  0  0  0
 19 33  2  0  0  0  0
 19 35  1  0  0  0  0
 20 22  2  0  0  0  0
 20 40  1  0  0  0  0
 21 23  2  0  0  0  0
 21 41  1  0  0  0  0
 22 52  1  0  0  0  0
 23 42  1  0  0  0  0
 24 69  1  0  0  0  0
 25 30  2  0  0  0  0
 25 76  1  0  0  0  0
 26 84  1  0  0  0  0
 27 85  1  0  0  0  0
 28 31  2  0  0  0  0
 28 84  1  0  0  0  0
 29 86  1  0  0  0  0
 30 87  1  0  0  0  0
 31 88  1  0  0  0  0
 32 67  2  0  0  0  0
 33 68  1  0  0  0  0
 33 72  1  0  0  0  0
 34 43  1  0  0  0  0
 34 69  1  0  0  0  0
 34 78  2  0  0  0  0
 35 73  1  0  0  0  0
 35 79  2  0  0  0  0
 36 53  1  0  0  0  0
 36 74  1  0  0  0  0
 36 80  2  0  0  0  0
 37 64  1  0  0  0  0
 37 70  1  0  0  0  0
 37 81  2  0  0  0  0
 38 65  1  0  0  0  0
 38 75  1  0  0  0  0
 38 82  2  0  0  0  0
 39 71  1  0  0  0  0
 39 76  1  0  0  0  0
 39 83  2  0  0  0  0
 40 44  1  0  0  0  0
 41 53  1  0  0  0  0
 42 70  1  0  0  0  0
 43 45  1  0  0  0  0
 44 47  1  0  0  0  0
 45 54  1  0  0  0  0
 46 48  1  0  0  0  0
 46 49  1  0  0  0  0
 47 52  1  0  0  0  0
 48 55  1  0  0  0  0
 49 71  1  0  0  0  0
 50 54  1  0  0  0  0
 50 69  1  0  0  0  0
 51 55  1  0  0  0  0
 51 71  1  0  0  0  0
 52 74  1  0  0  0  0
 53 70  1  0  0  0  0
 54 62  1  0  0  0  0
 55 68  1  0  0  0  0
 56 63  1  0  0  0  0
 57 65  1  0  0  0  0
 58 66  1  0  0  0  0
 59 66  1  0  0  0  0
 60 66  1  0  0  0  0
 61 77  1  0  0  0  0
 62 85  1  0  0  0  0
 63 76  1  0  0  0  0
 64 66  1  0  0  0  0
 64 75  1  0  0  0  0
 65 77  1  0  0  0  0
 67 68  1  0  0  0  0
M  CHG  1  77   1
M  ISO  4  39 100  62 101  76 100  85 101
M  END
> <Batch ID>
0098

> <Smiles>
CC[100N:0](c1ccc(N2CC([101CH2:1][101O:1]c3ccc4c(c3)CN(C(=O)C(NC(=O)C(C)NC)C(C)(C)C)C(C(=O)NC3CCCc5ccccc53)C4)CCC2=O)cc1F)[100C:0](=O)N1CCCC(n2nc(-c3ccc(Oc4ccc(F)cc4F)cc3)c(C(N)=O)c2N)C1

> <Shape>
0.271

> <Color>
0.119

> <Negative vol penalty>
0.000

$$$$

  -OEChem-04052300513D

 85 93  0     1  0  0  0  0  0999 V2000
  -16.0829  -29.3591   23.5652 C   0  0  0  0  0  0  0  0  0  0  0  0
  -16.9380  -28.3750   24.0508 C   0  0  0  0  0  0  0  0  0  0  0  0
  -23.3906  -10.3121   21.2951 C   0  0  0  0  0  0  0  0  0  0  0  0
  -24.8033   -8.5613   22.1759 C   0  0  0  0  0  0  0  0  0  0  0  0
  -29.3864  -19.6047   21.1102 C   0  0  0  0  0  0  0  0  0  0  0  0
  -16.5747  -30.3533   22.7204 C   0  0  0  0  0  0  0  0  0  0  0  0
  -18.2852  -28.3839   23.6911 C   0  0  0  0  0  0  0  0  0  0  0  0
  -23.0347  -26.6866   27.1648 C   0  0  0  0  0  0  0  0  0  0  0  0
  -28.7324  -20.3567   22.0861 C   0  0  0  0  0  0  0  0  0  0  0  0
  -22.3362   -9.4057   21.1845 C   0  0  0  0  0  0  0  0  0  0  0  0
  -23.7489   -7.6549   22.0653 C   0  0  0  0  0  0  0  0  0  0  0  0
  -23.7719  -25.5052   27.2333 C   0  0  0  0  0  0  0  0  0  0  0  0
  -20.9468   -6.8743   23.7856 C   0  0  0  0  0  0  0  0  0  0  0  0
  -20.7112   -6.0218   24.8642 C   0  0  0  0  0  0  0  0  0  0  0  0
  -25.4252  -26.4586   25.7579 C   0  0  0  0  0  0  0  0  0  0  0  0
  -28.0424  -18.3222   23.1914 C   0  0  0  0  0  0  0  0  0  0  0  0
  -21.0867   -4.1102   23.4352 C   0  0  0  0  0  0  0  0  0  0  0  0
  -24.6242   -9.8899   21.7907 C   0  0  0  0  0  0  0  0  0  0  0  0
  -29.3683  -18.2114   21.1748 C   0  0  0  0  0  0  0  0  0  0  0  0
  -26.0269  -11.6353   23.0129 C   0  0  0  0  0  0  0  0  0  0  0  0
  -17.9306  -30.3800   22.3578 C   0  0  0  0  0  0  0  0  0  0  0  0
  -23.4825  -27.7607   26.3824 C   0  0  0  0  0  0  0  0  0  0  0  0
  -18.7952  -29.3787   22.8395 C   0  0  0  0  0  0  0  0  0  0  0  0
  -24.6932  -27.6534   25.6832 C   0  0  0  0  0  0  0  0  0  0  0  0
  -28.0604  -19.7155   23.1267 C   0  0  0  0  0  0  0  0  0  0  0  0
  -22.5153   -8.0771   21.5697 C   0  0  0  0  0  0  0  0  0  0  0  0
  -24.9659  -25.3900   26.5275 C   0  0  0  0  0  0  0  0  0  0  0  0
  -21.2522   -6.3447   22.5318 C   0  0  0  0  0  0  0  0  0  0  0  0
  -20.7812   -4.6397   24.6890 C   0  0  0  0  0  0  0  0  0  0  0  0
  -28.6964  -17.5702   22.2155 C   0  0  0  0  0  0  0  0  0  0  0  0
  -21.3222   -4.9627   22.3566 C   0  0  0  0  0  0  0  0  0  0  0  0
  -25.7140  -10.8256   21.9046 C   0  0  0  0  0  0  0  0  0  0  0  0
  -27.1412  -12.3367   22.6220 C   0  0  0  0  0  0  0  0  0  0  0  0
  -30.0657  -17.4146   20.1330 C   0  0  0  0  0  0  0  0  0  0  0  0
  -25.3691  -11.7437   24.2823 C   0  0  0  0  0  0  0  0  0  0  0  0
  -22.3463  -29.3247   23.8592 C   0  0  0  0  0  0  0  0  0  0  0  0
  -26.5794  -22.3891   25.3040 C   0  0  0  0  0  0  0  0  0  0  0  0
  -24.9075  -31.2447   24.3852 C   0  0  0  0  0  0  0  0  0  0  0  0
  -28.0349  -31.6069   25.7024 C   0  0  0  0  0  0  0  0  0  0  0  0
  -29.9885  -15.2774   18.8880 C   0  0  0  0  0  0  0  0  0  0  0  0
  -18.4061  -31.4473   21.4041 C   0  0  0  0  0  0  0  0  0  0  0  0
  -22.6892  -29.0379   26.3403 C   0  0  0  0  0  0  0  0  0  0  0  0
  -25.2278  -28.7848   24.8450 C   0  0  0  0  0  0  0  0  0  0  0  0
  -19.9244  -31.6022   21.3714 C   0  0  0  0  0  0  0  0  0  0  0  0
  -30.1556  -11.7586   18.5930 C   0  0  0  0  0  0  0  0  0  0  0  0
  -20.5983  -30.2374   21.2720 C   0  0  0  0  0  0  0  0  0  0  0  0
  -29.0460  -11.2649   19.5253 C   0  0  0  0  0  0  0  0  0  0  0  0
  -29.7521  -13.0354   17.8569 C   0  0  0  0  0  0  0  0  0  0  0  0
  -28.1675  -13.6310   19.6436 C   0  0  0  0  0  0  0  0  0  0  0  0
  -20.2680  -29.3689   22.4919 C   0  0  1  0  0  0  0  0  0  0  0  0
  -22.9798  -29.8813   25.1028 C   0  0  1  0  0  0  0  0  0  0  0  0
  -28.5522  -12.3869   20.4606 C   0  0  1  0  0  0  0  0  0  0  0  0
  -29.8898  -33.2800   25.9420 C   0  0  0  0  0  0  0  0  0  0  0  0
  -25.6827  -30.7994   21.4679 C   0  0  0  0  0  0  0  0  0  0  0  0
  -27.9652  -31.6713   22.0139 C   0  0  0  0  0  0  0  0  0  0  0  0
  -25.9720  -33.1479   22.2774 C   0  0  0  0  0  0  0  0  0  0  0  0
  -27.8687  -31.5415   28.6565 C   0  0  0  0  0  0  0  0  0  0  0  0
  -27.3756  -21.9034   24.1115 C   0  0  0  0  0  0  0  0  0  0  0  0
  -26.4665  -23.8944   25.4471 C   0  0  0  0  0  0  0  0  0  1  0  0
  -26.3436  -31.2626   23.9204 C   0  0  1  0  0  0  0  0  0  0  0  0
  -28.6403  -32.6900   26.5770 C   0  0  2  0  0  0  0  0  0  0  0  0
  -26.4801  -31.6981   22.4341 C   0  0  0  0  0  0  0  0  0  0  0  0
  -26.5610  -10.9960   20.8861 N   0  0  0  0  0  0  0  0  0  0  0  0
  -27.4171  -11.9209   21.3527 N   0  0  0  0  0  0  0  0  0  0  0  0
  -24.4128  -30.0108   24.8308 N   0  0  0  0  0  0  0  0  0  0  0  0
  -29.3064  -14.0505   18.8130 N   0  0  0  0  0  0  0  0  0  0  0  0
  -27.9022  -13.2624   23.2437 N   0  0  0  0  0  0  0  0  0  0  0  0
  -24.2378  -10.9508   24.5184 N   0  0  0  0  0  0  0  0  0  0  0  0
  -27.4099  -20.4633   24.0977 N   0  0  0  0  0  0  0  0  0  0  0  0
  -29.5130  -16.1627   19.8617 N   0  0  0  0  0  0  0  0  0  0  0  0
  -21.0604  -29.7768   23.6321 N   0  0  0  0  0  0  0  0  0  0  0  0
  -27.0665  -32.1120   24.8607 N   0  0  0  0  0  0  0  0  0  0  0  0
  -29.0082  -32.1340   27.9099 N   0  3  0  0  0  0  0  0  0  0  0  0
  -31.0353  -17.9010   19.5573 O   0  0  0  0  0  0  0  0  0  0  0  0
  -25.7628  -12.5328   25.1744 O   0  0  0  0  0  0  0  0  0  0  0  0
  -22.9780  -28.5442   23.1568 O   0  0  0  0  0  0  0  0  0  0  0  0
  -26.0544  -21.6223   26.1104 O   0  0  0  0  0  0  0  0  0  0  0  0
  -24.2509  -32.2887   24.3608 O   0  0  0  0  0  0  0  0  0  0  0  0
  -28.3885  -30.4311   25.7575 O   0  0  0  0  0  0  0  0  0  0  0  0
  -30.9611  -15.5467   18.1761 O   0  0  0  0  0  0  0  0  0  0  0  0
  -21.4865   -7.1924   21.4621 O   0  0  0  0  0  0  0  0  0  0  0  0
  -25.6871  -24.2378   26.5921 O   0  0  0  0  0  0  0  0  0  1  0  0
  -20.5565   -3.8212   25.7252 F   0  0  0  0  0  0  0  0  0  0  0  0
  -28.6707  -16.2317   22.2858 F   0  0  0  0  0  0  0  0  0  0  0  0
  -21.6163   -4.4481   21.1547 F   0  0  0  0  0  0  0  0  0  0  0  0
  1  2  1  0  0  0  0
  1  6  2  0  0  0  0
  2  7  2  0  0  0  0
  3 10  2  0  0  0  0
  3 18  1  0  0  0  0
  4 11  1  0  0  0  0
  4 18  2  0  0  0  0
  5  9  2  0  0  0  0
  5 19  1  0  0  0  0
  6 21  1  0  0  0  0
  7 23  1  0  0  0  0
  8 12  2  0  0  0  0
  8 22  1  0  0  0  0
  9 25  1  0  0  0  0
 10 26  1  0  0  0  0
 11 26  2  0  0  0  0
 12 27  1  0  0  0  0
 13 14  2  0  0  0  0
 13 28  1  0  0  0  0
 14 29  1  0  0  0  0
 15 24  1  0  0  0  0
 15 27  2  0  0  0  0
 16 25  2  0  0  0  0
 16 30  1  0  0  0  0
 17 29  2  0  0  0  0
 17 31  1  0  0  0  0
 18 32  1  0  0  0  0
 19 30  2  0  0  0  0
 19 34  1  0  0  0  0
 20 32  1  0  0  0  0
 20 33  2  0  0  0  0
 20 35  1  0  0  0  0
 21 23  2  0  0  0  0
 21 41  1  0  0  0  0
 22 24  2  0  0  0  0
 22 42  1  0  0  0  0
 23 50  1  0  0  0  0
 24 43  1  0  0  0  0
 25 69  1  0  0  0  0
 26 81  1  0  0  0  0
 27 82  1  0  0  0  0
 28 31  2  0  0  0  0
 28 81  1  0  0  0  0
 29 83  1  0  0  0  0
 30 84  1  0  0  0  0
 31 85  1  0  0  0  0
 32 63  2  0  0  0  0
 33 64  1  0  0  0  0
 33 67  1  0  0  0  0
 34 70  1  0  0  0  0
 34 74  2  0  0  0  0
 35 68  1  0  0  0  0
 35 75  2  0  0  0  0
 36 51  1  0  0  0  0
 36 71  1  0  0  0  0
 36 76  2  0  0  0  0
 37 58  1  0  0  0  0
 37 59  1  0  0  0  0
 37 77  2  0  0  0  0
 38 60  1  0  0  0  0
 38 65  1  0  0  0  0
 38 78  2  0  0  0  0
 39 61  1  0  0  0  0
 39 72  1  0  0  0  0
 39 79  2  0  0  0  0
 40 66  1  0  0  0  0
 40 70  1  0  0  0  0
 40 80  2  0  0  0  0
 41 44  1  0  0  0  0
 42 51  1  0  0  0  0
 43 65  1  0  0  0  0
 44 46  1  0  0  0  0
 45 47  1  0  0  0  0
 45 48  1  0  0  0  0
 46 50  1  0  0  0  0
 47 52  1  0  0  0  0
 48 66  1  0  0  0  0
 49 52  1  0  0  0  0
 49 66  1  0  0  0  0
 50 71  1  0  0  0  0
 51 65  1  0  0  0  0
 52 64  1  0  0  0  0
 53 61  1  0  0  0  0
 54 62  1  0  0  0  0
 55 62  1  0  0  0  0
 56 62  1  0  0  0  0
 57 73  1  0  0  0  0
 58 69  1  0  0  0  0
 59 82  1  0  0  0  0
 60 62  1  0  0  0  0
 60 72  1  0  0  0  0
 61 73  1  0  0  0  0
 63 64  1  0  0  0  0
M  CHG  1  73   1
M  ISO  4  40 100  59 101  70 100  82 101
M  END
> <Batch ID>
0098

> <Smiles>
CNC(C)C(=O)NC(C(=O)N1Cc2cc([101O:1][101CH2:1]C(=O)CNc3ccc(C(=O)[100NH:0][100C:0](=O)N4CCCC(n5nc(-c6ccc(Oc7ccc(F)cc7F)cc6)c(C(N)=O)c5N)C4)c(F)c3)ccc2CC1C(=O)NC1CCCc2ccccc21)C(C)(C)C

> <Shape>
0.272

> <Color>
0.117

> <Negative vol penalty>
0.000

$$$$

  -OEChem-04052300513D

 85 94  0     1  0  0  0  0  0999 V2000
  -25.9573  -37.9976   22.7515 C   0  0  0  0  0  0  0  0  0  0  0  0
  -26.6976  -37.0944   21.9954 C   0  0  0  0  0  0  0  0  0  0  0  0
  -23.8243  -12.4893   19.7670 C   0  0  0  0  0  0  0  0  0  0  0  0
  -24.8777  -13.6634   21.5970 C   0  0  0  0  0  0  0  0  0  0  0  0
  -26.8433  -20.8798   18.5837 C   0  0  0  0  0  0  0  0  0  0  0  0
  -27.5804  -19.5892   20.4885 C   0  0  0  0  0  0  0  0  0  0  0  0
  -25.1783  -37.5415   23.8141 C   0  0  0  0  0  0  0  0  0  0  0  0
  -26.6602  -35.7347   22.3022 C   0  0  0  0  0  0  0  0  0  0  0  0
  -26.9844  -29.2959   19.1792 C   0  0  0  0  0  0  0  0  0  0  0  0
  -25.5205  -20.5372   18.8634 C   0  0  0  0  0  0  0  0  0  0  0  0
  -26.2575  -19.2466   20.7683 C   0  0  0  0  0  0  0  0  0  0  0  0
  -25.0656  -11.9902   19.3726 C   0  0  0  0  0  0  0  0  0  0  0  0
  -26.1191  -13.1643   21.2026 C   0  0  0  0  0  0  0  0  0  0  0  0
  -27.6752  -28.0883   19.2701 C   0  0  0  0  0  0  0  0  0  0  0  0
  -28.4408  -13.8429   18.8404 C   0  0  0  0  0  0  0  0  0  0  0  0
  -29.5147  -14.7322   18.8030 C   0  0  0  0  0  0  0  0  0  0  0  0
  -26.2319  -27.4058   21.0785 C   0  0  0  0  0  0  0  0  0  0  0  0
  -30.6894  -13.3820   20.4260 C   0  0  0  0  0  0  0  0  0  0  0  0
  -23.7303  -13.3259   20.8792 C   0  0  0  0  0  0  0  0  0  0  0  0
  -27.8733  -20.4058   19.3962 C   0  0  0  0  0  0  0  0  0  0  0  0
  -21.3170  -13.0996   21.6742 C   0  0  0  0  0  0  0  0  0  0  0  0
  -25.1237  -36.1744   24.1280 C   0  0  0  0  0  0  0  0  0  0  0  0
  -25.9173  -29.5725   20.0460 C   0  0  0  0  0  0  0  0  0  0  0  0
  -25.8808  -35.2601   23.3709 C   0  0  0  0  0  0  0  0  0  0  0  0
  -25.5276  -28.6166   20.9949 C   0  0  0  0  0  0  0  0  0  0  0  0
  -25.2275  -19.7206   19.9557 C   0  0  0  0  0  0  0  0  0  0  0  0
  -26.2130  -12.3277   20.0904 C   0  0  0  0  0  0  0  0  0  0  0  0
  -27.3009  -27.1442   20.2217 C   0  0  0  0  0  0  0  0  0  0  0  0
  -28.4911  -12.7231   19.6706 C   0  0  0  0  0  0  0  0  0  0  0  0
  -30.6390  -14.5018   19.5958 C   0  0  0  0  0  0  0  0  0  0  0  0
  -29.6154  -12.4926   20.4634 C   0  0  0  0  0  0  0  0  0  0  0  0
  -22.4484  -13.8423   21.2868 C   0  0  0  0  0  0  0  0  0  0  0  0
  -20.3664  -14.0478   21.9635 C   0  0  0  0  0  0  0  0  0  0  0  0
  -29.2689  -20.7670   19.1011 C   0  0  0  0  0  0  0  0  0  0  0  0
  -21.1410  -11.6795   21.7645 C   0  0  0  0  0  0  0  0  0  0  0  0
  -25.3415  -31.7767   22.2627 C   0  0  0  0  0  0  0  0  0  0  0  0
  -22.4100  -30.3893   22.3240 C   0  0  0  0  0  0  0  0  0  0  0  0
  -20.5009  -27.6231   21.7319 C   0  0  0  0  0  0  0  0  0  0  0  0
  -23.4071  -18.5730   21.2817 C   0  0  0  0  0  0  0  0  0  0  0  0
  -24.3045  -35.7343   25.3154 C   0  0  0  0  0  0  0  0  0  0  0  0
  -25.1653  -30.8688   19.9173 C   0  0  0  0  0  0  0  0  0  0  0  0
  -24.3760  -28.8565   21.9355 C   0  0  0  0  0  0  0  0  0  0  0  0
  -24.0255  -34.2337   25.3405 C   0  0  0  0  0  0  0  0  0  0  0  0
  -19.6433  -18.5750   20.4447 C   0  0  0  0  0  0  0  0  0  0  0  0
  -25.3014  -33.4487   25.0528 C   0  0  0  0  0  0  0  0  0  0  0  0
  -19.5748  -17.0667   20.6478 C   0  0  0  0  0  0  0  0  0  0  0  0
  -30.8469  -24.0807   18.7383 C   0  0  0  0  0  0  0  0  0  0  0  0
  -21.0950  -19.0244   20.3030 C   0  0  0  0  0  0  0  0  0  0  0  0
  -30.9544  -22.5670   18.8393 C   0  0  0  0  0  0  0  0  0  0  0  0
  -28.7225  -23.2381   19.4350 C   0  0  0  0  0  0  0  0  0  0  0  0
  -21.3669  -17.6816   22.3899 C   0  0  0  0  0  0  0  0  0  0  0  0
  -25.8467  -33.7745   23.6571 C   0  0  1  0  0  0  0  0  0  0  0  0
  -24.4234  -31.2582   21.1922 C   0  0  1  0  0  0  0  0  0  0  0  0
  -29.6794  -24.4048   19.6733 C   0  0  2  0  0  0  0  0  0  0  0  0
  -20.3441  -16.6310   21.9109 C   0  0  2  0  0  0  0  0  0  0  0  0
  -18.1445  -26.7798   21.9155 C   0  0  0  0  0  0  0  0  0  0  0  0
  -22.7605  -30.0732   25.3385 C   0  0  0  0  0  0  0  0  0  0  0  0
  -20.8779  -28.4230   25.3141 C   0  0  0  0  0  0  0  0  0  0  0  0
  -20.4724  -30.7854   24.6233 C   0  0  0  0  0  0  0  0  0  0  0  0
  -20.3139  -27.1665   18.8138 C   0  0  0  0  0  0  0  0  0  0  0  0
  -29.0533  -25.7610   19.4022 C   0  0  0  0  0  0  0  0  0  1  0  0
  -21.7803  -29.2542   23.0947 C   0  0  1  0  0  0  0  0  0  0  0  0
  -19.1727  -27.4499   21.0175 C   0  0  2  0  0  0  0  0  0  0  0  0
  -21.4957  -29.6299   24.5763 C   0  0  0  0  0  0  0  0  0  0  0  0
  -22.2377  -15.1607   21.3252 N   0  0  0  0  0  0  0  0  0  0  0  0
  -20.9629  -15.2539   21.7402 N   0  0  0  0  0  0  0  0  0  0  0  0
  -29.5975  -22.1139   19.1069 N   0  0  0  0  0  0  0  0  0  0  0  0
  -23.6760  -30.1417   21.7747 N   0  0  0  0  0  0  0  0  0  0  0  0
  -21.9984  -18.4161   21.2907 N   0  0  0  0  0  0  0  0  0  0  0  0
  -19.0868  -13.9593   22.3845 N   0  0  0  0  0  0  0  0  0  0  0  0
  -21.4421  -11.0448   22.9773 N   0  0  0  0  0  0  0  0  0  0  0  0
  -23.8826  -19.3732   20.2393 N   0  0  0  0  0  0  0  0  0  0  0  0
  -25.0840  -33.0803   22.6418 N   0  0  0  0  0  0  0  0  0  0  0  0
  -20.5962  -28.8565   22.3411 N   0  0  0  0  0  0  0  0  0  0  0  0
  -19.3466  -26.6134   19.7964 N   0  3  0  0  0  0  0  0  0  0  0  0
  -30.0551  -19.8484   18.8786 O   0  0  0  0  0  0  0  0  0  0  0  0
  -20.7446  -10.9916   20.7934 O   0  0  0  0  0  0  0  0  0  0  0  0
  -26.2177  -31.0475   22.7125 O   0  0  0  0  0  0  0  0  0  0  0  0
  -21.7979  -31.4539   22.2073 O   0  0  0  0  0  0  0  0  0  0  0  0
  -21.3658  -26.7501   21.7511 O   0  0  0  0  0  0  0  0  0  0  0  0
  -24.1234  -18.0421   22.1329 O   0  0  0  0  0  0  0  0  0  0  0  0
  -27.4245  -11.8407   19.7060 O   0  0  0  0  0  0  0  0  0  0  0  0
  -27.9738  -25.9650   20.3130 O   0  0  0  0  0  0  0  0  0  1  0  0
  -31.6708  -15.3551   19.5586 F   0  0  0  0  0  0  0  0  0  0  0  0
  -29.6701  -11.4179   21.2620 F   0  0  0  0  0  0  0  0  0  0  0  0
  1  2  1  0  0  0  0
  1  7  2  0  0  0  0
  2  8  2  0  0  0  0
  3 12  2  0  0  0  0
  3 19  1  0  0  0  0
  4 13  1  0  0  0  0
  4 19  2  0  0  0  0
  5 10  2  0  0  0  0
  5 20  1  0  0  0  0
  6 11  1  0  0  0  0
  6 20  2  0  0  0  0
  7 22  1  0  0  0  0
  8 24  1  0  0  0  0
  9 14  2  0  0  0  0
  9 23  1  0  0  0  0
 10 26  1  0  0  0  0
 11 26  2  0  0  0  0
 12 27  1  0  0  0  0
 13 27  2  0  0  0  0
 14 28  1  0  0  0  0
 15 16  2  0  0  0  0
 15 29  1  0  0  0  0
 16 30  1  0  0  0  0
 17 25  1  0  0  0  0
 17 28  2  0  0  0  0
 18 30  2  0  0  0  0
 18 31  1  0  0  0  0
 19 32  1  0  0  0  0
 20 34  1  0  0  0  0
 21 32  1  0  0  0  0
 21 33  2  0  0  0  0
 21 35  1  0  0  0  0
 22 24  2  0  0  0  0
 22 40  1  0  0  0  0
 23 25  2  0  0  0  0
 23 41  1  0  0  0  0
 24 52  1  0  0  0  0
 25 42  1  0  0  0  0
 26 72  1  0  0  0  0
 27 82  1  0  0  0  0
 28 83  1  0  0  0  0
 29 31  2  0  0  0  0
 29 82  1  0  0  0  0
 30 84  1  0  0  0  0
 31 85  1  0  0  0  0
 32 65  2  0  0  0  0
 33 66  1  0  0  0  0
 33 70  1  0  0  0  0
 34 67  1  0  0  0  0
 34 76  2  0  0  0  0
 35 71  1  0  0  0  0
 35 77  2  0  0  0  0
 36 53  1  0  0  0  0
 36 73  1  0  0  0  0
 36 78  2  0  0  0  0
 37 62  1  0  0  0  0
 37 68  1  0  0  0  0
 37 79  2  0  0  0  0
 38 63  1  0  0  0  0
 38 74  1  0  0  0  0
 38 80  2  0  0  0  0
 39 69  1  0  0  0  0
 39 72  1  0  0  0  0
 39 81  2  0  0  0  0
 40 43  1  0  0  0  0
 41 53  1  0  0  0  0
 42 68  1  0  0  0  0
 43 45  1  0  0  0  0
 44 46  1  0  0  0  0
 44 48  1  0  0  0  0
 45 52  1  0  0  0  0
 46 55  1  0  0  0  0
 47 49  1  0  0  0  0
 47 54  1  0  0  0  0
 48 69  1  0  0  0  0
 49 67  1  0  0  0  0
 50 54  1  0  0  0  0
 50 67  1  0  0  0  0
 51 55  1  0  0  0  0
 51 69  1  0  0  0  0
 52 73  1  0  0  0  0
 53 68  1  0  0  0  0
 54 61  1  0  0  0  0
 55 66  1  0  0  0  0
 56 63  1  0  0  0  0
 57 64  1  0  0  0  0
 58 64  1  0  0  0  0
 59 64  1  0  0  0  0
 60 75  1  0  0  0  0
 61 83  1  0  0  0  0
 62 64  1  0  0  0  0
 62 74  1  0  0  0  0
 63 75  1  0  0  0  0
 65 66  1  0  0  0  0
M  CHG  1  75   1
M  ISO  4  39 100  61 101  72 100  83 101
M  END
> <Batch ID>
0098

> <Smiles>
CNC(C)C(=O)NC(C(=O)N1Cc2cc([101O:1][101CH2:1]C3CCN(C(=O)c4ccc([100NH:0][100C:0](=O)N5CCCC(n6nc(-c7ccc(Oc8ccc(F)cc8F)cc7)c(C(N)=O)c6N)C5)cc4)C3)ccc2CC1C(=O)NC1CCCc2ccccc21)C(C)(C)C

> <Shape>
0.323

> <Color>
0.085

> <Negative vol penalty>
0.000

$$$$

  -OEChem-04052300513D

 85 93  0     1  0  0  0  0  0999 V2000
  -23.5519  -23.1481   24.7760 C   0  0  0  0  0  0  0  0  0  0  0  0
  -23.1637  -22.0583   24.0033 C   0  0  0  0  0  0  0  0  0  0  0  0
  -24.8957  -30.2806   20.3014 C   0  0  0  0  0  0  0  0  0  0  0  0
  -24.1761  -28.6286   21.9108 C   0  0  0  0  0  0  0  0  0  0  0  0
  -24.7426  -23.8149   24.4904 C   0  0  0  0  0  0  0  0  0  0  0  0
  -23.9656  -21.6354   22.9438 C   0  0  0  0  0  0  0  0  0  0  0  0
  -24.5318  -16.6045   22.8238 C   0  0  0  0  0  0  0  0  0  0  0  0
  -21.5936  -18.8666   16.3151 C   0  0  0  0  0  0  0  0  0  0  0  0
  -24.7057  -31.2864   21.2489 C   0  0  0  0  0  0  0  0  0  0  0  0
  -23.9862  -29.6344   22.8583 C   0  0  0  0  0  0  0  0  0  0  0  0
  -23.4727  -15.8566   22.3114 C   0  0  0  0  0  0  0  0  0  0  0  0
  -20.8227  -17.9644   17.0481 C   0  0  0  0  0  0  0  0  0  0  0  0
  -24.7546  -34.2483   23.3561 C   0  0  0  0  0  0  0  0  0  0  0  0
  -25.7507  -35.2164   23.4828 C   0  0  0  0  0  0  0  0  0  0  0  0
  -24.6337  -15.6666   20.2054 C   0  0  0  0  0  0  0  0  0  0  0  0
  -22.7647  -19.5033   18.3301 C   0  0  0  0  0  0  0  0  0  0  0  0
  -27.3488  -33.4973   24.0555 C   0  0  0  0  0  0  0  0  0  0  0  0
  -24.6308  -28.9516   20.6323 C   0  0  0  0  0  0  0  0  0  0  0  0
  -26.0020  -27.1736   19.4215 C   0  0  0  0  0  0  0  0  0  0  0  0
  -25.5642  -23.3940   23.4329 C   0  0  0  0  0  0  0  0  0  0  0  0
  -25.6469  -16.8988   22.0261 C   0  0  0  0  0  0  0  0  0  0  0  0
  -25.1677  -22.2980   22.6429 C   0  0  0  0  0  0  0  0  0  0  0  0
  -25.7068  -16.4163   20.7109 C   0  0  0  0  0  0  0  0  0  0  0  0
  -22.5646  -19.6360   16.9560 C   0  0  0  0  0  0  0  0  0  0  0  0
  -21.9937  -18.6012   19.0632 C   0  0  0  0  0  0  0  0  0  0  0  0
  -24.2510  -30.9633   22.5274 C   0  0  0  0  0  0  0  0  0  0  0  0
  -23.5222  -15.3900   21.0010 C   0  0  0  0  0  0  0  0  0  0  0  0
  -21.0227  -17.8317   18.4222 C   0  0  0  0  0  0  0  0  0  0  0  0
  -25.0556  -32.9046   23.5792 C   0  0  0  0  0  0  0  0  0  0  0  0
  -27.0478  -34.8410   23.8324 C   0  0  0  0  0  0  0  0  0  0  0  0
  -26.3526  -32.5291   23.9289 C   0  0  0  0  0  0  0  0  0  0  0  0
  -24.8263  -27.9123   19.6538 C   0  0  0  0  0  0  0  0  0  0  0  0
  -25.6737  -26.3184   18.3981 C   0  0  0  0  0  0  0  0  0  0  0  0
  -27.2769  -27.2533   20.0727 C   0  0  0  0  0  0  0  0  0  0  0  0
  -26.9855  -19.5692   20.9393 C   0  0  0  0  0  0  0  0  0  0  0  0
  -29.2688  -17.5278   19.8710 C   0  0  0  0  0  0  0  0  0  0  0  0
  -30.1075  -14.3585   18.9229 C   0  0  0  0  0  0  0  0  0  0  0  0
  -22.1333  -22.7340   15.9976 C   0  0  0  0  0  0  0  0  0  0  0  0
  -26.8187  -24.1756   23.1328 C   0  0  0  0  0  0  0  0  0  0  0  0
  -26.7931  -17.6841   22.6023 C   0  0  0  0  0  0  0  0  0  0  0  0
  -26.8904  -16.6875   19.8198 C   0  0  0  0  0  0  0  0  0  0  0  0
  -27.7974  -23.4323   22.2272 C   0  0  0  0  0  0  0  0  0  0  0  0
  -21.6174  -26.2020   15.3783 C   0  0  0  0  0  0  0  0  0  0  0  0
  -27.0644  -22.8198   21.0380 C   0  0  0  0  0  0  0  0  0  0  0  0
  -22.4980  -26.8945   16.4198 C   0  0  0  0  0  0  0  0  0  0  0  0
  -20.9842  -24.9276   15.9322 C   0  0  0  0  0  0  0  0  0  0  0  0
  -22.8183  -24.6572   17.5559 C   0  0  0  0  0  0  0  0  0  0  0  0
  -26.0229  -21.7939   21.5007 C   0  0  1  0  0  0  0  0  0  0  0  0
  -27.6494  -18.3608   21.5364 C   0  0  1  0  0  0  0  0  0  0  0  0
  -23.5234  -25.9175   17.0260 C   0  0  2  0  0  0  0  0  0  0  0  0
  -25.7652  -21.2746   15.4766 C   0  0  0  0  0  0  0  0  0  0  0  0
  -32.0383  -13.0053   18.0636 C   0  0  0  0  0  0  0  0  0  0  0  0
  -28.8938  -18.7551   17.1028 C   0  0  0  0  0  0  0  0  0  0  0  0
  -30.1000  -16.7829   16.1415 C   0  0  0  0  0  0  0  0  0  0  0  0
  -31.2724  -18.3062   17.7314 C   0  0  0  0  0  0  0  0  0  0  0  0
  -30.0673  -12.5832   21.2905 C   0  0  0  0  0  0  0  0  0  0  0  0
  -24.9010  -20.2817   16.2443 C   0  0  0  0  0  0  0  0  0  0  0  0
  -20.1406  -14.6787   19.9466 C   0  0  0  0  0  0  0  0  0  0  0  0
  -21.1888  -14.9309   21.0190 C   0  0  0  0  0  0  0  0  0  1  0  0
  -20.3396  -15.5753   18.7346 C   0  0  0  0  0  0  0  0  0  0  0  0
  -23.3887  -20.6003   16.1717 C   0  0  2  0  0  0  0  0  0  0  0  0
  -29.4894  -16.7396   18.6025 C   0  0  1  0  0  0  0  0  0  0  0  0
  -31.2820  -13.4726   19.2974 C   0  0  2  0  0  0  0  0  0  0  0  0
  -29.9156  -17.6423   17.4105 C   0  0  0  0  0  0  0  0  0  0  0  0
  -23.8259  -27.5575   18.8430 N   0  0  0  0  0  0  0  0  0  0  0  0
  -24.3721  -26.5866   18.0913 N   0  0  0  0  0  0  0  0  0  0  0  0
  -27.9832  -17.4651   20.4270 N   0  0  0  0  0  0  0  0  0  0  0  0
  -22.0102  -24.0435   16.4905 N   0  0  0  0  0  0  0  0  0  0  0  0
  -22.2070  -18.4766   20.4534 N   0  0  0  0  0  0  0  0  0  0  0  0
  -26.3743  -25.3708   17.7397 N   0  0  0  0  0  0  0  0  0  0  0  0
  -27.4429  -28.1872   21.1045 N   0  0  0  0  0  0  0  0  0  0  0  0
  -26.6656  -20.5482   21.8607 N   0  0  0  0  0  0  0  0  0  0  0  0
  -30.4511  -15.6938   18.9338 N   0  0  0  0  0  0  0  0  0  0  0  0
  -23.1350  -21.9648   16.5770 N   0  0  0  0  0  0  0  0  0  0  0  0
  -30.8081  -12.2712   20.0411 N   0  3  0  0  0  0  0  0  0  0  0  0
  -28.2452  -26.5295   19.7381 O   0  0  0  0  0  0  0  0  0  0  0  0
  -26.7799  -19.6110   19.7320 O   0  0  0  0  0  0  0  0  0  0  0  0
  -30.2046  -18.1694   20.3548 O   0  0  0  0  0  0  0  0  0  0  0  0
  -28.9974  -13.9105   18.6445 O   0  0  0  0  0  0  0  0  0  0  0  0
  -21.4079  -22.2853   15.1034 O   0  0  0  0  0  0  0  0  0  0  0  0
  -24.0657  -31.9445   23.4523 O   0  0  0  0  0  0  0  0  0  0  0  0
  -22.4895  -14.6603   20.4981 O   0  0  0  0  0  0  0  0  0  1  0  0
  -20.2553  -16.9393   19.1245 O   0  0  0  0  0  0  0  0  0  0  0  0
  -28.0046  -35.7706   23.9525 F   0  0  0  0  0  0  0  0  0  0  0  0
  -26.6480  -31.2397   24.1433 F   0  0  0  0  0  0  0  0  0  0  0  0
  1  2  1  0  0  0  0
  1  5  2  0  0  0  0
  2  6  2  0  0  0  0
  3  9  2  0  0  0  0
  3 18  1  0  0  0  0
  4 10  1  0  0  0  0
  4 18  2  0  0  0  0
  5 20  1  0  0  0  0
  6 22  1  0  0  0  0
  7 11  2  0  0  0  0
  7 21  1  0  0  0  0
  8 12  2  0  0  0  0
  8 24  1  0  0  0  0
  9 26  1  0  0  0  0
 10 26  2  0  0  0  0
 11 27  1  0  0  0  0
 12 28  1  0  0  0  0
 13 14  2  0  0  0  0
 13 29  1  0  0  0  0
 14 30  1  0  0  0  0
 15 23  1  0  0  0  0
 15 27  2  0  0  0  0
 16 24  2  0  0  0  0
 16 25  1  0  0  0  0
 17 30  2  0  0  0  0
 17 31  1  0  0  0  0
 18 32  1  0  0  0  0
 19 32  1  0  0  0  0
 19 33  2  0  0  0  0
 19 34  1  0  0  0  0
 20 22  2  0  0  0  0
 20 39  1  0  0  0  0
 21 23  2  0  0  0  0
 21 40  1  0  0  0  0
 22 48  1  0  0  0  0
 23 41  1  0  0  0  0
 24 61  1  0  0  0  0
 25 28  2  0  0  0  0
 25 69  1  0  0  0  0
 26 81  1  0  0  0  0
 27 82  1  0  0  0  0
 28 83  1  0  0  0  0
 29 31  2  0  0  0  0
 29 81  1  0  0  0  0
 30 84  1  0  0  0  0
 31 85  1  0  0  0  0
 32 65  2  0  0  0  0
 33 66  1  0  0  0  0
 33 70  1  0  0  0  0
 34 71  1  0  0  0  0
 34 76  2  0  0  0  0
 35 49  1  0  0  0  0
 35 72  1  0  0  0  0
 35 77  2  0  0  0  0
 36 62  1  0  0  0  0
 36 67  1  0  0  0  0
 36 78  2  0  0  0  0
 37 63  1  0  0  0  0
 37 73  1  0  0  0  0
 37 79  2  0  0  0  0
 38 68  1  0  0  0  0
 38 74  1  0  0  0  0
 38 80  2  0  0  0  0
 39 42  1  0  0  0  0
 40 49  1  0  0  0  0
 41 67  1  0  0  0  0
 42 44  1  0  0  0  0
 43 45  1  0  0  0  0
 43 46  1  0  0  0  0
 44 48  1  0  0  0  0
 45 50  1  0  0  0  0
 46 68  1  0  0  0  0
 47 50  1  0  0  0  0
 47 68  1  0  0  0  0
 48 72  1  0  0  0  0
 49 67  1  0  0  0  0
 50 66  1  0  0  0  0
 51 57  1  0  0  0  0
 52 63  1  0  0  0  0
 53 64  1  0  0  0  0
 54 64  1  0  0  0  0
 55 64  1  0  0  0  0
 56 75  1  0  0  0  0
 57 61  1  0  0  0  0
 58 59  1  0  0  0  0
 58 60  1  0  0  0  0
 59 82  1  0  0  0  0
 60 83  1  0  0  0  0
 61 74  1  0  0  0  0
 62 64  1  0  0  0  0
 62 73  1  0  0  0  0
 63 75  1  0  0  0  0
 65 66  1  0  0  0  0
M  CHG  1  75   1
M  ISO  4  38 100  59 101  74 100  82 101
M  END
> <Batch ID>
0098

> <Smiles>
CCC([100NH:0][100C:0](=O)N1CCCC(n2nc(-c3ccc(Oc4ccc(F)cc4F)cc3)c(C(N)=O)c2N)C1)c1ccc(OCC[101CH2:1][101O:1]c2ccc3c(c2)CN(C(=O)C(NC(=O)C(C)NC)C(C)(C)C)C(C(=O)NC2CCCc4ccccc42)C3)c(N)c1

> <Shape>
0.189

> <Color>
0.070

> <Negative vol penalty>
0.000

$$$$

  -OEChem-04052300513D

 86 95  0     1  0  0  0  0  0999 V2000
  -31.8417  -34.4103   22.2795 C   0  0  0  0  0  0  0  0  0  0  0  0
  -31.5161  -33.1964   21.6831 C   0  0  0  0  0  0  0  0  0  0  0  0
  -24.0132  -14.6594   23.5483 C   0  0  0  0  0  0  0  0  0  0  0  0
  -23.6796  -15.8555   21.4758 C   0  0  0  0  0  0  0  0  0  0  0  0
  -31.1615  -34.8289   23.4224 C   0  0  0  0  0  0  0  0  0  0  0  0
  -30.5107  -32.3997   22.2299 C   0  0  0  0  0  0  0  0  0  0  0  0
  -26.5637  -28.8447   19.1821 C   0  0  0  0  0  0  0  0  0  0  0  0
  -29.0812  -21.1571   20.2405 C   0  0  0  0  0  0  0  0  0  0  0  0
  -30.2260  -20.4573   20.6217 C   0  0  0  0  0  0  0  0  0  0  0  0
  -23.3878  -15.6929   24.2455 C   0  0  0  0  0  0  0  0  0  0  0  0
  -23.0541  -16.8891   22.1731 C   0  0  0  0  0  0  0  0  0  0  0  0
  -26.5483  -27.4769   18.9128 C   0  0  0  0  0  0  0  0  0  0  0  0
  -23.9780  -19.5306   24.0703 C   0  0  0  0  0  0  0  0  0  0  0  0
  -24.3393  -20.8394   23.7508 C   0  0  0  0  0  0  0  0  0  0  0  0
  -25.1131  -27.1238   20.8192 C   0  0  0  0  0  0  0  0  0  0  0  0
  -28.0624  -19.0922   19.5088 C   0  0  0  0  0  0  0  0  0  0  0  0
  -22.0541  -21.3188   23.1302 C   0  0  0  0  0  0  0  0  0  0  0  0
  -24.1592  -14.7407   22.1634 C   0  0  0  0  0  0  0  0  0  0  0  0
  -24.4069  -12.3249   21.3822 C   0  0  0  0  0  0  0  0  0  0  0  0
  -30.1408  -34.0414   23.9779 C   0  0  0  0  0  0  0  0  0  0  0  0
  -25.8616  -29.3619   20.2803 C   0  0  0  0  0  0  0  0  0  0  0  0
  -29.8172  -32.8074   23.3821 C   0  0  0  0  0  0  0  0  0  0  0  0
  -25.1191  -28.4989   21.0989 C   0  0  0  0  0  0  0  0  0  0  0  0
  -27.9994  -20.4746   19.6841 C   0  0  0  0  0  0  0  0  0  0  0  0
  -30.2890  -19.0749   20.4463 C   0  0  0  0  0  0  0  0  0  0  0  0
  -29.2073  -18.3924   19.8899 C   0  0  0  0  0  0  0  0  0  0  0  0
  -22.9082  -16.8077   23.5580 C   0  0  0  0  0  0  0  0  0  0  0  0
  -25.8253  -26.6158   19.7331 C   0  0  0  0  0  0  0  0  0  0  0  0
  -22.6548  -19.1158   23.9197 C   0  0  0  0  0  0  0  0  0  0  0  0
  -23.3774  -21.7335   23.2808 C   0  0  0  0  0  0  0  0  0  0  0  0
  -21.6928  -20.0099   23.4496 C   0  0  0  0  0  0  0  0  0  0  0  0
  -24.8058  -13.6737   21.4426 C   0  0  0  0  0  0  0  0  0  0  0  0
  -25.3437  -11.7257   20.5760 C   0  0  0  0  0  0  0  0  0  0  0  0
  -26.0114  -20.7490   18.2271 C   0  0  0  0  0  0  0  0  0  0  0  0
  -23.2896  -11.6721   21.9995 C   0  0  0  0  0  0  0  0  0  0  0  0
  -26.6728  -30.9206   22.9291 C   0  0  0  0  0  0  0  0  0  0  0  0
  -23.4599  -31.1307   23.3234 C   0  0  0  0  0  0  0  0  0  0  0  0
  -20.3673  -29.8626   22.6344 C   0  0  0  0  0  0  0  0  0  0  0  0
  -28.2537  -16.1669   19.1636 C   0  0  0  0  0  0  0  0  0  0  0  0
  -29.4660  -34.5134   25.2415 C   0  0  0  0  0  0  0  0  0  0  0  0
  -25.8666  -30.8431   20.5416 C   0  0  0  0  0  0  0  0  0  0  0  0
  -24.3321  -29.0064   22.2784 C   0  0  0  0  0  0  0  0  0  0  0  0
  -24.6406  -21.3854   18.0955 C   0  0  0  0  0  0  0  0  0  0  0  0
  -28.1577  -33.7863   25.5414 C   0  0  0  0  0  0  0  0  0  0  0  0
  -24.5918  -22.8481   18.4791 C   0  0  0  0  0  0  0  0  0  0  0  0
  -29.9564  -12.7300   19.5568 C   0  0  0  0  0  0  0  0  0  0  0  0
  -28.3333  -32.2804   25.3736 C   0  0  0  0  0  0  0  0  0  0  0  0
  -28.6759  -12.1365   20.1305 C   0  0  0  0  0  0  0  0  0  0  0  0
  -29.8898  -14.2546   19.5802 C   0  0  0  0  0  0  0  0  0  0  0  0
  -26.5942  -22.5245   19.9036 C   0  0  0  0  0  0  0  0  0  0  0  0
  -27.6879  -13.8443   18.4776 C   0  0  0  0  0  0  0  0  0  0  0  0
  -28.7158  -31.9269   23.9313 C   0  0  1  0  0  0  0  0  0  0  0  0
  -25.5341  -31.1958   21.9882 C   0  0  1  0  0  0  0  0  0  0  0  0
  -25.1440  -23.0053   19.8863 C   0  0  1  0  0  0  0  0  0  0  0  0
  -27.4375  -12.5814   19.3271 C   0  0  2  0  0  0  0  0  0  0  0  0
  -17.9342  -30.2257   23.1299 C   0  0  0  0  0  0  0  0  0  0  0  0
  -23.8473  -29.9235   26.0987 C   0  0  0  0  0  0  0  0  0  0  0  0
  -21.3922  -29.4359   26.1531 C   0  0  0  0  0  0  0  0  0  0  0  0
  -22.1906  -31.7941   25.9968 C   0  0  0  0  0  0  0  0  0  0  0  0
  -19.7345  -30.3172   19.7793 C   0  0  0  0  0  0  0  0  0  0  0  0
  -25.0476  -24.4559   20.3543 C   0  0  0  0  0  0  0  0  0  1  0  0
  -22.4060  -30.2768   23.9860 C   0  0  1  0  0  0  0  0  0  0  0  0
  -19.0824  -30.5317   22.1808 C   0  0  2  0  0  0  0  0  0  0  0  0
  -22.4753  -30.3474   25.5376 C   0  0  0  0  0  0  0  0  0  0  0  0
  -25.9099  -13.9172   20.7317 N   0  0  0  0  0  0  0  0  0  0  0  0
  -26.2130  -12.7134   20.2169 N   0  0  0  0  0  0  0  0  0  0  0  0
  -26.8103  -21.2006   19.2917 N   0  0  0  0  0  0  0  0  0  0  0  0
  -24.3734  -30.4618   22.4964 N   0  0  0  0  0  0  0  0  0  0  0  0
  -28.6049  -14.7947   19.1120 N   0  0  0  0  0  0  0  0  0  0  0  0
  -31.4594  -18.3865   20.8375 N   0  0  0  0  0  0  0  0  0  0  0  0
  -25.5004  -10.4555   20.1465 N   0  0  0  0  0  0  0  0  0  0  0  0
  -22.0773  -11.6168   21.2984 N   0  0  0  0  0  0  0  0  0  0  0  0
  -29.2482  -16.9876   19.7026 N   0  0  0  0  0  0  0  0  0  0  0  0
  -27.5516  -31.9772   23.0730 N   0  0  0  0  0  0  0  0  0  0  0  0
  -21.1269  -30.6986   23.4252 N   0  0  0  0  0  0  0  0  0  0  0  0
  -18.7051  -30.0590   20.8188 N   0  3  0  0  0  0  0  0  0  0  0  0
  -26.3098  -19.8470   17.4396 O   0  0  0  0  0  0  0  0  0  0  0  0
  -23.3594  -11.1677   23.1459 O   0  0  0  0  0  0  0  0  0  0  0  0
  -26.7476  -29.8309   23.4847 O   0  0  0  0  0  0  0  0  0  0  0  0
  -23.4678  -32.3474   23.5263 O   0  0  0  0  0  0  0  0  0  0  0  0
  -20.6654  -28.7120   22.3218 O   0  0  0  0  0  0  0  0  0  0  0  0
  -27.1623  -16.5719   18.7581 O   0  0  0  0  0  0  0  0  0  0  0  0
  -22.2975  -17.8163   24.2380 O   0  0  0  0  0  0  0  0  0  0  0  0
  -25.8091  -25.2802   19.4728 O   0  0  0  0  0  0  0  0  0  1  0  0
  -23.7242  -22.9908   22.9755 F   0  0  0  0  0  0  0  0  0  0  0  0
  -20.4198  -19.6175   23.3039 F   0  0  0  0  0  0  0  0  0  0  0  0
  1  2  1  0  0  0  0
  1  5  2  0  0  0  0
  2  6  2  0  0  0  0
  3 10  2  0  0  0  0
  3 18  1  0  0  0  0
  4 11  1  0  0  0  0
  4 18  2  0  0  0  0
  5 20  1  0  0  0  0
  6 22  1  0  0  0  0
  7 12  2  0  0  0  0
  7 21  1  0  0  0  0
  8  9  2  0  0  0  0
  8 24  1  0  0  0  0
  9 25  1  0  0  0  0
 10 27  1  0  0  0  0
 11 27  2  0  0  0  0
 12 28  1  0  0  0  0
 13 14  2  0  0  0  0
 13 29  1  0  0  0  0
 14 30  1  0  0  0  0
 15 23  1  0  0  0  0
 15 28  2  0  0  0  0
 16 24  2  0  0  0  0
 16 26  1  0  0  0  0
 17 30  2  0  0  0  0
 17 31  1  0  0  0  0
 18 32  1  0  0  0  0
 19 32  1  0  0  0  0
 19 33  2  0  0  0  0
 19 35  1  0  0  0  0
 20 22  2  0  0  0  0
 20 40  1  0  0  0  0
 21 23  2  0  0  0  0
 21 41  1  0  0  0  0
 22 52  1  0  0  0  0
 23 42  1  0  0  0  0
 24 67  1  0  0  0  0
 25 26  2  0  0  0  0
 25 70  1  0  0  0  0
 26 73  1  0  0  0  0
 27 83  1  0  0  0  0
 28 84  1  0  0  0  0
 29 31  2  0  0  0  0
 29 83  1  0  0  0  0
 30 85  1  0  0  0  0
 31 86  1  0  0  0  0
 32 65  2  0  0  0  0
 33 66  1  0  0  0  0
 33 71  1  0  0  0  0
 34 43  1  0  0  0  0
 34 67  1  0  0  0  0
 34 77  2  0  0  0  0
 35 72  1  0  0  0  0
 35 78  2  0  0  0  0
 36 53  1  0  0  0  0
 36 74  1  0  0  0  0
 36 79  2  0  0  0  0
 37 62  1  0  0  0  0
 37 68  1  0  0  0  0
 37 80  2  0  0  0  0
 38 63  1  0  0  0  0
 38 75  1  0  0  0  0
 38 81  2  0  0  0  0
 39 69  1  0  0  0  0
 39 73  1  0  0  0  0
 39 82  2  0  0  0  0
 40 44  1  0  0  0  0
 41 53  1  0  0  0  0
 42 68  1  0  0  0  0
 43 45  1  0  0  0  0
 44 47  1  0  0  0  0
 45 54  1  0  0  0  0
 46 48  1  0  0  0  0
 46 49  1  0  0  0  0
 47 52  1  0  0  0  0
 48 55  1  0  0  0  0
 49 69  1  0  0  0  0
 50 54  1  0  0  0  0
 50 67  1  0  0  0  0
 51 55  1  0  0  0  0
 51 69  1  0  0  0  0
 52 74  1  0  0  0  0
 53 68  1  0  0  0  0
 54 61  1  0  0  0  0
 55 66  1  0  0  0  0
 56 63  1  0  0  0  0
 57 64  1  0  0  0  0
 58 64  1  0  0  0  0
 59 64  1  0  0  0  0
 60 76  1  0  0  0  0
 61 84  1  0  0  0  0
 62 64  1  0  0  0  0
 62 75  1  0  0  0  0
 63 76  1  0  0  0  0
 65 66  1  0  0  0  0
M  CHG  1  76   1
M  ISO  4  39 100  61 101  73 100  84 101
M  END
> <Batch ID>
0098

> <Smiles>
CNC(C)C(=O)NC(C(=O)N1Cc2cc([101O:1][101CH2:1]C3CCC(=O)N(c4ccc(N)c([100NH:0][100C:0](=O)N5CCCC(n6nc(-c7ccc(Oc8ccc(F)cc8F)cc7)c(C(N)=O)c6N)C5)c4)C3)ccc2CC1C(=O)NC1CCCc2ccccc21)C(C)(C)C

> <Shape>
0.235

> <Color>
0.084

> <Negative vol penalty>
0.000

$$$$

  -OEChem-04052300513D

 85 94  0     1  0  0  0  0  0999 V2000
  -18.7749  -24.0618   22.6311 C   0  0  0  0  0  0  0  0  0  0  0  0
  -19.6735  -24.0875   21.5694 C   0  0  0  0  0  0  0  0  0  0  0  0
  -26.2831  -13.5406   21.9608 C   0  0  0  0  0  0  0  0  0  0  0  0
  -24.7945  -15.0759   20.8365 C   0  0  0  0  0  0  0  0  0  0  0  0
  -18.4330  -25.2463   23.2824 C   0  0  0  0  0  0  0  0  0  0  0  0
  -20.2300  -25.2980   21.1576 C   0  0  0  0  0  0  0  0  0  0  0  0
  -25.2134  -24.9612   20.3230 C   0  0  0  0  0  0  0  0  0  0  0  0
  -25.2386  -12.6259   22.0948 C   0  0  0  0  0  0  0  0  0  0  0  0
  -23.7499  -14.1612   20.9704 C   0  0  0  0  0  0  0  0  0  0  0  0
  -25.6202  -24.3750   19.1253 C   0  0  0  0  0  0  0  0  0  0  0  0
  -23.6446  -10.3632   20.1527 C   0  0  0  0  0  0  0  0  0  0  0  0
  -23.9099   -9.0275   19.8509 C   0  0  0  0  0  0  0  0  0  0  0  0
  -25.9851  -26.5658   18.1839 C   0  0  0  0  0  0  0  0  0  0  0  0
  -30.0178  -25.4644   18.6224 C   0  0  0  0  0  0  0  0  0  0  0  0
  -30.0076  -23.0605   18.8625 C   0  0  0  0  0  0  0  0  0  0  0  0
  -29.7836  -24.4701   20.8118 C   0  0  0  0  0  0  0  0  0  0  0  0
  -23.3186   -8.4001   22.1078 C   0  0  0  0  0  0  0  0  0  0  0  0
  -26.0610  -14.7656   21.3317 C   0  0  0  0  0  0  0  0  0  0  0  0
  -28.0501  -15.8117   20.1247 C   0  0  0  0  0  0  0  0  0  0  0  0
  -18.9930  -26.4706   22.8846 C   0  0  0  0  0  0  0  0  0  0  0  0
  -25.1789  -26.3566   20.4568 C   0  0  0  0  0  0  0  0  0  0  0  0
  -19.8942  -26.5001   21.8033 C   0  0  0  0  0  0  0  0  0  0  0  0
  -25.5799  -27.1672   19.3852 C   0  0  0  0  0  0  0  0  0  0  0  0
  -30.0891  -24.1933   18.0527 C   0  0  0  0  0  0  0  0  0  0  0  0
  -29.8651  -25.6029   20.0020 C   0  0  0  0  0  0  0  0  0  0  0  0
  -29.8548  -23.1989   20.2421 C   0  0  0  0  0  0  0  0  0  0  0  0
  -23.9720  -12.9362   21.5996 C   0  0  0  0  0  0  0  0  0  0  0  0
  -26.0034  -25.1773   18.0545 C   0  0  0  0  0  0  0  0  0  0  0  0
  -23.2163  -10.7174   21.4321 C   0  0  0  0  0  0  0  0  0  0  0  0
  -23.7469   -8.0459   20.8284 C   0  0  0  0  0  0  0  0  0  0  0  0
  -23.0534   -9.7358   22.4097 C   0  0  0  0  0  0  0  0  0  0  0  0
  -27.1394  -15.7111   21.1935 C   0  0  0  0  0  0  0  0  0  0  0  0
  -28.8691  -16.8592   20.4689 C   0  0  0  0  0  0  0  0  0  0  0  0
  -28.1470  -15.0284   18.9278 C   0  0  0  0  0  0  0  0  0  0  0  0
  -22.9006  -28.5004   21.0200 C   0  0  0  0  0  0  0  0  0  0  0  0
  -25.4078  -30.5542   21.1536 C   0  0  0  0  0  0  0  0  0  0  0  0
  -28.6229  -31.2637   20.2554 C   0  0  0  0  0  0  0  0  0  0  0  0
  -29.6194  -22.0086   22.4498 C   0  0  0  0  0  0  0  0  0  0  0  0
  -18.5568  -27.7311   23.5885 C   0  0  0  0  0  0  0  0  0  0  0  0
  -24.7632  -26.9731   21.7643 C   0  0  0  0  0  0  0  0  0  0  0  0
  -25.5801  -28.6701   19.4845 C   0  0  0  0  0  0  0  0  0  0  0  0
  -19.4777  -28.9214   23.3326 C   0  0  0  0  0  0  0  0  0  0  0  0
  -29.3358  -19.3793   24.8339 C   0  0  0  0  0  0  0  0  0  0  0  0
  -28.4970  -23.6789   13.5441 C   0  0  0  0  0  0  0  0  0  0  0  0
  -19.8003  -29.0369   21.8462 C   0  0  0  0  0  0  0  0  0  0  0  0
  -28.8141  -18.1988   24.0114 C   0  0  0  0  0  0  0  0  0  0  0  0
  -27.3429  -23.2774   14.4411 C   0  0  0  0  0  0  0  0  0  0  0  0
  -28.7329  -20.7041   24.3702 C   0  0  0  0  0  0  0  0  0  0  0  0
  -28.3472  -19.7989   22.1117 C   0  0  0  0  0  0  0  0  0  0  0  0
  -29.2377  -24.7220   14.3585 C   0  0  0  0  0  0  0  0  0  0  0  0
  -20.5380  -27.7901   21.3433 C   0  0  1  0  0  0  0  0  0  0  0  0
  -24.2758  -28.4114   21.6186 C   0  0  1  0  0  0  0  0  0  0  0  0
  -28.9755  -18.4504   22.4993 C   0  0  2  0  0  0  0  0  0  0  0  0
  -28.0000  -23.1805   15.8099 C   0  0  2  0  0  0  0  0  0  0  0  0
  -30.8029  -32.5050   20.1921 C   0  0  0  0  0  0  0  0  0  0  0  0
  -23.9605  -32.2592   19.0779 C   0  0  0  0  0  0  0  0  0  0  0  0
  -26.1209  -33.4508   18.6524 C   0  0  0  0  0  0  0  0  0  0  0  0
  -25.0632  -33.5575   20.9090 C   0  0  0  0  0  0  0  0  0  0  0  0
  -29.6645  -29.7877   22.5996 C   0  0  0  0  0  0  0  0  0  0  0  0
  -30.2533  -24.0446   16.5688 C   0  0  0  0  0  0  0  0  0  0  0  0
  -27.0256  -23.3275   16.9640 C   0  0  0  0  0  0  0  0  0  1  0  0
  -26.1483  -31.4041   20.1494 C   0  0  1  0  0  0  0  0  0  0  0  0
  -29.8103  -31.7529   21.0649 C   0  0  2  0  0  0  0  0  0  0  0  0
  -25.3215  -32.6397   19.6943 C   0  0  0  0  0  0  0  0  0  0  0  0
  -27.3590  -16.6220   22.1455 N   0  0  0  0  0  0  0  0  0  0  0  0
  -28.4171  -17.3048   21.6760 N   0  0  0  0  0  0  0  0  0  0  0  0
  -25.1594  -29.2255   20.7815 N   0  0  0  0  0  0  0  0  0  0  0  0
  -28.9276  -20.8760   22.9288 N   0  0  0  0  0  0  0  0  0  0  0  0
  -29.7932  -26.8887   20.5779 N   0  0  0  0  0  0  0  0  0  0  0  0
  -29.9248  -17.4333   19.8536 N   0  0  0  0  0  0  0  0  0  0  0  0
  -27.2256  -13.9905   18.7321 N   0  0  0  0  0  0  0  0  0  0  0  0
  -29.7716  -22.0478   21.0642 N   0  0  0  0  0  0  0  0  0  0  0  0
  -21.9292  -27.8316   21.7400 N   0  0  0  0  0  0  0  0  0  0  0  0
  -27.4303  -31.7356   20.7617 N   0  0  0  0  0  0  0  0  0  0  0  0
  -28.9956  -24.3327   15.8071 N   0  3  1  0  0  0  0  0  0  0  0  0
  -30.5167  -30.6022   21.6955 N   0  3  0  0  0  0  0  0  0  0  0  0
  -29.0348  -15.2319   18.0653 O   0  0  0  0  0  0  0  0  0  0  0  0
  -22.7329  -29.1305   19.9824 O   0  0  0  0  0  0  0  0  0  0  0  0
  -25.0687  -31.0491   22.2314 O   0  0  0  0  0  0  0  0  0  0  0  0
  -28.7417  -30.5386   19.2701 O   0  0  0  0  0  0  0  0  0  0  0  0
  -30.0691  -22.8658   23.2146 O   0  0  0  0  0  0  0  0  0  0  0  0
  -22.9526  -12.0438   21.7299 O   0  0  0  0  0  0  0  0  0  0  0  0
  -26.4002  -24.6077   16.8841 O   0  0  0  0  0  0  0  0  0  1  0  0
  -24.0002   -6.7631   20.5380 F   0  0  0  0  0  0  0  0  0  0  0  0
  -22.6411  -10.0699   23.6402 F   0  0  0  0  0  0  0  0  0  0  0  0
  1  2  1  0  0  0  0
  1  5  2  0  0  0  0
  2  6  2  0  0  0  0
  3  8  2  0  0  0  0
  3 18  1  0  0  0  0
  4  9  1  0  0  0  0
  4 18  2  0  0  0  0
  5 20  1  0  0  0  0
  6 22  1  0  0  0  0
  7 10  2  0  0  0  0
  7 21  1  0  0  0  0
  8 27  1  0  0  0  0
  9 27  2  0  0  0  0
 10 28  1  0  0  0  0
 11 12  2  0  0  0  0
 11 29  1  0  0  0  0
 12 30  1  0  0  0  0
 13 23  1  0  0  0  0
 13 28  2  0  0  0  0
 14 24  1  0  0  0  0
 14 25  2  0  0  0  0
 15 24  2  0  0  0  0
 15 26  1  0  0  0  0
 16 25  1  0  0  0  0
 16 26  2  0  0  0  0
 17 30  2  0  0  0  0
 17 31  1  0  0  0  0
 18 32  1  0  0  0  0
 19 32  1  0  0  0  0
 19 33  2  0  0  0  0
 19 34  1  0  0  0  0
 20 22  2  0  0  0  0
 20 39  1  0  0  0  0
 21 23  2  0  0  0  0
 21 40  1  0  0  0  0
 22 51  1  0  0  0  0
 23 41  1  0  0  0  0
 24 60  1  0  0  0  0
 25 69  1  0  0  0  0
 26 72  1  0  0  0  0
 27 82  1  0  0  0  0
 28 83  1  0  0  0  0
 29 31  2  0  0  0  0
 29 82  1  0  0  0  0
 30 84  1  0  0  0  0
 31 85  1  0  0  0  0
 32 65  2  0  0  0  0
 33 66  1  0  0  0  0
 33 70  1  0  0  0  0
 34 71  1  0  0  0  0
 34 77  2  0  0  0  0
 35 52  1  0  0  0  0
 35 73  1  0  0  0  0
 35 78  2  0  0  0  0
 36 62  1  0  0  0  0
 36 67  1  0  0  0  0
 36 79  2  0  0  0  0
 37 63  1  0  0  0  0
 37 74  1  0  0  0  0
 37 80  2  0  0  0  0
 38 68  1  0  0  0  0
 38 72  1  0  0  0  0
 38 81  2  0  0  0  0
 39 42  1  0  0  0  0
 40 52  1  0  0  0  0
 41 67  1  0  0  0  0
 42 45  1  0  0  0  0
 43 46  1  0  0  0  0
 43 48  1  0  0  0  0
 44 47  1  0  0  0  0
 44 50  1  0  0  0  0
 45 51  1  0  0  0  0
 46 53  1  0  0  0  0
 47 54  1  0  0  0  0
 48 68  1  0  0  0  0
 49 53  1  0  0  0  0
 49 68  1  0  0  0  0
 50 75  1  0  0  0  0
 51 73  1  0  0  0  0
 52 67  1  0  0  0  0
 53 66  1  0  0  0  0
 54 61  1  0  0  0  0
 54 75  1  0  0  0  0
 55 63  1  0  0  0  0
 56 64  1  0  0  0  0
 57 64  1  0  0  0  0
 58 64  1  0  0  0  0
 59 76  1  0  0  0  0
 60 75  1  0  0  0  0
 61 83  1  0  0  0  0
 62 64  1  0  0  0  0
 62 74  1  0  0  0  0
 63 76  1  0  0  0  0
 65 66  1  0  0  0  0
M  CHG  2  75   1  76   1
M  ISO  4  38 100  61 101  72 100  83 101
M  END
> <Batch ID>
0098

> <Smiles>
CNC(C)C(=O)NC(C(=O)N1Cc2cc([101O:1][101CH2:1]C3CCCN3Cc3cc(N)cc([100NH:0][100C:0](=O)N4CCCC(n5nc(-c6ccc(Oc7ccc(F)cc7F)cc6)c(C(N)=O)c5N)C4)c3)ccc2CC1C(=O)NC1CCCc2ccccc21)C(C)(C)C

> <Shape>
0.256

> <Color>
0.057

> <Negative vol penalty>
0.000

$$$$

  -OEChem-04052300513D

 85 93  0     1  0  0  0  0  0999 V2000
  -27.6169  -33.5622   26.5732 C   0  0  0  0  0  0  0  0  0  0  0  0
  -27.8620  -32.4142   25.8265 C   0  0  0  0  0  0  0  0  0  0  0  0
  -23.9154  -12.8246   20.8131 C   0  0  0  0  0  0  0  0  0  0  0  0
  -26.2762  -12.3174   20.7306 C   0  0  0  0  0  0  0  0  0  0  0  0
  -26.3095  -33.9018   26.9186 C   0  0  0  0  0  0  0  0  0  0  0  0
  -26.7998  -31.6046   25.4257 C   0  0  0  0  0  0  0  0  0  0  0  0
  -27.1716  -30.1680   20.5839 C   0  0  0  0  0  0  0  0  0  0  0  0
  -32.5858  -20.1092   21.5912 C   0  0  0  0  0  0  0  0  0  0  0  0
  -23.6231  -11.5374   20.3623 C   0  0  0  0  0  0  0  0  0  0  0  0
  -25.9838  -11.0301   20.2798 C   0  0  0  0  0  0  0  0  0  0  0  0
  -28.0602  -29.1338   20.2930 C   0  0  0  0  0  0  0  0  0  0  0  0
  -32.7111  -21.4939   21.4797 C   0  0  0  0  0  0  0  0  0  0  0  0
  -23.4573   -8.4206   21.6625 C   0  0  0  0  0  0  0  0  0  0  0  0
  -22.4378   -7.7229   22.3101 C   0  0  0  0  0  0  0  0  0  0  0  0
  -26.2183  -27.5774   20.2280 C   0  0  0  0  0  0  0  0  0  0  0  0
  -21.2216   -7.5677   20.2284 C   0  0  0  0  0  0  0  0  0  0  0  0
  -25.2420  -13.2147   20.9972 C   0  0  0  0  0  0  0  0  0  0  0  0
  -25.6824  -14.9670   22.7980 C   0  0  0  0  0  0  0  0  0  0  0  0
  -25.2299  -33.1011   26.5136 C   0  0  0  0  0  0  0  0  0  0  0  0
  -25.7986  -29.9123   20.7100 C   0  0  0  0  0  0  0  0  0  0  0  0
  -25.4769  -31.9330   25.7671 C   0  0  0  0  0  0  0  0  0  0  0  0
  -25.3140  -28.6105   20.5180 C   0  0  0  0  0  0  0  0  0  0  0  0
  -31.9905  -19.3778   20.5633 C   0  0  0  0  0  0  0  0  0  0  0  0
  -31.5205  -20.0311   19.4241 C   0  0  0  0  0  0  0  0  0  0  0  0
  -24.6572  -10.6402   20.0957 C   0  0  0  0  0  0  0  0  0  0  0  0
  -27.5840  -27.8378   20.1179 C   0  0  0  0  0  0  0  0  0  0  0  0
  -23.3589   -8.6919   20.2978 C   0  0  0  0  0  0  0  0  0  0  0  0
  -32.2410  -22.1473   20.3405 C   0  0  0  0  0  0  0  0  0  0  0  0
  -21.3200   -7.2964   21.5931 C   0  0  0  0  0  0  0  0  0  0  0  0
  -22.2411   -8.2654   19.5807 C   0  0  0  0  0  0  0  0  0  0  0  0
  -31.6458  -21.4159   19.3126 C   0  0  0  0  0  0  0  0  0  0  0  0
  -25.5447  -14.5444   21.4622 C   0  0  0  0  0  0  0  0  0  0  0  0
  -25.9680  -16.3073   22.7063 C   0  0  0  0  0  0  0  0  0  0  0  0
  -25.5629  -14.2152   24.0130 C   0  0  0  0  0  0  0  0  0  0  0  0
  -23.6716  -30.1884   23.0560 C   0  0  0  0  0  0  0  0  0  0  0  0
  -21.5716  -29.3731   20.7220 C   0  0  0  0  0  0  0  0  0  0  0  0
  -21.0272  -27.8473   17.7182 C   0  0  0  0  0  0  0  0  0  0  0  0
  -28.4329  -19.6662   18.4059 C   0  0  0  0  0  0  0  0  0  0  0  0
  -23.8382  -33.4834   26.9512 C   0  0  0  0  0  0  0  0  0  0  0  0
  -24.8499  -31.0435   20.9977 C   0  0  0  0  0  0  0  0  0  0  0  0
  -23.8467  -28.2871   20.6227 C   0  0  0  0  0  0  0  0  0  0  0  0
  -22.7368  -32.7734   26.1682 C   0  0  0  0  0  0  0  0  0  0  0  0
  -25.2304  -20.1095   19.8974 C   0  0  0  0  0  0  0  0  0  0  0  0
  -23.0395  -31.2827   26.0535 C   0  0  0  0  0  0  0  0  0  0  0  0
  -24.9603  -18.7717   20.5881 C   0  0  0  0  0  0  0  0  0  0  0  0
  -25.9750  -19.9229   18.5772 C   0  0  0  0  0  0  0  0  0  0  0  0
  -26.9503  -17.8011   19.3648 C   0  0  0  0  0  0  0  0  0  0  0  0
  -24.3490  -31.0426   25.2926 C   0  0  1  0  0  0  0  0  0  0  0  0
  -23.5332  -30.5777   21.6113 C   0  0  1  0  0  0  0  0  0  0  0  0
  -26.2507  -17.9419   20.7276 C   0  0  2  0  0  0  0  0  0  0  0  0
  -31.8679  -17.8961   20.7053 C   0  0  0  0  0  0  0  0  0  0  0  0
  -19.2000  -27.3098   16.0843 C   0  0  0  0  0  0  0  0  0  0  0  0
  -20.5885  -27.1436   22.5585 C   0  0  0  0  0  0  0  0  0  0  0  0
  -19.4873  -26.0886   20.5730 C   0  0  0  0  0  0  0  0  0  0  0  0
  -18.7794  -28.3575   21.3304 C   0  0  0  0  0  0  0  0  0  0  0  0
  -22.3268  -29.4160   15.5713 C   0  0  0  0  0  0  0  0  0  0  0  0
  -30.8804  -19.2663   18.3123 C   0  0  0  0  0  0  0  0  0  0  0  0
  -30.3597  -25.5581   20.5909 C   0  0  0  0  0  0  0  0  0  0  0  0
  -31.7720  -25.6353   21.1602 C   0  0  0  0  0  0  0  0  0  0  0  0
  -29.7756  -26.9434   20.3479 C   0  0  0  0  0  0  0  0  0  1  0  0
  -32.3403  -24.2519   21.4435 C   0  0  0  0  0  0  0  0  0  0  0  0
  -21.0173  -28.0742   20.1886 C   0  0  1  0  0  0  0  0  0  0  0  0
  -20.2819  -28.3038   16.4770 C   0  0  2  0  0  0  0  0  0  0  0  0
  -19.9961  -27.4214   21.1625 C   0  0  0  0  0  0  0  0  0  0  0  0
  -25.7276  -15.5359   20.5862 N   0  0  0  0  0  0  0  0  0  0  0  0
  -25.9831  -16.5949   21.3732 N   0  0  0  0  0  0  0  0  0  0  0  0
  -22.9598  -29.4260   20.9119 N   0  0  0  0  0  0  0  0  0  0  0  0
  -27.1897  -19.1293   18.7790 N   0  0  0  0  0  0  0  0  0  0  0  0
  -26.2052  -17.2562   23.6368 N   0  0  0  0  0  0  0  0  0  0  0  0
  -25.2654  -12.8484   23.9264 N   0  0  0  0  0  0  0  0  0  0  0  0
  -24.1428  -31.2016   23.8690 N   0  0  0  0  0  0  0  0  0  0  0  0
  -20.4758  -28.3733   18.8674 N   0  0  0  0  0  0  0  0  0  0  0  0
  -29.5341  -18.8509   18.6372 N   0  0  0  0  0  0  0  0  0  0  0  0
  -21.2240  -28.4499   15.3316 N   0  3  0  0  0  0  0  0  0  0  0  0
  -25.6992  -14.7435   25.1425 O   0  0  0  0  0  0  0  0  0  0  0  0
  -23.3717  -29.0534   23.4073 O   0  0  0  0  0  0  0  0  0  0  0  0
  -20.8022  -30.3088   20.9545 O   0  0  0  0  0  0  0  0  0  0  0  0
  -21.9989  -27.0961   17.6732 O   0  0  0  0  0  0  0  0  0  0  0  0
  -28.5532  -20.7912   17.9089 O   0  0  0  0  0  0  0  0  0  0  0  0
  -24.3723   -9.3840   19.6561 O   0  0  0  0  0  0  0  0  0  0  0  0
  -28.4492  -26.8264   19.8345 O   0  0  0  0  0  0  0  0  0  1  0  0
  -32.3648  -23.5082   20.2330 O   0  0  0  0  0  0  0  0  0  0  0  0
  -20.3418   -6.6251   22.2149 F   0  0  0  0  0  0  0  0  0  0  0  0
  -22.1415   -8.5220   18.2692 F   0  0  0  0  0  0  0  0  0  0  0  0
  -31.1956  -22.0479   18.2187 F   0  0  0  0  0  0  0  0  0  0  0  0
  1  2  1  0  0  0  0
  1  5  2  0  0  0  0
  2  6  2  0  0  0  0
  3  9  2  0  0  0  0
  3 17  1  0  0  0  0
  4 10  1  0  0  0  0
  4 17  2  0  0  0  0
  5 19  1  0  0  0  0
  6 21  1  0  0  0  0
  7 11  2  0  0  0  0
  7 20  1  0  0  0  0
  8 12  2  0  0  0  0
  8 23  1  0  0  0  0
  9 25  1  0  0  0  0
 10 25  2  0  0  0  0
 11 26  1  0  0  0  0
 12 28  1  0  0  0  0
 13 14  2  0  0  0  0
 13 27  1  0  0  0  0
 14 29  1  0  0  0  0
 15 22  1  0  0  0  0
 15 26  2  0  0  0  0
 16 29  2  0  0  0  0
 16 30  1  0  0  0  0
 17 32  1  0  0  0  0
 18 32  1  0  0  0  0
 18 33  2  0  0  0  0
 18 34  1  0  0  0  0
 19 21  2  0  0  0  0
 19 39  1  0  0  0  0
 20 22  2  0  0  0  0
 20 40  1  0  0  0  0
 21 48  1  0  0  0  0
 22 41  1  0  0  0  0
 23 24  2  0  0  0  0
 23 51  1  0  0  0  0
 24 31  1  0  0  0  0
 24 57  1  0  0  0  0
 25 80  1  0  0  0  0
 26 81  1  0  0  0  0
 27 30  2  0  0  0  0
 27 80  1  0  0  0  0
 28 31  2  0  0  0  0
 28 82  1  0  0  0  0
 29 83  1  0  0  0  0
 30 84  1  0  0  0  0
 31 85  1  0  0  0  0
 32 65  2  0  0  0  0
 33 66  1  0  0  0  0
 33 69  1  0  0  0  0
 34 70  1  0  0  0  0
 34 75  2  0  0  0  0
 35 49  1  0  0  0  0
 35 71  1  0  0  0  0
 35 76  2  0  0  0  0
 36 62  1  0  0  0  0
 36 67  1  0  0  0  0
 36 77  2  0  0  0  0
 37 63  1  0  0  0  0
 37 72  1  0  0  0  0
 37 78  2  0  0  0  0
 38 68  1  0  0  0  0
 38 73  1  0  0  0  0
 38 79  2  0  0  0  0
 39 42  1  0  0  0  0
 40 49  1  0  0  0  0
 41 67  1  0  0  0  0
 42 44  1  0  0  0  0
 43 45  1  0  0  0  0
 43 46  1  0  0  0  0
 44 48  1  0  0  0  0
 45 50  1  0  0  0  0
 46 68  1  0  0  0  0
 47 50  1  0  0  0  0
 47 68  1  0  0  0  0
 48 71  1  0  0  0  0
 49 67  1  0  0  0  0
 50 66  1  0  0  0  0
 52 63  1  0  0  0  0
 53 64  1  0  0  0  0
 54 64  1  0  0  0  0
 55 64  1  0  0  0  0
 56 74  1  0  0  0  0
 57 73  1  0  0  0  0
 58 59  1  0  0  0  0
 58 60  1  0  0  0  0
 59 61  1  0  0  0  0
 60 81  1  0  0  0  0
 61 82  1  0  0  0  0
 62 64  1  0  0  0  0
 62 72  1  0  0  0  0
 63 74  1  0  0  0  0
 65 66  1  0  0  0  0
M  CHG  1  74   1
M  ISO  4  38 100  60 101  73 100  81 101
M  END
> <Batch ID>
0098

> <Smiles>
CNC(C)C(=O)NC(C(=O)N1Cc2cc([101O:1][101CH2:1]CCCOc3ccc(C)c(C[100NH:0][100C:0](=O)N4CCCC(n5nc(-c6ccc(Oc7ccc(F)cc7F)cc6)c(C(N)=O)c5N)C4)c3F)ccc2CC1C(=O)NC1CCCc2ccccc21)C(C)(C)C

> <Shape>
0.261

> <Color>
0.088

> <Negative vol penalty>
0.000

$$$$

  -OEChem-04052300513D

 83 91  0     1  0  0  0  0  0999 V2000
  -16.9265  -27.5694   20.8184 C   0  0  0  0  0  0  0  0  0  0  0  0
  -17.9705  -26.7374   21.2097 C   0  0  0  0  0  0  0  0  0  0  0  0
  -23.1371  -10.3614   20.9301 C   0  0  0  0  0  0  0  0  0  0  0  0
  -24.6148   -8.9891   22.2607 C   0  0  0  0  0  0  0  0  0  0  0  0
  -27.3893  -20.5704   20.7524 C   0  0  0  0  0  0  0  0  0  0  0  0
  -17.1342  -28.9441   20.7131 C   0  0  0  0  0  0  0  0  0  0  0  0
  -19.2232  -27.2794   21.4949 C   0  0  0  0  0  0  0  0  0  0  0  0
  -21.2470  -25.3729   25.7275 C   0  0  0  0  0  0  0  0  0  0  0  0
  -26.4325  -21.2645   21.4929 C   0  0  0  0  0  0  0  0  0  0  0  0
  -22.2958   -9.2661   20.7349 C   0  0  0  0  0  0  0  0  0  0  0  0
  -23.7735   -7.8938   22.0655 C   0  0  0  0  0  0  0  0  0  0  0  0
  -21.8224  -24.1058   25.6434 C   0  0  0  0  0  0  0  0  0  0  0  0
  -20.8517   -6.7452   23.3163 C   0  0  0  0  0  0  0  0  0  0  0  0
  -20.5481   -5.9571   24.4264 C   0  0  0  0  0  0  0  0  0  0  0  0
  -24.0083  -25.1151   25.4936 C   0  0  0  0  0  0  0  0  0  0  0  0
  -25.8846  -19.2363   22.6860 C   0  0  0  0  0  0  0  0  0  0  0  0
  -21.5244   -4.0378   23.3309 C   0  0  0  0  0  0  0  0  0  0  0  0
  -24.2967  -10.2229   21.6930 C   0  0  0  0  0  0  0  0  0  0  0  0
  -27.5937  -19.2092   20.9786 C   0  0  0  0  0  0  0  0  0  0  0  0
  -25.1052  -12.2982   22.9369 C   0  0  0  0  0  0  0  0  0  0  0  0
  -18.3874  -29.5044   21.0065 C   0  0  0  0  0  0  0  0  0  0  0  0
  -22.0483  -26.5229   25.6843 C   0  0  0  0  0  0  0  0  0  0  0  0
  -19.4482  -28.6627   21.3922 C   0  0  0  0  0  0  0  0  0  0  0  0
  -23.4408  -26.3955   25.5800 C   0  0  0  0  0  0  0  0  0  0  0  0
  -25.6802  -20.5975   22.4597 C   0  0  0  0  0  0  0  0  0  0  0  0
  -22.6139   -8.0323   21.3025 C   0  0  0  0  0  0  0  0  0  0  0  0
  -23.2030  -23.9768   25.5235 C   0  0  0  0  0  0  0  0  0  0  0  0
  -21.4916   -6.1795   22.2134 C   0  0  0  0  0  0  0  0  0  0  0  0
  -20.8845   -4.6034   24.4338 C   0  0  0  0  0  0  0  0  0  0  0  0
  -26.8413  -18.5422   21.9454 C   0  0  0  0  0  0  0  0  0  0  0  0
  -21.8280   -4.8259   22.2208 C   0  0  0  0  0  0  0  0  0  0  0  0
  -25.1664  -11.3538   21.8946 C   0  0  0  0  0  0  0  0  0  0  0  0
  -26.1413  -13.1621   22.6787 C   0  0  0  0  0  0  0  0  0  0  0  0
  -28.6133  -18.4739   20.1871 C   0  0  0  0  0  0  0  0  0  0  0  0
  -24.1934  -12.3865   24.0398 C   0  0  0  0  0  0  0  0  0  0  0  0
  -22.2885  -29.0173   23.7288 C   0  0  0  0  0  0  0  0  0  0  0  0
  -24.3691  -30.0846   25.9770 C   0  0  0  0  0  0  0  0  0  0  0  0
  -26.5214  -29.3403   28.5188 C   0  0  0  0  0  0  0  0  0  0  0  0
  -29.1536  -16.2637   19.2140 C   0  0  0  0  0  0  0  0  0  0  0  0
  -18.5768  -30.9905   20.8327 C   0  0  0  0  0  0  0  0  0  0  0  0
  -21.4144  -27.8817   25.8030 C   0  0  0  0  0  0  0  0  0  0  0  0
  -24.3470  -27.5982   25.5495 C   0  0  0  0  0  0  0  0  0  0  0  0
  -19.8321  -31.5285   21.5148 C   0  0  0  0  0  0  0  0  0  0  0  0
  -29.9684  -12.8277   19.3778 C   0  0  0  0  0  0  0  0  0  0  0  0
  -21.0314  -30.6386   21.2043 C   0  0  0  0  0  0  0  0  0  0  0  0
  -28.7913  -12.2133   20.1402 C   0  0  0  0  0  0  0  0  0  0  0  0
  -29.5143  -13.9389   18.4324 C   0  0  0  0  0  0  0  0  0  0  0  0
  -27.5210  -14.3723   19.8097 C   0  0  0  0  0  0  0  0  0  0  0  0
  -20.8147  -29.2159   21.7340 C   0  0  1  0  0  0  0  0  0  0  0  0
  -22.2827  -28.9981   25.2313 C   0  0  1  0  0  0  0  0  0  0  0  0
  -27.9348  -13.2963   20.8266 C   0  0  1  0  0  0  0  0  0  0  0  0
  -28.1049  -30.4196   30.1388 C   0  0  0  0  0  0  0  0  0  0  0  0
  -26.4078  -30.4506   23.7365 C   0  0  0  0  0  0  0  0  0  0  0  0
  -28.1957  -30.6021   25.4826 C   0  0  0  0  0  0  0  0  0  0  0  0
  -26.3671  -32.2978   25.4220 C   0  0  0  0  0  0  0  0  0  0  0  0
  -24.9841  -28.3633   30.8514 C   0  0  0  0  0  0  0  0  0  0  0  0
  -23.9080  -20.6756   24.2144 C   0  0  0  0  0  0  0  0  0  0  0  0
  -22.9862  -21.7096   24.8388 C   0  0  0  0  0  0  0  0  0  1  0  0
  -25.8549  -29.9502   26.2083 C   0  0  1  0  0  0  0  0  0  0  0  0
  -26.6832  -29.9319   29.9074 C   0  0  2  0  0  0  0  0  0  0  0  0
  -26.6894  -30.8023   25.2110 C   0  0  0  0  0  0  0  0  0  0  0  0
  -26.1625  -11.5950   21.0381 N   0  0  0  0  0  0  0  0  0  0  0  0
  -26.7367  -12.7008   21.5416 N   0  0  0  0  0  0  0  0  0  0  0  0
  -23.6790  -28.9053   25.6624 N   0  0  0  0  0  0  0  0  0  0  0  0
  -28.7180  -14.9281   19.1609 N   0  0  0  0  0  0  0  0  0  0  0  0
  -26.5920  -14.2637   23.3156 N   0  0  0  0  0  0  0  0  0  0  0  0
  -23.1881  -11.4168   24.1549 N   0  0  0  0  0  0  0  0  0  0  0  0
  -24.7302  -21.2866   23.1952 N   0  0  0  0  0  0  0  0  0  0  0  0
  -28.3468  -17.1218   19.9696 N   0  0  0  0  0  0  0  0  0  0  0  0
  -21.0369  -29.1695   23.1633 N   0  0  0  0  0  0  0  0  0  0  0  0
  -26.0811  -30.2804   27.6112 N   0  0  0  0  0  0  0  0  0  0  0  0
  -26.3613  -28.9123   30.9456 N   0  3  0  0  0  0  0  0  0  0  0  0
  -29.5838  -19.0845   19.7476 O   0  0  0  0  0  0  0  0  0  0  0  0
  -24.2579  -13.3078   24.8887 O   0  0  0  0  0  0  0  0  0  0  0  0
  -23.3500  -28.9040   23.1272 O   0  0  0  0  0  0  0  0  0  0  0  0
  -23.8392  -31.1938   26.0788 O   0  0  0  0  0  0  0  0  0  0  0  0
  -26.7650  -28.1629   28.2638 O   0  0  0  0  0  0  0  0  0  0  0  0
  -30.1914  -16.6511   18.6681 O   0  0  0  0  0  0  0  0  0  0  0  0
  -21.7931   -6.9634   21.1124 O   0  0  0  0  0  0  0  0  0  0  0  0
  -23.7673  -22.7412   25.4406 O   0  0  0  0  0  0  0  0  0  1  0  0
  -20.5942   -3.8471   25.5005 F   0  0  0  0  0  0  0  0  0  0  0  0
  -27.0279  -17.2337   22.1692 F   0  0  0  0  0  0  0  0  0  0  0  0
  -22.4439   -4.2771   21.1647 F   0  0  0  0  0  0  0  0  0  0  0  0
  1  2  1  0  0  0  0
  1  6  2  0  0  0  0
  2  7  2  0  0  0  0
  3 10  2  0  0  0  0
  3 18  1  0  0  0  0
  4 11  1  0  0  0  0
  4 18  2  0  0  0  0
  5  9  2  0  0  0  0
  5 19  1  0  0  0  0
  6 21  1  0  0  0  0
  7 23  1  0  0  0  0
  8 12  2  0  0  0  0
  8 22  1  0  0  0  0
  9 25  1  0  0  0  0
 10 26  1  0  0  0  0
 11 26  2  0  0  0  0
 12 27  1  0  0  0  0
 13 14  2  0  0  0  0
 13 28  1  0  0  0  0
 14 29  1  0  0  0  0
 15 24  1  0  0  0  0
 15 27  2  0  0  0  0
 16 25  2  0  0  0  0
 16 30  1  0  0  0  0
 17 29  2  0  0  0  0
 17 31  1  0  0  0  0
 18 32  1  0  0  0  0
 19 30  2  0  0  0  0
 19 34  1  0  0  0  0
 20 32  1  0  0  0  0
 20 33  2  0  0  0  0
 20 35  1  0  0  0  0
 21 23  2  0  0  0  0
 21 40  1  0  0  0  0
 22 24  2  0  0  0  0
 22 41  1  0  0  0  0
 23 49  1  0  0  0  0
 24 42  1  0  0  0  0
 25 68  1  0  0  0  0
 26 79  1  0  0  0  0
 27 80  1  0  0  0  0
 28 31  2  0  0  0  0
 28 79  1  0  0  0  0
 29 81  1  0  0  0  0
 30 82  1  0  0  0  0
 31 83  1  0  0  0  0
 32 62  2  0  0  0  0
 33 63  1  0  0  0  0
 33 66  1  0  0  0  0
 34 69  1  0  0  0  0
 34 73  2  0  0  0  0
 35 67  1  0  0  0  0
 35 74  2  0  0  0  0
 36 50  1  0  0  0  0
 36 70  1  0  0  0  0
 36 75  2  0  0  0  0
 37 59  1  0  0  0  0
 37 64  1  0  0  0  0
 37 76  2  0  0  0  0
 38 60  1  0  0  0  0
 38 71  1  0  0  0  0
 38 77  2  0  0  0  0
 39 65  1  0  0  0  0
 39 69  1  0  0  0  0
 39 78  2  0  0  0  0
 40 43  1  0  0  0  0
 41 50  1  0  0  0  0
 42 64  1  0  0  0  0
 43 45  1  0  0  0  0
 44 46  1  0  0  0  0
 44 47  1  0  0  0  0
 45 49  1  0  0  0  0
 46 51  1  0  0  0  0
 47 65  1  0  0  0  0
 48 51  1  0  0  0  0
 48 65  1  0  0  0  0
 49 70  1  0  0  0  0
 50 64  1  0  0  0  0
 51 63  1  0  0  0  0
 52 60  1  0  0  0  0
 53 61  1  0  0  0  0
 54 61  1  0  0  0  0
 55 61  1  0  0  0  0
 56 72  1  0  0  0  0
 57 58  1  0  0  0  0
 57 68  1  0  0  0  0
 58 80  1  0  0  0  0
 59 61  1  0  0  0  0
 59 71  1  0  0  0  0
 60 72  1  0  0  0  0
 62 63  1  0  0  0  0
M  CHG  1  72   1
M  ISO  4  39 100  58 101  69 100  80 101
M  END
> <Batch ID>
0098

> <Smiles>
CNC(C)C(=O)NC(C(=O)N1Cc2cc([101O:1][101CH2:1]CNc3ccc(C(=O)[100NH:0][100C:0](=O)N4CCCC(n5nc(-c6ccc(Oc7ccc(F)cc7F)cc6)c(C(N)=O)c5N)C4)c(F)c3)ccc2CC1C(=O)NC1CCCc2ccccc21)C(C)(C)C

> <Shape>
0.238

> <Color>
0.123

> <Negative vol penalty>
0.000

$$$$

  -OEChem-04052300513D

 86 95  0     1  0  0  0  0  0999 V2000
  -27.1131  -29.1158   19.2891 C   0  0  0  0  0  0  0  0  0  0  0  0
  -26.9262  -27.8808   18.6786 C   0  0  0  0  0  0  0  0  0  0  0  0
  -30.4668  -20.2754   19.7377 C   0  0  0  0  0  0  0  0  0  0  0  0
  -28.1648  -19.9425   20.3915 C   0  0  0  0  0  0  0  0  0  0  0  0
  -26.8190  -29.2719   20.6420 C   0  0  0  0  0  0  0  0  0  0  0  0
  -26.4337  -26.8047   19.4178 C   0  0  0  0  0  0  0  0  0  0  0  0
  -24.0254  -19.3677   20.8718 C   0  0  0  0  0  0  0  0  0  0  0  0
  -22.6972  -13.7950   23.2709 C   0  0  0  0  0  0  0  0  0  0  0  0
  -24.8263  -14.0335   24.3876 C   0  0  0  0  0  0  0  0  0  0  0  0
  -22.1183  -14.6729   24.1872 C   0  0  0  0  0  0  0  0  0  0  0  0
  -24.2474  -14.9115   25.3039 C   0  0  0  0  0  0  0  0  0  0  0  0
  -30.1418  -21.5352   19.2348 C   0  0  0  0  0  0  0  0  0  0  0  0
  -27.8398  -21.2024   19.8886 C   0  0  0  0  0  0  0  0  0  0  0  0
  -23.8011  -18.4515   21.8985 C   0  0  0  0  0  0  0  0  0  0  0  0
  -29.5711  -24.6348   20.4595 C   0  0  0  0  0  0  0  0  0  0  0  0
  -30.4211  -25.6960   20.7708 C   0  0  0  0  0  0  0  0  0  0  0  0
  -22.3203  -20.0251   22.9710 C   0  0  0  0  0  0  0  0  0  0  0  0
  -30.8400  -26.0507   18.4180 C   0  0  0  0  0  0  0  0  0  0  0  0
  -29.4783  -19.4790   20.3160 C   0  0  0  0  0  0  0  0  0  0  0  0
  -30.7350  -17.8811   21.8570 C   0  0  0  0  0  0  0  0  0  0  0  0
  -26.3346  -28.1935   21.4004 C   0  0  0  0  0  0  0  0  0  0  0  0
  -23.4062  -20.6258   20.8927 C   0  0  0  0  0  0  0  0  0  0  0  0
  -26.1083  -26.9486   20.7787 C   0  0  0  0  0  0  0  0  0  0  0  0
  -22.5363  -20.9544   21.9421 C   0  0  0  0  0  0  0  0  0  0  0  0
  -24.0513  -13.4752   23.3711 C   0  0  0  0  0  0  0  0  0  0  0  0
  -22.8933  -15.2312   25.2037 C   0  0  0  0  0  0  0  0  0  0  0  0
  -28.8284  -21.9987   19.3103 C   0  0  0  0  0  0  0  0  0  0  0  0
  -22.9507  -18.7812   22.9498 C   0  0  0  0  0  0  0  0  0  0  0  0
  -29.3557  -24.2814   19.1274 C   0  0  0  0  0  0  0  0  0  0  0  0
  -31.0555  -26.4040   19.7501 C   0  0  0  0  0  0  0  0  0  0  0  0
  -29.9901  -24.9894   18.1067 C   0  0  0  0  0  0  0  0  0  0  0  0
  -29.8132  -18.1773   20.8351 C   0  0  0  0  0  0  0  0  0  0  0  0
  -30.6879  -16.5136   21.9761 C   0  0  0  0  0  0  0  0  0  0  0  0
  -21.2114  -17.8225   28.0986 C   0  0  0  0  0  0  0  0  0  0  0  0
  -31.5599  -18.7632   22.6297 C   0  0  0  0  0  0  0  0  0  0  0  0
  -24.4355  -23.6306   21.0152 C   0  0  0  0  0  0  0  0  0  0  0  0
  -21.2914  -24.3137   20.6028 C   0  0  0  0  0  0  0  0  0  0  0  0
  -18.1412  -23.0686   21.8450 C   0  0  0  0  0  0  0  0  0  0  0  0
  -26.4795  -12.4517   20.6947 C   0  0  0  0  0  0  0  0  0  0  0  0
  -26.0251  -28.4202   22.8592 C   0  0  0  0  0  0  0  0  0  0  0  0
  -23.6376  -21.5926   19.7639 C   0  0  0  0  0  0  0  0  0  0  0  0
  -21.8313  -22.2841   22.0009 C   0  0  0  0  0  0  0  0  0  0  0  0
  -20.6048  -16.4625   27.8713 C   0  0  0  0  0  0  0  0  0  0  0  0
  -22.6661  -17.9647   27.7252 C   0  0  0  0  0  0  0  0  0  0  0  0
  -25.9333  -27.1229   23.6560 C   0  0  0  0  0  0  0  0  0  0  0  0
  -29.8052  -12.5614   19.4281 C   0  0  0  0  0  0  0  0  0  0  0  0
  -25.0244  -26.1357   22.9391 C   0  0  0  0  0  0  0  0  0  0  0  0
  -30.2676  -13.9864   19.7373 C   0  0  0  0  0  0  0  0  0  0  0  0
  -20.8924  -15.9641   26.4617 C   0  0  0  0  0  0  0  0  0  0  0  0
  -28.3273  -12.5179   19.0462 C   0  0  0  0  0  0  0  0  0  0  0  0
  -27.8794  -14.5738   20.3294 C   0  0  0  0  0  0  0  0  0  0  0  0
  -25.6027  -25.7559   21.5701 C   0  0  1  0  0  0  0  0  0  0  0  0
  -23.3569  -23.0413   20.1510 C   0  0  1  0  0  0  0  0  0  0  0  0
  -29.3495  -14.6613   20.7741 C   0  0  2  0  0  0  0  0  0  0  0  0
  -22.9377  -17.4394   26.3132 C   0  0  2  0  0  0  0  0  0  0  0  0
  -15.8537  -23.0994   20.8136 C   0  0  0  0  0  0  0  0  0  0  0  0
  -20.9273  -26.8943   22.1897 C   0  0  0  0  0  0  0  0  0  0  0  0
  -18.5641  -26.2013   22.6410 C   0  0  0  0  0  0  0  0  0  0  0  0
  -19.3198  -26.5979   20.2970 C   0  0  0  0  0  0  0  0  0  0  0  0
  -17.8520  -20.1358   22.1174 C   0  0  0  0  0  0  0  0  0  0  0  0
  -24.6710  -12.5363   22.3922 C   0  0  0  0  0  0  0  0  0  0  0  0
  -22.4434  -18.4227   25.2455 C   0  0  0  0  0  0  0  0  0  1  0  0
  -20.1158  -24.5355   21.5236 C   0  0  1  0  0  0  0  0  0  0  0  0
  -17.1068  -22.2757   21.0666 C   0  0  2  0  0  0  0  0  0  0  0  0
  -19.7534  -26.0403   21.6702 C   0  0  0  0  0  0  0  0  0  0  0  0
  -29.2238  -17.0858   20.3400 N   0  0  0  0  0  0  0  0  0  0  0  0
  -29.7766  -16.0903   21.0538 N   0  0  0  0  0  0  0  0  0  0  0  0
  -22.3129  -16.1141   26.1225 N   0  0  2  0  0  0  0  0  0  0  0  0
  -22.0949  -23.1979   20.8770 N   0  0  0  0  0  0  0  0  0  0  0  0
  -27.5112  -13.1729   20.0713 N   0  0  0  0  0  0  0  0  0  0  0  0
  -31.3376  -15.6439   22.7786 N   0  0  0  0  0  0  0  0  0  0  0  0
  -31.0478  -19.2780   23.8285 N   0  0  0  0  0  0  0  0  0  0  0  0
  -24.6188  -24.9888   20.8383 N   0  0  0  0  0  0  0  0  0  0  0  0
  -19.0313  -23.7072   21.0077 N   0  0  0  0  0  0  0  0  0  0  0  0
  -25.7586  -13.1451   21.6593 N   0  0  0  0  0  0  0  0  0  0  0  0
  -16.7192  -21.0498   21.8202 N   0  3  0  0  0  0  0  0  0  0  0  0
  -20.5895  -18.7289   28.6489 O   0  0  0  0  0  0  0  0  0  0  0  0
  -32.7107  -19.0983   22.2597 O   0  0  0  0  0  0  0  0  0  0  0  0
  -25.0546  -22.9070   21.7865 O   0  0  0  0  0  0  0  0  0  0  0  0
  -21.4853  -25.0975   19.6702 O   0  0  0  0  0  0  0  0  0  0  0  0
  -18.1556  -23.1195   23.0729 O   0  0  0  0  0  0  0  0  0  0  0  0
  -26.2235  -11.2753   20.4164 O   0  0  0  0  0  0  0  0  0  0  0  0
  -28.5109  -23.2281   18.8200 O   0  0  0  0  0  0  0  0  0  0  0  0
  -22.7306  -17.8891   23.9535 O   0  0  0  0  0  0  0  0  0  1  0  0
  -31.8705  -27.4241   20.0491 F   0  0  0  0  0  0  0  0  0  0  0  0
  -29.7861  -24.6553   16.8251 F   0  0  0  0  0  0  0  0  0  0  0  0
  1  2  1  0  0  0  0
  1  5  2  0  0  0  0
  2  6  2  0  0  0  0
  3 12  2  0  0  0  0
  3 19  1  0  0  0  0
  4 13  1  0  0  0  0
  4 19  2  0  0  0  0
  5 21  1  0  0  0  0
  6 23  1  0  0  0  0
  7 14  2  0  0  0  0
  7 22  1  0  0  0  0
  8 10  2  0  0  0  0
  8 25  1  0  0  0  0
  9 11  1  0  0  0  0
  9 25  2  0  0  0  0
 10 26  1  0  0  0  0
 11 26  2  0  0  0  0
 12 27  1  0  0  0  0
 13 27  2  0  0  0  0
 14 28  1  0  0  0  0
 15 16  2  0  0  0  0
 15 29  1  0  0  0  0
 16 30  1  0  0  0  0
 17 24  1  0  0  0  0
 17 28  2  0  0  0  0
 18 30  2  0  0  0  0
 18 31  1  0  0  0  0
 19 32  1  0  0  0  0
 20 32  1  0  0  0  0
 20 33  2  0  0  0  0
 20 35  1  0  0  0  0
 21 23  2  0  0  0  0
 21 40  1  0  0  0  0
 22 24  2  0  0  0  0
 22 41  1  0  0  0  0
 23 52  1  0  0  0  0
 24 42  1  0  0  0  0
 25 61  1  0  0  0  0
 26 68  1  0  0  0  0
 27 83  1  0  0  0  0
 28 84  1  0  0  0  0
 29 31  2  0  0  0  0
 29 83  1  0  0  0  0
 30 85  1  0  0  0  0
 31 86  1  0  0  0  0
 32 66  2  0  0  0  0
 33 67  1  0  0  0  0
 33 71  1  0  0  0  0
 34 43  1  0  0  0  0
 34 44  1  0  0  0  0
 34 77  2  0  0  0  0
 35 72  1  0  0  0  0
 35 78  2  0  0  0  0
 36 53  1  0  0  0  0
 36 73  1  0  0  0  0
 36 79  2  0  0  0  0
 37 63  1  0  0  0  0
 37 69  1  0  0  0  0
 37 80  2  0  0  0  0
 38 64  1  0  0  0  0
 38 74  1  0  0  0  0
 38 81  2  0  0  0  0
 39 70  1  0  0  0  0
 39 75  1  0  0  0  0
 39 82  2  0  0  0  0
 40 45  1  0  0  0  0
 41 53  1  0  0  0  0
 42 69  1  0  0  0  0
 43 49  1  0  0  0  0
 44 55  1  0  0  0  0
 45 47  1  0  0  0  0
 46 48  1  0  0  0  0
 46 50  1  0  0  0  0
 47 52  1  0  0  0  0
 48 54  1  0  0  0  0
 49 68  1  0  0  0  0
 50 70  1  0  0  0  0
 51 54  1  0  0  0  0
 51 70  1  0  0  0  0
 52 73  1  0  0  0  0
 53 69  1  0  0  0  0
 54 67  1  0  0  0  0
 55 62  1  0  0  0  0
 55 68  1  0  0  0  0
 56 64  1  0  0  0  0
 57 65  1  0  0  0  0
 58 65  1  0  0  0  0
 59 65  1  0  0  0  0
 60 76  1  0  0  0  0
 61 75  1  0  0  0  0
 62 84  1  0  0  0  0
 63 65  1  0  0  0  0
 63 74  1  0  0  0  0
 64 76  1  0  0  0  0
 66 67  1  0  0  0  0
M  CHG  1  76   1
M  ISO  4  39 100  62 101  75 100  84 101
M  END
> <Batch ID>
0098

> <Smiles>
CNC(C)C(=O)NC(C(=O)N1Cc2cc([101O:1][101CH2:1]C3CC(=O)CCN3c3ccc(C[100NH:0][100C:0](=O)N4CCCC(n5nc(-c6ccc(Oc7ccc(F)cc7F)cc6)c(C(N)=O)c5N)C4)cc3)ccc2CC1C(=O)NC1CCCc2ccccc21)C(C)(C)C

> <Shape>
0.208

> <Color>
0.053

> <Negative vol penalty>
0.000

$$$$

  -OEChem-04052300513D

 76 83  0     1  0  0  0  0  0999 V2000
  -22.2193  -20.2509   24.0782 C   0  0  0  0  0  0  0  0  0  0  0  0
  -23.5368  -20.6901   23.9957 C   0  0  0  0  0  0  0  0  0  0  0  0
  -26.5025  -14.9714   19.5656 C   0  0  0  0  0  0  0  0  0  0  0  0
  -25.4540  -14.9906   21.7422 C   0  0  0  0  0  0  0  0  0  0  0  0
  -21.2131  -20.9375   23.3999 C   0  0  0  0  0  0  0  0  0  0  0  0
  -23.8490  -21.8155   23.2339 C   0  0  0  0  0  0  0  0  0  0  0  0
  -28.1624  -25.9936   24.4355 C   0  0  0  0  0  0  0  0  0  0  0  0
  -26.4452  -13.5778   19.5503 C   0  0  0  0  0  0  0  0  0  0  0  0
  -25.3966  -13.5970   21.7268 C   0  0  0  0  0  0  0  0  0  0  0  0
  -29.4623  -26.1630   23.9609 C   0  0  0  0  0  0  0  0  0  0  0  0
  -23.4701  -11.2003   20.3252 C   0  0  0  0  0  0  0  0  0  0  0  0
  -22.2774  -10.5979   20.7253 C   0  0  0  0  0  0  0  0  0  0  0  0
  -28.6523  -27.7362   22.3213 C   0  0  0  0  0  0  0  0  0  0  0  0
  -23.4499   -9.4574   22.5034 C   0  0  0  0  0  0  0  0  0  0  0  0
  -26.0070  -15.6778   20.6616 C   0  0  0  0  0  0  0  0  0  0  0  0
  -25.0917  -18.0140   20.2010 C   0  0  0  0  0  0  0  0  0  0  0  0
  -21.5117  -22.0776   22.6373 C   0  0  0  0  0  0  0  0  0  0  0  0
  -27.0944  -26.6872   23.8485 C   0  0  0  0  0  0  0  0  0  0  0  0
  -22.8460  -22.5172   22.5437 C   0  0  0  0  0  0  0  0  0  0  0  0
  -27.3402  -27.5759   22.7920 C   0  0  0  0  0  0  0  0  0  0  0  0
  -25.8922  -12.8906   20.6309 C   0  0  0  0  0  0  0  0  0  0  0  0
  -29.7071  -27.0322   22.9017 C   0  0  0  0  0  0  0  0  0  0  0  0
  -24.6528  -10.9313   21.0141 C   0  0  0  0  0  0  0  0  0  0  0  0
  -22.2673   -9.7265   21.8144 C   0  0  0  0  0  0  0  0  0  0  0  0
  -24.6427  -10.0599   22.1032 C   0  0  0  0  0  0  0  0  0  0  0  0
  -26.0664  -17.1174   20.6783 C   0  0  0  0  0  0  0  0  0  0  0  0
  -25.6203  -19.2579   20.4456 C   0  0  0  0  0  0  0  0  0  0  0  0
  -23.8220  -17.7465   19.5912 C   0  0  0  0  0  0  0  0  0  0  0  0
  -24.4446  -25.8404   22.3106 C   0  0  0  0  0  0  0  0  0  0  0  0
  -23.8153  -29.0196   22.4465 C   0  0  0  0  0  0  0  0  0  0  0  0
  -31.3264  -24.7264   19.9034 C   0  0  0  0  0  0  0  0  0  0  0  0
  -25.0170  -32.2015   22.7269 C   0  0  0  0  0  0  0  0  0  0  0  0
  -29.9293  -22.6857   20.0828 C   0  0  0  0  0  0  0  0  0  0  0  0
  -20.3973  -22.7590   21.8835 C   0  0  0  0  0  0  0  0  0  0  0  0
  -25.7017  -26.5138   24.3895 C   0  0  0  0  0  0  0  0  0  0  0  0
  -26.2311  -28.3594   22.1405 C   0  0  0  0  0  0  0  0  0  0  0  0
  -20.7569  -24.1621   21.4014 C   0  0  0  0  0  0  0  0  0  0  0  0
  -29.6076  -20.6814   23.1763 C   0  0  0  0  0  0  0  0  0  0  0  0
  -22.1352  -24.1650   20.7478 C   0  0  0  0  0  0  0  0  0  0  0  0
  -28.6200  -19.6089   22.7281 C   0  0  0  0  0  0  0  0  0  0  0  0
  -30.5201  -21.1359   22.0378 C   0  0  0  0  0  0  0  0  0  0  0  0
  -28.7820  -20.5115   20.3775 C   0  0  0  0  0  0  0  0  0  0  0  0
  -23.2208  -23.7484   21.7476 C   0  0  1  0  0  0  0  0  0  0  0  0
  -24.6184  -26.8812   23.3801 C   0  0  1  0  0  0  0  0  0  0  0  0
  -27.8269  -20.0848   21.5020 C   0  0  1  0  0  0  0  0  0  0  0  0
  -24.2642  -34.5950   22.7677 C   0  0  0  0  0  0  0  0  0  0  0  0
  -23.4122  -28.9419   19.4230 C   0  0  0  0  0  0  0  0  0  0  0  0
  -23.6105  -31.4376   19.4024 C   0  0  0  0  0  0  0  0  0  0  0  0
  -21.7537  -30.3460   20.6608 C   0  0  0  0  0  0  0  0  0  0  0  0
  -26.0815  -32.6109   25.4578 C   0  0  0  0  0  0  0  0  0  0  0  0
  -32.4628  -25.4052   20.6496 C   0  0  0  0  0  0  0  0  0  0  0  0
  -32.4201  -26.9275   20.5155 C   0  0  0  0  0  0  0  0  0  0  0  0
  -31.1237  -27.5177   21.0556 C   0  0  0  0  0  0  0  0  0  1  0  0
  -24.1116  -30.2069   21.5623 C   0  0  1  0  0  0  0  0  0  0  0  0
  -24.5900  -33.3660   23.6021 C   0  0  2  0  0  0  0  0  0  0  0  0
  -23.2428  -30.2170   20.2729 C   0  0  0  0  0  0  0  0  0  0  0  0
  -27.1335  -17.7388   21.1874 N   0  0  0  0  0  0  0  0  0  0  0  0
  -26.8325  -19.0392   21.0314 N   0  0  0  0  0  0  0  0  0  0  0  0
  -24.8858  -28.1507   22.7011 N   0  0  0  0  0  0  0  0  0  0  0  0
  -29.7530  -21.5105   20.8391 N   0  0  0  0  0  0  0  0  0  0  0  0
  -25.1619  -20.5065   20.2145 N   0  0  0  0  0  0  0  0  0  0  0  0
  -23.4335  -16.4114   19.4150 N   0  0  0  0  0  0  0  0  0  0  0  0
  -23.5400  -24.8470   22.6339 N   0  0  0  0  0  0  0  0  0  0  0  0
  -30.9557  -23.5287   20.5222 N   0  0  0  0  0  0  0  0  0  0  0  0
  -23.9510  -31.3902   22.4004 N   0  0  0  0  0  0  0  0  0  0  0  0
  -25.6768  -33.7214   24.5579 N   0  3  0  0  0  0  0  0  0  0  0  0
  -23.0619  -18.6640   19.1988 O   0  0  0  0  0  0  0  0  0  0  0  0
  -25.0827  -25.9325   21.2684 O   0  0  0  0  0  0  0  0  0  0  0  0
  -22.6778  -28.8727   22.9005 O   0  0  0  0  0  0  0  0  0  0  0  0
  -30.8058  -25.1992   18.8970 O   0  0  0  0  0  0  0  0  0  0  0  0
  -26.1793  -32.0309   22.3656 O   0  0  0  0  0  0  0  0  0  0  0  0
  -29.2530  -22.9468   19.0828 O   0  0  0  0  0  0  0  0  0  0  0  0
  -25.8359  -11.5308   20.6161 O   0  0  0  0  0  0  0  0  0  0  0  0
  -30.9839  -27.2000   22.4328 O   0  0  0  0  0  0  0  0  0  1  0  0
  -21.1216   -9.1492   22.1995 F   0  0  0  0  0  0  0  0  0  0  0  0
  -25.7755   -9.7985   22.7698 F   0  0  0  0  0  0  0  0  0  0  0  0
  1  2  1  0  0  0  0
  1  5  2  0  0  0  0
  2  6  2  0  0  0  0
  3  8  2  0  0  0  0
  3 15  1  0  0  0  0
  4  9  1  0  0  0  0
  4 15  2  0  0  0  0
  5 17  1  0  0  0  0
  6 19  1  0  0  0  0
  7 10  2  0  0  0  0
  7 18  1  0  0  0  0
  8 21  1  0  0  0  0
  9 21  2  0  0  0  0
 10 22  1  0  0  0  0
 11 12  2  0  0  0  0
 11 23  1  0  0  0  0
 12 24  1  0  0  0  0
 13 20  1  0  0  0  0
 13 22  2  0  0  0  0
 14 24  2  0  0  0  0
 14 25  1  0  0  0  0
 15 26  1  0  0  0  0
 16 26  1  0  0  0  0
 16 27  2  0  0  0  0
 16 28  1  0  0  0  0
 17 19  2  0  0  0  0
 17 34  1  0  0  0  0
 18 20  2  0  0  0  0
 18 35  1  0  0  0  0
 19 43  1  0  0  0  0
 20 36  1  0  0  0  0
 21 73  1  0  0  0  0
 22 74  1  0  0  0  0
 23 25  2  0  0  0  0
 23 73  1  0  0  0  0
 24 75  1  0  0  0  0
 25 76  1  0  0  0  0
 26 57  2  0  0  0  0
 27 58  1  0  0  0  0
 27 61  1  0  0  0  0
 28 62  1  0  0  0  0
 28 67  2  0  0  0  0
 29 44  1  0  0  0  0
 29 63  1  0  0  0  0
 29 68  2  0  0  0  0
 30 54  1  0  0  0  0
 30 59  1  0  0  0  0
 30 69  2  0  0  0  0
 31 51  1  0  0  0  0
 31 64  1  0  0  0  0
 31 70  2  0  0  0  0
 32 55  1  0  0  0  0
 32 65  1  0  0  0  0
 32 71  2  0  0  0  0
 33 60  1  0  0  0  0
 33 64  1  0  0  0  0
 33 72  2  0  0  0  0
 34 37  1  0  0  0  0
 35 44  1  0  0  0  0
 36 59  1  0  0  0  0
 37 39  1  0  0  0  0
 38 40  1  0  0  0  0
 38 41  1  0  0  0  0
 39 43  1  0  0  0  0
 40 45  1  0  0  0  0
 41 60  1  0  0  0  0
 42 45  1  0  0  0  0
 42 60  1  0  0  0  0
 43 63  1  0  0  0  0
 44 59  1  0  0  0  0
 45 58  1  0  0  0  0
 46 55  1  0  0  0  0
 47 56  1  0  0  0  0
 48 56  1  0  0  0  0
 49 56  1  0  0  0  0
 50 66  1  0  0  0  0
 51 52  1  0  0  0  0
 52 53  1  0  0  0  0
 53 74  1  0  0  0  0
 54 56  1  0  0  0  0
 54 65  1  0  0  0  0
 55 66  1  0  0  0  0
 57 58  1  0  0  0  0
M  CHG  1  66   1
M  ISO  4  33 100  53 101  64 100  74 101
M  END
> <Batch ID>
0098

> <Smiles>
CNC(C)C(=O)NC(C(=O)N1Cc2cc([101O:1][101CH2:1]CCC(=O)[100NH:0][100C:0](=O)N3CCCC(n4nc(-c5ccc(Oc6ccc(F)cc6F)cc5)c(C(N)=O)c4N)C3)ccc2CC1C(=O)NC1CCCc2ccccc21)C(C)(C)C

> <Shape>
0.207

> <Color>
0.085

> <Negative vol penalty>
0.000

$$$$

  -OEChem-04052300513D

 84 92  0     1  0  0  0  0  0999 V2000
  -32.4951  -18.0977   18.2688 C   0  0  0  0  0  0  0  0  0  0  0  0
  -31.7934  -18.2634   19.4586 C   0  0  0  0  0  0  0  0  0  0  0  0
  -24.0808   -9.5824   21.4608 C   0  0  0  0  0  0  0  0  0  0  0  0
  -24.6243  -10.6573   23.5552 C   0  0  0  0  0  0  0  0  0  0  0  0
  -33.0791  -19.1999   17.6459 C   0  0  0  0  0  0  0  0  0  0  0  0
  -31.6761  -19.5315   20.0267 C   0  0  0  0  0  0  0  0  0  0  0  0
  -26.9704  -20.5212   21.6147 C   0  0  0  0  0  0  0  0  0  0  0  0
  -30.4958  -15.8657   24.9540 C   0  0  0  0  0  0  0  0  0  0  0  0
  -23.6555   -8.4487   22.1531 C   0  0  0  0  0  0  0  0  0  0  0  0
  -24.1989   -9.5236   24.2475 C   0  0  0  0  0  0  0  0  0  0  0  0
  -26.5731  -19.9508   22.8232 C   0  0  0  0  0  0  0  0  0  0  0  0
  -29.8307  -16.6343   25.9093 C   0  0  0  0  0  0  0  0  0  0  0  0
  -20.9217   -7.4663   23.8834 C   0  0  0  0  0  0  0  0  0  0  0  0
  -19.7183   -6.8804   23.4906 C   0  0  0  0  0  0  0  0  0  0  0  0
  -26.9951  -22.0452   23.9434 C   0  0  0  0  0  0  0  0  0  0  0  0
  -30.7843  -17.8287   23.5755 C   0  0  0  0  0  0  0  0  0  0  0  0
  -20.8825   -4.8226   22.9935 C   0  0  0  0  0  0  0  0  0  0  0  0
  -24.5653  -10.6868   22.1619 C   0  0  0  0  0  0  0  0  0  0  0  0
  -24.2267  -12.9712   21.0783 C   0  0  0  0  0  0  0  0  0  0  0  0
  -32.9607  -20.4836   18.2016 C   0  0  0  0  0  0  0  0  0  0  0  0
  -27.3941  -21.8569   21.5632 C   0  0  0  0  0  0  0  0  0  0  0  0
  -32.2602  -20.6517   19.4113 C   0  0  0  0  0  0  0  0  0  0  0  0
  -27.3948  -22.6309   22.7325 C   0  0  0  0  0  0  0  0  0  0  0  0
  -30.9726  -16.4629   23.7871 C   0  0  0  0  0  0  0  0  0  0  0  0
  -23.7145   -8.4192   23.5464 C   0  0  0  0  0  0  0  0  0  0  0  0
  -26.5881  -20.7120   23.9883 C   0  0  0  0  0  0  0  0  0  0  0  0
  -29.6424  -18.0001   25.6977 C   0  0  0  0  0  0  0  0  0  0  0  0
  -22.1055   -6.7303   23.8312 C   0  0  0  0  0  0  0  0  0  0  0  0
  -30.1192  -18.5973   24.5307 C   0  0  0  0  0  0  0  0  0  0  0  0
  -19.6987   -5.5586   23.0457 C   0  0  0  0  0  0  0  0  0  0  0  0
  -22.0859   -5.4085   23.3862 C   0  0  0  0  0  0  0  0  0  0  0  0
  -25.0054  -11.8580   21.4473 C   0  0  0  0  0  0  0  0  0  0  0  0
  -25.1036  -13.8024   20.4251 C   0  0  0  0  0  0  0  0  0  0  0  0
  -22.8350  -13.2308   21.3056 C   0  0  0  0  0  0  0  0  0  0  0  0
  -30.1043  -23.3219   20.7807 C   0  0  0  0  0  0  0  0  0  0  0  0
  -28.3146  -25.9990   21.1710 C   0  0  0  0  0  0  0  0  0  0  0  0
  -25.5982  -27.4841   22.6070 C   0  0  0  0  0  0  0  0  0  0  0  0
  -31.0491  -14.4648   20.6768 C   0  0  0  0  0  0  0  0  0  0  0  0
  -33.6493  -21.6375   17.5167 C   0  0  0  0  0  0  0  0  0  0  0  0
  -27.7942  -22.4650   20.2470 C   0  0  0  0  0  0  0  0  0  0  0  0
  -27.8217  -24.0752   22.7271 C   0  0  0  0  0  0  0  0  0  0  0  0
  -33.1602  -23.0048   17.9874 C   0  0  0  0  0  0  0  0  0  0  0  0
  -29.0995  -13.7074   17.7955 C   0  0  0  0  0  0  0  0  0  0  0  0
  -33.0867  -23.0502   19.5103 C   0  0  0  0  0  0  0  0  0  0  0  0
  -27.7589  -13.2480   18.3714 C   0  0  0  0  0  0  0  0  0  0  0  0
  -30.2717  -13.2518   18.6617 C   0  0  0  0  0  0  0  0  0  0  0  0
  -28.8324  -13.1678   20.6604 C   0  0  0  0  0  0  0  0  0  0  0  0
  -32.0900  -22.0151   20.0456 C   0  0  1  0  0  0  0  0  0  0  0  0
  -28.6964  -23.6854   20.4022 C   0  0  1  0  0  0  0  0  0  0  0  0
  -27.6167  -13.6513   19.8514 C   0  0  2  0  0  0  0  0  0  0  0  0
  -24.4167  -29.6920   22.7702 C   0  0  0  0  0  0  0  0  0  0  0  0
  -30.4610  -27.0028   23.0932 C   0  0  0  0  0  0  0  0  0  0  0  0
  -28.8215  -28.7014   23.9268 C   0  0  0  0  0  0  0  0  0  0  0  0
  -29.5534  -28.7422   21.5424 C   0  0  0  0  0  0  0  0  0  0  0  0
  -23.1281  -26.3826   21.4051 C   0  0  0  0  0  0  0  0  0  0  0  0
  -30.9617  -20.8067   24.7848 C   0  0  0  0  0  0  0  0  0  0  0  0
  -31.6860  -15.6418   22.7668 C   0  0  0  0  0  0  0  0  0  0  0  0
  -26.8636  -19.5772   27.4159 C   0  0  0  0  0  0  0  0  0  0  0  0
  -26.8102  -20.6661   26.3557 C   0  0  0  0  0  0  0  0  0  1  0  0
  -27.6514  -18.3643   26.9463 C   0  0  0  0  0  0  0  0  0  0  0  0
  -27.9963  -26.9127   22.3298 C   0  0  1  0  0  0  0  0  0  0  0  0
  -24.5094  -28.3686   22.0267 C   0  0  2  0  0  0  0  0  0  0  0  0
  -29.2018  -27.8120   22.7238 C   0  0  0  0  0  0  0  0  0  0  0  0
  -26.2790  -11.9687   21.0606 N   0  0  0  0  0  0  0  0  0  0  0  0
  -26.3074  -13.1613   20.4417 N   0  0  0  0  0  0  0  0  0  0  0  0
  -28.2099  -24.6226   21.4167 N   0  0  0  0  0  0  0  0  0  0  0  0
  -30.0758  -13.6671   20.0527 N   0  0  0  0  0  0  0  0  0  0  0  0
  -24.9548  -15.0117   19.8439 N   0  0  0  0  0  0  0  0  0  0  0  0
  -22.0800  -12.2710   21.9933 N   0  0  0  0  0  0  0  0  0  0  0  0
  -30.7321  -22.4864   19.8767 N   0  0  0  0  0  0  0  0  0  0  0  0
  -26.7980  -27.6527   21.9489 N   0  0  0  0  0  0  0  0  0  0  0  0
  -30.7826  -14.8191   21.9937 N   0  0  0  0  0  0  0  0  0  0  0  0
  -23.1870  -27.6870   22.1136 N   0  3  0  0  0  0  0  0  0  0  0  0
  -22.2739  -14.2754   20.8962 O   0  0  0  0  0  0  0  0  0  0  0  0
  -30.5860  -23.7677   21.8156 O   0  0  0  0  0  0  0  0  0  0  0  0
  -28.6370  -26.4886   20.0856 O   0  0  0  0  0  0  0  0  0  0  0  0
  -25.4045  -26.7227   23.5522 O   0  0  0  0  0  0  0  0  0  0  0  0
  -32.0768  -14.8384   20.1012 O   0  0  0  0  0  0  0  0  0  0  0  0
  -23.2993   -7.3131   24.2222 O   0  0  0  0  0  0  0  0  0  0  0  0
  -29.9406  -19.9301   24.3126 O   0  0  0  0  0  0  0  0  0  0  0  0
  -26.2014  -20.1576   25.1694 O   0  0  0  0  0  0  0  0  0  1  0  0
  -28.9872  -18.7441   26.6441 O   0  0  0  0  0  0  0  0  0  0  0  0
  -18.5428   -4.9956   22.6700 F   0  0  0  0  0  0  0  0  0  0  0  0
  -23.2197   -4.6961   23.3349 F   0  0  0  0  0  0  0  0  0  0  0  0
  1  2  1  0  0  0  0
  1  5  2  0  0  0  0
  2  6  2  0  0  0  0
  3  9  2  0  0  0  0
  3 18  1  0  0  0  0
  4 10  1  0  0  0  0
  4 18  2  0  0  0  0
  5 20  1  0  0  0  0
  6 22  1  0  0  0  0
  7 11  2  0  0  0  0
  7 21  1  0  0  0  0
  8 12  2  0  0  0  0
  8 24  1  0  0  0  0
  9 25  1  0  0  0  0
 10 25  2  0  0  0  0
 11 26  1  0  0  0  0
 12 27  1  0  0  0  0
 13 14  2  0  0  0  0
 13 28  1  0  0  0  0
 14 30  1  0  0  0  0
 15 23  1  0  0  0  0
 15 26  2  0  0  0  0
 16 24  2  0  0  0  0
 16 29  1  0  0  0  0
 17 30  2  0  0  0  0
 17 31  1  0  0  0  0
 18 32  1  0  0  0  0
 19 32  1  0  0  0  0
 19 33  2  0  0  0  0
 19 34  1  0  0  0  0
 20 22  2  0  0  0  0
 20 39  1  0  0  0  0
 21 23  2  0  0  0  0
 21 40  1  0  0  0  0
 22 48  1  0  0  0  0
 23 41  1  0  0  0  0
 24 57  1  0  0  0  0
 25 79  1  0  0  0  0
 26 81  1  0  0  0  0
 27 29  2  0  0  0  0
 27 82  1  0  0  0  0
 28 31  2  0  0  0  0
 28 79  1  0  0  0  0
 29 80  1  0  0  0  0
 30 83  1  0  0  0  0
 31 84  1  0  0  0  0
 32 64  2  0  0  0  0
 33 65  1  0  0  0  0
 33 68  1  0  0  0  0
 34 69  1  0  0  0  0
 34 74  2  0  0  0  0
 35 49  1  0  0  0  0
 35 70  1  0  0  0  0
 35 75  2  0  0  0  0
 36 61  1  0  0  0  0
 36 66  1  0  0  0  0
 36 76  2  0  0  0  0
 37 62  1  0  0  0  0
 37 71  1  0  0  0  0
 37 77  2  0  0  0  0
 38 67  1  0  0  0  0
 38 72  1  0  0  0  0
 38 78  2  0  0  0  0
 39 42  1  0  0  0  0
 40 49  1  0  0  0  0
 41 66  1  0  0  0  0
 42 44  1  0  0  0  0
 43 45  1  0  0  0  0
 43 46  1  0  0  0  0
 44 48  1  0  0  0  0
 45 50  1  0  0  0  0
 46 67  1  0  0  0  0
 47 50  1  0  0  0  0
 47 67  1  0  0  0  0
 48 70  1  0  0  0  0
 49 66  1  0  0  0  0
 50 65  1  0  0  0  0
 51 62  1  0  0  0  0
 52 63  1  0  0  0  0
 53 63  1  0  0  0  0
 54 63  1  0  0  0  0
 55 73  1  0  0  0  0
 56 80  1  0  0  0  0
 57 72  1  0  0  0  0
 58 59  1  0  0  0  0
 58 60  1  0  0  0  0
 59 81  1  0  0  0  0
 60 82  1  0  0  0  0
 61 63  1  0  0  0  0
 61 71  1  0  0  0  0
 62 73  1  0  0  0  0
 64 65  1  0  0  0  0
M  CHG  1  73   1
M  ISO  4  38 100  59 101  72 100  81 101
M  END
> <Batch ID>
0098

> <Smiles>
CNC(C)C(=O)NC(C(=O)N1Cc2cc([101O:1][101CH2:1]CCOc3ccc(C[100NH:0][100C:0](=O)N4CCCC(n5nc(-c6ccc(Oc7ccc(F)cc7F)cc6)c(C(N)=O)c5N)C4)cc3OC)ccc2CC1C(=O)NC1CCCc2ccccc21)C(C)(C)C

> <Shape>
0.205

> <Color>
0.141

> <Negative vol penalty>
0.000

$$$$

  -OEChem-04052300513D

 87 96  0     1  0  0  0  0  0999 V2000
  -19.7170  -27.6060   23.0645 C   0  0  0  0  0  0  0  0  0  0  0  0
  -20.0309  -26.2555   23.1787 C   0  0  0  0  0  0  0  0  0  0  0  0
  -28.6382  -13.1278   21.0067 C   0  0  0  0  0  0  0  0  0  0  0  0
  -28.1213  -12.9298   18.6549 C   0  0  0  0  0  0  0  0  0  0  0  0
  -20.1779  -28.3375   21.9707 C   0  0  0  0  0  0  0  0  0  0  0  0
  -20.8051  -25.6355   22.1986 C   0  0  0  0  0  0  0  0  0  0  0  0
  -24.4157  -22.6751   24.1593 C   0  0  0  0  0  0  0  0  0  0  0  0
  -21.2858  -12.5748   23.9495 C   0  0  0  0  0  0  0  0  0  0  0  0
  -21.5771  -11.2153   24.0610 C   0  0  0  0  0  0  0  0  0  0  0  0
  -29.9914  -13.2657   20.6977 C   0  0  0  0  0  0  0  0  0  0  0  0
  -29.4745  -13.0677   18.3459 C   0  0  0  0  0  0  0  0  0  0  0  0
  -24.0253  -21.4231   24.6326 C   0  0  0  0  0  0  0  0  0  0  0  0
  -32.0557  -15.6988   19.5788 C   0  0  0  0  0  0  0  0  0  0  0  0
  -32.7710  -16.7019   20.2328 C   0  0  0  0  0  0  0  0  0  0  0  0
  -24.8199  -20.4107   22.5923 C   0  0  0  0  0  0  0  0  0  0  0  0
  -23.4039  -11.7294   25.5563 C   0  0  0  0  0  0  0  0  0  0  0  0
  -34.2564  -15.0376   21.1608 C   0  0  0  0  0  0  0  0  0  0  0  0
  -27.7032  -12.9598   19.9853 C   0  0  0  0  0  0  0  0  0  0  0  0
  -25.3518  -13.8452   20.4267 C   0  0  0  0  0  0  0  0  0  0  0  0
  -20.9662  -27.7285   20.9817 C   0  0  0  0  0  0  0  0  0  0  0  0
  -25.0022  -22.8058   22.8923 C   0  0  0  0  0  0  0  0  0  0  0  0
  -21.2759  -26.3593   21.0899 C   0  0  0  0  0  0  0  0  0  0  0  0
  -25.2192  -21.6651   22.1063 C   0  0  0  0  0  0  0  0  0  0  0  0
  -22.0536  -13.5117   24.6413 C   0  0  0  0  0  0  0  0  0  0  0  0
  -22.6362  -10.7926   24.8644 C   0  0  0  0  0  0  0  0  0  0  0  0
  -30.4096  -13.2356   19.3673 C   0  0  0  0  0  0  0  0  0  0  0  0
  -24.2247  -20.2911   23.8478 C   0  0  0  0  0  0  0  0  0  0  0  0
  -32.4406  -14.3650   19.7159 C   0  0  0  0  0  0  0  0  0  0  0  0
  -33.8714  -16.3713   21.0237 C   0  0  0  0  0  0  0  0  0  0  0  0
  -23.1126  -13.0890   25.4447 C   0  0  0  0  0  0  0  0  0  0  0  0
  -33.5410  -14.0345   20.5068 C   0  0  0  0  0  0  0  0  0  0  0  0
  -26.3053  -12.8168   20.3039 C   0  0  0  0  0  0  0  0  0  0  0  0
  -24.1829  -13.1944   20.7375 C   0  0  0  0  0  0  0  0  0  0  0  0
  -22.6576  -15.8286   24.0366 C   0  0  0  0  0  0  0  0  0  0  0  0
  -22.4654  -17.1511   23.9299 C   0  0  0  0  0  0  0  0  0  0  0  0
  -21.1811  -17.6880   24.4612 C   0  0  0  0  0  0  0  0  0  0  0  0
  -25.5087  -15.2621   20.2734 C   0  0  0  0  0  0  0  0  0  0  0  0
  -24.2244  -24.3156   20.2054 C   0  0  0  0  0  0  0  0  0  0  0  0
  -27.1594  -23.3150   19.2529 C   0  0  0  0  0  0  0  0  0  0  0  0
  -29.7140  -21.0798   19.6059 C   0  0  0  0  0  0  0  0  0  0  0  0
  -22.6926   -8.4575   23.9505 C   0  0  0  0  0  0  0  0  0  0  0  0
  -21.4018  -28.5488   19.7934 C   0  0  0  0  0  0  0  0  0  0  0  0
  -25.4423  -24.1599   22.4074 C   0  0  0  0  0  0  0  0  0  0  0  0
  -25.8633  -21.7491   20.7474 C   0  0  0  0  0  0  0  0  0  0  0  0
  -20.2996  -16.7501   25.2588 C   0  0  0  0  0  0  0  0  0  0  0  0
  -22.5303  -27.9067   18.9907 C   0  0  0  0  0  0  0  0  0  0  0  0
  -22.4899   -8.5845   20.2578 C   0  0  0  0  0  0  0  0  0  0  0  0
  -22.2348  -26.4314   18.7402 C   0  0  0  0  0  0  0  0  0  0  0  0
  -23.4339   -9.7326   19.9055 C   0  0  0  0  0  0  0  0  0  0  0  0
  -20.3643  -15.3079   24.7632 C   0  0  0  0  0  0  0  0  0  0  0  0
  -22.9019   -7.8892   21.5519 C   0  0  0  0  0  0  0  0  0  0  0  0
  -23.9752   -9.9710   22.3614 C   0  0  0  0  0  0  0  0  0  0  0  0
  -22.1340  -25.6571   20.0600 C   0  0  1  0  0  0  0  0  0  0  0  0
  -25.5606  -24.2413   20.8886 C   0  0  1  0  0  0  0  0  0  0  0  0
  -23.5581  -10.7134   21.0831 C   0  0  1  0  0  0  0  0  0  0  0  0
  -31.9639  -20.4943   18.6610 C   0  0  0  0  0  0  0  0  0  0  0  0
  -25.8102  -22.0930   16.8041 C   0  0  0  0  0  0  0  0  0  0  0  0
  -27.8864  -20.7482   16.4178 C   0  0  0  0  0  0  0  0  0  0  0  0
  -27.9827  -23.2395   16.3349 C   0  0  0  0  0  0  0  0  0  0  0  0
  -23.2665   -8.8634   26.3037 C   0  0  0  0  0  0  0  0  0  0  0  0
  -31.0511  -21.5214   22.2090 C   0  0  0  0  0  0  0  0  0  0  0  0
  -23.4490  -18.1026   23.3332 C   0  0  0  0  0  0  0  0  0  1  0  0
  -27.6981  -22.0837   18.5654 C   0  0  1  0  0  0  0  0  0  0  0  0
  -31.2143  -21.2760   19.7287 C   0  0  2  0  0  0  0  0  0  0  0  0
  -27.3304  -22.0394   17.0553 C   0  0  0  0  0  0  0  0  0  0  0  0
  -25.7870  -11.6047   20.5193 N   0  0  0  0  0  0  0  0  0  0  0  0
  -24.4952  -11.8674   20.7807 N   0  0  0  0  0  0  0  0  0  0  0  0
  -21.7556  -14.8950   24.5245 N   0  0  0  0  0  0  0  0  0  0  0  0
  -26.2704  -23.0962   20.3148 N   0  0  0  0  0  0  0  0  0  0  0  0
  -23.0748   -8.8426   22.6491 N   0  0  0  0  0  0  0  0  0  0  0  0
  -22.9287  -13.6334   20.9755 N   0  0  0  0  0  0  0  0  0  0  0  0
  -26.7778  -15.7630   19.9530 N   0  0  0  0  0  0  0  0  0  0  0  0
  -23.4532  -25.3944   20.5939 N   0  0  0  0  0  0  0  0  0  0  0  0
  -29.1322  -22.0617   18.8321 N   0  0  0  0  0  0  0  0  0  0  0  0
  -22.9372   -9.3866   24.9797 N   0  0  0  0  0  0  0  0  0  0  0  0
  -31.6887  -20.8192   21.0655 N   0  3  0  0  0  0  0  0  0  0  0  0
  -20.8861  -18.8728   24.3163 O   0  0  0  0  0  0  0  0  0  0  0  0
  -24.5553  -16.0616   20.4324 O   0  0  0  0  0  0  0  0  0  0  0  0
  -23.9166  -23.4585   19.3854 O   0  0  0  0  0  0  0  0  0  0  0  0
  -27.5197  -24.4297   18.8667 O   0  0  0  0  0  0  0  0  0  0  0  0
  -29.1184  -20.1467   20.1396 O   0  0  0  0  0  0  0  0  0  0  0  0
  -22.2171   -7.3406   24.1893 O   0  0  0  0  0  0  0  0  0  0  0  0
  -31.7299  -13.3704   19.0654 O   0  0  0  0  0  0  0  0  0  0  0  0
  -23.8439  -19.0680   24.3071 O   0  0  0  0  0  0  0  0  0  1  0  0
  -34.5591  -17.3349   21.6504 F   0  0  0  0  0  0  0  0  0  0  0  0
  -23.8576  -13.9812   26.1127 F   0  0  0  0  0  0  0  0  0  0  0  0
  -33.9163  -12.7551   20.6414 F   0  0  0  0  0  0  0  0  0  0  0  0
  1  2  1  0  0  0  0
  1  5  2  0  0  0  0
  2  6  2  0  0  0  0
  3 10  2  0  0  0  0
  3 18  1  0  0  0  0
  4 11  1  0  0  0  0
  4 18  2  0  0  0  0
  5 20  1  0  0  0  0
  6 22  1  0  0  0  0
  7 12  2  0  0  0  0
  7 21  1  0  0  0  0
  8  9  2  0  0  0  0
  8 24  1  0  0  0  0
  9 25  1  0  0  0  0
 10 26  1  0  0  0  0
 11 26  2  0  0  0  0
 12 27  1  0  0  0  0
 13 14  2  0  0  0  0
 13 28  1  0  0  0  0
 14 29  1  0  0  0  0
 15 23  1  0  0  0  0
 15 27  2  0  0  0  0
 16 25  2  0  0  0  0
 16 30  1  0  0  0  0
 17 29  2  0  0  0  0
 17 31  1  0  0  0  0
 18 32  1  0  0  0  0
 19 32  1  0  0  0  0
 19 33  2  0  0  0  0
 19 37  1  0  0  0  0
 20 22  2  0  0  0  0
 20 42  1  0  0  0  0
 21 23  2  0  0  0  0
 21 43  1  0  0  0  0
 22 53  1  0  0  0  0
 23 44  1  0  0  0  0
 24 30  2  0  0  0  0
 24 68  1  0  0  0  0
 25 75  1  0  0  0  0
 26 83  1  0  0  0  0
 27 84  1  0  0  0  0
 28 31  2  0  0  0  0
 28 83  1  0  0  0  0
 29 85  1  0  0  0  0
 30 86  1  0  0  0  0
 31 87  1  0  0  0  0
 32 66  2  0  0  0  0
 33 67  1  0  0  0  0
 33 71  1  0  0  0  0
 34 35  2  0  0  0  0
 34 68  1  0  0  0  0
 35 36  1  0  0  0  0
 35 62  1  0  0  0  0
 36 45  1  0  0  0  0
 36 77  2  0  0  0  0
 37 72  1  0  0  0  0
 37 78  2  0  0  0  0
 38 54  1  0  0  0  0
 38 73  1  0  0  0  0
 38 79  2  0  0  0  0
 39 63  1  0  0  0  0
 39 69  1  0  0  0  0
 39 80  2  0  0  0  0
 40 64  1  0  0  0  0
 40 74  1  0  0  0  0
 40 81  2  0  0  0  0
 41 70  1  0  0  0  0
 41 75  1  0  0  0  0
 41 82  2  0  0  0  0
 42 46  1  0  0  0  0
 43 54  1  0  0  0  0
 44 69  1  0  0  0  0
 45 50  1  0  0  0  0
 46 48  1  0  0  0  0
 47 49  1  0  0  0  0
 47 51  1  0  0  0  0
 48 53  1  0  0  0  0
 49 55  1  0  0  0  0
 50 68  1  0  0  0  0
 51 70  1  0  0  0  0
 52 55  1  0  0  0  0
 52 70  1  0  0  0  0
 53 73  1  0  0  0  0
 54 69  1  0  0  0  0
 55 67  1  0  0  0  0
 56 64  1  0  0  0  0
 57 65  1  0  0  0  0
 58 65  1  0  0  0  0
 59 65  1  0  0  0  0
 60 75  1  0  0  0  0
 61 76  1  0  0  0  0
 62 84  1  0  0  0  0
 63 65  1  0  0  0  0
 63 74  1  0  0  0  0
 64 76  1  0  0  0  0
 66 67  1  0  0  0  0
M  CHG  1  76   1
M  ISO  4  41 100  62 101  75 100  84 101
M  END
> <Batch ID>
0098

> <Smiles>
CNC(C)C(=O)NC(C(=O)N1Cc2cc([101O:1][101CH2:1]C3=CN(c4ccc([100N:0](C)[100C:0](=O)N5CCCC(n6nc(-c7ccc(Oc8ccc(F)cc8F)cc7)c(C(N)=O)c6N)C5)cc4F)CCC3=O)ccc2CC1C(=O)NC1CCCc2ccccc21)C(C)(C)C

> <Shape>
0.182

> <Color>
0.113

> <Negative vol penalty>
0.000

$$$$

  -OEChem-04052300513D

 84 92  0     1  0  0  0  0  0999 V2000
  -18.1705  -25.2008   21.5945 C   0  0  0  0  0  0  0  0  0  0  0  0
  -19.4185  -24.7111   21.9662 C   0  0  0  0  0  0  0  0  0  0  0  0
  -23.6262   -9.8380   21.5781 C   0  0  0  0  0  0  0  0  0  0  0  0
  -24.1640  -10.9545   23.6521 C   0  0  0  0  0  0  0  0  0  0  0  0
  -18.0638  -26.4620   21.0099 C   0  0  0  0  0  0  0  0  0  0  0  0
  -20.5606  -25.4819   21.7525 C   0  0  0  0  0  0  0  0  0  0  0  0
  -25.5484  -25.7343   25.2971 C   0  0  0  0  0  0  0  0  0  0  0  0
  -28.8236  -19.1649   21.2631 C   0  0  0  0  0  0  0  0  0  0  0  0
  -29.1787  -20.4402   21.7026 C   0  0  0  0  0  0  0  0  0  0  0  0
  -23.0546   -8.7854   22.2929 C   0  0  0  0  0  0  0  0  0  0  0  0
  -23.5923   -9.9019   24.3669 C   0  0  0  0  0  0  0  0  0  0  0  0
  -26.7923  -25.1104   25.2118 C   0  0  0  0  0  0  0  0  0  0  0  0
  -24.1159   -6.0685   24.0006 C   0  0  0  0  0  0  0  0  0  0  0  0
  -24.4298   -4.7693   23.6017 C   0  0  0  0  0  0  0  0  0  0  0  0
  -27.6912  -27.0651   24.1207 C   0  0  0  0  0  0  0  0  0  0  0  0
  -31.1590  -18.5608   21.1288 C   0  0  0  0  0  0  0  0  0  0  0  0
  -22.0909   -4.3335   23.1807 C   0  0  0  0  0  0  0  0  0  0  0  0
  -24.1810  -10.9225   22.2577 C   0  0  0  0  0  0  0  0  0  0  0  0
  -24.1285  -13.1743   21.0601 C   0  0  0  0  0  0  0  0  0  0  0  0
  -19.2041  -27.2527   20.7977 C   0  0  0  0  0  0  0  0  0  0  0  0
  -25.3635  -27.0263   24.7841 C   0  0  0  0  0  0  0  0  0  0  0  0
  -20.4692  -26.7544   21.1632 C   0  0  0  0  0  0  0  0  0  0  0  0
  -26.4446  -27.7042   24.2030 C   0  0  0  0  0  0  0  0  0  0  0  0
  -29.8138  -18.2252   20.9762 C   0  0  0  0  0  0  0  0  0  0  0  0
  -30.5240  -20.7758   21.8552 C   0  0  0  0  0  0  0  0  0  0  0  0
  -23.0376   -8.8174   23.6873 C   0  0  0  0  0  0  0  0  0  0  0  0
  -27.8632  -25.7747   24.6209 C   0  0  0  0  0  0  0  0  0  0  0  0
  -22.7895   -6.5002   23.9896 C   0  0  0  0  0  0  0  0  0  0  0  0
  -31.5141  -19.8361   21.5683 C   0  0  0  0  0  0  0  0  0  0  0  0
  -23.4173   -3.9018   23.1918 C   0  0  0  0  0  0  0  0  0  0  0  0
  -21.7771   -5.6328   23.5797 C   0  0  0  0  0  0  0  0  0  0  0  0
  -24.7722  -12.0098   21.5198 C   0  0  0  0  0  0  0  0  0  0  0  0
  -25.1167  -13.8840   20.4227 C   0  0  0  0  0  0  0  0  0  0  0  0
  -22.7597  -13.5784   21.1969 C   0  0  0  0  0  0  0  0  0  0  0  0
  -23.5467  -28.2965   22.5061 C   0  0  0  0  0  0  0  0  0  0  0  0
  -24.7474  -31.0861   23.6457 C   0  0  0  0  0  0  0  0  0  0  0  0
  -30.0052  -23.1171   22.6254 C   0  0  0  0  0  0  0  0  0  0  0  0
  -27.2510  -32.6950   25.3162 C   0  0  0  0  0  0  0  0  0  0  0  0
  -30.3099  -15.8802   20.2010 C   0  0  0  0  0  0  0  0  0  0  0  0
  -19.0441  -28.5901   20.1191 C   0  0  0  0  0  0  0  0  0  0  0  0
  -24.0223  -27.6958   24.9080 C   0  0  0  0  0  0  0  0  0  0  0  0
  -26.3035  -29.1001   23.6554 C   0  0  0  0  0  0  0  0  0  0  0  0
  -20.2612  -29.4991   20.2698 C   0  0  0  0  0  0  0  0  0  0  0  0
  -29.8112  -12.5319   19.0976 C   0  0  0  0  0  0  0  0  0  0  0  0
  -21.5438  -28.7264   19.9791 C   0  0  0  0  0  0  0  0  0  0  0  0
  -28.4028  -12.1934   19.5916 C   0  0  0  0  0  0  0  0  0  0  0  0
  -30.5656  -13.4107   20.0937 C   0  0  0  0  0  0  0  0  0  0  0  0
  -28.4506  -14.2921   20.9988 C   0  0  0  0  0  0  0  0  0  0  0  0
  -21.7286  -27.5710   20.9703 C   0  0  1  0  0  0  0  0  0  0  0  0
  -23.8165  -28.8139   23.8907 C   0  0  1  0  0  0  0  0  0  0  0  0
  -27.6285  -13.4621   19.9993 C   0  0  2  0  0  0  0  0  0  0  0  0
  -27.9722  -34.9814   26.0576 C   0  0  0  0  0  0  0  0  0  0  0  0
  -25.6015  -31.7400   20.7904 C   0  0  0  0  0  0  0  0  0  0  0  0
  -27.1079  -33.5103   21.7205 C   0  0  0  0  0  0  0  0  0  0  0  0
  -24.6417  -33.6692   22.0599 C   0  0  0  0  0  0  0  0  0  0  0  0
  -27.1830  -31.9176   28.1710 C   0  0  0  0  0  0  0  0  0  0  0  0
  -33.4957  -20.6940   20.5717 C   0  0  0  0  0  0  0  0  0  0  0  0
  -30.7941  -24.3465   23.0614 C   0  0  0  0  0  0  0  0  0  0  0  0
  -29.9070  -25.5258   23.4307 C   0  0  0  0  0  0  0  0  0  1  0  0
  -25.9596  -31.9324   23.3400 C   0  0  1  0  0  0  0  0  0  0  0  0
  -27.2187  -33.7166   26.4386 C   0  0  2  0  0  0  0  0  0  0  0  0
  -25.8302  -32.6859   21.9862 C   0  0  0  0  0  0  0  0  0  0  0  0
  -26.0690  -11.9776   21.2015 N   0  0  0  0  0  0  0  0  0  0  0  0
  -26.2481  -13.1306   20.5348 N   0  0  0  0  0  0  0  0  0  0  0  0
  -24.9707  -29.7099   23.7944 N   0  0  0  0  0  0  0  0  0  0  0  0
  -29.7733  -14.5955   20.4302 N   0  0  0  0  0  0  0  0  0  0  0  0
  -25.1196  -15.0727   19.7829 N   0  0  0  0  0  0  0  0  0  0  0  0
  -21.8780  -12.7306   21.8811 N   0  0  0  0  0  0  0  0  0  0  0  0
  -30.8685  -22.0740   22.3010 N   0  0  0  0  0  0  0  0  0  0  0  0
  -29.4528  -16.9301   20.5290 N   0  0  0  0  0  0  0  0  0  0  0  0
  -22.2099  -28.0677   22.2415 N   0  0  0  0  0  0  0  0  0  0  0  0
  -26.1498  -32.8049   24.4937 N   0  0  0  0  0  0  0  0  0  0  0  0
  -27.8397  -33.1525   27.6704 N   0  3  0  0  0  0  0  0  0  0  0  0
  -22.3275  -14.6516   20.7122 O   0  0  0  0  0  0  0  0  0  0  0  0
  -24.4820  -28.1194   21.7344 O   0  0  0  0  0  0  0  0  0  0  0  0
  -23.6444  -31.6271   23.7558 O   0  0  0  0  0  0  0  0  0  0  0  0
  -28.7794  -23.1084   22.5854 O   0  0  0  0  0  0  0  0  0  0  0  0
  -28.1639  -31.8834   25.1802 O   0  0  0  0  0  0  0  0  0  0  0  0
  -31.4359  -16.0371   19.7218 O   0  0  0  0  0  0  0  0  0  0  0  0
  -22.4797   -7.7907   24.3852 O   0  0  0  0  0  0  0  0  0  0  0  0
  -32.8346  -20.1441   21.7090 O   0  0  0  0  0  0  0  0  0  0  0  0
  -29.0782  -25.1677   24.5358 O   0  0  0  0  0  0  0  0  0  1  0  0
  -23.7190   -2.6547   22.8073 F   0  0  0  0  0  0  0  0  0  0  0  0
  -20.5012   -6.0422   23.5659 F   0  0  0  0  0  0  0  0  0  0  0  0
  1  2  1  0  0  0  0
  1  5  2  0  0  0  0
  2  6  2  0  0  0  0
  3 10  2  0  0  0  0
  3 18  1  0  0  0  0
  4 11  1  0  0  0  0
  4 18  2  0  0  0  0
  5 20  1  0  0  0  0
  6 22  1  0  0  0  0
  7 12  2  0  0  0  0
  7 21  1  0  0  0  0
  8  9  2  0  0  0  0
  8 24  1  0  0  0  0
  9 25  1  0  0  0  0
 10 26  1  0  0  0  0
 11 26  2  0  0  0  0
 12 27  1  0  0  0  0
 13 14  2  0  0  0  0
 13 28  1  0  0  0  0
 14 30  1  0  0  0  0
 15 23  1  0  0  0  0
 15 27  2  0  0  0  0
 16 24  2  0  0  0  0
 16 29  1  0  0  0  0
 17 30  2  0  0  0  0
 17 31  1  0  0  0  0
 18 32  1  0  0  0  0
 19 32  1  0  0  0  0
 19 33  2  0  0  0  0
 19 34  1  0  0  0  0
 20 22  2  0  0  0  0
 20 40  1  0  0  0  0
 21 23  2  0  0  0  0
 21 41  1  0  0  0  0
 22 49  1  0  0  0  0
 23 42  1  0  0  0  0
 24 70  1  0  0  0  0
 25 29  2  0  0  0  0
 25 69  1  0  0  0  0
 26 80  1  0  0  0  0
 27 82  1  0  0  0  0
 28 31  2  0  0  0  0
 28 80  1  0  0  0  0
 29 81  1  0  0  0  0
 30 83  1  0  0  0  0
 31 84  1  0  0  0  0
 32 63  2  0  0  0  0
 33 64  1  0  0  0  0
 33 67  1  0  0  0  0
 34 68  1  0  0  0  0
 34 74  2  0  0  0  0
 35 50  1  0  0  0  0
 35 71  1  0  0  0  0
 35 75  2  0  0  0  0
 36 60  1  0  0  0  0
 36 65  1  0  0  0  0
 36 76  2  0  0  0  0
 37 58  1  0  0  0  0
 37 69  1  0  0  0  0
 37 77  2  0  0  0  0
 38 61  1  0  0  0  0
 38 72  1  0  0  0  0
 38 78  2  0  0  0  0
 39 66  1  0  0  0  0
 39 70  1  0  0  0  0
 39 79  2  0  0  0  0
 40 43  1  0  0  0  0
 41 50  1  0  0  0  0
 42 65  1  0  0  0  0
 43 45  1  0  0  0  0
 44 46  1  0  0  0  0
 44 47  1  0  0  0  0
 45 49  1  0  0  0  0
 46 51  1  0  0  0  0
 47 66  1  0  0  0  0
 48 51  1  0  0  0  0
 48 66  1  0  0  0  0
 49 71  1  0  0  0  0
 50 65  1  0  0  0  0
 51 64  1  0  0  0  0
 52 61  1  0  0  0  0
 53 62  1  0  0  0  0
 54 62  1  0  0  0  0
 55 62  1  0  0  0  0
 56 73  1  0  0  0  0
 57 81  1  0  0  0  0
 58 59  1  0  0  0  0
 59 82  1  0  0  0  0
 60 62  1  0  0  0  0
 60 72  1  0  0  0  0
 61 73  1  0  0  0  0
 63 64  1  0  0  0  0
M  CHG  1  73   1
M  ISO  4  39 100  59 101  70 100  82 101
M  END
> <Batch ID>
0098

> <Smiles>
CNC(C)C(=O)NC(C(=O)N1Cc2cc([101O:1][101CH2:1]CC(=O)Nc3ccc([100NH:0][100C:0](=O)N4CCCC(n5nc(-c6ccc(Oc7ccc(F)cc7F)cc6)c(C(N)=O)c5N)C4)cc3OC)ccc2CC1C(=O)NC1CCCc2ccccc21)C(C)(C)C

> <Shape>
0.279

> <Color>
0.131

> <Negative vol penalty>
0.000

$$$$

  -OEChem-04052300513D

 86 95  0     1  0  0  0  0  0999 V2000
  -18.8392  -26.4547   23.5744 C   0  0  0  0  0  0  0  0  0  0  0  0
  -19.8432  -26.2702   22.6292 C   0  0  0  0  0  0  0  0  0  0  0  0
  -28.7744  -18.2461   16.1767 C   0  0  0  0  0  0  0  0  0  0  0  0
  -23.6650   -9.3993   23.6086 C   0  0  0  0  0  0  0  0  0  0  0  0
  -24.3408   -9.6451   21.3021 C   0  0  0  0  0  0  0  0  0  0  0  0
  -18.2942  -27.7227   23.7723 C   0  0  0  0  0  0  0  0  0  0  0  0
  -20.3021  -27.3534   21.8806 C   0  0  0  0  0  0  0  0  0  0  0  0
  -25.3538  -27.4887   21.5541 C   0  0  0  0  0  0  0  0  0  0  0  0
  -28.9450  -19.6303   16.1560 C   0  0  0  0  0  0  0  0  0  0  0  0
  -28.2420  -17.6257   17.3069 C   0  0  0  0  0  0  0  0  0  0  0  0
  -22.7345   -8.4307   23.2327 C   0  0  0  0  0  0  0  0  0  0  0  0
  -23.4103   -8.6764   20.9262 C   0  0  0  0  0  0  0  0  0  0  0  0
  -25.9569  -26.6167   20.6487 C   0  0  0  0  0  0  0  0  0  0  0  0
  -22.7459   -5.1493   22.4172 C   0  0  0  0  0  0  0  0  0  0  0  0
  -22.6736   -3.9873   23.1853 C   0  0  0  0  0  0  0  0  0  0  0  0
  -26.1755  -28.4226   19.0644 C   0  0  0  0  0  0  0  0  0  0  0  0
  -20.3616   -4.4684   23.6954 C   0  0  0  0  0  0  0  0  0  0  0  0
  -24.4682  -10.0066   22.6432 C   0  0  0  0  0  0  0  0  0  0  0  0
  -26.5106  -10.8496   23.9182 C   0  0  0  0  0  0  0  0  0  0  0  0
  -18.7534  -28.8239   23.0325 C   0  0  0  0  0  0  0  0  0  0  0  0
  -25.1468  -28.8339   21.2167 C   0  0  0  0  0  0  0  0  0  0  0  0
  -19.7618  -28.6371   22.0678 C   0  0  0  0  0  0  0  0  0  0  0  0
  -25.5719  -29.3102   19.9682 C   0  0  0  0  0  0  0  0  0  0  0  0
  -28.5832  -20.3942   17.2656 C   0  0  0  0  0  0  0  0  0  0  0  0
  -27.8802  -18.3896   18.4165 C   0  0  0  0  0  0  0  0  0  0  0  0
  -22.6071   -8.0692   21.8916 C   0  0  0  0  0  0  0  0  0  0  0  0
  -26.3652  -27.0829   19.4025 C   0  0  0  0  0  0  0  0  0  0  0  0
  -21.6261   -5.9709   22.2881 C   0  0  0  0  0  0  0  0  0  0  0  0
  -21.4814   -3.6468   23.8244 C   0  0  0  0  0  0  0  0  0  0  0  0
  -20.4339   -5.6304   22.9272 C   0  0  0  0  0  0  0  0  0  0  0  0
  -28.0508  -19.7738   18.3959 C   0  0  0  0  0  0  0  0  0  0  0  0
  -25.4293  -11.0077   23.0308 C   0  0  0  0  0  0  0  0  0  0  0  0
  -27.1134  -12.0834   23.9482 C   0  0  0  0  0  0  0  0  0  0  0  0
  -29.7931  -22.4131   16.4843 C   0  0  0  0  0  0  0  0  0  0  0  0
  -26.9325   -9.6911   24.6500 C   0  0  0  0  0  0  0  0  0  0  0  0
  -22.5917  -30.6944   20.8795 C   0  0  0  0  0  0  0  0  0  0  0  0
  -24.8193  -33.0219   20.5018 C   0  0  0  0  0  0  0  0  0  0  0  0
  -28.0142  -33.8631   19.6465 C   0  0  0  0  0  0  0  0  0  0  0  0
  -27.1022  -16.3919   19.7538 C   0  0  0  0  0  0  0  0  0  0  0  0
  -18.1008  -30.1663   23.2482 C   0  0  0  0  0  0  0  0  0  0  0  0
  -24.5190  -29.7678   22.2147 C   0  0  0  0  0  0  0  0  0  0  0  0
  -25.3909  -30.7501   19.5652 C   0  0  0  0  0  0  0  0  0  0  0  0
  -29.7080  -23.9125   16.2703 C   0  0  0  0  0  0  0  0  0  0  0  0
  -18.9041  -31.3327   22.6784 C   0  0  0  0  0  0  0  0  0  0  0  0
  -29.1356  -24.6791   17.4423 C   0  0  0  0  0  0  0  0  0  0  0  0
  -25.3561  -16.5239   23.1682 C   0  0  0  0  0  0  0  0  0  0  0  0
  -19.3773  -31.0143   21.2637 C   0  0  0  0  0  0  0  0  0  0  0  0
  -25.9519  -15.2712   23.8062 C   0  0  0  0  0  0  0  0  0  0  0  0
  -26.2326  -17.0757   22.0510 C   0  0  0  0  0  0  0  0  0  0  0  0
  -27.9656  -22.6268   18.1923 C   0  0  0  0  0  0  0  0  0  0  0  0
  -26.2397  -14.6785   21.3371 C   0  0  0  0  0  0  0  0  0  0  0  0
  -20.3033  -29.7921   21.2536 C   0  0  1  0  0  0  0  0  0  0  0  0
  -23.8917  -30.9992   21.5684 C   0  0  1  0  0  0  0  0  0  0  0  0
  -27.7801  -24.0914   17.7985 C   0  0  1  0  0  0  0  0  0  0  0  0
  -26.6289  -14.3370   22.7839 C   0  0  2  0  0  0  0  0  0  0  0  0
  -29.5294  -35.8481   19.3987 C   0  0  0  0  0  0  0  0  0  0  0  0
  -23.4320  -33.7511   17.8839 C   0  0  0  0  0  0  0  0  0  0  0  0
  -25.4779  -35.0428   17.2404 C   0  0  0  0  0  0  0  0  0  0  0  0
  -24.1670  -35.7089   19.2555 C   0  0  0  0  0  0  0  0  0  0  0  0
  -29.8816  -32.8403   21.7021 C   0  0  0  0  0  0  0  0  0  0  0  0
  -27.1215  -24.8783   18.9298 C   0  0  0  0  0  0  0  0  0  1  0  0
  -25.5675  -33.6052   19.3276 C   0  0  1  0  0  0  0  0  0  0  0  0
  -29.0396  -34.7498   20.3296 C   0  0  2  0  0  0  0  0  0  0  0  0
  -24.6629  -34.4994   18.4334 C   0  0  0  0  0  0  0  0  0  0  0  0
  -25.3473  -12.2445   22.5331 N   0  0  0  0  0  0  0  0  0  0  0  0
  -26.3847  -12.8748   23.1099 N   0  0  0  0  0  0  0  0  0  0  0  0
  -28.7615  -21.8303   17.2405 N   0  0  0  0  0  0  0  0  0  0  0  0
  -24.7664  -31.6227   20.5732 N   0  0  0  0  0  0  0  0  0  0  0  0
  -26.5504  -16.0772   21.0198 N   0  0  0  0  0  0  0  0  0  0  0  0
  -28.1903  -12.5577   24.6097 N   0  0  0  0  0  0  0  0  0  0  0  0
  -27.8528   -8.8206   24.0503 N   0  0  0  0  0  0  0  0  0  0  0  0
  -27.3396  -17.7557   19.5632 N   0  0  0  0  0  0  0  0  0  0  0  0
  -21.6271  -30.1571   21.7104 N   0  0  0  0  0  0  0  0  0  0  0  0
  -26.7264  -34.2950   19.8839 N   0  0  0  0  0  0  0  0  0  0  0  0
  -30.2149  -33.9429   20.7639 N   0  3  0  0  0  0  0  0  0  0  0  0
  -30.7157  -21.8011   15.9393 O   0  0  0  0  0  0  0  0  0  0  0  0
  -26.4935   -9.4267   25.7949 O   0  0  0  0  0  0  0  0  0  0  0  0
  -22.4720  -30.9306   19.6831 O   0  0  0  0  0  0  0  0  0  0  0  0
  -24.3069  -33.7799   21.3293 O   0  0  0  0  0  0  0  0  0  0  0  0
  -28.3247  -32.8873   18.9668 O   0  0  0  0  0  0  0  0  0  0  0  0
  -27.3520  -15.5182   18.9207 O   0  0  0  0  0  0  0  0  0  0  0  0
  -21.6993   -7.1238   21.5245 O   0  0  0  0  0  0  0  0  0  0  0  0
  -26.9536  -26.2338   18.5167 O   0  0  0  0  0  0  0  0  0  1  0  0
  -21.4117   -2.5301   24.5608 F   0  0  0  0  0  0  0  0  0  0  0  0
  -19.3545   -6.4152   22.8060 F   0  0  0  0  0  0  0  0  0  0  0  0
  -27.7036  -20.5088   19.4637 F   0  0  0  0  0  0  0  0  0  0  0  0
  1  2  1  0  0  0  0
  1  6  2  0  0  0  0
  2  7  2  0  0  0  0
  3  9  2  0  0  0  0
  3 10  1  0  0  0  0
  4 11  2  0  0  0  0
  4 18  1  0  0  0  0
  5 12  1  0  0  0  0
  5 18  2  0  0  0  0
  6 20  1  0  0  0  0
  7 22  1  0  0  0  0
  8 13  2  0  0  0  0
  8 21  1  0  0  0  0
  9 24  1  0  0  0  0
 10 25  2  0  0  0  0
 11 26  1  0  0  0  0
 12 26  2  0  0  0  0
 13 27  1  0  0  0  0
 14 15  2  0  0  0  0
 14 28  1  0  0  0  0
 15 29  1  0  0  0  0
 16 23  1  0  0  0  0
 16 27  2  0  0  0  0
 17 29  2  0  0  0  0
 17 30  1  0  0  0  0
 18 32  1  0  0  0  0
 19 32  1  0  0  0  0
 19 33  2  0  0  0  0
 19 35  1  0  0  0  0
 20 22  2  0  0  0  0
 20 40  1  0  0  0  0
 21 23  2  0  0  0  0
 21 41  1  0  0  0  0
 22 52  1  0  0  0  0
 23 42  1  0  0  0  0
 24 31  2  0  0  0  0
 24 67  1  0  0  0  0
 25 31  1  0  0  0  0
 25 72  1  0  0  0  0
 26 82  1  0  0  0  0
 27 83  1  0  0  0  0
 28 30  2  0  0  0  0
 28 82  1  0  0  0  0
 29 84  1  0  0  0  0
 30 85  1  0  0  0  0
 31 86  1  0  0  0  0
 32 65  2  0  0  0  0
 33 66  1  0  0  0  0
 33 70  1  0  0  0  0
 34 43  1  0  0  0  0
 34 67  1  0  0  0  0
 34 76  2  0  0  0  0
 35 71  1  0  0  0  0
 35 77  2  0  0  0  0
 36 53  1  0  0  0  0
 36 73  1  0  0  0  0
 36 78  2  0  0  0  0
 37 62  1  0  0  0  0
 37 68  1  0  0  0  0
 37 79  2  0  0  0  0
 38 63  1  0  0  0  0
 38 74  1  0  0  0  0
 38 80  2  0  0  0  0
 39 69  1  0  0  0  0
 39 72  1  0  0  0  0
 39 81  2  0  0  0  0
 40 44  1  0  0  0  0
 41 53  1  0  0  0  0
 42 68  1  0  0  0  0
 43 45  1  0  0  0  0
 44 47  1  0  0  0  0
 45 54  1  0  0  0  0
 46 48  1  0  0  0  0
 46 49  1  0  0  0  0
 47 52  1  0  0  0  0
 48 55  1  0  0  0  0
 49 69  1  0  0  0  0
 50 54  1  0  0  0  0
 50 67  1  0  0  0  0
 51 55  1  0  0  0  0
 51 69  1  0  0  0  0
 52 73  1  0  0  0  0
 53 68  1  0  0  0  0
 54 61  1  0  0  0  0
 55 66  1  0  0  0  0
 56 63  1  0  0  0  0
 57 64  1  0  0  0  0
 58 64  1  0  0  0  0
 59 64  1  0  0  0  0
 60 75  1  0  0  0  0
 61 83  1  0  0  0  0
 62 64  1  0  0  0  0
 62 74  1  0  0  0  0
 63 75  1  0  0  0  0
 65 66  1  0  0  0  0
M  CHG  1  75   1
M  ISO  4  39 100  61 101  72 100  83 101
M  END
> <Batch ID>
0098

> <Smiles>
CNC(C)C(=O)NC(C(=O)N1Cc2cc([101O:1][101CH2:1]C3CCC(=O)N(c4cccc([100NH:0][100C:0](=O)N5CCCC(n6nc(-c7ccc(Oc8ccc(F)cc8F)cc7)c(C(N)=O)c6N)C5)c4F)C3)ccc2CC1C(=O)NC1CCCc2ccccc21)C(C)(C)C

> <Shape>
0.209

> <Color>
0.096

> <Negative vol penalty>
0.000

$$$$
