
  -OEChem-04052300543D

 83 91  0     1  0  0  0  0  0999 V2000
  -23.5344  -35.3877   20.5805 C   0  0  0  0  0  0  0  0  0  0  0  0
  -24.3827  -34.6813   19.7339 C   0  0  0  0  0  0  0  0  0  0  0  0
  -24.6866  -10.5089   22.8472 C   0  0  0  0  0  0  0  0  0  0  0  0
  -24.1671  -11.9937   24.6809 C   0  0  0  0  0  0  0  0  0  0  0  0
  -23.4521  -35.0431   21.9290 C   0  0  0  0  0  0  0  0  0  0  0  0
  -25.1500  -33.6306   20.2355 C   0  0  0  0  0  0  0  0  0  0  0  0
  -27.8702  -27.2893   18.3107 C   0  0  0  0  0  0  0  0  0  0  0  0
  -24.2175   -9.4262   23.5910 C   0  0  0  0  0  0  0  0  0  0  0  0
  -23.6980  -10.9110   25.4248 C   0  0  0  0  0  0  0  0  0  0  0  0
  -29.0810  -26.5985   18.2891 C   0  0  0  0  0  0  0  0  0  0  0  0
  -21.2277   -8.0832   24.4218 C   0  0  0  0  0  0  0  0  0  0  0  0
  -20.3950   -7.1672   23.7790 C   0  0  0  0  0  0  0  0  0  0  0  0
  -28.7976  -26.0411   20.6190 C   0  0  0  0  0  0  0  0  0  0  0  0
  -29.2084  -20.4921   20.2406 C   0  0  0  0  0  0  0  0  0  0  0  0
  -26.7280  -21.7646   20.1364 C   0  0  0  0  0  0  0  0  0  0  0  0
  -21.9868   -5.4057   24.2270 C   0  0  0  0  0  0  0  0  0  0  0  0
  -24.6614  -11.7927   23.3922 C   0  0  0  0  0  0  0  0  0  0  0  0
  -24.4038  -13.7295   21.7521 C   0  0  0  0  0  0  0  0  0  0  0  0
  -24.2115  -33.9814   22.4454 C   0  0  0  0  0  0  0  0  0  0  0  0
  -27.1180  -27.3705   19.4914 C   0  0  0  0  0  0  0  0  0  0  0  0
  -25.0787  -33.2723   21.5924 C   0  0  0  0  0  0  0  0  0  0  0  0
  -27.5763  -26.7314   20.6522 C   0  0  0  0  0  0  0  0  0  0  0  0
  -28.1584  -20.0395   21.0394 C   0  0  0  0  0  0  0  0  0  0  0  0
  -27.7782  -22.2172   19.3376 C   0  0  0  0  0  0  0  0  0  0  0  0
  -23.7232   -9.6272   24.8798 C   0  0  0  0  0  0  0  0  0  0  0  0
  -29.5463  -25.9768   19.4441 C   0  0  0  0  0  0  0  0  0  0  0  0
  -22.4400   -7.6605   24.9672 C   0  0  0  0  0  0  0  0  0  0  0  0
  -29.0184  -21.5809   19.3897 C   0  0  0  0  0  0  0  0  0  0  0  0
  -20.7746   -5.8285   23.6816 C   0  0  0  0  0  0  0  0  0  0  0  0
  -26.9182  -20.6758   20.9873 C   0  0  0  0  0  0  0  0  0  0  0  0
  -22.8195   -6.3218   24.8698 C   0  0  0  0  0  0  0  0  0  0  0  0
  -25.1464  -12.9115   22.6245 C   0  0  0  0  0  0  0  0  0  0  0  0
  -25.3156  -14.6391   21.2749 C   0  0  0  0  0  0  0  0  0  0  0  0
  -23.0141  -13.6723   21.4041 C   0  0  0  0  0  0  0  0  0  0  0  0
  -26.1434  -29.7410   21.3715 C   0  0  0  0  0  0  0  0  0  0  0  0
  -24.5296  -27.3633   22.8763 C   0  0  0  0  0  0  0  0  0  0  0  0
  -24.2683  -24.0345   23.5817 C   0  0  0  0  0  0  0  0  0  0  0  0
  -29.5251  -18.1946   22.0761 C   0  0  0  0  0  0  0  0  0  0  0  0
  -24.1243  -33.6763   23.9198 C   0  0  0  0  0  0  0  0  0  0  0  0
  -25.8009  -28.0969   19.4912 C   0  0  0  0  0  0  0  0  0  0  0  0
  -26.7966  -26.7717   21.9402 C   0  0  0  0  0  0  0  0  0  0  0  0
  -24.6900  -32.3086   24.2933 C   0  0  0  0  0  0  0  0  0  0  0  0
  -30.3611  -14.7585   21.6623 C   0  0  0  0  0  0  0  0  0  0  0  0
  -26.0416  -32.0883   23.6214 C   0  0  0  0  0  0  0  0  0  0  0  0
  -29.0179  -14.0389   21.8040 C   0  0  0  0  0  0  0  0  0  0  0  0
  -30.4652  -15.9560   22.6051 C   0  0  0  0  0  0  0  0  0  0  0  0
  -28.0139  -16.1959   22.6565 C   0  0  0  0  0  0  0  0  0  0  0  0
  -25.9084  -32.1103   22.0939 C   0  0  1  0  0  0  0  0  0  0  0  0
  -25.3684  -28.5503   20.8822 C   0  0  1  0  0  0  0  0  0  0  0  0
  -27.8366  -15.0212   21.6805 C   0  0  2  0  0  0  0  0  0  0  0  0
  -23.2710  -21.9177   24.4882 C   0  0  0  0  0  0  0  0  0  0  0  0
  -25.8429  -28.2846   25.4718 C   0  0  0  0  0  0  0  0  0  0  0  0
  -25.1842  -26.0987   26.4995 C   0  0  0  0  0  0  0  0  0  0  0  0
  -23.4277  -27.6717   25.6851 C   0  0  0  0  0  0  0  0  0  0  0  0
  -22.7074  -23.5742   21.1097 C   0  0  0  0  0  0  0  0  0  0  0  0
  -31.9704  -23.4735   18.4596 C   0  0  0  0  0  0  0  0  0  0  0  0
  -31.1138  -24.7008   18.1907 C   0  0  0  0  0  0  0  0  0  1  0  0
  -31.2346  -22.4384   19.2960 C   0  0  0  0  0  0  0  0  0  0  0  0
  -24.8374  -26.4114   24.0069 C   0  0  1  0  0  0  0  0  0  0  0  0
  -23.0862  -23.0835   23.5293 C   0  0  2  0  0  0  0  0  0  0  0  0
  -24.8389  -27.1173   25.3922 C   0  0  0  0  0  0  0  0  0  0  0  0
  -26.4309  -13.2697   22.6991 N   0  0  0  0  0  0  0  0  0  0  0  0
  -26.5027  -14.3228   21.8673 N   0  0  0  0  0  0  0  0  0  0  0  0
  -25.5178  -27.4996   21.8911 N   0  0  0  0  0  0  0  0  0  0  0  0
  -29.3146  -16.8448   22.4291 N   0  0  0  0  0  0  0  0  0  0  0  0
  -27.5719  -23.3208   18.4814 N   0  0  0  0  0  0  0  0  0  0  0  0
  -25.2097  -15.6707   20.4106 N   0  0  0  0  0  0  0  0  0  0  0  0
  -22.2201  -12.6746   21.9860 N   0  0  0  0  0  0  0  0  0  0  0  0
  -28.3557  -18.9347   21.9044 N   0  0  0  0  0  0  0  0  0  0  0  0
  -25.3658  -30.8568   21.6157 N   0  0  0  0  0  0  0  0  0  0  0  0
  -23.8768  -25.3192   23.8939 N   0  0  0  0  0  0  0  0  0  0  0  0
  -22.9210  -22.5378   22.1524 N   0  3  0  0  0  0  0  0  0  0  0  0
  -22.4954  -14.4717   20.5884 O   0  0  0  0  0  0  0  0  0  0  0  0
  -27.3569  -29.6533   21.5181 O   0  0  0  0  0  0  0  0  0  0  0  0
  -23.4492  -27.9584   22.8640 O   0  0  0  0  0  0  0  0  0  0  0  0
  -25.4239  -23.6730   23.3707 O   0  0  0  0  0  0  0  0  0  0  0  0
  -30.6584  -18.6528   21.9099 O   0  0  0  0  0  0  0  0  0  0  0  0
  -23.2652   -8.5709   25.6058 O   0  0  0  0  0  0  0  0  0  0  0  0
  -30.7282  -25.3024   19.4259 O   0  0  0  0  0  0  0  0  0  1  0  0
  -30.0632  -22.0113   18.6140 O   0  0  0  0  0  0  0  0  0  0  0  0
  -19.9741   -4.9487   23.0656 F   0  0  0  0  0  0  0  0  0  0  0  0
  -25.9023  -20.2501   21.7517 F   0  0  0  0  0  0  0  0  0  0  0  0
  -23.9824   -5.9095   25.3929 F   0  0  0  0  0  0  0  0  0  0  0  0
  1  2  1  0  0  0  0
  1  5  2  0  0  0  0
  2  6  2  0  0  0  0
  3  8  2  0  0  0  0
  3 17  1  0  0  0  0
  4  9  1  0  0  0  0
  4 17  2  0  0  0  0
  5 19  1  0  0  0  0
  6 21  1  0  0  0  0
  7 10  2  0  0  0  0
  7 20  1  0  0  0  0
  8 25  1  0  0  0  0
  9 25  2  0  0  0  0
 10 26  1  0  0  0  0
 11 12  2  0  0  0  0
 11 27  1  0  0  0  0
 12 29  1  0  0  0  0
 13 22  1  0  0  0  0
 13 26  2  0  0  0  0
 14 23  2  0  0  0  0
 14 28  1  0  0  0  0
 15 24  1  0  0  0  0
 15 30  2  0  0  0  0
 16 29  2  0  0  0  0
 16 31  1  0  0  0  0
 17 32  1  0  0  0  0
 18 32  1  0  0  0  0
 18 33  2  0  0  0  0
 18 34  1  0  0  0  0
 19 21  2  0  0  0  0
 19 39  1  0  0  0  0
 20 22  2  0  0  0  0
 20 40  1  0  0  0  0
 21 48  1  0  0  0  0
 22 41  1  0  0  0  0
 23 30  1  0  0  0  0
 23 69  1  0  0  0  0
 24 28  2  0  0  0  0
 24 66  1  0  0  0  0
 25 78  1  0  0  0  0
 26 79  1  0  0  0  0
 27 31  2  0  0  0  0
 27 78  1  0  0  0  0
 28 80  1  0  0  0  0
 29 81  1  0  0  0  0
 30 82  1  0  0  0  0
 31 83  1  0  0  0  0
 32 62  2  0  0  0  0
 33 63  1  0  0  0  0
 33 67  1  0  0  0  0
 34 68  1  0  0  0  0
 34 73  2  0  0  0  0
 35 49  1  0  0  0  0
 35 70  1  0  0  0  0
 35 74  2  0  0  0  0
 36 59  1  0  0  0  0
 36 64  1  0  0  0  0
 36 75  2  0  0  0  0
 37 60  1  0  0  0  0
 37 71  1  0  0  0  0
 37 76  2  0  0  0  0
 38 65  1  0  0  0  0
 38 69  1  0  0  0  0
 38 77  2  0  0  0  0
 39 42  1  0  0  0  0
 40 49  1  0  0  0  0
 41 64  1  0  0  0  0
 42 44  1  0  0  0  0
 43 45  1  0  0  0  0
 43 46  1  0  0  0  0
 44 48  1  0  0  0  0
 45 50  1  0  0  0  0
 46 65  1  0  0  0  0
 47 50  1  0  0  0  0
 47 65  1  0  0  0  0
 48 70  1  0  0  0  0
 49 64  1  0  0  0  0
 50 63  1  0  0  0  0
 51 60  1  0  0  0  0
 52 61  1  0  0  0  0
 53 61  1  0  0  0  0
 54 61  1  0  0  0  0
 55 72  1  0  0  0  0
 56 57  1  0  0  0  0
 56 58  1  0  0  0  0
 57 79  1  0  0  0  0
 58 80  1  0  0  0  0
 59 61  1  0  0  0  0
 59 71  1  0  0  0  0
 60 72  1  0  0  0  0
 62 63  1  0  0  0  0
M  CHG  1  72   1
M  ISO  4  38 100  57 101  69 100  79 101
M  END
> <Batch ID>
0099

> <Smiles>
CNC(C)C(=O)NC(C(=O)N1Cc2cc([101O:1][101CH2:1]CCOc3cc([100NH:0][100C:0](=O)N4CCCC(n5nc(-c6ccc(Oc7ccc(F)cc7F)cc6)c(C(N)=O)c5N)C4)c(F)cc3N)ccc2CC1C(=O)NC1CCCc2ccccc21)C(C)(C)C

> <Shape>
0.228

> <Color>
0.108

> <Negative vol penalty>
0.000

$$$$

  -OEChem-04052300543D

 85 94  0     1  0  0  0  0  0999 V2000
  -24.3155  -38.2125   17.6869 C   0  0  0  0  0  0  0  0  0  0  0  0
  -24.5969  -36.9613   17.1478 C   0  0  0  0  0  0  0  0  0  0  0  0
  -24.3671   -8.1977   21.3949 C   0  0  0  0  0  0  0  0  0  0  0  0
  -24.4707   -9.6992   23.2847 C   0  0  0  0  0  0  0  0  0  0  0  0
  -24.6609  -38.4949   19.0078 C   0  0  0  0  0  0  0  0  0  0  0  0
  -25.2248  -35.9920   17.9291 C   0  0  0  0  0  0  0  0  0  0  0  0
  -25.4607  -28.8989   18.9031 C   0  0  0  0  0  0  0  0  0  0  0  0
  -24.0653   -7.1396   22.2521 C   0  0  0  0  0  0  0  0  0  0  0  0
  -24.1687   -8.6411   24.1420 C   0  0  0  0  0  0  0  0  0  0  0  0
  -26.3777  -27.8508   18.9700 C   0  0  0  0  0  0  0  0  0  0  0  0
  -21.3584   -5.9670   23.9047 C   0  0  0  0  0  0  0  0  0  0  0  0
  -20.3275   -5.1046   23.5319 C   0  0  0  0  0  0  0  0  0  0  0  0
  -26.8567  -28.4243   21.2637 C   0  0  0  0  0  0  0  0  0  0  0  0
  -26.8565  -19.8501   20.0032 C   0  0  0  0  0  0  0  0  0  0  0  0
  -29.2762  -18.4877   19.7351 C   0  0  0  0  0  0  0  0  0  0  0  0
  -21.8776   -3.2514   23.5328 C   0  0  0  0  0  0  0  0  0  0  0  0
  -24.5699   -9.4775   21.9112 C   0  0  0  0  0  0  0  0  0  0  0  0
  -23.9723  -11.4356   20.3893 C   0  0  0  0  0  0  0  0  0  0  0  0
  -25.2847  -37.5253   19.8087 C   0  0  0  0  0  0  0  0  0  0  0  0
  -25.2425  -29.7257   20.0145 C   0  0  0  0  0  0  0  0  0  0  0  0
  -25.5801  -36.2620   19.2616 C   0  0  0  0  0  0  0  0  0  0  0  0
  -25.9346  -29.4806   21.2091 C   0  0  0  0  0  0  0  0  0  0  0  0
  -28.0625  -20.5414   20.1176 C   0  0  0  0  0  0  0  0  0  0  0  0
  -26.8603  -18.4775   19.7548 C   0  0  0  0  0  0  0  0  0  0  0  0
  -29.2723  -19.8603   19.9836 C   0  0  0  0  0  0  0  0  0  0  0  0
  -28.0701  -17.7963   19.6207 C   0  0  0  0  0  0  0  0  0  0  0  0
  -23.9660   -7.3613   23.6256 C   0  0  0  0  0  0  0  0  0  0  0  0
  -27.0780  -27.6152   20.1495 C   0  0  0  0  0  0  0  0  0  0  0  0
  -22.6490   -5.4717   24.0915 C   0  0  0  0  0  0  0  0  0  0  0  0
  -20.5870   -3.7468   23.3460 C   0  0  0  0  0  0  0  0  0  0  0  0
  -22.9085   -4.1138   23.9056 C   0  0  0  0  0  0  0  0  0  0  0  0
  -24.8823  -10.5709   21.0263 C   0  0  0  0  0  0  0  0  0  0  0  0
  -24.7634  -12.2938   19.6652 C   0  0  0  0  0  0  0  0  0  0  0  0
  -22.5399  -11.4611   20.4470 C   0  0  0  0  0  0  0  0  0  0  0  0
  -25.6230  -32.8239   20.6145 C   0  0  0  0  0  0  0  0  0  0  0  0
  -24.1723  -32.0616   23.4139 C   0  0  0  0  0  0  0  0  0  0  0  0
  -23.4156  -29.6698   25.7276 C   0  0  0  0  0  0  0  0  0  0  0  0
  -29.2244  -15.5948   19.2118 C   0  0  0  0  0  0  0  0  0  0  0  0
  -25.6818  -37.8926   21.2165 C   0  0  0  0  0  0  0  0  0  0  0  0
  -24.2304  -30.8355   19.9344 C   0  0  0  0  0  0  0  0  0  0  0  0
  -25.7217  -30.3267   22.4368 C   0  0  0  0  0  0  0  0  0  0  0  0
  -26.0066  -36.6853   22.0924 C   0  0  0  0  0  0  0  0  0  0  0  0
  -29.7122  -12.1185   18.6162 C   0  0  0  0  0  0  0  0  0  0  0  0
  -26.9193  -35.7159   21.3482 C   0  0  0  0  0  0  0  0  0  0  0  0
  -28.4242  -11.4771   19.1377 C   0  0  0  0  0  0  0  0  0  0  0  0
  -27.7074  -23.9577   21.4565 C   0  0  0  0  0  0  0  0  0  0  0  0
  -30.1458  -13.3024   19.4787 C   0  0  0  0  0  0  0  0  0  0  0  0
  -28.0334  -22.4859   21.7013 C   0  0  0  0  0  0  0  0  0  0  0  0
  -28.0029  -22.9200   19.3205 C   0  0  0  0  0  0  0  0  0  0  0  0
  -27.8259  -13.6835   20.2152 C   0  0  0  0  0  0  0  0  0  0  0  0
  -26.2379  -35.1760   20.0850 C   0  0  1  0  0  0  0  0  0  0  0  0
  -24.4650  -31.9338   20.9669 C   0  0  1  0  0  0  0  0  0  0  0  0
  -28.2995  -24.2209   20.0750 C   0  0  1  0  0  0  0  0  0  0  0  0
  -27.3142  -12.5269   19.3411 C   0  0  2  0  0  0  0  0  0  0  0  0
  -22.2503  -29.3561   27.9278 C   0  0  0  0  0  0  0  0  0  0  0  0
  -26.5322  -33.3612   24.8463 C   0  0  0  0  0  0  0  0  0  0  0  0
  -25.8073  -32.2024   26.9440 C   0  0  0  0  0  0  0  0  0  0  0  0
  -24.2976  -33.8611   25.8520 C   0  0  0  0  0  0  0  0  0  0  0  0
  -21.4830  -27.7548   24.5628 C   0  0  0  0  0  0  0  0  0  0  0  0
  -27.7203  -25.4516   19.3996 C   0  0  0  0  0  0  0  0  0  1  0  0
  -24.6442  -31.6016   24.7720 C   0  0  1  0  0  0  0  0  0  0  0  0
  -22.1105  -29.3096   26.4142 C   0  0  2  0  0  0  0  0  0  0  0  0
  -25.3260  -32.7417   25.5800 C   0  0  0  0  0  0  0  0  0  0  0  0
  -26.1542  -10.8536   20.7325 N   0  0  0  0  0  0  0  0  0  0  0  0
  -26.0491  -11.9057   19.9030 N   0  0  0  0  0  0  0  0  0  0  0  0
  -28.0373  -21.8977   20.3643 N   0  0  3  0  0  0  0  0  0  0  0  0
  -24.7262  -31.4036   22.3067 N   0  0  0  0  0  0  0  0  0  0  0  0
  -29.0449  -14.2574   19.6241 N   0  0  0  0  0  0  0  0  0  0  0  0
  -25.6267  -17.7972   19.6429 N   0  0  0  0  0  0  0  0  0  0  0  0
  -30.5054  -20.5410   20.0957 N   0  0  0  0  0  0  0  0  0  0  0  0
  -24.4777  -13.3348   18.8546 N   0  0  0  0  0  0  0  0  0  0  0  0
  -21.8861  -10.5076   21.2393 N   0  0  0  0  0  0  0  0  0  0  0  0
  -28.0983  -16.4023   19.3681 N   0  0  0  0  0  0  0  0  0  0  0  0
  -25.2779  -34.1489   20.4283 N   0  0  0  0  0  0  0  0  0  0  0  0
  -23.4823  -31.0147   25.4307 N   0  0  0  0  0  0  0  0  0  0  0  0
  -21.6815  -27.9368   26.0238 N   0  3  0  0  0  0  0  0  0  0  0  0
  -21.8592  -12.2939   19.8016 O   0  0  0  0  0  0  0  0  0  0  0  0
  -26.7468  -32.3444   20.5200 O   0  0  0  0  0  0  0  0  0  0  0  0
  -23.3373  -32.9665   23.3384 O   0  0  0  0  0  0  0  0  0  0  0  0
  -24.2902  -28.8417   25.4828 O   0  0  0  0  0  0  0  0  0  0  0  0
  -30.2894  -15.9876   18.7285 O   0  0  0  0  0  0  0  0  0  0  0  0
  -23.6712   -6.3290   24.4624 O   0  0  0  0  0  0  0  0  0  0  0  0
  -27.9741  -26.5932   20.2173 O   0  0  0  0  0  0  0  0  0  1  0  0
  -19.5966   -2.9184   22.9895 F   0  0  0  0  0  0  0  0  0  0  0  0
  -24.1460   -3.6319   24.0847 F   0  0  0  0  0  0  0  0  0  0  0  0
  1  2  1  0  0  0  0
  1  5  2  0  0  0  0
  2  6  2  0  0  0  0
  3  8  2  0  0  0  0
  3 17  1  0  0  0  0
  4  9  1  0  0  0  0
  4 17  2  0  0  0  0
  5 19  1  0  0  0  0
  6 21  1  0  0  0  0
  7 10  2  0  0  0  0
  7 20  1  0  0  0  0
  8 27  1  0  0  0  0
  9 27  2  0  0  0  0
 10 28  1  0  0  0  0
 11 12  2  0  0  0  0
 11 29  1  0  0  0  0
 12 30  1  0  0  0  0
 13 22  1  0  0  0  0
 13 28  2  0  0  0  0
 14 23  1  0  0  0  0
 14 24  2  0  0  0  0
 15 25  1  0  0  0  0
 15 26  2  0  0  0  0
 16 30  2  0  0  0  0
 16 31  1  0  0  0  0
 17 32  1  0  0  0  0
 18 32  1  0  0  0  0
 18 33  2  0  0  0  0
 18 34  1  0  0  0  0
 19 21  2  0  0  0  0
 19 39  1  0  0  0  0
 20 22  2  0  0  0  0
 20 40  1  0  0  0  0
 21 51  1  0  0  0  0
 22 41  1  0  0  0  0
 23 25  2  0  0  0  0
 23 66  1  0  0  0  0
 24 26  1  0  0  0  0
 24 69  1  0  0  0  0
 25 70  1  0  0  0  0
 26 73  1  0  0  0  0
 27 82  1  0  0  0  0
 28 83  1  0  0  0  0
 29 31  2  0  0  0  0
 29 82  1  0  0  0  0
 30 84  1  0  0  0  0
 31 85  1  0  0  0  0
 32 64  2  0  0  0  0
 33 65  1  0  0  0  0
 33 71  1  0  0  0  0
 34 72  1  0  0  0  0
 34 77  2  0  0  0  0
 35 52  1  0  0  0  0
 35 74  1  0  0  0  0
 35 78  2  0  0  0  0
 36 61  1  0  0  0  0
 36 67  1  0  0  0  0
 36 79  2  0  0  0  0
 37 62  1  0  0  0  0
 37 75  1  0  0  0  0
 37 80  2  0  0  0  0
 38 68  1  0  0  0  0
 38 73  1  0  0  0  0
 38 81  2  0  0  0  0
 39 42  1  0  0  0  0
 40 52  1  0  0  0  0
 41 67  1  0  0  0  0
 42 44  1  0  0  0  0
 43 45  1  0  0  0  0
 43 47  1  0  0  0  0
 44 51  1  0  0  0  0
 45 54  1  0  0  0  0
 46 48  1  0  0  0  0
 46 53  1  0  0  0  0
 47 68  1  0  0  0  0
 48 66  1  0  0  0  0
 49 53  1  0  0  0  0
 49 66  1  0  0  0  0
 50 54  1  0  0  0  0
 50 68  1  0  0  0  0
 51 74  1  0  0  0  0
 52 67  1  0  0  0  0
 53 60  1  0  0  0  0
 54 65  1  0  0  0  0
 55 62  1  0  0  0  0
 56 63  1  0  0  0  0
 57 63  1  0  0  0  0
 58 63  1  0  0  0  0
 59 76  1  0  0  0  0
 60 83  1  0  0  0  0
 61 63  1  0  0  0  0
 61 75  1  0  0  0  0
 62 76  1  0  0  0  0
 64 65  1  0  0  0  0
M  CHG  1  76   1
M  ISO  4  38 100  60 101  73 100  83 101
M  END
> <Batch ID>
0099

> <Smiles>
CNC(C)C(=O)NC(C(=O)N1Cc2cc([101O:1][101CH2:1]C3CCN(c4cc(N)c([100NH:0][100C:0](=O)N5CCCC(n6nc(-c7ccc(Oc8ccc(F)cc8F)cc7)c(C(N)=O)c6N)C5)cc4N)C3)ccc2CC1C(=O)NC1CCCc2ccccc21)C(C)(C)C

> <Shape>
0.287

> <Color>
0.098

> <Negative vol penalty>
0.000

$$$$

  -OEChem-04052300543D

 85 93  0     1  0  0  0  0  0999 V2000
  -30.5764  -20.9030   22.2387 C   0  0  0  0  0  0  0  0  0  0  0  0
  -29.3810  -20.9645   21.5296 C   0  0  0  0  0  0  0  0  0  0  0  0
  -22.1997  -28.6623   21.9792 C   0  0  0  0  0  0  0  0  0  0  0  0
  -23.1719  -30.4563   23.2728 C   0  0  0  0  0  0  0  0  0  0  0  0
  -31.1341  -19.6654   22.5566 C   0  0  0  0  0  0  0  0  0  0  0  0
  -28.7432  -19.7883   21.1371 C   0  0  0  0  0  0  0  0  0  0  0  0
  -23.7550  -19.9011   22.0031 C   0  0  0  0  0  0  0  0  0  0  0  0
  -21.1146  -28.6191   22.8547 C   0  0  0  0  0  0  0  0  0  0  0  0
  -22.0868  -30.4131   24.1482 C   0  0  0  0  0  0  0  0  0  0  0  0
  -22.9686  -20.6193   21.1033 C   0  0  0  0  0  0  0  0  0  0  0  0
  -17.9129  -28.2803   24.5427 C   0  0  0  0  0  0  0  0  0  0  0  0
  -16.6357  -28.1945   23.9887 C   0  0  0  0  0  0  0  0  0  0  0  0
  -22.3572  -18.5609   20.0040 C   0  0  0  0  0  0  0  0  0  0  0  0
  -25.0251  -23.3788   16.7175 C   0  0  0  0  0  0  0  0  0  0  0  0
  -16.9953  -30.2869   22.8356 C   0  0  0  0  0  0  0  0  0  0  0  0
  -23.2284  -29.5808   22.1883 C   0  0  0  0  0  0  0  0  0  0  0  0
  -24.4701  -30.4026   20.1170 C   0  0  0  0  0  0  0  0  0  0  0  0
  -30.4978  -18.4733   22.1761 C   0  0  0  0  0  0  0  0  0  0  0  0
  -23.8572  -18.5061   21.9032 C   0  0  0  0  0  0  0  0  0  0  0  0
  -29.2936  -18.5335   21.4490 C   0  0  0  0  0  0  0  0  0  0  0  0
  -23.1435  -17.8271   20.9053 C   0  0  0  0  0  0  0  0  0  0  0  0
  -26.2071  -23.9122   17.2192 C   0  0  0  0  0  0  0  0  0  0  0  0
  -21.0582  -29.4945   23.9391 C   0  0  0  0  0  0  0  0  0  0  0  0
  -22.2719  -19.9495   20.1018 C   0  0  0  0  0  0  0  0  0  0  0  0
  -18.7313  -29.3694   24.2432 C   0  0  0  0  0  0  0  0  0  0  0  0
  -24.6640  -22.0759   17.0422 C   0  0  0  0  0  0  0  0  0  0  0  0
  -16.1769  -29.1978   23.1351 C   0  0  0  0  0  0  0  0  0  0  0  0
  -18.2725  -30.3727   23.3897 C   0  0  0  0  0  0  0  0  0  0  0  0
  -24.3498  -29.6256   21.2847 C   0  0  0  0  0  0  0  0  0  0  0  0
  -26.9868  -23.1080   18.0348 C   0  0  0  0  0  0  0  0  0  0  0  0
  -25.5129  -21.3538   17.8655 C   0  0  0  0  0  0  0  0  0  0  0  0
  -25.7119  -30.0879   19.6216 C   0  0  0  0  0  0  0  0  0  0  0  0
  -23.5424  -31.3263   19.5324 C   0  0  0  0  0  0  0  0  0  0  0  0
  -28.2634  -23.6037   18.6104 C   0  0  0  0  0  0  0  0  0  0  0  0
  -26.2340  -16.4634   21.3720 C   0  0  0  0  0  0  0  0  0  0  0  0
  -23.9463  -14.2466   21.9843 C   0  0  0  0  0  0  0  0  0  0  0  0
  -20.6279  -13.4538   22.0646 C   0  0  0  0  0  0  0  0  0  0  0  0
  -29.2294  -25.3210   20.1075 C   0  0  0  0  0  0  0  0  0  0  0  0
  -31.1632  -17.1595   22.5014 C   0  0  0  0  0  0  0  0  0  0  0  0
  -24.6884  -17.7434   22.8981 C   0  0  0  0  0  0  0  0  0  0  0  0
  -23.2036  -16.3284   20.7679 C   0  0  0  0  0  0  0  0  0  0  0  0
  -30.2315  -15.9569   22.3744 C   0  0  0  0  0  0  0  0  0  0  0  0
  -30.0520  -28.6298   21.0413 C   0  0  0  0  0  0  0  0  0  0  0  0
  -29.4435  -16.0276   21.0702 C   0  0  0  0  0  0  0  0  0  0  0  0
  -28.6960  -29.3393   21.0891 C   0  0  0  0  0  0  0  0  0  0  0  0
  -29.9599  -27.1945   21.5574 C   0  0  0  0  0  0  0  0  0  0  0  0
  -27.5710  -27.0797   20.9761 C   0  0  0  0  0  0  0  0  0  0  0  0
  -28.5590  -17.2795   21.0272 C   0  0  1  0  0  0  0  0  0  0  0  0
  -25.1281  -16.3755   22.3854 C   0  0  1  0  0  0  0  0  0  0  0  0
  -27.5967  -28.5052   20.4012 C   0  0  1  0  0  0  0  0  0  0  0  0
  -26.5982  -25.3078   16.8742 C   0  0  0  0  0  0  0  0  0  0  0  0
  -19.0682  -11.5540   22.5701 C   0  0  0  0  0  0  0  0  0  0  0  0
  -24.6681  -12.9480   19.3192 C   0  0  0  0  0  0  0  0  0  0  0  0
  -22.5097  -11.6842   19.4299 C   0  0  0  0  0  0  0  0  0  0  0  0
  -24.2480  -11.3366   21.1850 C   0  0  0  0  0  0  0  0  0  0  0  0
  -19.3115  -14.9619   24.2444 C   0  0  0  0  0  0  0  0  0  0  0  0
  -21.1401  -21.2246   16.9073 C   0  0  0  0  0  0  0  0  0  0  0  0
  -21.3599  -20.1034   17.9107 C   0  0  0  0  0  0  0  0  0  1  0  0
  -22.2943  -22.2146   16.8985 C   0  0  0  0  0  0  0  0  0  0  0  0
  -22.9345  -13.4966   21.1521 C   0  0  1  0  0  0  0  0  0  0  0  0
  -19.7792  -12.7779   23.1263 C   0  0  2  0  0  0  0  0  0  0  0  0
  -23.5903  -12.3948   20.2727 C   0  0  0  0  0  0  0  0  0  0  0  0
  -25.4290  -28.8737   21.5172 N   0  0  0  0  0  0  0  0  0  0  0  0
  -26.6690  -21.8380   18.3721 N   0  0  0  0  0  0  0  0  0  0  0  0
  -26.2392  -29.1767   20.4888 N   0  0  0  0  0  0  0  0  0  0  0  0
  -24.0349  -15.6279   21.7607 N   0  0  0  0  0  0  0  0  0  0  0  0
  -28.9032  -26.4698   20.8493 N   0  0  0  0  0  0  0  0  0  0  0  0
  -25.1455  -20.0255   18.1967 N   0  0  0  0  0  0  0  0  0  0  0  0
  -26.3933  -30.5044   18.5332 N   0  0  0  0  0  0  0  0  0  0  0  0
  -22.3118  -31.5317   20.1711 N   0  0  0  0  0  0  0  0  0  0  0  0
  -28.1576  -24.7254   19.4332 N   0  0  0  0  0  0  0  0  0  0  0  0
  -27.3746  -17.0897   21.8369 N   0  0  0  0  0  0  0  0  0  0  0  0
  -21.9290  -12.9975   22.0840 N   0  0  0  0  0  0  0  0  0  0  0  0
  -18.7509  -13.7229   23.6465 N   0  3  0  0  0  0  0  0  0  0  0  0
  -23.7904  -31.9387   18.4661 O   0  0  0  0  0  0  0  0  0  0  0  0
  -29.3032  -22.9958   18.3713 O   0  0  0  0  0  0  0  0  0  0  0  0
  -26.0654  -15.9963   20.2517 O   0  0  0  0  0  0  0  0  0  0  0  0
  -24.6279  -13.6308   22.8077 O   0  0  0  0  0  0  0  0  0  0  0  0
  -20.1806  -14.2990   21.2926 O   0  0  0  0  0  0  0  0  0  0  0  0
  -30.3817  -24.8850   20.0216 O   0  0  0  0  0  0  0  0  0  0  0  0
  -19.9994  -29.4528   24.7934 O   0  0  0  0  0  0  0  0  0  0  0  0
  -21.5041  -20.6481   19.2218 O   0  0  0  0  0  0  0  0  0  1  0  0
  -23.4995  -21.5473   16.5492 O   0  0  0  0  0  0  0  0  0  0  0  0
  -14.9510  -29.1145   22.6019 F   0  0  0  0  0  0  0  0  0  0  0  0
  -19.0547  -31.4209   23.0973 F   0  0  0  0  0  0  0  0  0  0  0  0
  1  2  1  0  0  0  0
  1  5  2  0  0  0  0
  2  6  2  0  0  0  0
  3  8  2  0  0  0  0
  3 16  1  0  0  0  0
  4  9  1  0  0  0  0
  4 16  2  0  0  0  0
  5 18  1  0  0  0  0
  6 20  1  0  0  0  0
  7 10  2  0  0  0  0
  7 19  1  0  0  0  0
  8 23  1  0  0  0  0
  9 23  2  0  0  0  0
 10 24  1  0  0  0  0
 11 12  2  0  0  0  0
 11 25  1  0  0  0  0
 12 27  1  0  0  0  0
 13 21  1  0  0  0  0
 13 24  2  0  0  0  0
 14 22  2  0  0  0  0
 14 26  1  0  0  0  0
 15 27  2  0  0  0  0
 15 28  1  0  0  0  0
 16 29  1  0  0  0  0
 17 29  1  0  0  0  0
 17 32  2  0  0  0  0
 17 33  1  0  0  0  0
 18 20  2  0  0  0  0
 18 39  1  0  0  0  0
 19 21  2  0  0  0  0
 19 40  1  0  0  0  0
 20 48  1  0  0  0  0
 21 41  1  0  0  0  0
 22 30  1  0  0  0  0
 22 51  1  0  0  0  0
 23 81  1  0  0  0  0
 24 82  1  0  0  0  0
 25 28  2  0  0  0  0
 25 81  1  0  0  0  0
 26 31  2  0  0  0  0
 26 83  1  0  0  0  0
 27 84  1  0  0  0  0
 28 85  1  0  0  0  0
 29 63  2  0  0  0  0
 30 34  1  0  0  0  0
 30 64  2  0  0  0  0
 31 64  1  0  0  0  0
 31 68  1  0  0  0  0
 32 65  1  0  0  0  0
 32 69  1  0  0  0  0
 33 70  1  0  0  0  0
 33 75  2  0  0  0  0
 34 71  1  0  0  0  0
 34 76  2  0  0  0  0
 35 49  1  0  0  0  0
 35 72  1  0  0  0  0
 35 77  2  0  0  0  0
 36 60  1  0  0  0  0
 36 66  1  0  0  0  0
 36 78  2  0  0  0  0
 37 61  1  0  0  0  0
 37 73  1  0  0  0  0
 37 79  2  0  0  0  0
 38 67  1  0  0  0  0
 38 71  1  0  0  0  0
 38 80  2  0  0  0  0
 39 42  1  0  0  0  0
 40 49  1  0  0  0  0
 41 66  1  0  0  0  0
 42 44  1  0  0  0  0
 43 45  1  0  0  0  0
 43 46  1  0  0  0  0
 44 48  1  0  0  0  0
 45 50  1  0  0  0  0
 46 67  1  0  0  0  0
 47 50  1  0  0  0  0
 47 67  1  0  0  0  0
 48 72  1  0  0  0  0
 49 66  1  0  0  0  0
 50 65  1  0  0  0  0
 52 61  1  0  0  0  0
 53 62  1  0  0  0  0
 54 62  1  0  0  0  0
 55 62  1  0  0  0  0
 56 74  1  0  0  0  0
 57 58  1  0  0  0  0
 57 59  1  0  0  0  0
 58 82  1  0  0  0  0
 59 83  1  0  0  0  0
 60 62  1  0  0  0  0
 60 73  1  0  0  0  0
 61 74  1  0  0  0  0
 63 65  1  0  0  0  0
M  CHG  1  74   1
M  ISO  4  38 100  58 101  71 100  82 101
M  END
> <Batch ID>
0099

> <Smiles>
CNC(C)C(=O)NC(C(=O)N1Cc2cc([101O:1][101CH2:1]CCOc3cc(C)c(C(=O)[100NH:0][100C:0](=O)N4CCCC(n5nc(-c6ccc(Oc7ccc(F)cc7F)cc6)c(C(N)=O)c5N)C4)nc3N)ccc2CC1C(=O)NC1CCCc2ccccc21)C(C)(C)C

> <Shape>
0.228

> <Color>
0.071

> <Negative vol penalty>
0.000

$$$$

  -OEChem-04052300543D

 86 94  0     1  0  0  0  0  0999 V2000
  -24.3462   -8.2128   21.9250 C   0  0  0  0  0  0  0  0  0  0  0  0
  -24.9266   -9.3526   21.3778 C   0  0  0  0  0  0  0  0  0  0  0  0
  -21.8224  -29.6403   21.2241 C   0  0  0  0  0  0  0  0  0  0  0  0
  -23.0511  -28.2643   22.7841 C   0  0  0  0  0  0  0  0  0  0  0  0
  -22.9662   -8.1579   22.1161 C   0  0  0  0  0  0  0  0  0  0  0  0
  -24.1271  -10.4377   21.0204 C   0  0  0  0  0  0  0  0  0  0  0  0
  -26.0761  -14.8644   22.5208 C   0  0  0  0  0  0  0  0  0  0  0  0
  -30.7882  -23.6591   21.1245 C   0  0  0  0  0  0  0  0  0  0  0  0
  -30.1600  -24.8563   20.7812 C   0  0  0  0  0  0  0  0  0  0  0  0
  -20.6229  -29.1185   21.7085 C   0  0  0  0  0  0  0  0  0  0  0  0
  -21.8517  -27.7425   23.2686 C   0  0  0  0  0  0  0  0  0  0  0  0
  -27.1190  -15.3914   21.7603 C   0  0  0  0  0  0  0  0  0  0  0  0
  -18.6108  -29.5726   24.3877 C   0  0  0  0  0  0  0  0  0  0  0  0
  -17.5717  -30.4669   24.6447 C   0  0  0  0  0  0  0  0  0  0  0  0
  -25.5621  -16.8707   20.6617 C   0  0  0  0  0  0  0  0  0  0  0  0
  -30.5226  -24.3756   18.4414 C   0  0  0  0  0  0  0  0  0  0  0  0
  -16.1811  -29.3121   23.0416 C   0  0  0  0  0  0  0  0  0  0  0  0
  -23.0365  -29.2132   21.7618 C   0  0  0  0  0  0  0  0  0  0  0  0
  -24.9583  -30.8905   21.7289 C   0  0  0  0  0  0  0  0  0  0  0  0
  -22.1505   -9.2466   21.7698 C   0  0  0  0  0  0  0  0  0  0  0  0
  -24.7644  -15.3297   22.3495 C   0  0  0  0  0  0  0  0  0  0  0  0
  -22.7348  -10.3968   21.2058 C   0  0  0  0  0  0  0  0  0  0  0  0
  -24.5048  -16.3498   21.4231 C   0  0  0  0  0  0  0  0  0  0  0  0
  -31.2837  -22.8202   20.1262 C   0  0  0  0  0  0  0  0  0  0  0  0
  -30.0272  -25.2145   19.4397 C   0  0  0  0  0  0  0  0  0  0  0  0
  -20.6376  -28.1697   22.7308 C   0  0  0  0  0  0  0  0  0  0  0  0
  -26.8616  -16.3927   20.8285 C   0  0  0  0  0  0  0  0  0  0  0  0
  -18.4351  -28.5480   23.4575 C   0  0  0  0  0  0  0  0  0  0  0  0
  -16.3569  -30.3366   23.9718 C   0  0  0  0  0  0  0  0  0  0  0  0
  -31.1508  -23.1784   18.7847 C   0  0  0  0  0  0  0  0  0  0  0  0
  -17.2203  -28.4178   22.7845 C   0  0  0  0  0  0  0  0  0  0  0  0
  -24.2758  -29.7514   21.2614 C   0  0  0  0  0  0  0  0  0  0  0  0
  -26.0715  -30.9762   20.9290 C   0  0  0  0  0  0  0  0  0  0  0  0
  -28.5525  -17.9893   20.5783 C   0  0  0  0  0  0  0  0  0  1  0  0
  -24.6165  -31.7906   22.7913 C   0  0  0  0  0  0  0  0  0  0  0  0
  -29.5757  -18.6321   19.9941 C   0  0  0  0  0  0  0  0  0  0  0  0
  -30.1749  -19.8000   20.7158 C   0  0  0  0  0  0  0  0  0  0  0  0
  -22.0196  -14.0148   21.4325 C   0  0  0  0  0  0  0  0  0  0  0  0
  -20.8108  -16.9154   22.2374 C   0  0  0  0  0  0  0  0  0  0  0  0
  -21.3545  -20.2516   22.7074 C   0  0  0  0  0  0  0  0  0  0  0  0
  -29.1770  -26.9359   17.8087 C   0  0  0  0  0  0  0  0  0  0  0  0
  -20.6584   -9.1224   21.9511 C   0  0  0  0  0  0  0  0  0  0  0  0
  -23.6549  -14.7696   23.1966 C   0  0  0  0  0  0  0  0  0  0  0  0
  -23.1175  -16.8982   21.2155 C   0  0  0  0  0  0  0  0  0  0  0  0
  -19.9244  -10.4596   21.8932 C   0  0  0  0  0  0  0  0  0  0  0  0
  -27.6182  -29.8720   16.5333 C   0  0  0  0  0  0  0  0  0  0  0  0
  -20.4092  -11.2837   20.7047 C   0  0  0  0  0  0  0  0  0  0  0  0
  -26.6507  -30.2814   17.6461 C   0  0  0  0  0  0  0  0  0  0  0  0
  -27.7091  -28.3537   16.3909 C   0  0  0  0  0  0  0  0  0  0  0  0
  -27.0510  -28.0406   18.7442 C   0  0  0  0  0  0  0  0  0  0  0  0
  -21.9038  -11.6039   20.8284 C   0  0  1  0  0  0  0  0  0  0  0  0
  -22.2748  -14.9576   22.5743 C   0  0  1  0  0  0  0  0  0  0  0  0
  -26.9752  -29.5597   18.9688 C   0  0  2  0  0  0  0  0  0  0  0  0
  -33.4128  -21.4604   20.0268 C   0  0  0  0  0  0  0  0  0  0  0  0
  -20.1659  -22.3731   23.3268 C   0  0  0  0  0  0  0  0  0  0  0  0
  -19.5775  -17.0357   19.4491 C   0  0  0  0  0  0  0  0  0  0  0  0
  -19.2389  -19.4940   19.7809 C   0  0  0  0  0  0  0  0  0  0  0  0
  -18.0932  -17.8650   21.2831 C   0  0  0  0  0  0  0  0  0  0  0  0
  -23.0527  -20.6412   25.0996 C   0  0  0  0  0  0  0  0  0  0  0  0
  -31.9629  -21.5212   20.5030 C   0  0  2  0  0  0  0  0  0  0  0  0
  -20.5862  -18.2191   21.5102 C   0  0  1  0  0  0  0  0  0  0  0  0
  -20.9663  -21.1858   23.8392 C   0  0  2  0  0  0  0  0  0  0  0  0
  -19.3999  -18.1420   20.5081 C   0  0  0  0  0  0  0  0  0  0  0  0
  -24.9030  -29.1563   20.2433 N   0  0  0  0  0  0  0  0  0  0  0  0
  -25.9911  -29.9244   20.0645 N   0  0  0  0  0  0  0  0  0  0  0  0
  -22.0652  -16.3137   22.0632 N   0  0  0  0  0  0  0  0  0  0  0  0
  -28.0236  -27.7386   17.6823 N   0  0  0  0  0  0  0  0  0  0  0  0
  -27.1014  -31.8480   20.8878 N   0  0  0  0  0  0  0  0  0  0  0  0
  -23.4375  -31.5564   23.5122 N   0  0  0  0  0  0  0  0  0  0  0  0
  -29.3908  -26.4315   19.0911 N   0  0  0  0  0  0  0  0  0  0  0  0
  -31.2196  -20.3804   20.0172 N   0  0  0  0  0  0  0  0  0  0  0  0
  -22.1137  -12.6791   21.7740 N   0  0  0  0  0  0  0  0  0  0  0  0
  -20.4323  -19.2401   22.5409 N   0  0  0  0  0  0  0  0  0  0  0  0
  -22.1841  -21.7013   24.5262 N   0  3  0  0  0  0  0  0  0  0  0  0
  -25.3268  -32.7829   23.0818 O   0  0  0  0  0  0  0  0  0  0  0  0
  -29.7616  -20.1757   21.8094 O   0  0  0  0  0  0  0  0  0  0  0  0
  -21.7555  -14.4657   20.3241 O   0  0  0  0  0  0  0  0  0  0  0  0
  -19.9092  -16.4516   22.9399 O   0  0  0  0  0  0  0  0  0  0  0  0
  -22.3720  -20.4060   22.0355 O   0  0  0  0  0  0  0  0  0  0  0  0
  -29.9352  -26.7347   16.8565 O   0  0  0  0  0  0  0  0  0  0  0  0
  -30.1133  -18.2878   18.7733 O   0  0  0  0  0  0  0  0  0  0  0  0
  -19.4674  -27.6605   23.2040 O   0  0  0  0  0  0  0  0  0  0  0  0
  -27.8776  -16.9084   20.0844 O   0  0  0  0  0  0  0  0  0  1  0  0
  -15.3586  -31.1946   24.2199 F   0  0  0  0  0  0  0  0  0  0  0  0
  -31.6236  -22.3789   17.8185 F   0  0  0  0  0  0  0  0  0  0  0  0
  -17.0452  -27.4348   21.8907 F   0  0  0  0  0  0  0  0  0  0  0  0
  1  2  1  0  0  0  0
  1  5  2  0  0  0  0
  2  6  2  0  0  0  0
  3 10  2  0  0  0  0
  3 18  1  0  0  0  0
  4 11  1  0  0  0  0
  4 18  2  0  0  0  0
  5 20  1  0  0  0  0
  6 22  1  0  0  0  0
  7 12  2  0  0  0  0
  7 21  1  0  0  0  0
  8  9  2  0  0  0  0
  8 24  1  0  0  0  0
  9 25  1  0  0  0  0
 10 26  1  0  0  0  0
 11 26  2  0  0  0  0
 12 27  1  0  0  0  0
 13 14  2  0  0  0  0
 13 28  1  0  0  0  0
 14 29  1  0  0  0  0
 15 23  1  0  0  0  0
 15 27  2  0  0  0  0
 16 25  2  0  0  0  0
 16 30  1  0  0  0  0
 17 29  2  0  0  0  0
 17 31  1  0  0  0  0
 18 32  1  0  0  0  0
 19 32  1  0  0  0  0
 19 33  2  0  0  0  0
 19 35  1  0  0  0  0
 20 22  2  0  0  0  0
 20 42  1  0  0  0  0
 21 23  2  0  0  0  0
 21 43  1  0  0  0  0
 22 51  1  0  0  0  0
 23 44  1  0  0  0  0
 24 30  2  0  0  0  0
 24 60  1  0  0  0  0
 25 70  1  0  0  0  0
 26 82  1  0  0  0  0
 27 83  1  0  0  0  0
 28 31  2  0  0  0  0
 28 82  1  0  0  0  0
 29 84  1  0  0  0  0
 30 85  1  0  0  0  0
 31 86  1  0  0  0  0
 32 64  2  0  0  0  0
 33 65  1  0  0  0  0
 33 68  1  0  0  0  0
 34 36  2  0  0  0  0
 34 83  1  0  0  0  0
 35 69  1  0  0  0  0
 35 75  2  0  0  0  0
 36 37  1  0  0  0  0
 36 81  1  0  0  0  0
 37 71  1  0  0  0  0
 37 76  2  0  0  0  0
 38 52  1  0  0  0  0
 38 72  1  0  0  0  0
 38 77  2  0  0  0  0
 39 61  1  0  0  0  0
 39 66  1  0  0  0  0
 39 78  2  0  0  0  0
 40 62  1  0  0  0  0
 40 73  1  0  0  0  0
 40 79  2  0  0  0  0
 41 67  1  0  0  0  0
 41 70  1  0  0  0  0
 41 80  2  0  0  0  0
 42 45  1  0  0  0  0
 43 52  1  0  0  0  0
 44 66  1  0  0  0  0
 45 47  1  0  0  0  0
 46 48  1  0  0  0  0
 46 49  1  0  0  0  0
 47 51  1  0  0  0  0
 48 53  1  0  0  0  0
 49 67  1  0  0  0  0
 50 53  1  0  0  0  0
 50 67  1  0  0  0  0
 51 72  1  0  0  0  0
 52 66  1  0  0  0  0
 53 65  1  0  0  0  0
 54 60  1  0  0  0  0
 55 62  1  0  0  0  0
 56 63  1  0  0  0  0
 57 63  1  0  0  0  0
 58 63  1  0  0  0  0
 59 74  1  0  0  0  0
 60 71  1  0  0  0  0
 61 63  1  0  0  0  0
 61 73  1  0  0  0  0
 62 74  1  0  0  0  0
 64 65  1  0  0  0  0
M  CHG  1  74   1
M  ISO  4  34 101  41 100  70 100  83 101
M  END
> <Batch ID>
0099

> <Smiles>
CNC(C)C(=O)NC(C(=O)N1Cc2cc([101O:1][101CH2:1]C(=O)C(=O)NC(C)c3ccc([100NH:0][100C:0](=O)N4CCCC(n5nc(-c6ccc(Oc7ccc(F)cc7F)cc6)c(C(N)=O)c5N)C4)cc3F)ccc2CC1C(=O)NC1CCCc2ccccc21)C(C)(C)C

> <Shape>
0.258

> <Color>
0.073

> <Negative vol penalty>
0.000

$$$$

  -OEChem-04052300543D

 89 98  0     1  0  0  0  0  0999 V2000
  -32.0785  -12.8939   17.6350 C   0  0  0  0  0  0  0  0  0  0  0  0
  -31.4488  -14.0450   17.1725 C   0  0  0  0  0  0  0  0  0  0  0  0
  -25.0407  -31.7685   24.3104 C   0  0  0  0  0  0  0  0  0  0  0  0
  -24.9674  -31.3188   21.9378 C   0  0  0  0  0  0  0  0  0  0  0  0
  -31.4619  -12.1054   18.6055 C   0  0  0  0  0  0  0  0  0  0  0  0
  -30.2014  -14.4076   17.6795 C   0  0  0  0  0  0  0  0  0  0  0  0
  -29.2182  -20.7715   20.9083 C   0  0  0  0  0  0  0  0  0  0  0  0
  -25.6432  -33.0010   24.0583 C   0  0  0  0  0  0  0  0  0  0  0  0
  -25.5699  -32.5514   21.6856 C   0  0  0  0  0  0  0  0  0  0  0  0
  -28.8991  -22.0554   21.3508 C   0  0  0  0  0  0  0  0  0  0  0  0
  -28.7256  -34.1554   23.2896 C   0  0  0  0  0  0  0  0  0  0  0  0
  -29.8198  -34.5141   24.0767 C   0  0  0  0  0  0  0  0  0  0  0  0
  -26.6267  -21.3522   21.7862 C   0  0  0  0  0  0  0  0  0  0  0  0
  -23.8894  -27.7370   19.4325 C   0  0  0  0  0  0  0  0  0  0  0  0
  -23.4922  -25.7461   20.7422 C   0  0  0  0  0  0  0  0  0  0  0  0
  -28.6255  -36.4682   24.8464 C   0  0  0  0  0  0  0  0  0  0  0  0
  -24.7029  -30.9274   23.2502 C   0  0  0  0  0  0  0  0  0  0  0  0
  -24.6072  -28.5894   24.2663 C   0  0  0  0  0  0  0  0  0  0  0  0
  -30.2107  -12.4637   19.1317 C   0  0  0  0  0  0  0  0  0  0  0  0
  -28.2456  -19.7678   20.9176 C   0  0  0  0  0  0  0  0  0  0  0  0
  -29.5669  -13.6224   18.6570 C   0  0  0  0  0  0  0  0  0  0  0  0
  -26.9438  -20.0611   21.3559 C   0  0  0  0  0  0  0  0  0  0  0  0
  -22.5499  -27.7487   19.0439 C   0  0  0  0  0  0  0  0  0  0  0  0
  -24.3606  -26.7357   20.2816 C   0  0  0  0  0  0  0  0  0  0  0  0
  -21.6814  -26.7591   19.5045 C   0  0  0  0  0  0  0  0  0  0  0  0
  -25.9078  -33.3924   22.7459 C   0  0  0  0  0  0  0  0  0  0  0  0
  -27.6065  -22.3451   21.7884 C   0  0  0  0  0  0  0  0  0  0  0  0
  -27.5813  -34.9530   23.2808 C   0  0  0  0  0  0  0  0  0  0  0  0
  -29.7698  -35.6705   24.8551 C   0  0  0  0  0  0  0  0  0  0  0  0
  -22.1526  -25.7578   20.3537 C   0  0  0  0  0  0  0  0  0  0  0  0
  -27.5312  -36.1094   24.0592 C   0  0  0  0  0  0  0  0  0  0  0  0
  -24.0810  -29.6539   23.5101 C   0  0  0  0  0  0  0  0  0  0  0  0
  -23.6388  -27.6170   24.2105 C   0  0  0  0  0  0  0  0  0  0  0  0
  -26.7028  -27.2575   19.7797 C   0  0  0  0  0  0  0  0  0  0  0  0
  -26.0619  -26.1837   21.9581 C   0  0  0  0  0  0  0  0  0  0  0  0
  -25.8594  -28.4887   24.9573 C   0  0  0  0  0  0  0  0  0  0  0  0
  -27.4033  -16.1797   20.2165 C   0  0  0  0  0  0  0  0  0  0  0  0
  -26.0022  -16.9274   22.8411 C   0  0  0  0  0  0  0  0  0  0  0  0
  -24.5558  -16.9417   25.9306 C   0  0  0  0  0  0  0  0  0  0  0  0
  -19.2311  -26.8475   20.0328 C   0  0  0  0  0  0  0  0  0  0  0  0
  -29.5620  -11.5545   20.1451 C   0  0  0  0  0  0  0  0  0  0  0  0
  -28.5281  -18.3866   20.3921 C   0  0  0  0  0  0  0  0  0  0  0  0
  -25.9207  -18.9589   21.3157 C   0  0  0  0  0  0  0  0  0  0  0  0
  -28.1275  -27.3980   20.2758 C   0  0  0  0  0  0  0  0  0  0  0  0
  -28.4100  -12.2100   20.9024 C   0  0  0  0  0  0  0  0  0  0  0  0
  -28.2858  -27.2229   21.7673 C   0  0  0  0  0  0  0  0  0  0  0  0
  -18.9221  -27.0202   23.7162 C   0  0  0  0  0  0  0  0  0  0  0  0
  -27.4826  -12.9397   19.9358 C   0  0  0  0  0  0  0  0  0  0  0  0
  -20.2229  -27.7033   24.1341 C   0  0  0  0  0  0  0  0  0  0  0  0
  -18.4860  -27.4408   22.3160 C   0  0  0  0  0  0  0  0  0  0  0  0
  -20.8389  -27.9062   21.6926 C   0  0  0  0  0  0  0  0  0  0  0  0
  -28.2247  -14.0622   19.2004 C   0  0  1  0  0  0  0  0  0  0  0  0
  -27.5371  -25.9924   22.2456 C   0  0  2  0  0  0  0  0  0  0  0  0
  -27.7790  -17.2835   21.1609 C   0  0  1  0  0  0  0  0  0  0  0  0
  -21.3209  -27.4681   23.0837 C   0  0  1  0  0  0  0  0  0  0  0  0
  -22.0731  -28.8329   18.1324 C   0  0  0  0  0  0  0  0  0  0  0  0
  -22.7603  -15.8108   27.2701 C   0  0  0  0  0  0  0  0  0  0  0  0
  -23.8803  -18.5108   21.3266 C   0  0  0  0  0  0  0  0  0  0  0  0
  -22.3171  -18.1109   23.2409 C   0  0  0  0  0  0  0  0  0  0  0  0
  -23.2069  -16.1805   21.9354 C   0  0  0  0  0  0  0  0  0  0  0  0
  -19.9707  -26.3858   17.7368 C   0  0  0  0  0  0  0  0  0  0  0  0
  -26.5041  -15.9618   27.9314 C   0  0  0  0  0  0  0  0  0  0  0  0
  -28.0306  -24.6810   21.6426 C   0  0  0  0  0  0  0  0  0  1  0  0
  -24.7453  -17.4294   23.5056 C   0  0  1  0  0  0  0  0  0  0  0  0
  -24.2348  -15.8167   26.8979 C   0  0  2  0  0  0  0  0  0  0  0  0
  -23.5625  -17.5706   22.5063 C   0  0  0  0  0  0  0  0  0  0  0  0
  -22.8722  -29.3833   23.0104 N   0  0  0  0  0  0  0  0  0  0  0  0
  -22.6308  -28.1377   23.4535 N   0  0  0  0  0  0  0  0  0  0  0  0
  -25.7532  -26.7236   20.6840 N   0  0  0  0  0  0  0  0  0  0  0  0
  -26.5172  -17.7021   21.7946 N   0  0  0  0  0  0  0  0  0  0  0  0
  -19.5610  -27.2676   21.3377 N   0  0  0  0  0  0  0  0  0  0  0  0
  -23.5597  -26.3759   24.7356 N   0  0  0  0  0  0  0  0  0  0  0  0
  -26.7372  -29.5803   24.9122 N   0  0  0  0  0  0  0  0  0  0  0  0
  -28.3801  -15.2145   20.0621 N   0  0  0  0  0  0  0  0  0  0  0  0
  -24.4824  -16.5237   24.6187 N   0  0  0  0  0  0  0  0  0  0  0  0
  -20.2931  -26.7566   19.1129 N   0  0  0  0  0  0  0  0  0  0  0  0
  -25.0342  -15.9637   28.1471 N   0  3  0  0  0  0  0  0  0  0  0  0
  -26.4752  -27.5405   18.5987 O   0  0  0  0  0  0  0  0  0  0  0  0
  -25.2423  -25.8867   22.8310 O   0  0  0  0  0  0  0  0  0  0  0  0
  -26.1971  -27.4548   25.5823 O   0  0  0  0  0  0  0  0  0  0  0  0
  -26.3073  -16.2001   19.6687 O   0  0  0  0  0  0  0  0  0  0  0  0
  -26.5126  -15.8743   23.2334 O   0  0  0  0  0  0  0  0  0  0  0  0
  -24.8395  -18.0785   26.3015 O   0  0  0  0  0  0  0  0  0  0  0  0
  -18.0628  -26.6222   19.6936 O   0  0  0  0  0  0  0  0  0  0  0  0
  -26.4955  -34.5951   22.4994 O   0  0  0  0  0  0  0  0  0  0  0  0
  -27.3030  -23.5995   22.2234 O   0  0  0  0  0  0  0  0  0  1  0  0
  -30.8201  -36.0140   25.6121 F   0  0  0  0  0  0  0  0  0  0  0  0
  -21.3275  -24.8012   20.8028 F   0  0  0  0  0  0  0  0  0  0  0  0
  -26.4342  -36.8791   24.0558 F   0  0  0  0  0  0  0  0  0  0  0  0
  1  2  1  0  0  0  0
  1  5  2  0  0  0  0
  2  6  2  0  0  0  0
  3  8  2  0  0  0  0
  3 17  1  0  0  0  0
  4  9  1  0  0  0  0
  4 17  2  0  0  0  0
  5 19  1  0  0  0  0
  6 21  1  0  0  0  0
  7 10  2  0  0  0  0
  7 20  1  0  0  0  0
  8 26  1  0  0  0  0
  9 26  2  0  0  0  0
 10 27  1  0  0  0  0
 11 12  2  0  0  0  0
 11 28  1  0  0  0  0
 12 29  1  0  0  0  0
 13 22  1  0  0  0  0
 13 27  2  0  0  0  0
 14 23  2  0  0  0  0
 14 24  1  0  0  0  0
 15 24  2  0  0  0  0
 15 30  1  0  0  0  0
 16 29  2  0  0  0  0
 16 31  1  0  0  0  0
 17 32  1  0  0  0  0
 18 32  1  0  0  0  0
 18 33  2  0  0  0  0
 18 36  1  0  0  0  0
 19 21  2  0  0  0  0
 19 41  1  0  0  0  0
 20 22  2  0  0  0  0
 20 42  1  0  0  0  0
 21 52  1  0  0  0  0
 22 43  1  0  0  0  0
 23 25  1  0  0  0  0
 23 56  1  0  0  0  0
 24 69  1  0  0  0  0
 25 30  2  0  0  0  0
 25 76  1  0  0  0  0
 26 85  1  0  0  0  0
 27 86  1  0  0  0  0
 28 31  2  0  0  0  0
 28 85  1  0  0  0  0
 29 87  1  0  0  0  0
 30 88  1  0  0  0  0
 31 89  1  0  0  0  0
 32 67  2  0  0  0  0
 33 68  1  0  0  0  0
 33 72  1  0  0  0  0
 34 44  1  0  0  0  0
 34 69  1  0  0  0  0
 34 78  2  0  0  0  0
 35 53  1  0  0  0  0
 35 69  1  0  0  0  0
 35 79  2  0  0  0  0
 36 73  1  0  0  0  0
 36 80  2  0  0  0  0
 37 54  1  0  0  0  0
 37 74  1  0  0  0  0
 37 81  2  0  0  0  0
 38 64  1  0  0  0  0
 38 70  1  0  0  0  0
 38 82  2  0  0  0  0
 39 65  1  0  0  0  0
 39 75  1  0  0  0  0
 39 83  2  0  0  0  0
 40 71  1  0  0  0  0
 40 76  1  0  0  0  0
 40 84  2  0  0  0  0
 41 45  1  0  0  0  0
 42 54  1  0  0  0  0
 43 70  1  0  0  0  0
 44 46  1  0  0  0  0
 45 48  1  0  0  0  0
 46 53  1  0  0  0  0
 47 49  1  0  0  0  0
 47 50  1  0  0  0  0
 48 52  1  0  0  0  0
 49 55  1  0  0  0  0
 50 71  1  0  0  0  0
 51 55  1  0  0  0  0
 51 71  1  0  0  0  0
 52 74  1  0  0  0  0
 53 63  1  0  0  0  0
 54 70  1  0  0  0  0
 55 68  1  0  0  0  0
 57 65  1  0  0  0  0
 58 66  1  0  0  0  0
 59 66  1  0  0  0  0
 60 66  1  0  0  0  0
 61 76  1  0  0  0  0
 62 77  1  0  0  0  0
 63 86  1  0  0  0  0
 64 66  1  0  0  0  0
 64 75  1  0  0  0  0
 65 77  1  0  0  0  0
 67 68  1  0  0  0  0
M  CHG  1  77   1
M  ISO  4  40 100  63 101  76 100  86 101
M  END
> <Batch ID>
0099

> <Smiles>
CNC(C)C(=O)NC(C(=O)N1Cc2cc([101O:1][101CH2:1]C3CCC(=O)N(c4cc(C)c([100N:0](C)[100C:0](=O)N5CCCC(n6nc(-c7ccc(Oc8ccc(F)cc8F)cc7)c(C(N)=O)c6N)C5)c(F)c4)C3=O)ccc2CC1C(=O)NC1CCCc2ccccc21)C(C)(C)C

> <Shape>
0.233

> <Color>
0.061

> <Negative vol penalty>
0.000

$$$$

  -OEChem-04052300543D

 83 91  0     1  0  0  0  0  0999 V2000
  -27.4411  -20.8548   27.6778 C   0  0  0  0  0  0  0  0  0  0  0  0
  -27.7071  -21.9100   26.8126 C   0  0  0  0  0  0  0  0  0  0  0  0
  -27.5266  -12.3393   19.3258 C   0  0  0  0  0  0  0  0  0  0  0  0
  -26.5076  -12.8177   21.4635 C   0  0  0  0  0  0  0  0  0  0  0  0
  -30.7714  -21.0292   21.0962 C   0  0  0  0  0  0  0  0  0  0  0  0
  -26.1355  -20.3909   27.8246 C   0  0  0  0  0  0  0  0  0  0  0  0
  -26.6661  -22.5095   26.1028 C   0  0  0  0  0  0  0  0  0  0  0  0
  -27.7607  -26.5472   23.5140 C   0  0  0  0  0  0  0  0  0  0  0  0
  -27.0231  -11.0395   19.3767 C   0  0  0  0  0  0  0  0  0  0  0  0
  -26.0041  -11.5179   21.5144 C   0  0  0  0  0  0  0  0  0  0  0  0
  -30.3903  -21.8033   20.0003 C   0  0  0  0  0  0  0  0  0  0  0  0
  -28.5119  -26.5093   22.3401 C   0  0  0  0  0  0  0  0  0  0  0  0
  -23.4289   -9.7915   20.1695 C   0  0  0  0  0  0  0  0  0  0  0  0
  -22.0998   -9.6278   20.5596 C   0  0  0  0  0  0  0  0  0  0  0  0
  -28.7878  -21.7325   22.2828 C   0  0  0  0  0  0  0  0  0  0  0  0
  -26.4953  -26.7949   21.0475 C   0  0  0  0  0  0  0  0  0  0  0  0
  -22.8150   -8.2740   22.4285 C   0  0  0  0  0  0  0  0  0  0  0  0
  -27.2688  -13.2285   20.3693 C   0  0  0  0  0  0  0  0  0  0  0  0
  -29.9701  -20.9937   22.2375 C   0  0  0  0  0  0  0  0  0  0  0  0
  -27.1629  -15.7048   19.7656 C   0  0  0  0  0  0  0  0  0  0  0  0
  -25.0804  -20.9774   27.1064 C   0  0  0  0  0  0  0  0  0  0  0  0
  -26.3675  -26.6986   23.4629 C   0  0  0  0  0  0  0  0  0  0  0  0
  -25.3382  -22.0713   26.2553 C   0  0  0  0  0  0  0  0  0  0  0  0
  -25.7290  -26.8370   22.2222 C   0  0  0  0  0  0  0  0  0  0  0  0
  -28.4068  -22.5067   21.1868 C   0  0  0  0  0  0  0  0  0  0  0  0
  -26.2619  -10.6288   20.4710 C   0  0  0  0  0  0  0  0  0  0  0  0
  -27.8789  -26.6302   21.1065 C   0  0  0  0  0  0  0  0  0  0  0  0
  -29.2081  -22.5421   20.0456 C   0  0  0  0  0  0  0  0  0  0  0  0
  -24.4511   -9.1964   20.9089 C   0  0  0  0  0  0  0  0  0  0  0  0
  -21.7928   -8.8691   21.6891 C   0  0  0  0  0  0  0  0  0  0  0  0
  -24.1442   -8.4377   22.0384 C   0  0  0  0  0  0  0  0  0  0  0  0
  -27.7891  -14.5711   20.3175 C   0  0  0  0  0  0  0  0  0  0  0  0
  -28.0607  -16.7247   19.9662 C   0  0  0  0  0  0  0  0  0  0  0  0
  -30.3681  -20.1860   23.3796 C   0  0  0  0  0  0  0  0  0  0  0  0
  -25.8841  -15.8251   19.1286 C   0  0  0  0  0  0  0  0  0  0  0  0
  -31.6169  -19.3901   23.3634 C   0  0  0  0  0  0  0  0  0  0  0  0
  -23.8846  -24.9312   24.3657 C   0  0  0  0  0  0  0  0  0  0  0  0
  -22.1940  -27.5582   23.4921 C   0  0  0  0  0  0  0  0  0  0  0  0
  -22.0274  -30.4049   21.6171 C   0  0  0  0  0  0  0  0  0  0  0  0
  -23.6853  -20.4409   27.3092 C   0  0  0  0  0  0  0  0  0  0  0  0
  -25.5745  -26.7644   24.7393 C   0  0  0  0  0  0  0  0  0  0  0  0
  -24.2381  -27.0218   22.1139 C   0  0  0  0  0  0  0  0  0  0  0  0
  -22.7266  -20.8401   26.1921 C   0  0  0  0  0  0  0  0  0  0  0  0
  -32.8860  -16.6341   21.4527 C   0  0  0  0  0  0  0  0  0  0  0  0
  -22.8223  -22.3366   25.9352 C   0  0  0  0  0  0  0  0  0  0  0  0
  -31.6203  -15.9232   20.9749 C   0  0  0  0  0  0  0  0  0  0  0  0
  -32.6967  -17.2386   22.8402 C   0  0  0  0  0  0  0  0  0  0  0  0
  -30.2559  -17.4571   22.4618 C   0  0  0  0  0  0  0  0  0  0  0  0
  -24.2263  -22.7188   25.4499 C   0  0  1  0  0  0  0  0  0  0  0  0
  -24.1039  -26.4064   24.5482 C   0  0  1  0  0  0  0  0  0  0  0  0
  -30.3997  -16.8574   21.0521 C   0  0  2  0  0  0  0  0  0  0  0  0
  -20.5041  -32.3269   21.0850 C   0  0  0  0  0  0  0  0  0  0  0  0
  -20.5167  -25.7332   21.7128 C   0  0  0  0  0  0  0  0  0  0  0  0
  -19.6827  -27.7734   20.5253 C   0  0  0  0  0  0  0  0  0  0  0  0
  -19.2104  -27.4664   22.9554 C   0  0  0  0  0  0  0  0  0  0  0  0
  -23.9668  -32.3818   22.6606 C   0  0  0  0  0  0  0  0  0  0  0  0
  -28.9991  -25.4414   17.8749 C   0  0  0  0  0  0  0  0  0  0  0  0
  -27.9670  -26.0722   18.7964 C   0  0  0  0  0  0  0  0  0  1  0  0
  -29.7576  -24.3139   18.5575 C   0  0  0  0  0  0  0  0  0  0  0  0
  -21.5572  -28.0428   22.2120 C   0  0  1  0  0  0  0  0  0  0  0  0
  -21.6302  -31.8254   21.9757 C   0  0  2  0  0  0  0  0  0  0  0  0
  -20.2697  -27.2485   21.8530 C   0  0  0  0  0  0  0  0  0  0  0  0
  -28.9918  -14.8447   20.8301 N   0  0  0  0  0  0  0  0  0  0  0  0
  -29.6693  -20.1070   24.4797 N   0  0  0  0  0  0  0  0  0  0  0  0
  -29.1286  -16.1618   20.6011 N   0  0  0  0  0  0  0  0  0  0  0  0
  -31.5101  -18.0905   22.8883 N   0  0  0  0  0  0  0  0  0  0  0  0
  -23.5057  -27.0735   23.3900 N   0  0  0  0  0  0  0  0  0  0  0  0
  -27.2070  -23.2489   21.2457 N   0  0  0  0  0  0  0  0  0  0  0  0
  -28.0330  -18.0391   19.6597 N   0  0  0  0  0  0  0  0  0  0  0  0
  -25.0885  -14.6779   19.0053 N   0  0  0  0  0  0  0  0  0  0  0  0
  -24.3389  -24.1604   25.4188 N   0  0  0  0  0  0  0  0  0  0  0  0
  -21.3478  -29.4770   22.3777 N   0  0  0  0  0  0  0  0  0  0  0  0
  -22.7944  -32.7431   21.8228 N   0  3  0  0  0  0  0  0  0  0  0  0
  -25.4665  -16.9143   18.6674 O   0  0  0  0  0  0  0  0  0  0  0  0
  -32.6154  -19.9671   23.7737 O   0  0  0  0  0  0  0  0  0  0  0  0
  -23.3419  -24.5227   23.3458 O   0  0  0  0  0  0  0  0  0  0  0  0
  -21.5539  -27.6146   24.5450 O   0  0  0  0  0  0  0  0  0  0  0  0
  -22.8548  -30.1442   20.7464 O   0  0  0  0  0  0  0  0  0  0  0  0
  -25.7703   -9.3606   20.5208 O   0  0  0  0  0  0  0  0  0  0  0  0
  -28.6097  -26.5929   19.9592 O   0  0  0  0  0  0  0  0  0  1  0  0
  -28.8507  -23.2956   18.9578 O   0  0  0  0  0  0  0  0  0  0  0  0
  -20.5165   -8.7132   22.0644 F   0  0  0  0  0  0  0  0  0  0  0  0
  -25.1220   -7.8645   22.7534 F   0  0  0  0  0  0  0  0  0  0  0  0
  1  2  1  0  0  0  0
  1  6  2  0  0  0  0
  2  7  2  0  0  0  0
  3  9  2  0  0  0  0
  3 18  1  0  0  0  0
  4 10  1  0  0  0  0
  4 18  2  0  0  0  0
  5 11  2  0  0  0  0
  5 19  1  0  0  0  0
  6 21  1  0  0  0  0
  7 23  1  0  0  0  0
  8 12  2  0  0  0  0
  8 22  1  0  0  0  0
  9 26  1  0  0  0  0
 10 26  2  0  0  0  0
 11 28  1  0  0  0  0
 12 27  1  0  0  0  0
 13 14  2  0  0  0  0
 13 29  1  0  0  0  0
 14 30  1  0  0  0  0
 15 19  2  0  0  0  0
 15 25  1  0  0  0  0
 16 24  1  0  0  0  0
 16 27  2  0  0  0  0
 17 30  2  0  0  0  0
 17 31  1  0  0  0  0
 18 32  1  0  0  0  0
 19 34  1  0  0  0  0
 20 32  1  0  0  0  0
 20 33  2  0  0  0  0
 20 35  1  0  0  0  0
 21 23  2  0  0  0  0
 21 40  1  0  0  0  0
 22 24  2  0  0  0  0
 22 41  1  0  0  0  0
 23 49  1  0  0  0  0
 24 42  1  0  0  0  0
 25 28  2  0  0  0  0
 25 68  1  0  0  0  0
 26 79  1  0  0  0  0
 27 80  1  0  0  0  0
 28 81  1  0  0  0  0
 29 31  2  0  0  0  0
 29 79  1  0  0  0  0
 30 82  1  0  0  0  0
 31 83  1  0  0  0  0
 32 63  2  0  0  0  0
 33 65  1  0  0  0  0
 33 69  1  0  0  0  0
 34 36  1  0  0  0  0
 34 64  2  0  0  0  0
 35 70  1  0  0  0  0
 35 74  2  0  0  0  0
 36 66  1  0  0  0  0
 36 75  2  0  0  0  0
 37 50  1  0  0  0  0
 37 71  1  0  0  0  0
 37 76  2  0  0  0  0
 38 60  1  0  0  0  0
 38 67  1  0  0  0  0
 38 77  2  0  0  0  0
 39 61  1  0  0  0  0
 39 72  1  0  0  0  0
 39 78  2  0  0  0  0
 40 43  1  0  0  0  0
 41 50  1  0  0  0  0
 42 67  1  0  0  0  0
 43 45  1  0  0  0  0
 44 46  1  0  0  0  0
 44 47  1  0  0  0  0
 45 49  1  0  0  0  0
 46 51  1  0  0  0  0
 47 66  1  0  0  0  0
 48 51  1  0  0  0  0
 48 66  1  0  0  0  0
 49 71  1  0  0  0  0
 50 67  1  0  0  0  0
 51 65  1  0  0  0  0
 52 61  1  0  0  0  0
 53 62  1  0  0  0  0
 54 62  1  0  0  0  0
 55 62  1  0  0  0  0
 56 73  1  0  0  0  0
 57 58  1  0  0  0  0
 57 59  1  0  0  0  0
 58 80  1  0  0  0  0
 59 81  1  0  0  0  0
 60 62  1  0  0  0  0
 60 72  1  0  0  0  0
 61 73  1  0  0  0  0
 63 65  1  0  0  0  0
M  CHG  1  73   1
M  ISO  4  34 100  36 100  58 101  80 101
M  END
> <Batch ID>
0099

> <Smiles>
CNC(C)C(=O)NC(C(=O)N1Cc2cc([101O:1][101CH2:1]CCOc3ccc([100C:0](=N)[100C:0](=O)N4CCCC(n5nc(-c6ccc(Oc7ccc(F)cc7F)cc6)c(C(N)=O)c5N)C4)cc3N)ccc2CC1C(=O)NC1CCCc2ccccc21)C(C)(C)C

> <Shape>
0.230

> <Color>
0.072

> <Negative vol penalty>
0.000

$$$$

  -OEChem-04052300543D

 83 91  0     1  0  0  0  0  0999 V2000
  -16.6492  -27.7743   25.9606 C   0  0  0  0  0  0  0  0  0  0  0  0
  -17.6315  -26.8332   26.2521 C   0  0  0  0  0  0  0  0  0  0  0  0
  -27.0102  -12.9603   20.7802 C   0  0  0  0  0  0  0  0  0  0  0  0
  -27.4928  -12.5569   18.4475 C   0  0  0  0  0  0  0  0  0  0  0  0
  -16.6902  -28.4722   24.7544 C   0  0  0  0  0  0  0  0  0  0  0  0
  -18.6548  -26.5888   25.3370 C   0  0  0  0  0  0  0  0  0  0  0  0
  -25.5834  -24.7908   25.0583 C   0  0  0  0  0  0  0  0  0  0  0  0
  -26.3932  -11.7125   20.8683 C   0  0  0  0  0  0  0  0  0  0  0  0
  -26.8758  -11.3090   18.5356 C   0  0  0  0  0  0  0  0  0  0  0  0
  -26.4315  -23.8608   24.4585 C   0  0  0  0  0  0  0  0  0  0  0  0
  -24.3730   -8.7824   21.6149 C   0  0  0  0  0  0  0  0  0  0  0  0
  -23.1487   -8.7081   22.2791 C   0  0  0  0  0  0  0  0  0  0  0  0
  -26.4452  -25.1834   22.4412 C   0  0  0  0  0  0  0  0  0  0  0  0
  -23.7798  -22.0711   21.8014 C   0  0  0  0  0  0  0  0  0  0  0  0
  -24.8902  -20.6767   23.4322 C   0  0  0  0  0  0  0  0  0  0  0  0
  -22.1948  -10.2627   20.6946 C   0  0  0  0  0  0  0  0  0  0  0  0
  -27.5600  -13.3826   19.5697 C   0  0  0  0  0  0  0  0  0  0  0  0
  -29.5541  -14.9676   19.7073 C   0  0  0  0  0  0  0  0  0  0  0  0
  -17.7200  -28.2432   23.8282 C   0  0  0  0  0  0  0  0  0  0  0  0
  -25.1503  -25.9203   24.3491 C   0  0  0  0  0  0  0  0  0  0  0  0
  -18.7089  -27.2834   24.1166 C   0  0  0  0  0  0  0  0  0  0  0  0
  -25.5937  -26.1275   23.0351 C   0  0  0  0  0  0  0  0  0  0  0  0
  -24.7735  -21.1471   22.1242 C   0  0  0  0  0  0  0  0  0  0  0  0
  -22.9028  -22.5250   22.7866 C   0  0  0  0  0  0  0  0  0  0  0  0
  -24.0132  -21.1305   24.4174 C   0  0  0  0  0  0  0  0  0  0  0  0
  -23.0195  -22.0546   24.0946 C   0  0  0  0  0  0  0  0  0  0  0  0
  -26.3260  -10.8868   19.7461 C   0  0  0  0  0  0  0  0  0  0  0  0
  -26.8603  -24.0556   23.1488 C   0  0  0  0  0  0  0  0  0  0  0  0
  -24.5083   -9.5969   20.4906 C   0  0  0  0  0  0  0  0  0  0  0  0
  -22.0596   -9.4482   21.8189 C   0  0  0  0  0  0  0  0  0  0  0  0
  -23.4192  -10.3370   20.0304 C   0  0  0  0  0  0  0  0  0  0  0  0
  -28.1970  -14.6717   19.4779 C   0  0  0  0  0  0  0  0  0  0  0  0
  -29.6515  -16.3207   19.4926 C   0  0  0  0  0  0  0  0  0  0  0  0
  -30.6304  -14.0972   20.0809 C   0  0  0  0  0  0  0  0  0  0  0  0
  -22.3252  -27.0275   23.4025 C   0  0  0  0  0  0  0  0  0  0  0  0
  -24.0785  -29.5945   22.4757 C   0  0  0  0  0  0  0  0  0  0  0  0
  -27.1142  -30.8465   21.5462 C   0  0  0  0  0  0  0  0  0  0  0  0
  -25.2838  -20.5899   19.7527 C   0  0  0  0  0  0  0  0  0  0  0  0
  -17.6959  -28.9880   22.5169 C   0  0  0  0  0  0  0  0  0  0  0  0
  -24.2569  -26.9278   25.0194 C   0  0  0  0  0  0  0  0  0  0  0  0
  -25.1739  -27.3342   22.2375 C   0  0  0  0  0  0  0  0  0  0  0  0
  -19.0233  -28.9399   21.7647 C   0  0  0  0  0  0  0  0  0  0  0  0
  -27.6530  -19.8839   17.0142 C   0  0  0  0  0  0  0  0  0  0  0  0
  -19.5719  -27.5168   21.7404 C   0  0  0  0  0  0  0  0  0  0  0  0
  -28.1232  -18.4647   17.3282 C   0  0  0  0  0  0  0  0  0  0  0  0
  -26.2316  -20.1329   17.5100 C   0  0  0  0  0  0  0  0  0  0  0  0
  -26.5112  -18.4178   19.2737 C   0  0  0  0  0  0  0  0  0  0  0  0
  -19.8489  -27.0081   23.1603 C   0  0  1  0  0  0  0  0  0  0  0  0
  -23.4664  -27.7775   24.0292 C   0  0  1  0  0  0  0  0  0  0  0  0
  -27.9557  -18.1497   18.8248 C   0  0  1  0  0  0  0  0  0  0  0  0
  -28.2271  -32.9725   20.8119 C   0  0  0  0  0  0  0  0  0  0  0  0
  -22.8379  -29.2842   19.7054 C   0  0  0  0  0  0  0  0  0  0  0  0
  -24.6433  -30.7681   18.8071 C   0  0  0  0  0  0  0  0  0  0  0  0
  -23.0365  -31.6469   20.5008 C   0  0  0  0  0  0  0  0  0  0  0  0
  -28.9359  -30.8350   23.8786 C   0  0  0  0  0  0  0  0  0  0  0  0
  -27.9754  -21.5709   20.7762 C   0  0  0  0  0  0  0  0  0  0  0  0
  -27.0988  -20.5220   21.4470 C   0  0  0  0  0  0  0  0  0  0  0  0
  -27.5827  -22.9962   21.1459 C   0  0  0  0  0  0  0  0  0  1  0  0
  -24.8089  -29.9916   21.2156 C   0  0  1  0  0  0  0  0  0  0  0  0
  -27.8737  -32.0825   21.9933 C   0  0  2  0  0  0  0  0  0  0  0  0
  -23.8382  -30.3988   20.0714 C   0  0  0  0  0  0  0  0  0  0  0  0
  -27.4835  -15.7501   19.1433 N   0  0  0  0  0  0  0  0  0  0  0  0
  -28.3957  -16.7369   19.1609 N   0  0  0  0  0  0  0  0  0  0  0  0
  -24.2947  -28.2874   22.9346 N   0  0  0  0  0  0  0  0  0  0  0  0
  -26.0882  -19.7825   18.9236 N   0  0  0  0  0  0  0  0  0  0  0  0
  -21.9040  -23.4612   22.4361 N   0  0  0  0  0  0  0  0  0  0  0  0
  -24.1506  -20.6400   25.7355 N   0  0  0  0  0  0  0  0  0  0  0  0
  -22.1294  -22.5152   25.0944 N   0  0  0  0  0  0  0  0  0  0  0  0
  -30.6880  -17.1833   19.5571 N   0  0  0  0  0  0  0  0  0  0  0  0
  -30.3561  -12.7345   20.2606 N   0  0  0  0  0  0  0  0  0  0  0  0
  -21.0823  -27.5705   23.6670 N   0  0  0  0  0  0  0  0  0  0  0  0
  -25.7498  -31.0377   21.6016 N   0  0  0  0  0  0  0  0  0  0  0  0
  -25.6813  -20.6773   21.1044 N   0  0  0  0  0  0  0  0  0  0  0  0
  -29.1364  -31.6933   22.6827 N   0  3  0  0  0  0  0  0  0  0  0  0
  -31.7974  -14.5181   20.2665 O   0  0  0  0  0  0  0  0  0  0  0  0
  -22.5553  -26.0310   22.7276 O   0  0  0  0  0  0  0  0  0  0  0  0
  -23.3489  -30.4161   23.0363 O   0  0  0  0  0  0  0  0  0  0  0  0
  -27.6752  -29.8159   21.1805 O   0  0  0  0  0  0  0  0  0  0  0  0
  -24.3063  -21.2068   19.3126 O   0  0  0  0  0  0  0  0  0  0  0  0
  -25.7242   -9.6690   19.8318 O   0  0  0  0  0  0  0  0  0  0  0  0
  -27.6876  -23.1492   22.5608 O   0  0  0  0  0  0  0  0  0  1  0  0
  -20.8836   -9.3756   22.4559 F   0  0  0  0  0  0  0  0  0  0  0  0
  -23.5427  -11.1203   18.9502 F   0  0  0  0  0  0  0  0  0  0  0  0
  1  2  1  0  0  0  0
  1  5  2  0  0  0  0
  2  6  2  0  0  0  0
  3  8  2  0  0  0  0
  3 17  1  0  0  0  0
  4  9  1  0  0  0  0
  4 17  2  0  0  0  0
  5 19  1  0  0  0  0
  6 21  1  0  0  0  0
  7 10  2  0  0  0  0
  7 20  1  0  0  0  0
  8 27  1  0  0  0  0
  9 27  2  0  0  0  0
 10 28  1  0  0  0  0
 11 12  2  0  0  0  0
 11 29  1  0  0  0  0
 12 30  1  0  0  0  0
 13 22  1  0  0  0  0
 13 28  2  0  0  0  0
 14 23  1  0  0  0  0
 14 24  2  0  0  0  0
 15 23  2  0  0  0  0
 15 25  1  0  0  0  0
 16 30  2  0  0  0  0
 16 31  1  0  0  0  0
 17 32  1  0  0  0  0
 18 32  1  0  0  0  0
 18 33  2  0  0  0  0
 18 34  1  0  0  0  0
 19 21  2  0  0  0  0
 19 39  1  0  0  0  0
 20 22  2  0  0  0  0
 20 40  1  0  0  0  0
 21 48  1  0  0  0  0
 22 41  1  0  0  0  0
 23 73  1  0  0  0  0
 24 26  1  0  0  0  0
 24 66  1  0  0  0  0
 25 26  2  0  0  0  0
 25 67  1  0  0  0  0
 26 68  1  0  0  0  0
 27 80  1  0  0  0  0
 28 81  1  0  0  0  0
 29 31  2  0  0  0  0
 29 80  1  0  0  0  0
 30 82  1  0  0  0  0
 31 83  1  0  0  0  0
 32 62  2  0  0  0  0
 33 63  1  0  0  0  0
 33 69  1  0  0  0  0
 34 70  1  0  0  0  0
 34 75  2  0  0  0  0
 35 49  1  0  0  0  0
 35 71  1  0  0  0  0
 35 76  2  0  0  0  0
 36 59  1  0  0  0  0
 36 64  1  0  0  0  0
 36 77  2  0  0  0  0
 37 60  1  0  0  0  0
 37 72  1  0  0  0  0
 37 78  2  0  0  0  0
 38 65  1  0  0  0  0
 38 73  1  0  0  0  0
 38 79  2  0  0  0  0
 39 42  1  0  0  0  0
 40 49  1  0  0  0  0
 41 64  1  0  0  0  0
 42 44  1  0  0  0  0
 43 45  1  0  0  0  0
 43 46  1  0  0  0  0
 44 48  1  0  0  0  0
 45 50  1  0  0  0  0
 46 65  1  0  0  0  0
 47 50  1  0  0  0  0
 47 65  1  0  0  0  0
 48 71  1  0  0  0  0
 49 64  1  0  0  0  0
 50 63  1  0  0  0  0
 51 60  1  0  0  0  0
 52 61  1  0  0  0  0
 53 61  1  0  0  0  0
 54 61  1  0  0  0  0
 55 74  1  0  0  0  0
 56 57  1  0  0  0  0
 56 58  1  0  0  0  0
 57 73  1  0  0  0  0
 58 81  1  0  0  0  0
 59 61  1  0  0  0  0
 59 72  1  0  0  0  0
 60 74  1  0  0  0  0
 62 63  1  0  0  0  0
M  CHG  1  74   1
M  ISO  4  38 100  58 101  73 100  81 101
M  END
> <Batch ID>
0099

> <Smiles>
CNC(C)C(=O)NC(C(=O)N1Cc2cc([101O:1][101CH2:1]CC[100N:0](c3cc(N)c(N)c(N)c3)[100C:0](=O)N3CCCC(n4nc(-c5ccc(Oc6ccc(F)cc6F)cc5)c(C(N)=O)c4N)C3)ccc2CC1C(=O)NC1CCCc2ccccc21)C(C)(C)C

> <Shape>
0.214

> <Color>
0.057

> <Negative vol penalty>
0.000

$$$$

  -OEChem-04052300543D

 83 91  0     1  0  0  0  0  0999 V2000
  -26.4613  -28.9298   23.8023 C   0  0  0  0  0  0  0  0  0  0  0  0
  -27.2863  -27.8131   23.7145 C   0  0  0  0  0  0  0  0  0  0  0  0
  -23.0365   -9.9451   20.0105 C   0  0  0  0  0  0  0  0  0  0  0  0
  -23.7696  -10.0224   22.3112 C   0  0  0  0  0  0  0  0  0  0  0  0
  -25.6404  -29.2748   22.7295 C   0  0  0  0  0  0  0  0  0  0  0  0
  -27.2900  -27.0400   22.5540 C   0  0  0  0  0  0  0  0  0  0  0  0
  -31.9683  -25.8189   21.0483 C   0  0  0  0  0  0  0  0  0  0  0  0
  -32.7850  -17.4321   23.3380 C   0  0  0  0  0  0  0  0  0  0  0  0
  -32.1807  -16.5299   22.4625 C   0  0  0  0  0  0  0  0  0  0  0  0
  -22.2573   -8.8240   20.2964 C   0  0  0  0  0  0  0  0  0  0  0  0
  -22.9904   -8.9013   22.5972 C   0  0  0  0  0  0  0  0  0  0  0  0
  -32.6072  -24.7846   21.7308 C   0  0  0  0  0  0  0  0  0  0  0  0
  -19.7342   -8.2186   23.1897 C   0  0  0  0  0  0  0  0  0  0  0  0
  -18.9629   -8.2465   24.3516 C   0  0  0  0  0  0  0  0  0  0  0  0
  -32.0353  -23.2632   19.9482 C   0  0  0  0  0  0  0  0  0  0  0  0
  -30.6213  -18.3672   23.8679 C   0  0  0  0  0  0  0  0  0  0  0  0
  -20.1402   -6.3061   25.1798 C   0  0  0  0  0  0  0  0  0  0  0  0
  -23.7927  -10.5443   21.0179 C   0  0  0  0  0  0  0  0  0  0  0  0
  -24.2074  -13.0521   20.8024 C   0  0  0  0  0  0  0  0  0  0  0  0
  -25.6412  -28.5111   21.5516 C   0  0  0  0  0  0  0  0  0  0  0  0
  -31.3476  -25.5803   19.8137 C   0  0  0  0  0  0  0  0  0  0  0  0
  -26.4674  -27.3743   21.4649 C   0  0  0  0  0  0  0  0  0  0  0  0
  -31.3914  -24.2968   19.2509 C   0  0  0  0  0  0  0  0  0  0  0  0
  -32.0053  -18.3507   24.0408 C   0  0  0  0  0  0  0  0  0  0  0  0
  -30.7967  -16.5465   22.2896 C   0  0  0  0  0  0  0  0  0  0  0  0
  -22.2343   -8.3022   21.5897 C   0  0  0  0  0  0  0  0  0  0  0  0
  -32.6383  -23.5059   21.1821 C   0  0  0  0  0  0  0  0  0  0  0  0
  -20.7084   -7.2343   23.0229 C   0  0  0  0  0  0  0  0  0  0  0  0
  -19.1659   -7.2904   25.3466 C   0  0  0  0  0  0  0  0  0  0  0  0
  -30.0169  -17.4651   22.9923 C   0  0  0  0  0  0  0  0  0  0  0  0
  -20.9115   -6.2782   24.0179 C   0  0  0  0  0  0  0  0  0  0  0  0
  -24.5982  -11.7020   20.7230 C   0  0  0  0  0  0  0  0  0  0  0  0
  -25.3245  -13.7557   20.4237 C   0  0  0  0  0  0  0  0  0  0  0  0
  -33.3437  -21.1630   23.7952 C   0  0  0  0  0  0  0  0  0  0  0  0
  -22.9473  -13.6194   21.1844 C   0  0  0  0  0  0  0  0  0  0  0  0
  -28.3685  -25.7845   18.7242 C   0  0  0  0  0  0  0  0  0  0  0  0
  -29.7765  -25.1106   15.8807 C   0  0  0  0  0  0  0  0  0  0  0  0
  -32.4120  -23.7320   14.2074 C   0  0  0  0  0  0  0  0  0  0  0  0
  -30.8158  -14.6545   20.6263 C   0  0  0  0  0  0  0  0  0  0  0  0
  -24.7017  -28.8960   20.4363 C   0  0  0  0  0  0  0  0  0  0  0  0
  -30.6857  -26.7127   19.0775 C   0  0  0  0  0  0  0  0  0  0  0  0
  -30.7577  -23.9930   17.9187 C   0  0  0  0  0  0  0  0  0  0  0  0
  -25.0415  -28.2404   19.1002 C   0  0  0  0  0  0  0  0  0  0  0  0
  -29.6608  -12.1802   18.3414 C   0  0  0  0  0  0  0  0  0  0  0  0
  -25.3146  -26.7517   19.2902 C   0  0  0  0  0  0  0  0  0  0  0  0
  -28.2086  -11.9462   18.7639 C   0  0  0  0  0  0  0  0  0  0  0  0
  -30.5681  -12.4311   19.5446 C   0  0  0  0  0  0  0  0  0  0  0  0
  -28.6666  -13.2630   20.8718 C   0  0  0  0  0  0  0  0  0  0  0  0
  -26.5179  -26.5250   20.2134 C   0  0  1  0  0  0  0  0  0  0  0  0
  -29.6417  -26.2412   18.0700 C   0  0  1  0  0  0  0  0  0  0  0  0
  -27.7029  -13.0701   19.6895 C   0  0  2  0  0  0  0  0  0  0  0  0
  -32.1537  -19.1552   26.4184 C   0  0  0  0  0  0  0  0  0  0  0  0
  -33.2630  -23.2993   11.8866 C   0  0  0  0  0  0  0  0  0  0  0  0
  -27.7872  -22.8165   15.5816 C   0  0  0  0  0  0  0  0  0  0  0  0
  -29.2541  -21.8709   13.7864 C   0  0  0  0  0  0  0  0  0  0  0  0
  -28.2057  -24.1143   13.4852 C   0  0  0  0  0  0  0  0  0  0  0  0
  -34.8310  -25.3750   14.6630 C   0  0  0  0  0  0  0  0  0  0  0  0
  -33.2762  -22.5661   23.2716 C   0  0  0  0  0  0  0  0  0  1  0  0
  -32.6604  -19.3297   24.9893 C   0  0  2  0  0  0  0  0  0  0  0  0
  -30.1105  -23.8465   15.1260 C   0  0  1  0  0  0  0  0  0  0  0  0
  -33.2676  -24.2565   13.0683 C   0  0  2  0  0  0  0  0  0  0  0  0
  -28.8497  -23.1670   14.5208 C   0  0  0  0  0  0  0  0  0  0  0  0
  -25.8646  -11.5543   20.3250 N   0  0  0  0  0  0  0  0  0  0  0  0
  -32.4333  -20.7150   24.5878 N   0  0  0  0  0  0  0  0  0  0  0  0
  -26.2792  -12.8207   20.1508 N   0  0  0  0  0  0  0  0  0  0  0  0
  -30.1172  -25.1321   17.2405 N   0  0  0  0  0  0  0  0  0  0  0  0
  -30.0285  -13.5113   20.3733 N   0  0  0  0  0  0  0  0  0  0  0  0
  -25.5734  -15.0768   20.3007 N   0  0  0  0  0  0  0  0  0  0  0  0
  -21.9061  -12.7530   21.5445 N   0  0  0  0  0  0  0  0  0  0  0  0
  -30.1855  -15.6292   21.3992 N   0  0  0  0  0  0  0  0  0  0  0  0
  -27.7546  -26.7518   19.4968 N   0  0  0  0  0  0  0  0  0  0  0  0
  -31.1220  -24.2142   14.1411 N   0  0  0  0  0  0  0  0  0  0  0  0
  -34.6760  -24.4390   13.5199 N   0  3  0  0  0  0  0  0  0  0  0  0
  -22.7454  -14.8575   21.1900 O   0  0  0  0  0  0  0  0  0  0  0  0
  -27.9717  -24.6397   18.5405 O   0  0  0  0  0  0  0  0  0  0  0  0
  -29.2398  -26.0473   15.2839 O   0  0  0  0  0  0  0  0  0  0  0  0
  -32.8439  -22.9677   15.0675 O   0  0  0  0  0  0  0  0  0  0  0  0
  -31.9545  -14.7729   20.1667 O   0  0  0  0  0  0  0  0  0  0  0  0
  -21.4739   -7.2084   21.8691 O   0  0  0  0  0  0  0  0  0  0  0  0
  -33.2606  -22.4944   21.8465 O   0  0  0  0  0  0  0  0  0  1  0  0
  -18.4262   -7.3183   26.4630 F   0  0  0  0  0  0  0  0  0  0  0  0
  -28.6860  -17.4909   22.8329 F   0  0  0  0  0  0  0  0  0  0  0  0
  -21.8467   -5.3309   23.8638 F   0  0  0  0  0  0  0  0  0  0  0  0
  1  2  1  0  0  0  0
  1  5  2  0  0  0  0
  2  6  2  0  0  0  0
  3 10  2  0  0  0  0
  3 18  1  0  0  0  0
  4 11  1  0  0  0  0
  4 18  2  0  0  0  0
  5 20  1  0  0  0  0
  6 22  1  0  0  0  0
  7 12  2  0  0  0  0
  7 21  1  0  0  0  0
  8  9  2  0  0  0  0
  8 24  1  0  0  0  0
  9 25  1  0  0  0  0
 10 26  1  0  0  0  0
 11 26  2  0  0  0  0
 12 27  1  0  0  0  0
 13 14  2  0  0  0  0
 13 28  1  0  0  0  0
 14 29  1  0  0  0  0
 15 23  1  0  0  0  0
 15 27  2  0  0  0  0
 16 24  2  0  0  0  0
 16 30  1  0  0  0  0
 17 29  2  0  0  0  0
 17 31  1  0  0  0  0
 18 32  1  0  0  0  0
 19 32  1  0  0  0  0
 19 33  2  0  0  0  0
 19 35  1  0  0  0  0
 20 22  2  0  0  0  0
 20 40  1  0  0  0  0
 21 23  2  0  0  0  0
 21 41  1  0  0  0  0
 22 49  1  0  0  0  0
 23 42  1  0  0  0  0
 24 59  1  0  0  0  0
 25 30  2  0  0  0  0
 25 70  1  0  0  0  0
 26 79  1  0  0  0  0
 27 80  1  0  0  0  0
 28 31  2  0  0  0  0
 28 79  1  0  0  0  0
 29 81  1  0  0  0  0
 30 82  1  0  0  0  0
 31 83  1  0  0  0  0
 32 63  2  0  0  0  0
 33 65  1  0  0  0  0
 33 68  1  0  0  0  0
 34 58  1  0  0  0  0
 34 64  2  0  0  0  0
 35 69  1  0  0  0  0
 35 74  2  0  0  0  0
 36 50  1  0  0  0  0
 36 71  1  0  0  0  0
 36 75  2  0  0  0  0
 37 60  1  0  0  0  0
 37 66  1  0  0  0  0
 37 76  2  0  0  0  0
 38 61  1  0  0  0  0
 38 72  1  0  0  0  0
 38 77  2  0  0  0  0
 39 67  1  0  0  0  0
 39 70  1  0  0  0  0
 39 78  2  0  0  0  0
 40 43  1  0  0  0  0
 41 50  1  0  0  0  0
 42 66  1  0  0  0  0
 43 45  1  0  0  0  0
 44 46  1  0  0  0  0
 44 47  1  0  0  0  0
 45 49  1  0  0  0  0
 46 51  1  0  0  0  0
 47 67  1  0  0  0  0
 48 51  1  0  0  0  0
 48 67  1  0  0  0  0
 49 71  1  0  0  0  0
 50 66  1  0  0  0  0
 51 65  1  0  0  0  0
 52 59  1  0  0  0  0
 53 61  1  0  0  0  0
 54 62  1  0  0  0  0
 55 62  1  0  0  0  0
 56 62  1  0  0  0  0
 57 73  1  0  0  0  0
 58 80  1  0  0  0  0
 59 64  1  0  0  0  0
 60 62  1  0  0  0  0
 60 72  1  0  0  0  0
 61 73  1  0  0  0  0
 63 65  1  0  0  0  0
M  CHG  1  73   1
M  ISO  4  39 100  58 101  70 100  80 101
M  END
> <Batch ID>
0099

> <Smiles>
CNC(C)C(=O)NC(C(=O)N1Cc2cc([101O:1][101CH2:1]C=NC(C)c3ccc([100NH:0][100C:0](=O)N4CCCC(n5nc(-c6ccc(Oc7ccc(F)cc7F)cc6)c(C(N)=O)c5N)C4)c(F)c3)ccc2CC1C(=O)NC1CCCc2ccccc21)C(C)(C)C

> <Shape>
0.261

> <Color>
0.206

> <Negative vol penalty>
0.000

$$$$

  -OEChem-04052300543D

 83 91  0     1  0  0  0  0  0999 V2000
  -31.6329  -24.3932   22.7088 C   0  0  0  0  0  0  0  0  0  0  0  0
  -31.5104  -25.7757   22.7887 C   0  0  0  0  0  0  0  0  0  0  0  0
  -26.1041  -13.7838   21.7874 C   0  0  0  0  0  0  0  0  0  0  0  0
  -25.0755  -15.0325   19.9931 C   0  0  0  0  0  0  0  0  0  0  0  0
  -31.4594  -23.7516   21.4843 C   0  0  0  0  0  0  0  0  0  0  0  0
  -31.2026  -26.5159   21.6467 C   0  0  0  0  0  0  0  0  0  0  0  0
  -25.2010  -28.2698   17.1566 C   0  0  0  0  0  0  0  0  0  0  0  0
  -25.0185  -12.9081   21.8004 C   0  0  0  0  0  0  0  0  0  0  0  0
  -23.9899  -14.1569   20.0060 C   0  0  0  0  0  0  0  0  0  0  0  0
  -24.0913  -27.4891   16.8362 C   0  0  0  0  0  0  0  0  0  0  0  0
  -22.6862  -10.1320   22.0619 C   0  0  0  0  0  0  0  0  0  0  0  0
  -22.9561   -8.7654   22.1334 C   0  0  0  0  0  0  0  0  0  0  0  0
  -24.8215  -23.0507   19.0210 C   0  0  0  0  0  0  0  0  0  0  0  0
  -23.9344  -26.7788   19.1362 C   0  0  0  0  0  0  0  0  0  0  0  0
  -24.1939   -8.9016   20.0630 C   0  0  0  0  0  0  0  0  0  0  0  0
  -26.1327  -14.8460   20.8838 C   0  0  0  0  0  0  0  0  0  0  0  0
  -24.8362  -23.1240   17.6077 C   0  0  0  0  0  0  0  0  0  0  0  0
  -28.4331  -15.6324   20.1111 C   0  0  0  0  0  0  0  0  0  0  0  0
  -31.1617  -24.4863   20.3247 C   0  0  0  0  0  0  0  0  0  0  0  0
  -25.6932  -28.3025   18.4693 C   0  0  0  0  0  0  0  0  0  0  0  0
  -31.0001  -25.8843   20.4063 C   0  0  0  0  0  0  0  0  0  0  0  0
  -25.0489  -27.5628   19.4713 C   0  0  0  0  0  0  0  0  0  0  0  0
  -23.9613  -13.0946   20.9097 C   0  0  0  0  0  0  0  0  0  0  0  0
  -23.4595  -26.7411   17.8254 C   0  0  0  0  0  0  0  0  0  0  0  0
  -23.1701  -10.8834   20.9910 C   0  0  0  0  0  0  0  0  0  0  0  0
  -23.7100   -8.1502   21.1339 C   0  0  0  0  0  0  0  0  0  0  0  0
  -23.9239  -10.2682   19.9916 C   0  0  0  0  0  0  0  0  0  0  0  0
  -27.2536  -15.7512   20.8703 C   0  0  0  0  0  0  0  0  0  0  0  0
  -26.0857  -23.4008   19.4349 C   0  0  0  0  0  0  0  0  0  0  0  0
  -29.1746  -16.7367   20.4535 C   0  0  0  0  0  0  0  0  0  0  0  0
  -26.1083  -23.5139   17.2586 C   0  0  0  0  0  0  0  0  0  0  0  0
  -23.7191  -22.8439   16.6581 C   0  0  0  0  0  0  0  0  0  0  0  0
  -28.8237  -14.6148   19.1796 C   0  0  0  0  0  0  0  0  0  0  0  0
  -28.4363  -27.4945   19.8571 C   0  0  0  0  0  0  0  0  0  0  0  0
  -27.0549  -28.8251   22.4731 C   0  0  0  0  0  0  0  0  0  0  0  0
  -24.1897  -29.7079   24.1036 C   0  0  0  0  0  0  0  0  0  0  0  0
  -27.7015  -22.1413   22.5681 C   0  0  0  0  0  0  0  0  0  0  0  0
  -30.9764  -23.7401   19.0270 C   0  0  0  0  0  0  0  0  0  0  0  0
  -26.8750  -29.1706   18.8041 C   0  0  0  0  0  0  0  0  0  0  0  0
  -25.5257  -27.5794   20.8998 C   0  0  0  0  0  0  0  0  0  0  0  0
  -31.0930  -24.6407   17.8016 C   0  0  0  0  0  0  0  0  0  0  0  0
  -29.9046  -19.7821   24.0706 C   0  0  0  0  0  0  0  0  0  0  0  0
  -30.2205  -25.8744   17.9783 C   0  0  0  0  0  0  0  0  0  0  0  0
  -29.5815  -18.4708   23.3523 C   0  0  0  0  0  0  0  0  0  0  0  0
  -28.6536  -20.6311   24.2855 C   0  0  0  0  0  0  0  0  0  0  0  0
  -27.5463  -19.5872   22.3469 C   0  0  0  0  0  0  0  0  0  0  0  0
  -30.6960  -26.7132   19.1714 C   0  0  1  0  0  0  0  0  0  0  0  0
  -27.6031  -28.7268   20.0691 C   0  0  1  0  0  0  0  0  0  0  0  0
  -28.7850  -18.7221   22.0578 C   0  0  2  0  0  0  0  0  0  0  0  0
  -23.3785  -30.7427   26.2410 C   0  0  0  0  0  0  0  0  0  0  0  0
  -27.6478  -26.2243   23.9545 C   0  0  0  0  0  0  0  0  0  0  0  0
  -26.0165  -26.9366   25.7150 C   0  0  0  0  0  0  0  0  0  0  0  0
  -28.0605  -28.3007   25.2860 C   0  0  0  0  0  0  0  0  0  0  0  0
  -22.8909  -31.9437   22.6638 C   0  0  0  0  0  0  0  0  0  0  0  0
  -26.7124  -23.5219   20.7585 C   0  0  0  0  0  0  0  0  0  0  0  0
  -22.2907  -23.1002   17.1146 C   0  0  0  0  0  0  0  0  0  0  0  0
  -21.5749  -24.1178   16.2288 C   0  0  0  0  0  0  0  0  0  0  0  0
  -22.3128  -25.4483   16.1916 C   0  0  0  0  0  0  0  0  0  1  0  0
  -26.1810  -28.3184   23.5950 C   0  0  1  0  0  0  0  0  0  0  0  0
  -23.7807  -30.9952   24.7963 C   0  0  2  0  0  0  0  0  0  0  0  0
  -26.9684  -27.4430   24.6104 C   0  0  0  0  0  0  0  0  0  0  0  0
  -27.2420  -16.8447   21.6372 N   0  0  0  0  0  0  0  0  0  0  0  0
  -28.4235  -17.4230   21.3618 N   0  0  0  0  0  0  0  0  0  0  0  0
  -26.6888  -28.4387   21.1760 N   0  0  0  0  0  0  0  0  0  0  0  0
  -27.9451  -20.8336   23.0194 N   0  0  0  0  0  0  0  0  0  0  0  0
  -30.3893  -17.1779   20.0633 N   0  0  0  0  0  0  0  0  0  0  0  0
  -26.6904  -23.7433   16.0623 N   0  0  0  0  0  0  0  0  0  0  0  0
  -27.9428  -13.5503   18.9448 N   0  0  0  0  0  0  0  0  0  0  0  0
  -29.7260  -27.7534   19.4337 N   0  0  0  0  0  0  0  0  0  0  0  0
  -25.5496  -29.4945   24.1836 N   0  0  0  0  0  0  0  0  0  0  0  0
  -27.0300  -22.2440   21.3560 N   0  0  0  0  0  0  0  0  0  0  0  0
  -22.6269  -31.6198   24.0895 N   0  3  0  0  0  0  0  0  0  0  0  0
  -23.9787  -22.4157   15.5358 O   0  0  0  0  0  0  0  0  0  0  0  0
  -29.9284  -14.6399   18.5859 O   0  0  0  0  0  0  0  0  0  0  0  0
  -27.9460  -26.3907   20.0639 O   0  0  0  0  0  0  0  0  0  0  0  0
  -28.0224  -29.5433   22.7373 O   0  0  0  0  0  0  0  0  0  0  0  0
  -23.3830  -28.9638   23.5503 O   0  0  0  0  0  0  0  0  0  0  0  0
  -28.0608  -23.1430   23.1962 O   0  0  0  0  0  0  0  0  0  0  0  0
  -26.8761  -23.6848   18.3666 O   0  0  0  0  0  0  0  0  0  0  0  0
  -22.9019  -12.2402   20.9219 O   0  0  0  0  0  0  0  0  0  0  0  0
  -22.3766  -25.9777   17.5152 O   0  0  0  0  0  0  0  0  0  1  0  0
  -23.9704   -6.8381   21.2035 F   0  0  0  0  0  0  0  0  0  0  0  0
  -24.3925  -10.9852   18.9609 F   0  0  0  0  0  0  0  0  0  0  0  0
  1  2  1  0  0  0  0
  1  5  2  0  0  0  0
  2  6  2  0  0  0  0
  3  8  2  0  0  0  0
  3 16  1  0  0  0  0
  4  9  1  0  0  0  0
  4 16  2  0  0  0  0
  5 19  1  0  0  0  0
  6 21  1  0  0  0  0
  7 10  2  0  0  0  0
  7 20  1  0  0  0  0
  8 23  1  0  0  0  0
  9 23  2  0  0  0  0
 10 24  1  0  0  0  0
 11 12  2  0  0  0  0
 11 25  1  0  0  0  0
 12 26  1  0  0  0  0
 13 17  1  0  0  0  0
 13 29  2  0  0  0  0
 14 22  1  0  0  0  0
 14 24  2  0  0  0  0
 15 26  2  0  0  0  0
 15 27  1  0  0  0  0
 16 28  1  0  0  0  0
 17 31  2  0  0  0  0
 17 32  1  0  0  0  0
 18 28  1  0  0  0  0
 18 30  2  0  0  0  0
 18 33  1  0  0  0  0
 19 21  2  0  0  0  0
 19 38  1  0  0  0  0
 20 22  2  0  0  0  0
 20 39  1  0  0  0  0
 21 47  1  0  0  0  0
 22 40  1  0  0  0  0
 23 80  1  0  0  0  0
 24 81  1  0  0  0  0
 25 27  2  0  0  0  0
 25 80  1  0  0  0  0
 26 82  1  0  0  0  0
 27 83  1  0  0  0  0
 28 62  2  0  0  0  0
 29 55  1  0  0  0  0
 29 79  1  0  0  0  0
 30 63  1  0  0  0  0
 30 66  1  0  0  0  0
 31 67  1  0  0  0  0
 31 79  1  0  0  0  0
 32 56  1  0  0  0  0
 32 73  2  0  0  0  0
 33 68  1  0  0  0  0
 33 74  2  0  0  0  0
 34 48  1  0  0  0  0
 34 69  1  0  0  0  0
 34 75  2  0  0  0  0
 35 59  1  0  0  0  0
 35 64  1  0  0  0  0
 35 76  2  0  0  0  0
 36 60  1  0  0  0  0
 36 70  1  0  0  0  0
 36 77  2  0  0  0  0
 37 65  1  0  0  0  0
 37 71  1  0  0  0  0
 37 78  2  0  0  0  0
 38 41  1  0  0  0  0
 39 48  1  0  0  0  0
 40 64  1  0  0  0  0
 41 43  1  0  0  0  0
 42 44  1  0  0  0  0
 42 45  1  0  0  0  0
 43 47  1  0  0  0  0
 44 49  1  0  0  0  0
 45 65  1  0  0  0  0
 46 49  1  0  0  0  0
 46 65  1  0  0  0  0
 47 69  1  0  0  0  0
 48 64  1  0  0  0  0
 49 63  1  0  0  0  0
 50 60  1  0  0  0  0
 51 61  1  0  0  0  0
 52 61  1  0  0  0  0
 53 61  1  0  0  0  0
 54 72  1  0  0  0  0
 55 71  1  0  0  0  0
 56 57  1  0  0  0  0
 57 58  1  0  0  0  0
 58 81  1  0  0  0  0
 59 61  1  0  0  0  0
 59 70  1  0  0  0  0
 60 72  1  0  0  0  0
 62 63  1  0  0  0  0
M  CHG  1  72   1
M  ISO  4  37 100  58 101  71 100  81 101
M  END
> <Batch ID>
0099

> <Smiles>
CNC(C)C(=O)NC(C(=O)N1Cc2cc([101O:1][101CH2:1]CCC(=O)c3cc(C[100NH:0][100C:0](=O)N4CCCC(n5nc(-c6ccc(Oc7ccc(F)cc7F)cc6)c(C(N)=O)c5N)C4)oc3N)ccc2CC1C(=O)NC1CCCc2ccccc21)C(C)(C)C

> <Shape>
0.207

> <Color>
0.080

> <Negative vol penalty>
0.000

$$$$

  -OEChem-04052300543D

 87 96  0     1  0  0  0  0  0999 V2000
  -20.7151  -23.2335   21.6528 C   0  0  0  0  0  0  0  0  0  0  0  0
  -22.0602  -23.5425   21.4776 C   0  0  0  0  0  0  0  0  0  0  0  0
  -23.3437  -10.0169   21.6893 C   0  0  0  0  0  0  0  0  0  0  0  0
  -24.8864  -10.5000   23.4848 C   0  0  0  0  0  0  0  0  0  0  0  0
  -19.7574  -24.2460   21.6126 C   0  0  0  0  0  0  0  0  0  0  0  0
  -22.4482  -24.8642   21.2610 C   0  0  0  0  0  0  0  0  0  0  0  0
  -26.4867  -26.1799   24.0186 C   0  0  0  0  0  0  0  0  0  0  0  0
  -30.8582  -20.3434   19.6527 C   0  0  0  0  0  0  0  0  0  0  0  0
  -30.6559  -18.9694   19.7820 C   0  0  0  0  0  0  0  0  0  0  0  0
  -22.8429   -8.9335   22.4110 C   0  0  0  0  0  0  0  0  0  0  0  0
  -24.3855   -9.4166   24.2066 C   0  0  0  0  0  0  0  0  0  0  0  0
  -27.7334  -25.7477   23.5683 C   0  0  0  0  0  0  0  0  0  0  0  0
  -20.7083   -8.4275   24.9841 C   0  0  0  0  0  0  0  0  0  0  0  0
  -19.3234   -8.2722   25.0427 C   0  0  0  0  0  0  0  0  0  0  0  0
  -28.1373  -27.9261   22.6141 C   0  0  0  0  0  0  0  0  0  0  0  0
  -19.5222   -6.1040   23.9956 C   0  0  0  0  0  0  0  0  0  0  0  0
  -24.3656  -10.8001   22.2261 C   0  0  0  0  0  0  0  0  0  0  0  0
  -24.1700  -13.0479   21.0358 C   0  0  0  0  0  0  0  0  0  0  0  0
  -20.1349  -25.5820   21.4051 C   0  0  0  0  0  0  0  0  0  0  0  0
  -26.0507  -27.4874   23.7601 C   0  0  0  0  0  0  0  0  0  0  0  0
  -21.4945  -25.8954   21.2167 C   0  0  0  0  0  0  0  0  0  0  0  0
  -26.8857  -28.3733   23.0644 C   0  0  0  0  0  0  0  0  0  0  0  0
  -28.6561  -20.7529   20.5583 C   0  0  0  0  0  0  0  0  0  0  0  0
  -29.8583  -21.2352   20.0409 C   0  0  0  0  0  0  0  0  0  0  0  0
  -29.4536  -18.4871   20.2993 C   0  0  0  0  0  0  0  0  0  0  0  0
  -28.4537  -19.3788   20.6875 C   0  0  0  0  0  0  0  0  0  0  0  0
  -23.3637   -8.6333   23.6697 C   0  0  0  0  0  0  0  0  0  0  0  0
  -28.5577  -26.6199   22.8634 C   0  0  0  0  0  0  0  0  0  0  0  0
  -21.5002   -7.4211   24.4312 C   0  0  0  0  0  0  0  0  0  0  0  0
  -18.7303   -7.1105   24.5485 C   0  0  0  0  0  0  0  0  0  0  0  0
  -20.9071   -6.2593   23.9370 C   0  0  0  0  0  0  0  0  0  0  0  0
  -24.8838  -11.9191   21.4808 C   0  0  0  0  0  0  0  0  0  0  0  0
  -25.1068  -13.8111   20.3828 C   0  0  0  0  0  0  0  0  0  0  0  0
  -30.4858  -25.4109   19.7523 C   0  0  0  0  0  0  0  0  0  0  0  0
  -22.7840  -13.3772   21.1982 C   0  0  0  0  0  0  0  0  0  0  0  0
  -23.6224  -28.7663   22.1565 C   0  0  0  0  0  0  0  0  0  0  0  0
  -24.7589  -31.5331   23.4116 C   0  0  0  0  0  0  0  0  0  0  0  0
  -27.9896  -33.0361   23.9785 C   0  0  0  0  0  0  0  0  0  0  0  0
  -30.1798  -16.0854   20.0736 C   0  0  0  0  0  0  0  0  0  0  0  0
  -19.0591  -26.6359   21.3225 C   0  0  0  0  0  0  0  0  0  0  0  0
  -24.7143  -27.9464   24.2758 C   0  0  0  0  0  0  0  0  0  0  0  0
  -26.4728  -29.7932   22.7785 C   0  0  0  0  0  0  0  0  0  0  0  0
  -29.4094  -24.7601   18.9152 C   0  0  0  0  0  0  0  0  0  0  0  0
  -19.5899  -28.0604   21.4618 C   0  0  0  0  0  0  0  0  0  0  0  0
  -29.8428  -12.7170   18.9702 C   0  0  0  0  0  0  0  0  0  0  0  0
  -20.8207  -28.2597   20.5830 C   0  0  0  0  0  0  0  0  0  0  0  0
  -28.4639  -12.3020   19.4884 C   0  0  0  0  0  0  0  0  0  0  0  0
  -29.7087  -23.2881   18.6593 C   0  0  0  0  0  0  0  0  0  0  0  0
  -30.5665  -13.6336   19.9550 C   0  0  0  0  0  0  0  0  0  0  0  0
  -31.2080  -23.1929   20.6444 C   0  0  0  0  0  0  0  0  0  0  0  0
  -28.4236  -14.3977   20.9002 C   0  0  0  0  0  0  0  0  0  0  0  0
  -21.9573  -27.3205   21.0042 C   0  0  1  0  0  0  0  0  0  0  0  0
  -30.9392  -24.6593   20.9903 C   0  0  2  0  0  0  0  0  0  0  0  0
  -24.1568  -29.1420   23.5096 C   0  0  1  0  0  0  0  0  0  0  0  0
  -27.6296  -13.5263   19.9133 C   0  0  2  0  0  0  0  0  0  0  0  0
  -27.5840  -21.7124   20.9739 C   0  0  0  0  0  0  0  0  0  0  0  0
  -28.7294  -34.7174   25.6883 C   0  0  0  0  0  0  0  0  0  0  0  0
  -24.1584  -33.5827   21.2325 C   0  0  0  0  0  0  0  0  0  0  0  0
  -26.1771  -34.8626   21.9772 C   0  0  0  0  0  0  0  0  0  0  0  0
  -24.2687  -34.5230   23.5472 C   0  0  0  0  0  0  0  0  0  0  0  0
  -30.1584  -31.2702   24.9462 C   0  0  0  0  0  0  0  0  0  0  0  0
  -29.9083  -24.8158   22.1038 C   0  0  0  0  0  0  0  0  0  1  0  0
  -25.7681  -32.5687   22.9779 C   0  0  1  0  0  0  0  0  0  0  0  0
  -28.6729  -33.2434   25.3181 C   0  0  2  0  0  0  0  0  0  0  0  0
  -25.0953  -33.8570   22.4257 C   0  0  0  0  0  0  0  0  0  0  0  0
  -26.1745  -11.9575   21.1392 N   0  0  0  0  0  0  0  0  0  0  0  0
  -26.2791  -13.1197   20.4726 N   0  0  0  0  0  0  0  0  0  0  0  0
  -30.0813  -22.6086   19.9034 N   0  0  2  0  0  0  0  0  0  0  0  0
  -25.1544  -30.1928   23.2979 N   0  0  0  0  0  0  0  0  0  0  0  0
  -29.7175  -14.7732   20.3089 N   0  0  0  0  0  0  0  0  0  0  0  0
  -27.2333  -18.8912   21.2119 N   0  0  0  0  0  0  0  0  0  0  0  0
  -25.0339  -14.9993   19.7462 N   0  0  0  0  0  0  0  0  0  0  0  0
  -21.9618  -12.4818   21.8957 N   0  0  0  0  0  0  0  0  0  0  0  0
  -29.2732  -17.0868   20.4197 N   0  0  0  0  0  0  0  0  0  0  0  0
  -22.6137  -27.8224   22.1922 N   0  0  0  0  0  0  0  0  0  0  0  0
  -26.6400  -32.7947   24.1256 N   0  0  0  0  0  0  0  0  0  0  0  0
  -30.0660  -32.7158   25.2761 N   0  3  0  0  0  0  0  0  0  0  0  0
  -30.9024  -26.5406   19.4970 O   0  0  0  0  0  0  0  0  0  0  0  0
  -22.2858  -14.4263   20.7242 O   0  0  0  0  0  0  0  0  0  0  0  0
  -24.0894  -29.2947   21.1544 O   0  0  0  0  0  0  0  0  0  0  0  0
  -23.6628  -31.9001   23.8423 O   0  0  0  0  0  0  0  0  0  0  0  0
  -28.5920  -33.0872   22.9085 O   0  0  0  0  0  0  0  0  0  0  0  0
  -31.2867  -16.3037   19.5747 O   0  0  0  0  0  0  0  0  0  0  0  0
  -22.8751   -7.5764   24.3744 O   0  0  0  0  0  0  0  0  0  0  0  0
  -29.7748  -26.2004   22.4222 O   0  0  0  0  0  0  0  0  0  1  0  0
  -17.4005   -6.9608   24.6062 F   0  0  0  0  0  0  0  0  0  0  0  0
  -21.6628   -5.2884   23.4057 F   0  0  0  0  0  0  0  0  0  0  0  0
  1  2  1  0  0  0  0
  1  5  2  0  0  0  0
  2  6  2  0  0  0  0
  3 10  2  0  0  0  0
  3 17  1  0  0  0  0
  4 11  1  0  0  0  0
  4 17  2  0  0  0  0
  5 19  1  0  0  0  0
  6 21  1  0  0  0  0
  7 12  2  0  0  0  0
  7 20  1  0  0  0  0
  8  9  2  0  0  0  0
  8 24  1  0  0  0  0
  9 25  1  0  0  0  0
 10 27  1  0  0  0  0
 11 27  2  0  0  0  0
 12 28  1  0  0  0  0
 13 14  2  0  0  0  0
 13 29  1  0  0  0  0
 14 30  1  0  0  0  0
 15 22  1  0  0  0  0
 15 28  2  0  0  0  0
 16 30  2  0  0  0  0
 16 31  1  0  0  0  0
 17 32  1  0  0  0  0
 18 32  1  0  0  0  0
 18 33  2  0  0  0  0
 18 35  1  0  0  0  0
 19 21  2  0  0  0  0
 19 40  1  0  0  0  0
 20 22  2  0  0  0  0
 20 41  1  0  0  0  0
 21 52  1  0  0  0  0
 22 42  1  0  0  0  0
 23 24  2  0  0  0  0
 23 26  1  0  0  0  0
 23 56  1  0  0  0  0
 24 68  1  0  0  0  0
 25 26  2  0  0  0  0
 25 74  1  0  0  0  0
 26 71  1  0  0  0  0
 27 84  1  0  0  0  0
 28 85  1  0  0  0  0
 29 31  2  0  0  0  0
 29 84  1  0  0  0  0
 30 86  1  0  0  0  0
 31 87  1  0  0  0  0
 32 66  2  0  0  0  0
 33 67  1  0  0  0  0
 33 72  1  0  0  0  0
 34 43  1  0  0  0  0
 34 53  1  0  0  0  0
 34 78  2  0  0  0  0
 35 73  1  0  0  0  0
 35 79  2  0  0  0  0
 36 54  1  0  0  0  0
 36 75  1  0  0  0  0
 36 80  2  0  0  0  0
 37 63  1  0  0  0  0
 37 69  1  0  0  0  0
 37 81  2  0  0  0  0
 38 64  1  0  0  0  0
 38 76  1  0  0  0  0
 38 82  2  0  0  0  0
 39 70  1  0  0  0  0
 39 74  1  0  0  0  0
 39 83  2  0  0  0  0
 40 44  1  0  0  0  0
 41 54  1  0  0  0  0
 42 69  1  0  0  0  0
 43 48  1  0  0  0  0
 44 46  1  0  0  0  0
 45 47  1  0  0  0  0
 45 49  1  0  0  0  0
 46 52  1  0  0  0  0
 47 55  1  0  0  0  0
 48 68  1  0  0  0  0
 49 70  1  0  0  0  0
 50 53  1  0  0  0  0
 50 68  1  0  0  0  0
 51 55  1  0  0  0  0
 51 70  1  0  0  0  0
 52 75  1  0  0  0  0
 53 62  1  0  0  0  0
 54 69  1  0  0  0  0
 55 67  1  0  0  0  0
 57 64  1  0  0  0  0
 58 65  1  0  0  0  0
 59 65  1  0  0  0  0
 60 65  1  0  0  0  0
 61 77  1  0  0  0  0
 62 85  1  0  0  0  0
 63 65  1  0  0  0  0
 63 76  1  0  0  0  0
 64 77  1  0  0  0  0
 66 67  1  0  0  0  0
M  CHG  1  77   1
M  ISO  4  39 100  62 101  74 100  85 101
M  END
> <Batch ID>
0099

> <Smiles>
CNC(C)C(=O)NC(C(=O)N1Cc2cc([101O:1][101CH2:1]C3CN(c4ccc([100NH:0][100C:0](=O)N5CCCC(n6nc(-c7ccc(Oc8ccc(F)cc8F)cc7)c(C(N)=O)c6N)C5)c(N)c4C)CCC3=O)ccc2CC1C(=O)NC1CCCc2ccccc21)C(C)(C)C

> <Shape>
0.322

> <Color>
0.124

> <Negative vol penalty>
0.000

$$$$

  -OEChem-04052300543D

 83 91  0     1  0  0  0  0  0999 V2000
  -20.6119  -27.0256   23.5377 C   0  0  0  0  0  0  0  0  0  0  0  0
  -21.9208  -26.6492   23.2535 C   0  0  0  0  0  0  0  0  0  0  0  0
  -23.0991   -9.8841   19.8983 C   0  0  0  0  0  0  0  0  0  0  0  0
  -23.8794   -9.8338   22.1843 C   0  0  0  0  0  0  0  0  0  0  0  0
  -20.1248  -28.2493   23.0803 C   0  0  0  0  0  0  0  0  0  0  0  0
  -22.7429  -27.4960   22.5108 C   0  0  0  0  0  0  0  0  0  0  0  0
  -27.3860  -27.9206   24.4870 C   0  0  0  0  0  0  0  0  0  0  0  0
  -31.2157  -19.1926   20.7644 C   0  0  0  0  0  0  0  0  0  0  0  0
  -31.0659  -17.8066   20.7195 C   0  0  0  0  0  0  0  0  0  0  0  0
  -22.3743   -8.7132   20.1198 C   0  0  0  0  0  0  0  0  0  0  0  0
  -23.1545   -8.6628   22.4058 C   0  0  0  0  0  0  0  0  0  0  0  0
  -28.2738  -26.8701   24.2586 C   0  0  0  0  0  0  0  0  0  0  0  0
  -19.9438   -7.7998   23.0117 C   0  0  0  0  0  0  0  0  0  0  0  0
  -19.1981   -7.7137   24.1873 C   0  0  0  0  0  0  0  0  0  0  0  0
  -29.3122  -28.1402   22.4901 C   0  0  0  0  0  0  0  0  0  0  0  0
  -29.5984  -19.3095   22.5554 C   0  0  0  0  0  0  0  0  0  0  0  0
  -20.4740   -5.7736   24.8546 C   0  0  0  0  0  0  0  0  0  0  0  0
  -23.8517  -10.4444   20.9305 C   0  0  0  0  0  0  0  0  0  0  0  0
  -24.1558  -12.9768   20.8834 C   0  0  0  0  0  0  0  0  0  0  0  0
  -20.9443  -29.1157   22.3399 C   0  0  0  0  0  0  0  0  0  0  0  0
  -27.4478  -29.0864   23.7101 C   0  0  0  0  0  0  0  0  0  0  0  0
  -22.2658  -28.7318   22.0419 C   0  0  0  0  0  0  0  0  0  0  0  0
  -28.4257  -29.2051   22.7124 C   0  0  0  0  0  0  0  0  0  0  0  0
  -30.4819  -19.9441   21.6823 C   0  0  0  0  0  0  0  0  0  0  0  0
  -30.1823  -17.1720   21.5925 C   0  0  0  0  0  0  0  0  0  0  0  0
  -22.4020   -8.1025   21.3736 C   0  0  0  0  0  0  0  0  0  0  0  0
  -29.2352  -26.9787   23.2581 C   0  0  0  0  0  0  0  0  0  0  0  0
  -20.9547   -6.8727   22.7575 C   0  0  0  0  0  0  0  0  0  0  0  0
  -19.4632   -6.7006   25.1088 C   0  0  0  0  0  0  0  0  0  0  0  0
  -29.4485  -17.9234   22.5105 C   0  0  0  0  0  0  0  0  0  0  0  0
  -21.2198   -5.8597   23.6789 C   0  0  0  0  0  0  0  0  0  0  0  0
  -24.6011  -11.6537   20.7021 C   0  0  0  0  0  0  0  0  0  0  0  0
  -25.2337  -13.7528   20.5335 C   0  0  0  0  0  0  0  0  0  0  0  0
  -22.8818  -13.4610   21.3285 C   0  0  0  0  0  0  0  0  0  0  0  0
  -25.4597  -30.5608   21.7157 C   0  0  0  0  0  0  0  0  0  0  0  0
  -30.3215  -23.6198   22.4210 C   0  0  0  0  0  0  0  0  0  0  0  0
  -27.7687  -32.8392   21.7173 C   0  0  0  0  0  0  0  0  0  0  0  0
  -31.0521  -33.6363   22.1975 C   0  0  0  0  0  0  0  0  0  0  0  0
  -30.6855  -14.8733   20.6928 C   0  0  0  0  0  0  0  0  0  0  0  0
  -20.3586  -30.4072   21.8266 C   0  0  0  0  0  0  0  0  0  0  0  0
  -26.5002  -30.2213   23.9869 C   0  0  0  0  0  0  0  0  0  0  0  0
  -28.5469  -30.4437   21.8641 C   0  0  0  0  0  0  0  0  0  0  0  0
  -21.4108  -31.4126   21.3657 C   0  0  0  0  0  0  0  0  0  0  0  0
  -29.5849  -12.5152   18.2627 C   0  0  0  0  0  0  0  0  0  0  0  0
  -22.4529  -30.7292   20.4859 C   0  0  0  0  0  0  0  0  0  0  0  0
  -28.1536  -12.1897   18.6956 C   0  0  0  0  0  0  0  0  0  0  0  0
  -30.5074  -12.7215   19.4629 C   0  0  0  0  0  0  0  0  0  0  0  0
  -28.6026  -13.3761   20.8815 C   0  0  0  0  0  0  0  0  0  0  0  0
  -23.1960  -29.6340   21.2603 C   0  0  1  0  0  0  0  0  0  0  0  0
  -26.3215  -31.1549   22.7937 C   0  0  1  0  0  0  0  0  0  0  0  0
  -27.6219  -13.2238   19.7073 C   0  0  2  0  0  0  0  0  0  0  0  0
  -32.6460  -35.5714   22.0870 C   0  0  0  0  0  0  0  0  0  0  0  0
  -27.7778  -32.6546   18.6717 C   0  0  0  0  0  0  0  0  0  0  0  0
  -29.9754  -33.8541   18.6752 C   0  0  0  0  0  0  0  0  0  0  0  0
  -27.9403  -34.9804   19.5764 C   0  0  0  0  0  0  0  0  0  0  0  0
  -31.7050  -33.4127   25.0755 C   0  0  0  0  0  0  0  0  0  0  0  0
  -29.9166  -22.1776   22.6402 C   0  0  0  0  0  0  0  0  0  0  0  0
  -29.6374  -24.6354   23.3153 C   0  0  0  0  0  0  0  0  0  1  0  0
  -29.0071  -33.1068   20.8967 C   0  0  1  0  0  0  0  0  0  0  0  0
  -31.7124  -34.7617   22.9733 C   0  0  2  0  0  0  0  0  0  0  0  0
  -28.6719  -33.6247   19.4695 C   0  0  0  0  0  0  0  0  0  0  0  0
  -25.8634  -11.5891   20.2703 N   0  0  0  0  0  0  0  0  0  0  0  0
  -26.2205  -12.8813   20.1774 N   0  0  0  0  0  0  0  0  0  0  0  0
  -27.5935  -31.5234   22.1688 N   0  0  0  0  0  0  0  0  0  0  0  0
  -29.9414  -13.7172   20.3755 N   0  0  0  0  0  0  0  0  0  0  0  0
  -25.4241  -15.0889   20.4987 N   0  0  0  0  0  0  0  0  0  0  0  0
  -21.8862  -12.5274   21.6469 N   0  0  0  0  0  0  0  0  0  0  0  0
  -30.0321  -15.7638   21.5441 N   0  0  0  0  0  0  0  0  0  0  0  0
  -30.6315  -21.3228   21.7273 N   0  0  0  0  0  0  0  0  0  0  0  0
  -24.1885  -30.2190   22.1361 N   0  0  0  0  0  0  0  0  0  0  0  0
  -29.8302  -34.0176   21.6849 N   0  0  0  0  0  0  0  0  0  0  0  0
  -32.5032  -34.2123   24.1108 N   0  3  0  0  0  0  0  0  0  0  0  0
  -22.6282  -14.6858   21.4248 O   0  0  0  0  0  0  0  0  0  0  0  0
  -25.9140  -30.4239   20.5859 O   0  0  0  0  0  0  0  0  0  0  0  0
  -31.1496  -23.9572   21.5758 O   0  0  0  0  0  0  0  0  0  0  0  0
  -26.9891  -33.7651   21.9552 O   0  0  0  0  0  0  0  0  0  0  0  0
  -31.5702  -32.5307   22.0570 O   0  0  0  0  0  0  0  0  0  0  0  0
  -31.8077  -15.0726   20.2208 O   0  0  0  0  0  0  0  0  0  0  0  0
  -21.6947   -6.9600   21.5902 O   0  0  0  0  0  0  0  0  0  0  0  0
  -30.1025  -25.9546   23.0326 O   0  0  0  0  0  0  0  0  0  1  0  0
  -18.7480   -6.6190   26.2384 F   0  0  0  0  0  0  0  0  0  0  0  0
  -28.5962  -17.3238   23.3539 F   0  0  0  0  0  0  0  0  0  0  0  0
  -22.1904   -4.9669   23.4408 F   0  0  0  0  0  0  0  0  0  0  0  0
  1  2  1  0  0  0  0
  1  5  2  0  0  0  0
  2  6  2  0  0  0  0
  3 10  2  0  0  0  0
  3 18  1  0  0  0  0
  4 11  1  0  0  0  0
  4 18  2  0  0  0  0
  5 20  1  0  0  0  0
  6 22  1  0  0  0  0
  7 12  2  0  0  0  0
  7 21  1  0  0  0  0
  8  9  2  0  0  0  0
  8 24  1  0  0  0  0
  9 25  1  0  0  0  0
 10 26  1  0  0  0  0
 11 26  2  0  0  0  0
 12 27  1  0  0  0  0
 13 14  2  0  0  0  0
 13 28  1  0  0  0  0
 14 29  1  0  0  0  0
 15 23  1  0  0  0  0
 15 27  2  0  0  0  0
 16 24  2  0  0  0  0
 16 30  1  0  0  0  0
 17 29  2  0  0  0  0
 17 31  1  0  0  0  0
 18 32  1  0  0  0  0
 19 32  1  0  0  0  0
 19 33  2  0  0  0  0
 19 34  1  0  0  0  0
 20 22  2  0  0  0  0
 20 40  1  0  0  0  0
 21 23  2  0  0  0  0
 21 41  1  0  0  0  0
 22 49  1  0  0  0  0
 23 42  1  0  0  0  0
 24 69  1  0  0  0  0
 25 30  2  0  0  0  0
 25 68  1  0  0  0  0
 26 79  1  0  0  0  0
 27 80  1  0  0  0  0
 28 31  2  0  0  0  0
 28 79  1  0  0  0  0
 29 81  1  0  0  0  0
 30 82  1  0  0  0  0
 31 83  1  0  0  0  0
 32 62  2  0  0  0  0
 33 63  1  0  0  0  0
 33 66  1  0  0  0  0
 34 67  1  0  0  0  0
 34 73  2  0  0  0  0
 35 50  1  0  0  0  0
 35 70  1  0  0  0  0
 35 74  2  0  0  0  0
 36 57  1  0  0  0  0
 36 58  1  0  0  0  0
 36 75  2  0  0  0  0
 37 59  1  0  0  0  0
 37 64  1  0  0  0  0
 37 76  2  0  0  0  0
 38 60  1  0  0  0  0
 38 71  1  0  0  0  0
 38 77  2  0  0  0  0
 39 65  1  0  0  0  0
 39 68  1  0  0  0  0
 39 78  2  0  0  0  0
 40 43  1  0  0  0  0
 41 50  1  0  0  0  0
 42 64  1  0  0  0  0
 43 45  1  0  0  0  0
 44 46  1  0  0  0  0
 44 47  1  0  0  0  0
 45 49  1  0  0  0  0
 46 51  1  0  0  0  0
 47 65  1  0  0  0  0
 48 51  1  0  0  0  0
 48 65  1  0  0  0  0
 49 70  1  0  0  0  0
 50 64  1  0  0  0  0
 51 63  1  0  0  0  0
 52 60  1  0  0  0  0
 53 61  1  0  0  0  0
 54 61  1  0  0  0  0
 55 61  1  0  0  0  0
 56 72  1  0  0  0  0
 57 69  1  0  0  0  0
 58 80  1  0  0  0  0
 59 61  1  0  0  0  0
 59 71  1  0  0  0  0
 60 72  1  0  0  0  0
 62 63  1  0  0  0  0
M  CHG  1  72   1
M  ISO  4  39 100  58 101  68 100  80 101
M  END
> <Batch ID>
0099

> <Smiles>
CNC(C)C(=O)NC(C(=O)N1Cc2cc([101O:1][101CH2:1]C(=O)CNc3ccc([100NH:0][100C:0](=O)N4CCCC(n5nc(-c6ccc(Oc7ccc(F)cc7F)cc6)c(C(N)=O)c5N)C4)c(F)c3)ccc2CC1C(=O)NC1CCCc2ccccc21)C(C)(C)C

> <Shape>
0.303

> <Color>
0.194

> <Negative vol penalty>
0.000

$$$$

  -OEChem-04052300543D

 86 95  0     1  0  0  0  0  0999 V2000
  -24.6595  -27.5665   12.5376 C   0  0  0  0  0  0  0  0  0  0  0  0
  -25.7192  -27.2535   13.3828 C   0  0  0  0  0  0  0  0  0  0  0  0
  -22.9918  -11.6279   22.5750 C   0  0  0  0  0  0  0  0  0  0  0  0
  -23.6160   -9.8354   21.0802 C   0  0  0  0  0  0  0  0  0  0  0  0
  -23.8264  -28.6440   12.8357 C   0  0  0  0  0  0  0  0  0  0  0  0
  -25.9470  -28.0184   14.5262 C   0  0  0  0  0  0  0  0  0  0  0  0
  -26.9070  -25.1758   18.6059 C   0  0  0  0  0  0  0  0  0  0  0  0
  -32.3538  -18.8526   21.1988 C   0  0  0  0  0  0  0  0  0  0  0  0
  -31.8752  -17.5966   20.8261 C   0  0  0  0  0  0  0  0  0  0  0  0
  -22.1627  -10.7534   23.2775 C   0  0  0  0  0  0  0  0  0  0  0  0
  -22.7870   -8.9608   21.7827 C   0  0  0  0  0  0  0  0  0  0  0  0
  -28.1880  -24.6374   18.7196 C   0  0  0  0  0  0  0  0  0  0  0  0
  -19.0911   -9.3933   22.9039 C   0  0  0  0  0  0  0  0  0  0  0  0
  -17.8149   -9.8429   23.2428 C   0  0  0  0  0  0  0  0  0  0  0  0
  -28.7831  -26.3947   20.2614 C   0  0  0  0  0  0  0  0  0  0  0  0
  -30.1480  -19.7867   20.8836 C   0  0  0  0  0  0  0  0  0  0  0  0
  -18.3259   -9.5293   25.5832 C   0  0  0  0  0  0  0  0  0  0  0  0
  -23.7185  -11.1689   21.4763 C   0  0  0  0  0  0  0  0  0  0  0  0
  -24.1947  -13.2516   20.0824 C   0  0  0  0  0  0  0  0  0  0  0  0
  -24.0382  -29.4166   13.9884 C   0  0  0  0  0  0  0  0  0  0  0  0
  -26.5572  -26.3359   19.3117 C   0  0  0  0  0  0  0  0  0  0  0  0
  -25.1167  -29.1080   14.8394 C   0  0  0  0  0  0  0  0  0  0  0  0
  -27.4962  -26.9444   20.1568 C   0  0  0  0  0  0  0  0  0  0  0  0
  -31.4902  -19.9477   21.2276 C   0  0  0  0  0  0  0  0  0  0  0  0
  -30.5331  -17.4356   20.4820 C   0  0  0  0  0  0  0  0  0  0  0  0
  -22.0603   -9.4199   22.8814 C   0  0  0  0  0  0  0  0  0  0  0  0
  -29.1271  -25.2485   19.5452 C   0  0  0  0  0  0  0  0  0  0  0  0
  -19.9847   -9.0116   23.9047 C   0  0  0  0  0  0  0  0  0  0  0  0
  -17.4323   -9.9109   24.5824 C   0  0  0  0  0  0  0  0  0  0  0  0
  -29.6695  -18.5306   20.5107 C   0  0  0  0  0  0  0  0  0  0  0  0
  -19.6021   -9.0796   25.2444 C   0  0  0  0  0  0  0  0  0  0  0  0
  -24.5746  -12.0719   20.7499 C   0  0  0  0  0  0  0  0  0  0  0  0
  -25.3653  -13.7408   19.5563 C   0  0  0  0  0  0  0  0  0  0  0  0
  -33.0553  -21.3739   22.5186 C   0  0  0  0  0  0  0  0  0  0  0  0
  -22.8993  -13.8518   19.9498 C   0  0  0  0  0  0  0  0  0  0  0  0
  -25.6295  -29.2645   18.4952 C   0  0  0  0  0  0  0  0  0  0  0  0
  -25.2200  -29.6055   21.6950 C   0  0  0  0  0  0  0  0  0  0  0  0
  -26.9990  -28.6717   24.6918 C   0  0  0  0  0  0  0  0  0  0  0  0
  -30.7758  -14.9706   20.0227 C   0  0  0  0  0  0  0  0  0  0  0  0
  -23.1397  -30.6006   14.2440 C   0  0  0  0  0  0  0  0  0  0  0  0
  -25.1630  -26.8889   19.1989 C   0  0  0  0  0  0  0  0  0  0  0  0
  -27.1644  -28.1799   20.9517 C   0  0  0  0  0  0  0  0  0  0  0  0
  -33.7014  -22.7429   22.6176 C   0  0  0  0  0  0  0  0  0  0  0  0
  -23.2226  -31.1310   15.6730 C   0  0  0  0  0  0  0  0  0  0  0  0
  -32.7400  -23.9001   22.4579 C   0  0  0  0  0  0  0  0  0  0  0  0
  -29.9431  -11.6160   19.1680 C   0  0  0  0  0  0  0  0  0  0  0  0
  -24.6782  -31.2617   16.1102 C   0  0  0  0  0  0  0  0  0  0  0  0
  -28.4410  -11.5326   19.4484 C   0  0  0  0  0  0  0  0  0  0  0  0
  -30.6630  -12.4938   20.1901 C   0  0  0  0  0  0  0  0  0  0  0  0
  -31.2009  -22.4256   21.1929 C   0  0  0  0  0  0  0  0  0  0  0  0
  -28.5955  -13.7548   20.6421 C   0  0  0  0  0  0  0  0  0  0  0  0
  -25.3811  -29.8989   16.1022 C   0  0  1  0  0  0  0  0  0  0  0  0
  -25.0750  -28.3672   19.5654 C   0  0  1  0  0  0  0  0  0  0  0  0
  -31.9865  -23.7353   21.1483 C   0  0  1  0  0  0  0  0  0  0  0  0
  -27.8175  -12.9339   19.6007 C   0  0  2  0  0  0  0  0  0  0  0  0
  -26.1626  -28.2398   27.0180 C   0  0  0  0  0  0  0  0  0  0  0  0
  -25.9012  -32.5409   22.1736 C   0  0  0  0  0  0  0  0  0  0  0  0
  -26.7040  -31.9098   24.4595 C   0  0  0  0  0  0  0  0  0  0  0  0
  -24.3150  -31.5537   23.8360 C   0  0  0  0  0  0  0  0  0  0  0  0
  -28.2284  -25.9804   24.7588 C   0  0  0  0  0  0  0  0  0  0  0  0
  -31.0542  -24.9191   20.8994 C   0  0  0  0  0  0  0  0  0  1  0  0
  -26.0920  -30.0545   22.8426 C   0  0  1  0  0  0  0  0  0  0  0  0
  -26.5888  -27.6131   25.6995 C   0  0  2  0  0  0  0  0  0  0  0  0
  -25.7641  -31.5024   23.3048 C   0  0  0  0  0  0  0  0  0  0  0  0
  -25.8843  -11.8262   20.6577 N   0  0  0  0  0  0  0  0  0  0  0  0
  -26.3374  -12.8584   19.9260 N   0  0  0  0  0  0  0  0  0  0  0  0
  -31.9867  -21.2513   21.6138 N   0  0  0  0  0  0  0  0  0  0  0  0
  -25.7900  -28.6863   20.8028 N   0  0  0  0  0  0  0  0  0  0  0  0
  -30.0199  -13.8067   20.2773 N   0  0  0  0  0  0  0  0  0  0  0  0
  -25.6477  -14.8352   18.8181 N   0  0  0  0  0  0  0  0  0  0  0  0
  -22.1020  -13.4856   18.8569 N   0  0  0  0  0  0  0  0  0  0  0  0
  -30.0500  -16.1585   20.1032 N   0  0  0  0  0  0  0  0  0  0  0  0
  -25.0061  -29.1298   17.2694 N   0  0  0  0  0  0  0  0  0  0  0  0
  -25.9442  -29.0461   23.8864 N   0  0  0  0  0  0  0  0  0  0  0  0
  -27.7233  -26.6841   25.9658 N   0  3  0  0  0  0  0  0  0  0  0  0
  -33.5399  -20.4547   23.1841 O   0  0  0  0  0  0  0  0  0  0  0  0
  -22.4685  -14.7003   20.7671 O   0  0  0  0  0  0  0  0  0  0  0  0
  -26.5535  -30.0239   18.7623 O   0  0  0  0  0  0  0  0  0  0  0  0
  -24.0728  -30.0483   21.5979 O   0  0  0  0  0  0  0  0  0  0  0  0
  -28.1400  -29.1241   24.6280 O   0  0  0  0  0  0  0  0  0  0  0  0
  -31.9721  -14.9155   19.7263 O   0  0  0  0  0  0  0  0  0  0  0  0
  -21.2516   -8.5662   23.5667 O   0  0  0  0  0  0  0  0  0  0  0  0
  -30.3784  -24.7254   19.6576 O   0  0  0  0  0  0  0  0  0  1  0  0
  -16.2073  -10.3441   24.9078 F   0  0  0  0  0  0  0  0  0  0  0  0
  -28.3778  -18.3880   20.1806 F   0  0  0  0  0  0  0  0  0  0  0  0
  -20.4566   -8.7155   26.2103 F   0  0  0  0  0  0  0  0  0  0  0  0
  1  2  1  0  0  0  0
  1  5  2  0  0  0  0
  2  6  2  0  0  0  0
  3 10  2  0  0  0  0
  3 18  1  0  0  0  0
  4 11  1  0  0  0  0
  4 18  2  0  0  0  0
  5 20  1  0  0  0  0
  6 22  1  0  0  0  0
  7 12  2  0  0  0  0
  7 21  1  0  0  0  0
  8  9  2  0  0  0  0
  8 24  1  0  0  0  0
  9 25  1  0  0  0  0
 10 26  1  0  0  0  0
 11 26  2  0  0  0  0
 12 27  1  0  0  0  0
 13 14  2  0  0  0  0
 13 28  1  0  0  0  0
 14 29  1  0  0  0  0
 15 23  1  0  0  0  0
 15 27  2  0  0  0  0
 16 24  2  0  0  0  0
 16 30  1  0  0  0  0
 17 29  2  0  0  0  0
 17 31  1  0  0  0  0
 18 32  1  0  0  0  0
 19 32  1  0  0  0  0
 19 33  2  0  0  0  0
 19 35  1  0  0  0  0
 20 22  2  0  0  0  0
 20 40  1  0  0  0  0
 21 23  2  0  0  0  0
 21 41  1  0  0  0  0
 22 52  1  0  0  0  0
 23 42  1  0  0  0  0
 24 67  1  0  0  0  0
 25 30  2  0  0  0  0
 25 72  1  0  0  0  0
 26 82  1  0  0  0  0
 27 83  1  0  0  0  0
 28 31  2  0  0  0  0
 28 82  1  0  0  0  0
 29 84  1  0  0  0  0
 30 85  1  0  0  0  0
 31 86  1  0  0  0  0
 32 65  2  0  0  0  0
 33 66  1  0  0  0  0
 33 70  1  0  0  0  0
 34 43  1  0  0  0  0
 34 67  1  0  0  0  0
 34 76  2  0  0  0  0
 35 71  1  0  0  0  0
 35 77  2  0  0  0  0
 36 53  1  0  0  0  0
 36 73  1  0  0  0  0
 36 78  2  0  0  0  0
 37 62  1  0  0  0  0
 37 68  1  0  0  0  0
 37 79  2  0  0  0  0
 38 63  1  0  0  0  0
 38 74  1  0  0  0  0
 38 80  2  0  0  0  0
 39 69  1  0  0  0  0
 39 72  1  0  0  0  0
 39 81  2  0  0  0  0
 40 44  1  0  0  0  0
 41 53  1  0  0  0  0
 42 68  1  0  0  0  0
 43 45  1  0  0  0  0
 44 47  1  0  0  0  0
 45 54  1  0  0  0  0
 46 48  1  0  0  0  0
 46 49  1  0  0  0  0
 47 52  1  0  0  0  0
 48 55  1  0  0  0  0
 49 69  1  0  0  0  0
 50 54  1  0  0  0  0
 50 67  1  0  0  0  0
 51 55  1  0  0  0  0
 51 69  1  0  0  0  0
 52 73  1  0  0  0  0
 53 68  1  0  0  0  0
 54 61  1  0  0  0  0
 55 66  1  0  0  0  0
 56 63  1  0  0  0  0
 57 64  1  0  0  0  0
 58 64  1  0  0  0  0
 59 64  1  0  0  0  0
 60 75  1  0  0  0  0
 61 83  1  0  0  0  0
 62 64  1  0  0  0  0
 62 74  1  0  0  0  0
 63 75  1  0  0  0  0
 65 66  1  0  0  0  0
M  CHG  1  75   1
M  ISO  4  39 100  61 101  72 100  83 101
M  END
> <Batch ID>
0099

> <Smiles>
CNC(C)C(=O)NC(C(=O)N1Cc2cc([101O:1][101CH2:1]C3CCC(=O)N(c4ccc([100NH:0][100C:0](=O)N5CCCC(n6nc(-c7ccc(Oc8ccc(F)cc8F)cc7)c(C(N)=O)c6N)C5)c(F)c4)C3)ccc2CC1C(=O)NC1CCCc2ccccc21)C(C)(C)C

> <Shape>
0.240

> <Color>
0.117

> <Negative vol penalty>
0.000

$$$$

  -OEChem-04052300543D

 88 97  0     1  0  0  0  0  0999 V2000
  -23.4940   -7.2488   22.3383 C   0  0  0  0  0  0  0  0  0  0  0  0
  -24.6670   -7.9410   22.6217 C   0  0  0  0  0  0  0  0  0  0  0  0
  -23.9904  -33.4474   22.1939 C   0  0  0  0  0  0  0  0  0  0  0  0
  -26.3748  -33.1954   21.8976 C   0  0  0  0  0  0  0  0  0  0  0  0
  -22.7063   -7.6294   21.2527 C   0  0  0  0  0  0  0  0  0  0  0  0
  -25.0536   -9.0137   21.8189 C   0  0  0  0  0  0  0  0  0  0  0  0
  -28.4146  -15.3295   22.1791 C   0  0  0  0  0  0  0  0  0  0  0  0
  -29.7197  -22.7650   17.4533 C   0  0  0  0  0  0  0  0  0  0  0  0
  -28.8565  -23.8524   17.3197 C   0  0  0  0  0  0  0  0  0  0  0  0
  -24.1917  -34.7178   22.7336 C   0  0  0  0  0  0  0  0  0  0  0  0
  -26.5762  -34.4658   22.4372 C   0  0  0  0  0  0  0  0  0  0  0  0
  -29.4536  -16.0329   21.5712 C   0  0  0  0  0  0  0  0  0  0  0  0
  -26.6543  -35.8859   25.5045 C   0  0  0  0  0  0  0  0  0  0  0  0
  -27.6710  -36.0357   26.4476 C   0  0  0  0  0  0  0  0  0  0  0  0
  -27.9730  -16.6510   19.7698 C   0  0  0  0  0  0  0  0  0  0  0  0
  -29.0251  -24.2777   19.6920 C   0  0  0  0  0  0  0  0  0  0  0  0
  -28.7628  -37.6458   25.0148 C   0  0  0  0  0  0  0  0  0  0  0  0
  -25.0820  -32.6862   21.7760 C   0  0  0  0  0  0  0  0  0  0  0  0
  -24.2682  -30.2695   21.8474 C   0  0  0  0  0  0  0  0  0  0  0  0
  -23.0783   -8.7134   20.4420 C   0  0  0  0  0  0  0  0  0  0  0  0
  -27.1478  -15.2724   21.5804 C   0  0  0  0  0  0  0  0  0  0  0  0
  -24.2707   -9.4083   20.7207 C   0  0  0  0  0  0  0  0  0  0  0  0
  -26.9190  -15.9484   20.3734 C   0  0  0  0  0  0  0  0  0  0  0  0
  -30.2356  -22.4338   18.7062 C   0  0  0  0  0  0  0  0  0  0  0  0
  -28.5092  -24.6088   18.4390 C   0  0  0  0  0  0  0  0  0  0  0  0
  -25.4845  -35.2270   22.8552 C   0  0  0  0  0  0  0  0  0  0  0  0
  -29.2337  -16.6914   20.3649 C   0  0  0  0  0  0  0  0  0  0  0  0
  -26.6919  -36.6159   24.3165 C   0  0  0  0  0  0  0  0  0  0  0  0
  -28.7252  -36.9157   26.2028 C   0  0  0  0  0  0  0  0  0  0  0  0
  -29.8883  -23.1902   19.8255 C   0  0  0  0  0  0  0  0  0  0  0  0
  -27.7461  -37.4959   24.0717 C   0  0  0  0  0  0  0  0  0  0  0  0
  -24.8747  -31.3736   21.2189 C   0  0  0  0  0  0  0  0  0  0  0  0
  -24.3142  -29.2705   20.9059 C   0  0  0  0  0  0  0  0  0  0  0  0
  -32.3439  -21.3336   18.1107 C   0  0  0  0  0  0  0  0  0  0  0  0
  -30.7253  -20.2388   19.6909 C   0  0  0  0  0  0  0  0  0  0  0  0
  -23.7129  -30.1569   23.1644 C   0  0  0  0  0  0  0  0  0  0  0  0
  -25.3075  -12.9439   20.4423 C   0  0  0  0  0  0  0  0  0  0  0  0
  -23.1521  -15.3440   20.1015 C   0  0  0  0  0  0  0  0  0  0  0  0
  -23.1903  -18.7821   19.0083 C   0  0  0  0  0  0  0  0  0  0  0  0
  -27.5279  -26.5096   17.1293 C   0  0  0  0  0  0  0  0  0  0  0  0
  -22.2191   -9.0580   19.2514 C   0  0  0  0  0  0  0  0  0  0  0  0
  -26.0304  -14.5317   22.2623 C   0  0  0  0  0  0  0  0  0  0  0  0
  -25.5718  -15.9348   19.6999 C   0  0  0  0  0  0  0  0  0  0  0  0
  -33.1895  -20.0770   18.1306 C   0  0  0  0  0  0  0  0  0  0  0  0
  -22.5052  -10.4417   18.6738 C   0  0  0  0  0  0  0  0  0  0  0  0
  -32.4628  -18.8528   18.6363 C   0  0  0  0  0  0  0  0  0  0  0  0
  -25.4775  -29.3742   15.9964 C   0  0  0  0  0  0  0  0  0  0  0  0
  -24.0079  -10.6585   18.5267 C   0  0  0  0  0  0  0  0  0  0  0  0
  -25.1622  -30.1028   17.3014 C   0  0  0  0  0  0  0  0  0  0  0  0
  -26.8051  -28.6261   16.0719 C   0  0  0  0  0  0  0  0  0  0  0  0
  -26.5722  -28.4039   18.5291 C   0  0  0  0  0  0  0  0  0  0  0  0
  -24.7107  -10.5929   19.8880 C   0  0  1  0  0  0  0  0  0  0  0  0
  -31.8051  -19.2004   19.9598 C   0  0  2  0  0  0  0  0  0  0  0  0
  -24.9198  -14.1119   21.3044 C   0  0  1  0  0  0  0  0  0  0  0  0
  -25.2202  -29.1320   18.4924 C   0  0  1  0  0  0  0  0  0  0  0  0
  -21.6889  -20.7015   19.6076 C   0  0  0  0  0  0  0  0  0  0  0  0
  -21.6047  -14.5377   17.5985 C   0  0  0  0  0  0  0  0  0  0  0  0
  -21.2464  -16.9692   17.1213 C   0  0  0  0  0  0  0  0  0  0  0  0
  -20.3206  -15.9595   19.2060 C   0  0  0  0  0  0  0  0  0  0  0  0
  -26.9689  -26.2457   19.5061 C   0  0  0  0  0  0  0  0  0  0  0  0
  -25.4769  -20.4546   19.8647 C   0  0  0  0  0  0  0  0  0  0  0  0
  -31.2349  -17.9497   20.6247 C   0  0  0  0  0  0  0  0  0  1  0  0
  -22.8138  -16.3301   19.0096 C   0  0  1  0  0  0  0  0  0  0  0  0
  -23.0183  -20.0143   19.8781 C   0  0  2  0  0  0  0  0  0  0  0  0
  -21.5227  -15.9386   18.2368 C   0  0  0  0  0  0  0  0  0  0  0  0
  -25.2767  -31.1019   19.9745 N   0  0  0  0  0  0  0  0  0  0  0  0
  -24.9221  -29.8157   19.8134 N   0  0  0  0  0  0  0  0  0  0  0  0
  -31.1324  -21.3032   18.8420 N   0  0  0  0  0  0  0  0  0  0  0  0
  -24.5129  -15.1916   20.4027 N   0  0  0  0  0  0  0  0  0  0  0  0
  -26.8693  -27.7511   17.2436 N   0  0  0  0  0  0  0  0  0  0  0  0
  -23.8937  -27.9878   20.9142 N   0  0  0  0  0  0  0  0  0  0  0  0
  -23.7478  -31.2798   24.0024 N   0  0  0  0  0  0  0  0  0  0  0  0
  -24.5137  -11.8266   20.6184 N   0  0  0  0  0  0  0  0  0  0  0  0
  -22.7543  -17.6408   19.6474 N   0  0  0  0  0  0  0  0  0  0  0  0
  -27.6164  -25.7334   18.3006 N   0  0  0  0  0  0  0  0  0  0  0  0
  -24.1137  -20.9902   19.6162 N   0  3  0  0  0  0  0  0  0  0  0  0
  -32.7993  -22.3261   17.5330 O   0  0  0  0  0  0  0  0  0  0  0  0
  -29.6006  -20.1118   20.1793 O   0  0  0  0  0  0  0  0  0  0  0  0
  -23.2156  -29.0874   23.5915 O   0  0  0  0  0  0  0  0  0  0  0  0
  -26.2558  -13.0491   19.6733 O   0  0  0  0  0  0  0  0  0  0  0  0
  -22.2420  -14.7368   20.6712 O   0  0  0  0  0  0  0  0  0  0  0  0
  -23.6608  -18.8280   17.8737 O   0  0  0  0  0  0  0  0  0  0  0  0
  -28.0507  -26.1413   16.0702 O   0  0  0  0  0  0  0  0  0  0  0  0
  -25.6813  -36.4667   23.3815 O   0  0  0  0  0  0  0  0  0  0  0  0
  -30.2462  -17.3781   19.7691 O   0  0  0  0  0  0  0  0  0  1  0  0
  -29.7007  -37.0606   27.1092 F   0  0  0  0  0  0  0  0  0  0  0  0
  -30.3777  -22.8808   21.0350 F   0  0  0  0  0  0  0  0  0  0  0  0
  -27.7869  -38.2009   22.9328 F   0  0  0  0  0  0  0  0  0  0  0  0
  1  2  1  0  0  0  0
  1  5  2  0  0  0  0
  2  6  2  0  0  0  0
  3 10  2  0  0  0  0
  3 18  1  0  0  0  0
  4 11  1  0  0  0  0
  4 18  2  0  0  0  0
  5 20  1  0  0  0  0
  6 22  1  0  0  0  0
  7 12  2  0  0  0  0
  7 21  1  0  0  0  0
  8  9  2  0  0  0  0
  8 24  1  0  0  0  0
  9 25  1  0  0  0  0
 10 26  1  0  0  0  0
 11 26  2  0  0  0  0
 12 27  1  0  0  0  0
 13 14  2  0  0  0  0
 13 28  1  0  0  0  0
 14 29  1  0  0  0  0
 15 23  1  0  0  0  0
 15 27  2  0  0  0  0
 16 25  2  0  0  0  0
 16 30  1  0  0  0  0
 17 29  2  0  0  0  0
 17 31  1  0  0  0  0
 18 32  1  0  0  0  0
 19 32  1  0  0  0  0
 19 33  2  0  0  0  0
 19 36  1  0  0  0  0
 20 22  2  0  0  0  0
 20 41  1  0  0  0  0
 21 23  2  0  0  0  0
 21 42  1  0  0  0  0
 22 52  1  0  0  0  0
 23 43  1  0  0  0  0
 24 30  2  0  0  0  0
 24 68  1  0  0  0  0
 25 75  1  0  0  0  0
 26 84  1  0  0  0  0
 27 85  1  0  0  0  0
 28 31  2  0  0  0  0
 28 84  1  0  0  0  0
 29 86  1  0  0  0  0
 30 87  1  0  0  0  0
 31 88  1  0  0  0  0
 32 66  2  0  0  0  0
 33 67  1  0  0  0  0
 33 71  1  0  0  0  0
 34 44  1  0  0  0  0
 34 68  1  0  0  0  0
 34 77  2  0  0  0  0
 35 53  1  0  0  0  0
 35 68  1  0  0  0  0
 35 78  2  0  0  0  0
 36 72  1  0  0  0  0
 36 79  2  0  0  0  0
 37 54  1  0  0  0  0
 37 73  1  0  0  0  0
 37 80  2  0  0  0  0
 38 63  1  0  0  0  0
 38 69  1  0  0  0  0
 38 81  2  0  0  0  0
 39 64  1  0  0  0  0
 39 74  1  0  0  0  0
 39 82  2  0  0  0  0
 40 70  1  0  0  0  0
 40 75  1  0  0  0  0
 40 83  2  0  0  0  0
 41 45  1  0  0  0  0
 42 54  1  0  0  0  0
 43 69  1  0  0  0  0
 44 46  1  0  0  0  0
 45 48  1  0  0  0  0
 46 53  1  0  0  0  0
 47 49  1  0  0  0  0
 47 50  1  0  0  0  0
 48 52  1  0  0  0  0
 49 55  1  0  0  0  0
 50 70  1  0  0  0  0
 51 55  1  0  0  0  0
 51 70  1  0  0  0  0
 52 73  1  0  0  0  0
 53 62  1  0  0  0  0
 54 69  1  0  0  0  0
 55 67  1  0  0  0  0
 56 64  1  0  0  0  0
 57 65  1  0  0  0  0
 58 65  1  0  0  0  0
 59 65  1  0  0  0  0
 60 75  1  0  0  0  0
 61 76  1  0  0  0  0
 62 85  1  0  0  0  0
 63 65  1  0  0  0  0
 63 74  1  0  0  0  0
 64 76  1  0  0  0  0
 66 67  1  0  0  0  0
M  CHG  1  76   1
M  ISO  4  40 100  62 101  75 100  85 101
M  END
> <Batch ID>
0099

> <Smiles>
CNC(C)C(=O)NC(C(=O)N1Cc2cc([101O:1][101CH2:1]C3CCC(=O)N(c4ccc([100N:0](C)[100C:0](=O)N5CCCC(n6nc(-c7ccc(Oc8ccc(F)cc8F)cc7)c(C(N)=O)c6N)C5)cc4F)C3=O)ccc2CC1C(=O)NC1CCCc2ccccc21)C(C)(C)C

> <Shape>
0.252

> <Color>
0.092

> <Negative vol penalty>
0.000

$$$$

  -OEChem-04052300543D

 83 91  0     1  0  0  0  0  0999 V2000
  -31.8852  -27.7937   15.1527 C   0  0  0  0  0  0  0  0  0  0  0  0
  -31.1012  -27.0426   16.0226 C   0  0  0  0  0  0  0  0  0  0  0  0
  -23.1018   -9.7414   19.8825 C   0  0  0  0  0  0  0  0  0  0  0  0
  -24.2241   -9.2811   21.9719 C   0  0  0  0  0  0  0  0  0  0  0  0
  -28.9494  -17.1236   20.5867 C   0  0  0  0  0  0  0  0  0  0  0  0
  -32.3106  -29.0685   15.5239 C   0  0  0  0  0  0  0  0  0  0  0  0
  -30.7430  -27.5656   17.2646 C   0  0  0  0  0  0  0  0  0  0  0  0
  -25.8580  -26.8015   18.3587 C   0  0  0  0  0  0  0  0  0  0  0  0
  -28.1373  -18.2554   20.5162 C   0  0  0  0  0  0  0  0  0  0  0  0
  -22.4510   -8.5103   19.9609 C   0  0  0  0  0  0  0  0  0  0  0  0
  -23.5732   -8.0499   22.0503 C   0  0  0  0  0  0  0  0  0  0  0  0
  -25.4953  -25.5290   18.7980 C   0  0  0  0  0  0  0  0  0  0  0  0
  -20.5173   -6.9011   22.9233 C   0  0  0  0  0  0  0  0  0  0  0  0
  -19.9629   -6.5398   24.1512 C   0  0  0  0  0  0  0  0  0  0  0  0
  -28.8563  -17.2072   22.9995 C   0  0  0  0  0  0  0  0  0  0  0  0
  -25.4999  -26.3208   21.0766 C   0  0  0  0  0  0  0  0  0  0  0  0
  -21.3772   -4.5820   24.2136 C   0  0  0  0  0  0  0  0  0  0  0  0
  -23.9885  -10.1269   20.8880 C   0  0  0  0  0  0  0  0  0  0  0  0
  -29.3089  -16.5994   21.8284 C   0  0  0  0  0  0  0  0  0  0  0  0
  -24.2143  -12.6310   21.3194 C   0  0  0  0  0  0  0  0  0  0  0  0
  -31.9495  -29.6112   16.7672 C   0  0  0  0  0  0  0  0  0  0  0  0
  -26.0552  -27.8423   19.2775 C   0  0  0  0  0  0  0  0  0  0  0  0
  -31.1652  -28.8483   17.6533 C   0  0  0  0  0  0  0  0  0  0  0  0
  -25.8625  -27.6063   20.6462 C   0  0  0  0  0  0  0  0  0  0  0  0
  -27.6846  -18.8631   21.6872 C   0  0  0  0  0  0  0  0  0  0  0  0
  -22.6866   -7.6645   21.0448 C   0  0  0  0  0  0  0  0  0  0  0  0
  -25.3190  -25.2877   20.1573 C   0  0  0  0  0  0  0  0  0  0  0  0
  -21.5015   -6.1028   22.3404 C   0  0  0  0  0  0  0  0  0  0  0  0
  -20.3929   -5.3803   24.7963 C   0  0  0  0  0  0  0  0  0  0  0  0
  -28.0442  -18.3390   22.9289 C   0  0  0  0  0  0  0  0  0  0  0  0
  -21.9315   -4.9432   22.9856 C   0  0  0  0  0  0  0  0  0  0  0  0
  -24.6616  -11.3983   20.8074 C   0  0  0  0  0  0  0  0  0  0  0  0
  -25.2048  -13.5216   20.9846 C   0  0  0  0  0  0  0  0  0  0  0  0
  -25.5551  -21.7468   20.6843 C   0  0  0  0  0  0  0  0  0  0  0  0
  -25.8048  -23.0048   20.3083 C   0  0  0  0  0  0  0  0  0  1  0  0
  -30.1556  -15.4194   21.9031 C   0  0  0  0  0  0  0  0  0  0  0  0
  -23.0110  -12.9430   22.0339 C   0  0  0  0  0  0  0  0  0  0  0  0
  -30.6538  -14.7492   20.6800 C   0  0  0  0  0  0  0  0  0  0  0  0
  -28.5222  -29.6696   20.1014 C   0  0  0  0  0  0  0  0  0  0  0  0
  -26.2924  -31.1952   21.8966 C   0  0  0  0  0  0  0  0  0  0  0  0
  -23.2914  -31.0631   23.5164 C   0  0  0  0  0  0  0  0  0  0  0  0
  -32.4726  -30.9747   17.1436 C   0  0  0  0  0  0  0  0  0  0  0  0
  -26.4202  -29.2160   18.7854 C   0  0  0  0  0  0  0  0  0  0  0  0
  -26.0422  -28.6947   21.6716 C   0  0  0  0  0  0  0  0  0  0  0  0
  -31.7373  -31.6047   18.3238 C   0  0  0  0  0  0  0  0  0  0  0  0
  -29.1713  -13.0440   17.8959 C   0  0  0  0  0  0  0  0  0  0  0  0
  -31.5735  -30.5922   19.4528 C   0  0  0  0  0  0  0  0  0  0  0  0
  -27.8465  -12.5320   18.4602 C   0  0  0  0  0  0  0  0  0  0  0  0
  -30.2699  -13.0340   18.9539 C   0  0  0  0  0  0  0  0  0  0  0  0
  -28.5927  -13.2841   20.7630 C   0  0  0  0  0  0  0  0  0  0  0  0
  -30.7353  -29.3908   18.9990 C   0  0  1  0  0  0  0  0  0  0  0  0
  -27.0964  -30.0725   19.8515 C   0  0  1  0  0  0  0  0  0  0  0  0
  -27.4518  -13.3056   19.7308 C   0  0  2  0  0  0  0  0  0  0  0  0
  -21.7512  -32.4546   24.9267 C   0  0  0  0  0  0  0  0  0  0  0  0
  -28.1322  -30.7941   24.2974 C   0  0  0  0  0  0  0  0  0  0  0  0
  -26.1890  -31.3195   25.7862 C   0  0  0  0  0  0  0  0  0  0  0  0
  -27.0341  -33.0384   24.1881 C   0  0  0  0  0  0  0  0  0  0  0  0
  -21.1096  -30.8742   21.5257 C   0  0  0  0  0  0  0  0  0  0  0  0
  -26.4591  -20.5965   20.3762 C   0  0  0  0  0  0  0  0  0  0  0  0
  -25.7628  -31.0407   23.3019 C   0  0  1  0  0  0  0  0  0  0  0  0
  -22.1041  -32.0090   23.5161 C   0  0  2  0  0  0  0  0  0  0  0  0
  -26.7780  -31.5270   24.3745 C   0  0  0  0  0  0  0  0  0  0  0  0
  -25.8442  -11.4934   20.1938 N   0  0  0  0  0  0  0  0  0  0  0  0
  -30.5319  -14.8774   23.0299 N   0  0  0  0  0  0  0  0  0  0  0  0
  -26.1483  -12.7966   20.3180 N   0  0  0  0  0  0  0  0  0  0  0  0
  -29.8493  -13.7453   20.1594 N   0  0  0  0  0  0  0  0  0  0  0  0
  -26.4053  -30.0193   21.1414 N   0  0  0  0  0  0  0  0  0  0  0  0
  -25.3520  -14.8464   21.1982 N   0  0  0  0  0  0  0  0  0  0  0  0
  -22.1012  -11.9091   22.2940 N   0  0  0  0  0  0  0  0  0  0  0  0
  -26.8778  -19.9889   21.6145 N   0  0  0  0  0  0  0  0  0  0  0  0
  -29.3293  -29.7333   18.9816 N   0  0  0  0  0  0  0  0  0  0  0  0
  -24.4808  -31.7363   23.3337 N   0  0  0  0  0  0  0  0  0  0  0  0
  -20.9111  -31.3427   22.9214 N   0  3  0  0  0  0  0  0  0  0  0  0
  -22.7427  -14.1074   22.4157 O   0  0  0  0  0  0  0  0  0  0  0  0
  -31.7285  -15.1547   20.2570 O   0  0  0  0  0  0  0  0  0  0  0  0
  -28.8650  -29.3279   21.2271 O   0  0  0  0  0  0  0  0  0  0  0  0
  -26.5879  -32.3187   21.4818 O   0  0  0  0  0  0  0  0  0  0  0  0
  -23.1757  -29.8489   23.6676 O   0  0  0  0  0  0  0  0  0  0  0  0
  -22.0514   -6.4632   21.1217 O   0  0  0  0  0  0  0  0  0  0  0  0
  -24.9657  -24.0464   20.5888 O   0  0  0  0  0  0  0  0  0  1  0  0
  -19.8616   -5.0343   25.9763 F   0  0  0  0  0  0  0  0  0  0  0  0
  -27.6151  -18.9151   24.0609 F   0  0  0  0  0  0  0  0  0  0  0  0
  -22.8776   -4.1729   22.4312 F   0  0  0  0  0  0  0  0  0  0  0  0
  1  2  1  0  0  0  0
  1  6  2  0  0  0  0
  2  7  2  0  0  0  0
  3 10  2  0  0  0  0
  3 18  1  0  0  0  0
  4 11  1  0  0  0  0
  4 18  2  0  0  0  0
  5  9  2  0  0  0  0
  5 19  1  0  0  0  0
  6 21  1  0  0  0  0
  7 23  1  0  0  0  0
  8 12  2  0  0  0  0
  8 22  1  0  0  0  0
  9 25  1  0  0  0  0
 10 26  1  0  0  0  0
 11 26  2  0  0  0  0
 12 27  1  0  0  0  0
 13 14  2  0  0  0  0
 13 28  1  0  0  0  0
 14 29  1  0  0  0  0
 15 19  2  0  0  0  0
 15 30  1  0  0  0  0
 16 24  1  0  0  0  0
 16 27  2  0  0  0  0
 17 29  2  0  0  0  0
 17 31  1  0  0  0  0
 18 32  1  0  0  0  0
 19 36  1  0  0  0  0
 20 32  1  0  0  0  0
 20 33  2  0  0  0  0
 20 37  1  0  0  0  0
 21 23  2  0  0  0  0
 21 42  1  0  0  0  0
 22 24  2  0  0  0  0
 22 43  1  0  0  0  0
 23 51  1  0  0  0  0
 24 44  1  0  0  0  0
 25 30  2  0  0  0  0
 25 70  1  0  0  0  0
 26 79  1  0  0  0  0
 27 80  1  0  0  0  0
 28 31  2  0  0  0  0
 28 79  1  0  0  0  0
 29 81  1  0  0  0  0
 30 82  1  0  0  0  0
 31 83  1  0  0  0  0
 32 63  2  0  0  0  0
 33 65  1  0  0  0  0
 33 68  1  0  0  0  0
 34 35  2  0  0  0  0
 34 59  1  0  0  0  0
 35 80  1  0  0  0  0
 36 38  1  0  0  0  0
 36 64  2  0  0  0  0
 37 69  1  0  0  0  0
 37 74  2  0  0  0  0
 38 66  1  0  0  0  0
 38 75  2  0  0  0  0
 39 52  1  0  0  0  0
 39 71  1  0  0  0  0
 39 76  2  0  0  0  0
 40 60  1  0  0  0  0
 40 67  1  0  0  0  0
 40 77  2  0  0  0  0
 41 61  1  0  0  0  0
 41 72  1  0  0  0  0
 41 78  2  0  0  0  0
 42 45  1  0  0  0  0
 43 52  1  0  0  0  0
 44 67  1  0  0  0  0
 45 47  1  0  0  0  0
 46 48  1  0  0  0  0
 46 49  1  0  0  0  0
 47 51  1  0  0  0  0
 48 53  1  0  0  0  0
 49 66  1  0  0  0  0
 50 53  1  0  0  0  0
 50 66  1  0  0  0  0
 51 71  1  0  0  0  0
 52 67  1  0  0  0  0
 53 65  1  0  0  0  0
 54 61  1  0  0  0  0
 55 62  1  0  0  0  0
 56 62  1  0  0  0  0
 57 62  1  0  0  0  0
 58 73  1  0  0  0  0
 59 70  1  0  0  0  0
 60 62  1  0  0  0  0
 60 72  1  0  0  0  0
 61 73  1  0  0  0  0
 63 65  1  0  0  0  0
M  CHG  1  73   1
M  ISO  4  35 101  36 100  38 100  80 101
M  END
> <Batch ID>
0099

> <Smiles>
CNC(C)C(=O)NC(C(=O)N1Cc2cc([101O:1][101CH:1]=CCNc3ccc([100C:0](=N)[100C:0](=O)N4CCCC(n5nc(-c6ccc(Oc7ccc(F)cc7F)cc6)c(C(N)=O)c5N)C4)cc3F)ccc2CC1C(=O)NC1CCCc2ccccc21)C(C)(C)C

> <Shape>
0.313

> <Color>
0.167

> <Negative vol penalty>
0.000

$$$$

  -OEChem-04052300543D

 86 95  0     1  0  0  0  0  0999 V2000
  -27.4864  -33.1214   15.7385 C   0  0  0  0  0  0  0  0  0  0  0  0
  -27.4908  -31.8106   16.2046 C   0  0  0  0  0  0  0  0  0  0  0  0
  -23.2482   -9.6832   21.3208 C   0  0  0  0  0  0  0  0  0  0  0  0
  -23.9055  -10.5867   23.4629 C   0  0  0  0  0  0  0  0  0  0  0  0
  -27.5550  -34.1814   16.6416 C   0  0  0  0  0  0  0  0  0  0  0  0
  -27.5648  -31.5591   17.5741 C   0  0  0  0  0  0  0  0  0  0  0  0
  -24.8839  -26.9756   20.6255 C   0  0  0  0  0  0  0  0  0  0  0  0
  -22.5719   -8.6474   21.9652 C   0  0  0  0  0  0  0  0  0  0  0  0
  -23.2292   -9.5509   24.1074 C   0  0  0  0  0  0  0  0  0  0  0  0
  -25.3577  -25.7432   21.0730 C   0  0  0  0  0  0  0  0  0  0  0  0
  -23.3489   -5.7198   23.4652 C   0  0  0  0  0  0  0  0  0  0  0  0
  -23.5243   -4.4269   22.9722 C   0  0  0  0  0  0  0  0  0  0  0  0
  -25.7795  -26.7012   23.2463 C   0  0  0  0  0  0  0  0  0  0  0  0
  -31.6522  -17.5643   21.4046 C   0  0  0  0  0  0  0  0  0  0  0  0
  -21.1516   -4.2676   22.5455 C   0  0  0  0  0  0  0  0  0  0  0  0
  -23.9150  -10.6529   22.0697 C   0  0  0  0  0  0  0  0  0  0  0  0
  -24.0943  -12.9778   21.0351 C   0  0  0  0  0  0  0  0  0  0  0  0
  -27.6201  -33.9429   18.0234 C   0  0  0  0  0  0  0  0  0  0  0  0
  -24.8645  -28.0848   21.4833 C   0  0  0  0  0  0  0  0  0  0  0  0
  -27.6356  -32.6169   18.4965 C   0  0  0  0  0  0  0  0  0  0  0  0
  -25.3026  -27.9461   22.8080 C   0  0  0  0  0  0  0  0  0  0  0  0
  -29.4076  -18.4317   21.6200 C   0  0  0  0  0  0  0  0  0  0  0  0
  -29.9170  -19.6199   22.1438 C   0  0  0  0  0  0  0  0  0  0  0  0
  -30.2752  -17.4039   21.2504 C   0  0  0  0  0  0  0  0  0  0  0  0
  -32.1616  -18.7525   21.9285 C   0  0  0  0  0  0  0  0  0  0  0  0
  -31.2941  -19.7803   22.2981 C   0  0  0  0  0  0  0  0  0  0  0  0
  -22.5624   -8.5812   23.3584 C   0  0  0  0  0  0  0  0  0  0  0  0
  -25.8083  -25.6065   22.3827 C   0  0  0  0  0  0  0  0  0  0  0  0
  -22.0748   -6.2867   23.4985 C   0  0  0  0  0  0  0  0  0  0  0  0
  -22.4257   -3.7008   22.5123 C   0  0  0  0  0  0  0  0  0  0  0  0
  -20.9762   -5.5606   23.0386 C   0  0  0  0  0  0  0  0  0  0  0  0
  -24.6143  -11.7229   21.4046 C   0  0  0  0  0  0  0  0  0  0  0  0
  -25.1494  -13.6247   20.4394 C   0  0  0  0  0  0  0  0  0  0  0  0
  -22.7755  -13.5111   21.2143 C   0  0  0  0  0  0  0  0  0  0  0  0
  -26.2586  -30.9414   21.4881 C   0  0  0  0  0  0  0  0  0  0  0  0
  -24.3623  -31.4305   24.0740 C   0  0  0  0  0  0  0  0  0  0  0  0
  -22.5808  -30.0866   26.6561 C   0  0  0  0  0  0  0  0  0  0  0  0
  -30.5218  -15.0815   20.3061 C   0  0  0  0  0  0  0  0  0  0  0  0
  -27.7405  -35.1202   18.9584 C   0  0  0  0  0  0  0  0  0  0  0  0
  -24.3254  -29.4007   20.9931 C   0  0  0  0  0  0  0  0  0  0  0  0
  -25.2836  -29.1009   23.7746 C   0  0  0  0  0  0  0  0  0  0  0  0
  -27.4385  -34.7750   20.4144 C   0  0  0  0  0  0  0  0  0  0  0  0
  -29.6733  -11.8906   18.9736 C   0  0  0  0  0  0  0  0  0  0  0  0
  -28.1609  -33.4943   20.8203 C   0  0  0  0  0  0  0  0  0  0  0  0
  -28.2387  -11.6658   19.4569 C   0  0  0  0  0  0  0  0  0  0  0  0
  -27.3949  -21.8387   23.6623 C   0  0  0  0  0  0  0  0  0  0  0  0
  -30.5181  -12.6129   20.0216 C   0  0  0  0  0  0  0  0  0  0  0  0
  -28.4751  -20.7739   23.8406 C   0  0  0  0  0  0  0  0  0  0  0  0
  -28.6104  -21.6935   21.6060 C   0  0  0  0  0  0  0  0  0  0  0  0
  -28.5092  -13.6422   21.0086 C   0  0  0  0  0  0  0  0  0  0  0  0
  -27.6898  -32.3040   19.9761 C   0  0  1  0  0  0  0  0  0  0  0  0
  -24.8312  -30.5918   21.8011 C   0  0  1  0  0  0  0  0  0  0  0  0
  -27.9485  -22.7125   22.5405 C   0  0  1  0  0  0  0  0  0  0  0  0
  -27.6021  -12.9757   19.9613 C   0  0  2  0  0  0  0  0  0  0  0  0
  -27.9295  -18.2574   21.4534 C   0  0  0  0  0  0  0  0  0  0  0  0
  -21.1684  -30.7393   28.6249 C   0  0  0  0  0  0  0  0  0  0  0  0
  -26.8756  -32.2260   25.6103 C   0  0  0  0  0  0  0  0  0  0  0  0
  -25.5828  -31.9407   27.7352 C   0  0  0  0  0  0  0  0  0  0  0  0
  -24.8762  -33.6568   26.0684 C   0  0  0  0  0  0  0  0  0  0  0  0
  -20.2198  -28.6616   25.5820 C   0  0  0  0  0  0  0  0  0  0  0  0
  -26.8850  -23.5526   21.8554 C   0  0  0  0  0  0  0  0  0  1  0  0
  -24.5033  -31.2084   25.5605 C   0  0  1  0  0  0  0  0  0  0  0  0
  -21.1718  -30.3531   27.1540 C   0  0  2  0  0  0  0  0  0  0  0  0
  -25.4618  -32.2365   26.2251 C   0  0  0  0  0  0  0  0  0  0  0  0
  -25.8997  -11.5790   21.0715 N   0  0  0  0  0  0  0  0  0  0  0  0
  -26.1963  -12.7519   20.4863 N   0  0  0  0  0  0  0  0  0  0  0  0
  -29.0568  -20.6340   22.5080 N   0  0  3  0  0  0  0  0  0  0  0  0
  -24.7533  -30.3686   23.2462 N   0  0  0  0  0  0  0  0  0  0  0  0
  -29.8547  -13.8465   20.4493 N   0  0  0  0  0  0  0  0  0  0  0  0
  -33.5601  -18.8919   22.0758 N   0  0  0  0  0  0  0  0  0  0  0  0
  -31.8128  -20.9856   22.8296 N   0  0  0  0  0  0  0  0  0  0  0  0
  -25.2744  -14.8494   19.8854 N   0  0  0  0  0  0  0  0  0  0  0  0
  -21.8121  -12.7127   21.8458 N   0  0  0  0  0  0  0  0  0  0  0  0
  -29.7798  -16.1886   20.7164 N   0  0  0  0  0  0  0  0  0  0  0  0
  -26.4032  -31.8321   20.4415 N   0  0  0  0  0  0  0  0  0  0  0  0
  -23.1496  -31.2151   26.1045 N   0  0  0  0  0  0  0  0  0  0  0  0
  -20.3243  -29.1390   26.9849 N   0  3  0  0  0  0  0  0  0  0  0  0
  -22.4563  -14.6552   20.8113 O   0  0  0  0  0  0  0  0  0  0  0  0
  -27.1618  -30.4413   22.1482 O   0  0  0  0  0  0  0  0  0  0  0  0
  -23.9147  -32.5039   23.6627 O   0  0  0  0  0  0  0  0  0  0  0  0
  -23.1241  -28.9882   26.7507 O   0  0  0  0  0  0  0  0  0  0  0  0
  -31.6566  -15.1545   19.8276 O   0  0  0  0  0  0  0  0  0  0  0  0
  -21.9023   -7.5707   23.9876 O   0  0  0  0  0  0  0  0  0  0  0  0
  -26.2719  -24.4048   22.8219 O   0  0  0  0  0  0  0  0  0  1  0  0
  -22.5946   -2.4598   22.0374 F   0  0  0  0  0  0  0  0  0  0  0  0
  -19.7499   -6.1003   23.0670 F   0  0  0  0  0  0  0  0  0  0  0  0
  1  2  1  0  0  0  0
  1  5  2  0  0  0  0
  2  6  2  0  0  0  0
  3  8  2  0  0  0  0
  3 16  1  0  0  0  0
  4  9  1  0  0  0  0
  4 16  2  0  0  0  0
  5 18  1  0  0  0  0
  6 20  1  0  0  0  0
  7 10  2  0  0  0  0
  7 19  1  0  0  0  0
  8 27  1  0  0  0  0
  9 27  2  0  0  0  0
 10 28  1  0  0  0  0
 11 12  2  0  0  0  0
 11 29  1  0  0  0  0
 12 30  1  0  0  0  0
 13 21  1  0  0  0  0
 13 28  2  0  0  0  0
 14 24  1  0  0  0  0
 14 25  2  0  0  0  0
 15 30  2  0  0  0  0
 15 31  1  0  0  0  0
 16 32  1  0  0  0  0
 17 32  1  0  0  0  0
 17 33  2  0  0  0  0
 17 34  1  0  0  0  0
 18 20  2  0  0  0  0
 18 39  1  0  0  0  0
 19 21  2  0  0  0  0
 19 40  1  0  0  0  0
 20 51  1  0  0  0  0
 21 41  1  0  0  0  0
 22 23  1  0  0  0  0
 22 24  2  0  0  0  0
 22 55  1  0  0  0  0
 23 26  2  0  0  0  0
 23 67  1  0  0  0  0
 24 74  1  0  0  0  0
 25 26  1  0  0  0  0
 25 70  1  0  0  0  0
 26 71  1  0  0  0  0
 27 83  1  0  0  0  0
 28 84  1  0  0  0  0
 29 31  2  0  0  0  0
 29 83  1  0  0  0  0
 30 85  1  0  0  0  0
 31 86  1  0  0  0  0
 32 65  2  0  0  0  0
 33 66  1  0  0  0  0
 33 72  1  0  0  0  0
 34 73  1  0  0  0  0
 34 78  2  0  0  0  0
 35 52  1  0  0  0  0
 35 75  1  0  0  0  0
 35 79  2  0  0  0  0
 36 62  1  0  0  0  0
 36 68  1  0  0  0  0
 36 80  2  0  0  0  0
 37 63  1  0  0  0  0
 37 76  1  0  0  0  0
 37 81  2  0  0  0  0
 38 69  1  0  0  0  0
 38 74  1  0  0  0  0
 38 82  2  0  0  0  0
 39 42  1  0  0  0  0
 40 52  1  0  0  0  0
 41 68  1  0  0  0  0
 42 44  1  0  0  0  0
 43 45  1  0  0  0  0
 43 47  1  0  0  0  0
 44 51  1  0  0  0  0
 45 54  1  0  0  0  0
 46 48  1  0  0  0  0
 46 53  1  0  0  0  0
 47 69  1  0  0  0  0
 48 67  1  0  0  0  0
 49 53  1  0  0  0  0
 49 67  1  0  0  0  0
 50 54  1  0  0  0  0
 50 69  1  0  0  0  0
 51 75  1  0  0  0  0
 52 68  1  0  0  0  0
 53 61  1  0  0  0  0
 54 66  1  0  0  0  0
 56 63  1  0  0  0  0
 57 64  1  0  0  0  0
 58 64  1  0  0  0  0
 59 64  1  0  0  0  0
 60 77  1  0  0  0  0
 61 84  1  0  0  0  0
 62 64  1  0  0  0  0
 62 76  1  0  0  0  0
 63 77  1  0  0  0  0
 65 66  1  0  0  0  0
M  CHG  1  77   1
M  ISO  4  38 100  61 101  74 100  84 101
M  END
> <Batch ID>
0099

> <Smiles>
CNC(C)C(=O)NC(C(=O)N1Cc2cc([101O:1][101CH2:1]C3CCN(c4c(C)c([100NH:0][100C:0](=O)N5CCCC(n6nc(-c7ccc(Oc8ccc(F)cc8F)cc7)c(C(N)=O)c6N)C5)cc(N)c4N)C3)ccc2CC1C(=O)NC1CCCc2ccccc21)C(C)(C)C

> <Shape>
0.264

> <Color>
0.155

> <Negative vol penalty>
0.000

$$$$

  -OEChem-04052300543D

 85 93  0     1  0  0  0  0  0999 V2000
  -25.4477  -34.5923   19.4278 C   0  0  0  0  0  0  0  0  0  0  0  0
  -26.0663  -33.3971   19.7801 C   0  0  0  0  0  0  0  0  0  0  0  0
  -22.9395  -10.1912   20.3028 C   0  0  0  0  0  0  0  0  0  0  0  0
  -24.2821   -9.3062   22.1059 C   0  0  0  0  0  0  0  0  0  0  0  0
  -24.2007  -34.9144   19.9618 C   0  0  0  0  0  0  0  0  0  0  0  0
  -25.4387  -32.5236   20.6676 C   0  0  0  0  0  0  0  0  0  0  0  0
  -25.6577  -27.7033   19.1308 C   0  0  0  0  0  0  0  0  0  0  0  0
  -22.1631   -9.0325   20.3121 C   0  0  0  0  0  0  0  0  0  0  0  0
  -23.5057   -8.1475   22.1153 C   0  0  0  0  0  0  0  0  0  0  0  0
  -26.8607  -27.0266   19.3268 C   0  0  0  0  0  0  0  0  0  0  0  0
  -20.4881   -7.1826   23.2915 C   0  0  0  0  0  0  0  0  0  0  0  0
  -20.0734   -6.6923   24.5297 C   0  0  0  0  0  0  0  0  0  0  0  0
  -25.9402  -25.9715   21.2911 C   0  0  0  0  0  0  0  0  0  0  0  0
  -29.9076  -19.2446   22.1818 C   0  0  0  0  0  0  0  0  0  0  0  0
  -31.8063  -19.2623   20.6881 C   0  0  0  0  0  0  0  0  0  0  0  0
  -21.2368   -4.6192   24.0984 C   0  0  0  0  0  0  0  0  0  0  0  0
  -23.9991  -10.3281   21.1996 C   0  0  0  0  0  0  0  0  0  0  0  0
  -24.5826  -12.7013   21.9310 C   0  0  0  0  0  0  0  0  0  0  0  0
  -23.5532  -34.0400   20.8488 C   0  0  0  0  0  0  0  0  0  0  0  0
  -24.5887  -27.5273   20.0212 C   0  0  0  0  0  0  0  0  0  0  0  0
  -24.1825  -32.8349   21.2150 C   0  0  0  0  0  0  0  0  0  0  0  0
  -24.7237  -26.6452   21.1027 C   0  0  0  0  0  0  0  0  0  0  0  0
  -31.3190  -17.2923   21.9991 C   0  0  0  0  0  0  0  0  0  0  0  0
  -30.7029  -19.9072   21.2470 C   0  0  0  0  0  0  0  0  0  0  0  0
  -30.2156  -17.9372   22.5579 C   0  0  0  0  0  0  0  0  0  0  0  0
  -22.4462   -8.0106   21.2184 C   0  0  0  0  0  0  0  0  0  0  0  0
  -27.0031  -26.1627   20.4087 C   0  0  0  0  0  0  0  0  0  0  0  0
  -21.2771   -6.3913   22.4567 C   0  0  0  0  0  0  0  0  0  0  0  0
  -20.4478   -5.4106   24.9332 C   0  0  0  0  0  0  0  0  0  0  0  0
  -32.1144  -17.9549   21.0642 C   0  0  0  0  0  0  0  0  0  0  0  0
  -21.6515   -5.1096   22.8601 C   0  0  0  0  0  0  0  0  0  0  0  0
  -24.8018  -11.5246   21.1900 C   0  0  0  0  0  0  0  0  0  0  0  0
  -25.6156  -13.5316   21.5704 C   0  0  0  0  0  0  0  0  0  0  0  0
  -23.5386  -13.0157   22.8621 C   0  0  0  0  0  0  0  0  0  0  0  0
  -22.9649  -29.4315   21.9810 C   0  0  0  0  0  0  0  0  0  0  0  0
  -29.2420  -23.3318   20.7778 C   0  0  0  0  0  0  0  0  0  0  0  0
  -21.1264  -26.7910   22.3934 C   0  0  0  0  0  0  0  0  0  0  0  0
  -20.8699  -23.3903   22.2654 C   0  0  0  0  0  0  0  0  0  0  0  0
  -31.0282  -14.3903   20.5161 C   0  0  0  0  0  0  0  0  0  0  0  0
  -22.2272  -34.4532   21.4370 C   0  0  0  0  0  0  0  0  0  0  0  0
  -23.2885  -28.2442   19.7806 C   0  0  0  0  0  0  0  0  0  0  0  0
  -23.5994  -26.4058   22.0759 C   0  0  0  0  0  0  0  0  0  0  0  0
  -21.4602  -33.3003   22.0795 C   0  0  0  0  0  0  0  0  0  0  0  0
  -29.0274  -13.1210   17.8586 C   0  0  0  0  0  0  0  0  0  0  0  0
  -22.3837  -32.4754   22.9703 C   0  0  0  0  0  0  0  0  0  0  0  0
  -27.7349  -12.6841   18.5504 C   0  0  0  0  0  0  0  0  0  0  0  0
  -30.2519  -12.8570   18.7320 C   0  0  0  0  0  0  0  0  0  0  0  0
  -28.8882  -12.9949   20.7802 C   0  0  0  0  0  0  0  0  0  0  0  0
  -23.5223  -31.8501   22.1554 C   0  0  1  0  0  0  0  0  0  0  0  0
  -22.4405  -28.3828   21.0412 C   0  0  1  0  0  0  0  0  0  0  0  0
  -27.6206  -13.2925   19.9610 C   0  0  2  0  0  0  0  0  0  0  0  0
  -19.2544  -21.5190   22.6964 C   0  0  0  0  0  0  0  0  0  0  0  0
  -21.5625  -27.1095   25.3965 C   0  0  0  0  0  0  0  0  0  0  0  0
  -20.7636  -24.7552   25.6917 C   0  0  0  0  0  0  0  0  0  0  0  0
  -19.2324  -26.4801   24.7417 C   0  0  0  0  0  0  0  0  0  0  0  0
  -20.9624  -22.5052   19.4428 C   0  0  0  0  0  0  0  0  0  0  0  0
  -31.6688  -15.8918   22.3854 C   0  0  0  0  0  0  0  0  0  0  0  0
  -29.2784  -21.9503   21.3961 C   0  0  0  0  0  0  0  0  0  0  0  0
  -28.1055  -24.2248   21.2364 C   0  0  0  0  0  0  0  0  0  1  0  0
  -21.1454  -25.6115   23.3354 C   0  0  1  0  0  0  0  0  0  0  0  0
  -19.8146  -22.4818   21.6610 C   0  0  2  0  0  0  0  0  0  0  0  0
  -20.6980  -25.9948   24.7743 C   0  0  0  0  0  0  0  0  0  0  0  0
  -25.8886  -11.5970   20.4170 N   0  0  0  0  0  0  0  0  0  0  0  0
  -26.3615  -12.8292   20.6702 N   0  0  0  0  0  0  0  0  0  0  0  0
  -22.3501  -27.1347   21.8017 N   0  0  0  0  0  0  0  0  0  0  0  0
  -30.0804  -13.4616   20.0553 N   0  0  0  0  0  0  0  0  0  0  0  0
  -29.3992  -17.2820   23.5059 N   0  0  0  0  0  0  0  0  0  0  0  0
  -25.9495  -14.7867   21.9387 N   0  0  0  0  0  0  0  0  0  0  0  0
  -22.5571  -12.0482   23.1171 N   0  0  0  0  0  0  0  0  0  0  0  0
  -30.3963  -21.2076   20.8727 N   0  0  0  0  0  0  0  0  0  0  0  0
  -23.0463  -30.6943   21.4260 N   0  0  0  0  0  0  0  0  0  0  0  0
  -20.3277  -24.5772   22.7110 N   0  0  0  0  0  0  0  0  0  0  0  0
  -30.7871  -14.9201   21.7778 N   0  0  0  0  0  0  0  0  0  0  0  0
  -20.3954  -21.6847   20.5438 N   0  3  0  0  0  0  0  0  0  0  0  0
  -23.4687  -14.1278   23.4381 O   0  0  0  0  0  0  0  0  0  0  0  0
  -23.2715  -29.1183   23.1254 O   0  0  0  0  0  0  0  0  0  0  0  0
  -30.0738  -23.7152   19.9564 O   0  0  0  0  0  0  0  0  0  0  0  0
  -20.0634  -27.3811   22.1846 O   0  0  0  0  0  0  0  0  0  0  0  0
  -22.0561  -23.0768   22.3384 O   0  0  0  0  0  0  0  0  0  0  0  0
  -32.0133  -14.7266   19.8501 O   0  0  0  0  0  0  0  0  0  0  0  0
  -21.6886   -6.8799   21.2280 O   0  0  0  0  0  0  0  0  0  0  0  0
  -28.1765  -25.5014   20.6027 O   0  0  0  0  0  0  0  0  0  1  0  0
  -20.0508   -4.9404   26.1229 F   0  0  0  0  0  0  0  0  0  0  0  0
  -33.1758  -17.3435   20.5195 F   0  0  0  0  0  0  0  0  0  0  0  0
  -22.4103   -4.3452   22.0629 F   0  0  0  0  0  0  0  0  0  0  0  0
  1  2  1  0  0  0  0
  1  5  2  0  0  0  0
  2  6  2  0  0  0  0
  3  8  2  0  0  0  0
  3 17  1  0  0  0  0
  4  9  1  0  0  0  0
  4 17  2  0  0  0  0
  5 19  1  0  0  0  0
  6 21  1  0  0  0  0
  7 10  2  0  0  0  0
  7 20  1  0  0  0  0
  8 26  1  0  0  0  0
  9 26  2  0  0  0  0
 10 27  1  0  0  0  0
 11 12  2  0  0  0  0
 11 28  1  0  0  0  0
 12 29  1  0  0  0  0
 13 22  1  0  0  0  0
 13 27  2  0  0  0  0
 14 24  1  0  0  0  0
 14 25  2  0  0  0  0
 15 24  2  0  0  0  0
 15 30  1  0  0  0  0
 16 29  2  0  0  0  0
 16 31  1  0  0  0  0
 17 32  1  0  0  0  0
 18 32  1  0  0  0  0
 18 33  2  0  0  0  0
 18 34  1  0  0  0  0
 19 21  2  0  0  0  0
 19 40  1  0  0  0  0
 20 22  2  0  0  0  0
 20 41  1  0  0  0  0
 21 49  1  0  0  0  0
 22 42  1  0  0  0  0
 23 25  1  0  0  0  0
 23 30  2  0  0  0  0
 23 57  1  0  0  0  0
 24 70  1  0  0  0  0
 25 67  1  0  0  0  0
 26 81  1  0  0  0  0
 27 82  1  0  0  0  0
 28 31  2  0  0  0  0
 28 81  1  0  0  0  0
 29 83  1  0  0  0  0
 30 84  1  0  0  0  0
 31 85  1  0  0  0  0
 32 63  2  0  0  0  0
 33 64  1  0  0  0  0
 33 68  1  0  0  0  0
 34 69  1  0  0  0  0
 34 75  2  0  0  0  0
 35 50  1  0  0  0  0
 35 71  1  0  0  0  0
 35 76  2  0  0  0  0
 36 58  1  0  0  0  0
 36 59  1  0  0  0  0
 36 77  2  0  0  0  0
 37 60  1  0  0  0  0
 37 65  1  0  0  0  0
 37 78  2  0  0  0  0
 38 61  1  0  0  0  0
 38 72  1  0  0  0  0
 38 79  2  0  0  0  0
 39 66  1  0  0  0  0
 39 73  1  0  0  0  0
 39 80  2  0  0  0  0
 40 43  1  0  0  0  0
 41 50  1  0  0  0  0
 42 65  1  0  0  0  0
 43 45  1  0  0  0  0
 44 46  1  0  0  0  0
 44 47  1  0  0  0  0
 45 49  1  0  0  0  0
 46 51  1  0  0  0  0
 47 66  1  0  0  0  0
 48 51  1  0  0  0  0
 48 66  1  0  0  0  0
 49 71  1  0  0  0  0
 50 65  1  0  0  0  0
 51 64  1  0  0  0  0
 52 61  1  0  0  0  0
 53 62  1  0  0  0  0
 54 62  1  0  0  0  0
 55 62  1  0  0  0  0
 56 74  1  0  0  0  0
 57 73  1  0  0  0  0
 58 70  1  0  0  0  0
 59 82  1  0  0  0  0
 60 62  1  0  0  0  0
 60 72  1  0  0  0  0
 61 74  1  0  0  0  0
 63 64  1  0  0  0  0
M  CHG  1  74   1
M  ISO  4  39 100  59 101  73 100  82 101
M  END
> <Batch ID>
0099

> <Smiles>
CNC(C)C(=O)NC(C(=O)N1Cc2cc([101O:1][101CH2:1]C(=O)CNc3cc(N)c(C[100NH:0][100C:0](=O)N4CCCC(n5nc(-c6ccc(Oc7ccc(F)cc7F)cc6)c(C(N)=O)c5N)C4)c(F)c3)ccc2CC1C(=O)NC1CCCc2ccccc21)C(C)(C)C

> <Shape>
0.300

> <Color>
0.142

> <Negative vol penalty>
0.000

$$$$

  -OEChem-04052300543D

 88 97  0     1  0  0  0  0  0999 V2000
  -18.8338  -27.2997   21.3680 C   0  0  0  0  0  0  0  0  0  0  0  0
  -19.3162  -26.0254   21.6488 C   0  0  0  0  0  0  0  0  0  0  0  0
  -27.6251  -23.3023   20.4722 C   0  0  0  0  0  0  0  0  0  0  0  0
  -29.1895  -23.4385   18.6361 C   0  0  0  0  0  0  0  0  0  0  0  0
  -25.1979  -14.7054   21.5727 C   0  0  0  0  0  0  0  0  0  0  0  0
  -18.1269  -27.5321   20.1889 C   0  0  0  0  0  0  0  0  0  0  0  0
  -19.0912  -24.9824   20.7511 C   0  0  0  0  0  0  0  0  0  0  0  0
  -22.8560  -20.3134   19.5133 C   0  0  0  0  0  0  0  0  0  0  0  0
  -23.8574  -14.7246   21.1878 C   0  0  0  0  0  0  0  0  0  0  0  0
  -27.6574  -24.6906   20.6028 C   0  0  0  0  0  0  0  0  0  0  0  0
  -29.2218  -24.8269   18.7666 C   0  0  0  0  0  0  0  0  0  0  0  0
  -22.8967  -18.9957   19.9669 C   0  0  0  0  0  0  0  0  0  0  0  0
  -26.2975  -27.3707   19.0534 C   0  0  0  0  0  0  0  0  0  0  0  0
  -25.0816  -28.0351   19.2139 C   0  0  0  0  0  0  0  0  0  0  0  0
  -21.6740  -18.2908   18.0106 C   0  0  0  0  0  0  0  0  0  0  0  0
  -24.0719  -12.4767   20.3288 C   0  0  0  0  0  0  0  0  0  0  0  0
  -25.8319  -28.8932   21.3441 C   0  0  0  0  0  0  0  0  0  0  0  0
  -28.3911  -22.6762   19.4888 C   0  0  0  0  0  0  0  0  0  0  0  0
  -25.9755  -13.5719   21.3356 C   0  0  0  0  0  0  0  0  0  0  0  0
  -27.4845  -20.4832   18.5525 C   0  0  0  0  0  0  0  0  0  0  0  0
  -17.9014  -26.4936   19.2717 C   0  0  0  0  0  0  0  0  0  0  0  0
  -22.2134  -20.6318   18.3083 C   0  0  0  0  0  0  0  0  0  0  0  0
  -18.3795  -25.2008   19.5592 C   0  0  0  0  0  0  0  0  0  0  0  0
  -21.6287  -19.6129   17.5426 C   0  0  0  0  0  0  0  0  0  0  0  0
  -23.2943  -13.6103   20.5659 C   0  0  0  0  0  0  0  0  0  0  0  0
  -28.4557  -25.4529   19.7500 C   0  0  0  0  0  0  0  0  0  0  0  0
  -22.3032  -17.9845   19.2170 C   0  0  0  0  0  0  0  0  0  0  0  0
  -27.2805  -27.4674   20.0382 C   0  0  0  0  0  0  0  0  0  0  0  0
  -25.4125  -12.4575   20.7136 C   0  0  0  0  0  0  0  0  0  0  0  0
  -24.8489  -28.7965   20.3593 C   0  0  0  0  0  0  0  0  0  0  0  0
  -27.0478  -28.2287   21.1836 C   0  0  0  0  0  0  0  0  0  0  0  0
  -28.3586  -21.2420   19.3538 C   0  0  0  0  0  0  0  0  0  0  0  0
  -27.8593  -19.1806   18.7741 C   0  0  0  0  0  0  0  0  0  0  0  0
  -21.2181  -12.5826   19.5353 C   0  0  0  0  0  0  0  0  0  0  0  0
  -27.4010  -13.5729   21.7536 C   0  0  0  0  0  0  0  0  0  0  0  0
  -26.4283  -20.9171   17.6854 C   0  0  0  0  0  0  0  0  0  0  0  0
  -19.7314  -22.4461   17.5009 C   0  0  0  0  0  0  0  0  0  0  0  0
  -20.6628  -21.6978   14.4851 C   0  0  0  0  0  0  0  0  0  0  0  0
  -22.3034  -19.5411   12.4106 C   0  0  0  0  0  0  0  0  0  0  0  0
  -29.3524  -15.0438   22.1439 C   0  0  0  0  0  0  0  0  0  0  0  0
  -17.0912  -26.7824   18.0328 C   0  0  0  0  0  0  0  0  0  0  0  0
  -22.2014  -22.0543   17.8196 C   0  0  0  0  0  0  0  0  0  0  0  0
  -20.9441  -19.8994   16.2320 C   0  0  0  0  0  0  0  0  0  0  0  0
  -19.7948  -13.0446   19.3297 C   0  0  0  0  0  0  0  0  0  0  0  0
  -17.2193  -25.7072   16.9568 C   0  0  0  0  0  0  0  0  0  0  0  0
  -19.6525  -14.1959   20.3071 C   0  0  0  0  0  0  0  0  0  0  0  0
  -31.9082  -17.2722   21.1444 C   0  0  0  0  0  0  0  0  0  0  0  0
  -17.0720  -24.3182   17.5699 C   0  0  0  0  0  0  0  0  0  0  0  0
  -31.1435  -18.4399   20.5153 C   0  0  0  0  0  0  0  0  0  0  0  0
  -31.1785  -16.7062   22.3618 C   0  0  0  0  0  0  0  0  0  0  0  0
  -29.0144  -17.5092   21.5076 C   0  0  0  0  0  0  0  0  0  0  0  0
  -18.1770  -24.0492   18.5985 C   0  0  1  0  0  0  0  0  0  0  0  0
  -21.0729  -22.3376   16.8329 C   0  0  1  0  0  0  0  0  0  0  0  0
  -29.6732  -18.0685   20.2362 C   0  0  1  0  0  0  0  0  0  0  0  0
  -21.0548  -14.7907   20.3723 C   0  0  2  0  0  0  0  0  0  0  0  0
  -22.8613  -19.1753    9.9915 C   0  0  0  0  0  0  0  0  0  0  0  0
  -17.8077  -20.7517   13.9722 C   0  0  0  0  0  0  0  0  0  0  0  0
  -18.6440  -19.5539   11.9390 C   0  0  0  0  0  0  0  0  0  0  0  0
  -18.8351  -22.0366   12.0886 C   0  0  0  0  0  0  0  0  0  0  0  0
  -25.2115  -19.6935   12.9383 C   0  0  0  0  0  0  0  0  0  0  0  0
  -26.8410  -11.2758   19.2242 C   0  0  0  0  0  0  0  0  0  0  0  0
  -21.2525  -15.8522   19.2878 C   0  0  0  0  0  0  0  0  0  1  0  0
  -20.3429  -20.5894   13.5114 C   0  0  1  0  0  0  0  0  0  0  0  0
  -23.3203  -19.7802   11.3091 C   0  0  2  0  0  0  0  0  0  0  0  0
  -18.9185  -20.7275   12.9034 C   0  0  0  0  0  0  0  0  0  0  0  0
  -29.2234  -20.4845   20.0338 N   0  0  0  0  0  0  0  0  0  0  0  0
  -28.8945  -19.2361   19.6603 N   0  0  0  0  0  0  0  0  0  0  0  0
  -21.9182  -13.6304   20.1703 N   0  0  0  0  0  0  0  0  0  0  0  0
  -20.9533  -21.3067   15.7998 N   0  0  0  0  0  0  0  0  0  0  0  0
  -29.7970  -16.3709   22.0121 N   0  0  0  0  0  0  0  0  0  0  0  0
  -27.4010  -18.0045   18.2954 N   0  0  0  0  0  0  0  0  0  0  0  0
  -26.1771  -22.2915   17.5743 N   0  0  0  0  0  0  0  0  0  0  0  0
  -28.0306  -14.8179   21.7440 N   0  0  0  0  0  0  0  0  0  0  0  0
  -19.4190  -23.7213   17.9319 N   0  0  0  0  0  0  0  0  0  0  0  0
  -21.4168  -20.5910   12.5239 N   0  0  0  0  0  0  0  0  0  0  0  0
  -24.6314  -19.1727   11.6738 N   0  3  0  0  0  0  0  0  0  0  0  0
  -21.6077  -11.4876   19.1561 O   0  0  0  0  0  0  0  0  0  0  0  0
  -27.9200  -12.5191   22.1115 O   0  0  0  0  0  0  0  0  0  0  0  0
  -25.7174  -20.1091   17.0412 O   0  0  0  0  0  0  0  0  0  0  0  0
  -19.0309  -21.4471   17.6154 O   0  0  0  0  0  0  0  0  0  0  0  0
  -20.6621  -22.8671   14.0920 O   0  0  0  0  0  0  0  0  0  0  0  0
  -22.2940  -18.5229   13.0990 O   0  0  0  0  0  0  0  0  0  0  0  0
  -30.0805  -14.1312   22.5465 O   0  0  0  0  0  0  0  0  0  0  0  0
  -28.4874  -26.8077   19.8770 O   0  0  0  0  0  0  0  0  0  0  0  0
  -26.1559  -11.3408   20.4730 O   0  0  0  0  0  0  0  0  0  0  0  0
  -22.3409  -16.6976   19.6578 O   0  0  0  0  0  0  0  0  0  1  0  0
  -23.6818  -29.4358   20.5126 F   0  0  0  0  0  0  0  0  0  0  0  0
  -27.9888  -28.3263   22.1326 F   0  0  0  0  0  0  0  0  0  0  0  0
  1  2  1  0  0  0  0
  1  6  2  0  0  0  0
  2  7  2  0  0  0  0
  3 10  2  0  0  0  0
  3 18  1  0  0  0  0
  4 11  1  0  0  0  0
  4 18  2  0  0  0  0
  5  9  2  0  0  0  0
  5 19  1  0  0  0  0
  6 21  1  0  0  0  0
  7 23  1  0  0  0  0
  8 12  2  0  0  0  0
  8 22  1  0  0  0  0
  9 25  1  0  0  0  0
 10 26  1  0  0  0  0
 11 26  2  0  0  0  0
 12 27  1  0  0  0  0
 13 14  2  0  0  0  0
 13 28  1  0  0  0  0
 14 30  1  0  0  0  0
 15 24  1  0  0  0  0
 15 27  2  0  0  0  0
 16 25  2  0  0  0  0
 16 29  1  0  0  0  0
 17 30  2  0  0  0  0
 17 31  1  0  0  0  0
 18 32  1  0  0  0  0
 19 29  2  0  0  0  0
 19 35  1  0  0  0  0
 20 32  1  0  0  0  0
 20 33  2  0  0  0  0
 20 36  1  0  0  0  0
 21 23  2  0  0  0  0
 21 41  1  0  0  0  0
 22 24  2  0  0  0  0
 22 42  1  0  0  0  0
 23 52  1  0  0  0  0
 24 43  1  0  0  0  0
 25 68  1  0  0  0  0
 26 84  1  0  0  0  0
 27 86  1  0  0  0  0
 28 31  2  0  0  0  0
 28 84  1  0  0  0  0
 29 85  1  0  0  0  0
 30 87  1  0  0  0  0
 31 88  1  0  0  0  0
 32 66  2  0  0  0  0
 33 67  1  0  0  0  0
 33 71  1  0  0  0  0
 34 44  1  0  0  0  0
 34 68  1  0  0  0  0
 34 77  2  0  0  0  0
 35 73  1  0  0  0  0
 35 78  2  0  0  0  0
 36 72  1  0  0  0  0
 36 79  2  0  0  0  0
 37 53  1  0  0  0  0
 37 74  1  0  0  0  0
 37 80  2  0  0  0  0
 38 63  1  0  0  0  0
 38 69  1  0  0  0  0
 38 81  2  0  0  0  0
 39 64  1  0  0  0  0
 39 75  1  0  0  0  0
 39 82  2  0  0  0  0
 40 70  1  0  0  0  0
 40 73  1  0  0  0  0
 40 83  2  0  0  0  0
 41 45  1  0  0  0  0
 42 53  1  0  0  0  0
 43 69  1  0  0  0  0
 44 46  1  0  0  0  0
 45 48  1  0  0  0  0
 46 55  1  0  0  0  0
 47 49  1  0  0  0  0
 47 50  1  0  0  0  0
 48 52  1  0  0  0  0
 49 54  1  0  0  0  0
 50 70  1  0  0  0  0
 51 54  1  0  0  0  0
 51 70  1  0  0  0  0
 52 74  1  0  0  0  0
 53 69  1  0  0  0  0
 54 67  1  0  0  0  0
 55 62  1  0  0  0  0
 55 68  1  0  0  0  0
 56 64  1  0  0  0  0
 57 65  1  0  0  0  0
 58 65  1  0  0  0  0
 59 65  1  0  0  0  0
 60 76  1  0  0  0  0
 61 85  1  0  0  0  0
 62 86  1  0  0  0  0
 63 65  1  0  0  0  0
 63 75  1  0  0  0  0
 64 76  1  0  0  0  0
 66 67  1  0  0  0  0
M  CHG  1  76   1
M  ISO  4  40 100  62 101  73 100  86 101
M  END
> <Batch ID>
0099

> <Smiles>
CNC(C)C(=O)NC(C(=O)N1Cc2cc([101O:1][101CH2:1]C3CCC(=O)N3c3ccc(C(=O)[100NH:0][100C:0](=O)N4CCCC(n5nc(-c6ccc(Oc7ccc(F)cc7F)cc6)c(C(N)=O)c5N)C4)c(OC)c3)ccc2CC1C(=O)NC1CCCc2ccccc21)C(C)(C)C

> <Shape>
0.196

> <Color>
0.074

> <Negative vol penalty>
0.000

$$$$

  -OEChem-04052300543D

 83 91  0     1  0  0  0  0  0999 V2000
  -30.5324  -33.5782   17.6076 C   0  0  0  0  0  0  0  0  0  0  0  0
  -30.6215  -32.3434   18.2422 C   0  0  0  0  0  0  0  0  0  0  0  0
  -22.9170  -10.1478   19.9038 C   0  0  0  0  0  0  0  0  0  0  0  0
  -23.9468   -9.6449   22.0307 C   0  0  0  0  0  0  0  0  0  0  0  0
  -29.4190  -34.3904   17.8187 C   0  0  0  0  0  0  0  0  0  0  0  0
  -29.5977  -31.9206   19.0893 C   0  0  0  0  0  0  0  0  0  0  0  0
  -28.3009  -27.0881   18.3078 C   0  0  0  0  0  0  0  0  0  0  0  0
  -22.1514   -8.9858   19.9996 C   0  0  0  0  0  0  0  0  0  0  0  0
  -23.1811   -8.4829   22.1266 C   0  0  0  0  0  0  0  0  0  0  0  0
  -29.1378  -26.1098   18.8428 C   0  0  0  0  0  0  0  0  0  0  0  0
  -20.0128   -7.6511   22.9575 C   0  0  0  0  0  0  0  0  0  0  0  0
  -19.4012   -7.3790   24.1812 C   0  0  0  0  0  0  0  0  0  0  0  0
  -27.6183  -25.8318   20.6957 C   0  0  0  0  0  0  0  0  0  0  0  0
  -29.4666  -19.6050   21.1985 C   0  0  0  0  0  0  0  0  0  0  0  0
  -31.5847  -19.4188   20.0513 C   0  0  0  0  0  0  0  0  0  0  0  0
  -20.6229   -5.2998   24.3294 C   0  0  0  0  0  0  0  0  0  0  0  0
  -23.8148  -10.4773   20.9193 C   0  0  0  0  0  0  0  0  0  0  0  0
  -24.2667  -12.9607   21.2887 C   0  0  0  0  0  0  0  0  0  0  0  0
  -28.3765  -33.9732   18.6612 C   0  0  0  0  0  0  0  0  0  0  0  0
  -27.1199  -27.4540   18.9694 C   0  0  0  0  0  0  0  0  0  0  0  0
  -28.4699  -32.7286   19.3129 C   0  0  0  0  0  0  0  0  0  0  0  0
  -26.7668  -26.8133   20.1656 C   0  0  0  0  0  0  0  0  0  0  0  0
  -29.7126  -18.3959   21.8490 C   0  0  0  0  0  0  0  0  0  0  0  0
  -30.8947  -17.6983   21.6008 C   0  0  0  0  0  0  0  0  0  0  0  0
  -30.4026  -20.1164   20.2996 C   0  0  0  0  0  0  0  0  0  0  0  0
  -22.2834   -8.1534   21.1111 C   0  0  0  0  0  0  0  0  0  0  0  0
  -28.7980  -25.4835   20.0384 C   0  0  0  0  0  0  0  0  0  0  0  0
  -20.9294   -6.7476   22.4197 C   0  0  0  0  0  0  0  0  0  0  0  0
  -19.7062   -6.2034   24.8672 C   0  0  0  0  0  0  0  0  0  0  0  0
  -31.8308  -18.2097   20.7019 C   0  0  0  0  0  0  0  0  0  0  0  0
  -21.2344   -5.5720   23.1057 C   0  0  0  0  0  0  0  0  0  0  0  0
  -24.6064  -11.6772   20.8205 C   0  0  0  0  0  0  0  0  0  0  0  0
  -25.3436  -13.7445   20.9536 C   0  0  0  0  0  0  0  0  0  0  0  0
  -30.5778  -22.3951   20.2506 C   0  0  0  0  0  0  0  0  0  0  0  0
  -23.0835  -13.4046   21.9660 C   0  0  0  0  0  0  0  0  0  0  0  0
  -26.0137  -30.1376   20.2650 C   0  0  0  0  0  0  0  0  0  0  0  0
  -23.3114  -28.3828   20.6400 C   0  0  0  0  0  0  0  0  0  0  0  0
  -21.8752  -25.3004   20.9280 C   0  0  0  0  0  0  0  0  0  0  0  0
  -30.8545  -14.5694   20.6463 C   0  0  0  0  0  0  0  0  0  0  0  0
  -27.2150  -34.9062   18.8956 C   0  0  0  0  0  0  0  0  0  0  0  0
  -26.2145  -28.4922   18.3654 C   0  0  0  0  0  0  0  0  0  0  0  0
  -25.4998  -27.1554   20.9045 C   0  0  0  0  0  0  0  0  0  0  0  0
  -25.9990  -34.2215   19.5145 C   0  0  0  0  0  0  0  0  0  0  0  0
  -29.3191  -12.7797   17.9786 C   0  0  0  0  0  0  0  0  0  0  0  0
  -26.4216  -33.3377   20.6837 C   0  0  0  0  0  0  0  0  0  0  0  0
  -27.9312  -12.4341   18.5211 C   0  0  0  0  0  0  0  0  0  0  0  0
  -30.3841  -12.7161   19.0713 C   0  0  0  0  0  0  0  0  0  0  0  0
  -28.7023  -13.1777   20.8127 C   0  0  0  0  0  0  0  0  0  0  0  0
  -27.3683  -32.2242   20.2196 C   0  0  1  0  0  0  0  0  0  0  0  0
  -25.2947  -29.1512   19.3888 C   0  0  1  0  0  0  0  0  0  0  0  0
  -27.5860  -13.2828   19.7596 C   0  0  2  0  0  0  0  0  0  0  0  0
  -28.6956  -17.8683   22.8071 C   0  0  0  0  0  0  0  0  0  0  0  0
  -19.6514  -24.1868   21.2625 C   0  0  0  0  0  0  0  0  0  0  0  0
  -23.3797  -29.1395   23.5951 C   0  0  0  0  0  0  0  0  0  0  0  0
  -21.7555  -27.2858   24.0356 C   0  0  0  0  0  0  0  0  0  0  0  0
  -21.1043  -29.1874   22.5582 C   0  0  0  0  0  0  0  0  0  0  0  0
  -22.0642  -23.8841   18.3362 C   0  0  0  0  0  0  0  0  0  0  0  0
  -31.1772  -16.4025   22.2878 C   0  0  0  0  0  0  0  0  0  0  0  0
  -30.3793  -23.7516   19.6434 C   0  0  0  0  0  0  0  0  0  1  0  0
  -22.7657  -27.4771   21.7174 C   0  0  1  0  0  0  0  0  0  0  0  0
  -20.6671  -24.6843   20.2458 C   0  0  2  0  0  0  0  0  0  0  0  0
  -22.2762  -28.2671   22.9639 C   0  0  0  0  0  0  0  0  0  0  0  0
  -25.8052  -11.6434   20.2327 N   0  0  0  0  0  0  0  0  0  0  0  0
  -30.1555  -21.3344   19.6439 N   0  0  0  0  0  0  0  0  0  0  0  0
  -26.2283  -12.9153   20.3291 N   0  0  0  0  0  0  0  0  0  0  0  0
  -24.6506  -28.1814   20.2769 N   0  0  0  0  0  0  0  0  0  0  0  0
  -29.9967  -13.5435   20.2164 N   0  0  0  0  0  0  0  0  0  0  0  0
  -25.6106  -15.0553   21.1351 N   0  0  0  0  0  0  0  0  0  0  0  0
  -22.0749  -12.4685   22.2320 N   0  0  0  0  0  0  0  0  0  0  0  0
  -26.6241  -31.1654   19.5718 N   0  0  0  0  0  0  0  0  0  0  0  0
  -21.7345  -26.6632   21.0830 N   0  0  0  0  0  0  0  0  0  0  0  0
  -30.4087  -15.3100   21.7341 N   0  0  0  0  0  0  0  0  0  0  0  0
  -21.0833  -23.5334   19.3954 N   0  3  0  0  0  0  0  0  0  0  0  0
  -22.9183  -14.5995   22.3100 O   0  0  0  0  0  0  0  0  0  0  0  0
  -26.0133  -29.9789   21.4801 O   0  0  0  0  0  0  0  0  0  0  0  0
  -22.5745  -29.2327   20.1339 O   0  0  0  0  0  0  0  0  0  0  0  0
  -22.8451  -24.6383   21.2907 O   0  0  0  0  0  0  0  0  0  0  0  0
  -31.9351  -14.8111   20.0976 O   0  0  0  0  0  0  0  0  0  0  0  0
  -21.5363   -7.0196   21.2051 O   0  0  0  0  0  0  0  0  0  0  0  0
  -29.6134  -24.5287   20.5631 O   0  0  0  0  0  0  0  0  0  1  0  0
  -19.1200   -5.9429   26.0431 F   0  0  0  0  0  0  0  0  0  0  0  0
  -32.9700  -17.5472   20.4564 F   0  0  0  0  0  0  0  0  0  0  0  0
  -22.1151   -4.7007   22.5946 F   0  0  0  0  0  0  0  0  0  0  0  0
  1  2  1  0  0  0  0
  1  5  2  0  0  0  0
  2  6  2  0  0  0  0
  3  8  2  0  0  0  0
  3 17  1  0  0  0  0
  4  9  1  0  0  0  0
  4 17  2  0  0  0  0
  5 19  1  0  0  0  0
  6 21  1  0  0  0  0
  7 10  2  0  0  0  0
  7 20  1  0  0  0  0
  8 26  1  0  0  0  0
  9 26  2  0  0  0  0
 10 27  1  0  0  0  0
 11 12  2  0  0  0  0
 11 28  1  0  0  0  0
 12 29  1  0  0  0  0
 13 22  1  0  0  0  0
 13 27  2  0  0  0  0
 14 23  2  0  0  0  0
 14 25  1  0  0  0  0
 15 25  2  0  0  0  0
 15 30  1  0  0  0  0
 16 29  2  0  0  0  0
 16 31  1  0  0  0  0
 17 32  1  0  0  0  0
 18 32  1  0  0  0  0
 18 33  2  0  0  0  0
 18 35  1  0  0  0  0
 19 21  2  0  0  0  0
 19 40  1  0  0  0  0
 20 22  2  0  0  0  0
 20 41  1  0  0  0  0
 21 49  1  0  0  0  0
 22 42  1  0  0  0  0
 23 24  1  0  0  0  0
 23 52  1  0  0  0  0
 24 30  2  0  0  0  0
 24 58  1  0  0  0  0
 25 64  1  0  0  0  0
 26 79  1  0  0  0  0
 27 80  1  0  0  0  0
 28 31  2  0  0  0  0
 28 79  1  0  0  0  0
 29 81  1  0  0  0  0
 30 82  1  0  0  0  0
 31 83  1  0  0  0  0
 32 63  2  0  0  0  0
 33 65  1  0  0  0  0
 33 68  1  0  0  0  0
 34 59  1  0  0  0  0
 34 64  2  0  0  0  0
 35 69  1  0  0  0  0
 35 74  2  0  0  0  0
 36 50  1  0  0  0  0
 36 70  1  0  0  0  0
 36 75  2  0  0  0  0
 37 60  1  0  0  0  0
 37 66  1  0  0  0  0
 37 76  2  0  0  0  0
 38 61  1  0  0  0  0
 38 71  1  0  0  0  0
 38 77  2  0  0  0  0
 39 67  1  0  0  0  0
 39 72  1  0  0  0  0
 39 78  2  0  0  0  0
 40 43  1  0  0  0  0
 41 50  1  0  0  0  0
 42 66  1  0  0  0  0
 43 45  1  0  0  0  0
 44 46  1  0  0  0  0
 44 47  1  0  0  0  0
 45 49  1  0  0  0  0
 46 51  1  0  0  0  0
 47 67  1  0  0  0  0
 48 51  1  0  0  0  0
 48 67  1  0  0  0  0
 49 70  1  0  0  0  0
 50 66  1  0  0  0  0
 51 65  1  0  0  0  0
 53 61  1  0  0  0  0
 54 62  1  0  0  0  0
 55 62  1  0  0  0  0
 56 62  1  0  0  0  0
 57 73  1  0  0  0  0
 58 72  1  0  0  0  0
 59 80  1  0  0  0  0
 60 62  1  0  0  0  0
 60 71  1  0  0  0  0
 61 73  1  0  0  0  0
 63 65  1  0  0  0  0
M  CHG  1  73   1
M  ISO  4  39 100  59 101  72 100  80 101
M  END
> <Batch ID>
0099

> <Smiles>
CNC(C)C(=O)NC(C(=O)N1Cc2cc([101O:1][101CH:1]=CNc3cc(C)c(C[100NH:0][100C:0](=O)N4CCCC(n5nc(-c6ccc(Oc7ccc(F)cc7F)cc6)c(C(N)=O)c5N)C4)c(F)c3)ccc2CC1C(=O)NC1CCCc2ccccc21)C(C)(C)C

> <Shape>
0.316

> <Color>
0.186

> <Negative vol penalty>
0.000

$$$$

  -OEChem-04052300543D

 87 96  0     1  0  0  0  0  0999 V2000
  -17.0264  -25.6042   22.2487 C   0  0  0  0  0  0  0  0  0  0  0  0
  -18.2208  -25.4877   21.5449 C   0  0  0  0  0  0  0  0  0  0  0  0
  -23.0234  -10.5166   22.1851 C   0  0  0  0  0  0  0  0  0  0  0  0
  -24.0107  -11.1426   24.2994 C   0  0  0  0  0  0  0  0  0  0  0  0
  -16.6643  -26.8293   22.8071 C   0  0  0  0  0  0  0  0  0  0  0  0
  -19.0533  -26.5967   21.3982 C   0  0  0  0  0  0  0  0  0  0  0  0
  -23.9241  -25.4941   22.2374 C   0  0  0  0  0  0  0  0  0  0  0  0
  -22.3112   -9.4985   22.8190 C   0  0  0  0  0  0  0  0  0  0  0  0
  -23.2984  -10.1246   24.9334 C   0  0  0  0  0  0  0  0  0  0  0  0
  -24.6162  -24.8482   21.2139 C   0  0  0  0  0  0  0  0  0  0  0  0
  -22.9176   -6.3789   23.9699 C   0  0  0  0  0  0  0  0  0  0  0  0
  -22.8919   -5.1271   23.3551 C   0  0  0  0  0  0  0  0  0  0  0  0
  -25.5900  -26.9537   20.5519 C   0  0  0  0  0  0  0  0  0  0  0  0
  -28.7794  -21.0096   21.2054 C   0  0  0  0  0  0  0  0  0  0  0  0
  -30.0768  -19.9394   19.4710 C   0  0  0  0  0  0  0  0  0  0  0  0
  -20.4836   -5.2503   23.2052 C   0  0  0  0  0  0  0  0  0  0  0  0
  -23.8732  -11.3386   22.9252 C   0  0  0  0  0  0  0  0  0  0  0  0
  -24.0800  -13.4801   21.5545 C   0  0  0  0  0  0  0  0  0  0  0  0
  -17.4974  -27.9515   22.6754 C   0  0  0  0  0  0  0  0  0  0  0  0
  -24.0515  -26.8787   22.4193 C   0  0  0  0  0  0  0  0  0  0  0  0
  -18.7013  -27.8384   21.9543 C   0  0  0  0  0  0  0  0  0  0  0  0
  -24.9004  -27.6143   21.5801 C   0  0  0  0  0  0  0  0  0  0  0  0
  -28.7118  -19.8020   21.9001 C   0  0  0  0  0  0  0  0  0  0  0  0
  -29.4619  -21.0783   19.9908 C   0  0  0  0  0  0  0  0  0  0  0  0
  -30.0093  -18.7317   20.1657 C   0  0  0  0  0  0  0  0  0  0  0  0
  -29.3267  -18.6630   21.3803 C   0  0  0  0  0  0  0  0  0  0  0  0
  -22.4487   -9.3025   24.1932 C   0  0  0  0  0  0  0  0  0  0  0  0
  -25.4471  -25.5784   20.3691 C   0  0  0  0  0  0  0  0  0  0  0  0
  -21.7264   -7.0664   24.2024 C   0  0  0  0  0  0  0  0  0  0  0  0
  -21.6749   -4.5628   22.9727 C   0  0  0  0  0  0  0  0  0  0  0  0
  -20.5094   -6.5021   23.8200 C   0  0  0  0  0  0  0  0  0  0  0  0
  -24.6096  -12.3901   22.2708 C   0  0  0  0  0  0  0  0  0  0  0  0
  -25.1825  -14.1834   21.1348 C   0  0  0  0  0  0  0  0  0  0  0  0
  -30.6355  -22.6301   18.4530 C   0  0  0  0  0  0  0  0  0  0  0  0
  -22.7135  -13.8260   21.2921 C   0  0  0  0  0  0  0  0  0  0  0  0
  -22.0551  -29.3495   22.3027 C   0  0  0  0  0  0  0  0  0  0  0  0
  -24.6465  -30.9934   23.3537 C   0  0  0  0  0  0  0  0  0  0  0  0
  -28.1860  -31.0553   22.6572 C   0  0  0  0  0  0  0  0  0  0  0  0
  -30.1958  -16.4086   22.0934 C   0  0  0  0  0  0  0  0  0  0  0  0
  -17.0410  -29.2665   23.2560 C   0  0  0  0  0  0  0  0  0  0  0  0
  -23.3189  -27.5562   23.5448 C   0  0  0  0  0  0  0  0  0  0  0  0
  -25.0873  -29.0996   21.7461 C   0  0  0  0  0  0  0  0  0  0  0  0
  -30.4758  -23.8037   17.5050 C   0  0  0  0  0  0  0  0  0  0  0  0
  -18.1581  -30.3000   23.3755 C   0  0  0  0  0  0  0  0  0  0  0  0
  -29.6400  -24.9396   18.0528 C   0  0  0  0  0  0  0  0  0  0  0  0
  -30.0940  -12.9611   21.2093 C   0  0  0  0  0  0  0  0  0  0  0  0
  -18.9705  -30.3595   22.0858 C   0  0  0  0  0  0  0  0  0  0  0  0
  -28.6145  -12.5949   21.3477 C   0  0  0  0  0  0  0  0  0  0  0  0
  -30.5353  -13.9542   22.2830 C   0  0  0  0  0  0  0  0  0  0  0  0
  -28.5138  -23.3503   19.5854 C   0  0  0  0  0  0  0  0  0  0  0  0
  -28.2340  -14.8010   22.5205 C   0  0  0  0  0  0  0  0  0  0  0  0
  -19.6428  -29.0123   21.7948 C   0  0  1  0  0  0  0  0  0  0  0  0
  -23.1238  -29.0518   23.3161 C   0  0  1  0  0  0  0  0  0  0  0  0
  -28.2915  -24.3910   18.4890 C   0  0  1  0  0  0  0  0  0  0  0  0
  -27.7271  -13.8529   21.4215 C   0  0  2  0  0  0  0  0  0  0  0  0
  -27.9738  -19.7603   23.1991 C   0  0  0  0  0  0  0  0  0  0  0  0
  -30.1227  -31.7220   24.1071 C   0  0  0  0  0  0  0  0  0  0  0  0
  -24.3136  -33.7278   22.0414 C   0  0  0  0  0  0  0  0  0  0  0  0
  -26.8082  -33.9369   22.0056 C   0  0  0  0  0  0  0  0  0  0  0  0
  -25.6053  -33.7487   24.1828 C   0  0  0  0  0  0  0  0  0  0  0  0
  -29.5362  -28.4533   22.2503 C   0  0  0  0  0  0  0  0  0  0  0  0
  -27.3771  -25.5109   18.9812 C   0  0  0  0  0  0  0  0  0  1  0  0
  -25.7950  -31.7157   22.6918 C   0  0  1  0  0  0  0  0  0  0  0  0
  -29.2995  -30.5641   23.5646 C   0  0  2  0  0  0  0  0  0  0  0  0
  -25.6177  -33.2602   22.7179 C   0  0  0  0  0  0  0  0  0  0  0  0
  -25.9448  -12.3960   22.3060 N   0  0  0  0  0  0  0  0  0  0  0  0
  -26.2635  -13.4984   21.6065 N   0  0  0  0  0  0  0  0  0  0  0  0
  -29.5304  -22.3306   19.2682 N   0  0  0  0  0  0  0  0  0  0  0  0
  -24.3447  -29.7174   22.8571 N   0  0  0  0  0  0  0  0  0  0  0  0
  -29.6514  -15.1220   22.2913 N   0  0  0  0  0  0  0  0  0  0  0  0
  -30.6399  -17.5909   19.6193 N   0  0  0  0  0  0  0  0  0  0  0  0
  -25.3232  -15.3148   20.4118 N   0  0  0  0  0  0  0  0  0  0  0  0
  -22.0464  -14.6533   22.2058 N   0  0  0  0  0  0  0  0  0  0  0  0
  -29.2553  -17.4381   22.0890 N   0  0  0  0  0  0  0  0  0  0  0  0
  -20.8126  -28.8405   22.6293 N   0  0  0  0  0  0  0  0  0  0  0  0
  -27.0082  -31.2424   23.3493 N   0  0  0  0  0  0  0  0  0  0  0  0
  -30.2095  -29.6492   22.8191 N   0  3  0  0  0  0  0  0  0  0  0  0
  -31.6872  -21.9862   18.4064 O   0  0  0  0  0  0  0  0  0  0  0  0
  -22.0973  -13.4004   20.2858 O   0  0  0  0  0  0  0  0  0  0  0  0
  -22.3366  -29.9944   21.2994 O   0  0  0  0  0  0  0  0  0  0  0  0
  -24.0440  -31.5382   24.2821 O   0  0  0  0  0  0  0  0  0  0  0  0
  -28.3461  -31.2568   21.4554 O   0  0  0  0  0  0  0  0  0  0  0  0
  -31.4038  -16.5813   21.9121 O   0  0  0  0  0  0  0  0  0  0  0  0
  -21.7537   -8.3094   24.8122 O   0  0  0  0  0  0  0  0  0  0  0  0
  -26.1232  -24.9506   19.3689 O   0  0  0  0  0  0  0  0  0  1  0  0
  -21.6504   -3.3614   22.3809 F   0  0  0  0  0  0  0  0  0  0  0  0
  -19.3618   -7.1583   24.0397 F   0  0  0  0  0  0  0  0  0  0  0  0
  1  2  1  0  0  0  0
  1  5  2  0  0  0  0
  2  6  2  0  0  0  0
  3  8  2  0  0  0  0
  3 17  1  0  0  0  0
  4  9  1  0  0  0  0
  4 17  2  0  0  0  0
  5 19  1  0  0  0  0
  6 21  1  0  0  0  0
  7 10  2  0  0  0  0
  7 20  1  0  0  0  0
  8 27  1  0  0  0  0
  9 27  2  0  0  0  0
 10 28  1  0  0  0  0
 11 12  2  0  0  0  0
 11 29  1  0  0  0  0
 12 30  1  0  0  0  0
 13 22  1  0  0  0  0
 13 28  2  0  0  0  0
 14 23  2  0  0  0  0
 14 24  1  0  0  0  0
 15 24  2  0  0  0  0
 15 25  1  0  0  0  0
 16 30  2  0  0  0  0
 16 31  1  0  0  0  0
 17 32  1  0  0  0  0
 18 32  1  0  0  0  0
 18 33  2  0  0  0  0
 18 35  1  0  0  0  0
 19 21  2  0  0  0  0
 19 40  1  0  0  0  0
 20 22  2  0  0  0  0
 20 41  1  0  0  0  0
 21 52  1  0  0  0  0
 22 42  1  0  0  0  0
 23 26  1  0  0  0  0
 23 56  1  0  0  0  0
 24 68  1  0  0  0  0
 25 26  2  0  0  0  0
 25 71  1  0  0  0  0
 26 74  1  0  0  0  0
 27 84  1  0  0  0  0
 28 85  1  0  0  0  0
 29 31  2  0  0  0  0
 29 84  1  0  0  0  0
 30 86  1  0  0  0  0
 31 87  1  0  0  0  0
 32 66  2  0  0  0  0
 33 67  1  0  0  0  0
 33 72  1  0  0  0  0
 34 43  1  0  0  0  0
 34 68  1  0  0  0  0
 34 78  2  0  0  0  0
 35 73  1  0  0  0  0
 35 79  2  0  0  0  0
 36 53  1  0  0  0  0
 36 75  1  0  0  0  0
 36 80  2  0  0  0  0
 37 63  1  0  0  0  0
 37 69  1  0  0  0  0
 37 81  2  0  0  0  0
 38 64  1  0  0  0  0
 38 76  1  0  0  0  0
 38 82  2  0  0  0  0
 39 70  1  0  0  0  0
 39 74  1  0  0  0  0
 39 83  2  0  0  0  0
 40 44  1  0  0  0  0
 41 53  1  0  0  0  0
 42 69  1  0  0  0  0
 43 45  1  0  0  0  0
 44 47  1  0  0  0  0
 45 54  1  0  0  0  0
 46 48  1  0  0  0  0
 46 49  1  0  0  0  0
 47 52  1  0  0  0  0
 48 55  1  0  0  0  0
 49 70  1  0  0  0  0
 50 54  1  0  0  0  0
 50 68  1  0  0  0  0
 51 55  1  0  0  0  0
 51 70  1  0  0  0  0
 52 75  1  0  0  0  0
 53 69  1  0  0  0  0
 54 62  1  0  0  0  0
 55 67  1  0  0  0  0
 57 64  1  0  0  0  0
 58 65  1  0  0  0  0
 59 65  1  0  0  0  0
 60 65  1  0  0  0  0
 61 77  1  0  0  0  0
 62 85  1  0  0  0  0
 63 65  1  0  0  0  0
 63 76  1  0  0  0  0
 64 77  1  0  0  0  0
 66 67  1  0  0  0  0
M  CHG  1  77   1
M  ISO  4  39 100  62 101  74 100  85 101
M  END
> <Batch ID>
0099

> <Smiles>
CNC(C)C(=O)NC(C(=O)N1Cc2cc([101O:1][101CH2:1]C3CCC(=O)N(c4cc(C)c([100NH:0][100C:0](=O)N5CCCC(n6nc(-c7ccc(Oc8ccc(F)cc8F)cc7)c(C(N)=O)c6N)C5)c(N)c4)C3)ccc2CC1C(=O)NC1CCCc2ccccc21)C(C)(C)C

> <Shape>
0.340

> <Color>
0.099

> <Negative vol penalty>
0.000

$$$$

  -OEChem-04052300543D

 83 91  0     1  0  0  0  0  0999 V2000
  -16.3915  -23.8530   24.0353 C   0  0  0  0  0  0  0  0  0  0  0  0
  -17.4866  -23.3996   23.3068 C   0  0  0  0  0  0  0  0  0  0  0  0
  -22.9568  -10.0148   19.9174 C   0  0  0  0  0  0  0  0  0  0  0  0
  -24.0219   -9.6120   22.0482 C   0  0  0  0  0  0  0  0  0  0  0  0
  -29.2901  -17.0118   20.2498 C   0  0  0  0  0  0  0  0  0  0  0  0
  -16.1108  -25.2174   24.0933 C   0  0  0  0  0  0  0  0  0  0  0  0
  -18.3010  -24.3105   22.6349 C   0  0  0  0  0  0  0  0  0  0  0  0
  -23.2316  -23.3578   23.2879 C   0  0  0  0  0  0  0  0  0  0  0  0
  -28.5581  -18.1890   20.0954 C   0  0  0  0  0  0  0  0  0  0  0  0
  -22.2221   -8.8380   20.0621 C   0  0  0  0  0  0  0  0  0  0  0  0
  -23.2871   -8.4352   22.1930 C   0  0  0  0  0  0  0  0  0  0  0  0
  -23.7846  -22.3210   22.5377 C   0  0  0  0  0  0  0  0  0  0  0  0
  -20.1502   -7.5537   23.0891 C   0  0  0  0  0  0  0  0  0  0  0  0
  -19.5589   -7.3090   24.3285 C   0  0  0  0  0  0  0  0  0  0  0  0
  -29.1751  -17.2551   22.6507 C   0  0  0  0  0  0  0  0  0  0  0  0
  -24.6804  -23.9325   20.9821 C   0  0  0  0  0  0  0  0  0  0  0  0
  -20.8346   -5.2675   24.5339 C   0  0  0  0  0  0  0  0  0  0  0  0
  -23.8568  -10.4017   20.9104 C   0  0  0  0  0  0  0  0  0  0  0  0
  -29.5986  -16.5448   21.5275 C   0  0  0  0  0  0  0  0  0  0  0  0
  -24.2493  -12.9070   21.1887 C   0  0  0  0  0  0  0  0  0  0  0  0
  -16.9278  -26.1463   23.4297 C   0  0  0  0  0  0  0  0  0  0  0  0
  -23.3899  -24.6914   22.8843 C   0  0  0  0  0  0  0  0  0  0  0  0
  -18.0302  -25.6886   22.6830 C   0  0  0  0  0  0  0  0  0  0  0  0
  -24.1306  -24.9845   21.7304 C   0  0  0  0  0  0  0  0  0  0  0  0
  -28.1345  -18.8993   21.2187 C   0  0  0  0  0  0  0  0  0  0  0  0
  -22.3872   -8.0482   21.2000 C   0  0  0  0  0  0  0  0  0  0  0  0
  -24.5067  -22.6080   21.3830 C   0  0  0  0  0  0  0  0  0  0  0  0
  -21.0836   -6.6553   22.5720 C   0  0  0  0  0  0  0  0  0  0  0  0
  -28.4430  -18.4323   22.4964 C   0  0  0  0  0  0  0  0  0  0  0  0
  -19.9012   -6.1660   25.0509 C   0  0  0  0  0  0  0  0  0  0  0  0
  -21.4258   -5.5122   23.2945 C   0  0  0  0  0  0  0  0  0  0  0  0
  -24.6165  -11.6169   20.7611 C   0  0  0  0  0  0  0  0  0  0  0  0
  -25.3023  -13.7054   20.8142 C   0  0  0  0  0  0  0  0  0  0  0  0
  -30.3614  -15.3170   21.6882 C   0  0  0  0  0  0  0  0  0  0  0  0
  -23.0626  -13.3444   21.8640 C   0  0  0  0  0  0  0  0  0  0  0  0
  -30.8257  -14.5388   20.5169 C   0  0  0  0  0  0  0  0  0  0  0  0
  -21.4108  -27.0217   22.0145 C   0  0  0  0  0  0  0  0  0  0  0  0
  -24.1248  -28.7984   22.0182 C   0  0  0  0  0  0  0  0  0  0  0  0
  -27.5277  -28.8904   21.7763 C   0  0  0  0  0  0  0  0  0  0  0  0
  -16.5570  -27.6072   23.4825 C   0  0  0  0  0  0  0  0  0  0  0  0
  -22.8099  -25.8000   23.7192 C   0  0  0  0  0  0  0  0  0  0  0  0
  -24.3467  -26.4007   21.2652 C   0  0  0  0  0  0  0  0  0  0  0  0
  -17.6869  -28.5384   23.0506 C   0  0  0  0  0  0  0  0  0  0  0  0
  -29.2601  -12.7660   17.8219 C   0  0  0  0  0  0  0  0  0  0  0  0
  -18.3301  -28.0355   21.7622 C   0  0  0  0  0  0  0  0  0  0  0  0
  -27.8972  -12.3817   18.3967 C   0  0  0  0  0  0  0  0  0  0  0  0
  -30.3438  -12.7482   18.8950 C   0  0  0  0  0  0  0  0  0  0  0  0
  -28.6680  -13.2251   20.6594 C   0  0  0  0  0  0  0  0  0  0  0  0
  -18.9515  -26.6477   21.9610 C   0  0  1  0  0  0  0  0  0  0  0  0
  -22.5971  -27.0906   22.9341 C   0  0  1  0  0  0  0  0  0  0  0  0
  -27.5427  -13.2588   19.6107 C   0  0  2  0  0  0  0  0  0  0  0  0
  -29.4602  -30.4913   21.7780 C   0  0  0  0  0  0  0  0  0  0  0  0
  -23.4354  -29.6298   19.1645 C   0  0  0  0  0  0  0  0  0  0  0  0
  -25.7971  -30.4169   18.8975 C   0  0  0  0  0  0  0  0  0  0  0  0
  -24.3171  -31.4747   20.6044 C   0  0  0  0  0  0  0  0  0  0  0  0
  -28.7161  -27.6346   24.1784 C   0  0  0  0  0  0  0  0  0  0  0  0
  -26.7656  -18.7638   24.1493 C   0  0  0  0  0  0  0  0  0  0  0  0
  -27.0539  -20.6112   19.7601 C   0  0  0  0  0  0  0  0  0  0  0  0
  -26.2453  -21.8865   19.9295 C   0  0  0  0  0  0  0  0  0  1  0  0
  -25.1851  -29.1328   20.9969 C   0  0  1  0  0  0  0  0  0  0  0  0
  -28.5794  -29.5843   22.6231 C   0  0  2  0  0  0  0  0  0  0  0  0
  -24.6781  -30.1366   19.9232 C   0  0  0  0  0  0  0  0  0  0  0  0
  -25.8094  -11.5927   20.1608 N   0  0  0  0  0  0  0  0  0  0  0  0
  -30.6872  -14.8230   22.8521 N   0  0  0  0  0  0  0  0  0  0  0  0
  -26.2009  -12.8775   20.2084 N   0  0  0  0  0  0  0  0  0  0  0  0
  -29.9598  -13.5610   20.0475 N   0  0  0  0  0  0  0  0  0  0  0  0
  -23.7545  -27.4494   22.1119 N   0  0  0  0  0  0  0  0  0  0  0  0
  -25.5378  -15.0280   20.9473 N   0  0  0  0  0  0  0  0  0  0  0  0
  -22.0811  -12.3931   22.1739 N   0  0  0  0  0  0  0  0  0  0  0  0
  -27.4091  -20.0672   21.0508 N   0  0  0  0  0  0  0  0  0  0  0  0
  -20.2163  -26.7552   22.6561 N   0  0  0  0  0  0  0  0  0  0  0  0
  -26.3448  -29.5982   21.7498 N   0  0  0  0  0  0  0  0  0  0  0  0
  -29.4492  -28.5784   23.2958 N   0  3  0  0  0  0  0  0  0  0  0  0
  -22.8707  -14.5460   22.1685 O   0  0  0  0  0  0  0  0  0  0  0  0
  -31.9303  -14.8429   20.0859 O   0  0  0  0  0  0  0  0  0  0  0  0
  -21.5674  -27.1988   20.8121 O   0  0  0  0  0  0  0  0  0  0  0  0
  -23.6481  -29.6998   22.7123 O   0  0  0  0  0  0  0  0  0  0  0  0
  -27.7362  -27.8286   21.1935 O   0  0  0  0  0  0  0  0  0  0  0  0
  -21.6702   -6.9000   21.3417 O   0  0  0  0  0  0  0  0  0  0  0  0
  -28.0375  -19.1114   23.6064 O   0  0  0  0  0  0  0  0  0  0  0  0
  -25.0469  -21.5978   20.6484 O   0  0  0  0  0  0  0  0  0  1  0  0
  -19.3345   -5.9319   26.2418 F   0  0  0  0  0  0  0  0  0  0  0  0
  -22.3227   -4.6461   22.8035 F   0  0  0  0  0  0  0  0  0  0  0  0
  1  2  1  0  0  0  0
  1  6  2  0  0  0  0
  2  7  2  0  0  0  0
  3 10  2  0  0  0  0
  3 18  1  0  0  0  0
  4 11  1  0  0  0  0
  4 18  2  0  0  0  0
  5  9  2  0  0  0  0
  5 19  1  0  0  0  0
  6 21  1  0  0  0  0
  7 23  1  0  0  0  0
  8 12  2  0  0  0  0
  8 22  1  0  0  0  0
  9 25  1  0  0  0  0
 10 26  1  0  0  0  0
 11 26  2  0  0  0  0
 12 27  1  0  0  0  0
 13 14  2  0  0  0  0
 13 28  1  0  0  0  0
 14 30  1  0  0  0  0
 15 19  2  0  0  0  0
 15 29  1  0  0  0  0
 16 24  1  0  0  0  0
 16 27  2  0  0  0  0
 17 30  2  0  0  0  0
 17 31  1  0  0  0  0
 18 32  1  0  0  0  0
 19 34  1  0  0  0  0
 20 32  1  0  0  0  0
 20 33  2  0  0  0  0
 20 35  1  0  0  0  0
 21 23  2  0  0  0  0
 21 40  1  0  0  0  0
 22 24  2  0  0  0  0
 22 41  1  0  0  0  0
 23 49  1  0  0  0  0
 24 42  1  0  0  0  0
 25 29  2  0  0  0  0
 25 70  1  0  0  0  0
 26 79  1  0  0  0  0
 27 81  1  0  0  0  0
 28 31  2  0  0  0  0
 28 79  1  0  0  0  0
 29 80  1  0  0  0  0
 30 82  1  0  0  0  0
 31 83  1  0  0  0  0
 32 63  2  0  0  0  0
 33 65  1  0  0  0  0
 33 68  1  0  0  0  0
 34 36  1  0  0  0  0
 34 64  2  0  0  0  0
 35 69  1  0  0  0  0
 35 74  2  0  0  0  0
 36 66  1  0  0  0  0
 36 75  2  0  0  0  0
 37 50  1  0  0  0  0
 37 71  1  0  0  0  0
 37 76  2  0  0  0  0
 38 60  1  0  0  0  0
 38 67  1  0  0  0  0
 38 77  2  0  0  0  0
 39 61  1  0  0  0  0
 39 72  1  0  0  0  0
 39 78  2  0  0  0  0
 40 43  1  0  0  0  0
 41 50  1  0  0  0  0
 42 67  1  0  0  0  0
 43 45  1  0  0  0  0
 44 46  1  0  0  0  0
 44 47  1  0  0  0  0
 45 49  1  0  0  0  0
 46 51  1  0  0  0  0
 47 66  1  0  0  0  0
 48 51  1  0  0  0  0
 48 66  1  0  0  0  0
 49 71  1  0  0  0  0
 50 67  1  0  0  0  0
 51 65  1  0  0  0  0
 52 61  1  0  0  0  0
 53 62  1  0  0  0  0
 54 62  1  0  0  0  0
 55 62  1  0  0  0  0
 56 73  1  0  0  0  0
 57 80  1  0  0  0  0
 58 59  1  0  0  0  0
 58 70  1  0  0  0  0
 59 81  1  0  0  0  0
 60 62  1  0  0  0  0
 60 72  1  0  0  0  0
 61 73  1  0  0  0  0
 63 65  1  0  0  0  0
M  CHG  1  73   1
M  ISO  4  34 100  36 100  59 101  81 101
M  END
> <Batch ID>
0099

> <Smiles>
CNC(C)C(=O)NC(C(=O)N1Cc2cc([101O:1][101CH2:1]CNc3ccc([100C:0](=N)[100C:0](=O)N4CCCC(n5nc(-c6ccc(Oc7ccc(F)cc7F)cc6)c(C(N)=O)c5N)C4)cc3OC)ccc2CC1C(=O)NC1CCCc2ccccc21)C(C)(C)C

> <Shape>
0.322

> <Color>
0.172

> <Negative vol penalty>
0.000

$$$$

  -OEChem-04052300543D

 85 93  0     1  0  0  0  0  0999 V2000
  -29.4686  -29.3429    8.8065 C   0  0  0  0  0  0  0  0  0  0  0  0
  -29.8544  -28.4890    9.8348 C   0  0  0  0  0  0  0  0  0  0  0  0
  -23.0366   -9.9766   19.8755 C   0  0  0  0  0  0  0  0  0  0  0  0
  -23.8538   -9.8153   22.1434 C   0  0  0  0  0  0  0  0  0  0  0  0
  -29.1493  -30.6707    9.0874 C   0  0  0  0  0  0  0  0  0  0  0  0
  -29.9223  -28.9627   11.1445 C   0  0  0  0  0  0  0  0  0  0  0  0
  -28.6313  -25.8485   16.2573 C   0  0  0  0  0  0  0  0  0  0  0  0
  -22.2783   -8.8216   20.0665 C   0  0  0  0  0  0  0  0  0  0  0  0
  -23.0955   -8.6603   22.3344 C   0  0  0  0  0  0  0  0  0  0  0  0
  -29.4389  -25.1914   17.1846 C   0  0  0  0  0  0  0  0  0  0  0  0
  -19.8694   -7.8768   22.9663 C   0  0  0  0  0  0  0  0  0  0  0  0
  -19.1415   -7.7700   24.1513 C   0  0  0  0  0  0  0  0  0  0  0  0
  -30.4322  -18.9855   23.0381 C   0  0  0  0  0  0  0  0  0  0  0  0
  -30.9051  -19.0846   20.6709 C   0  0  0  0  0  0  0  0  0  0  0  0
  -29.4114  -27.1525   18.5891 C   0  0  0  0  0  0  0  0  0  0  0  0
  -20.3654   -5.7667   24.7225 C   0  0  0  0  0  0  0  0  0  0  0  0
  -23.8244  -10.4735   20.9139 C   0  0  0  0  0  0  0  0  0  0  0  0
  -30.7652  -19.7241   21.9027 C   0  0  0  0  0  0  0  0  0  0  0  0
  -24.2092  -12.9949   20.9556 C   0  0  0  0  0  0  0  0  0  0  0  0
  -29.2039  -31.1584   10.4026 C   0  0  0  0  0  0  0  0  0  0  0  0
  -28.2159  -27.1685   16.4842 C   0  0  0  0  0  0  0  0  0  0  0  0
  -29.6047  -30.2986   11.4431 C   0  0  0  0  0  0  0  0  0  0  0  0
  -28.5964  -27.8232   17.6643 C   0  0  0  0  0  0  0  0  0  0  0  0
  -30.3791  -16.9679   21.7101 C   0  0  0  0  0  0  0  0  0  0  0  0
  -22.3077   -8.1634   21.2960 C   0  0  0  0  0  0  0  0  0  0  0  0
  -29.8315  -25.8444   18.3493 C   0  0  0  0  0  0  0  0  0  0  0  0
  -20.8453   -6.9286   22.6593 C   0  0  0  0  0  0  0  0  0  0  0  0
  -19.3894   -6.7149   25.0294 C   0  0  0  0  0  0  0  0  0  0  0  0
  -30.2392  -17.6074   22.9418 C   0  0  0  0  0  0  0  0  0  0  0  0
  -30.7120  -17.7065   20.5746 C   0  0  0  0  0  0  0  0  0  0  0  0
  -21.0933   -5.8736   23.5375 C   0  0  0  0  0  0  0  0  0  0  0  0
  -24.6084  -11.6662   20.7170 C   0  0  0  0  0  0  0  0  0  0  0  0
  -25.3054  -13.7492   20.6152 C   0  0  0  0  0  0  0  0  0  0  0  0
  -30.9711  -21.1913   22.0054 C   0  0  0  0  0  0  0  0  0  0  0  0
  -22.9592  -13.5020   21.4416 C   0  0  0  0  0  0  0  0  0  0  0  0
  -28.6456  -29.9429   14.9936 C   0  0  0  0  0  0  0  0  0  0  0  0
  -26.5421  -31.0181   17.2166 C   0  0  0  0  0  0  0  0  0  0  0  0
  -30.8251  -23.3071   20.7414 C   0  0  0  0  0  0  0  0  0  0  0  0
  -25.1202  -30.6168   20.2929 C   0  0  0  0  0  0  0  0  0  0  0  0
  -30.7924  -14.6901   20.7164 C   0  0  0  0  0  0  0  0  0  0  0  0
  -28.8952  -32.6137   10.6506 C   0  0  0  0  0  0  0  0  0  0  0  0
  -27.3229  -27.8540   15.4868 C   0  0  0  0  0  0  0  0  0  0  0  0
  -28.1607  -29.2333   17.9648 C   0  0  0  0  0  0  0  0  0  0  0  0
  -28.6308  -32.9387   12.1185 C   0  0  0  0  0  0  0  0  0  0  0  0
  -29.5751  -12.4615   18.2208 C   0  0  0  0  0  0  0  0  0  0  0  0
  -29.6916  -32.2968   13.0069 C   0  0  0  0  0  0  0  0  0  0  0  0
  -28.1416  -12.1652   18.6673 C   0  0  0  0  0  0  0  0  0  0  0  0
  -30.5240  -12.5930   19.4107 C   0  0  0  0  0  0  0  0  0  0  0  0
  -28.6659  -13.2534   20.8873 C   0  0  0  0  0  0  0  0  0  0  0  0
  -29.6664  -30.7688   12.8802 C   0  0  1  0  0  0  0  0  0  0  0  0
  -27.3828  -29.3757   15.5779 C   0  0  1  0  0  0  0  0  0  0  0  0
  -27.6608  -13.1766   19.7264 C   0  0  2  0  0  0  0  0  0  0  0  0
  -23.4608  -31.6757   21.8494 C   0  0  0  0  0  0  0  0  0  0  0  0
  -28.5861  -33.1688   17.9285 C   0  0  0  0  0  0  0  0  0  0  0  0
  -27.3239  -33.5664   20.0538 C   0  0  0  0  0  0  0  0  0  0  0  0
  -26.2165  -33.9652   17.8544 C   0  0  0  0  0  0  0  0  0  0  0  0
  -23.3898  -28.2159   20.2681 C   0  0  0  0  0  0  0  0  0  0  0  0
  -30.4895  -23.7875   19.3452 C   0  0  0  0  0  0  0  0  0  1  0  0
  -26.6574  -31.5925   18.6079 C   0  0  1  0  0  0  0  0  0  0  0  0
  -23.6715  -30.6514   20.7453 C   0  0  2  0  0  0  0  0  0  0  0  0
  -27.2059  -33.0473   18.6049 C   0  0  0  0  0  0  0  0  0  0  0  0
  -25.8604  -11.5782   20.2601 N   0  0  0  0  0  0  0  0  0  0  0  0
  -26.2573  -12.8611   20.2088 N   0  0  0  0  0  0  0  0  0  0  0  0
  -27.2933  -29.8633   16.9558 N   0  0  0  0  0  0  0  0  0  0  0  0
  -30.0061  -13.5709   20.3700 N   0  0  0  0  0  0  0  0  0  0  0  0
  -25.5381  -15.0789   20.6266 N   0  0  0  0  0  0  0  0  0  0  0  0
  -21.9396  -12.5889   21.7432 N   0  0  0  0  0  0  0  0  0  0  0  0
  -30.1827  -15.5680   21.6121 N   0  0  0  0  0  0  0  0  0  0  0  0
  -30.7204  -21.9189   20.8433 N   0  0  0  0  0  0  0  0  0  0  0  0
  -28.5664  -30.2166   13.6415 N   0  0  0  0  0  0  0  0  0  0  0  0
  -25.3397  -31.4520   19.2180 N   0  0  0  0  0  0  0  0  0  0  0  0
  -23.2571  -29.3151   21.2586 N   0  3  0  0  0  0  0  0  0  0  0  0
  -31.3139  -21.6730   23.0818 O   0  0  0  0  0  0  0  0  0  0  0  0
  -22.7470  -14.7296   21.5880 O   0  0  0  0  0  0  0  0  0  0  0  0
  -29.6192  -30.1205   15.7163 O   0  0  0  0  0  0  0  0  0  0  0  0
  -25.8069  -31.5695   16.3937 O   0  0  0  0  0  0  0  0  0  0  0  0
  -31.1478  -24.0706   21.6473 O   0  0  0  0  0  0  0  0  0  0  0  0
  -25.9726  -29.9214   20.8408 O   0  0  0  0  0  0  0  0  0  0  0  0
  -31.9123  -14.8716   20.2318 O   0  0  0  0  0  0  0  0  0  0  0  0
  -21.5677   -7.0365   21.4828 O   0  0  0  0  0  0  0  0  0  0  0  0
  -30.6203  -25.2056   19.2557 O   0  0  0  0  0  0  0  0  0  1  0  0
  -18.6914   -6.6133   26.1681 F   0  0  0  0  0  0  0  0  0  0  0  0
  -29.9192  -16.9076   24.0398 F   0  0  0  0  0  0  0  0  0  0  0  0
  -30.8491  -17.1027   19.3853 F   0  0  0  0  0  0  0  0  0  0  0  0
  -22.0304   -4.9602   23.2486 F   0  0  0  0  0  0  0  0  0  0  0  0
  1  2  1  0  0  0  0
  1  5  2  0  0  0  0
  2  6  2  0  0  0  0
  3  8  2  0  0  0  0
  3 17  1  0  0  0  0
  4  9  1  0  0  0  0
  4 17  2  0  0  0  0
  5 20  1  0  0  0  0
  6 22  1  0  0  0  0
  7 10  2  0  0  0  0
  7 21  1  0  0  0  0
  8 25  1  0  0  0  0
  9 25  2  0  0  0  0
 10 26  1  0  0  0  0
 11 12  2  0  0  0  0
 11 27  1  0  0  0  0
 12 28  1  0  0  0  0
 13 18  1  0  0  0  0
 13 29  2  0  0  0  0
 14 18  2  0  0  0  0
 14 30  1  0  0  0  0
 15 23  1  0  0  0  0
 15 26  2  0  0  0  0
 16 28  2  0  0  0  0
 16 31  1  0  0  0  0
 17 32  1  0  0  0  0
 18 34  1  0  0  0  0
 19 32  1  0  0  0  0
 19 33  2  0  0  0  0
 19 35  1  0  0  0  0
 20 22  2  0  0  0  0
 20 41  1  0  0  0  0
 21 23  2  0  0  0  0
 21 42  1  0  0  0  0
 22 50  1  0  0  0  0
 23 43  1  0  0  0  0
 24 29  1  0  0  0  0
 24 30  2  0  0  0  0
 24 68  1  0  0  0  0
 25 80  1  0  0  0  0
 26 81  1  0  0  0  0
 27 31  2  0  0  0  0
 27 80  1  0  0  0  0
 28 82  1  0  0  0  0
 29 83  1  0  0  0  0
 30 84  1  0  0  0  0
 31 85  1  0  0  0  0
 32 62  2  0  0  0  0
 33 63  1  0  0  0  0
 33 66  1  0  0  0  0
 34 69  1  0  0  0  0
 34 73  2  0  0  0  0
 35 67  1  0  0  0  0
 35 74  2  0  0  0  0
 36 51  1  0  0  0  0
 36 70  1  0  0  0  0
 36 75  2  0  0  0  0
 37 59  1  0  0  0  0
 37 64  1  0  0  0  0
 37 76  2  0  0  0  0
 38 58  1  0  0  0  0
 38 69  1  0  0  0  0
 38 77  2  0  0  0  0
 39 60  1  0  0  0  0
 39 71  1  0  0  0  0
 39 78  2  0  0  0  0
 40 65  1  0  0  0  0
 40 68  1  0  0  0  0
 40 79  2  0  0  0  0
 41 44  1  0  0  0  0
 42 51  1  0  0  0  0
 43 64  1  0  0  0  0
 44 46  1  0  0  0  0
 45 47  1  0  0  0  0
 45 48  1  0  0  0  0
 46 50  1  0  0  0  0
 47 52  1  0  0  0  0
 48 65  1  0  0  0  0
 49 52  1  0  0  0  0
 49 65  1  0  0  0  0
 50 70  1  0  0  0  0
 51 64  1  0  0  0  0
 52 63  1  0  0  0  0
 53 60  1  0  0  0  0
 54 61  1  0  0  0  0
 55 61  1  0  0  0  0
 56 61  1  0  0  0  0
 57 72  1  0  0  0  0
 58 81  1  0  0  0  0
 59 61  1  0  0  0  0
 59 71  1  0  0  0  0
 60 72  1  0  0  0  0
 62 63  1  0  0  0  0
M  CHG  1  72   1
M  ISO  4  40 100  58 101  68 100  81 101
M  END
> <Batch ID>
0099

> <Smiles>
CNC(C)C(=O)NC(C(=O)N1Cc2cc([101O:1][101CH2:1]C(=O)NC(=O)c3cc(F)c([100NH:0][100C:0](=O)N4CCCC(n5nc(-c6ccc(Oc7ccc(F)cc7F)cc6)c(C(N)=O)c5N)C4)c(F)c3)ccc2CC1C(=O)NC1CCCc2ccccc21)C(C)(C)C

> <Shape>
0.263

> <Color>
0.207

> <Negative vol penalty>
0.000

$$$$

  -OEChem-04052300543D

 84 92  0     1  0  0  0  0  0999 V2000
  -26.3161  -34.9518   24.4989 C   0  0  0  0  0  0  0  0  0  0  0  0
  -26.8152  -33.7363   24.0420 C   0  0  0  0  0  0  0  0  0  0  0  0
  -21.4390  -16.2862   24.5524 C   0  0  0  0  0  0  0  0  0  0  0  0
  -21.9127  -18.4538   23.5962 C   0  0  0  0  0  0  0  0  0  0  0  0
  -25.0197  -35.0252   25.0066 C   0  0  0  0  0  0  0  0  0  0  0  0
  -26.0185  -32.5931   24.0935 C   0  0  0  0  0  0  0  0  0  0  0  0
  -26.2335  -29.8810   19.8222 C   0  0  0  0  0  0  0  0  0  0  0  0
  -30.9765  -19.2222   20.2460 C   0  0  0  0  0  0  0  0  0  0  0  0
  -30.9893  -20.5743   19.9037 C   0  0  0  0  0  0  0  0  0  0  0  0
  -20.3357  -16.8208   25.2177 C   0  0  0  0  0  0  0  0  0  0  0  0
  -20.8094  -18.9884   24.2615 C   0  0  0  0  0  0  0  0  0  0  0  0
  -27.3585  -29.0796   19.6328 C   0  0  0  0  0  0  0  0  0  0  0  0
  -17.9064  -20.8442   25.4220 C   0  0  0  0  0  0  0  0  0  0  0  0
  -17.0587  -21.6855   24.7014 C   0  0  0  0  0  0  0  0  0  0  0  0
  -26.1002  -27.1528   20.3561 C   0  0  0  0  0  0  0  0  0  0  0  0
  -28.6430  -20.4541   19.3405 C   0  0  0  0  0  0  0  0  0  0  0  0
  -16.6039  -19.8943   23.1452 C   0  0  0  0  0  0  0  0  0  0  0  0
  -22.2276  -17.1028   23.7417 C   0  0  0  0  0  0  0  0  0  0  0  0
  -23.3904  -15.9793   21.7686 C   0  0  0  0  0  0  0  0  0  0  0  0
  -24.2032  -33.8843   25.0554 C   0  0  0  0  0  0  0  0  0  0  0  0
  -25.0345  -29.3253   20.2912 C   0  0  0  0  0  0  0  0  0  0  0  0
  -24.7103  -32.6510   24.6036 C   0  0  0  0  0  0  0  0  0  0  0  0
  -24.9607  -27.9488   20.5482 C   0  0  0  0  0  0  0  0  0  0  0  0
  -29.7969  -18.4859   20.1354 C   0  0  0  0  0  0  0  0  0  0  0  0
  -29.8226  -21.1903   19.4510 C   0  0  0  0  0  0  0  0  0  0  0  0
  -20.0209  -18.1718   25.0722 C   0  0  0  0  0  0  0  0  0  0  0  0
  -27.2928  -27.7158   19.9025 C   0  0  0  0  0  0  0  0  0  0  0  0
  -18.1029  -19.5280   25.0041 C   0  0  0  0  0  0  0  0  0  0  0  0
  -16.4074  -21.2106   23.5630 C   0  0  0  0  0  0  0  0  0  0  0  0
  -28.6301  -19.1019   19.6828 C   0  0  0  0  0  0  0  0  0  0  0  0
  -17.4517  -19.0530   23.8657 C   0  0  0  0  0  0  0  0  0  0  0  0
  -23.3677  -16.5513   23.0547 C   0  0  0  0  0  0  0  0  0  0  0  0
  -24.7000  -15.6107   21.5798 C   0  0  0  0  0  0  0  0  0  0  0  0
  -29.5632  -23.3694   20.0645 C   0  0  0  0  0  0  0  0  0  0  0  0
  -22.3231  -15.7974   20.8287 C   0  0  0  0  0  0  0  0  0  0  0  0
  -29.5556  -24.8342   19.7698 C   0  0  0  0  0  0  0  0  0  0  0  0
  -23.2265  -29.7436   22.8719 C   0  0  0  0  0  0  0  0  0  0  0  0
  -30.1495  -16.8173   21.9489 C   0  0  0  0  0  0  0  0  0  0  0  0
  -21.2205  -27.7248   21.3155 C   0  0  0  0  0  0  0  0  0  0  0  0
  -20.8214  -25.2585   18.9906 C   0  0  0  0  0  0  0  0  0  0  0  0
  -22.8251  -34.0030   25.6565 C   0  0  0  0  0  0  0  0  0  0  0  0
  -23.8223  -30.1987   20.4648 C   0  0  0  0  0  0  0  0  0  0  0  0
  -23.6914  -27.2998   21.0340 C   0  0  0  0  0  0  0  0  0  0  0  0
  -21.9142  -32.8224   25.3297 C   0  0  0  0  0  0  0  0  0  0  0  0
  -28.5647  -15.3794   24.8230 C   0  0  0  0  0  0  0  0  0  0  0  0
  -22.6506  -31.5042   25.5460 C   0  0  0  0  0  0  0  0  0  0  0  0
  -27.0737  -15.5365   24.5271 C   0  0  0  0  0  0  0  0  0  0  0  0
  -29.3687  -16.5568   24.2806 C   0  0  0  0  0  0  0  0  0  0  0  0
  -27.6759  -16.9677   22.5236 C   0  0  0  0  0  0  0  0  0  0  0  0
  -23.8680  -31.3939   24.6200 C   0  0  1  0  0  0  0  0  0  0  0  0
  -22.8005  -29.6164   21.4366 C   0  0  1  0  0  0  0  0  0  0  0  0
  -26.8309  -15.7845   23.0278 C   0  0  2  0  0  0  0  0  0  0  0  0
  -19.0701  -23.7817   17.9662 C   0  0  0  0  0  0  0  0  0  0  0  0
  -21.2106  -25.9964   23.8300 C   0  0  0  0  0  0  0  0  0  0  0  0
  -20.2627  -24.1288   22.4583 C   0  0  0  0  0  0  0  0  0  0  0  0
  -18.9791  -26.2504   22.7300 C   0  0  0  0  0  0  0  0  0  0  0  0
  -21.2981  -26.3703   16.2895 C   0  0  0  0  0  0  0  0  0  0  0  0
  -28.2515  -25.5423   20.0150 C   0  0  0  0  0  0  0  0  0  1  0  0
  -29.7869  -17.0404   20.5023 C   0  0  2  0  0  0  0  0  0  0  0  0
  -21.0389  -26.2270   21.2642 C   0  0  1  0  0  0  0  0  0  0  0  0
  -19.8270  -25.0960   17.8551 C   0  0  2  0  0  0  0  0  0  0  0  0
  -20.3974  -25.6629   22.5633 C   0  0  0  0  0  0  0  0  0  0  0  0
  -24.5676  -16.5485   23.6415 N   0  0  0  0  0  0  0  0  0  0  0  0
  -29.8353  -22.5525   19.1070 N   0  0  0  0  0  0  0  0  0  0  0  0
  -25.3565  -15.9701   22.7200 N   0  0  0  0  0  0  0  0  0  0  0  0
  -22.5351  -28.1969   21.1942 N   0  0  0  0  0  0  0  0  0  0  0  0
  -29.0933  -16.7736   22.8592 N   0  0  0  0  0  0  0  0  0  0  0  0
  -25.3424  -15.0174   20.5513 N   0  0  0  0  0  0  0  0  0  0  0  0
  -21.0391  -16.2334   21.1830 N   0  0  0  0  0  0  0  0  0  0  0  0
  -23.4525  -31.0448   23.2784 N   0  0  0  0  0  0  0  0  0  0  0  0
  -20.2761  -25.9496   20.0519 N   0  0  0  0  0  0  0  0  0  0  0  0
  -30.6813  -16.1912   19.6491 N   0  3  0  0  0  0  0  0  0  0  0  0
  -20.5313  -25.1232   16.5420 N   0  3  0  0  0  0  0  0  0  0  0  0
  -22.4995  -15.2491   19.7143 O   0  0  0  0  0  0  0  0  0  0  0  0
  -30.5887  -25.3489   19.3721 O   0  0  0  0  0  0  0  0  0  0  0  0
  -23.3402  -28.7360   23.5600 O   0  0  0  0  0  0  0  0  0  0  0  0
  -31.3363  -16.6832   22.2583 O   0  0  0  0  0  0  0  0  0  0  0  0
  -20.2315  -28.4495   21.4508 O   0  0  0  0  0  0  0  0  0  0  0  0
  -21.9660  -24.8135   18.9425 O   0  0  0  0  0  0  0  0  0  0  0  0
  -18.9442  -18.6937   25.7210 O   0  0  0  0  0  0  0  0  0  0  0  0
  -28.3896  -26.9314   19.7191 O   0  0  0  0  0  0  0  0  0  1  0  0
  -15.5922  -22.0181   22.8720 F   0  0  0  0  0  0  0  0  0  0  0  0
  -27.4920  -18.4025   19.5729 F   0  0  0  0  0  0  0  0  0  0  0  0
  -17.6356  -17.7891   23.4601 F   0  0  0  0  0  0  0  0  0  0  0  0
  1  2  1  0  0  0  0
  1  5  2  0  0  0  0
  2  6  2  0  0  0  0
  3 10  2  0  0  0  0
  3 18  1  0  0  0  0
  4 11  1  0  0  0  0
  4 18  2  0  0  0  0
  5 20  1  0  0  0  0
  6 22  1  0  0  0  0
  7 12  2  0  0  0  0
  7 21  1  0  0  0  0
  8  9  2  0  0  0  0
  8 24  1  0  0  0  0
  9 25  1  0  0  0  0
 10 26  1  0  0  0  0
 11 26  2  0  0  0  0
 12 27  1  0  0  0  0
 13 14  2  0  0  0  0
 13 28  1  0  0  0  0
 14 29  1  0  0  0  0
 15 23  1  0  0  0  0
 15 27  2  0  0  0  0
 16 25  2  0  0  0  0
 16 30  1  0  0  0  0
 17 29  2  0  0  0  0
 17 31  1  0  0  0  0
 18 32  1  0  0  0  0
 19 32  1  0  0  0  0
 19 33  2  0  0  0  0
 19 35  1  0  0  0  0
 20 22  2  0  0  0  0
 20 41  1  0  0  0  0
 21 23  2  0  0  0  0
 21 42  1  0  0  0  0
 22 50  1  0  0  0  0
 23 43  1  0  0  0  0
 24 30  2  0  0  0  0
 24 59  1  0  0  0  0
 25 64  1  0  0  0  0
 26 80  1  0  0  0  0
 27 81  1  0  0  0  0
 28 31  2  0  0  0  0
 28 80  1  0  0  0  0
 29 82  1  0  0  0  0
 30 83  1  0  0  0  0
 31 84  1  0  0  0  0
 32 63  2  0  0  0  0
 33 65  1  0  0  0  0
 33 68  1  0  0  0  0
 34 36  1  0  0  0  0
 34 64  2  0  0  0  0
 35 69  1  0  0  0  0
 35 74  2  0  0  0  0
 36 58  1  0  0  0  0
 36 75  2  0  0  0  0
 37 51  1  0  0  0  0
 37 70  1  0  0  0  0
 37 76  2  0  0  0  0
 38 59  1  0  0  0  0
 38 67  1  0  0  0  0
 38 77  2  0  0  0  0
 39 60  1  0  0  0  0
 39 66  1  0  0  0  0
 39 78  2  0  0  0  0
 40 61  1  0  0  0  0
 40 71  1  0  0  0  0
 40 79  2  0  0  0  0
 41 44  1  0  0  0  0
 42 51  1  0  0  0  0
 43 66  1  0  0  0  0
 44 46  1  0  0  0  0
 45 47  1  0  0  0  0
 45 48  1  0  0  0  0
 46 50  1  0  0  0  0
 47 52  1  0  0  0  0
 48 67  1  0  0  0  0
 49 52  1  0  0  0  0
 49 67  1  0  0  0  0
 50 70  1  0  0  0  0
 51 66  1  0  0  0  0
 52 65  1  0  0  0  0
 53 61  1  0  0  0  0
 54 62  1  0  0  0  0
 55 62  1  0  0  0  0
 56 62  1  0  0  0  0
 57 73  1  0  0  0  0
 58 81  1  0  0  0  0
 59 72  1  0  0  0  0
 60 62  1  0  0  0  0
 60 71  1  0  0  0  0
 61 73  1  0  0  0  0
 63 65  1  0  0  0  0
M  CHG  2  72   1  73   1
M  ISO  4  38 100  58 101  59 100  81 101
M  END
> <Batch ID>
0099

> <Smiles>
CNC(C)C(=O)NC(C(=O)N1Cc2cc([101O:1][101CH2:1]C(=O)CNc3ccc([100C:0](=N)[100C:0](=O)N4CCCC(n5nc(-c6ccc(Oc7ccc(F)cc7F)cc6)c(C(N)=O)c5N)C4)c(F)c3)ccc2CC1C(=O)NC1CCCc2ccccc21)C(C)(C)C

> <Shape>
0.226

> <Color>
0.124

> <Negative vol penalty>
0.000

$$$$

  -OEChem-04052300543D

 85 93  0     1  0  0  0  0  0999 V2000
  -27.6460  -24.0212   17.0676 C   0  0  0  0  0  0  0  0  0  0  0  0
  -26.5797  -24.8709   17.3392 C   0  0  0  0  0  0  0  0  0  0  0  0
  -26.4923  -12.9208   21.0535 C   0  0  0  0  0  0  0  0  0  0  0  0
  -24.6047  -13.8505   19.8660 C   0  0  0  0  0  0  0  0  0  0  0  0
  -28.7232  -23.9571   17.9489 C   0  0  0  0  0  0  0  0  0  0  0  0
  -26.5955  -25.6656   18.4860 C   0  0  0  0  0  0  0  0  0  0  0  0
  -22.9789  -28.9656   18.9685 C   0  0  0  0  0  0  0  0  0  0  0  0
  -25.7178  -11.8216   21.4240 C   0  0  0  0  0  0  0  0  0  0  0  0
  -23.8302  -12.7512   20.2366 C   0  0  0  0  0  0  0  0  0  0  0  0
  -21.6641  -28.6056   19.2610 C   0  0  0  0  0  0  0  0  0  0  0  0
  -24.6238   -8.9536   20.0060 C   0  0  0  0  0  0  0  0  0  0  0  0
  -25.1944   -7.6870   19.8812 C   0  0  0  0  0  0  0  0  0  0  0  0
  -21.9837  -29.3165   21.5439 C   0  0  0  0  0  0  0  0  0  0  0  0
  -22.3075  -23.1104   19.4972 C   0  0  0  0  0  0  0  0  0  0  0  0
  -22.4752  -23.4232   21.8870 C   0  0  0  0  0  0  0  0  0  0  0  0
  -24.9127   -7.3262   22.2535 C   0  0  0  0  0  0  0  0  0  0  0  0
  -25.9358  -13.9353   20.2745 C   0  0  0  0  0  0  0  0  0  0  0  0
  -27.5271  -15.2028   18.7354 C   0  0  0  0  0  0  0  0  0  0  0  0
  -28.7458  -24.7426   19.1132 C   0  0  0  0  0  0  0  0  0  0  0  0
  -23.8107  -29.4946   19.9659 C   0  0  0  0  0  0  0  0  0  0  0  0
  -27.6847  -25.6329   19.3755 C   0  0  0  0  0  0  0  0  0  0  0  0
  -23.3078  -29.6849   21.2609 C   0  0  0  0  0  0  0  0  0  0  0  0
  -23.4690  -22.3384   19.5167 C   0  0  0  0  0  0  0  0  0  0  0  0
  -21.8106  -23.6529   20.6824 C   0  0  0  0  0  0  0  0  0  0  0  0
  -24.1337  -22.1087   20.7213 C   0  0  0  0  0  0  0  0  0  0  0  0
  -24.3867  -11.7367   21.0156 C   0  0  0  0  0  0  0  0  0  0  0  0
  -21.1672  -28.7783   20.5496 C   0  0  0  0  0  0  0  0  0  0  0  0
  -24.1977   -9.4066   21.2546 C   0  0  0  0  0  0  0  0  0  0  0  0
  -25.3388   -6.8732   21.0049 C   0  0  0  0  0  0  0  0  0  0  0  0
  -23.6368  -22.6511   21.9065 C   0  0  0  0  0  0  0  0  0  0  0  0
  -24.3422   -8.5929   22.3783 C   0  0  0  0  0  0  0  0  0  0  0  0
  -26.7352  -15.0714   19.8918 C   0  0  0  0  0  0  0  0  0  0  0  0
  -28.0790  -16.4563   18.8378 C   0  0  0  0  0  0  0  0  0  0  0  0
  -27.7444  -14.2747   17.6643 C   0  0  0  0  0  0  0  0  0  0  0  0
  -26.5358  -28.5877   21.3279 C   0  0  0  0  0  0  0  0  0  0  0  0
  -26.3254  -31.4849   22.7718 C   0  0  0  0  0  0  0  0  0  0  0  0
  -20.0022  -25.0501   21.7406 C   0  0  0  0  0  0  0  0  0  0  0  0
  -24.3517  -34.0688   23.8084 C   0  0  0  0  0  0  0  0  0  0  0  0
  -26.3801  -21.4473   21.6500 C   0  0  0  0  0  0  0  0  0  0  0  0
  -29.9403  -24.6396   20.0286 C   0  0  0  0  0  0  0  0  0  0  0  0
  -25.2183  -29.9029   19.6278 C   0  0  0  0  0  0  0  0  0  0  0  0
  -24.1537  -30.2676   22.3624 C   0  0  0  0  0  0  0  0  0  0  0  0
  -29.6653  -25.1805   21.4279 C   0  0  0  0  0  0  0  0  0  0  0  0
  -29.4458  -19.6917   22.0934 C   0  0  0  0  0  0  0  0  0  0  0  0
  -29.0269  -26.5584   21.3363 C   0  0  0  0  0  0  0  0  0  0  0  0
  -29.1726  -18.3217   21.4684 C   0  0  0  0  0  0  0  0  0  0  0  0
  -28.2158  -20.2422   22.8131 C   0  0  0  0  0  0  0  0  0  0  0  0
  -26.7168  -18.9117   21.3807 C   0  0  0  0  0  0  0  0  0  0  0  0
  -27.6660  -26.4840   20.6324 C   0  0  1  0  0  0  0  0  0  0  0  0
  -26.1349  -29.9534   20.8462 C   0  0  1  0  0  0  0  0  0  0  0  0
  -27.9070  -18.3456   20.5891 C   0  0  2  0  0  0  0  0  0  0  0  0
  -23.9791  -21.7710   18.2316 C   0  0  0  0  0  0  0  0  0  0  0  0
  -24.4605  -36.2788   24.9921 C   0  0  0  0  0  0  0  0  0  0  0  0
  -26.6325  -30.0376   25.4403 C   0  0  0  0  0  0  0  0  0  0  0  0
  -25.7948  -32.1044   26.5783 C   0  0  0  0  0  0  0  0  0  0  0  0
  -27.9122  -32.1788   25.2615 C   0  0  0  0  0  0  0  0  0  0  0  0
  -23.3104  -35.5165   21.4464 C   0  0  0  0  0  0  0  0  0  0  0  0
  -18.7600  -25.7988   21.2779 C   0  0  0  0  0  0  0  0  0  0  0  0
  -18.4505  -27.0149   22.1441 C   0  0  0  0  0  0  0  0  0  0  0  0
  -19.6130  -27.9966   22.1710 C   0  0  0  0  0  0  0  0  0  1  0  0
  -25.7023  -32.0015   24.0461 C   0  0  1  0  0  0  0  0  0  0  0  0
  -24.4922  -35.5716   23.6462 C   0  0  2  0  0  0  0  0  0  0  0  0
  -26.4948  -31.5678   25.3115 C   0  0  0  0  0  0  0  0  0  0  0  0
  -26.7776  -16.1549   20.6717 N   0  0  0  0  0  0  0  0  0  0  0  0
  -27.6029  -16.9791   20.0041 N   0  0  0  0  0  0  0  0  0  0  0  0
  -25.5254  -30.6454   21.9837 N   0  0  0  0  0  0  0  0  0  0  0  0
  -27.0571  -20.2386   21.9174 N   0  0  0  0  0  0  0  0  0  0  0  0
  -28.9204  -17.1514   18.0431 N   0  0  0  0  0  0  0  0  0  0  0  0
  -27.0999  -13.0312   17.7167 N   0  0  0  0  0  0  0  0  0  0  0  0
  -20.6327  -24.4370   20.6616 N   0  0  0  0  0  0  0  0  0  0  0  0
  -25.3144  -21.3264   20.7588 N   0  0  0  0  0  0  0  0  0  0  0  0
  -27.1915  -27.8266   20.3791 N   0  0  0  0  0  0  0  0  0  0  0  0
  -25.5796  -33.4462   23.8839 N   0  0  0  0  0  0  0  0  0  0  0  0
  -23.3834  -36.1080   22.8072 N   0  3  0  0  0  0  0  0  0  0  0  0
  -28.5009  -14.5339   16.6979 O   0  0  0  0  0  0  0  0  0  0  0  0
  -26.2713  -28.2502   22.4758 O   0  0  0  0  0  0  0  0  0  0  0  0
  -27.4769  -31.8197   22.4826 O   0  0  0  0  0  0  0  0  0  0  0  0
  -20.3480  -25.0268   22.9172 O   0  0  0  0  0  0  0  0  0  0  0  0
  -23.2616  -33.5041   23.8663 O   0  0  0  0  0  0  0  0  0  0  0  0
  -26.7375  -22.5161   22.1519 O   0  0  0  0  0  0  0  0  0  0  0  0
  -23.6307  -10.6641   21.3768 O   0  0  0  0  0  0  0  0  0  0  0  0
  -19.8845  -28.4271   20.8379 O   0  0  0  0  0  0  0  0  0  1  0  0
  -25.8854   -5.6563   20.8845 F   0  0  0  0  0  0  0  0  0  0  0  0
  -24.2669  -22.4374   23.0704 F   0  0  0  0  0  0  0  0  0  0  0  0
  -23.9337   -9.0222   23.5803 F   0  0  0  0  0  0  0  0  0  0  0  0
  1  2  1  0  0  0  0
  1  5  2  0  0  0  0
  2  6  2  0  0  0  0
  3  8  2  0  0  0  0
  3 17  1  0  0  0  0
  4  9  1  0  0  0  0
  4 17  2  0  0  0  0
  5 19  1  0  0  0  0
  6 21  1  0  0  0  0
  7 10  2  0  0  0  0
  7 20  1  0  0  0  0
  8 26  1  0  0  0  0
  9 26  2  0  0  0  0
 10 27  1  0  0  0  0
 11 12  2  0  0  0  0
 11 28  1  0  0  0  0
 12 29  1  0  0  0  0
 13 22  1  0  0  0  0
 13 27  2  0  0  0  0
 14 23  2  0  0  0  0
 14 24  1  0  0  0  0
 15 24  2  0  0  0  0
 15 30  1  0  0  0  0
 16 29  2  0  0  0  0
 16 31  1  0  0  0  0
 17 32  1  0  0  0  0
 18 32  1  0  0  0  0
 18 33  2  0  0  0  0
 18 34  1  0  0  0  0
 19 21  2  0  0  0  0
 19 40  1  0  0  0  0
 20 22  2  0  0  0  0
 20 41  1  0  0  0  0
 21 49  1  0  0  0  0
 22 42  1  0  0  0  0
 23 25  1  0  0  0  0
 23 52  1  0  0  0  0
 24 70  1  0  0  0  0
 25 30  2  0  0  0  0
 25 71  1  0  0  0  0
 26 81  1  0  0  0  0
 27 82  1  0  0  0  0
 28 31  2  0  0  0  0
 28 81  1  0  0  0  0
 29 83  1  0  0  0  0
 30 84  1  0  0  0  0
 31 85  1  0  0  0  0
 32 64  2  0  0  0  0
 33 65  1  0  0  0  0
 33 68  1  0  0  0  0
 34 69  1  0  0  0  0
 34 75  2  0  0  0  0
 35 50  1  0  0  0  0
 35 72  1  0  0  0  0
 35 76  2  0  0  0  0
 36 61  1  0  0  0  0
 36 66  1  0  0  0  0
 36 77  2  0  0  0  0
 37 58  1  0  0  0  0
 37 70  1  0  0  0  0
 37 78  2  0  0  0  0
 38 62  1  0  0  0  0
 38 73  1  0  0  0  0
 38 79  2  0  0  0  0
 39 67  1  0  0  0  0
 39 71  1  0  0  0  0
 39 80  2  0  0  0  0
 40 43  1  0  0  0  0
 41 50  1  0  0  0  0
 42 66  1  0  0  0  0
 43 45  1  0  0  0  0
 44 46  1  0  0  0  0
 44 47  1  0  0  0  0
 45 49  1  0  0  0  0
 46 51  1  0  0  0  0
 47 67  1  0  0  0  0
 48 51  1  0  0  0  0
 48 67  1  0  0  0  0
 49 72  1  0  0  0  0
 50 66  1  0  0  0  0
 51 65  1  0  0  0  0
 53 62  1  0  0  0  0
 54 63  1  0  0  0  0
 55 63  1  0  0  0  0
 56 63  1  0  0  0  0
 57 74  1  0  0  0  0
 58 59  1  0  0  0  0
 59 60  1  0  0  0  0
 60 82  1  0  0  0  0
 61 63  1  0  0  0  0
 61 73  1  0  0  0  0
 62 74  1  0  0  0  0
 64 65  1  0  0  0  0
M  CHG  1  74   1
M  ISO  4  39 100  60 101  71 100  82 101
M  END
> <Batch ID>
0099

> <Smiles>
CNC(C)C(=O)NC(C(=O)N1Cc2cc([101O:1][101CH2:1]CCC(=O)Nc3cc(C)c([100NH:0][100C:0](=O)N4CCCC(n5nc(-c6ccc(Oc7ccc(F)cc7F)cc6)c(C(N)=O)c5N)C4)c(F)c3)ccc2CC1C(=O)NC1CCCc2ccccc21)C(C)(C)C

> <Shape>
0.297

> <Color>
0.073

> <Negative vol penalty>
0.000

$$$$

  -OEChem-04052300543D

 91100  0     1  0  0  0  0  0999 V2000
  -16.5004  -28.1324   22.6843 C   0  0  0  0  0  0  0  0  0  0  0  0
  -17.2312  -28.3076   21.5135 C   0  0  0  0  0  0  0  0  0  0  0  0
  -24.9564  -12.9397   17.0958 C   0  0  0  0  0  0  0  0  0  0  0  0
  -24.4294  -15.0210   18.2037 C   0  0  0  0  0  0  0  0  0  0  0  0
  -16.9960  -28.6188   23.8934 C   0  0  0  0  0  0  0  0  0  0  0  0
  -18.4575  -28.9702   21.5509 C   0  0  0  0  0  0  0  0  0  0  0  0
  -23.6104  -25.0455   20.0133 C   0  0  0  0  0  0  0  0  0  0  0  0
  -24.7150  -13.5371   15.8587 C   0  0  0  0  0  0  0  0  0  0  0  0
  -24.1879  -15.6184   16.9666 C   0  0  0  0  0  0  0  0  0  0  0  0
  -24.4538  -24.3738   19.1279 C   0  0  0  0  0  0  0  0  0  0  0  0
  -26.0075  -16.9123   14.4298 C   0  0  0  0  0  0  0  0  0  0  0  0
  -26.5450  -18.1802   14.2081 C   0  0  0  0  0  0  0  0  0  0  0  0
  -25.6168  -26.4397   18.6524 C   0  0  0  0  0  0  0  0  0  0  0  0
  -30.3489  -19.4950   18.6711 C   0  0  0  0  0  0  0  0  0  0  0  0
  -28.2258  -20.1271   19.6355 C   0  0  0  0  0  0  0  0  0  0  0  0
  -24.3227  -19.0614   13.8591 C   0  0  0  0  0  0  0  0  0  0  0  0
  -24.8136  -13.6817   18.2683 C   0  0  0  0  0  0  0  0  0  0  0  0
  -24.3980  -11.9528   20.0976 C   0  0  0  0  0  0  0  0  0  0  0  0
  -18.2336  -29.2792   23.9472 C   0  0  0  0  0  0  0  0  0  0  0  0
  -23.7767  -26.4159   20.2337 C   0  0  0  0  0  0  0  0  0  0  0  0
  -18.9695  -29.4670   22.7616 C   0  0  0  0  0  0  0  0  0  0  0  0
  -24.7833  -27.1151   19.5479 C   0  0  0  0  0  0  0  0  0  0  0  0
  -30.3986  -18.3818   19.5101 C   0  0  0  0  0  0  0  0  0  0  0  0
  -29.2626  -20.3677   18.7339 C   0  0  0  0  0  0  0  0  0  0  0  0
  -29.3619  -18.1412   20.4117 C   0  0  0  0  0  0  0  0  0  0  0  0
  -24.3307  -14.8764   15.7941 C   0  0  0  0  0  0  0  0  0  0  0  0
  -25.4543  -25.0693   18.4489 C   0  0  0  0  0  0  0  0  0  0  0  0
  -24.6275  -16.7189   14.3660 C   0  0  0  0  0  0  0  0  0  0  0  0
  -25.7027  -19.2547   13.9228 C   0  0  0  0  0  0  0  0  0  0  0  0
  -28.2755  -19.0138   20.4745 C   0  0  0  0  0  0  0  0  0  0  0  0
  -23.7851  -17.7935   14.0807 C   0  0  0  0  0  0  0  0  0  0  0  0
  -25.0623  -13.0650   19.5466 C   0  0  0  0  0  0  0  0  0  0  0  0
  -24.9995  -11.7634   21.3177 C   0  0  0  0  0  0  0  0  0  0  0  0
  -29.1585  -22.0128   15.4837 C   0  0  0  0  0  0  0  0  0  0  0  0
  -28.5597  -22.7142   18.2440 C   0  0  0  0  0  0  0  0  0  0  0  0
  -23.3324  -11.1617   19.5549 C   0  0  0  0  0  0  0  0  0  0  0  0
  -22.5754  -29.5043   21.9560 C   0  0  0  0  0  0  0  0  0  0  0  0
  -25.7600  -29.5826   21.8878 C   0  0  0  0  0  0  0  0  0  0  0  0
  -30.4265  -16.7977   22.2173 C   0  0  0  0  0  0  0  0  0  0  0  0
  -25.3807  -32.2287   24.0095 C   0  0  0  0  0  0  0  0  0  0  0  0
  -28.2202  -16.2192   21.3869 C   0  0  0  0  0  0  0  0  0  0  0  0
  -18.7061  -29.8291   25.2697 C   0  0  0  0  0  0  0  0  0  0  0  0
  -22.8477  -27.1893   21.1305 C   0  0  0  0  0  0  0  0  0  0  0  0
  -24.9049  -28.5934   19.7901 C   0  0  0  0  0  0  0  0  0  0  0  0
  -28.1293  -23.0648   15.8225 C   0  0  0  0  0  0  0  0  0  0  0  0
  -29.9984  -21.4922   16.6270 C   0  0  0  0  0  0  0  0  0  0  0  0
  -20.1893  -30.1900   25.2844 C   0  0  0  0  0  0  0  0  0  0  0  0
  -29.2134  -12.6660   21.5521 C   0  0  0  0  0  0  0  0  0  0  0  0
  -20.5579  -30.9839   24.0352 C   0  0  0  0  0  0  0  0  0  0  0  0
  -28.1579  -12.0902   22.4887 C   0  0  0  0  0  0  0  0  0  0  0  0
  -29.5580  -14.1092   21.9052 C   0  0  0  0  0  0  0  0  0  0  0  0
  -27.2714  -14.4462   22.8369 C   0  0  0  0  0  0  0  0  0  0  0  0
  -20.3155  -30.1587   22.7656 C   0  0  1  0  0  0  0  0  0  0  0  0
  -28.5454  -23.7583   17.1222 C   0  0  1  0  0  0  0  0  0  0  0  0
  -23.5345  -28.3533   21.8725 C   0  0  1  0  0  0  0  0  0  0  0  0
  -26.9041  -12.9731   22.5820 C   0  0  1  0  0  0  0  0  0  0  0  0
  -31.5754  -17.4646   19.4219 C   0  0  0  0  0  0  0  0  0  0  0  0
  -30.1705  -15.7873   23.3145 C   0  0  0  0  0  0  0  0  0  0  0  0
  -26.6344  -33.5905   25.7040 C   0  0  0  0  0  0  0  0  0  0  0  0
  -25.4739  -27.3197   23.9146 C   0  0  0  0  0  0  0  0  0  0  0  0
  -25.8324  -28.9994   25.7362 C   0  0  0  0  0  0  0  0  0  0  0  0
  -27.6287  -28.5811   24.0566 C   0  0  0  0  0  0  0  0  0  0  0  0
  -25.0478  -34.7108   22.4323 C   0  0  0  0  0  0  0  0  0  0  0  0
  -27.6015  -24.9156   17.4374 C   0  0  0  0  0  0  0  0  0  1  0  0
  -25.5498  -29.8403   23.3605 C   0  0  1  0  0  0  0  0  0  0  0  0
  -26.2330  -33.4631   24.2427 C   0  0  2  0  0  0  0  0  0  0  0  0
  -26.1002  -28.6885   24.2481 C   0  0  0  0  0  0  0  0  0  0  0  0
  -26.0130  -13.5482   20.3508 N   0  0  0  0  0  0  0  0  0  0  0  0
  -25.9503  -12.7359   21.4196 N   0  0  0  0  0  0  0  0  0  0  0  0
  -29.2126  -21.5177   17.8680 N   0  0  0  0  0  0  0  0  0  0  0  0
  -24.7483  -28.8813   21.2203 N   0  0  0  0  0  0  0  0  0  0  0  0
  -28.3618  -14.9557   22.0000 N   0  0  0  0  0  0  0  0  0  0  0  0
  -24.8025  -10.8615   22.3027 N   0  0  0  0  0  0  0  0  0  0  0  0
  -22.0115  -11.5446   19.8250 N   0  0  0  0  0  0  0  0  0  0  0  0
  -21.3800  -29.1966   22.5772 N   0  0  0  0  0  0  0  0  0  0  0  0
  -26.1449  -31.1435   23.6359 N   0  0  0  0  0  0  0  0  0  0  0  0
  -29.3972  -16.9941   21.2863 N   0  0  0  0  0  0  0  0  0  0  0  0
  -25.4841  -34.6909   23.8523 N   0  3  0  0  0  0  0  0  0  0  0  0
  -29.3746  -21.6786   14.3196 O   0  0  0  0  0  0  0  0  0  0  0  0
  -27.9898  -22.9320   19.3118 O   0  0  0  0  0  0  0  0  0  0  0  0
  -23.5454  -10.1360   18.8650 O   0  0  0  0  0  0  0  0  0  0  0  0
  -22.8958  -30.5926   21.4928 O   0  0  0  0  0  0  0  0  0  0  0  0
  -26.7952  -29.9846   21.3501 O   0  0  0  0  0  0  0  0  0  0  0  0
  -31.4871  -17.4288   22.2049 O   0  0  0  0  0  0  0  0  0  0  0  0
  -24.1596  -32.2264   24.1488 O   0  0  0  0  0  0  0  0  0  0  0  0
  -27.1252  -16.6589   21.0149 O   0  0  0  0  0  0  0  0  0  0  0  0
  -24.0953  -15.4598   14.5871 O   0  0  0  0  0  0  0  0  0  0  0  0
  -26.2770  -24.4069   17.5892 O   0  0  0  0  0  0  0  0  0  1  0  0
  -26.2189  -20.4725   13.7115 F   0  0  0  0  0  0  0  0  0  0  0  0
  -27.2732  -18.7931   21.3371 F   0  0  0  0  0  0  0  0  0  0  0  0
  -22.4585  -17.6142   14.0193 F   0  0  0  0  0  0  0  0  0  0  0  0
  1  2  1  0  0  0  0
  1  5  2  0  0  0  0
  2  6  2  0  0  0  0
  3  8  2  0  0  0  0
  3 17  1  0  0  0  0
  4  9  1  0  0  0  0
  4 17  2  0  0  0  0
  5 19  1  0  0  0  0
  6 21  1  0  0  0  0
  7 10  2  0  0  0  0
  7 20  1  0  0  0  0
  8 26  1  0  0  0  0
  9 26  2  0  0  0  0
 10 27  1  0  0  0  0
 11 12  2  0  0  0  0
 11 28  1  0  0  0  0
 12 29  1  0  0  0  0
 13 22  1  0  0  0  0
 13 27  2  0  0  0  0
 14 23  2  0  0  0  0
 14 24  1  0  0  0  0
 15 24  2  0  0  0  0
 15 30  1  0  0  0  0
 16 29  2  0  0  0  0
 16 31  1  0  0  0  0
 17 32  1  0  0  0  0
 18 32  1  0  0  0  0
 18 33  2  0  0  0  0
 18 36  1  0  0  0  0
 19 21  2  0  0  0  0
 19 42  1  0  0  0  0
 20 22  2  0  0  0  0
 20 43  1  0  0  0  0
 21 53  1  0  0  0  0
 22 44  1  0  0  0  0
 23 25  1  0  0  0  0
 23 57  1  0  0  0  0
 24 70  1  0  0  0  0
 25 30  2  0  0  0  0
 25 77  1  0  0  0  0
 26 87  1  0  0  0  0
 27 88  1  0  0  0  0
 28 31  2  0  0  0  0
 28 87  1  0  0  0  0
 29 89  1  0  0  0  0
 30 90  1  0  0  0  0
 31 91  1  0  0  0  0
 32 68  2  0  0  0  0
 33 69  1  0  0  0  0
 33 73  1  0  0  0  0
 34 45  1  0  0  0  0
 34 46  1  0  0  0  0
 34 79  2  0  0  0  0
 35 54  1  0  0  0  0
 35 70  1  0  0  0  0
 35 80  2  0  0  0  0
 36 74  1  0  0  0  0
 36 81  2  0  0  0  0
 37 55  1  0  0  0  0
 37 75  1  0  0  0  0
 37 82  2  0  0  0  0
 38 65  1  0  0  0  0
 38 71  1  0  0  0  0
 38 83  2  0  0  0  0
 39 58  1  0  0  0  0
 39 77  1  0  0  0  0
 39 84  2  0  0  0  0
 40 66  1  0  0  0  0
 40 76  1  0  0  0  0
 40 85  2  0  0  0  0
 41 72  1  0  0  0  0
 41 77  1  0  0  0  0
 41 86  2  0  0  0  0
 42 47  1  0  0  0  0
 43 55  1  0  0  0  0
 44 71  1  0  0  0  0
 45 54  1  0  0  0  0
 46 70  1  0  0  0  0
 47 49  1  0  0  0  0
 48 50  1  0  0  0  0
 48 51  1  0  0  0  0
 49 53  1  0  0  0  0
 50 56  1  0  0  0  0
 51 72  1  0  0  0  0
 52 56  1  0  0  0  0
 52 72  1  0  0  0  0
 53 75  1  0  0  0  0
 54 64  1  0  0  0  0
 55 71  1  0  0  0  0
 56 69  1  0  0  0  0
 59 66  1  0  0  0  0
 60 67  1  0  0  0  0
 61 67  1  0  0  0  0
 62 67  1  0  0  0  0
 63 78  1  0  0  0  0
 64 88  1  0  0  0  0
 65 67  1  0  0  0  0
 65 76  1  0  0  0  0
 66 78  1  0  0  0  0
 68 69  1  0  0  0  0
M  CHG  1  78   1
M  ISO  4  41 100  64 101  77 100  88 101
M  END
> <Batch ID>
0099

> <Smiles>
CNC(C)C(=O)NC(C(=O)N1Cc2cc([101O:1][101CH2:1]C3CC(=O)CN(c4cc(C)c([100N:0](C(C)=O)[100C:0](=O)N5CCCC(n6nc(-c7ccc(Oc8ccc(F)cc8F)cc7)c(C(N)=O)c6N)C5)c(F)c4)C3=O)ccc2CC1C(=O)NC1CCCc2ccccc21)C(C)(C)C

> <Shape>
0.272

> <Color>
0.072

> <Negative vol penalty>
0.000

$$$$

  -OEChem-04052300543D

 84 92  0     1  0  0  0  0  0999 V2000
  -25.3923  -20.8964   18.5159 C   0  0  0  0  0  0  0  0  0  0  0  0
  -26.3390  -20.9061   19.5353 C   0  0  0  0  0  0  0  0  0  0  0  0
  -23.1544   -9.7756   20.1070 C   0  0  0  0  0  0  0  0  0  0  0  0
  -23.8647  -10.0063   22.4047 C   0  0  0  0  0  0  0  0  0  0  0  0
  -25.5382  -21.7490   17.4225 C   0  0  0  0  0  0  0  0  0  0  0  0
  -27.4327  -21.7679   19.4613 C   0  0  0  0  0  0  0  0  0  0  0  0
  -28.3439  -24.1317   23.8462 C   0  0  0  0  0  0  0  0  0  0  0  0
  -22.4380   -8.6272   20.4438 C   0  0  0  0  0  0  0  0  0  0  0  0
  -23.1482   -8.8579   22.7415 C   0  0  0  0  0  0  0  0  0  0  0  0
  -28.9953  -23.4019   24.8396 C   0  0  0  0  0  0  0  0  0  0  0  0
  -19.9315   -8.0202   23.3513 C   0  0  0  0  0  0  0  0  0  0  0  0
  -19.1511   -8.0606   24.5067 C   0  0  0  0  0  0  0  0  0  0  0  0
  -31.0756  -24.4741   24.2548 C   0  0  0  0  0  0  0  0  0  0  0  0
  -31.8915  -16.9851   22.2794 C   0  0  0  0  0  0  0  0  0  0  0  0
  -29.6720  -17.8167   22.7474 C   0  0  0  0  0  0  0  0  0  0  0  0
  -20.4303   -6.2330   25.4345 C   0  0  0  0  0  0  0  0  0  0  0  0
  -23.8679  -10.4651   21.0875 C   0  0  0  0  0  0  0  0  0  0  0  0
  -24.1414  -12.9791   20.7515 C   0  0  0  0  0  0  0  0  0  0  0  0
  -26.6292  -22.6285   17.3397 C   0  0  0  0  0  0  0  0  0  0  0  0
  -29.0567  -25.0317   23.0410 C   0  0  0  0  0  0  0  0  0  0  0  0
  -27.5941  -22.6322   18.3651 C   0  0  0  0  0  0  0  0  0  0  0  0
  -30.4304  -25.2160   23.2536 C   0  0  0  0  0  0  0  0  0  0  0  0
  -32.4340  -17.9640   23.1118 C   0  0  0  0  0  0  0  0  0  0  0  0
  -30.5106  -16.9114   22.0971 C   0  0  0  0  0  0  0  0  0  0  0  0
  -30.2144  -18.7957   23.5800 C   0  0  0  0  0  0  0  0  0  0  0  0
  -31.5954  -18.8693   23.7622 C   0  0  0  0  0  0  0  0  0  0  0  0
  -22.4348   -8.1683   21.7610 C   0  0  0  0  0  0  0  0  0  0  0  0
  -30.3619  -23.5709   25.0421 C   0  0  0  0  0  0  0  0  0  0  0  0
  -20.9612   -7.0862   23.2374 C   0  0  0  0  0  0  0  0  0  0  0  0
  -19.4005   -7.1670   25.5483 C   0  0  0  0  0  0  0  0  0  0  0  0
  -21.2106   -6.1926   24.2790 C   0  0  0  0  0  0  0  0  0  0  0  0
  -24.6086  -11.6512   20.7402 C   0  0  0  0  0  0  0  0  0  0  0  0
  -25.2196  -13.7260   20.3441 C   0  0  0  0  0  0  0  0  0  0  0  0
  -22.8483  -13.4916   21.0993 C   0  0  0  0  0  0  0  0  0  0  0  0
  -29.6683  -25.2592   19.9301 C   0  0  0  0  0  0  0  0  0  0  0  0
  -30.9941  -28.0907   20.7945 C   0  0  0  0  0  0  0  0  0  0  0  0
  -31.9102  -20.0515   25.9638 C   0  0  0  0  0  0  0  0  0  0  0  0
  -32.4174  -29.9962   23.2420 C   0  0  0  0  0  0  0  0  0  0  0  0
  -30.6494  -14.9451   20.5285 C   0  0  0  0  0  0  0  0  0  0  0  0
  -26.7694  -23.4980   16.1154 C   0  0  0  0  0  0  0  0  0  0  0  0
  -28.3343  -25.8310   21.9915 C   0  0  0  0  0  0  0  0  0  0  0  0
  -31.2373  -26.1848   22.4296 C   0  0  0  0  0  0  0  0  0  0  0  0
  -27.7583  -24.6471   16.2943 C   0  0  0  0  0  0  0  0  0  0  0  0
  -29.6538  -12.3008   18.3620 C   0  0  0  0  0  0  0  0  0  0  0  0
  -29.0479  -24.1464   16.9370 C   0  0  0  0  0  0  0  0  0  0  0  0
  -28.2141  -12.0053   18.7885 C   0  0  0  0  0  0  0  0  0  0  0  0
  -30.5363  -12.6612   19.5558 C   0  0  0  0  0  0  0  0  0  0  0  0
  -28.5808  -13.4469   20.8316 C   0  0  0  0  0  0  0  0  0  0  0  0
  -28.7811  -23.5703   18.3328 C   0  0  1  0  0  0  0  0  0  0  0  0
  -29.2567  -26.3408   20.8885 C   0  0  1  0  0  0  0  0  0  0  0  0
  -27.6385  -13.1422   19.6556 C   0  0  2  0  0  0  0  0  0  0  0  0
  -33.9173  -18.0170   23.2876 C   0  0  0  0  0  0  0  0  0  0  0  0
  -33.4351  -32.2555   23.6379 C   0  0  0  0  0  0  0  0  0  0  0  0
  -33.5380  -27.1917   19.3697 C   0  0  0  0  0  0  0  0  0  0  0  0
  -34.7733  -29.0001   20.5829 C   0  0  0  0  0  0  0  0  0  0  0  0
  -32.9317  -29.5908   19.0074 C   0  0  0  0  0  0  0  0  0  0  0  0
  -30.3667  -30.6950   25.2582 C   0  0  0  0  0  0  0  0  0  0  0  0
  -32.7134  -21.2371   26.4864 C   0  0  0  0  0  0  0  0  0  0  0  0
  -32.3739  -22.5441   25.7862 C   0  0  0  0  0  0  0  0  0  1  0  0
  -32.3668  -28.5381   21.2356 C   0  0  1  0  0  0  0  0  0  0  0  0
  -32.1612  -31.4262   23.6822 C   0  0  2  0  0  0  0  0  0  0  0  0
  -33.3879  -28.5604   20.0633 C   0  0  0  0  0  0  0  0  0  0  0  0
  -25.8843  -11.5567   20.3558 N   0  0  0  0  0  0  0  0  0  0  0  0
  -26.2278  -12.8347   20.1218 N   0  0  0  0  0  0  0  0  0  0  0  0
  -30.4869  -26.9384   21.4117 N   0  0  0  0  0  0  0  0  0  0  0  0
  -29.9301  -13.7479   20.3281 N   0  0  0  0  0  0  0  0  0  0  0  0
  -29.3451  -19.7021   24.2283 N   0  0  0  0  0  0  0  0  0  0  0  0
  -25.3942  -15.0516   20.1578 N   0  0  0  0  0  0  0  0  0  0  0  0
  -21.8552  -12.5858   21.4964 N   0  0  0  0  0  0  0  0  0  0  0  0
  -32.1499  -19.8613   24.6056 N   0  0  0  0  0  0  0  0  0  0  0  0
  -29.9591  -15.9187   21.2498 N   0  0  0  0  0  0  0  0  0  0  0  0
  -28.6100  -24.6371   19.2957 N   0  0  0  0  0  0  0  0  0  0  0  0
  -32.1841  -29.8273   21.8935 N   0  0  0  0  0  0  0  0  0  0  0  0
  -31.6315  -31.4525   25.0749 N   0  3  0  0  0  0  0  0  0  0  0  0
  -22.5765  -14.7149   21.0433 O   0  0  0  0  0  0  0  0  0  0  0  0
  -30.8580  -25.0087   19.7764 O   0  0  0  0  0  0  0  0  0  0  0  0
  -30.3910  -28.7437   19.9392 O   0  0  0  0  0  0  0  0  0  0  0  0
  -31.1705  -19.3939   26.6883 O   0  0  0  0  0  0  0  0  0  0  0  0
  -32.7909  -29.1177   24.0161 O   0  0  0  0  0  0  0  0  0  0  0  0
  -31.7831  -15.1057   20.0691 O   0  0  0  0  0  0  0  0  0  0  0  0
  -21.7356   -7.0479   22.0900 O   0  0  0  0  0  0  0  0  0  0  0  0
  -31.0003  -22.8593   26.0106 O   0  0  0  0  0  0  0  0  0  1  0  0
  -18.6521   -7.2070   26.6584 F   0  0  0  0  0  0  0  0  0  0  0  0
  -22.1993   -5.2938   24.1759 F   0  0  0  0  0  0  0  0  0  0  0  0
  1  2  1  0  0  0  0
  1  5  2  0  0  0  0
  2  6  2  0  0  0  0
  3  8  2  0  0  0  0
  3 17  1  0  0  0  0
  4  9  1  0  0  0  0
  4 17  2  0  0  0  0
  5 19  1  0  0  0  0
  6 21  1  0  0  0  0
  7 10  2  0  0  0  0
  7 20  1  0  0  0  0
  8 27  1  0  0  0  0
  9 27  2  0  0  0  0
 10 28  1  0  0  0  0
 11 12  2  0  0  0  0
 11 29  1  0  0  0  0
 12 30  1  0  0  0  0
 13 22  1  0  0  0  0
 13 28  2  0  0  0  0
 14 23  2  0  0  0  0
 14 24  1  0  0  0  0
 15 24  2  0  0  0  0
 15 25  1  0  0  0  0
 16 30  2  0  0  0  0
 16 31  1  0  0  0  0
 17 32  1  0  0  0  0
 18 32  1  0  0  0  0
 18 33  2  0  0  0  0
 18 34  1  0  0  0  0
 19 21  2  0  0  0  0
 19 40  1  0  0  0  0
 20 22  2  0  0  0  0
 20 41  1  0  0  0  0
 21 49  1  0  0  0  0
 22 42  1  0  0  0  0
 23 26  1  0  0  0  0
 23 52  1  0  0  0  0
 24 71  1  0  0  0  0
 25 26  2  0  0  0  0
 25 67  1  0  0  0  0
 26 70  1  0  0  0  0
 27 81  1  0  0  0  0
 28 82  1  0  0  0  0
 29 31  2  0  0  0  0
 29 81  1  0  0  0  0
 30 83  1  0  0  0  0
 31 84  1  0  0  0  0
 32 63  2  0  0  0  0
 33 64  1  0  0  0  0
 33 68  1  0  0  0  0
 34 69  1  0  0  0  0
 34 75  2  0  0  0  0
 35 50  1  0  0  0  0
 35 72  1  0  0  0  0
 35 76  2  0  0  0  0
 36 60  1  0  0  0  0
 36 65  1  0  0  0  0
 36 77  2  0  0  0  0
 37 58  1  0  0  0  0
 37 70  1  0  0  0  0
 37 78  2  0  0  0  0
 38 61  1  0  0  0  0
 38 73  1  0  0  0  0
 38 79  2  0  0  0  0
 39 66  1  0  0  0  0
 39 71  1  0  0  0  0
 39 80  2  0  0  0  0
 40 43  1  0  0  0  0
 41 50  1  0  0  0  0
 42 65  1  0  0  0  0
 43 45  1  0  0  0  0
 44 46  1  0  0  0  0
 44 47  1  0  0  0  0
 45 49  1  0  0  0  0
 46 51  1  0  0  0  0
 47 66  1  0  0  0  0
 48 51  1  0  0  0  0
 48 66  1  0  0  0  0
 49 72  1  0  0  0  0
 50 65  1  0  0  0  0
 51 64  1  0  0  0  0
 53 61  1  0  0  0  0
 54 62  1  0  0  0  0
 55 62  1  0  0  0  0
 56 62  1  0  0  0  0
 57 74  1  0  0  0  0
 58 59  1  0  0  0  0
 59 82  1  0  0  0  0
 60 62  1  0  0  0  0
 60 73  1  0  0  0  0
 61 74  1  0  0  0  0
 63 64  1  0  0  0  0
M  CHG  1  74   1
M  ISO  4  39 100  59 101  71 100  82 101
M  END
> <Batch ID>
0099

> <Smiles>
CNC(C)C(=O)NC(C(=O)N1Cc2cc([101O:1][101CH2:1]CC(=O)Nc3c(C)cc([100NH:0][100C:0](=O)N4CCCC(n5nc(-c6ccc(Oc7ccc(F)cc7F)cc6)c(C(N)=O)c5N)C4)cc3N)ccc2CC1C(=O)NC1CCCc2ccccc21)C(C)(C)C

> <Shape>
0.222

> <Color>
0.195

> <Negative vol penalty>
0.000

$$$$

  -OEChem-04052300543D

 86 94  0     1  0  0  0  0  0999 V2000
  -24.7495  -34.7015   23.9186 C   0  0  0  0  0  0  0  0  0  0  0  0
  -25.4769  -33.5501   23.6349 C   0  0  0  0  0  0  0  0  0  0  0  0
  -21.5327  -10.2024   23.2080 C   0  0  0  0  0  0  0  0  0  0  0  0
  -23.3387  -10.3349   21.6087 C   0  0  0  0  0  0  0  0  0  0  0  0
  -27.9195  -20.2289   21.8199 C   0  0  0  0  0  0  0  0  0  0  0  0
  -23.4020  -34.6061   24.2638 C   0  0  0  0  0  0  0  0  0  0  0  0
  -24.8575  -32.3024   23.6972 C   0  0  0  0  0  0  0  0  0  0  0  0
  -26.0172  -29.3579   19.7437 C   0  0  0  0  0  0  0  0  0  0  0  0
  -26.8164  -19.4183   22.0876 C   0  0  0  0  0  0  0  0  0  0  0  0
  -21.2999   -8.8786   22.8355 C   0  0  0  0  0  0  0  0  0  0  0  0
  -23.1060   -9.0110   21.2362 C   0  0  0  0  0  0  0  0  0  0  0  0
  -27.2630  -28.7322   19.7596 C   0  0  0  0  0  0  0  0  0  0  0  0
  -22.6607   -5.8436   23.4439 C   0  0  0  0  0  0  0  0  0  0  0  0
  -22.4633   -4.9093   24.4606 C   0  0  0  0  0  0  0  0  0  0  0  0
  -26.2203  -26.6883   20.5041 C   0  0  0  0  0  0  0  0  0  0  0  0
  -25.4981  -20.6927   20.5144 C   0  0  0  0  0  0  0  0  0  0  0  0
  -20.2686   -4.4146   23.5799 C   0  0  0  0  0  0  0  0  0  0  0  0
  -22.5521  -10.9306   22.5946 C   0  0  0  0  0  0  0  0  0  0  0  0
  -27.8119  -21.2716   20.8995 C   0  0  0  0  0  0  0  0  0  0  0  0
  -23.6560  -12.7578   23.9912 C   0  0  0  0  0  0  0  0  0  0  0  0
  -22.7633  -33.3573   24.3210 C   0  0  0  0  0  0  0  0  0  0  0  0
  -24.8631  -28.6554   20.1190 C   0  0  0  0  0  0  0  0  0  0  0  0
  -23.5006  -32.1900   24.0448 C   0  0  0  0  0  0  0  0  0  0  0  0
  -24.9607  -27.3066   20.4897 C   0  0  0  0  0  0  0  0  0  0  0  0
  -25.6058  -19.6501   21.4348 C   0  0  0  0  0  0  0  0  0  0  0  0
  -22.0865   -8.2828   21.8496 C   0  0  0  0  0  0  0  0  0  0  0  0
  -27.3651  -27.3980   20.1426 C   0  0  0  0  0  0  0  0  0  0  0  0
  -21.6620   -6.0635   22.4953 C   0  0  0  0  0  0  0  0  0  0  0  0
  -21.2672   -4.1948   24.5286 C   0  0  0  0  0  0  0  0  0  0  0  0
  -26.6012  -21.5034   20.2467 C   0  0  0  0  0  0  0  0  0  0  0  0
  -20.4660   -5.3490   22.5632 C   0  0  0  0  0  0  0  0  0  0  0  0
  -22.7927  -12.2984   22.9785 C   0  0  0  0  0  0  0  0  0  0  0  0
  -23.5274  -14.1249   23.9579 C   0  0  0  0  0  0  0  0  0  0  0  0
  -28.9887  -22.1342   20.6198 C   0  0  0  0  0  0  0  0  0  0  0  0
  -24.4989  -12.0152   24.8821 C   0  0  0  0  0  0  0  0  0  0  0  0
  -22.6967  -28.9683   22.4240 C   0  0  0  0  0  0  0  0  0  0  0  0
  -29.9191  -24.9774   19.2664 C   0  0  0  0  0  0  0  0  0  0  0  0
  -21.2272  -26.5519   20.8354 C   0  0  0  0  0  0  0  0  0  0  0  0
  -21.4982  -23.8928   18.7135 C   0  0  0  0  0  0  0  0  0  0  0  0
  -23.2118  -18.9206   21.1465 C   0  0  0  0  0  0  0  0  0  0  0  0
  -21.3171  -33.3004   24.7449 C   0  0  0  0  0  0  0  0  0  0  0  0
  -23.5232  -29.3371   20.0709 C   0  0  0  0  0  0  0  0  0  0  0  0
  -23.7492  -26.5023   20.8820 C   0  0  0  0  0  0  0  0  0  0  0  0
  -20.6399  -31.9706   24.4233 C   0  0  0  0  0  0  0  0  0  0  0  0
  -20.1987  -17.0621   21.5261 C   0  0  0  0  0  0  0  0  0  0  0  0
  -21.5287  -30.8039   24.8423 C   0  0  0  0  0  0  0  0  0  0  0  0
  -20.6759  -15.6949   22.0211 C   0  0  0  0  0  0  0  0  0  0  0  0
  -21.1645  -17.6654   20.5078 C   0  0  0  0  0  0  0  0  0  0  0  0
  -23.0411  -16.3713   21.4420 C   0  0  0  0  0  0  0  0  0  0  0  0
  -22.8578  -30.8204   24.0776 C   0  0  1  0  0  0  0  0  0  0  0  0
  -22.4822  -28.6725   20.9665 C   0  0  1  0  0  0  0  0  0  0  0  0
  -22.1338  -15.7529   22.5180 C   0  0  2  0  0  0  0  0  0  0  0  0
  -30.3906  -23.3413   17.4189 C   0  0  0  0  0  0  0  0  0  0  0  0
  -20.1302  -22.0886   17.6313 C   0  0  0  0  0  0  0  0  0  0  0  0
  -21.1494  -25.0290   23.4782 C   0  0  0  0  0  0  0  0  0  0  0  0
  -20.6714  -22.9415   22.1812 C   0  0  0  0  0  0  0  0  0  0  0  0
  -19.0648  -24.8484   22.1084 C   0  0  0  0  0  0  0  0  0  0  0  0
  -22.1489  -24.8685   15.9962 C   0  0  0  0  0  0  0  0  0  0  0  0
  -28.6026  -25.3810   19.9057 C   0  0  0  0  0  0  0  0  0  1  0  0
  -30.1502  -23.5085   18.9116 C   0  0  2  0  0  0  0  0  0  0  0  0
  -21.2766  -25.0444   20.8995 C   0  0  1  0  0  0  0  0  0  0  0  0
  -20.6930  -23.4943   17.4898 C   0  0  2  0  0  0  0  0  0  0  0  0
  -20.5638  -24.4813   22.1614 C   0  0  0  0  0  0  0  0  0  0  0  0
  -22.1621  -13.2929   22.3481 N   0  0  0  0  0  0  0  0  0  0  0  0
  -22.6296  -14.3908   22.9663 N   0  0  0  0  0  0  0  0  0  0  0  0
  -22.4624  -27.2152   20.8249 N   0  0  0  0  0  0  0  0  0  0  0  0
  -22.5250  -17.6919   21.0493 N   0  0  0  0  0  0  0  0  0  0  0  0
  -24.0958  -15.1134   24.6806 N   0  0  0  0  0  0  0  0  0  0  0  0
  -24.5108  -10.6174   24.7810 N   0  0  0  0  0  0  0  0  0  0  0  0
  -24.4853  -18.8265   21.7068 N   0  0  0  0  0  0  0  0  0  0  0  0
  -29.0600  -22.6738   19.3416 N   0  0  0  0  0  0  0  0  0  0  0  0
  -22.6742  -30.3146   22.7341 N   0  0  0  0  0  0  0  0  0  0  0  0
  -20.7252  -24.5638   19.6373 N   0  0  0  0  0  0  0  0  0  0  0  0
  -21.5484  -23.5376   16.2702 N   0  3  0  0  0  0  0  0  0  0  0  0
  -29.8283  -22.3072   21.4993 O   0  0  0  0  0  0  0  0  0  0  0  0
  -25.2076  -12.5738   25.7534 O   0  0  0  0  0  0  0  0  0  0  0  0
  -22.8685  -28.0433   23.2093 O   0  0  0  0  0  0  0  0  0  0  0  0
  -30.8125  -25.8086   19.0815 O   0  0  0  0  0  0  0  0  0  0  0  0
  -20.1330  -27.1196   20.7887 O   0  0  0  0  0  0  0  0  0  0  0  0
  -22.6926  -23.6313   18.8390 O   0  0  0  0  0  0  0  0  0  0  0  0
  -22.6968  -19.9822   20.7863 O   0  0  0  0  0  0  0  0  0  0  0  0
  -21.8598   -6.9909   21.4861 O   0  0  0  0  0  0  0  0  0  0  0  0
  -28.5800  -26.7851   20.1596 O   0  0  0  0  0  0  0  0  0  1  0  0
  -21.0784   -3.2964   25.5040 F   0  0  0  0  0  0  0  0  0  0  0  0
  -26.4861  -22.5029   19.3605 F   0  0  0  0  0  0  0  0  0  0  0  0
  -19.5034   -5.5551   21.6540 F   0  0  0  0  0  0  0  0  0  0  0  0
  1  2  1  0  0  0  0
  1  6  2  0  0  0  0
  2  7  2  0  0  0  0
  3 10  2  0  0  0  0
  3 18  1  0  0  0  0
  4 11  1  0  0  0  0
  4 18  2  0  0  0  0
  5  9  2  0  0  0  0
  5 19  1  0  0  0  0
  6 21  1  0  0  0  0
  7 23  1  0  0  0  0
  8 12  2  0  0  0  0
  8 22  1  0  0  0  0
  9 25  1  0  0  0  0
 10 26  1  0  0  0  0
 11 26  2  0  0  0  0
 12 27  1  0  0  0  0
 13 14  2  0  0  0  0
 13 28  1  0  0  0  0
 14 29  1  0  0  0  0
 15 24  1  0  0  0  0
 15 27  2  0  0  0  0
 16 25  2  0  0  0  0
 16 30  1  0  0  0  0
 17 29  2  0  0  0  0
 17 31  1  0  0  0  0
 18 32  1  0  0  0  0
 19 30  2  0  0  0  0
 19 34  1  0  0  0  0
 20 32  1  0  0  0  0
 20 33  2  0  0  0  0
 20 35  1  0  0  0  0
 21 23  2  0  0  0  0
 21 41  1  0  0  0  0
 22 24  2  0  0  0  0
 22 42  1  0  0  0  0
 23 50  1  0  0  0  0
 24 43  1  0  0  0  0
 25 70  1  0  0  0  0
 26 82  1  0  0  0  0
 27 83  1  0  0  0  0
 28 31  2  0  0  0  0
 28 82  1  0  0  0  0
 29 84  1  0  0  0  0
 30 85  1  0  0  0  0
 31 86  1  0  0  0  0
 32 64  2  0  0  0  0
 33 65  1  0  0  0  0
 33 68  1  0  0  0  0
 34 71  1  0  0  0  0
 34 75  2  0  0  0  0
 35 69  1  0  0  0  0
 35 76  2  0  0  0  0
 36 51  1  0  0  0  0
 36 72  1  0  0  0  0
 36 77  2  0  0  0  0
 37 59  1  0  0  0  0
 37 60  1  0  0  0  0
 37 78  2  0  0  0  0
 38 61  1  0  0  0  0
 38 66  1  0  0  0  0
 38 79  2  0  0  0  0
 39 62  1  0  0  0  0
 39 73  1  0  0  0  0
 39 80  2  0  0  0  0
 40 67  1  0  0  0  0
 40 70  1  0  0  0  0
 40 81  2  0  0  0  0
 41 44  1  0  0  0  0
 42 51  1  0  0  0  0
 43 66  1  0  0  0  0
 44 46  1  0  0  0  0
 45 47  1  0  0  0  0
 45 48  1  0  0  0  0
 46 50  1  0  0  0  0
 47 52  1  0  0  0  0
 48 67  1  0  0  0  0
 49 52  1  0  0  0  0
 49 67  1  0  0  0  0
 50 72  1  0  0  0  0
 51 66  1  0  0  0  0
 52 65  1  0  0  0  0
 53 60  1  0  0  0  0
 54 62  1  0  0  0  0
 55 63  1  0  0  0  0
 56 63  1  0  0  0  0
 57 63  1  0  0  0  0
 58 74  1  0  0  0  0
 59 83  1  0  0  0  0
 60 71  1  0  0  0  0
 61 63  1  0  0  0  0
 61 73  1  0  0  0  0
 62 74  1  0  0  0  0
 64 65  1  0  0  0  0
M  CHG  1  74   1
M  ISO  4  40 100  59 101  70 100  83 101
M  END
> <Batch ID>
0099

> <Smiles>
CNC(C)C(=O)NC(C(=O)N1Cc2cc([101O:1][101CH2:1]C(=O)C(C)NC(=O)c3ccc([100NH:0][100C:0](=O)N4CCCC(n5nc(-c6ccc(Oc7ccc(F)cc7F)cc6)c(C(N)=O)c5N)C4)cc3F)ccc2CC1C(=O)NC1CCCc2ccccc21)C(C)(C)C

> <Shape>
0.225

> <Color>
0.099

> <Negative vol penalty>
0.000

$$$$

  -OEChem-04052300543D

 84 92  0     1  0  0  0  0  0999 V2000
  -29.4680  -11.6932   19.5894 C   0  0  0  0  0  0  0  0  0  0  0  0
  -29.4369  -12.5190   20.7086 C   0  0  0  0  0  0  0  0  0  0  0  0
  -26.2763  -28.1692   18.8509 C   0  0  0  0  0  0  0  0  0  0  0  0
  -26.2522  -27.6452   21.2092 C   0  0  0  0  0  0  0  0  0  0  0  0
  -28.7443  -12.0390   18.4490 C   0  0  0  0  0  0  0  0  0  0  0  0
  -28.6827  -13.6917   20.6876 C   0  0  0  0  0  0  0  0  0  0  0  0
  -25.9788  -14.3388   24.9202 C   0  0  0  0  0  0  0  0  0  0  0  0
  -25.2380  -29.0805   19.0427 C   0  0  0  0  0  0  0  0  0  0  0  0
  -25.2138  -28.5566   21.4011 C   0  0  0  0  0  0  0  0  0  0  0  0
  -26.6584  -14.8046   26.0449 C   0  0  0  0  0  0  0  0  0  0  0  0
  -21.8672  -28.6556   20.9307 C   0  0  0  0  0  0  0  0  0  0  0  0
  -20.7921  -28.2556   21.7242 C   0  0  0  0  0  0  0  0  0  0  0  0
  -25.8302  -17.0294   25.6165 C   0  0  0  0  0  0  0  0  0  0  0  0
  -30.6528  -19.5408   25.1618 C   0  0  0  0  0  0  0  0  0  0  0  0
  -29.4343  -18.3321   22.9625 C   0  0  0  0  0  0  0  0  0  0  0  0
  -21.2366  -30.0790   23.2457 C   0  0  0  0  0  0  0  0  0  0  0  0
  -26.7834  -27.4515   19.9341 C   0  0  0  0  0  0  0  0  0  0  0  0
  -29.2377  -26.7673   19.8082 C   0  0  0  0  0  0  0  0  0  0  0  0
  -27.9731  -13.2116   18.4174 C   0  0  0  0  0  0  0  0  0  0  0  0
  -25.2274  -15.2184   24.1276 C   0  0  0  0  0  0  0  0  0  0  0  0
  -27.9490  -14.0542   19.5452 C   0  0  0  0  0  0  0  0  0  0  0  0
  -25.1399  -16.5718   24.4837 C   0  0  0  0  0  0  0  0  0  0  0  0
  -30.4660  -20.2635   23.9835 C   0  0  0  0  0  0  0  0  0  0  0  0
  -29.8567  -19.6591   22.8839 C   0  0  0  0  0  0  0  0  0  0  0  0
  -29.6212  -17.6094   24.1409 C   0  0  0  0  0  0  0  0  0  0  0  0
  -24.7067  -29.2743   20.3177 C   0  0  0  0  0  0  0  0  0  0  0  0
  -26.5865  -16.1506   26.3916 C   0  0  0  0  0  0  0  0  0  0  0  0
  -22.6271  -29.7673   21.2946 C   0  0  0  0  0  0  0  0  0  0  0  0
  -30.2305  -18.2137   25.2405 C   0  0  0  0  0  0  0  0  0  0  0  0
  -20.4768  -28.9673   22.8817 C   0  0  0  0  0  0  0  0  0  0  0  0
  -22.3118  -30.4790   22.4521 C   0  0  0  0  0  0  0  0  0  0  0  0
  -27.8557  -26.5095   19.7366 C   0  0  0  0  0  0  0  0  0  0  0  0
  -29.8273  -25.5549   19.5458 C   0  0  0  0  0  0  0  0  0  0  0  0
  -29.9270  -27.9932   20.0872 C   0  0  0  0  0  0  0  0  0  0  0  0
  -25.3643  -16.1862   21.1030 C   0  0  0  0  0  0  0  0  0  0  0  0
  -22.5834  -17.6741   21.8612 C   0  0  0  0  0  0  0  0  0  0  0  0
  -20.5707  -18.9963   24.2794 C   0  0  0  0  0  0  0  0  0  0  0  0
  -29.0704  -19.9096   20.5037 C   0  0  0  0  0  0  0  0  0  0  0  0
  -27.2453  -13.5677   17.1454 C   0  0  0  0  0  0  0  0  0  0  0  0
  -24.4784  -14.6952   22.9328 C   0  0  0  0  0  0  0  0  0  0  0  0
  -24.3302  -17.5531   23.6776 C   0  0  0  0  0  0  0  0  0  0  0  0
  -26.1722  -14.6364   17.3364 C   0  0  0  0  0  0  0  0  0  0  0  0
  -28.3670  -21.3754   17.3361 C   0  0  0  0  0  0  0  0  0  0  0  0
  -26.7138  -15.7939   18.1692 C   0  0  0  0  0  0  0  0  0  0  0  0
  -28.2983  -22.8742   17.6374 C   0  0  0  0  0  0  0  0  0  0  0  0
  -27.7827  -20.5407   18.4743 C   0  0  0  0  0  0  0  0  0  0  0  0
  -28.2737  -22.3222   20.1035 C   0  0  0  0  0  0  0  0  0  0  0  0
  -27.1229  -15.3219   19.5697 C   0  0  1  0  0  0  0  0  0  0  0  0
  -24.1615  -15.7774   21.9053 C   0  0  1  0  0  0  0  0  0  0  0  0
  -28.9097  -23.2009   19.0140 C   0  0  2  0  0  0  0  0  0  0  0  0
  -32.2336  -21.8367   23.1546 C   0  0  0  0  0  0  0  0  0  0  0  0
  -18.3776  -20.1761   24.5890 C   0  0  0  0  0  0  0  0  0  0  0  0
  -23.8327  -20.2611   20.8333 C   0  0  0  0  0  0  0  0  0  0  0  0
  -22.0235  -21.5233   22.0173 C   0  0  0  0  0  0  0  0  0  0  0  0
  -21.4390  -19.9305   20.1887 C   0  0  0  0  0  0  0  0  0  0  0  0
  -19.5026  -16.8133   25.9684 C   0  0  0  0  0  0  0  0  0  0  0  0
  -30.9274  -21.6835   23.9276 C   0  0  0  0  0  0  0  0  0  0  0  0
  -29.4164  -16.9055   28.5069 C   0  0  0  0  0  0  0  0  0  0  0  0
  -28.4521  -15.9304   27.8500 C   0  0  0  0  0  0  0  0  0  1  0  0
  -29.7995  -18.0429   27.5731 C   0  0  0  0  0  0  0  0  0  0  0  0
  -22.2123  -19.0266   22.4196 C   0  0  1  0  0  0  0  0  0  0  0  0
  -19.0873  -18.8314   24.5564 C   0  0  2  0  0  0  0  0  0  0  0  0
  -22.3938  -20.1675   21.3790 C   0  0  0  0  0  0  0  0  0  0  0  0
  -27.5833  -25.2335   19.4508 N   0  0  0  0  0  0  0  0  0  0  0  0
  -28.8024  -24.6787   19.3405 N   0  0  0  0  0  0  0  0  0  0  0  0
  -23.6210  -16.9944   22.5147 N   0  0  0  0  0  0  0  0  0  0  0  0
  -28.4123  -20.9016   19.7463 N   0  0  0  0  0  0  0  0  0  0  0  0
  -29.1901  -16.2665   24.2065 N   0  0  0  0  0  0  0  0  0  0  0  0
  -31.1172  -25.1635   19.4728 N   0  0  0  0  0  0  0  0  0  0  0  0
  -29.1680  -29.1452   20.3345 N   0  0  0  0  0  0  0  0  0  0  0  0
  -29.6593  -20.3768   21.6782 N   0  0  0  0  0  0  0  0  0  0  0  0
  -25.9547  -15.1492   20.4062 N   0  0  0  0  0  0  0  0  0  0  0  0
  -20.8530  -18.8972   22.9334 N   0  0  0  0  0  0  0  0  0  0  0  0
  -18.8772  -18.1572   25.8688 N   0  3  0  0  0  0  0  0  0  0  0  0
  -31.1791  -28.0685   20.1000 O   0  0  0  0  0  0  0  0  0  0  0  0
  -25.7289  -17.3561   21.1141 O   0  0  0  0  0  0  0  0  0  0  0  0
  -21.9702  -17.2336   20.8857 O   0  0  0  0  0  0  0  0  0  0  0  0
  -21.3960  -19.1970   25.1678 O   0  0  0  0  0  0  0  0  0  0  0  0
  -29.1320  -18.7374   20.1238 O   0  0  0  0  0  0  0  0  0  0  0  0
  -23.6936  -30.1637   20.5053 O   0  0  0  0  0  0  0  0  0  0  0  0
  -27.2494  -16.6079   27.4885 O   0  0  0  0  0  0  0  0  0  1  0  0
  -30.4227  -17.5208   26.4074 O   0  0  0  0  0  0  0  0  0  0  0  0
  -19.4434  -28.5839   23.6428 F   0  0  0  0  0  0  0  0  0  0  0  0
  -23.0374  -31.5485   22.8062 F   0  0  0  0  0  0  0  0  0  0  0  0
  1  2  1  0  0  0  0
  1  5  2  0  0  0  0
  2  6  2  0  0  0  0
  3  8  2  0  0  0  0
  3 17  1  0  0  0  0
  4  9  1  0  0  0  0
  4 17  2  0  0  0  0
  5 19  1  0  0  0  0
  6 21  1  0  0  0  0
  7 10  2  0  0  0  0
  7 20  1  0  0  0  0
  8 26  1  0  0  0  0
  9 26  2  0  0  0  0
 10 27  1  0  0  0  0
 11 12  2  0  0  0  0
 11 28  1  0  0  0  0
 12 30  1  0  0  0  0
 13 22  1  0  0  0  0
 13 27  2  0  0  0  0
 14 23  1  0  0  0  0
 14 29  2  0  0  0  0
 15 24  1  0  0  0  0
 15 25  2  0  0  0  0
 16 30  2  0  0  0  0
 16 31  1  0  0  0  0
 17 32  1  0  0  0  0
 18 32  1  0  0  0  0
 18 33  2  0  0  0  0
 18 34  1  0  0  0  0
 19 21  2  0  0  0  0
 19 39  1  0  0  0  0
 20 22  2  0  0  0  0
 20 40  1  0  0  0  0
 21 48  1  0  0  0  0
 22 41  1  0  0  0  0
 23 24  2  0  0  0  0
 23 57  1  0  0  0  0
 24 71  1  0  0  0  0
 25 29  1  0  0  0  0
 25 68  1  0  0  0  0
 26 80  1  0  0  0  0
 27 81  1  0  0  0  0
 28 31  2  0  0  0  0
 28 80  1  0  0  0  0
 29 82  1  0  0  0  0
 30 83  1  0  0  0  0
 31 84  1  0  0  0  0
 32 64  2  0  0  0  0
 33 65  1  0  0  0  0
 33 69  1  0  0  0  0
 34 70  1  0  0  0  0
 34 75  2  0  0  0  0
 35 49  1  0  0  0  0
 35 72  1  0  0  0  0
 35 76  2  0  0  0  0
 36 61  1  0  0  0  0
 36 66  1  0  0  0  0
 36 77  2  0  0  0  0
 37 62  1  0  0  0  0
 37 73  1  0  0  0  0
 37 78  2  0  0  0  0
 38 67  1  0  0  0  0
 38 71  1  0  0  0  0
 38 79  2  0  0  0  0
 39 42  1  0  0  0  0
 40 49  1  0  0  0  0
 41 66  1  0  0  0  0
 42 44  1  0  0  0  0
 43 45  1  0  0  0  0
 43 46  1  0  0  0  0
 44 48  1  0  0  0  0
 45 50  1  0  0  0  0
 46 67  1  0  0  0  0
 47 50  1  0  0  0  0
 47 67  1  0  0  0  0
 48 72  1  0  0  0  0
 49 66  1  0  0  0  0
 50 65  1  0  0  0  0
 51 57  1  0  0  0  0
 52 62  1  0  0  0  0
 53 63  1  0  0  0  0
 54 63  1  0  0  0  0
 55 63  1  0  0  0  0
 56 74  1  0  0  0  0
 58 59  1  0  0  0  0
 58 60  1  0  0  0  0
 59 81  1  0  0  0  0
 60 82  1  0  0  0  0
 61 63  1  0  0  0  0
 61 73  1  0  0  0  0
 62 74  1  0  0  0  0
 64 65  1  0  0  0  0
M  CHG  1  74   1
M  ISO  4  38 100  59 101  71 100  81 101
M  END
> <Batch ID>
0099

> <Smiles>
CCc1cc(OCC[101CH2:1][101O:1]c2ccc3c(c2)CN(C(=O)C(NC(=O)C(C)NC)C(C)(C)C)C(C(=O)NC2CCCc4ccccc42)C3)c(N)cc1[100NH:0][100C:0](=O)N1CCCC(n2nc(-c3ccc(Oc4ccc(F)cc4F)cc3)c(C(N)=O)c2N)C1

> <Shape>
0.209

> <Color>
0.066

> <Negative vol penalty>
0.000

$$$$

  -OEChem-04052300543D

 87 95  0     1  0  0  0  0  0999 V2000
  -26.0946  -36.9926   24.0699 C   0  0  0  0  0  0  0  0  0  0  0  0
  -26.8101  -35.9617   23.4692 C   0  0  0  0  0  0  0  0  0  0  0  0
  -28.1624  -10.0618   20.8588 C   0  0  0  0  0  0  0  0  0  0  0  0
  -26.5647  -11.2282   19.4717 C   0  0  0  0  0  0  0  0  0  0  0  0
  -24.9850  -36.7002   24.8618 C   0  0  0  0  0  0  0  0  0  0  0  0
  -26.4169  -34.6377   23.6610 C   0  0  0  0  0  0  0  0  0  0  0  0
  -26.7900  -30.0624   19.6072 C   0  0  0  0  0  0  0  0  0  0  0  0
  -24.6792  -21.2354   20.3577 C   0  0  0  0  0  0  0  0  0  0  0  0
  -27.2374   -9.0380   21.0633 C   0  0  0  0  0  0  0  0  0  0  0  0
  -25.6397  -10.2044   19.6762 C   0  0  0  0  0  0  0  0  0  0  0  0
  -27.7190  -29.0377   19.4322 C   0  0  0  0  0  0  0  0  0  0  0  0
  -23.4975   -9.2308   22.1039 C   0  0  0  0  0  0  0  0  0  0  0  0
  -24.8920  -20.2314   19.4132 C   0  0  0  0  0  0  0  0  0  0  0  0
  -22.1843   -9.5940   22.4028 C   0  0  0  0  0  0  0  0  0  0  0  0
  -26.3103  -27.5510   20.7069 C   0  0  0  0  0  0  0  0  0  0  0  0
  -26.5902  -20.4578   21.6149 C   0  0  0  0  0  0  0  0  0  0  0  0
  -21.4146   -8.4372   20.4263 C   0  0  0  0  0  0  0  0  0  0  0  0
  -27.8261  -11.1569   20.0630 C   0  0  0  0  0  0  0  0  0  0  0  0
  -29.7381  -12.3035   18.8232 C   0  0  0  0  0  0  0  0  0  0  0  0
  -24.5723  -35.3725   25.0556 C   0  0  0  0  0  0  0  0  0  0  0  0
  -25.6173  -29.8418   20.3439 C   0  0  0  0  0  0  0  0  0  0  0  0
  -25.3016  -34.3272   24.4574 C   0  0  0  0  0  0  0  0  0  0  0  0
  -25.3668  -28.5739   20.8876 C   0  0  0  0  0  0  0  0  0  0  0  0
  -25.5284  -21.3487   21.4586 C   0  0  0  0  0  0  0  0  0  0  0  0
  -26.8029  -19.4536   20.6704 C   0  0  0  0  0  0  0  0  0  0  0  0
  -25.9761   -9.1093   20.4721 C   0  0  0  0  0  0  0  0  0  0  0  0
  -27.4806  -27.7826   19.9845 C   0  0  0  0  0  0  0  0  0  0  0  0
  -23.7692   -8.4708   20.9662 C   0  0  0  0  0  0  0  0  0  0  0  0
  -21.1429   -9.1972   21.5640 C   0  0  0  0  0  0  0  0  0  0  0  0
  -25.9538  -19.3405   19.5695 C   0  0  0  0  0  0  0  0  0  0  0  0
  -22.7277   -8.0740   20.1274 C   0  0  0  0  0  0  0  0  0  0  0  0
  -28.7810  -12.2151   19.8517 C   0  0  0  0  0  0  0  0  0  0  0  0
  -30.3922  -13.4871   19.0638 C   0  0  0  0  0  0  0  0  0  0  0  0
  -30.0116  -11.3969   17.7467 C   0  0  0  0  0  0  0  0  0  0  0  0
  -24.3810  -31.0549   23.0091 C   0  0  0  0  0  0  0  0  0  0  0  0
  -21.8326  -29.2184   22.1999 C   0  0  0  0  0  0  0  0  0  0  0  0
  -26.5059  -23.3535   22.6010 C   0  0  0  0  0  0  0  0  0  0  0  0
  -20.6374  -26.5024   20.5141 C   0  0  0  0  0  0  0  0  0  0  0  0
  -27.8511  -24.8901   21.2026 C   0  0  0  0  0  0  0  0  0  0  0  0
  -28.8176  -18.5252   21.8644 C   0  0  0  0  0  0  0  0  0  0  0  0
  -23.3948  -35.1028   25.9587 C   0  0  0  0  0  0  0  0  0  0  0  0
  -24.6125  -30.9500   20.5009 C   0  0  0  0  0  0  0  0  0  0  0  0
  -24.1137  -28.2799   21.6697 C   0  0  0  0  0  0  0  0  0  0  0  0
  -22.8205  -33.6966   25.8070 C   0  0  0  0  0  0  0  0  0  0  0  0
  -31.5987  -16.4401   22.6356 C   0  0  0  0  0  0  0  0  0  0  0  0
  -23.9399  -32.6603   25.8038 C   0  0  0  0  0  0  0  0  0  0  0  0
  -31.2818  -15.1301   21.9106 C   0  0  0  0  0  0  0  0  0  0  0  0
  -30.3402  -17.0914   23.2063 C   0  0  0  0  0  0  0  0  0  0  0  0
  -28.9345  -15.9795   21.5161 C   0  0  0  0  0  0  0  0  0  0  0  0
  -24.8915  -32.8798   24.6216 C   0  0  1  0  0  0  0  0  0  0  0  0
  -23.6956  -30.7591   21.7051 C   0  0  1  0  0  0  0  0  0  0  0  0
  -30.1626  -15.3196   20.8680 C   0  0  2  0  0  0  0  0  0  0  0  0
  -18.5175  -25.2342   20.0723 C   0  0  0  0  0  0  0  0  0  0  0  0
  -28.7850  -24.6151   18.8897 C   0  0  0  0  0  0  0  0  0  0  0  0
  -21.9818  -28.0004   24.9935 C   0  0  0  0  0  0  0  0  0  0  0  0
  -20.5177  -26.1379   24.1838 C   0  0  0  0  0  0  0  0  0  0  0  0
  -19.6637  -28.4817   24.1877 C   0  0  0  0  0  0  0  0  0  0  0  0
  -20.8087  -27.0018   17.6021 C   0  0  0  0  0  0  0  0  0  0  0  0
  -25.2967  -22.4372   22.4827 C   0  0  2  0  0  0  0  0  0  0  0  0
  -21.4038  -27.7993   22.4852 C   0  0  1  0  0  0  0  0  0  0  0  0
  -19.4468  -26.3359   19.5872 C   0  0  2  0  0  0  0  0  0  0  0  0
  -27.8806  -25.4467   19.7857 C   0  0  2  0  0  0  0  0  0  1  0  0
  -20.9164  -27.6106   23.9495 C   0  0  0  0  0  0  0  0  0  0  0  0
  -28.8201  -13.2592   20.6838 N   0  0  0  0  0  0  0  0  0  0  0  0
  -29.8099  -14.0149   20.1785 N   0  0  0  0  0  0  0  0  0  0  0  0
  -23.1647  -29.3978   21.8010 N   0  0  0  0  0  0  0  0  0  0  0  0
  -29.3258  -17.2428   22.1609 N   0  0  0  0  0  0  0  0  0  0  0  0
  -31.4028  -14.1174   18.4284 N   0  0  0  0  0  0  0  0  0  0  0  0
  -29.2455  -10.2275   17.6471 N   0  0  0  0  0  0  0  0  0  0  0  0
  -27.8825  -18.5499   20.8302 N   0  0  0  0  0  0  0  0  0  0  0  0
  -24.3022  -32.3784   23.3986 N   0  0  0  0  0  0  0  0  0  0  0  0
  -26.7943  -24.0002   21.3975 N   0  0  0  0  0  0  0  0  0  0  0  0
  -20.4059  -27.4635   21.4753 N   0  0  0  0  0  0  0  0  0  0  0  0
  -24.9391  -21.8965   23.8327 N   0  3  0  0  0  0  0  0  0  0  0  0
  -19.9055  -25.9920   18.2116 N   0  3  0  0  0  0  0  0  0  0  0  0
  -30.9197  -11.6093   16.9077 O   0  0  0  0  0  0  0  0  0  0  0  0
  -24.9387  -30.1492   23.6177 O   0  0  0  0  0  0  0  0  0  0  0  0
  -21.0137  -30.1332   22.3193 O   0  0  0  0  0  0  0  0  0  0  0  0
  -27.1417  -23.4812   23.6450 O   0  0  0  0  0  0  0  0  0  0  0  0
  -21.6682  -25.8429   20.3995 O   0  0  0  0  0  0  0  0  0  0  0  0
  -28.6663  -25.2228   22.0598 O   0  0  0  0  0  0  0  0  0  0  0  0
  -29.2049  -19.5313   22.4641 O   0  0  0  0  0  0  0  0  0  0  0  0
  -25.0733   -8.1104   20.6713 O   0  0  0  0  0  0  0  0  0  0  0  0
  -28.3861  -26.7808   19.8157 O   0  0  0  0  0  0  0  0  0  1  0  0
  -19.8817   -9.5447   21.8519 F   0  0  0  0  0  0  0  0  0  0  0  0
  -26.1482  -18.3790   18.6557 F   0  0  0  0  0  0  0  0  0  0  0  0
  -22.9825   -7.3428   19.0337 F   0  0  0  0  0  0  0  0  0  0  0  0
  1  2  1  0  0  0  0
  1  5  2  0  0  0  0
  2  6  2  0  0  0  0
  3  9  2  0  0  0  0
  3 18  1  0  0  0  0
  4 10  1  0  0  0  0
  4 18  2  0  0  0  0
  5 20  1  0  0  0  0
  6 22  1  0  0  0  0
  7 11  2  0  0  0  0
  7 21  1  0  0  0  0
  8 13  2  0  0  0  0
  8 24  1  0  0  0  0
  9 26  1  0  0  0  0
 10 26  2  0  0  0  0
 11 27  1  0  0  0  0
 12 14  2  0  0  0  0
 12 28  1  0  0  0  0
 13 30  1  0  0  0  0
 14 29  1  0  0  0  0
 15 23  1  0  0  0  0
 15 27  2  0  0  0  0
 16 24  2  0  0  0  0
 16 25  1  0  0  0  0
 17 29  2  0  0  0  0
 17 31  1  0  0  0  0
 18 32  1  0  0  0  0
 19 32  1  0  0  0  0
 19 33  2  0  0  0  0
 19 34  1  0  0  0  0
 20 22  2  0  0  0  0
 20 41  1  0  0  0  0
 21 23  2  0  0  0  0
 21 42  1  0  0  0  0
 22 50  1  0  0  0  0
 23 43  1  0  0  0  0
 24 59  1  0  0  0  0
 25 30  2  0  0  0  0
 25 70  1  0  0  0  0
 26 83  1  0  0  0  0
 27 84  1  0  0  0  0
 28 31  2  0  0  0  0
 28 83  1  0  0  0  0
 29 85  1  0  0  0  0
 30 86  1  0  0  0  0
 31 87  1  0  0  0  0
 32 64  2  0  0  0  0
 33 65  1  0  0  0  0
 33 68  1  0  0  0  0
 34 69  1  0  0  0  0
 34 76  2  0  0  0  0
 35 51  1  0  0  0  0
 35 71  1  0  0  0  0
 35 77  2  0  0  0  0
 36 60  1  0  0  0  0
 36 66  1  0  0  0  0
 36 78  2  0  0  0  0
 37 59  1  0  0  0  0
 37 72  1  0  0  0  0
 37 79  2  0  0  0  0
 38 61  1  0  0  0  0
 38 73  1  0  0  0  0
 38 80  2  0  0  0  0
 39 62  1  0  0  0  0
 39 72  1  0  0  0  0
 39 81  2  0  0  0  0
 40 67  1  0  0  0  0
 40 70  1  0  0  0  0
 40 82  2  0  0  0  0
 41 44  1  0  0  0  0
 42 51  1  0  0  0  0
 43 66  1  0  0  0  0
 44 46  1  0  0  0  0
 45 47  1  0  0  0  0
 45 48  1  0  0  0  0
 46 50  1  0  0  0  0
 47 52  1  0  0  0  0
 48 67  1  0  0  0  0
 49 52  1  0  0  0  0
 49 67  1  0  0  0  0
 50 71  1  0  0  0  0
 51 66  1  0  0  0  0
 52 65  1  0  0  0  0
 53 61  1  0  0  0  0
 54 62  1  0  0  0  0
 55 63  1  0  0  0  0
 56 63  1  0  0  0  0
 57 63  1  0  0  0  0
 58 75  1  0  0  0  0
 59 74  1  0  0  0  0
 60 63  1  0  0  0  0
 60 73  1  0  0  0  0
 61 75  1  0  0  0  0
 62 84  1  0  0  0  0
 64 65  1  0  0  0  0
M  CHG  2  74   1  75   1
M  ISO  4  40 100  62 101  70 100  84 101
M  END
> <Batch ID>
0099

> <Smiles>
CNC(C)C(=O)NC(C(=O)N1Cc2cc([101O:1][101CH:1](C)C(=O)NC(=O)C(N)c3ccc(F)c([100NH:0][100C:0](=O)N4CCCC(n5nc(-c6ccc(Oc7ccc(F)cc7F)cc6)c(C(N)=O)c5N)C4)c3)ccc2CC1C(=O)NC1CCCc2ccccc21)C(C)(C)C

> <Shape>
0.294

> <Color>
0.064

> <Negative vol penalty>
0.000

$$$$

  -OEChem-04052300543D

 86 95  0     1  0  0  0  0  0999 V2000
  -22.7526   -8.5734   21.9433 C   0  0  0  0  0  0  0  0  0  0  0  0
  -23.9808   -9.1495   22.2515 C   0  0  0  0  0  0  0  0  0  0  0  0
  -22.1990  -29.0550   23.5663 C   0  0  0  0  0  0  0  0  0  0  0  0
  -21.2368  -28.6253   21.3923 C   0  0  0  0  0  0  0  0  0  0  0  0
  -31.9128  -23.5236   20.0060 C   0  0  0  0  0  0  0  0  0  0  0  0
  -21.9842   -9.0888   20.9003 C   0  0  0  0  0  0  0  0  0  0  0  0
  -24.4419  -10.2409   21.5161 C   0  0  0  0  0  0  0  0  0  0  0  0
  -28.3025  -16.2314   22.2407 C   0  0  0  0  0  0  0  0  0  0  0  0
  -30.8392  -24.3905   19.8025 C   0  0  0  0  0  0  0  0  0  0  0  0
  -21.0495  -28.5510   24.1747 C   0  0  0  0  0  0  0  0  0  0  0  0
  -20.0873  -28.1212   22.0007 C   0  0  0  0  0  0  0  0  0  0  0  0
  -29.3867  -16.8905   21.6629 C   0  0  0  0  0  0  0  0  0  0  0  0
  -17.3094  -29.3521   23.4837 C   0  0  0  0  0  0  0  0  0  0  0  0
  -16.0758  -29.7633   22.9792 C   0  0  0  0  0  0  0  0  0  0  0  0
  -32.5786  -23.8070   17.7009 C   0  0  0  0  0  0  0  0  0  0  0  0
  -27.9379  -17.7460   19.9344 C   0  0  0  0  0  0  0  0  0  0  0  0
  -15.5171  -27.4676   22.4742 C   0  0  0  0  0  0  0  0  0  0  0  0
  -22.2926  -29.0922   22.1751 C   0  0  0  0  0  0  0  0  0  0  0  0
  -32.7826  -23.2319   18.9552 C   0  0  0  0  0  0  0  0  0  0  0  0
  -24.0117  -30.9100   21.6770 C   0  0  0  0  0  0  0  0  0  0  0  0
  -22.4317  -10.1930   20.1580 C   0  0  0  0  0  0  0  0  0  0  0  0
  -27.0278  -16.3160   21.6625 C   0  0  0  0  0  0  0  0  0  0  0  0
  -23.6794  -10.7707   20.4613 C   0  0  0  0  0  0  0  0  0  0  0  0
  -26.8386  -17.0892   20.5082 C   0  0  0  0  0  0  0  0  0  0  0  0
  -30.6352  -24.9656   18.5482 C   0  0  0  0  0  0  0  0  0  0  0  0
  -19.9936  -28.0841   23.3919 C   0  0  0  0  0  0  0  0  0  0  0  0
  -29.2051  -17.6456   20.5080 C   0  0  0  0  0  0  0  0  0  0  0  0
  -17.6470  -27.9987   23.4834 C   0  0  0  0  0  0  0  0  0  0  0  0
  -15.1796  -28.8211   22.4745 C   0  0  0  0  0  0  0  0  0  0  0  0
  -31.5049  -24.6739   17.4974 C   0  0  0  0  0  0  0  0  0  0  0  0
  -16.7509  -27.0565   22.9787 C   0  0  0  0  0  0  0  0  0  0  0  0
  -23.4796  -29.6133   21.5460 C   0  0  0  0  0  0  0  0  0  0  0  0
  -25.1351  -30.9016   20.8869 C   0  0  0  0  0  0  0  0  0  0  0  0
  -33.9150  -22.3172   19.1699 C   0  0  0  0  0  0  0  0  0  0  0  0
  -23.5333  -32.0227   22.4444 C   0  0  0  0  0  0  0  0  0  0  0  0
  -24.9926  -14.2240   20.4034 C   0  0  0  0  0  0  0  0  0  0  0  0
  -23.0323  -16.8047   20.2643 C   0  0  0  0  0  0  0  0  0  0  0  0
  -22.7177  -20.2007   20.1419 C   0  0  0  0  0  0  0  0  0  0  0  0
  -28.5816  -26.2448   19.2768 C   0  0  0  0  0  0  0  0  0  0  0  0
  -21.5878  -10.6855   19.0091 C   0  0  0  0  0  0  0  0  0  0  0  0
  -25.8633  -15.6209   22.3130 C   0  0  0  0  0  0  0  0  0  0  0  0
  -25.4863  -17.2285   19.8598 C   0  0  0  0  0  0  0  0  0  0  0  0
  -21.9766  -12.0786   18.5210 C   0  0  0  0  0  0  0  0  0  0  0  0
  -26.2815  -28.2852   16.9811 C   0  0  0  0  0  0  0  0  0  0  0  0
  -23.4899  -12.1854   18.3617 C   0  0  0  0  0  0  0  0  0  0  0  0
  -25.9196  -29.4238   17.9319 C   0  0  0  0  0  0  0  0  0  0  0  0
  -33.9710  -18.8441   20.4095 C   0  0  0  0  0  0  0  0  0  0  0  0
  -27.5916  -27.6080   17.3632 C   0  0  0  0  0  0  0  0  0  0  0  0
  -34.6785  -20.0424   19.7959 C   0  0  0  0  0  0  0  0  0  0  0  0
  -32.3040  -20.4252   19.7539 C   0  0  0  0  0  0  0  0  0  0  0  0
  -26.5398  -27.6200   19.6325 C   0  0  0  0  0  0  0  0  0  0  0  0
  -24.2023  -11.9711   19.7026 C   0  0  1  0  0  0  0  0  0  0  0  0
  -24.7106  -15.3570   21.3491 C   0  0  1  0  0  0  0  0  0  0  0  0
  -32.5708  -18.9216   19.7964 C   0  0  2  0  0  0  0  0  0  0  0  0
  -26.2617  -29.1137   19.4027 C   0  0  2  0  0  0  0  0  0  0  0  0
  -20.9902  -22.0150   19.9954 C   0  0  0  0  0  0  0  0  0  0  0  0
  -22.6494  -16.1973   17.2987 C   0  0  0  0  0  0  0  0  0  0  0  0
  -21.7299  -18.5087   17.0154 C   0  0  0  0  0  0  0  0  0  0  0  0
  -20.5653  -16.8785   18.5017 C   0  0  0  0  0  0  0  0  0  0  0  0
  -23.5434  -21.3565   22.7383 C   0  0  0  0  0  0  0  0  0  0  0  0
  -31.5284  -18.1480   20.5836 C   0  0  0  0  0  0  0  0  0  1  0  0
  -22.7603  -17.8871   19.2477 C   0  0  1  0  0  0  0  0  0  0  0  0
  -21.8382  -21.1597   20.9239 C   0  0  2  0  0  0  0  0  0  0  0  0
  -21.9522  -17.3639   18.0268 C   0  0  0  0  0  0  0  0  0  0  0  0
  -24.2052  -28.8376   20.7362 N   0  0  0  0  0  0  0  0  0  0  0  0
  -25.2047  -29.6492   20.3512 N   0  0  0  0  0  0  0  0  0  0  0  0
  -33.6259  -21.0221   19.5713 N   0  0  0  0  0  0  0  0  0  0  0  0
  -24.3802  -16.5248   20.5299 N   0  0  0  0  0  0  0  0  0  0  0  0
  -27.6143  -27.1390   18.7563 N   0  0  0  0  0  0  0  0  0  0  0  0
  -26.0603  -31.8434   20.6049 N   0  0  0  0  0  0  0  0  0  0  0  0
  -22.6368  -32.9147   21.8404 N   0  0  0  0  0  0  0  0  0  0  0  0
  -29.5430  -25.8456   18.3446 N   0  0  0  0  0  0  0  0  0  0  0  0
  -24.1141  -13.1635   20.5181 N   0  0  0  0  0  0  0  0  0  0  0  0
  -22.1111  -18.9741   19.9725 N   0  0  0  0  0  0  0  0  0  0  0  0
  -22.6753  -22.0639   21.7621 N   0  3  0  0  0  0  0  0  0  0  0  0
  -35.0443  -22.7597   18.9687 O   0  0  0  0  0  0  0  0  0  0  0  0
  -23.9030  -32.2291   23.6251 O   0  0  0  0  0  0  0  0  0  0  0  0
  -25.9364  -14.3064   19.6262 O   0  0  0  0  0  0  0  0  0  0  0  0
  -22.0837  -16.2337   20.8081 O   0  0  0  0  0  0  0  0  0  0  0  0
  -23.8298  -20.5102   19.7202 O   0  0  0  0  0  0  0  0  0  0  0  0
  -28.5592  -25.8797   20.4541 O   0  0  0  0  0  0  0  0  0  0  0  0
  -18.8719  -27.5919   23.9853 O   0  0  0  0  0  0  0  0  0  0  0  0
  -30.2618  -18.2894   19.9417 O   0  0  0  0  0  0  0  0  0  1  0  0
  -13.9943  -29.2159   21.9915 F   0  0  0  0  0  0  0  0  0  0  0  0
  -31.3184  -25.2203   16.2872 F   0  0  0  0  0  0  0  0  0  0  0  0
  -17.0691  -25.7547   22.9768 F   0  0  0  0  0  0  0  0  0  0  0  0
  1  2  1  0  0  0  0
  1  6  2  0  0  0  0
  2  7  2  0  0  0  0
  3 10  2  0  0  0  0
  3 18  1  0  0  0  0
  4 11  1  0  0  0  0
  4 18  2  0  0  0  0
  5  9  2  0  0  0  0
  5 19  1  0  0  0  0
  6 21  1  0  0  0  0
  7 23  1  0  0  0  0
  8 12  2  0  0  0  0
  8 22  1  0  0  0  0
  9 25  1  0  0  0  0
 10 26  1  0  0  0  0
 11 26  2  0  0  0  0
 12 27  1  0  0  0  0
 13 14  2  0  0  0  0
 13 28  1  0  0  0  0
 14 29  1  0  0  0  0
 15 19  2  0  0  0  0
 15 30  1  0  0  0  0
 16 24  1  0  0  0  0
 16 27  2  0  0  0  0
 17 29  2  0  0  0  0
 17 31  1  0  0  0  0
 18 32  1  0  0  0  0
 19 34  1  0  0  0  0
 20 32  1  0  0  0  0
 20 33  2  0  0  0  0
 20 35  1  0  0  0  0
 21 23  2  0  0  0  0
 21 40  1  0  0  0  0
 22 24  2  0  0  0  0
 22 41  1  0  0  0  0
 23 52  1  0  0  0  0
 24 42  1  0  0  0  0
 25 30  2  0  0  0  0
 25 72  1  0  0  0  0
 26 82  1  0  0  0  0
 27 83  1  0  0  0  0
 28 31  2  0  0  0  0
 28 82  1  0  0  0  0
 29 84  1  0  0  0  0
 30 85  1  0  0  0  0
 31 86  1  0  0  0  0
 32 65  2  0  0  0  0
 33 66  1  0  0  0  0
 33 70  1  0  0  0  0
 34 67  1  0  0  0  0
 34 76  2  0  0  0  0
 35 71  1  0  0  0  0
 35 77  2  0  0  0  0
 36 53  1  0  0  0  0
 36 73  1  0  0  0  0
 36 78  2  0  0  0  0
 37 62  1  0  0  0  0
 37 68  1  0  0  0  0
 37 79  2  0  0  0  0
 38 63  1  0  0  0  0
 38 74  1  0  0  0  0
 38 80  2  0  0  0  0
 39 69  1  0  0  0  0
 39 72  1  0  0  0  0
 39 81  2  0  0  0  0
 40 43  1  0  0  0  0
 41 53  1  0  0  0  0
 42 68  1  0  0  0  0
 43 45  1  0  0  0  0
 44 46  1  0  0  0  0
 44 48  1  0  0  0  0
 45 52  1  0  0  0  0
 46 55  1  0  0  0  0
 47 49  1  0  0  0  0
 47 54  1  0  0  0  0
 48 69  1  0  0  0  0
 49 67  1  0  0  0  0
 50 54  1  0  0  0  0
 50 67  1  0  0  0  0
 51 55  1  0  0  0  0
 51 69  1  0  0  0  0
 52 73  1  0  0  0  0
 53 68  1  0  0  0  0
 54 61  1  0  0  0  0
 55 66  1  0  0  0  0
 56 63  1  0  0  0  0
 57 64  1  0  0  0  0
 58 64  1  0  0  0  0
 59 64  1  0  0  0  0
 60 75  1  0  0  0  0
 61 83  1  0  0  0  0
 62 64  1  0  0  0  0
 62 74  1  0  0  0  0
 63 75  1  0  0  0  0
 65 66  1  0  0  0  0
M  CHG  1  75   1
M  ISO  4  39 100  61 101  72 100  83 101
M  END
> <Batch ID>
0099

> <Smiles>
CNC(C)C(=O)NC(C(=O)N1Cc2cc([101O:1][101CH2:1]C3CCN(C(=O)c4ccc([100NH:0][100C:0](=O)N5CCCC(n6nc(-c7ccc(Oc8ccc(F)cc8F)cc7)c(C(N)=O)c6N)C5)c(F)c4)C3)ccc2CC1C(=O)NC1CCCc2ccccc21)C(C)(C)C

> <Shape>
0.251

> <Color>
0.076

> <Negative vol penalty>
0.000

$$$$

  -OEChem-04052300543D

 85 93  0     1  0  0  0  0  0999 V2000
  -22.5152  -17.8658   22.4152 C   0  0  0  0  0  0  0  0  0  0  0  0
  -23.6278  -18.6352   22.0903 C   0  0  0  0  0  0  0  0  0  0  0  0
  -26.1093  -12.8407   21.1934 C   0  0  0  0  0  0  0  0  0  0  0  0
  -24.8227  -13.9555   19.4791 C   0  0  0  0  0  0  0  0  0  0  0  0
  -30.7395  -23.0655   14.7419 C   0  0  0  0  0  0  0  0  0  0  0  0
  -21.2343  -18.3454   22.1446 C   0  0  0  0  0  0  0  0  0  0  0  0
  -23.4601  -19.8843   21.4935 C   0  0  0  0  0  0  0  0  0  0  0  0
  -26.9315  -24.8598   22.3300 C   0  0  0  0  0  0  0  0  0  0  0  0
  -30.8129  -21.6805   14.5939 C   0  0  0  0  0  0  0  0  0  0  0  0
  -25.0137  -12.0292   21.4880 C   0  0  0  0  0  0  0  0  0  0  0  0
  -23.7270  -13.1440   19.7737 C   0  0  0  0  0  0  0  0  0  0  0  0
  -27.9742  -25.4117   21.5871 C   0  0  0  0  0  0  0  0  0  0  0  0
  -22.6708   -9.4202   22.4465 C   0  0  0  0  0  0  0  0  0  0  0  0
  -22.9020   -8.0553   22.6176 C   0  0  0  0  0  0  0  0  0  0  0  0
  -30.2289  -22.7880   17.0869 C   0  0  0  0  0  0  0  0  0  0  0  0
  -26.4119  -26.9049   20.5151 C   0  0  0  0  0  0  0  0  0  0  0  0
  -23.7576   -7.9176   20.3623 C   0  0  0  0  0  0  0  0  0  0  0  0
  -26.0138  -13.8038   20.1889 C   0  0  0  0  0  0  0  0  0  0  0  0
  -30.4475  -23.6193   15.9884 C   0  0  0  0  0  0  0  0  0  0  0  0
  -28.1667  -14.3863   18.9506 C   0  0  0  0  0  0  0  0  0  0  0  0
  -21.0505  -19.6051   21.5530 C   0  0  0  0  0  0  0  0  0  0  0  0
  -25.6173  -25.3195   22.1628 C   0  0  0  0  0  0  0  0  0  0  0  0
  -22.1756  -20.3806   21.2135 C   0  0  0  0  0  0  0  0  0  0  0  0
  -25.3548  -26.3588   21.2589 C   0  0  0  0  0  0  0  0  0  0  0  0
  -30.5943  -20.8492   15.6924 C   0  0  0  0  0  0  0  0  0  0  0  0
  -30.3023  -21.4029   16.9390 C   0  0  0  0  0  0  0  0  0  0  0  0
  -23.8226  -12.1808   20.7782 C   0  0  0  0  0  0  0  0  0  0  0  0
  -27.7141  -26.4324   20.6773 C   0  0  0  0  0  0  0  0  0  0  0  0
  -22.9829  -10.0338   21.2333 C   0  0  0  0  0  0  0  0  0  0  0  0
  -23.4454   -7.3040   21.5755 C   0  0  0  0  0  0  0  0  0  0  0  0
  -23.5263   -9.2825   20.1912 C   0  0  0  0  0  0  0  0  0  0  0  0
  -27.1450  -14.6428   19.8845 C   0  0  0  0  0  0  0  0  0  0  0  0
  -28.9944  -15.4787   19.0386 C   0  0  0  0  0  0  0  0  0  0  0  0
  -30.3702  -25.0941   16.1450 C   0  0  0  0  0  0  0  0  0  0  0  0
  -28.3509  -13.2611   18.0812 C   0  0  0  0  0  0  0  0  0  0  0  0
  -22.8867  -24.0065   21.2019 C   0  0  0  0  0  0  0  0  0  0  0  0
  -21.6528  -26.8789   22.0674 C   0  0  0  0  0  0  0  0  0  0  0  0
  -30.6716  -26.9357   17.7645 C   0  0  0  0  0  0  0  0  0  0  0  0
  -22.1698  -30.2072   22.6170 C   0  0  0  0  0  0  0  0  0  0  0  0
  -29.7793  -20.9814   19.3670 C   0  0  0  0  0  0  0  0  0  0  0  0
  -19.6481  -20.0608   21.2364 C   0  0  0  0  0  0  0  0  0  0  0  0
  -24.5078  -24.7320   22.9912 C   0  0  0  0  0  0  0  0  0  0  0  0
  -23.9645  -26.9019   21.0570 C   0  0  0  0  0  0  0  0  0  0  0  0
  -19.5447  -21.5556   20.9447 C   0  0  0  0  0  0  0  0  0  0  0  0
  -29.1207  -19.2529   22.4093 C   0  0  0  0  0  0  0  0  0  0  0  0
  -20.6454  -21.9890   19.9817 C   0  0  0  0  0  0  0  0  0  0  0  0
  -28.6320  -17.8783   21.9468 C   0  0  0  0  0  0  0  0  0  0  0  0
  -28.6343  -20.3681   21.4854 C   0  0  0  0  0  0  0  0  0  0  0  0
  -28.4448  -18.7949   19.5991 C   0  0  0  0  0  0  0  0  0  0  0  0
  -22.0338  -21.7512   20.5878 C   0  0  1  0  0  0  0  0  0  0  0  0
  -23.1294  -24.9245   22.3664 C   0  0  1  0  0  0  0  0  0  0  0  0
  -28.9634  -17.6327   20.4617 C   0  0  2  0  0  0  0  0  0  0  0  0
  -30.6783  -19.3691   15.5044 C   0  0  0  0  0  0  0  0  0  0  0  0
  -20.9627  -32.3052   23.2792 C   0  0  0  0  0  0  0  0  0  0  0  0
  -20.4323  -27.0548   19.2764 C   0  0  0  0  0  0  0  0  0  0  0  0
  -20.0741  -29.5023   19.6632 C   0  0  0  0  0  0  0  0  0  0  0  0
  -18.9330  -27.8308   21.1215 C   0  0  0  0  0  0  0  0  0  0  0  0
  -23.8535  -30.5537   25.0261 C   0  0  0  0  0  0  0  0  0  0  0  0
  -31.0215  -27.1273   19.2323 C   0  0  0  0  0  0  0  0  0  0  0  0
  -30.0376  -26.4454   20.1704 C   0  0  0  0  0  0  0  0  0  1  0  0
  -21.4222  -28.1975   21.3694 C   0  0  1  0  0  0  0  0  0  0  0  0
  -21.7693  -31.1122   23.7680 C   0  0  2  0  0  0  0  0  0  0  0  0
  -20.2414  -28.1350   20.3598 C   0  0  0  0  0  0  0  0  0  0  0  0
  -27.3069  -15.8068   20.5192 N   0  0  0  0  0  0  0  0  0  0  0  0
  -28.4401  -16.2914   19.9833 N   0  0  0  0  0  0  0  0  0  0  0  0
  -22.9124  -26.2905   21.8857 N   0  0  0  0  0  0  0  0  0  0  0  0
  -28.9873  -20.0691   20.0959 N   0  0  0  0  0  0  0  0  0  0  0  0
  -30.1352  -15.8139   18.3993 N   0  0  0  0  0  0  0  0  0  0  0  0
  -27.4063  -12.2264   18.1183 N   0  0  0  0  0  0  0  0  0  0  0  0
  -30.0780  -20.5751   18.0669 N   0  0  0  0  0  0  0  0  0  0  0  0
  -30.6591  -25.5819   17.4183 N   0  0  0  0  0  0  0  0  0  0  0  0
  -22.3477  -22.7833   21.5525 N   0  0  0  0  0  0  0  0  0  0  0  0
  -21.2558  -29.1932   22.4226 N   0  0  0  0  0  0  0  0  0  0  0  0
  -22.9800  -31.6204   24.4729 N   0  3  0  0  0  0  0  0  0  0  0  0
  -30.0911  -25.7850   15.1689 O   0  0  0  0  0  0  0  0  0  0  0  0
  -29.3332  -13.1682   17.3066 O   0  0  0  0  0  0  0  0  0  0  0  0
  -23.1662  -24.3808   20.0690 O   0  0  0  0  0  0  0  0  0  0  0  0
  -20.7512  -26.3925   22.7545 O   0  0  0  0  0  0  0  0  0  0  0  0
  -30.4322  -27.8671   17.0011 O   0  0  0  0  0  0  0  0  0  0  0  0
  -23.1894  -30.3844   21.9540 O   0  0  0  0  0  0  0  0  0  0  0  0
  -30.1869  -22.0321   19.8687 O   0  0  0  0  0  0  0  0  0  0  0  0
  -22.7534  -11.3890   21.0652 O   0  0  0  0  0  0  0  0  0  0  0  0
  -28.7299  -26.9725   19.9505 O   0  0  0  0  0  0  0  0  0  1  0  0
  -23.6689   -5.9937   21.7405 F   0  0  0  0  0  0  0  0  0  0  0  0
  -23.8292   -9.8666   19.0238 F   0  0  0  0  0  0  0  0  0  0  0  0
  1  2  1  0  0  0  0
  1  6  2  0  0  0  0
  2  7  2  0  0  0  0
  3 10  2  0  0  0  0
  3 18  1  0  0  0  0
  4 11  1  0  0  0  0
  4 18  2  0  0  0  0
  5  9  2  0  0  0  0
  5 19  1  0  0  0  0
  6 21  1  0  0  0  0
  7 23  1  0  0  0  0
  8 12  2  0  0  0  0
  8 22  1  0  0  0  0
  9 25  1  0  0  0  0
 10 27  1  0  0  0  0
 11 27  2  0  0  0  0
 12 28  1  0  0  0  0
 13 14  2  0  0  0  0
 13 29  1  0  0  0  0
 14 30  1  0  0  0  0
 15 19  2  0  0  0  0
 15 26  1  0  0  0  0
 16 24  1  0  0  0  0
 16 28  2  0  0  0  0
 17 30  2  0  0  0  0
 17 31  1  0  0  0  0
 18 32  1  0  0  0  0
 19 34  1  0  0  0  0
 20 32  1  0  0  0  0
 20 33  2  0  0  0  0
 20 35  1  0  0  0  0
 21 23  2  0  0  0  0
 21 41  1  0  0  0  0
 22 24  2  0  0  0  0
 22 42  1  0  0  0  0
 23 50  1  0  0  0  0
 24 43  1  0  0  0  0
 25 26  2  0  0  0  0
 25 53  1  0  0  0  0
 26 70  1  0  0  0  0
 27 82  1  0  0  0  0
 28 83  1  0  0  0  0
 29 31  2  0  0  0  0
 29 82  1  0  0  0  0
 30 84  1  0  0  0  0
 31 85  1  0  0  0  0
 32 64  2  0  0  0  0
 33 65  1  0  0  0  0
 33 68  1  0  0  0  0
 34 71  1  0  0  0  0
 34 75  2  0  0  0  0
 35 69  1  0  0  0  0
 35 76  2  0  0  0  0
 36 51  1  0  0  0  0
 36 72  1  0  0  0  0
 36 77  2  0  0  0  0
 37 61  1  0  0  0  0
 37 66  1  0  0  0  0
 37 78  2  0  0  0  0
 38 59  1  0  0  0  0
 38 71  1  0  0  0  0
 38 79  2  0  0  0  0
 39 62  1  0  0  0  0
 39 73  1  0  0  0  0
 39 80  2  0  0  0  0
 40 67  1  0  0  0  0
 40 70  1  0  0  0  0
 40 81  2  0  0  0  0
 41 44  1  0  0  0  0
 42 51  1  0  0  0  0
 43 66  1  0  0  0  0
 44 46  1  0  0  0  0
 45 47  1  0  0  0  0
 45 48  1  0  0  0  0
 46 50  1  0  0  0  0
 47 52  1  0  0  0  0
 48 67  1  0  0  0  0
 49 52  1  0  0  0  0
 49 67  1  0  0  0  0
 50 72  1  0  0  0  0
 51 66  1  0  0  0  0
 52 65  1  0  0  0  0
 54 62  1  0  0  0  0
 55 63  1  0  0  0  0
 56 63  1  0  0  0  0
 57 63  1  0  0  0  0
 58 74  1  0  0  0  0
 59 60  1  0  0  0  0
 60 83  1  0  0  0  0
 61 63  1  0  0  0  0
 61 73  1  0  0  0  0
 62 74  1  0  0  0  0
 64 65  1  0  0  0  0
M  CHG  1  74   1
M  ISO  4  40 100  60 101  70 100  83 101
M  END
> <Batch ID>
0099

> <Smiles>
CNC(C)C(=O)NC(C(=O)N1Cc2cc([101O:1][101CH2:1]CC(=O)NC(=O)c3ccc(C)c([100NH:0][100C:0](=O)N4CCCC(n5nc(-c6ccc(Oc7ccc(F)cc7F)cc6)c(C(N)=O)c5N)C4)c3)ccc2CC1C(=O)NC1CCCc2ccccc21)C(C)(C)C

> <Shape>
0.232

> <Color>
0.063

> <Negative vol penalty>
0.000

$$$$

  -OEChem-04052300543D

 87 96  0     1  0  0  0  0  0999 V2000
  -27.7813  -18.9917   17.0852 C   0  0  0  0  0  0  0  0  0  0  0  0
  -26.8278  -20.0046   17.0763 C   0  0  0  0  0  0  0  0  0  0  0  0
  -24.2970  -16.6526   17.2180 C   0  0  0  0  0  0  0  0  0  0  0  0
  -23.3951  -16.6641   19.4593 C   0  0  0  0  0  0  0  0  0  0  0  0
  -28.7786  -18.9832   18.0596 C   0  0  0  0  0  0  0  0  0  0  0  0
  -26.8702  -21.0091   18.0425 C   0  0  0  0  0  0  0  0  0  0  0  0
  -25.4307  -27.9707   18.9253 C   0  0  0  0  0  0  0  0  0  0  0  0
  -18.3245  -27.3109   21.6225 C   0  0  0  0  0  0  0  0  0  0  0  0
  -18.2766  -28.6978   21.7637 C   0  0  0  0  0  0  0  0  0  0  0  0
  -25.2075  -15.6634   17.5895 C   0  0  0  0  0  0  0  0  0  0  0  0
  -24.3057  -15.6749   19.8308 C   0  0  0  0  0  0  0  0  0  0  0  0
  -24.7230  -28.8257   19.7691 C   0  0  0  0  0  0  0  0  0  0  0  0
  -24.6191  -12.3270   19.4937 C   0  0  0  0  0  0  0  0  0  0  0  0
  -24.1386  -11.2560   20.2473 C   0  0  0  0  0  0  0  0  0  0  0  0
  -19.5903  -27.1458   23.6737 C   0  0  0  0  0  0  0  0  0  0  0  0
  -26.5385  -28.7527   21.3558 C   0  0  0  0  0  0  0  0  0  0  0  0
  -25.6692  -11.8227   22.0286 C   0  0  0  0  0  0  0  0  0  0  0  0
  -23.3908  -17.1530   18.1530 C   0  0  0  0  0  0  0  0  0  0  0  0
  -19.5424  -28.5327   23.8149 C   0  0  0  0  0  0  0  0  0  0  0  0
  -21.4641  -18.0911   16.7691 C   0  0  0  0  0  0  0  0  0  0  0  0
  -28.8390  -19.9934   19.0324 C   0  0  0  0  0  0  0  0  0  0  0  0
  -26.6951  -27.4908   19.2960 C   0  0  0  0  0  0  0  0  0  0  0  0
  -27.8684  -21.0133   19.0317 C   0  0  0  0  0  0  0  0  0  0  0  0
  -27.2613  -27.8938   20.5138 C   0  0  0  0  0  0  0  0  0  0  0  0
  -18.9813  -26.5349   22.5776 C   0  0  0  0  0  0  0  0  0  0  0  0
  -18.8856  -29.3087   22.8598 C   0  0  0  0  0  0  0  0  0  0  0  0
  -25.2119  -15.1745   18.8958 C   0  0  0  0  0  0  0  0  0  0  0  0
  -25.2756  -29.2145   20.9859 C   0  0  0  0  0  0  0  0  0  0  0  0
  -25.6247  -13.1458   20.0076 C   0  0  0  0  0  0  0  0  0  0  0  0
  -24.6637  -11.0039   21.5147 C   0  0  0  0  0  0  0  0  0  0  0  0
  -26.1497  -12.8937   21.2750 C   0  0  0  0  0  0  0  0  0  0  0  0
  -22.4504  -18.1753   17.7700 C   0  0  0  0  0  0  0  0  0  0  0  0
  -20.8403  -19.3145   16.7980 C   0  0  0  0  0  0  0  0  0  0  0  0
  -20.1942  -29.1461   24.9828 C   0  0  0  0  0  0  0  0  0  0  0  0
  -21.1406  -17.0043   15.8917 C   0  0  0  0  0  0  0  0  0  0  0  0
  -27.9269  -24.6147   19.8562 C   0  0  0  0  0  0  0  0  0  0  0  0
  -30.7020  -26.2780   20.0906 C   0  0  0  0  0  0  0  0  0  0  0  0
  -32.2520  -29.2555   20.7056 C   0  0  0  0  0  0  0  0  0  0  0  0
  -20.1865  -23.2954   21.1084 C   0  0  0  0  0  0  0  0  0  0  0  0
  -29.9074  -19.9159   20.0940 C   0  0  0  0  0  0  0  0  0  0  0  0
  -27.4571  -26.5905   18.3625 C   0  0  0  0  0  0  0  0  0  0  0  0
  -28.6241  -27.4229   20.9490 C   0  0  0  0  0  0  0  0  0  0  0  0
  -30.1047  -21.2236   20.8563 C   0  0  0  0  0  0  0  0  0  0  0  0
  -21.6560  -23.9098   17.8587 C   0  0  0  0  0  0  0  0  0  0  0  0
  -28.7583  -21.8069   21.2731 C   0  0  0  0  0  0  0  0  0  0  0  0
  -21.9316  -22.4848   17.3752 C   0  0  0  0  0  0  0  0  0  0  0  0
  -23.6957  -30.1916   25.4818 C   0  0  0  0  0  0  0  0  0  0  0  0
  -21.9090  -24.0436   19.3575 C   0  0  0  0  0  0  0  0  0  0  0  0
  -22.2499  -30.1396   25.9507 C   0  0  0  0  0  0  0  0  0  0  0  0
  -22.3590  -29.4196   23.6581 C   0  0  0  0  0  0  0  0  0  0  0  0
  -21.4194  -21.6554   19.7182 C   0  0  0  0  0  0  0  0  0  0  0  0
  -27.8958  -22.1341   20.0481 C   0  0  1  0  0  0  0  0  0  0  0  0
  -28.5163  -25.7530   19.0723 C   0  0  1  0  0  0  0  0  0  0  0  0
  -23.5593  -30.3145   23.9624 C   0  0  2  0  0  0  0  0  0  0  0  0
  -21.1602  -21.4492   18.2147 C   0  0  2  0  0  0  0  0  0  0  0  0
  -34.5307  -30.2950   20.8613 C   0  0  0  0  0  0  0  0  0  0  0  0
  -31.1084  -24.9724   22.8183 C   0  0  0  0  0  0  0  0  0  0  0  0
  -32.8347  -26.7156   23.3177 C   0  0  0  0  0  0  0  0  0  0  0  0
  -33.1757  -25.1328   21.4200 C   0  0  0  0  0  0  0  0  0  0  0  0
  -31.6714  -31.1383   18.4972 C   0  0  0  0  0  0  0  0  0  0  0  0
  -19.0316  -25.0522   22.4264 C   0  0  0  0  0  0  0  0  0  0  0  0
  -24.8161  -29.9099   23.2133 C   0  0  0  0  0  0  0  0  0  1  0  0
  -31.4456  -26.9644   21.2107 C   0  0  1  0  0  0  0  0  0  0  0  0
  -33.3456  -29.9955   19.9567 C   0  0  2  0  0  0  0  0  0  0  0  0
  -32.1146  -25.9538   22.1846 C   0  0  0  0  0  0  0  0  0  0  0  0
  -22.4567  -19.3586   18.3895 N   0  0  0  0  0  0  0  0  0  0  0  0
  -21.4667  -20.0293   17.7761 N   0  0  0  0  0  0  0  0  0  0  0  0
  -21.5247  -29.5143   24.8547 N   0  0  0  0  0  0  0  0  0  0  0  0
  -29.3271  -26.5389   20.0046 N   0  0  0  0  0  0  0  0  0  0  0  0
  -21.1313  -23.0418   20.1002 N   0  0  0  0  0  0  0  0  0  0  0  0
  -18.8243  -30.7143   22.9843 N   0  0  0  0  0  0  0  0  0  0  0  0
  -19.8226  -19.8377   16.0818 N   0  0  0  0  0  0  0  0  0  0  0  0
  -20.1856  -16.0683   16.3114 N   0  0  0  0  0  0  0  0  0  0  0  0
  -28.3398  -23.3661   19.4319 N   0  0  0  0  0  0  0  0  0  0  0  0
  -32.3784  -27.8887   20.5751 N   0  0  0  0  0  0  0  0  0  0  0  0
  -19.9772  -24.6343   21.4153 N   0  0  0  0  0  0  0  0  0  0  0  0
  -32.8252  -31.2853   19.4213 N   0  3  0  0  0  0  0  0  0  0  0  0
  -19.5118  -29.3014   25.9937 O   0  0  0  0  0  0  0  0  0  0  0  0
  -21.6943  -16.8581   14.7756 O   0  0  0  0  0  0  0  0  0  0  0  0
  -27.1559  -24.8517   20.7787 O   0  0  0  0  0  0  0  0  0  0  0  0
  -31.3196  -25.5431   19.3159 O   0  0  0  0  0  0  0  0  0  0  0  0
  -31.3755  -29.8323   21.3458 O   0  0  0  0  0  0  0  0  0  0  0  0
  -19.5706  -22.3950   21.6889 O   0  0  0  0  0  0  0  0  0  0  0  0
  -26.1001  -14.2091   19.2586 O   0  0  0  0  0  0  0  0  0  0  0  0
  -24.5867  -30.0484   21.8116 O   0  0  0  0  0  0  0  0  0  1  0  0
  -24.2011   -9.9764   22.2389 F   0  0  0  0  0  0  0  0  0  0  0  0
  -27.1151  -13.6775   21.7745 F   0  0  0  0  0  0  0  0  0  0  0  0
  1  2  1  0  0  0  0
  1  5  2  0  0  0  0
  2  6  2  0  0  0  0
  3 10  2  0  0  0  0
  3 18  1  0  0  0  0
  4 11  1  0  0  0  0
  4 18  2  0  0  0  0
  5 21  1  0  0  0  0
  6 23  1  0  0  0  0
  7 12  2  0  0  0  0
  7 22  1  0  0  0  0
  8  9  2  0  0  0  0
  8 25  1  0  0  0  0
  9 26  1  0  0  0  0
 10 27  1  0  0  0  0
 11 27  2  0  0  0  0
 12 28  1  0  0  0  0
 13 14  2  0  0  0  0
 13 29  1  0  0  0  0
 14 30  1  0  0  0  0
 15 19  1  0  0  0  0
 15 25  2  0  0  0  0
 16 24  1  0  0  0  0
 16 28  2  0  0  0  0
 17 30  2  0  0  0  0
 17 31  1  0  0  0  0
 18 32  1  0  0  0  0
 19 26  2  0  0  0  0
 19 34  1  0  0  0  0
 20 32  1  0  0  0  0
 20 33  2  0  0  0  0
 20 35  1  0  0  0  0
 21 23  2  0  0  0  0
 21 40  1  0  0  0  0
 22 24  2  0  0  0  0
 22 41  1  0  0  0  0
 23 52  1  0  0  0  0
 24 42  1  0  0  0  0
 25 61  1  0  0  0  0
 26 71  1  0  0  0  0
 27 84  1  0  0  0  0
 28 85  1  0  0  0  0
 29 31  2  0  0  0  0
 29 84  1  0  0  0  0
 30 86  1  0  0  0  0
 31 87  1  0  0  0  0
 32 66  2  0  0  0  0
 33 67  1  0  0  0  0
 33 72  1  0  0  0  0
 34 68  1  0  0  0  0
 34 78  2  0  0  0  0
 35 73  1  0  0  0  0
 35 79  2  0  0  0  0
 36 53  1  0  0  0  0
 36 74  1  0  0  0  0
 36 80  2  0  0  0  0
 37 63  1  0  0  0  0
 37 69  1  0  0  0  0
 37 81  2  0  0  0  0
 38 64  1  0  0  0  0
 38 75  1  0  0  0  0
 38 82  2  0  0  0  0
 39 70  1  0  0  0  0
 39 76  1  0  0  0  0
 39 83  2  0  0  0  0
 40 43  1  0  0  0  0
 41 53  1  0  0  0  0
 42 69  1  0  0  0  0
 43 45  1  0  0  0  0
 44 46  1  0  0  0  0
 44 48  1  0  0  0  0
 45 52  1  0  0  0  0
 46 55  1  0  0  0  0
 47 49  1  0  0  0  0
 47 54  1  0  0  0  0
 48 70  1  0  0  0  0
 49 68  1  0  0  0  0
 50 54  1  0  0  0  0
 50 68  1  0  0  0  0
 51 55  1  0  0  0  0
 51 70  1  0  0  0  0
 52 74  1  0  0  0  0
 53 69  1  0  0  0  0
 54 62  1  0  0  0  0
 55 67  1  0  0  0  0
 56 64  1  0  0  0  0
 57 65  1  0  0  0  0
 58 65  1  0  0  0  0
 59 65  1  0  0  0  0
 60 77  1  0  0  0  0
 61 76  1  0  0  0  0
 62 85  1  0  0  0  0
 63 65  1  0  0  0  0
 63 75  1  0  0  0  0
 64 77  1  0  0  0  0
 66 67  1  0  0  0  0
M  CHG  1  77   1
M  ISO  4  39 100  62 101  76 100  85 101
M  END
> <Batch ID>
0099

> <Smiles>
CNC(C)C(=O)NC(C(=O)N1Cc2cc([101O:1][101CH2:1]C3CCN(C(=O)c4cc(C[100NH:0][100C:0](=O)N5CCCC(n6nc(-c7ccc(Oc8ccc(F)cc8F)cc7)c(C(N)=O)c6N)C5)ccc4N)C3)ccc2CC1C(=O)NC1CCCc2ccccc21)C(C)(C)C

> <Shape>
0.213

> <Color>
0.059

> <Negative vol penalty>
0.000

$$$$

  -OEChem-04052300543D

 86 94  0     1  0  0  0  0  0999 V2000
  -20.6953  -27.9260   20.9977 C   0  0  0  0  0  0  0  0  0  0  0  0
  -21.5809  -26.8531   20.9915 C   0  0  0  0  0  0  0  0  0  0  0  0
  -27.3367  -23.5457   20.2730 C   0  0  0  0  0  0  0  0  0  0  0  0
  -29.2339  -23.7252   18.7879 C   0  0  0  0  0  0  0  0  0  0  0  0
  -19.5987  -27.9182   21.8586 C   0  0  0  0  0  0  0  0  0  0  0  0
  -21.3710  -25.7722   21.8471 C   0  0  0  0  0  0  0  0  0  0  0  0
  -22.6045  -19.8825   20.7091 C   0  0  0  0  0  0  0  0  0  0  0  0
  -27.3992  -24.9173   20.5187 C   0  0  0  0  0  0  0  0  0  0  0  0
  -29.2964  -25.0969   19.0336 C   0  0  0  0  0  0  0  0  0  0  0  0
  -23.6780  -19.0644   21.0587 C   0  0  0  0  0  0  0  0  0  0  0  0
  -26.4780  -27.7719   18.9582 C   0  0  0  0  0  0  0  0  0  0  0  0
  -25.2822  -28.4897   18.9357 C   0  0  0  0  0  0  0  0  0  0  0  0
  -22.4305  -18.2483   22.9553 C   0  0  0  0  0  0  0  0  0  0  0  0
  -28.7934  -13.4709   19.2465 C   0  0  0  0  0  0  0  0  0  0  0  0
  -29.8239  -11.0767   20.2407 C   0  0  0  0  0  0  0  0  0  0  0  0
  -25.6361  -29.1512   21.2323 C   0  0  0  0  0  0  0  0  0  0  0  0
  -28.2541  -22.9496   19.4076 C   0  0  0  0  0  0  0  0  0  0  0  0
  -27.4597  -20.8824   18.1415 C   0  0  0  0  0  0  0  0  0  0  0  0
  -19.3698  -26.8323   22.7183 C   0  0  0  0  0  0  0  0  0  0  0  0
  -21.4382  -19.8977   21.4874 C   0  0  0  0  0  0  0  0  0  0  0  0
  -20.2709  -25.7505   22.7213 C   0  0  0  0  0  0  0  0  0  0  0  0
  -21.3427  -19.0656   22.6120 C   0  0  0  0  0  0  0  0  0  0  0  0
  -29.6895  -12.7258   18.4802 C   0  0  0  0  0  0  0  0  0  0  0  0
  -28.4125  -13.0189   20.5100 C   0  0  0  0  0  0  0  0  0  0  0  0
  -30.2048  -11.5287   18.9772 C   0  0  0  0  0  0  0  0  0  0  0  0
  -28.9277  -11.8218   21.0071 C   0  0  0  0  0  0  0  0  0  0  0  0
  -28.3790  -25.6929   19.8990 C   0  0  0  0  0  0  0  0  0  0  0  0
  -23.5922  -18.2493   22.1836 C   0  0  0  0  0  0  0  0  0  0  0  0
  -27.2528  -27.7438   20.1178 C   0  0  0  0  0  0  0  0  0  0  0  0
  -24.8613  -29.1794   20.0727 C   0  0  0  0  0  0  0  0  0  0  0  0
  -26.8319  -28.4335   21.2548 C   0  0  0  0  0  0  0  0  0  0  0  0
  -28.1904  -21.5327   19.1539 C   0  0  0  0  0  0  0  0  0  0  0  0
  -27.7308  -19.5485   18.3252 C   0  0  0  0  0  0  0  0  0  0  0  0
  -26.6117  -21.4347   17.1258 C   0  0  0  0  0  0  0  0  0  0  0  0
  -19.9034  -22.1033   23.1856 C   0  0  0  0  0  0  0  0  0  0  0  0
  -17.6886  -19.7551   23.5069 C   0  0  0  0  0  0  0  0  0  0  0  0
  -16.9829  -16.4161   23.4898 C   0  0  0  0  0  0  0  0  0  0  0  0
  -31.3358  -15.4081   19.3283 C   0  0  0  0  0  0  0  0  0  0  0  0
  -18.1969  -26.8903   23.6648 C   0  0  0  0  0  0  0  0  0  0  0  0
  -20.2789  -20.7659   21.0817 C   0  0  0  0  0  0  0  0  0  0  0  0
  -20.1049  -19.0299   23.4693 C   0  0  0  0  0  0  0  0  0  0  0  0
  -17.8376  -25.5372   24.2731 C   0  0  0  0  0  0  0  0  0  0  0  0
  -30.0245  -17.1504   22.1428 C   0  0  0  0  0  0  0  0  0  0  0  0
  -19.0918  -24.8256   24.7706 C   0  0  0  0  0  0  0  0  0  0  0  0
  -29.3761  -18.3946   21.5332 C   0  0  0  0  0  0  0  0  0  0  0  0
  -31.3025  -16.7604   21.4035 C   0  0  0  0  0  0  0  0  0  0  0  0
  -30.4999  -17.8367   19.3368 C   0  0  0  0  0  0  0  0  0  0  0  0
  -20.0632  -24.5485   23.6169 C   0  0  1  0  0  0  0  0  0  0  0  0
  -19.3366  -21.0836   22.2386 C   0  0  1  0  0  0  0  0  0  0  0  0
  -29.1777  -18.2361   20.0138 C   0  0  2  0  0  0  0  0  0  0  0  0
  -15.0915  -14.8008   23.8223 C   0  0  0  0  0  0  0  0  0  0  0  0
  -17.8629  -20.1758   26.5240 C   0  0  0  0  0  0  0  0  0  0  0  0
  -16.7237  -17.9671   26.8276 C   0  0  0  0  0  0  0  0  0  0  0  0
  -15.5455  -19.8250   25.6518 C   0  0  0  0  0  0  0  0  0  0  0  0
  -17.2340  -15.3746   20.7310 C   0  0  0  0  0  0  0  0  0  0  0  0
  -26.0603  -15.6295   21.8773 C   0  0  0  0  0  0  0  0  0  0  0  0
  -26.9515  -15.0204   20.8016 C   0  0  0  0  0  0  0  0  0  0  0  0
  -31.2949  -14.1777   17.1734 C   0  0  0  0  0  0  0  0  0  0  0  0
  -25.4664  -16.9722   21.4680 C   0  0  0  0  0  0  0  0  0  1  0  0
  -30.0804  -13.2332   17.1302 C   0  0  2  0  0  0  0  0  0  0  0  0
  -17.4520  -18.6363   24.4925 C   0  0  1  0  0  0  0  0  0  0  0  0
  -15.8785  -15.6235   22.8141 C   0  0  2  0  0  0  0  0  0  0  0  0
  -16.9202  -19.1529   25.8591 C   0  0  0  0  0  0  0  0  0  0  0  0
  -28.8742  -20.6820   19.9237 N   0  0  0  0  0  0  0  0  0  0  0  0
  -28.5743  -19.4835   19.3950 N   0  0  0  0  0  0  0  0  0  0  0  0
  -19.0007  -19.9015   23.0349 N   0  0  0  0  0  0  0  0  0  0  0  0
  -31.0457  -16.6247   19.9677 N   0  0  0  0  0  0  0  0  0  0  0  0
  -31.1130  -10.7615   18.2150 N   0  0  0  0  0  0  0  0  0  0  0  0
  -28.5555  -11.3460   22.2843 N   0  0  0  0  0  0  0  0  0  0  0  0
  -27.3275  -18.4367   17.6744 N   0  0  0  0  0  0  0  0  0  0  0  0
  -26.4430  -22.8253   17.0796 N   0  0  0  0  0  0  0  0  0  0  0  0
  -27.5211  -13.7747   21.2554 N   0  0  0  0  0  0  0  0  0  0  0  0
  -19.6165  -23.4107   22.8422 N   0  0  0  0  0  0  0  0  0  0  0  0
  -16.5666  -17.6866   23.8271 N   0  0  0  0  0  0  0  0  0  0  0  0
  -31.0565  -15.3620   17.9679 N   0  0  0  0  0  0  0  0  0  0  0  0
  -28.9599  -13.9516   16.4284 N   0  3  0  0  0  0  0  0  0  0  0  0
  -16.4532  -14.6972   21.7979 N   0  3  0  0  0  0  0  0  0  0  0  0
  -26.0081  -20.7151   16.2943 O   0  0  0  0  0  0  0  0  0  0  0  0
  -20.5517  -21.7313   24.1567 O   0  0  0  0  0  0  0  0  0  0  0  0
  -16.7427  -20.4681   23.1630 O   0  0  0  0  0  0  0  0  0  0  0  0
  -18.1017  -15.9532   23.7008 O   0  0  0  0  0  0  0  0  0  0  0  0
  -31.8036  -14.4334   19.9265 O   0  0  0  0  0  0  0  0  0  0  0  0
  -28.4402  -27.0314   20.1383 O   0  0  0  0  0  0  0  0  0  0  0  0
  -24.6387  -17.4504   22.5275 O   0  0  0  0  0  0  0  0  0  1  0  0
  -23.7137  -29.8698   20.0504 F   0  0  0  0  0  0  0  0  0  0  0  0
  -27.5726  -28.4111   22.3714 F   0  0  0  0  0  0  0  0  0  0  0  0
  1  2  1  0  0  0  0
  1  5  2  0  0  0  0
  2  6  2  0  0  0  0
  3  8  2  0  0  0  0
  3 17  1  0  0  0  0
  4  9  1  0  0  0  0
  4 17  2  0  0  0  0
  5 19  1  0  0  0  0
  6 21  1  0  0  0  0
  7 10  2  0  0  0  0
  7 20  1  0  0  0  0
  8 27  1  0  0  0  0
  9 27  2  0  0  0  0
 10 28  1  0  0  0  0
 11 12  2  0  0  0  0
 11 29  1  0  0  0  0
 12 30  1  0  0  0  0
 13 22  1  0  0  0  0
 13 28  2  0  0  0  0
 14 23  2  0  0  0  0
 14 24  1  0  0  0  0
 15 25  2  0  0  0  0
 15 26  1  0  0  0  0
 16 30  2  0  0  0  0
 16 31  1  0  0  0  0
 17 32  1  0  0  0  0
 18 32  1  0  0  0  0
 18 33  2  0  0  0  0
 18 34  1  0  0  0  0
 19 21  2  0  0  0  0
 19 39  1  0  0  0  0
 20 22  2  0  0  0  0
 20 40  1  0  0  0  0
 21 48  1  0  0  0  0
 22 41  1  0  0  0  0
 23 25  1  0  0  0  0
 23 60  1  0  0  0  0
 24 26  2  0  0  0  0
 24 72  1  0  0  0  0
 25 68  1  0  0  0  0
 26 69  1  0  0  0  0
 27 83  1  0  0  0  0
 28 84  1  0  0  0  0
 29 31  2  0  0  0  0
 29 83  1  0  0  0  0
 30 85  1  0  0  0  0
 31 86  1  0  0  0  0
 32 64  2  0  0  0  0
 33 65  1  0  0  0  0
 33 70  1  0  0  0  0
 34 71  1  0  0  0  0
 34 78  2  0  0  0  0
 35 49  1  0  0  0  0
 35 73  1  0  0  0  0
 35 79  2  0  0  0  0
 36 61  1  0  0  0  0
 36 66  1  0  0  0  0
 36 80  2  0  0  0  0
 37 62  1  0  0  0  0
 37 74  1  0  0  0  0
 37 81  2  0  0  0  0
 38 67  1  0  0  0  0
 38 75  1  0  0  0  0
 38 82  2  0  0  0  0
 39 42  1  0  0  0  0
 40 49  1  0  0  0  0
 41 66  1  0  0  0  0
 42 44  1  0  0  0  0
 43 45  1  0  0  0  0
 43 46  1  0  0  0  0
 44 48  1  0  0  0  0
 45 50  1  0  0  0  0
 46 67  1  0  0  0  0
 47 50  1  0  0  0  0
 47 67  1  0  0  0  0
 48 73  1  0  0  0  0
 49 66  1  0  0  0  0
 50 65  1  0  0  0  0
 51 62  1  0  0  0  0
 52 63  1  0  0  0  0
 53 63  1  0  0  0  0
 54 63  1  0  0  0  0
 55 77  1  0  0  0  0
 56 57  1  0  0  0  0
 56 59  1  0  0  0  0
 57 72  1  0  0  0  0
 58 60  1  0  0  0  0
 58 75  1  0  0  0  0
 59 84  1  0  0  0  0
 60 76  1  0  0  0  0
 61 63  1  0  0  0  0
 61 74  1  0  0  0  0
 62 77  1  0  0  0  0
 64 65  1  0  0  0  0
M  CHG  2  76   1  77   1
M  ISO  4  38 100  59 101  75 100  84 101
M  END
> <Batch ID>
0099

> <Smiles>
CNC(C)C(=O)NC(C(=O)N1Cc2cc([101O:1][101CH2:1]CCNc3cc(C(N)C[100NH:0][100C:0](=O)N4CCCC(n5nc(-c6ccc(Oc7ccc(F)cc7F)cc6)c(C(N)=O)c5N)C4)c(N)cc3N)ccc2CC1C(=O)NC1CCCc2ccccc21)C(C)(C)C

> <Shape>
0.215

> <Color>
0.077

> <Negative vol penalty>
0.000

$$$$

  -OEChem-04052300543D

 84 92  0     1  0  0  0  0  0999 V2000
  -31.9677  -18.1865   19.5296 C   0  0  0  0  0  0  0  0  0  0  0  0
  -31.5088  -17.4893   20.6414 C   0  0  0  0  0  0  0  0  0  0  0  0
  -26.6887  -29.7545   19.2968 C   0  0  0  0  0  0  0  0  0  0  0  0
  -26.2705  -29.0525   21.5704 C   0  0  0  0  0  0  0  0  0  0  0  0
  -27.2355  -20.6078   24.9700 C   0  0  0  0  0  0  0  0  0  0  0  0
  -31.1690  -18.2802   18.3919 C   0  0  0  0  0  0  0  0  0  0  0  0
  -30.2560  -16.8755   20.6117 C   0  0  0  0  0  0  0  0  0  0  0  0
  -29.0677  -14.0342   24.4481 C   0  0  0  0  0  0  0  0  0  0  0  0
  -27.8336  -21.4635   24.0450 C   0  0  0  0  0  0  0  0  0  0  0  0
  -25.5406  -30.5459   19.3299 C   0  0  0  0  0  0  0  0  0  0  0  0
  -25.1223  -29.8439   21.6036 C   0  0  0  0  0  0  0  0  0  0  0  0
  -28.7604  -14.5542   25.7046 C   0  0  0  0  0  0  0  0  0  0  0  0
  -22.5221  -32.4714   18.6942 C   0  0  0  0  0  0  0  0  0  0  0  0
  -21.6667  -32.4222   17.5935 C   0  0  0  0  0  0  0  0  0  0  0  0
  -26.4170  -14.1633   25.2866 C   0  0  0  0  0  0  0  0  0  0  0  0
  -27.7322  -19.7246   22.3707 C   0  0  0  0  0  0  0  0  0  0  0  0
  -21.3437  -30.0547   17.9504 C   0  0  0  0  0  0  0  0  0  0  0  0
  -27.0537  -29.0078   20.4171 C   0  0  0  0  0  0  0  0  0  0  0  0
  -26.8858  -19.3104   24.5954 C   0  0  0  0  0  0  0  0  0  0  0  0
  -29.5460  -28.5714   20.7418 C   0  0  0  0  0  0  0  0  0  0  0  0
  -29.9008  -17.6776   18.3535 C   0  0  0  0  0  0  0  0  0  0  0  0
  -28.0493  -13.5841   23.5956 C   0  0  0  0  0  0  0  0  0  0  0  0
  -29.4450  -16.9385   19.4641 C   0  0  0  0  0  0  0  0  0  0  0  0
  -26.7142  -13.6356   24.0208 C   0  0  0  0  0  0  0  0  0  0  0  0
  -28.0820  -21.0220   22.7454 C   0  0  0  0  0  0  0  0  0  0  0  0
  -24.7574  -30.5906   20.4833 C   0  0  0  0  0  0  0  0  0  0  0  0
  -27.4347  -14.6216   26.1229 C   0  0  0  0  0  0  0  0  0  0  0  0
  -22.7883  -31.3122   19.4230 C   0  0  0  0  0  0  0  0  0  0  0  0
  -21.0775  -31.2139   17.2217 C   0  0  0  0  0  0  0  0  0  0  0  0
  -27.1341  -18.8689   23.2958 C   0  0  0  0  0  0  0  0  0  0  0  0
  -22.1991  -30.1039   19.0511 C   0  0  0  0  0  0  0  0  0  0  0  0
  -28.2393  -28.1897   20.3833 C   0  0  0  0  0  0  0  0  0  0  0  0
  -30.3023  -27.4439   20.5337 C   0  0  0  0  0  0  0  0  0  0  0  0
  -26.2516  -18.4016   25.5848 C   0  0  0  0  0  0  0  0  0  0  0  0
  -30.0326  -29.8324   21.2202 C   0  0  0  0  0  0  0  0  0  0  0  0
  -26.9992  -14.4258   20.7159 C   0  0  0  0  0  0  0  0  0  0  0  0
  -25.1169  -11.8072   21.0655 C   0  0  0  0  0  0  0  0  0  0  0  0
  -23.5850   -9.6004   23.1703 C   0  0  0  0  0  0  0  0  0  0  0  0
  -29.0052  -21.6113   20.4768 C   0  0  0  0  0  0  0  0  0  0  0  0
  -29.0811  -17.8038   17.0936 C   0  0  0  0  0  0  0  0  0  0  0  0
  -28.3995  -13.0011   22.2540 C   0  0  0  0  0  0  0  0  0  0  0  0
  -25.5856  -13.1468   23.1515 C   0  0  0  0  0  0  0  0  0  0  0  0
  -27.6020  -17.5044   17.3141 C   0  0  0  0  0  0  0  0  0  0  0  0
  -30.4700  -23.4929   17.8327 C   0  0  0  0  0  0  0  0  0  0  0  0
  -27.4440  -16.1935   18.0700 C   0  0  0  0  0  0  0  0  0  0  0  0
  -30.1884  -24.9458   18.2224 C   0  0  0  0  0  0  0  0  0  0  0  0
  -29.3102  -22.5709   18.2050 C   0  0  0  0  0  0  0  0  0  0  0  0
  -28.5963  -24.1047   19.9957 C   0  0  0  0  0  0  0  0  0  0  0  0
  -28.0731  -16.2888   19.4657 C   0  0  1  0  0  0  0  0  0  0  0  0
  -27.2414  -13.0470   21.2619 C   0  0  1  0  0  0  0  0  0  0  0  0
  -29.7632  -25.0608   19.6994 C   0  0  2  0  0  0  0  0  0  0  0  0
  -22.0831   -7.5900   23.1635 C   0  0  0  0  0  0  0  0  0  0  0  0
  -22.7247  -13.5995   20.4532 C   0  0  0  0  0  0  0  0  0  0  0  0
  -21.2366  -11.8113   21.3786 C   0  0  0  0  0  0  0  0  0  0  0  0
  -22.6436  -11.3459   19.3720 C   0  0  0  0  0  0  0  0  0  0  0  0
  -25.6333   -7.9214   24.4911 C   0  0  0  0  0  0  0  0  0  0  0  0
  -27.1981  -17.0774   28.7484 C   0  0  0  0  0  0  0  0  0  0  0  0
  -26.0913  -17.7916   27.9844 C   0  0  0  0  0  0  0  0  0  0  0  0
  -28.0063  -16.1283   27.8719 C   0  0  0  0  0  0  0  0  0  1  0  0
  -23.7451  -11.5455   21.6388 C   0  0  1  0  0  0  0  0  0  0  0  0
  -23.5215   -8.0837   23.1671 C   0  0  2  0  0  0  0  0  0  0  0  0
  -22.6084  -12.0866   20.7265 C   0  0  0  0  0  0  0  0  0  0  0  0
  -28.1661  -26.9190   19.9781 N   0  0  0  0  0  0  0  0  0  0  0  0
  -29.4364  -26.4926   20.0806 N   0  0  0  0  0  0  0  0  0  0  0  0
  -25.9784  -12.5911   21.8459 N   0  0  0  0  0  0  0  0  0  0  0  0
  -28.9655  -22.7311   19.6193 N   0  0  0  0  0  0  0  0  0  0  0  0
  -31.6170  -27.1835   20.6959 N   0  0  0  0  0  0  0  0  0  0  0  0
  -29.1204  -30.8848   21.3765 N   0  0  0  0  0  0  0  0  0  0  0  0
  -28.6895  -21.8914   21.8059 N   0  0  0  0  0  0  0  0  0  0  0  0
  -26.6016  -18.6042   26.9150 N   0  0  0  0  0  0  0  0  0  0  0  0
  -28.0894  -14.9734   20.0670 N   0  0  0  0  0  0  0  0  0  0  0  0
  -23.6757  -10.1105   21.8925 N   0  0  0  0  0  0  0  0  0  0  0  0
  -24.2039   -7.5341   24.3726 N   0  3  0  0  0  0  0  0  0  0  0  0
  -25.4858  -17.5260   25.1905 O   0  0  0  0  0  0  0  0  0  0  0  0
  -31.2435  -30.0250   21.4851 O   0  0  0  0  0  0  0  0  0  0  0  0
  -25.9039  -14.9530   20.8705 O   0  0  0  0  0  0  0  0  0  0  0  0
  -25.4156  -11.3276   19.9690 O   0  0  0  0  0  0  0  0  0  0  0  0
  -23.5533  -10.2662   24.2029 O   0  0  0  0  0  0  0  0  0  0  0  0
  -29.3243  -20.4919   20.0680 O   0  0  0  0  0  0  0  0  0  0  0  0
  -23.6371  -31.3629   20.5160 O   0  0  0  0  0  0  0  0  0  0  0  0
  -27.1319  -15.1293   27.3486 O   0  0  0  0  0  0  0  0  0  1  0  0
  -20.2549  -31.1671   16.1656 F   0  0  0  0  0  0  0  0  0  0  0  0
  -26.8026  -17.6239   22.9247 F   0  0  0  0  0  0  0  0  0  0  0  0
  -22.4501  -28.9872   19.7481 F   0  0  0  0  0  0  0  0  0  0  0  0
  1  2  1  0  0  0  0
  1  6  2  0  0  0  0
  2  7  2  0  0  0  0
  3 10  2  0  0  0  0
  3 18  1  0  0  0  0
  4 11  1  0  0  0  0
  4 18  2  0  0  0  0
  5  9  2  0  0  0  0
  5 19  1  0  0  0  0
  6 21  1  0  0  0  0
  7 23  1  0  0  0  0
  8 12  2  0  0  0  0
  8 22  1  0  0  0  0
  9 25  1  0  0  0  0
 10 26  1  0  0  0  0
 11 26  2  0  0  0  0
 12 27  1  0  0  0  0
 13 14  2  0  0  0  0
 13 28  1  0  0  0  0
 14 29  1  0  0  0  0
 15 24  1  0  0  0  0
 15 27  2  0  0  0  0
 16 25  2  0  0  0  0
 16 30  1  0  0  0  0
 17 29  2  0  0  0  0
 17 31  1  0  0  0  0
 18 32  1  0  0  0  0
 19 30  2  0  0  0  0
 19 34  1  0  0  0  0
 20 32  1  0  0  0  0
 20 33  2  0  0  0  0
 20 35  1  0  0  0  0
 21 23  2  0  0  0  0
 21 40  1  0  0  0  0
 22 24  2  0  0  0  0
 22 41  1  0  0  0  0
 23 49  1  0  0  0  0
 24 42  1  0  0  0  0
 25 69  1  0  0  0  0
 26 80  1  0  0  0  0
 27 81  1  0  0  0  0
 28 31  2  0  0  0  0
 28 80  1  0  0  0  0
 29 82  1  0  0  0  0
 30 83  1  0  0  0  0
 31 84  1  0  0  0  0
 32 63  2  0  0  0  0
 33 64  1  0  0  0  0
 33 67  1  0  0  0  0
 34 70  1  0  0  0  0
 34 74  2  0  0  0  0
 35 68  1  0  0  0  0
 35 75  2  0  0  0  0
 36 50  1  0  0  0  0
 36 71  1  0  0  0  0
 36 76  2  0  0  0  0
 37 60  1  0  0  0  0
 37 65  1  0  0  0  0
 37 77  2  0  0  0  0
 38 61  1  0  0  0  0
 38 72  1  0  0  0  0
 38 78  2  0  0  0  0
 39 66  1  0  0  0  0
 39 69  1  0  0  0  0
 39 79  2  0  0  0  0
 40 43  1  0  0  0  0
 41 50  1  0  0  0  0
 42 65  1  0  0  0  0
 43 45  1  0  0  0  0
 44 46  1  0  0  0  0
 44 47  1  0  0  0  0
 45 49  1  0  0  0  0
 46 51  1  0  0  0  0
 47 66  1  0  0  0  0
 48 51  1  0  0  0  0
 48 66  1  0  0  0  0
 49 71  1  0  0  0  0
 50 65  1  0  0  0  0
 51 64  1  0  0  0  0
 52 61  1  0  0  0  0
 53 62  1  0  0  0  0
 54 62  1  0  0  0  0
 55 62  1  0  0  0  0
 56 73  1  0  0  0  0
 57 58  1  0  0  0  0
 57 59  1  0  0  0  0
 58 70  1  0  0  0  0
 59 81  1  0  0  0  0
 60 62  1  0  0  0  0
 60 72  1  0  0  0  0
 61 73  1  0  0  0  0
 63 64  1  0  0  0  0
M  CHG  1  73   1
M  ISO  4  39 100  59 101  69 100  81 101
M  END
> <Batch ID>
0099

> <Smiles>
CNC(C)C(=O)NC(C(=O)N1Cc2cc([101O:1][101CH2:1]CCNC(=O)c3ccc([100NH:0][100C:0](=O)N4CCCC(n5nc(-c6ccc(Oc7ccc(F)cc7F)cc6)c(C(N)=O)c5N)C4)cc3F)ccc2CC1C(=O)NC1CCCc2ccccc21)C(C)(C)C

> <Shape>
0.227

> <Color>
0.061

> <Negative vol penalty>
0.000

$$$$

  -OEChem-04052300543D

 84 92  0     1  0  0  0  0  0999 V2000
  -28.3479  -22.3775   14.3218 C   0  0  0  0  0  0  0  0  0  0  0  0
  -27.2166  -22.8512   14.9767 C   0  0  0  0  0  0  0  0  0  0  0  0
  -26.3787  -12.4351   21.7364 C   0  0  0  0  0  0  0  0  0  0  0  0
  -25.8233  -13.6113   19.7004 C   0  0  0  0  0  0  0  0  0  0  0  0
  -26.2547  -20.8304   21.5098 C   0  0  0  0  0  0  0  0  0  0  0  0
  -29.6043  -22.5432   14.9008 C   0  0  0  0  0  0  0  0  0  0  0  0
  -27.3424  -23.5012   16.2049 C   0  0  0  0  0  0  0  0  0  0  0  0
  -23.2794  -25.5485   18.0767 C   0  0  0  0  0  0  0  0  0  0  0  0
  -25.1675  -11.7466   21.6691 C   0  0  0  0  0  0  0  0  0  0  0  0
  -24.6120  -12.9227   19.6330 C   0  0  0  0  0  0  0  0  0  0  0  0
  -24.8878  -21.0059   21.2945 C   0  0  0  0  0  0  0  0  0  0  0  0
  -22.2313  -24.7963   18.6053 C   0  0  0  0  0  0  0  0  0  0  0  0
  -23.8869   -9.1193   19.9690 C   0  0  0  0  0  0  0  0  0  0  0  0
  -23.9089   -7.7445   20.2033 C   0  0  0  0  0  0  0  0  0  0  0  0
  -26.6242  -20.7787   19.1228 C   0  0  0  0  0  0  0  0  0  0  0  0
  -22.9705  -25.3442   20.8352 C   0  0  0  0  0  0  0  0  0  0  0  0
  -22.4045   -8.0386   22.0708 C   0  0  0  0  0  0  0  0  0  0  0  0
  -26.7066  -13.3675   20.7520 C   0  0  0  0  0  0  0  0  0  0  0  0
  -27.1229  -20.7169   20.4239 C   0  0  0  0  0  0  0  0  0  0  0  0
  -29.1888  -13.6910   20.2607 C   0  0  0  0  0  0  0  0  0  0  0  0
  -29.7434  -23.1846   16.1427 C   0  0  0  0  0  0  0  0  0  0  0  0
  -24.1889  -26.1964   18.9249 C   0  0  0  0  0  0  0  0  0  0  0  0
  -28.6042  -23.6994   16.7942 C   0  0  0  0  0  0  0  0  0  0  0  0
  -24.0278  -26.1062   20.3148 C   0  0  0  0  0  0  0  0  0  0  0  0
  -25.2572  -20.9542   18.9074 C   0  0  0  0  0  0  0  0  0  0  0  0
  -24.2842  -11.9904   20.6174 C   0  0  0  0  0  0  0  0  0  0  0  0
  -22.0784  -24.6917   19.9847 C   0  0  0  0  0  0  0  0  0  0  0  0
  -24.3891  -21.0678   19.9933 C   0  0  0  0  0  0  0  0  0  0  0  0
  -23.1237   -9.9539   20.7857 C   0  0  0  0  0  0  0  0  0  0  0  0
  -23.1677   -7.2041   21.2542 C   0  0  0  0  0  0  0  0  0  0  0  0
  -22.3826   -9.4135   21.8365 C   0  0  0  0  0  0  0  0  0  0  0  0
  -27.9573  -14.0795   20.8213 C   0  0  0  0  0  0  0  0  0  0  0  0
  -30.0561  -14.6988   20.6053 C   0  0  0  0  0  0  0  0  0  0  0  0
  -28.5481  -20.5342   20.6494 C   0  0  0  0  0  0  0  0  0  0  0  0
  -29.5192  -12.5236   19.4967 C   0  0  0  0  0  0  0  0  0  0  0  0
  -29.1094  -20.4646   22.0181 C   0  0  0  0  0  0  0  0  0  0  0  0
  -27.3199  -25.9905   19.4332 C   0  0  0  0  0  0  0  0  0  0  0  0
  -26.7819  -28.5479   21.3549 C   0  0  0  0  0  0  0  0  0  0  0  0
  -24.5766  -30.3356   23.2489 C   0  0  0  0  0  0  0  0  0  0  0  0
  -31.1278  -23.3438   16.7200 C   0  0  0  0  0  0  0  0  0  0  0  0
  -25.2984  -27.0259   18.3389 C   0  0  0  0  0  0  0  0  0  0  0  0
  -24.9653  -26.7992   21.2685 C   0  0  0  0  0  0  0  0  0  0  0  0
  -31.1175  -23.6434   18.2155 C   0  0  0  0  0  0  0  0  0  0  0  0
  -30.8326  -17.9987   23.9692 C   0  0  0  0  0  0  0  0  0  0  0  0
  -30.1495  -24.7792   18.5114 C   0  0  0  0  0  0  0  0  0  0  0  0
  -30.3713  -16.6773   23.3554 C   0  0  0  0  0  0  0  0  0  0  0  0
  -29.7247  -19.0465   23.9362 C   0  0  0  0  0  0  0  0  0  0  0  0
  -28.7019  -17.9684   21.9512 C   0  0  0  0  0  0  0  0  0  0  0  0
  -28.7137  -24.3824   18.1455 C   0  0  1  0  0  0  0  0  0  0  0  0
  -26.4688  -27.2213   19.2978 C   0  0  1  0  0  0  0  0  0  0  0  0
  -29.8031  -16.8938   21.9416 C   0  0  2  0  0  0  0  0  0  0  0  0
  -24.4386  -32.3566   24.7301 C   0  0  0  0  0  0  0  0  0  0  0  0
  -19.1385  -23.0593   19.3747 C   0  0  0  0  0  0  0  0  0  0  0  0
  -28.1642  -26.9999   23.5916 C   0  0  0  0  0  0  0  0  0  0  0  0
  -27.1720  -28.6146   25.2276 C   0  0  0  0  0  0  0  0  0  0  0  0
  -28.7576  -29.4268   23.4815 C   0  0  0  0  0  0  0  0  0  0  0  0
  -22.5968  -31.6415   21.4786 C   0  0  0  0  0  0  0  0  0  0  0  0
  -20.7891  -21.5638   20.5502 C   0  0  0  0  0  0  0  0  0  0  0  0
  -22.2391  -21.3484   20.9704 C   0  0  0  0  0  0  0  0  0  0  0  0
  -26.4206  -28.7356   22.8086 C   0  0  1  0  0  0  0  0  0  0  0  0
  -24.2802  -31.8230   23.3149 C   0  0  2  0  0  0  0  0  0  0  0  0
  -20.6020  -22.8439   19.7354 C   0  0  2  0  0  0  0  0  0  1  0  0
  -27.6119  -28.4294   23.7596 C   0  0  0  0  0  0  0  0  0  0  0  0
  -28.0315  -15.2432   21.4727 N   0  0  0  0  0  0  0  0  0  0  0  0
  -29.4176  -20.4187   19.6823 N   0  0  0  0  0  0  0  0  0  0  0  0
  -29.3201  -15.5946   21.3237 N   0  0  0  0  0  0  0  0  0  0  0  0
  -29.1833  -19.2010   22.5875 N   0  0  0  0  0  0  0  0  0  0  0  0
  -26.0380  -27.5932   20.6470 N   0  0  0  0  0  0  0  0  0  0  0  0
  -24.7659  -21.0162   17.5851 N   0  0  0  0  0  0  0  0  0  0  0  0
  -31.3688  -14.8972   20.3609 N   0  0  0  0  0  0  0  0  0  0  0  0
  -28.5084  -11.5892   19.2335 N   0  0  0  0  0  0  0  0  0  0  0  0
  -27.8626  -25.5478   18.2420 N   0  0  0  0  0  0  0  0  0  0  0  0
  -25.8948  -30.0913   22.9267 N   0  0  0  0  0  0  0  0  0  0  0  0
  -22.8859  -32.0938   22.8638 N   0  3  0  0  0  0  0  0  0  0  0  0
  -30.6804  -12.3073   19.0743 O   0  0  0  0  0  0  0  0  0  0  0  0
  -29.4496  -21.5355   22.5037 O   0  0  0  0  0  0  0  0  0  0  0  0
  -27.4740  -25.4810   20.5370 O   0  0  0  0  0  0  0  0  0  0  0  0
  -27.6859  -29.2284   20.8636 O   0  0  0  0  0  0  0  0  0  0  0  0
  -23.7248  -29.4764   23.4654 O   0  0  0  0  0  0  0  0  0  0  0  0
  -23.1023  -11.3185   20.5513 O   0  0  0  0  0  0  0  0  0  0  0  0
  -23.0431  -21.2418   19.8029 O   0  0  0  0  0  0  0  0  0  0  0  0
  -21.0566  -23.9576   20.5032 O   0  0  0  0  0  0  0  0  0  1  0  0
  -23.1877   -5.8836   21.4781 F   0  0  0  0  0  0  0  0  0  0  0  0
  -21.6466  -10.2101   22.6237 F   0  0  0  0  0  0  0  0  0  0  0  0
  1  2  1  0  0  0  0
  1  6  2  0  0  0  0
  2  7  2  0  0  0  0
  3  9  2  0  0  0  0
  3 18  1  0  0  0  0
  4 10  1  0  0  0  0
  4 18  2  0  0  0  0
  5 11  2  0  0  0  0
  5 19  1  0  0  0  0
  6 21  1  0  0  0  0
  7 23  1  0  0  0  0
  8 12  2  0  0  0  0
  8 22  1  0  0  0  0
  9 26  1  0  0  0  0
 10 26  2  0  0  0  0
 11 28  1  0  0  0  0
 12 27  1  0  0  0  0
 13 14  2  0  0  0  0
 13 29  1  0  0  0  0
 14 30  1  0  0  0  0
 15 19  2  0  0  0  0
 15 25  1  0  0  0  0
 16 24  1  0  0  0  0
 16 27  2  0  0  0  0
 17 30  2  0  0  0  0
 17 31  1  0  0  0  0
 18 32  1  0  0  0  0
 19 34  1  0  0  0  0
 20 32  1  0  0  0  0
 20 33  2  0  0  0  0
 20 35  1  0  0  0  0
 21 23  2  0  0  0  0
 21 40  1  0  0  0  0
 22 24  2  0  0  0  0
 22 41  1  0  0  0  0
 23 49  1  0  0  0  0
 24 42  1  0  0  0  0
 25 28  2  0  0  0  0
 25 69  1  0  0  0  0
 26 80  1  0  0  0  0
 27 82  1  0  0  0  0
 28 81  1  0  0  0  0
 29 31  2  0  0  0  0
 29 80  1  0  0  0  0
 30 83  1  0  0  0  0
 31 84  1  0  0  0  0
 32 64  2  0  0  0  0
 33 66  1  0  0  0  0
 33 70  1  0  0  0  0
 34 36  1  0  0  0  0
 34 65  2  0  0  0  0
 35 71  1  0  0  0  0
 35 75  2  0  0  0  0
 36 67  1  0  0  0  0
 36 76  2  0  0  0  0
 37 50  1  0  0  0  0
 37 72  1  0  0  0  0
 37 77  2  0  0  0  0
 38 60  1  0  0  0  0
 38 68  1  0  0  0  0
 38 78  2  0  0  0  0
 39 61  1  0  0  0  0
 39 73  1  0  0  0  0
 39 79  2  0  0  0  0
 40 43  1  0  0  0  0
 41 50  1  0  0  0  0
 42 68  1  0  0  0  0
 43 45  1  0  0  0  0
 44 46  1  0  0  0  0
 44 47  1  0  0  0  0
 45 49  1  0  0  0  0
 46 51  1  0  0  0  0
 47 67  1  0  0  0  0
 48 51  1  0  0  0  0
 48 67  1  0  0  0  0
 49 72  1  0  0  0  0
 50 68  1  0  0  0  0
 51 66  1  0  0  0  0
 52 61  1  0  0  0  0
 53 62  1  0  0  0  0
 54 63  1  0  0  0  0
 55 63  1  0  0  0  0
 56 63  1  0  0  0  0
 57 74  1  0  0  0  0
 58 59  1  0  0  0  0
 58 62  1  0  0  0  0
 59 81  1  0  0  0  0
 60 63  1  0  0  0  0
 60 73  1  0  0  0  0
 61 74  1  0  0  0  0
 62 82  1  0  0  0  0
 64 66  1  0  0  0  0
M  CHG  1  74   1
M  ISO  4  34 100  36 100  62 101  82 101
M  END
> <Batch ID>
0099

> <Smiles>
CNC(C)C(=O)NC(C(=O)N1Cc2cc([101O:1][101CH:1](C)CCOc3ccc([100C:0](=N)[100C:0](=O)N4CCCC(n5nc(-c6ccc(Oc7ccc(F)cc7F)cc6)c(C(N)=O)c5N)C4)cc3N)ccc2CC1C(=O)NC1CCCc2ccccc21)C(C)(C)C

> <Shape>
0.249

> <Color>
0.073

> <Negative vol penalty>
0.000

$$$$

  -OEChem-04052300543D

 83 91  0     1  0  0  0  0  0999 V2000
  -17.9371  -32.4575   21.5122 C   0  0  0  0  0  0  0  0  0  0  0  0
  -19.3007  -32.7132   21.6147 C   0  0  0  0  0  0  0  0  0  0  0  0
  -26.2265  -13.1085   21.7048 C   0  0  0  0  0  0  0  0  0  0  0  0
  -25.8212  -14.0329   19.5097 C   0  0  0  0  0  0  0  0  0  0  0  0
  -17.4126  -31.2668   22.0134 C   0  0  0  0  0  0  0  0  0  0  0  0
  -20.1407  -31.7786   22.2193 C   0  0  0  0  0  0  0  0  0  0  0  0
  -25.6807  -28.8997   18.6261 C   0  0  0  0  0  0  0  0  0  0  0  0
  -25.0218  -12.4092   21.6327 C   0  0  0  0  0  0  0  0  0  0  0  0
  -24.6165  -13.3335   19.4376 C   0  0  0  0  0  0  0  0  0  0  0  0
  -26.8852  -28.4617   18.0752 C   0  0  0  0  0  0  0  0  0  0  0  0
  -23.8610   -9.5916   20.1674 C   0  0  0  0  0  0  0  0  0  0  0  0
  -23.8633   -8.2542   20.5634 C   0  0  0  0  0  0  0  0  0  0  0  0
  -30.2355  -22.9342   18.3504 C   0  0  0  0  0  0  0  0  0  0  0  0
  -27.3004  -27.1059   20.0341 C   0  0  0  0  0  0  0  0  0  0  0  0
  -30.6644  -21.0562   16.8922 C   0  0  0  0  0  0  0  0  0  0  0  0
  -22.2293   -8.7568   22.2706 C   0  0  0  0  0  0  0  0  0  0  0  0
  -26.6262  -13.9205   20.6433 C   0  0  0  0  0  0  0  0  0  0  0  0
  -30.3116  -23.7991   17.2588 C   0  0  0  0  0  0  0  0  0  0  0  0
  -30.5640  -23.2926   15.9839 C   0  0  0  0  0  0  0  0  0  0  0  0
  -29.1380  -14.1996   20.2961 C   0  0  0  0  0  0  0  0  0  0  0  0
  -18.2480  -30.3130   22.6158 C   0  0  0  0  0  0  0  0  0  0  0  0
  -25.2736  -28.4299   19.8779 C   0  0  0  0  0  0  0  0  0  0  0  0
  -19.6267  -30.5746   22.7302 C   0  0  0  0  0  0  0  0  0  0  0  0
  -26.0889  -27.5314   20.5855 C   0  0  0  0  0  0  0  0  0  0  0  0
  -30.4120  -21.5627   18.1671 C   0  0  0  0  0  0  0  0  0  0  0  0
  -24.2168  -12.5216   20.4991 C   0  0  0  0  0  0  0  0  0  0  0  0
  -27.6931  -27.5672   18.7776 C   0  0  0  0  0  0  0  0  0  0  0  0
  -23.0430  -10.5117   20.8231 C   0  0  0  0  0  0  0  0  0  0  0  0
  -23.0474   -7.8367   21.6149 C   0  0  0  0  0  0  0  0  0  0  0  0
  -30.7404  -21.9211   15.8006 C   0  0  0  0  0  0  0  0  0  0  0  0
  -22.2271  -10.0943   21.8747 C   0  0  0  0  0  0  0  0  0  0  0  0
  -27.8702  -14.6436   20.7174 C   0  0  0  0  0  0  0  0  0  0  0  0
  -29.9803  -15.2465   20.5805 C   0  0  0  0  0  0  0  0  0  0  0  0
  -30.1201  -25.2410   17.4894 C   0  0  0  0  0  0  0  0  0  0  0  0
  -29.0239  -25.7998   18.0172 C   0  0  0  0  0  0  0  0  0  1  0  0
  -30.6505  -24.1665   14.8193 C   0  0  0  0  0  0  0  0  0  0  0  0
  -29.5199  -12.9525   19.7009 C   0  0  0  0  0  0  0  0  0  0  0  0
  -22.6614  -28.4727   22.5706 C   0  0  0  0  0  0  0  0  0  0  0  0
  -23.6140  -25.5694   22.2994 C   0  0  0  0  0  0  0  0  0  0  0  0
  -24.6299  -22.4399   21.3985 C   0  0  0  0  0  0  0  0  0  0  0  0
  -30.0921  -21.0212   20.6066 C   0  0  0  0  0  0  0  0  0  0  0  0
  -17.6282  -29.0614   23.1852 C   0  0  0  0  0  0  0  0  0  0  0  0
  -24.0137  -28.9221   20.5369 C   0  0  0  0  0  0  0  0  0  0  0  0
  -25.6274  -27.0795   21.9441 C   0  0  0  0  0  0  0  0  0  0  0  0
  -18.6418  -27.9576   23.4756 C   0  0  0  0  0  0  0  0  0  0  0  0
  -29.7890  -19.1473   23.6188 C   0  0  0  0  0  0  0  0  0  0  0  0
  -19.8524  -28.5244   24.2104 C   0  0  0  0  0  0  0  0  0  0  0  0
  -29.3873  -17.7509   23.1382 C   0  0  0  0  0  0  0  0  0  0  0  0
  -29.1491  -20.2449   22.7706 C   0  0  0  0  0  0  0  0  0  0  0  0
  -28.9649  -18.7215   20.8433 C   0  0  0  0  0  0  0  0  0  0  0  0
  -20.5738  -29.5746   23.3571 C   0  0  1  0  0  0  0  0  0  0  0  0
  -23.3078  -27.8400   21.3734 C   0  0  1  0  0  0  0  0  0  0  0  0
  -29.6366  -17.5818   21.6266 C   0  0  2  0  0  0  0  0  0  0  0  0
  -24.3135  -20.0209   21.9863 C   0  0  0  0  0  0  0  0  0  0  0  0
  -25.3774  -25.9406   24.7604 C   0  0  0  0  0  0  0  0  0  0  0  0
  -25.8013  -23.4732   24.7412 C   0  0  0  0  0  0  0  0  0  0  0  0
  -23.4835  -24.3362   25.0660 C   0  0  0  0  0  0  0  0  0  0  0  0
  -23.5786  -21.8033   18.7062 C   0  0  0  0  0  0  0  0  0  0  0  0
  -24.5575  -24.4973   22.7829 C   0  0  1  0  0  0  0  0  0  0  0  0
  -23.8481  -21.1716   21.1077 C   0  0  2  0  0  0  0  0  0  0  0  0
  -24.8109  -24.5777   24.3148 C   0  0  0  0  0  0  0  0  0  0  0  0
  -27.8999  -15.8764   21.2305 N   0  0  0  0  0  0  0  0  0  0  0  0
  -29.1965  -16.2160   21.1336 N   0  0  0  0  0  0  0  0  0  0  0  0
  -24.1856  -26.7879   21.9135 N   0  0  0  0  0  0  0  0  0  0  0  0
  -29.4309  -20.0215   21.3509 N   0  0  0  0  0  0  0  0  0  0  0  0
  -31.3077  -15.4231   20.4090 N   0  0  0  0  0  0  0  0  0  0  0  0
  -29.4780  -24.4215   14.1178 N   0  0  0  0  0  0  0  0  0  0  0  0
  -28.5286  -11.9870   19.4782 N   0  0  0  0  0  0  0  0  0  0  0  0
  -30.3350  -20.6834   19.2756 N   0  0  0  0  0  0  0  0  0  0  0  0
  -21.3791  -28.9331   22.3401 N   0  0  0  0  0  0  0  0  0  0  0  0
  -23.9955  -23.2272   22.3361 N   0  0  0  0  0  0  0  0  0  0  0  0
  -24.0190  -20.7732   19.6819 N   0  3  0  0  0  0  0  0  0  0  0  0
  -31.7343  -24.6517   14.4572 O   0  0  0  0  0  0  0  0  0  0  0  0
  -30.7080  -12.6953   19.3912 O   0  0  0  0  0  0  0  0  0  0  0  0
  -23.2791  -28.5378   23.6270 O   0  0  0  0  0  0  0  0  0  0  0  0
  -22.4022  -25.3375   22.2689 O   0  0  0  0  0  0  0  0  0  0  0  0
  -25.6984  -22.7039   20.8516 O   0  0  0  0  0  0  0  0  0  0  0  0
  -30.4431  -22.0869   21.1196 O   0  0  0  0  0  0  0  0  0  0  0  0
  -23.0413  -11.8391   20.4284 O   0  0  0  0  0  0  0  0  0  0  0  0
  -28.8656  -27.1402   18.2319 O   0  0  0  0  0  0  0  0  0  1  0  0
  -23.0485   -6.5520   21.9940 F   0  0  0  0  0  0  0  0  0  0  0  0
  -30.9837  -21.4214   14.5804 F   0  0  0  0  0  0  0  0  0  0  0  0
  -21.4382  -10.9734   22.5076 F   0  0  0  0  0  0  0  0  0  0  0  0
  1  2  1  0  0  0  0
  1  5  2  0  0  0  0
  2  6  2  0  0  0  0
  3  8  2  0  0  0  0
  3 17  1  0  0  0  0
  4  9  1  0  0  0  0
  4 17  2  0  0  0  0
  5 21  1  0  0  0  0
  6 23  1  0  0  0  0
  7 10  2  0  0  0  0
  7 22  1  0  0  0  0
  8 26  1  0  0  0  0
  9 26  2  0  0  0  0
 10 27  1  0  0  0  0
 11 12  2  0  0  0  0
 11 28  1  0  0  0  0
 12 29  1  0  0  0  0
 13 18  1  0  0  0  0
 13 25  2  0  0  0  0
 14 24  1  0  0  0  0
 14 27  2  0  0  0  0
 15 25  1  0  0  0  0
 15 30  2  0  0  0  0
 16 29  2  0  0  0  0
 16 31  1  0  0  0  0
 17 32  1  0  0  0  0
 18 19  2  0  0  0  0
 18 34  1  0  0  0  0
 19 30  1  0  0  0  0
 19 36  1  0  0  0  0
 20 32  1  0  0  0  0
 20 33  2  0  0  0  0
 20 37  1  0  0  0  0
 21 23  2  0  0  0  0
 21 42  1  0  0  0  0
 22 24  2  0  0  0  0
 22 43  1  0  0  0  0
 23 51  1  0  0  0  0
 24 44  1  0  0  0  0
 25 69  1  0  0  0  0
 26 79  1  0  0  0  0
 27 80  1  0  0  0  0
 28 31  2  0  0  0  0
 28 79  1  0  0  0  0
 29 81  1  0  0  0  0
 30 82  1  0  0  0  0
 31 83  1  0  0  0  0
 32 62  2  0  0  0  0
 33 63  1  0  0  0  0
 33 66  1  0  0  0  0
 34 35  2  0  0  0  0
 35 80  1  0  0  0  0
 36 67  1  0  0  0  0
 36 73  2  0  0  0  0
 37 68  1  0  0  0  0
 37 74  2  0  0  0  0
 38 52  1  0  0  0  0
 38 70  1  0  0  0  0
 38 75  2  0  0  0  0
 39 59  1  0  0  0  0
 39 64  1  0  0  0  0
 39 76  2  0  0  0  0
 40 60  1  0  0  0  0
 40 71  1  0  0  0  0
 40 77  2  0  0  0  0
 41 65  1  0  0  0  0
 41 69  1  0  0  0  0
 41 78  2  0  0  0  0
 42 45  1  0  0  0  0
 43 52  1  0  0  0  0
 44 64  1  0  0  0  0
 45 47  1  0  0  0  0
 46 48  1  0  0  0  0
 46 49  1  0  0  0  0
 47 51  1  0  0  0  0
 48 53  1  0  0  0  0
 49 65  1  0  0  0  0
 50 53  1  0  0  0  0
 50 65  1  0  0  0  0
 51 70  1  0  0  0  0
 52 64  1  0  0  0  0
 53 63  1  0  0  0  0
 54 60  1  0  0  0  0
 55 61  1  0  0  0  0
 56 61  1  0  0  0  0
 57 61  1  0  0  0  0
 58 72  1  0  0  0  0
 59 61  1  0  0  0  0
 59 71  1  0  0  0  0
 60 72  1  0  0  0  0
 62 63  1  0  0  0  0
M  CHG  1  72   1
M  ISO  4  35 101  41 100  69 100  80 101
M  END
> <Batch ID>
0099

> <Smiles>
CNC(C)C(=O)NC(C(=O)N1Cc2cc([101O:1][101CH:1]=Cc3cc([100NH:0][100C:0](=O)N4CCCC(n5nc(-c6ccc(Oc7ccc(F)cc7F)cc6)c(C(N)=O)c5N)C4)cc(F)c3C(N)=O)ccc2CC1C(=O)NC1CCCc2ccccc21)C(C)(C)C

> <Shape>
0.247

> <Color>
0.087

> <Negative vol penalty>
0.000

$$$$

  -OEChem-04052300543D

 84 92  0     1  0  0  0  0  0999 V2000
  -32.5073  -27.1656   16.6945 C   0  0  0  0  0  0  0  0  0  0  0  0
  -31.2518  -26.5850   16.8434 C   0  0  0  0  0  0  0  0  0  0  0  0
  -27.2619  -17.5242   19.2155 C   0  0  0  0  0  0  0  0  0  0  0  0
  -28.2338  -17.0543   21.3769 C   0  0  0  0  0  0  0  0  0  0  0  0
  -33.0446  -27.9356   17.7252 C   0  0  0  0  0  0  0  0  0  0  0  0
  -30.5334  -26.7733   18.0236 C   0  0  0  0  0  0  0  0  0  0  0  0
  -24.4569  -27.2814   18.5933 C   0  0  0  0  0  0  0  0  0  0  0  0
  -20.8405  -17.5105   19.1241 C   0  0  0  0  0  0  0  0  0  0  0  0
  -21.0367  -18.8642   19.3969 C   0  0  0  0  0  0  0  0  0  0  0  0
  -27.9878  -18.7133   19.1476 C   0  0  0  0  0  0  0  0  0  0  0  0
  -28.9598  -18.2434   21.3089 C   0  0  0  0  0  0  0  0  0  0  0  0
  -23.4683  -26.3651   18.9493 C   0  0  0  0  0  0  0  0  0  0  0  0
  -27.7757  -21.8369   20.4213 C   0  0  0  0  0  0  0  0  0  0  0  0
  -27.1029  -22.9828   19.9972 C   0  0  0  0  0  0  0  0  0  0  0  0
  -23.5653  -27.1546   21.2267 C   0  0  0  0  0  0  0  0  0  0  0  0
  -20.0454  -17.1709   21.3801 C   0  0  0  0  0  0  0  0  0  0  0  0
  -28.6369  -23.1973   18.1431 C   0  0  0  0  0  0  0  0  0  0  0  0
  -27.3848  -16.6947   20.3302 C   0  0  0  0  0  0  0  0  0  0  0  0
  -27.0370  -14.1971   19.9445 C   0  0  0  0  0  0  0  0  0  0  0  0
  -32.3283  -28.1414   18.9148 C   0  0  0  0  0  0  0  0  0  0  0  0
  -25.0159  -28.1352   19.5551 C   0  0  0  0  0  0  0  0  0  0  0  0
  -31.0622  -27.5457   19.0717 C   0  0  0  0  0  0  0  0  0  0  0  0
  -24.5590  -28.0826   20.8798 C   0  0  0  0  0  0  0  0  0  0  0  0
  -20.3448  -16.6638   20.1157 C   0  0  0  0  0  0  0  0  0  0  0  0
  -20.7373  -19.3714   20.6614 C   0  0  0  0  0  0  0  0  0  0  0  0
  -28.8368  -19.0729   20.1942 C   0  0  0  0  0  0  0  0  0  0  0  0
  -23.0244  -26.2996   20.2668 C   0  0  0  0  0  0  0  0  0  0  0  0
  -28.8792  -21.3712   19.7063 C   0  0  0  0  0  0  0  0  0  0  0  0
  -27.5334  -23.6630   18.8581 C   0  0  0  0  0  0  0  0  0  0  0  0
  -20.2416  -18.5247   21.6530 C   0  0  0  0  0  0  0  0  0  0  0  0
  -29.3097  -22.0514   18.5672 C   0  0  0  0  0  0  0  0  0  0  0  0
  -26.6347  -15.4665   20.4012 C   0  0  0  0  0  0  0  0  0  0  0  0
  -25.9787  -13.3738   20.2424 C   0  0  0  0  0  0  0  0  0  0  0  0
  -28.2582  -13.7978   19.3081 C   0  0  0  0  0  0  0  0  0  0  0  0
  -27.9312  -28.5710   20.7445 C   0  0  0  0  0  0  0  0  0  0  0  0
  -26.5157  -31.0636   22.2629 C   0  0  0  0  0  0  0  0  0  0  0  0
  -21.4212  -21.7219   20.0687 C   0  0  0  0  0  0  0  0  0  0  0  0
  -23.6501  -32.4747   23.4646 C   0  0  0  0  0  0  0  0  0  0  0  0
  -20.2589  -14.2873   20.8477 C   0  0  0  0  0  0  0  0  0  0  0  0
  -32.9704  -28.9425   20.0196 C   0  0  0  0  0  0  0  0  0  0  0  0
  -26.0624  -29.1364   19.1495 C   0  0  0  0  0  0  0  0  0  0  0  0
  -25.1123  -28.9911   21.9461 C   0  0  0  0  0  0  0  0  0  0  0  0
  -31.9846  -29.4029   21.0903 C   0  0  0  0  0  0  0  0  0  0  0  0
  -22.3708  -12.8691   23.3320 C   0  0  0  0  0  0  0  0  0  0  0  0
  -31.0766  -28.2515   21.5104 C   0  0  0  0  0  0  0  0  0  0  0  0
  -23.7540  -13.2650   22.8164 C   0  0  0  0  0  0  0  0  0  0  0  0
  -21.3444  -13.9846   23.1317 C   0  0  0  0  0  0  0  0  0  0  0  0
  -22.6423  -14.8755   21.2222 C   0  0  0  0  0  0  0  0  0  0  0  0
  -30.2416  -27.7473   20.3271 C   0  0  1  0  0  0  0  0  0  0  0  0
  -26.9268  -29.6034   20.3166 C   0  0  1  0  0  0  0  0  0  0  0  0
  -23.6813  -13.7515   21.3583 C   0  0  1  0  0  0  0  0  0  0  0  0
  -22.8148  -34.4989   24.6903 C   0  0  0  0  0  0  0  0  0  0  0  0
  -27.6032  -29.9264   24.8772 C   0  0  0  0  0  0  0  0  0  0  0  0
  -25.9883  -31.3930   26.1059 C   0  0  0  0  0  0  0  0  0  0  0  0
  -27.7595  -32.4144   24.6768 C   0  0  0  0  0  0  0  0  0  0  0  0
  -19.5754  -14.8846   18.5344 C   0  0  0  0  0  0  0  0  0  0  0  0
  -21.9277  -33.2804   21.1968 C   0  0  0  0  0  0  0  0  0  0  0  0
  -21.4804  -23.0746   20.7692 C   0  0  0  0  0  0  0  0  0  0  0  0
  -22.0017  -24.1887   19.8742 C   0  0  0  0  0  0  0  0  0  1  0  0
  -25.8028  -31.2472   23.5809 C   0  0  1  0  0  0  0  0  0  0  0  0
  -23.0840  -33.8767   23.3290 C   0  0  2  0  0  0  0  0  0  0  0  0
  -26.7792  -31.2267   24.7907 C   0  0  0  0  0  0  0  0  0  0  0  0
  -25.4159  -15.4556   20.9475 N   0  0  0  0  0  0  0  0  0  0  0  0
  -25.0432  -14.1692   20.8359 N   0  0  0  0  0  0  0  0  0  0  0  0
  -26.1383  -29.9487   21.5012 N   0  0  0  0  0  0  0  0  0  0  0  0
  -21.3399  -14.4440   21.7356 N   0  0  0  0  0  0  0  0  0  0  0  0
  -25.7664  -12.0543   20.0517 N   0  0  0  0  0  0  0  0  0  0  0  0
  -29.2403  -14.7706   19.0771 N   0  0  0  0  0  0  0  0  0  0  0  0
  -20.9378  -20.7452   20.9354 N   0  0  0  0  0  0  0  0  0  0  0  0
  -29.1353  -28.6444   20.0706 N   0  0  0  0  0  0  0  0  0  0  0  0
  -25.0289  -32.4779   23.4585 N   0  0  0  0  0  0  0  0  0  0  0  0
  -20.1423  -15.2621   19.8336 N   0  0  0  0  0  0  0  0  0  0  0  0
  -21.8050  -33.8471   22.5645 N   0  3  0  0  0  0  0  0  0  0  0  0
  -28.4653  -12.6167   18.9399 O   0  0  0  0  0  0  0  0  0  0  0  0
  -27.6361  -27.7684   21.6222 O   0  0  0  0  0  0  0  0  0  0  0  0
  -27.3708  -31.8834   21.9186 O   0  0  0  0  0  0  0  0  0  0  0  0
  -21.7661  -21.5759   18.9008 O   0  0  0  0  0  0  0  0  0  0  0  0
  -22.9402  -31.4769   23.5695 O   0  0  0  0  0  0  0  0  0  0  0  0
  -19.4739  -13.3356   20.9376 O   0  0  0  0  0  0  0  0  0  0  0  0
  -29.5456  -20.2330   20.1282 O   0  0  0  0  0  0  0  0  0  0  0  0
  -22.0601  -25.4056   20.6171 O   0  0  0  0  0  0  0  0  0  1  0  0
  -26.8863  -24.7625   18.4501 F   0  0  0  0  0  0  0  0  0  0  0  0
  -19.9518  -19.0008   22.8724 F   0  0  0  0  0  0  0  0  0  0  0  0
  -30.3685  -21.6081   17.8755 F   0  0  0  0  0  0  0  0  0  0  0  0
  1  2  1  0  0  0  0
  1  5  2  0  0  0  0
  2  6  2  0  0  0  0
  3 10  2  0  0  0  0
  3 18  1  0  0  0  0
  4 11  1  0  0  0  0
  4 18  2  0  0  0  0
  5 20  1  0  0  0  0
  6 22  1  0  0  0  0
  7 12  2  0  0  0  0
  7 21  1  0  0  0  0
  8  9  2  0  0  0  0
  8 24  1  0  0  0  0
  9 25  1  0  0  0  0
 10 26  1  0  0  0  0
 11 26  2  0  0  0  0
 12 27  1  0  0  0  0
 13 14  2  0  0  0  0
 13 28  1  0  0  0  0
 14 29  1  0  0  0  0
 15 23  1  0  0  0  0
 15 27  2  0  0  0  0
 16 24  2  0  0  0  0
 16 30  1  0  0  0  0
 17 29  2  0  0  0  0
 17 31  1  0  0  0  0
 18 32  1  0  0  0  0
 19 32  1  0  0  0  0
 19 33  2  0  0  0  0
 19 34  1  0  0  0  0
 20 22  2  0  0  0  0
 20 40  1  0  0  0  0
 21 23  2  0  0  0  0
 21 41  1  0  0  0  0
 22 49  1  0  0  0  0
 23 42  1  0  0  0  0
 24 72  1  0  0  0  0
 25 30  2  0  0  0  0
 25 69  1  0  0  0  0
 26 80  1  0  0  0  0
 27 81  1  0  0  0  0
 28 31  2  0  0  0  0
 28 80  1  0  0  0  0
 29 82  1  0  0  0  0
 30 83  1  0  0  0  0
 31 84  1  0  0  0  0
 32 63  2  0  0  0  0
 33 64  1  0  0  0  0
 33 67  1  0  0  0  0
 34 68  1  0  0  0  0
 34 74  2  0  0  0  0
 35 50  1  0  0  0  0
 35 70  1  0  0  0  0
 35 75  2  0  0  0  0
 36 60  1  0  0  0  0
 36 65  1  0  0  0  0
 36 76  2  0  0  0  0
 37 58  1  0  0  0  0
 37 69  1  0  0  0  0
 37 77  2  0  0  0  0
 38 61  1  0  0  0  0
 38 71  1  0  0  0  0
 38 78  2  0  0  0  0
 39 66  1  0  0  0  0
 39 72  1  0  0  0  0
 39 79  2  0  0  0  0
 40 43  1  0  0  0  0
 41 50  1  0  0  0  0
 42 65  1  0  0  0  0
 43 45  1  0  0  0  0
 44 46  1  0  0  0  0
 44 47  1  0  0  0  0
 45 49  1  0  0  0  0
 46 51  1  0  0  0  0
 47 66  1  0  0  0  0
 48 51  1  0  0  0  0
 48 66  1  0  0  0  0
 49 70  1  0  0  0  0
 50 65  1  0  0  0  0
 51 64  1  0  0  0  0
 52 61  1  0  0  0  0
 53 62  1  0  0  0  0
 54 62  1  0  0  0  0
 55 62  1  0  0  0  0
 56 72  1  0  0  0  0
 57 73  1  0  0  0  0
 58 59  1  0  0  0  0
 59 81  1  0  0  0  0
 60 62  1  0  0  0  0
 60 71  1  0  0  0  0
 61 73  1  0  0  0  0
 63 64  1  0  0  0  0
M  CHG  1  73   1
M  ISO  4  39 100  59 101  72 100  81 101
M  END
> <Batch ID>
0099

> <Smiles>
CNC(C)C(=O)NC(C(=O)N1Cc2cc([101O:1][101CH2:1]CC(=O)Nc3ccc([100N:0](C)[100C:0](=O)N4CCCC(n5nc(-c6ccc(Oc7ccc(F)cc7F)cc6)c(C(N)=O)c5N)C4)cc3F)ccc2CC1C(=O)NC1CCCc2ccccc21)C(C)(C)C

> <Shape>
0.252

> <Color>
0.079

> <Negative vol penalty>
0.000

$$$$

  -OEChem-04052300543D

 85 93  0     1  0  0  0  0  0999 V2000
  -23.1059  -23.5735   26.0265 C   0  0  0  0  0  0  0  0  0  0  0  0
  -24.3139  -23.9320   25.4369 C   0  0  0  0  0  0  0  0  0  0  0  0
  -26.5933  -13.8205   20.8526 C   0  0  0  0  0  0  0  0  0  0  0  0
  -25.4644  -15.2734   19.2867 C   0  0  0  0  0  0  0  0  0  0  0  0
  -21.9378  -24.2566   25.6906 C   0  0  0  0  0  0  0  0  0  0  0  0
  -24.3543  -24.9732   24.5102 C   0  0  0  0  0  0  0  0  0  0  0  0
  -28.9000  -28.9935   23.6857 C   0  0  0  0  0  0  0  0  0  0  0  0
  -25.6532  -12.8208   20.6028 C   0  0  0  0  0  0  0  0  0  0  0  0
  -24.5243  -14.2736   19.0369 C   0  0  0  0  0  0  0  0  0  0  0  0
  -29.9442  -29.0526   22.7638 C   0  0  0  0  0  0  0  0  0  0  0  0
  -25.0479  -10.5131   18.2067 C   0  0  0  0  0  0  0  0  0  0  0  0
  -25.5189   -9.2153   18.0081 C   0  0  0  0  0  0  0  0  0  0  0  0
  -31.0113  -25.0599   19.0128 C   0  0  0  0  0  0  0  0  0  0  0  0
  -28.6312  -30.5293   21.3802 C   0  0  0  0  0  0  0  0  0  0  0  0
  -24.2314   -8.4575   19.9068 C   0  0  0  0  0  0  0  0  0  0  0  0
  -26.4989  -15.0468   20.1946 C   0  0  0  0  0  0  0  0  0  0  0  0
  -30.7737  -23.8822   19.7215 C   0  0  0  0  0  0  0  0  0  0  0  0
  -28.6844  -16.2936   19.7744 C   0  0  0  0  0  0  0  0  0  0  0  0
  -21.9655  -25.3130   24.7666 C   0  0  0  0  0  0  0  0  0  0  0  0
  -27.7073  -29.6944   23.4560 C   0  0  0  0  0  0  0  0  0  0  0  0
  -23.1852  -25.6702   24.1607 C   0  0  0  0  0  0  0  0  0  0  0  0
  -27.5743  -30.4796   22.3019 C   0  0  0  0  0  0  0  0  0  0  0  0
  -29.6742  -23.7917   20.5750 C   0  0  0  0  0  0  0  0  0  0  0  0
  -29.0499  -26.0565   20.0112 C   0  0  0  0  0  0  0  0  0  0  0  0
  -24.6187  -13.0473   19.6949 C   0  0  0  0  0  0  0  0  0  0  0  0
  -29.8088  -29.8183   21.6095 C   0  0  0  0  0  0  0  0  0  0  0  0
  -24.1687  -10.7831   19.2554 C   0  0  0  0  0  0  0  0  0  0  0  0
  -30.1494  -26.1471   19.1577 C   0  0  0  0  0  0  0  0  0  0  0  0
  -25.1107   -8.1875   18.8581 C   0  0  0  0  0  0  0  0  0  0  0  0
  -23.7604   -9.7553   20.1054 C   0  0  0  0  0  0  0  0  0  0  0  0
  -28.8122  -24.8788   20.7198 C   0  0  0  0  0  0  0  0  0  0  0  0
  -27.4694  -16.0801   20.4526 C   0  0  0  0  0  0  0  0  0  0  0  0
  -29.2349  -17.3894   20.3930 C   0  0  0  0  0  0  0  0  0  0  0  0
  -31.9475  -22.2034   18.3728 C   0  0  0  0  0  0  0  0  0  0  0  0
  -31.6968  -22.7675   19.5441 C   0  0  0  0  0  0  0  0  0  0  0  0
  -29.2636  -15.5665   18.6829 C   0  0  0  0  0  0  0  0  0  0  0  0
  -24.6633  -28.8712   23.0555 C   0  0  0  0  0  0  0  0  0  0  0  0
  -24.1946  -32.0806   23.1034 C   0  0  0  0  0  0  0  0  0  0  0  0
  -25.4850  -35.2044   22.6307 C   0  0  0  0  0  0  0  0  0  0  0  0
  -28.7852  -22.5034   22.5490 C   0  0  0  0  0  0  0  0  0  0  0  0
  -20.6691  -25.9908   24.3997 C   0  0  0  0  0  0  0  0  0  0  0  0
  -26.6005  -29.6417   24.4732 C   0  0  0  0  0  0  0  0  0  0  0  0
  -26.3221  -31.2670   22.0185 C   0  0  0  0  0  0  0  0  0  0  0  0
  -20.8608  -27.3284   23.6894 C   0  0  0  0  0  0  0  0  0  0  0  0
  -27.9166  -19.7713   24.6604 C   0  0  0  0  0  0  0  0  0  0  0  0
  -21.9098  -27.2030   22.5892 C   0  0  0  0  0  0  0  0  0  0  0  0
  -27.8228  -18.5850   23.6981 C   0  0  0  0  0  0  0  0  0  0  0  0
  -27.4003  -21.0604   24.0236 C   0  0  0  0  0  0  0  0  0  0  0  0
  -27.9127  -20.2135   21.7676 C   0  0  0  0  0  0  0  0  0  0  0  0
  -23.2738  -26.8104   23.1696 C   0  0  1  0  0  0  0  0  0  0  0  0
  -25.2341  -29.9845   23.8877 C   0  0  1  0  0  0  0  0  0  0  0  0
  -28.4815  -18.9058   22.3421 C   0  0  2  0  0  0  0  0  0  0  0  0
  -24.8497  -37.6309   22.7095 C   0  0  0  0  0  0  0  0  0  0  0  0
  -22.7255  -31.7798   20.4461 C   0  0  0  0  0  0  0  0  0  0  0  0
  -22.9569  -34.2510   20.1181 C   0  0  0  0  0  0  0  0  0  0  0  0
  -21.6565  -33.3681   22.0551 C   0  0  0  0  0  0  0  0  0  0  0  0
  -27.4723  -35.7756   24.7482 C   0  0  0  0  0  0  0  0  0  0  0  0
  -31.5128  -29.4310   18.4380 C   0  0  0  0  0  0  0  0  0  0  0  0
  -30.4712  -30.0746   19.3398 C   0  0  0  0  0  0  0  0  0  1  0  0
  -31.6442  -27.9382   18.6959 C   0  0  0  0  0  0  0  0  0  0  0  0
  -24.1773  -33.1742   22.0629 C   0  0  1  0  0  0  0  0  0  0  0  0
  -25.4281  -36.4578   23.4854 C   0  0  2  0  0  0  0  0  0  0  0  0
  -22.9020  -33.1270   21.1746 C   0  0  0  0  0  0  0  0  0  0  0  0
  -27.2598  -16.9688   21.4274 N   0  0  0  0  0  0  0  0  0  0  0  0
  -28.3507  -17.7513   21.3664 N   0  0  0  0  0  0  0  0  0  0  0  0
  -25.2657  -31.1782   23.0401 N   0  0  0  0  0  0  0  0  0  0  0  0
  -28.0722  -21.3018   22.7449 N   0  0  0  0  0  0  0  0  0  0  0  0
  -28.1710  -27.1509   20.1652 N   0  0  0  0  0  0  0  0  0  0  0  0
  -30.3842  -18.0691   20.1939 N   0  0  0  0  0  0  0  0  0  0  0  0
  -28.5648  -14.4665   18.1672 N   0  0  0  0  0  0  0  0  0  0  0  0
  -29.4098  -22.6073   21.3065 N   0  0  0  0  0  0  0  0  0  0  0  0
  -23.9152  -27.9583   23.7741 N   0  0  0  0  0  0  0  0  0  0  0  0
  -24.3557  -34.4286   22.7860 N   0  0  0  0  0  0  0  0  0  0  0  0
  -26.7940  -36.8298   23.9509 N   0  3  0  0  0  0  0  0  0  0  0  0
  -30.3759  -15.8729   18.1905 O   0  0  0  0  0  0  0  0  0  0  0  0
  -24.8840  -28.8435   21.8504 O   0  0  0  0  0  0  0  0  0  0  0  0
  -23.2948  -32.0333   23.9459 O   0  0  0  0  0  0  0  0  0  0  0  0
  -26.4345  -34.9419   21.8959 O   0  0  0  0  0  0  0  0  0  0  0  0
  -28.8606  -23.3642   23.4295 O   0  0  0  0  0  0  0  0  0  0  0  0
  -23.7013  -12.0720   19.4508 O   0  0  0  0  0  0  0  0  0  0  0  0
  -30.8263  -29.8771   20.7077 O   0  0  0  0  0  0  0  0  0  1  0  0
  -30.4003  -27.2953   18.4526 O   0  0  0  0  0  0  0  0  0  0  0  0
  -25.5619   -6.9410   18.6664 F   0  0  0  0  0  0  0  0  0  0  0  0
  -22.9149  -10.0084   21.1139 F   0  0  0  0  0  0  0  0  0  0  0  0
  -27.7539  -24.7928   21.5407 F   0  0  0  0  0  0  0  0  0  0  0  0
  1  2  1  0  0  0  0
  1  5  2  0  0  0  0
  2  6  2  0  0  0  0
  3  8  2  0  0  0  0
  3 16  1  0  0  0  0
  4  9  1  0  0  0  0
  4 16  2  0  0  0  0
  5 19  1  0  0  0  0
  6 21  1  0  0  0  0
  7 10  2  0  0  0  0
  7 20  1  0  0  0  0
  8 25  1  0  0  0  0
  9 25  2  0  0  0  0
 10 26  1  0  0  0  0
 11 12  2  0  0  0  0
 11 27  1  0  0  0  0
 12 29  1  0  0  0  0
 13 17  1  0  0  0  0
 13 28  2  0  0  0  0
 14 22  1  0  0  0  0
 14 26  2  0  0  0  0
 15 29  2  0  0  0  0
 15 30  1  0  0  0  0
 16 32  1  0  0  0  0
 17 23  2  0  0  0  0
 17 35  1  0  0  0  0
 18 32  1  0  0  0  0
 18 33  2  0  0  0  0
 18 36  1  0  0  0  0
 19 21  2  0  0  0  0
 19 41  1  0  0  0  0
 20 22  2  0  0  0  0
 20 42  1  0  0  0  0
 21 50  1  0  0  0  0
 22 43  1  0  0  0  0
 23 31  1  0  0  0  0
 23 71  1  0  0  0  0
 24 28  1  0  0  0  0
 24 31  2  0  0  0  0
 24 68  1  0  0  0  0
 25 80  1  0  0  0  0
 26 81  1  0  0  0  0
 27 30  2  0  0  0  0
 27 80  1  0  0  0  0
 28 82  1  0  0  0  0
 29 83  1  0  0  0  0
 30 84  1  0  0  0  0
 31 85  1  0  0  0  0
 32 64  2  0  0  0  0
 33 65  1  0  0  0  0
 33 69  1  0  0  0  0
 34 35  2  0  0  0  0
 36 70  1  0  0  0  0
 36 75  2  0  0  0  0
 37 51  1  0  0  0  0
 37 72  1  0  0  0  0
 37 76  2  0  0  0  0
 38 61  1  0  0  0  0
 38 66  1  0  0  0  0
 38 77  2  0  0  0  0
 39 62  1  0  0  0  0
 39 73  1  0  0  0  0
 39 78  2  0  0  0  0
 40 67  1  0  0  0  0
 40 71  1  0  0  0  0
 40 79  2  0  0  0  0
 41 44  1  0  0  0  0
 42 51  1  0  0  0  0
 43 66  1  0  0  0  0
 44 46  1  0  0  0  0
 45 47  1  0  0  0  0
 45 48  1  0  0  0  0
 46 50  1  0  0  0  0
 47 52  1  0  0  0  0
 48 67  1  0  0  0  0
 49 52  1  0  0  0  0
 49 67  1  0  0  0  0
 50 72  1  0  0  0  0
 51 66  1  0  0  0  0
 52 65  1  0  0  0  0
 53 62  1  0  0  0  0
 54 63  1  0  0  0  0
 55 63  1  0  0  0  0
 56 63  1  0  0  0  0
 57 74  1  0  0  0  0
 58 59  1  0  0  0  0
 58 60  1  0  0  0  0
 59 81  1  0  0  0  0
 60 82  1  0  0  0  0
 61 63  1  0  0  0  0
 61 73  1  0  0  0  0
 62 74  1  0  0  0  0
 64 65  1  0  0  0  0
M  CHG  1  74   1
M  ISO  4  40 100  59 101  71 100  81 101
M  END
> <Batch ID>
0099

> <Smiles>
C=Cc1cc(OCC[101CH2:1][101O:1]c2ccc3c(c2)CN(C(=O)C(NC(=O)C(C)NC)C(C)(C)C)C(C(=O)NC2CCCc4ccccc42)C3)c(N)c(F)c1[100NH:0][100C:0](=O)N1CCCC(n2nc(-c3ccc(Oc4ccc(F)cc4F)cc3)c(C(N)=O)c2N)C1

> <Shape>
0.231

> <Color>
0.089

> <Negative vol penalty>
0.000

$$$$

  -OEChem-04052300543D

 86 94  0     1  0  0  0  0  0999 V2000
  -29.5972  -15.8824   25.9232 C   0  0  0  0  0  0  0  0  0  0  0  0
  -29.9225  -17.1882   25.5701 C   0  0  0  0  0  0  0  0  0  0  0  0
  -22.5433  -21.1135   22.0061 C   0  0  0  0  0  0  0  0  0  0  0  0
  -20.9283  -21.3582   23.7863 C   0  0  0  0  0  0  0  0  0  0  0  0
  -29.3482  -14.9347   24.9314 C   0  0  0  0  0  0  0  0  0  0  0  0
  -30.0000  -17.5467   24.2248 C   0  0  0  0  0  0  0  0  0  0  0  0
  -28.4753  -22.9411   21.7587 C   0  0  0  0  0  0  0  0  0  0  0  0
  -23.1448  -20.0613   22.6965 C   0  0  0  0  0  0  0  0  0  0  0  0
  -21.5298  -20.3060   24.4766 C   0  0  0  0  0  0  0  0  0  0  0  0
  -29.2338  -24.0499   21.3859 C   0  0  0  0  0  0  0  0  0  0  0  0
  -22.5608  -16.7733   23.2267 C   0  0  0  0  0  0  0  0  0  0  0  0
  -22.8930  -15.6286   22.5022 C   0  0  0  0  0  0  0  0  0  0  0  0
  -29.2971  -23.2357   19.1160 C   0  0  0  0  0  0  0  0  0  0  0  0
  -25.7763  -28.0151   18.9087 C   0  0  0  0  0  0  0  0  0  0  0  0
  -27.1349  -29.2080   20.5112 C   0  0  0  0  0  0  0  0  0  0  0  0
  -25.2157  -15.9266   23.0964 C   0  0  0  0  0  0  0  0  0  0  0  0
  -21.4350  -21.7621   22.5510 C   0  0  0  0  0  0  0  0  0  0  0  0
  -24.7285  -29.4128   20.5776 C   0  0  0  0  0  0  0  0  0  0  0  0
  -20.2330  -22.8044   20.5570 C   0  0  0  0  0  0  0  0  0  0  0  0
  -29.4132  -15.2842   23.5733 C   0  0  0  0  0  0  0  0  0  0  0  0
  -28.1307  -21.9641   20.8137 C   0  0  0  0  0  0  0  0  0  0  0  0
  -29.7529  -16.6024   23.2138 C   0  0  0  0  0  0  0  0  0  0  0  0
  -28.5320  -22.1168   19.4789 C   0  0  0  0  0  0  0  0  0  0  0  0
  -24.6249  -28.5492   19.4872 C   0  0  0  0  0  0  0  0  0  0  0  0
  -27.0313  -28.3444   19.4208 C   0  0  0  0  0  0  0  0  0  0  0  0
  -22.6380  -19.6575   23.9317 C   0  0  0  0  0  0  0  0  0  0  0  0
  -29.6473  -24.1959   20.0649 C   0  0  0  0  0  0  0  0  0  0  0  0
  -23.5561  -17.4948   23.8860 C   0  0  0  0  0  0  0  0  0  0  0  0
  -24.2204  -15.2052   22.4371 C   0  0  0  0  0  0  0  0  0  0  0  0
  -25.9835  -29.7422   21.0897 C   0  0  0  0  0  0  0  0  0  0  0  0
  -24.8835  -17.0714   23.8209 C   0  0  0  0  0  0  0  0  0  0  0  0
  -20.8136  -22.8495   21.8387 C   0  0  0  0  0  0  0  0  0  0  0  0
  -19.7872  -24.0848   20.3368 C   0  0  0  0  0  0  0  0  0  0  0  0
  -23.5163  -29.9931   21.2105 C   0  0  0  0  0  0  0  0  0  0  0  0
  -20.1079  -21.7037   19.6468 C   0  0  0  0  0  0  0  0  0  0  0  0
  -28.7314  -18.8613   20.4739 C   0  0  0  0  0  0  0  0  0  0  0  0
  -26.6629  -19.1306   17.9898 C   0  0  0  0  0  0  0  0  0  0  0  0
  -29.5209  -28.0229   19.2149 C   0  0  0  0  0  0  0  0  0  0  0  0
  -25.1826  -21.1332   15.6563 C   0  0  0  0  0  0  0  0  0  0  0  0
  -21.4310  -29.4084   22.4077 C   0  0  0  0  0  0  0  0  0  0  0  0
  -29.1822  -14.2137   22.5364 C   0  0  0  0  0  0  0  0  0  0  0  0
  -27.2894  -20.7875   21.2264 C   0  0  0  0  0  0  0  0  0  0  0  0
  -28.1710  -21.1065   18.4218 C   0  0  0  0  0  0  0  0  0  0  0  0
  -28.9178  -14.7667   21.1384 C   0  0  0  0  0  0  0  0  0  0  0  0
  -18.2179  -27.9600   22.6816 C   0  0  0  0  0  0  0  0  0  0  0  0
  -29.9305  -15.8544   20.7942 C   0  0  0  0  0  0  0  0  0  0  0  0
  -18.4599  -26.4818   22.3645 C   0  0  0  0  0  0  0  0  0  0  0  0
  -19.3667  -28.5627   23.4890 C   0  0  0  0  0  0  0  0  0  0  0  0
  -20.9417  -26.8941   22.5984 C   0  0  0  0  0  0  0  0  0  0  0  0
  -29.8225  -17.0360   21.7656 C   0  0  1  0  0  0  0  0  0  0  0  0
  -27.4320  -19.5928   20.2885 C   0  0  1  0  0  0  0  0  0  0  0  0
  -19.8460  -26.2597   21.7266 C   0  0  1  0  0  0  0  0  0  0  0  0
  -23.2936  -28.1798   18.9185 C   0  0  0  0  0  0  0  0  0  0  0  0
  -23.5650  -21.0606   13.7392 C   0  0  0  0  0  0  0  0  0  0  0  0
  -28.8133  -17.8760   16.2259 C   0  0  0  0  0  0  0  0  0  0  0  0
  -27.5486  -18.6906   14.2246 C   0  0  0  0  0  0  0  0  0  0  0  0
  -26.4925  -17.0554   15.7846 C   0  0  0  0  0  0  0  0  0  0  0  0
  -23.3229  -23.0001   17.0035 C   0  0  0  0  0  0  0  0  0  0  0  0
  -30.4725  -27.2439   18.3140 C   0  0  0  0  0  0  0  0  0  0  0  0
  -30.2404  -25.7411   18.3572 C   0  0  0  0  0  0  0  0  0  1  0  0
  -26.7923  -19.4553   16.5212 C   0  0  1  0  0  0  0  0  0  0  0  0
  -23.7325  -21.2857   15.2338 C   0  0  2  0  0  0  0  0  0  0  0  0
  -27.4203  -18.2876   15.7091 C   0  0  0  0  0  0  0  0  0  0  0  0
  -20.7445  -24.0624   22.3937 N   0  0  0  0  0  0  0  0  0  0  0  0
  -20.1154  -24.7914   21.4563 N   0  0  0  0  0  0  0  0  0  0  0  0
  -27.3524  -19.9703   18.8760 N   0  0  0  0  0  0  0  0  0  0  0  0
  -20.6421  -28.3178   22.8133 N   0  0  0  0  0  0  0  0  0  0  0  0
  -19.1505  -24.6638   19.2968 N   0  0  0  0  0  0  0  0  0  0  0  0
  -18.9631  -20.8989   19.7251 N   0  0  0  0  0  0  0  0  0  0  0  0
  -28.1998  -27.8027   18.8344 N   0  0  0  0  0  0  0  0  0  0  0  0
  -22.6095  -29.0706   21.7331 N   0  0  0  0  0  0  0  0  0  0  0  0
  -28.6843  -17.8642   21.4295 N   0  0  0  0  0  0  0  0  0  0  0  0
  -25.4613  -19.8481   16.0711 N   0  0  0  0  0  0  0  0  0  0  0  0
  -23.2386  -22.6531   15.5615 N   0  3  0  0  0  0  0  0  0  0  0  0
  -23.4006  -31.2140   21.2731 O   0  0  0  0  0  0  0  0  0  0  0  0
  -20.9928  -21.4317   18.8005 O   0  0  0  0  0  0  0  0  0  0  0  0
  -29.7042  -19.1771   19.7989 O   0  0  0  0  0  0  0  0  0  0  0  0
  -25.9695  -18.1717   18.3383 O   0  0  0  0  0  0  0  0  0  0  0  0
  -29.9231  -28.7305   20.1324 O   0  0  0  0  0  0  0  0  0  0  0  0
  -25.9885  -22.0604   15.6183 O   0  0  0  0  0  0  0  0  0  0  0  0
  -21.0967  -30.5824   22.5958 O   0  0  0  0  0  0  0  0  0  0  0  0
  -23.2246  -18.6306   24.6055 O   0  0  0  0  0  0  0  0  0  0  0  0
  -30.3883  -25.2769   19.6984 O   0  0  0  0  0  0  0  0  0  1  0  0
  -24.5390  -14.1051   21.7426 F   0  0  0  0  0  0  0  0  0  0  0  0
  -26.0963  -30.5709   22.1376 F   0  0  0  0  0  0  0  0  0  0  0  0
  -25.8439  -17.7596   24.4531 F   0  0  0  0  0  0  0  0  0  0  0  0
  1  2  1  0  0  0  0
  1  5  2  0  0  0  0
  2  6  2  0  0  0  0
  3  8  2  0  0  0  0
  3 17  1  0  0  0  0
  4  9  1  0  0  0  0
  4 17  2  0  0  0  0
  5 20  1  0  0  0  0
  6 22  1  0  0  0  0
  7 10  2  0  0  0  0
  7 21  1  0  0  0  0
  8 26  1  0  0  0  0
  9 26  2  0  0  0  0
 10 27  1  0  0  0  0
 11 12  2  0  0  0  0
 11 28  1  0  0  0  0
 12 29  1  0  0  0  0
 13 23  1  0  0  0  0
 13 27  2  0  0  0  0
 14 24  2  0  0  0  0
 14 25  1  0  0  0  0
 15 25  2  0  0  0  0
 15 30  1  0  0  0  0
 16 29  2  0  0  0  0
 16 31  1  0  0  0  0
 17 32  1  0  0  0  0
 18 24  1  0  0  0  0
 18 30  2  0  0  0  0
 18 34  1  0  0  0  0
 19 32  1  0  0  0  0
 19 33  2  0  0  0  0
 19 35  1  0  0  0  0
 20 22  2  0  0  0  0
 20 41  1  0  0  0  0
 21 23  2  0  0  0  0
 21 42  1  0  0  0  0
 22 50  1  0  0  0  0
 23 43  1  0  0  0  0
 24 53  1  0  0  0  0
 25 70  1  0  0  0  0
 26 82  1  0  0  0  0
 27 83  1  0  0  0  0
 28 31  2  0  0  0  0
 28 82  1  0  0  0  0
 29 84  1  0  0  0  0
 30 85  1  0  0  0  0
 31 86  1  0  0  0  0
 32 64  2  0  0  0  0
 33 65  1  0  0  0  0
 33 68  1  0  0  0  0
 34 71  1  0  0  0  0
 34 75  2  0  0  0  0
 35 69  1  0  0  0  0
 35 76  2  0  0  0  0
 36 51  1  0  0  0  0
 36 72  1  0  0  0  0
 36 77  2  0  0  0  0
 37 61  1  0  0  0  0
 37 66  1  0  0  0  0
 37 78  2  0  0  0  0
 38 59  1  0  0  0  0
 38 70  1  0  0  0  0
 38 79  2  0  0  0  0
 39 62  1  0  0  0  0
 39 73  1  0  0  0  0
 39 80  2  0  0  0  0
 40 67  1  0  0  0  0
 40 71  1  0  0  0  0
 40 81  2  0  0  0  0
 41 44  1  0  0  0  0
 42 51  1  0  0  0  0
 43 66  1  0  0  0  0
 44 46  1  0  0  0  0
 45 47  1  0  0  0  0
 45 48  1  0  0  0  0
 46 50  1  0  0  0  0
 47 52  1  0  0  0  0
 48 67  1  0  0  0  0
 49 52  1  0  0  0  0
 49 67  1  0  0  0  0
 50 72  1  0  0  0  0
 51 66  1  0  0  0  0
 52 65  1  0  0  0  0
 54 62  1  0  0  0  0
 55 63  1  0  0  0  0
 56 63  1  0  0  0  0
 57 63  1  0  0  0  0
 58 74  1  0  0  0  0
 59 60  1  0  0  0  0
 60 83  1  0  0  0  0
 61 63  1  0  0  0  0
 61 73  1  0  0  0  0
 62 74  1  0  0  0  0
 64 65  1  0  0  0  0
M  CHG  1  74   1
M  ISO  4  40 100  60 101  71 100  83 101
M  END
> <Batch ID>
0099

> <Smiles>
CNC(C)C(=O)NC(C(=O)N1Cc2cc([101O:1][101CH2:1]CC(=O)Nc3cc(C)c(C(=O)[100NH:0][100C:0](=O)N4CCCC(n5nc(-c6ccc(Oc7ccc(F)cc7F)cc6)c(C(N)=O)c5N)C4)c(F)c3)ccc2CC1C(=O)NC1CCCc2ccccc21)C(C)(C)C

> <Shape>
0.222

> <Color>
0.051

> <Negative vol penalty>
0.000

$$$$

  -OEChem-04052300543D

 89 98  0     1  0  0  0  0  0999 V2000
  -16.6160  -29.3301   24.0616 C   0  0  0  0  0  0  0  0  0  0  0  0
  -17.0951  -28.4305   23.1148 C   0  0  0  0  0  0  0  0  0  0  0  0
  -22.8084  -11.7182   24.4007 C   0  0  0  0  0  0  0  0  0  0  0  0
  -21.8272  -12.8112   22.4825 C   0  0  0  0  0  0  0  0  0  0  0  0
  -17.3350  -30.4904   24.3456 C   0  0  0  0  0  0  0  0  0  0  0  0
  -18.2932  -28.6912   22.4506 C   0  0  0  0  0  0  0  0  0  0  0  0
  -23.8146  -24.0789   22.8143 C   0  0  0  0  0  0  0  0  0  0  0  0
  -28.4649  -16.1108   18.7297 C   0  0  0  0  0  0  0  0  0  0  0  0
  -28.0168  -14.8821   18.2451 C   0  0  0  0  0  0  0  0  0  0  0  0
  -22.6153  -12.8736   25.1579 C   0  0  0  0  0  0  0  0  0  0  0  0
  -21.6341  -13.9667   23.2397 C   0  0  0  0  0  0  0  0  0  0  0  0
  -24.8414  -23.1468   22.6627 C   0  0  0  0  0  0  0  0  0  0  0  0
  -23.4956  -16.5685   24.3334 C   0  0  0  0  0  0  0  0  0  0  0  0
  -23.8417  -17.7889   23.7533 C   0  0  0  0  0  0  0  0  0  0  0  0
  -26.1041  -24.7358   21.3479 C   0  0  0  0  0  0  0  0  0  0  0  0
  -26.5665  -16.2153   20.2204 C   0  0  0  0  0  0  0  0  0  0  0  0
  -21.5593  -18.5466   23.9856 C   0  0  0  0  0  0  0  0  0  0  0  0
  -22.4143  -11.6870   23.0630 C   0  0  0  0  0  0  0  0  0  0  0  0
  -22.0821   -9.2146   22.5296 C   0  0  0  0  0  0  0  0  0  0  0  0
  -18.5474  -30.7607   23.6916 C   0  0  0  0  0  0  0  0  0  0  0  0
  -23.9356  -25.3498   22.2456 C   0  0  0  0  0  0  0  0  0  0  0  0
  -19.0284  -29.8568   22.7252 C   0  0  0  0  0  0  0  0  0  0  0  0
  -25.0844  -25.6778   21.5070 C   0  0  0  0  0  0  0  0  0  0  0  0
  -27.7398  -16.7775   19.7174 C   0  0  0  0  0  0  0  0  0  0  0  0
  -26.8436  -14.3199   18.7481 C   0  0  0  0  0  0  0  0  0  0  0  0
  -26.1184  -14.9865   19.7358 C   0  0  0  0  0  0  0  0  0  0  0  0
  -22.0282  -13.9978   24.5774 C   0  0  0  0  0  0  0  0  0  0  0  0
  -25.9832  -23.4744   21.9311 C   0  0  0  0  0  0  0  0  0  0  0  0
  -22.1813  -16.3372   24.7395 C   0  0  0  0  0  0  0  0  0  0  0  0
  -22.8736  -18.7779   23.5794 C   0  0  0  0  0  0  0  0  0  0  0  0
  -21.2132  -17.3262   24.5657 C   0  0  0  0  0  0  0  0  0  0  0  0
  -22.6140  -10.4939   22.2802 C   0  0  0  0  0  0  0  0  0  0  0  0
  -22.5641   -8.4367   21.5054 C   0  0  0  0  0  0  0  0  0  0  0  0
  -29.5775  -18.3550   20.2506 C   0  0  0  0  0  0  0  0  0  0  0  0
  -21.2286   -8.7692   23.5921 C   0  0  0  0  0  0  0  0  0  0  0  0
  -22.3996  -28.7314   21.7146 C   0  0  0  0  0  0  0  0  0  0  0  0
  -25.3882  -29.1826   22.2394 C   0  0  0  0  0  0  0  0  0  0  0  0
  -26.6717  -12.6417   16.9171 C   0  0  0  0  0  0  0  0  0  0  0  0
  -28.4384  -30.4145   23.1424 C   0  0  0  0  0  0  0  0  0  0  0  0
  -25.9369  -12.0944   19.1649 C   0  0  0  0  0  0  0  0  0  0  0  0
  -19.2654  -32.0512   23.9977 C   0  0  0  0  0  0  0  0  0  0  0  0
  -22.8278  -26.3643   22.3314 C   0  0  0  0  0  0  0  0  0  0  0  0
  -25.1559  -27.0451   20.8838 C   0  0  0  0  0  0  0  0  0  0  0  0
  -29.9426  -19.8073   20.4935 C   0  0  0  0  0  0  0  0  0  0  0  0
  -20.7155  -32.0693   23.5210 C   0  0  0  0  0  0  0  0  0  0  0  0
  -29.0103  -20.5364   21.4359 C   0  0  0  0  0  0  0  0  0  0  0  0
  -23.0337  -10.3664   17.6736 C   0  0  0  0  0  0  0  0  0  0  0  0
  -20.8140  -31.5467   22.0914 C   0  0  0  0  0  0  0  0  0  0  0  0
  -23.1965   -8.9535   18.2211 C   0  0  0  0  0  0  0  0  0  0  0  0
  -24.3806  -11.0420   17.4383 C   0  0  0  0  0  0  0  0  0  0  0  0
  -27.2149  -18.9189   20.8850 C   0  0  0  0  0  0  0  0  0  0  0  0
  -25.4036   -9.6749   19.2534 C   0  0  0  0  0  0  0  0  0  0  0  0
  -20.3365  -30.0922   22.0015 C   0  0  1  0  0  0  0  0  0  0  0  0
  -23.3415  -27.8116   22.4345 C   0  0  1  0  0  0  0  0  0  0  0  0
  -27.5869  -20.4005   20.9212 C   0  0  1  0  0  0  0  0  0  0  0  0
  -24.0903   -8.9015   19.4696 C   0  0  1  0  0  0  0  0  0  0  0  0
  -26.4949  -11.1709   16.6072 C   0  0  0  0  0  0  0  0  0  0  0  0
  -29.9265  -32.4113   22.8330 C   0  0  0  0  0  0  0  0  0  0  0  0
  -26.0875  -28.2215   19.4303 C   0  0  0  0  0  0  0  0  0  0  0  0
  -28.1712  -29.6040   19.5528 C   0  0  0  0  0  0  0  0  0  0  0  0
  -25.9366  -30.7057   19.6759 C   0  0  0  0  0  0  0  0  0  0  0  0
  -28.4381  -31.0093   26.0416 C   0  0  0  0  0  0  0  0  0  0  0  0
  -26.6103  -21.1840   21.7959 C   0  0  0  0  0  0  0  0  0  1  0  0
  -26.7641  -29.3573   21.6480 C   0  0  1  0  0  0  0  0  0  0  0  0
  -28.8557  -31.7644   23.6976 C   0  0  2  0  0  0  0  0  0  0  0  0
  -26.7345  -29.4522   20.0964 C   0  0  0  0  0  0  0  0  0  0  0  0
  -23.3757  -10.5308   21.1836 N   0  0  0  0  0  0  0  0  0  0  0  0
  -23.3260   -9.2650   20.7349 N   0  0  0  0  0  0  0  0  0  0  0  0
  -28.2053  -18.0524   20.2202 N   0  0  0  0  0  0  0  0  0  0  0  0
  -24.6632  -28.0560   21.8325 N   0  0  0  0  0  0  0  0  0  0  0  0
  -25.2400  -10.9906   18.6281 N   0  0  0  0  0  0  0  0  0  0  0  0
  -24.9275  -14.4350   20.2595 N   0  0  0  0  0  0  0  0  0  0  0  0
  -22.4064   -7.1318   21.1977 N   0  0  0  0  0  0  0  0  0  0  0  0
  -19.8409   -8.8410   23.4090 N   0  0  0  0  0  0  0  0  0  0  0  0
  -21.3577  -29.1936   22.4956 N   0  0  0  0  0  0  0  0  0  0  0  0
  -27.3468  -30.5213   22.3069 N   0  0  0  0  0  0  0  0  0  0  0  0
  -26.4006  -13.0477   18.2311 N   0  0  0  0  0  0  0  0  0  0  0  0
  -29.3952  -31.6122   25.0785 N   0  3  0  0  0  0  0  0  0  0  0  0
  -30.4928  -17.5548   20.0392 O   0  0  0  0  0  0  0  0  0  0  0  0
  -21.6830   -8.3362   24.6781 O   0  0  0  0  0  0  0  0  0  0  0  0
  -22.6031  -29.0037   20.5372 O   0  0  0  0  0  0  0  0  0  0  0  0
  -24.9630  -30.0236   23.0364 O   0  0  0  0  0  0  0  0  0  0  0  0
  -27.0793  -13.4055   16.0374 O   0  0  0  0  0  0  0  0  0  0  0  0
  -29.0247  -29.3704   23.4191 O   0  0  0  0  0  0  0  0  0  0  0  0
  -26.1888  -12.1988   20.3717 O   0  0  0  0  0  0  0  0  0  0  0  0
  -21.8394  -15.1254   25.3160 O   0  0  0  0  0  0  0  0  0  0  0  0
  -26.9838  -22.5612   21.7908 O   0  0  0  0  0  0  0  0  0  1  0  0
  -23.2065  -19.9504   23.0237 F   0  0  0  0  0  0  0  0  0  0  0  0
  -19.9493  -17.1102   24.9550 F   0  0  0  0  0  0  0  0  0  0  0  0
  1  2  1  0  0  0  0
  1  5  2  0  0  0  0
  2  6  2  0  0  0  0
  3 10  2  0  0  0  0
  3 18  1  0  0  0  0
  4 11  1  0  0  0  0
  4 18  2  0  0  0  0
  5 20  1  0  0  0  0
  6 22  1  0  0  0  0
  7 12  2  0  0  0  0
  7 21  1  0  0  0  0
  8  9  2  0  0  0  0
  8 24  1  0  0  0  0
  9 25  1  0  0  0  0
 10 27  1  0  0  0  0
 11 27  2  0  0  0  0
 12 28  1  0  0  0  0
 13 14  2  0  0  0  0
 13 29  1  0  0  0  0
 14 30  1  0  0  0  0
 15 23  1  0  0  0  0
 15 28  2  0  0  0  0
 16 24  2  0  0  0  0
 16 26  1  0  0  0  0
 17 30  2  0  0  0  0
 17 31  1  0  0  0  0
 18 32  1  0  0  0  0
 19 32  1  0  0  0  0
 19 33  2  0  0  0  0
 19 35  1  0  0  0  0
 20 22  2  0  0  0  0
 20 41  1  0  0  0  0
 21 23  2  0  0  0  0
 21 42  1  0  0  0  0
 22 53  1  0  0  0  0
 23 43  1  0  0  0  0
 24 69  1  0  0  0  0
 25 26  2  0  0  0  0
 25 77  1  0  0  0  0
 26 72  1  0  0  0  0
 27 86  1  0  0  0  0
 28 87  1  0  0  0  0
 29 31  2  0  0  0  0
 29 86  1  0  0  0  0
 30 88  1  0  0  0  0
 31 89  1  0  0  0  0
 32 67  2  0  0  0  0
 33 68  1  0  0  0  0
 33 73  1  0  0  0  0
 34 44  1  0  0  0  0
 34 69  1  0  0  0  0
 34 79  2  0  0  0  0
 35 74  1  0  0  0  0
 35 80  2  0  0  0  0
 36 54  1  0  0  0  0
 36 75  1  0  0  0  0
 36 81  2  0  0  0  0
 37 64  1  0  0  0  0
 37 70  1  0  0  0  0
 37 82  2  0  0  0  0
 38 57  1  0  0  0  0
 38 77  1  0  0  0  0
 38 83  2  0  0  0  0
 39 65  1  0  0  0  0
 39 76  1  0  0  0  0
 39 84  2  0  0  0  0
 40 71  1  0  0  0  0
 40 77  1  0  0  0  0
 40 85  2  0  0  0  0
 41 45  1  0  0  0  0
 42 54  1  0  0  0  0
 43 70  1  0  0  0  0
 44 46  1  0  0  0  0
 45 48  1  0  0  0  0
 46 55  1  0  0  0  0
 47 49  1  0  0  0  0
 47 50  1  0  0  0  0
 48 53  1  0  0  0  0
 49 56  1  0  0  0  0
 50 71  1  0  0  0  0
 51 55  1  0  0  0  0
 51 69  1  0  0  0  0
 52 56  1  0  0  0  0
 52 71  1  0  0  0  0
 53 75  1  0  0  0  0
 54 70  1  0  0  0  0
 55 63  1  0  0  0  0
 56 68  1  0  0  0  0
 58 65  1  0  0  0  0
 59 66  1  0  0  0  0
 60 66  1  0  0  0  0
 61 66  1  0  0  0  0
 62 78  1  0  0  0  0
 63 87  1  0  0  0  0
 64 66  1  0  0  0  0
 64 76  1  0  0  0  0
 65 78  1  0  0  0  0
 67 68  1  0  0  0  0
M  CHG  1  78   1
M  ISO  4  40 100  63 101  77 100  87 101
M  END
> <Batch ID>
0099

> <Smiles>
CNC(C)C(=O)NC(C(=O)N1Cc2cc([101O:1][101CH2:1]C3CCC(=O)N(c4ccc([100N:0](C(C)=O)[100C:0](=O)N5CCCC(n6nc(-c7ccc(Oc8ccc(F)cc8F)cc7)c(C(N)=O)c6N)C5)c(N)c4)C3)ccc2CC1C(=O)NC1CCCc2ccccc21)C(C)(C)C

> <Shape>
0.219

> <Color>
0.107

> <Negative vol penalty>
0.000

$$$$

  -OEChem-04052300543D

 83 91  0     1  0  0  0  0  0999 V2000
  -28.8237  -33.4780   18.3194 C   0  0  0  0  0  0  0  0  0  0  0  0
  -28.8467  -32.1023   18.1135 C   0  0  0  0  0  0  0  0  0  0  0  0
  -22.9161   -9.9501   20.0341 C   0  0  0  0  0  0  0  0  0  0  0  0
  -23.7055   -9.9812   22.3173 C   0  0  0  0  0  0  0  0  0  0  0  0
  -28.4791  -33.9889   19.5700 C   0  0  0  0  0  0  0  0  0  0  0  0
  -28.5261  -31.2366   19.1585 C   0  0  0  0  0  0  0  0  0  0  0  0
  -25.6256  -25.8601   18.7270 C   0  0  0  0  0  0  0  0  0  0  0  0
  -22.1197   -8.8425   20.3245 C   0  0  0  0  0  0  0  0  0  0  0  0
  -22.9089   -8.8735   22.6077 C   0  0  0  0  0  0  0  0  0  0  0  0
  -26.0875  -24.5450   18.6959 C   0  0  0  0  0  0  0  0  0  0  0  0
  -23.0283   -5.5274   22.1388 C   0  0  0  0  0  0  0  0  0  0  0  0
  -23.6019   -4.4925   22.8774 C   0  0  0  0  0  0  0  0  0  0  0  0
  -29.0759  -17.4903   21.9762 C   0  0  0  0  0  0  0  0  0  0  0  0
  -29.4614  -16.7494   19.7092 C   0  0  0  0  0  0  0  0  0  0  0  0
  -25.6976  -24.3585   21.0692 C   0  0  0  0  0  0  0  0  0  0  0  0
  -21.9336   -4.7963   24.5984 C   0  0  0  0  0  0  0  0  0  0  0  0
  -23.7091  -10.5195   21.0305 C   0  0  0  0  0  0  0  0  0  0  0  0
  -29.5972  -16.5538   21.0835 C   0  0  0  0  0  0  0  0  0  0  0  0
  -24.1735  -13.0204   20.8369 C   0  0  0  0  0  0  0  0  0  0  0  0
  -28.1446  -33.1292   20.6283 C   0  0  0  0  0  0  0  0  0  0  0  0
  -25.2058  -26.4388   19.9333 C   0  0  0  0  0  0  0  0  0  0  0  0
  -28.1779  -31.7364   20.4249 C   0  0  0  0  0  0  0  0  0  0  0  0
  -25.2285  -25.6803   21.1124 C   0  0  0  0  0  0  0  0  0  0  0  0
  -28.4187  -18.6224   21.4944 C   0  0  0  0  0  0  0  0  0  0  0  0
  -22.1160   -8.3042   21.6113 C   0  0  0  0  0  0  0  0  0  0  0  0
  -26.1263  -23.7949   19.8677 C   0  0  0  0  0  0  0  0  0  0  0  0
  -21.9075   -6.1968   22.6299 C   0  0  0  0  0  0  0  0  0  0  0  0
  -28.2828  -18.8181   20.1200 C   0  0  0  0  0  0  0  0  0  0  0  0
  -23.0545   -4.1269   24.1072 C   0  0  0  0  0  0  0  0  0  0  0  0
  -28.8042  -17.8816   19.2274 C   0  0  0  0  0  0  0  0  0  0  0  0
  -21.3601   -5.8313   23.8597 C   0  0  0  0  0  0  0  0  0  0  0  0
  -24.5326  -11.6633   20.7310 C   0  0  0  0  0  0  0  0  0  0  0  0
  -25.2964  -13.7046   20.4403 C   0  0  0  0  0  0  0  0  0  0  0  0
  -30.2825  -15.3731   21.5853 C   0  0  0  0  0  0  0  0  0  0  0  0
  -22.9356  -13.6097   21.2564 C   0  0  0  0  0  0  0  0  0  0  0  0
  -30.8472  -14.3599   20.6645 C   0  0  0  0  0  0  0  0  0  0  0  0
  -26.1655  -28.9077   21.6904 C   0  0  0  0  0  0  0  0  0  0  0  0
  -23.5200  -28.1991   23.4286 C   0  0  0  0  0  0  0  0  0  0  0  0
  -21.2111  -25.8697   24.3716 C   0  0  0  0  0  0  0  0  0  0  0  0
  -27.8245  -33.7268   21.9755 C   0  0  0  0  0  0  0  0  0  0  0  0
  -24.6852  -27.8499   19.9453 C   0  0  0  0  0  0  0  0  0  0  0  0
  -24.7699  -26.2484   22.4298 C   0  0  0  0  0  0  0  0  0  0  0  0
  -27.1342  -32.7518   22.9258 C   0  0  0  0  0  0  0  0  0  0  0  0
  -29.5341  -12.0928   18.2165 C   0  0  0  0  0  0  0  0  0  0  0  0
  -27.8494  -31.4044   22.9204 C   0  0  0  0  0  0  0  0  0  0  0  0
  -28.0979  -11.8608   18.6847 C   0  0  0  0  0  0  0  0  0  0  0  0
  -30.4826  -12.2797   19.3963 C   0  0  0  0  0  0  0  0  0  0  0  0
  -28.6333  -13.1431   20.8046 C   0  0  0  0  0  0  0  0  0  0  0  0
  -27.8123  -30.7657   21.5268 C   0  0  1  0  0  0  0  0  0  0  0  0
  -24.7660  -28.5050   21.3207 C   0  0  1  0  0  0  0  0  0  0  0  0
  -27.6414  -12.9776   19.6402 C   0  0  2  0  0  0  0  0  0  0  0  0
  -27.8669  -19.6147   22.4644 C   0  0  0  0  0  0  0  0  0  0  0  0
  -19.1917  -25.5766   25.8323 C   0  0  0  0  0  0  0  0  0  0  0  0
  -25.3194  -28.0903   25.8904 C   0  0  0  0  0  0  0  0  0  0  0  0
  -23.4810  -26.8915   27.0951 C   0  0  0  0  0  0  0  0  0  0  0  0
  -23.1150  -29.2128   26.2582 C   0  0  0  0  0  0  0  0  0  0  0  0
  -19.4910  -25.2008   22.0580 C   0  0  0  0  0  0  0  0  0  0  0  0
  -27.5588  -22.1885   18.8560 C   0  0  0  0  0  0  0  0  0  1  0  0
  -28.4412  -21.0738   19.3835 C   0  0  0  0  0  0  0  0  0  0  0  0
  -23.2229  -27.3022   24.6060 C   0  0  1  0  0  0  0  0  0  0  0  0
  -19.6955  -25.9238   24.4400 C   0  0  2  0  0  0  0  0  0  0  0  0
  -23.7951  -27.8638   25.9381 C   0  0  0  0  0  0  0  0  0  0  0  0
  -25.7856  -11.4935   20.3007 N   0  0  0  0  0  0  0  0  0  0  0  0
  -30.4479  -15.1267   22.8568 N   0  0  0  0  0  0  0  0  0  0  0  0
  -26.2236  -12.7529   20.1326 N   0  0  0  0  0  0  0  0  0  0  0  0
  -30.0013  -13.3213   20.3016 N   0  0  0  0  0  0  0  0  0  0  0  0
  -24.2752  -27.6345   22.3910 N   0  0  0  0  0  0  0  0  0  0  0  0
  -25.5713  -15.0215   20.3281 N   0  0  0  0  0  0  0  0  0  0  0  0
  -21.8846  -12.7614   21.6305 N   0  0  0  0  0  0  0  0  0  0  0  0
  -26.5138  -30.1785   21.2744 N   0  0  0  0  0  0  0  0  0  0  0  0
  -21.7776  -27.1033   24.6132 N   0  0  0  0  0  0  0  0  0  0  0  0
  -19.0986  -24.9620   23.4708 N   0  3  0  0  0  0  0  0  0  0  0  0
  -22.7611  -14.8517   21.2825 O   0  0  0  0  0  0  0  0  0  0  0  0
  -32.0068  -14.5481   20.3205 O   0  0  0  0  0  0  0  0  0  0  0  0
  -26.8763  -28.1240   22.3088 O   0  0  0  0  0  0  0  0  0  0  0  0
  -23.0914  -29.3559   23.4263 O   0  0  0  0  0  0  0  0  0  0  0  0
  -21.8305  -24.8356   24.1319 O   0  0  0  0  0  0  0  0  0  0  0  0
  -21.3387   -7.2235   21.8951 O   0  0  0  0  0  0  0  0  0  0  0  0
  -26.5773  -22.5113   19.8403 O   0  0  0  0  0  0  0  0  0  1  0  0
  -27.6400  -19.9248   19.6311 O   0  0  0  0  0  0  0  0  0  0  0  0
  -23.6045   -3.1321   24.8157 F   0  0  0  0  0  0  0  0  0  0  0  0
  -28.6773  -18.0637   17.9056 F   0  0  0  0  0  0  0  0  0  0  0  0
  -20.2827   -6.4699   24.3362 F   0  0  0  0  0  0  0  0  0  0  0  0
  1  2  1  0  0  0  0
  1  5  2  0  0  0  0
  2  6  2  0  0  0  0
  3  8  2  0  0  0  0
  3 17  1  0  0  0  0
  4  9  1  0  0  0  0
  4 17  2  0  0  0  0
  5 20  1  0  0  0  0
  6 22  1  0  0  0  0
  7 10  2  0  0  0  0
  7 21  1  0  0  0  0
  8 25  1  0  0  0  0
  9 25  2  0  0  0  0
 10 26  1  0  0  0  0
 11 12  2  0  0  0  0
 11 27  1  0  0  0  0
 12 29  1  0  0  0  0
 13 18  1  0  0  0  0
 13 24  2  0  0  0  0
 14 18  2  0  0  0  0
 14 30  1  0  0  0  0
 15 23  1  0  0  0  0
 15 26  2  0  0  0  0
 16 29  2  0  0  0  0
 16 31  1  0  0  0  0
 17 32  1  0  0  0  0
 18 34  1  0  0  0  0
 19 32  1  0  0  0  0
 19 33  2  0  0  0  0
 19 35  1  0  0  0  0
 20 22  2  0  0  0  0
 20 40  1  0  0  0  0
 21 23  2  0  0  0  0
 21 41  1  0  0  0  0
 22 49  1  0  0  0  0
 23 42  1  0  0  0  0
 24 28  1  0  0  0  0
 24 52  1  0  0  0  0
 25 78  1  0  0  0  0
 26 79  1  0  0  0  0
 27 31  2  0  0  0  0
 27 78  1  0  0  0  0
 28 30  2  0  0  0  0
 28 80  1  0  0  0  0
 29 81  1  0  0  0  0
 30 82  1  0  0  0  0
 31 83  1  0  0  0  0
 32 63  2  0  0  0  0
 33 65  1  0  0  0  0
 33 68  1  0  0  0  0
 34 36  1  0  0  0  0
 34 64  2  0  0  0  0
 35 69  1  0  0  0  0
 35 73  2  0  0  0  0
 36 66  1  0  0  0  0
 36 74  2  0  0  0  0
 37 50  1  0  0  0  0
 37 70  1  0  0  0  0
 37 75  2  0  0  0  0
 38 60  1  0  0  0  0
 38 67  1  0  0  0  0
 38 76  2  0  0  0  0
 39 61  1  0  0  0  0
 39 71  1  0  0  0  0
 39 77  2  0  0  0  0
 40 43  1  0  0  0  0
 41 50  1  0  0  0  0
 42 67  1  0  0  0  0
 43 45  1  0  0  0  0
 44 46  1  0  0  0  0
 44 47  1  0  0  0  0
 45 49  1  0  0  0  0
 46 51  1  0  0  0  0
 47 66  1  0  0  0  0
 48 51  1  0  0  0  0
 48 66  1  0  0  0  0
 49 70  1  0  0  0  0
 50 67  1  0  0  0  0
 51 65  1  0  0  0  0
 53 61  1  0  0  0  0
 54 62  1  0  0  0  0
 55 62  1  0  0  0  0
 56 62  1  0  0  0  0
 57 72  1  0  0  0  0
 58 59  1  0  0  0  0
 58 79  1  0  0  0  0
 59 80  1  0  0  0  0
 60 62  1  0  0  0  0
 60 71  1  0  0  0  0
 61 72  1  0  0  0  0
 63 65  1  0  0  0  0
M  CHG  1  72   1
M  ISO  4  34 100  36 100  58 101  79 101
M  END
> <Batch ID>
0099

> <Smiles>
CNC(C)C(=O)NC(C(=O)N1Cc2cc([101O:1][101CH2:1]COc3c(C)cc([100C:0](=N)[100C:0](=O)N4CCCC(n5nc(-c6ccc(Oc7ccc(F)cc7F)cc6)c(C(N)=O)c5N)C4)cc3F)ccc2CC1C(=O)NC1CCCc2ccccc21)C(C)(C)C

> <Shape>
0.300

> <Color>
0.209

> <Negative vol penalty>
0.000

$$$$

  -OEChem-04052300543D

 84 92  0     1  0  0  0  0  0999 V2000
  -29.7718  -23.6052   17.9703 C   0  0  0  0  0  0  0  0  0  0  0  0
  -28.5872  -23.6688   18.6971 C   0  0  0  0  0  0  0  0  0  0  0  0
  -28.3799  -14.5860   20.6670 C   0  0  0  0  0  0  0  0  0  0  0  0
  -26.1846  -15.5848   20.8088 C   0  0  0  0  0  0  0  0  0  0  0  0
  -30.8297  -24.4561   18.2878 C   0  0  0  0  0  0  0  0  0  0  0  0
  -28.4604  -24.5825   19.7428 C   0  0  0  0  0  0  0  0  0  0  0  0
  -24.0221  -27.0199   19.6650 C   0  0  0  0  0  0  0  0  0  0  0  0
  -26.1253  -22.2633   27.5302 C   0  0  0  0  0  0  0  0  0  0  0  0
  -25.0203  -22.6860   28.2689 C   0  0  0  0  0  0  0  0  0  0  0  0
  -27.7986  -13.3215   20.5743 C   0  0  0  0  0  0  0  0  0  0  0  0
  -25.6033  -14.3203   20.7161 C   0  0  0  0  0  0  0  0  0  0  0  0
  -22.9085  -26.3301   20.1423 C   0  0  0  0  0  0  0  0  0  0  0  0
  -24.9132  -12.0696   18.2914 C   0  0  0  0  0  0  0  0  0  0  0  0
  -23.8278  -11.9187   17.4286 C   0  0  0  0  0  0  0  0  0  0  0  0
  -24.7239  -22.0106   25.5784 C   0  0  0  0  0  0  0  0  0  0  0  0
  -23.0930  -27.4988   22.2445 C   0  0  0  0  0  0  0  0  0  0  0  0
  -22.4445  -11.2362   19.2881 C   0  0  0  0  0  0  0  0  0  0  0  0
  -27.5729  -15.7177   20.7843 C   0  0  0  0  0  0  0  0  0  0  0  0
  -23.6188  -22.4332   26.3172 C   0  0  0  0  0  0  0  0  0  0  0  0
  -28.4982  -17.8906   19.8198 C   0  0  0  0  0  0  0  0  0  0  0  0
  -30.7122  -25.3873   19.3317 C   0  0  0  0  0  0  0  0  0  0  0  0
  -24.6873  -27.9479   20.4792 C   0  0  0  0  0  0  0  0  0  0  0  0
  -29.5182  -25.4457   20.0755 C   0  0  0  0  0  0  0  0  0  0  0  0
  -24.2133  -28.2009   21.7744 C   0  0  0  0  0  0  0  0  0  0  0  0
  -25.9772  -21.9257   26.1849 C   0  0  0  0  0  0  0  0  0  0  0  0
  -23.7670  -22.7709   27.6625 C   0  0  0  0  0  0  0  0  0  0  0  0
  -26.4103  -13.1886   20.5988 C   0  0  0  0  0  0  0  0  0  0  0  0
  -22.4455  -26.5674   21.4332 C   0  0  0  0  0  0  0  0  0  0  0  0
  -24.7644  -11.8037   19.6527 C   0  0  0  0  0  0  0  0  0  0  0  0
  -22.5934  -11.5020   17.9269 C   0  0  0  0  0  0  0  0  0  0  0  0
  -23.5300  -11.3871   20.1510 C   0  0  0  0  0  0  0  0  0  0  0  0
  -28.1728  -17.0242   20.8807 C   0  0  0  0  0  0  0  0  0  0  0  0
  -29.0392  -18.9947   20.4319 C   0  0  0  0  0  0  0  0  0  0  0  0
  -22.2981  -22.5140   25.6416 C   0  0  0  0  0  0  0  0  0  0  0  0
  -28.3268  -17.7131   18.4075 C   0  0  0  0  0  0  0  0  0  0  0  0
  -27.6219  -28.1825   21.6777 C   0  0  0  0  0  0  0  0  0  0  0  0
  -26.5624  -31.0817   22.6748 C   0  0  0  0  0  0  0  0  0  0  0  0
  -23.9161  -33.0724   23.5000 C   0  0  0  0  0  0  0  0  0  0  0  0
  -28.4129  -21.3569   25.8847 C   0  0  0  0  0  0  0  0  0  0  0  0
  -31.8999  -26.2537   19.6686 C   0  0  0  0  0  0  0  0  0  0  0  0
  -25.8710  -28.7033   19.9402 C   0  0  0  0  0  0  0  0  0  0  0  0
  -24.8797  -29.2020   22.6812 C   0  0  0  0  0  0  0  0  0  0  0  0
  -31.5503  -27.4511   20.5485 C   0  0  0  0  0  0  0  0  0  0  0  0
  -31.4501  -20.2940   24.3605 C   0  0  0  0  0  0  0  0  0  0  0  0
  -30.6596  -27.0189   21.7089 C   0  0  0  0  0  0  0  0  0  0  0  0
  -30.9838  -19.4187   23.1950 C   0  0  0  0  0  0  0  0  0  0  0  0
  -30.5535  -20.1306   25.5866 C   0  0  0  0  0  0  0  0  0  0  0  0
  -28.6535  -19.4527   24.1725 C   0  0  0  0  0  0  0  0  0  0  0  0
  -29.3334  -26.4405   21.2008 C   0  0  1  0  0  0  0  0  0  0  0  0
  -26.7808  -29.2495   21.0362 C   0  0  1  0  0  0  0  0  0  0  0  0
  -29.4874  -19.6320   22.8934 C   0  0  2  0  0  0  0  0  0  0  0  0
  -23.3667  -35.3817   24.3139 C   0  0  0  0  0  0  0  0  0  0  0  0
  -27.4471  -30.2981   25.4878 C   0  0  0  0  0  0  0  0  0  0  0  0
  -26.0461  -32.1737   26.3755 C   0  0  0  0  0  0  0  0  0  0  0  0
  -27.9610  -32.6619   24.8532 C   0  0  0  0  0  0  0  0  0  0  0  0
  -22.3518  -33.6846   21.0634 C   0  0  0  0  0  0  0  0  0  0  0  0
  -20.5124  -24.3670   23.5470 C   0  0  0  0  0  0  0  0  0  0  0  0
  -20.4117  -24.0016   25.0218 C   0  0  0  0  0  0  0  0  0  0  0  0
  -21.3052  -25.6459   23.3058 C   0  0  0  0  0  0  0  0  0  1  0  0
  -25.8690  -31.5990   23.9119 C   0  0  1  0  0  0  0  0  0  0  0  0
  -23.5585  -34.4913   23.0960 C   0  0  2  0  0  0  0  0  0  0  0  0
  -26.8192  -31.6628   25.1410 C   0  0  0  0  0  0  0  0  0  0  0  0
  -28.4814  -17.5341   22.0760 N   0  0  0  0  0  0  0  0  0  0  0  0
  -29.0065  -18.7327   21.7700 N   0  0  0  0  0  0  0  0  0  0  0  0
  -26.0372  -29.9105   22.1106 N   0  0  0  0  0  0  0  0  0  0  0  0
  -29.1514  -20.3513   25.2258 N   0  0  0  0  0  0  0  0  0  0  0  0
  -22.6605  -23.2005   28.4287 N   0  0  0  0  0  0  0  0  0  0  0  0
  -29.5350  -20.1545   19.9507 N   0  0  0  0  0  0  0  0  0  0  0  0
  -27.7546  -16.5188   17.9487 N   0  0  0  0  0  0  0  0  0  0  0  0
  -27.1003  -21.4965   25.4351 N   0  0  0  0  0  0  0  0  0  0  0  0
  -21.6987  -23.7682   25.6163 N   0  0  0  0  0  0  0  0  0  0  0  0
  -28.4406  -27.5047   20.7946 N   0  0  0  0  0  0  0  0  0  0  0  0
  -25.2811  -32.8825   23.5439 N   0  0  0  0  0  0  0  0  0  0  0  0
  -22.2969  -34.5018   22.3028 N   0  3  0  0  0  0  0  0  0  0  0  0
  -21.8026  -21.4943   25.1691 O   0  0  0  0  0  0  0  0  0  0  0  0
  -28.6859  -18.5809   17.5759 O   0  0  0  0  0  0  0  0  0  0  0  0
  -27.5358  -27.9895   22.8848 O   0  0  0  0  0  0  0  0  0  0  0  0
  -27.5299  -31.6982   22.2214 O   0  0  0  0  0  0  0  0  0  0  0  0
  -23.0693  -32.2189   23.7550 O   0  0  0  0  0  0  0  0  0  0  0  0
  -28.9166  -22.0619   26.7629 O   0  0  0  0  0  0  0  0  0  0  0  0
  -25.8428  -11.9548   20.5082 O   0  0  0  0  0  0  0  0  0  0  0  0
  -21.3591  -25.8950   21.9017 O   0  0  0  0  0  0  0  0  0  1  0  0
  -21.5507  -11.3586   17.0984 F   0  0  0  0  0  0  0  0  0  0  0  0
  -23.3806  -11.1313   21.4579 F   0  0  0  0  0  0  0  0  0  0  0  0
  1  2  1  0  0  0  0
  1  5  2  0  0  0  0
  2  6  2  0  0  0  0
  3 10  2  0  0  0  0
  3 18  1  0  0  0  0
  4 11  1  0  0  0  0
  4 18  2  0  0  0  0
  5 21  1  0  0  0  0
  6 23  1  0  0  0  0
  7 12  2  0  0  0  0
  7 22  1  0  0  0  0
  8  9  2  0  0  0  0
  8 25  1  0  0  0  0
  9 26  1  0  0  0  0
 10 27  1  0  0  0  0
 11 27  2  0  0  0  0
 12 28  1  0  0  0  0
 13 14  2  0  0  0  0
 13 29  1  0  0  0  0
 14 30  1  0  0  0  0
 15 19  1  0  0  0  0
 15 25  2  0  0  0  0
 16 24  1  0  0  0  0
 16 28  2  0  0  0  0
 17 30  2  0  0  0  0
 17 31  1  0  0  0  0
 18 32  1  0  0  0  0
 19 26  2  0  0  0  0
 19 34  1  0  0  0  0
 20 32  1  0  0  0  0
 20 33  2  0  0  0  0
 20 35  1  0  0  0  0
 21 23  2  0  0  0  0
 21 40  1  0  0  0  0
 22 24  2  0  0  0  0
 22 41  1  0  0  0  0
 23 49  1  0  0  0  0
 24 42  1  0  0  0  0
 25 70  1  0  0  0  0
 26 67  1  0  0  0  0
 27 81  1  0  0  0  0
 28 82  1  0  0  0  0
 29 31  2  0  0  0  0
 29 81  1  0  0  0  0
 30 83  1  0  0  0  0
 31 84  1  0  0  0  0
 32 63  2  0  0  0  0
 33 64  1  0  0  0  0
 33 68  1  0  0  0  0
 34 71  1  0  0  0  0
 34 75  2  0  0  0  0
 35 69  1  0  0  0  0
 35 76  2  0  0  0  0
 36 50  1  0  0  0  0
 36 72  1  0  0  0  0
 36 77  2  0  0  0  0
 37 60  1  0  0  0  0
 37 65  1  0  0  0  0
 37 78  2  0  0  0  0
 38 61  1  0  0  0  0
 38 73  1  0  0  0  0
 38 79  2  0  0  0  0
 39 66  1  0  0  0  0
 39 70  1  0  0  0  0
 39 80  2  0  0  0  0
 40 43  1  0  0  0  0
 41 50  1  0  0  0  0
 42 65  1  0  0  0  0
 43 45  1  0  0  0  0
 44 46  1  0  0  0  0
 44 47  1  0  0  0  0
 45 49  1  0  0  0  0
 46 51  1  0  0  0  0
 47 66  1  0  0  0  0
 48 51  1  0  0  0  0
 48 66  1  0  0  0  0
 49 72  1  0  0  0  0
 50 65  1  0  0  0  0
 51 64  1  0  0  0  0
 52 61  1  0  0  0  0
 53 62  1  0  0  0  0
 54 62  1  0  0  0  0
 55 62  1  0  0  0  0
 56 74  1  0  0  0  0
 57 58  1  0  0  0  0
 57 59  1  0  0  0  0
 58 71  1  0  0  0  0
 59 82  1  0  0  0  0
 60 62  1  0  0  0  0
 60 73  1  0  0  0  0
 61 74  1  0  0  0  0
 63 64  1  0  0  0  0
M  CHG  1  74   1
M  ISO  4  39 100  59 101  70 100  82 101
M  END
> <Batch ID>
0099

> <Smiles>
CNC(C)C(=O)NC(C(=O)N1Cc2cc([101O:1][101CH2:1]CCNC(=O)c3cc([100NH:0][100C:0](=O)N4CCCC(n5nc(-c6ccc(Oc7ccc(F)cc7F)cc6)c(C(N)=O)c5N)C4)ccc3N)ccc2CC1C(=O)NC1CCCc2ccccc21)C(C)(C)C

> <Shape>
0.255

> <Color>
0.070

> <Negative vol penalty>
0.000

$$$$

  -OEChem-04052300543D

 88 97  0     1  0  0  0  0  0999 V2000
  -26.5207  -38.2622   21.8968 C   0  0  0  0  0  0  0  0  0  0  0  0
  -27.1346  -37.2666   21.1436 C   0  0  0  0  0  0  0  0  0  0  0  0
  -22.3255  -10.3044   23.2296 C   0  0  0  0  0  0  0  0  0  0  0  0
  -23.4432  -10.3934   21.0895 C   0  0  0  0  0  0  0  0  0  0  0  0
  -25.8387  -37.9293   23.0664 C   0  0  0  0  0  0  0  0  0  0  0  0
  -27.0677  -35.9376   21.5601 C   0  0  0  0  0  0  0  0  0  0  0  0
  -26.7638  -29.2758   18.9439 C   0  0  0  0  0  0  0  0  0  0  0  0
  -25.1960  -20.3985   21.1759 C   0  0  0  0  0  0  0  0  0  0  0  0
  -23.9438  -19.8045   21.3326 C   0  0  0  0  0  0  0  0  0  0  0  0
  -21.8415   -9.0324   22.9240 C   0  0  0  0  0  0  0  0  0  0  0  0
  -22.9593   -9.1213   20.7839 C   0  0  0  0  0  0  0  0  0  0  0  0
  -27.4043  -28.0428   19.0598 C   0  0  0  0  0  0  0  0  0  0  0  0
  -20.6092   -5.6131   22.8564 C   0  0  0  0  0  0  0  0  0  0  0  0
  -20.6912   -4.6330   23.8456 C   0  0  0  0  0  0  0  0  0  0  0  0
  -26.1311  -27.5758   21.0548 C   0  0  0  0  0  0  0  0  0  0  0  0
  -24.3240  -21.7641   19.3837 C   0  0  0  0  0  0  0  0  0  0  0  0
  -23.0942   -4.8794   23.8904 C   0  0  0  0  0  0  0  0  0  0  0  0
  -23.1263  -10.9849   22.3124 C   0  0  0  0  0  0  0  0  0  0  0  0
  -24.4542  -12.6573   23.7078 C   0  0  0  0  0  0  0  0  0  0  0  0
  -25.7551  -36.5943   23.4923 C   0  0  0  0  0  0  0  0  0  0  0  0
  -25.8084  -29.6733   19.8903 C   0  0  0  0  0  0  0  0  0  0  0  0
  -26.3850  -35.5866   22.7371 C   0  0  0  0  0  0  0  0  0  0  0  0
  -25.4781  -28.8131   20.9472 C   0  0  0  0  0  0  0  0  0  0  0  0
  -25.3861  -21.3784   20.2014 C   0  0  0  0  0  0  0  0  0  0  0  0
  -22.8816  -20.1902   20.5148 C   0  0  0  0  0  0  0  0  0  0  0  0
  -22.1584   -8.4409   21.7012 C   0  0  0  0  0  0  0  0  0  0  0  0
  -27.0901  -27.1939   20.1169 C   0  0  0  0  0  0  0  0  0  0  0  0
  -21.7697   -6.2262   22.3842 C   0  0  0  0  0  0  0  0  0  0  0  0
  -21.9337   -4.2662   24.3626 C   0  0  0  0  0  0  0  0  0  0  0  0
  -23.0717  -21.1700   19.5403 C   0  0  0  0  0  0  0  0  0  0  0  0
  -23.0122   -5.8594   22.9012 C   0  0  0  0  0  0  0  0  0  0  0  0
  -23.6261  -12.2991   22.6273 C   0  0  0  0  0  0  0  0  0  0  0  0
  -24.6423  -14.0101   23.5626 C   0  0  0  0  0  0  0  0  0  0  0  0
  -27.8277  -21.2185   20.3544 C   0  0  0  0  0  0  0  0  0  0  0  0
  -26.7252  -23.3410   19.5828 C   0  0  0  0  0  0  0  0  0  0  0  0
  -25.0044  -11.8402   24.7497 C   0  0  0  0  0  0  0  0  0  0  0  0
  -25.5723  -32.0644   21.9713 C   0  0  0  0  0  0  0  0  0  0  0  0
  -22.6034  -30.8454   22.4421 C   0  0  0  0  0  0  0  0  0  0  0  0
  -21.1199  -27.5712   22.7529 C   0  0  0  0  0  0  0  0  0  0  0  0
  -21.4621  -18.2440   21.1383 C   0  0  0  0  0  0  0  0  0  0  0  0
  -25.0471  -36.2887   24.7884 C   0  0  0  0  0  0  0  0  0  0  0  0
  -25.1071  -30.9950   19.7361 C   0  0  0  0  0  0  0  0  0  0  0  0
  -24.4449  -29.1843   21.9784 C   0  0  0  0  0  0  0  0  0  0  0  0
  -29.1665  -21.9268   20.3398 C   0  0  0  0  0  0  0  0  0  0  0  0
  -24.7039  -34.8114   24.9615 C   0  0  0  0  0  0  0  0  0  0  0  0
  -29.0665  -23.4342   20.3322 C   0  0  0  0  0  0  0  0  0  0  0  0
  -24.8080  -17.4404   20.2425 C   0  0  0  0  0  0  0  0  0  0  0  0
  -25.9048  -33.9395   24.6086 C   0  0  0  0  0  0  0  0  0  0  0  0
  -24.9602  -16.0486   20.8551 C   0  0  0  0  0  0  0  0  0  0  0  0
  -23.4235  -17.6469   19.6273 C   0  0  0  0  0  0  0  0  0  0  0  0
  -22.4568  -15.9688   21.1681 C   0  0  0  0  0  0  0  0  0  0  0  0
  -26.3135  -34.1305   23.1430 C   0  0  1  0  0  0  0  0  0  0  0  0
  -28.1156  -23.8444   19.2221 C   0  0  2  0  0  0  0  0  0  0  0  0
  -24.5231  -31.5177   21.0450 C   0  0  1  0  0  0  0  0  0  0  0  0
  -23.8195  -15.7531   21.8449 C   0  0  1  0  0  0  0  0  0  0  0  0
  -18.7921  -26.7803   22.2500 C   0  0  0  0  0  0  0  0  0  0  0  0
  -22.0912  -31.3873   25.4008 C   0  0  0  0  0  0  0  0  0  0  0  0
  -20.6643  -29.3309   25.4589 C   0  0  0  0  0  0  0  0  0  0  0  0
  -20.0285  -31.2470   23.9936 C   0  0  0  0  0  0  0  0  0  0  0  0
  -20.3920  -20.4203   20.5961 C   0  0  0  0  0  0  0  0  0  0  0  0
  -22.1072  -25.4544   20.9354 C   0  0  0  0  0  0  0  0  0  0  0  0
  -28.1360  -25.3583   19.0248 C   0  0  0  0  0  0  0  0  0  1  0  0
  -22.0077  -29.8064   23.3612 C   0  0  1  0  0  0  0  0  0  0  0  0
  -20.2221  -26.8806   21.7423 C   0  0  2  0  0  0  0  0  0  0  0  0
  -21.2250  -30.4415   24.5451 C   0  0  0  0  0  0  0  0  0  0  0  0
  -23.3097  -13.3404   21.8528 N   0  0  0  0  0  0  0  0  0  0  0  0
  -23.9424  -14.3661   22.4475 N   0  0  0  0  0  0  0  0  0  0  0  0
  -26.6875  -21.9954   20.0380 N   0  0  0  0  0  0  0  0  0  0  0  0
  -23.7914  -30.4897   21.7879 N   0  0  0  0  0  0  0  0  0  0  0  0
  -22.3685  -17.3141   20.5950 N   0  0  0  0  0  0  0  0  0  0  0  0
  -25.3365  -14.9179   24.2813 N   0  0  0  0  0  0  0  0  0  0  0  0
  -26.2570  -11.2466   24.5422 N   0  0  0  0  0  0  0  0  0  0  0  0
  -25.4164  -33.4046   22.2695 N   0  0  0  0  0  0  0  0  0  0  0  0
  -21.2053  -28.9272   22.5177 N   0  0  0  0  0  0  0  0  0  0  0  0
  -21.5865  -19.5730   20.6791 N   0  0  0  0  0  0  0  0  0  0  0  0
  -20.7194  -25.5038   21.4632 N   0  3  0  0  0  0  0  0  0  0  0  0
  -27.8221  -19.9999   20.5567 O   0  0  0  0  0  0  0  0  0  0  0  0
  -25.7468  -24.0847   19.4869 O   0  0  0  0  0  0  0  0  0  0  0  0
  -24.3956  -11.6290   25.8259 O   0  0  0  0  0  0  0  0  0  0  0  0
  -26.4569  -31.3246   22.3860 O   0  0  0  0  0  0  0  0  0  0  0  0
  -22.0318  -31.9297   22.3040 O   0  0  0  0  0  0  0  0  0  0  0  0
  -21.6858  -26.9686   23.6625 O   0  0  0  0  0  0  0  0  0  0  0  0
  -20.5920  -17.9084   21.9508 O   0  0  0  0  0  0  0  0  0  0  0  0
  -21.6865   -7.1996   21.4027 O   0  0  0  0  0  0  0  0  0  0  0  0
  -27.7142  -25.9902   20.2328 O   0  0  0  0  0  0  0  0  0  1  0  0
  -22.0122   -3.3262   25.3135 F   0  0  0  0  0  0  0  0  0  0  0  0
  -22.0584  -21.5475   18.7476 F   0  0  0  0  0  0  0  0  0  0  0  0
  -24.1305   -6.4458   22.4523 F   0  0  0  0  0  0  0  0  0  0  0  0
  1  2  1  0  0  0  0
  1  5  2  0  0  0  0
  2  6  2  0  0  0  0
  3 10  2  0  0  0  0
  3 18  1  0  0  0  0
  4 11  1  0  0  0  0
  4 18  2  0  0  0  0
  5 20  1  0  0  0  0
  6 22  1  0  0  0  0
  7 12  2  0  0  0  0
  7 21  1  0  0  0  0
  8  9  2  0  0  0  0
  8 24  1  0  0  0  0
  9 25  1  0  0  0  0
 10 26  1  0  0  0  0
 11 26  2  0  0  0  0
 12 27  1  0  0  0  0
 13 14  2  0  0  0  0
 13 28  1  0  0  0  0
 14 29  1  0  0  0  0
 15 23  1  0  0  0  0
 15 27  2  0  0  0  0
 16 24  2  0  0  0  0
 16 30  1  0  0  0  0
 17 29  2  0  0  0  0
 17 31  1  0  0  0  0
 18 32  1  0  0  0  0
 19 32  1  0  0  0  0
 19 33  2  0  0  0  0
 19 36  1  0  0  0  0
 20 22  2  0  0  0  0
 20 41  1  0  0  0  0
 21 23  2  0  0  0  0
 21 42  1  0  0  0  0
 22 52  1  0  0  0  0
 23 43  1  0  0  0  0
 24 68  1  0  0  0  0
 25 30  2  0  0  0  0
 25 75  1  0  0  0  0
 26 84  1  0  0  0  0
 27 85  1  0  0  0  0
 28 31  2  0  0  0  0
 28 84  1  0  0  0  0
 29 86  1  0  0  0  0
 30 87  1  0  0  0  0
 31 88  1  0  0  0  0
 32 66  2  0  0  0  0
 33 67  1  0  0  0  0
 33 71  1  0  0  0  0
 34 44  1  0  0  0  0
 34 68  1  0  0  0  0
 34 77  2  0  0  0  0
 35 53  1  0  0  0  0
 35 68  1  0  0  0  0
 35 78  2  0  0  0  0
 36 72  1  0  0  0  0
 36 79  2  0  0  0  0
 37 54  1  0  0  0  0
 37 73  1  0  0  0  0
 37 80  2  0  0  0  0
 38 63  1  0  0  0  0
 38 69  1  0  0  0  0
 38 81  2  0  0  0  0
 39 64  1  0  0  0  0
 39 74  1  0  0  0  0
 39 82  2  0  0  0  0
 40 70  1  0  0  0  0
 40 75  1  0  0  0  0
 40 83  2  0  0  0  0
 41 45  1  0  0  0  0
 42 54  1  0  0  0  0
 43 69  1  0  0  0  0
 44 46  1  0  0  0  0
 45 48  1  0  0  0  0
 46 53  1  0  0  0  0
 47 49  1  0  0  0  0
 47 50  1  0  0  0  0
 48 52  1  0  0  0  0
 49 55  1  0  0  0  0
 50 70  1  0  0  0  0
 51 55  1  0  0  0  0
 51 70  1  0  0  0  0
 52 73  1  0  0  0  0
 53 62  1  0  0  0  0
 54 69  1  0  0  0  0
 55 67  1  0  0  0  0
 56 64  1  0  0  0  0
 57 65  1  0  0  0  0
 58 65  1  0  0  0  0
 59 65  1  0  0  0  0
 60 75  1  0  0  0  0
 61 76  1  0  0  0  0
 62 85  1  0  0  0  0
 63 65  1  0  0  0  0
 63 74  1  0  0  0  0
 64 76  1  0  0  0  0
 66 67  1  0  0  0  0
M  CHG  1  76   1
M  ISO  4  40 100  62 101  75 100  85 101
M  END
> <Batch ID>
0099

> <Smiles>
CNC(C)C(=O)NC(C(=O)N1Cc2cc([101O:1][101CH2:1]C3CCC(=O)N(c4ccc([100N:0](C)[100C:0](=O)N5CCCC(n6nc(-c7ccc(Oc8ccc(F)cc8F)cc7)c(C(N)=O)c6N)C5)c(F)c4)C3=O)ccc2CC1C(=O)NC1CCCc2ccccc21)C(C)(C)C

> <Shape>
0.267

> <Color>
0.101

> <Negative vol penalty>
0.000

$$$$

  -OEChem-04052300543D

 87 96  0     1  0  0  0  0  0999 V2000
  -17.9467  -26.6617   22.6373 C   0  0  0  0  0  0  0  0  0  0  0  0
  -18.9863  -26.5137   21.7247 C   0  0  0  0  0  0  0  0  0  0  0  0
  -32.4104  -10.8444   17.4075 C   0  0  0  0  0  0  0  0  0  0  0  0
  -30.3148   -9.7025   17.0312 C   0  0  0  0  0  0  0  0  0  0  0  0
  -17.7686  -27.8762   23.2985 C   0  0  0  0  0  0  0  0  0  0  0  0
  -19.8478  -27.5806   21.4720 C   0  0  0  0  0  0  0  0  0  0  0  0
  -24.7102  -26.1692   21.3715 C   0  0  0  0  0  0  0  0  0  0  0  0
  -32.8882  -10.3703   16.1858 C   0  0  0  0  0  0  0  0  0  0  0  0
  -30.7925   -9.2284   15.8094 C   0  0  0  0  0  0  0  0  0  0  0  0
  -25.1659  -25.5368   20.2155 C   0  0  0  0  0  0  0  0  0  0  0  0
  -32.8428   -6.7705   14.7206 C   0  0  0  0  0  0  0  0  0  0  0  0
  -32.6240   -5.4269   14.4165 C   0  0  0  0  0  0  0  0  0  0  0  0
  -26.1374  -27.6149   19.4689 C   0  0  0  0  0  0  0  0  0  0  0  0
  -29.6472  -19.8947   19.1322 C   0  0  0  0  0  0  0  0  0  0  0  0
  -27.0735  -18.9228   19.5949 C   0  0  0  0  0  0  0  0  0  0  0  0
  -31.3722   -6.0748   12.4544 C   0  0  0  0  0  0  0  0  0  0  0  0
  -31.1237  -10.5104   17.8303 C   0  0  0  0  0  0  0  0  0  0  0  0
  -31.1759  -10.7627   20.3682 C   0  0  0  0  0  0  0  0  0  0  0  0
  -18.6343  -28.9555   23.0609 C   0  0  0  0  0  0  0  0  0  0  0  0
  -24.9557  -27.5340   21.5801 C   0  0  0  0  0  0  0  0  0  0  0  0
  -19.6804  -28.8111   22.1297 C   0  0  0  0  0  0  0  0  0  0  0  0
  -25.6859  -28.2616   20.6296 C   0  0  0  0  0  0  0  0  0  0  0  0
  -28.5414  -20.7154   18.9100 C   0  0  0  0  0  0  0  0  0  0  0  0
  -29.4661  -18.5881   19.5856 C   0  0  0  0  0  0  0  0  0  0  0  0
  -28.1793  -18.1022   19.8170 C   0  0  0  0  0  0  0  0  0  0  0  0
  -32.0792   -9.5623   15.3868 C   0  0  0  0  0  0  0  0  0  0  0  0
  -25.8771  -26.2603   19.2627 C   0  0  0  0  0  0  0  0  0  0  0  0
  -32.3262   -7.7663   13.8916 C   0  0  0  0  0  0  0  0  0  0  0  0
  -31.8887   -5.0790   13.2834 C   0  0  0  0  0  0  0  0  0  0  0  0
  -27.2546  -20.2295   19.1414 C   0  0  0  0  0  0  0  0  0  0  0  0
  -31.5909   -7.4184   12.7585 C   0  0  0  0  0  0  0  0  0  0  0  0
  -30.6299  -10.9994   19.0925 C   0  0  0  0  0  0  0  0  0  0  0  0
  -30.3465  -11.4406   21.2279 C   0  0  0  0  0  0  0  0  0  0  0  0
  -29.7243  -24.2374   18.7016 C   0  0  0  0  0  0  0  0  0  0  0  0
  -32.3297   -9.9984   20.7428 C   0  0  0  0  0  0  0  0  0  0  0  0
  -23.1316  -30.1146   21.9217 C   0  0  0  0  0  0  0  0  0  0  0  0
  -25.9681  -31.5585   22.5476 C   0  0  0  0  0  0  0  0  0  0  0  0
  -29.3229  -31.4578   21.2239 C   0  0  0  0  0  0  0  0  0  0  0  0
  -26.7489  -16.1638   20.5542 C   0  0  0  0  0  0  0  0  0  0  0  0
  -18.3734  -30.2638   23.7645 C   0  0  0  0  0  0  0  0  0  0  0  0
  -24.4805  -28.1952   22.8448 C   0  0  0  0  0  0  0  0  0  0  0  0
  -25.9935  -29.7242   20.8156 C   0  0  0  0  0  0  0  0  0  0  0  0
  -29.0042  -24.7382   17.4725 C   0  0  0  0  0  0  0  0  0  0  0  0
  -29.9443  -22.7463   18.8202 C   0  0  0  0  0  0  0  0  0  0  0  0
  -19.5572  -31.2265   23.7189 C   0  0  0  0  0  0  0  0  0  0  0  0
  -25.8122  -12.9160   21.6728 C   0  0  0  0  0  0  0  0  0  0  0  0
  -20.1283  -31.3039   22.3065 C   0  0  0  0  0  0  0  0  0  0  0  0
  -26.9938  -12.0355   21.2596 C   0  0  0  0  0  0  0  0  0  0  0  0
  -25.5255  -14.0026   20.6380 C   0  0  0  0  0  0  0  0  0  0  0  0
  -28.0580  -22.4231   17.2076 C   0  0  0  0  0  0  0  0  0  0  0  0
  -27.8622  -13.9517   19.8593 C   0  0  0  0  0  0  0  0  0  0  0  0
  -20.6509  -29.9374   21.8471 C   0  0  1  0  0  0  0  0  0  0  0  0
  -24.3430  -29.7088   22.7125 C   0  0  1  0  0  0  0  0  0  0  0  0
  -27.7378  -23.9232   17.2184 C   0  0  1  0  0  0  0  0  0  0  0  0
  -28.2302  -12.8832   20.9016 C   0  0  2  0  0  0  0  0  0  0  0  0
  -31.5258  -31.9440   22.3230 C   0  0  0  0  0  0  0  0  0  0  0  0
  -25.5803  -34.3683   21.4229 C   0  0  0  0  0  0  0  0  0  0  0  0
  -28.0366  -34.4399   20.9435 C   0  0  0  0  0  0  0  0  0  0  0  0
  -27.2325  -34.2123   23.2939 C   0  0  0  0  0  0  0  0  0  0  0  0
  -30.4107  -28.8079   20.4798 C   0  0  0  0  0  0  0  0  0  0  0  0
  -26.6373  -24.2572   18.2304 C   0  0  0  0  0  0  0  0  0  1  0  0
  -27.0233  -32.2475   21.7166 C   0  0  1  0  0  0  0  0  0  0  0  0
  -30.5471  -30.8616   21.8949 C   0  0  2  0  0  0  0  0  0  0  0  0
  -26.9519  -33.7963   21.8334 C   0  0  0  0  0  0  0  0  0  0  0  0
  -29.5380  -11.7676   19.1333 N   0  0  0  0  0  0  0  0  0  0  0  0
  -29.3911  -12.0194   20.4453 N   0  0  0  0  0  0  0  0  0  0  0  0
  -28.7251  -22.0258   18.4541 N   0  0  1  0  0  0  0  0  0  0  0  0
  -25.5020  -30.3272   22.0656 N   0  0  0  0  0  0  0  0  0  0  0  0
  -26.7411  -14.7675   20.3518 N   0  0  0  0  0  0  0  0  0  0  0  0
  -30.5999  -17.7732   19.8035 N   0  0  0  0  0  0  0  0  0  0  0  0
  -30.3485  -11.5922   22.5693 N   0  0  0  0  0  0  0  0  0  0  0  0
  -33.0690   -9.3665   19.7335 N   0  0  0  0  0  0  0  0  0  0  0  0
  -27.9697  -16.7794   20.2798 N   0  0  0  0  0  0  0  0  0  0  0  0
  -21.9377  -29.6601   22.4485 N   0  0  0  0  0  0  0  0  0  0  0  0
  -28.3020  -31.6758   22.1247 N   0  0  0  0  0  0  0  0  0  0  0  0
  -31.2494  -29.9351   20.9624 N   0  3  0  0  0  0  0  0  0  0  0  0
  -30.2114  -25.0211   19.5169 O   0  0  0  0  0  0  0  0  0  0  0  0
  -32.6848   -9.8657   21.9385 O   0  0  0  0  0  0  0  0  0  0  0  0
  -23.2696  -30.7913   20.9095 O   0  0  0  0  0  0  0  0  0  0  0  0
  -25.5770  -32.0898   23.5900 O   0  0  0  0  0  0  0  0  0  0  0  0
  -29.2782  -31.7087   20.0216 O   0  0  0  0  0  0  0  0  0  0  0  0
  -25.7545  -16.7651   20.9683 O   0  0  0  0  0  0  0  0  0  0  0  0
  -32.5450   -9.0997   14.1944 O   0  0  0  0  0  0  0  0  0  0  0  0
  -26.3224  -25.6457   18.1332 O   0  0  0  0  0  0  0  0  0  1  0  0
  -31.6800   -3.7887   12.9907 F   0  0  0  0  0  0  0  0  0  0  0  0
  -26.1849  -21.0104   18.9335 F   0  0  0  0  0  0  0  0  0  0  0  0
  -31.0932   -8.3706   11.9576 F   0  0  0  0  0  0  0  0  0  0  0  0
  1  2  1  0  0  0  0
  1  5  2  0  0  0  0
  2  6  2  0  0  0  0
  3  8  2  0  0  0  0
  3 17  1  0  0  0  0
  4  9  1  0  0  0  0
  4 17  2  0  0  0  0
  5 19  1  0  0  0  0
  6 21  1  0  0  0  0
  7 10  2  0  0  0  0
  7 20  1  0  0  0  0
  8 26  1  0  0  0  0
  9 26  2  0  0  0  0
 10 27  1  0  0  0  0
 11 12  2  0  0  0  0
 11 28  1  0  0  0  0
 12 29  1  0  0  0  0
 13 22  1  0  0  0  0
 13 27  2  0  0  0  0
 14 23  1  0  0  0  0
 14 24  2  0  0  0  0
 15 25  2  0  0  0  0
 15 30  1  0  0  0  0
 16 29  2  0  0  0  0
 16 31  1  0  0  0  0
 17 32  1  0  0  0  0
 18 32  1  0  0  0  0
 18 33  2  0  0  0  0
 18 35  1  0  0  0  0
 19 21  2  0  0  0  0
 19 40  1  0  0  0  0
 20 22  2  0  0  0  0
 20 41  1  0  0  0  0
 21 52  1  0  0  0  0
 22 42  1  0  0  0  0
 23 30  2  0  0  0  0
 23 67  1  0  0  0  0
 24 25  1  0  0  0  0
 24 70  1  0  0  0  0
 25 73  1  0  0  0  0
 26 83  1  0  0  0  0
 27 84  1  0  0  0  0
 28 31  2  0  0  0  0
 28 83  1  0  0  0  0
 29 85  1  0  0  0  0
 30 86  1  0  0  0  0
 31 87  1  0  0  0  0
 32 65  2  0  0  0  0
 33 66  1  0  0  0  0
 33 71  1  0  0  0  0
 34 43  1  0  0  0  0
 34 44  1  0  0  0  0
 34 77  2  0  0  0  0
 35 72  1  0  0  0  0
 35 78  2  0  0  0  0
 36 53  1  0  0  0  0
 36 74  1  0  0  0  0
 36 79  2  0  0  0  0
 37 62  1  0  0  0  0
 37 68  1  0  0  0  0
 37 80  2  0  0  0  0
 38 63  1  0  0  0  0
 38 75  1  0  0  0  0
 38 81  2  0  0  0  0
 39 69  1  0  0  0  0
 39 73  1  0  0  0  0
 39 82  2  0  0  0  0
 40 45  1  0  0  0  0
 41 53  1  0  0  0  0
 42 68  1  0  0  0  0
 43 54  1  0  0  0  0
 44 67  1  0  0  0  0
 45 47  1  0  0  0  0
 46 48  1  0  0  0  0
 46 49  1  0  0  0  0
 47 52  1  0  0  0  0
 48 55  1  0  0  0  0
 49 69  1  0  0  0  0
 50 54  1  0  0  0  0
 50 67  1  0  0  0  0
 51 55  1  0  0  0  0
 51 69  1  0  0  0  0
 52 74  1  0  0  0  0
 53 68  1  0  0  0  0
 54 61  1  0  0  0  0
 55 66  1  0  0  0  0
 56 63  1  0  0  0  0
 57 64  1  0  0  0  0
 58 64  1  0  0  0  0
 59 64  1  0  0  0  0
 60 76  1  0  0  0  0
 61 84  1  0  0  0  0
 62 64  1  0  0  0  0
 62 75  1  0  0  0  0
 63 76  1  0  0  0  0
 65 66  1  0  0  0  0
M  CHG  1  76   1
M  ISO  4  39 100  61 101  73 100  84 101
M  END
> <Batch ID>
0099

> <Smiles>
CNC(C)C(=O)NC(C(=O)N1Cc2cc([101O:1][101CH2:1]C3CC(=O)CN(c4cc(N)c([100NH:0][100C:0](=O)N5CCCC(n6nc(-c7ccc(Oc8ccc(F)cc8F)cc7)c(C(N)=O)c6N)C5)cc4F)C3)ccc2CC1C(=O)NC1CCCc2ccccc21)C(C)(C)C

> <Shape>
0.264

> <Color>
0.062

> <Negative vol penalty>
0.000

$$$$

  -OEChem-04052300543D

 85 94  0     1  0  0  0  0  0999 V2000
  -25.6641  -35.2276   21.7995 C   0  0  0  0  0  0  0  0  0  0  0  0
  -26.2675  -33.9744   21.7692 C   0  0  0  0  0  0  0  0  0  0  0  0
  -22.1976  -10.6745   22.6553 C   0  0  0  0  0  0  0  0  0  0  0  0
  -23.5091  -10.5411   20.6306 C   0  0  0  0  0  0  0  0  0  0  0  0
  -24.3894  -35.3732   22.3451 C   0  0  0  0  0  0  0  0  0  0  0  0
  -25.5968  -32.8663   22.2855 C   0  0  0  0  0  0  0  0  0  0  0  0
  -25.9146  -28.8190   19.2583 C   0  0  0  0  0  0  0  0  0  0  0  0
  -26.9780  -21.2707   17.4563 C   0  0  0  0  0  0  0  0  0  0  0  0
  -25.9413  -20.5755   18.0788 C   0  0  0  0  0  0  0  0  0  0  0  0
  -21.7894   -9.3526   22.4780 C   0  0  0  0  0  0  0  0  0  0  0  0
  -23.1010   -9.2191   20.4534 C   0  0  0  0  0  0  0  0  0  0  0  0
  -27.1080  -28.0986   19.2817 C   0  0  0  0  0  0  0  0  0  0  0  0
  -20.6892   -5.8987   22.7522 C   0  0  0  0  0  0  0  0  0  0  0  0
  -20.7114   -5.0583   23.8652 C   0  0  0  0  0  0  0  0  0  0  0  0
  -26.0882  -26.4682   20.7381 C   0  0  0  0  0  0  0  0  0  0  0  0
  -28.5928  -20.0043   18.7314 C   0  0  0  0  0  0  0  0  0  0  0  0
  -23.0893   -5.4210   24.0916 C   0  0  0  0  0  0  0  0  0  0  0  0
  -23.0574  -11.2688   21.7315 C   0  0  0  0  0  0  0  0  0  0  0  0
  -24.6110  -13.0882   22.6169 C   0  0  0  0  0  0  0  0  0  0  0  0
  -23.6988  -34.2646   22.8596 C   0  0  0  0  0  0  0  0  0  0  0  0
  -24.8005  -28.3745   19.9847 C   0  0  0  0  0  0  0  0  0  0  0  0
  -24.3121  -32.9974   22.8397 C   0  0  0  0  0  0  0  0  0  0  0  0
  -24.8811  -27.1834   20.7202 C   0  0  0  0  0  0  0  0  0  0  0  0
  -28.3038  -20.9851   17.7826 C   0  0  0  0  0  0  0  0  0  0  0  0
  -26.2303  -19.5947   19.0276 C   0  0  0  0  0  0  0  0  0  0  0  0
  -22.2411   -8.6248   21.3771 C   0  0  0  0  0  0  0  0  0  0  0  0
  -27.1959  -26.9245   20.0240 C   0  0  0  0  0  0  0  0  0  0  0  0
  -21.8671   -6.5001   22.3087 C   0  0  0  0  0  0  0  0  0  0  0  0
  -21.9114   -4.8195   24.5350 C   0  0  0  0  0  0  0  0  0  0  0  0
  -27.5561  -19.3091   19.3539 C   0  0  0  0  0  0  0  0  0  0  0  0
  -23.0671   -6.2613   22.9785 C   0  0  0  0  0  0  0  0  0  0  0  0
  -23.4789  -12.6345   21.9138 C   0  0  0  0  0  0  0  0  0  0  0  0
  -24.5651  -14.4556   22.4961 C   0  0  0  0  0  0  0  0  0  0  0  0
  -25.6144  -12.3404   23.3167 C   0  0  0  0  0  0  0  0  0  0  0  0
  -23.0679  -29.5492   22.3767 C   0  0  0  0  0  0  0  0  0  0  0  0
  -21.2197  -26.9465   21.8003 C   0  0  0  0  0  0  0  0  0  0  0  0
  -20.9828  -23.7819   20.5448 C   0  0  0  0  0  0  0  0  0  0  0  0
  -23.8062  -19.0534   19.4485 C   0  0  0  0  0  0  0  0  0  0  0  0
  -22.3420  -34.4795   23.4822 C   0  0  0  0  0  0  0  0  0  0  0  0
  -23.5123  -29.1488   19.9276 C   0  0  0  0  0  0  0  0  0  0  0  0
  -23.7075  -26.6526   21.5009 C   0  0  0  0  0  0  0  0  0  0  0  0
  -21.5461  -33.1903   23.6682 C   0  0  0  0  0  0  0  0  0  0  0  0
  -20.8962  -17.4890   20.7758 C   0  0  0  0  0  0  0  0  0  0  0  0
  -22.4239  -32.1050   24.2833 C   0  0  0  0  0  0  0  0  0  0  0  0
  -21.4018  -16.1239   21.2480 C   0  0  0  0  0  0  0  0  0  0  0  0
  -30.8833  -24.9717   17.5431 C   0  0  0  0  0  0  0  0  0  0  0  0
  -21.5872  -17.9355   19.4886 C   0  0  0  0  0  0  0  0  0  0  0  0
  -23.5606  -16.5546   20.0065 C   0  0  0  0  0  0  0  0  0  0  0  0
  -31.2158  -23.4988   17.3696 C   0  0  0  0  0  0  0  0  0  0  0  0
  -29.0847  -23.7911   18.5302 C   0  0  0  0  0  0  0  0  0  0  0  0
  -23.6065  -31.7671   23.3675 C   0  0  1  0  0  0  0  0  0  0  0  0
  -22.5981  -28.8763   21.1181 C   0  0  1  0  0  0  0  0  0  0  0  0
  -29.9709  -25.0030   18.7613 C   0  0  2  0  0  0  0  0  0  0  0  0
  -22.9403  -16.0921   21.3350 C   0  0  2  0  0  0  0  0  0  0  0  0
  -19.3535  -21.8960   20.2510 C   0  0  0  0  0  0  0  0  0  0  0  0
  -21.4945  -26.2514   24.7585 C   0  0  0  0  0  0  0  0  0  0  0  0
  -20.6896  -23.9428   24.2193 C   0  0  0  0  0  0  0  0  0  0  0  0
  -19.2047  -25.9059   23.8141 C   0  0  0  0  0  0  0  0  0  0  0  0
  -21.2284  -23.8751   17.5969 C   0  0  0  0  0  0  0  0  0  0  0  0
  -29.4191  -21.7335   17.1141 C   0  0  0  0  0  0  0  0  0  0  0  0
  -29.1880  -26.2921   18.8893 C   0  0  0  0  0  0  0  0  0  1  0  0
  -21.1930  -25.5223   22.3002 C   0  0  1  0  0  0  0  0  0  0  0  0
  -19.9643  -23.1382   19.6213 C   0  0  2  0  0  0  0  0  0  0  0  0
  -20.6683  -25.4164   23.7600 C   0  0  0  0  0  0  0  0  0  0  0  0
  -22.7658  -13.6328   21.3855 N   0  0  0  0  0  0  0  0  0  0  0  0
  -23.4515  -14.7273   21.7570 N   0  0  0  0  0  0  0  0  0  0  0  0
  -22.4719  -27.4487   21.4187 N   0  0  0  0  0  0  0  0  0  0  0  0
  -23.0423  -17.8838   19.6469 N   0  0  0  0  0  0  0  0  0  0  0  0
  -25.3689  -15.4400   22.9511 N   0  0  0  0  0  0  0  0  0  0  0  0
  -25.5100  -10.9430   23.3421 N   0  0  0  0  0  0  0  0  0  0  0  0
  -25.1751  -18.8904   19.6587 N   0  0  0  0  0  0  0  0  0  0  0  0
  -23.1741  -30.9231   22.2743 N   0  0  0  0  0  0  0  0  0  0  0  0
  -20.4133  -24.7631   21.3285 N   0  0  0  0  0  0  0  0  0  0  0  0
  -30.0535  -22.7553   18.0017 N   0  3  1  0  0  0  0  0  0  0  0  0
  -20.6066  -22.7457   18.3351 N   0  3  0  0  0  0  0  0  0  0  0  0
  -26.5661  -12.8959   23.9161 O   0  0  0  0  0  0  0  0  0  0  0  0
  -23.3144  -28.8721   23.3680 O   0  0  0  0  0  0  0  0  0  0  0  0
  -20.1672  -27.5873   21.7435 O   0  0  0  0  0  0  0  0  0  0  0  0
  -22.1645  -23.4452   20.5712 O   0  0  0  0  0  0  0  0  0  0  0  0
  -23.2814  -20.1273   19.1431 O   0  0  0  0  0  0  0  0  0  0  0  0
  -21.8433   -7.3348   21.2040 O   0  0  0  0  0  0  0  0  0  0  0  0
  -28.3597  -26.2197   20.0490 O   0  0  0  0  0  0  0  0  0  1  0  0
  -21.9322   -4.0137   25.6048 F   0  0  0  0  0  0  0  0  0  0  0  0
  -27.8454  -18.3696   20.2655 F   0  0  0  0  0  0  0  0  0  0  0  0
  -24.2017   -6.8372   22.5579 F   0  0  0  0  0  0  0  0  0  0  0  0
  1  2  1  0  0  0  0
  1  5  2  0  0  0  0
  2  6  2  0  0  0  0
  3 10  2  0  0  0  0
  3 18  1  0  0  0  0
  4 11  1  0  0  0  0
  4 18  2  0  0  0  0
  5 20  1  0  0  0  0
  6 22  1  0  0  0  0
  7 12  2  0  0  0  0
  7 21  1  0  0  0  0
  8  9  2  0  0  0  0
  8 24  1  0  0  0  0
  9 25  1  0  0  0  0
 10 26  1  0  0  0  0
 11 26  2  0  0  0  0
 12 27  1  0  0  0  0
 13 14  2  0  0  0  0
 13 28  1  0  0  0  0
 14 29  1  0  0  0  0
 15 23  1  0  0  0  0
 15 27  2  0  0  0  0
 16 24  2  0  0  0  0
 16 30  1  0  0  0  0
 17 29  2  0  0  0  0
 17 31  1  0  0  0  0
 18 32  1  0  0  0  0
 19 32  1  0  0  0  0
 19 33  2  0  0  0  0
 19 34  1  0  0  0  0
 20 22  2  0  0  0  0
 20 39  1  0  0  0  0
 21 23  2  0  0  0  0
 21 40  1  0  0  0  0
 22 51  1  0  0  0  0
 23 41  1  0  0  0  0
 24 60  1  0  0  0  0
 25 30  2  0  0  0  0
 25 71  1  0  0  0  0
 26 81  1  0  0  0  0
 27 82  1  0  0  0  0
 28 31  2  0  0  0  0
 28 81  1  0  0  0  0
 29 83  1  0  0  0  0
 30 84  1  0  0  0  0
 31 85  1  0  0  0  0
 32 65  2  0  0  0  0
 33 66  1  0  0  0  0
 33 69  1  0  0  0  0
 34 70  1  0  0  0  0
 34 76  2  0  0  0  0
 35 52  1  0  0  0  0
 35 72  1  0  0  0  0
 35 77  2  0  0  0  0
 36 62  1  0  0  0  0
 36 67  1  0  0  0  0
 36 78  2  0  0  0  0
 37 63  1  0  0  0  0
 37 73  1  0  0  0  0
 37 79  2  0  0  0  0
 38 68  1  0  0  0  0
 38 71  1  0  0  0  0
 38 80  2  0  0  0  0
 39 42  1  0  0  0  0
 40 52  1  0  0  0  0
 41 67  1  0  0  0  0
 42 44  1  0  0  0  0
 43 45  1  0  0  0  0
 43 47  1  0  0  0  0
 44 51  1  0  0  0  0
 45 54  1  0  0  0  0
 46 49  1  0  0  0  0
 46 53  1  0  0  0  0
 47 68  1  0  0  0  0
 48 54  1  0  0  0  0
 48 68  1  0  0  0  0
 49 74  1  0  0  0  0
 50 53  1  0  0  0  0
 50 74  1  0  0  0  0
 51 72  1  0  0  0  0
 52 67  1  0  0  0  0
 53 61  1  0  0  0  0
 54 66  1  0  0  0  0
 55 63  1  0  0  0  0
 56 64  1  0  0  0  0
 57 64  1  0  0  0  0
 58 64  1  0  0  0  0
 59 75  1  0  0  0  0
 60 74  1  0  0  0  0
 61 82  1  0  0  0  0
 62 64  1  0  0  0  0
 62 73  1  0  0  0  0
 63 75  1  0  0  0  0
 65 66  1  0  0  0  0
M  CHG  2  74   1  75   1
M  ISO  4  38 100  61 101  71 100  82 101
M  END
> <Batch ID>
0099

> <Smiles>
CNC(C)C(=O)NC(C(=O)N1Cc2cc([101O:1][101CH2:1]C3CCN(Cc4ccc([100NH:0][100C:0](=O)N5CCCC(n6nc(-c7ccc(Oc8ccc(F)cc8F)cc7)c(C(N)=O)c6N)C5)c(F)c4)C3)ccc2CC1C(=O)NC1CCCc2ccccc21)C(C)(C)C

> <Shape>
0.243

> <Color>
0.087

> <Negative vol penalty>
0.000

$$$$

  -OEChem-04052300543D

 88 97  0     1  0  0  0  0  0999 V2000
  -29.6203  -36.6299   22.7577 C   0  0  0  0  0  0  0  0  0  0  0  0
  -29.7929  -35.3651   22.2044 C   0  0  0  0  0  0  0  0  0  0  0  0
  -22.0723  -12.9294   22.3068 C   0  0  0  0  0  0  0  0  0  0  0  0
  -23.4365  -11.2037   23.3057 C   0  0  0  0  0  0  0  0  0  0  0  0
  -28.6791  -36.8252   23.7676 C   0  0  0  0  0  0  0  0  0  0  0  0
  -29.0250  -34.2947   22.6615 C   0  0  0  0  0  0  0  0  0  0  0  0
  -26.9244  -29.5914   19.3491 C   0  0  0  0  0  0  0  0  0  0  0  0
  -21.0485  -12.6428   23.2097 C   0  0  0  0  0  0  0  0  0  0  0  0
  -22.4127  -10.9171   24.2087 C   0  0  0  0  0  0  0  0  0  0  0  0
  -27.3874  -28.2884   19.1714 C   0  0  0  0  0  0  0  0  0  0  0  0
  -19.4856   -9.2250   24.2014 C   0  0  0  0  0  0  0  0  0  0  0  0
  -19.1723   -7.8838   24.4216 C   0  0  0  0  0  0  0  0  0  0  0  0
  -25.8721  -27.5225   20.8850 C   0  0  0  0  0  0  0  0  0  0  0  0
  -28.2130  -20.7444   21.1059 C   0  0  0  0  0  0  0  0  0  0  0  0
  -29.8721  -19.8553   19.5913 C   0  0  0  0  0  0  0  0  0  0  0  0
  -19.7077   -8.1431   26.7632 C   0  0  0  0  0  0  0  0  0  0  0  0
  -23.2663  -12.2098   22.3547 C   0  0  0  0  0  0  0  0  0  0  0  0
  -24.2644  -12.4296   20.0174 C   0  0  0  0  0  0  0  0  0  0  0  0
  -27.8926  -35.7586   24.2306 C   0  0  0  0  0  0  0  0  0  0  0  0
  -25.9378  -29.8719   20.3054 C   0  0  0  0  0  0  0  0  0  0  0  0
  -28.0734  -34.4756   23.6795 C   0  0  0  0  0  0  0  0  0  0  0  0
  -25.3964  -28.8295   21.0711 C   0  0  0  0  0  0  0  0  0  0  0  0
  -28.1120  -19.4992   21.7262 C   0  0  0  0  0  0  0  0  0  0  0  0
  -29.0930  -20.9225   20.0384 C   0  0  0  0  0  0  0  0  0  0  0  0
  -29.7711  -18.6101   20.2116 C   0  0  0  0  0  0  0  0  0  0  0  0
  -28.8910  -18.4320   21.2791 C   0  0  0  0  0  0  0  0  0  0  0  0
  -21.2187  -11.6367   24.1607 C   0  0  0  0  0  0  0  0  0  0  0  0
  -26.8634  -27.2542   19.9414 C   0  0  0  0  0  0  0  0  0  0  0  0
  -19.9101  -10.0253   25.2622 C   0  0  0  0  0  0  0  0  0  0  0  0
  -19.2833   -7.3428   25.7025 C   0  0  0  0  0  0  0  0  0  0  0  0
  -20.0211   -9.4844   26.5430 C   0  0  0  0  0  0  0  0  0  0  0  0
  -24.3240  -12.5050   21.4219 C   0  0  0  0  0  0  0  0  0  0  0  0
  -25.5172  -12.8072   19.5998 C   0  0  0  0  0  0  0  0  0  0  0  0
  -30.9200  -23.8744   20.9832 C   0  0  0  0  0  0  0  0  0  0  0  0
  -23.1740  -12.0521   19.1663 C   0  0  0  0  0  0  0  0  0  0  0  0
  -25.8021  -31.6590   22.9306 C   0  0  0  0  0  0  0  0  0  0  0  0
  -22.6698  -30.8180   22.8711 C   0  0  0  0  0  0  0  0  0  0  0  0
  -20.7569  -27.8330   22.2019 C   0  0  0  0  0  0  0  0  0  0  0  0
  -29.7834  -16.2035   22.0430 C   0  0  0  0  0  0  0  0  0  0  0  0
  -26.9212  -36.0084   25.3570 C   0  0  0  0  0  0  0  0  0  0  0  0
  -25.4299  -31.2785   20.4663 C   0  0  0  0  0  0  0  0  0  0  0  0
  -24.3212  -29.0748   22.0969 C   0  0  0  0  0  0  0  0  0  0  0  0
  -31.4746  -23.0423   19.8410 C   0  0  0  0  0  0  0  0  0  0  0  0
  -29.7687  -24.8192   20.7068 C   0  0  0  0  0  0  0  0  0  0  0  0
  -25.8847  -34.9004   25.5244 C   0  0  0  0  0  0  0  0  0  0  0  0
  -30.0930  -12.8094   21.0128 C   0  0  0  0  0  0  0  0  0  0  0  0
  -26.5554  -33.5311   25.4821 C   0  0  0  0  0  0  0  0  0  0  0  0
  -28.6433  -12.3411   20.8671 C   0  0  0  0  0  0  0  0  0  0  0  0
  -30.4447  -22.6216   18.7958 C   0  0  0  0  0  0  0  0  0  0  0  0
  -30.2633  -13.7697   22.1887 C   0  0  0  0  0  0  0  0  0  0  0  0
  -28.1562  -23.1984   19.5638 C   0  0  0  0  0  0  0  0  0  0  0  0
  -27.9004  -14.4514   22.0426 C   0  0  0  0  0  0  0  0  0  0  0  0
  -27.2420  -33.2946   24.1314 C   0  0  1  0  0  0  0  0  0  0  0  0
  -24.7896  -31.5305   21.8279 C   0  0  1  0  0  0  0  0  0  0  0  0
  -28.4163  -24.0964   20.7883 C   0  0  2  0  0  0  0  0  0  0  0  0
  -27.6668  -13.5331   20.8319 C   0  0  2  0  0  0  0  0  0  0  0  0
  -27.1600  -19.3398   22.8673 C   0  0  0  0  0  0  0  0  0  0  0  0
  -18.4091  -27.5541   21.3606 C   0  0  0  0  0  0  0  0  0  0  0  0
  -21.9378  -30.6558   25.8287 C   0  0  0  0  0  0  0  0  0  0  0  0
  -20.2615  -28.8901   25.2454 C   0  0  0  0  0  0  0  0  0  0  0  0
  -20.0252  -31.1898   24.3085 C   0  0  0  0  0  0  0  0  0  0  0  0
  -21.6425  -26.1283   19.9505 C   0  0  0  0  0  0  0  0  0  0  0  0
  -27.2879  -25.1245   20.9110 C   0  0  0  0  0  0  0  0  0  1  0  0
  -21.8574  -29.6798   23.4398 C   0  0  1  0  0  0  0  0  0  0  0  0
  -19.8838  -27.5660   20.9891 C   0  0  2  0  0  0  0  0  0  0  0  0
  -21.0479  -30.1006   24.6988 C   0  0  0  0  0  0  0  0  0  0  0  0
  -25.5200  -12.8993   21.8668 N   0  0  0  0  0  0  0  0  0  0  0  0
  -26.2236  -13.0750   20.7353 N   0  0  0  0  0  0  0  0  0  0  0  0
  -29.1940  -22.1684   19.4177 N   0  0  3  0  0  0  0  0  0  0  0  0
  -23.8620  -30.4680   22.2216 N   0  0  0  0  0  0  0  0  0  0  0  0
  -29.3086  -14.8755   22.0860 N   0  0  0  0  0  0  0  0  0  0  0  0
  -30.5704  -17.5438   19.7411 N   0  0  0  0  0  0  0  0  0  0  0  0
  -26.0725  -12.9327   18.3757 N   0  0  0  0  0  0  0  0  0  0  0  0
  -21.9564  -11.6928   19.7601 N   0  0  0  0  0  0  0  0  0  0  0  0
  -28.7855  -17.1686   21.9119 N   0  0  0  0  0  0  0  0  0  0  0  0
  -26.2652  -32.9468   23.1219 N   0  0  0  0  0  0  0  0  0  0  0  0
  -21.0377  -29.1755   22.3434 N   0  0  0  0  0  0  0  0  0  0  0  0
  -20.2266  -26.2479   20.3841 N   0  3  0  0  0  0  0  0  0  0  0  0
  -31.4211  -23.8058   22.1076 O   0  0  0  0  0  0  0  0  0  0  0  0
  -23.2815  -12.0181   17.9170 O   0  0  0  0  0  0  0  0  0  0  0  0
  -26.1372  -30.6637   23.5621 O   0  0  0  0  0  0  0  0  0  0  0  0
  -22.2580  -31.9745   22.9921 O   0  0  0  0  0  0  0  0  0  0  0  0
  -21.1474  -26.9403   22.9510 O   0  0  0  0  0  0  0  0  0  0  0  0
  -30.9884  -16.4637   22.0897 O   0  0  0  0  0  0  0  0  0  0  0  0
  -20.2200  -11.3569   25.0421 O   0  0  0  0  0  0  0  0  0  0  0  0
  -27.3140  -25.9816   19.7703 O   0  0  0  0  0  0  0  0  0  1  0  0
  -18.9810   -6.0552   25.9140 F   0  0  0  0  0  0  0  0  0  0  0  0
  -20.4271  -10.2485   27.5662 F   0  0  0  0  0  0  0  0  0  0  0  0
  1  2  1  0  0  0  0
  1  5  2  0  0  0  0
  2  6  2  0  0  0  0
  3  8  2  0  0  0  0
  3 17  1  0  0  0  0
  4  9  1  0  0  0  0
  4 17  2  0  0  0  0
  5 19  1  0  0  0  0
  6 21  1  0  0  0  0
  7 10  2  0  0  0  0
  7 20  1  0  0  0  0
  8 27  1  0  0  0  0
  9 27  2  0  0  0  0
 10 28  1  0  0  0  0
 11 12  2  0  0  0  0
 11 29  1  0  0  0  0
 12 30  1  0  0  0  0
 13 22  1  0  0  0  0
 13 28  2  0  0  0  0
 14 23  2  0  0  0  0
 14 24  1  0  0  0  0
 15 24  2  0  0  0  0
 15 25  1  0  0  0  0
 16 30  2  0  0  0  0
 16 31  1  0  0  0  0
 17 32  1  0  0  0  0
 18 32  1  0  0  0  0
 18 33  2  0  0  0  0
 18 35  1  0  0  0  0
 19 21  2  0  0  0  0
 19 40  1  0  0  0  0
 20 22  2  0  0  0  0
 20 41  1  0  0  0  0
 21 53  1  0  0  0  0
 22 42  1  0  0  0  0
 23 26  1  0  0  0  0
 23 57  1  0  0  0  0
 24 69  1  0  0  0  0
 25 26  2  0  0  0  0
 25 72  1  0  0  0  0
 26 75  1  0  0  0  0
 27 85  1  0  0  0  0
 28 86  1  0  0  0  0
 29 31  2  0  0  0  0
 29 85  1  0  0  0  0
 30 87  1  0  0  0  0
 31 88  1  0  0  0  0
 32 67  2  0  0  0  0
 33 68  1  0  0  0  0
 33 73  1  0  0  0  0
 34 43  1  0  0  0  0
 34 44  1  0  0  0  0
 34 79  2  0  0  0  0
 35 74  1  0  0  0  0
 35 80  2  0  0  0  0
 36 54  1  0  0  0  0
 36 76  1  0  0  0  0
 36 81  2  0  0  0  0
 37 64  1  0  0  0  0
 37 70  1  0  0  0  0
 37 82  2  0  0  0  0
 38 65  1  0  0  0  0
 38 77  1  0  0  0  0
 38 83  2  0  0  0  0
 39 71  1  0  0  0  0
 39 75  1  0  0  0  0
 39 84  2  0  0  0  0
 40 45  1  0  0  0  0
 41 54  1  0  0  0  0
 42 70  1  0  0  0  0
 43 49  1  0  0  0  0
 44 55  1  0  0  0  0
 45 47  1  0  0  0  0
 46 48  1  0  0  0  0
 46 50  1  0  0  0  0
 47 53  1  0  0  0  0
 48 56  1  0  0  0  0
 49 69  1  0  0  0  0
 50 71  1  0  0  0  0
 51 55  1  0  0  0  0
 51 69  1  0  0  0  0
 52 56  1  0  0  0  0
 52 71  1  0  0  0  0
 53 76  1  0  0  0  0
 54 70  1  0  0  0  0
 55 63  1  0  0  0  0
 56 68  1  0  0  0  0
 58 65  1  0  0  0  0
 59 66  1  0  0  0  0
 60 66  1  0  0  0  0
 61 66  1  0  0  0  0
 62 78  1  0  0  0  0
 63 86  1  0  0  0  0
 64 66  1  0  0  0  0
 64 77  1  0  0  0  0
 65 78  1  0  0  0  0
 67 68  1  0  0  0  0
M  CHG  1  78   1
M  ISO  4  39 100  63 101  75 100  86 101
M  END
> <Batch ID>
0099

> <Smiles>
CNC(C)C(=O)NC(C(=O)N1Cc2cc([101O:1][101CH2:1]C3CC(=O)CCN(c4cc(C)c([100NH:0][100C:0](=O)N5CCCC(n6nc(-c7ccc(Oc8ccc(F)cc8F)cc7)c(C(N)=O)c6N)C5)c(N)c4)C3)ccc2CC1C(=O)NC1CCCc2ccccc21)C(C)(C)C

> <Shape>
0.314

> <Color>
0.090

> <Negative vol penalty>
0.000

$$$$

  -OEChem-04052300543D

 83 91  0     1  0  0  0  0  0999 V2000
  -28.7955  -29.1325   13.0203 C   0  0  0  0  0  0  0  0  0  0  0  0
  -29.2197  -28.6333   14.2476 C   0  0  0  0  0  0  0  0  0  0  0  0
  -23.8251   -9.6500   21.3106 C   0  0  0  0  0  0  0  0  0  0  0  0
  -24.3920  -10.6258   23.4468 C   0  0  0  0  0  0  0  0  0  0  0  0
  -27.9791  -30.2617   12.9729 C   0  0  0  0  0  0  0  0  0  0  0  0
  -28.8286  -29.2637   15.4283 C   0  0  0  0  0  0  0  0  0  0  0  0
  -27.3222  -25.9802   18.9771 C   0  0  0  0  0  0  0  0  0  0  0  0
  -32.5261  -17.3663   22.0338 C   0  0  0  0  0  0  0  0  0  0  0  0
  -32.3926  -18.7461   21.8798 C   0  0  0  0  0  0  0  0  0  0  0  0
  -23.3163   -8.5250   21.9595 C   0  0  0  0  0  0  0  0  0  0  0  0
  -23.8832   -9.5008   24.0957 C   0  0  0  0  0  0  0  0  0  0  0  0
  -28.3167  -25.2998   19.6783 C   0  0  0  0  0  0  0  0  0  0  0  0
  -20.4925   -7.6648   23.6085 C   0  0  0  0  0  0  0  0  0  0  0  0
  -19.2632   -7.1676   23.1759 C   0  0  0  0  0  0  0  0  0  0  0  0
  -28.0624  -26.8379   21.5192 C   0  0  0  0  0  0  0  0  0  0  0  0
  -30.4012  -18.7060   23.2472 C   0  0  0  0  0  0  0  0  0  0  0  0
  -20.3070   -5.0565   22.6364 C   0  0  0  0  0  0  0  0  0  0  0  0
  -24.3630  -10.7004   22.0543 C   0  0  0  0  0  0  0  0  0  0  0  0
  -24.1888  -13.0329   21.0361 C   0  0  0  0  0  0  0  0  0  0  0  0
  -27.5699  -30.9006   14.1540 C   0  0  0  0  0  0  0  0  0  0  0  0
  -26.6969  -27.1030   19.5381 C   0  0  0  0  0  0  0  0  0  0  0  0
  -28.0071  -30.4034   15.3966 C   0  0  0  0  0  0  0  0  0  0  0  0
  -27.0585  -27.5292   20.8241 C   0  0  0  0  0  0  0  0  0  0  0  0
  -31.5972  -16.6562   22.7945 C   0  0  0  0  0  0  0  0  0  0  0  0
  -31.3301  -19.4160   22.4865 C   0  0  0  0  0  0  0  0  0  0  0  0
  -30.5347  -17.3261   23.4012 C   0  0  0  0  0  0  0  0  0  0  0  0
  -23.3453   -8.4504   23.3520 C   0  0  0  0  0  0  0  0  0  0  0  0
  -28.6890  -25.7304   20.9484 C   0  0  0  0  0  0  0  0  0  0  0  0
  -21.6291   -6.8580   23.5550 C   0  0  0  0  0  0  0  0  0  0  0  0
  -19.1705   -5.8634   22.6899 C   0  0  0  0  0  0  0  0  0  0  0  0
  -21.5364   -5.5538   23.0690 C   0  0  0  0  0  0  0  0  0  0  0  0
  -24.8893  -11.8626   21.3845 C   0  0  0  0  0  0  0  0  0  0  0  0
  -25.1287  -13.8265   20.4251 C   0  0  0  0  0  0  0  0  0  0  0  0
  -30.3448  -23.0041   22.5909 C   0  0  0  0  0  0  0  0  0  0  0  0
  -29.4579  -23.7479   21.9228 C   0  0  0  0  0  0  0  0  0  1  0  0
  -22.8117  -13.3724   21.2460 C   0  0  0  0  0  0  0  0  0  0  0  0
  -26.4786  -30.1753   18.7529 C   0  0  0  0  0  0  0  0  0  0  0  0
  -24.4268  -30.2696   21.2636 C   0  0  0  0  0  0  0  0  0  0  0  0
  -23.3879  -28.8949   24.2094 C   0  0  0  0  0  0  0  0  0  0  0  0
  -31.0976  -14.1070   20.8053 C   0  0  0  0  0  0  0  0  0  0  0  0
  -26.7259  -32.1463   14.0505 C   0  0  0  0  0  0  0  0  0  0  0  0
  -25.6071  -27.8098   18.7797 C   0  0  0  0  0  0  0  0  0  0  0  0
  -26.4036  -28.7168   21.4793 C   0  0  0  0  0  0  0  0  0  0  0  0
  -26.0493  -32.5343   15.3628 C   0  0  0  0  0  0  0  0  0  0  0  0
  -29.1629  -13.5597   17.8669 C   0  0  0  0  0  0  0  0  0  0  0  0
  -27.0450  -32.4688   16.5165 C   0  0  0  0  0  0  0  0  0  0  0  0
  -27.7851  -13.1683   18.4038 C   0  0  0  0  0  0  0  0  0  0  0  0
  -30.2869  -13.0058   18.7397 C   0  0  0  0  0  0  0  0  0  0  0  0
  -28.8053  -12.9527   20.7084 C   0  0  0  0  0  0  0  0  0  0  0  0
  -27.5837  -31.0449   16.7002 C   0  0  1  0  0  0  0  0  0  0  0  0
  -25.3983  -29.2501   19.2371 C   0  0  1  0  0  0  0  0  0  0  0  0
  -27.6385  -13.5353   19.8927 C   0  0  2  0  0  0  0  0  0  0  0  0
  -21.7132  -29.2155   26.0505 C   0  0  0  0  0  0  0  0  0  0  0  0
  -26.1033  -32.5582   22.3867 C   0  0  0  0  0  0  0  0  0  0  0  0
  -24.9892  -32.1960   24.5993 C   0  0  0  0  0  0  0  0  0  0  0  0
  -23.6320  -32.8651   22.6162 C   0  0  0  0  0  0  0  0  0  0  0  0
  -22.1266  -26.2711   23.6765 C   0  0  0  0  0  0  0  0  0  0  0  0
  -31.7642  -15.1789   22.9421 C   0  0  0  0  0  0  0  0  0  0  0  0
  -30.1327  -21.5614   22.9210 C   0  0  0  0  0  0  0  0  0  0  0  0
  -24.5626  -30.5180   22.7464 C   0  0  1  0  0  0  0  0  0  0  0  0
  -22.0044  -28.5366   24.7212 C   0  0  2  0  0  0  0  0  0  0  0  0
  -24.8357  -32.0131   23.0743 C   0  0  0  0  0  0  0  0  0  0  0  0
  -26.1749  -11.9046   21.0247 N   0  0  0  0  0  0  0  0  0  0  0  0
  -26.2896  -13.1110   20.4437 N   0  0  0  0  0  0  0  0  0  0  0  0
  -25.3479  -29.3785   20.6949 N   0  0  0  0  0  0  0  0  0  0  0  0
  -30.0893  -13.3909   20.1392 N   0  0  0  0  0  0  0  0  0  0  0  0
  -29.5855  -16.6233   24.1755 N   0  0  0  0  0  0  0  0  0  0  0  0
  -25.0670  -15.0596   19.8790 N   0  0  0  0  0  0  0  0  0  0  0  0
  -21.9848  -12.4417   21.8897 N   0  0  0  0  0  0  0  0  0  0  0  0
  -31.1968  -20.7878   22.3317 N   0  0  0  0  0  0  0  0  0  0  0  0
  -26.6076  -30.2187   17.3778 N   0  0  0  0  0  0  0  0  0  0  0  0
  -23.3534  -29.9824   23.3624 N   0  0  0  0  0  0  0  0  0  0  0  0
  -30.8271  -14.4379   22.1274 N   0  0  0  0  0  0  0  0  0  0  0  0
  -21.8877  -27.0630   24.9105 N   0  3  0  0  0  0  0  0  0  0  0  0
  -22.3249  -14.4618   20.8591 O   0  0  0  0  0  0  0  0  0  0  0  0
  -27.1448  -30.8045   19.5665 O   0  0  0  0  0  0  0  0  0  0  0  0
  -23.5319  -30.8395   20.6344 O   0  0  0  0  0  0  0  0  0  0  0  0
  -24.3987  -28.2745   24.5318 O   0  0  0  0  0  0  0  0  0  0  0  0
  -32.1578  -14.4324   20.2603 O   0  0  0  0  0  0  0  0  0  0  0  0
  -22.8487   -7.3529   23.9856 O   0  0  0  0  0  0  0  0  0  0  0  0
  -29.6599  -25.0685   21.6348 O   0  0  0  0  0  0  0  0  0  1  0  0
  -17.9896   -5.3855   22.2759 F   0  0  0  0  0  0  0  0  0  0  0  0
  -22.6246   -4.7736   23.0162 F   0  0  0  0  0  0  0  0  0  0  0  0
  1  2  1  0  0  0  0
  1  5  2  0  0  0  0
  2  6  2  0  0  0  0
  3 10  2  0  0  0  0
  3 18  1  0  0  0  0
  4 11  1  0  0  0  0
  4 18  2  0  0  0  0
  5 20  1  0  0  0  0
  6 22  1  0  0  0  0
  7 12  2  0  0  0  0
  7 21  1  0  0  0  0
  8  9  2  0  0  0  0
  8 24  1  0  0  0  0
  9 25  1  0  0  0  0
 10 27  1  0  0  0  0
 11 27  2  0  0  0  0
 12 28  1  0  0  0  0
 13 14  2  0  0  0  0
 13 29  1  0  0  0  0
 14 30  1  0  0  0  0
 15 23  1  0  0  0  0
 15 28  2  0  0  0  0
 16 25  2  0  0  0  0
 16 26  1  0  0  0  0
 17 30  2  0  0  0  0
 17 31  1  0  0  0  0
 18 32  1  0  0  0  0
 19 32  1  0  0  0  0
 19 33  2  0  0  0  0
 19 36  1  0  0  0  0
 20 22  2  0  0  0  0
 20 41  1  0  0  0  0
 21 23  2  0  0  0  0
 21 42  1  0  0  0  0
 22 50  1  0  0  0  0
 23 43  1  0  0  0  0
 24 26  2  0  0  0  0
 24 58  1  0  0  0  0
 25 70  1  0  0  0  0
 26 67  1  0  0  0  0
 27 80  1  0  0  0  0
 28 81  1  0  0  0  0
 29 31  2  0  0  0  0
 29 80  1  0  0  0  0
 30 82  1  0  0  0  0
 31 83  1  0  0  0  0
 32 63  2  0  0  0  0
 33 64  1  0  0  0  0
 33 68  1  0  0  0  0
 34 35  2  0  0  0  0
 34 59  1  0  0  0  0
 35 81  1  0  0  0  0
 36 69  1  0  0  0  0
 36 75  2  0  0  0  0
 37 51  1  0  0  0  0
 37 71  1  0  0  0  0
 37 76  2  0  0  0  0
 38 60  1  0  0  0  0
 38 65  1  0  0  0  0
 38 77  2  0  0  0  0
 39 61  1  0  0  0  0
 39 72  1  0  0  0  0
 39 78  2  0  0  0  0
 40 66  1  0  0  0  0
 40 73  1  0  0  0  0
 40 79  2  0  0  0  0
 41 44  1  0  0  0  0
 42 51  1  0  0  0  0
 43 65  1  0  0  0  0
 44 46  1  0  0  0  0
 45 47  1  0  0  0  0
 45 48  1  0  0  0  0
 46 50  1  0  0  0  0
 47 52  1  0  0  0  0
 48 66  1  0  0  0  0
 49 52  1  0  0  0  0
 49 66  1  0  0  0  0
 50 71  1  0  0  0  0
 51 65  1  0  0  0  0
 52 64  1  0  0  0  0
 53 61  1  0  0  0  0
 54 62  1  0  0  0  0
 55 62  1  0  0  0  0
 56 62  1  0  0  0  0
 57 74  1  0  0  0  0
 58 73  1  0  0  0  0
 59 70  1  0  0  0  0
 60 62  1  0  0  0  0
 60 72  1  0  0  0  0
 61 74  1  0  0  0  0
 63 64  1  0  0  0  0
M  CHG  1  74   1
M  ISO  4  35 101  40 100  73 100  81 101
M  END
> <Batch ID>
0099

> <Smiles>
CNC(C)C(=O)NC(C(=O)N1Cc2cc([101O:1][101CH:1]=CCNc3ccc(C[100NH:0][100C:0](=O)N4CCCC(n5nc(-c6ccc(Oc7ccc(F)cc7F)cc6)c(C(N)=O)c5N)C4)c(N)c3)ccc2CC1C(=O)NC1CCCc2ccccc21)C(C)(C)C

> <Shape>
0.268

> <Color>
0.151

> <Negative vol penalty>
0.000

$$$$

  -OEChem-04052300543D

 86 94  0     1  0  0  0  0  0999 V2000
  -16.0855  -29.3671   23.5621 C   0  0  0  0  0  0  0  0  0  0  0  0
  -16.9391  -28.3821   24.0485 C   0  0  0  0  0  0  0  0  0  0  0  0
  -23.3915  -10.3084   21.2985 C   0  0  0  0  0  0  0  0  0  0  0  0
  -24.8064   -8.5570   22.1748 C   0  0  0  0  0  0  0  0  0  0  0  0
  -29.3822  -19.6044   21.1191 C   0  0  0  0  0  0  0  0  0  0  0  0
  -16.5791  -30.3610   22.7179 C   0  0  0  0  0  0  0  0  0  0  0  0
  -18.2866  -28.3897   23.6900 C   0  0  0  0  0  0  0  0  0  0  0  0
  -23.0309  -26.6870   27.1682 C   0  0  0  0  0  0  0  0  0  0  0  0
  -28.7264  -20.3545   22.0952 C   0  0  0  0  0  0  0  0  0  0  0  0
  -22.3375   -9.4016   21.1881 C   0  0  0  0  0  0  0  0  0  0  0  0
  -23.7523   -7.6502   22.0644 C   0  0  0  0  0  0  0  0  0  0  0  0
  -23.7669  -25.5049   27.2372 C   0  0  0  0  0  0  0  0  0  0  0  0
  -20.9529   -6.8656   23.7873 C   0  0  0  0  0  0  0  0  0  0  0  0
  -20.7193   -6.0114   24.8650 C   0  0  0  0  0  0  0  0  0  0  0  0
  -25.4227  -26.4567   25.7636 C   0  0  0  0  0  0  0  0  0  0  0  0
  -21.0938   -4.1021   23.4327 C   0  0  0  0  0  0  0  0  0  0  0  0
  -24.6261   -9.8861   21.7919 C   0  0  0  0  0  0  0  0  0  0  0  0
  -29.3650  -18.2110   21.1817 C   0  0  0  0  0  0  0  0  0  0  0  0
  -26.0295  -11.6304   23.0147 C   0  0  0  0  0  0  0  0  0  0  0  0
  -17.9354  -30.3863   22.3567 C   0  0  0  0  0  0  0  0  0  0  0  0
  -23.4806  -27.7607   26.3864 C   0  0  0  0  0  0  0  0  0  0  0  0
  -18.7985  -29.3840   22.8392 C   0  0  0  0  0  0  0  0  0  0  0  0
  -24.6919  -27.6523   25.6884 C   0  0  0  0  0  0  0  0  0  0  0  0
  -28.0535  -19.7113   23.1340 C   0  0  0  0  0  0  0  0  0  0  0  0
  -22.5178   -8.0725   21.5710 C   0  0  0  0  0  0  0  0  0  0  0  0
  -24.9615  -25.3885   26.5326 C   0  0  0  0  0  0  0  0  0  0  0  0
  -21.2569   -6.3381   22.5323 C   0  0  0  0  0  0  0  0  0  0  0  0
  -20.7897   -4.6297   24.6877 C   0  0  0  0  0  0  0  0  0  0  0  0
  -21.3274   -4.9563   22.3550 C   0  0  0  0  0  0  0  0  0  0  0  0
  -28.6921  -17.5678   22.2205 C   0  0  0  0  0  0  0  0  0  0  0  0
  -28.0363  -18.3180   23.1967 C   0  0  0  0  0  0  0  0  0  0  0  0
  -25.7155  -10.8222   21.9057 C   0  0  0  0  0  0  0  0  0  0  0  0
  -27.1429  -12.3330   22.6233 C   0  0  0  0  0  0  0  0  0  0  0  0
  -30.0614  -17.4161   20.1377 C   0  0  0  0  0  0  0  0  0  0  0  0
  -25.3733  -11.7367   24.2851 C   0  0  0  0  0  0  0  0  0  0  0  0
  -22.3486  -29.3263   23.8623 C   0  0  0  0  0  0  0  0  0  0  0  0
  -26.5731  -22.3861   25.3103 C   0  0  0  0  0  0  0  0  0  0  0  0
  -24.9111  -31.2436   24.3912 C   0  0  0  0  0  0  0  0  0  0  0  0
  -28.0376  -31.6024   25.7115 C   0  0  0  0  0  0  0  0  0  0  0  0
  -29.9836  -15.2806   18.8898 C   0  0  0  0  0  0  0  0  0  0  0  0
  -18.4130  -31.4533   21.4037 C   0  0  0  0  0  0  0  0  0  0  0  0
  -22.6887  -29.0388   26.3437 C   0  0  0  0  0  0  0  0  0  0  0  0
  -25.2285  -28.7833   24.8509 C   0  0  0  0  0  0  0  0  0  0  0  0
  -19.9314  -31.6067   21.3725 C   0  0  0  0  0  0  0  0  0  0  0  0
  -30.1521  -11.7623   18.5893 C   0  0  0  0  0  0  0  0  0  0  0  0
  -20.6040  -30.2412   21.2735 C   0  0  0  0  0  0  0  0  0  0  0  0
  -29.0440  -11.2667   19.5225 C   0  0  0  0  0  0  0  0  0  0  0  0
  -29.7469  -13.0400   17.8557 C   0  0  0  0  0  0  0  0  0  0  0  0
  -28.1645  -13.6322   19.6454 C   0  0  0  0  0  0  0  0  0  0  0  0
  -20.2717  -29.3728   22.4929 C   0  0  1  0  0  0  0  0  0  0  0  0
  -22.9814  -29.8821   25.1066 C   0  0  1  0  0  0  0  0  0  0  0  0
  -28.5509  -12.3871   20.4601 C   0  0  1  0  0  0  0  0  0  0  0  0
  -29.8940  -33.2736   25.9531 C   0  0  0  0  0  0  0  0  0  0  0  0
  -25.6888  -30.7979   21.4745 C   0  0  0  0  0  0  0  0  0  0  0  0
  -27.9716  -31.6674   22.0229 C   0  0  0  0  0  0  0  0  0  0  0  0
  -25.9797  -33.1460   22.2847 C   0  0  0  0  0  0  0  0  0  0  0  0
  -27.8684  -31.5368   28.6654 C   0  0  0  0  0  0  0  0  0  0  0  0
  -27.3700  -21.8998   24.1184 C   0  0  0  0  0  0  0  0  0  0  0  0
  -26.4616  -23.8916   25.4535 C   0  0  0  0  0  0  0  0  0  1  0  0
  -26.3478  -31.2601   23.9277 C   0  0  1  0  0  0  0  0  0  0  0  0
  -28.6433  -32.6847   26.5868 C   0  0  2  0  0  0  0  0  0  0  0  0
  -26.4862  -31.6957   22.4416 C   0  0  0  0  0  0  0  0  0  0  0  0
  -26.5611  -10.9945   20.8862 N   0  0  0  0  0  0  0  0  0  0  0  0
  -27.4173  -11.9192   21.3530 N   0  0  0  0  0  0  0  0  0  0  0  0
  -24.4148  -30.0101   24.8361 N   0  0  0  0  0  0  0  0  0  0  0  0
  -29.3020  -14.0534   18.8139 N   0  0  0  0  0  0  0  0  0  0  0  0
  -27.9042  -13.2582   23.2453 N   0  0  0  0  0  0  0  0  0  0  0  0
  -24.2428  -10.9427   24.5216 N   0  0  0  0  0  0  0  0  0  0  0  0
  -27.4028  -20.4597   24.1045 N   0  0  0  0  0  0  0  0  0  0  0  0
  -29.5089  -16.1643   19.8654 N   0  0  0  0  0  0  0  0  0  0  0  0
  -21.0634  -29.7797   23.6340 N   0  0  0  0  0  0  0  0  0  0  0  0
  -27.0706  -32.1087   24.8689 N   0  0  0  0  0  0  0  0  0  0  0  0
  -29.0093  -32.1282   27.9200 N   0  3  0  0  0  0  0  0  0  0  0  0
  -31.0299  -17.9037   19.5614 O   0  0  0  0  0  0  0  0  0  0  0  0
  -25.7679  -12.5246   25.1778 O   0  0  0  0  0  0  0  0  0  0  0  0
  -22.9802  -28.5452   23.1604 O   0  0  0  0  0  0  0  0  0  0  0  0
  -26.0465  -21.6197   26.1160 O   0  0  0  0  0  0  0  0  0  0  0  0
  -24.2557  -32.2883   24.3662 O   0  0  0  0  0  0  0  0  0  0  0  0
  -28.3900  -30.4263   25.7667 O   0  0  0  0  0  0  0  0  0  0  0  0
  -30.9551  -15.5514   18.1769 O   0  0  0  0  0  0  0  0  0  0  0  0
  -21.4893   -7.1875   21.4636 O   0  0  0  0  0  0  0  0  0  0  0  0
  -25.6814  -24.2356   26.5977 O   0  0  0  0  0  0  0  0  0  1  0  0
  -20.5669   -3.8095   25.7230 F   0  0  0  0  0  0  0  0  0  0  0  0
  -21.6202   -4.4437   21.1520 F   0  0  0  0  0  0  0  0  0  0  0  0
  -28.6694  -16.2293   22.2903 F   0  0  0  0  0  0  0  0  0  0  0  0
  -27.3928  -17.6892   24.1905 F   0  0  0  0  0  0  0  0  0  0  0  0
  1  2  1  0  0  0  0
  1  6  2  0  0  0  0
  2  7  2  0  0  0  0
  3 10  2  0  0  0  0
  3 17  1  0  0  0  0
  4 11  1  0  0  0  0
  4 17  2  0  0  0  0
  5  9  2  0  0  0  0
  5 18  1  0  0  0  0
  6 20  1  0  0  0  0
  7 22  1  0  0  0  0
  8 12  2  0  0  0  0
  8 21  1  0  0  0  0
  9 24  1  0  0  0  0
 10 25  1  0  0  0  0
 11 25  2  0  0  0  0
 12 26  1  0  0  0  0
 13 14  2  0  0  0  0
 13 27  1  0  0  0  0
 14 28  1  0  0  0  0
 15 23  1  0  0  0  0
 15 26  2  0  0  0  0
 16 28  2  0  0  0  0
 16 29  1  0  0  0  0
 17 32  1  0  0  0  0
 18 30  2  0  0  0  0
 18 34  1  0  0  0  0
 19 32  1  0  0  0  0
 19 33  2  0  0  0  0
 19 35  1  0  0  0  0
 20 22  2  0  0  0  0
 20 41  1  0  0  0  0
 21 23  2  0  0  0  0
 21 42  1  0  0  0  0
 22 50  1  0  0  0  0
 23 43  1  0  0  0  0
 24 31  2  0  0  0  0
 24 69  1  0  0  0  0
 25 81  1  0  0  0  0
 26 82  1  0  0  0  0
 27 29  2  0  0  0  0
 27 81  1  0  0  0  0
 28 83  1  0  0  0  0
 29 84  1  0  0  0  0
 30 31  1  0  0  0  0
 30 85  1  0  0  0  0
 31 86  1  0  0  0  0
 32 63  2  0  0  0  0
 33 64  1  0  0  0  0
 33 67  1  0  0  0  0
 34 70  1  0  0  0  0
 34 74  2  0  0  0  0
 35 68  1  0  0  0  0
 35 75  2  0  0  0  0
 36 51  1  0  0  0  0
 36 71  1  0  0  0  0
 36 76  2  0  0  0  0
 37 58  1  0  0  0  0
 37 59  1  0  0  0  0
 37 77  2  0  0  0  0
 38 60  1  0  0  0  0
 38 65  1  0  0  0  0
 38 78  2  0  0  0  0
 39 61  1  0  0  0  0
 39 72  1  0  0  0  0
 39 79  2  0  0  0  0
 40 66  1  0  0  0  0
 40 70  1  0  0  0  0
 40 80  2  0  0  0  0
 41 44  1  0  0  0  0
 42 51  1  0  0  0  0
 43 65  1  0  0  0  0
 44 46  1  0  0  0  0
 45 47  1  0  0  0  0
 45 48  1  0  0  0  0
 46 50  1  0  0  0  0
 47 52  1  0  0  0  0
 48 66  1  0  0  0  0
 49 52  1  0  0  0  0
 49 66  1  0  0  0  0
 50 71  1  0  0  0  0
 51 65  1  0  0  0  0
 52 64  1  0  0  0  0
 53 61  1  0  0  0  0
 54 62  1  0  0  0  0
 55 62  1  0  0  0  0
 56 62  1  0  0  0  0
 57 73  1  0  0  0  0
 58 69  1  0  0  0  0
 59 82  1  0  0  0  0
 60 62  1  0  0  0  0
 60 72  1  0  0  0  0
 61 73  1  0  0  0  0
 63 64  1  0  0  0  0
M  CHG  1  73   1
M  ISO  4  40 100  59 101  70 100  82 101
M  END
> <Batch ID>
0099

> <Smiles>
CNC(C)C(=O)NC(C(=O)N1Cc2cc([101O:1][101CH2:1]C(=O)CNc3ccc(C(=O)[100NH:0][100C:0](=O)N4CCCC(n5nc(-c6ccc(Oc7ccc(F)cc7F)cc6)c(C(N)=O)c5N)C4)c(F)c3F)ccc2CC1C(=O)NC1CCCc2ccccc21)C(C)(C)C

> <Shape>
0.270

> <Color>
0.118

> <Negative vol penalty>
0.000

$$$$

  -OEChem-04052300543D

 82 90  0     1  0  0  0  0  0999 V2000
  -36.8647  -15.4466   18.6129 C   0  0  0  0  0  0  0  0  0  0  0  0
  -35.6498  -15.9359   19.0820 C   0  0  0  0  0  0  0  0  0  0  0  0
  -22.5570  -30.8735   20.7060 C   0  0  0  0  0  0  0  0  0  0  0  0
  -22.4423  -29.0517   22.2888 C   0  0  0  0  0  0  0  0  0  0  0  0
  -36.8844  -14.4819   17.6064 C   0  0  0  0  0  0  0  0  0  0  0  0
  -34.4539  -15.4615   18.5442 C   0  0  0  0  0  0  0  0  0  0  0  0
  -31.0009  -14.4239   22.1002 C   0  0  0  0  0  0  0  0  0  0  0  0
  -21.1690  -30.8438   20.5713 C   0  0  0  0  0  0  0  0  0  0  0  0
  -21.0543  -29.0221   22.1542 C   0  0  0  0  0  0  0  0  0  0  0  0
  -30.3147  -15.5030   22.6555 C   0  0  0  0  0  0  0  0  0  0  0  0
  -18.4041  -30.7771   23.3018 C   0  0  0  0  0  0  0  0  0  0  0  0
  -17.6434  -30.6790   24.4668 C   0  0  0  0  0  0  0  0  0  0  0  0
  -28.4338  -15.0388   21.2183 C   0  0  0  0  0  0  0  0  0  0  0  0
  -28.0953  -21.8339   22.7679 C   0  0  0  0  0  0  0  0  0  0  0  0
  -29.2710  -22.7616   20.4142 C   0  0  0  0  0  0  0  0  0  0  0  0
  -16.6881  -28.6083   23.6688 C   0  0  0  0  0  0  0  0  0  0  0  0
  -23.1937  -29.9774   21.5647 C   0  0  0  0  0  0  0  0  0  0  0  0
  -25.3766  -30.7615   22.6267 C   0  0  0  0  0  0  0  0  0  0  0  0
  -35.6880  -13.9884   17.0627 C   0  0  0  0  0  0  0  0  0  0  0  0
  -30.4119  -13.6494   21.0903 C   0  0  0  0  0  0  0  0  0  0  0  0
  -34.4577  -14.4903   17.5286 C   0  0  0  0  0  0  0  0  0  0  0  0
  -29.1136  -13.9488   20.6536 C   0  0  0  0  0  0  0  0  0  0  0  0
  -28.1133  -23.2004   22.4889 C   0  0  0  0  0  0  0  0  0  0  0  0
  -28.7012  -23.6642   21.3121 C   0  0  0  0  0  0  0  0  0  0  0  0
  -29.2530  -21.3950   20.6933 C   0  0  0  0  0  0  0  0  0  0  0  0
  -20.4176  -29.9182   21.2954 C   0  0  0  0  0  0  0  0  0  0  0  0
  -29.0321  -15.8124   22.2125 C   0  0  0  0  0  0  0  0  0  0  0  0
  -18.3067  -29.7908   22.3202 C   0  0  0  0  0  0  0  0  0  0  0  0
  -28.6652  -20.9311   21.8701 C   0  0  0  0  0  0  0  0  0  0  0  0
  -16.7855  -29.5947   24.6504 C   0  0  0  0  0  0  0  0  0  0  0  0
  -17.4488  -28.7064   22.5037 C   0  0  0  0  0  0  0  0  0  0  0  0
  -24.6275  -30.0071   21.7039 C   0  0  0  0  0  0  0  0  0  0  0  0
  -26.6835  -30.4399   22.3525 C   0  0  0  0  0  0  0  0  0  0  0  0
  -24.9309  -31.6715   23.6411 C   0  0  0  0  0  0  0  0  0  0  0  0
  -31.1144  -13.0085   18.0573 C   0  0  0  0  0  0  0  0  0  0  0  0
  -28.6096  -10.9637   18.3162 C   0  0  0  0  0  0  0  0  0  0  0  0
  -25.7060  -10.1251   19.9013 C   0  0  0  0  0  0  0  0  0  0  0  0
  -29.2790  -25.6573   19.8837 C   0  0  0  0  0  0  0  0  0  0  0  0
  -35.7607  -12.9803   15.9433 C   0  0  0  0  0  0  0  0  0  0  0  0
  -31.1549  -12.4723   20.5204 C   0  0  0  0  0  0  0  0  0  0  0  0
  -28.4288  -13.1361   19.5862 C   0  0  0  0  0  0  0  0  0  0  0  0
  -34.4409  -12.2568   15.6885 C   0  0  0  0  0  0  0  0  0  0  0  0
  -29.5179  -29.0274   18.7602 C   0  0  0  0  0  0  0  0  0  0  0  0
  -33.2858  -13.2521   15.6473 C   0  0  0  0  0  0  0  0  0  0  0  0
  -28.3628  -29.7311   19.4762 C   0  0  0  0  0  0  0  0  0  0  0  0
  -29.1460  -27.6048   18.3460 C   0  0  0  0  0  0  0  0  0  0  0  0
  -27.4668  -27.4640   20.1432 C   0  0  0  0  0  0  0  0  0  0  0  0
  -33.1388  -13.9825   16.9876 C   0  0  1  0  0  0  0  0  0  0  0  0
  -30.6594  -12.0664   19.1358 C   0  0  1  0  0  0  0  0  0  0  0  0
  -27.8159  -28.8775   20.6372 C   0  0  2  0  0  0  0  0  0  0  0  0
  -27.4948  -24.1446   23.4679 C   0  0  0  0  0  0  0  0  0  0  0  0
  -23.8630   -8.4224   19.8656 C   0  0  0  0  0  0  0  0  0  0  0  0
  -27.4188  -12.3078   15.8494 C   0  0  0  0  0  0  0  0  0  0  0  0
  -25.2209  -11.2548   16.4224 C   0  0  0  0  0  0  0  0  0  0  0  0
  -27.1901   -9.8178   15.8933 C   0  0  0  0  0  0  0  0  0  0  0  0
  -26.3143   -9.2385   22.6586 C   0  0  0  0  0  0  0  0  0  0  0  0
  -27.4279  -17.5418   21.9101 C   0  0  0  0  0  0  0  0  0  1  0  0
  -27.3543  -18.9992   22.3227 C   0  0  0  0  0  0  0  0  0  0  0  0
  -27.1201  -11.0639   18.0920 C   0  0  1  0  0  0  0  0  0  0  0  0
  -25.2091   -8.8045   20.4611 C   0  0  2  0  0  0  0  0  0  0  0  0
  -26.7508  -11.1278   16.5831 C   0  0  0  0  0  0  0  0  0  0  0  0
  -25.3947  -29.2625   20.9032 N   0  0  0  0  0  0  0  0  0  0  0  0
  -26.6395  -29.5475   21.3221 N   0  0  0  0  0  0  0  0  0  0  0  0
  -29.1988  -11.9990   19.0555 N   0  0  0  0  0  0  0  0  0  0  0  0
  -28.6400  -26.8545   19.4975 N   0  0  0  0  0  0  0  0  0  0  0  0
  -29.8346  -20.4923   19.7765 N   0  0  0  0  0  0  0  0  0  0  0  0
  -27.8545  -30.8364   22.8947 N   0  0  0  0  0  0  0  0  0  0  0  0
  -23.5537  -31.8864   23.7876 N   0  0  0  0  0  0  0  0  0  0  0  0
  -28.7300  -25.0487   21.0119 N   0  0  0  0  0  0  0  0  0  0  0  0
  -32.4874  -13.1300   17.9589 N   0  0  0  0  0  0  0  0  0  0  0  0
  -26.5233   -9.9405   18.8062 N   0  0  0  0  0  0  0  0  0  0  0  0
  -25.0602   -8.8926   21.9413 N   0  3  0  0  0  0  0  0  0  0  0  0
  -25.7311  -32.2886   24.3844 O   0  0  0  0  0  0  0  0  0  0  0  0
  -30.2816  -13.5814   17.3646 O   0  0  0  0  0  0  0  0  0  0  0  0
  -29.2264   -9.9984   17.8584 O   0  0  0  0  0  0  0  0  0  0  0  0
  -25.3968  -11.2120   20.3846 O   0  0  0  0  0  0  0  0  0  0  0  0
  -30.2592  -25.2195   19.2758 O   0  0  0  0  0  0  0  0  0  0  0  0
  -19.0632  -29.8891   21.1644 O   0  0  0  0  0  0  0  0  0  0  0  0
  -28.3603  -16.8655   22.7524 O   0  0  0  0  0  0  0  0  0  1  0  0
  -28.6369  -19.5929   22.1622 O   0  0  0  0  0  0  0  0  0  0  0  0
  -16.0562  -29.4998   25.7699 F   0  0  0  0  0  0  0  0  0  0  0  0
  -17.3519  -27.7552   21.5648 F   0  0  0  0  0  0  0  0  0  0  0  0
  1  2  1  0  0  0  0
  1  5  2  0  0  0  0
  2  6  2  0  0  0  0
  3  8  2  0  0  0  0
  3 17  1  0  0  0  0
  4  9  1  0  0  0  0
  4 17  2  0  0  0  0
  5 19  1  0  0  0  0
  6 21  1  0  0  0  0
  7 10  2  0  0  0  0
  7 20  1  0  0  0  0
  8 26  1  0  0  0  0
  9 26  2  0  0  0  0
 10 27  1  0  0  0  0
 11 12  2  0  0  0  0
 11 28  1  0  0  0  0
 12 30  1  0  0  0  0
 13 22  1  0  0  0  0
 13 27  2  0  0  0  0
 14 23  2  0  0  0  0
 14 29  1  0  0  0  0
 15 24  2  0  0  0  0
 15 25  1  0  0  0  0
 16 30  2  0  0  0  0
 16 31  1  0  0  0  0
 17 32  1  0  0  0  0
 18 32  1  0  0  0  0
 18 33  2  0  0  0  0
 18 34  1  0  0  0  0
 19 21  2  0  0  0  0
 19 39  1  0  0  0  0
 20 22  2  0  0  0  0
 20 40  1  0  0  0  0
 21 48  1  0  0  0  0
 22 41  1  0  0  0  0
 23 24  1  0  0  0  0
 23 51  1  0  0  0  0
 24 69  1  0  0  0  0
 25 29  2  0  0  0  0
 25 66  1  0  0  0  0
 26 78  1  0  0  0  0
 27 79  1  0  0  0  0
 28 31  2  0  0  0  0
 28 78  1  0  0  0  0
 29 80  1  0  0  0  0
 30 81  1  0  0  0  0
 31 82  1  0  0  0  0
 32 62  2  0  0  0  0
 33 63  1  0  0  0  0
 33 67  1  0  0  0  0
 34 68  1  0  0  0  0
 34 73  2  0  0  0  0
 35 49  1  0  0  0  0
 35 70  1  0  0  0  0
 35 74  2  0  0  0  0
 36 59  1  0  0  0  0
 36 64  1  0  0  0  0
 36 75  2  0  0  0  0
 37 60  1  0  0  0  0
 37 71  1  0  0  0  0
 37 76  2  0  0  0  0
 38 65  1  0  0  0  0
 38 69  1  0  0  0  0
 38 77  2  0  0  0  0
 39 42  1  0  0  0  0
 40 49  1  0  0  0  0
 41 64  1  0  0  0  0
 42 44  1  0  0  0  0
 43 45  1  0  0  0  0
 43 46  1  0  0  0  0
 44 48  1  0  0  0  0
 45 50  1  0  0  0  0
 46 65  1  0  0  0  0
 47 50  1  0  0  0  0
 47 65  1  0  0  0  0
 48 70  1  0  0  0  0
 49 64  1  0  0  0  0
 50 63  1  0  0  0  0
 52 60  1  0  0  0  0
 53 61  1  0  0  0  0
 54 61  1  0  0  0  0
 55 61  1  0  0  0  0
 56 72  1  0  0  0  0
 57 58  1  0  0  0  0
 57 79  1  0  0  0  0
 58 80  1  0  0  0  0
 59 61  1  0  0  0  0
 59 71  1  0  0  0  0
 60 72  1  0  0  0  0
 62 63  1  0  0  0  0
M  CHG  1  72   1
M  ISO  4  38 100  57 101  69 100  79 101
M  END
> <Batch ID>
0099

> <Smiles>
CNC(C)C(=O)NC(C(=O)N1Cc2cc([101O:1][101CH2:1]COc3cc(C)c([100NH:0][100C:0](=O)N4CCCC(n5nc(-c6ccc(Oc7ccc(F)cc7F)cc6)c(C(N)=O)c5N)C4)cc3N)ccc2CC1C(=O)NC1CCCc2ccccc21)C(C)(C)C

> <Shape>
0.270

> <Color>
0.067

> <Negative vol penalty>
0.000

$$$$

  -OEChem-04052300543D

 85 93  0     1  0  0  0  0  0999 V2000
  -30.6258  -30.2407   26.1843 C   0  0  0  0  0  0  0  0  0  0  0  0
  -29.7317  -29.3679   25.5727 C   0  0  0  0  0  0  0  0  0  0  0  0
  -25.0119   -9.3303   20.6410 C   0  0  0  0  0  0  0  0  0  0  0  0
  -25.3687  -10.0926   22.9056 C   0  0  0  0  0  0  0  0  0  0  0  0
  -30.2682  -31.5726   26.3896 C   0  0  0  0  0  0  0  0  0  0  0  0
  -28.4788  -29.8263   25.1669 C   0  0  0  0  0  0  0  0  0  0  0  0
  -27.2302  -28.2190   20.5299 C   0  0  0  0  0  0  0  0  0  0  0  0
  -24.8948   -8.0187   21.1009 C   0  0  0  0  0  0  0  0  0  0  0  0
  -25.2516   -8.7810   23.3656 C   0  0  0  0  0  0  0  0  0  0  0  0
  -26.7798  -26.9049   20.4113 C   0  0  0  0  0  0  0  0  0  0  0  0
  -22.5425   -6.1032   22.5943 C   0  0  0  0  0  0  0  0  0  0  0  0
  -21.4972   -5.3300   22.0892 C   0  0  0  0  0  0  0  0  0  0  0  0
  -24.5023  -27.6976   20.3474 C   0  0  0  0  0  0  0  0  0  0  0  0
  -27.9417  -21.6415   23.3210 C   0  0  0  0  0  0  0  0  0  0  0  0
  -29.1825  -19.9860   22.0733 C   0  0  0  0  0  0  0  0  0  0  0  0
  -23.0944   -3.7421   21.2149 C   0  0  0  0  0  0  0  0  0  0  0  0
  -25.2488  -10.3673   21.5434 C   0  0  0  0  0  0  0  0  0  0  0  0
  -24.3363  -12.6651   20.9146 C   0  0  0  0  0  0  0  0  0  0  0  0
  -29.0140  -32.0499   25.9775 C   0  0  0  0  0  0  0  0  0  0  0  0
  -26.3179  -29.2832   20.5691 C   0  0  0  0  0  0  0  0  0  0  0  0
  -28.1035  -31.1655   25.3681 C   0  0  0  0  0  0  0  0  0  0  0  0
  -24.9439  -29.0245   20.4639 C   0  0  0  0  0  0  0  0  0  0  0  0
  -26.7706  -20.9084   23.1291 C   0  0  0  0  0  0  0  0  0  0  0  0
  -29.1476  -21.1803   22.7930 C   0  0  0  0  0  0  0  0  0  0  0  0
  -28.0114  -19.2529   21.8814 C   0  0  0  0  0  0  0  0  0  0  0  0
  -25.0147   -7.7440   22.4632 C   0  0  0  0  0  0  0  0  0  0  0  0
  -25.4156  -26.6438   20.3230 C   0  0  0  0  0  0  0  0  0  0  0  0
  -23.8637   -5.6959   22.4096 C   0  0  0  0  0  0  0  0  0  0  0  0
  -21.7731   -4.1494   21.3995 C   0  0  0  0  0  0  0  0  0  0  0  0
  -24.1397   -4.5153   21.7200 C   0  0  0  0  0  0  0  0  0  0  0  0
  -26.8055  -19.7141   22.4094 C   0  0  0  0  0  0  0  0  0  0  0  0
  -25.3704  -11.7224   21.0688 C   0  0  0  0  0  0  0  0  0  0  0  0
  -24.9649  -13.7894   20.4380 C   0  0  0  0  0  0  0  0  0  0  0  0
  -22.9330  -12.5360   21.1787 C   0  0  0  0  0  0  0  0  0  0  0  0
  -25.5726  -31.5214   22.6996 C   0  0  0  0  0  0  0  0  0  0  0  0
  -23.7073  -32.6397   20.2929 C   0  0  0  0  0  0  0  0  0  0  0  0
  -24.6749  -23.3047   22.2961 C   0  0  0  0  0  0  0  0  0  0  0  0
  -21.9930  -31.9895   17.4145 C   0  0  0  0  0  0  0  0  0  0  0  0
  -29.1641  -17.4438   20.5606 C   0  0  0  0  0  0  0  0  0  0  0  0
  -28.6542  -33.4863   26.2634 C   0  0  0  0  0  0  0  0  0  0  0  0
  -26.8212  -30.6970   20.6705 C   0  0  0  0  0  0  0  0  0  0  0  0
  -23.9245  -30.1331   20.4808 C   0  0  0  0  0  0  0  0  0  0  0  0
  -27.4512  -33.9833   25.4658 C   0  0  0  0  0  0  0  0  0  0  0  0
  -29.6768  -14.4460   18.7092 C   0  0  0  0  0  0  0  0  0  0  0  0
  -26.3177  -32.9639   25.5185 C   0  0  0  0  0  0  0  0  0  0  0  0
  -28.5170  -13.5477   19.1454 C   0  0  0  0  0  0  0  0  0  0  0  0
  -30.2018  -15.2956   19.8651 C   0  0  0  0  0  0  0  0  0  0  0  0
  -28.0221  -15.1829   21.0076 C   0  0  0  0  0  0  0  0  0  0  0  0
  -26.7447  -31.6311   24.8916 C   0  0  1  0  0  0  0  0  0  0  0  0
  -25.7771  -31.6652   21.2180 C   0  0  1  0  0  0  0  0  0  0  0  0
  -27.4171  -14.3555   19.8618 C   0  0  2  0  0  0  0  0  0  0  0  0
  -20.5343  -33.0953   15.6979 C   0  0  0  0  0  0  0  0  0  0  0  0
  -21.3661  -32.5824   22.2489 C   0  0  0  0  0  0  0  0  0  0  0  0
  -19.8164  -32.7651   20.2911 C   0  0  0  0  0  0  0  0  0  0  0  0
  -21.4403  -34.5973   20.7693 C   0  0  0  0  0  0  0  0  0  0  0  0
  -23.9134  -31.4080   15.2391 C   0  0  0  0  0  0  0  0  0  0  0  0
  -25.4744  -21.4072   23.6996 C   0  0  0  0  0  0  0  0  0  0  0  0
  -23.6578  -23.6130   21.2084 C   0  0  0  0  0  0  0  0  0  0  0  0
  -23.6907  -25.0656   20.7589 C   0  0  0  0  0  0  0  0  0  1  0  0
  -22.2859  -32.4020   19.8432 C   0  0  1  0  0  0  0  0  0  0  0  0
  -21.9554  -32.7112   16.0796 C   0  0  2  0  0  0  0  0  0  0  0  0
  -21.2460  -33.0654   20.7897 C   0  0  0  0  0  0  0  0  0  0  0  0
  -26.5652  -12.2057   20.7184 N   0  0  0  0  0  0  0  0  0  0  0  0
  -26.2858  -13.4643   20.3392 N   0  0  0  0  0  0  0  0  0  0  0  0
  -24.4659  -31.4981   20.5878 N   0  0  0  0  0  0  0  0  0  0  0  0
  -29.1050  -16.0357   20.4929 N   0  0  0  0  0  0  0  0  0  0  0  0
  -30.3320  -21.9216   22.9873 N   0  0  0  0  0  0  0  0  0  0  0  0
  -24.5111  -15.0145   20.0979 N   0  0  0  0  0  0  0  0  0  0  0  0
  -22.4545  -11.3118   21.6654 N   0  0  0  0  0  0  0  0  0  0  0  0
  -28.0497  -18.0400   21.1499 N   0  0  0  0  0  0  0  0  0  0  0  0
  -26.7175  -31.7202   23.4474 N   0  0  0  0  0  0  0  0  0  0  0  0
  -24.6181  -21.9733   22.6822 N   0  0  0  0  0  0  0  0  0  0  0  0
  -22.2132  -32.8608   18.4602 N   0  0  0  0  0  0  0  0  0  0  0  0
  -22.5120  -31.8418   15.0048 N   0  3  0  0  0  0  0  0  0  0  0  0
  -22.1248  -13.4730   20.9732 O   0  0  0  0  0  0  0  0  0  0  0  0
  -24.4584  -31.2516   23.1324 O   0  0  0  0  0  0  0  0  0  0  0  0
  -24.1311  -33.7954   20.3726 O   0  0  0  0  0  0  0  0  0  0  0  0
  -25.4408  -24.1451   22.7598 O   0  0  0  0  0  0  0  0  0  0  0  0
  -21.8384  -30.7747   17.5196 O   0  0  0  0  0  0  0  0  0  0  0  0
  -30.1197  -18.0759   20.1031 O   0  0  0  0  0  0  0  0  0  0  0  0
  -24.9003   -6.4643   22.9124 O   0  0  0  0  0  0  0  0  0  0  0  0
  -24.9732  -25.3620   20.2078 O   0  0  0  0  0  0  0  0  0  1  0  0
  -20.7692   -3.4062   20.9159 F   0  0  0  0  0  0  0  0  0  0  0  0
  -25.4069   -4.1183   21.5405 F   0  0  0  0  0  0  0  0  0  0  0  0
  -25.6782  -19.0100   22.2260 F   0  0  0  0  0  0  0  0  0  0  0  0
  1  2  1  0  0  0  0
  1  5  2  0  0  0  0
  2  6  2  0  0  0  0
  3  8  2  0  0  0  0
  3 17  1  0  0  0  0
  4  9  1  0  0  0  0
  4 17  2  0  0  0  0
  5 19  1  0  0  0  0
  6 21  1  0  0  0  0
  7 10  2  0  0  0  0
  7 20  1  0  0  0  0
  8 26  1  0  0  0  0
  9 26  2  0  0  0  0
 10 27  1  0  0  0  0
 11 12  2  0  0  0  0
 11 28  1  0  0  0  0
 12 29  1  0  0  0  0
 13 22  1  0  0  0  0
 13 27  2  0  0  0  0
 14 23  1  0  0  0  0
 14 24  2  0  0  0  0
 15 24  1  0  0  0  0
 15 25  2  0  0  0  0
 16 29  2  0  0  0  0
 16 30  1  0  0  0  0
 17 32  1  0  0  0  0
 18 32  1  0  0  0  0
 18 33  2  0  0  0  0
 18 34  1  0  0  0  0
 19 21  2  0  0  0  0
 19 40  1  0  0  0  0
 20 22  2  0  0  0  0
 20 41  1  0  0  0  0
 21 49  1  0  0  0  0
 22 42  1  0  0  0  0
 23 31  2  0  0  0  0
 23 57  1  0  0  0  0
 24 67  1  0  0  0  0
 25 31  1  0  0  0  0
 25 70  1  0  0  0  0
 26 81  1  0  0  0  0
 27 82  1  0  0  0  0
 28 30  2  0  0  0  0
 28 81  1  0  0  0  0
 29 83  1  0  0  0  0
 30 84  1  0  0  0  0
 31 85  1  0  0  0  0
 32 63  2  0  0  0  0
 33 64  1  0  0  0  0
 33 68  1  0  0  0  0
 34 69  1  0  0  0  0
 34 75  2  0  0  0  0
 35 50  1  0  0  0  0
 35 71  1  0  0  0  0
 35 76  2  0  0  0  0
 36 60  1  0  0  0  0
 36 65  1  0  0  0  0
 36 77  2  0  0  0  0
 37 58  1  0  0  0  0
 37 72  1  0  0  0  0
 37 78  2  0  0  0  0
 38 61  1  0  0  0  0
 38 73  1  0  0  0  0
 38 79  2  0  0  0  0
 39 66  1  0  0  0  0
 39 70  1  0  0  0  0
 39 80  2  0  0  0  0
 40 43  1  0  0  0  0
 41 50  1  0  0  0  0
 42 65  1  0  0  0  0
 43 45  1  0  0  0  0
 44 46  1  0  0  0  0
 44 47  1  0  0  0  0
 45 49  1  0  0  0  0
 46 51  1  0  0  0  0
 47 66  1  0  0  0  0
 48 51  1  0  0  0  0
 48 66  1  0  0  0  0
 49 71  1  0  0  0  0
 50 65  1  0  0  0  0
 51 64  1  0  0  0  0
 52 61  1  0  0  0  0
 53 62  1  0  0  0  0
 54 62  1  0  0  0  0
 55 62  1  0  0  0  0
 56 74  1  0  0  0  0
 57 72  1  0  0  0  0
 58 59  1  0  0  0  0
 59 82  1  0  0  0  0
 60 62  1  0  0  0  0
 60 73  1  0  0  0  0
 61 74  1  0  0  0  0
 63 64  1  0  0  0  0
M  CHG  1  74   1
M  ISO  4  39 100  59 101  70 100  82 101
M  END
> <Batch ID>
0099

> <Smiles>
CNC(C)C(=O)NC(C(=O)N1Cc2cc([101O:1][101CH2:1]CC(=O)NCc3cc(N)cc([100NH:0][100C:0](=O)N4CCCC(n5nc(-c6ccc(Oc7ccc(F)cc7F)cc6)c(C(N)=O)c5N)C4)c3F)ccc2CC1C(=O)NC1CCCc2ccccc21)C(C)(C)C

> <Shape>
0.241

> <Color>
0.092

> <Negative vol penalty>
0.000

$$$$

  -OEChem-04052300543D

 89 97  0     1  0  0  0  0  0999 V2000
  -28.7630  -37.2320   21.1202 C   0  0  0  0  0  0  0  0  0  0  0  0
  -29.0901  -35.8838   21.0165 C   0  0  0  0  0  0  0  0  0  0  0  0
  -23.5985   -8.7994   20.2277 C   0  0  0  0  0  0  0  0  0  0  0  0
  -23.0153  -10.6805   21.6271 C   0  0  0  0  0  0  0  0  0  0  0  0
  -28.4607  -19.6006   18.5128 C   0  0  0  0  0  0  0  0  0  0  0  0
  -27.6430  -37.6220   21.8534 C   0  0  0  0  0  0  0  0  0  0  0  0
  -28.2980  -34.9248   21.6468 C   0  0  0  0  0  0  0  0  0  0  0  0
  -27.0556  -29.2756   19.6347 C   0  0  0  0  0  0  0  0  0  0  0  0
  -28.3620  -18.2095   18.5355 C   0  0  0  0  0  0  0  0  0  0  0  0
  -22.7260   -7.9887   20.9537 C   0  0  0  0  0  0  0  0  0  0  0  0
  -22.1428   -9.8698   22.3532 C   0  0  0  0  0  0  0  0  0  0  0  0
  -27.5998  -28.0295   19.9425 C   0  0  0  0  0  0  0  0  0  0  0  0
  -22.7233   -6.3586   23.9147 C   0  0  0  0  0  0  0  0  0  0  0  0
  -23.1778   -5.0958   24.2945 C   0  0  0  0  0  0  0  0  0  0  0  0
  -25.8273  -27.6555   21.5355 C   0  0  0  0  0  0  0  0  0  0  0  0
  -30.4274  -18.0835   19.7827 C   0  0  0  0  0  0  0  0  0  0  0  0
  -21.3780   -4.0733   23.0487 C   0  0  0  0  0  0  0  0  0  0  0  0
  -23.7432  -10.1453   20.5644 C   0  0  0  0  0  0  0  0  0  0  0  0
  -29.5427  -20.2333   19.1249 C   0  0  0  0  0  0  0  0  0  0  0  0
  -24.3444  -11.7430   18.6688 C   0  0  0  0  0  0  0  0  0  0  0  0
  -26.8312  -36.6666   22.4849 C   0  0  0  0  0  0  0  0  0  0  0  0
  -25.8973  -29.7264   20.2840 C   0  0  0  0  0  0  0  0  0  0  0  0
  -27.1668  -35.3025   22.3902 C   0  0  0  0  0  0  0  0  0  0  0  0
  -25.2690  -28.9067   21.2323 C   0  0  0  0  0  0  0  0  0  0  0  0
  -29.3454  -17.4509   19.1705 C   0  0  0  0  0  0  0  0  0  0  0  0
  -21.9982   -8.5239   22.0165 C   0  0  0  0  0  0  0  0  0  0  0  0
  -26.9873  -27.2204   20.8950 C   0  0  0  0  0  0  0  0  0  0  0  0
  -21.5961   -6.4788   23.1019 C   0  0  0  0  0  0  0  0  0  0  0  0
  -22.5052   -3.9531   23.8615 C   0  0  0  0  0  0  0  0  0  0  0  0
  -30.5260  -19.4747   19.7599 C   0  0  0  0  0  0  0  0  0  0  0  0
  -20.9234   -5.3361   22.6689 C   0  0  0  0  0  0  0  0  0  0  0  0
  -24.6447  -10.9831   19.8151 C   0  0  0  0  0  0  0  0  0  0  0  0
  -25.5300  -12.3547   18.3421 C   0  0  0  0  0  0  0  0  0  0  0  0
  -29.6449  -21.7151   19.0957 C   0  0  0  0  0  0  0  0  0  0  0  0
  -23.1046  -11.8836   17.9625 C   0  0  0  0  0  0  0  0  0  0  0  0
  -25.1988  -32.1825   22.1771 C   0  0  0  0  0  0  0  0  0  0  0  0
  -29.1768  -24.2555   20.9634 C   0  0  0  0  0  0  0  0  0  0  0  0
  -22.1716  -31.0595   21.8651 C   0  0  0  0  0  0  0  0  0  0  0  0
  -20.1155  -28.4181   21.2001 C   0  0  0  0  0  0  0  0  0  0  0  0
  -30.1336  -15.1371   19.7800 C   0  0  0  0  0  0  0  0  0  0  0  0
  -25.6577  -37.1396   23.3057 C   0  0  0  0  0  0  0  0  0  0  0  0
  -25.3077  -31.0618   19.9214 C   0  0  0  0  0  0  0  0  0  0  0  0
  -24.0123  -29.3357   21.9431 C   0  0  0  0  0  0  0  0  0  0  0  0
  -24.6572  -36.0337   23.6318 C   0  0  0  0  0  0  0  0  0  0  0  0
  -30.2205  -11.5908   20.0848 C   0  0  0  0  0  0  0  0  0  0  0  0
  -25.3830  -34.7844   24.1208 C   0  0  0  0  0  0  0  0  0  0  0  0
  -28.7529  -11.1790   19.9475 C   0  0  0  0  0  0  0  0  0  0  0  0
  -30.3717  -12.9058   20.8475 C   0  0  0  0  0  0  0  0  0  0  0  0
  -28.1048  -13.6099   20.1882 C   0  0  0  0  0  0  0  0  0  0  0  0
  -26.3182  -34.2306   23.0390 C   0  0  1  0  0  0  0  0  0  0  0  0
  -24.4153  -31.6382   21.0163 C   0  0  1  0  0  0  0  0  0  0  0  0
  -27.8979  -12.3244   19.3707 C   0  0  2  0  0  0  0  0  0  0  0  0
  -17.6879  -27.7984   21.0581 C   0  0  0  0  0  0  0  0  0  0  0  0
  -33.2787  -24.2832   19.1666 C   0  0  0  0  0  0  0  0  0  0  0  0
  -34.1559  -24.0639   21.4994 C   0  0  0  0  0  0  0  0  0  0  0  0
  -22.0062  -31.0191   24.9116 C   0  0  0  0  0  0  0  0  0  0  0  0
  -19.9968  -29.5389   24.7134 C   0  0  0  0  0  0  0  0  0  0  0  0
  -19.9427  -31.8457   23.7657 C   0  0  0  0  0  0  0  0  0  0  0  0
  -20.3495  -27.6884   18.3415 C   0  0  0  0  0  0  0  0  0  0  0  0
  -28.7014  -25.6196   20.5011 C   0  0  0  0  0  0  0  0  0  1  0  0
  -31.6691  -24.1121   21.1402 C   0  0  0  0  0  0  0  0  0  0  0  0
  -30.4458  -23.7286   20.3042 C   0  0  1  0  0  0  0  0  0  0  0  0
  -21.3181  -30.0644   22.6136 C   0  0  1  0  0  0  0  0  0  0  0  0
  -18.9070  -28.2864   20.2909 C   0  0  2  0  0  0  0  0  0  0  0  0
  -33.0230  -23.6743   20.5459 C   0  0  0  0  0  0  0  0  0  0  0  0
  -20.8407  -30.6095   23.9893 C   0  0  0  0  0  0  0  0  0  0  0  0
  -25.9211  -11.0996   20.1912 N   0  0  0  0  0  0  0  0  0  0  0  0
  -26.4333  -11.9398   19.2760 N   0  0  0  0  0  0  0  0  0  0  0  0
  -23.4779  -30.6526   21.5585 N   0  0  0  0  0  0  0  0  0  0  0  0
  -29.5364  -13.9452   20.2418 N   0  0  0  0  0  0  0  0  0  0  0  0
  -25.8775  -13.2015   17.3498 N   0  0  0  0  0  0  0  0  0  0  0  0
  -21.9845  -11.1850   18.4334 N   0  0  0  0  0  0  0  0  0  0  0  0
  -29.2450  -16.0377   19.1935 N   0  0  0  0  0  0  0  0  0  0  0  0
  -30.2893  -22.3036   20.1765 N   0  0  0  0  0  0  0  0  0  0  0  0
  -25.5619  -33.5085   22.0385 N   0  0  0  0  0  0  0  0  0  0  0  0
  -20.2349  -29.6940   21.7092 N   0  0  0  0  0  0  0  0  0  0  0  0
  -19.1885  -27.3199   19.1919 N   0  3  0  0  0  0  0  0  0  0  0  0
  -29.1513  -22.3322   18.1555 O   0  0  0  0  0  0  0  0  0  0  0  0
  -22.9974  -12.5942   16.9344 O   0  0  0  0  0  0  0  0  0  0  0  0
  -25.4538  -31.4537   23.1288 O   0  0  0  0  0  0  0  0  0  0  0  0
  -28.5898  -23.6308   21.8472 O   0  0  0  0  0  0  0  0  0  0  0  0
  -21.6946  -32.1547   21.5574 O   0  0  0  0  0  0  0  0  0  0  0  0
  -20.8753  -27.4819   21.4380 O   0  0  0  0  0  0  0  0  0  0  0  0
  -31.3484  -15.3321   19.8716 O   0  0  0  0  0  0  0  0  0  0  0  0
  -21.1465   -7.7332   22.7251 O   0  0  0  0  0  0  0  0  0  0  0  0
  -27.5168  -26.0039   21.1978 O   0  0  0  0  0  0  0  0  0  1  0  0
  -22.9427   -2.7404   24.2250 F   0  0  0  0  0  0  0  0  0  0  0  0
  -31.5706  -20.0719   20.3513 F   0  0  0  0  0  0  0  0  0  0  0  0
  -19.8406   -5.4452   21.8869 F   0  0  0  0  0  0  0  0  0  0  0  0
  1  2  1  0  0  0  0
  1  6  2  0  0  0  0
  2  7  2  0  0  0  0
  3 10  2  0  0  0  0
  3 18  1  0  0  0  0
  4 11  1  0  0  0  0
  4 18  2  0  0  0  0
  5  9  2  0  0  0  0
  5 19  1  0  0  0  0
  6 21  1  0  0  0  0
  7 23  1  0  0  0  0
  8 12  2  0  0  0  0
  8 22  1  0  0  0  0
  9 25  1  0  0  0  0
 10 26  1  0  0  0  0
 11 26  2  0  0  0  0
 12 27  1  0  0  0  0
 13 14  2  0  0  0  0
 13 28  1  0  0  0  0
 14 29  1  0  0  0  0
 15 24  1  0  0  0  0
 15 27  2  0  0  0  0
 16 25  2  0  0  0  0
 16 30  1  0  0  0  0
 17 29  2  0  0  0  0
 17 31  1  0  0  0  0
 18 32  1  0  0  0  0
 19 30  2  0  0  0  0
 19 34  1  0  0  0  0
 20 32  1  0  0  0  0
 20 33  2  0  0  0  0
 20 35  1  0  0  0  0
 21 23  2  0  0  0  0
 21 41  1  0  0  0  0
 22 24  2  0  0  0  0
 22 42  1  0  0  0  0
 23 50  1  0  0  0  0
 24 43  1  0  0  0  0
 25 73  1  0  0  0  0
 26 85  1  0  0  0  0
 27 86  1  0  0  0  0
 28 31  2  0  0  0  0
 28 85  1  0  0  0  0
 29 87  1  0  0  0  0
 30 88  1  0  0  0  0
 31 89  1  0  0  0  0
 32 67  2  0  0  0  0
 33 68  1  0  0  0  0
 33 71  1  0  0  0  0
 34 74  1  0  0  0  0
 34 78  2  0  0  0  0
 35 72  1  0  0  0  0
 35 79  2  0  0  0  0
 36 51  1  0  0  0  0
 36 75  1  0  0  0  0
 36 80  2  0  0  0  0
 37 60  1  0  0  0  0
 37 62  1  0  0  0  0
 37 81  2  0  0  0  0
 38 63  1  0  0  0  0
 38 69  1  0  0  0  0
 38 82  2  0  0  0  0
 39 64  1  0  0  0  0
 39 76  1  0  0  0  0
 39 83  2  0  0  0  0
 40 70  1  0  0  0  0
 40 73  1  0  0  0  0
 40 84  2  0  0  0  0
 41 44  1  0  0  0  0
 42 51  1  0  0  0  0
 43 69  1  0  0  0  0
 44 46  1  0  0  0  0
 45 47  1  0  0  0  0
 45 48  1  0  0  0  0
 46 50  1  0  0  0  0
 47 52  1  0  0  0  0
 48 70  1  0  0  0  0
 49 52  1  0  0  0  0
 49 70  1  0  0  0  0
 50 75  1  0  0  0  0
 51 69  1  0  0  0  0
 52 68  1  0  0  0  0
 53 64  1  0  0  0  0
 54 65  1  0  0  0  0
 55 65  1  0  0  0  0
 56 66  1  0  0  0  0
 57 66  1  0  0  0  0
 58 66  1  0  0  0  0
 59 77  1  0  0  0  0
 60 86  1  0  0  0  0
 61 62  1  0  0  0  0
 61 65  1  0  0  0  0
 62 74  1  0  0  0  0
 63 66  1  0  0  0  0
 63 76  1  0  0  0  0
 64 77  1  0  0  0  0
 67 68  1  0  0  0  0
M  CHG  1  77   1
M  ISO  4  40 100  60 101  73 100  86 101
M  END
> <Batch ID>
0099

> <Smiles>
CNC(C)C(=O)NC(C(=O)N1Cc2cc([101O:1][101CH2:1]C(=O)C(CC(C)C)NC(=O)c3ccc([100NH:0][100C:0](=O)N4CCCC(n5nc(-c6ccc(Oc7ccc(F)cc7F)cc6)c(C(N)=O)c5N)C4)cc3F)ccc2CC1C(=O)NC1CCCc2ccccc21)C(C)(C)C

> <Shape>
0.324

> <Color>
0.115

> <Negative vol penalty>
0.000

$$$$

  -OEChem-04052300543D

 89 98  0     1  0  0  0  0  0999 V2000
  -17.2673  -26.3353   21.8360 C   0  0  0  0  0  0  0  0  0  0  0  0
  -18.5682  -25.9972   21.4772 C   0  0  0  0  0  0  0  0  0  0  0  0
  -23.3156   -9.5441   21.6335 C   0  0  0  0  0  0  0  0  0  0  0  0
  -23.9361  -11.4370   23.0006 C   0  0  0  0  0  0  0  0  0  0  0  0
  -17.0222  -27.5193   22.5303 C   0  0  0  0  0  0  0  0  0  0  0  0
  -19.6248  -26.8435   21.8116 C   0  0  0  0  0  0  0  0  0  0  0  0
  -23.6057  -24.3347   23.6832 C   0  0  0  0  0  0  0  0  0  0  0  0
  -22.6260   -8.9909   22.7124 C   0  0  0  0  0  0  0  0  0  0  0  0
  -23.2465  -10.8839   24.0795 C   0  0  0  0  0  0  0  0  0  0  0  0
  -24.4303  -23.6775   22.7711 C   0  0  0  0  0  0  0  0  0  0  0  0
  -19.6476   -9.4269   24.2526 C   0  0  0  0  0  0  0  0  0  0  0  0
  -18.3767   -8.9053   24.0109 C   0  0  0  0  0  0  0  0  0  0  0  0
  -25.9996  -25.5062   22.8814 C   0  0  0  0  0  0  0  0  0  0  0  0
  -29.1079  -19.2908   21.3968 C   0  0  0  0  0  0  0  0  0  0  0  0
  -30.0668  -18.8880   19.2162 C   0  0  0  0  0  0  0  0  0  0  0  0
  -19.1253   -6.7340   24.7606 C   0  0  0  0  0  0  0  0  0  0  0  0
  -23.9707  -10.7671   21.7776 C   0  0  0  0  0  0  0  0  0  0  0  0
  -24.1537  -11.7014   19.4109 C   0  0  0  0  0  0  0  0  0  0  0  0
  -18.0774  -28.3758   22.8819 C   0  0  0  0  0  0  0  0  0  0  0  0
  -23.9673  -25.5897   24.1938 C   0  0  0  0  0  0  0  0  0  0  0  0
  -19.3935  -28.0407   22.5102 C   0  0  0  0  0  0  0  0  0  0  0  0
  -25.1791  -26.1761   23.8018 C   0  0  0  0  0  0  0  0  0  0  0  0
  -29.6016  -19.7762   20.1860 C   0  0  0  0  0  0  0  0  0  0  0  0
  -29.5446  -17.0291   20.6683 C   0  0  0  0  0  0  0  0  0  0  0  0
  -22.5914   -9.6608   23.9354 C   0  0  0  0  0  0  0  0  0  0  0  0
  -25.6261  -24.2645   22.3678 C   0  0  0  0  0  0  0  0  0  0  0  0
  -20.6574   -8.6020   24.7482 C   0  0  0  0  0  0  0  0  0  0  0  0
  -29.0795  -17.9173   21.6381 C   0  0  0  0  0  0  0  0  0  0  0  0
  -18.1155   -7.5589   24.2649 C   0  0  0  0  0  0  0  0  0  0  0  0
  -30.0383  -17.5144   19.4574 C   0  0  0  0  0  0  0  0  0  0  0  0
  -20.3962   -7.2555   25.0023 C   0  0  0  0  0  0  0  0  0  0  0  0
  -24.6838  -11.3388   20.6636 C   0  0  0  0  0  0  0  0  0  0  0  0
  -25.2294  -12.1924   18.7121 C   0  0  0  0  0  0  0  0  0  0  0  0
  -30.6151  -21.7648   19.1050 C   0  0  0  0  0  0  0  0  0  0  0  0
  -22.8092  -11.6034   18.9227 C   0  0  0  0  0  0  0  0  0  0  0  0
  -22.7038  -28.5044   24.0849 C   0  0  0  0  0  0  0  0  0  0  0  0
  -25.1153  -29.2031   26.1388 C   0  0  0  0  0  0  0  0  0  0  0  0
  -28.2130  -28.4259   27.3418 C   0  0  0  0  0  0  0  0  0  0  0  0
  -30.3988  -14.6755   20.3903 C   0  0  0  0  0  0  0  0  0  0  0  0
  -17.7581  -29.6679   23.5912 C   0  0  0  0  0  0  0  0  0  0  0  0
  -23.0796  -26.2734   25.1973 C   0  0  0  0  0  0  0  0  0  0  0  0
  -25.6227  -27.5127   24.3359 C   0  0  0  0  0  0  0  0  0  0  0  0
  -30.3807  -23.1947   18.6558 C   0  0  0  0  0  0  0  0  0  0  0  0
  -18.9754  -30.3258   24.2359 C   0  0  0  0  0  0  0  0  0  0  0  0
  -29.7032  -24.0702   19.6871 C   0  0  0  0  0  0  0  0  0  0  0  0
  -29.9877  -11.7673   18.3776 C   0  0  0  0  0  0  0  0  0  0  0  0
  -20.1501  -30.3443   23.2630 C   0  0  0  0  0  0  0  0  0  0  0  0
  -28.5309  -11.3639   18.6167 C   0  0  0  0  0  0  0  0  0  0  0  0
  -30.6393  -12.3171   19.6453 C   0  0  0  0  0  0  0  0  0  0  0  0
  -28.7336  -22.0481   20.7427 C   0  0  0  0  0  0  0  0  0  0  0  0
  -28.4482  -13.0054   20.5366 C   0  0  0  0  0  0  0  0  0  0  0  0
  -20.5689  -28.9206   22.8767 C   0  0  1  0  0  0  0  0  0  0  0  0
  -23.2996  -27.7817   25.2598 C   0  0  1  0  0  0  0  0  0  0  0  0
  -28.4073  -23.4050   20.1207 C   0  0  1  0  0  0  0  0  0  0  0  0
  -27.7301  -12.5062   19.2721 C   0  0  2  0  0  0  0  0  0  0  0  0
  -26.6511  -16.6880   23.9935 C   0  0  0  0  0  0  0  0  0  0  0  0
  -29.9376  -29.2025   28.9911 C   0  0  0  0  0  0  0  0  0  0  0  0
  -25.9073  -31.4600   24.2443 C   0  0  0  0  0  0  0  0  0  0  0  0
  -28.1203  -31.5683   25.4103 C   0  0  0  0  0  0  0  0  0  0  0  0
  -26.0226  -32.0474   26.6725 C   0  0  0  0  0  0  0  0  0  0  0  0
  -28.0669  -25.8918   28.8636 C   0  0  0  0  0  0  0  0  0  0  0  0
  -27.6430  -24.2848   21.1078 C   0  0  0  0  0  0  0  0  0  1  0  0
  -27.2409  -17.7914   23.1412 C   0  0  0  0  0  0  0  0  0  0  0  0
  -26.5437  -29.6689   25.9917 C   0  0  1  0  0  0  0  0  0  0  0  0
  -28.7393  -28.2951   28.7597 C   0  0  2  0  0  0  0  0  0  0  0  0
  -26.6395  -31.1618   25.5680 C   0  0  0  0  0  0  0  0  0  0  0  0
  -25.9943  -11.5787   20.7580 N   0  0  0  0  0  0  0  0  0  0  0  0
  -26.2968  -12.0973   19.5557 N   0  0  0  0  0  0  0  0  0  0  0  0
  -29.6309  -21.2015   19.9354 N   0  0  0  0  0  0  0  0  0  0  0  0
  -24.7174  -28.1445   25.3099 N   0  0  0  0  0  0  0  0  0  0  0  0
  -29.8274  -13.3983   20.2079 N   0  0  0  0  0  0  0  0  0  0  0  0
  -25.3568  -12.6918   17.4643 N   0  0  0  0  0  0  0  0  0  0  0  0
  -21.8269  -11.0754   19.7716 N   0  0  0  0  0  0  0  0  0  0  0  0
  -29.5220  -15.6317   20.9017 N   0  0  0  0  0  0  0  0  0  0  0  0
  -21.3427  -28.3155   23.9394 N   0  0  0  0  0  0  0  0  0  0  0  0
  -27.2051  -29.3629   27.2555 N   0  0  0  0  0  0  0  0  0  0  0  0
  -29.1547  -26.8897   29.0304 N   0  3  0  0  0  0  0  0  0  0  0  0
  -31.6094  -21.1766   18.6713 O   0  0  0  0  0  0  0  0  0  0  0  0
  -22.4916  -11.9578   17.7621 O   0  0  0  0  0  0  0  0  0  0  0  0
  -23.4252  -29.1843   23.3645 O   0  0  0  0  0  0  0  0  0  0  0  0
  -24.3817  -29.7532   26.9640 O   0  0  0  0  0  0  0  0  0  0  0  0
  -28.6546  -27.7658   26.4038 O   0  0  0  0  0  0  0  0  0  0  0  0
  -31.5713  -14.9111   20.0876 O   0  0  0  0  0  0  0  0  0  0  0  0
  -21.9184   -9.1215   24.9883 O   0  0  0  0  0  0  0  0  0  0  0  0
  -26.4325  -23.6255   21.4772 O   0  0  0  0  0  0  0  0  0  1  0  0
  -28.5928  -17.4639   22.8278 O   0  0  0  0  0  0  0  0  0  0  0  0
  -16.8946   -7.0585   24.0343 F   0  0  0  0  0  0  0  0  0  0  0  0
  -30.4882  -16.6710   18.5171 F   0  0  0  0  0  0  0  0  0  0  0  0
  -21.3619   -6.4584   25.4796 F   0  0  0  0  0  0  0  0  0  0  0  0
  1  2  1  0  0  0  0
  1  5  2  0  0  0  0
  2  6  2  0  0  0  0
  3  8  2  0  0  0  0
  3 17  1  0  0  0  0
  4  9  1  0  0  0  0
  4 17  2  0  0  0  0
  5 19  1  0  0  0  0
  6 21  1  0  0  0  0
  7 10  2  0  0  0  0
  7 20  1  0  0  0  0
  8 25  1  0  0  0  0
  9 25  2  0  0  0  0
 10 26  1  0  0  0  0
 11 12  2  0  0  0  0
 11 27  1  0  0  0  0
 12 29  1  0  0  0  0
 13 22  1  0  0  0  0
 13 26  2  0  0  0  0
 14 23  2  0  0  0  0
 14 28  1  0  0  0  0
 15 23  1  0  0  0  0
 15 30  2  0  0  0  0
 16 29  2  0  0  0  0
 16 31  1  0  0  0  0
 17 32  1  0  0  0  0
 18 32  1  0  0  0  0
 18 33  2  0  0  0  0
 18 35  1  0  0  0  0
 19 21  2  0  0  0  0
 19 40  1  0  0  0  0
 20 22  2  0  0  0  0
 20 41  1  0  0  0  0
 21 52  1  0  0  0  0
 22 42  1  0  0  0  0
 23 69  1  0  0  0  0
 24 28  2  0  0  0  0
 24 30  1  0  0  0  0
 24 74  1  0  0  0  0
 25 84  1  0  0  0  0
 26 85  1  0  0  0  0
 27 31  2  0  0  0  0
 27 84  1  0  0  0  0
 28 86  1  0  0  0  0
 29 87  1  0  0  0  0
 30 88  1  0  0  0  0
 31 89  1  0  0  0  0
 32 67  2  0  0  0  0
 33 68  1  0  0  0  0
 33 72  1  0  0  0  0
 34 43  1  0  0  0  0
 34 69  1  0  0  0  0
 34 78  2  0  0  0  0
 35 73  1  0  0  0  0
 35 79  2  0  0  0  0
 36 53  1  0  0  0  0
 36 75  1  0  0  0  0
 36 80  2  0  0  0  0
 37 64  1  0  0  0  0
 37 70  1  0  0  0  0
 37 81  2  0  0  0  0
 38 65  1  0  0  0  0
 38 76  1  0  0  0  0
 38 82  2  0  0  0  0
 39 71  1  0  0  0  0
 39 74  1  0  0  0  0
 39 83  2  0  0  0  0
 40 44  1  0  0  0  0
 41 53  1  0  0  0  0
 42 70  1  0  0  0  0
 43 45  1  0  0  0  0
 44 47  1  0  0  0  0
 45 54  1  0  0  0  0
 46 48  1  0  0  0  0
 46 49  1  0  0  0  0
 47 52  1  0  0  0  0
 48 55  1  0  0  0  0
 49 71  1  0  0  0  0
 50 54  1  0  0  0  0
 50 69  1  0  0  0  0
 51 55  1  0  0  0  0
 51 71  1  0  0  0  0
 52 75  1  0  0  0  0
 53 70  1  0  0  0  0
 54 62  1  0  0  0  0
 55 68  1  0  0  0  0
 56 63  1  0  0  0  0
 57 65  1  0  0  0  0
 58 66  1  0  0  0  0
 59 66  1  0  0  0  0
 60 66  1  0  0  0  0
 61 77  1  0  0  0  0
 62 85  1  0  0  0  0
 63 86  1  0  0  0  0
 64 66  1  0  0  0  0
 64 76  1  0  0  0  0
 65 77  1  0  0  0  0
 67 68  1  0  0  0  0
M  CHG  1  77   1
M  ISO  4  39 100  62 101  74 100  85 101
M  END
> <Batch ID>
0099

> <Smiles>
CCOc1cc(N2CC([101CH2:1][101O:1]c3ccc4c(c3)CN(C(=O)C(NC(=O)C(C)NC)C(C)(C)C)C(C(=O)NC3CCCc5ccccc53)C4)CCC2=O)cc(F)c1[100NH:0][100C:0](=O)N1CCCC(n2nc(-c3ccc(Oc4ccc(F)cc4F)cc3)c(C(N)=O)c2N)C1

> <Shape>
0.282

> <Color>
0.102

> <Negative vol penalty>
0.000

$$$$

  -OEChem-04052300543D

 83 91  0     1  0  0  0  0  0999 V2000
  -20.4236  -25.3337   25.4258 C   0  0  0  0  0  0  0  0  0  0  0  0
  -21.4925  -25.2074   24.5444 C   0  0  0  0  0  0  0  0  0  0  0  0
  -24.5694   -9.4271   21.3189 C   0  0  0  0  0  0  0  0  0  0  0  0
  -22.6170  -10.6871   20.6574 C   0  0  0  0  0  0  0  0  0  0  0  0
  -19.3773  -26.2065   25.1303 C   0  0  0  0  0  0  0  0  0  0  0  0
  -21.5152  -25.9533   23.3664 C   0  0  0  0  0  0  0  0  0  0  0  0
  -26.0405  -28.0457   22.4787 C   0  0  0  0  0  0  0  0  0  0  0  0
  -23.7643   -8.3197   21.5858 C   0  0  0  0  0  0  0  0  0  0  0  0
  -21.8119   -9.5797   20.9242 C   0  0  0  0  0  0  0  0  0  0  0  0
  -27.0357  -27.2160   21.9640 C   0  0  0  0  0  0  0  0  0  0  0  0
  -22.2283   -5.8749   19.8262 C   0  0  0  0  0  0  0  0  0  0  0  0
  -22.6616   -4.6321   19.3643 C   0  0  0  0  0  0  0  0  0  0  0  0
  -26.6116  -28.0877   19.7550 C   0  0  0  0  0  0  0  0  0  0  0  0
  -28.3850  -20.9258   17.8437 C   0  0  0  0  0  0  0  0  0  0  0  0
  -27.9411  -20.1050   20.0722 C   0  0  0  0  0  0  0  0  0  0  0  0
  -26.6180  -19.3193   18.2097 C   0  0  0  0  0  0  0  0  0  0  0  0
  -22.6995   -3.8022   21.6330 C   0  0  0  0  0  0  0  0  0  0  0  0
  -23.9957  -10.6108   20.8548 C   0  0  0  0  0  0  0  0  0  0  0  0
  -25.4495  -12.0799   19.3594 C   0  0  0  0  0  0  0  0  0  0  0  0
  -19.3918  -26.9706   23.9528 C   0  0  0  0  0  0  0  0  0  0  0  0
  -25.3147  -28.8962   21.6323 C   0  0  0  0  0  0  0  0  0  0  0  0
  -20.4674  -26.8362   23.0543 C   0  0  0  0  0  0  0  0  0  0  0  0
  -25.6095  -28.9291   20.2618 C   0  0  0  0  0  0  0  0  0  0  0  0
  -28.6781  -20.9141   19.2073 C   0  0  0  0  0  0  0  0  0  0  0  0
  -27.3549  -20.1284   17.3448 C   0  0  0  0  0  0  0  0  0  0  0  0
  -26.9111  -19.3076   19.5733 C   0  0  0  0  0  0  0  0  0  0  0  0
  -22.3856   -8.3960   21.3884 C   0  0  0  0  0  0  0  0  0  0  0  0
  -27.3194  -27.2348   20.6016 C   0  0  0  0  0  0  0  0  0  0  0  0
  -22.0307   -6.0814   21.1915 C   0  0  0  0  0  0  0  0  0  0  0  0
  -22.8971   -3.5957   20.2677 C   0  0  0  0  0  0  0  0  0  0  0  0
  -22.2663   -5.0450   22.0949 C   0  0  0  0  0  0  0  0  0  0  0  0
  -24.8268  -11.7553   20.5795 C   0  0  0  0  0  0  0  0  0  0  0  0
  -26.1178  -13.2520   19.6163 C   0  0  0  0  0  0  0  0  0  0  0  0
  -25.4258  -11.3842   18.1060 C   0  0  0  0  0  0  0  0  0  0  0  0
  -22.2543  -29.1741   20.8196 C   0  0  0  0  0  0  0  0  0  0  0  0
  -23.3102  -31.8188   19.2663 C   0  0  0  0  0  0  0  0  0  0  0  0
  -29.0373  -24.1431   19.8024 C   0  0  0  0  0  0  0  0  0  0  0  0
  -25.9111  -33.4745   17.8029 C   0  0  0  0  0  0  0  0  0  0  0  0
  -26.3251  -18.3563   21.8312 C   0  0  0  0  0  0  0  0  0  0  0  0
  -18.2153  -27.8655   23.6536 C   0  0  0  0  0  0  0  0  0  0  0  0
  -24.2626  -29.8045   22.2071 C   0  0  0  0  0  0  0  0  0  0  0  0
  -24.8730  -29.8387   19.3139 C   0  0  0  0  0  0  0  0  0  0  0  0
  -18.4969  -28.8984   22.5654 C   0  0  0  0  0  0  0  0  0  0  0  0
  -27.0519  -15.6207   23.9911 C   0  0  0  0  0  0  0  0  0  0  0  0
  -19.1869  -28.2432   21.3732 C   0  0  0  0  0  0  0  0  0  0  0  0
  -26.5891  -14.3979   23.1957 C   0  0  0  0  0  0  0  0  0  0  0  0
  -26.1308  -16.8200   23.7746 C   0  0  0  0  0  0  0  0  0  0  0  0
  -25.4361  -15.9564   21.5744 C   0  0  0  0  0  0  0  0  0  0  0  0
  -20.5402  -27.6466   21.7783 C   0  0  1  0  0  0  0  0  0  0  0  0
  -23.2343  -30.2563   21.1747 C   0  0  1  0  0  0  0  0  0  0  0  0
  -26.3696  -14.7423   21.7095 C   0  0  2  0  0  0  0  0  0  0  0  0
  -26.4583  -35.5999   16.5862 C   0  0  0  0  0  0  0  0  0  0  0  0
  -21.9889  -30.7143   16.7476 C   0  0  0  0  0  0  0  0  0  0  0  0
  -23.3440  -32.3386   15.4084 C   0  0  0  0  0  0  0  0  0  0  0  0
  -21.6973  -33.1750   17.0851 C   0  0  0  0  0  0  0  0  0  0  0  0
  -27.8406  -34.3071   19.8868 C   0  0  0  0  0  0  0  0  0  0  0  0
  -29.7868  -21.7724   19.7441 C   0  0  0  0  0  0  0  0  0  0  0  0
  -28.5169  -25.1867   20.7676 C   0  0  0  0  0  0  0  0  0  1  0  0
  -23.8442  -32.1048   17.8835 C   0  0  1  0  0  0  0  0  0  0  0  0
  -26.3975  -34.9061   17.9381 C   0  0  2  0  0  0  0  0  0  0  0  0
  -22.7313  -32.0645   16.7984 C   0  0  0  0  0  0  0  0  0  0  0  0
  -25.0773  -12.6488   21.5401 N   0  0  0  0  0  0  0  0  0  0  0  0
  -25.8650  -13.5465   20.9238 N   0  0  0  0  0  0  0  0  0  0  0  0
  -23.8489  -30.7034   19.9231 N   0  0  0  0  0  0  0  0  0  0  0  0
  -25.9730  -17.0898   22.3439 N   0  0  0  0  0  0  0  0  0  0  0  0
  -27.0587  -20.1406   15.9656 N   0  0  0  0  0  0  0  0  0  0  0  0
  -26.8914  -14.0491   18.8490 N   0  0  0  0  0  0  0  0  0  0  0  0
  -24.6898  -10.1950   18.0157 N   0  0  0  0  0  0  0  0  0  0  0  0
  -26.1630  -18.4855   20.4522 N   0  0  0  0  0  0  0  0  0  0  0  0
  -21.5371  -28.6890   21.8965 N   0  0  0  0  0  0  0  0  0  0  0  0
  -29.2830  -22.9356   20.4370 N   0  0  0  0  0  0  0  0  0  0  0  0
  -24.5459  -33.3807   17.9727 N   0  0  0  0  0  0  0  0  0  0  0  0
  -27.7591  -34.9356   18.5431 N   0  3  0  0  0  0  0  0  0  0  0  0
  -26.0526  -11.7962   17.1005 O   0  0  0  0  0  0  0  0  0  0  0  0
  -22.1551  -28.8074   19.6545 O   0  0  0  0  0  0  0  0  0  0  0  0
  -22.4521  -32.5621   19.7488 O   0  0  0  0  0  0  0  0  0  0  0  0
  -29.2112  -24.3706   18.6083 O   0  0  0  0  0  0  0  0  0  0  0  0
  -26.6661  -32.5340   17.5665 O   0  0  0  0  0  0  0  0  0  0  0  0
  -26.7655  -19.2509   22.5577 O   0  0  0  0  0  0  0  0  0  0  0  0
  -21.5998   -7.3156   21.6484 O   0  0  0  0  0  0  0  0  0  0  0  0
  -28.2899  -26.4255   20.0965 O   0  0  0  0  0  0  0  0  0  1  0  0
  -23.3117   -2.4019   19.8239 F   0  0  0  0  0  0  0  0  0  0  0  0
  -22.0770   -5.2371   23.4075 F   0  0  0  0  0  0  0  0  0  0  0  0
  1  2  1  0  0  0  0
  1  5  2  0  0  0  0
  2  6  2  0  0  0  0
  3  8  2  0  0  0  0
  3 18  1  0  0  0  0
  4  9  1  0  0  0  0
  4 18  2  0  0  0  0
  5 20  1  0  0  0  0
  6 22  1  0  0  0  0
  7 10  2  0  0  0  0
  7 21  1  0  0  0  0
  8 27  1  0  0  0  0
  9 27  2  0  0  0  0
 10 28  1  0  0  0  0
 11 12  2  0  0  0  0
 11 29  1  0  0  0  0
 12 30  1  0  0  0  0
 13 23  1  0  0  0  0
 13 28  2  0  0  0  0
 14 24  1  0  0  0  0
 14 25  2  0  0  0  0
 15 24  2  0  0  0  0
 15 26  1  0  0  0  0
 16 25  1  0  0  0  0
 16 26  2  0  0  0  0
 17 30  2  0  0  0  0
 17 31  1  0  0  0  0
 18 32  1  0  0  0  0
 19 32  1  0  0  0  0
 19 33  2  0  0  0  0
 19 34  1  0  0  0  0
 20 22  2  0  0  0  0
 20 40  1  0  0  0  0
 21 23  2  0  0  0  0
 21 41  1  0  0  0  0
 22 49  1  0  0  0  0
 23 42  1  0  0  0  0
 24 57  1  0  0  0  0
 25 66  1  0  0  0  0
 26 69  1  0  0  0  0
 27 80  1  0  0  0  0
 28 81  1  0  0  0  0
 29 31  2  0  0  0  0
 29 80  1  0  0  0  0
 30 82  1  0  0  0  0
 31 83  1  0  0  0  0
 32 62  2  0  0  0  0
 33 63  1  0  0  0  0
 33 67  1  0  0  0  0
 34 68  1  0  0  0  0
 34 74  2  0  0  0  0
 35 50  1  0  0  0  0
 35 70  1  0  0  0  0
 35 75  2  0  0  0  0
 36 59  1  0  0  0  0
 36 64  1  0  0  0  0
 36 76  2  0  0  0  0
 37 58  1  0  0  0  0
 37 71  1  0  0  0  0
 37 77  2  0  0  0  0
 38 60  1  0  0  0  0
 38 72  1  0  0  0  0
 38 78  2  0  0  0  0
 39 65  1  0  0  0  0
 39 69  1  0  0  0  0
 39 79  2  0  0  0  0
 40 43  1  0  0  0  0
 41 50  1  0  0  0  0
 42 64  1  0  0  0  0
 43 45  1  0  0  0  0
 44 46  1  0  0  0  0
 44 47  1  0  0  0  0
 45 49  1  0  0  0  0
 46 51  1  0  0  0  0
 47 65  1  0  0  0  0
 48 51  1  0  0  0  0
 48 65  1  0  0  0  0
 49 70  1  0  0  0  0
 50 64  1  0  0  0  0
 51 63  1  0  0  0  0
 52 60  1  0  0  0  0
 53 61  1  0  0  0  0
 54 61  1  0  0  0  0
 55 61  1  0  0  0  0
 56 73  1  0  0  0  0
 57 71  1  0  0  0  0
 58 81  1  0  0  0  0
 59 61  1  0  0  0  0
 59 72  1  0  0  0  0
 60 73  1  0  0  0  0
 62 63  1  0  0  0  0
M  CHG  1  73   1
M  ISO  4  39 100  58 101  69 100  81 101
M  END
> <Batch ID>
0099

> <Smiles>
CNC(C)C(=O)NC(C(=O)N1Cc2cc([101O:1][101CH2:1]C(=O)NCc3cc(N)cc([100NH:0][100C:0](=O)N4CCCC(n5nc(-c6ccc(Oc7ccc(F)cc7F)cc6)c(C(N)=O)c5N)C4)c3)ccc2CC1C(=O)NC1CCCc2ccccc21)C(C)(C)C

> <Shape>
0.240

> <Color>
0.123

> <Negative vol penalty>
0.000

$$$$

  -OEChem-04052300543D

 83 91  0     1  0  0  0  0  0999 V2000
  -34.4656  -33.6990   25.7499 C   0  0  0  0  0  0  0  0  0  0  0  0
  -34.2074  -32.6287   24.8995 C   0  0  0  0  0  0  0  0  0  0  0  0
  -23.9241   -9.6238   19.9531 C   0  0  0  0  0  0  0  0  0  0  0  0
  -24.5699   -9.9241   22.2617 C   0  0  0  0  0  0  0  0  0  0  0  0
  -33.4984  -34.1086   26.6667 C   0  0  0  0  0  0  0  0  0  0  0  0
  -32.9820  -31.9666   24.9663 C   0  0  0  0  0  0  0  0  0  0  0  0
  -29.8782  -29.4877   20.3050 C   0  0  0  0  0  0  0  0  0  0  0  0
  -29.0829  -20.8674   20.4449 C   0  0  0  0  0  0  0  0  0  0  0  0
  -29.3264  -19.4948   20.4908 C   0  0  0  0  0  0  0  0  0  0  0  0
  -23.5424   -8.3112   20.2306 C   0  0  0  0  0  0  0  0  0  0  0  0
  -24.1882   -8.6115   22.5393 C   0  0  0  0  0  0  0  0  0  0  0  0
  -29.7781  -28.1789   19.8354 C   0  0  0  0  0  0  0  0  0  0  0  0
  -21.3165   -6.9192   23.0963 C   0  0  0  0  0  0  0  0  0  0  0  0
  -20.5650   -6.6945   24.2496 C   0  0  0  0  0  0  0  0  0  0  0  0
  -27.7483  -27.8848   21.1053 C   0  0  0  0  0  0  0  0  0  0  0  0
  -22.2934   -5.2309   25.0908 C   0  0  0  0  0  0  0  0  0  0  0  0
  -24.4379  -10.4303   20.9687 C   0  0  0  0  0  0  0  0  0  0  0  0
  -24.0292  -12.9394   20.7575 C   0  0  0  0  0  0  0  0  0  0  0  0
  -32.2569  -33.4573   26.7381 C   0  0  0  0  0  0  0  0  0  0  0  0
  -28.9184  -30.0023   21.1885 C   0  0  0  0  0  0  0  0  0  0  0  0
  -31.9977  -32.3669   25.8859 C   0  0  0  0  0  0  0  0  0  0  0  0
  -27.8371  -29.2013   21.5827 C   0  0  0  0  0  0  0  0  0  0  0  0
  -28.1233  -21.4339   21.2840 C   0  0  0  0  0  0  0  0  0  0  0  0
  -28.6103  -18.6886   21.3756 C   0  0  0  0  0  0  0  0  0  0  0  0
  -27.4072  -20.6278   22.1688 C   0  0  0  0  0  0  0  0  0  0  0  0
  -23.6744   -7.8051   21.5237 C   0  0  0  0  0  0  0  0  0  0  0  0
  -28.7146  -27.3762   20.2378 C   0  0  0  0  0  0  0  0  0  0  0  0
  -22.5565   -6.2997   22.9401 C   0  0  0  0  0  0  0  0  0  0  0  0
  -21.0534   -5.8504   25.2469 C   0  0  0  0  0  0  0  0  0  0  0  0
  -23.0450   -5.4556   23.9374 C   0  0  0  0  0  0  0  0  0  0  0  0
  -27.6507  -19.2551   22.2147 C   0  0  0  0  0  0  0  0  0  0  0  0
  -24.8329  -11.7861   20.6825 C   0  0  0  0  0  0  0  0  0  0  0  0
  -24.8658  -13.9653   20.3910 C   0  0  0  0  0  0  0  0  0  0  0  0
  -22.6499  -13.0717   21.1257 C   0  0  0  0  0  0  0  0  0  0  0  0
  -28.9773  -31.1129   24.1662 C   0  0  0  0  0  0  0  0  0  0  0  0
  -25.8772  -31.8364   23.5432 C   0  0  0  0  0  0  0  0  0  0  0  0
  -28.5251  -23.7532   20.3933 C   0  0  0  0  0  0  0  0  0  0  0  0
  -23.0653  -31.2037   21.7158 C   0  0  0  0  0  0  0  0  0  0  0  0
  -29.7769  -16.5758   20.6534 C   0  0  0  0  0  0  0  0  0  0  0  0
  -31.2606  -33.9057   27.7779 C   0  0  0  0  0  0  0  0  0  0  0  0
  -29.0261  -31.4249   21.6649 C   0  0  0  0  0  0  0  0  0  0  0  0
  -26.7693  -29.7128   22.5136 C   0  0  0  0  0  0  0  0  0  0  0  0
  -29.8457  -33.3900   27.5281 C   0  0  0  0  0  0  0  0  0  0  0  0
  -29.4996  -13.8696   18.3563 C   0  0  0  0  0  0  0  0  0  0  0  0
  -29.8713  -31.9022   27.1927 C   0  0  0  0  0  0  0  0  0  0  0  0
  -28.1947  -13.1812   18.7629 C   0  0  0  0  0  0  0  0  0  0  0  0
  -30.2661  -14.3940   19.5693 C   0  0  0  0  0  0  0  0  0  0  0  0
  -28.1846  -14.5681   20.8756 C   0  0  0  0  0  0  0  0  0  0  0  0
  -30.6711  -31.6392   25.9111 C   0  0  1  0  0  0  0  0  0  0  0  0
  -28.2712  -31.6780   22.9663 C   0  0  1  0  0  0  0  0  0  0  0  0
  -27.3459  -14.0806   19.6828 C   0  0  2  0  0  0  0  0  0  0  0  0
  -20.6772  -31.9310   21.4599 C   0  0  0  0  0  0  0  0  0  0  0  0
  -25.1403  -30.2988   26.0736 C   0  0  0  0  0  0  0  0  0  0  0  0
  -22.7712  -30.2426   25.2659 C   0  0  0  0  0  0  0  0  0  0  0  0
  -23.8734  -32.4293   25.7414 C   0  0  0  0  0  0  0  0  0  0  0  0
  -23.5032  -32.0551   18.9154 C   0  0  0  0  0  0  0  0  0  0  0  0
  -27.9838  -25.1491   20.6402 C   0  0  0  0  0  0  0  0  0  1  0  0
  -24.5598  -31.1146   23.6938 C   0  0  1  0  0  0  0  0  0  0  0  0
  -22.1086  -32.1295   20.9862 C   0  0  2  0  0  0  0  0  0  0  0  0
  -24.1072  -31.0108   25.1777 C   0  0  0  0  0  0  0  0  0  0  0  0
  -26.0839  -12.0534   20.2983 N   0  0  0  0  0  0  0  0  0  0  0  0
  -26.0725  -13.3864   20.1286 N   0  0  0  0  0  0  0  0  0  0  0  0
  -26.9223  -31.1083   22.9571 N   0  0  0  0  0  0  0  0  0  0  0  0
  -29.4002  -15.2414   20.3920 N   0  0  0  0  0  0  0  0  0  0  0  0
  -26.4302  -21.1832   23.0254 N   0  0  0  0  0  0  0  0  0  0  0  0
  -24.6794  -15.2969   20.2706 N   0  0  0  0  0  0  0  0  0  0  0  0
  -21.9376  -11.9161   21.4745 N   0  0  0  0  0  0  0  0  0  0  0  0
  -27.8943  -22.8289   21.2189 N   0  0  0  0  0  0  0  0  0  0  0  0
  -28.8595  -17.2944   21.4193 N   0  0  0  0  0  0  0  0  0  0  0  0
  -29.8842  -31.9799   24.7453 N   0  0  0  0  0  0  0  0  0  0  0  0
  -23.6130  -31.8083   22.8274 N   0  0  0  0  0  0  0  0  0  0  0  0
  -22.1579  -31.8735   19.5189 N   0  3  0  0  0  0  0  0  0  0  0  0
  -22.0618  -14.1798   21.1290 O   0  0  0  0  0  0  0  0  0  0  0  0
  -28.7174  -29.9751   24.5399 O   0  0  0  0  0  0  0  0  0  0  0  0
  -25.9733  -33.0055   23.9249 O   0  0  0  0  0  0  0  0  0  0  0  0
  -29.4017  -23.5418   19.5616 O   0  0  0  0  0  0  0  0  0  0  0  0
  -23.3001  -30.0575   21.3394 O   0  0  0  0  0  0  0  0  0  0  0  0
  -30.8224  -17.0544   20.2064 O   0  0  0  0  0  0  0  0  0  0  0  0
  -23.3018   -6.5243   21.7948 O   0  0  0  0  0  0  0  0  0  0  0  0
  -28.6149  -26.0981   19.7814 O   0  0  0  0  0  0  0  0  0  1  0  0
  -20.3323   -5.6360   26.3552 F   0  0  0  0  0  0  0  0  0  0  0  0
  -24.2361   -4.8586   23.7936 F   0  0  0  0  0  0  0  0  0  0  0  0
  -26.9611  -18.4786   23.0647 F   0  0  0  0  0  0  0  0  0  0  0  0
  1  2  1  0  0  0  0
  1  5  2  0  0  0  0
  2  6  2  0  0  0  0
  3 10  2  0  0  0  0
  3 17  1  0  0  0  0
  4 11  1  0  0  0  0
  4 17  2  0  0  0  0
  5 19  1  0  0  0  0
  6 21  1  0  0  0  0
  7 12  2  0  0  0  0
  7 20  1  0  0  0  0
  8  9  2  0  0  0  0
  8 23  1  0  0  0  0
  9 24  1  0  0  0  0
 10 26  1  0  0  0  0
 11 26  2  0  0  0  0
 12 27  1  0  0  0  0
 13 14  2  0  0  0  0
 13 28  1  0  0  0  0
 14 29  1  0  0  0  0
 15 22  1  0  0  0  0
 15 27  2  0  0  0  0
 16 29  2  0  0  0  0
 16 30  1  0  0  0  0
 17 32  1  0  0  0  0
 18 32  1  0  0  0  0
 18 33  2  0  0  0  0
 18 34  1  0  0  0  0
 19 21  2  0  0  0  0
 19 40  1  0  0  0  0
 20 22  2  0  0  0  0
 20 41  1  0  0  0  0
 21 49  1  0  0  0  0
 22 42  1  0  0  0  0
 23 25  2  0  0  0  0
 23 68  1  0  0  0  0
 24 31  2  0  0  0  0
 24 69  1  0  0  0  0
 25 31  1  0  0  0  0
 25 65  1  0  0  0  0
 26 79  1  0  0  0  0
 27 80  1  0  0  0  0
 28 30  2  0  0  0  0
 28 79  1  0  0  0  0
 29 81  1  0  0  0  0
 30 82  1  0  0  0  0
 31 83  1  0  0  0  0
 32 61  2  0  0  0  0
 33 62  1  0  0  0  0
 33 66  1  0  0  0  0
 34 67  1  0  0  0  0
 34 73  2  0  0  0  0
 35 50  1  0  0  0  0
 35 70  1  0  0  0  0
 35 74  2  0  0  0  0
 36 58  1  0  0  0  0
 36 63  1  0  0  0  0
 36 75  2  0  0  0  0
 37 57  1  0  0  0  0
 37 68  1  0  0  0  0
 37 76  2  0  0  0  0
 38 59  1  0  0  0  0
 38 71  1  0  0  0  0
 38 77  2  0  0  0  0
 39 64  1  0  0  0  0
 39 69  1  0  0  0  0
 39 78  2  0  0  0  0
 40 43  1  0  0  0  0
 41 50  1  0  0  0  0
 42 63  1  0  0  0  0
 43 45  1  0  0  0  0
 44 46  1  0  0  0  0
 44 47  1  0  0  0  0
 45 49  1  0  0  0  0
 46 51  1  0  0  0  0
 47 64  1  0  0  0  0
 48 51  1  0  0  0  0
 48 64  1  0  0  0  0
 49 70  1  0  0  0  0
 50 63  1  0  0  0  0
 51 62  1  0  0  0  0
 52 59  1  0  0  0  0
 53 60  1  0  0  0  0
 54 60  1  0  0  0  0
 55 60  1  0  0  0  0
 56 72  1  0  0  0  0
 57 80  1  0  0  0  0
 58 60  1  0  0  0  0
 58 71  1  0  0  0  0
 59 72  1  0  0  0  0
 61 62  1  0  0  0  0
M  CHG  1  72   1
M  ISO  4  39 100  57 101  69 100  80 101
M  END
> <Batch ID>
0099

> <Smiles>
CNC(C)C(=O)NC(C(=O)N1Cc2cc([101O:1][101CH2:1]C(=O)Nc3ccc([100NH:0][100C:0](=O)N4CCCC(n5nc(-c6ccc(Oc7ccc(F)cc7F)cc6)c(C(N)=O)c5N)C4)c(F)c3N)ccc2CC1C(=O)NC1CCCc2ccccc21)C(C)(C)C

> <Shape>
0.308

> <Color>
0.121

> <Negative vol penalty>
0.000

$$$$

  -OEChem-04052300543D

 89 98  0     1  0  0  0  0  0999 V2000
  -31.7131  -33.8249   20.8891 C   0  0  0  0  0  0  0  0  0  0  0  0
  -31.2872  -32.5045   20.7865 C   0  0  0  0  0  0  0  0  0  0  0  0
  -24.4687   -9.5414   22.1314 C   0  0  0  0  0  0  0  0  0  0  0  0
  -22.8672  -11.1900   22.8758 C   0  0  0  0  0  0  0  0  0  0  0  0
  -31.0922  -34.6884   21.7906 C   0  0  0  0  0  0  0  0  0  0  0  0
  -30.2407  -32.0466   21.5863 C   0  0  0  0  0  0  0  0  0  0  0  0
  -26.8865  -29.2738   18.9968 C   0  0  0  0  0  0  0  0  0  0  0  0
  -28.4499  -21.0392   20.6620 C   0  0  0  0  0  0  0  0  0  0  0  0
  -28.9986  -20.0932   21.5278 C   0  0  0  0  0  0  0  0  0  0  0  0
  -23.8961   -8.5992   22.9858 C   0  0  0  0  0  0  0  0  0  0  0  0
  -22.2945  -10.2479   23.7302 C   0  0  0  0  0  0  0  0  0  0  0  0
  -27.2360  -27.9546   18.7113 C   0  0  0  0  0  0  0  0  0  0  0  0
  -21.1725   -6.5957   23.0177 C   0  0  0  0  0  0  0  0  0  0  0  0
  -20.9365   -5.3184   22.5094 C   0  0  0  0  0  0  0  0  0  0  0  0
  -25.8774  -27.2016   20.5569 C   0  0  0  0  0  0  0  0  0  0  0  0
  -27.7841  -19.2729   19.1540 C   0  0  0  0  0  0  0  0  0  0  0  0
  -22.3895   -4.3789   24.1957 C   0  0  0  0  0  0  0  0  0  0  0  0
  -23.9543  -10.8368   22.0764 C   0  0  0  0  0  0  0  0  0  0  0  0
  -24.6587  -11.7309   19.7934 C   0  0  0  0  0  0  0  0  0  0  0  0
  -30.0312  -34.2434   22.5949 C   0  0  0  0  0  0  0  0  0  0  0  0
  -26.0370  -29.5680   20.0730 C   0  0  0  0  0  0  0  0  0  0  0  0
  -29.6059  -32.9046   22.5004 C   0  0  0  0  0  0  0  0  0  0  0  0
  -25.5166  -28.5251   20.8524 C   0  0  0  0  0  0  0  0  0  0  0  0
  -27.8426  -20.6291   19.4751 C   0  0  0  0  0  0  0  0  0  0  0  0
  -28.9401  -18.7370   21.2066 C   0  0  0  0  0  0  0  0  0  0  0  0
  -22.8089   -8.9525   23.7852 C   0  0  0  0  0  0  0  0  0  0  0  0
  -26.7338  -26.9185   19.4932 C   0  0  0  0  0  0  0  0  0  0  0  0
  -22.0171   -6.7647   24.1150 C   0  0  0  0  0  0  0  0  0  0  0  0
  -21.5450   -4.2100   23.0984 C   0  0  0  0  0  0  0  0  0  0  0  0
  -28.3328  -18.3269   20.0197 C   0  0  0  0  0  0  0  0  0  0  0  0
  -22.6255   -5.6563   24.7039 C   0  0  0  0  0  0  0  0  0  0  0  0
  -24.5458  -11.8106   21.1944 C   0  0  0  0  0  0  0  0  0  0  0  0
  -25.2902  -12.8962   19.4330 C   0  0  0  0  0  0  0  0  0  0  0  0
  -25.1883  -22.1992   17.4380 C   0  0  0  0  0  0  0  0  0  0  0  0
  -27.8121  -22.9104   18.4971 C   0  0  0  0  0  0  0  0  0  0  0  0
  -24.2309  -10.6962   18.8979 C   0  0  0  0  0  0  0  0  0  0  0  0
  -26.3244  -31.2275   22.7688 C   0  0  0  0  0  0  0  0  0  0  0  0
  -23.1557  -30.5896   23.0414 C   0  0  0  0  0  0  0  0  0  0  0  0
  -20.9793  -27.7681   22.4760 C   0  0  0  0  0  0  0  0  0  0  0  0
  -28.9816  -16.4541   22.1956 C   0  0  0  0  0  0  0  0  0  0  0  0
  -29.4224  -35.2009   23.5885 C   0  0  0  0  0  0  0  0  0  0  0  0
  -25.6482  -30.9941   20.3513 C   0  0  0  0  0  0  0  0  0  0  0  0
  -24.5848  -28.7864   22.0065 C   0  0  0  0  0  0  0  0  0  0  0  0
  -25.5097  -23.6085   17.8609 C   0  0  0  0  0  0  0  0  0  0  0  0
  -26.2824  -21.1647   17.5944 C   0  0  0  0  0  0  0  0  0  0  0  0
  -28.0730  -34.7384   24.1319 C   0  0  0  0  0  0  0  0  0  0  0  0
  -25.8591  -17.4357   20.8066 C   0  0  0  0  0  0  0  0  0  0  0  0
  -28.1361  -33.2694   24.5381 C   0  0  0  0  0  0  0  0  0  0  0  0
  -25.1709  -16.0837   20.6215 C   0  0  0  0  0  0  0  0  0  0  0  0
  -26.6597  -17.4971   22.1078 C   0  0  0  0  0  0  0  0  0  0  0  0
  -26.9442  -15.0388   22.0826 C   0  0  0  0  0  0  0  0  0  0  0  0
  -28.4577  -32.3772   23.3331 C   0  0  1  0  0  0  0  0  0  0  0  0
  -26.9951  -23.8470   17.6050 C   0  0  1  0  0  0  0  0  0  0  0  0
  -25.1863  -31.2180   21.7879 C   0  0  1  0  0  0  0  0  0  0  0  0
  -26.1786  -14.9283   20.7548 C   0  0  1  0  0  0  0  0  0  0  0  0
  -31.9586  -17.8239   21.8047 C   0  0  0  0  0  0  0  0  0  0  0  0
  -18.5373  -27.6799   21.9047 C   0  0  0  0  0  0  0  0  0  0  0  0
  -22.7567  -30.3271   26.0550 C   0  0  0  0  0  0  0  0  0  0  0  0
  -20.9080  -28.7017   25.5985 C   0  0  0  0  0  0  0  0  0  0  0  0
  -20.7241  -31.0556   24.7932 C   0  0  0  0  0  0  0  0  0  0  0  0
  -21.4835  -26.1250   20.0667 C   0  0  0  0  0  0  0  0  0  0  0  0
  -27.3528  -25.3096   17.8549 C   0  0  0  0  0  0  0  0  0  1  0  0
  -30.7943  -18.0629   22.7447 C   0  0  0  0  0  0  0  0  0  0  0  0
  -22.3376  -29.4780   23.6531 C   0  0  1  0  0  0  0  0  0  0  0  0
  -19.9572  -27.6173   21.3638 C   0  0  2  0  0  0  0  0  0  0  0  0
  -21.7078  -29.8860   25.0148 C   0  0  0  0  0  0  0  0  0  0  0  0
  -25.0642  -12.9373   21.6902 N   0  0  0  0  0  0  0  0  0  0  0  0
  -25.5090  -13.5763   20.5948 N   0  0  0  0  0  0  0  0  0  0  0  0
  -27.2762  -21.6064   18.5801 N   0  0  0  0  0  0  0  0  0  0  0  0
  -24.2392  -30.1979   22.2426 N   0  0  0  0  0  0  0  0  0  0  0  0
  -27.5776  -16.3537   22.2092 N   0  0  0  0  0  0  0  0  0  0  0  0
  -25.6742  -13.3951   18.2389 N   0  0  0  0  0  0  0  0  0  0  0  0
  -22.9384  -10.7695   18.3609 N   0  0  0  0  0  0  0  0  0  0  0  0
  -27.2799  -32.1923   22.5126 N   0  0  0  0  0  0  0  0  0  0  0  0
  -21.3656  -29.0815   22.6400 N   0  0  0  0  0  0  0  0  0  0  0  0
  -29.5095  -17.7601   22.1047 N   0  0  0  0  0  0  0  0  0  0  0  0
  -20.1379  -26.3119   20.6679 N   0  3  0  0  0  0  0  0  0  0  0  0
  -24.1083  -21.9158   16.9202 O   0  0  0  0  0  0  0  0  0  0  0  0
  -28.8506  -23.2971   19.0333 O   0  0  0  0  0  0  0  0  0  0  0  0
  -24.9670   -9.7263   18.5960 O   0  0  0  0  0  0  0  0  0  0  0  0
  -26.3342  -30.4202   23.6907 O   0  0  0  0  0  0  0  0  0  0  0  0
  -22.8404  -31.7623   23.2585 O   0  0  0  0  0  0  0  0  0  0  0  0
  -21.3908  -26.8165   23.1360 O   0  0  0  0  0  0  0  0  0  0  0  0
  -29.7077  -15.4567   22.2843 O   0  0  0  0  0  0  0  0  0  0  0  0
  -22.2497   -8.0334   24.6189 O   0  0  0  0  0  0  0  0  0  0  0  0
  -27.0739  -25.6301   19.2172 O   0  0  0  0  0  0  0  0  0  1  0  0
  -21.3171   -2.9833   22.6111 F   0  0  0  0  0  0  0  0  0  0  0  0
  -28.2721  -17.0262   19.7000 F   0  0  0  0  0  0  0  0  0  0  0  0
  -23.4369   -5.8122   25.7590 F   0  0  0  0  0  0  0  0  0  0  0  0
  1  2  1  0  0  0  0
  1  5  2  0  0  0  0
  2  6  2  0  0  0  0
  3 10  2  0  0  0  0
  3 18  1  0  0  0  0
  4 11  1  0  0  0  0
  4 18  2  0  0  0  0
  5 20  1  0  0  0  0
  6 22  1  0  0  0  0
  7 12  2  0  0  0  0
  7 21  1  0  0  0  0
  8  9  2  0  0  0  0
  8 24  1  0  0  0  0
  9 25  1  0  0  0  0
 10 26  1  0  0  0  0
 11 26  2  0  0  0  0
 12 27  1  0  0  0  0
 13 14  2  0  0  0  0
 13 28  1  0  0  0  0
 14 29  1  0  0  0  0
 15 23  1  0  0  0  0
 15 27  2  0  0  0  0
 16 24  2  0  0  0  0
 16 30  1  0  0  0  0
 17 29  2  0  0  0  0
 17 31  1  0  0  0  0
 18 32  1  0  0  0  0
 19 32  1  0  0  0  0
 19 33  2  0  0  0  0
 19 36  1  0  0  0  0
 20 22  2  0  0  0  0
 20 41  1  0  0  0  0
 21 23  2  0  0  0  0
 21 42  1  0  0  0  0
 22 52  1  0  0  0  0
 23 43  1  0  0  0  0
 24 69  1  0  0  0  0
 25 30  2  0  0  0  0
 25 76  1  0  0  0  0
 26 85  1  0  0  0  0
 27 86  1  0  0  0  0
 28 31  2  0  0  0  0
 28 85  1  0  0  0  0
 29 87  1  0  0  0  0
 30 88  1  0  0  0  0
 31 89  1  0  0  0  0
 32 67  2  0  0  0  0
 33 68  1  0  0  0  0
 33 72  1  0  0  0  0
 34 44  1  0  0  0  0
 34 45  1  0  0  0  0
 34 78  2  0  0  0  0
 35 53  1  0  0  0  0
 35 69  1  0  0  0  0
 35 79  2  0  0  0  0
 36 73  1  0  0  0  0
 36 80  2  0  0  0  0
 37 54  1  0  0  0  0
 37 74  1  0  0  0  0
 37 81  2  0  0  0  0
 38 64  1  0  0  0  0
 38 70  1  0  0  0  0
 38 82  2  0  0  0  0
 39 65  1  0  0  0  0
 39 75  1  0  0  0  0
 39 83  2  0  0  0  0
 40 71  1  0  0  0  0
 40 76  1  0  0  0  0
 40 84  2  0  0  0  0
 41 46  1  0  0  0  0
 42 54  1  0  0  0  0
 43 70  1  0  0  0  0
 44 53  1  0  0  0  0
 45 69  1  0  0  0  0
 46 48  1  0  0  0  0
 47 49  1  0  0  0  0
 47 50  1  0  0  0  0
 48 52  1  0  0  0  0
 49 55  1  0  0  0  0
 50 71  1  0  0  0  0
 51 55  1  0  0  0  0
 51 71  1  0  0  0  0
 52 74  1  0  0  0  0
 53 62  1  0  0  0  0
 54 70  1  0  0  0  0
 55 68  1  0  0  0  0
 56 63  1  0  0  0  0
 57 65  1  0  0  0  0
 58 66  1  0  0  0  0
 59 66  1  0  0  0  0
 60 66  1  0  0  0  0
 61 77  1  0  0  0  0
 62 86  1  0  0  0  0
 63 76  1  0  0  0  0
 64 66  1  0  0  0  0
 64 75  1  0  0  0  0
 65 77  1  0  0  0  0
 67 68  1  0  0  0  0
M  CHG  1  77   1
M  ISO  4  40 100  62 101  76 100  86 101
M  END
> <Batch ID>
0099

> <Smiles>
CC[100N:0](c1ccc(N2CC(=O)CC([101CH2:1][101O:1]c3ccc4c(c3)CN(C(=O)C(NC(=O)C(C)NC)C(C)(C)C)C(C(=O)NC3CCCc5ccccc53)C4)C2=O)cc1F)[100C:0](=O)N1CCCC(n2nc(-c3ccc(Oc4ccc(F)cc4F)cc3)c(C(N)=O)c2N)C1

> <Shape>
0.289

> <Color>
0.111

> <Negative vol penalty>
0.000

$$$$

  -OEChem-04052300543D

 84 92  0     1  0  0  0  0  0999 V2000
  -30.6803  -33.3946   23.0345 C   0  0  0  0  0  0  0  0  0  0  0  0
  -30.8830  -32.0999   22.5675 C   0  0  0  0  0  0  0  0  0  0  0  0
  -22.8773  -10.4154   19.8951 C   0  0  0  0  0  0  0  0  0  0  0  0
  -23.8786   -9.7256   21.9828 C   0  0  0  0  0  0  0  0  0  0  0  0
  -29.4314  -33.7686   23.5286 C   0  0  0  0  0  0  0  0  0  0  0  0
  -29.8371  -31.1781   22.5954 C   0  0  0  0  0  0  0  0  0  0  0  0
  -28.7272  -26.7450   18.5184 C   0  0  0  0  0  0  0  0  0  0  0  0
  -32.4878  -17.6034   20.9307 C   0  0  0  0  0  0  0  0  0  0  0  0
  -22.0111   -9.3235   19.9497 C   0  0  0  0  0  0  0  0  0  0  0  0
  -23.0123   -8.6337   22.0375 C   0  0  0  0  0  0  0  0  0  0  0  0
  -29.0137  -25.3806   18.5151 C   0  0  0  0  0  0  0  0  0  0  0  0
  -22.7710   -5.5718   20.6241 C   0  0  0  0  0  0  0  0  0  0  0  0
  -23.3118   -4.3319   20.9643 C   0  0  0  0  0  0  0  0  0  0  0  0
  -32.3351  -18.8559   20.3465 C   0  0  0  0  0  0  0  0  0  0  0  0
  -26.7972  -24.9193   19.3480 C   0  0  0  0  0  0  0  0  0  0  0  0
  -21.8500   -4.2213   22.8848 C   0  0  0  0  0  0  0  0  0  0  0  0
  -23.8111  -10.6164   20.9116 C   0  0  0  0  0  0  0  0  0  0  0  0
  -24.4887  -13.0298   21.3851 C   0  0  0  0  0  0  0  0  0  0  0  0
  -28.3669  -32.8538   23.5536 C   0  0  0  0  0  0  0  0  0  0  0  0
  -27.4752  -27.2083   18.9476 C   0  0  0  0  0  0  0  0  0  0  0  0
  -28.5731  -31.5399   23.0915 C   0  0  0  0  0  0  0  0  0  0  0  0
  -26.4964  -26.2899   19.3534 C   0  0  0  0  0  0  0  0  0  0  0  0
  -31.5241  -17.1331   21.8158 C   0  0  0  0  0  0  0  0  0  0  0  0
  -22.0786   -8.4327   21.0210 C   0  0  0  0  0  0  0  0  0  0  0  0
  -28.0496  -24.4677   18.9326 C   0  0  0  0  0  0  0  0  0  0  0  0
  -21.7697   -6.1365   21.4143 C   0  0  0  0  0  0  0  0  0  0  0  0
  -22.8513   -3.6567   22.0947 C   0  0  0  0  0  0  0  0  0  0  0  0
  -21.3092   -5.4613   22.5446 C   0  0  0  0  0  0  0  0  0  0  0  0
  -24.7066  -11.7438   20.8554 C   0  0  0  0  0  0  0  0  0  0  0  0
  -31.2097  -19.5931   20.6779 C   0  0  0  0  0  0  0  0  0  0  0  0
  -30.4351  -17.9476   22.0815 C   0  0  0  0  0  0  0  0  0  0  0  0
  -25.6285  -13.7285   21.0703 C   0  0  0  0  0  0  0  0  0  0  0  0
  -23.3571  -13.5465   22.0980 C   0  0  0  0  0  0  0  0  0  0  0  0
  -26.4659  -29.0853   21.3060 C   0  0  0  0  0  0  0  0  0  0  0  0
  -23.5977  -28.7389   19.8311 C   0  0  0  0  0  0  0  0  0  0  0  0
  -29.7616  -21.3971   19.8278 C   0  0  0  0  0  0  0  0  0  0  0  0
  -21.6009  -26.8824   17.7785 C   0  0  0  0  0  0  0  0  0  0  0  0
  -31.1880  -14.0695   20.7228 C   0  0  0  0  0  0  0  0  0  0  0  0
  -27.0481  -33.2904   24.1408 C   0  0  0  0  0  0  0  0  0  0  0  0
  -27.1726  -28.6815   18.9199 C   0  0  0  0  0  0  0  0  0  0  0  0
  -25.1299  -26.7346   19.8042 C   0  0  0  0  0  0  0  0  0  0  0  0
  -25.8877  -32.3631   23.7887 C   0  0  0  0  0  0  0  0  0  0  0  0
  -29.4711  -12.5484   17.9997 C   0  0  0  0  0  0  0  0  0  0  0  0
  -26.2872  -30.9057   23.9961 C   0  0  0  0  0  0  0  0  0  0  0  0
  -28.0631  -12.3041   18.5456 C   0  0  0  0  0  0  0  0  0  0  0  0
  -30.5368  -12.3398   19.0734 C   0  0  0  0  0  0  0  0  0  0  0  0
  -28.9209  -12.8701   20.8571 C   0  0  0  0  0  0  0  0  0  0  0  0
  -27.4563  -30.5187   23.0824 C   0  0  1  0  0  0  0  0  0  0  0  0
  -26.0419  -29.0771   19.8646 C   0  0  1  0  0  0  0  0  0  0  0  0
  -27.8081  -13.1228   19.8255 C   0  0  2  0  0  0  0  0  0  0  0  0
  -19.2952  -26.8350   16.7892 C   0  0  0  0  0  0  0  0  0  0  0  0
  -22.4663  -27.8367   22.5173 C   0  0  0  0  0  0  0  0  0  0  0  0
  -20.4840  -26.9177   21.2949 C   0  0  0  0  0  0  0  0  0  0  0  0
  -20.9724  -29.3627   21.2157 C   0  0  0  0  0  0  0  0  0  0  0  0
  -32.2661  -21.6597   19.7065 C   0  0  0  0  0  0  0  0  0  0  0  0
  -22.6578  -26.9961   15.0165 C   0  0  0  0  0  0  0  0  0  0  0  0
  -31.6909  -15.7895   22.4398 C   0  0  0  0  0  0  0  0  0  0  0  0
  -29.6855  -22.7544   19.1438 C   0  0  0  0  0  0  0  0  0  1  0  0
  -22.4525  -27.7610   19.9366 C   0  0  1  0  0  0  0  0  0  0  0  0
  -20.7386  -27.2710   16.5911 C   0  0  2  0  0  0  0  0  0  0  0  0
  -21.6201  -27.9609   21.2345 C   0  0  0  0  0  0  0  0  0  0  0  0
  -25.8917  -11.6296   20.2499 N   0  0  0  0  0  0  0  0  0  0  0  0
  -30.2524  -19.1698   21.5333 N   0  0  0  0  0  0  0  0  0  0  0  0
  -26.4285  -12.8528   20.3971 N   0  0  0  0  0  0  0  0  0  0  0  0
  -24.8844  -28.1857   19.7652 N   0  0  0  0  0  0  0  0  0  0  0  0
  -30.2370  -13.1453   20.2596 N   0  0  0  0  0  0  0  0  0  0  0  0
  -29.4499  -17.4724   22.9827 N   0  0  0  0  0  0  0  0  0  0  0  0
  -26.0143  -15.0005   21.3063 N   0  0  0  0  0  0  0  0  0  0  0  0
  -22.2710  -12.6933   22.3362 N   0  0  0  0  0  0  0  0  0  0  0  0
  -26.9886  -30.2916   21.7318 N   0  0  0  0  0  0  0  0  0  0  0  0
  -21.6822  -27.9000   18.7054 N   0  0  0  0  0  0  0  0  0  0  0  0
  -30.8216  -14.7966   21.8488 N   0  0  0  0  0  0  0  0  0  0  0  0
  -31.0600  -20.8972   20.0642 N   0  0  0  0  0  0  0  0  0  0  0  0
  -21.2549  -26.6354   15.3460 N   0  3  0  0  0  0  0  0  0  0  0  0
  -23.3037  -14.7345   22.4973 O   0  0  0  0  0  0  0  0  0  0  0  0
  -26.3278  -28.0728   21.9823 O   0  0  0  0  0  0  0  0  0  0  0  0
  -23.3590  -29.9487   19.8008 O   0  0  0  0  0  0  0  0  0  0  0  0
  -28.7114  -20.8112   20.1025 O   0  0  0  0  0  0  0  0  0  0  0  0
  -22.1446  -25.7845   17.8759 O   0  0  0  0  0  0  0  0  0  0  0  0
  -32.2804  -14.2383   20.1704 O   0  0  0  0  0  0  0  0  0  0  0  0
  -21.2333   -7.3672   21.0747 O   0  0  0  0  0  0  0  0  0  0  0  0
  -28.3269  -23.1354   18.9309 O   0  0  0  0  0  0  0  0  0  1  0  0
  -23.3696   -2.4653   22.4204 F   0  0  0  0  0  0  0  0  0  0  0  0
  -20.3467   -5.9982   23.3069 F   0  0  0  0  0  0  0  0  0  0  0  0
  1  2  1  0  0  0  0
  1  5  2  0  0  0  0
  2  6  2  0  0  0  0
  3  9  2  0  0  0  0
  3 17  1  0  0  0  0
  4 10  1  0  0  0  0
  4 17  2  0  0  0  0
  5 19  1  0  0  0  0
  6 21  1  0  0  0  0
  7 11  2  0  0  0  0
  7 20  1  0  0  0  0
  8 14  2  0  0  0  0
  8 23  1  0  0  0  0
  9 24  1  0  0  0  0
 10 24  2  0  0  0  0
 11 25  1  0  0  0  0
 12 13  2  0  0  0  0
 12 26  1  0  0  0  0
 13 27  1  0  0  0  0
 14 30  1  0  0  0  0
 15 22  1  0  0  0  0
 15 25  2  0  0  0  0
 16 27  2  0  0  0  0
 16 28  1  0  0  0  0
 17 29  1  0  0  0  0
 18 29  1  0  0  0  0
 18 32  2  0  0  0  0
 18 33  1  0  0  0  0
 19 21  2  0  0  0  0
 19 39  1  0  0  0  0
 20 22  2  0  0  0  0
 20 40  1  0  0  0  0
 21 48  1  0  0  0  0
 22 41  1  0  0  0  0
 23 31  2  0  0  0  0
 23 57  1  0  0  0  0
 24 81  1  0  0  0  0
 25 82  1  0  0  0  0
 26 28  2  0  0  0  0
 26 81  1  0  0  0  0
 27 83  1  0  0  0  0
 28 84  1  0  0  0  0
 29 62  2  0  0  0  0
 30 63  2  0  0  0  0
 30 73  1  0  0  0  0
 31 63  1  0  0  0  0
 31 67  1  0  0  0  0
 32 64  1  0  0  0  0
 32 68  1  0  0  0  0
 33 69  1  0  0  0  0
 33 75  2  0  0  0  0
 34 49  1  0  0  0  0
 34 70  1  0  0  0  0
 34 76  2  0  0  0  0
 35 59  1  0  0  0  0
 35 65  1  0  0  0  0
 35 77  2  0  0  0  0
 36 58  1  0  0  0  0
 36 73  1  0  0  0  0
 36 78  2  0  0  0  0
 37 60  1  0  0  0  0
 37 71  1  0  0  0  0
 37 79  2  0  0  0  0
 38 66  1  0  0  0  0
 38 72  1  0  0  0  0
 38 80  2  0  0  0  0
 39 42  1  0  0  0  0
 40 49  1  0  0  0  0
 41 65  1  0  0  0  0
 42 44  1  0  0  0  0
 43 45  1  0  0  0  0
 43 46  1  0  0  0  0
 44 48  1  0  0  0  0
 45 50  1  0  0  0  0
 46 66  1  0  0  0  0
 47 50  1  0  0  0  0
 47 66  1  0  0  0  0
 48 70  1  0  0  0  0
 49 65  1  0  0  0  0
 50 64  1  0  0  0  0
 51 60  1  0  0  0  0
 52 61  1  0  0  0  0
 53 61  1  0  0  0  0
 54 61  1  0  0  0  0
 55 73  1  0  0  0  0
 56 74  1  0  0  0  0
 57 72  1  0  0  0  0
 58 82  1  0  0  0  0
 59 61  1  0  0  0  0
 59 71  1  0  0  0  0
 60 74  1  0  0  0  0
 62 64  1  0  0  0  0
M  CHG  1  74   1
M  ISO  4  38 100  58 101  72 100  82 101
M  END
> <Batch ID>
0099

> <Smiles>
CNC(C)C(=O)NC(C(=O)N1Cc2cc([101O:1][101CH2:1]C(=O)N(C)c3ccc(C[100NH:0][100C:0](=O)N4CCCC(n5nc(-c6ccc(Oc7ccc(F)cc7F)cc6)c(C(N)=O)c5N)C4)c(N)n3)ccc2CC1C(=O)NC1CCCc2ccccc21)C(C)(C)C

> <Shape>
0.344

> <Color>
0.160

> <Negative vol penalty>
0.000

$$$$

  -OEChem-04052300543D

 87 96  0     1  0  0  0  0  0999 V2000
  -21.9722  -27.4766   24.8087 C   0  0  0  0  0  0  0  0  0  0  0  0
  -22.0985  -26.3046   24.0698 C   0  0  0  0  0  0  0  0  0  0  0  0
  -22.9791  -10.0532   19.9322 C   0  0  0  0  0  0  0  0  0  0  0  0
  -23.9975   -9.6850   22.0919 C   0  0  0  0  0  0  0  0  0  0  0  0
  -20.9691  -28.3926   24.4947 C   0  0  0  0  0  0  0  0  0  0  0  0
  -21.2209  -26.0475   23.0171 C   0  0  0  0  0  0  0  0  0  0  0  0
  -23.5945  -24.3406   18.8822 C   0  0  0  0  0  0  0  0  0  0  0  0
  -26.9234  -16.1118   17.1566 C   0  0  0  0  0  0  0  0  0  0  0  0
  -27.9288  -15.2467   16.7248 C   0  0  0  0  0  0  0  0  0  0  0  0
  -22.2262   -8.8895   20.0888 C   0  0  0  0  0  0  0  0  0  0  0  0
  -23.2445   -8.5213   22.2485 C   0  0  0  0  0  0  0  0  0  0  0  0
  -23.9813  -23.0011   18.8773 C   0  0  0  0  0  0  0  0  0  0  0  0
  -21.3253   -5.6465   23.3754 C   0  0  0  0  0  0  0  0  0  0  0  0
  -20.7077   -5.4337   24.6078 C   0  0  0  0  0  0  0  0  0  0  0  0
  -22.0481  -22.4539   17.5423 C   0  0  0  0  0  0  0  0  0  0  0  0
  -25.2496  -14.5912   16.3060 C   0  0  0  0  0  0  0  0  0  0  0  0
  -19.4608   -7.4853   24.3371 C   0  0  0  0  0  0  0  0  0  0  0  0
  -23.6043  -16.3164   18.2853 C   0  0  0  0  0  0  0  0  0  0  0  0
  -23.8648  -10.4510   20.9337 C   0  0  0  0  0  0  0  0  0  0  0  0
  -24.2850  -12.9566   21.1638 C   0  0  0  0  0  0  0  0  0  0  0  0
  -20.0849  -28.1512   23.4315 C   0  0  0  0  0  0  0  0  0  0  0  0
  -22.4238  -24.7457   18.2251 C   0  0  0  0  0  0  0  0  0  0  0  0
  -20.2042  -26.9606   22.6894 C   0  0  0  0  0  0  0  0  0  0  0  0
  -21.6500  -23.7995   17.5381 C   0  0  0  0  0  0  0  0  0  0  0  0
  -23.3026  -18.4506   17.6343 C   0  0  0  0  0  0  0  0  0  0  0  0
  -25.5838  -15.7840   16.9472 C   0  0  0  0  0  0  0  0  0  0  0  0
  -27.5946  -14.0539   16.0836 C   0  0  0  0  0  0  0  0  0  0  0  0
  -26.2550  -13.7261   15.8742 C   0  0  0  0  0  0  0  0  0  0  0  0
  -22.3589   -8.1236   21.2469 C   0  0  0  0  0  0  0  0  0  0  0  0
  -23.2065  -22.0571   18.2098 C   0  0  0  0  0  0  0  0  0  0  0  0
  -21.0107   -6.7787   22.6239 C   0  0  0  0  0  0  0  0  0  0  0  0
  -22.7969  -17.4182   18.4623 C   0  0  0  0  0  0  0  0  0  0  0  0
  -19.7754   -6.3531   25.0887 C   0  0  0  0  0  0  0  0  0  0  0  0
  -20.0785   -7.6981   23.1047 C   0  0  0  0  0  0  0  0  0  0  0  0
  -24.6432  -11.6527   20.7723 C   0  0  0  0  0  0  0  0  0  0  0  0
  -24.4036  -17.9482   16.9764 C   0  0  0  0  0  0  0  0  0  0  0  0
  -25.3555  -13.7329   20.7923 C   0  0  0  0  0  0  0  0  0  0  0  0
  -23.0914  -13.4243   21.8059 C   0  0  0  0  0  0  0  0  0  0  0  0
  -19.6897  -26.0867   19.1363 C   0  0  0  0  0  0  0  0  0  0  0  0
  -19.1292  -26.1932   15.9431 C   0  0  0  0  0  0  0  0  0  0  0  0
  -19.7813  -24.9235   12.8431 C   0  0  0  0  0  0  0  0  0  0  0  0
  -29.5951  -12.6060   16.5227 C   0  0  0  0  0  0  0  0  0  0  0  0
  -18.9867  -29.1486   23.1597 C   0  0  0  0  0  0  0  0  0  0  0  0
  -22.0346  -26.1986   18.2172 C   0  0  0  0  0  0  0  0  0  0  0  0
  -20.3952  -24.1863   16.8003 C   0  0  0  0  0  0  0  0  0  0  0  0
  -18.3333  -28.9773   21.7908 C   0  0  0  0  0  0  0  0  0  0  0  0
  -30.0767  -13.5439   20.0698 C   0  0  0  0  0  0  0  0  0  0  0  0
  -18.0115  -27.5087   21.5329 C   0  0  0  0  0  0  0  0  0  0  0  0
  -28.7294  -13.1945   20.6990 C   0  0  0  0  0  0  0  0  0  0  0  0
  -30.3862  -12.6589   18.8661 C   0  0  0  0  0  0  0  0  0  0  0  0
  -27.9655  -12.3260   18.4532 C   0  0  0  0  0  0  0  0  0  0  0  0
  -19.2872  -26.6577   21.5243 C   0  0  1  0  0  0  0  0  0  0  0  0
  -20.5489  -26.4177   17.9489 C   0  0  1  0  0  0  0  0  0  0  0  0
  -27.6120  -13.2305   19.6433 C   0  0  1  0  0  0  0  0  0  0  0  0
  -25.3004  -18.6028   15.9976 C   0  0  0  0  0  0  0  0  0  0  0  0
  -19.1430  -25.1903   10.4309 C   0  0  0  0  0  0  0  0  0  0  0  0
  -16.4910  -24.7591   16.4850 C   0  0  0  0  0  0  0  0  0  0  0  0
  -16.3650  -24.2163   14.0441 C   0  0  0  0  0  0  0  0  0  0  0  0
  -16.3517  -26.5957   14.7932 C   0  0  0  0  0  0  0  0  0  0  0  0
  -28.9141  -13.0818   14.2115 C   0  0  0  0  0  0  0  0  0  0  0  0
  -22.5532  -25.6095   12.0654 C   0  0  0  0  0  0  0  0  0  0  0  0
  -22.7408  -19.8355   17.5004 C   0  0  0  0  0  0  0  0  0  1  0  0
  -18.4953  -25.2628   14.9373 C   0  0  1  0  0  0  0  0  0  0  0  0
  -20.1143  -25.6017   11.5265 C   0  0  2  0  0  0  0  0  0  0  0  0
  -16.9483  -25.2006   15.0803 C   0  0  0  0  0  0  0  0  0  0  0  0
  -25.8471  -11.5997   20.1962 N   0  0  0  0  0  0  0  0  0  0  0  0
  -24.5774  -16.6500   17.3796 N   0  0  0  0  0  0  0  0  0  0  0  0
  -26.2546  -12.8800   20.2228 N   0  0  0  0  0  0  0  0  0  0  0  0
  -20.0531  -25.6180   16.8269 N   0  0  0  0  0  0  0  0  0  0  0  0
  -29.2883  -12.6558   17.8981 N   0  0  0  0  0  0  0  0  0  0  0  0
  -25.8945  -12.5227   15.2272 N   0  0  0  0  0  0  0  0  0  0  0  0
  -25.6059  -15.0550   20.9005 N   0  0  0  0  0  0  0  0  0  0  0  0
  -22.0916  -12.4928   22.1176 N   0  0  0  0  0  0  0  0  0  0  0  0
  -19.9920  -26.8161   20.2703 N   0  0  0  0  0  0  0  0  0  0  0  0
  -18.9568  -25.7041   13.6255 N   0  0  0  0  0  0  0  0  0  0  0  0
  -28.6525  -13.1763   15.6460 N   0  0  0  0  0  0  0  0  0  0  0  0
  -21.4933  -25.2405   11.0920 N   0  3  0  0  0  0  0  0  0  0  0  0
  -22.9096  -14.6348   22.0797 O   0  0  0  0  0  0  0  0  0  0  0  0
  -18.8162  -25.2337   19.0310 O   0  0  0  0  0  0  0  0  0  0  0  0
  -18.8213  -27.3877   15.9398 O   0  0  0  0  0  0  0  0  0  0  0  0
  -20.2068  -23.8109   13.1456 O   0  0  0  0  0  0  0  0  0  0  0  0
  -30.6120  -12.0429   16.0991 O   0  0  0  0  0  0  0  0  0  0  0  0
  -21.7361  -17.4581   19.2812 O   0  0  0  0  0  0  0  0  0  0  0  0
  -21.6242   -6.9881   21.4002 O   0  0  0  0  0  0  0  0  0  0  0  0
  -23.5814  -20.7489   18.2041 O   0  0  0  0  0  0  0  0  0  1  0  0
  -19.1812   -6.1478   26.2715 F   0  0  0  0  0  0  0  0  0  0  0  0
  -19.7713   -8.7870   22.3867 F   0  0  0  0  0  0  0  0  0  0  0  0
  1  2  1  0  0  0  0
  1  5  2  0  0  0  0
  2  6  2  0  0  0  0
  3 10  2  0  0  0  0
  3 19  1  0  0  0  0
  4 11  1  0  0  0  0
  4 19  2  0  0  0  0
  5 21  1  0  0  0  0
  6 23  1  0  0  0  0
  7 12  2  0  0  0  0
  7 22  1  0  0  0  0
  8  9  2  0  0  0  0
  8 26  1  0  0  0  0
  9 27  1  0  0  0  0
 10 29  1  0  0  0  0
 11 29  2  0  0  0  0
 12 30  1  0  0  0  0
 13 14  2  0  0  0  0
 13 31  1  0  0  0  0
 14 33  1  0  0  0  0
 15 24  1  0  0  0  0
 15 30  2  0  0  0  0
 16 26  2  0  0  0  0
 16 28  1  0  0  0  0
 17 33  2  0  0  0  0
 17 34  1  0  0  0  0
 18 32  2  0  0  0  0
 18 67  1  0  0  0  0
 19 35  1  0  0  0  0
 20 35  1  0  0  0  0
 20 37  2  0  0  0  0
 20 38  1  0  0  0  0
 21 23  2  0  0  0  0
 21 43  1  0  0  0  0
 22 24  2  0  0  0  0
 22 44  1  0  0  0  0
 23 52  1  0  0  0  0
 24 45  1  0  0  0  0
 25 32  1  0  0  0  0
 25 36  2  0  0  0  0
 25 62  1  0  0  0  0
 26 67  1  0  0  0  0
 27 28  2  0  0  0  0
 27 76  1  0  0  0  0
 28 71  1  0  0  0  0
 29 84  1  0  0  0  0
 30 85  1  0  0  0  0
 31 34  2  0  0  0  0
 31 84  1  0  0  0  0
 32 83  1  0  0  0  0
 33 86  1  0  0  0  0
 34 87  1  0  0  0  0
 35 66  2  0  0  0  0
 36 55  1  0  0  0  0
 36 67  1  0  0  0  0
 37 68  1  0  0  0  0
 37 72  1  0  0  0  0
 38 73  1  0  0  0  0
 38 78  2  0  0  0  0
 39 53  1  0  0  0  0
 39 74  1  0  0  0  0
 39 79  2  0  0  0  0
 40 63  1  0  0  0  0
 40 69  1  0  0  0  0
 40 80  2  0  0  0  0
 41 64  1  0  0  0  0
 41 75  1  0  0  0  0
 41 81  2  0  0  0  0
 42 70  1  0  0  0  0
 42 76  1  0  0  0  0
 42 82  2  0  0  0  0
 43 46  1  0  0  0  0
 44 53  1  0  0  0  0
 45 69  1  0  0  0  0
 46 48  1  0  0  0  0
 47 49  1  0  0  0  0
 47 50  1  0  0  0  0
 48 52  1  0  0  0  0
 49 54  1  0  0  0  0
 50 70  1  0  0  0  0
 51 54  1  0  0  0  0
 51 70  1  0  0  0  0
 52 74  1  0  0  0  0
 53 69  1  0  0  0  0
 54 68  1  0  0  0  0
 56 64  1  0  0  0  0
 57 65  1  0  0  0  0
 58 65  1  0  0  0  0
 59 65  1  0  0  0  0
 60 76  1  0  0  0  0
 61 77  1  0  0  0  0
 62 85  1  0  0  0  0
 63 65  1  0  0  0  0
 63 75  1  0  0  0  0
 64 77  1  0  0  0  0
 66 68  1  0  0  0  0
M  CHG  1  77   1
M  ISO  4  42 100  62 101  76 100  85 101
M  END
> <Batch ID>
0099

> <Smiles>
CNC(C)C(=O)NC(C(=O)N1Cc2cc([101O:1][101CH2:1]C3=C(C)N(c4ccc([100N:0](C)[100C:0](=O)N5CCCC(n6nc(-c7ccc(Oc8ccc(F)cc8F)cc7)c(C(N)=O)c6N)C5)c(N)c4)CC3=O)ccc2CC1C(=O)NC1CCCc2ccccc21)C(C)(C)C

> <Shape>
0.192

> <Color>
0.162

> <Negative vol penalty>
0.000

$$$$

  -OEChem-04052300543D

 86 95  0     1  0  0  0  0  0999 V2000
  -25.2510  -38.1211   23.3017 C   0  0  0  0  0  0  0  0  0  0  0  0
  -26.0266  -37.3421   22.4490 C   0  0  0  0  0  0  0  0  0  0  0  0
  -21.9449  -11.4611   21.1801 C   0  0  0  0  0  0  0  0  0  0  0  0
  -24.1067  -12.3607   20.5848 C   0  0  0  0  0  0  0  0  0  0  0  0
  -27.5144  -21.4544   17.9891 C   0  0  0  0  0  0  0  0  0  0  0  0
  -24.5857  -37.5281   24.3739 C   0  0  0  0  0  0  0  0  0  0  0  0
  -26.1381  -35.9696   22.6687 C   0  0  0  0  0  0  0  0  0  0  0  0
  -26.8841  -29.7904   19.1222 C   0  0  0  0  0  0  0  0  0  0  0  0
  -26.2484  -20.9671   18.3136 C   0  0  0  0  0  0  0  0  0  0  0  0
  -22.3535  -10.1973   20.7540 C   0  0  0  0  0  0  0  0  0  0  0  0
  -24.5153  -11.0969   20.1587 C   0  0  0  0  0  0  0  0  0  0  0  0
  -27.6914  -28.6540   19.0965 C   0  0  0  0  0  0  0  0  0  0  0  0
  -24.2396   -7.6562   21.9449 C   0  0  0  0  0  0  0  0  0  0  0  0
  -23.9442   -6.5683   22.7664 C   0  0  0  0  0  0  0  0  0  0  0  0
  -26.4335  -27.7262   20.9338 C   0  0  0  0  0  0  0  0  0  0  0  0
  -27.2136  -19.6411   20.0876 C   0  0  0  0  0  0  0  0  0  0  0  0
  -22.6556   -5.5712   20.9824 C   0  0  0  0  0  0  0  0  0  0  0  0
  -22.8215  -12.5428   21.0955 C   0  0  0  0  0  0  0  0  0  0  0  0
  -28.6301  -21.0350   18.7138 C   0  0  0  0  0  0  0  0  0  0  0  0
  -21.9762  -14.2152   22.8264 C   0  0  0  0  0  0  0  0  0  0  0  0
  -24.6814  -36.1462   24.6012 C   0  0  0  0  0  0  0  0  0  0  0  0
  -25.8506  -29.9082   20.0627 C   0  0  0  0  0  0  0  0  0  0  0  0
  -25.4745  -35.3577   23.7458 C   0  0  0  0  0  0  0  0  0  0  0  0
  -25.6129  -28.8639   20.9677 C   0  0  0  0  0  0  0  0  0  0  0  0
  -26.0980  -20.0604   19.3629 C   0  0  0  0  0  0  0  0  0  0  0  0
  -23.6386  -10.0152   20.2434 C   0  0  0  0  0  0  0  0  0  0  0  0
  -27.4680  -27.6229   20.0042 C   0  0  0  0  0  0  0  0  0  0  0  0
  -23.7429   -7.7017   20.6423 C   0  0  0  0  0  0  0  0  0  0  0  0
  -23.1522   -5.5258   22.2851 C   0  0  0  0  0  0  0  0  0  0  0  0
  -28.4796  -20.1284   19.7631 C   0  0  0  0  0  0  0  0  0  0  0  0
  -22.9510   -6.6592   20.1610 C   0  0  0  0  0  0  0  0  0  0  0  0
  -22.3999  -13.8487   21.5350 C   0  0  0  0  0  0  0  0  0  0  0  0
  -21.6880  -15.5544   22.7261 C   0  0  0  0  0  0  0  0  0  0  0  0
  -29.9640  -21.5497   18.3661 C   0  0  0  0  0  0  0  0  0  0  0  0
  -21.8542  -13.4166   24.0110 C   0  0  0  0  0  0  0  0  0  0  0  0
  -25.2037  -31.9096   22.4458 C   0  0  0  0  0  0  0  0  0  0  0  0
  -22.4274  -30.2372   22.5788 C   0  0  0  0  0  0  0  0  0  0  0  0
  -20.7587  -27.3351   21.9152 C   0  0  0  0  0  0  0  0  0  0  0  0
  -23.6019  -19.8794   19.0742 C   0  0  0  0  0  0  0  0  0  0  0  0
  -23.9822  -35.5577   25.8010 C   0  0  0  0  0  0  0  0  0  0  0  0
  -24.9717  -31.1288   20.0599 C   0  0  0  0  0  0  0  0  0  0  0  0
  -24.5034  -28.9326   21.9840 C   0  0  0  0  0  0  0  0  0  0  0  0
  -23.8500  -34.0380   25.7442 C   0  0  0  0  0  0  0  0  0  0  0  0
  -20.2308  -18.8447   19.5662 C   0  0  0  0  0  0  0  0  0  0  0  0
  -25.1749  -33.4017   25.3363 C   0  0  0  0  0  0  0  0  0  0  0  0
  -20.3659  -17.4822   20.2500 C   0  0  0  0  0  0  0  0  0  0  0  0
  -31.1929  -25.0192   18.1320 C   0  0  0  0  0  0  0  0  0  0  0  0
  -21.3211  -19.0642   18.5189 C   0  0  0  0  0  0  0  0  0  0  0  0
  -31.4506  -23.5203   18.1288 C   0  0  0  0  0  0  0  0  0  0  0  0
  -29.2055  -23.9303   18.8890 C   0  0  0  0  0  0  0  0  0  0  0  0
  -22.8290  -17.5033   19.6846 C   0  0  0  0  0  0  0  0  0  0  0  0
  -25.6002  -33.8618   23.9367 C   0  0  1  0  0  0  0  0  0  0  0  0
  -24.2755  -31.3667   21.3964 C   0  0  1  0  0  0  0  0  0  0  0  0
  -30.0593  -25.1701   19.1491 C   0  0  2  0  0  0  0  0  0  0  0  0
  -21.7915  -17.2633   20.7935 C   0  0  2  0  0  0  0  0  0  0  0  0
  -18.5094  -26.2529   22.1736 C   0  0  0  0  0  0  0  0  0  0  0  0
  -22.9905  -29.7799   25.5426 C   0  0  0  0  0  0  0  0  0  0  0  0
  -21.2762  -27.9555   25.5154 C   0  0  0  0  0  0  0  0  0  0  0  0
  -20.6053  -30.3027   25.0024 C   0  0  0  0  0  0  0  0  0  0  0  0
  -20.4378  -27.0353   18.9885 C   0  0  0  0  0  0  0  0  0  0  0  0
  -29.2911  -26.4711   19.0014 C   0  0  0  0  0  0  0  0  0  1  0  0
  -21.9575  -29.0017   23.3081 C   0  0  1  0  0  0  0  0  0  0  0  0
  -19.4119  -27.0736   21.2655 C   0  0  2  0  0  0  0  0  0  0  0  0
  -21.7296  -29.2592   24.8244 C   0  0  0  0  0  0  0  0  0  0  0  0
  -22.3837  -14.8722   20.6771 N   0  0  0  0  0  0  0  0  0  0  0  0
  -21.9462  -15.8952   21.4309 N   0  0  0  0  0  0  0  0  0  0  0  0
  -30.1622  -22.9198   18.4409 N   0  0  0  0  0  0  0  0  0  0  0  0
  -23.6753  -30.1492   21.9457 N   0  0  0  0  0  0  0  0  0  0  0  0
  -22.6443  -18.8437   19.1067 N   0  0  0  0  0  0  0  0  0  0  0  0
  -21.2414  -16.4619   23.6202 N   0  0  0  0  0  0  0  0  0  0  0  0
  -22.1921  -12.0584   23.9388 N   0  0  0  0  0  0  0  0  0  0  0  0
  -24.8118  -19.5655   19.6924 N   0  0  0  0  0  0  0  0  0  0  0  0
  -24.8465  -33.1566   22.9222 N   0  0  0  0  0  0  0  0  0  0  0  0
  -20.7728  -28.5337   22.5968 N   0  0  0  0  0  0  0  0  0  0  0  0
  -19.5898  -26.3320   19.9851 N   0  3  0  0  0  0  0  0  0  0  0  0
  -30.8193  -20.7283   18.0415 O   0  0  0  0  0  0  0  0  0  0  0  0
  -21.4416  -13.8897   25.0970 O   0  0  0  0  0  0  0  0  0  0  0  0
  -26.1714  -31.2456   22.7984 O   0  0  0  0  0  0  0  0  0  0  0  0
  -21.7104  -31.2408   22.5653 O   0  0  0  0  0  0  0  0  0  0  0  0
  -21.7026  -26.5525   21.8301 O   0  0  0  0  0  0  0  0  0  0  0  0
  -23.3566  -20.9743   18.5614 O   0  0  0  0  0  0  0  0  0  0  0  0
  -24.0377   -8.7821   19.8277 O   0  0  0  0  0  0  0  0  0  0  0  0
  -28.2549  -26.5129   19.9817 O   0  0  0  0  0  0  0  0  0  1  0  0
  -22.8699   -4.4804   23.0736 F   0  0  0  0  0  0  0  0  0  0  0  0
  -29.5449  -19.7180   20.4662 F   0  0  0  0  0  0  0  0  0  0  0  0
  -22.4720   -6.6967   18.9100 F   0  0  0  0  0  0  0  0  0  0  0  0
  1  2  1  0  0  0  0
  1  6  2  0  0  0  0
  2  7  2  0  0  0  0
  3 10  2  0  0  0  0
  3 18  1  0  0  0  0
  4 11  1  0  0  0  0
  4 18  2  0  0  0  0
  5  9  2  0  0  0  0
  5 19  1  0  0  0  0
  6 21  1  0  0  0  0
  7 23  1  0  0  0  0
  8 12  2  0  0  0  0
  8 22  1  0  0  0  0
  9 25  1  0  0  0  0
 10 26  1  0  0  0  0
 11 26  2  0  0  0  0
 12 27  1  0  0  0  0
 13 14  2  0  0  0  0
 13 28  1  0  0  0  0
 14 29  1  0  0  0  0
 15 24  1  0  0  0  0
 15 27  2  0  0  0  0
 16 25  2  0  0  0  0
 16 30  1  0  0  0  0
 17 29  2  0  0  0  0
 17 31  1  0  0  0  0
 18 32  1  0  0  0  0
 19 30  2  0  0  0  0
 19 34  1  0  0  0  0
 20 32  1  0  0  0  0
 20 33  2  0  0  0  0
 20 35  1  0  0  0  0
 21 23  2  0  0  0  0
 21 40  1  0  0  0  0
 22 24  2  0  0  0  0
 22 41  1  0  0  0  0
 23 52  1  0  0  0  0
 24 42  1  0  0  0  0
 25 72  1  0  0  0  0
 26 82  1  0  0  0  0
 27 83  1  0  0  0  0
 28 31  2  0  0  0  0
 28 82  1  0  0  0  0
 29 84  1  0  0  0  0
 30 85  1  0  0  0  0
 31 86  1  0  0  0  0
 32 65  2  0  0  0  0
 33 66  1  0  0  0  0
 33 70  1  0  0  0  0
 34 67  1  0  0  0  0
 34 76  2  0  0  0  0
 35 71  1  0  0  0  0
 35 77  2  0  0  0  0
 36 53  1  0  0  0  0
 36 73  1  0  0  0  0
 36 78  2  0  0  0  0
 37 62  1  0  0  0  0
 37 68  1  0  0  0  0
 37 79  2  0  0  0  0
 38 63  1  0  0  0  0
 38 74  1  0  0  0  0
 38 80  2  0  0  0  0
 39 69  1  0  0  0  0
 39 72  1  0  0  0  0
 39 81  2  0  0  0  0
 40 43  1  0  0  0  0
 41 53  1  0  0  0  0
 42 68  1  0  0  0  0
 43 45  1  0  0  0  0
 44 46  1  0  0  0  0
 44 48  1  0  0  0  0
 45 52  1  0  0  0  0
 46 55  1  0  0  0  0
 47 49  1  0  0  0  0
 47 54  1  0  0  0  0
 48 69  1  0  0  0  0
 49 67  1  0  0  0  0
 50 54  1  0  0  0  0
 50 67  1  0  0  0  0
 51 55  1  0  0  0  0
 51 69  1  0  0  0  0
 52 73  1  0  0  0  0
 53 68  1  0  0  0  0
 54 61  1  0  0  0  0
 55 66  1  0  0  0  0
 56 63  1  0  0  0  0
 57 64  1  0  0  0  0
 58 64  1  0  0  0  0
 59 64  1  0  0  0  0
 60 75  1  0  0  0  0
 61 83  1  0  0  0  0
 62 64  1  0  0  0  0
 62 74  1  0  0  0  0
 63 75  1  0  0  0  0
 65 66  1  0  0  0  0
M  CHG  1  75   1
M  ISO  4  39 100  61 101  72 100  83 101
M  END
> <Batch ID>
0099

> <Smiles>
CNC(C)C(=O)NC(C(=O)N1Cc2cc([101O:1][101CH2:1]C3CCN(C(=O)c4ccc([100NH:0][100C:0](=O)N5CCCC(n6nc(-c7ccc(Oc8ccc(F)cc8F)cc7)c(C(N)=O)c6N)C5)cc4F)C3)ccc2CC1C(=O)NC1CCCc2ccccc21)C(C)(C)C

> <Shape>
0.298

> <Color>
0.072

> <Negative vol penalty>
0.000

$$$$

  -OEChem-04052300543D

 82 90  0     1  0  0  0  0  0999 V2000
  -25.4729  -24.6799   30.9693 C   0  0  0  0  0  0  0  0  0  0  0  0
  -26.5897  -23.9132   30.6525 C   0  0  0  0  0  0  0  0  0  0  0  0
  -23.2657   -9.8781   19.8811 C   0  0  0  0  0  0  0  0  0  0  0  0
  -23.7178   -9.9502   22.2533 C   0  0  0  0  0  0  0  0  0  0  0  0
  -24.2937  -24.5258   30.2416 C   0  0  0  0  0  0  0  0  0  0  0  0
  -26.5275  -22.9910   29.6083 C   0  0  0  0  0  0  0  0  0  0  0  0
  -31.0419  -21.4836   25.7543 C   0  0  0  0  0  0  0  0  0  0  0  0
  -22.5049   -8.7230   20.0611 C   0  0  0  0  0  0  0  0  0  0  0  0
  -22.9569   -8.7950   22.4334 C   0  0  0  0  0  0  0  0  0  0  0  0
  -31.9352  -20.4134   25.7287 C   0  0  0  0  0  0  0  0  0  0  0  0
  -19.3982   -7.9284   21.1337 C   0  0  0  0  0  0  0  0  0  0  0  0
  -18.1668   -7.8553   20.4827 C   0  0  0  0  0  0  0  0  0  0  0  0
  -32.4076  -13.1771   25.9423 C   0  0  0  0  0  0  0  0  0  0  0  0
  -31.2117  -12.8810   25.2456 C   0  0  0  0  0  0  0  0  0  0  0  0
  -30.4830  -19.2458   24.1967 C   0  0  0  0  0  0  0  0  0  0  0  0
  -18.9111   -5.8868   19.2959 C   0  0  0  0  0  0  0  0  0  0  0  0
  -23.8722  -10.4917   20.9771 C   0  0  0  0  0  0  0  0  0  0  0  0
  -24.2062  -13.0169   20.8376 C   0  0  0  0  0  0  0  0  0  0  0  0
  -24.2200  -23.6082   29.1818 C   0  0  0  0  0  0  0  0  0  0  0  0
  -29.8552  -21.4382   25.0085 C   0  0  0  0  0  0  0  0  0  0  0  0
  -25.3458  -22.8236   28.8666 C   0  0  0  0  0  0  0  0  0  0  0  0
  -29.5776  -20.3177   24.2125 C   0  0  0  0  0  0  0  0  0  0  0  0
  -22.3505   -8.1814   21.3373 C   0  0  0  0  0  0  0  0  0  0  0  0
  -31.6544  -19.2931   24.9521 C   0  0  0  0  0  0  0  0  0  0  0  0
  -20.3862   -6.9809   20.8657 C   0  0  0  0  0  0  0  0  0  0  0  0
  -17.9232   -6.8345   19.5638 C   0  0  0  0  0  0  0  0  0  0  0  0
  -20.1426   -5.9601   19.9469 C   0  0  0  0  0  0  0  0  0  0  0  0
  -24.6587  -11.6846   20.7917 C   0  0  0  0  0  0  0  0  0  0  0  0
  -33.3713  -13.3732   24.9807 C   0  0  0  0  0  0  0  0  0  0  0  0
  -25.3304  -13.7697   20.6014 C   0  0  0  0  0  0  0  0  0  0  0  0
  -31.5299  -12.9175   23.9079 C   0  0  0  0  0  0  0  0  0  0  0  0
  -22.8875  -13.5282   21.0730 C   0  0  0  0  0  0  0  0  0  0  0  0
  -26.7571  -21.5059   25.7162 C   0  0  0  0  0  0  0  0  0  0  0  0
  -26.4215  -21.6244   22.4920 C   0  0  0  0  0  0  0  0  0  0  0  0
  -27.7409  -20.9605   19.4155 C   0  0  0  0  0  0  0  0  0  0  0  0
  -31.1633  -12.7638   21.4203 C   0  0  0  0  0  0  0  0  0  0  0  0
  -22.9091  -23.4430   28.4545 C   0  0  0  0  0  0  0  0  0  0  0  0
  -28.9149  -22.6120   25.0260 C   0  0  0  0  0  0  0  0  0  0  0  0
  -28.3272  -20.2282   23.3777 C   0  0  0  0  0  0  0  0  0  0  0  0
  -23.0403  -22.7117   27.1210 C   0  0  0  0  0  0  0  0  0  0  0  0
  -29.5547  -13.5878   18.3526 C   0  0  0  0  0  0  0  0  0  0  0  0
  -23.9043  -21.4645   27.2789 C   0  0  0  0  0  0  0  0  0  0  0  0
  -28.0747  -13.3203   18.6361 C   0  0  0  0  0  0  0  0  0  0  0  0
  -30.4579  -12.5691   19.0455 C   0  0  0  0  0  0  0  0  0  0  0  0
  -28.7510  -12.1507   20.7719 C   0  0  0  0  0  0  0  0  0  0  0  0
  -25.3251  -21.8305   27.7249 C   0  0  1  0  0  0  0  0  0  0  0  0
  -27.4891  -22.2414   24.6296 C   0  0  1  0  0  0  0  0  0  0  0  0
  -27.8051  -13.1898   20.1480 C   0  0  2  0  0  0  0  0  0  0  0  0
  -35.7038  -12.5819   24.4636 C   0  0  0  0  0  0  0  0  0  0  0  0
  -27.2163  -21.1348   16.9677 C   0  0  0  0  0  0  0  0  0  0  0  0
  -24.5550  -19.2218   22.7234 C   0  0  0  0  0  0  0  0  0  0  0  0
  -24.8261  -18.8622   20.2606 C   0  0  0  0  0  0  0  0  0  0  0  0
  -23.8035  -20.9747   21.1057 C   0  0  0  0  0  0  0  0  0  0  0  0
  -30.0473  -22.7505   18.9302 C   0  0  0  0  0  0  0  0  0  0  0  0
  -34.7540  -17.5011   24.4209 C   0  0  0  0  0  0  0  0  0  0  0  0
  -35.1889  -15.0426   24.3476 C   0  0  0  0  0  0  0  0  0  0  0  0
  -33.9062  -18.5462   25.1189 C   0  0  0  0  0  0  0  0  0  1  0  0
  -34.8545  -13.7180   25.0457 C   0  0  1  0  0  0  0  0  0  0  0  0
  -26.2870  -20.5985   21.3927 C   0  0  1  0  0  0  0  0  0  0  0  0
  -27.8617  -21.8137   18.1657 C   0  0  2  0  0  0  0  0  0  0  0  0
  -24.8906  -19.9149   21.3877 C   0  0  0  0  0  0  0  0  0  0  0  0
  -25.9683  -11.5931   20.5454 N   0  0  0  0  0  0  0  0  0  0  0  0
  -26.3483  -12.8774   20.4344 N   0  0  0  0  0  0  0  0  0  0  0  0
  -27.4360  -21.3988   23.4331 N   0  0  0  0  0  0  0  0  0  0  0  0
  -30.1485  -12.5029   20.4754 N   0  0  0  0  0  0  0  0  0  0  0  0
  -25.5377  -15.1013   20.5221 N   0  0  0  0  0  0  0  0  0  0  0  0
  -21.8475  -12.6160   21.2981 N   0  0  0  0  0  0  0  0  0  0  0  0
  -30.7436  -12.7035   22.7487 N   0  0  0  0  0  0  0  0  0  0  0  0
  -26.0935  -22.3301   26.6049 N   0  0  0  0  0  0  0  0  0  0  0  0
  -26.6202  -21.2860   20.1498 N   0  0  0  0  0  0  0  0  0  0  0  0
  -29.2955  -22.0657   17.8471 N   0  3  0  0  0  0  0  0  0  0  0  0
  -34.4367  -16.1615   24.9770 N   0  3  0  0  0  0  0  0  0  0  0  0
  -22.6357  -14.7571   21.0670 O   0  0  0  0  0  0  0  0  0  0  0  0
  -26.7907  -20.2813   25.7454 O   0  0  0  0  0  0  0  0  0  0  0  0
  -25.6593  -22.5941   22.5108 O   0  0  0  0  0  0  0  0  0  0  0  0
  -28.5571  -20.0896   19.7088 O   0  0  0  0  0  0  0  0  0  0  0  0
  -32.3132  -13.0484   21.0757 O   0  0  0  0  0  0  0  0  0  0  0  0
  -32.8444  -13.2169   23.7379 O   0  0  0  0  0  0  0  0  0  0  0  0
  -21.6080   -7.0544   21.5134 O   0  0  0  0  0  0  0  0  0  0  0  0
  -32.5243  -18.2469   24.9258 O   0  0  0  0  0  0  0  0  0  1  0  0
  -16.7400   -6.7634   18.9399 F   0  0  0  0  0  0  0  0  0  0  0  0
  -21.0874   -5.0462   19.6862 F   0  0  0  0  0  0  0  0  0  0  0  0
  1  2  1  0  0  0  0
  1  5  2  0  0  0  0
  2  6  2  0  0  0  0
  3  8  2  0  0  0  0
  3 17  1  0  0  0  0
  4  9  1  0  0  0  0
  4 17  2  0  0  0  0
  5 19  1  0  0  0  0
  6 21  1  0  0  0  0
  7 10  2  0  0  0  0
  7 20  1  0  0  0  0
  8 23  1  0  0  0  0
  9 23  2  0  0  0  0
 10 24  1  0  0  0  0
 11 12  2  0  0  0  0
 11 25  1  0  0  0  0
 12 26  1  0  0  0  0
 13 14  1  0  0  0  0
 13 29  2  0  0  0  0
 14 31  2  0  0  0  0
 15 22  1  0  0  0  0
 15 24  2  0  0  0  0
 16 26  2  0  0  0  0
 16 27  1  0  0  0  0
 17 28  1  0  0  0  0
 18 28  1  0  0  0  0
 18 30  2  0  0  0  0
 18 32  1  0  0  0  0
 19 21  2  0  0  0  0
 19 37  1  0  0  0  0
 20 22  2  0  0  0  0
 20 38  1  0  0  0  0
 21 46  1  0  0  0  0
 22 39  1  0  0  0  0
 23 79  1  0  0  0  0
 24 80  1  0  0  0  0
 25 27  2  0  0  0  0
 25 79  1  0  0  0  0
 26 81  1  0  0  0  0
 27 82  1  0  0  0  0
 28 62  2  0  0  0  0
 29 58  1  0  0  0  0
 29 78  1  0  0  0  0
 30 63  1  0  0  0  0
 30 66  1  0  0  0  0
 31 68  1  0  0  0  0
 31 78  1  0  0  0  0
 32 67  1  0  0  0  0
 32 73  2  0  0  0  0
 33 47  1  0  0  0  0
 33 69  1  0  0  0  0
 33 74  2  0  0  0  0
 34 59  1  0  0  0  0
 34 64  1  0  0  0  0
 34 75  2  0  0  0  0
 35 60  1  0  0  0  0
 35 70  1  0  0  0  0
 35 76  2  0  0  0  0
 36 65  1  0  0  0  0
 36 68  1  0  0  0  0
 36 77  2  0  0  0  0
 37 40  1  0  0  0  0
 38 47  1  0  0  0  0
 39 64  1  0  0  0  0
 40 42  1  0  0  0  0
 41 43  1  0  0  0  0
 41 44  1  0  0  0  0
 42 46  1  0  0  0  0
 43 48  1  0  0  0  0
 44 65  1  0  0  0  0
 45 48  1  0  0  0  0
 45 65  1  0  0  0  0
 46 69  1  0  0  0  0
 47 64  1  0  0  0  0
 48 63  1  0  0  0  0
 49 58  1  0  0  0  0
 50 60  1  0  0  0  0
 51 61  1  0  0  0  0
 52 61  1  0  0  0  0
 53 61  1  0  0  0  0
 54 71  1  0  0  0  0
 55 57  1  0  0  0  0
 55 72  1  0  0  0  0
 56 58  1  0  0  0  0
 56 72  1  0  0  0  0
 57 80  1  0  0  0  0
 59 61  1  0  0  0  0
 59 70  1  0  0  0  0
 60 71  1  0  0  0  0
 62 63  1  0  0  0  0
M  CHG  2  71   1  72   1
M  ISO  4  36 100  57 101  68 100  80 101
M  END
> <Batch ID>
0099

> <Smiles>
CNC(C)C(=O)NC(C(=O)N1Cc2cc([101O:1][101CH2:1]CNCC(C)c3ccc([100NH:0][100C:0](=O)N4CCCC(n5nc(-c6ccc(Oc7ccc(F)cc7F)cc6)c(C(N)=O)c5N)C4)o3)ccc2CC1C(=O)NC1CCCc2ccccc21)C(C)(C)C

> <Shape>
0.144

> <Color>
0.175

> <Negative vol penalty>
0.000

$$$$

  -OEChem-04052300543D

 87 95  0     1  0  0  0  0  0999 V2000
  -30.5735  -27.7107   15.7031 C   0  0  0  0  0  0  0  0  0  0  0  0
  -29.8933  -27.1106   16.7579 C   0  0  0  0  0  0  0  0  0  0  0  0
  -22.5453  -11.7146   18.8925 C   0  0  0  0  0  0  0  0  0  0  0  0
  -23.0963   -9.8415   20.3155 C   0  0  0  0  0  0  0  0  0  0  0  0
  -30.8885  -29.0677   15.7604 C   0  0  0  0  0  0  0  0  0  0  0  0
  -29.5287  -27.8670   17.8712 C   0  0  0  0  0  0  0  0  0  0  0  0
  -24.7767  -26.9567   19.3663 C   0  0  0  0  0  0  0  0  0  0  0  0
  -21.5248  -10.9676   18.3042 C   0  0  0  0  0  0  0  0  0  0  0  0
  -22.0757   -9.0944   19.7273 C   0  0  0  0  0  0  0  0  0  0  0  0
  -24.5509  -25.7894   20.0944 C   0  0  0  0  0  0  0  0  0  0  0  0
  -19.3815   -6.8157   18.8516 C   0  0  0  0  0  0  0  0  0  0  0  0
  -18.5455   -6.0825   19.6936 C   0  0  0  0  0  0  0  0  0  0  0  0
  -28.3584  -18.2073   22.6713 C   0  0  0  0  0  0  0  0  0  0  0  0
  -24.5560  -27.0705   22.1384 C   0  0  0  0  0  0  0  0  0  0  0  0
  -28.0727  -20.7961   21.6717 C   0  0  0  0  0  0  0  0  0  0  0  0
  -17.8747   -8.1213   20.8029 C   0  0  0  0  0  0  0  0  0  0  0  0
  -23.3311  -11.1516   19.8981 C   0  0  0  0  0  0  0  0  0  0  0  0
  -29.1204  -18.6210   21.5787 C   0  0  0  0  0  0  0  0  0  0  0  0
  -24.2875  -12.7535   21.6379 C   0  0  0  0  0  0  0  0  0  0  0  0
  -30.5190  -29.8433   16.8706 C   0  0  0  0  0  0  0  0  0  0  0  0
  -24.9050  -28.1902   20.0208 C   0  0  0  0  0  0  0  0  0  0  0  0
  -29.8401  -29.2353   17.9439 C   0  0  0  0  0  0  0  0  0  0  0  0
  -24.7808  -28.2524   21.4161 C   0  0  0  0  0  0  0  0  0  0  0  0
  -28.9776  -19.9154   21.0789 C   0  0  0  0  0  0  0  0  0  0  0  0
  -27.3107  -20.3823   22.7643 C   0  0  0  0  0  0  0  0  0  0  0  0
  -21.2900   -9.6575   18.7216 C   0  0  0  0  0  0  0  0  0  0  0  0
  -24.4434  -25.8457   21.4809 C   0  0  0  0  0  0  0  0  0  0  0  0
  -19.4642   -8.2017   18.9852 C   0  0  0  0  0  0  0  0  0  0  0  0
  -27.4535  -19.0879   23.2640 C   0  0  0  0  0  0  0  0  0  0  0  0
  -17.7921   -6.7352   20.6693 C   0  0  0  0  0  0  0  0  0  0  0  0
  -18.7108   -8.8545   19.9609 C   0  0  0  0  0  0  0  0  0  0  0  0
  -24.3858  -11.9226   20.5058 C   0  0  0  0  0  0  0  0  0  0  0  0
  -25.5552  -13.2541   21.8075 C   0  0  0  0  0  0  0  0  0  0  0  0
  -30.0752  -17.6590   20.9706 C   0  0  0  0  0  0  0  0  0  0  0  0
  -23.1518  -13.0465   22.4625 C   0  0  0  0  0  0  0  0  0  0  0  0
  -27.2139  -30.3585   20.2879 C   0  0  0  0  0  0  0  0  0  0  0  0
  -24.9104  -32.0536   21.8185 C   0  0  0  0  0  0  0  0  0  0  0  0
  -26.1384  -22.6015   22.9759 C   0  0  0  0  0  0  0  0  0  0  0  0
  -21.9907  -32.0349   23.5854 C   0  0  0  0  0  0  0  0  0  0  0  0
  -30.2258  -15.4740   19.8187 C   0  0  0  0  0  0  0  0  0  0  0  0
  -30.9229  -31.2959   16.9083 C   0  0  0  0  0  0  0  0  0  0  0  0
  -25.1218  -29.4441   19.2188 C   0  0  0  0  0  0  0  0  0  0  0  0
  -24.8906  -29.5546   22.1648 C   0  0  0  0  0  0  0  0  0  0  0  0
  -30.1708  -32.1102   17.9577 C   0  0  0  0  0  0  0  0  0  0  0  0
  -29.9330  -11.9569   19.6153 C   0  0  0  0  0  0  0  0  0  0  0  0
  -30.1410  -31.3671   19.2895 C   0  0  0  0  0  0  0  0  0  0  0  0
  -28.4569  -11.6987   19.9296 C   0  0  0  0  0  0  0  0  0  0  0  0
  -30.1226  -13.2242   18.7827 C   0  0  0  0  0  0  0  0  0  0  0  0
  -28.0195  -14.1706   19.6426 C   0  0  0  0  0  0  0  0  0  0  0  0
  -29.4057  -30.0279   19.1577 C   0  0  1  0  0  0  0  0  0  0  0  0
  -25.7488  -30.5724   20.0317 C   0  0  1  0  0  0  0  0  0  0  0  0
  -27.7819  -12.9441   20.5384 C   0  0  1  0  0  0  0  0  0  0  0  0
  -20.3733  -33.5718   24.7339 C   0  0  0  0  0  0  0  0  0  0  0  0
  -26.8585  -32.3599   24.1468 C   0  0  0  0  0  0  0  0  0  0  0  0
  -24.9247  -33.0396   25.5844 C   0  0  0  0  0  0  0  0  0  0  0  0
  -25.5500  -34.4207   23.6035 C   0  0  0  0  0  0  0  0  0  0  0  0
  -19.7719  -31.2190   21.8050 C   0  0  0  0  0  0  0  0  0  0  0  0
  -25.4587  -18.0574   24.0480 C   0  0  0  0  0  0  0  0  0  0  0  0
  -25.0789  -23.2195   23.8812 C   0  0  0  0  0  0  0  0  0  0  0  0
  -24.7502  -24.6600   23.5195 C   0  0  0  0  0  0  0  0  0  1  0  0
  -24.4447  -32.1746   23.2494 C   0  0  1  0  0  0  0  0  0  0  0  0
  -20.7199  -32.8523   23.4398 C   0  0  2  0  0  0  0  0  0  0  0  0
  -25.4443  -32.9737   24.1324 C   0  0  0  0  0  0  0  0  0  0  0  0
  -25.6185  -11.8944   19.9923 N   0  0  0  0  0  0  0  0  0  0  0  0
  -26.3064  -12.7140   20.8055 N   0  0  0  0  0  0  0  0  0  0  0  0
  -25.1090  -30.7521   21.3366 N   0  0  0  0  0  0  0  0  0  0  0  0
  -29.4628  -14.3585   19.4317 N   0  0  0  0  0  0  0  0  0  0  0  0
  -29.7400  -20.3541   19.9734 N   0  0  0  0  0  0  0  0  0  0  0  0
  -26.0894  -14.0994   22.7145 N   0  0  0  0  0  0  0  0  0  0  0  0
  -21.9247  -12.4471   22.1473 N   0  0  0  0  0  0  0  0  0  0  0  0
  -26.3962  -21.2867   23.3546 N   0  0  0  0  0  0  0  0  0  0  0  0
  -29.5107  -16.4860   20.4688 N   0  0  0  0  0  0  0  0  0  0  0  0
  -27.9738  -30.2371   19.1402 N   0  0  0  0  0  0  0  0  0  0  0  0
  -23.1044  -32.7482   23.1954 N   0  0  0  0  0  0  0  0  0  0  0  0
  -19.5763  -31.9706   23.0714 N   0  3  0  0  0  0  0  0  0  0  0  0
  -31.2651  -17.9558   20.9084 O   0  0  0  0  0  0  0  0  0  0  0  0
  -23.2192  -13.8299   23.4399 O   0  0  0  0  0  0  0  0  0  0  0  0
  -27.6246  -30.3088   21.4413 O   0  0  0  0  0  0  0  0  0  0  0  0
  -25.0844  -33.0761   21.1507 O   0  0  0  0  0  0  0  0  0  0  0  0
  -26.6569  -23.2266   22.0568 O   0  0  0  0  0  0  0  0  0  0  0  0
  -21.9955  -30.8803   24.0069 O   0  0  0  0  0  0  0  0  0  0  0  0
  -31.4450  -15.5466   19.6358 O   0  0  0  0  0  0  0  0  0  0  0  0
  -20.2941   -8.9283   18.1480 O   0  0  0  0  0  0  0  0  0  0  0  0
  -26.7179  -18.6637   24.3304 O   0  0  0  0  0  0  0  0  0  0  0  0
  -24.2236  -24.7078   22.1941 O   0  0  0  0  0  0  0  0  0  1  0  0
  -16.9881   -6.0312   21.4768 F   0  0  0  0  0  0  0  0  0  0  0  0
  -18.7851  -10.1859   20.0932 F   0  0  0  0  0  0  0  0  0  0  0  0
  1  2  1  0  0  0  0
  1  5  2  0  0  0  0
  2  6  2  0  0  0  0
  3  8  2  0  0  0  0
  3 17  1  0  0  0  0
  4  9  1  0  0  0  0
  4 17  2  0  0  0  0
  5 20  1  0  0  0  0
  6 22  1  0  0  0  0
  7 10  2  0  0  0  0
  7 21  1  0  0  0  0
  8 26  1  0  0  0  0
  9 26  2  0  0  0  0
 10 27  1  0  0  0  0
 11 12  2  0  0  0  0
 11 28  1  0  0  0  0
 12 30  1  0  0  0  0
 13 18  2  0  0  0  0
 13 29  1  0  0  0  0
 14 23  1  0  0  0  0
 14 27  2  0  0  0  0
 15 24  2  0  0  0  0
 15 25  1  0  0  0  0
 16 30  2  0  0  0  0
 16 31  1  0  0  0  0
 17 32  1  0  0  0  0
 18 24  1  0  0  0  0
 18 34  1  0  0  0  0
 19 32  1  0  0  0  0
 19 33  2  0  0  0  0
 19 35  1  0  0  0  0
 20 22  2  0  0  0  0
 20 41  1  0  0  0  0
 21 23  2  0  0  0  0
 21 42  1  0  0  0  0
 22 50  1  0  0  0  0
 23 43  1  0  0  0  0
 24 68  1  0  0  0  0
 25 29  2  0  0  0  0
 25 71  1  0  0  0  0
 26 83  1  0  0  0  0
 27 85  1  0  0  0  0
 28 31  2  0  0  0  0
 28 83  1  0  0  0  0
 29 84  1  0  0  0  0
 30 86  1  0  0  0  0
 31 87  1  0  0  0  0
 32 64  2  0  0  0  0
 33 65  1  0  0  0  0
 33 69  1  0  0  0  0
 34 72  1  0  0  0  0
 34 76  2  0  0  0  0
 35 70  1  0  0  0  0
 35 77  2  0  0  0  0
 36 51  1  0  0  0  0
 36 73  1  0  0  0  0
 36 78  2  0  0  0  0
 37 61  1  0  0  0  0
 37 66  1  0  0  0  0
 37 79  2  0  0  0  0
 38 59  1  0  0  0  0
 38 71  1  0  0  0  0
 38 80  2  0  0  0  0
 39 62  1  0  0  0  0
 39 74  1  0  0  0  0
 39 81  2  0  0  0  0
 40 67  1  0  0  0  0
 40 72  1  0  0  0  0
 40 82  2  0  0  0  0
 41 44  1  0  0  0  0
 42 51  1  0  0  0  0
 43 66  1  0  0  0  0
 44 46  1  0  0  0  0
 45 47  1  0  0  0  0
 45 48  1  0  0  0  0
 46 50  1  0  0  0  0
 47 52  1  0  0  0  0
 48 67  1  0  0  0  0
 49 52  1  0  0  0  0
 49 67  1  0  0  0  0
 50 73  1  0  0  0  0
 51 66  1  0  0  0  0
 52 65  1  0  0  0  0
 53 62  1  0  0  0  0
 54 63  1  0  0  0  0
 55 63  1  0  0  0  0
 56 63  1  0  0  0  0
 57 75  1  0  0  0  0
 58 84  1  0  0  0  0
 59 60  1  0  0  0  0
 60 85  1  0  0  0  0
 61 63  1  0  0  0  0
 61 74  1  0  0  0  0
 62 75  1  0  0  0  0
 64 65  1  0  0  0  0
M  CHG  1  75   1
M  ISO  4  40 100  60 101  72 100  85 101
M  END
> <Batch ID>
0099

> <Smiles>
CNC(C)C(=O)NC(C(=O)N1Cc2cc([101O:1][101CH2:1]CC(=O)Nc3cc(N)c(C(=O)[100NH:0][100C:0](=O)N4CCCC(n5nc(-c6ccc(Oc7ccc(F)cc7F)cc6)c(C(N)=O)c5N)C4)cc3OC)ccc2CC1C(=O)NC1CCCc2ccccc21)C(C)(C)C

> <Shape>
0.218

> <Color>
0.097

> <Negative vol penalty>
0.000

$$$$

  -OEChem-04052300543D

 86 94  0     1  0  0  0  0  0999 V2000
  -16.4351  -26.6035   25.2203 C   0  0  0  0  0  0  0  0  0  0  0  0
  -17.4509  -25.8389   24.6556 C   0  0  0  0  0  0  0  0  0  0  0  0
  -22.3935  -12.7207   19.6140 C   0  0  0  0  0  0  0  0  0  0  0  0
  -22.5642  -11.3938   21.6258 C   0  0  0  0  0  0  0  0  0  0  0  0
  -16.3426  -27.9634   24.9272 C   0  0  0  0  0  0  0  0  0  0  0  0
  -18.3743  -26.4337   23.7965 C   0  0  0  0  0  0  0  0  0  0  0  0
  -24.3097  -25.0342   23.2316 C   0  0  0  0  0  0  0  0  0  0  0  0
  -21.0930  -12.2562   19.4179 C   0  0  0  0  0  0  0  0  0  0  0  0
  -21.2637  -10.9293   21.4297 C   0  0  0  0  0  0  0  0  0  0  0  0
  -25.0042  -24.2446   22.3163 C   0  0  0  0  0  0  0  0  0  0  0  0
  -19.7040   -8.6271   19.5066 C   0  0  0  0  0  0  0  0  0  0  0  0
  -19.4715   -7.2619   19.6733 C   0  0  0  0  0  0  0  0  0  0  0  0
  -31.4676  -18.0845   18.0478 C   0  0  0  0  0  0  0  0  0  0  0  0
  -25.5328  -26.2141   21.0276 C   0  0  0  0  0  0  0  0  0  0  0  0
  -30.1976  -18.8229   20.4195 C   0  0  0  0  0  0  0  0  0  0  0  0
  -17.8861   -7.7465   21.4308 C   0  0  0  0  0  0  0  0  0  0  0  0
  -23.1292  -12.2895   20.7179 C   0  0  0  0  0  0  0  0  0  0  0  0
  -31.2445  -17.1345   19.0445 C   0  0  0  0  0  0  0  0  0  0  0  0
  -24.8681  -13.9116   21.6413 C   0  0  0  0  0  0  0  0  0  0  0  0
  -17.2711  -28.5772   24.0718 C   0  0  0  0  0  0  0  0  0  0  0  0
  -24.2121  -26.4207   23.0457 C   0  0  0  0  0  0  0  0  0  0  0  0
  -18.2934  -27.8029   23.4907 C   0  0  0  0  0  0  0  0  0  0  0  0
  -24.8387  -27.0194   21.9434 C   0  0  0  0  0  0  0  0  0  0  0  0
  -30.6095  -17.5037   20.2303 C   0  0  0  0  0  0  0  0  0  0  0  0
  -20.5281  -11.3604   20.3257 C   0  0  0  0  0  0  0  0  0  0  0  0
  -25.6135  -24.8341   21.2125 C   0  0  0  0  0  0  0  0  0  0  0  0
  -19.0276   -9.5520   20.3021 C   0  0  0  0  0  0  0  0  0  0  0  0
  -30.4208  -19.7729   19.4228 C   0  0  0  0  0  0  0  0  0  0  0  0
  -18.5625   -6.8216   20.6353 C   0  0  0  0  0  0  0  0  0  0  0  0
  -31.0558  -19.4038   18.2370 C   0  0  0  0  0  0  0  0  0  0  0  0
  -18.1187   -9.1118   21.2641 C   0  0  0  0  0  0  0  0  0  0  0  0
  -24.4728  -12.7686   20.9207 C   0  0  0  0  0  0  0  0  0  0  0  0
  -26.2375  -13.9271   21.5363 C   0  0  0  0  0  0  0  0  0  0  0  0
  -31.6994  -15.7394   18.8128 C   0  0  0  0  0  0  0  0  0  0  0  0
  -24.0690  -14.8733   22.3428 C   0  0  0  0  0  0  0  0  0  0  0  0
  -21.8165  -28.4599   22.5913 C   0  0  0  0  0  0  0  0  0  0  0  0
  -28.1422  -22.5364   20.0054 C   0  0  0  0  0  0  0  0  0  0  0  0
  -24.1713  -30.6768   22.8415 C   0  0  0  0  0  0  0  0  0  0  0  0
  -27.4907  -31.4210   22.5683 C   0  0  0  0  0  0  0  0  0  0  0  0
  -30.9074  -13.4046   18.6008 C   0  0  0  0  0  0  0  0  0  0  0  0
  -17.1024  -30.0404   23.7474 C   0  0  0  0  0  0  0  0  0  0  0  0
  -23.4820  -27.2618   24.0565 C   0  0  0  0  0  0  0  0  0  0  0  0
  -24.7807  -28.5061   21.7092 C   0  0  0  0  0  0  0  0  0  0  0  0
  -18.3436  -30.6730   23.1232 C   0  0  0  0  0  0  0  0  0  0  0  0
  -29.4513  -10.4164   19.8040 C   0  0  0  0  0  0  0  0  0  0  0  0
  -18.8993  -29.7803   22.0181 C   0  0  0  0  0  0  0  0  0  0  0  0
  -28.0601  -10.8546   20.2697 C   0  0  0  0  0  0  0  0  0  0  0  0
  -29.8813  -11.1488   18.5337 C   0  0  0  0  0  0  0  0  0  0  0  0
  -28.4060  -13.0468   19.0619 C   0  0  0  0  0  0  0  0  0  0  0  0
  -19.3288  -28.4171   22.5738 C   0  0  1  0  0  0  0  0  0  0  0  0
  -23.0106  -28.5987   23.4927 C   0  0  1  0  0  0  0  0  0  0  0  0
  -27.9569  -12.3893   20.3769 C   0  0  1  0  0  0  0  0  0  0  0  0
  -29.1080  -33.3258   22.7997 C   0  0  0  0  0  0  0  0  0  0  0  0
  -23.2229  -31.8034   20.1692 C   0  0  0  0  0  0  0  0  0  0  0  0
  -25.3944  -33.0378   19.9982 C   0  0  0  0  0  0  0  0  0  0  0  0
  -23.8261  -33.5305   21.8744 C   0  0  0  0  0  0  0  0  0  0  0  0
  -28.9852  -30.0431   24.7193 C   0  0  0  0  0  0  0  0  0  0  0  0
  -26.9088  -22.8796   20.8155 C   0  0  0  0  0  0  0  0  0  1  0  0
  -28.8805  -21.2821   20.4256 C   0  0  0  0  0  0  0  0  0  0  0  0
  -25.1106  -31.3529   21.8721 C   0  0  1  0  0  0  0  0  0  0  0  0
  -28.4388  -32.1537   23.5004 C   0  0  2  0  0  0  0  0  0  0  0  0
  -24.3881  -32.4029   20.9816 C   0  0  0  0  0  0  0  0  0  0  0  0
  -25.5074  -12.1062   20.3965 N   0  0  0  0  0  0  0  0  0  0  0  0
  -26.5663  -12.8352   20.7881 N   0  0  0  0  0  0  0  0  0  0  0  0
  -24.0497  -29.2851   22.7222 N   0  0  0  0  0  0  0  0  0  0  0  0
  -29.7636  -12.5961   18.7205 N   0  0  0  0  0  0  0  0  0  0  0  0
  -30.3763  -16.5575   21.2530 N   0  0  0  0  0  0  0  0  0  0  0  0
  -27.1804  -14.7681   22.0118 N   0  0  0  0  0  0  0  0  0  0  0  0
  -22.6773  -14.7073   22.3505 N   0  0  0  0  0  0  0  0  0  0  0  0
  -30.6988  -14.7676   18.8393 N   0  0  0  0  0  0  0  0  0  0  0  0
  -20.6036  -28.5259   23.2501 N   0  0  0  0  0  0  0  0  0  0  0  0
  -26.2012  -31.8979   22.6733 N   0  0  0  0  0  0  0  0  0  0  0  0
  -29.5010  -31.2300   23.9896 N   0  3  0  0  0  0  0  0  0  0  0  0
  -32.8861  -15.5285   18.5785 O   0  0  0  0  0  0  0  0  0  0  0  0
  -24.5728  -15.8599   22.9312 O   0  0  0  0  0  0  0  0  0  0  0  0
  -21.9832  -28.3059   21.3871 O   0  0  0  0  0  0  0  0  0  0  0  0
  -28.5208  -23.2334   19.0652 O   0  0  0  0  0  0  0  0  0  0  0  0
  -23.5733  -31.3575   23.6786 O   0  0  0  0  0  0  0  0  0  0  0  0
  -27.8581  -30.5186   21.8191 O   0  0  0  0  0  0  0  0  0  0  0  0
  -32.0253  -12.9480   18.3417 O   0  0  0  0  0  0  0  0  0  0  0  0
  -19.2590  -10.9071   20.1348 O   0  0  0  0  0  0  0  0  0  0  0  0
  -26.2914  -24.0656   20.3171 O   0  0  0  0  0  0  0  0  0  1  0  0
  -30.0143  -21.0728   19.6105 O   0  0  0  0  0  0  0  0  0  0  0  0
  -18.3381   -5.5107   20.7942 F   0  0  0  0  0  0  0  0  0  0  0  0
  -31.2727  -20.3120   17.2758 F   0  0  0  0  0  0  0  0  0  0  0  0
  -17.4650   -9.9956   22.0305 F   0  0  0  0  0  0  0  0  0  0  0  0
  1  2  1  0  0  0  0
  1  5  2  0  0  0  0
  2  6  2  0  0  0  0
  3  8  2  0  0  0  0
  3 17  1  0  0  0  0
  4  9  1  0  0  0  0
  4 17  2  0  0  0  0
  5 20  1  0  0  0  0
  6 22  1  0  0  0  0
  7 10  2  0  0  0  0
  7 21  1  0  0  0  0
  8 25  1  0  0  0  0
  9 25  2  0  0  0  0
 10 26  1  0  0  0  0
 11 12  2  0  0  0  0
 11 27  1  0  0  0  0
 12 29  1  0  0  0  0
 13 18  2  0  0  0  0
 13 30  1  0  0  0  0
 14 23  1  0  0  0  0
 14 26  2  0  0  0  0
 15 24  2  0  0  0  0
 15 28  1  0  0  0  0
 16 29  2  0  0  0  0
 16 31  1  0  0  0  0
 17 32  1  0  0  0  0
 18 24  1  0  0  0  0
 18 34  1  0  0  0  0
 19 32  1  0  0  0  0
 19 33  2  0  0  0  0
 19 35  1  0  0  0  0
 20 22  2  0  0  0  0
 20 41  1  0  0  0  0
 21 23  2  0  0  0  0
 21 42  1  0  0  0  0
 22 50  1  0  0  0  0
 23 43  1  0  0  0  0
 24 67  1  0  0  0  0
 25 81  1  0  0  0  0
 26 82  1  0  0  0  0
 27 31  2  0  0  0  0
 27 81  1  0  0  0  0
 28 30  2  0  0  0  0
 28 83  1  0  0  0  0
 29 84  1  0  0  0  0
 30 85  1  0  0  0  0
 31 86  1  0  0  0  0
 32 63  2  0  0  0  0
 33 64  1  0  0  0  0
 33 68  1  0  0  0  0
 34 70  1  0  0  0  0
 34 74  2  0  0  0  0
 35 69  1  0  0  0  0
 35 75  2  0  0  0  0
 36 51  1  0  0  0  0
 36 71  1  0  0  0  0
 36 76  2  0  0  0  0
 37 58  1  0  0  0  0
 37 59  1  0  0  0  0
 37 77  2  0  0  0  0
 38 60  1  0  0  0  0
 38 65  1  0  0  0  0
 38 78  2  0  0  0  0
 39 61  1  0  0  0  0
 39 72  1  0  0  0  0
 39 79  2  0  0  0  0
 40 66  1  0  0  0  0
 40 70  1  0  0  0  0
 40 80  2  0  0  0  0
 41 44  1  0  0  0  0
 42 51  1  0  0  0  0
 43 65  1  0  0  0  0
 44 46  1  0  0  0  0
 45 47  1  0  0  0  0
 45 48  1  0  0  0  0
 46 50  1  0  0  0  0
 47 52  1  0  0  0  0
 48 66  1  0  0  0  0
 49 52  1  0  0  0  0
 49 66  1  0  0  0  0
 50 71  1  0  0  0  0
 51 65  1  0  0  0  0
 52 64  1  0  0  0  0
 53 61  1  0  0  0  0
 54 62  1  0  0  0  0
 55 62  1  0  0  0  0
 56 62  1  0  0  0  0
 57 73  1  0  0  0  0
 58 82  1  0  0  0  0
 59 83  1  0  0  0  0
 60 62  1  0  0  0  0
 60 72  1  0  0  0  0
 61 73  1  0  0  0  0
 63 64  1  0  0  0  0
M  CHG  1  73   1
M  ISO  4  40 100  58 101  70 100  82 101
M  END
> <Batch ID>
0099

> <Smiles>
CNC(C)C(=O)NC(C(=O)N1Cc2cc([101O:1][101CH2:1]C(=O)COc3cc(N)c(C(=O)[100NH:0][100C:0](=O)N4CCCC(n5nc(-c6ccc(Oc7ccc(F)cc7F)cc6)c(C(N)=O)c5N)C4)cc3F)ccc2CC1C(=O)NC1CCCc2ccccc21)C(C)(C)C

> <Shape>
0.242

> <Color>
0.079

> <Negative vol penalty>
0.000

$$$$

  -OEChem-04052300543D

 85 93  0     1  0  0  0  0  0999 V2000
  -17.0572  -30.2756   24.3771 C   0  0  0  0  0  0  0  0  0  0  0  0
  -18.4364  -30.3648   24.5356 C   0  0  0  0  0  0  0  0  0  0  0  0
  -29.2045  -17.4445   19.0276 C   0  0  0  0  0  0  0  0  0  0  0  0
  -29.6613  -17.9950   21.3353 C   0  0  0  0  0  0  0  0  0  0  0  0
  -16.5171  -29.3406   23.4950 C   0  0  0  0  0  0  0  0  0  0  0  0
  -19.2764  -29.5183   23.8129 C   0  0  0  0  0  0  0  0  0  0  0  0
  -24.8240  -30.8564   21.5903 C   0  0  0  0  0  0  0  0  0  0  0  0
  -29.8669  -16.2274   19.1869 C   0  0  0  0  0  0  0  0  0  0  0  0
  -30.3237  -16.7779   21.4946 C   0  0  0  0  0  0  0  0  0  0  0  0
  -26.1105  -30.5987   22.0618 C   0  0  0  0  0  0  0  0  0  0  0  0
  -29.2075  -13.1872   20.5117 C   0  0  0  0  0  0  0  0  0  0  0  0
  -28.5986  -12.0449   19.9920 C   0  0  0  0  0  0  0  0  0  0  0  0
  -26.2234  -28.6364   20.6633 C   0  0  0  0  0  0  0  0  0  0  0  0
  -30.5132  -11.6731   18.5661 C   0  0  0  0  0  0  0  0  0  0  0  0
  -29.1017  -18.3284   20.1019 C   0  0  0  0  0  0  0  0  0  0  0  0
  -27.0500  -19.8437   20.1474 C   0  0  0  0  0  0  0  0  0  0  0  0
  -17.3512  -28.4889   22.7538 C   0  0  0  0  0  0  0  0  0  0  0  0
  -24.2223  -29.9985   20.6584 C   0  0  0  0  0  0  0  0  0  0  0  0
  -18.7469  -28.5702   22.9210 C   0  0  0  0  0  0  0  0  0  0  0  0
  -24.9302  -28.8868   20.1796 C   0  0  0  0  0  0  0  0  0  0  0  0
  -31.0915  -25.9510   23.6748 C   0  0  0  0  0  0  0  0  0  0  0  0
  -32.0791  -25.0781   24.1313 C   0  0  0  0  0  0  0  0  0  0  0  0
  -30.0422  -26.3188   24.5171 C   0  0  0  0  0  0  0  0  0  0  0  0
  -32.0173  -24.5729   25.4299 C   0  0  0  0  0  0  0  0  0  0  0  0
  -29.9804  -25.8136   25.8158 C   0  0  0  0  0  0  0  0  0  0  0  0
  -30.9680  -24.9406   26.2722 C   0  0  0  0  0  0  0  0  0  0  0  0
  -30.4265  -15.8940   20.4203 C   0  0  0  0  0  0  0  0  0  0  0  0
  -26.8093  -29.4870   21.6004 C   0  0  0  0  0  0  0  0  0  0  0  0
  -30.4692  -13.5725   20.0586 C   0  0  0  0  0  0  0  0  0  0  0  0
  -29.2514  -11.2879   19.0192 C   0  0  0  0  0  0  0  0  0  0  0  0
  -31.1220  -12.8154   19.0858 C   0  0  0  0  0  0  0  0  0  0  0  0
  -28.4180  -19.5861   19.9379 C   0  0  0  0  0  0  0  0  0  0  0  0
  -26.9038  -21.1785   19.8588 C   0  0  0  0  0  0  0  0  0  0  0  0
  -26.0048  -18.9558   20.5656 C   0  0  0  0  0  0  0  0  0  0  0  0
  -21.6336  -28.1540   20.6523 C   0  0  0  0  0  0  0  0  0  0  0  0
  -22.4227  -27.7258   17.5352 C   0  0  0  0  0  0  0  0  0  0  0  0
  -24.8413  -27.7601   15.1278 C   0  0  0  0  0  0  0  0  0  0  0  0
  -30.7009  -25.8074   19.9399 C   0  0  0  0  0  0  0  0  0  0  0  0
  -16.7193  -27.4620   21.8478 C   0  0  0  0  0  0  0  0  0  0  0  0
  -22.8442  -30.3052   20.1396 C   0  0  0  0  0  0  0  0  0  0  0  0
  -24.3369  -27.9462   19.1639 C   0  0  0  0  0  0  0  0  0  0  0  0
  -17.6934  -26.8571   20.8400 C   0  0  0  0  0  0  0  0  0  0  0  0
  -28.7884  -24.6556   17.1664 C   0  0  0  0  0  0  0  0  0  0  0  0
  -18.9965  -26.4625   21.5279 C   0  0  0  0  0  0  0  0  0  0  0  0
  -28.3532  -23.2490   17.5811 C   0  0  0  0  0  0  0  0  0  0  0  0
  -30.1967  -24.9792   17.6603 C   0  0  0  0  0  0  0  0  0  0  0  0
  -29.9693  -23.3811   19.5226 C   0  0  0  0  0  0  0  0  0  0  0  0
  -19.6919  -27.6863   22.1362 C   0  0  1  0  0  0  0  0  0  0  0  0
  -22.1307  -29.0793   19.5779 C   0  0  1  0  0  0  0  0  0  0  0  0
  -28.5340  -23.0296   19.0951 C   0  0  2  0  0  0  0  0  0  0  0  0
  -33.2026  -24.6844   23.2235 C   0  0  0  0  0  0  0  0  0  0  0  0
  -25.1911  -27.3288   12.6806 C   0  0  0  0  0  0  0  0  0  0  0  0
  -22.3285  -24.7205   18.0540 C   0  0  0  0  0  0  0  0  0  0  0  0
  -23.5817  -24.3822   15.9131 C   0  0  0  0  0  0  0  0  0  0  0  0
  -21.3209  -25.4359   15.8797 C   0  0  0  0  0  0  0  0  0  0  0  0
  -25.7007  -30.5499   14.6404 C   0  0  0  0  0  0  0  0  0  0  0  0
  -28.9766  -27.2626   24.0197 C   0  0  0  0  0  0  0  0  0  0  0  0
  -31.1571  -26.4922   22.2813 C   0  0  0  0  0  0  0  0  0  0  0  0
  -29.4235  -28.7253   23.9707 C   0  0  0  0  0  0  0  0  0  0  0  0
  -28.3700  -29.6593   23.3866 C   0  0  0  0  0  0  0  0  0  1  0  0
  -23.2871  -26.7486   16.7758 C   0  0  1  0  0  0  0  0  0  0  0  0
  -24.8718  -28.3728   13.7393 C   0  0  2  0  0  0  0  0  0  0  0  0
  -22.6403  -25.3383   16.6762 C   0  0  0  0  0  0  0  0  0  0  0  0
  -29.0928  -20.6702   19.5462 N   0  0  0  0  0  0  0  0  0  0  0  0
  -28.1447  -21.6220   19.5072 N   0  0  0  0  0  0  0  0  0  0  0  0
  -22.9842  -28.2851   18.6918 N   0  0  0  0  0  0  0  0  0  0  0  0
  -30.3008  -24.7520   19.1037 N   0  0  0  0  0  0  0  0  0  0  0  0
  -33.0209  -23.6870   25.8896 N   0  0  0  0  0  0  0  0  0  0  0  0
  -28.9139  -26.1884   26.6674 N   0  0  0  0  0  0  0  0  0  0  0  0
  -30.9052  -24.4274   27.5905 N   0  0  0  0  0  0  0  0  0  0  0  0
  -25.8361  -22.0044   19.8738 N   0  0  0  0  0  0  0  0  0  0  0  0
  -26.3284  -17.6161   20.8204 N   0  0  0  0  0  0  0  0  0  0  0  0
  -20.3625  -28.4505   21.1063 N   0  0  0  0  0  0  0  0  0  0  0  0
  -23.5684  -27.3694   15.4858 N   0  0  0  0  0  0  0  0  0  0  0  0
  -30.7676  -25.5089   21.2953 N   0  0  0  0  0  0  0  0  0  0  0  0
  -25.9047  -29.4448   13.6687 N   0  3  0  0  0  0  0  0  0  0  0  0
  -24.8160  -19.3352   20.6933 O   0  0  0  0  0  0  0  0  0  0  0  0
  -22.3495  -27.2380   21.0397 O   0  0  0  0  0  0  0  0  0  0  0  0
  -21.2936  -27.9888   17.1138 O   0  0  0  0  0  0  0  0  0  0  0  0
  -25.8469  -27.6368   15.8237 O   0  0  0  0  0  0  0  0  0  0  0  0
  -30.9730  -26.9338   19.5109 O   0  0  0  0  0  0  0  0  0  0  0  0
  -31.0727  -14.7063   20.5761 O   0  0  0  0  0  0  0  0  0  0  0  0
  -28.0649  -29.2328   22.0595 O   0  0  0  0  0  0  0  0  0  1  0  0
  -28.6672  -10.1901   18.5214 F   0  0  0  0  0  0  0  0  0  0  0  0
  -32.3348  -13.1799   18.6474 F   0  0  0  0  0  0  0  0  0  0  0  0
  1  2  1  0  0  0  0
  1  5  2  0  0  0  0
  2  6  2  0  0  0  0
  3  8  2  0  0  0  0
  3 15  1  0  0  0  0
  4  9  1  0  0  0  0
  4 15  2  0  0  0  0
  5 17  1  0  0  0  0
  6 19  1  0  0  0  0
  7 10  2  0  0  0  0
  7 18  1  0  0  0  0
  8 27  1  0  0  0  0
  9 27  2  0  0  0  0
 10 28  1  0  0  0  0
 11 12  2  0  0  0  0
 11 29  1  0  0  0  0
 12 30  1  0  0  0  0
 13 20  1  0  0  0  0
 13 28  2  0  0  0  0
 14 30  2  0  0  0  0
 14 31  1  0  0  0  0
 15 32  1  0  0  0  0
 16 32  1  0  0  0  0
 16 33  2  0  0  0  0
 16 34  1  0  0  0  0
 17 19  2  0  0  0  0
 17 39  1  0  0  0  0
 18 20  2  0  0  0  0
 18 40  1  0  0  0  0
 19 48  1  0  0  0  0
 20 41  1  0  0  0  0
 21 22  1  0  0  0  0
 21 23  2  0  0  0  0
 21 58  1  0  0  0  0
 22 24  2  0  0  0  0
 22 51  1  0  0  0  0
 23 25  1  0  0  0  0
 23 57  1  0  0  0  0
 24 26  1  0  0  0  0
 24 68  1  0  0  0  0
 25 26  2  0  0  0  0
 25 69  1  0  0  0  0
 26 70  1  0  0  0  0
 27 82  1  0  0  0  0
 28 83  1  0  0  0  0
 29 31  2  0  0  0  0
 29 82  1  0  0  0  0
 30 84  1  0  0  0  0
 31 85  1  0  0  0  0
 32 64  2  0  0  0  0
 33 65  1  0  0  0  0
 33 71  1  0  0  0  0
 34 72  1  0  0  0  0
 34 77  2  0  0  0  0
 35 49  1  0  0  0  0
 35 73  1  0  0  0  0
 35 78  2  0  0  0  0
 36 61  1  0  0  0  0
 36 66  1  0  0  0  0
 36 79  2  0  0  0  0
 37 62  1  0  0  0  0
 37 74  1  0  0  0  0
 37 80  2  0  0  0  0
 38 67  1  0  0  0  0
 38 75  1  0  0  0  0
 38 81  2  0  0  0  0
 39 42  1  0  0  0  0
 40 49  1  0  0  0  0
 41 66  1  0  0  0  0
 42 44  1  0  0  0  0
 43 45  1  0  0  0  0
 43 46  1  0  0  0  0
 44 48  1  0  0  0  0
 45 50  1  0  0  0  0
 46 67  1  0  0  0  0
 47 50  1  0  0  0  0
 47 67  1  0  0  0  0
 48 73  1  0  0  0  0
 49 66  1  0  0  0  0
 50 65  1  0  0  0  0
 52 62  1  0  0  0  0
 53 63  1  0  0  0  0
 54 63  1  0  0  0  0
 55 63  1  0  0  0  0
 56 76  1  0  0  0  0
 57 59  1  0  0  0  0
 58 75  1  0  0  0  0
 59 60  1  0  0  0  0
 60 83  1  0  0  0  0
 61 63  1  0  0  0  0
 61 74  1  0  0  0  0
 62 76  1  0  0  0  0
 64 65  1  0  0  0  0
M  CHG  1  76   1
M  ISO  4  38 100  60 101  75 100  83 101
M  END
> <Batch ID>
0099

> <Smiles>
CNC(C)C(=O)NC(C(=O)N1Cc2cc([101O:1][101CH2:1]CCc3c(N)c(N)c(N)c(C)c3C[100NH:0][100C:0](=O)N3CCCC(n4nc(-c5ccc(Oc6ccc(F)cc6F)cc5)c(C(N)=O)c4N)C3)ccc2CC1C(=O)NC1CCCc2ccccc21)C(C)(C)C

> <Shape>
0.278

> <Color>
0.061

> <Negative vol penalty>
0.000

$$$$

  -OEChem-04052300543D

 85 93  0     1  0  0  0  0  0999 V2000
  -24.8188  -33.0515   23.9569 C   0  0  0  0  0  0  0  0  0  0  0  0
  -24.6466  -31.8703   24.6713 C   0  0  0  0  0  0  0  0  0  0  0  0
  -28.5466  -18.9035   24.7392 C   0  0  0  0  0  0  0  0  0  0  0  0
  -30.8980  -18.3639   24.6092 C   0  0  0  0  0  0  0  0  0  0  0  0
  -24.8308  -33.0263   22.5629 C   0  0  0  0  0  0  0  0  0  0  0  0
  -24.4852  -30.6632   23.9921 C   0  0  0  0  0  0  0  0  0  0  0  0
  -25.9718  -23.6808   24.5865 C   0  0  0  0  0  0  0  0  0  0  0  0
  -28.7542  -19.5097   25.9781 C   0  0  0  0  0  0  0  0  0  0  0  0
  -31.1056  -18.9702   25.8481 C   0  0  0  0  0  0  0  0  0  0  0  0
  -25.3447  -22.4371   24.5253 C   0  0  0  0  0  0  0  0  0  0  0  0
  -28.7288  -21.5173   29.0087 C   0  0  0  0  0  0  0  0  0  0  0  0
  -28.1270  -22.7553   29.2339 C   0  0  0  0  0  0  0  0  0  0  0  0
  -23.1583  -15.1743   21.9459 C   0  0  0  0  0  0  0  0  0  0  0  0
  -25.4617  -22.5035   22.1167 C   0  0  0  0  0  0  0  0  0  0  0  0
  -29.3487  -23.6882   27.3700 C   0  0  0  0  0  0  0  0  0  0  0  0
  -29.6185  -18.3306   24.0547 C   0  0  0  0  0  0  0  0  0  0  0  0
  -22.7906  -13.9328   21.3513 C   0  0  0  0  0  0  0  0  0  0  0  0
  -29.4744  -18.3127   21.5078 C   0  0  0  0  0  0  0  0  0  0  0  0
  -24.6791  -31.8169   21.8664 C   0  0  0  0  0  0  0  0  0  0  0  0
  -26.3393  -24.3513   23.4110 C   0  0  0  0  0  0  0  0  0  0  0  0
  -24.4939  -30.6219   22.5875 C   0  0  0  0  0  0  0  0  0  0  0  0
  -26.0956  -23.7544   22.1658 C   0  0  0  0  0  0  0  0  0  0  0  0
  -30.0337  -19.5431   26.5326 C   0  0  0  0  0  0  0  0  0  0  0  0
  -25.0870  -21.8495   23.2902 C   0  0  0  0  0  0  0  0  0  0  0  0
  -29.6406  -21.3647   27.9642 C   0  0  0  0  0  0  0  0  0  0  0  0
  -28.4369  -23.8407   28.4146 C   0  0  0  0  0  0  0  0  0  0  0  0
  -29.9506  -22.4502   27.1449 C   0  0  0  0  0  0  0  0  0  0  0  0
  -29.4045  -17.7037   22.7751 C   0  0  0  0  0  0  0  0  0  0  0  0
  -29.1939  -17.2995   20.6240 C   0  0  0  0  0  0  0  0  0  0  0  0
  -22.0663  -15.9825   22.1735 C   0  0  0  0  0  0  0  0  0  0  0  0
  -21.4313  -13.8393   21.1473 C   0  0  0  0  0  0  0  0  0  0  0  0
  -23.7458  -12.8538   20.9903 C   0  0  0  0  0  0  0  0  0  0  0  0
  -29.7668  -19.6727   21.1606 C   0  0  0  0  0  0  0  0  0  0  0  0
  -25.5419  -27.1176   22.0637 C   0  0  0  0  0  0  0  0  0  0  0  0
  -27.8781  -26.3200   19.9593 C   0  0  0  0  0  0  0  0  0  0  0  0
  -23.0144  -18.0704   23.2156 C   0  0  0  0  0  0  0  0  0  0  0  0
  -29.7481  -23.8669   18.4992 C   0  0  0  0  0  0  0  0  0  0  0  0
  -26.1369  -12.2196   21.0513 C   0  0  0  0  0  0  0  0  0  0  0  0
  -24.6515  -31.8461   20.3587 C   0  0  0  0  0  0  0  0  0  0  0  0
  -27.0390  -25.6801   23.4948 C   0  0  0  0  0  0  0  0  0  0  0  0
  -26.4886  -24.4237   20.8751 C   0  0  0  0  0  0  0  0  0  0  0  0
  -24.8490  -30.4740   19.7193 C   0  0  0  0  0  0  0  0  0  0  0  0
  -29.5390  -12.5424   20.1464 C   0  0  0  0  0  0  0  0  0  0  0  0
  -23.9700  -29.4335   20.4060 C   0  0  0  0  0  0  0  0  0  0  0  0
  -29.8965  -13.9644   20.5873 C   0  0  0  0  0  0  0  0  0  0  0  0
  -28.5891  -11.8645   21.1328 C   0  0  0  0  0  0  0  0  0  0  0  0
  -27.7362  -14.0438   21.8952 C   0  0  0  0  0  0  0  0  0  0  0  0
  -24.3404  -29.2893   21.8870 C   0  0  1  0  0  0  0  0  0  0  0  0
  -26.9059  -26.5070   22.2197 C   0  0  1  0  0  0  0  0  0  0  0  0
  -28.6348  -14.7941   20.8989 C   0  0  1  0  0  0  0  0  0  0  0  0
  -31.5422  -22.8435   17.0740 C   0  0  0  0  0  0  0  0  0  0  0  0
  -25.8381  -26.7364   17.7289 C   0  0  0  0  0  0  0  0  0  0  0  0
  -27.3679  -25.4860   16.1912 C   0  0  0  0  0  0  0  0  0  0  0  0
  -28.1229  -27.6236   17.2319 C   0  0  0  0  0  0  0  0  0  0  0  0
  -19.3073  -12.7546   20.4141 C   0  0  0  0  0  0  0  0  0  0  0  0
  -31.7241  -23.9836   20.6994 C   0  0  0  0  0  0  0  0  0  0  0  0
  -22.4759  -19.3966   23.7400 C   0  0  0  0  0  0  0  0  0  0  0  0
  -23.5646  -20.3127   24.2783 C   0  0  0  0  0  0  0  0  0  1  0  0
  -27.9314  -25.5482   18.6630 C   0  0  1  0  0  0  0  0  0  0  0  0
  -31.2424  -23.7470   18.2600 C   0  0  2  0  0  0  0  0  0  0  0  0
  -27.3058  -26.3366   17.4778 C   0  0  0  0  0  0  0  0  0  0  0  0
  -29.1031  -16.4043   22.7068 N   0  0  0  0  0  0  0  0  0  0  0  0
  -28.9810  -16.1885   21.3860 N   0  0  0  0  0  0  0  0  0  0  0  0
  -27.1645  -25.7247   21.0092 N   0  0  0  0  0  0  0  0  0  0  0  0
  -27.4164  -12.7091   21.3668 N   0  0  0  0  0  0  0  0  0  0  0  0
  -29.1109  -17.2594   19.2772 N   0  0  0  0  0  0  0  0  0  0  0  0
  -30.0321  -20.5835   22.1924 N   0  0  0  0  0  0  0  0  0  0  0  0
  -21.9747  -17.2771   22.7378 N   0  0  0  0  0  0  0  0  0  0  0  0
  -20.7536  -12.7956   20.6034 N   0  0  0  0  0  0  0  0  0  0  0  0
  -25.0866  -13.1177   21.2711 N   0  0  0  0  0  0  0  0  0  0  0  0
  -25.5441  -28.4991   22.0323 N   0  0  0  0  0  0  0  0  0  0  0  0
  -29.3290  -25.1800   18.4643 N   0  0  0  0  0  0  0  0  0  0  0  0
  -31.9160  -23.1821   19.4633 N   0  3  0  0  0  0  0  0  0  0  0  0
  -23.3138  -11.8064   20.5169 O   0  0  0  0  0  0  0  0  0  0  0  0
  -29.7760  -20.0723   19.9716 O   0  0  0  0  0  0  0  0  0  0  0  0
  -24.5602  -26.3893   21.9766 O   0  0  0  0  0  0  0  0  0  0  0  0
  -28.4546  -27.4076   20.0398 O   0  0  0  0  0  0  0  0  0  0  0  0
  -24.2097  -17.7963   23.2384 O   0  0  0  0  0  0  0  0  0  0  0  0
  -29.0244  -22.8927   18.6937 O   0  0  0  0  0  0  0  0  0  0  0  0
  -25.9490  -11.0941   20.5788 O   0  0  0  0  0  0  0  0  0  0  0  0
  -30.2367  -20.1348   27.7414 O   0  0  0  0  0  0  0  0  0  0  0  0
  -24.4745  -20.6360   23.2276 O   0  0  0  0  0  0  0  0  0  1  0  0
  -27.8578  -25.0292   28.6300 F   0  0  0  0  0  0  0  0  0  0  0  0
  -30.8249  -22.3094   26.1391 F   0  0  0  0  0  0  0  0  0  0  0  0
  -20.6049  -15.2445   21.6713 S   0  0  0  0  0  0  0  0  0  0  0  0
  1  2  1  0  0  0  0
  1  5  2  0  0  0  0
  2  6  2  0  0  0  0
  3  8  2  0  0  0  0
  3 16  1  0  0  0  0
  4  9  1  0  0  0  0
  4 16  2  0  0  0  0
  5 19  1  0  0  0  0
  6 21  1  0  0  0  0
  7 10  2  0  0  0  0
  7 20  1  0  0  0  0
  8 23  1  0  0  0  0
  9 23  2  0  0  0  0
 10 24  1  0  0  0  0
 11 12  2  0  0  0  0
 11 25  1  0  0  0  0
 12 26  1  0  0  0  0
 13 17  1  0  0  0  0
 13 30  2  0  0  0  0
 14 22  1  0  0  0  0
 14 24  2  0  0  0  0
 15 26  2  0  0  0  0
 15 27  1  0  0  0  0
 16 28  1  0  0  0  0
 17 31  2  0  0  0  0
 17 32  1  0  0  0  0
 18 28  1  0  0  0  0
 18 29  2  0  0  0  0
 18 33  1  0  0  0  0
 19 21  2  0  0  0  0
 19 39  1  0  0  0  0
 20 22  2  0  0  0  0
 20 40  1  0  0  0  0
 21 48  1  0  0  0  0
 22 41  1  0  0  0  0
 23 81  1  0  0  0  0
 24 82  1  0  0  0  0
 25 27  2  0  0  0  0
 25 81  1  0  0  0  0
 26 83  1  0  0  0  0
 27 84  1  0  0  0  0
 28 62  2  0  0  0  0
 29 63  1  0  0  0  0
 29 66  1  0  0  0  0
 30 68  1  0  0  0  0
 30 85  1  0  0  0  0
 31 69  1  0  0  0  0
 31 85  1  0  0  0  0
 32 70  1  0  0  0  0
 32 74  2  0  0  0  0
 33 67  1  0  0  0  0
 33 75  2  0  0  0  0
 34 49  1  0  0  0  0
 34 71  1  0  0  0  0
 34 76  2  0  0  0  0
 35 59  1  0  0  0  0
 35 64  1  0  0  0  0
 35 77  2  0  0  0  0
 36 57  1  0  0  0  0
 36 68  1  0  0  0  0
 36 78  2  0  0  0  0
 37 60  1  0  0  0  0
 37 72  1  0  0  0  0
 37 79  2  0  0  0  0
 38 65  1  0  0  0  0
 38 70  1  0  0  0  0
 38 80  2  0  0  0  0
 39 42  1  0  0  0  0
 40 49  1  0  0  0  0
 41 64  1  0  0  0  0
 42 44  1  0  0  0  0
 43 45  1  0  0  0  0
 43 46  1  0  0  0  0
 44 48  1  0  0  0  0
 45 50  1  0  0  0  0
 46 65  1  0  0  0  0
 47 50  1  0  0  0  0
 47 65  1  0  0  0  0
 48 71  1  0  0  0  0
 49 64  1  0  0  0  0
 50 63  1  0  0  0  0
 51 60  1  0  0  0  0
 52 61  1  0  0  0  0
 53 61  1  0  0  0  0
 54 61  1  0  0  0  0
 55 69  1  0  0  0  0
 56 73  1  0  0  0  0
 57 58  1  0  0  0  0
 58 82  1  0  0  0  0
 59 61  1  0  0  0  0
 59 72  1  0  0  0  0
 60 73  1  0  0  0  0
 62 63  1  0  0  0  0
M  CHG  1  73   1
M  ISO  4  38 100  58 101  70 100  82 101
M  END
> <Batch ID>
0099

> <Smiles>
CNc1sc(NC(=O)C[101CH2:1][101O:1]c2ccc3c(c2)CN(C(=O)C(NC(=O)C(C)NC)C(C)(C)C)C(C(=O)NC2CCCc4ccccc42)C3)cc1C(=O)[100NH:0][100C:0](=O)N1CCCC(n2nc(-c3ccc(Oc4ccc(F)cc4F)cc3)c(C(N)=O)c2N)C1

> <Shape>
0.197

> <Color>
0.075

> <Negative vol penalty>
0.000

$$$$

  -OEChem-04052300543D

 83 91  0     1  0  0  0  0  0999 V2000
  -31.3088  -30.6922   14.0298 C   0  0  0  0  0  0  0  0  0  0  0  0
  -30.8247  -29.4652   14.4721 C   0  0  0  0  0  0  0  0  0  0  0  0
  -22.8991  -10.0359   20.0005 C   0  0  0  0  0  0  0  0  0  0  0  0
  -23.6834  -10.0037   22.2854 C   0  0  0  0  0  0  0  0  0  0  0  0
  -29.5041  -16.7820   19.8567 C   0  0  0  0  0  0  0  0  0  0  0  0
  -31.4442  -31.7511   14.9266 C   0  0  0  0  0  0  0  0  0  0  0  0
  -30.4768  -29.2961   15.8118 C   0  0  0  0  0  0  0  0  0  0  0  0
  -25.9306  -25.8421   18.0271 C   0  0  0  0  0  0  0  0  0  0  0  0
  -28.8560  -17.9288   19.3980 C   0  0  0  0  0  0  0  0  0  0  0  0
  -22.0926   -8.9282   20.2618 C   0  0  0  0  0  0  0  0  0  0  0  0
  -22.8769   -8.8960   22.5467 C   0  0  0  0  0  0  0  0  0  0  0  0
  -25.9078  -24.5601   18.5745 C   0  0  0  0  0  0  0  0  0  0  0  0
  -22.9692   -5.5616   21.9953 C   0  0  0  0  0  0  0  0  0  0  0  0
  -23.5323   -4.5040   22.7093 C   0  0  0  0  0  0  0  0  0  0  0  0
  -26.0211  -25.5100   20.7890 C   0  0  0  0  0  0  0  0  0  0  0  0
  -28.4662  -18.6211   21.6796 C   0  0  0  0  0  0  0  0  0  0  0  0
  -21.8628   -4.7793   24.4339 C   0  0  0  0  0  0  0  0  0  0  0  0
  -23.6945  -10.5736   21.0124 C   0  0  0  0  0  0  0  0  0  0  0  0
  -29.6332  -16.5547   21.2269 C   0  0  0  0  0  0  0  0  0  0  0  0
  -24.1804  -13.0745   20.8817 C   0  0  0  0  0  0  0  0  0  0  0  0
  -31.0887  -31.5978   16.2760 C   0  0  0  0  0  0  0  0  0  0  0  0
  -26.0099  -26.9693   18.8576 C   0  0  0  0  0  0  0  0  0  0  0  0
  -30.6088  -30.3536   16.7278 C   0  0  0  0  0  0  0  0  0  0  0  0
  -26.0422  -26.8054   20.2498 C   0  0  0  0  0  0  0  0  0  0  0  0
  -28.3371  -18.8483   20.3094 C   0  0  0  0  0  0  0  0  0  0  0  0
  -22.0815   -8.3583   21.5349 C   0  0  0  0  0  0  0  0  0  0  0  0
  -25.9560  -24.3937   19.9555 C   0  0  0  0  0  0  0  0  0  0  0  0
  -21.8529   -6.2282   22.5006 C   0  0  0  0  0  0  0  0  0  0  0  0
  -22.9791   -4.1127   23.9286 C   0  0  0  0  0  0  0  0  0  0  0  0
  -29.1142  -17.4742   22.1383 C   0  0  0  0  0  0  0  0  0  0  0  0
  -21.2997   -5.8370   23.7199 C   0  0  0  0  0  0  0  0  0  0  0  0
  -24.5283  -11.7175   20.7430 C   0  0  0  0  0  0  0  0  0  0  0  0
  -25.3099  -13.7588   20.5044 C   0  0  0  0  0  0  0  0  0  0  0  0
  -30.3073  -15.3561   21.7006 C   0  0  0  0  0  0  0  0  0  0  0  0
  -22.9466  -13.6638   21.3131 C   0  0  0  0  0  0  0  0  0  0  0  0
  -30.8656  -14.3613   20.7562 C   0  0  0  0  0  0  0  0  0  0  0  0
  -28.1066  -29.3267   19.2451 C   0  0  0  0  0  0  0  0  0  0  0  0
  -25.8378  -30.4913   21.2499 C   0  0  0  0  0  0  0  0  0  0  0  0
  -27.1086  -21.0247   20.6067 C   0  0  0  0  0  0  0  0  0  0  0  0
  -23.1582  -29.8659   23.2687 C   0  0  0  0  0  0  0  0  0  0  0  0
  -31.2972  -32.7571   17.2179 C   0  0  0  0  0  0  0  0  0  0  0  0
  -26.0066  -28.3464   18.2526 C   0  0  0  0  0  0  0  0  0  0  0  0
  -26.1074  -27.9836   21.1857 C   0  0  0  0  0  0  0  0  0  0  0  0
  -30.5531  -32.6073   18.5423 C   0  0  0  0  0  0  0  0  0  0  0  0
  -29.5390  -12.1666   18.2502 C   0  0  0  0  0  0  0  0  0  0  0  0
  -30.7572  -31.2079   19.1140 C   0  0  0  0  0  0  0  0  0  0  0  0
  -28.0998  -11.9353   18.7095 C   0  0  0  0  0  0  0  0  0  0  0  0
  -30.4863  -12.3162   19.4361 C   0  0  0  0  0  0  0  0  0  0  0  0
  -28.6412  -13.1602   20.8616 C   0  0  0  0  0  0  0  0  0  0  0  0
  -30.1975  -30.1385   18.1682 C   0  0  1  0  0  0  0  0  0  0  0  0
  -26.6078  -29.4046   19.1725 C   0  0  1  0  0  0  0  0  0  0  0  0
  -27.6505  -13.0319   19.6914 C   0  0  2  0  0  0  0  0  0  0  0  0
  -21.5392  -31.0129   24.8051 C   0  0  0  0  0  0  0  0  0  0  0  0
  -28.0015  -30.6680   23.3941 C   0  0  0  0  0  0  0  0  0  0  0  0
  -26.1886  -30.8929   25.1061 C   0  0  0  0  0  0  0  0  0  0  0  0
  -26.4401  -32.6204   23.3242 C   0  0  0  0  0  0  0  0  0  0  0  0
  -20.8411  -29.0749   21.6062 C   0  0  0  0  0  0  0  0  0  0  0  0
  -26.5047  -22.0924   19.7135 C   0  0  0  0  0  0  0  0  0  1  0  0
  -25.5308  -30.3399   22.7202 C   0  0  1  0  0  0  0  0  0  0  0  0
  -21.8040  -30.5422   23.3834 C   0  0  2  0  0  0  0  0  0  0  0  0
  -26.5410  -31.1078   23.6187 C   0  0  0  0  0  0  0  0  0  0  0  0
  -25.7808  -11.5478   20.3111 N   0  0  0  0  0  0  0  0  0  0  0  0
  -30.4677  -15.0770   22.9660 N   0  0  0  0  0  0  0  0  0  0  0  0
  -26.2298  -12.8071   20.1752 N   0  0  0  0  0  0  0  0  0  0  0  0
  -30.0117  -13.3391   20.3660 N   0  0  0  0  0  0  0  0  0  0  0  0
  -26.1082  -29.3095   20.5457 N   0  0  0  0  0  0  0  0  0  0  0  0
  -25.5961  -15.0757   20.4255 N   0  0  0  0  0  0  0  0  0  0  0  0
  -21.8876  -12.8154   21.6639 N   0  0  0  0  0  0  0  0  0  0  0  0
  -27.6796  -20.0117   19.8439 N   0  0  0  0  0  0  0  0  0  0  0  0
  -28.7561  -30.0706   18.2786 N   0  0  0  0  0  0  0  0  0  0  0  0
  -24.1427  -30.7549   22.8921 N   0  0  0  0  0  0  0  0  0  0  0  0
  -20.7191  -29.5988   22.9909 N   0  3  0  0  0  0  0  0  0  0  0  0
  -22.7825  -14.9061   21.3696 O   0  0  0  0  0  0  0  0  0  0  0  0
  -32.0275  -14.5480   20.4194 O   0  0  0  0  0  0  0  0  0  0  0  0
  -28.6346  -28.6436   20.1147 O   0  0  0  0  0  0  0  0  0  0  0  0
  -25.8308  -31.6160   20.7433 O   0  0  0  0  0  0  0  0  0  0  0  0
  -27.0625  -21.1085   21.8296 O   0  0  0  0  0  0  0  0  0  0  0  0
  -23.3267  -28.6696   23.4943 O   0  0  0  0  0  0  0  0  0  0  0  0
  -21.2945   -7.2776   21.7902 O   0  0  0  0  0  0  0  0  0  0  0  0
  -25.9345  -23.1434   20.4923 O   0  0  0  0  0  0  0  0  0  1  0  0
  -23.5190   -3.0960   24.6134 F   0  0  0  0  0  0  0  0  0  0  0  0
  -29.2321  -17.2659   23.4575 F   0  0  0  0  0  0  0  0  0  0  0  0
  -20.2266   -6.4728   24.2098 F   0  0  0  0  0  0  0  0  0  0  0  0
  1  2  1  0  0  0  0
  1  6  2  0  0  0  0
  2  7  2  0  0  0  0
  3 10  2  0  0  0  0
  3 18  1  0  0  0  0
  4 11  1  0  0  0  0
  4 18  2  0  0  0  0
  5  9  2  0  0  0  0
  5 19  1  0  0  0  0
  6 21  1  0  0  0  0
  7 23  1  0  0  0  0
  8 12  2  0  0  0  0
  8 22  1  0  0  0  0
  9 25  1  0  0  0  0
 10 26  1  0  0  0  0
 11 26  2  0  0  0  0
 12 27  1  0  0  0  0
 13 14  2  0  0  0  0
 13 28  1  0  0  0  0
 14 29  1  0  0  0  0
 15 24  1  0  0  0  0
 15 27  2  0  0  0  0
 16 25  2  0  0  0  0
 16 30  1  0  0  0  0
 17 29  2  0  0  0  0
 17 31  1  0  0  0  0
 18 32  1  0  0  0  0
 19 30  2  0  0  0  0
 19 34  1  0  0  0  0
 20 32  1  0  0  0  0
 20 33  2  0  0  0  0
 20 35  1  0  0  0  0
 21 23  2  0  0  0  0
 21 41  1  0  0  0  0
 22 24  2  0  0  0  0
 22 42  1  0  0  0  0
 23 50  1  0  0  0  0
 24 43  1  0  0  0  0
 25 69  1  0  0  0  0
 26 79  1  0  0  0  0
 27 80  1  0  0  0  0
 28 31  2  0  0  0  0
 28 79  1  0  0  0  0
 29 81  1  0  0  0  0
 30 82  1  0  0  0  0
 31 83  1  0  0  0  0
 32 62  2  0  0  0  0
 33 64  1  0  0  0  0
 33 67  1  0  0  0  0
 34 36  1  0  0  0  0
 34 63  2  0  0  0  0
 35 68  1  0  0  0  0
 35 73  2  0  0  0  0
 36 65  1  0  0  0  0
 36 74  2  0  0  0  0
 37 51  1  0  0  0  0
 37 70  1  0  0  0  0
 37 75  2  0  0  0  0
 38 59  1  0  0  0  0
 38 66  1  0  0  0  0
 38 76  2  0  0  0  0
 39 58  1  0  0  0  0
 39 69  1  0  0  0  0
 39 77  2  0  0  0  0
 40 60  1  0  0  0  0
 40 71  1  0  0  0  0
 40 78  2  0  0  0  0
 41 44  1  0  0  0  0
 42 51  1  0  0  0  0
 43 66  1  0  0  0  0
 44 46  1  0  0  0  0
 45 47  1  0  0  0  0
 45 48  1  0  0  0  0
 46 50  1  0  0  0  0
 47 52  1  0  0  0  0
 48 65  1  0  0  0  0
 49 52  1  0  0  0  0
 49 65  1  0  0  0  0
 50 70  1  0  0  0  0
 51 66  1  0  0  0  0
 52 64  1  0  0  0  0
 53 60  1  0  0  0  0
 54 61  1  0  0  0  0
 55 61  1  0  0  0  0
 56 61  1  0  0  0  0
 57 72  1  0  0  0  0
 58 80  1  0  0  0  0
 59 61  1  0  0  0  0
 59 71  1  0  0  0  0
 60 72  1  0  0  0  0
 62 64  1  0  0  0  0
M  CHG  1  72   1
M  ISO  4  34 100  36 100  58 101  80 101
M  END
> <Batch ID>
0099

> <Smiles>
CNC(C)C(=O)NC(C(=O)N1Cc2cc([101O:1][101CH2:1]C(=O)Nc3ccc([100C:0](=N)[100C:0](=O)N4CCCC(n5nc(-c6ccc(Oc7ccc(F)cc7F)cc6)c(C(N)=O)c5N)C4)c(F)c3)ccc2CC1C(=O)NC1CCCc2ccccc21)C(C)(C)C

> <Shape>
0.346

> <Color>
0.244

> <Negative vol penalty>
0.000

$$$$

  -OEChem-04052300543D

 82 90  0     1  0  0  0  0  0999 V2000
  -24.2065   -6.7418   23.9062 C   0  0  0  0  0  0  0  0  0  0  0  0
  -25.3780   -7.4862   23.8121 C   0  0  0  0  0  0  0  0  0  0  0  0
  -23.7693  -33.1014   22.1176 C   0  0  0  0  0  0  0  0  0  0  0  0
  -25.7478  -32.3325   23.2715 C   0  0  0  0  0  0  0  0  0  0  0  0
  -23.1209   -7.0460   23.0860 C   0  0  0  0  0  0  0  0  0  0  0  0
  -25.4650   -8.5345   22.8968 C   0  0  0  0  0  0  0  0  0  0  0  0
  -28.4907  -14.9727   22.0531 C   0  0  0  0  0  0  0  0  0  0  0  0
  -27.6724  -23.4196   19.8538 C   0  0  0  0  0  0  0  0  0  0  0  0
  -23.8009  -34.2863   22.8529 C   0  0  0  0  0  0  0  0  0  0  0  0
  -25.7794  -33.5174   24.0068 C   0  0  0  0  0  0  0  0  0  0  0  0
  -29.2749  -15.6836   21.1458 C   0  0  0  0  0  0  0  0  0  0  0  0
  -28.6649  -22.4519   19.6989 C   0  0  0  0  0  0  0  0  0  0  0  0
  -25.5102  -37.2033   22.8042 C   0  0  0  0  0  0  0  0  0  0  0  0
  -25.3127  -38.3996   22.1146 C   0  0  0  0  0  0  0  0  0  0  0  0
  -27.3083  -16.1689   19.8356 C   0  0  0  0  0  0  0  0  0  0  0  0
  -26.4189  -21.9089   21.2622 C   0  0  0  0  0  0  0  0  0  0  0  0
  -23.3737  -38.8656   23.4786 C   0  0  0  0  0  0  0  0  0  0  0  0
  -24.7427  -32.1245   22.3269 C   0  0  0  0  0  0  0  0  0  0  0  0
  -25.3345  -30.6496   20.3313 C   0  0  0  0  0  0  0  0  0  0  0  0
  -23.1912   -8.1048   22.1669 C   0  0  0  0  0  0  0  0  0  0  0  0
  -27.1087  -14.8450   21.8524 C   0  0  0  0  0  0  0  0  0  0  0  0
  -24.3797   -8.8523   22.0625 C   0  0  0  0  0  0  0  0  0  0  0  0
  -26.5084  -15.4579   20.7433 C   0  0  0  0  0  0  0  0  0  0  0  0
  -26.5494  -23.1482   20.6355 C   0  0  0  0  0  0  0  0  0  0  0  0
  -27.4114  -20.9410   21.1073 C   0  0  0  0  0  0  0  0  0  0  0  0
  -24.8060  -34.4943   23.7975 C   0  0  0  0  0  0  0  0  0  0  0  0
  -28.6842  -16.2794   20.0353 C   0  0  0  0  0  0  0  0  0  0  0  0
  -28.5344  -21.2126   20.3256 C   0  0  0  0  0  0  0  0  0  0  0  0
  -24.6394  -36.8381   23.8308 C   0  0  0  0  0  0  0  0  0  0  0  0
  -24.2445  -39.2308   22.4518 C   0  0  0  0  0  0  0  0  0  0  0  0
  -23.5712  -37.6693   24.1681 C   0  0  0  0  0  0  0  0  0  0  0  0
  -24.7103  -30.9001   21.5680 C   0  0  0  0  0  0  0  0  0  0  0  0
  -25.0026  -29.3500   20.0361 C   0  0  0  0  0  0  0  0  0  0  0  0
  -26.1422  -31.5145   19.5218 C   0  0  0  0  0  0  0  0  0  0  0  0
  -25.1268  -12.4056   21.3780 C   0  0  0  0  0  0  0  0  0  0  0  0
  -22.8569  -14.7120   21.6026 C   0  0  0  0  0  0  0  0  0  0  0  0
  -22.0440  -18.0144   21.3188 C   0  0  0  0  0  0  0  0  0  0  0  0
  -24.3653  -24.0251   21.5337 C   0  0  0  0  0  0  0  0  0  0  0  0
  -22.0084   -8.3657   21.2683 C   0  0  0  0  0  0  0  0  0  0  0  0
  -26.2727  -14.0974   22.8547 C   0  0  0  0  0  0  0  0  0  0  0  0
  -25.0260  -15.3676   20.4931 C   0  0  0  0  0  0  0  0  0  0  0  0
  -22.0504   -9.7313   20.5873 C   0  0  0  0  0  0  0  0  0  0  0  0
  -21.6527  -26.2329   22.2004 C   0  0  0  0  0  0  0  0  0  0  0  0
  -23.4340   -9.9931   20.0009 C   0  0  0  0  0  0  0  0  0  0  0  0
  -22.2577  -27.6234   21.9936 C   0  0  0  0  0  0  0  0  0  0  0  0
  -22.6524  -25.2682   22.8358 C   0  0  0  0  0  0  0  0  0  0  0  0
  -24.5490  -26.5586   21.9376 C   0  0  0  0  0  0  0  0  0  0  0  0
  -24.5039  -10.0129   21.0993 C   0  0  1  0  0  0  0  0  0  0  0  0
  -24.9525  -13.5969   22.2769 C   0  0  1  0  0  0  0  0  0  0  0  0
  -23.6003  -27.5474   21.2405 C   0  0  2  0  0  0  0  0  0  0  0  0
  -20.1023  -19.5902   21.5285 C   0  0  0  0  0  0  0  0  0  0  0  0
  -21.7798  -13.7380   18.9191 C   0  0  0  0  0  0  0  0  0  0  0  0
  -20.5007  -15.8822   18.7331 C   0  0  0  0  0  0  0  0  0  0  0  0
  -20.0219  -14.3046   20.6052 C   0  0  0  0  0  0  0  0  0  0  0  0
  -23.3660  -19.5395   23.4834 C   0  0  0  0  0  0  0  0  0  0  0  0
  -30.9300  -18.8497   18.8262 C   0  0  0  0  0  0  0  0  0  0  0  0
  -30.6144  -17.6166   19.6583 C   0  0  0  0  0  0  0  0  0  1  0  0
  -29.7829  -19.8479   18.8308 C   0  0  0  0  0  0  0  0  0  0  0  0
  -22.1711  -15.6359   20.6253 C   0  0  1  0  0  0  0  0  0  0  0  0
  -21.2810  -18.9469   22.2423 C   0  0  2  0  0  0  0  0  0  0  0  0
  -21.1467  -14.8905   19.7241 C   0  0  0  0  0  0  0  0  0  0  0  0
  -24.0329  -29.8443   22.0269 N   0  0  0  0  0  0  0  0  0  0  0  0
  -24.2295  -28.9179   21.0734 N   0  0  0  0  0  0  0  0  0  0  0  0
  -24.2521  -14.6205   21.4983 N   0  0  0  0  0  0  0  0  0  0  0  0
  -23.8982  -25.2453   22.0663 N   0  0  0  0  0  0  0  0  0  0  0  0
  -27.2667  -19.6909   21.7474 N   0  0  0  0  0  0  0  0  0  0  0  0
  -25.2993  -28.5460   18.9930 N   0  0  0  0  0  0  0  0  0  0  0  0
  -26.3846  -32.8188   19.9738 N   0  0  0  0  0  0  0  0  0  0  0  0
  -25.5420  -24.1321   20.7931 N   0  0  0  0  0  0  0  0  0  0  0  0
  -24.4707  -11.2706   21.8146 N   0  0  0  0  0  0  0  0  0  0  0  0
  -21.5941  -16.7149   21.4197 N   0  0  0  0  0  0  0  0  0  0  0  0
  -22.1762  -20.0291   22.7406 N   0  3  0  0  0  0  0  0  0  0  0  0
  -26.6208  -31.1469   18.4221 O   0  0  0  0  0  0  0  0  0  0  0  0
  -25.8051  -12.5090   20.3626 O   0  0  0  0  0  0  0  0  0  0  0  0
  -22.1804  -14.0998   22.4327 O   0  0  0  0  0  0  0  0  0  0  0  0
  -22.9463  -18.4008   20.5791 O   0  0  0  0  0  0  0  0  0  0  0  0
  -23.7509  -22.9679   21.6978 O   0  0  0  0  0  0  0  0  0  0  0  0
  -24.8373  -35.6505   24.5150 O   0  0  0  0  0  0  0  0  0  0  0  0
  -29.4474  -16.9734   19.1477 O   0  0  0  0  0  0  0  0  0  1  0  0
  -29.5206  -20.2751   20.1606 O   0  0  0  0  0  0  0  0  0  0  0  0
  -24.0558  -40.3803   21.7906 F   0  0  0  0  0  0  0  0  0  0  0  0
  -22.7320  -37.3243   25.1543 F   0  0  0  0  0  0  0  0  0  0  0  0
  1  2  1  0  0  0  0
  1  5  2  0  0  0  0
  2  6  2  0  0  0  0
  3  9  2  0  0  0  0
  3 18  1  0  0  0  0
  4 10  1  0  0  0  0
  4 18  2  0  0  0  0
  5 20  1  0  0  0  0
  6 22  1  0  0  0  0
  7 11  2  0  0  0  0
  7 21  1  0  0  0  0
  8 12  2  0  0  0  0
  8 24  1  0  0  0  0
  9 26  1  0  0  0  0
 10 26  2  0  0  0  0
 11 27  1  0  0  0  0
 12 28  1  0  0  0  0
 13 14  2  0  0  0  0
 13 29  1  0  0  0  0
 14 30  1  0  0  0  0
 15 23  1  0  0  0  0
 15 27  2  0  0  0  0
 16 24  2  0  0  0  0
 16 25  1  0  0  0  0
 17 30  2  0  0  0  0
 17 31  1  0  0  0  0
 18 32  1  0  0  0  0
 19 32  1  0  0  0  0
 19 33  2  0  0  0  0
 19 34  1  0  0  0  0
 20 22  2  0  0  0  0
 20 39  1  0  0  0  0
 21 23  2  0  0  0  0
 21 40  1  0  0  0  0
 22 48  1  0  0  0  0
 23 41  1  0  0  0  0
 24 69  1  0  0  0  0
 25 28  2  0  0  0  0
 25 66  1  0  0  0  0
 26 78  1  0  0  0  0
 27 79  1  0  0  0  0
 28 80  1  0  0  0  0
 29 31  2  0  0  0  0
 29 78  1  0  0  0  0
 30 81  1  0  0  0  0
 31 82  1  0  0  0  0
 32 62  2  0  0  0  0
 33 63  1  0  0  0  0
 33 67  1  0  0  0  0
 34 68  1  0  0  0  0
 34 73  2  0  0  0  0
 35 49  1  0  0  0  0
 35 70  1  0  0  0  0
 35 74  2  0  0  0  0
 36 59  1  0  0  0  0
 36 64  1  0  0  0  0
 36 75  2  0  0  0  0
 37 60  1  0  0  0  0
 37 71  1  0  0  0  0
 37 76  2  0  0  0  0
 38 65  1  0  0  0  0
 38 69  1  0  0  0  0
 38 77  2  0  0  0  0
 39 42  1  0  0  0  0
 40 49  1  0  0  0  0
 41 64  1  0  0  0  0
 42 44  1  0  0  0  0
 43 45  1  0  0  0  0
 43 46  1  0  0  0  0
 44 48  1  0  0  0  0
 45 50  1  0  0  0  0
 46 65  1  0  0  0  0
 47 50  1  0  0  0  0
 47 65  1  0  0  0  0
 48 70  1  0  0  0  0
 49 64  1  0  0  0  0
 50 63  1  0  0  0  0
 51 60  1  0  0  0  0
 52 61  1  0  0  0  0
 53 61  1  0  0  0  0
 54 61  1  0  0  0  0
 55 72  1  0  0  0  0
 56 57  1  0  0  0  0
 56 58  1  0  0  0  0
 57 79  1  0  0  0  0
 58 80  1  0  0  0  0
 59 61  1  0  0  0  0
 59 71  1  0  0  0  0
 60 72  1  0  0  0  0
 62 63  1  0  0  0  0
M  CHG  1  72   1
M  ISO  4  38 100  57 101  69 100  79 101
M  END
> <Batch ID>
0099

> <Smiles>
CNC(C)C(=O)NC(C(=O)N1Cc2cc([101O:1][101CH2:1]CCOc3ccc([100NH:0][100C:0](=O)N4CCCC(n5nc(-c6ccc(Oc7ccc(F)cc7F)cc6)c(C(N)=O)c5N)C4)cc3N)ccc2CC1C(=O)NC1CCCc2ccccc21)C(C)(C)C

> <Shape>
0.243

> <Color>
0.067

> <Negative vol penalty>
0.000

$$$$

  -OEChem-04052300543D

 85 93  0     1  0  0  0  0  0999 V2000
  -25.6387  -28.9939   20.5631 C   0  0  0  0  0  0  0  0  0  0  0  0
  -24.9172  -27.9108   21.0548 C   0  0  0  0  0  0  0  0  0  0  0  0
  -28.4971  -13.4564   21.3239 C   0  0  0  0  0  0  0  0  0  0  0  0
  -28.2187  -13.1787   18.9401 C   0  0  0  0  0  0  0  0  0  0  0  0
  -26.6924  -28.7826   19.6749 C   0  0  0  0  0  0  0  0  0  0  0  0
  -25.2483  -26.6158   20.6576 C   0  0  0  0  0  0  0  0  0  0  0  0
  -24.9162  -21.5268   24.0484 C   0  0  0  0  0  0  0  0  0  0  0  0
  -22.9109  -11.9372   25.3906 C   0  0  0  0  0  0  0  0  0  0  0  0
  -22.5745  -13.2792   25.2136 C   0  0  0  0  0  0  0  0  0  0  0  0
  -29.8668  -13.6468   21.1417 C   0  0  0  0  0  0  0  0  0  0  0  0
  -29.5884  -13.3691   18.7579 C   0  0  0  0  0  0  0  0  0  0  0  0
  -23.9591  -20.5166   24.1326 C   0  0  0  0  0  0  0  0  0  0  0  0
  -32.4220  -11.5552   19.0915 C   0  0  0  0  0  0  0  0  0  0  0  0
  -33.0888  -10.6828   18.2313 C   0  0  0  0  0  0  0  0  0  0  0  0
  -25.2395  -19.1827   22.5832 C   0  0  0  0  0  0  0  0  0  0  0  0
  -21.2599  -11.3061   23.7435 C   0  0  0  0  0  0  0  0  0  0  0  0
  -33.7334  -12.5489   16.8386 C   0  0  0  0  0  0  0  0  0  0  0  0
  -27.6730  -13.2223   20.2230 C   0  0  0  0  0  0  0  0  0  0  0  0
  -25.2549  -14.0126   20.4125 C   0  0  0  0  0  0  0  0  0  0  0  0
  -27.0428  -27.4837   19.2741 C   0  0  0  0  0  0  0  0  0  0  0  0
  -26.0385  -21.3769   23.2212 C   0  0  0  0  0  0  0  0  0  0  0  0
  -26.3068  -26.3871   19.7621 C   0  0  0  0  0  0  0  0  0  0  0  0
  -26.2107  -20.1915   22.4923 C   0  0  0  0  0  0  0  0  0  0  0  0
  -22.2536  -10.9506   24.6555 C   0  0  0  0  0  0  0  0  0  0  0  0
  -21.5808  -13.6347   24.3016 C   0  0  0  0  0  0  0  0  0  0  0  0
  -30.4125  -13.6032   19.8587 C   0  0  0  0  0  0  0  0  0  0  0  0
  -24.1192  -19.3455   23.3977 C   0  0  0  0  0  0  0  0  0  0  0  0
  -32.4108  -12.9244   18.8252 C   0  0  0  0  0  0  0  0  0  0  0  0
  -33.7446  -11.1796   17.1049 C   0  0  0  0  0  0  0  0  0  0  0  0
  -20.9235  -12.6481   23.5665 C   0  0  0  0  0  0  0  0  0  0  0  0
  -33.0666  -13.4212   17.6988 C   0  0  0  0  0  0  0  0  0  0  0  0
  -26.2581  -13.0249   20.4106 C   0  0  0  0  0  0  0  0  0  0  0  0
  -24.0898  -13.3181   20.6287 C   0  0  0  0  0  0  0  0  0  0  0  0
  -25.3662  -15.4309   20.2347 C   0  0  0  0  0  0  0  0  0  0  0  0
  -27.1767  -22.9162   20.6838 C   0  0  0  0  0  0  0  0  0  0  0  0
  -29.6921  -20.9066   21.0793 C   0  0  0  0  0  0  0  0  0  0  0  0
  -21.7924  -16.1002   24.7712 C   0  0  0  0  0  0  0  0  0  0  0  0
  -30.8701  -17.9442   22.2973 C   0  0  0  0  0  0  0  0  0  0  0  0
  -22.4961   -8.5988   23.8179 C   0  0  0  0  0  0  0  0  0  0  0  0
  -28.1592  -27.3084   18.2753 C   0  0  0  0  0  0  0  0  0  0  0  0
  -27.0754  -22.4649   23.1621 C   0  0  0  0  0  0  0  0  0  0  0  0
  -27.4081  -19.9728   21.6053 C   0  0  0  0  0  0  0  0  0  0  0  0
  -28.6862  -25.8780   18.1956 C   0  0  0  0  0  0  0  0  0  0  0  0
  -22.6460   -8.6272   20.1206 C   0  0  0  0  0  0  0  0  0  0  0  0
  -27.5296  -24.8864   18.1194 C   0  0  0  0  0  0  0  0  0  0  0  0
  -23.5706   -9.8072   19.8276 C   0  0  0  0  0  0  0  0  0  0  0  0
  -22.9599   -7.9825   21.4673 C   0  0  0  0  0  0  0  0  0  0  0  0
  -23.8616  -10.1290   22.3162 C   0  0  0  0  0  0  0  0  0  0  0  0
  -26.6515  -24.9655   19.3741 C   0  0  1  0  0  0  0  0  0  0  0  0
  -27.9187  -22.4181   21.8917 C   0  0  1  0  0  0  0  0  0  0  0  0
  -23.5392  -10.8209   20.9833 C   0  0  1  0  0  0  0  0  0  0  0  0
  -21.5156   -8.8401   26.9291 C   0  0  0  0  0  0  0  0  0  0  0  0
  -32.9601  -16.5621   22.4338 C   0  0  0  0  0  0  0  0  0  0  0  0
  -29.3474  -20.1011   18.1566 C   0  0  0  0  0  0  0  0  0  0  0  0
  -30.7798  -18.0988   18.6120 C   0  0  0  0  0  0  0  0  0  0  0  0
  -31.7219  -20.3924   18.8853 C   0  0  0  0  0  0  0  0  0  0  0  0
  -30.8736  -18.0319   25.2555 C   0  0  0  0  0  0  0  0  0  0  0  0
  -21.1366  -17.3871   24.2834 C   0  0  0  0  0  0  0  0  0  0  0  0
  -22.8223   -9.0868   26.2026 C   0  0  0  0  0  0  0  0  0  0  0  0
  -22.0680  -18.5887   24.3337 C   0  0  0  0  0  0  0  0  0  1  0  0
  -30.0502  -19.5297   20.5744 C   0  0  1  0  0  0  0  0  0  0  0  0
  -32.1011  -17.6120   23.1211 C   0  0  2  0  0  0  0  0  0  0  0  0
  -30.4512  -19.5351   19.0722 C   0  0  0  0  0  0  0  0  0  0  0  0
  -25.7728  -11.7966   20.6099 N   0  0  0  0  0  0  0  0  0  0  0  0
  -24.4519  -12.0078   20.7392 N   0  0  0  0  0  0  0  0  0  0  0  0
  -28.3910  -21.0685   21.5761 N   0  0  0  0  0  0  0  0  0  0  0  0
  -22.9858   -8.9689   22.5485 N   0  0  0  0  0  0  0  0  0  0  0  0
  -22.8012  -13.7065   20.7332 N   0  0  0  0  0  0  0  0  0  0  0  0
  -26.6383  -15.9799   20.0229 N   0  0  0  0  0  0  0  0  0  0  0  0
  -21.2413  -14.9971   24.1245 N   0  0  0  0  0  0  0  0  0  0  0  0
  -27.2855  -24.2784   20.4788 N   0  0  0  0  0  0  0  0  0  0  0  0
  -31.0868  -19.0241   21.4678 N   0  0  0  0  0  0  0  0  0  0  0  0
  -22.6009   -9.5626   24.8389 N   0  0  0  0  0  0  0  0  0  0  0  0
  -31.7036  -17.0912   24.4596 N   0  3  0  0  0  0  0  0  0  0  0  0
  -24.3692  -16.1908   20.2792 O   0  0  0  0  0  0  0  0  0  0  0  0
  -26.5529  -22.1231   19.9884 O   0  0  0  0  0  0  0  0  0  0  0  0
  -30.5381  -21.8036   21.0411 O   0  0  0  0  0  0  0  0  0  0  0  0
  -22.6783  -16.0998   25.6194 O   0  0  0  0  0  0  0  0  0  0  0  0
  -29.8223  -17.3070   22.3786 O   0  0  0  0  0  0  0  0  0  0  0  0
  -22.0471   -7.4679   24.0418 O   0  0  0  0  0  0  0  0  0  0  0  0
  -31.7490  -13.7892   19.6806 O   0  0  0  0  0  0  0  0  0  0  0  0
  -23.1861  -18.3581   23.4775 O   0  0  0  0  0  0  0  0  0  1  0  0
  -34.3862  -10.3420   16.2798 F   0  0  0  0  0  0  0  0  0  0  0  0
  -19.9656  -12.9780   22.6882 F   0  0  0  0  0  0  0  0  0  0  0  0
  -33.0603  -14.7357   17.4385 F   0  0  0  0  0  0  0  0  0  0  0  0
  1  2  1  0  0  0  0
  1  5  2  0  0  0  0
  2  6  2  0  0  0  0
  3 10  2  0  0  0  0
  3 18  1  0  0  0  0
  4 11  1  0  0  0  0
  4 18  2  0  0  0  0
  5 20  1  0  0  0  0
  6 22  1  0  0  0  0
  7 12  2  0  0  0  0
  7 21  1  0  0  0  0
  8  9  2  0  0  0  0
  8 24  1  0  0  0  0
  9 25  1  0  0  0  0
 10 26  1  0  0  0  0
 11 26  2  0  0  0  0
 12 27  1  0  0  0  0
 13 14  2  0  0  0  0
 13 28  1  0  0  0  0
 14 29  1  0  0  0  0
 15 23  1  0  0  0  0
 15 27  2  0  0  0  0
 16 24  2  0  0  0  0
 16 30  1  0  0  0  0
 17 29  2  0  0  0  0
 17 31  1  0  0  0  0
 18 32  1  0  0  0  0
 19 32  1  0  0  0  0
 19 33  2  0  0  0  0
 19 34  1  0  0  0  0
 20 22  2  0  0  0  0
 20 40  1  0  0  0  0
 21 23  2  0  0  0  0
 21 41  1  0  0  0  0
 22 49  1  0  0  0  0
 23 42  1  0  0  0  0
 24 73  1  0  0  0  0
 25 30  2  0  0  0  0
 25 70  1  0  0  0  0
 26 81  1  0  0  0  0
 27 82  1  0  0  0  0
 28 31  2  0  0  0  0
 28 81  1  0  0  0  0
 29 83  1  0  0  0  0
 30 84  1  0  0  0  0
 31 85  1  0  0  0  0
 32 64  2  0  0  0  0
 33 65  1  0  0  0  0
 33 68  1  0  0  0  0
 34 69  1  0  0  0  0
 34 75  2  0  0  0  0
 35 50  1  0  0  0  0
 35 71  1  0  0  0  0
 35 76  2  0  0  0  0
 36 61  1  0  0  0  0
 36 66  1  0  0  0  0
 36 77  2  0  0  0  0
 37 58  1  0  0  0  0
 37 70  1  0  0  0  0
 37 78  2  0  0  0  0
 38 62  1  0  0  0  0
 38 72  1  0  0  0  0
 38 79  2  0  0  0  0
 39 67  1  0  0  0  0
 39 73  1  0  0  0  0
 39 80  2  0  0  0  0
 40 43  1  0  0  0  0
 41 50  1  0  0  0  0
 42 66  1  0  0  0  0
 43 45  1  0  0  0  0
 44 46  1  0  0  0  0
 44 47  1  0  0  0  0
 45 49  1  0  0  0  0
 46 51  1  0  0  0  0
 47 67  1  0  0  0  0
 48 51  1  0  0  0  0
 48 67  1  0  0  0  0
 49 71  1  0  0  0  0
 50 66  1  0  0  0  0
 51 65  1  0  0  0  0
 52 59  1  0  0  0  0
 53 62  1  0  0  0  0
 54 63  1  0  0  0  0
 55 63  1  0  0  0  0
 56 63  1  0  0  0  0
 57 74  1  0  0  0  0
 58 60  1  0  0  0  0
 59 73  1  0  0  0  0
 60 82  1  0  0  0  0
 61 63  1  0  0  0  0
 61 72  1  0  0  0  0
 62 74  1  0  0  0  0
 64 65  1  0  0  0  0
M  CHG  1  74   1
M  ISO  4  39 100  60 101  73 100  82 101
M  END
> <Batch ID>
0099

> <Smiles>
CC[100N:0](c1ccc(NC(=O)C[101CH2:1][101O:1]c2ccc3c(c2)CN(C(=O)C(NC(=O)C(C)NC)C(C)(C)C)C(C(=O)NC2CCCc4ccccc42)C3)c(F)c1)[100C:0](=O)N1CCCC(n2nc(-c3ccc(Oc4ccc(F)cc4F)cc3)c(C(N)=O)c2N)C1

> <Shape>
0.210

> <Color>
0.105

> <Negative vol penalty>
0.000

$$$$

  -OEChem-04052300543D

 83 91  0     1  0  0  0  0  0999 V2000
  -19.1243  -26.5538   23.1968 C   0  0  0  0  0  0  0  0  0  0  0  0
  -20.4723  -26.3000   22.9650 C   0  0  0  0  0  0  0  0  0  0  0  0
  -23.3020   -9.7155   19.8693 C   0  0  0  0  0  0  0  0  0  0  0  0
  -23.9973   -9.7602   22.1827 C   0  0  0  0  0  0  0  0  0  0  0  0
  -18.5421  -27.7226   22.7081 C   0  0  0  0  0  0  0  0  0  0  0  0
  -21.2388  -27.2144   22.2433 C   0  0  0  0  0  0  0  0  0  0  0  0
  -25.7443  -28.0893   24.3833 C   0  0  0  0  0  0  0  0  0  0  0  0
  -28.8025  -18.3179   22.5990 C   0  0  0  0  0  0  0  0  0  0  0  0
  -28.8232  -19.7122   22.6324 C   0  0  0  0  0  0  0  0  0  0  0  0
  -22.6772   -8.4865   20.0808 C   0  0  0  0  0  0  0  0  0  0  0  0
  -23.3724   -8.5312   22.3942 C   0  0  0  0  0  0  0  0  0  0  0  0
  -26.7345  -27.1253   24.1994 C   0  0  0  0  0  0  0  0  0  0  0  0
  -20.2313   -7.3893   22.8948 C   0  0  0  0  0  0  0  0  0  0  0  0
  -19.4527   -7.2491   24.0435 C   0  0  0  0  0  0  0  0  0  0  0  0
  -27.7150  -28.4735   22.4558 C   0  0  0  0  0  0  0  0  0  0  0  0
  -30.4895  -18.3344   20.8695 C   0  0  0  0  0  0  0  0  0  0  0  0
  -20.8712   -5.4391   24.7842 C   0  0  0  0  0  0  0  0  0  0  0  0
  -23.9621  -10.3523   20.9202 C   0  0  0  0  0  0  0  0  0  0  0  0
  -24.0398  -12.9011   20.8485 C   0  0  0  0  0  0  0  0  0  0  0  0
  -19.3041  -28.6564   21.9884 C   0  0  0  0  0  0  0  0  0  0  0  0
  -25.7257  -29.2496   23.5960 C   0  0  0  0  0  0  0  0  0  0  0  0
  -20.6659  -28.3962   21.7434 C   0  0  0  0  0  0  0  0  0  0  0  0
  -26.7249  -29.4520   22.6334 C   0  0  0  0  0  0  0  0  0  0  0  0
  -29.6357  -17.6290   21.7175 C   0  0  0  0  0  0  0  0  0  0  0  0
  -29.6770  -20.4176   21.7844 C   0  0  0  0  0  0  0  0  0  0  0  0
  -22.7123   -7.8944   21.3432 C   0  0  0  0  0  0  0  0  0  0  0  0
  -27.7184  -27.3159   23.2336 C   0  0  0  0  0  0  0  0  0  0  0  0
  -21.3299   -6.5543   22.6907 C   0  0  0  0  0  0  0  0  0  0  0  0
  -19.7726   -6.2740   24.9882 C   0  0  0  0  0  0  0  0  0  0  0  0
  -30.5101  -19.7287   20.9029 C   0  0  0  0  0  0  0  0  0  0  0  0
  -21.6499   -5.5792   23.6354 C   0  0  0  0  0  0  0  0  0  0  0  0
  -24.6083  -11.6216   20.7022 C   0  0  0  0  0  0  0  0  0  0  0  0
  -25.0563  -13.7672   20.5272 C   0  0  0  0  0  0  0  0  0  0  0  0
  -22.7118  -13.2735   21.2400 C   0  0  0  0  0  0  0  0  0  0  0  0
  -23.6844  -30.5148   21.5136 C   0  0  0  0  0  0  0  0  0  0  0  0
  -29.1453  -24.0676   22.4749 C   0  0  0  0  0  0  0  0  0  0  0  0
  -25.7680  -33.0002   21.5738 C   0  0  0  0  0  0  0  0  0  0  0  0
  -28.9420  -34.1063   22.1648 C   0  0  0  0  0  0  0  0  0  0  0  0
  -30.3760  -15.3754   20.8693 C   0  0  0  0  0  0  0  0  0  0  0  0
  -18.6196  -29.8831   21.4393 C   0  0  0  0  0  0  0  0  0  0  0  0
  -24.6662  -30.2925   23.8250 C   0  0  0  0  0  0  0  0  0  0  0  0
  -26.7613  -30.6898   21.7761 C   0  0  0  0  0  0  0  0  0  0  0  0
  -19.5895  -30.9793   21.0059 C   0  0  0  0  0  0  0  0  0  0  0  0
  -29.5831  -12.9017   18.4342 C   0  0  0  0  0  0  0  0  0  0  0  0
  -20.7233  -30.3900   20.1727 C   0  0  0  0  0  0  0  0  0  0  0  0
  -28.1714  -12.4534   18.8192 C   0  0  0  0  0  0  0  0  0  0  0  0
  -30.4377  -13.2031   19.6641 C   0  0  0  0  0  0  0  0  0  0  0  0
  -28.4300  -13.6989   21.0030 C   0  0  0  0  0  0  0  0  0  0  0  0
  -21.5362  -29.3757   20.9862 C   0  0  1  0  0  0  0  0  0  0  0  0
  -24.4457  -31.1958   22.6155 C   0  0  1  0  0  0  0  0  0  0  0  0
  -27.5116  -13.4463   19.7962 C   0  0  2  0  0  0  0  0  0  0  0  0
  -30.3506  -36.1818   22.0908 C   0  0  0  0  0  0  0  0  0  0  0  0
  -25.9087  -32.7934   18.5329 C   0  0  0  0  0  0  0  0  0  0  0  0
  -27.9826  -34.1942   18.6032 C   0  0  0  0  0  0  0  0  0  0  0  0
  -25.8185  -35.1312   19.4164 C   0  0  0  0  0  0  0  0  0  0  0  0
  -29.5046  -33.9678   25.0671 C   0  0  0  0  0  0  0  0  0  0  0  0
  -28.8693  -22.5954   22.6956 C   0  0  0  0  0  0  0  0  0  0  0  0
  -28.3359  -25.0214   23.3321 C   0  0  0  0  0  0  0  0  0  1  0  0
  -27.0059  -33.3766   20.7961 C   0  0  1  0  0  0  0  0  0  0  0  0
  -29.4644  -35.2949   22.9515 C   0  0  2  0  0  0  0  0  0  0  0  0
  -26.6774  -33.8495   19.3518 C   0  0  0  0  0  0  0  0  0  0  0  0
  -25.8866  -11.6662   20.3177 N   0  0  0  0  0  0  0  0  0  0  0  0
  -26.1298  -12.9842   20.2196 N   0  0  0  0  0  0  0  0  0  0  0  0
  -25.7001  -31.6774   22.0335 N   0  0  0  0  0  0  0  0  0  0  0  0
  -29.7509  -14.1537   20.5414 N   0  0  0  0  0  0  0  0  0  0  0  0
  -25.1275  -15.1145   20.4805 N   0  0  0  0  0  0  0  0  0  0  0  0
  -21.7926  -12.2575   21.5351 N   0  0  0  0  0  0  0  0  0  0  0  0
  -29.6141  -16.2126   21.6836 N   0  0  0  0  0  0  0  0  0  0  0  0
  -29.6949  -21.8046   21.8192 N   0  0  0  0  0  0  0  0  0  0  0  0
  -22.4360  -30.0583   21.8910 N   0  0  0  0  0  0  0  0  0  0  0  0
  -27.7099  -34.3670   21.6035 N   0  0  0  0  0  0  0  0  0  0  0  0
  -30.2600  -34.8313   24.1233 N   0  3  0  0  0  0  0  0  0  0  0  0
  -22.3462  -14.4714   21.3097 O   0  0  0  0  0  0  0  0  0  0  0  0
  -24.1916  -30.4124   20.4027 O   0  0  0  0  0  0  0  0  0  0  0  0
  -29.9692  -24.4748   21.6569 O   0  0  0  0  0  0  0  0  0  0  0  0
  -24.8968  -33.8506   21.7725 O   0  0  0  0  0  0  0  0  0  0  0  0
  -29.5664  -33.0533   22.0559 O   0  0  0  0  0  0  0  0  0  0  0  0
  -31.4929  -15.6697   20.4357 O   0  0  0  0  0  0  0  0  0  0  0  0
  -22.1025   -6.6952   21.5501 O   0  0  0  0  0  0  0  0  0  0  0  0
  -28.6856  -26.3761   23.0516 O   0  0  0  0  0  0  0  0  0  1  0  0
  -19.0257   -6.1406   26.0921 F   0  0  0  0  0  0  0  0  0  0  0  0
  -31.3333  -20.3969   20.0824 F   0  0  0  0  0  0  0  0  0  0  0  0
  -22.7048   -4.7749   23.4454 F   0  0  0  0  0  0  0  0  0  0  0  0
  1  2  1  0  0  0  0
  1  5  2  0  0  0  0
  2  6  2  0  0  0  0
  3 10  2  0  0  0  0
  3 18  1  0  0  0  0
  4 11  1  0  0  0  0
  4 18  2  0  0  0  0
  5 20  1  0  0  0  0
  6 22  1  0  0  0  0
  7 12  2  0  0  0  0
  7 21  1  0  0  0  0
  8  9  2  0  0  0  0
  8 24  1  0  0  0  0
  9 25  1  0  0  0  0
 10 26  1  0  0  0  0
 11 26  2  0  0  0  0
 12 27  1  0  0  0  0
 13 14  2  0  0  0  0
 13 28  1  0  0  0  0
 14 29  1  0  0  0  0
 15 23  1  0  0  0  0
 15 27  2  0  0  0  0
 16 24  2  0  0  0  0
 16 30  1  0  0  0  0
 17 29  2  0  0  0  0
 17 31  1  0  0  0  0
 18 32  1  0  0  0  0
 19 32  1  0  0  0  0
 19 33  2  0  0  0  0
 19 34  1  0  0  0  0
 20 22  2  0  0  0  0
 20 40  1  0  0  0  0
 21 23  2  0  0  0  0
 21 41  1  0  0  0  0
 22 49  1  0  0  0  0
 23 42  1  0  0  0  0
 24 68  1  0  0  0  0
 25 30  2  0  0  0  0
 25 69  1  0  0  0  0
 26 79  1  0  0  0  0
 27 80  1  0  0  0  0
 28 31  2  0  0  0  0
 28 79  1  0  0  0  0
 29 81  1  0  0  0  0
 30 82  1  0  0  0  0
 31 83  1  0  0  0  0
 32 62  2  0  0  0  0
 33 63  1  0  0  0  0
 33 66  1  0  0  0  0
 34 67  1  0  0  0  0
 34 73  2  0  0  0  0
 35 50  1  0  0  0  0
 35 70  1  0  0  0  0
 35 74  2  0  0  0  0
 36 57  1  0  0  0  0
 36 58  1  0  0  0  0
 36 75  2  0  0  0  0
 37 59  1  0  0  0  0
 37 64  1  0  0  0  0
 37 76  2  0  0  0  0
 38 60  1  0  0  0  0
 38 71  1  0  0  0  0
 38 77  2  0  0  0  0
 39 65  1  0  0  0  0
 39 68  1  0  0  0  0
 39 78  2  0  0  0  0
 40 43  1  0  0  0  0
 41 50  1  0  0  0  0
 42 64  1  0  0  0  0
 43 45  1  0  0  0  0
 44 46  1  0  0  0  0
 44 47  1  0  0  0  0
 45 49  1  0  0  0  0
 46 51  1  0  0  0  0
 47 65  1  0  0  0  0
 48 51  1  0  0  0  0
 48 65  1  0  0  0  0
 49 70  1  0  0  0  0
 50 64  1  0  0  0  0
 51 63  1  0  0  0  0
 52 60  1  0  0  0  0
 53 61  1  0  0  0  0
 54 61  1  0  0  0  0
 55 61  1  0  0  0  0
 56 72  1  0  0  0  0
 57 69  1  0  0  0  0
 58 80  1  0  0  0  0
 59 61  1  0  0  0  0
 59 71  1  0  0  0  0
 60 72  1  0  0  0  0
 62 63  1  0  0  0  0
M  CHG  1  72   1
M  ISO  4  39 100  58 101  68 100  80 101
M  END
> <Batch ID>
0099

> <Smiles>
CNC(C)C(=O)NC(C(=O)N1Cc2cc([101O:1][101CH2:1]C(=O)CNc3ccc([100NH:0][100C:0](=O)N4CCCC(n5nc(-c6ccc(Oc7ccc(F)cc7F)cc6)c(C(N)=O)c5N)C4)cc3F)ccc2CC1C(=O)NC1CCCc2ccccc21)C(C)(C)C

> <Shape>
0.314

> <Color>
0.184

> <Negative vol penalty>
0.000

$$$$

  -OEChem-04052300543D

 85 93  0     1  0  0  0  0  0999 V2000
  -18.1192  -26.8265   25.7057 C   0  0  0  0  0  0  0  0  0  0  0  0
  -19.3043  -26.3184   25.1835 C   0  0  0  0  0  0  0  0  0  0  0  0
  -32.1565  -18.2853   23.0415 C   0  0  0  0  0  0  0  0  0  0  0  0
  -23.2304   -9.6462   20.2411 C   0  0  0  0  0  0  0  0  0  0  0  0
  -23.7896  -10.1013   22.5470 C   0  0  0  0  0  0  0  0  0  0  0  0
  -31.2658  -19.2268   23.5570 C   0  0  0  0  0  0  0  0  0  0  0  0
  -17.5424  -27.9646   25.1436 C   0  0  0  0  0  0  0  0  0  0  0  0
  -19.9129  -26.9477   24.0981 C   0  0  0  0  0  0  0  0  0  0  0  0
  -24.9152  -27.4553   24.7013 C   0  0  0  0  0  0  0  0  0  0  0  0
  -31.6813  -17.2252   22.2695 C   0  0  0  0  0  0  0  0  0  0  0  0
  -22.5150   -8.5163   20.6375 C   0  0  0  0  0  0  0  0  0  0  0  0
  -23.0742   -8.9714   22.9435 C   0  0  0  0  0  0  0  0  0  0  0  0
  -25.7014  -26.3258   24.4780 C   0  0  0  0  0  0  0  0  0  0  0  0
  -19.8411   -8.1161   23.4294 C   0  0  0  0  0  0  0  0  0  0  0  0
  -18.9887   -8.2426   24.5262 C   0  0  0  0  0  0  0  0  0  0  0  0
  -26.2553  -27.1531   22.2808 C   0  0  0  0  0  0  0  0  0  0  0  0
  -20.2395   -6.5378   25.6950 C   0  0  0  0  0  0  0  0  0  0  0  0
  -23.8678  -10.4386   21.1958 C   0  0  0  0  0  0  0  0  0  0  0  0
  -29.8998  -19.1082   23.3006 C   0  0  0  0  0  0  0  0  0  0  0  0
  -24.1164  -12.9175   20.6472 C   0  0  0  0  0  0  0  0  0  0  0  0
  -18.1494  -28.6137   24.0569 C   0  0  0  0  0  0  0  0  0  0  0  0
  -24.7843  -28.4387   23.7101 C   0  0  0  0  0  0  0  0  0  0  0  0
  -19.3430  -28.0948   23.5200 C   0  0  0  0  0  0  0  0  0  0  0  0
  -25.4690  -28.2954   22.4949 C   0  0  0  0  0  0  0  0  0  0  0  0
  -30.3154  -17.1065   22.0131 C   0  0  0  0  0  0  0  0  0  0  0  0
  -22.4369   -8.1789   21.9887 C   0  0  0  0  0  0  0  0  0  0  0  0
  -26.3693  -26.1731   23.2665 C   0  0  0  0  0  0  0  0  0  0  0  0
  -20.8927   -7.2004   23.4654 C   0  0  0  0  0  0  0  0  0  0  0  0
  -19.1878   -7.4534   25.6590 C   0  0  0  0  0  0  0  0  0  0  0  0
  -21.0919   -6.4113   24.5981 C   0  0  0  0  0  0  0  0  0  0  0  0
  -29.4246  -18.0480   22.5286 C   0  0  0  0  0  0  0  0  0  0  0  0
  -24.6074  -11.6056   20.7868 C   0  0  0  0  0  0  0  0  0  0  0  0
  -25.2045  -13.6499   20.2396 C   0  0  0  0  0  0  0  0  0  0  0  0
  -28.9552  -20.1138   23.8516 C   0  0  0  0  0  0  0  0  0  0  0  0
  -22.7948  -13.4285   20.8664 C   0  0  0  0  0  0  0  0  0  0  0  0
  -22.3602  -29.6151   22.0239 C   0  0  0  0  0  0  0  0  0  0  0  0
  -27.1526  -22.6538   22.8896 C   0  0  0  0  0  0  0  0  0  0  0  0
  -24.6134  -31.6965   20.9688 C   0  0  0  0  0  0  0  0  0  0  0  0
  -27.9165  -32.3606   20.4256 C   0  0  0  0  0  0  0  0  0  0  0  0
  -30.5888  -15.0098   20.6436 C   0  0  0  0  0  0  0  0  0  0  0  0
  -17.4636  -29.8135   23.4528 C   0  0  0  0  0  0  0  0  0  0  0  0
  -23.9539  -29.6641   23.9768 C   0  0  0  0  0  0  0  0  0  0  0  0
  -25.3776  -29.3321   21.4062 C   0  0  0  0  0  0  0  0  0  0  0  0
  -18.3696  -30.6387   22.5426 C   0  0  0  0  0  0  0  0  0  0  0  0
  -29.7803  -12.1568   18.6728 C   0  0  0  0  0  0  0  0  0  0  0  0
  -19.1385  -29.7300   21.5887 C   0  0  0  0  0  0  0  0  0  0  0  0
  -28.3220  -11.8670   19.0356 C   0  0  0  0  0  0  0  0  0  0  0  0
  -30.5788  -12.6450   19.8802 C   0  0  0  0  0  0  0  0  0  0  0  0
  -28.5326  -13.4964   20.9560 C   0  0  0  0  0  0  0  0  0  0  0  0
  -20.0464  -28.7637   22.3590 C   0  0  1  0  0  0  0  0  0  0  0  0
  -23.4797  -30.3537   22.7012 C   0  0  1  0  0  0  0  0  0  0  0  0
  -27.6723  -13.0638   19.7575 C   0  0  2  0  0  0  0  0  0  0  0  0
  -29.4466  -34.1298   19.5167 C   0  0  0  0  0  0  0  0  0  0  0  0
  -23.8250  -30.9148   18.1267 C   0  0  0  0  0  0  0  0  0  0  0  0
  -25.9599  -31.9481   17.3248 C   0  0  0  0  0  0  0  0  0  0  0  0
  -24.2427  -33.3581   18.4588 C   0  0  0  0  0  0  0  0  0  0  0  0
  -29.2959  -32.6675   23.0260 C   0  0  0  0  0  0  0  0  0  0  0  0
  -26.8104  -21.3086   23.4937 C   0  0  0  0  0  0  0  0  0  0  0  0
  -26.7477  -23.8663   23.7038 C   0  0  0  0  0  0  0  0  0  1  0  0
  -25.5974  -31.7171   19.8241 C   0  0  1  0  0  0  0  0  0  0  0  0
  -28.7683  -33.5722   20.7584 C   0  0  2  0  0  0  0  0  0  0  0  0
  -24.9066  -31.9639   18.4532 C   0  0  0  0  0  0  0  0  0  0  0  0
  -25.9064  -11.5071   20.4918 N   0  0  0  0  0  0  0  0  0  0  0  0
  -26.2407  -12.7664   20.1626 N   0  0  0  0  0  0  0  0  0  0  0  0
  -24.5483  -30.5095   21.7122 N   0  0  0  0  0  0  0  0  0  0  0  0
  -29.9054  -13.7825   20.5105 N   0  0  0  0  0  0  0  0  0  0  0  0
  -25.3664  -14.9569   19.9431 N   0  0  0  0  0  0  0  0  0  0  0  0
  -21.7952  -12.5391   21.2836 N   0  0  0  0  0  0  0  0  0  0  0  0
  -29.8367  -16.0280   21.2285 N   0  0  0  0  0  0  0  0  0  0  0  0
  -27.8034  -20.3515   23.1059 N   0  0  0  0  0  0  0  0  0  0  0  0
  -21.2393  -29.4451   22.8140 N   0  0  0  0  0  0  0  0  0  0  0  0
  -26.6073  -32.7109   20.1718 N   0  0  0  0  0  0  0  0  0  0  0  0
  -29.8228  -33.2084   21.7467 N   0  3  0  0  0  0  0  0  0  0  0  0
  -29.2354  -20.6888   24.9001 O   0  0  0  0  0  0  0  0  0  0  0  0
  -22.5050  -14.6349   20.6815 O   0  0  0  0  0  0  0  0  0  0  0  0
  -22.5022  -29.2294   20.8695 O   0  0  0  0  0  0  0  0  0  0  0  0
  -27.6788  -22.7628   21.7823 O   0  0  0  0  0  0  0  0  0  0  0  0
  -23.9328  -32.6991   21.1993 O   0  0  0  0  0  0  0  0  0  0  0  0
  -28.3683  -31.2181   20.3904 O   0  0  0  0  0  0  0  0  0  0  0  0
  -31.7461  -15.1550   20.2418 O   0  0  0  0  0  0  0  0  0  0  0  0
  -21.7387   -7.0766   22.3760 O   0  0  0  0  0  0  0  0  0  0  0  0
  -27.1367  -25.0712   23.0457 O   0  0  0  0  0  0  0  0  0  1  0  0
  -18.3701   -7.5761   26.7127 F   0  0  0  0  0  0  0  0  0  0  0  0
  -22.1012   -5.5307   24.6390 F   0  0  0  0  0  0  0  0  0  0  0  0
  -28.1104  -17.9330   22.2831 F   0  0  0  0  0  0  0  0  0  0  0  0
  1  2  1  0  0  0  0
  1  7  2  0  0  0  0
  2  8  2  0  0  0  0
  3  6  2  0  0  0  0
  3 10  1  0  0  0  0
  4 11  2  0  0  0  0
  4 18  1  0  0  0  0
  5 12  1  0  0  0  0
  5 18  2  0  0  0  0
  6 19  1  0  0  0  0
  7 21  1  0  0  0  0
  8 23  1  0  0  0  0
  9 13  2  0  0  0  0
  9 22  1  0  0  0  0
 10 25  2  0  0  0  0
 11 26  1  0  0  0  0
 12 26  2  0  0  0  0
 13 27  1  0  0  0  0
 14 15  2  0  0  0  0
 14 28  1  0  0  0  0
 15 29  1  0  0  0  0
 16 24  1  0  0  0  0
 16 27  2  0  0  0  0
 17 29  2  0  0  0  0
 17 30  1  0  0  0  0
 18 32  1  0  0  0  0
 19 31  2  0  0  0  0
 19 34  1  0  0  0  0
 20 32  1  0  0  0  0
 20 33  2  0  0  0  0
 20 35  1  0  0  0  0
 21 23  2  0  0  0  0
 21 41  1  0  0  0  0
 22 24  2  0  0  0  0
 22 42  1  0  0  0  0
 23 50  1  0  0  0  0
 24 43  1  0  0  0  0
 25 31  1  0  0  0  0
 25 69  1  0  0  0  0
 26 81  1  0  0  0  0
 27 82  1  0  0  0  0
 28 30  2  0  0  0  0
 28 81  1  0  0  0  0
 29 83  1  0  0  0  0
 30 84  1  0  0  0  0
 31 85  1  0  0  0  0
 32 63  2  0  0  0  0
 33 64  1  0  0  0  0
 33 67  1  0  0  0  0
 34 70  1  0  0  0  0
 34 74  2  0  0  0  0
 35 68  1  0  0  0  0
 35 75  2  0  0  0  0
 36 51  1  0  0  0  0
 36 71  1  0  0  0  0
 36 76  2  0  0  0  0
 37 58  1  0  0  0  0
 37 59  1  0  0  0  0
 37 77  2  0  0  0  0
 38 60  1  0  0  0  0
 38 65  1  0  0  0  0
 38 78  2  0  0  0  0
 39 61  1  0  0  0  0
 39 72  1  0  0  0  0
 39 79  2  0  0  0  0
 40 66  1  0  0  0  0
 40 69  1  0  0  0  0
 40 80  2  0  0  0  0
 41 44  1  0  0  0  0
 42 51  1  0  0  0  0
 43 65  1  0  0  0  0
 44 46  1  0  0  0  0
 45 47  1  0  0  0  0
 45 48  1  0  0  0  0
 46 50  1  0  0  0  0
 47 52  1  0  0  0  0
 48 66  1  0  0  0  0
 49 52  1  0  0  0  0
 49 66  1  0  0  0  0
 50 71  1  0  0  0  0
 51 65  1  0  0  0  0
 52 64  1  0  0  0  0
 53 61  1  0  0  0  0
 54 62  1  0  0  0  0
 55 62  1  0  0  0  0
 56 62  1  0  0  0  0
 57 73  1  0  0  0  0
 58 70  1  0  0  0  0
 59 82  1  0  0  0  0
 60 62  1  0  0  0  0
 60 72  1  0  0  0  0
 61 73  1  0  0  0  0
 63 64  1  0  0  0  0
M  CHG  1  73   1
M  ISO  4  40 100  59 101  69 100  82 101
M  END
> <Batch ID>
0099

> <Smiles>
CNC(C)C(=O)NC(C(=O)N1Cc2cc([101O:1][101CH2:1]C(=O)CNC(=O)c3cccc([100NH:0][100C:0](=O)N4CCCC(n5nc(-c6ccc(Oc7ccc(F)cc7F)cc6)c(C(N)=O)c5N)C4)c3F)ccc2CC1C(=O)NC1CCCc2ccccc21)C(C)(C)C

> <Shape>
0.270

> <Color>
0.190

> <Negative vol penalty>
0.000

$$$$

  -OEChem-04052300543D

 86 95  0     1  0  0  0  0  0999 V2000
  -32.2452  -31.8746   19.9660 C   0  0  0  0  0  0  0  0  0  0  0  0
  -31.4793  -30.7133   19.9846 C   0  0  0  0  0  0  0  0  0  0  0  0
  -23.2803   -9.4354   19.5923 C   0  0  0  0  0  0  0  0  0  0  0  0
  -24.6865   -8.9664   21.5002 C   0  0  0  0  0  0  0  0  0  0  0  0
  -32.0004  -32.8846   20.8955 C   0  0  0  0  0  0  0  0  0  0  0  0
  -30.4688  -30.5610   20.9334 C   0  0  0  0  0  0  0  0  0  0  0  0
  -26.1859  -28.7419   18.9353 C   0  0  0  0  0  0  0  0  0  0  0  0
  -24.8786  -18.7416   17.9581 C   0  0  0  0  0  0  0  0  0  0  0  0
  -25.5570  -17.5286   18.0761 C   0  0  0  0  0  0  0  0  0  0  0  0
  -22.1802   -8.9179   20.2759 C   0  0  0  0  0  0  0  0  0  0  0  0
  -23.5862   -8.4489   22.1839 C   0  0  0  0  0  0  0  0  0  0  0  0
  -26.1365  -27.3734   18.6734 C   0  0  0  0  0  0  0  0  0  0  0  0
  -21.8044   -5.5759   22.2246 C   0  0  0  0  0  0  0  0  0  0  0  0
  -21.9739   -4.3719   22.9082 C   0  0  0  0  0  0  0  0  0  0  0  0
  -24.8935  -27.0342   20.7128 C   0  0  0  0  0  0  0  0  0  0  0  0
  -27.1703  -18.5733   19.5401 C   0  0  0  0  0  0  0  0  0  0  0  0
  -21.3909   -5.4670   24.9814 C   0  0  0  0  0  0  0  0  0  0  0  0
  -24.5335   -9.4596   20.2045 C   0  0  0  0  0  0  0  0  0  0  0  0
  -26.2071   -9.5348   18.2806 C   0  0  0  0  0  0  0  0  0  0  0  0
  -30.9801  -32.7487   21.8500 C   0  0  0  0  0  0  0  0  0  0  0  0
  -25.5980  -29.2663   20.0953 C   0  0  0  0  0  0  0  0  0  0  0  0
  -30.2111  -31.5696   21.8773 C   0  0  0  0  0  0  0  0  0  0  0  0
  -24.9346  -28.4101   20.9858 C   0  0  0  0  0  0  0  0  0  0  0  0
  -25.3461  -19.8705   18.6310 C   0  0  0  0  0  0  0  0  0  0  0  0
  -26.7029  -17.4444   18.8671 C   0  0  0  0  0  0  0  0  0  0  0  0
  -22.3331   -8.4247   21.5717 C   0  0  0  0  0  0  0  0  0  0  0  0
  -25.4927  -26.5190   19.5637 C   0  0  0  0  0  0  0  0  0  0  0  0
  -21.4283   -6.7255   22.9194 C   0  0  0  0  0  0  0  0  0  0  0  0
  -21.7671   -4.3174   24.2866 C   0  0  0  0  0  0  0  0  0  0  0  0
  -26.4919  -19.7863   19.4220 C   0  0  0  0  0  0  0  0  0  0  0  0
  -21.2214   -6.6710   24.2978 C   0  0  0  0  0  0  0  0  0  0  0  0
  -25.6705   -9.9935   19.4986 C   0  0  0  0  0  0  0  0  0  0  0  0
  -27.2704  -10.3696   18.0378 C   0  0  0  0  0  0  0  0  0  0  0  0
  -23.2481  -23.6081   18.2971 C   0  0  0  0  0  0  0  0  0  0  0  0
  -25.7823   -8.4511   17.4435 C   0  0  0  0  0  0  0  0  0  0  0  0
  -26.6739  -30.8278   22.6463 C   0  0  0  0  0  0  0  0  0  0  0  0
  -23.5165  -31.0581   23.3534 C   0  0  0  0  0  0  0  0  0  0  0  0
  -20.6227  -28.9079   23.2120 C   0  0  0  0  0  0  0  0  0  0  0  0
  -28.5435  -15.9569   19.7307 C   0  0  0  0  0  0  0  0  0  0  0  0
  -30.7840  -33.8474   22.8644 C   0  0  0  0  0  0  0  0  0  0  0  0
  -25.6368  -30.7483   20.3498 C   0  0  0  0  0  0  0  0  0  0  0  0
  -24.2700  -28.9256   22.2351 C   0  0  0  0  0  0  0  0  0  0  0  0
  -22.5899  -22.3685   18.8531 C   0  0  0  0  0  0  0  0  0  0  0  0
  -29.4478  -33.7674   23.5983 C   0  0  0  0  0  0  0  0  0  0  0  0
  -30.5201  -13.0531   20.3121 C   0  0  0  0  0  0  0  0  0  0  0  0
  -29.1800  -32.3403   24.0656 C   0  0  0  0  0  0  0  0  0  0  0  0
  -29.5513  -11.8972   20.0527 C   0  0  0  0  0  0  0  0  0  0  0  0
  -23.2197  -21.1039   18.2815 C   0  0  0  0  0  0  0  0  0  0  0  0
  -29.8249  -14.2359   20.9841 C   0  0  0  0  0  0  0  0  0  0  0  0
  -25.3923  -22.3541   18.6022 C   0  0  0  0  0  0  0  0  0  0  0  0
  -27.6517  -13.5641   20.0379 C   0  0  0  0  0  0  0  0  0  0  0  0
  -29.0897  -31.3778   22.8753 C   0  0  1  0  0  0  0  0  0  0  0  0
  -24.6824  -23.4619   17.8128 C   0  0  2  0  0  0  0  0  0  0  0  0
  -25.4499  -31.1070   21.8207 C   0  0  1  0  0  0  0  0  0  0  0  0
  -28.2919  -12.3748   19.3035 C   0  0  2  0  0  0  0  0  0  0  0  0
  -18.1882  -29.4631   22.9628 C   0  0  0  0  0  0  0  0  0  0  0  0
  -23.4781  -30.9535   26.4025 C   0  0  0  0  0  0  0  0  0  0  0  0
  -21.2246  -29.8710   26.2676 C   0  0  0  0  0  0  0  0  0  0  0  0
  -21.5537  -32.1775   25.3764 C   0  0  0  0  0  0  0  0  0  0  0  0
  -20.3465  -27.1560   20.8427 C   0  0  0  0  0  0  0  0  0  0  0  0
  -25.4404  -24.7804   17.9418 C   0  0  0  0  0  0  0  0  0  1  0  0
  -22.5280  -30.2123   24.1191 C   0  0  1  0  0  0  0  0  0  0  0  0
  -19.4548  -29.0181   22.2485 C   0  0  2  0  0  0  0  0  0  0  0  0
  -22.2185  -30.7920   25.5283 C   0  0  0  0  0  0  0  0  0  0  0  0
  -26.3380  -11.0385   19.9950 N   0  0  0  0  0  0  0  0  0  0  0  0
  -27.3050  -11.2433   19.0845 N   0  0  0  0  0  0  0  0  0  0  0  0
  -24.6666  -21.0823   18.5098 N   0  0  3  0  0  0  0  0  0  0  0  0
  -24.3406  -30.3814   22.4430 N   0  0  0  0  0  0  0  0  0  0  0  0
  -28.6436  -14.6360   20.2164 N   0  0  0  0  0  0  0  0  0  0  0  0
  -28.1700  -10.4340   17.0333 N   0  0  0  0  0  0  0  0  0  0  0  0
  -26.3266   -7.1794   17.6692 N   0  0  0  0  0  0  0  0  0  0  0  0
  -27.3918  -16.2120   18.9869 N   0  0  0  0  0  0  0  0  0  0  0  0
  -27.8040  -31.5006   22.2223 N   0  0  0  0  0  0  0  0  0  0  0  0
  -21.3573  -30.0738   23.2597 N   0  0  0  0  0  0  0  0  0  0  0  0
  -19.1915  -27.7019   21.6010 N   0  3  0  0  0  0  0  0  0  0  0  0
  -22.6381  -24.6757   18.2464 O   0  0  0  0  0  0  0  0  0  0  0  0
  -24.9571   -8.6091   16.5121 O   0  0  0  0  0  0  0  0  0  0  0  0
  -26.5983  -30.0601   23.5984 O   0  0  0  0  0  0  0  0  0  0  0  0
  -23.5511  -32.2753   23.5503 O   0  0  0  0  0  0  0  0  0  0  0  0
  -20.8575  -27.8906   23.8605 O   0  0  0  0  0  0  0  0  0  0  0  0
  -29.4282  -16.7922   19.9347 O   0  0  0  0  0  0  0  0  0  0  0  0
  -21.2597   -7.9198   22.2392 O   0  0  0  0  0  0  0  0  0  0  0  0
  -25.4435  -25.1827   19.3109 O   0  0  0  0  0  0  0  0  0  1  0  0
  -21.9283   -3.1609   24.9427 F   0  0  0  0  0  0  0  0  0  0  0  0
  -26.9504  -20.8656   20.0717 F   0  0  0  0  0  0  0  0  0  0  0  0
  -20.8588   -7.7718   24.9705 F   0  0  0  0  0  0  0  0  0  0  0  0
  1  2  1  0  0  0  0
  1  5  2  0  0  0  0
  2  6  2  0  0  0  0
  3 10  2  0  0  0  0
  3 18  1  0  0  0  0
  4 11  1  0  0  0  0
  4 18  2  0  0  0  0
  5 20  1  0  0  0  0
  6 22  1  0  0  0  0
  7 12  2  0  0  0  0
  7 21  1  0  0  0  0
  8  9  2  0  0  0  0
  8 24  1  0  0  0  0
  9 25  1  0  0  0  0
 10 26  1  0  0  0  0
 11 26  2  0  0  0  0
 12 27  1  0  0  0  0
 13 14  2  0  0  0  0
 13 28  1  0  0  0  0
 14 29  1  0  0  0  0
 15 23  1  0  0  0  0
 15 27  2  0  0  0  0
 16 25  2  0  0  0  0
 16 30  1  0  0  0  0
 17 29  2  0  0  0  0
 17 31  1  0  0  0  0
 18 32  1  0  0  0  0
 19 32  1  0  0  0  0
 19 33  2  0  0  0  0
 19 35  1  0  0  0  0
 20 22  2  0  0  0  0
 20 40  1  0  0  0  0
 21 23  2  0  0  0  0
 21 41  1  0  0  0  0
 22 52  1  0  0  0  0
 23 42  1  0  0  0  0
 24 30  2  0  0  0  0
 24 67  1  0  0  0  0
 25 72  1  0  0  0  0
 26 82  1  0  0  0  0
 27 83  1  0  0  0  0
 28 31  2  0  0  0  0
 28 82  1  0  0  0  0
 29 84  1  0  0  0  0
 30 85  1  0  0  0  0
 31 86  1  0  0  0  0
 32 65  2  0  0  0  0
 33 66  1  0  0  0  0
 33 70  1  0  0  0  0
 34 43  1  0  0  0  0
 34 53  1  0  0  0  0
 34 76  2  0  0  0  0
 35 71  1  0  0  0  0
 35 77  2  0  0  0  0
 36 54  1  0  0  0  0
 36 73  1  0  0  0  0
 36 78  2  0  0  0  0
 37 62  1  0  0  0  0
 37 68  1  0  0  0  0
 37 79  2  0  0  0  0
 38 63  1  0  0  0  0
 38 74  1  0  0  0  0
 38 80  2  0  0  0  0
 39 69  1  0  0  0  0
 39 72  1  0  0  0  0
 39 81  2  0  0  0  0
 40 44  1  0  0  0  0
 41 54  1  0  0  0  0
 42 68  1  0  0  0  0
 43 48  1  0  0  0  0
 44 46  1  0  0  0  0
 45 47  1  0  0  0  0
 45 49  1  0  0  0  0
 46 52  1  0  0  0  0
 47 55  1  0  0  0  0
 48 67  1  0  0  0  0
 49 69  1  0  0  0  0
 50 53  1  0  0  0  0
 50 67  1  0  0  0  0
 51 55  1  0  0  0  0
 51 69  1  0  0  0  0
 52 73  1  0  0  0  0
 53 61  1  0  0  0  0
 54 68  1  0  0  0  0
 55 66  1  0  0  0  0
 56 63  1  0  0  0  0
 57 64  1  0  0  0  0
 58 64  1  0  0  0  0
 59 64  1  0  0  0  0
 60 75  1  0  0  0  0
 61 83  1  0  0  0  0
 62 64  1  0  0  0  0
 62 74  1  0  0  0  0
 63 75  1  0  0  0  0
 65 66  1  0  0  0  0
M  CHG  1  75   1
M  ISO  4  39 100  61 101  72 100  83 101
M  END
> <Batch ID>
0099

> <Smiles>
CNC(C)C(=O)NC(C(=O)N1Cc2cc([101O:1][101CH2:1]C3CN(c4ccc([100NH:0][100C:0](=O)N5CCCC(n6nc(-c7ccc(Oc8ccc(F)cc8F)cc7)c(C(N)=O)c6N)C5)cc4F)CCC3=O)ccc2CC1C(=O)NC1CCCc2ccccc21)C(C)(C)C

> <Shape>
0.252

> <Color>
0.110

> <Negative vol penalty>
0.000

$$$$

  -OEChem-04052300543D

 87 96  0     1  0  0  0  0  0999 V2000
  -17.8286  -25.2669   21.8818 C   0  0  0  0  0  0  0  0  0  0  0  0
  -19.2059  -25.0778   21.8314 C   0  0  0  0  0  0  0  0  0  0  0  0
  -24.1100  -14.1832   21.2885 C   0  0  0  0  0  0  0  0  0  0  0  0
  -25.8171  -14.1009   19.5809 C   0  0  0  0  0  0  0  0  0  0  0  0
  -17.2932  -26.5395   21.6874 C   0  0  0  0  0  0  0  0  0  0  0  0
  -20.0487  -26.1612   21.5855 C   0  0  0  0  0  0  0  0  0  0  0  0
  -24.0610  -26.2415   24.6742 C   0  0  0  0  0  0  0  0  0  0  0  0
  -23.6415  -12.9344   20.8804 C   0  0  0  0  0  0  0  0  0  0  0  0
  -25.3487  -12.8520   19.1728 C   0  0  0  0  0  0  0  0  0  0  0  0
  -25.1083  -25.3694   24.3803 C   0  0  0  0  0  0  0  0  0  0  0  0
  -24.5180   -9.6932   21.2791 C   0  0  0  0  0  0  0  0  0  0  0  0
  -24.2292   -8.7540   22.2691 C   0  0  0  0  0  0  0  0  0  0  0  0
  -28.5444  -22.5287   22.1171 C   0  0  0  0  0  0  0  0  0  0  0  0
  -26.3245  -27.1842   23.3573 C   0  0  0  0  0  0  0  0  0  0  0  0
  -30.4278  -21.7875   24.0370 C   0  0  0  0  0  0  0  0  0  0  0  0
  -21.9355   -8.6646   21.5151 C   0  0  0  0  0  0  0  0  0  0  0  0
  -25.1978  -14.7665   20.6387 C   0  0  0  0  0  0  0  0  0  0  0  0
  -29.6843  -21.8197   21.7384 C   0  0  0  0  0  0  0  0  0  0  0  0
  -26.1763  -16.4062   22.3304 C   0  0  0  0  0  0  0  0  0  0  0  0
  -18.1304  -27.6407   21.4486 C   0  0  0  0  0  0  0  0  0  0  0  0
  -24.1331  -27.5915   24.3015 C   0  0  0  0  0  0  0  0  0  0  0  0
  -19.5239  -27.4495   21.3864 C   0  0  0  0  0  0  0  0  0  0  0  0
  -25.2779  -28.0719   23.6499 C   0  0  0  0  0  0  0  0  0  0  0  0
  -28.3462  -22.8672   23.4557 C   0  0  0  0  0  0  0  0  0  0  0  0
  -29.2879  -22.4966   24.4156 C   0  0  0  0  0  0  0  0  0  0  0  0
  -24.2609  -12.2688   19.8226 C   0  0  0  0  0  0  0  0  0  0  0  0
  -26.2390  -25.8400   23.7192 C   0  0  0  0  0  0  0  0  0  0  0  0
  -23.5156  -10.1182   20.4071 C   0  0  0  0  0  0  0  0  0  0  0  0
  -22.9380   -8.2397   22.3871 C   0  0  0  0  0  0  0  0  0  0  0  0
  -30.6261  -21.4491   22.6984 C   0  0  0  0  0  0  0  0  0  0  0  0
  -22.2244   -9.6039   20.5251 C   0  0  0  0  0  0  0  0  0  0  0  0
  -25.6819  -16.0568   21.0595 C   0  0  0  0  0  0  0  0  0  0  0  0
  -26.5037  -17.7354   22.2179 C   0  0  0  0  0  0  0  0  0  0  0  0
  -28.9975  -24.1829   26.2122 C   0  0  0  0  0  0  0  0  0  0  0  0
  -29.8904  -21.4722   20.3413 C   0  0  0  0  0  0  0  0  0  0  0  0
  -26.3263  -15.6013   23.5073 C   0  0  0  0  0  0  0  0  0  0  0  0
  -28.9108  -21.8555   19.2988 C   0  0  0  0  0  0  0  0  0  0  0  0
  -22.4422  -29.4832   22.3868 C   0  0  0  0  0  0  0  0  0  0  0  0
  -24.3741  -31.7880   23.6025 C   0  0  0  0  0  0  0  0  0  0  0  0
  -27.3425  -32.5991   25.0781 C   0  0  0  0  0  0  0  0  0  0  0  0
  -17.5026  -28.9889   21.1976 C   0  0  0  0  0  0  0  0  0  0  0  0
  -23.0063  -28.5251   24.6495 C   0  0  0  0  0  0  0  0  0  0  0  0
  -25.4131  -29.5167   23.2463 C   0  0  0  0  0  0  0  0  0  0  0  0
  -28.5063  -24.4282   27.6286 C   0  0  0  0  0  0  0  0  0  0  0  0
  -18.4866  -30.1502   21.3144 C   0  0  0  0  0  0  0  0  0  0  0  0
  -28.9354  -23.3819   28.6339 C   0  0  0  0  0  0  0  0  0  0  0  0
  -28.5373  -22.0177   28.1159 C   0  0  0  0  0  0  0  0  0  0  0  0
  -25.4795  -21.0946   18.5892 C   0  0  0  0  0  0  0  0  0  0  0  0
  -19.7743  -29.8368   20.5593 C   0  0  0  0  0  0  0  0  0  0  0  0
  -25.2793  -19.7265   19.2402 C   0  0  0  0  0  0  0  0  0  0  0  0
  -29.2473  -21.7577   26.7979 C   0  0  0  0  0  0  0  0  0  0  0  0
  -26.8901  -21.2453   18.0289 C   0  0  0  0  0  0  0  0  0  0  0  0
  -27.7718  -19.6307   19.6915 C   0  0  0  0  0  0  0  0  0  0  0  0
  -20.4723  -28.6042   21.1468 C   0  0  1  0  0  0  0  0  0  0  0  0
  -22.9659  -29.7682   23.7660 C   0  0  1  0  0  0  0  0  0  0  0  0
  -26.3672  -19.4518   20.2936 C   0  0  2  0  0  0  0  0  0  0  0  0
  -28.6521  -34.5685   25.9171 C   0  0  0  0  0  0  0  0  0  0  0  0
  -25.0614  -32.5519   20.7295 C   0  0  0  0  0  0  0  0  0  0  0  0
  -27.0281  -33.8250   21.6123 C   0  0  0  0  0  0  0  0  0  0  0  0
  -24.7161  -34.4912   22.2705 C   0  0  0  0  0  0  0  0  0  0  0  0
  -27.3860  -31.5402   27.8414 C   0  0  0  0  0  0  0  0  0  0  0  0
  -27.1110  -23.6304   23.8342 C   0  0  0  0  0  0  0  0  0  1  0  0
  -25.7132  -32.3713   23.2212 C   0  0  1  0  0  0  0  0  0  0  0  0
  -27.6657  -33.4691   26.2794 C   0  0  2  0  0  0  0  0  0  0  0  0
  -25.6266  -33.2822   21.9641 C   0  0  0  0  0  0  0  0  0  0  0  0
  -25.6922  -17.0814   20.2026 N   0  0  0  0  0  0  0  0  0  0  0  0
  -30.9328  -20.8127   19.9132 N   0  0  0  0  0  0  0  0  0  0  0  0
  -26.1970  -18.0877   20.9365 N   0  0  0  0  0  0  0  0  0  0  0  0
  -29.1025  -22.8396   25.8088 N   0  0  0  0  0  0  0  0  0  0  0  0
  -27.8971  -20.9425   19.0439 N   0  0  0  0  0  0  0  0  0  0  0  0
  -24.2820  -30.3890   23.6032 N   0  0  0  0  0  0  0  0  0  0  0  0
  -27.0209  -18.6255   23.0912 N   0  0  0  0  0  0  0  0  0  0  0  0
  -27.5338  -14.9158   23.6986 N   0  0  0  0  0  0  0  0  0  0  0  0
  -21.1671  -28.9509   22.3680 N   0  0  0  0  0  0  0  0  0  0  0  0
  -26.2197  -33.0439   24.4127 N   0  0  0  0  0  0  0  0  0  0  0  0
  -28.2595  -32.6458   27.3705 N   0  3  0  0  0  0  0  0  0  0  0  0
  -29.2137  -25.1644   25.4962 O   0  0  0  0  0  0  0  0  0  0  0  0
  -25.4105  -15.4799   24.3559 O   0  0  0  0  0  0  0  0  0  0  0  0
  -29.1016  -22.9430   18.7702 O   0  0  0  0  0  0  0  0  0  0  0  0
  -23.1425  -29.7295   21.4118 O   0  0  0  0  0  0  0  0  0  0  0  0
  -23.4460  -32.5457   23.8961 O   0  0  0  0  0  0  0  0  0  0  0  0
  -28.0206  -31.6248   24.7595 O   0  0  0  0  0  0  0  0  0  0  0  0
  -23.8041  -11.0501   19.4243 O   0  0  0  0  0  0  0  0  0  0  0  0
  -27.2624  -24.9908   23.4306 O   0  0  0  0  0  0  0  0  0  1  0  0
  -22.6611   -7.3367   23.3368 F   0  0  0  0  0  0  0  0  0  0  0  0
  -31.7268  -20.7705   22.3445 F   0  0  0  0  0  0  0  0  0  0  0  0
  -21.2575  -10.0075   19.6896 F   0  0  0  0  0  0  0  0  0  0  0  0
  1  2  1  0  0  0  0
  1  5  2  0  0  0  0
  2  6  2  0  0  0  0
  3  8  2  0  0  0  0
  3 17  1  0  0  0  0
  4  9  1  0  0  0  0
  4 17  2  0  0  0  0
  5 20  1  0  0  0  0
  6 22  1  0  0  0  0
  7 10  2  0  0  0  0
  7 21  1  0  0  0  0
  8 26  1  0  0  0  0
  9 26  2  0  0  0  0
 10 27  1  0  0  0  0
 11 12  2  0  0  0  0
 11 28  1  0  0  0  0
 12 29  1  0  0  0  0
 13 18  2  0  0  0  0
 13 24  1  0  0  0  0
 14 23  1  0  0  0  0
 14 27  2  0  0  0  0
 15 25  1  0  0  0  0
 15 30  2  0  0  0  0
 16 29  2  0  0  0  0
 16 31  1  0  0  0  0
 17 32  1  0  0  0  0
 18 30  1  0  0  0  0
 18 35  1  0  0  0  0
 19 32  1  0  0  0  0
 19 33  2  0  0  0  0
 19 36  1  0  0  0  0
 20 22  2  0  0  0  0
 20 41  1  0  0  0  0
 21 23  2  0  0  0  0
 21 42  1  0  0  0  0
 22 54  1  0  0  0  0
 23 43  1  0  0  0  0
 24 25  2  0  0  0  0
 24 62  1  0  0  0  0
 25 69  1  0  0  0  0
 26 83  1  0  0  0  0
 27 84  1  0  0  0  0
 28 31  2  0  0  0  0
 28 83  1  0  0  0  0
 29 85  1  0  0  0  0
 30 86  1  0  0  0  0
 31 87  1  0  0  0  0
 32 66  2  0  0  0  0
 33 68  1  0  0  0  0
 33 72  1  0  0  0  0
 34 44  1  0  0  0  0
 34 69  1  0  0  0  0
 34 77  2  0  0  0  0
 35 37  1  0  0  0  0
 35 67  2  0  0  0  0
 36 73  1  0  0  0  0
 36 78  2  0  0  0  0
 37 70  1  0  0  0  0
 37 79  2  0  0  0  0
 38 55  1  0  0  0  0
 38 74  1  0  0  0  0
 38 80  2  0  0  0  0
 39 63  1  0  0  0  0
 39 71  1  0  0  0  0
 39 81  2  0  0  0  0
 40 64  1  0  0  0  0
 40 75  1  0  0  0  0
 40 82  2  0  0  0  0
 41 45  1  0  0  0  0
 42 55  1  0  0  0  0
 43 71  1  0  0  0  0
 44 46  1  0  0  0  0
 45 49  1  0  0  0  0
 46 47  1  0  0  0  0
 47 51  1  0  0  0  0
 48 50  1  0  0  0  0
 48 52  1  0  0  0  0
 49 54  1  0  0  0  0
 50 56  1  0  0  0  0
 51 69  1  0  0  0  0
 52 70  1  0  0  0  0
 53 56  1  0  0  0  0
 53 70  1  0  0  0  0
 54 74  1  0  0  0  0
 55 71  1  0  0  0  0
 56 68  1  0  0  0  0
 57 64  1  0  0  0  0
 58 65  1  0  0  0  0
 59 65  1  0  0  0  0
 60 65  1  0  0  0  0
 61 76  1  0  0  0  0
 62 84  1  0  0  0  0
 63 65  1  0  0  0  0
 63 75  1  0  0  0  0
 64 76  1  0  0  0  0
 66 68  1  0  0  0  0
M  CHG  1  76   1
M  ISO  4  35 100  37 100  62 101  84 101
M  END
> <Batch ID>
0099

> <Smiles>
CNC(C)C(=O)NC(C(=O)N1Cc2cc([101O:1][101CH2:1]c3cc([100C:0](=N)[100C:0](=O)N4CCCC(n5nc(-c6ccc(Oc7ccc(F)cc7F)cc6)c(C(N)=O)c5N)C4)c(F)cc3N3CCCCC3=O)ccc2CC1C(=O)NC1CCCc2ccccc21)C(C)(C)C

> <Shape>
0.236

> <Color>
0.083

> <Negative vol penalty>
0.000

$$$$

  -OEChem-04052300543D

 84 92  0     1  0  0  0  0  0999 V2000
  -30.2401  -10.7582   19.6033 C   0  0  0  0  0  0  0  0  0  0  0  0
  -30.1984  -12.1253   19.3491 C   0  0  0  0  0  0  0  0  0  0  0  0
  -21.0187  -25.6043   18.2289 C   0  0  0  0  0  0  0  0  0  0  0  0
  -22.1580  -24.2948   19.9095 C   0  0  0  0  0  0  0  0  0  0  0  0
  -29.1946  -27.9034   21.2170 C   0  0  0  0  0  0  0  0  0  0  0  0
  -29.0737  -10.0798   19.9546 C   0  0  0  0  0  0  0  0  0  0  0  0
  -28.9901  -12.8147   19.4450 C   0  0  0  0  0  0  0  0  0  0  0  0
  -29.4507  -17.2069   21.9232 C   0  0  0  0  0  0  0  0  0  0  0  0
  -29.9065  -26.8202   20.7018 C   0  0  0  0  0  0  0  0  0  0  0  0
  -20.8732  -24.4639   17.4390 C   0  0  0  0  0  0  0  0  0  0  0  0
  -22.0124  -23.1544   19.1196 C   0  0  0  0  0  0  0  0  0  0  0  0
  -29.9987  -18.2796   21.2212 C   0  0  0  0  0  0  0  0  0  0  0  0
  -23.5045  -21.7959   16.4068 C   0  0  0  0  0  0  0  0  0  0  0  0
  -24.6140  -20.9634   16.2598 C   0  0  0  0  0  0  0  0  0  0  0  0
  -27.7830  -19.1530   20.8379 C   0  0  0  0  0  0  0  0  0  0  0  0
  -28.5760  -25.3101   22.0383 C   0  0  0  0  0  0  0  0  0  0  0  0
  -23.3724  -19.1360   17.2378 C   0  0  0  0  0  0  0  0  0  0  0  0
  -21.6611  -25.5197   19.4642 C   0  0  0  0  0  0  0  0  0  0  0  0
  -28.1735  -27.6900   22.1430 C   0  0  0  0  0  0  0  0  0  0  0  0
  -20.9188  -27.1745   21.2581 C   0  0  0  0  0  0  0  0  0  0  0  0
  -27.8523  -10.7630   20.0642 C   0  0  0  0  0  0  0  0  0  0  0  0
  -28.0617  -17.0932   22.0787 C   0  0  0  0  0  0  0  0  0  0  0  0
  -27.8061  -12.1446   19.7967 C   0  0  0  0  0  0  0  0  0  0  0  0
  -27.2200  -18.0793   21.5445 C   0  0  0  0  0  0  0  0  0  0  0  0
  -29.5972  -25.5235   21.1124 C   0  0  0  0  0  0  0  0  0  0  0  0
  -27.8641  -26.3933   22.5536 C   0  0  0  0  0  0  0  0  0  0  0  0
  -21.3700  -23.2390   17.8843 C   0  0  0  0  0  0  0  0  0  0  0  0
  -29.1647  -19.2514   20.6760 C   0  0  0  0  0  0  0  0  0  0  0  0
  -22.3289  -21.2985   16.9693 C   0  0  0  0  0  0  0  0  0  0  0  0
  -24.5479  -19.6335   16.6753 C   0  0  0  0  0  0  0  0  0  0  0  0
  -22.2629  -19.9685   17.3848 C   0  0  0  0  0  0  0  0  0  0  0  0
  -21.8123  -26.6974   20.2804 C   0  0  0  0  0  0  0  0  0  0  0  0
  -21.5154  -28.3131   21.7421 C   0  0  0  0  0  0  0  0  0  0  0  0
  -27.4484  -28.8430   22.6620 C   0  0  0  0  0  0  0  0  0  0  0  0
  -19.6620  -26.6365   21.6902 C   0  0  0  0  0  0  0  0  0  0  0  0
  -27.2645  -30.0659   21.8472 C   0  0  0  0  0  0  0  0  0  0  0  0
  -25.8718  -14.9671   21.1913 C   0  0  0  0  0  0  0  0  0  0  0  0
  -23.9065  -16.8235   22.9841 C   0  0  0  0  0  0  0  0  0  0  0  0
  -30.1459  -23.0758   20.8856 C   0  0  0  0  0  0  0  0  0  0  0  0
  -23.2631  -19.8826   24.3532 C   0  0  0  0  0  0  0  0  0  0  0  0
  -26.6092   -9.9782   20.4008 C   0  0  0  0  0  0  0  0  0  0  0  0
  -27.4878  -15.9442   22.8615 C   0  0  0  0  0  0  0  0  0  0  0  0
  -25.7234  -18.0142   21.7008 C   0  0  0  0  0  0  0  0  0  0  0  0
  -25.4392  -10.8518   20.8461 C   0  0  0  0  0  0  0  0  0  0  0  0
  -24.4722  -31.8383   20.4621 C   0  0  0  0  0  0  0  0  0  0  0  0
  -25.2717  -12.0402   19.9046 C   0  0  0  0  0  0  0  0  0  0  0  0
  -23.4053  -30.7543   20.3120 C   0  0  0  0  0  0  0  0  0  0  0  0
  -25.8714  -31.2818   20.2195 C   0  0  0  0  0  0  0  0  0  0  0  0
  -25.1467  -29.0220   20.9381 C   0  0  0  0  0  0  0  0  0  0  0  0
  -26.5192  -12.9320   19.9145 C   0  0  1  0  0  0  0  0  0  0  0  0
  -26.0298  -15.6558   22.5173 C   0  0  1  0  0  0  0  0  0  0  0  0
  -23.7224  -29.5403   21.2032 C   0  0  2  0  0  0  0  0  0  0  0  0
  -21.5610  -21.1038   25.7349 C   0  0  0  0  0  0  0  0  0  0  0  0
  -22.0704  -17.0085   20.5542 C   0  0  0  0  0  0  0  0  0  0  0  0
  -20.9316  -18.9504   21.6497 C   0  0  0  0  0  0  0  0  0  0  0  0
  -20.8861  -16.7053   22.7359 C   0  0  0  0  0  0  0  0  0  0  0  0
  -25.2268  -20.4296   26.4988 C   0  0  0  0  0  0  0  0  0  0  0  0
  -31.1366  -22.2248   20.0992 C   0  0  0  0  0  0  0  0  0  0  0  0
  -30.9987  -20.7358   20.3784 C   0  0  0  0  0  0  0  0  0  1  0  0
  -23.0393  -18.0302   22.7182 C   0  0  1  0  0  0  0  0  0  0  0  0
  -22.8465  -20.2915   25.7545 C   0  0  2  0  0  0  0  0  0  0  0  0
  -21.7599  -17.6741   21.9097 C   0  0  0  0  0  0  0  0  0  0  0  0
  -22.8941  -27.4698   20.1497 N   0  0  0  0  0  0  0  0  0  0  0  0
  -26.9207  -28.8764   23.8539 N   0  0  0  0  0  0  0  0  0  0  0  0
  -22.6842  -28.4439   21.0515 N   0  0  0  0  0  0  0  0  0  0  0  0
  -26.1263  -30.1096   21.0544 N   0  0  0  0  0  0  0  0  0  0  0  0
  -25.2099  -16.8681   22.4692 N   0  0  0  0  0  0  0  0  0  0  0  0
  -26.8348  -26.1559   23.4915 N   0  0  0  0  0  0  0  0  0  0  0  0
  -21.1488  -29.2052   22.6867 N   0  0  0  0  0  0  0  0  0  0  0  0
  -19.1964  -25.4598   21.0879 N   0  0  0  0  0  0  0  0  0  0  0  0
  -30.3199  -24.4250   20.5892 N   0  0  0  0  0  0  0  0  0  0  0  0
  -26.5389  -13.7603   21.1011 N   0  0  0  0  0  0  0  0  0  0  0  0
  -22.7750  -18.6373   24.0182 N   0  0  0  0  0  0  0  0  0  0  0  0
  -23.9127  -21.1144   26.3925 N   0  3  0  0  0  0  0  0  0  0  0  0
  -18.9645  -27.1921   22.5725 O   0  0  0  0  0  0  0  0  0  0  0  0
  -28.1418  -30.9120   21.9606 O   0  0  0  0  0  0  0  0  0  0  0  0
  -25.1935  -15.4910   20.3154 O   0  0  0  0  0  0  0  0  0  0  0  0
  -23.4468  -15.8791   23.6310 O   0  0  0  0  0  0  0  0  0  0  0  0
  -29.3316  -22.5827   21.6589 O   0  0  0  0  0  0  0  0  0  0  0  0
  -23.9495  -20.5980   23.6269 O   0  0  0  0  0  0  0  0  0  0  0  0
  -21.2280  -22.1260   17.1138 O   0  0  0  0  0  0  0  0  0  0  0  0
  -29.6970  -20.2991   19.9898 O   0  0  0  0  0  0  0  0  0  1  0  0
  -25.6130  -18.8338   16.5327 F   0  0  0  0  0  0  0  0  0  0  0  0
  -21.1359  -19.4847   17.9248 F   0  0  0  0  0  0  0  0  0  0  0  0
  1  2  1  0  0  0  0
  1  6  2  0  0  0  0
  2  7  2  0  0  0  0
  3 10  2  0  0  0  0
  3 18  1  0  0  0  0
  4 11  1  0  0  0  0
  4 18  2  0  0  0  0
  5  9  2  0  0  0  0
  5 19  1  0  0  0  0
  6 21  1  0  0  0  0
  7 23  1  0  0  0  0
  8 12  2  0  0  0  0
  8 22  1  0  0  0  0
  9 25  1  0  0  0  0
 10 27  1  0  0  0  0
 11 27  2  0  0  0  0
 12 28  1  0  0  0  0
 13 14  2  0  0  0  0
 13 29  1  0  0  0  0
 14 30  1  0  0  0  0
 15 24  1  0  0  0  0
 15 28  2  0  0  0  0
 16 25  2  0  0  0  0
 16 26  1  0  0  0  0
 17 30  2  0  0  0  0
 17 31  1  0  0  0  0
 18 32  1  0  0  0  0
 19 26  2  0  0  0  0
 19 34  1  0  0  0  0
 20 32  1  0  0  0  0
 20 33  2  0  0  0  0
 20 35  1  0  0  0  0
 21 23  2  0  0  0  0
 21 41  1  0  0  0  0
 22 24  2  0  0  0  0
 22 42  1  0  0  0  0
 23 50  1  0  0  0  0
 24 43  1  0  0  0  0
 25 71  1  0  0  0  0
 26 68  1  0  0  0  0
 27 81  1  0  0  0  0
 28 82  1  0  0  0  0
 29 31  2  0  0  0  0
 29 81  1  0  0  0  0
 30 83  1  0  0  0  0
 31 84  1  0  0  0  0
 32 63  2  0  0  0  0
 33 65  1  0  0  0  0
 33 69  1  0  0  0  0
 34 36  1  0  0  0  0
 34 64  2  0  0  0  0
 35 70  1  0  0  0  0
 35 75  2  0  0  0  0
 36 66  1  0  0  0  0
 36 76  2  0  0  0  0
 37 51  1  0  0  0  0
 37 72  1  0  0  0  0
 37 77  2  0  0  0  0
 38 60  1  0  0  0  0
 38 67  1  0  0  0  0
 38 78  2  0  0  0  0
 39 58  1  0  0  0  0
 39 71  1  0  0  0  0
 39 79  2  0  0  0  0
 40 61  1  0  0  0  0
 40 73  1  0  0  0  0
 40 80  2  0  0  0  0
 41 44  1  0  0  0  0
 42 51  1  0  0  0  0
 43 67  1  0  0  0  0
 44 46  1  0  0  0  0
 45 47  1  0  0  0  0
 45 48  1  0  0  0  0
 46 50  1  0  0  0  0
 47 52  1  0  0  0  0
 48 66  1  0  0  0  0
 49 52  1  0  0  0  0
 49 66  1  0  0  0  0
 50 72  1  0  0  0  0
 51 67  1  0  0  0  0
 52 65  1  0  0  0  0
 53 61  1  0  0  0  0
 54 62  1  0  0  0  0
 55 62  1  0  0  0  0
 56 62  1  0  0  0  0
 57 74  1  0  0  0  0
 58 59  1  0  0  0  0
 59 82  1  0  0  0  0
 60 62  1  0  0  0  0
 60 73  1  0  0  0  0
 61 74  1  0  0  0  0
 63 65  1  0  0  0  0
M  CHG  1  74   1
M  ISO  4  34 100  36 100  59 101  82 101
M  END
> <Batch ID>
0099

> <Smiles>
CNC(C)C(=O)NC(C(=O)N1Cc2cc([101O:1][101CH2:1]CC(=O)Nc3ccc([100C:0](=N)[100C:0](=O)N4CCCC(n5nc(-c6ccc(Oc7ccc(F)cc7F)cc6)c(C(N)=O)c5N)C4)c(N)c3)ccc2CC1C(=O)NC1CCCc2ccccc21)C(C)(C)C

> <Shape>
0.210

> <Color>
0.066

> <Negative vol penalty>
0.000

$$$$

  -OEChem-04052300543D

 82 90  0     1  0  0  0  0  0999 V2000
  -37.7632  -29.6317   28.1218 C   0  0  0  0  0  0  0  0  0  0  0  0
  -37.0206  -28.4598   28.0187 C   0  0  0  0  0  0  0  0  0  0  0  0
  -23.0117   -9.8976   20.0064 C   0  0  0  0  0  0  0  0  0  0  0  0
  -23.7249   -9.9966   22.3126 C   0  0  0  0  0  0  0  0  0  0  0  0
  -37.3006  -30.8036   27.5245 C   0  0  0  0  0  0  0  0  0  0  0  0
  -35.8143  -28.4594   27.3191 C   0  0  0  0  0  0  0  0  0  0  0  0
  -35.3473  -24.4549   24.2546 C   0  0  0  0  0  0  0  0  0  0  0  0
  -22.2455   -8.7676   20.2918 C   0  0  0  0  0  0  0  0  0  0  0  0
  -22.9587   -8.8666   22.5981 C   0  0  0  0  0  0  0  0  0  0  0  0
  -34.9982  -23.2402   24.8431 C   0  0  0  0  0  0  0  0  0  0  0  0
  -23.2105   -5.5191   22.1954 C   0  0  0  0  0  0  0  0  0  0  0  0
  -23.7957   -4.5184   22.9711 C   0  0  0  0  0  0  0  0  0  0  0  0
  -30.4499  -18.4415   23.8816 C   0  0  0  0  0  0  0  0  0  0  0  0
  -32.7106  -23.5698   24.1521 C   0  0  0  0  0  0  0  0  0  0  0  0
  -32.0453  -16.6187   22.4979 C   0  0  0  0  0  0  0  0  0  0  0  0
  -22.0629   -4.7925   24.6322 C   0  0  0  0  0  0  0  0  0  0  0  0
  -23.7514  -10.5122   21.0168 C   0  0  0  0  0  0  0  0  0  0  0  0
  -31.8325  -18.4446   24.0657 C   0  0  0  0  0  0  0  0  0  0  0  0
  -24.1338  -13.0243   20.7916 C   0  0  0  0  0  0  0  0  0  0  0  0
  -36.0929  -30.8152   26.8090 C   0  0  0  0  0  0  0  0  0  0  0  0
  -34.3769  -25.2428   23.6189 C   0  0  0  0  0  0  0  0  0  0  0  0
  -35.3345  -29.6328   26.7128 C   0  0  0  0  0  0  0  0  0  0  0  0
  -33.0504  -24.7930   23.5541 C   0  0  0  0  0  0  0  0  0  0  0  0
  -32.6303  -17.5332   23.3739 C   0  0  0  0  0  0  0  0  0  0  0  0
  -30.6626  -16.6156   22.3139 C   0  0  0  0  0  0  0  0  0  0  0  0
  -22.2190   -8.2520   21.5876 C   0  0  0  0  0  0  0  0  0  0  0  0
  -33.6791  -22.7988   24.7943 C   0  0  0  0  0  0  0  0  0  0  0  0
  -22.0515   -6.1566   22.6382 C   0  0  0  0  0  0  0  0  0  0  0  0
  -23.2219   -4.1551   24.1894 C   0  0  0  0  0  0  0  0  0  0  0  0
  -29.8649  -17.5270   23.0058 C   0  0  0  0  0  0  0  0  0  0  0  0
  -21.4777   -5.7933   23.8565 C   0  0  0  0  0  0  0  0  0  0  0  0
  -24.5435  -11.6792   20.7224 C   0  0  0  0  0  0  0  0  0  0  0  0
  -25.2443  -13.7411   20.4182 C   0  0  0  0  0  0  0  0  0  0  0  0
  -32.7992  -20.6434   24.5695 C   0  0  0  0  0  0  0  0  0  1  0  0
  -32.4181  -19.4320   25.0078 C   0  0  0  0  0  0  0  0  0  0  0  0
  -22.8630  -13.5764   21.1604 C   0  0  0  0  0  0  0  0  0  0  0  0
  -33.1991  -28.1585   24.0824 C   0  0  0  0  0  0  0  0  0  0  0  0
  -31.6375  -27.5457   21.3060 C   0  0  0  0  0  0  0  0  0  0  0  0
  -30.3992  -25.2273   19.1292 C   0  0  0  0  0  0  0  0  0  0  0  0
  -30.7210  -14.7157   20.6607 C   0  0  0  0  0  0  0  0  0  0  0  0
  -35.6102  -32.1173   26.2207 C   0  0  0  0  0  0  0  0  0  0  0  0
  -34.7748  -26.5380   22.9658 C   0  0  0  0  0  0  0  0  0  0  0  0
  -31.9749  -25.5918   22.8660 C   0  0  0  0  0  0  0  0  0  0  0  0
  -34.5076  -31.9435   25.1794 C   0  0  0  0  0  0  0  0  0  0  0  0
  -29.6185  -12.2142   18.3794 C   0  0  0  0  0  0  0  0  0  0  0  0
  -33.4414  -30.9779   25.6869 C   0  0  0  0  0  0  0  0  0  0  0  0
  -28.1662  -11.9627   18.7913 C   0  0  0  0  0  0  0  0  0  0  0  0
  -30.5124  -12.4836   19.5886 C   0  0  0  0  0  0  0  0  0  0  0  0
  -28.5890  -13.2963   20.8960 C   0  0  0  0  0  0  0  0  0  0  0  0
  -34.0335  -29.5864   25.9413 C   0  0  1  0  0  0  0  0  0  0  0  0
  -33.6065  -27.5036   22.7929 C   0  0  1  0  0  0  0  0  0  0  0  0
  -27.6378  -13.0843   19.7069 C   0  0  2  0  0  0  0  0  0  0  0  0
  -32.5438  -19.0237   26.4510 C   0  0  0  0  0  0  0  0  0  0  0  0
  -29.1403  -25.0298   16.9674 C   0  0  0  0  0  0  0  0  0  0  0  0
  -29.0460  -28.2525   22.7532 C   0  0  0  0  0  0  0  0  0  0  0  0
  -27.7873  -27.1454   20.8936 C   0  0  0  0  0  0  0  0  0  0  0  0
  -29.2125  -29.1372   20.4200 C   0  0  0  0  0  0  0  0  0  0  0  0
  -32.6451  -23.8166   17.8162 C   0  0  0  0  0  0  0  0  0  0  0  0
  -30.3129  -26.9211   20.9398 C   0  0  1  0  0  0  0  0  0  0  0  0
  -30.5118  -25.1008   17.6207 C   0  0  2  0  0  0  0  0  0  0  0  0
  -29.1093  -27.8497   21.2664 C   0  0  0  0  0  0  0  0  0  0  0  0
  -25.8150  -11.5468   20.3354 N   0  0  0  0  0  0  0  0  0  0  0  0
  -26.2138  -12.8178   20.1579 N   0  0  0  0  0  0  0  0  0  0  0  0
  -32.4125  -26.8543   22.2479 N   0  0  0  0  0  0  0  0  0  0  0  0
  -29.9514  -13.5606   20.4073 N   0  0  0  0  0  0  0  0  0  0  0  0
  -34.0336  -17.5141   23.5418 N   0  0  0  0  0  0  0  0  0  0  0  0
  -25.4763  -15.0648   20.2904 N   0  0  0  0  0  0  0  0  0  0  0  0
  -21.8308  -12.6977   21.5166 N   0  0  0  0  0  0  0  0  0  0  0  0
  -30.0713  -15.6856   21.4233 N   0  0  0  0  0  0  0  0  0  0  0  0
  -34.2099  -28.8762   24.6928 N   0  0  0  0  0  0  0  0  0  0  0  0
  -30.4135  -26.5455   19.5337 N   0  0  0  0  0  0  0  0  0  0  0  0
  -31.2689  -23.8691   17.2593 N   0  3  0  0  0  0  0  0  0  0  0  0
  -22.6443  -14.8116   21.1579 O   0  0  0  0  0  0  0  0  0  0  0  0
  -32.0522  -28.0240   24.4924 O   0  0  0  0  0  0  0  0  0  0  0  0
  -31.9755  -28.6044   20.7705 O   0  0  0  0  0  0  0  0  0  0  0  0
  -30.3039  -24.2543   19.8740 O   0  0  0  0  0  0  0  0  0  0  0  0
  -31.8618  -14.8472   20.2097 O   0  0  0  0  0  0  0  0  0  0  0  0
  -21.4713   -7.1494   21.8666 O   0  0  0  0  0  0  0  0  0  0  0  0
  -33.3355  -21.6138   25.3684 O   0  0  0  0  0  0  0  0  0  1  0  0
  -23.7831   -3.1930   24.9334 F   0  0  0  0  0  0  0  0  0  0  0  0
  -28.5350  -17.5325   22.8366 F   0  0  0  0  0  0  0  0  0  0  0  0
  -20.3636   -6.4014   24.2865 F   0  0  0  0  0  0  0  0  0  0  0  0
  1  2  1  0  0  0  0
  1  5  2  0  0  0  0
  2  6  2  0  0  0  0
  3  8  2  0  0  0  0
  3 17  1  0  0  0  0
  4  9  1  0  0  0  0
  4 17  2  0  0  0  0
  5 20  1  0  0  0  0
  6 22  1  0  0  0  0
  7 10  2  0  0  0  0
  7 21  1  0  0  0  0
  8 26  1  0  0  0  0
  9 26  2  0  0  0  0
 10 27  1  0  0  0  0
 11 12  2  0  0  0  0
 11 28  1  0  0  0  0
 12 29  1  0  0  0  0
 13 18  1  0  0  0  0
 13 30  2  0  0  0  0
 14 23  1  0  0  0  0
 14 27  2  0  0  0  0
 15 24  1  0  0  0  0
 15 25  2  0  0  0  0
 16 29  2  0  0  0  0
 16 31  1  0  0  0  0
 17 32  1  0  0  0  0
 18 24  2  0  0  0  0
 18 35  1  0  0  0  0
 19 32  1  0  0  0  0
 19 33  2  0  0  0  0
 19 36  1  0  0  0  0
 20 22  2  0  0  0  0
 20 41  1  0  0  0  0
 21 23  2  0  0  0  0
 21 42  1  0  0  0  0
 22 50  1  0  0  0  0
 23 43  1  0  0  0  0
 24 66  1  0  0  0  0
 25 30  1  0  0  0  0
 25 69  1  0  0  0  0
 26 78  1  0  0  0  0
 27 79  1  0  0  0  0
 28 31  2  0  0  0  0
 28 78  1  0  0  0  0
 29 80  1  0  0  0  0
 30 81  1  0  0  0  0
 31 82  1  0  0  0  0
 32 62  2  0  0  0  0
 33 63  1  0  0  0  0
 33 67  1  0  0  0  0
 34 35  2  0  0  0  0
 34 79  1  0  0  0  0
 35 53  1  0  0  0  0
 36 68  1  0  0  0  0
 36 73  2  0  0  0  0
 37 51  1  0  0  0  0
 37 70  1  0  0  0  0
 37 74  2  0  0  0  0
 38 59  1  0  0  0  0
 38 64  1  0  0  0  0
 38 75  2  0  0  0  0
 39 60  1  0  0  0  0
 39 71  1  0  0  0  0
 39 76  2  0  0  0  0
 40 65  1  0  0  0  0
 40 69  1  0  0  0  0
 40 77  2  0  0  0  0
 41 44  1  0  0  0  0
 42 51  1  0  0  0  0
 43 64  1  0  0  0  0
 44 46  1  0  0  0  0
 45 47  1  0  0  0  0
 45 48  1  0  0  0  0
 46 50  1  0  0  0  0
 47 52  1  0  0  0  0
 48 65  1  0  0  0  0
 49 52  1  0  0  0  0
 49 65  1  0  0  0  0
 50 70  1  0  0  0  0
 51 64  1  0  0  0  0
 52 63  1  0  0  0  0
 54 60  1  0  0  0  0
 55 61  1  0  0  0  0
 56 61  1  0  0  0  0
 57 61  1  0  0  0  0
 58 72  1  0  0  0  0
 59 61  1  0  0  0  0
 59 71  1  0  0  0  0
 60 72  1  0  0  0  0
 62 63  1  0  0  0  0
M  CHG  1  72   1
M  ISO  4  34 101  40 100  69 100  79 101
M  END
> <Batch ID>
0099

> <Smiles>
CNC(C)C(=O)NC(C(=O)N1Cc2cc([101O:1][101CH:1]=C(C)c3cc(F)c([100NH:0][100C:0](=O)N4CCCC(n5nc(-c6ccc(Oc7ccc(F)cc7F)cc6)c(C(N)=O)c5N)C4)cc3N)ccc2CC1C(=O)NC1CCCc2ccccc21)C(C)(C)C

> <Shape>
0.241

> <Color>
0.199

> <Negative vol penalty>
0.000

$$$$

  -OEChem-04052300543D

 85 93  0     1  0  0  0  0  0999 V2000
  -43.0168  -19.2823   31.3147 C   0  0  0  0  0  0  0  0  0  0  0  0
  -41.6293  -19.2890   31.2134 C   0  0  0  0  0  0  0  0  0  0  0  0
  -32.4020  -18.4881   21.9795 C   0  0  0  0  0  0  0  0  0  0  0  0
  -23.0001   -9.8942   19.9812 C   0  0  0  0  0  0  0  0  0  0  0  0
  -23.7251   -9.9450   22.2853 C   0  0  0  0  0  0  0  0  0  0  0  0
  -43.7938  -19.7639   30.2619 C   0  0  0  0  0  0  0  0  0  0  0  0
  -41.0179  -19.7783   30.0596 C   0  0  0  0  0  0  0  0  0  0  0  0
  -35.8494  -17.7389   27.4841 C   0  0  0  0  0  0  0  0  0  0  0  0
  -31.6215  -19.3353   22.7659 C   0  0  0  0  0  0  0  0  0  0  0  0
  -31.8893  -17.2627   21.5536 C   0  0  0  0  0  0  0  0  0  0  0  0
  -22.2332   -8.7599   20.2474 C   0  0  0  0  0  0  0  0  0  0  0  0
  -22.9582   -8.8107   22.5516 C   0  0  0  0  0  0  0  0  0  0  0  0
  -34.5311  -18.1887   27.5431 C   0  0  0  0  0  0  0  0  0  0  0  0
  -23.2016   -5.4717   22.0797 C   0  0  0  0  0  0  0  0  0  0  0  0
  -23.7888   -4.4543   22.8318 C   0  0  0  0  0  0  0  0  0  0  0  0
  -34.8608  -19.4061   25.4867 C   0  0  0  0  0  0  0  0  0  0  0  0
  -22.0649   -4.6977   24.5069 C   0  0  0  0  0  0  0  0  0  0  0  0
  -23.7461  -10.4867   21.0001 C   0  0  0  0  0  0  0  0  0  0  0  0
  -24.1321  -13.0022   20.8241 C   0  0  0  0  0  0  0  0  0  0  0  0
  -43.1919  -20.2504   29.0907 C   0  0  0  0  0  0  0  0  0  0  0  0
  -36.6880  -18.1288   26.4299 C   0  0  0  0  0  0  0  0  0  0  0  0
  -41.7876  -20.2681   28.9907 C   0  0  0  0  0  0  0  0  0  0  0  0
  -36.1886  -18.9578   25.4153 C   0  0  0  0  0  0  0  0  0  0  0  0
  -30.3282  -18.9572   23.1266 C   0  0  0  0  0  0  0  0  0  0  0  0
  -30.5961  -16.8845   21.9144 C   0  0  0  0  0  0  0  0  0  0  0  0
  -22.2123   -8.2182   21.5326 C   0  0  0  0  0  0  0  0  0  0  0  0
  -34.0375  -19.0247   26.5459 C   0  0  0  0  0  0  0  0  0  0  0  0
  -22.0461   -6.1021   22.5411 C   0  0  0  0  0  0  0  0  0  0  0  0
  -23.2205   -4.0673   24.0454 C   0  0  0  0  0  0  0  0  0  0  0  0
  -21.4777   -5.7151   23.7547 C   0  0  0  0  0  0  0  0  0  0  0  0
  -29.8155  -17.7318   22.7009 C   0  0  0  0  0  0  0  0  0  0  0  0
  -24.5389  -11.6581   20.7255 C   0  0  0  0  0  0  0  0  0  0  0  0
  -25.2421  -13.7245   20.4598 C   0  0  0  0  0  0  0  0  0  0  0  0
  -22.8642  -13.5489   21.2105 C   0  0  0  0  0  0  0  0  0  0  0  0
  -39.4045  -19.7649   26.2121 C   0  0  0  0  0  0  0  0  0  0  0  0
  -39.2273  -18.8897   23.0936 C   0  0  0  0  0  0  0  0  0  0  0  0
  -29.8280  -19.1937   26.3508 C   0  0  0  0  0  0  0  0  0  0  0  0
  -37.2830  -17.9111   20.4651 C   0  0  0  0  0  0  0  0  0  0  0  0
  -30.7218  -14.6841   20.6942 C   0  0  0  0  0  0  0  0  0  0  0  0
  -44.0720  -20.8044   27.9985 C   0  0  0  0  0  0  0  0  0  0  0  0
  -38.0996  -17.6133   26.3666 C   0  0  0  0  0  0  0  0  0  0  0  0
  -37.0420  -19.3889   24.2516 C   0  0  0  0  0  0  0  0  0  0  0  0
  -43.3563  -20.9588   26.6590 C   0  0  0  0  0  0  0  0  0  0  0  0
  -29.6030  -12.2315   18.3682 C   0  0  0  0  0  0  0  0  0  0  0  0
  -41.9967  -21.6226   26.8536 C   0  0  0  0  0  0  0  0  0  0  0  0
  -28.1523  -11.9743   18.7822 C   0  0  0  0  0  0  0  0  0  0  0  0
  -30.5035  -12.4747   19.5781 C   0  0  0  0  0  0  0  0  0  0  0  0
  -28.5883  -13.2641   20.9114 C   0  0  0  0  0  0  0  0  0  0  0  0
  -41.0880  -20.7678   27.7453 C   0  0  1  0  0  0  0  0  0  0  0  0
  -39.0180  -18.4888   25.5195 C   0  0  1  0  0  0  0  0  0  0  0  0
  -27.6306  -13.0780   19.7231 C   0  0  2  0  0  0  0  0  0  0  0  0
  -29.2376  -21.2305   23.3123 C   0  0  0  0  0  0  0  0  0  0  0  0
  -37.4173  -17.3062   18.0333 C   0  0  0  0  0  0  0  0  0  0  0  0
  -39.5213  -21.8412   22.3782 C   0  0  0  0  0  0  0  0  0  0  0  0
  -38.7074  -21.2923   20.0750 C   0  0  0  0  0  0  0  0  0  0  0  0
  -40.8241  -20.2801   20.9222 C   0  0  0  0  0  0  0  0  0  0  0  0
  -36.2552  -15.1817   20.9680 C   0  0  0  0  0  0  0  0  0  0  0  0
  -30.5699  -19.6327   27.6035 C   0  0  0  0  0  0  0  0  0  0  0  0
  -31.9634  -19.0327   27.7096 C   0  0  0  0  0  0  0  0  0  1  0  0
  -29.4839  -19.8791   23.9798 C   0  0  2  0  0  0  0  0  0  0  0  0
  -38.6112  -19.4835   21.8499 C   0  0  1  0  0  0  0  0  0  0  0  0
  -37.4398  -16.7832   19.4612 C   0  0  2  0  0  0  0  0  0  0  0  0
  -39.4003  -20.7179   21.3291 C   0  0  0  0  0  0  0  0  0  0  0  0
  -25.8082  -11.5313   20.3294 N   0  0  0  0  0  0  0  0  0  0  0  0
  -26.2085  -12.8049   20.1759 N   0  0  0  0  0  0  0  0  0  0  0  0
  -38.4173  -18.8636   24.2378 N   0  0  0  0  0  0  0  0  0  0  0  0
  -29.9487  -13.5358   20.4213 N   0  0  0  0  0  0  0  0  0  0  0  0
  -25.4759  -15.0501   20.3578 N   0  0  0  0  0  0  0  0  0  0  0  0
  -21.8322  -12.6651   21.5540 N   0  0  0  0  0  0  0  0  0  0  0  0
  -30.0777  -15.6395   21.4797 N   0  0  0  0  0  0  0  0  0  0  0  0
  -40.5395  -19.6597   26.9932 N   0  0  0  0  0  0  0  0  0  0  0  0
  -30.0642  -20.0579   25.2913 N   0  0  0  0  0  0  0  0  0  0  0  0
  -38.5042  -18.3930   20.8867 N   0  0  0  0  0  0  0  0  0  0  0  0
  -36.3361  -15.7940   19.6169 N   0  3  0  0  0  0  0  0  0  0  0  0
  -22.6478  -14.7843   21.2343 O   0  0  0  0  0  0  0  0  0  0  0  0
  -38.7242  -20.7710   26.0486 O   0  0  0  0  0  0  0  0  0  0  0  0
  -40.3820  -18.4582   23.0496 O   0  0  0  0  0  0  0  0  0  0  0  0
  -29.1145  -18.1954   26.3056 O   0  0  0  0  0  0  0  0  0  0  0  0
  -36.1869  -18.3258   20.8352 O   0  0  0  0  0  0  0  0  0  0  0  0
  -31.8605  -14.8227   20.2403 O   0  0  0  0  0  0  0  0  0  0  0  0
  -21.4639   -7.1115   21.7929 O   0  0  0  0  0  0  0  0  0  0  0  0
  -32.7513  -19.4658   26.6014 O   0  0  0  0  0  0  0  0  0  1  0  0
  -23.7836   -3.0892   24.7668 F   0  0  0  0  0  0  0  0  0  0  0  0
  -20.3670   -6.3163   24.2027 F   0  0  0  0  0  0  0  0  0  0  0  0
  -28.5710  -17.3695   23.0471 F   0  0  0  0  0  0  0  0  0  0  0  0
  1  2  1  0  0  0  0
  1  6  2  0  0  0  0
  2  7  2  0  0  0  0
  3  9  2  0  0  0  0
  3 10  1  0  0  0  0
  4 11  2  0  0  0  0
  4 18  1  0  0  0  0
  5 12  1  0  0  0  0
  5 18  2  0  0  0  0
  6 20  1  0  0  0  0
  7 22  1  0  0  0  0
  8 13  2  0  0  0  0
  8 21  1  0  0  0  0
  9 24  1  0  0  0  0
 10 25  2  0  0  0  0
 11 26  1  0  0  0  0
 12 26  2  0  0  0  0
 13 27  1  0  0  0  0
 14 15  2  0  0  0  0
 14 28  1  0  0  0  0
 15 29  1  0  0  0  0
 16 23  1  0  0  0  0
 16 27  2  0  0  0  0
 17 29  2  0  0  0  0
 17 30  1  0  0  0  0
 18 32  1  0  0  0  0
 19 32  1  0  0  0  0
 19 33  2  0  0  0  0
 19 34  1  0  0  0  0
 20 22  2  0  0  0  0
 20 40  1  0  0  0  0
 21 23  2  0  0  0  0
 21 41  1  0  0  0  0
 22 49  1  0  0  0  0
 23 42  1  0  0  0  0
 24 31  2  0  0  0  0
 24 60  1  0  0  0  0
 25 31  1  0  0  0  0
 25 70  1  0  0  0  0
 26 81  1  0  0  0  0
 27 82  1  0  0  0  0
 28 30  2  0  0  0  0
 28 81  1  0  0  0  0
 29 83  1  0  0  0  0
 30 84  1  0  0  0  0
 31 85  1  0  0  0  0
 32 64  2  0  0  0  0
 33 65  1  0  0  0  0
 33 68  1  0  0  0  0
 34 69  1  0  0  0  0
 34 75  2  0  0  0  0
 35 50  1  0  0  0  0
 35 71  1  0  0  0  0
 35 76  2  0  0  0  0
 36 61  1  0  0  0  0
 36 66  1  0  0  0  0
 36 77  2  0  0  0  0
 37 58  1  0  0  0  0
 37 72  1  0  0  0  0
 37 78  2  0  0  0  0
 38 62  1  0  0  0  0
 38 73  1  0  0  0  0
 38 79  2  0  0  0  0
 39 67  1  0  0  0  0
 39 70  1  0  0  0  0
 39 80  2  0  0  0  0
 40 43  1  0  0  0  0
 41 50  1  0  0  0  0
 42 66  1  0  0  0  0
 43 45  1  0  0  0  0
 44 46  1  0  0  0  0
 44 47  1  0  0  0  0
 45 49  1  0  0  0  0
 46 51  1  0  0  0  0
 47 67  1  0  0  0  0
 48 51  1  0  0  0  0
 48 67  1  0  0  0  0
 49 71  1  0  0  0  0
 50 66  1  0  0  0  0
 51 65  1  0  0  0  0
 52 60  1  0  0  0  0
 53 62  1  0  0  0  0
 54 63  1  0  0  0  0
 55 63  1  0  0  0  0
 56 63  1  0  0  0  0
 57 74  1  0  0  0  0
 58 59  1  0  0  0  0
 59 82  1  0  0  0  0
 60 72  1  0  0  0  0
 61 63  1  0  0  0  0
 61 73  1  0  0  0  0
 62 74  1  0  0  0  0
 64 65  1  0  0  0  0
M  CHG  1  74   1
M  ISO  4  39 100  59 101  70 100  82 101
M  END
> <Batch ID>
0099

> <Smiles>
CNC(C)C(=O)NC(C(=O)N1Cc2cc([101O:1][101CH2:1]CC(=O)NC(C)c3cccc([100NH:0][100C:0](=O)N4CCCC(n5nc(-c6ccc(Oc7ccc(F)cc7F)cc6)c(C(N)=O)c5N)C4)c3F)ccc2CC1C(=O)NC1CCCc2ccccc21)C(C)(C)C

> <Shape>
0.177

> <Color>
0.198

> <Negative vol penalty>
0.000

$$$$

  -OEChem-04052300543D

 83 91  0     1  0  0  0  0  0999 V2000
  -24.1708   -6.7688   23.9148 C   0  0  0  0  0  0  0  0  0  0  0  0
  -25.3453   -7.5093   23.8276 C   0  0  0  0  0  0  0  0  0  0  0  0
  -23.7101  -33.0795   22.1238 C   0  0  0  0  0  0  0  0  0  0  0  0
  -25.6925  -32.3255   23.2807 C   0  0  0  0  0  0  0  0  0  0  0  0
  -23.0925   -7.0737   23.0852 C   0  0  0  0  0  0  0  0  0  0  0  0
  -25.4425   -8.5547   22.9098 C   0  0  0  0  0  0  0  0  0  0  0  0
  -28.4942  -14.9812   22.0708 C   0  0  0  0  0  0  0  0  0  0  0  0
  -23.7283  -34.2621   22.8633 C   0  0  0  0  0  0  0  0  0  0  0  0
  -25.7108  -33.5081   24.0201 C   0  0  0  0  0  0  0  0  0  0  0  0
  -29.2875  -15.6871   21.1674 C   0  0  0  0  0  0  0  0  0  0  0  0
  -26.6588  -36.7187   23.5575 C   0  0  0  0  0  0  0  0  0  0  0  0
  -27.8836  -37.3693   23.7064 C   0  0  0  0  0  0  0  0  0  0  0  0
  -27.3327  -16.1743   19.8406 C   0  0  0  0  0  0  0  0  0  0  0  0
  -28.7089  -22.4529   19.6961 C   0  0  0  0  0  0  0  0  0  0  0  0
  -26.4503  -21.9212   21.2448 C   0  0  0  0  0  0  0  0  0  0  0  0
  -27.7159  -37.1358   26.1053 C   0  0  0  0  0  0  0  0  0  0  0  0
  -24.6921  -32.1112   22.3326 C   0  0  0  0  0  0  0  0  0  0  0  0
  -25.3035  -30.6489   20.3336 C   0  0  0  0  0  0  0  0  0  0  0  0
  -23.1732   -8.1296   22.1636 C   0  0  0  0  0  0  0  0  0  0  0  0
  -27.1134  -14.8571   21.8597 C   0  0  0  0  0  0  0  0  0  0  0  0
  -24.3648   -8.8732   22.0662 C   0  0  0  0  0  0  0  0  0  0  0  0
  -26.5236  -15.4685   20.7441 C   0  0  0  0  0  0  0  0  0  0  0  0
  -27.7184  -23.4242   19.8411 C   0  0  0  0  0  0  0  0  0  0  0  0
  -26.5891  -23.1584   20.6155 C   0  0  0  0  0  0  0  0  0  0  0  0
  -27.4409  -20.9499   21.0997 C   0  0  0  0  0  0  0  0  0  0  0  0
  -24.7287  -34.4764   23.8114 C   0  0  0  0  0  0  0  0  0  0  0  0
  -28.7073  -16.2813   20.0506 C   0  0  0  0  0  0  0  0  0  0  0  0
  -25.9624  -36.2767   24.6825 C   0  0  0  0  0  0  0  0  0  0  0  0
  -28.5702  -21.2157   20.3253 C   0  0  0  0  0  0  0  0  0  0  0  0
  -28.4121  -37.5778   24.9803 C   0  0  0  0  0  0  0  0  0  0  0  0
  -26.4910  -36.4853   25.9564 C   0  0  0  0  0  0  0  0  0  0  0  0
  -24.6735  -30.8891   21.5694 C   0  0  0  0  0  0  0  0  0  0  0  0
  -24.9848  -29.3472   20.0331 C   0  0  0  0  0  0  0  0  0  0  0  0
  -26.1052  -31.5242   19.5294 C   0  0  0  0  0  0  0  0  0  0  0  0
  -25.1279  -12.4222   21.3770 C   0  0  0  0  0  0  0  0  0  0  0  0
  -22.8633  -14.7361   21.5772 C   0  0  0  0  0  0  0  0  0  0  0  0
  -22.0626  -18.0400   21.2774 C   0  0  0  0  0  0  0  0  0  0  0  0
  -24.3942  -24.0113   21.5105 C   0  0  0  0  0  0  0  0  0  0  0  0
  -21.9982   -8.3914   21.2550 C   0  0  0  0  0  0  0  0  0  0  0  0
  -26.2674  -14.1150   22.8576 C   0  0  0  0  0  0  0  0  0  0  0  0
  -25.0429  -15.3819   20.4827 C   0  0  0  0  0  0  0  0  0  0  0  0
  -22.0496   -9.7548   20.5703 C   0  0  0  0  0  0  0  0  0  0  0  0
  -21.6588  -26.1909   22.1772 C   0  0  0  0  0  0  0  0  0  0  0  0
  -23.4386  -10.0107   19.9940 C   0  0  0  0  0  0  0  0  0  0  0  0
  -22.2511  -27.5877   21.9768 C   0  0  0  0  0  0  0  0  0  0  0  0
  -22.6659  -25.2336   22.8121 C   0  0  0  0  0  0  0  0  0  0  0  0
  -24.5526  -26.5451   21.9237 C   0  0  0  0  0  0  0  0  0  0  0  0
  -24.5000  -10.0306   21.1006 C   0  0  1  0  0  0  0  0  0  0  0  0
  -24.9502  -13.6167   22.2711 C   0  0  1  0  0  0  0  0  0  0  0  0
  -23.5965  -27.5272   21.2273 C   0  0  2  0  0  0  0  0  0  0  0  0
  -27.8935  -24.7408   19.1567 C   0  0  0  0  0  0  0  0  0  0  0  0
  -20.1241  -19.6222   21.4673 C   0  0  0  0  0  0  0  0  0  0  0  0
  -21.8042  -13.7574   18.8883 C   0  0  0  0  0  0  0  0  0  0  0  0
  -20.5331  -15.9048   18.6860 C   0  0  0  0  0  0  0  0  0  0  0  0
  -20.0349  -14.3342   20.5590 C   0  0  0  0  0  0  0  0  0  0  0  0
  -23.3724  -19.5676   23.4476 C   0  0  0  0  0  0  0  0  0  0  0  0
  -30.9702  -18.8412   18.8515 C   0  0  0  0  0  0  0  0  0  0  0  0
  -30.6444  -17.6116   19.6848 C   0  0  0  0  0  0  0  0  0  1  0  0
  -29.8262  -19.8429   18.8442 C   0  0  0  0  0  0  0  0  0  0  0  0
  -22.1879  -15.6591   20.5918 C   0  0  1  0  0  0  0  0  0  0  0  0
  -21.2953  -18.9775   22.1921 C   0  0  2  0  0  0  0  0  0  0  0  0
  -21.1682  -14.9141   19.6849 C   0  0  0  0  0  0  0  0  0  0  0  0
  -24.0050  -29.8254   22.0228 N   0  0  0  0  0  0  0  0  0  0  0  0
  -24.2131  -28.9042   21.0667 N   0  0  0  0  0  0  0  0  0  0  0  0
  -24.2590  -14.6400   21.4841 N   0  0  0  0  0  0  0  0  0  0  0  0
  -23.9141  -25.2252   22.0461 N   0  0  0  0  0  0  0  0  0  0  0  0
  -27.2872  -19.7015   21.7409 N   0  0  0  0  0  0  0  0  0  0  0  0
  -25.2922  -28.5497   18.9881 N   0  0  0  0  0  0  0  0  0  0  0  0
  -26.3339  -32.8292   19.9865 N   0  0  0  0  0  0  0  0  0  0  0  0
  -25.5719  -24.1321   20.7737 N   0  0  0  0  0  0  0  0  0  0  0  0
  -24.4650  -11.2905   21.8119 N   0  0  0  0  0  0  0  0  0  0  0  0
  -21.6080  -16.7422   21.3785 N   0  0  0  0  0  0  0  0  0  0  0  0
  -22.1899  -20.0586   22.6942 N   0  3  0  0  0  0  0  0  0  0  0  0
  -26.5904  -31.1650   18.4298 O   0  0  0  0  0  0  0  0  0  0  0  0
  -25.8143  -12.5206   20.3667 O   0  0  0  0  0  0  0  0  0  0  0  0
  -22.1785  -14.1284   22.4038 O   0  0  0  0  0  0  0  0  0  0  0  0
  -22.9718  -18.4215   20.5436 O   0  0  0  0  0  0  0  0  0  0  0  0
  -23.7895  -22.9478   21.6693 O   0  0  0  0  0  0  0  0  0  0  0  0
  -24.7469  -35.6303   24.5330 O   0  0  0  0  0  0  0  0  0  0  0  0
  -29.4795  -16.9704   19.1670 O   0  0  0  0  0  0  0  0  0  1  0  0
  -29.5548  -20.2749   20.1707 O   0  0  0  0  0  0  0  0  0  0  0  0
  -29.5891  -38.2012   25.1230 F   0  0  0  0  0  0  0  0  0  0  0  0
  -25.8273  -36.0619   27.0408 F   0  0  0  0  0  0  0  0  0  0  0  0
  1  2  1  0  0  0  0
  1  5  2  0  0  0  0
  2  6  2  0  0  0  0
  3  8  2  0  0  0  0
  3 17  1  0  0  0  0
  4  9  1  0  0  0  0
  4 17  2  0  0  0  0
  5 19  1  0  0  0  0
  6 21  1  0  0  0  0
  7 10  2  0  0  0  0
  7 20  1  0  0  0  0
  8 26  1  0  0  0  0
  9 26  2  0  0  0  0
 10 27  1  0  0  0  0
 11 12  2  0  0  0  0
 11 28  1  0  0  0  0
 12 30  1  0  0  0  0
 13 22  1  0  0  0  0
 13 27  2  0  0  0  0
 14 23  2  0  0  0  0
 14 29  1  0  0  0  0
 15 24  2  0  0  0  0
 15 25  1  0  0  0  0
 16 30  2  0  0  0  0
 16 31  1  0  0  0  0
 17 32  1  0  0  0  0
 18 32  1  0  0  0  0
 18 33  2  0  0  0  0
 18 34  1  0  0  0  0
 19 21  2  0  0  0  0
 19 39  1  0  0  0  0
 20 22  2  0  0  0  0
 20 40  1  0  0  0  0
 21 48  1  0  0  0  0
 22 41  1  0  0  0  0
 23 24  1  0  0  0  0
 23 51  1  0  0  0  0
 24 70  1  0  0  0  0
 25 29  2  0  0  0  0
 25 67  1  0  0  0  0
 26 79  1  0  0  0  0
 27 80  1  0  0  0  0
 28 31  2  0  0  0  0
 28 79  1  0  0  0  0
 29 81  1  0  0  0  0
 30 82  1  0  0  0  0
 31 83  1  0  0  0  0
 32 63  2  0  0  0  0
 33 64  1  0  0  0  0
 33 68  1  0  0  0  0
 34 69  1  0  0  0  0
 34 74  2  0  0  0  0
 35 49  1  0  0  0  0
 35 71  1  0  0  0  0
 35 75  2  0  0  0  0
 36 60  1  0  0  0  0
 36 65  1  0  0  0  0
 36 76  2  0  0  0  0
 37 61  1  0  0  0  0
 37 72  1  0  0  0  0
 37 77  2  0  0  0  0
 38 66  1  0  0  0  0
 38 70  1  0  0  0  0
 38 78  2  0  0  0  0
 39 42  1  0  0  0  0
 40 49  1  0  0  0  0
 41 65  1  0  0  0  0
 42 44  1  0  0  0  0
 43 45  1  0  0  0  0
 43 46  1  0  0  0  0
 44 48  1  0  0  0  0
 45 50  1  0  0  0  0
 46 66  1  0  0  0  0
 47 50  1  0  0  0  0
 47 66  1  0  0  0  0
 48 71  1  0  0  0  0
 49 65  1  0  0  0  0
 50 64  1  0  0  0  0
 52 61  1  0  0  0  0
 53 62  1  0  0  0  0
 54 62  1  0  0  0  0
 55 62  1  0  0  0  0
 56 73  1  0  0  0  0
 57 58  1  0  0  0  0
 57 59  1  0  0  0  0
 58 80  1  0  0  0  0
 59 81  1  0  0  0  0
 60 62  1  0  0  0  0
 60 72  1  0  0  0  0
 61 73  1  0  0  0  0
 63 64  1  0  0  0  0
M  CHG  1  73   1
M  ISO  4  38 100  58 101  70 100  80 101
M  END
> <Batch ID>
0099

> <Smiles>
CNC(C)C(=O)NC(C(=O)N1Cc2cc([101O:1][101CH2:1]CCOc3cc(C)c([100NH:0][100C:0](=O)N4CCCC(n5nc(-c6ccc(Oc7ccc(F)cc7F)cc6)c(C(N)=O)c5N)C4)cc3N)ccc2CC1C(=O)NC1CCCc2ccccc21)C(C)(C)C

> <Shape>
0.258

> <Color>
0.066

> <Negative vol penalty>
0.000

$$$$

  -OEChem-04052300543D

 86 94  0     1  0  0  0  0  0999 V2000
  -16.4708  -26.1061   24.4701 C   0  0  0  0  0  0  0  0  0  0  0  0
  -17.5153  -25.8237   23.5957 C   0  0  0  0  0  0  0  0  0  0  0  0
  -22.9078  -11.4308   18.4378 C   0  0  0  0  0  0  0  0  0  0  0  0
  -22.7370  -10.3945   20.6136 C   0  0  0  0  0  0  0  0  0  0  0  0
  -16.1606  -27.4298   24.7793 C   0  0  0  0  0  0  0  0  0  0  0  0
  -18.2497  -26.8650   23.0293 C   0  0  0  0  0  0  0  0  0  0  0  0
  -23.2396  -26.0087   23.1421 C   0  0  0  0  0  0  0  0  0  0  0  0
  -21.8536  -10.6411   17.9789 C   0  0  0  0  0  0  0  0  0  0  0  0
  -21.6827   -9.6048   20.1547 C   0  0  0  0  0  0  0  0  0  0  0  0
  -23.7573  -25.1340   22.1878 C   0  0  0  0  0  0  0  0  0  0  0  0
  -18.3735   -9.9649   19.5715 C   0  0  0  0  0  0  0  0  0  0  0  0
  -17.2538   -9.8400   20.3938 C   0  0  0  0  0  0  0  0  0  0  0  0
  -24.4841  -27.0163   20.8657 C   0  0  0  0  0  0  0  0  0  0  0  0
  -29.9166  -19.9006   18.4110 C   0  0  0  0  0  0  0  0  0  0  0  0
  -28.6307  -19.2610   20.3538 C   0  0  0  0  0  0  0  0  0  0  0  0
  -17.5874   -7.4488   20.4847 C   0  0  0  0  0  0  0  0  0  0  0  0
  -23.3496  -11.3075   19.7552 C   0  0  0  0  0  0  0  0  0  0  0  0
  -30.3956  -17.8224   19.5460 C   0  0  0  0  0  0  0  0  0  0  0  0
  -24.3515  -13.3936   20.8284 C   0  0  0  0  0  0  0  0  0  0  0  0
  -16.8977  -28.4875   24.2239 C   0  0  0  0  0  0  0  0  0  0  0  0
  -23.3308  -27.3961   22.9598 C   0  0  0  0  0  0  0  0  0  0  0  0
  -17.9483  -28.2041   23.3303 C   0  0  0  0  0  0  0  0  0  0  0  0
  -23.9691  -27.9064   21.8204 C   0  0  0  0  0  0  0  0  0  0  0  0
  -30.6645  -18.7284   18.5201 C   0  0  0  0  0  0  0  0  0  0  0  0
  -28.8997  -20.1670   19.3279 C   0  0  0  0  0  0  0  0  0  0  0  0
  -21.2410   -9.7282   18.8373 C   0  0  0  0  0  0  0  0  0  0  0  0
  -24.3771  -25.6378   21.0480 C   0  0  0  0  0  0  0  0  0  0  0  0
  -19.1002   -8.8318   19.2057 C   0  0  0  0  0  0  0  0  0  0  0  0
  -16.8607   -8.5819   20.8504 C   0  0  0  0  0  0  0  0  0  0  0  0
  -29.3787  -18.0887   20.4629 C   0  0  0  0  0  0  0  0  0  0  0  0
  -18.7072   -7.5738   19.6624 C   0  0  0  0  0  0  0  0  0  0  0  0
  -24.4389  -12.1225   20.2296 C   0  0  0  0  0  0  0  0  0  0  0  0
  -25.6541  -13.7376   21.0955 C   0  0  0  0  0  0  0  0  0  0  0  0
  -31.1793  -16.5677   19.6822 C   0  0  0  0  0  0  0  0  0  0  0  0
  -23.1961  -14.1919   21.1174 C   0  0  0  0  0  0  0  0  0  0  0  0
  -21.2293  -29.7604   22.6477 C   0  0  0  0  0  0  0  0  0  0  0  0
  -26.4965  -23.0231   19.7147 C   0  0  0  0  0  0  0  0  0  0  0  0
  -23.8883  -31.6155   22.7504 C   0  0  0  0  0  0  0  0  0  0  0  0
  -27.2575  -31.8786   22.2748 C   0  0  0  0  0  0  0  0  0  0  0  0
  -30.9927  -14.1003   19.6581 C   0  0  0  0  0  0  0  0  0  0  0  0
  -16.4949  -29.9036   24.5511 C   0  0  0  0  0  0  0  0  0  0  0  0
  -22.7911  -28.3262   24.0115 C   0  0  0  0  0  0  0  0  0  0  0  0
  -24.1107  -29.3877   21.5873 C   0  0  0  0  0  0  0  0  0  0  0  0
  -17.5623  -30.9370   24.2005 C   0  0  0  0  0  0  0  0  0  0  0  0
  -29.8979  -10.9793   20.9063 C   0  0  0  0  0  0  0  0  0  0  0  0
  -18.1132  -30.6817   22.8011 C   0  0  0  0  0  0  0  0  0  0  0  0
  -28.3718  -11.1029   20.8996 C   0  0  0  0  0  0  0  0  0  0  0  0
  -30.5282  -11.6654   19.6951 C   0  0  0  0  0  0  0  0  0  0  0  0
  -28.6008  -13.1811   19.4809 C   0  0  0  0  0  0  0  0  0  0  0  0
  -18.7840  -29.3054   22.7149 C   0  0  1  0  0  0  0  0  0  0  0  0
  -22.4831  -29.7207   23.4747 C   0  0  1  0  0  0  0  0  0  0  0  0
  -27.9237  -12.5669   20.7167 C   0  0  1  0  0  0  0  0  0  0  0  0
  -31.7479  -18.4681   17.5247 C   0  0  0  0  0  0  0  0  0  0  0  0
  -29.1421  -33.5305   22.4040 C   0  0  0  0  0  0  0  0  0  0  0  0
  -22.9517  -32.8845   20.1384 C   0  0  0  0  0  0  0  0  0  0  0  0
  -25.2634  -33.7963   19.8336 C   0  0  0  0  0  0  0  0  0  0  0  0
  -23.8980  -34.4958   21.8006 C   0  0  0  0  0  0  0  0  0  0  0  0
  -28.6660  -30.2863   24.3338 C   0  0  0  0  0  0  0  0  0  0  0  0
  -27.0886  -21.6898   20.1195 C   0  0  0  0  0  0  0  0  0  0  0  0
  -25.3526  -23.5206   20.5768 C   0  0  0  0  0  0  0  0  0  1  0  0
  -24.8545  -32.1567   21.7245 C   0  0  1  0  0  0  0  0  0  0  0  0
  -28.3553  -32.4616   23.1463 C   0  0  2  0  0  0  0  0  0  0  0  0
  -24.2377  -33.3054   20.8774 C   0  0  0  0  0  0  0  0  0  0  0  0
  -25.6976  -11.6885   20.1223 N   0  0  0  0  0  0  0  0  0  0  0  0
  -26.4130  -12.6926   20.6572 N   0  0  0  0  0  0  0  0  0  0  0  0
  -23.5614  -30.2564   22.6413 N   0  0  0  0  0  0  0  0  0  0  0  0
  -30.0608  -13.0494   19.5985 N   0  0  0  0  0  0  0  0  0  0  0  0
  -26.2129  -14.8292   21.6600 N   0  0  0  0  0  0  0  0  0  0  0  0
  -21.9335  -13.6876   20.7773 N   0  0  0  0  0  0  0  0  0  0  0  0
  -28.1554  -21.3330   19.2197 N   0  0  0  0  0  0  0  0  0  0  0  0
  -30.4427  -15.3857   19.6001 N   0  0  0  0  0  0  0  0  0  0  0  0
  -20.0971  -29.3443   23.3220 N   0  0  0  0  0  0  0  0  0  0  0  0
  -26.0583  -32.5345   22.4569 N   0  0  0  0  0  0  0  0  0  0  0  0
  -29.3017  -31.3919   23.5720 N   0  3  0  0  0  0  0  0  0  0  0  0
  -32.3981  -16.6354   19.8153 O   0  0  0  0  0  0  0  0  0  0  0  0
  -23.2821  -15.3261   21.6463 O   0  0  0  0  0  0  0  0  0  0  0  0
  -21.2845  -30.1418   21.4844 O   0  0  0  0  0  0  0  0  0  0  0  0
  -26.9080  -23.6689   18.7517 O   0  0  0  0  0  0  0  0  0  0  0  0
  -23.4456  -32.3691   23.6208 O   0  0  0  0  0  0  0  0  0  0  0  0
  -27.4458  -30.9380   21.5065 O   0  0  0  0  0  0  0  0  0  0  0  0
  -32.2061  -13.9118   19.7902 O   0  0  0  0  0  0  0  0  0  0  0  0
  -20.2121   -8.9576   18.3900 O   0  0  0  0  0  0  0  0  0  0  0  0
  -24.8826  -24.7862   20.1146 O   0  0  0  0  0  0  0  0  0  1  0  0
  -15.7863   -8.4622   21.6413 F   0  0  0  0  0  0  0  0  0  0  0  0
  -29.1104  -17.2258   21.4533 F   0  0  0  0  0  0  0  0  0  0  0  0
  -19.4020   -6.4817   19.3153 F   0  0  0  0  0  0  0  0  0  0  0  0
  1  2  1  0  0  0  0
  1  5  2  0  0  0  0
  2  6  2  0  0  0  0
  3  8  2  0  0  0  0
  3 17  1  0  0  0  0
  4  9  1  0  0  0  0
  4 17  2  0  0  0  0
  5 20  1  0  0  0  0
  6 22  1  0  0  0  0
  7 10  2  0  0  0  0
  7 21  1  0  0  0  0
  8 26  1  0  0  0  0
  9 26  2  0  0  0  0
 10 27  1  0  0  0  0
 11 12  2  0  0  0  0
 11 28  1  0  0  0  0
 12 29  1  0  0  0  0
 13 23  1  0  0  0  0
 13 27  2  0  0  0  0
 14 24  2  0  0  0  0
 14 25  1  0  0  0  0
 15 25  2  0  0  0  0
 15 30  1  0  0  0  0
 16 29  2  0  0  0  0
 16 31  1  0  0  0  0
 17 32  1  0  0  0  0
 18 24  1  0  0  0  0
 18 30  2  0  0  0  0
 18 34  1  0  0  0  0
 19 32  1  0  0  0  0
 19 33  2  0  0  0  0
 19 35  1  0  0  0  0
 20 22  2  0  0  0  0
 20 41  1  0  0  0  0
 21 23  2  0  0  0  0
 21 42  1  0  0  0  0
 22 50  1  0  0  0  0
 23 43  1  0  0  0  0
 24 53  1  0  0  0  0
 25 70  1  0  0  0  0
 26 82  1  0  0  0  0
 27 83  1  0  0  0  0
 28 31  2  0  0  0  0
 28 82  1  0  0  0  0
 29 84  1  0  0  0  0
 30 85  1  0  0  0  0
 31 86  1  0  0  0  0
 32 64  2  0  0  0  0
 33 65  1  0  0  0  0
 33 68  1  0  0  0  0
 34 71  1  0  0  0  0
 34 75  2  0  0  0  0
 35 69  1  0  0  0  0
 35 76  2  0  0  0  0
 36 51  1  0  0  0  0
 36 72  1  0  0  0  0
 36 77  2  0  0  0  0
 37 59  1  0  0  0  0
 37 60  1  0  0  0  0
 37 78  2  0  0  0  0
 38 61  1  0  0  0  0
 38 66  1  0  0  0  0
 38 79  2  0  0  0  0
 39 62  1  0  0  0  0
 39 73  1  0  0  0  0
 39 80  2  0  0  0  0
 40 67  1  0  0  0  0
 40 71  1  0  0  0  0
 40 81  2  0  0  0  0
 41 44  1  0  0  0  0
 42 51  1  0  0  0  0
 43 66  1  0  0  0  0
 44 46  1  0  0  0  0
 45 47  1  0  0  0  0
 45 48  1  0  0  0  0
 46 50  1  0  0  0  0
 47 52  1  0  0  0  0
 48 67  1  0  0  0  0
 49 52  1  0  0  0  0
 49 67  1  0  0  0  0
 50 72  1  0  0  0  0
 51 66  1  0  0  0  0
 52 65  1  0  0  0  0
 54 62  1  0  0  0  0
 55 63  1  0  0  0  0
 56 63  1  0  0  0  0
 57 63  1  0  0  0  0
 58 74  1  0  0  0  0
 59 70  1  0  0  0  0
 60 83  1  0  0  0  0
 61 63  1  0  0  0  0
 61 73  1  0  0  0  0
 62 74  1  0  0  0  0
 64 65  1  0  0  0  0
M  CHG  1  74   1
M  ISO  4  40 100  60 101  71 100  83 101
M  END
> <Batch ID>
0099

> <Smiles>
CNC(C)C(=O)NC(C(=O)N1Cc2cc([101O:1][101CH2:1]C(=O)CNc3cc(C)c(C(=O)[100NH:0][100C:0](=O)N4CCCC(n5nc(-c6ccc(Oc7ccc(F)cc7F)cc6)c(C(N)=O)c5N)C4)c(F)c3)ccc2CC1C(=O)NC1CCCc2ccccc21)C(C)(C)C

> <Shape>
0.270

> <Color>
0.094

> <Negative vol penalty>
0.000

$$$$

  -OEChem-04052300543D

 88 97  0     1  0  0  0  0  0999 V2000
  -32.8999  -32.5802   22.2120 C   0  0  0  0  0  0  0  0  0  0  0  0
  -32.5037  -32.0905   20.9716 C   0  0  0  0  0  0  0  0  0  0  0  0
  -26.3513  -13.0871   19.0745 C   0  0  0  0  0  0  0  0  0  0  0  0
  -26.3766  -12.7846   21.4713 C   0  0  0  0  0  0  0  0  0  0  0  0
  -32.4938  -31.9326   23.3780 C   0  0  0  0  0  0  0  0  0  0  0  0
  -31.7019  -30.9521   20.8965 C   0  0  0  0  0  0  0  0  0  0  0  0
  -26.5027  -28.0378   16.9226 C   0  0  0  0  0  0  0  0  0  0  0  0
  -25.1088  -12.4567   19.0079 C   0  0  0  0  0  0  0  0  0  0  0  0
  -25.1340  -12.1542   21.4048 C   0  0  0  0  0  0  0  0  0  0  0  0
  -26.1943  -26.8551   16.2519 C   0  0  0  0  0  0  0  0  0  0  0  0
  -23.9284   -9.1046   20.5819 C   0  0  0  0  0  0  0  0  0  0  0  0
  -23.7575   -7.9301   21.3145 C   0  0  0  0  0  0  0  0  0  0  0  0
  -25.4880  -25.8649   18.3352 C   0  0  0  0  0  0  0  0  0  0  0  0
  -29.8887  -22.6387   20.2611 C   0  0  0  0  0  0  0  0  0  0  0  0
  -21.9642   -8.9667   22.5582 C   0  0  0  0  0  0  0  0  0  0  0  0
  -26.9852  -13.2510   20.3062 C   0  0  0  0  0  0  0  0  0  0  0  0
  -29.4620  -13.4971   19.7469 C   0  0  0  0  0  0  0  0  0  0  0  0
  -31.6787  -30.7913   23.3175 C   0  0  0  0  0  0  0  0  0  0  0  0
  -26.3160  -28.1395   18.3087 C   0  0  0  0  0  0  0  0  0  0  0  0
  -31.2856  -30.2878   22.0627 C   0  0  0  0  0  0  0  0  0  0  0  0
  -25.7924  -27.0509   19.0207 C   0  0  0  0  0  0  0  0  0  0  0  0
  -28.8180  -22.5476   17.6866 C   0  0  0  0  0  0  0  0  0  0  0  0
  -29.8538  -23.7931   19.4791 C   0  0  0  0  0  0  0  0  0  0  0  0
  -29.3884  -21.4386   19.7558 C   0  0  0  0  0  0  0  0  0  0  0  0
  -29.3184  -23.7476   18.1918 C   0  0  0  0  0  0  0  0  0  0  0  0
  -24.5002  -11.9903   20.1731 C   0  0  0  0  0  0  0  0  0  0  0  0
  -25.6896  -25.7675   16.9586 C   0  0  0  0  0  0  0  0  0  0  0  0
  -23.1172  -10.2103   20.8374 C   0  0  0  0  0  0  0  0  0  0  0  0
  -22.7754   -7.8611   22.3027 C   0  0  0  0  0  0  0  0  0  0  0  0
  -22.1352  -10.1413   21.8255 C   0  0  0  0  0  0  0  0  0  0  0  0
  -28.8530  -21.3931   18.4686 C   0  0  0  0  0  0  0  0  0  0  0  0
  -28.2690  -13.9015   20.3754 C   0  0  0  0  0  0  0  0  0  0  0  0
  -30.3857  -14.4413   20.1235 C   0  0  0  0  0  0  0  0  0  0  0  0
  -28.5339  -22.6484   13.9776 C   0  0  0  0  0  0  0  0  0  0  0  0
  -29.7128  -12.3689   18.8984 C   0  0  0  0  0  0  0  0  0  0  0  0
  -28.2264  -28.6461   20.7982 C   0  0  0  0  0  0  0  0  0  0  0  0
  -25.4259  -28.7406   22.4324 C   0  0  0  0  0  0  0  0  0  0  0  0
  -22.3210  -26.9030   22.4447 C   0  0  0  0  0  0  0  0  0  0  0  0
  -29.9236  -20.1433   21.8492 C   0  0  0  0  0  0  0  0  0  0  0  0
  -31.3040  -30.0977   24.6033 C   0  0  0  0  0  0  0  0  0  0  0  0
  -26.6285  -29.4312   19.0133 C   0  0  0  0  0  0  0  0  0  0  0  0
  -25.5545  -27.1157   20.5066 C   0  0  0  0  0  0  0  0  0  0  0  0
  -27.0626  -22.3811   13.7681 C   0  0  0  0  0  0  0  0  0  0  0  0
  -29.1521  -22.1641   15.2695 C   0  0  0  0  0  0  0  0  0  0  0  0
  -30.1457  -29.1153   24.4503 C   0  0  0  0  0  0  0  0  0  0  0  0
  -31.3996  -17.4752   23.6875 C   0  0  0  0  0  0  0  0  0  0  0  0
  -30.3534  -28.2317   23.2244 C   0  0  0  0  0  0  0  0  0  0  0  0
  -30.8777  -16.2192   22.9858 C   0  0  0  0  0  0  0  0  0  0  0  0
  -30.3445  -18.5790   23.7335 C   0  0  0  0  0  0  0  0  0  0  0  0
  -26.8552  -22.1377   16.2627 C   0  0  0  0  0  0  0  0  0  0  0  0
  -29.2295  -17.6694   21.7339 C   0  0  0  0  0  0  0  0  0  0  0  0
  -30.3956  -29.0699   21.9410 C   0  0  1  0  0  0  0  0  0  0  0  0
  -26.8823  -29.2510   20.5067 C   0  0  1  0  0  0  0  0  0  0  0  0
  -26.2593  -22.7808   15.0040 C   0  0  1  0  0  0  0  0  0  0  0  0
  -30.2784  -16.5527   21.6055 C   0  0  2  0  0  0  0  0  0  0  0  0
  -20.0088  -27.6110   23.1156 C   0  0  0  0  0  0  0  0  0  0  0  0
  -26.1656  -27.5605   25.1472 C   0  0  0  0  0  0  0  0  0  0  0  0
  -23.8249  -26.6911   25.3291 C   0  0  0  0  0  0  0  0  0  0  0  0
  -24.2337  -29.1480   25.1912 C   0  0  0  0  0  0  0  0  0  0  0  0
  -21.1949  -26.1209   19.8219 C   0  0  0  0  0  0  0  0  0  0  0  0
  -26.1560  -24.3028   15.1439 C   0  0  0  0  0  0  0  0  0  1  0  0
  -24.5608  -27.7195   23.1309 C   0  0  1  0  0  0  0  0  0  0  0  0
  -20.9708  -27.3969   21.9573 C   0  0  2  0  0  0  0  0  0  0  0  0
  -24.7126  -27.7727   24.6774 C   0  0  0  0  0  0  0  0  0  0  0  0
  -28.4183  -15.0157   21.0968 N   0  0  0  0  0  0  0  0  0  0  0  0
  -29.7160  -15.3194   20.9239 N   0  0  0  0  0  0  0  0  0  0  0  0
  -28.2767  -22.4810   16.3976 N   0  0  1  0  0  0  0  0  0  0  0  0
  -25.8814  -28.3982   21.1513 N   0  0  0  0  0  0  0  0  0  0  0  0
  -29.8251  -18.8439   22.3900 N   0  0  0  0  0  0  0  0  0  0  0  0
  -30.3660  -24.9975   20.0122 N   0  0  0  0  0  0  0  0  0  0  0  0
  -29.2827  -24.9195   17.3983 N   0  0  0  0  0  0  0  0  0  0  0  0
  -31.6973  -14.5976   19.8450 N   0  0  0  0  0  0  0  0  0  0  0  0
  -28.6518  -11.4988   18.6128 N   0  0  0  0  0  0  0  0  0  0  0  0
  -29.4257  -20.2674   20.5526 N   0  0  0  0  0  0  0  0  0  0  0  0
  -29.0582  -29.4573   21.5462 N   0  0  0  0  0  0  0  0  0  0  0  0
  -23.1997  -27.9443   22.6561 N   0  0  0  0  0  0  0  0  0  0  0  0
  -20.3653  -26.4090   21.0201 N   0  3  0  0  0  0  0  0  0  0  0  0
  -29.2247  -23.1392   13.0843 O   0  0  0  0  0  0  0  0  0  0  0  0
  -30.8480  -12.1301   18.4212 O   0  0  0  0  0  0  0  0  0  0  0  0
  -28.4889  -27.5256   20.3770 O   0  0  0  0  0  0  0  0  0  0  0  0
  -25.6820  -29.8057   22.9994 O   0  0  0  0  0  0  0  0  0  0  0  0
  -22.5699  -25.7128   22.6237 O   0  0  0  0  0  0  0  0  0  0  0  0
  -30.4382  -21.0710   22.4789 O   0  0  0  0  0  0  0  0  0  0  0  0
  -23.2876  -11.3754   20.1086 O   0  0  0  0  0  0  0  0  0  0  0  0
  -25.3883  -24.6117   16.3065 O   0  0  0  0  0  0  0  0  0  1  0  0
  -22.6104   -6.7326   23.0051 F   0  0  0  0  0  0  0  0  0  0  0  0
  -21.3521  -11.1999   22.0747 F   0  0  0  0  0  0  0  0  0  0  0  0
  -28.3722  -20.2384   17.9825 F   0  0  0  0  0  0  0  0  0  0  0  0
  1  2  1  0  0  0  0
  1  5  2  0  0  0  0
  2  6  2  0  0  0  0
  3  8  2  0  0  0  0
  3 16  1  0  0  0  0
  4  9  1  0  0  0  0
  4 16  2  0  0  0  0
  5 18  1  0  0  0  0
  6 20  1  0  0  0  0
  7 10  2  0  0  0  0
  7 19  1  0  0  0  0
  8 26  1  0  0  0  0
  9 26  2  0  0  0  0
 10 27  1  0  0  0  0
 11 12  2  0  0  0  0
 11 28  1  0  0  0  0
 12 29  1  0  0  0  0
 13 21  1  0  0  0  0
 13 27  2  0  0  0  0
 14 23  1  0  0  0  0
 14 24  2  0  0  0  0
 15 29  2  0  0  0  0
 15 30  1  0  0  0  0
 16 32  1  0  0  0  0
 17 32  1  0  0  0  0
 17 33  2  0  0  0  0
 17 35  1  0  0  0  0
 18 20  2  0  0  0  0
 18 40  1  0  0  0  0
 19 21  2  0  0  0  0
 19 41  1  0  0  0  0
 20 52  1  0  0  0  0
 21 42  1  0  0  0  0
 22 25  1  0  0  0  0
 22 31  2  0  0  0  0
 22 67  1  0  0  0  0
 23 25  2  0  0  0  0
 23 70  1  0  0  0  0
 24 31  1  0  0  0  0
 24 74  1  0  0  0  0
 25 71  1  0  0  0  0
 26 84  1  0  0  0  0
 27 85  1  0  0  0  0
 28 30  2  0  0  0  0
 28 84  1  0  0  0  0
 29 86  1  0  0  0  0
 30 87  1  0  0  0  0
 31 88  1  0  0  0  0
 32 65  2  0  0  0  0
 33 66  1  0  0  0  0
 33 72  1  0  0  0  0
 34 43  1  0  0  0  0
 34 44  1  0  0  0  0
 34 78  2  0  0  0  0
 35 73  1  0  0  0  0
 35 79  2  0  0  0  0
 36 53  1  0  0  0  0
 36 75  1  0  0  0  0
 36 80  2  0  0  0  0
 37 62  1  0  0  0  0
 37 68  1  0  0  0  0
 37 81  2  0  0  0  0
 38 63  1  0  0  0  0
 38 76  1  0  0  0  0
 38 82  2  0  0  0  0
 39 69  1  0  0  0  0
 39 74  1  0  0  0  0
 39 83  2  0  0  0  0
 40 45  1  0  0  0  0
 41 53  1  0  0  0  0
 42 68  1  0  0  0  0
 43 54  1  0  0  0  0
 44 67  1  0  0  0  0
 45 47  1  0  0  0  0
 46 48  1  0  0  0  0
 46 49  1  0  0  0  0
 47 52  1  0  0  0  0
 48 55  1  0  0  0  0
 49 69  1  0  0  0  0
 50 54  1  0  0  0  0
 50 67  1  0  0  0  0
 51 55  1  0  0  0  0
 51 69  1  0  0  0  0
 52 75  1  0  0  0  0
 53 68  1  0  0  0  0
 54 61  1  0  0  0  0
 55 66  1  0  0  0  0
 56 63  1  0  0  0  0
 57 64  1  0  0  0  0
 58 64  1  0  0  0  0
 59 64  1  0  0  0  0
 60 77  1  0  0  0  0
 61 85  1  0  0  0  0
 62 64  1  0  0  0  0
 62 76  1  0  0  0  0
 63 77  1  0  0  0  0
 65 66  1  0  0  0  0
M  CHG  1  77   1
M  ISO  4  39 100  61 101  74 100  85 101
M  END
> <Batch ID>
0099

> <Smiles>
CNC(C)C(=O)NC(C(=O)N1Cc2cc([101O:1][101CH2:1]C3CC(=O)CN(c4c(N)c(N)cc([100NH:0][100C:0](=O)N5CCCC(n6nc(-c7ccc(Oc8ccc(F)cc8F)cc7)c(C(N)=O)c6N)C5)c4F)C3)ccc2CC1C(=O)NC1CCCc2ccccc21)C(C)(C)C

> <Shape>
0.266

> <Color>
0.077

> <Negative vol penalty>
0.000

$$$$

  -OEChem-04052300543D

 86 95  0     1  0  0  0  0  0999 V2000
  -22.7526   -8.5734   21.9433 C   0  0  0  0  0  0  0  0  0  0  0  0
  -23.9808   -9.1495   22.2515 C   0  0  0  0  0  0  0  0  0  0  0  0
  -22.1990  -29.0550   23.5663 C   0  0  0  0  0  0  0  0  0  0  0  0
  -21.2368  -28.6253   21.3923 C   0  0  0  0  0  0  0  0  0  0  0  0
  -31.9128  -23.5236   20.0060 C   0  0  0  0  0  0  0  0  0  0  0  0
  -21.9842   -9.0888   20.9003 C   0  0  0  0  0  0  0  0  0  0  0  0
  -24.4419  -10.2409   21.5161 C   0  0  0  0  0  0  0  0  0  0  0  0
  -28.3025  -16.2314   22.2407 C   0  0  0  0  0  0  0  0  0  0  0  0
  -30.8392  -24.3905   19.8025 C   0  0  0  0  0  0  0  0  0  0  0  0
  -21.0495  -28.5510   24.1747 C   0  0  0  0  0  0  0  0  0  0  0  0
  -20.0873  -28.1212   22.0007 C   0  0  0  0  0  0  0  0  0  0  0  0
  -29.3867  -16.8905   21.6629 C   0  0  0  0  0  0  0  0  0  0  0  0
  -17.3094  -29.3521   23.4837 C   0  0  0  0  0  0  0  0  0  0  0  0
  -16.0758  -29.7633   22.9792 C   0  0  0  0  0  0  0  0  0  0  0  0
  -32.5786  -23.8070   17.7009 C   0  0  0  0  0  0  0  0  0  0  0  0
  -27.9379  -17.7460   19.9344 C   0  0  0  0  0  0  0  0  0  0  0  0
  -15.5171  -27.4676   22.4742 C   0  0  0  0  0  0  0  0  0  0  0  0
  -22.2926  -29.0922   22.1751 C   0  0  0  0  0  0  0  0  0  0  0  0
  -32.7826  -23.2319   18.9552 C   0  0  0  0  0  0  0  0  0  0  0  0
  -24.0117  -30.9100   21.6770 C   0  0  0  0  0  0  0  0  0  0  0  0
  -22.4317  -10.1930   20.1580 C   0  0  0  0  0  0  0  0  0  0  0  0
  -27.0278  -16.3160   21.6625 C   0  0  0  0  0  0  0  0  0  0  0  0
  -23.6794  -10.7707   20.4613 C   0  0  0  0  0  0  0  0  0  0  0  0
  -26.8386  -17.0892   20.5082 C   0  0  0  0  0  0  0  0  0  0  0  0
  -30.6352  -24.9656   18.5482 C   0  0  0  0  0  0  0  0  0  0  0  0
  -19.9936  -28.0841   23.3919 C   0  0  0  0  0  0  0  0  0  0  0  0
  -29.2051  -17.6456   20.5080 C   0  0  0  0  0  0  0  0  0  0  0  0
  -17.6470  -27.9987   23.4834 C   0  0  0  0  0  0  0  0  0  0  0  0
  -15.1796  -28.8211   22.4745 C   0  0  0  0  0  0  0  0  0  0  0  0
  -31.5049  -24.6739   17.4974 C   0  0  0  0  0  0  0  0  0  0  0  0
  -16.7509  -27.0565   22.9787 C   0  0  0  0  0  0  0  0  0  0  0  0
  -23.4796  -29.6133   21.5460 C   0  0  0  0  0  0  0  0  0  0  0  0
  -25.1351  -30.9016   20.8869 C   0  0  0  0  0  0  0  0  0  0  0  0
  -33.9150  -22.3172   19.1699 C   0  0  0  0  0  0  0  0  0  0  0  0
  -23.5333  -32.0227   22.4444 C   0  0  0  0  0  0  0  0  0  0  0  0
  -24.9926  -14.2240   20.4034 C   0  0  0  0  0  0  0  0  0  0  0  0
  -23.0323  -16.8047   20.2643 C   0  0  0  0  0  0  0  0  0  0  0  0
  -22.7177  -20.2007   20.1419 C   0  0  0  0  0  0  0  0  0  0  0  0
  -28.5816  -26.2448   19.2768 C   0  0  0  0  0  0  0  0  0  0  0  0
  -21.5878  -10.6855   19.0091 C   0  0  0  0  0  0  0  0  0  0  0  0
  -25.8633  -15.6209   22.3130 C   0  0  0  0  0  0  0  0  0  0  0  0
  -25.4863  -17.2285   19.8598 C   0  0  0  0  0  0  0  0  0  0  0  0
  -21.9766  -12.0786   18.5210 C   0  0  0  0  0  0  0  0  0  0  0  0
  -26.2815  -28.2852   16.9811 C   0  0  0  0  0  0  0  0  0  0  0  0
  -23.4899  -12.1854   18.3617 C   0  0  0  0  0  0  0  0  0  0  0  0
  -25.9196  -29.4238   17.9319 C   0  0  0  0  0  0  0  0  0  0  0  0
  -33.9710  -18.8441   20.4095 C   0  0  0  0  0  0  0  0  0  0  0  0
  -27.5916  -27.6080   17.3632 C   0  0  0  0  0  0  0  0  0  0  0  0
  -34.6785  -20.0424   19.7959 C   0  0  0  0  0  0  0  0  0  0  0  0
  -32.3040  -20.4252   19.7539 C   0  0  0  0  0  0  0  0  0  0  0  0
  -26.5398  -27.6200   19.6325 C   0  0  0  0  0  0  0  0  0  0  0  0
  -24.2023  -11.9711   19.7026 C   0  0  1  0  0  0  0  0  0  0  0  0
  -24.7106  -15.3570   21.3491 C   0  0  1  0  0  0  0  0  0  0  0  0
  -32.5708  -18.9216   19.7964 C   0  0  2  0  0  0  0  0  0  0  0  0
  -26.2617  -29.1137   19.4027 C   0  0  2  0  0  0  0  0  0  0  0  0
  -20.9902  -22.0150   19.9954 C   0  0  0  0  0  0  0  0  0  0  0  0
  -22.6494  -16.1973   17.2987 C   0  0  0  0  0  0  0  0  0  0  0  0
  -21.7299  -18.5087   17.0154 C   0  0  0  0  0  0  0  0  0  0  0  0
  -20.5653  -16.8785   18.5017 C   0  0  0  0  0  0  0  0  0  0  0  0
  -23.5434  -21.3565   22.7383 C   0  0  0  0  0  0  0  0  0  0  0  0
  -31.5284  -18.1480   20.5836 C   0  0  0  0  0  0  0  0  0  1  0  0
  -22.7603  -17.8871   19.2477 C   0  0  1  0  0  0  0  0  0  0  0  0
  -21.8382  -21.1597   20.9239 C   0  0  2  0  0  0  0  0  0  0  0  0
  -21.9522  -17.3639   18.0268 C   0  0  0  0  0  0  0  0  0  0  0  0
  -24.2052  -28.8376   20.7362 N   0  0  0  0  0  0  0  0  0  0  0  0
  -25.2047  -29.6492   20.3512 N   0  0  0  0  0  0  0  0  0  0  0  0
  -33.6259  -21.0221   19.5713 N   0  0  0  0  0  0  0  0  0  0  0  0
  -24.3802  -16.5248   20.5299 N   0  0  0  0  0  0  0  0  0  0  0  0
  -27.6143  -27.1390   18.7563 N   0  0  0  0  0  0  0  0  0  0  0  0
  -26.0603  -31.8434   20.6049 N   0  0  0  0  0  0  0  0  0  0  0  0
  -22.6368  -32.9147   21.8404 N   0  0  0  0  0  0  0  0  0  0  0  0
  -29.5430  -25.8456   18.3446 N   0  0  0  0  0  0  0  0  0  0  0  0
  -24.1141  -13.1635   20.5181 N   0  0  0  0  0  0  0  0  0  0  0  0
  -22.1111  -18.9741   19.9725 N   0  0  0  0  0  0  0  0  0  0  0  0
  -22.6753  -22.0639   21.7621 N   0  3  0  0  0  0  0  0  0  0  0  0
  -35.0443  -22.7597   18.9687 O   0  0  0  0  0  0  0  0  0  0  0  0
  -23.9030  -32.2291   23.6251 O   0  0  0  0  0  0  0  0  0  0  0  0
  -25.9364  -14.3064   19.6262 O   0  0  0  0  0  0  0  0  0  0  0  0
  -22.0837  -16.2337   20.8081 O   0  0  0  0  0  0  0  0  0  0  0  0
  -23.8298  -20.5102   19.7202 O   0  0  0  0  0  0  0  0  0  0  0  0
  -28.5592  -25.8797   20.4541 O   0  0  0  0  0  0  0  0  0  0  0  0
  -18.8719  -27.5919   23.9853 O   0  0  0  0  0  0  0  0  0  0  0  0
  -30.2618  -18.2894   19.9417 O   0  0  0  0  0  0  0  0  0  1  0  0
  -13.9943  -29.2159   21.9915 F   0  0  0  0  0  0  0  0  0  0  0  0
  -31.3184  -25.2203   16.2872 F   0  0  0  0  0  0  0  0  0  0  0  0
  -17.0691  -25.7547   22.9768 F   0  0  0  0  0  0  0  0  0  0  0  0
  1  2  1  0  0  0  0
  1  6  2  0  0  0  0
  2  7  2  0  0  0  0
  3 10  2  0  0  0  0
  3 18  1  0  0  0  0
  4 11  1  0  0  0  0
  4 18  2  0  0  0  0
  5  9  2  0  0  0  0
  5 19  1  0  0  0  0
  6 21  1  0  0  0  0
  7 23  1  0  0  0  0
  8 12  2  0  0  0  0
  8 22  1  0  0  0  0
  9 25  1  0  0  0  0
 10 26  1  0  0  0  0
 11 26  2  0  0  0  0
 12 27  1  0  0  0  0
 13 14  2  0  0  0  0
 13 28  1  0  0  0  0
 14 29  1  0  0  0  0
 15 19  2  0  0  0  0
 15 30  1  0  0  0  0
 16 24  1  0  0  0  0
 16 27  2  0  0  0  0
 17 29  2  0  0  0  0
 17 31  1  0  0  0  0
 18 32  1  0  0  0  0
 19 34  1  0  0  0  0
 20 32  1  0  0  0  0
 20 33  2  0  0  0  0
 20 35  1  0  0  0  0
 21 23  2  0  0  0  0
 21 40  1  0  0  0  0
 22 24  2  0  0  0  0
 22 41  1  0  0  0  0
 23 52  1  0  0  0  0
 24 42  1  0  0  0  0
 25 30  2  0  0  0  0
 25 72  1  0  0  0  0
 26 82  1  0  0  0  0
 27 83  1  0  0  0  0
 28 31  2  0  0  0  0
 28 82  1  0  0  0  0
 29 84  1  0  0  0  0
 30 85  1  0  0  0  0
 31 86  1  0  0  0  0
 32 65  2  0  0  0  0
 33 66  1  0  0  0  0
 33 70  1  0  0  0  0
 34 67  1  0  0  0  0
 34 76  2  0  0  0  0
 35 71  1  0  0  0  0
 35 77  2  0  0  0  0
 36 53  1  0  0  0  0
 36 73  1  0  0  0  0
 36 78  2  0  0  0  0
 37 62  1  0  0  0  0
 37 68  1  0  0  0  0
 37 79  2  0  0  0  0
 38 63  1  0  0  0  0
 38 74  1  0  0  0  0
 38 80  2  0  0  0  0
 39 69  1  0  0  0  0
 39 72  1  0  0  0  0
 39 81  2  0  0  0  0
 40 43  1  0  0  0  0
 41 53  1  0  0  0  0
 42 68  1  0  0  0  0
 43 45  1  0  0  0  0
 44 46  1  0  0  0  0
 44 48  1  0  0  0  0
 45 52  1  0  0  0  0
 46 55  1  0  0  0  0
 47 49  1  0  0  0  0
 47 54  1  0  0  0  0
 48 69  1  0  0  0  0
 49 67  1  0  0  0  0
 50 54  1  0  0  0  0
 50 67  1  0  0  0  0
 51 55  1  0  0  0  0
 51 69  1  0  0  0  0
 52 73  1  0  0  0  0
 53 68  1  0  0  0  0
 54 61  1  0  0  0  0
 55 66  1  0  0  0  0
 56 63  1  0  0  0  0
 57 64  1  0  0  0  0
 58 64  1  0  0  0  0
 59 64  1  0  0  0  0
 60 75  1  0  0  0  0
 61 83  1  0  0  0  0
 62 64  1  0  0  0  0
 62 74  1  0  0  0  0
 63 75  1  0  0  0  0
 65 66  1  0  0  0  0
M  CHG  1  75   1
M  ISO  4  39 100  61 101  72 100  83 101
M  END
> <Batch ID>
0099

> <Smiles>
CNC(C)C(=O)NC(C(=O)N1Cc2cc([101O:1][101CH2:1]C3CCN(C(=O)c4ccc([100NH:0][100C:0](=O)N5CCCC(n6nc(-c7ccc(Oc8ccc(F)cc8F)cc7)c(C(N)=O)c6N)C5)c(F)c4)C3)ccc2CC1C(=O)NC1CCCc2ccccc21)C(C)(C)C

> <Shape>
0.251

> <Color>
0.076

> <Negative vol penalty>
0.000

$$$$

  -OEChem-04052300543D

 83 91  0     1  0  0  0  0  0999 V2000
  -22.5828   -7.4371   24.6427 C   0  0  0  0  0  0  0  0  0  0  0  0
  -23.6889   -8.2307   24.9292 C   0  0  0  0  0  0  0  0  0  0  0  0
  -22.7519  -29.5828   21.2487 C   0  0  0  0  0  0  0  0  0  0  0  0
  -24.0443  -28.9638   23.1938 C   0  0  0  0  0  0  0  0  0  0  0  0
  -29.9622  -22.0116   23.8628 C   0  0  0  0  0  0  0  0  0  0  0  0
  -22.0182   -7.4642   23.3682 C   0  0  0  0  0  0  0  0  0  0  0  0
  -24.2318   -9.0511   23.9410 C   0  0  0  0  0  0  0  0  0  0  0  0
  -26.7801  -14.5647   24.7234 C   0  0  0  0  0  0  0  0  0  0  0  0
  -29.5238  -22.9580   22.9367 C   0  0  0  0  0  0  0  0  0  0  0  0
  -21.6437  -29.8221   22.0612 C   0  0  0  0  0  0  0  0  0  0  0  0
  -22.9361  -29.2031   24.0063 C   0  0  0  0  0  0  0  0  0  0  0  0
  -28.1075  -14.9784   24.8266 C   0  0  0  0  0  0  0  0  0  0  0  0
  -19.2598  -28.0030   23.6208 C   0  0  0  0  0  0  0  0  0  0  0  0
  -18.0273  -27.5059   23.1973 C   0  0  0  0  0  0  0  0  0  0  0  0
  -28.1191  -15.5082   22.4732 C   0  0  0  0  0  0  0  0  0  0  0  0
  -29.1465  -21.2019   21.3208 C   0  0  0  0  0  0  0  0  0  0  0  0
  -17.1352  -29.7509   23.1589 C   0  0  0  0  0  0  0  0  0  0  0  0
  -23.9522  -29.1536   21.8150 C   0  0  0  0  0  0  0  0  0  0  0  0
  -29.9929  -20.6603   23.5179 C   0  0  0  0  0  0  0  0  0  0  0  0
  -26.0955  -29.8268   20.6063 C   0  0  0  0  0  0  0  0  0  0  0  0
  -22.5485   -8.2926   22.3666 C   0  0  0  0  0  0  0  0  0  0  0  0
  -26.1145  -14.6095   23.4900 C   0  0  0  0  0  0  0  0  0  0  0  0
  -23.6745   -9.0883   22.6515 C   0  0  0  0  0  0  0  0  0  0  0  0
  -26.7825  -15.0969   22.3576 C   0  0  0  0  0  0  0  0  0  0  0  0
  -29.1159  -22.5532   21.6657 C   0  0  0  0  0  0  0  0  0  0  0  0
  -21.7358  -29.6323   23.4400 C   0  0  0  0  0  0  0  0  0  0  0  0
  -28.7781  -15.4475   23.7009 C   0  0  0  0  0  0  0  0  0  0  0  0
  -19.4301  -29.3740   23.8134 C   0  0  0  0  0  0  0  0  0  0  0  0
  -16.9650  -28.3799   22.9663 C   0  0  0  0  0  0  0  0  0  0  0  0
  -29.5850  -20.2555   22.2469 C   0  0  0  0  0  0  0  0  0  0  0  0
  -18.3678  -30.2479   23.5825 C   0  0  0  0  0  0  0  0  0  0  0  0
  -25.0972  -28.9057   20.9761 C   0  0  0  0  0  0  0  0  0  0  0  0
  -26.9504  -29.1052   19.8096 C   0  0  0  0  0  0  0  0  0  0  0  0
  -30.4633  -19.6562   24.5067 C   0  0  0  0  0  0  0  0  0  0  0  0
  -26.2373  -31.2110   20.9520 C   0  0  0  0  0  0  0  0  0  0  0  0
  -24.7844  -12.4455   21.5790 C   0  0  0  0  0  0  0  0  0  0  0  0
  -23.8379  -15.0654   19.9169 C   0  0  0  0  0  0  0  0  0  0  0  0
  -24.3567  -18.3573   18.5342 C   0  0  0  0  0  0  0  0  0  0  0  0
  -28.2317  -23.2817   19.4221 C   0  0  0  0  0  0  0  0  0  0  0  0
  -21.9330   -8.2526   20.9903 C   0  0  0  0  0  0  0  0  0  0  0  0
  -24.6744  -14.1847   23.4008 C   0  0  0  0  0  0  0  0  0  0  0  0
  -26.1065  -15.1841   21.0144 C   0  0  0  0  0  0  0  0  0  0  0  0
  -22.3383   -9.4301   20.1074 C   0  0  0  0  0  0  0  0  0  0  0  0
  -27.0201  -25.3739   16.8084 C   0  0  0  0  0  0  0  0  0  0  0  0
  -23.8441   -9.6613   20.1840 C   0  0  0  0  0  0  0  0  0  0  0  0
  -26.4859  -26.6035   17.5464 C   0  0  0  0  0  0  0  0  0  0  0  0
  -26.7600  -24.0866   17.5887 C   0  0  0  0  0  0  0  0  0  0  0  0
  -26.6995  -25.3264   19.7168 C   0  0  0  0  0  0  0  0  0  0  0  0
  -24.2768  -10.0100   21.6132 C   0  0  1  0  0  0  0  0  0  0  0  0
  -24.2540  -13.7904   21.9883 C   0  0  1  0  0  0  0  0  0  0  0  0
  -26.9957  -26.6539   19.0001 C   0  0  2  0  0  0  0  0  0  0  0  0
  -22.7976  -19.8570   17.2623 C   0  0  0  0  0  0  0  0  0  0  0  0
  -25.1012  -13.7992   17.4449 C   0  0  0  0  0  0  0  0  0  0  0  0
  -25.0086  -16.0413   16.3347 C   0  0  0  0  0  0  0  0  0  0  0  0
  -22.8986  -14.9113   17.0373 C   0  0  0  0  0  0  0  0  0  0  0  0
  -24.7566  -20.5844   20.4419 C   0  0  0  0  0  0  0  0  0  0  0  0
  -31.5573  -17.4502   24.8106 C   0  0  0  0  0  0  0  0  0  0  0  0
  -30.4921  -16.3952   25.0500 C   0  0  0  0  0  0  0  0  0  1  0  0
  -24.4252  -15.8915   18.7981 C   0  0  1  0  0  0  0  0  0  0  0  0
  -23.4070  -19.5385   18.6188 C   0  0  2  0  0  0  0  0  0  0  0  0
  -24.3720  -15.1575   17.4285 C   0  0  0  0  0  0  0  0  0  0  0  0
  -25.2980  -27.6916   20.4569 N   0  0  0  0  0  0  0  0  0  0  0  0
  -26.4323  -27.8448   19.7526 N   0  0  0  0  0  0  0  0  0  0  0  0
  -24.6999  -14.7511   20.9770 N   0  0  0  0  0  0  0  0  0  0  0  0
  -27.2737  -24.2062   18.9550 N   0  0  0  0  0  0  0  0  0  0  0  0
  -28.0873  -29.4321   19.1591 N   0  0  0  0  0  0  0  0  0  0  0  0
  -25.2693  -31.7954   21.7802 N   0  0  0  0  0  0  0  0  0  0  0  0
  -28.6706  -23.5147   20.7250 N   0  0  0  0  0  0  0  0  0  0  0  0
  -31.0717  -18.5224   23.9830 N   0  0  0  0  0  0  0  0  0  0  0  0
  -23.9593  -11.3893   21.9151 N   0  0  0  0  0  0  0  0  0  0  0  0
  -23.7196  -17.1682   18.8196 N   0  0  0  0  0  0  0  0  0  0  0  0
  -24.1276  -20.7486   19.1061 N   0  3  0  0  0  0  0  0  0  0  0  0
  -30.2787  -19.8607   25.7036 O   0  0  0  0  0  0  0  0  0  0  0  0
  -27.1852  -31.9132   20.5254 O   0  0  0  0  0  0  0  0  0  0  0  0
  -25.8618  -12.3717   20.9997 O   0  0  0  0  0  0  0  0  0  0  0  0
  -22.6559  -14.7181   19.8559 O   0  0  0  0  0  0  0  0  0  0  0  0
  -25.5441  -18.4770   18.2404 O   0  0  0  0  0  0  0  0  0  0  0  0
  -28.6534  -22.3678   18.7086 O   0  0  0  0  0  0  0  0  0  0  0  0
  -20.6546  -29.8659   24.2331 O   0  0  0  0  0  0  0  0  0  0  0  0
  -30.0740  -15.8513   23.7987 O   0  0  0  0  0  0  0  0  0  1  0  0
  -15.7819  -27.9026   22.5582 F   0  0  0  0  0  0  0  0  0  0  0  0
  -29.6106  -18.9595   21.9043 F   0  0  0  0  0  0  0  0  0  0  0  0
  -18.5256  -31.5661   23.7647 F   0  0  0  0  0  0  0  0  0  0  0  0
  1  2  1  0  0  0  0
  1  6  2  0  0  0  0
  2  7  2  0  0  0  0
  3 10  2  0  0  0  0
  3 18  1  0  0  0  0
  4 11  1  0  0  0  0
  4 18  2  0  0  0  0
  5  9  2  0  0  0  0
  5 19  1  0  0  0  0
  6 21  1  0  0  0  0
  7 23  1  0  0  0  0
  8 12  2  0  0  0  0
  8 22  1  0  0  0  0
  9 25  1  0  0  0  0
 10 26  1  0  0  0  0
 11 26  2  0  0  0  0
 12 27  1  0  0  0  0
 13 14  2  0  0  0  0
 13 28  1  0  0  0  0
 14 29  1  0  0  0  0
 15 24  1  0  0  0  0
 15 27  2  0  0  0  0
 16 25  2  0  0  0  0
 16 30  1  0  0  0  0
 17 29  2  0  0  0  0
 17 31  1  0  0  0  0
 18 32  1  0  0  0  0
 19 30  2  0  0  0  0
 19 34  1  0  0  0  0
 20 32  1  0  0  0  0
 20 33  2  0  0  0  0
 20 35  1  0  0  0  0
 21 23  2  0  0  0  0
 21 40  1  0  0  0  0
 22 24  2  0  0  0  0
 22 41  1  0  0  0  0
 23 49  1  0  0  0  0
 24 42  1  0  0  0  0
 25 68  1  0  0  0  0
 26 79  1  0  0  0  0
 27 80  1  0  0  0  0
 28 31  2  0  0  0  0
 28 79  1  0  0  0  0
 29 81  1  0  0  0  0
 30 82  1  0  0  0  0
 31 83  1  0  0  0  0
 32 62  2  0  0  0  0
 33 63  1  0  0  0  0
 33 66  1  0  0  0  0
 34 69  1  0  0  0  0
 34 73  2  0  0  0  0
 35 67  1  0  0  0  0
 35 74  2  0  0  0  0
 36 50  1  0  0  0  0
 36 70  1  0  0  0  0
 36 75  2  0  0  0  0
 37 59  1  0  0  0  0
 37 64  1  0  0  0  0
 37 76  2  0  0  0  0
 38 60  1  0  0  0  0
 38 71  1  0  0  0  0
 38 77  2  0  0  0  0
 39 65  1  0  0  0  0
 39 68  1  0  0  0  0
 39 78  2  0  0  0  0
 40 43  1  0  0  0  0
 41 50  1  0  0  0  0
 42 64  1  0  0  0  0
 43 45  1  0  0  0  0
 44 46  1  0  0  0  0
 44 47  1  0  0  0  0
 45 49  1  0  0  0  0
 46 51  1  0  0  0  0
 47 65  1  0  0  0  0
 48 51  1  0  0  0  0
 48 65  1  0  0  0  0
 49 70  1  0  0  0  0
 50 64  1  0  0  0  0
 51 63  1  0  0  0  0
 52 60  1  0  0  0  0
 53 61  1  0  0  0  0
 54 61  1  0  0  0  0
 55 61  1  0  0  0  0
 56 72  1  0  0  0  0
 57 58  1  0  0  0  0
 57 69  1  0  0  0  0
 58 80  1  0  0  0  0
 59 61  1  0  0  0  0
 59 71  1  0  0  0  0
 60 72  1  0  0  0  0
 62 63  1  0  0  0  0
M  CHG  1  72   1
M  ISO  4  39 100  58 101  68 100  80 101
M  END
> <Batch ID>
0099

> <Smiles>
CNC(C)C(=O)NC(C(=O)N1Cc2cc([101O:1][101CH2:1]CNC(=O)c3ccc([100NH:0][100C:0](=O)N4CCCC(n5nc(-c6ccc(Oc7ccc(F)cc7F)cc6)c(C(N)=O)c5N)C4)cc3F)ccc2CC1C(=O)NC1CCCc2ccccc21)C(C)(C)C

> <Shape>
0.234

> <Color>
0.078

> <Negative vol penalty>
0.000

$$$$

  -OEChem-04052300543D

 86 95  0     1  0  0  0  0  0999 V2000
  -29.2823  -30.2984   27.0251 C   0  0  0  0  0  0  0  0  0  0  0  0
  -28.9280  -29.4046   26.0195 C   0  0  0  0  0  0  0  0  0  0  0  0
  -24.5461   -8.4281   21.4116 C   0  0  0  0  0  0  0  0  0  0  0  0
  -23.7667  -10.3408   22.6651 C   0  0  0  0  0  0  0  0  0  0  0  0
  -28.3200  -31.1440   27.5754 C   0  0  0  0  0  0  0  0  0  0  0  0
  -27.6109  -29.3553   25.5644 C   0  0  0  0  0  0  0  0  0  0  0  0
  -27.3068  -29.1670   20.5130 C   0  0  0  0  0  0  0  0  0  0  0  0
  -29.3297  -19.3039   20.7131 C   0  0  0  0  0  0  0  0  0  0  0  0
  -29.5570  -17.9280   20.6852 C   0  0  0  0  0  0  0  0  0  0  0  0
  -24.0364   -7.5775   22.3926 C   0  0  0  0  0  0  0  0  0  0  0  0
  -23.2569   -9.4902   23.6461 C   0  0  0  0  0  0  0  0  0  0  0  0
  -27.5552  -27.9369   19.9055 C   0  0  0  0  0  0  0  0  0  0  0  0
  -21.0238   -6.3296   23.2871 C   0  0  0  0  0  0  0  0  0  0  0  0
  -20.3043   -5.2115   22.8655 C   0  0  0  0  0  0  0  0  0  0  0  0
  -25.1805  -27.5693   19.6928 C   0  0  0  0  0  0  0  0  0  0  0  0
  -27.4743  -18.9670   22.2234 C   0  0  0  0  0  0  0  0  0  0  0  0
  -21.8996   -3.7696   23.9669 C   0  0  0  0  0  0  0  0  0  0  0  0
  -24.4113   -9.8097   21.5479 C   0  0  0  0  0  0  0  0  0  0  0  0
  -24.2694  -11.1659   19.3919 C   0  0  0  0  0  0  0  0  0  0  0  0
  -26.9925  -31.1117   27.1200 C   0  0  0  0  0  0  0  0  0  0  0  0
  -25.9911  -29.6033   20.7251 C   0  0  0  0  0  0  0  0  0  0  0  0
  -26.6296  -30.2003   26.1100 C   0  0  0  0  0  0  0  0  0  0  0  0
  -24.9182  -28.8064   20.3008 C   0  0  0  0  0  0  0  0  0  0  0  0
  -28.2885  -19.8234   21.4822 C   0  0  0  0  0  0  0  0  0  0  0  0
  -28.7428  -17.0715   21.4264 C   0  0  0  0  0  0  0  0  0  0  0  0
  -23.3918   -8.1085   23.5098 C   0  0  0  0  0  0  0  0  0  0  0  0
  -26.4920  -27.1365   19.4980 C   0  0  0  0  0  0  0  0  0  0  0  0
  -22.1813   -6.1677   24.0486 C   0  0  0  0  0  0  0  0  0  0  0  0
  -20.7422   -3.9315   23.2054 C   0  0  0  0  0  0  0  0  0  0  0  0
  -27.7015  -17.5910   22.1955 C   0  0  0  0  0  0  0  0  0  0  0  0
  -22.6191   -4.8877   24.3885 C   0  0  0  0  0  0  0  0  0  0  0  0
  -24.9381  -10.6889   20.5352 C   0  0  0  0  0  0  0  0  0  0  0  0
  -25.1949  -11.9591   18.7587 C   0  0  0  0  0  0  0  0  0  0  0  0
  -22.9313  -10.9146   18.9425 C   0  0  0  0  0  0  0  0  0  0  0  0
  -24.2476  -30.3094   23.2874 C   0  0  0  0  0  0  0  0  0  0  0  0
  -22.0742  -31.2458   21.0689 C   0  0  0  0  0  0  0  0  0  0  0  0
  -20.8960  -30.9845   17.8767 C   0  0  0  0  0  0  0  0  0  0  0  0
  -29.9659  -14.9981   20.6839 C   0  0  0  0  0  0  0  0  0  0  0  0
  -25.9772  -32.0120   27.7783 C   0  0  0  0  0  0  0  0  0  0  0  0
  -25.7402  -30.9448   21.3575 C   0  0  0  0  0  0  0  0  0  0  0  0
  -23.4873  -29.2383   20.4873 C   0  0  0  0  0  0  0  0  0  0  0  0
  -24.6848  -32.1592   26.9792 C   0  0  0  0  0  0  0  0  0  0  0  0
  -29.9216  -12.4668   18.1803 C   0  0  0  0  0  0  0  0  0  0  0  0
  -24.1932  -30.7958   26.5034 C   0  0  0  0  0  0  0  0  0  0  0  0
  -28.5751  -11.7710   18.3922 C   0  0  0  0  0  0  0  0  0  0  0  0
  -25.4876  -22.3938   19.2475 C   0  0  0  0  0  0  0  0  0  0  0  0
  -30.5548  -12.8919   19.5041 C   0  0  0  0  0  0  0  0  0  0  0  0
  -28.3444  -13.0040   20.5861 C   0  0  0  0  0  0  0  0  0  0  0  0
  -26.4011  -21.2267   19.5852 C   0  0  0  0  0  0  0  0  0  0  0  0
  -27.4435  -23.3596   20.1667 C   0  0  0  0  0  0  0  0  0  0  0  0
  -25.2166  -30.1344   25.5725 C   0  0  1  0  0  0  0  0  0  0  0  0
  -24.3562  -31.0581   21.9892 C   0  0  1  0  0  0  0  0  0  0  0  0
  -26.4420  -23.5619   19.0426 C   0  0  2  0  0  0  0  0  0  0  0  0
  -27.6375  -12.6153   19.2773 C   0  0  2  0  0  0  0  0  0  0  0  0
  -29.2518  -22.1014   22.0072 C   0  0  0  0  0  0  0  0  0  0  0  0
  -19.0835  -31.8446   16.3693 C   0  0  0  0  0  0  0  0  0  0  0  0
  -20.0585  -29.4235   22.4568 C   0  0  0  0  0  0  0  0  0  0  0  0
  -18.6172  -29.5794   20.4156 C   0  0  0  0  0  0  0  0  0  0  0  0
  -19.1400  -31.6335   21.7310 C   0  0  0  0  0  0  0  0  0  0  0  0
  -22.8565  -32.1760   16.0069 C   0  0  0  0  0  0  0  0  0  0  0  0
  -25.7569  -24.9106   19.0968 C   0  0  0  0  0  0  0  0  0  1  0  0
  -28.0414  -21.3141   21.5117 C   0  0  1  0  0  0  0  0  0  0  0  0
  -20.9498  -30.5699   20.3220 C   0  0  1  0  0  0  0  0  0  0  0  0
  -20.5112  -32.0397   16.8555 C   0  0  2  0  0  0  0  0  0  0  0  0
  -19.7182  -30.2923   21.2295 C   0  0  0  0  0  0  0  0  0  0  0  0
  -26.1917  -11.1411   20.6256 N   0  0  0  0  0  0  0  0  0  0  0  0
  -26.3180  -11.9105   19.5310 N   0  0  0  0  0  0  0  0  0  0  0  0
  -23.2935  -30.5552   21.1162 N   0  0  0  0  0  0  0  0  0  0  0  0
  -29.6103  -13.6916   20.2872 N   0  0  0  0  0  0  0  0  0  0  0  0
  -25.1494  -12.6862   17.6222 N   0  0  0  0  0  0  0  0  0  0  0  0
  -22.1142  -10.0759   19.7128 N   0  0  0  0  0  0  0  0  0  0  0  0
  -28.9756  -15.6742   21.3958 N   0  0  0  0  0  0  0  0  0  0  0  0
  -25.1496  -30.7196   24.2506 N   0  0  0  0  0  0  0  0  0  0  0  0
  -20.6627  -31.4128   19.1664 N   0  0  0  0  0  0  0  0  0  0  0  0
  -27.6469  -21.8599   20.1772 N   0  3  1  0  0  0  0  0  0  0  0  0
  -21.4217  -31.9767   15.6773 N   0  3  0  0  0  0  0  0  0  0  0  0
  -22.4791  -11.4057   17.8805 O   0  0  0  0  0  0  0  0  0  0  0  0
  -23.4068  -29.4261   23.4070 O   0  0  0  0  0  0  0  0  0  0  0  0
  -21.8799  -32.3491   21.5851 O   0  0  0  0  0  0  0  0  0  0  0  0
  -21.3541  -29.8883   17.5616 O   0  0  0  0  0  0  0  0  0  0  0  0
  -31.0574  -15.4915   20.3886 O   0  0  0  0  0  0  0  0  0  0  0  0
  -22.8941   -7.2788   24.4671 O   0  0  0  0  0  0  0  0  0  0  0  0
  -26.7316  -25.9351   18.9054 O   0  0  0  0  0  0  0  0  0  1  0  0
  -20.0503   -2.8580   22.8018 F   0  0  0  0  0  0  0  0  0  0  0  0
  -26.9119  -16.7770   22.9106 F   0  0  0  0  0  0  0  0  0  0  0  0
  -23.7297   -4.7259   25.1208 F   0  0  0  0  0  0  0  0  0  0  0  0
  1  2  1  0  0  0  0
  1  5  2  0  0  0  0
  2  6  2  0  0  0  0
  3 10  2  0  0  0  0
  3 18  1  0  0  0  0
  4 11  1  0  0  0  0
  4 18  2  0  0  0  0
  5 20  1  0  0  0  0
  6 22  1  0  0  0  0
  7 12  2  0  0  0  0
  7 21  1  0  0  0  0
  8  9  2  0  0  0  0
  8 24  1  0  0  0  0
  9 25  1  0  0  0  0
 10 26  1  0  0  0  0
 11 26  2  0  0  0  0
 12 27  1  0  0  0  0
 13 14  2  0  0  0  0
 13 28  1  0  0  0  0
 14 29  1  0  0  0  0
 15 23  1  0  0  0  0
 15 27  2  0  0  0  0
 16 24  2  0  0  0  0
 16 30  1  0  0  0  0
 17 29  2  0  0  0  0
 17 31  1  0  0  0  0
 18 32  1  0  0  0  0
 19 32  1  0  0  0  0
 19 33  2  0  0  0  0
 19 34  1  0  0  0  0
 20 22  2  0  0  0  0
 20 39  1  0  0  0  0
 21 23  2  0  0  0  0
 21 40  1  0  0  0  0
 22 51  1  0  0  0  0
 23 41  1  0  0  0  0
 24 62  1  0  0  0  0
 25 30  2  0  0  0  0
 25 72  1  0  0  0  0
 26 82  1  0  0  0  0
 27 83  1  0  0  0  0
 28 31  2  0  0  0  0
 28 82  1  0  0  0  0
 29 84  1  0  0  0  0
 30 85  1  0  0  0  0
 31 86  1  0  0  0  0
 32 66  2  0  0  0  0
 33 67  1  0  0  0  0
 33 70  1  0  0  0  0
 34 71  1  0  0  0  0
 34 77  2  0  0  0  0
 35 52  1  0  0  0  0
 35 73  1  0  0  0  0
 35 78  2  0  0  0  0
 36 63  1  0  0  0  0
 36 68  1  0  0  0  0
 36 79  2  0  0  0  0
 37 64  1  0  0  0  0
 37 74  1  0  0  0  0
 37 80  2  0  0  0  0
 38 69  1  0  0  0  0
 38 72  1  0  0  0  0
 38 81  2  0  0  0  0
 39 42  1  0  0  0  0
 40 52  1  0  0  0  0
 41 68  1  0  0  0  0
 42 44  1  0  0  0  0
 43 45  1  0  0  0  0
 43 47  1  0  0  0  0
 44 51  1  0  0  0  0
 45 54  1  0  0  0  0
 46 49  1  0  0  0  0
 46 53  1  0  0  0  0
 47 69  1  0  0  0  0
 48 54  1  0  0  0  0
 48 69  1  0  0  0  0
 49 75  1  0  0  0  0
 50 53  1  0  0  0  0
 50 75  1  0  0  0  0
 51 73  1  0  0  0  0
 52 68  1  0  0  0  0
 53 61  1  0  0  0  0
 54 67  1  0  0  0  0
 55 62  1  0  0  0  0
 56 64  1  0  0  0  0
 57 65  1  0  0  0  0
 58 65  1  0  0  0  0
 59 65  1  0  0  0  0
 60 76  1  0  0  0  0
 61 83  1  0  0  0  0
 62 75  1  0  0  0  0
 63 65  1  0  0  0  0
 63 74  1  0  0  0  0
 64 76  1  0  0  0  0
 66 67  1  0  0  0  0
M  CHG  2  75   1  76   1
M  ISO  4  38 100  61 101  72 100  83 101
M  END
> <Batch ID>
0099

> <Smiles>
CNC(C)C(=O)NC(C(=O)N1Cc2cc([101O:1][101CH2:1]C3CCN(C(C)c4ccc([100NH:0][100C:0](=O)N5CCCC(n6nc(-c7ccc(Oc8ccc(F)cc8F)cc7)c(C(N)=O)c6N)C5)c(F)c4)C3)ccc2CC1C(=O)NC1CCCc2ccccc21)C(C)(C)C

> <Shape>
0.305

> <Color>
0.111

> <Negative vol penalty>
0.000

$$$$

  -OEChem-04052300543D

 85 93  0     1  0  0  0  0  0999 V2000
  -29.9414  -23.6334   25.4915 C   0  0  0  0  0  0  0  0  0  0  0  0
  -30.0276  -23.9637   24.1428 C   0  0  0  0  0  0  0  0  0  0  0  0
  -26.3839  -12.2933   21.5994 C   0  0  0  0  0  0  0  0  0  0  0  0
  -25.8517  -13.1899   19.4200 C   0  0  0  0  0  0  0  0  0  0  0  0
  -28.7010  -23.6246   26.1280 C   0  0  0  0  0  0  0  0  0  0  0  0
  -28.8731  -24.2844   23.4296 C   0  0  0  0  0  0  0  0  0  0  0  0
  -28.3620  -28.3713   18.8972 C   0  0  0  0  0  0  0  0  0  0  0  0
  -25.1938  -11.5658   21.5907 C   0  0  0  0  0  0  0  0  0  0  0  0
  -24.6616  -12.4624   19.4113 C   0  0  0  0  0  0  0  0  0  0  0  0
  -28.3521  -28.2367   17.5096 C   0  0  0  0  0  0  0  0  0  0  0  0
  -24.0300   -8.7102   20.2034 C   0  0  0  0  0  0  0  0  0  0  0  0
  -24.0827   -7.3765   20.6083 C   0  0  0  0  0  0  0  0  0  0  0  0
  -25.9400  -28.2326   17.5331 C   0  0  0  0  0  0  0  0  0  0  0  0
  -29.6683  -22.8689   17.1552 C   0  0  0  0  0  0  0  0  0  0  0  0
  -27.2907  -22.4954   16.9435 C   0  0  0  0  0  0  0  0  0  0  0  0
  -22.5216   -7.8554   22.3890 C   0  0  0  0  0  0  0  0  0  0  0  0
  -26.7128  -13.1054   20.5141 C   0  0  0  0  0  0  0  0  0  0  0  0
  -29.1977  -13.4395   20.0438 C   0  0  0  0  0  0  0  0  0  0  0  0
  -27.5319  -23.9548   25.4245 C   0  0  0  0  0  0  0  0  0  0  0  0
  -27.1589  -28.4267   19.6155 C   0  0  0  0  0  0  0  0  0  0  0  0
  -27.6157  -24.2788   24.0569 C   0  0  0  0  0  0  0  0  0  0  0  0
  -25.9372  -28.3705   18.9296 C   0  0  0  0  0  0  0  0  0  0  0  0
  -29.7341  -21.8889   18.1455 C   0  0  0  0  0  0  0  0  0  0  0  0
  -27.3566  -21.5153   17.9338 C   0  0  0  0  0  0  0  0  0  0  0  0
  -28.4465  -23.1722   16.5542 C   0  0  0  0  0  0  0  0  0  0  0  0
  -28.5783  -21.2121   18.5348 C   0  0  0  0  0  0  0  0  0  0  0  0
  -24.3327  -11.6503   20.4967 C   0  0  0  0  0  0  0  0  0  0  0  0
  -27.1410  -28.1645   16.8276 C   0  0  0  0  0  0  0  0  0  0  0  0
  -23.2233   -9.6166   20.8914 C   0  0  0  0  0  0  0  0  0  0  0  0
  -23.3285   -6.9491   21.7010 C   0  0  0  0  0  0  0  0  0  0  0  0
  -22.4690   -9.1892   21.9841 C   0  0  0  0  0  0  0  0  0  0  0  0
  -27.9417  -13.8576   20.5227 C   0  0  0  0  0  0  0  0  0  0  0  0
  -30.0281  -14.5079   20.2796 C   0  0  0  0  0  0  0  0  0  0  0  0
  -29.5796  -12.1966   19.4397 C   0  0  0  0  0  0  0  0  0  0  0  0
  -25.8012  -26.6303   21.8590 C   0  0  0  0  0  0  0  0  0  0  0  0
  -23.6049  -29.0173   21.8911 C   0  0  0  0  0  0  0  0  0  0  0  0
  -27.2537  -24.5929   14.8509 C   0  0  0  0  0  0  0  0  0  0  0  0
  -22.1032  -31.5950   20.2337 C   0  0  0  0  0  0  0  0  0  0  0  0
  -29.0649  -20.3764   20.8610 C   0  0  0  0  0  0  0  0  0  0  0  0
  -26.2080  -23.8855   26.1437 C   0  0  0  0  0  0  0  0  0  0  0  0
  -27.1865  -28.5988   21.1095 C   0  0  0  0  0  0  0  0  0  0  0  0
  -24.6179  -28.4458   19.6522 C   0  0  0  0  0  0  0  0  0  0  0  0
  -25.0776  -24.6019   25.4092 C   0  0  0  0  0  0  0  0  0  0  0  0
  -30.5990  -18.2237   23.2463 C   0  0  0  0  0  0  0  0  0  0  0  0
  -25.0805  -24.2278   23.9304 C   0  0  0  0  0  0  0  0  0  0  0  0
  -30.2110  -16.8215   22.7715 C   0  0  0  0  0  0  0  0  0  0  0  0
  -29.4698  -19.2291   23.0278 C   0  0  0  0  0  0  0  0  0  0  0  0
  -28.5513  -17.8770   21.1846 C   0  0  0  0  0  0  0  0  0  0  0  0
  -26.3889  -24.6566   23.2554 C   0  0  1  0  0  0  0  0  0  0  0  0
  -25.9044  -28.1276   21.7890 C   0  0  1  0  0  0  0  0  0  0  0  0
  -29.6806  -16.8431   21.3245 C   0  0  2  0  0  0  0  0  0  0  0  0
  -31.0572  -21.5870   18.7717 C   0  0  0  0  0  0  0  0  0  0  0  0
  -26.1014  -20.8067   18.3297 C   0  0  0  0  0  0  0  0  0  0  0  0
  -20.3168  -33.3365   20.5045 C   0  0  0  0  0  0  0  0  0  0  0  0
  -21.4647  -26.8845   21.4661 C   0  0  0  0  0  0  0  0  0  0  0  0
  -19.8801  -28.7060   20.8034 C   0  0  0  0  0  0  0  0  0  0  0  0
  -20.8463  -28.6713   23.1029 C   0  0  0  0  0  0  0  0  0  0  0  0
  -24.0428  -33.8043   19.8925 C   0  0  0  0  0  0  0  0  0  0  0  0
  -27.6239  -25.6853   13.8572 C   0  0  0  0  0  0  0  0  0  0  0  0
  -26.4827  -26.6658   13.6100 C   0  0  0  0  0  0  0  0  0  0  0  0
  -26.0253  -27.3329   14.8990 C   0  0  0  0  0  0  0  0  0  1  0  0
  -22.3214  -29.2992   21.1480 C   0  0  1  0  0  0  0  0  0  0  0  0
  -21.7969  -33.0210   20.6548 C   0  0  2  0  0  0  0  0  0  0  0  0
  -21.1528  -28.3869   21.6164 C   0  0  0  0  0  0  0  0  0  0  0  0
  -27.9672  -15.0950   21.0250 N   0  0  0  0  0  0  0  0  0  0  0  0
  -29.2494  -15.4636   20.8631 N   0  0  0  0  0  0  0  0  0  0  0  0
  -24.6973  -28.6078   21.1133 N   0  0  0  0  0  0  0  0  0  0  0  0
  -29.0212  -19.1968   21.6340 N   0  0  0  0  0  0  0  0  0  0  0  0
  -31.3411  -14.7136   20.0429 N   0  0  0  0  0  0  0  0  0  0  0  0
  -28.6016  -11.2068   19.2721 N   0  0  0  0  0  0  0  0  0  0  0  0
  -28.3797  -24.1671   15.5500 N   0  0  0  0  0  0  0  0  0  0  0  0
  -28.6444  -20.2166   19.5411 N   0  0  0  0  0  0  0  0  0  0  0  0
  -26.3770  -26.0788   22.9876 N   0  0  0  0  0  0  0  0  0  0  0  0
  -22.0645  -30.7268   21.3041 N   0  0  0  0  0  0  0  0  0  0  0  0
  -22.5699  -33.9847   19.8213 N   0  3  0  0  0  0  0  0  0  0  0  0
  -30.7571  -11.9643   19.0747 O   0  0  0  0  0  0  0  0  0  0  0  0
  -25.2393  -26.0206   20.9566 O   0  0  0  0  0  0  0  0  0  0  0  0
  -23.6391  -29.1622   23.1156 O   0  0  0  0  0  0  0  0  0  0  0  0
  -26.1032  -24.1857   14.9722 O   0  0  0  0  0  0  0  0  0  0  0  0
  -22.3485  -31.2821   19.0707 O   0  0  0  0  0  0  0  0  0  0  0  0
  -29.4729  -21.4431   21.3274 O   0  0  0  0  0  0  0  0  0  0  0  0
  -23.1715  -10.9403   20.4877 O   0  0  0  0  0  0  0  0  0  0  0  0
  -27.1286  -28.0325   15.4732 O   0  0  0  0  0  0  0  0  0  1  0  0
  -23.3779   -5.6679   22.0888 F   0  0  0  0  0  0  0  0  0  0  0  0
  -21.6912  -10.0551   22.6482 F   0  0  0  0  0  0  0  0  0  0  0  0
  1  2  1  0  0  0  0
  1  5  2  0  0  0  0
  2  6  2  0  0  0  0
  3  8  2  0  0  0  0
  3 17  1  0  0  0  0
  4  9  1  0  0  0  0
  4 17  2  0  0  0  0
  5 19  1  0  0  0  0
  6 21  1  0  0  0  0
  7 10  2  0  0  0  0
  7 20  1  0  0  0  0
  8 27  1  0  0  0  0
  9 27  2  0  0  0  0
 10 28  1  0  0  0  0
 11 12  2  0  0  0  0
 11 29  1  0  0  0  0
 12 30  1  0  0  0  0
 13 22  1  0  0  0  0
 13 28  2  0  0  0  0
 14 23  2  0  0  0  0
 14 25  1  0  0  0  0
 15 24  1  0  0  0  0
 15 25  2  0  0  0  0
 16 30  2  0  0  0  0
 16 31  1  0  0  0  0
 17 32  1  0  0  0  0
 18 32  1  0  0  0  0
 18 33  2  0  0  0  0
 18 34  1  0  0  0  0
 19 21  2  0  0  0  0
 19 40  1  0  0  0  0
 20 22  2  0  0  0  0
 20 41  1  0  0  0  0
 21 49  1  0  0  0  0
 22 42  1  0  0  0  0
 23 26  1  0  0  0  0
 23 52  1  0  0  0  0
 24 26  2  0  0  0  0
 24 53  1  0  0  0  0
 25 71  1  0  0  0  0
 26 72  1  0  0  0  0
 27 82  1  0  0  0  0
 28 83  1  0  0  0  0
 29 31  2  0  0  0  0
 29 82  1  0  0  0  0
 30 84  1  0  0  0  0
 31 85  1  0  0  0  0
 32 65  2  0  0  0  0
 33 66  1  0  0  0  0
 33 69  1  0  0  0  0
 34 70  1  0  0  0  0
 34 76  2  0  0  0  0
 35 50  1  0  0  0  0
 35 73  1  0  0  0  0
 35 77  2  0  0  0  0
 36 62  1  0  0  0  0
 36 67  1  0  0  0  0
 36 78  2  0  0  0  0
 37 59  1  0  0  0  0
 37 71  1  0  0  0  0
 37 79  2  0  0  0  0
 38 63  1  0  0  0  0
 38 74  1  0  0  0  0
 38 80  2  0  0  0  0
 39 68  1  0  0  0  0
 39 72  1  0  0  0  0
 39 81  2  0  0  0  0
 40 43  1  0  0  0  0
 41 50  1  0  0  0  0
 42 67  1  0  0  0  0
 43 45  1  0  0  0  0
 44 46  1  0  0  0  0
 44 47  1  0  0  0  0
 45 49  1  0  0  0  0
 46 51  1  0  0  0  0
 47 68  1  0  0  0  0
 48 51  1  0  0  0  0
 48 68  1  0  0  0  0
 49 73  1  0  0  0  0
 50 67  1  0  0  0  0
 51 66  1  0  0  0  0
 54 63  1  0  0  0  0
 55 64  1  0  0  0  0
 56 64  1  0  0  0  0
 57 64  1  0  0  0  0
 58 75  1  0  0  0  0
 59 60  1  0  0  0  0
 60 61  1  0  0  0  0
 61 83  1  0  0  0  0
 62 64  1  0  0  0  0
 62 74  1  0  0  0  0
 63 75  1  0  0  0  0
 65 66  1  0  0  0  0
M  CHG  1  75   1
M  ISO  4  39 100  61 101  72 100  83 101
M  END
> <Batch ID>
0099

> <Smiles>
CNC(C)C(=O)NC(C(=O)N1Cc2cc([101O:1][101CH2:1]CCC(=O)Nc3cc(C)c([100NH:0][100C:0](=O)N4CCCC(n5nc(-c6ccc(Oc7ccc(F)cc7F)cc6)c(C(N)=O)c5N)C4)c(C)c3)ccc2CC1C(=O)NC1CCCc2ccccc21)C(C)(C)C

> <Shape>
0.234

> <Color>
0.075

> <Negative vol penalty>
0.000

$$$$

  -OEChem-04052300543D

 86 94  0     1  0  0  0  0  0999 V2000
  -22.4259   -8.2205   20.5571 C   0  0  0  0  0  0  0  0  0  0  0  0
  -21.8915   -9.4874   20.7686 C   0  0  0  0  0  0  0  0  0  0  0  0
  -26.5142  -32.3929   24.2236 C   0  0  0  0  0  0  0  0  0  0  0  0
  -26.3628  -33.8429   22.2970 C   0  0  0  0  0  0  0  0  0  0  0  0
  -26.9470  -22.2251   21.0629 C   0  0  0  0  0  0  0  0  0  0  0  0
  -23.7319   -7.9405   20.9568 C   0  0  0  0  0  0  0  0  0  0  0  0
  -22.6625  -10.4748   21.3810 C   0  0  0  0  0  0  0  0  0  0  0  0
  -22.5604  -16.4839   20.2037 C   0  0  0  0  0  0  0  0  0  0  0  0
  -25.7311  -21.7307   21.5347 C   0  0  0  0  0  0  0  0  0  0  0  0
  -26.4778  -33.5056   25.0639 C   0  0  0  0  0  0  0  0  0  0  0  0
  -26.3263  -34.9556   23.1373 C   0  0  0  0  0  0  0  0  0  0  0  0
  -21.9297  -17.5534   20.8378 C   0  0  0  0  0  0  0  0  0  0  0  0
  -26.0610  -35.9428   27.7288 C   0  0  0  0  0  0  0  0  0  0  0  0
  -25.2288  -35.8844   28.8466 C   0  0  0  0  0  0  0  0  0  0  0  0
  -23.9553  -18.0128   22.0646 C   0  0  0  0  0  0  0  0  0  0  0  0
  -24.5583  -23.4663   20.3308 C   0  0  0  0  0  0  0  0  0  0  0  0
  -23.3151  -35.5710   27.4055 C   0  0  0  0  0  0  0  0  0  0  0  0
  -26.4567  -32.5616   22.8401 C   0  0  0  0  0  0  0  0  0  0  0  0
  -26.9687  -23.3402   20.2251 C   0  0  0  0  0  0  0  0  0  0  0  0
  -25.3979  -30.6684   21.4975 C   0  0  0  0  0  0  0  0  0  0  0  0
  -24.5227   -8.9278   21.5656 C   0  0  0  0  0  0  0  0  0  0  0  0
  -23.8923  -16.1635   20.5038 C   0  0  0  0  0  0  0  0  0  0  0  0
  -23.9799  -10.2073   21.7904 C   0  0  0  0  0  0  0  0  0  0  0  0
  -24.6014  -16.9403   21.4310 C   0  0  0  0  0  0  0  0  0  0  0  0
  -24.5367  -22.3513   21.1686 C   0  0  0  0  0  0  0  0  0  0  0  0
  -25.7743  -23.9608   19.8591 C   0  0  0  0  0  0  0  0  0  0  0  0
  -26.3838  -34.7870   24.5208 C   0  0  0  0  0  0  0  0  0  0  0  0
  -22.6262  -18.3162   21.7706 C   0  0  0  0  0  0  0  0  0  0  0  0
  -25.5203  -35.8155   26.4493 C   0  0  0  0  0  0  0  0  0  0  0  0
  -23.8559  -35.6984   28.6850 C   0  0  0  0  0  0  0  0  0  0  0  0
  -24.1474  -35.6295   26.2876 C   0  0  0  0  0  0  0  0  0  0  0  0
  -26.4949  -31.4126   21.9715 C   0  0  0  0  0  0  0  0  0  0  0  0
  -25.9596  -29.6891   20.7153 C   0  0  0  0  0  0  0  0  0  0  0  0
  -28.2803  -23.8413   19.7399 C   0  0  0  0  0  0  0  0  0  0  0  0
  -23.9965  -30.8466   21.7423 C   0  0  0  0  0  0  0  0  0  0  0  0
  -25.3676  -13.6314   21.7348 C   0  0  0  0  0  0  0  0  0  0  0  0
  -28.0391  -15.3194   21.0027 C   0  0  0  0  0  0  0  0  0  0  0  0
  -22.0264  -22.3372   21.3830 C   0  0  0  0  0  0  0  0  0  0  0  0
  -29.4739  -18.3582   20.4080 C   0  0  0  0  0  0  0  0  0  0  0  0
  -29.7926  -25.7996   19.7783 C   0  0  0  0  0  0  0  0  0  0  0  0
  -25.9130   -8.5642   22.0234 C   0  0  0  0  0  0  0  0  0  0  0  0
  -24.5666  -15.0233   19.7914 C   0  0  0  0  0  0  0  0  0  0  0  0
  -26.0392  -16.6503   21.7736 C   0  0  0  0  0  0  0  0  0  0  0  0
  -26.7909   -9.7757   22.3261 C   0  0  0  0  0  0  0  0  0  0  0  0
  -30.7033  -29.1323   19.0295 C   0  0  0  0  0  0  0  0  0  0  0  0
  -26.0281  -10.7894   23.1731 C   0  0  0  0  0  0  0  0  0  0  0  0
  -29.5959  -29.9645   19.6817 C   0  0  0  0  0  0  0  0  0  0  0  0
  -31.0759  -27.9182   19.8793 C   0  0  0  0  0  0  0  0  0  0  0  0
  -28.8473  -27.8954   20.9236 C   0  0  0  0  0  0  0  0  0  0  0  0
  -24.7933  -11.3121   22.4291 C   0  0  1  0  0  0  0  0  0  0  0  0
  -25.7666  -14.4690   20.5529 C   0  0  1  0  0  0  0  0  0  0  0  0
  -28.3874  -29.0904   20.0730 C   0  0  1  0  0  0  0  0  0  0  0  0
  -19.5743  -22.1054   21.8098 C   0  0  0  0  0  0  0  0  0  0  0  0
  -31.6826  -19.4232   19.8743 C   0  0  0  0  0  0  0  0  0  0  0  0
  -28.9131  -14.9546   23.9032 C   0  0  0  0  0  0  0  0  0  0  0  0
  -30.5819  -16.7887   23.5580 C   0  0  0  0  0  0  0  0  0  0  0  0
  -30.7442  -14.6893   22.2206 C   0  0  0  0  0  0  0  0  0  0  0  0
  -28.4667  -19.4330   17.8410 C   0  0  0  0  0  0  0  0  0  0  0  0
  -20.9906  -20.0394   21.6631 C   0  0  0  0  0  0  0  0  0  1  0  0
  -28.8919  -16.3362   21.7222 C   0  0  1  0  0  0  0  0  0  0  0  0
  -20.9508  -21.5067   22.0969 C   0  0  1  0  0  0  0  0  0  0  0  0
  -30.4006  -18.8359   19.3046 C   0  0  2  0  0  0  0  0  0  0  0  0
  -29.7551  -15.6967   22.8462 C   0  0  0  0  0  0  0  0  0  0  0  0
  -27.6650  -30.9458   21.5277 N   0  0  0  0  0  0  0  0  0  0  0  0
  -27.3065  -29.8978   20.7666 N   0  0  0  0  0  0  0  0  0  0  0  0
  -26.6526  -15.5212   21.0550 N   0  0  0  0  0  0  0  0  0  0  0  0
  -29.8788  -27.1383   20.1986 N   0  0  0  0  0  0  0  0  0  0  0  0
  -25.7746  -25.0920   19.0130 N   0  0  0  0  0  0  0  0  0  0  0  0
  -25.4279  -28.6784   19.9955 N   0  0  0  0  0  0  0  0  0  0  0  0
  -23.5918  -31.9028   22.5699 N   0  0  0  0  0  0  0  0  0  0  0  0
  -23.3033  -21.8490   21.6477 N   0  0  0  0  0  0  0  0  0  0  0  0
  -28.5922  -25.1539   20.0950 N   0  0  0  0  0  0  0  0  0  0  0  0
  -25.1783  -12.2949   21.4390 N   0  0  0  0  0  0  0  0  0  0  0  0
  -29.6647  -17.0226   20.6927 N   0  0  0  0  0  0  0  0  0  0  0  0
  -29.7299  -19.8816   18.4814 N   0  3  0  0  0  0  0  0  0  0  0  0
  -29.0125  -23.0851   19.1075 O   0  0  0  0  0  0  0  0  0  0  0  0
  -23.1299  -30.0816   21.2552 O   0  0  0  0  0  0  0  0  0  0  0  0
  -25.2422  -14.1583   22.8340 O   0  0  0  0  0  0  0  0  0  0  0  0
  -28.5834  -14.3845   20.4099 O   0  0  0  0  0  0  0  0  0  0  0  0
  -21.7364  -23.3056   20.6865 O   0  0  0  0  0  0  0  0  0  0  0  0
  -28.6644  -19.0969   20.9644 O   0  0  0  0  0  0  0  0  0  0  0  0
  -30.6908  -25.2388   19.1427 O   0  0  0  0  0  0  0  0  0  0  0  0
  -26.3480  -35.8730   25.3405 O   0  0  0  0  0  0  0  0  0  0  0  0
  -22.0127  -19.3602   22.3915 O   0  0  0  0  0  0  0  0  0  1  0  0
  -23.0570  -35.6407   29.7586 F   0  0  0  0  0  0  0  0  0  0  0  0
  -23.6223  -35.5053   25.0610 F   0  0  0  0  0  0  0  0  0  0  0  0
  1  2  1  0  0  0  0
  1  6  2  0  0  0  0
  2  7  2  0  0  0  0
  3 10  2  0  0  0  0
  3 18  1  0  0  0  0
  4 11  1  0  0  0  0
  4 18  2  0  0  0  0
  5  9  2  0  0  0  0
  5 19  1  0  0  0  0
  6 21  1  0  0  0  0
  7 23  1  0  0  0  0
  8 12  2  0  0  0  0
  8 22  1  0  0  0  0
  9 25  1  0  0  0  0
 10 27  1  0  0  0  0
 11 27  2  0  0  0  0
 12 28  1  0  0  0  0
 13 14  2  0  0  0  0
 13 29  1  0  0  0  0
 14 30  1  0  0  0  0
 15 24  1  0  0  0  0
 15 28  2  0  0  0  0
 16 25  2  0  0  0  0
 16 26  1  0  0  0  0
 17 30  2  0  0  0  0
 17 31  1  0  0  0  0
 18 32  1  0  0  0  0
 19 26  2  0  0  0  0
 19 34  1  0  0  0  0
 20 32  1  0  0  0  0
 20 33  2  0  0  0  0
 20 35  1  0  0  0  0
 21 23  2  0  0  0  0
 21 41  1  0  0  0  0
 22 24  2  0  0  0  0
 22 42  1  0  0  0  0
 23 50  1  0  0  0  0
 24 43  1  0  0  0  0
 25 71  1  0  0  0  0
 26 68  1  0  0  0  0
 27 83  1  0  0  0  0
 28 84  1  0  0  0  0
 29 31  2  0  0  0  0
 29 83  1  0  0  0  0
 30 85  1  0  0  0  0
 31 86  1  0  0  0  0
 32 64  2  0  0  0  0
 33 65  1  0  0  0  0
 33 69  1  0  0  0  0
 34 72  1  0  0  0  0
 34 76  2  0  0  0  0
 35 70  1  0  0  0  0
 35 77  2  0  0  0  0
 36 51  1  0  0  0  0
 36 73  1  0  0  0  0
 36 78  2  0  0  0  0
 37 60  1  0  0  0  0
 37 66  1  0  0  0  0
 37 79  2  0  0  0  0
 38 61  1  0  0  0  0
 38 71  1  0  0  0  0
 38 80  2  0  0  0  0
 39 62  1  0  0  0  0
 39 74  1  0  0  0  0
 39 81  2  0  0  0  0
 40 67  1  0  0  0  0
 40 72  1  0  0  0  0
 40 82  2  0  0  0  0
 41 44  1  0  0  0  0
 42 51  1  0  0  0  0
 43 66  1  0  0  0  0
 44 46  1  0  0  0  0
 45 47  1  0  0  0  0
 45 48  1  0  0  0  0
 46 50  1  0  0  0  0
 47 52  1  0  0  0  0
 48 67  1  0  0  0  0
 49 52  1  0  0  0  0
 49 67  1  0  0  0  0
 50 73  1  0  0  0  0
 51 66  1  0  0  0  0
 52 65  1  0  0  0  0
 53 61  1  0  0  0  0
 54 62  1  0  0  0  0
 55 63  1  0  0  0  0
 56 63  1  0  0  0  0
 57 63  1  0  0  0  0
 58 75  1  0  0  0  0
 59 61  1  0  0  0  0
 59 84  1  0  0  0  0
 60 63  1  0  0  0  0
 60 74  1  0  0  0  0
 62 75  1  0  0  0  0
 64 65  1  0  0  0  0
M  CHG  1  75   1
M  ISO  4  40 100  59 101  72 100  84 101
M  END
> <Batch ID>
0099

> <Smiles>
CNC(C)C(=O)NC(C(=O)N1Cc2cc([101O:1][101CH2:1]C(C)C(=O)Nc3ccc(C(=O)[100NH:0][100C:0](=O)N4CCCC(n5nc(-c6ccc(Oc7ccc(F)cc7F)cc6)c(C(N)=O)c5N)C4)c(N)c3)ccc2CC1C(=O)NC1CCCc2ccccc21)C(C)(C)C

> <Shape>
0.264

> <Color>
0.051

> <Negative vol penalty>
0.000

$$$$

  -OEChem-04052300543D

 86 95  0     1  0  0  0  0  0999 V2000
  -25.0963  -28.2234   14.0992 C   0  0  0  0  0  0  0  0  0  0  0  0
  -26.1452  -27.7806   14.8987 C   0  0  0  0  0  0  0  0  0  0  0  0
  -22.8545  -11.3283   22.4883 C   0  0  0  0  0  0  0  0  0  0  0  0
  -23.4232   -9.6714   20.8245 C   0  0  0  0  0  0  0  0  0  0  0  0
  -24.3130  -29.3003   14.5124 C   0  0  0  0  0  0  0  0  0  0  0  0
  -26.4122  -28.4152   16.1113 C   0  0  0  0  0  0  0  0  0  0  0  0
  -27.2654  -25.1351   19.8740 C   0  0  0  0  0  0  0  0  0  0  0  0
  -32.4404  -18.3513   21.7647 C   0  0  0  0  0  0  0  0  0  0  0  0
  -31.9054  -17.1609   21.2723 C   0  0  0  0  0  0  0  0  0  0  0  0
  -22.0021  -10.4142   23.1074 C   0  0  0  0  0  0  0  0  0  0  0  0
  -22.5708   -8.7572   21.4436 C   0  0  0  0  0  0  0  0  0  0  0  0
  -28.5219  -24.5327   19.9209 C   0  0  0  0  0  0  0  0  0  0  0  0
  -22.6390   -6.7221   24.1407 C   0  0  0  0  0  0  0  0  0  0  0  0
  -23.1105   -5.4228   24.3277 C   0  0  0  0  0  0  0  0  0  0  0  0
  -29.2016  -26.0973   21.6265 C   0  0  0  0  0  0  0  0  0  0  0  0
  -30.2760  -19.4063   21.5663 C   0  0  0  0  0  0  0  0  0  0  0  0
  -21.2941   -4.5701   22.9821 C   0  0  0  0  0  0  0  0  0  0  0  0
  -23.5650  -10.9570   21.3468 C   0  0  0  0  0  0  0  0  0  0  0  0
  -24.0980  -13.1501   20.1579 C   0  0  0  0  0  0  0  0  0  0  0  0
  -24.5644  -29.9423   15.7352 C   0  0  0  0  0  0  0  0  0  0  0  0
  -26.9707  -26.2318   20.6966 C   0  0  0  0  0  0  0  0  0  0  0  0
  -25.6324  -29.5026   16.5406 C   0  0  0  0  0  0  0  0  0  0  0  0
  -27.9398  -26.7102   21.5900 C   0  0  0  0  0  0  0  0  0  0  0  0
  -31.6257  -19.4740   21.9117 C   0  0  0  0  0  0  0  0  0  0  0  0
  -30.5556  -17.0933   20.9269 C   0  0  0  0  0  0  0  0  0  0  0  0
  -29.7409  -18.2160   21.0739 C   0  0  0  0  0  0  0  0  0  0  0  0
  -21.8602   -9.1286   22.5851 C   0  0  0  0  0  0  0  0  0  0  0  0
  -29.4912  -25.0156   20.7951 C   0  0  0  0  0  0  0  0  0  0  0  0
  -21.4951   -6.9455   23.3744 C   0  0  0  0  0  0  0  0  0  0  0  0
  -22.4380   -4.3468   23.7484 C   0  0  0  0  0  0  0  0  0  0  0  0
  -20.8226   -5.8695   22.7951 C   0  0  0  0  0  0  0  0  0  0  0  0
  -24.4453  -11.9011   20.7066 C   0  0  0  0  0  0  0  0  0  0  0  0
  -25.2811  -13.6541   19.6755 C   0  0  0  0  0  0  0  0  0  0  0  0
  -33.2587  -20.6927   23.3254 C   0  0  0  0  0  0  0  0  0  0  0  0
  -22.8203  -13.7970   20.0904 C   0  0  0  0  0  0  0  0  0  0  0  0
  -26.1694  -29.2656   20.1886 C   0  0  0  0  0  0  0  0  0  0  0  0
  -25.7910  -29.2982   23.4101 C   0  0  0  0  0  0  0  0  0  0  0  0
  -27.5415  -27.9893   26.2806 C   0  0  0  0  0  0  0  0  0  0  0  0
  -30.7259  -14.6782   20.2308 C   0  0  0  0  0  0  0  0  0  0  0  0
  -23.7204  -31.1323   16.1174 C   0  0  0  0  0  0  0  0  0  0  0  0
  -25.6018  -26.8535   20.6531 C   0  0  0  0  0  0  0  0  0  0  0  0
  -27.6668  -27.8721   22.5086 C   0  0  0  0  0  0  0  0  0  0  0  0
  -33.9651  -22.0152   23.5561 C   0  0  0  0  0  0  0  0  0  0  0  0
  -23.8337  -31.5112   17.5918 C   0  0  0  0  0  0  0  0  0  0  0  0
  -33.0550  -23.2234   23.5230 C   0  0  0  0  0  0  0  0  0  0  0  0
  -29.7947  -11.4469   19.0608 C   0  0  0  0  0  0  0  0  0  0  0  0
  -25.2957  -31.5335   18.0264 C   0  0  0  0  0  0  0  0  0  0  0  0
  -28.2914  -11.3798   19.3395 C   0  0  0  0  0  0  0  0  0  0  0  0
  -30.5420  -12.2011   20.1592 C   0  0  0  0  0  0  0  0  0  0  0  0
  -31.4461  -21.9528   22.1300 C   0  0  0  0  0  0  0  0  0  0  0  0
  -28.5128  -13.4710   20.7411 C   0  0  0  0  0  0  0  0  0  0  0  0
  -25.9377  -30.1492   17.8742 C   0  0  1  0  0  0  0  0  0  0  0  0
  -25.5811  -28.2895   21.1678 C   0  0  1  0  0  0  0  0  0  0  0  0
  -32.2886  -23.2250   22.2106 C   0  0  1  0  0  0  0  0  0  0  0  0
  -27.7090  -12.7771   19.6294 C   0  0  2  0  0  0  0  0  0  0  0  0
  -26.6982  -27.3608   28.5590 C   0  0  0  0  0  0  0  0  0  0  0  0
  -26.6037  -32.1377   24.1762 C   0  0  0  0  0  0  0  0  0  0  0  0
  -27.3888  -31.2440   26.3792 C   0  0  0  0  0  0  0  0  0  0  0  0
  -24.9834  -31.0571   25.7452 C   0  0  0  0  0  0  0  0  0  0  0  0
  -28.6511  -25.2541   26.0641 C   0  0  0  0  0  0  0  0  0  0  0  0
  -31.4084  -24.4673   22.0911 C   0  0  0  0  0  0  0  0  0  1  0  0
  -26.6876  -29.5904   24.5890 C   0  0  1  0  0  0  0  0  0  0  0  0
  -27.0899  -26.8529   27.1801 C   0  0  2  0  0  0  0  0  0  0  0  0
  -26.4263  -30.9969   25.1980 C   0  0  0  0  0  0  0  0  0  0  0  0
  -25.7470  -11.6282   20.5844 N   0  0  0  0  0  0  0  0  0  0  0  0
  -26.2282  -12.7128   19.9534 N   0  0  0  0  0  0  0  0  0  0  0  0
  -32.1813  -20.7089   22.4229 N   0  0  0  0  0  0  0  0  0  0  0  0
  -26.3154  -28.4502   22.4244 N   0  0  0  0  0  0  0  0  0  0  0  0
  -29.9373  -13.5172   20.3758 N   0  0  0  0  0  0  0  0  0  0  0  0
  -28.3711  -18.1694   20.7304 N   0  0  0  0  0  0  0  0  0  0  0  0
  -25.5933  -14.8062   19.0448 N   0  0  0  0  0  0  0  0  0  0  0  0
  -22.0102  -13.5610   18.9712 N   0  0  0  0  0  0  0  0  0  0  0  0
  -30.0350  -15.8731   20.4292 N   0  0  0  0  0  0  0  0  0  0  0  0
  -25.5347  -29.2830   18.9613 N   0  0  0  0  0  0  0  0  0  0  0  0
  -26.5005  -28.4889   25.5270 N   0  0  0  0  0  0  0  0  0  0  0  0
  -28.1835  -25.8533   27.3406 N   0  3  0  0  0  0  0  0  0  0  0  0
  -33.7054  -19.6906   23.8902 O   0  0  0  0  0  0  0  0  0  0  0  0
  -22.4160  -14.5746   20.9879 O   0  0  0  0  0  0  0  0  0  0  0  0
  -27.1273  -29.9531   20.5224 O   0  0  0  0  0  0  0  0  0  0  0  0
  -24.6640  -29.7981   23.3689 O   0  0  0  0  0  0  0  0  0  0  0  0
  -28.7011  -28.3958   26.2521 O   0  0  0  0  0  0  0  0  0  0  0  0
  -31.9195  -14.6179   19.9244 O   0  0  0  0  0  0  0  0  0  0  0  0
  -21.0287   -8.2362   23.1890 O   0  0  0  0  0  0  0  0  0  0  0  0
  -30.7186  -24.4299   20.8425 O   0  0  0  0  0  0  0  0  0  1  0  0
  -22.8917   -3.0992   23.9268 F   0  0  0  0  0  0  0  0  0  0  0  0
  -19.7238   -6.0779   22.0569 F   0  0  0  0  0  0  0  0  0  0  0  0
  1  2  1  0  0  0  0
  1  5  2  0  0  0  0
  2  6  2  0  0  0  0
  3 10  2  0  0  0  0
  3 18  1  0  0  0  0
  4 11  1  0  0  0  0
  4 18  2  0  0  0  0
  5 20  1  0  0  0  0
  6 22  1  0  0  0  0
  7 12  2  0  0  0  0
  7 21  1  0  0  0  0
  8  9  2  0  0  0  0
  8 24  1  0  0  0  0
  9 25  1  0  0  0  0
 10 27  1  0  0  0  0
 11 27  2  0  0  0  0
 12 28  1  0  0  0  0
 13 14  2  0  0  0  0
 13 29  1  0  0  0  0
 14 30  1  0  0  0  0
 15 23  1  0  0  0  0
 15 28  2  0  0  0  0
 16 24  2  0  0  0  0
 16 26  1  0  0  0  0
 17 30  2  0  0  0  0
 17 31  1  0  0  0  0
 18 32  1  0  0  0  0
 19 32  1  0  0  0  0
 19 33  2  0  0  0  0
 19 35  1  0  0  0  0
 20 22  2  0  0  0  0
 20 40  1  0  0  0  0
 21 23  2  0  0  0  0
 21 41  1  0  0  0  0
 22 52  1  0  0  0  0
 23 42  1  0  0  0  0
 24 67  1  0  0  0  0
 25 26  2  0  0  0  0
 25 73  1  0  0  0  0
 26 70  1  0  0  0  0
 27 83  1  0  0  0  0
 28 84  1  0  0  0  0
 29 31  2  0  0  0  0
 29 83  1  0  0  0  0
 30 85  1  0  0  0  0
 31 86  1  0  0  0  0
 32 65  2  0  0  0  0
 33 66  1  0  0  0  0
 33 71  1  0  0  0  0
 34 43  1  0  0  0  0
 34 67  1  0  0  0  0
 34 77  2  0  0  0  0
 35 72  1  0  0  0  0
 35 78  2  0  0  0  0
 36 53  1  0  0  0  0
 36 74  1  0  0  0  0
 36 79  2  0  0  0  0
 37 62  1  0  0  0  0
 37 68  1  0  0  0  0
 37 80  2  0  0  0  0
 38 63  1  0  0  0  0
 38 75  1  0  0  0  0
 38 81  2  0  0  0  0
 39 69  1  0  0  0  0
 39 73  1  0  0  0  0
 39 82  2  0  0  0  0
 40 44  1  0  0  0  0
 41 53  1  0  0  0  0
 42 68  1  0  0  0  0
 43 45  1  0  0  0  0
 44 47  1  0  0  0  0
 45 54  1  0  0  0  0
 46 48  1  0  0  0  0
 46 49  1  0  0  0  0
 47 52  1  0  0  0  0
 48 55  1  0  0  0  0
 49 69  1  0  0  0  0
 50 54  1  0  0  0  0
 50 67  1  0  0  0  0
 51 55  1  0  0  0  0
 51 69  1  0  0  0  0
 52 74  1  0  0  0  0
 53 68  1  0  0  0  0
 54 61  1  0  0  0  0
 55 66  1  0  0  0  0
 56 63  1  0  0  0  0
 57 64  1  0  0  0  0
 58 64  1  0  0  0  0
 59 64  1  0  0  0  0
 60 76  1  0  0  0  0
 61 84  1  0  0  0  0
 62 64  1  0  0  0  0
 62 75  1  0  0  0  0
 63 76  1  0  0  0  0
 65 66  1  0  0  0  0
M  CHG  1  76   1
M  ISO  4  39 100  61 101  73 100  84 101
M  END
> <Batch ID>
0099

> <Smiles>
CNC(C)C(=O)NC(C(=O)N1Cc2cc([101O:1][101CH2:1]C3CCC(=O)N(c4ccc([100NH:0][100C:0](=O)N5CCCC(n6nc(-c7ccc(Oc8ccc(F)cc8F)cc7)c(C(N)=O)c6N)C5)c(N)c4)C3)ccc2CC1C(=O)NC1CCCc2ccccc21)C(C)(C)C

> <Shape>
0.256

> <Color>
0.133

> <Negative vol penalty>
0.000

$$$$

  -OEChem-04052300543D

 86 94  0     1  0  0  0  0  0999 V2000
  -27.3630  -32.6627   26.8661 C   0  0  0  0  0  0  0  0  0  0  0  0
  -28.1670  -31.5904   26.4930 C   0  0  0  0  0  0  0  0  0  0  0  0
  -22.4431  -22.8264   20.4785 C   0  0  0  0  0  0  0  0  0  0  0  0
  -20.6562  -22.5658   22.0836 C   0  0  0  0  0  0  0  0  0  0  0  0
  -26.0790  -32.7869   26.3371 C   0  0  0  0  0  0  0  0  0  0  0  0
  -27.6869  -30.6410   25.5916 C   0  0  0  0  0  0  0  0  0  0  0  0
  -29.9134  -26.2808   20.3621 C   0  0  0  0  0  0  0  0  0  0  0  0
  -21.9504  -24.0851   20.1343 C   0  0  0  0  0  0  0  0  0  0  0  0
  -20.1635  -23.8245   21.7394 C   0  0  0  0  0  0  0  0  0  0  0  0
  -29.8565  -24.9414   19.9792 C   0  0  0  0  0  0  0  0  0  0  0  0
  -18.6435  -27.1212   21.5406 C   0  0  0  0  0  0  0  0  0  0  0  0
  -18.2675  -27.9767   22.5761 C   0  0  0  0  0  0  0  0  0  0  0  0
  -28.3233  -13.5477   22.0962 C   0  0  0  0  0  0  0  0  0  0  0  0
  -27.8428  -15.6719   21.0504 C   0  0  0  0  0  0  0  0  0  0  0  0
  -27.6516  -25.3015   19.0693 C   0  0  0  0  0  0  0  0  0  0  0  0
  -29.8442  -15.4038   22.3768 C   0  0  0  0  0  0  0  0  0  0  0  0
  -20.5200  -27.9121   23.4473 C   0  0  0  0  0  0  0  0  0  0  0  0
  -21.7960  -22.0667   21.4531 C   0  0  0  0  0  0  0  0  0  0  0  0
  -27.4960  -14.3452   21.3055 C   0  0  0  0  0  0  0  0  0  0  0  0
  -23.2471  -20.4666   22.8102 C   0  0  0  0  0  0  0  0  0  0  0  0
  -25.5865  -31.8439   25.4214 C   0  0  0  0  0  0  0  0  0  0  0  0
  -28.8336  -27.1394   20.1108 C   0  0  0  0  0  0  0  0  0  0  0  0
  -26.3946  -30.7520   25.0509 C   0  0  0  0  0  0  0  0  0  0  0  0
  -27.6983  -26.6519   19.4477 C   0  0  0  0  0  0  0  0  0  0  0  0
  -29.4974  -14.0771   22.6319 C   0  0  0  0  0  0  0  0  0  0  0  0
  -29.0169  -16.2013   21.5860 C   0  0  0  0  0  0  0  0  0  0  0  0
  -20.8106  -24.5842   20.7647 C   0  0  0  0  0  0  0  0  0  0  0  0
  -28.7243  -24.4508   19.3353 C   0  0  0  0  0  0  0  0  0  0  0  0
  -19.9577  -26.6611   21.4584 C   0  0  0  0  0  0  0  0  0  0  0  0
  -19.2057  -28.3722   23.5295 C   0  0  0  0  0  0  0  0  0  0  0  0
  -20.8960  -27.0566   22.4118 C   0  0  0  0  0  0  0  0  0  0  0  0
  -22.3042  -20.7662   21.8088 C   0  0  0  0  0  0  0  0  0  0  0  0
  -23.3906  -19.1020   22.7496 C   0  0  0  0  0  0  0  0  0  0  0  0
  -26.2464  -13.7808   20.7339 C   0  0  0  0  0  0  0  0  0  0  0  0
  -23.9321  -21.3435   23.7144 C   0  0  0  0  0  0  0  0  0  0  0  0
  -26.8509  -28.8396   21.9224 C   0  0  0  0  0  0  0  0  0  0  0  0
  -25.8168  -29.9590   19.0589 C   0  0  0  0  0  0  0  0  0  0  0  0
  -28.6646  -18.4773   20.5672 C   0  0  0  0  0  0  0  0  0  0  0  0
  -25.5030  -29.4643   15.6968 C   0  0  0  0  0  0  0  0  0  0  0  0
  -23.9944  -14.3857   19.9054 C   0  0  0  0  0  0  0  0  0  0  0  0
  -24.1746  -31.9944   24.9128 C   0  0  0  0  0  0  0  0  0  0  0  0
  -28.9214  -28.5880   20.5062 C   0  0  0  0  0  0  0  0  0  0  0  0
  -26.5204  -27.5374   19.1365 C   0  0  0  0  0  0  0  0  0  0  0  0
  -23.8794  -31.1497   23.6760 C   0  0  0  0  0  0  0  0  0  0  0  0
  -20.6972  -15.6110   20.2571 C   0  0  0  0  0  0  0  0  0  0  0  0
  -24.3972  -29.7274   23.8649 C   0  0  0  0  0  0  0  0  0  0  0  0
  -20.8954  -17.0354   20.7825 C   0  0  0  0  0  0  0  0  0  0  0  0
  -21.7637  -15.2312   19.2309 C   0  0  0  0  0  0  0  0  0  0  0  0
  -23.3452  -16.8544   20.1912 C   0  0  0  0  0  0  0  0  0  0  0  0
  -25.9186  -29.7151   24.0567 C   0  0  1  0  0  0  0  0  0  0  0  0
  -27.5552  -29.2493   20.6600 C   0  0  1  0  0  0  0  0  0  0  0  0
  -22.3378  -17.2595   21.2793 C   0  0  1  0  0  0  0  0  0  0  0  0
  -24.5792  -30.5382   13.6254 C   0  0  0  0  0  0  0  0  0  0  0  0
  -22.9957  -29.1656   19.9087 C   0  0  0  0  0  0  0  0  0  0  0  0
  -22.2934  -29.3649   17.5139 C   0  0  0  0  0  0  0  0  0  0  0  0
  -23.1503  -31.3665   18.7311 C   0  0  0  0  0  0  0  0  0  0  0  0
  -28.1757  -29.5949   14.4325 C   0  0  0  0  0  0  0  0  0  0  0  0
  -29.3956  -19.8126   20.5464 C   0  0  0  0  0  0  0  0  0  0  0  0
  -28.6653  -20.8693   19.7248 C   0  0  0  0  0  0  0  0  0  0  0  0
  -29.3898  -22.2071   19.7579 C   0  0  0  0  0  0  0  0  0  1  0  0
  -24.7630  -29.5374   18.0636 C   0  0  1  0  0  0  0  0  0  0  0  0
  -25.8017  -30.3672   14.5136 C   0  0  2  0  0  0  0  0  0  0  0  0
  -23.3218  -29.8412   18.5618 C   0  0  0  0  0  0  0  0  0  0  0  0
  -21.8788  -19.6793   21.1594 N   0  0  0  0  0  0  0  0  0  0  0  0
  -22.5576  -18.6834   21.7541 N   0  0  0  0  0  0  0  0  0  0  0  0
  -26.6516  -28.9446   19.5488 N   0  0  0  0  0  0  0  0  0  0  0  0
  -23.1002  -15.4633   19.7816 N   0  0  0  0  0  0  0  0  0  0  0  0
  -30.3339  -13.2712   23.4319 N   0  0  0  0  0  0  0  0  0  0  0  0
  -24.1469  -18.2312   23.4512 N   0  0  0  0  0  0  0  0  0  0  0  0
  -23.6672  -22.7179   23.6416 N   0  0  0  0  0  0  0  0  0  0  0  0
  -29.3682  -17.5476   21.3277 N   0  0  0  0  0  0  0  0  0  0  0  0
  -25.2296  -14.7022   20.4818 N   0  0  0  0  0  0  0  0  0  0  0  0
  -26.5896  -29.8863   22.7859 N   0  0  0  0  0  0  0  0  0  0  0  0
  -25.1088  -30.1862   16.8035 N   0  0  0  0  0  0  0  0  0  0  0  0
  -26.9043  -29.7946   13.6905 N   0  3  0  0  0  0  0  0  0  0  0  0
  -26.1918  -12.5795   20.4851 O   0  0  0  0  0  0  0  0  0  0  0  0
  -24.7668  -20.9226   24.5508 O   0  0  0  0  0  0  0  0  0  0  0  0
  -26.5644  -27.6613   22.0993 O   0  0  0  0  0  0  0  0  0  0  0  0
  -25.9009  -31.1459   19.3842 O   0  0  0  0  0  0  0  0  0  0  0  0
  -27.6043  -18.3061   19.9749 O   0  0  0  0  0  0  0  0  0  0  0  0
  -25.6053  -28.2407   15.6435 O   0  0  0  0  0  0  0  0  0  0  0  0
  -23.7047  -13.2337   19.5674 O   0  0  0  0  0  0  0  0  0  0  0  0
  -20.3297  -25.8125   20.4293 O   0  0  0  0  0  0  0  0  0  0  0  0
  -28.6659  -23.1438   18.9611 O   0  0  0  0  0  0  0  0  0  1  0  0
  -18.8449  -29.1949   24.5230 F   0  0  0  0  0  0  0  0  0  0  0  0
  -22.1604  -26.6189   22.3374 F   0  0  0  0  0  0  0  0  0  0  0  0
  1  2  1  0  0  0  0
  1  5  2  0  0  0  0
  2  6  2  0  0  0  0
  3  8  2  0  0  0  0
  3 18  1  0  0  0  0
  4  9  1  0  0  0  0
  4 18  2  0  0  0  0
  5 21  1  0  0  0  0
  6 23  1  0  0  0  0
  7 10  2  0  0  0  0
  7 22  1  0  0  0  0
  8 27  1  0  0  0  0
  9 27  2  0  0  0  0
 10 28  1  0  0  0  0
 11 12  2  0  0  0  0
 11 29  1  0  0  0  0
 12 30  1  0  0  0  0
 13 19  2  0  0  0  0
 13 25  1  0  0  0  0
 14 19  1  0  0  0  0
 14 26  2  0  0  0  0
 15 24  1  0  0  0  0
 15 28  2  0  0  0  0
 16 25  2  0  0  0  0
 16 26  1  0  0  0  0
 17 30  2  0  0  0  0
 17 31  1  0  0  0  0
 18 32  1  0  0  0  0
 19 34  1  0  0  0  0
 20 32  1  0  0  0  0
 20 33  2  0  0  0  0
 20 35  1  0  0  0  0
 21 23  2  0  0  0  0
 21 41  1  0  0  0  0
 22 24  2  0  0  0  0
 22 42  1  0  0  0  0
 23 50  1  0  0  0  0
 24 43  1  0  0  0  0
 25 68  1  0  0  0  0
 26 71  1  0  0  0  0
 27 83  1  0  0  0  0
 28 84  1  0  0  0  0
 29 31  2  0  0  0  0
 29 83  1  0  0  0  0
 30 85  1  0  0  0  0
 31 86  1  0  0  0  0
 32 64  2  0  0  0  0
 33 65  1  0  0  0  0
 33 69  1  0  0  0  0
 34 72  1  0  0  0  0
 34 76  2  0  0  0  0
 35 70  1  0  0  0  0
 35 77  2  0  0  0  0
 36 51  1  0  0  0  0
 36 73  1  0  0  0  0
 36 78  2  0  0  0  0
 37 61  1  0  0  0  0
 37 66  1  0  0  0  0
 37 79  2  0  0  0  0
 38 58  1  0  0  0  0
 38 71  1  0  0  0  0
 38 80  2  0  0  0  0
 39 62  1  0  0  0  0
 39 74  1  0  0  0  0
 39 81  2  0  0  0  0
 40 67  1  0  0  0  0
 40 72  1  0  0  0  0
 40 82  2  0  0  0  0
 41 44  1  0  0  0  0
 42 51  1  0  0  0  0
 43 66  1  0  0  0  0
 44 46  1  0  0  0  0
 45 47  1  0  0  0  0
 45 48  1  0  0  0  0
 46 50  1  0  0  0  0
 47 52  1  0  0  0  0
 48 67  1  0  0  0  0
 49 52  1  0  0  0  0
 49 67  1  0  0  0  0
 50 73  1  0  0  0  0
 51 66  1  0  0  0  0
 52 65  1  0  0  0  0
 53 62  1  0  0  0  0
 54 63  1  0  0  0  0
 55 63  1  0  0  0  0
 56 63  1  0  0  0  0
 57 75  1  0  0  0  0
 58 59  1  0  0  0  0
 59 60  1  0  0  0  0
 60 84  1  0  0  0  0
 61 63  1  0  0  0  0
 61 74  1  0  0  0  0
 62 75  1  0  0  0  0
 64 65  1  0  0  0  0
M  CHG  1  75   1
M  ISO  4  40 100  60 101  72 100  84 101
M  END
> <Batch ID>
0099

> <Smiles>
CNC(C)C(=O)NC(C(=O)N1Cc2cc([101O:1][101CH2:1]CCC(=O)Nc3cc(N)cc(C(=O)[100NH:0][100C:0](=O)N4CCCC(n5nc(-c6ccc(Oc7ccc(F)cc7F)cc6)c(C(N)=O)c5N)C4)c3)ccc2CC1C(=O)NC1CCCc2ccccc21)C(C)(C)C

> <Shape>
0.265

> <Color>
0.054

> <Negative vol penalty>
0.000

$$$$

  -OEChem-04052300543D

 85 94  0     1  0  0  0  0  0999 V2000
  -30.5223  -24.6671   19.0729 C   0  0  0  0  0  0  0  0  0  0  0  0
  -29.1326  -24.7288   19.0493 C   0  0  0  0  0  0  0  0  0  0  0  0
  -27.7068  -16.0501   21.7714 C   0  0  0  0  0  0  0  0  0  0  0  0
  -25.9450  -16.6990   20.2507 C   0  0  0  0  0  0  0  0  0  0  0  0
  -31.2294  -25.2949   20.0975 C   0  0  0  0  0  0  0  0  0  0  0  0
  -28.4493  -25.4174   20.0509 C   0  0  0  0  0  0  0  0  0  0  0  0
  -23.2632  -28.6166   19.4383 C   0  0  0  0  0  0  0  0  0  0  0  0
  -20.0896  -24.9778   23.7539 C   0  0  0  0  0  0  0  0  0  0  0  0
  -20.8421  -23.9438   24.3108 C   0  0  0  0  0  0  0  0  0  0  0  0
  -27.6794  -14.7563   21.2510 C   0  0  0  0  0  0  0  0  0  0  0  0
  -25.9177  -15.4051   19.7303 C   0  0  0  0  0  0  0  0  0  0  0  0
  -21.9306  -28.3025   19.7017 C   0  0  0  0  0  0  0  0  0  0  0  0
  -28.8376  -13.1484   18.5112 C   0  0  0  0  0  0  0  0  0  0  0  0
  -30.0590  -12.5402   18.2217 C   0  0  0  0  0  0  0  0  0  0  0  0
  -22.1143  -29.3606   21.8617 C   0  0  0  0  0  0  0  0  0  0  0  0
  -19.8526  -23.7063   21.7133 C   0  0  0  0  0  0  0  0  0  0  0  0
  -29.5468  -10.7686   19.7826 C   0  0  0  0  0  0  0  0  0  0  0  0
  -26.8395  -17.0215   21.2713 C   0  0  0  0  0  0  0  0  0  0  0  0
  -27.6507  -19.4384   21.3614 C   0  0  0  0  0  0  0  0  0  0  0  0
  -30.5549  -25.9998   21.1068 C   0  0  0  0  0  0  0  0  0  0  0  0
  -24.0358  -29.2967   20.3908 C   0  0  0  0  0  0  0  0  0  0  0  0
  -29.1481  -26.0542   21.0906 C   0  0  0  0  0  0  0  0  0  0  0  0
  -23.4557  -29.6844   21.6070 C   0  0  0  0  0  0  0  0  0  0  0  0
  -19.5948  -24.8590   22.4551 C   0  0  0  0  0  0  0  0  0  0  0  0
  -21.0999  -22.7910   23.5690 C   0  0  0  0  0  0  0  0  0  0  0  0
  -26.7850  -14.4338   20.2304 C   0  0  0  0  0  0  0  0  0  0  0  0
  -21.3568  -28.6719   20.9147 C   0  0  0  0  0  0  0  0  0  0  0  0
  -27.9708  -12.5668   19.4365 C   0  0  0  0  0  0  0  0  0  0  0  0
  -30.4136  -11.3503   18.8574 C   0  0  0  0  0  0  0  0  0  0  0  0
  -20.6051  -22.6722   22.2702 C   0  0  0  0  0  0  0  0  0  0  0  0
  -28.3254  -11.3769   20.0721 C   0  0  0  0  0  0  0  0  0  0  0  0
  -26.8668  -18.3580   21.8088 C   0  0  0  0  0  0  0  0  0  0  0  0
  -27.3124  -20.4764   22.1948 C   0  0  0  0  0  0  0  0  0  0  0  0
  -18.2615  -25.9391   20.5883 C   0  0  0  0  0  0  0  0  0  0  0  0
  -28.5996  -19.4983   20.2883 C   0  0  0  0  0  0  0  0  0  0  0  0
  -26.6662  -28.6208   22.0423 C   0  0  0  0  0  0  0  0  0  0  0  0
  -26.3868  -31.7065   23.0029 C   0  0  0  0  0  0  0  0  0  0  0  0
  -24.3703  -34.4142   23.5020 C   0  0  0  0  0  0  0  0  0  0  0  0
  -22.4289  -21.7034   25.4121 C   0  0  0  0  0  0  0  0  0  0  0  0
  -31.3601  -26.6224   22.2197 C   0  0  0  0  0  0  0  0  0  0  0  0
  -25.4641  -29.6517   20.0806 C   0  0  0  0  0  0  0  0  0  0  0  0
  -24.2363  -30.4338   22.6547 C   0  0  0  0  0  0  0  0  0  0  0  0
  -17.5205  -27.2458   20.4314 C   0  0  0  0  0  0  0  0  0  0  0  0
  -30.5787  -27.6484   23.0365 C   0  0  0  0  0  0  0  0  0  0  0  0
  -17.3154  -27.7093   21.8611 C   0  0  0  0  0  0  0  0  0  0  0  0
  -25.7542  -21.3571   26.6367 C   0  0  0  0  0  0  0  0  0  0  0  0
  -29.2019  -27.1031   23.4021 C   0  0  0  0  0  0  0  0  0  0  0  0
  -26.4897  -20.6525   25.4945 C   0  0  0  0  0  0  0  0  0  0  0  0
  -24.3193  -20.8538   26.7831 C   0  0  0  0  0  0  0  0  0  0  0  0
  -24.2534  -20.1918   24.4111 C   0  0  0  0  0  0  0  0  0  0  0  0
  -28.3722  -26.8125   22.1456 C   0  0  1  0  0  0  0  0  0  0  0  0
  -26.3046  -29.8938   21.3306 C   0  0  1  0  0  0  0  0  0  0  0  0
  -25.6821  -20.7117   24.1830 C   0  0  2  0  0  0  0  0  0  0  0  0
  -18.5324  -27.1606   22.5976 C   0  0  2  0  0  0  0  0  0  0  0  0
  -24.4210  -36.7817   24.3326 C   0  0  0  0  0  0  0  0  0  0  0  0
  -26.5202  -30.6926   25.8777 C   0  0  0  0  0  0  0  0  0  0  0  0
  -25.6279  -32.9086   26.6270 C   0  0  0  0  0  0  0  0  0  0  0  0
  -27.8225  -32.7839   25.4476 C   0  0  0  0  0  0  0  0  0  0  0  0
  -23.4853  -35.4740   20.8843 C   0  0  0  0  0  0  0  0  0  0  0  0
  -19.7010  -28.1470   22.5391 C   0  0  0  0  0  0  0  0  0  1  0  0
  -25.6902  -32.4131   24.1407 C   0  0  1  0  0  0  0  0  0  0  0  0
  -24.5304  -35.8739   23.1173 C   0  0  2  0  0  0  0  0  0  0  0  0
  -26.4008  -32.1837   25.5045 C   0  0  0  0  0  0  0  0  0  0  0  0
  -26.0894  -18.6798   22.8461 N   0  0  0  0  0  0  0  0  0  0  0  0
  -26.3830  -19.9741   23.0575 N   0  0  0  0  0  0  0  0  0  0  0  0
  -18.8227  -25.9207   21.8829 N   0  0  0  0  0  0  0  0  0  0  0  0
  -25.6311  -30.7523   22.3070 N   0  0  0  0  0  0  0  0  0  0  0  0
  -23.6144  -20.9437   25.5025 N   0  0  0  0  0  0  0  0  0  0  0  0
  -27.7224  -21.7606   22.2667 N   0  0  0  0  0  0  0  0  0  0  0  0
  -28.8270  -18.3405   19.5320 N   0  0  0  0  0  0  0  0  0  0  0  0
  -21.8651  -21.7426   24.1373 N   0  0  0  0  0  0  0  0  0  0  0  0
  -27.8388  -28.0409   21.5970 N   0  0  0  0  0  0  0  0  0  0  0  0
  -25.5872  -33.8146   23.7488 N   0  0  0  0  0  0  0  0  0  0  0  0
  -23.4787  -36.2700   22.1386 N   0  3  0  0  0  0  0  0  0  0  0  0
  -18.3320  -25.1187   19.6846 O   0  0  0  0  0  0  0  0  0  0  0  0
  -29.2394  -20.5431   20.0188 O   0  0  0  0  0  0  0  0  0  0  0  0
  -25.9364  -28.1970   22.9307 O   0  0  0  0  0  0  0  0  0  0  0  0
  -27.5560  -31.9958   22.7367 O   0  0  0  0  0  0  0  0  0  0  0  0
  -23.2750  -33.8621   23.5797 O   0  0  0  0  0  0  0  0  0  0  0  0
  -21.9640  -22.2992   26.3872 O   0  0  0  0  0  0  0  0  0  0  0  0
  -26.7582  -13.1714   19.7222 O   0  0  0  0  0  0  0  0  0  0  0  0
  -20.0565  -28.3659   21.1745 O   0  0  0  0  0  0  0  0  0  1  0  0
  -31.5859  -10.7655   18.5782 F   0  0  0  0  0  0  0  0  0  0  0  0
  -20.8480  -21.5694   21.5473 F   0  0  0  0  0  0  0  0  0  0  0  0
  -27.4963  -10.8128   20.9611 F   0  0  0  0  0  0  0  0  0  0  0  0
  1  2  1  0  0  0  0
  1  5  2  0  0  0  0
  2  6  2  0  0  0  0
  3 10  2  0  0  0  0
  3 18  1  0  0  0  0
  4 11  1  0  0  0  0
  4 18  2  0  0  0  0
  5 20  1  0  0  0  0
  6 22  1  0  0  0  0
  7 12  2  0  0  0  0
  7 21  1  0  0  0  0
  8  9  2  0  0  0  0
  8 24  1  0  0  0  0
  9 25  1  0  0  0  0
 10 26  1  0  0  0  0
 11 26  2  0  0  0  0
 12 27  1  0  0  0  0
 13 14  2  0  0  0  0
 13 28  1  0  0  0  0
 14 29  1  0  0  0  0
 15 23  1  0  0  0  0
 15 27  2  0  0  0  0
 16 24  2  0  0  0  0
 16 30  1  0  0  0  0
 17 29  2  0  0  0  0
 17 31  1  0  0  0  0
 18 32  1  0  0  0  0
 19 32  1  0  0  0  0
 19 33  2  0  0  0  0
 19 35  1  0  0  0  0
 20 22  2  0  0  0  0
 20 40  1  0  0  0  0
 21 23  2  0  0  0  0
 21 41  1  0  0  0  0
 22 51  1  0  0  0  0
 23 42  1  0  0  0  0
 24 66  1  0  0  0  0
 25 30  2  0  0  0  0
 25 71  1  0  0  0  0
 26 81  1  0  0  0  0
 27 82  1  0  0  0  0
 28 31  2  0  0  0  0
 28 81  1  0  0  0  0
 29 83  1  0  0  0  0
 30 84  1  0  0  0  0
 31 85  1  0  0  0  0
 32 64  2  0  0  0  0
 33 65  1  0  0  0  0
 33 69  1  0  0  0  0
 34 43  1  0  0  0  0
 34 66  1  0  0  0  0
 34 75  2  0  0  0  0
 35 70  1  0  0  0  0
 35 76  2  0  0  0  0
 36 52  1  0  0  0  0
 36 72  1  0  0  0  0
 36 77  2  0  0  0  0
 37 61  1  0  0  0  0
 37 67  1  0  0  0  0
 37 78  2  0  0  0  0
 38 62  1  0  0  0  0
 38 73  1  0  0  0  0
 38 79  2  0  0  0  0
 39 68  1  0  0  0  0
 39 71  1  0  0  0  0
 39 80  2  0  0  0  0
 40 44  1  0  0  0  0
 41 52  1  0  0  0  0
 42 67  1  0  0  0  0
 43 45  1  0  0  0  0
 44 47  1  0  0  0  0
 45 54  1  0  0  0  0
 46 48  1  0  0  0  0
 46 49  1  0  0  0  0
 47 51  1  0  0  0  0
 48 53  1  0  0  0  0
 49 68  1  0  0  0  0
 50 53  1  0  0  0  0
 50 68  1  0  0  0  0
 51 72  1  0  0  0  0
 52 67  1  0  0  0  0
 53 65  1  0  0  0  0
 54 60  1  0  0  0  0
 54 66  1  0  0  0  0
 55 62  1  0  0  0  0
 56 63  1  0  0  0  0
 57 63  1  0  0  0  0
 58 63  1  0  0  0  0
 59 74  1  0  0  0  0
 60 82  1  0  0  0  0
 61 63  1  0  0  0  0
 61 73  1  0  0  0  0
 62 74  1  0  0  0  0
 64 65  1  0  0  0  0
M  CHG  1  74   1
M  ISO  4  39 100  60 101  71 100  82 101
M  END
> <Batch ID>
0099

> <Smiles>
CNC(C)C(=O)NC(C(=O)N1Cc2cc([101O:1][101CH2:1]C3CCC(=O)N3c3ccc([100NH:0][100C:0](=O)N4CCCC(n5nc(-c6ccc(Oc7ccc(F)cc7F)cc6)c(C(N)=O)c5N)C4)c(F)c3)ccc2CC1C(=O)NC1CCCc2ccccc21)C(C)(C)C

> <Shape>
0.298

> <Color>
0.069

> <Negative vol penalty>
0.000

$$$$

  -OEChem-04052300542D

  0  0  0     0  0  0  0  0  0999 V2000
M  END
$$$$

  -OEChem-04052300543D

 88 97  0     1  0  0  0  0  0999 V2000
  -26.5207  -38.2622   21.8968 C   0  0  0  0  0  0  0  0  0  0  0  0
  -27.1346  -37.2666   21.1436 C   0  0  0  0  0  0  0  0  0  0  0  0
  -22.3255  -10.3044   23.2296 C   0  0  0  0  0  0  0  0  0  0  0  0
  -23.4432  -10.3934   21.0895 C   0  0  0  0  0  0  0  0  0  0  0  0
  -25.8387  -37.9293   23.0664 C   0  0  0  0  0  0  0  0  0  0  0  0
  -27.0677  -35.9376   21.5601 C   0  0  0  0  0  0  0  0  0  0  0  0
  -26.7638  -29.2758   18.9439 C   0  0  0  0  0  0  0  0  0  0  0  0
  -25.1960  -20.3985   21.1759 C   0  0  0  0  0  0  0  0  0  0  0  0
  -23.9438  -19.8045   21.3326 C   0  0  0  0  0  0  0  0  0  0  0  0
  -21.8415   -9.0324   22.9240 C   0  0  0  0  0  0  0  0  0  0  0  0
  -22.9593   -9.1213   20.7839 C   0  0  0  0  0  0  0  0  0  0  0  0
  -27.4043  -28.0428   19.0598 C   0  0  0  0  0  0  0  0  0  0  0  0
  -20.6092   -5.6131   22.8564 C   0  0  0  0  0  0  0  0  0  0  0  0
  -20.6912   -4.6330   23.8456 C   0  0  0  0  0  0  0  0  0  0  0  0
  -26.1311  -27.5758   21.0548 C   0  0  0  0  0  0  0  0  0  0  0  0
  -24.3240  -21.7641   19.3837 C   0  0  0  0  0  0  0  0  0  0  0  0
  -23.0942   -4.8794   23.8904 C   0  0  0  0  0  0  0  0  0  0  0  0
  -23.1263  -10.9849   22.3124 C   0  0  0  0  0  0  0  0  0  0  0  0
  -24.4542  -12.6573   23.7078 C   0  0  0  0  0  0  0  0  0  0  0  0
  -25.7551  -36.5943   23.4923 C   0  0  0  0  0  0  0  0  0  0  0  0
  -25.8084  -29.6733   19.8903 C   0  0  0  0  0  0  0  0  0  0  0  0
  -26.3850  -35.5866   22.7371 C   0  0  0  0  0  0  0  0  0  0  0  0
  -25.4781  -28.8131   20.9472 C   0  0  0  0  0  0  0  0  0  0  0  0
  -25.3861  -21.3784   20.2014 C   0  0  0  0  0  0  0  0  0  0  0  0
  -22.8816  -20.1902   20.5148 C   0  0  0  0  0  0  0  0  0  0  0  0
  -22.1584   -8.4409   21.7012 C   0  0  0  0  0  0  0  0  0  0  0  0
  -27.0901  -27.1939   20.1169 C   0  0  0  0  0  0  0  0  0  0  0  0
  -21.7697   -6.2262   22.3842 C   0  0  0  0  0  0  0  0  0  0  0  0
  -21.9337   -4.2662   24.3626 C   0  0  0  0  0  0  0  0  0  0  0  0
  -23.0717  -21.1700   19.5403 C   0  0  0  0  0  0  0  0  0  0  0  0
  -23.0122   -5.8594   22.9012 C   0  0  0  0  0  0  0  0  0  0  0  0
  -23.6261  -12.2991   22.6273 C   0  0  0  0  0  0  0  0  0  0  0  0
  -24.6423  -14.0101   23.5626 C   0  0  0  0  0  0  0  0  0  0  0  0
  -27.8277  -21.2185   20.3544 C   0  0  0  0  0  0  0  0  0  0  0  0
  -26.7252  -23.3410   19.5828 C   0  0  0  0  0  0  0  0  0  0  0  0
  -25.0044  -11.8402   24.7497 C   0  0  0  0  0  0  0  0  0  0  0  0
  -25.5723  -32.0644   21.9713 C   0  0  0  0  0  0  0  0  0  0  0  0
  -22.6034  -30.8454   22.4421 C   0  0  0  0  0  0  0  0  0  0  0  0
  -21.1199  -27.5712   22.7529 C   0  0  0  0  0  0  0  0  0  0  0  0
  -21.4621  -18.2440   21.1383 C   0  0  0  0  0  0  0  0  0  0  0  0
  -25.0471  -36.2887   24.7884 C   0  0  0  0  0  0  0  0  0  0  0  0
  -25.1071  -30.9950   19.7361 C   0  0  0  0  0  0  0  0  0  0  0  0
  -24.4449  -29.1843   21.9784 C   0  0  0  0  0  0  0  0  0  0  0  0
  -29.1665  -21.9268   20.3398 C   0  0  0  0  0  0  0  0  0  0  0  0
  -24.7039  -34.8114   24.9615 C   0  0  0  0  0  0  0  0  0  0  0  0
  -29.0665  -23.4342   20.3322 C   0  0  0  0  0  0  0  0  0  0  0  0
  -24.8080  -17.4404   20.2425 C   0  0  0  0  0  0  0  0  0  0  0  0
  -25.9048  -33.9395   24.6086 C   0  0  0  0  0  0  0  0  0  0  0  0
  -24.9602  -16.0486   20.8551 C   0  0  0  0  0  0  0  0  0  0  0  0
  -23.4235  -17.6469   19.6273 C   0  0  0  0  0  0  0  0  0  0  0  0
  -22.4568  -15.9688   21.1681 C   0  0  0  0  0  0  0  0  0  0  0  0
  -26.3135  -34.1305   23.1430 C   0  0  1  0  0  0  0  0  0  0  0  0
  -28.1156  -23.8444   19.2221 C   0  0  2  0  0  0  0  0  0  0  0  0
  -24.5231  -31.5177   21.0450 C   0  0  1  0  0  0  0  0  0  0  0  0
  -23.8195  -15.7531   21.8449 C   0  0  1  0  0  0  0  0  0  0  0  0
  -18.7921  -26.7803   22.2500 C   0  0  0  0  0  0  0  0  0  0  0  0
  -22.0912  -31.3873   25.4008 C   0  0  0  0  0  0  0  0  0  0  0  0
  -20.6643  -29.3309   25.4589 C   0  0  0  0  0  0  0  0  0  0  0  0
  -20.0285  -31.2470   23.9936 C   0  0  0  0  0  0  0  0  0  0  0  0
  -20.3920  -20.4203   20.5961 C   0  0  0  0  0  0  0  0  0  0  0  0
  -22.1072  -25.4544   20.9354 C   0  0  0  0  0  0  0  0  0  0  0  0
  -28.1360  -25.3583   19.0248 C   0  0  0  0  0  0  0  0  0  1  0  0
  -22.0077  -29.8064   23.3612 C   0  0  1  0  0  0  0  0  0  0  0  0
  -20.2221  -26.8806   21.7423 C   0  0  2  0  0  0  0  0  0  0  0  0
  -21.2250  -30.4415   24.5451 C   0  0  0  0  0  0  0  0  0  0  0  0
  -23.3097  -13.3404   21.8528 N   0  0  0  0  0  0  0  0  0  0  0  0
  -23.9424  -14.3661   22.4475 N   0  0  0  0  0  0  0  0  0  0  0  0
  -26.6875  -21.9954   20.0380 N   0  0  0  0  0  0  0  0  0  0  0  0
  -23.7914  -30.4897   21.7879 N   0  0  0  0  0  0  0  0  0  0  0  0
  -22.3685  -17.3141   20.5950 N   0  0  0  0  0  0  0  0  0  0  0  0
  -25.3365  -14.9179   24.2813 N   0  0  0  0  0  0  0  0  0  0  0  0
  -26.2570  -11.2466   24.5422 N   0  0  0  0  0  0  0  0  0  0  0  0
  -25.4164  -33.4046   22.2695 N   0  0  0  0  0  0  0  0  0  0  0  0
  -21.2053  -28.9272   22.5177 N   0  0  0  0  0  0  0  0  0  0  0  0
  -21.5865  -19.5730   20.6791 N   0  0  0  0  0  0  0  0  0  0  0  0
  -20.7194  -25.5038   21.4632 N   0  3  0  0  0  0  0  0  0  0  0  0
  -27.8221  -19.9999   20.5567 O   0  0  0  0  0  0  0  0  0  0  0  0
  -25.7468  -24.0847   19.4869 O   0  0  0  0  0  0  0  0  0  0  0  0
  -24.3956  -11.6290   25.8259 O   0  0  0  0  0  0  0  0  0  0  0  0
  -26.4569  -31.3246   22.3860 O   0  0  0  0  0  0  0  0  0  0  0  0
  -22.0318  -31.9297   22.3040 O   0  0  0  0  0  0  0  0  0  0  0  0
  -21.6858  -26.9686   23.6625 O   0  0  0  0  0  0  0  0  0  0  0  0
  -20.5920  -17.9084   21.9508 O   0  0  0  0  0  0  0  0  0  0  0  0
  -21.6865   -7.1996   21.4027 O   0  0  0  0  0  0  0  0  0  0  0  0
  -27.7142  -25.9902   20.2328 O   0  0  0  0  0  0  0  0  0  1  0  0
  -22.0122   -3.3262   25.3135 F   0  0  0  0  0  0  0  0  0  0  0  0
  -22.0584  -21.5475   18.7476 F   0  0  0  0  0  0  0  0  0  0  0  0
  -24.1305   -6.4458   22.4523 F   0  0  0  0  0  0  0  0  0  0  0  0
  1  2  1  0  0  0  0
  1  5  2  0  0  0  0
  2  6  2  0  0  0  0
  3 10  2  0  0  0  0
  3 18  1  0  0  0  0
  4 11  1  0  0  0  0
  4 18  2  0  0  0  0
  5 20  1  0  0  0  0
  6 22  1  0  0  0  0
  7 12  2  0  0  0  0
  7 21  1  0  0  0  0
  8  9  2  0  0  0  0
  8 24  1  0  0  0  0
  9 25  1  0  0  0  0
 10 26  1  0  0  0  0
 11 26  2  0  0  0  0
 12 27  1  0  0  0  0
 13 14  2  0  0  0  0
 13 28  1  0  0  0  0
 14 29  1  0  0  0  0
 15 23  1  0  0  0  0
 15 27  2  0  0  0  0
 16 24  2  0  0  0  0
 16 30  1  0  0  0  0
 17 29  2  0  0  0  0
 17 31  1  0  0  0  0
 18 32  1  0  0  0  0
 19 32  1  0  0  0  0
 19 33  2  0  0  0  0
 19 36  1  0  0  0  0
 20 22  2  0  0  0  0
 20 41  1  0  0  0  0
 21 23  2  0  0  0  0
 21 42  1  0  0  0  0
 22 52  1  0  0  0  0
 23 43  1  0  0  0  0
 24 68  1  0  0  0  0
 25 30  2  0  0  0  0
 25 75  1  0  0  0  0
 26 84  1  0  0  0  0
 27 85  1  0  0  0  0
 28 31  2  0  0  0  0
 28 84  1  0  0  0  0
 29 86  1  0  0  0  0
 30 87  1  0  0  0  0
 31 88  1  0  0  0  0
 32 66  2  0  0  0  0
 33 67  1  0  0  0  0
 33 71  1  0  0  0  0
 34 44  1  0  0  0  0
 34 68  1  0  0  0  0
 34 77  2  0  0  0  0
 35 53  1  0  0  0  0
 35 68  1  0  0  0  0
 35 78  2  0  0  0  0
 36 72  1  0  0  0  0
 36 79  2  0  0  0  0
 37 54  1  0  0  0  0
 37 73  1  0  0  0  0
 37 80  2  0  0  0  0
 38 63  1  0  0  0  0
 38 69  1  0  0  0  0
 38 81  2  0  0  0  0
 39 64  1  0  0  0  0
 39 74  1  0  0  0  0
 39 82  2  0  0  0  0
 40 70  1  0  0  0  0
 40 75  1  0  0  0  0
 40 83  2  0  0  0  0
 41 45  1  0  0  0  0
 42 54  1  0  0  0  0
 43 69  1  0  0  0  0
 44 46  1  0  0  0  0
 45 48  1  0  0  0  0
 46 53  1  0  0  0  0
 47 49  1  0  0  0  0
 47 50  1  0  0  0  0
 48 52  1  0  0  0  0
 49 55  1  0  0  0  0
 50 70  1  0  0  0  0
 51 55  1  0  0  0  0
 51 70  1  0  0  0  0
 52 73  1  0  0  0  0
 53 62  1  0  0  0  0
 54 69  1  0  0  0  0
 55 67  1  0  0  0  0
 56 64  1  0  0  0  0
 57 65  1  0  0  0  0
 58 65  1  0  0  0  0
 59 65  1  0  0  0  0
 60 75  1  0  0  0  0
 61 76  1  0  0  0  0
 62 85  1  0  0  0  0
 63 65  1  0  0  0  0
 63 74  1  0  0  0  0
 64 76  1  0  0  0  0
 66 67  1  0  0  0  0
M  CHG  1  76   1
M  ISO  4  40 100  62 101  75 100  85 101
M  END
> <Batch ID>
0099

> <Smiles>
CNC(C)C(=O)NC(C(=O)N1Cc2cc([101O:1][101CH2:1]C3CCC(=O)N(c4ccc([100N:0](C)[100C:0](=O)N5CCCC(n6nc(-c7ccc(Oc8ccc(F)cc8F)cc7)c(C(N)=O)c6N)C5)c(F)c4)C3=O)ccc2CC1C(=O)NC1CCCc2ccccc21)C(C)(C)C

> <Shape>
0.267

> <Color>
0.101

> <Negative vol penalty>
0.000

$$$$

  -OEChem-04052300543D

 86 95  0     1  0  0  0  0  0999 V2000
  -28.0287  -23.4772   17.9334 C   0  0  0  0  0  0  0  0  0  0  0  0
  -26.8238  -23.8319   18.5317 C   0  0  0  0  0  0  0  0  0  0  0  0
  -16.2891  -22.0510   20.4686 C   0  0  0  0  0  0  0  0  0  0  0  0
  -24.7929  -14.2317   18.4315 C   0  0  0  0  0  0  0  0  0  0  0  0
  -25.1242  -14.0682   20.8191 C   0  0  0  0  0  0  0  0  0  0  0  0
  -15.8157  -23.0946   21.2637 C   0  0  0  0  0  0  0  0  0  0  0  0
  -29.2281  -23.9880   18.4278 C   0  0  0  0  0  0  0  0  0  0  0  0
  -26.8177  -24.6967   19.6255 C   0  0  0  0  0  0  0  0  0  0  0  0
  -23.2421  -28.2643   19.2615 C   0  0  0  0  0  0  0  0  0  0  0  0
  -17.5446  -21.4972   20.7195 C   0  0  0  0  0  0  0  0  0  0  0  0
  -24.7330  -12.8409   18.3446 C   0  0  0  0  0  0  0  0  0  0  0  0
  -25.0643  -12.6773   20.7322 C   0  0  0  0  0  0  0  0  0  0  0  0
  -21.9338  -27.8874   19.5614 C   0  0  0  0  0  0  0  0  0  0  0  0
  -24.6382   -9.0959   21.1902 C   0  0  0  0  0  0  0  0  0  0  0  0
  -23.8671   -8.4189   22.1350 C   0  0  0  0  0  0  0  0  0  0  0  0
  -22.1621  -28.8631   21.7557 C   0  0  0  0  0  0  0  0  0  0  0  0
  -21.9061   -9.6215   21.3963 C   0  0  0  0  0  0  0  0  0  0  0  0
  -24.9885  -14.8454   19.6688 C   0  0  0  0  0  0  0  0  0  0  0  0
  -16.5977  -23.5846   22.3097 C   0  0  0  0  0  0  0  0  0  0  0  0
  -25.9728  -17.1346   19.1225 C   0  0  0  0  0  0  0  0  0  0  0  0
  -29.2360  -24.8672   19.5222 C   0  0  0  0  0  0  0  0  0  0  0  0
  -24.0253  -28.9349   20.2119 C   0  0  0  0  0  0  0  0  0  0  0  0
  -28.0185  -25.2187   20.1358 C   0  0  0  0  0  0  0  0  0  0  0  0
  -23.4793  -29.2497   21.4645 C   0  0  0  0  0  0  0  0  0  0  0  0
  -18.3266  -21.9872   21.7654 C   0  0  0  0  0  0  0  0  0  0  0  0
  -24.8687  -12.0637   19.4949 C   0  0  0  0  0  0  0  0  0  0  0  0
  -21.3945  -28.1842   20.8097 C   0  0  0  0  0  0  0  0  0  0  0  0
  -24.0433  -10.0358   20.3484 C   0  0  0  0  0  0  0  0  0  0  0  0
  -22.5011   -8.6817   22.2380 C   0  0  0  0  0  0  0  0  0  0  0  0
  -22.6773  -10.2986   20.4515 C   0  0  0  0  0  0  0  0  0  0  0  0
  -17.8532  -23.0309   22.5605 C   0  0  0  0  0  0  0  0  0  0  0  0
  -25.0510  -16.2821   19.7592 C   0  0  0  0  0  0  0  0  0  0  0  0
  -25.6102  -18.3960   19.5275 C   0  0  0  0  0  0  0  0  0  0  0  0
  -16.0937  -24.6855   23.1458 C   0  0  0  0  0  0  0  0  0  0  0  0
  -27.0595  -16.8149   18.2436 C   0  0  0  0  0  0  0  0  0  0  0  0
  -26.7423  -28.2966   21.7330 C   0  0  0  0  0  0  0  0  0  0  0  0
  -26.3844  -31.3272   22.8328 C   0  0  0  0  0  0  0  0  0  0  0  0
  -24.2882  -33.9308   23.5214 C   0  0  0  0  0  0  0  0  0  0  0  0
  -20.2265  -20.3804   21.3257 C   0  0  0  0  0  0  0  0  0  0  0  0
  -30.5611  -25.3563   20.0509 C   0  0  0  0  0  0  0  0  0  0  0  0
  -25.4259  -29.3583   19.8634 C   0  0  0  0  0  0  0  0  0  0  0  0
  -24.2716  -29.9860   22.5126 C   0  0  0  0  0  0  0  0  0  0  0  0
  -30.4390  -26.5625   20.9786 C   0  0  0  0  0  0  0  0  0  0  0  0
  -23.3499  -19.9519   23.5130 C   0  0  0  0  0  0  0  0  0  0  0  0
  -29.3277  -26.3403   21.9996 C   0  0  0  0  0  0  0  0  0  0  0  0
  -24.3847  -19.6730   22.4255 C   0  0  0  0  0  0  0  0  0  0  0  0
  -17.5753  -27.9784   23.8968 C   0  0  0  0  0  0  0  0  0  0  0  0
  -22.1399  -20.7076   22.9787 C   0  0  0  0  0  0  0  0  0  0  0  0
  -16.4096  -27.0040   23.9668 C   0  0  0  0  0  0  0  0  0  0  0  0
  -18.0495  -26.1583   22.4235 C   0  0  0  0  0  0  0  0  0  0  0  0
  -22.2615  -18.9561   21.1973 C   0  0  0  0  0  0  0  0  0  0  0  0
  -27.9689  -26.1738   21.3086 C   0  0  1  0  0  0  0  0  0  0  0  0
  -26.3051  -29.5822   21.0898 C   0  0  1  0  0  0  0  0  0  0  0  0
  -18.1940  -27.6754   22.5302 C   0  0  2  0  0  0  0  0  0  0  0  0
  -23.7507  -19.3122   21.0675 C   0  0  2  0  0  0  0  0  0  0  0  0
  -24.2820  -36.2626   24.4486 C   0  0  0  0  0  0  0  0  0  0  0  0
  -26.6690  -30.2032   25.6552 C   0  0  0  0  0  0  0  0  0  0  0  0
  -25.7237  -32.3500   26.5304 C   0  0  0  0  0  0  0  0  0  0  0  0
  -27.8734  -32.3599   25.2649 C   0  0  0  0  0  0  0  0  0  0  0  0
  -23.2615  -35.0605   20.9860 C   0  0  0  0  0  0  0  0  0  0  0  0
  -19.6294  -28.1531   22.4032 C   0  0  0  0  0  0  0  0  0  1  0  0
  -25.7069  -31.9589   24.0249 C   0  0  1  0  0  0  0  0  0  0  0  0
  -24.3778  -35.4101   23.1929 C   0  0  2  0  0  0  0  0  0  0  0  0
  -26.4787  -31.7024   25.3500 C   0  0  0  0  0  0  0  0  0  0  0  0
  -24.1693  -16.9458   20.5116 N   0  0  0  0  0  0  0  0  0  0  0  0
  -24.5354  -18.2288   20.3503 N   0  0  0  0  0  0  0  0  0  0  0  0
  -16.8350  -25.8566   23.1791 N   0  0  0  0  0  0  0  0  0  0  0  0
  -25.6385  -30.3731   22.1263 N   0  0  0  0  0  0  0  0  0  0  0  0
  -21.5080  -20.0462   21.8278 N   0  0  0  0  0  0  0  0  0  0  0  0
  -26.1092  -19.6207   19.2565 N   0  0  0  0  0  0  0  0  0  0  0  0
  -28.3217  -16.5722   18.8026 N   0  0  0  0  0  0  0  0  0  0  0  0
  -19.6017  -21.4218   22.0170 N   0  0  0  0  0  0  0  0  0  0  0  0
  -27.4523  -27.4601   20.8929 N   0  0  0  0  0  0  0  0  0  0  0  0
  -25.5357  -33.3701   23.6967 N   0  0  0  0  0  0  0  0  0  0  0  0
  -23.2742  -35.8040   22.2721 N   0  3  0  0  0  0  0  0  0  0  0  0
  -15.0410  -24.4975   23.7526 O   0  0  0  0  0  0  0  0  0  0  0  0
  -26.9193  -16.7627   16.9982 O   0  0  0  0  0  0  0  0  0  0  0  0
  -26.4580  -28.0802   22.9052 O   0  0  0  0  0  0  0  0  0  0  0  0
  -27.5305  -31.6729   22.5352 O   0  0  0  0  0  0  0  0  0  0  0  0
  -23.2185  -33.3332   23.6170 O   0  0  0  0  0  0  0  0  0  0  0  0
  -19.7380  -19.7962   20.3562 O   0  0  0  0  0  0  0  0  0  0  0  0
  -24.8101  -10.7065   19.4104 O   0  0  0  0  0  0  0  0  0  0  0  0
  -20.1180  -27.8169   21.1052 O   0  0  0  0  0  0  0  0  0  1  0  0
  -21.7604   -8.0304   23.1443 F   0  0  0  0  0  0  0  0  0  0  0  0
  -22.1000  -11.1995   19.6448 F   0  0  0  0  0  0  0  0  0  0  0  0
  -18.6061  -23.5031   23.5658 F   0  0  0  0  0  0  0  0  0  0  0  0
  1  2  1  0  0  0  0
  1  7  2  0  0  0  0
  2  8  2  0  0  0  0
  3  6  2  0  0  0  0
  3 10  1  0  0  0  0
  4 11  2  0  0  0  0
  4 18  1  0  0  0  0
  5 12  1  0  0  0  0
  5 18  2  0  0  0  0
  6 19  1  0  0  0  0
  7 21  1  0  0  0  0
  8 23  1  0  0  0  0
  9 13  2  0  0  0  0
  9 22  1  0  0  0  0
 10 25  2  0  0  0  0
 11 26  1  0  0  0  0
 12 26  2  0  0  0  0
 13 27  1  0  0  0  0
 14 15  2  0  0  0  0
 14 28  1  0  0  0  0
 15 29  1  0  0  0  0
 16 24  1  0  0  0  0
 16 27  2  0  0  0  0
 17 29  2  0  0  0  0
 17 30  1  0  0  0  0
 18 32  1  0  0  0  0
 19 31  2  0  0  0  0
 19 34  1  0  0  0  0
 20 32  1  0  0  0  0
 20 33  2  0  0  0  0
 20 35  1  0  0  0  0
 21 23  2  0  0  0  0
 21 40  1  0  0  0  0
 22 24  2  0  0  0  0
 22 41  1  0  0  0  0
 23 52  1  0  0  0  0
 24 42  1  0  0  0  0
 25 31  1  0  0  0  0
 25 72  1  0  0  0  0
 26 82  1  0  0  0  0
 27 83  1  0  0  0  0
 28 30  2  0  0  0  0
 28 82  1  0  0  0  0
 29 84  1  0  0  0  0
 30 85  1  0  0  0  0
 31 86  1  0  0  0  0
 32 65  2  0  0  0  0
 33 66  1  0  0  0  0
 33 70  1  0  0  0  0
 34 67  1  0  0  0  0
 34 76  2  0  0  0  0
 35 71  1  0  0  0  0
 35 77  2  0  0  0  0
 36 53  1  0  0  0  0
 36 73  1  0  0  0  0
 36 78  2  0  0  0  0
 37 62  1  0  0  0  0
 37 68  1  0  0  0  0
 37 79  2  0  0  0  0
 38 63  1  0  0  0  0
 38 74  1  0  0  0  0
 38 80  2  0  0  0  0
 39 69  1  0  0  0  0
 39 72  1  0  0  0  0
 39 81  2  0  0  0  0
 40 43  1  0  0  0  0
 41 53  1  0  0  0  0
 42 68  1  0  0  0  0
 43 45  1  0  0  0  0
 44 46  1  0  0  0  0
 44 48  1  0  0  0  0
 45 52  1  0  0  0  0
 46 55  1  0  0  0  0
 47 49  1  0  0  0  0
 47 54  1  0  0  0  0
 48 69  1  0  0  0  0
 49 67  1  0  0  0  0
 50 54  1  0  0  0  0
 50 67  1  0  0  0  0
 51 55  1  0  0  0  0
 51 69  1  0  0  0  0
 52 73  1  0  0  0  0
 53 68  1  0  0  0  0
 54 61  1  0  0  0  0
 55 66  1  0  0  0  0
 56 63  1  0  0  0  0
 57 64  1  0  0  0  0
 58 64  1  0  0  0  0
 59 64  1  0  0  0  0
 60 75  1  0  0  0  0
 61 83  1  0  0  0  0
 62 64  1  0  0  0  0
 62 74  1  0  0  0  0
 63 75  1  0  0  0  0
 65 66  1  0  0  0  0
M  CHG  1  75   1
M  ISO  4  39 100  61 101  72 100  83 101
M  END
> <Batch ID>
0099

> <Smiles>
CNC(C)C(=O)NC(C(=O)N1Cc2cc([101O:1][101CH2:1]C3CCN(C(=O)c4cccc([100NH:0][100C:0](=O)N5CCCC(n6nc(-c7ccc(Oc8ccc(F)cc8F)cc7)c(C(N)=O)c6N)C5)c4F)C3)ccc2CC1C(=O)NC1CCCc2ccccc21)C(C)(C)C

> <Shape>
0.261

> <Color>
0.067

> <Negative vol penalty>
0.000

$$$$

  -OEChem-04052300543D

 84 92  0     1  0  0  0  0  0999 V2000
  -20.0584  -32.8823   15.3069 C   0  0  0  0  0  0  0  0  0  0  0  0
  -21.0164  -31.8826   15.4416 C   0  0  0  0  0  0  0  0  0  0  0  0
  -23.9697   -9.6134   21.8848 C   0  0  0  0  0  0  0  0  0  0  0  0
  -24.6592  -11.0072   23.7338 C   0  0  0  0  0  0  0  0  0  0  0  0
  -31.0472  -19.9826   19.7504 C   0  0  0  0  0  0  0  0  0  0  0  0
  -20.1773  -34.0632   16.0386 C   0  0  0  0  0  0  0  0  0  0  0  0
  -22.0945  -32.0636   16.3072 C   0  0  0  0  0  0  0  0  0  0  0  0
  -24.8819  -27.7664   19.6644 C   0  0  0  0  0  0  0  0  0  0  0  0
  -30.7381  -18.6444   19.5075 C   0  0  0  0  0  0  0  0  0  0  0  0
  -23.5633   -8.6251   22.7813 C   0  0  0  0  0  0  0  0  0  0  0  0
  -24.2527  -10.0190   24.6303 C   0  0  0  0  0  0  0  0  0  0  0  0
  -26.0519  -27.0343   19.4670 C   0  0  0  0  0  0  0  0  0  0  0  0
  -20.9181   -8.0301   24.8016 C   0  0  0  0  0  0  0  0  0  0  0  0
  -19.6816   -7.4234   24.5808 C   0  0  0  0  0  0  0  0  0  0  0  0
  -27.2654  -28.6204   20.8200 C   0  0  0  0  0  0  0  0  0  0  0  0
  -28.3957  -19.1219   19.8572 C   0  0  0  0  0  0  0  0  0  0  0  0
  -20.7715   -5.2770   24.3751 C   0  0  0  0  0  0  0  0  0  0  0  0
  -24.5177  -10.8044   22.3610 C   0  0  0  0  0  0  0  0  0  0  0  0
  -30.0306  -20.8906   20.0467 C   0  0  0  0  0  0  0  0  0  0  0  0
  -24.1620  -12.8841   20.9271 C   0  0  0  0  0  0  0  0  0  0  0  0
  -21.2522  -34.2548   16.9209 C   0  0  0  0  0  0  0  0  0  0  0  0
  -24.8971  -28.9389   20.4334 C   0  0  0  0  0  0  0  0  0  0  0  0
  -22.2285  -33.2486   17.0504 C   0  0  0  0  0  0  0  0  0  0  0  0
  -26.0938  -29.3642   21.0278 C   0  0  0  0  0  0  0  0  0  0  0  0
  -29.4124  -18.2140   19.5608 C   0  0  0  0  0  0  0  0  0  0  0  0
  -23.7047   -8.8279   24.1540 C   0  0  0  0  0  0  0  0  0  0  0  0
  -27.2445  -27.4629   20.0424 C   0  0  0  0  0  0  0  0  0  0  0  0
  -22.0813   -7.2602   24.8091 C   0  0  0  0  0  0  0  0  0  0  0  0
  -19.6083   -6.0469   24.3676 C   0  0  0  0  0  0  0  0  0  0  0  0
  -28.7049  -20.4602   20.1001 C   0  0  0  0  0  0  0  0  0  0  0  0
  -22.0080   -5.8837   24.5959 C   0  0  0  0  0  0  0  0  0  0  0  0
  -24.9383  -11.8255   21.4354 C   0  0  0  0  0  0  0  0  0  0  0  0
  -25.0153  -13.5670   20.0952 C   0  0  0  0  0  0  0  0  0  0  0  0
  -30.3648  -22.3140   20.3074 C   0  0  0  0  0  0  0  0  0  0  0  0
  -22.7920  -13.2202   21.1840 C   0  0  0  0  0  0  0  0  0  0  0  0
  -24.2758  -32.0037   19.8632 C   0  0  0  0  0  0  0  0  0  0  0  0
  -24.6968  -32.2825   23.0674 C   0  0  0  0  0  0  0  0  0  0  0  0
  -29.4887  -24.6169   20.1511 C   0  0  0  0  0  0  0  0  0  0  0  0
  -26.0814  -31.0363   25.9269 C   0  0  0  0  0  0  0  0  0  0  0  0
  -29.9872  -15.8247   19.0064 C   0  0  0  0  0  0  0  0  0  0  0  0
  -21.3636  -35.5675   17.6550 C   0  0  0  0  0  0  0  0  0  0  0  0
  -23.6211  -29.7027   20.6589 C   0  0  0  0  0  0  0  0  0  0  0  0
  -26.1593  -30.6051   21.8788 C   0  0  0  0  0  0  0  0  0  0  0  0
  -22.3349  -35.5266   18.8320 C   0  0  0  0  0  0  0  0  0  0  0  0
  -29.6125  -12.3422   18.3668 C   0  0  0  0  0  0  0  0  0  0  0  0
  -23.6401  -34.8508   18.4238 C   0  0  0  0  0  0  0  0  0  0  0  0
  -28.2992  -11.9844   19.0663 C   0  0  0  0  0  0  0  0  0  0  0  0
  -30.4099  -13.3804   19.1542 C   0  0  0  0  0  0  0  0  0  0  0  0
  -28.3542  -14.2399   20.2051 C   0  0  0  0  0  0  0  0  0  0  0  0
  -23.3991  -33.3975   17.9979 C   0  0  1  0  0  0  0  0  0  0  0  0
  -23.8570  -31.1622   21.0354 C   0  0  1  0  0  0  0  0  0  0  0  0
  -27.4857  -13.2457   19.4171 C   0  0  2  0  0  0  0  0  0  0  0  0
  -26.2816  -31.5031   28.3844 C   0  0  0  0  0  0  0  0  0  0  0  0
  -26.7371  -34.4745   22.4824 C   0  0  0  0  0  0  0  0  0  0  0  0
  -27.5698  -34.2296   24.8308 C   0  0  0  0  0  0  0  0  0  0  0  0
  -25.2188  -34.9505   24.4118 C   0  0  0  0  0  0  0  0  0  0  0  0
  -24.7442  -28.4933   26.6369 C   0  0  0  0  0  0  0  0  0  0  0  0
  -28.2524  -25.3424   19.6632 C   0  0  0  0  0  0  0  0  0  1  0  0
  -25.8759  -32.5492   23.9716 C   0  0  1  0  0  0  0  0  0  0  0  0
  -25.4930  -30.7813   27.3028 C   0  0  2  0  0  0  0  0  0  0  0  0
  -26.3499  -34.0286   23.9066 C   0  0  0  0  0  0  0  0  0  0  0  0
  -26.1886  -11.8311   20.9656 N   0  0  0  0  0  0  0  0  0  0  0  0
  -26.2044  -12.9016   20.1533 N   0  0  0  0  0  0  0  0  0  0  0  0
  -24.8864  -31.3211   22.0646 N   0  0  0  0  0  0  0  0  0  0  0  0
  -29.5765  -14.5487   19.4467 N   0  0  0  0  0  0  0  0  0  0  0  0
  -24.8569  -14.6657   19.3270 N   0  0  0  0  0  0  0  0  0  0  0  0
  -22.0598  -12.4126   22.0649 N   0  0  0  0  0  0  0  0  0  0  0  0
  -29.0986  -16.8544   19.3141 N   0  0  0  0  0  0  0  0  0  0  0  0
  -29.3818  -23.2385   19.9587 N   0  0  0  0  0  0  0  0  0  0  0  0
  -23.2210  -32.5532   19.1597 N   0  0  0  0  0  0  0  0  0  0  0  0
  -25.4771  -32.1075   25.3036 N   0  0  0  0  0  0  0  0  0  0  0  0
  -25.5030  -29.3226   27.6082 N   0  3  0  0  0  0  0  0  0  0  0  0
  -31.4438  -22.5897   20.8250 O   0  0  0  0  0  0  0  0  0  0  0  0
  -22.2291  -14.1979   20.6356 O   0  0  0  0  0  0  0  0  0  0  0  0
  -25.4677  -32.1451   19.6161 O   0  0  0  0  0  0  0  0  0  0  0  0
  -23.6439  -32.8991   23.2489 O   0  0  0  0  0  0  0  0  0  0  0  0
  -30.4489  -25.1997   20.6470 O   0  0  0  0  0  0  0  0  0  0  0  0
  -26.9891  -30.3559   25.4540 O   0  0  0  0  0  0  0  0  0  0  0  0
  -31.0358  -15.9877   18.3772 O   0  0  0  0  0  0  0  0  0  0  0  0
  -23.3080   -7.8639   25.0291 O   0  0  0  0  0  0  0  0  0  0  0  0
  -28.3880  -26.7505   19.8508 O   0  0  0  0  0  0  0  0  0  1  0  0
  -18.4207   -5.4642   24.1572 F   0  0  0  0  0  0  0  0  0  0  0  0
  -27.7196  -21.3239   20.3844 F   0  0  0  0  0  0  0  0  0  0  0  0
  -23.1219   -5.1388   24.6031 F   0  0  0  0  0  0  0  0  0  0  0  0
  1  2  1  0  0  0  0
  1  6  2  0  0  0  0
  2  7  2  0  0  0  0
  3 10  2  0  0  0  0
  3 18  1  0  0  0  0
  4 11  1  0  0  0  0
  4 18  2  0  0  0  0
  5  9  2  0  0  0  0
  5 19  1  0  0  0  0
  6 21  1  0  0  0  0
  7 23  1  0  0  0  0
  8 12  2  0  0  0  0
  8 22  1  0  0  0  0
  9 25  1  0  0  0  0
 10 26  1  0  0  0  0
 11 26  2  0  0  0  0
 12 27  1  0  0  0  0
 13 14  2  0  0  0  0
 13 28  1  0  0  0  0
 14 29  1  0  0  0  0
 15 24  1  0  0  0  0
 15 27  2  0  0  0  0
 16 25  2  0  0  0  0
 16 30  1  0  0  0  0
 17 29  2  0  0  0  0
 17 31  1  0  0  0  0
 18 32  1  0  0  0  0
 19 30  2  0  0  0  0
 19 34  1  0  0  0  0
 20 32  1  0  0  0  0
 20 33  2  0  0  0  0
 20 35  1  0  0  0  0
 21 23  2  0  0  0  0
 21 41  1  0  0  0  0
 22 24  2  0  0  0  0
 22 42  1  0  0  0  0
 23 50  1  0  0  0  0
 24 43  1  0  0  0  0
 25 68  1  0  0  0  0
 26 80  1  0  0  0  0
 27 81  1  0  0  0  0
 28 31  2  0  0  0  0
 28 80  1  0  0  0  0
 29 82  1  0  0  0  0
 30 83  1  0  0  0  0
 31 84  1  0  0  0  0
 32 62  2  0  0  0  0
 33 63  1  0  0  0  0
 33 66  1  0  0  0  0
 34 69  1  0  0  0  0
 34 73  2  0  0  0  0
 35 67  1  0  0  0  0
 35 74  2  0  0  0  0
 36 51  1  0  0  0  0
 36 70  1  0  0  0  0
 36 75  2  0  0  0  0
 37 59  1  0  0  0  0
 37 64  1  0  0  0  0
 37 76  2  0  0  0  0
 38 58  1  0  0  0  0
 38 69  1  0  0  0  0
 38 77  2  0  0  0  0
 39 60  1  0  0  0  0
 39 71  1  0  0  0  0
 39 78  2  0  0  0  0
 40 65  1  0  0  0  0
 40 68  1  0  0  0  0
 40 79  2  0  0  0  0
 41 44  1  0  0  0  0
 42 51  1  0  0  0  0
 43 64  1  0  0  0  0
 44 46  1  0  0  0  0
 45 47  1  0  0  0  0
 45 48  1  0  0  0  0
 46 50  1  0  0  0  0
 47 52  1  0  0  0  0
 48 65  1  0  0  0  0
 49 52  1  0  0  0  0
 49 65  1  0  0  0  0
 50 70  1  0  0  0  0
 51 64  1  0  0  0  0
 52 63  1  0  0  0  0
 53 60  1  0  0  0  0
 54 61  1  0  0  0  0
 55 61  1  0  0  0  0
 56 61  1  0  0  0  0
 57 72  1  0  0  0  0
 58 81  1  0  0  0  0
 59 61  1  0  0  0  0
 59 71  1  0  0  0  0
 60 72  1  0  0  0  0
 62 63  1  0  0  0  0
M  CHG  1  72   1
M  ISO  4  40 100  58 101  68 100  81 101
M  END
> <Batch ID>
0099

> <Smiles>
CNC(C)C(=O)NC(C(=O)N1Cc2cc([101O:1][101CH2:1]C(=O)NC(=O)c3ccc([100NH:0][100C:0](=O)N4CCCC(n5nc(-c6ccc(Oc7ccc(F)cc7F)cc6)c(C(N)=O)c5N)C4)cc3F)ccc2CC1C(=O)NC1CCCc2ccccc21)C(C)(C)C

> <Shape>
0.338

> <Color>
0.165

> <Negative vol penalty>
0.000

$$$$

  -OEChem-04052300543D

 85 93  0     1  0  0  0  0  0999 V2000
  -28.4617  -35.1803   25.5684 C   0  0  0  0  0  0  0  0  0  0  0  0
  -28.8639  -34.1398   24.7370 C   0  0  0  0  0  0  0  0  0  0  0  0
  -23.1946   -9.7383   20.0768 C   0  0  0  0  0  0  0  0  0  0  0  0
  -23.7755  -10.0642   22.3992 C   0  0  0  0  0  0  0  0  0  0  0  0
  -27.3457  -35.0235   26.3893 C   0  0  0  0  0  0  0  0  0  0  0  0
  -28.1509  -32.9415   24.7270 C   0  0  0  0  0  0  0  0  0  0  0  0
  -27.1766  -29.2777   19.9173 C   0  0  0  0  0  0  0  0  0  0  0  0
  -22.4962   -8.5790   20.4142 C   0  0  0  0  0  0  0  0  0  0  0  0
  -23.0770   -8.9049   22.7366 C   0  0  0  0  0  0  0  0  0  0  0  0
  -27.8031  -28.1092   19.4862 C   0  0  0  0  0  0  0  0  0  0  0  0
  -23.5859   -5.5648   22.6129 C   0  0  0  0  0  0  0  0  0  0  0  0
  -24.1983   -4.6720   23.4923 C   0  0  0  0  0  0  0  0  0  0  0  0
  -26.1096  -26.7986   20.5969 C   0  0  0  0  0  0  0  0  0  0  0  0
  -29.6265  -19.7677   22.1041 C   0  0  0  0  0  0  0  0  0  0  0  0
  -22.3645   -4.9408   25.0423 C   0  0  0  0  0  0  0  0  0  0  0  0
  -23.8343  -10.4809   21.0693 C   0  0  0  0  0  0  0  0  0  0  0  0
  -24.0496  -12.9903   20.6642 C   0  0  0  0  0  0  0  0  0  0  0  0
  -26.6130  -33.8261   26.3822 C   0  0  0  0  0  0  0  0  0  0  0  0
  -26.0161  -29.2152   20.7019 C   0  0  0  0  0  0  0  0  0  0  0  0
  -27.0249  -32.7680   25.5496 C   0  0  0  0  0  0  0  0  0  0  0  0
  -25.4689  -27.9678   21.0345 C   0  0  0  0  0  0  0  0  0  0  0  0
  -29.5294  -18.3863   22.2707 C   0  0  0  0  0  0  0  0  0  0  0  0
  -29.8365  -17.5327   21.2111 C   0  0  0  0  0  0  0  0  0  0  0  0
  -30.3378  -19.4421   19.8182 C   0  0  0  0  0  0  0  0  0  0  0  0
  -22.4373   -8.1623   21.7440 C   0  0  0  0  0  0  0  0  0  0  0  0
  -27.2713  -26.8694   19.8284 C   0  0  0  0  0  0  0  0  0  0  0  0
  -22.3628   -6.1457   22.9482 C   0  0  0  0  0  0  0  0  0  0  0  0
  -30.0306  -20.2957   20.8778 C   0  0  0  0  0  0  0  0  0  0  0  0
  -23.5876   -4.3600   24.7070 C   0  0  0  0  0  0  0  0  0  0  0  0
  -21.7521   -5.8337   24.1628 C   0  0  0  0  0  0  0  0  0  0  0  0
  -30.2407  -18.0606   19.9848 C   0  0  0  0  0  0  0  0  0  0  0  0
  -24.5564  -11.6782   20.7214 C   0  0  0  0  0  0  0  0  0  0  0  0
  -25.1249  -13.7577   20.2884 C   0  0  0  0  0  0  0  0  0  0  0  0
  -22.7252  -13.4723   20.9273 C   0  0  0  0  0  0  0  0  0  0  0  0
  -25.2378  -30.1617   23.6349 C   0  0  0  0  0  0  0  0  0  0  0  0
  -28.9639  -23.6775   20.1073 C   0  0  0  0  0  0  0  0  0  0  0  0
  -22.2731  -29.1975   22.7385 C   0  0  0  0  0  0  0  0  0  0  0  0
  -20.3549  -27.2326   20.7120 C   0  0  0  0  0  0  0  0  0  0  0  0
  -30.4984  -15.1537   20.7128 C   0  0  0  0  0  0  0  0  0  0  0  0
  -25.4416  -33.6863   27.3218 C   0  0  0  0  0  0  0  0  0  0  0  0
  -25.3373  -30.4851   21.1366 C   0  0  0  0  0  0  0  0  0  0  0  0
  -24.2135  -27.8466   21.8578 C   0  0  0  0  0  0  0  0  0  0  0  0
  -24.5192  -32.5201   26.9761 C   0  0  0  0  0  0  0  0  0  0  0  0
  -29.6983  -12.4116   18.5871 C   0  0  0  0  0  0  0  0  0  0  0  0
  -25.3331  -31.2609   26.6951 C   0  0  0  0  0  0  0  0  0  0  0  0
  -28.2475  -12.0843   18.9482 C   0  0  0  0  0  0  0  0  0  0  0  0
  -30.5053  -12.8376   19.8122 C   0  0  0  0  0  0  0  0  0  0  0  0
  -28.4625  -13.6010   20.9582 C   0  0  0  0  0  0  0  0  0  0  0  0
  -26.2627  -31.4619   25.4922 C   0  0  1  0  0  0  0  0  0  0  0  0
  -24.4494  -30.2985   22.3631 C   0  0  1  0  0  0  0  0  0  0  0  0
  -27.5932  -13.2294   19.7459 C   0  0  2  0  0  0  0  0  0  0  0  0
  -29.0941  -17.8487   23.5951 C   0  0  0  0  0  0  0  0  0  0  0  0
  -17.9645  -26.6329   20.2388 C   0  0  0  0  0  0  0  0  0  0  0  0
  -22.2117  -27.4688   25.2521 C   0  0  0  0  0  0  0  0  0  0  0  0
  -20.2874  -26.2135   24.2575 C   0  0  0  0  0  0  0  0  0  0  0  0
  -20.0663  -28.6498   24.7455 C   0  0  0  0  0  0  0  0  0  0  0  0
  -20.5362  -28.2224   17.9288 C   0  0  0  0  0  0  0  0  0  0  0  0
  -27.7539  -24.5785   20.2464 C   0  0  0  0  0  0  0  0  0  1  0  0
  -28.9414  -22.4090   20.9352 C   0  0  0  0  0  0  0  0  0  0  0  0
  -21.5049  -27.8997   22.8065 C   0  0  1  0  0  0  0  0  0  0  0  0
  -19.1266  -27.5443   19.8761 C   0  0  2  0  0  0  0  0  0  0  0  0
  -21.0423  -27.5599   24.2515 C   0  0  0  0  0  0  0  0  0  0  0  0
  -25.8529  -11.6121   20.4069 N   0  0  0  0  0  0  0  0  0  0  0  0
  -26.1697  -12.8923   20.1484 N   0  0  0  0  0  0  0  0  0  0  0  0
  -23.5901  -29.1170   22.2642 N   0  0  0  0  0  0  0  0  0  0  0  0
  -29.8269  -13.9285   20.5154 N   0  0  0  0  0  0  0  0  0  0  0  0
  -30.7479  -19.9658   18.5726 N   0  0  0  0  0  0  0  0  0  0  0  0
  -25.2692  -15.0816   20.0672 N   0  0  0  0  0  0  0  0  0  0  0  0
  -21.7402  -12.5486   21.3025 N   0  0  0  0  0  0  0  0  0  0  0  0
  -29.7421  -16.1273   21.3644 N   0  0  0  0  0  0  0  0  0  0  0  0
  -25.5174  -31.3642   24.2555 N   0  0  0  0  0  0  0  0  0  0  0  0
  -20.4159  -28.0190   21.8430 N   0  0  0  0  0  0  0  0  0  0  0  0
  -19.4278  -27.3680   18.4273 N   0  3  0  0  0  0  0  0  0  0  0  0
  -22.4201  -14.6840   20.8165 O   0  0  0  0  0  0  0  0  0  0  0  0
  -25.5666  -29.0476   24.0250 O   0  0  0  0  0  0  0  0  0  0  0  0
  -29.9062  -23.9589   19.3685 O   0  0  0  0  0  0  0  0  0  0  0  0
  -21.7226  -30.2451   23.0864 O   0  0  0  0  0  0  0  0  0  0  0  0
  -21.1759  -26.3746   20.3954 O   0  0  0  0  0  0  0  0  0  0  0  0
  -31.6494  -15.3355   20.3076 O   0  0  0  0  0  0  0  0  0  0  0  0
  -21.7557   -7.0313   22.0736 O   0  0  0  0  0  0  0  0  0  0  0  0
  -27.8811  -25.7272   19.4094 O   0  0  0  0  0  0  0  0  0  1  0  0
  -30.1213  -21.6599   20.7340 O   0  0  0  0  0  0  0  0  0  0  0  0
  -24.1751   -3.5014   25.5508 F   0  0  0  0  0  0  0  0  0  0  0  0
  -20.5766   -6.3877   24.4899 F   0  0  0  0  0  0  0  0  0  0  0  0
  -30.5356  -17.2398   18.9647 F   0  0  0  0  0  0  0  0  0  0  0  0
  1  2  1  0  0  0  0
  1  5  2  0  0  0  0
  2  6  2  0  0  0  0
  3  8  2  0  0  0  0
  3 16  1  0  0  0  0
  4  9  1  0  0  0  0
  4 16  2  0  0  0  0
  5 18  1  0  0  0  0
  6 20  1  0  0  0  0
  7 10  2  0  0  0  0
  7 19  1  0  0  0  0
  8 25  1  0  0  0  0
  9 25  2  0  0  0  0
 10 26  1  0  0  0  0
 11 12  2  0  0  0  0
 11 27  1  0  0  0  0
 12 29  1  0  0  0  0
 13 21  1  0  0  0  0
 13 26  2  0  0  0  0
 14 22  2  0  0  0  0
 14 28  1  0  0  0  0
 15 29  2  0  0  0  0
 15 30  1  0  0  0  0
 16 32  1  0  0  0  0
 17 32  1  0  0  0  0
 17 33  2  0  0  0  0
 17 34  1  0  0  0  0
 18 20  2  0  0  0  0
 18 40  1  0  0  0  0
 19 21  2  0  0  0  0
 19 41  1  0  0  0  0
 20 49  1  0  0  0  0
 21 42  1  0  0  0  0
 22 23  1  0  0  0  0
 22 52  1  0  0  0  0
 23 31  2  0  0  0  0
 23 70  1  0  0  0  0
 24 28  2  0  0  0  0
 24 31  1  0  0  0  0
 24 67  1  0  0  0  0
 25 80  1  0  0  0  0
 26 81  1  0  0  0  0
 27 30  2  0  0  0  0
 27 80  1  0  0  0  0
 28 82  1  0  0  0  0
 29 83  1  0  0  0  0
 30 84  1  0  0  0  0
 31 85  1  0  0  0  0
 32 63  2  0  0  0  0
 33 64  1  0  0  0  0
 33 68  1  0  0  0  0
 34 69  1  0  0  0  0
 34 74  2  0  0  0  0
 35 50  1  0  0  0  0
 35 71  1  0  0  0  0
 35 75  2  0  0  0  0
 36 58  1  0  0  0  0
 36 59  1  0  0  0  0
 36 76  2  0  0  0  0
 37 60  1  0  0  0  0
 37 65  1  0  0  0  0
 37 77  2  0  0  0  0
 38 61  1  0  0  0  0
 38 72  1  0  0  0  0
 38 78  2  0  0  0  0
 39 66  1  0  0  0  0
 39 70  1  0  0  0  0
 39 79  2  0  0  0  0
 40 43  1  0  0  0  0
 41 50  1  0  0  0  0
 42 65  1  0  0  0  0
 43 45  1  0  0  0  0
 44 46  1  0  0  0  0
 44 47  1  0  0  0  0
 45 49  1  0  0  0  0
 46 51  1  0  0  0  0
 47 66  1  0  0  0  0
 48 51  1  0  0  0  0
 48 66  1  0  0  0  0
 49 71  1  0  0  0  0
 50 65  1  0  0  0  0
 51 64  1  0  0  0  0
 53 61  1  0  0  0  0
 54 62  1  0  0  0  0
 55 62  1  0  0  0  0
 56 62  1  0  0  0  0
 57 73  1  0  0  0  0
 58 81  1  0  0  0  0
 59 82  1  0  0  0  0
 60 62  1  0  0  0  0
 60 72  1  0  0  0  0
 61 73  1  0  0  0  0
 63 64  1  0  0  0  0
M  CHG  1  73   1
M  ISO  4  39 100  58 101  70 100  81 101
M  END
> <Batch ID>
0099

> <Smiles>
CNC(C)C(=O)NC(C(=O)N1Cc2cc([101O:1][101CH2:1]C(=O)COc3cc(C)c([100NH:0][100C:0](=O)N4CCCC(n5nc(-c6ccc(Oc7ccc(F)cc7F)cc6)c(C(N)=O)c5N)C4)c(F)c3N)ccc2CC1C(=O)NC1CCCc2ccccc21)C(C)(C)C

> <Shape>
0.404

> <Color>
0.205

> <Negative vol penalty>
0.000

$$$$

  -OEChem-04052300543D

 84 92  0     1  0  0  0  0  0999 V2000
  -28.9154  -32.9268   24.6326 C   0  0  0  0  0  0  0  0  0  0  0  0
  -28.6264  -31.5667   24.6780 C   0  0  0  0  0  0  0  0  0  0  0  0
  -22.7676  -11.4899   18.9529 C   0  0  0  0  0  0  0  0  0  0  0  0
  -23.0096   -9.9529   20.8012 C   0  0  0  0  0  0  0  0  0  0  0  0
  -27.8885  -33.8505   24.4426 C   0  0  0  0  0  0  0  0  0  0  0  0
  -27.3100  -31.1296   24.5345 C   0  0  0  0  0  0  0  0  0  0  0  0
  -26.9076  -27.1728   21.3997 C   0  0  0  0  0  0  0  0  0  0  0  0
  -21.7139  -10.7242   18.4540 C   0  0  0  0  0  0  0  0  0  0  0  0
  -21.9558   -9.1871   20.3023 C   0  0  0  0  0  0  0  0  0  0  0  0
  -27.2602  -25.9220   21.9047 C   0  0  0  0  0  0  0  0  0  0  0  0
  -19.0937   -7.0247   19.7107 C   0  0  0  0  0  0  0  0  0  0  0  0
  -18.1260   -6.5851   20.6140 C   0  0  0  0  0  0  0  0  0  0  0  0
  -24.9283  -25.4119   22.2528 C   0  0  0  0  0  0  0  0  0  0  0  0
  -29.0677  -20.4224   20.1283 C   0  0  0  0  0  0  0  0  0  0  0  0
  -28.1466  -19.2044   22.0005 C   0  0  0  0  0  0  0  0  0  0  0  0
  -17.6091   -8.8773   21.1758 C   0  0  0  0  0  0  0  0  0  0  0  0
  -23.4155  -11.1043   20.1265 C   0  0  0  0  0  0  0  0  0  0  0  0
  -29.8631  -18.1971   20.6307 C   0  0  0  0  0  0  0  0  0  0  0  0
  -24.4205  -12.9695   21.5472 C   0  0  0  0  0  0  0  0  0  0  0  0
  -26.5602  -33.4240   24.2870 C   0  0  0  0  0  0  0  0  0  0  0  0
  -25.5610  -27.5574   21.3275 C   0  0  0  0  0  0  0  0  0  0  0  0
  -26.2642  -32.0486   24.3435 C   0  0  0  0  0  0  0  0  0  0  0  0
  -24.5611  -26.6671   21.7441 C   0  0  0  0  0  0  0  0  0  0  0  0
  -29.9050  -19.3449   19.8392 C   0  0  0  0  0  0  0  0  0  0  0  0
  -28.1885  -20.3521   21.2090 C   0  0  0  0  0  0  0  0  0  0  0  0
  -21.3080   -9.5728   19.1287 C   0  0  0  0  0  0  0  0  0  0  0  0
  -26.2707  -25.0425   22.3340 C   0  0  0  0  0  0  0  0  0  0  0  0
  -19.3192   -8.3906   19.5400 C   0  0  0  0  0  0  0  0  0  0  0  0
  -17.3837   -7.5114   21.3465 C   0  0  0  0  0  0  0  0  0  0  0  0
  -28.9839  -18.1268   21.7114 C   0  0  0  0  0  0  0  0  0  0  0  0
  -18.5769   -9.3169   20.2725 C   0  0  0  0  0  0  0  0  0  0  0  0
  -24.5044  -11.8946   20.6421 C   0  0  0  0  0  0  0  0  0  0  0  0
  -25.7209  -13.3774   21.7173 C   0  0  0  0  0  0  0  0  0  0  0  0
  -30.7456  -17.0375   20.3422 C   0  0  0  0  0  0  0  0  0  0  0  0
  -23.2699  -13.5476   22.1780 C   0  0  0  0  0  0  0  0  0  0  0  0
  -23.8175  -29.8757   22.6275 C   0  0  0  0  0  0  0  0  0  0  0  0
  -21.5120  -28.7091   20.6663 C   0  0  0  0  0  0  0  0  0  0  0  0
  -20.2905  -26.0703   18.8798 C   0  0  0  0  0  0  0  0  0  0  0  0
  -30.7334  -14.6415   19.7236 C   0  0  0  0  0  0  0  0  0  0  0  0
  -25.4777  -34.4626   24.1312 C   0  0  0  0  0  0  0  0  0  0  0  0
  -25.1956  -28.8997   20.7555 C   0  0  0  0  0  0  0  0  0  0  0  0
  -23.0998  -27.0240   21.6687 C   0  0  0  0  0  0  0  0  0  0  0  0
  -24.1589  -33.8949   23.6129 C   0  0  0  0  0  0  0  0  0  0  0  0
  -30.0697  -11.2142   20.2809 C   0  0  0  0  0  0  0  0  0  0  0  0
  -23.7912  -32.6226   24.3698 C   0  0  0  0  0  0  0  0  0  0  0  0
  -28.5560  -11.1718   20.5075 C   0  0  0  0  0  0  0  0  0  0  0  0
  -30.4545  -12.2326   19.2086 C   0  0  0  0  0  0  0  0  0  0  0  0
  -28.4144  -13.5404   19.6393 C   0  0  0  0  0  0  0  0  0  0  0  0
  -24.8520  -31.5340   24.1671 C   0  0  1  0  0  0  0  0  0  0  0  0
  -23.8223  -29.3876   21.2064 C   0  0  1  0  0  0  0  0  0  0  0  0
  -27.9820  -12.5805   20.7595 C   0  0  1  0  0  0  0  0  0  0  0  0
  -30.8370  -19.4468   18.6760 C   0  0  0  0  0  0  0  0  0  0  0  0
  -18.3682  -25.4083   17.4089 C   0  0  0  0  0  0  0  0  0  0  0  0
  -19.7162  -28.4764   23.1221 C   0  0  0  0  0  0  0  0  0  0  0  0
  -18.2192  -26.9682   21.7982 C   0  0  0  0  0  0  0  0  0  0  0  0
  -18.5703  -29.3277   21.0686 C   0  0  0  0  0  0  0  0  0  0  0  0
  -22.0814  -25.5244   16.5878 C   0  0  0  0  0  0  0  0  0  0  0  0
  -26.4178  -21.4342   22.5943 C   0  0  0  0  0  0  0  0  0  0  0  0
  -25.6768  -22.7600   22.6400 C   0  0  0  0  0  0  0  0  0  1  0  0
  -20.4416  -27.6513   20.7856 C   0  0  1  0  0  0  0  0  0  0  0  0
  -19.7811  -25.9691   17.4534 C   0  0  2  0  0  0  0  0  0  0  0  0
  -19.2644  -28.0996   21.6970 C   0  0  0  0  0  0  0  0  0  0  0  0
  -25.7589  -11.6360   20.2635 N   0  0  0  0  0  0  0  0  0  0  0  0
  -26.4753  -12.5543   20.9340 N   0  0  0  0  0  0  0  0  0  0  0  0
  -22.7935  -28.3503   21.1077 N   0  0  0  0  0  0  0  0  0  0  0  0
  -29.8806  -13.5415   19.5257 N   0  0  0  0  0  0  0  0  0  0  0  0
  -26.2813  -14.3564   22.4590 N   0  0  0  0  0  0  0  0  0  0  0  0
  -22.0090  -13.0066   21.8922 N   0  0  0  0  0  0  0  0  0  0  0  0
  -27.3570  -21.4219   21.4963 N   0  0  0  0  0  0  0  0  0  0  0  0
  -30.0911  -15.8372   20.0639 N   0  0  0  0  0  0  0  0  0  0  0  0
  -24.6976  -30.9133   22.8689 N   0  0  0  0  0  0  0  0  0  0  0  0
  -20.0469  -27.3144   19.4221 N   0  0  0  0  0  0  0  0  0  0  0  0
  -20.6655  -25.0790   16.6494 N   0  3  0  0  0  0  0  0  0  0  0  0
  -31.9624  -17.2016   20.3255 O   0  0  0  0  0  0  0  0  0  0  0  0
  -23.3558  -14.5256   22.9587 O   0  0  0  0  0  0  0  0  0  0  0  0
  -23.0696  -29.3508   23.4440 O   0  0  0  0  0  0  0  0  0  0  0  0
  -21.2234  -29.8107   20.1921 O   0  0  0  0  0  0  0  0  0  0  0  0
  -20.8455  -25.1377   19.4567 O   0  0  0  0  0  0  0  0  0  0  0  0
  -31.9629  -14.5579   19.6422 O   0  0  0  0  0  0  0  0  0  0  0  0
  -20.2797   -8.8254   18.6423 O   0  0  0  0  0  0  0  0  0  0  0  0
  -26.6121  -23.8212   22.8278 O   0  0  0  0  0  0  0  0  0  1  0  0
  -16.4534   -7.0892   22.2128 F   0  0  0  0  0  0  0  0  0  0  0  0
  -28.9342  -17.0292   22.4797 F   0  0  0  0  0  0  0  0  0  0  0  0
  -18.7882  -10.6304   20.1119 F   0  0  0  0  0  0  0  0  0  0  0  0
  1  2  1  0  0  0  0
  1  5  2  0  0  0  0
  2  6  2  0  0  0  0
  3  8  2  0  0  0  0
  3 17  1  0  0  0  0
  4  9  1  0  0  0  0
  4 17  2  0  0  0  0
  5 20  1  0  0  0  0
  6 22  1  0  0  0  0
  7 10  2  0  0  0  0
  7 21  1  0  0  0  0
  8 26  1  0  0  0  0
  9 26  2  0  0  0  0
 10 27  1  0  0  0  0
 11 12  2  0  0  0  0
 11 28  1  0  0  0  0
 12 29  1  0  0  0  0
 13 23  1  0  0  0  0
 13 27  2  0  0  0  0
 14 24  2  0  0  0  0
 14 25  1  0  0  0  0
 15 25  2  0  0  0  0
 15 30  1  0  0  0  0
 16 29  2  0  0  0  0
 16 31  1  0  0  0  0
 17 32  1  0  0  0  0
 18 24  1  0  0  0  0
 18 30  2  0  0  0  0
 18 34  1  0  0  0  0
 19 32  1  0  0  0  0
 19 33  2  0  0  0  0
 19 35  1  0  0  0  0
 20 22  2  0  0  0  0
 20 40  1  0  0  0  0
 21 23  2  0  0  0  0
 21 41  1  0  0  0  0
 22 49  1  0  0  0  0
 23 42  1  0  0  0  0
 24 52  1  0  0  0  0
 25 69  1  0  0  0  0
 26 80  1  0  0  0  0
 27 81  1  0  0  0  0
 28 31  2  0  0  0  0
 28 80  1  0  0  0  0
 29 82  1  0  0  0  0
 30 83  1  0  0  0  0
 31 84  1  0  0  0  0
 32 63  2  0  0  0  0
 33 64  1  0  0  0  0
 33 67  1  0  0  0  0
 34 70  1  0  0  0  0
 34 74  2  0  0  0  0
 35 68  1  0  0  0  0
 35 75  2  0  0  0  0
 36 50  1  0  0  0  0
 36 71  1  0  0  0  0
 36 76  2  0  0  0  0
 37 60  1  0  0  0  0
 37 65  1  0  0  0  0
 37 77  2  0  0  0  0
 38 61  1  0  0  0  0
 38 72  1  0  0  0  0
 38 78  2  0  0  0  0
 39 66  1  0  0  0  0
 39 70  1  0  0  0  0
 39 79  2  0  0  0  0
 40 43  1  0  0  0  0
 41 50  1  0  0  0  0
 42 65  1  0  0  0  0
 43 45  1  0  0  0  0
 44 46  1  0  0  0  0
 44 47  1  0  0  0  0
 45 49  1  0  0  0  0
 46 51  1  0  0  0  0
 47 66  1  0  0  0  0
 48 51  1  0  0  0  0
 48 66  1  0  0  0  0
 49 71  1  0  0  0  0
 50 65  1  0  0  0  0
 51 64  1  0  0  0  0
 53 61  1  0  0  0  0
 54 62  1  0  0  0  0
 55 62  1  0  0  0  0
 56 62  1  0  0  0  0
 57 73  1  0  0  0  0
 58 59  1  0  0  0  0
 58 69  1  0  0  0  0
 59 81  1  0  0  0  0
 60 62  1  0  0  0  0
 60 72  1  0  0  0  0
 61 73  1  0  0  0  0
 63 64  1  0  0  0  0
M  CHG  1  73   1
M  ISO  4  39 100  59 101  70 100  81 101
M  END
> <Batch ID>
0099

> <Smiles>
CNC(C)C(=O)NC(C(=O)N1Cc2cc([101O:1][101CH2:1]CNc3cc(C)c(C(=O)[100NH:0][100C:0](=O)N4CCCC(n5nc(-c6ccc(Oc7ccc(F)cc7F)cc6)c(C(N)=O)c5N)C4)c(F)c3)ccc2CC1C(=O)NC1CCCc2ccccc21)C(C)(C)C

> <Shape>
0.276

> <Color>
0.096

> <Negative vol penalty>
0.000

$$$$

  -OEChem-04052300543D

 85 94  0     1  0  0  0  0  0999 V2000
  -26.5154  -37.9026   26.4054 C   0  0  0  0  0  0  0  0  0  0  0  0
  -26.1762  -36.7113   27.0388 C   0  0  0  0  0  0  0  0  0  0  0  0
  -22.8500  -10.8543   21.7098 C   0  0  0  0  0  0  0  0  0  0  0  0
  -24.4875   -9.0838   21.5651 C   0  0  0  0  0  0  0  0  0  0  0  0
  -26.1833  -38.0974   25.0654 C   0  0  0  0  0  0  0  0  0  0  0  0
  -25.5036  -35.7145   26.3327 C   0  0  0  0  0  0  0  0  0  0  0  0
  -28.3226  -29.1229   25.6293 C   0  0  0  0  0  0  0  0  0  0  0  0
  -28.1415  -19.1369   22.6079 C   0  0  0  0  0  0  0  0  0  0  0  0
  -28.0355  -17.8147   22.1764 C   0  0  0  0  0  0  0  0  0  0  0  0
  -22.1442  -10.1235   22.6655 C   0  0  0  0  0  0  0  0  0  0  0  0
  -23.7818   -8.3530   22.5208 C   0  0  0  0  0  0  0  0  0  0  0  0
  -28.6968  -27.7789   25.6294 C   0  0  0  0  0  0  0  0  0  0  0  0
  -21.0224   -6.4023   22.6276 C   0  0  0  0  0  0  0  0  0  0  0  0
  -20.8190   -5.0439   22.3845 C   0  0  0  0  0  0  0  0  0  0  0  0
  -26.7868  -27.2361   24.2490 C   0  0  0  0  0  0  0  0  0  0  0  0
  -30.3846  -17.8106   21.6121 C   0  0  0  0  0  0  0  0  0  0  0  0
  -22.0137   -4.5020   24.4134 C   0  0  0  0  0  0  0  0  0  0  0  0
  -24.0216  -10.3344   21.1595 C   0  0  0  0  0  0  0  0  0  0  0  0
  -24.2822  -11.5227   18.9172 C   0  0  0  0  0  0  0  0  0  0  0  0
  -25.5148  -37.0987   24.3399 C   0  0  0  0  0  0  0  0  0  0  0  0
  -27.1864  -29.5314   24.9255 C   0  0  0  0  0  0  0  0  0  0  0  0
  -25.1610  -35.8967   24.9821 C   0  0  0  0  0  0  0  0  0  0  0  0
  -26.4141  -28.5828   24.2350 C   0  0  0  0  0  0  0  0  0  0  0  0
  -29.3690  -19.7960   22.5415 C   0  0  0  0  0  0  0  0  0  0  0  0
  -29.1570  -17.1515   21.6785 C   0  0  0  0  0  0  0  0  0  0  0  0
  -22.6101   -8.8728   23.0711 C   0  0  0  0  0  0  0  0  0  0  0  0
  -27.9306  -26.8379   24.9411 C   0  0  0  0  0  0  0  0  0  0  0  0
  -21.7215   -6.8105   23.7635 C   0  0  0  0  0  0  0  0  0  0  0  0
  -21.3146   -4.0938   23.2774 C   0  0  0  0  0  0  0  0  0  0  0  0
  -30.4906  -19.1328   22.0436 C   0  0  0  0  0  0  0  0  0  0  0  0
  -22.2171   -5.8604   24.6564 C   0  0  0  0  0  0  0  0  0  0  0  0
  -24.7507  -11.0886   20.1718 C   0  0  0  0  0  0  0  0  0  0  0  0
  -25.3475  -12.1914   18.3655 C   0  0  0  0  0  0  0  0  0  0  0  0
  -29.5724  -23.8332   23.8516 C   0  0  0  0  0  0  0  0  0  0  0  0
  -29.1405  -25.0982   23.9500 C   0  0  0  0  0  0  0  0  0  1  0  0
  -22.9987  -11.3380   18.3054 C   0  0  0  0  0  0  0  0  0  0  0  0
  -24.9578  -32.3698   23.8993 C   0  0  0  0  0  0  0  0  0  0  0  0
  -25.2547  -30.5412   21.4542 C   0  0  0  0  0  0  0  0  0  0  0  0
  -26.1756  -28.4978   18.8825 C   0  0  0  0  0  0  0  0  0  0  0  0
  -30.0637  -15.0056   20.7198 C   0  0  0  0  0  0  0  0  0  0  0  0
  -25.1349  -37.3739   22.9065 C   0  0  0  0  0  0  0  0  0  0  0  0
  -26.7114  -30.9588   24.9486 C   0  0  0  0  0  0  0  0  0  0  0  0
  -25.1804  -29.0626   23.5204 C   0  0  0  0  0  0  0  0  0  0  0  0
  -30.4918  -23.3669   22.7590 C   0  0  0  0  0  0  0  0  0  0  0  0
  -29.1607  -22.7523   24.8104 C   0  0  0  0  0  0  0  0  0  0  0  0
  -24.7542  -36.1187   22.1256 C   0  0  0  0  0  0  0  0  0  0  0  0
  -30.1351  -12.2947   18.4126 C   0  0  0  0  0  0  0  0  0  0  0  0
  -23.7974  -35.2533   22.9395 C   0  0  0  0  0  0  0  0  0  0  0  0
  -28.7181  -11.7211   18.4832 C   0  0  0  0  0  0  0  0  0  0  0  0
  -29.9035  -22.1597   22.0243 C   0  0  0  0  0  0  0  0  0  0  0  0
  -28.5757  -21.5541   24.0604 C   0  0  0  0  0  0  0  0  0  0  0  0
  -30.6216  -12.7743   19.7790 C   0  0  0  0  0  0  0  0  0  0  0  0
  -28.3052  -13.1376   20.5350 C   0  0  0  0  0  0  0  0  0  0  0  0
  -24.4532  -34.7819   24.2431 C   0  0  1  0  0  0  0  0  0  0  0  0
  -26.0716  -31.4036   23.6212 C   0  0  1  0  0  0  0  0  0  0  0  0
  -27.7471  -12.7009   19.1707 C   0  0  2  0  0  0  0  0  0  0  0  0
  -25.8025  -28.1299   16.4284 C   0  0  0  0  0  0  0  0  0  0  0  0
  -22.5208  -29.3294   22.0553 C   0  0  0  0  0  0  0  0  0  0  0  0
  -22.6278  -28.1672   19.8404 C   0  0  0  0  0  0  0  0  0  0  0  0
  -22.6305  -30.6597   19.9404 C   0  0  0  0  0  0  0  0  0  0  0  0
  -29.0382  -28.9258   18.2649 C   0  0  0  0  0  0  0  0  0  0  0  0
  -24.6933  -29.3881   20.6615 C   0  0  1  0  0  0  0  0  0  0  0  0
  -26.6700  -28.8035   17.4802 C   0  0  2  0  0  0  0  0  0  0  0  0
  -23.1386  -29.3823   20.6438 C   0  0  0  0  0  0  0  0  0  0  0  0
  -26.0153  -11.4510   20.4035 N   0  0  0  0  0  0  0  0  0  0  0  0
  -26.3504  -12.1197   19.2870 N   0  0  0  0  0  0  0  0  0  0  0  0
  -29.4719  -21.1240   22.9741 N   0  0  0  0  0  0  0  0  0  0  0  0
  -25.4639  -30.3261   22.8219 N   0  0  0  0  0  0  0  0  0  0  0  0
  -29.6536  -13.7022   20.3678 N   0  0  0  0  0  0  0  0  0  0  0  0
  -25.5149  -12.8277   17.1867 N   0  0  0  0  0  0  0  0  0  0  0  0
  -22.0185  -10.6267   19.0108 N   0  0  0  0  0  0  0  0  0  0  0  0
  -29.0492  -15.8084   21.2403 N   0  0  0  0  0  0  0  0  0  0  0  0
  -25.3643  -33.6878   23.9836 N   0  0  0  0  0  0  0  0  0  0  0  0
  -25.3056  -29.4650   19.3395 N   0  0  0  0  0  0  0  0  0  0  0  0
  -28.0715  -28.3261   17.3095 N   0  3  0  0  0  0  0  0  0  0  0  0
  -22.7345  -11.7762   17.1601 O   0  0  0  0  0  0  0  0  0  0  0  0
  -23.8130  -31.9517   24.0268 O   0  0  0  0  0  0  0  0  0  0  0  0
  -25.4968  -31.6066   20.8802 O   0  0  0  0  0  0  0  0  0  0  0  0
  -26.5232  -27.4988   19.5084 O   0  0  0  0  0  0  0  0  0  0  0  0
  -31.2227  -15.3905   20.5453 O   0  0  0  0  0  0  0  0  0  0  0  0
  -21.9219   -8.1595   24.0038 O   0  0  0  0  0  0  0  0  0  0  0  0
  -28.3041  -25.5282   24.9416 O   0  0  0  0  0  0  0  0  0  1  0  0
  -21.1179   -2.7894   23.0447 F   0  0  0  0  0  0  0  0  0  0  0  0
  -31.6748  -19.7575   21.9741 F   0  0  0  0  0  0  0  0  0  0  0  0
  -22.8884   -6.2466   25.7500 F   0  0  0  0  0  0  0  0  0  0  0  0
  1  2  1  0  0  0  0
  1  5  2  0  0  0  0
  2  6  2  0  0  0  0
  3 10  2  0  0  0  0
  3 18  1  0  0  0  0
  4 11  1  0  0  0  0
  4 18  2  0  0  0  0
  5 20  1  0  0  0  0
  6 22  1  0  0  0  0
  7 12  2  0  0  0  0
  7 21  1  0  0  0  0
  8  9  2  0  0  0  0
  8 24  1  0  0  0  0
  9 25  1  0  0  0  0
 10 26  1  0  0  0  0
 11 26  2  0  0  0  0
 12 27  1  0  0  0  0
 13 14  2  0  0  0  0
 13 28  1  0  0  0  0
 14 29  1  0  0  0  0
 15 23  1  0  0  0  0
 15 27  2  0  0  0  0
 16 25  2  0  0  0  0
 16 30  1  0  0  0  0
 17 29  2  0  0  0  0
 17 31  1  0  0  0  0
 18 32  1  0  0  0  0
 19 32  1  0  0  0  0
 19 33  2  0  0  0  0
 19 36  1  0  0  0  0
 20 22  2  0  0  0  0
 20 41  1  0  0  0  0
 21 23  2  0  0  0  0
 21 42  1  0  0  0  0
 22 54  1  0  0  0  0
 23 43  1  0  0  0  0
 24 30  2  0  0  0  0
 24 67  1  0  0  0  0
 25 72  1  0  0  0  0
 26 81  1  0  0  0  0
 27 82  1  0  0  0  0
 28 31  2  0  0  0  0
 28 81  1  0  0  0  0
 29 83  1  0  0  0  0
 30 84  1  0  0  0  0
 31 85  1  0  0  0  0
 32 65  2  0  0  0  0
 33 66  1  0  0  0  0
 33 70  1  0  0  0  0
 34 35  2  0  0  0  0
 34 44  1  0  0  0  0
 34 45  1  0  0  0  0
 35 82  1  0  0  0  0
 36 71  1  0  0  0  0
 36 76  2  0  0  0  0
 37 55  1  0  0  0  0
 37 73  1  0  0  0  0
 37 77  2  0  0  0  0
 38 62  1  0  0  0  0
 38 68  1  0  0  0  0
 38 78  2  0  0  0  0
 39 63  1  0  0  0  0
 39 74  1  0  0  0  0
 39 79  2  0  0  0  0
 40 69  1  0  0  0  0
 40 72  1  0  0  0  0
 40 80  2  0  0  0  0
 41 46  1  0  0  0  0
 42 55  1  0  0  0  0
 43 68  1  0  0  0  0
 44 50  1  0  0  0  0
 45 51  1  0  0  0  0
 46 48  1  0  0  0  0
 47 49  1  0  0  0  0
 47 52  1  0  0  0  0
 48 54  1  0  0  0  0
 49 56  1  0  0  0  0
 50 67  1  0  0  0  0
 51 67  1  0  0  0  0
 52 69  1  0  0  0  0
 53 56  1  0  0  0  0
 53 69  1  0  0  0  0
 54 73  1  0  0  0  0
 55 68  1  0  0  0  0
 56 66  1  0  0  0  0
 57 63  1  0  0  0  0
 58 64  1  0  0  0  0
 59 64  1  0  0  0  0
 60 64  1  0  0  0  0
 61 75  1  0  0  0  0
 62 64  1  0  0  0  0
 62 74  1  0  0  0  0
 63 75  1  0  0  0  0
 65 66  1  0  0  0  0
M  CHG  1  75   1
M  ISO  4  35 101  40 100  72 100  82 101
M  END
> <Batch ID>
0099

> <Smiles>
CNC(C)C(=O)NC(C(=O)N1Cc2cc([101O:1][101CH:1]=C3CCN(c4ccc([100NH:0][100C:0](=O)N5CCCC(n6nc(-c7ccc(Oc8ccc(F)cc8F)cc7)c(C(N)=O)c6N)C5)cc4F)CC3)ccc2CC1C(=O)NC1CCCc2ccccc21)C(C)(C)C

> <Shape>
0.311

> <Color>
0.107

> <Negative vol penalty>
0.000

$$$$

  -OEChem-04052300543D

 85 93  0     1  0  0  0  0  0999 V2000
  -25.6387  -28.9939   20.5631 C   0  0  0  0  0  0  0  0  0  0  0  0
  -24.9172  -27.9108   21.0548 C   0  0  0  0  0  0  0  0  0  0  0  0
  -28.4971  -13.4564   21.3239 C   0  0  0  0  0  0  0  0  0  0  0  0
  -28.2187  -13.1787   18.9401 C   0  0  0  0  0  0  0  0  0  0  0  0
  -26.6924  -28.7826   19.6749 C   0  0  0  0  0  0  0  0  0  0  0  0
  -25.2483  -26.6158   20.6576 C   0  0  0  0  0  0  0  0  0  0  0  0
  -24.9162  -21.5268   24.0484 C   0  0  0  0  0  0  0  0  0  0  0  0
  -22.9109  -11.9372   25.3906 C   0  0  0  0  0  0  0  0  0  0  0  0
  -22.5745  -13.2792   25.2136 C   0  0  0  0  0  0  0  0  0  0  0  0
  -29.8668  -13.6468   21.1417 C   0  0  0  0  0  0  0  0  0  0  0  0
  -29.5884  -13.3691   18.7579 C   0  0  0  0  0  0  0  0  0  0  0  0
  -23.9591  -20.5166   24.1326 C   0  0  0  0  0  0  0  0  0  0  0  0
  -32.4220  -11.5552   19.0915 C   0  0  0  0  0  0  0  0  0  0  0  0
  -33.0888  -10.6828   18.2313 C   0  0  0  0  0  0  0  0  0  0  0  0
  -25.2395  -19.1827   22.5832 C   0  0  0  0  0  0  0  0  0  0  0  0
  -21.2599  -11.3061   23.7435 C   0  0  0  0  0  0  0  0  0  0  0  0
  -33.7334  -12.5489   16.8386 C   0  0  0  0  0  0  0  0  0  0  0  0
  -27.6730  -13.2223   20.2230 C   0  0  0  0  0  0  0  0  0  0  0  0
  -25.2549  -14.0126   20.4125 C   0  0  0  0  0  0  0  0  0  0  0  0
  -27.0428  -27.4837   19.2741 C   0  0  0  0  0  0  0  0  0  0  0  0
  -26.0385  -21.3769   23.2212 C   0  0  0  0  0  0  0  0  0  0  0  0
  -26.3068  -26.3871   19.7621 C   0  0  0  0  0  0  0  0  0  0  0  0
  -26.2107  -20.1915   22.4923 C   0  0  0  0  0  0  0  0  0  0  0  0
  -22.2536  -10.9506   24.6555 C   0  0  0  0  0  0  0  0  0  0  0  0
  -21.5808  -13.6347   24.3016 C   0  0  0  0  0  0  0  0  0  0  0  0
  -30.4125  -13.6032   19.8587 C   0  0  0  0  0  0  0  0  0  0  0  0
  -24.1192  -19.3455   23.3977 C   0  0  0  0  0  0  0  0  0  0  0  0
  -32.4108  -12.9244   18.8252 C   0  0  0  0  0  0  0  0  0  0  0  0
  -33.7446  -11.1796   17.1049 C   0  0  0  0  0  0  0  0  0  0  0  0
  -20.9235  -12.6481   23.5665 C   0  0  0  0  0  0  0  0  0  0  0  0
  -33.0666  -13.4212   17.6988 C   0  0  0  0  0  0  0  0  0  0  0  0
  -26.2581  -13.0249   20.4106 C   0  0  0  0  0  0  0  0  0  0  0  0
  -24.0898  -13.3181   20.6287 C   0  0  0  0  0  0  0  0  0  0  0  0
  -25.3662  -15.4309   20.2347 C   0  0  0  0  0  0  0  0  0  0  0  0
  -27.1767  -22.9162   20.6838 C   0  0  0  0  0  0  0  0  0  0  0  0
  -29.6921  -20.9066   21.0793 C   0  0  0  0  0  0  0  0  0  0  0  0
  -21.7924  -16.1002   24.7712 C   0  0  0  0  0  0  0  0  0  0  0  0
  -30.8701  -17.9442   22.2973 C   0  0  0  0  0  0  0  0  0  0  0  0
  -22.4961   -8.5988   23.8179 C   0  0  0  0  0  0  0  0  0  0  0  0
  -28.1592  -27.3084   18.2753 C   0  0  0  0  0  0  0  0  0  0  0  0
  -27.0754  -22.4649   23.1621 C   0  0  0  0  0  0  0  0  0  0  0  0
  -27.4081  -19.9728   21.6053 C   0  0  0  0  0  0  0  0  0  0  0  0
  -28.6862  -25.8780   18.1956 C   0  0  0  0  0  0  0  0  0  0  0  0
  -22.6460   -8.6272   20.1206 C   0  0  0  0  0  0  0  0  0  0  0  0
  -27.5296  -24.8864   18.1194 C   0  0  0  0  0  0  0  0  0  0  0  0
  -23.5706   -9.8072   19.8276 C   0  0  0  0  0  0  0  0  0  0  0  0
  -22.9599   -7.9825   21.4673 C   0  0  0  0  0  0  0  0  0  0  0  0
  -23.8616  -10.1290   22.3162 C   0  0  0  0  0  0  0  0  0  0  0  0
  -26.6515  -24.9655   19.3741 C   0  0  1  0  0  0  0  0  0  0  0  0
  -27.9187  -22.4181   21.8917 C   0  0  1  0  0  0  0  0  0  0  0  0
  -23.5392  -10.8209   20.9833 C   0  0  1  0  0  0  0  0  0  0  0  0
  -21.5156   -8.8401   26.9291 C   0  0  0  0  0  0  0  0  0  0  0  0
  -32.9601  -16.5621   22.4338 C   0  0  0  0  0  0  0  0  0  0  0  0
  -29.3474  -20.1011   18.1566 C   0  0  0  0  0  0  0  0  0  0  0  0
  -30.7798  -18.0988   18.6120 C   0  0  0  0  0  0  0  0  0  0  0  0
  -31.7219  -20.3924   18.8853 C   0  0  0  0  0  0  0  0  0  0  0  0
  -30.8736  -18.0319   25.2555 C   0  0  0  0  0  0  0  0  0  0  0  0
  -21.1366  -17.3871   24.2834 C   0  0  0  0  0  0  0  0  0  0  0  0
  -22.8223   -9.0868   26.2026 C   0  0  0  0  0  0  0  0  0  0  0  0
  -22.0680  -18.5887   24.3337 C   0  0  0  0  0  0  0  0  0  1  0  0
  -30.0502  -19.5297   20.5744 C   0  0  1  0  0  0  0  0  0  0  0  0
  -32.1011  -17.6120   23.1211 C   0  0  2  0  0  0  0  0  0  0  0  0
  -30.4512  -19.5351   19.0722 C   0  0  0  0  0  0  0  0  0  0  0  0
  -25.7728  -11.7966   20.6099 N   0  0  0  0  0  0  0  0  0  0  0  0
  -24.4519  -12.0078   20.7392 N   0  0  0  0  0  0  0  0  0  0  0  0
  -28.3910  -21.0685   21.5761 N   0  0  0  0  0  0  0  0  0  0  0  0
  -22.9858   -8.9689   22.5485 N   0  0  0  0  0  0  0  0  0  0  0  0
  -22.8012  -13.7065   20.7332 N   0  0  0  0  0  0  0  0  0  0  0  0
  -26.6383  -15.9799   20.0229 N   0  0  0  0  0  0  0  0  0  0  0  0
  -21.2413  -14.9971   24.1245 N   0  0  0  0  0  0  0  0  0  0  0  0
  -27.2855  -24.2784   20.4788 N   0  0  0  0  0  0  0  0  0  0  0  0
  -31.0868  -19.0241   21.4678 N   0  0  0  0  0  0  0  0  0  0  0  0
  -22.6009   -9.5626   24.8389 N   0  0  0  0  0  0  0  0  0  0  0  0
  -31.7036  -17.0912   24.4596 N   0  3  0  0  0  0  0  0  0  0  0  0
  -24.3692  -16.1908   20.2792 O   0  0  0  0  0  0  0  0  0  0  0  0
  -26.5529  -22.1231   19.9884 O   0  0  0  0  0  0  0  0  0  0  0  0
  -30.5381  -21.8036   21.0411 O   0  0  0  0  0  0  0  0  0  0  0  0
  -22.6783  -16.0998   25.6194 O   0  0  0  0  0  0  0  0  0  0  0  0
  -29.8223  -17.3070   22.3786 O   0  0  0  0  0  0  0  0  0  0  0  0
  -22.0471   -7.4679   24.0418 O   0  0  0  0  0  0  0  0  0  0  0  0
  -31.7490  -13.7892   19.6806 O   0  0  0  0  0  0  0  0  0  0  0  0
  -23.1861  -18.3581   23.4775 O   0  0  0  0  0  0  0  0  0  1  0  0
  -34.3862  -10.3420   16.2798 F   0  0  0  0  0  0  0  0  0  0  0  0
  -19.9656  -12.9780   22.6882 F   0  0  0  0  0  0  0  0  0  0  0  0
  -33.0603  -14.7357   17.4385 F   0  0  0  0  0  0  0  0  0  0  0  0
  1  2  1  0  0  0  0
  1  5  2  0  0  0  0
  2  6  2  0  0  0  0
  3 10  2  0  0  0  0
  3 18  1  0  0  0  0
  4 11  1  0  0  0  0
  4 18  2  0  0  0  0
  5 20  1  0  0  0  0
  6 22  1  0  0  0  0
  7 12  2  0  0  0  0
  7 21  1  0  0  0  0
  8  9  2  0  0  0  0
  8 24  1  0  0  0  0
  9 25  1  0  0  0  0
 10 26  1  0  0  0  0
 11 26  2  0  0  0  0
 12 27  1  0  0  0  0
 13 14  2  0  0  0  0
 13 28  1  0  0  0  0
 14 29  1  0  0  0  0
 15 23  1  0  0  0  0
 15 27  2  0  0  0  0
 16 24  2  0  0  0  0
 16 30  1  0  0  0  0
 17 29  2  0  0  0  0
 17 31  1  0  0  0  0
 18 32  1  0  0  0  0
 19 32  1  0  0  0  0
 19 33  2  0  0  0  0
 19 34  1  0  0  0  0
 20 22  2  0  0  0  0
 20 40  1  0  0  0  0
 21 23  2  0  0  0  0
 21 41  1  0  0  0  0
 22 49  1  0  0  0  0
 23 42  1  0  0  0  0
 24 73  1  0  0  0  0
 25 30  2  0  0  0  0
 25 70  1  0  0  0  0
 26 81  1  0  0  0  0
 27 82  1  0  0  0  0
 28 31  2  0  0  0  0
 28 81  1  0  0  0  0
 29 83  1  0  0  0  0
 30 84  1  0  0  0  0
 31 85  1  0  0  0  0
 32 64  2  0  0  0  0
 33 65  1  0  0  0  0
 33 68  1  0  0  0  0
 34 69  1  0  0  0  0
 34 75  2  0  0  0  0
 35 50  1  0  0  0  0
 35 71  1  0  0  0  0
 35 76  2  0  0  0  0
 36 61  1  0  0  0  0
 36 66  1  0  0  0  0
 36 77  2  0  0  0  0
 37 58  1  0  0  0  0
 37 70  1  0  0  0  0
 37 78  2  0  0  0  0
 38 62  1  0  0  0  0
 38 72  1  0  0  0  0
 38 79  2  0  0  0  0
 39 67  1  0  0  0  0
 39 73  1  0  0  0  0
 39 80  2  0  0  0  0
 40 43  1  0  0  0  0
 41 50  1  0  0  0  0
 42 66  1  0  0  0  0
 43 45  1  0  0  0  0
 44 46  1  0  0  0  0
 44 47  1  0  0  0  0
 45 49  1  0  0  0  0
 46 51  1  0  0  0  0
 47 67  1  0  0  0  0
 48 51  1  0  0  0  0
 48 67  1  0  0  0  0
 49 71  1  0  0  0  0
 50 66  1  0  0  0  0
 51 65  1  0  0  0  0
 52 59  1  0  0  0  0
 53 62  1  0  0  0  0
 54 63  1  0  0  0  0
 55 63  1  0  0  0  0
 56 63  1  0  0  0  0
 57 74  1  0  0  0  0
 58 60  1  0  0  0  0
 59 73  1  0  0  0  0
 60 82  1  0  0  0  0
 61 63  1  0  0  0  0
 61 72  1  0  0  0  0
 62 74  1  0  0  0  0
 64 65  1  0  0  0  0
M  CHG  1  74   1
M  ISO  4  39 100  60 101  73 100  82 101
M  END
> <Batch ID>
0099

> <Smiles>
CC[100N:0](c1ccc(NC(=O)C[101CH2:1][101O:1]c2ccc3c(c2)CN(C(=O)C(NC(=O)C(C)NC)C(C)(C)C)C(C(=O)NC2CCCc4ccccc42)C3)c(F)c1)[100C:0](=O)N1CCCC(n2nc(-c3ccc(Oc4ccc(F)cc4F)cc3)c(C(N)=O)c2N)C1

> <Shape>
0.210

> <Color>
0.105

> <Negative vol penalty>
0.000

$$$$

  -OEChem-04052300543D

 84 92  0     1  0  0  0  0  0999 V2000
  -16.5463  -28.9211   23.9518 C   0  0  0  0  0  0  0  0  0  0  0  0
  -17.0181  -28.3087   22.7951 C   0  0  0  0  0  0  0  0  0  0  0  0
  -27.7330  -16.8394   22.1575 C   0  0  0  0  0  0  0  0  0  0  0  0
  -28.8442  -16.2292   24.2142 C   0  0  0  0  0  0  0  0  0  0  0  0
  -29.3672  -24.4994   17.0334 C   0  0  0  0  0  0  0  0  0  0  0  0
  -17.2830  -29.9437   24.5479 C   0  0  0  0  0  0  0  0  0  0  0  0
  -18.2264  -28.7194   22.2333 C   0  0  0  0  0  0  0  0  0  0  0  0
  -22.3327  -25.2027   19.3563 C   0  0  0  0  0  0  0  0  0  0  0  0
  -27.6770  -15.4953   21.7890 C   0  0  0  0  0  0  0  0  0  0  0  0
  -28.7881  -14.8851   23.8457 C   0  0  0  0  0  0  0  0  0  0  0  0
  -28.3216  -24.1462   16.1804 C   0  0  0  0  0  0  0  0  0  0  0  0
  -22.5791  -24.9621   18.0053 C   0  0  0  0  0  0  0  0  0  0  0  0
  -27.5642  -12.2549   20.1425 C   0  0  0  0  0  0  0  0  0  0  0  0
  -27.9098  -11.9253   18.8320 C   0  0  0  0  0  0  0  0  0  0  0  0
  -28.3095  -23.2835   18.8334 C   0  0  0  0  0  0  0  0  0  0  0  0
  -24.3063  -26.6460   18.0267 C   0  0  0  0  0  0  0  0  0  0  0  0
  -30.1156  -12.8466   19.1820 C   0  0  0  0  0  0  0  0  0  0  0  0
  -28.3166  -17.2064   23.3701 C   0  0  0  0  0  0  0  0  0  0  0  0
  -29.3612  -24.0679   18.3598 C   0  0  0  0  0  0  0  0  0  0  0  0
  -27.4144  -19.3163   24.4846 C   0  0  0  0  0  0  0  0  0  0  0  0
  -18.5057  -30.3607   23.9985 C   0  0  0  0  0  0  0  0  0  0  0  0
  -23.0651  -26.1760   20.0511 C   0  0  0  0  0  0  0  0  0  0  0  0
  -18.9795  -29.7496   22.8219 C   0  0  0  0  0  0  0  0  0  0  0  0
  -24.0691  -26.8952   19.3871 C   0  0  0  0  0  0  0  0  0  0  0  0
  -27.2639  -22.9304   17.9804 C   0  0  0  0  0  0  0  0  0  0  0  0
  -28.2045  -14.5181   22.6331 C   0  0  0  0  0  0  0  0  0  0  0  0
  -23.5640  -25.6859   17.3396 C   0  0  0  0  0  0  0  0  0  0  0  0
  -27.2699  -23.3618   16.6539 C   0  0  0  0  0  0  0  0  0  0  0  0
  -28.4942  -12.8805   20.9728 C   0  0  0  0  0  0  0  0  0  0  0  0
  -29.1855  -12.2211   18.3517 C   0  0  0  0  0  0  0  0  0  0  0  0
  -29.7700  -13.1763   20.4925 C   0  0  0  0  0  0  0  0  0  0  0  0
  -28.3753  -18.5947   23.7511 C   0  0  0  0  0  0  0  0  0  0  0  0
  -27.9357  -20.5834   24.5798 C   0  0  0  0  0  0  0  0  0  0  0  0
  -30.4755  -24.4442   19.2674 C   0  0  0  0  0  0  0  0  0  0  0  0
  -26.1627  -18.8801   25.0309 C   0  0  0  0  0  0  0  0  0  0  0  0
  -22.3394  -28.8821   21.5525 C   0  0  0  0  0  0  0  0  0  0  0  0
  -25.4713  -28.7995   22.3930 C   0  0  0  0  0  0  0  0  0  0  0  0
  -28.6265  -27.6934   21.7088 C   0  0  0  0  0  0  0  0  0  0  0  0
  -31.7488  -23.7057   21.2566 C   0  0  0  0  0  0  0  0  0  0  0  0
  -19.2434  -31.5024   24.6518 C   0  0  0  0  0  0  0  0  0  0  0  0
  -22.8054  -26.4047   21.5149 C   0  0  0  0  0  0  0  0  0  0  0  0
  -24.8971  -27.9367   20.0928 C   0  0  0  0  0  0  0  0  0  0  0  0
  -20.6978  -31.6234   24.2042 C   0  0  0  0  0  0  0  0  0  0  0  0
  -32.1238  -22.9133   24.6813 C   0  0  0  0  0  0  0  0  0  0  0  0
  -20.8000  -31.5140   22.6862 C   0  0  0  0  0  0  0  0  0  0  0  0
  -31.1065  -21.7911   24.9058 C   0  0  0  0  0  0  0  0  0  0  0  0
  -32.7971  -22.8035   23.3140 C   0  0  0  0  0  0  0  0  0  0  0  0
  -30.8665  -21.5812   22.3993 C   0  0  0  0  0  0  0  0  0  0  0  0
  -20.2979  -30.1504   22.1963 C   0  0  1  0  0  0  0  0  0  0  0  0
  -23.2598  -27.7798   21.9946 C   0  0  1  0  0  0  0  0  0  0  0  0
  -30.1103  -21.6879   23.7334 C   0  0  1  0  0  0  0  0  0  0  0  0
  -31.0801  -27.2951   22.0532 C   0  0  0  0  0  0  0  0  0  0  0  0
  -25.7181  -31.6259   21.2703 C   0  0  0  0  0  0  0  0  0  0  0  0
  -28.2044  -31.3319   21.2652 C   0  0  0  0  0  0  0  0  0  0  0  0
  -26.9443  -31.2452   23.4164 C   0  0  0  0  0  0  0  0  0  0  0  0
  -28.1288  -25.1799   23.1898 C   0  0  0  0  0  0  0  0  0  0  0  0
  -24.4904  -23.8319   14.3704 C   0  0  0  0  0  0  0  0  0  0  0  0
  -23.5650  -24.1321   15.5391 C   0  0  0  0  0  0  0  0  0  1  0  0
  -25.9555  -23.9477   14.7605 C   0  0  0  0  0  0  0  0  0  0  0  0
  -26.7542  -29.3188   21.7900 C   0  0  1  0  0  0  0  0  0  0  0  0
  -29.6791  -27.0437   22.5888 C   0  0  2  0  0  0  0  0  0  0  0  0
  -26.8885  -30.8623   21.9214 C   0  0  0  0  0  0  0  0  0  0  0  0
  -29.4272  -19.3414   23.4049 N   0  0  0  0  0  0  0  0  0  0  0  0
  -29.1304  -20.5454   23.9230 N   0  0  0  0  0  0  0  0  0  0  0  0
  -24.6013  -28.1284   21.5222 N   0  0  0  0  0  0  0  0  0  0  0  0
  -31.7864  -22.7200   22.2582 N   0  0  0  0  0  0  0  0  0  0  0  0
  -26.2060  -22.1350   18.4725 N   0  0  0  0  0  0  0  0  0  0  0  0
  -27.4841  -21.7154   25.1605 N   0  0  0  0  0  0  0  0  0  0  0  0
  -25.7796  -17.5454   24.8410 N   0  0  0  0  0  0  0  0  0  0  0  0
  -30.7204  -23.5605   20.3189 N   0  0  0  0  0  0  0  0  0  0  0  0
  -21.2987  -29.1307   22.4269 N   0  0  0  0  0  0  0  0  0  0  0  0
  -27.8348  -28.5691   22.4213 N   0  0  0  0  0  0  0  0  0  0  0  0
  -29.4595  -25.5713   22.6580 N   0  3  0  0  0  0  0  0  0  0  0  0
  -31.1252  -25.4583   19.0281 O   0  0  0  0  0  0  0  0  0  0  0  0
  -25.3987  -19.6554   25.6545 O   0  0  0  0  0  0  0  0  0  0  0  0
  -22.5581  -29.4649   20.4970 O   0  0  0  0  0  0  0  0  0  0  0  0
  -25.2527  -28.9763   23.5941 O   0  0  0  0  0  0  0  0  0  0  0  0
  -28.5199  -27.4513   20.5086 O   0  0  0  0  0  0  0  0  0  0  0  0
  -32.5386  -24.6545   21.2218 O   0  0  0  0  0  0  0  0  0  0  0  0
  -28.1499  -13.2064   22.2739 O   0  0  0  0  0  0  0  0  0  0  0  0
  -23.8061  -25.4535   16.0207 O   0  0  0  0  0  0  0  0  0  1  0  0
  -26.2525  -23.0247   15.7996 O   0  0  0  0  0  0  0  0  0  0  0  0
  -29.5177  -11.9031   17.0937 F   0  0  0  0  0  0  0  0  0  0  0  0
  -30.6681  -13.7761   21.2858 F   0  0  0  0  0  0  0  0  0  0  0  0
  1  2  1  0  0  0  0
  1  6  2  0  0  0  0
  2  7  2  0  0  0  0
  3  9  2  0  0  0  0
  3 18  1  0  0  0  0
  4 10  1  0  0  0  0
  4 18  2  0  0  0  0
  5 11  2  0  0  0  0
  5 19  1  0  0  0  0
  6 21  1  0  0  0  0
  7 23  1  0  0  0  0
  8 12  2  0  0  0  0
  8 22  1  0  0  0  0
  9 26  1  0  0  0  0
 10 26  2  0  0  0  0
 11 28  1  0  0  0  0
 12 27  1  0  0  0  0
 13 14  2  0  0  0  0
 13 29  1  0  0  0  0
 14 30  1  0  0  0  0
 15 19  2  0  0  0  0
 15 25  1  0  0  0  0
 16 24  1  0  0  0  0
 16 27  2  0  0  0  0
 17 30  2  0  0  0  0
 17 31  1  0  0  0  0
 18 32  1  0  0  0  0
 19 34  1  0  0  0  0
 20 32  1  0  0  0  0
 20 33  2  0  0  0  0
 20 35  1  0  0  0  0
 21 23  2  0  0  0  0
 21 40  1  0  0  0  0
 22 24  2  0  0  0  0
 22 41  1  0  0  0  0
 23 49  1  0  0  0  0
 24 42  1  0  0  0  0
 25 28  2  0  0  0  0
 25 67  1  0  0  0  0
 26 80  1  0  0  0  0
 27 81  1  0  0  0  0
 28 82  1  0  0  0  0
 29 31  2  0  0  0  0
 29 80  1  0  0  0  0
 30 83  1  0  0  0  0
 31 84  1  0  0  0  0
 32 63  2  0  0  0  0
 33 64  1  0  0  0  0
 33 68  1  0  0  0  0
 34 70  1  0  0  0  0
 34 74  2  0  0  0  0
 35 69  1  0  0  0  0
 35 75  2  0  0  0  0
 36 50  1  0  0  0  0
 36 71  1  0  0  0  0
 36 76  2  0  0  0  0
 37 60  1  0  0  0  0
 37 65  1  0  0  0  0
 37 77  2  0  0  0  0
 38 61  1  0  0  0  0
 38 72  1  0  0  0  0
 38 78  2  0  0  0  0
 39 66  1  0  0  0  0
 39 70  1  0  0  0  0
 39 79  2  0  0  0  0
 40 43  1  0  0  0  0
 41 50  1  0  0  0  0
 42 65  1  0  0  0  0
 43 45  1  0  0  0  0
 44 46  1  0  0  0  0
 44 47  1  0  0  0  0
 45 49  1  0  0  0  0
 46 51  1  0  0  0  0
 47 66  1  0  0  0  0
 48 51  1  0  0  0  0
 48 66  1  0  0  0  0
 49 71  1  0  0  0  0
 50 65  1  0  0  0  0
 51 64  1  0  0  0  0
 52 61  1  0  0  0  0
 53 62  1  0  0  0  0
 54 62  1  0  0  0  0
 55 62  1  0  0  0  0
 56 73  1  0  0  0  0
 57 58  1  0  0  0  0
 57 59  1  0  0  0  0
 58 81  1  0  0  0  0
 59 82  1  0  0  0  0
 60 62  1  0  0  0  0
 60 72  1  0  0  0  0
 61 73  1  0  0  0  0
 63 64  1  0  0  0  0
M  CHG  1  73   1
M  ISO  4  39 100  58 101  70 100  81 101
M  END
> <Batch ID>
0099

> <Smiles>
CNC(C)C(=O)NC(C(=O)N1Cc2cc([101O:1][101CH2:1]CCOc3ccc(C(=O)[100NH:0][100C:0](=O)N4CCCC(n5nc(-c6ccc(Oc7ccc(F)cc7F)cc6)c(C(N)=O)c5N)C4)cc3N)ccc2CC1C(=O)NC1CCCc2ccccc21)C(C)(C)C

> <Shape>
0.212

> <Color>
0.075

> <Negative vol penalty>
0.000

$$$$

  -OEChem-04052300543D

 86 95  0     1  0  0  0  0  0999 V2000
  -25.2510  -38.1211   23.3017 C   0  0  0  0  0  0  0  0  0  0  0  0
  -26.0266  -37.3421   22.4490 C   0  0  0  0  0  0  0  0  0  0  0  0
  -21.9449  -11.4611   21.1801 C   0  0  0  0  0  0  0  0  0  0  0  0
  -24.1067  -12.3607   20.5848 C   0  0  0  0  0  0  0  0  0  0  0  0
  -27.5144  -21.4544   17.9891 C   0  0  0  0  0  0  0  0  0  0  0  0
  -24.5857  -37.5281   24.3739 C   0  0  0  0  0  0  0  0  0  0  0  0
  -26.1381  -35.9696   22.6687 C   0  0  0  0  0  0  0  0  0  0  0  0
  -26.8841  -29.7904   19.1222 C   0  0  0  0  0  0  0  0  0  0  0  0
  -26.2484  -20.9671   18.3136 C   0  0  0  0  0  0  0  0  0  0  0  0
  -22.3535  -10.1973   20.7540 C   0  0  0  0  0  0  0  0  0  0  0  0
  -24.5153  -11.0969   20.1587 C   0  0  0  0  0  0  0  0  0  0  0  0
  -27.6914  -28.6540   19.0965 C   0  0  0  0  0  0  0  0  0  0  0  0
  -24.2396   -7.6562   21.9449 C   0  0  0  0  0  0  0  0  0  0  0  0
  -23.9442   -6.5683   22.7664 C   0  0  0  0  0  0  0  0  0  0  0  0
  -26.4335  -27.7262   20.9338 C   0  0  0  0  0  0  0  0  0  0  0  0
  -27.2136  -19.6411   20.0876 C   0  0  0  0  0  0  0  0  0  0  0  0
  -22.6556   -5.5712   20.9824 C   0  0  0  0  0  0  0  0  0  0  0  0
  -22.8215  -12.5428   21.0955 C   0  0  0  0  0  0  0  0  0  0  0  0
  -28.6301  -21.0350   18.7138 C   0  0  0  0  0  0  0  0  0  0  0  0
  -21.9762  -14.2152   22.8264 C   0  0  0  0  0  0  0  0  0  0  0  0
  -24.6814  -36.1462   24.6012 C   0  0  0  0  0  0  0  0  0  0  0  0
  -25.8506  -29.9082   20.0627 C   0  0  0  0  0  0  0  0  0  0  0  0
  -25.4745  -35.3577   23.7458 C   0  0  0  0  0  0  0  0  0  0  0  0
  -25.6129  -28.8639   20.9677 C   0  0  0  0  0  0  0  0  0  0  0  0
  -26.0980  -20.0604   19.3629 C   0  0  0  0  0  0  0  0  0  0  0  0
  -23.6386  -10.0152   20.2434 C   0  0  0  0  0  0  0  0  0  0  0  0
  -27.4680  -27.6229   20.0042 C   0  0  0  0  0  0  0  0  0  0  0  0
  -23.7429   -7.7017   20.6423 C   0  0  0  0  0  0  0  0  0  0  0  0
  -23.1522   -5.5258   22.2851 C   0  0  0  0  0  0  0  0  0  0  0  0
  -28.4796  -20.1284   19.7631 C   0  0  0  0  0  0  0  0  0  0  0  0
  -22.9510   -6.6592   20.1610 C   0  0  0  0  0  0  0  0  0  0  0  0
  -22.3999  -13.8487   21.5350 C   0  0  0  0  0  0  0  0  0  0  0  0
  -21.6880  -15.5544   22.7261 C   0  0  0  0  0  0  0  0  0  0  0  0
  -29.9640  -21.5497   18.3661 C   0  0  0  0  0  0  0  0  0  0  0  0
  -21.8542  -13.4166   24.0110 C   0  0  0  0  0  0  0  0  0  0  0  0
  -25.2037  -31.9096   22.4458 C   0  0  0  0  0  0  0  0  0  0  0  0
  -22.4274  -30.2372   22.5788 C   0  0  0  0  0  0  0  0  0  0  0  0
  -20.7587  -27.3351   21.9152 C   0  0  0  0  0  0  0  0  0  0  0  0
  -23.6019  -19.8794   19.0742 C   0  0  0  0  0  0  0  0  0  0  0  0
  -23.9822  -35.5577   25.8010 C   0  0  0  0  0  0  0  0  0  0  0  0
  -24.9717  -31.1288   20.0599 C   0  0  0  0  0  0  0  0  0  0  0  0
  -24.5034  -28.9326   21.9840 C   0  0  0  0  0  0  0  0  0  0  0  0
  -23.8500  -34.0380   25.7442 C   0  0  0  0  0  0  0  0  0  0  0  0
  -20.2308  -18.8447   19.5662 C   0  0  0  0  0  0  0  0  0  0  0  0
  -25.1749  -33.4017   25.3363 C   0  0  0  0  0  0  0  0  0  0  0  0
  -20.3659  -17.4822   20.2500 C   0  0  0  0  0  0  0  0  0  0  0  0
  -31.1929  -25.0192   18.1320 C   0  0  0  0  0  0  0  0  0  0  0  0
  -21.3211  -19.0642   18.5189 C   0  0  0  0  0  0  0  0  0  0  0  0
  -31.4506  -23.5203   18.1288 C   0  0  0  0  0  0  0  0  0  0  0  0
  -29.2055  -23.9303   18.8890 C   0  0  0  0  0  0  0  0  0  0  0  0
  -22.8290  -17.5033   19.6846 C   0  0  0  0  0  0  0  0  0  0  0  0
  -25.6002  -33.8618   23.9367 C   0  0  1  0  0  0  0  0  0  0  0  0
  -24.2755  -31.3667   21.3964 C   0  0  1  0  0  0  0  0  0  0  0  0
  -30.0593  -25.1701   19.1491 C   0  0  2  0  0  0  0  0  0  0  0  0
  -21.7915  -17.2633   20.7935 C   0  0  2  0  0  0  0  0  0  0  0  0
  -18.5094  -26.2529   22.1736 C   0  0  0  0  0  0  0  0  0  0  0  0
  -22.9905  -29.7799   25.5426 C   0  0  0  0  0  0  0  0  0  0  0  0
  -21.2762  -27.9555   25.5154 C   0  0  0  0  0  0  0  0  0  0  0  0
  -20.6053  -30.3027   25.0024 C   0  0  0  0  0  0  0  0  0  0  0  0
  -20.4378  -27.0353   18.9885 C   0  0  0  0  0  0  0  0  0  0  0  0
  -29.2911  -26.4711   19.0014 C   0  0  0  0  0  0  0  0  0  1  0  0
  -21.9575  -29.0017   23.3081 C   0  0  1  0  0  0  0  0  0  0  0  0
  -19.4119  -27.0736   21.2655 C   0  0  2  0  0  0  0  0  0  0  0  0
  -21.7296  -29.2592   24.8244 C   0  0  0  0  0  0  0  0  0  0  0  0
  -22.3837  -14.8722   20.6771 N   0  0  0  0  0  0  0  0  0  0  0  0
  -21.9462  -15.8952   21.4309 N   0  0  0  0  0  0  0  0  0  0  0  0
  -30.1622  -22.9198   18.4409 N   0  0  0  0  0  0  0  0  0  0  0  0
  -23.6753  -30.1492   21.9457 N   0  0  0  0  0  0  0  0  0  0  0  0
  -22.6443  -18.8437   19.1067 N   0  0  0  0  0  0  0  0  0  0  0  0
  -21.2414  -16.4619   23.6202 N   0  0  0  0  0  0  0  0  0  0  0  0
  -22.1921  -12.0584   23.9388 N   0  0  0  0  0  0  0  0  0  0  0  0
  -24.8118  -19.5655   19.6924 N   0  0  0  0  0  0  0  0  0  0  0  0
  -24.8465  -33.1566   22.9222 N   0  0  0  0  0  0  0  0  0  0  0  0
  -20.7728  -28.5337   22.5968 N   0  0  0  0  0  0  0  0  0  0  0  0
  -19.5898  -26.3320   19.9851 N   0  3  0  0  0  0  0  0  0  0  0  0
  -30.8193  -20.7283   18.0415 O   0  0  0  0  0  0  0  0  0  0  0  0
  -21.4416  -13.8897   25.0970 O   0  0  0  0  0  0  0  0  0  0  0  0
  -26.1714  -31.2456   22.7984 O   0  0  0  0  0  0  0  0  0  0  0  0
  -21.7104  -31.2408   22.5653 O   0  0  0  0  0  0  0  0  0  0  0  0
  -21.7026  -26.5525   21.8301 O   0  0  0  0  0  0  0  0  0  0  0  0
  -23.3566  -20.9743   18.5614 O   0  0  0  0  0  0  0  0  0  0  0  0
  -24.0377   -8.7821   19.8277 O   0  0  0  0  0  0  0  0  0  0  0  0
  -28.2549  -26.5129   19.9817 O   0  0  0  0  0  0  0  0  0  1  0  0
  -22.8699   -4.4804   23.0736 F   0  0  0  0  0  0  0  0  0  0  0  0
  -29.5449  -19.7180   20.4662 F   0  0  0  0  0  0  0  0  0  0  0  0
  -22.4720   -6.6967   18.9100 F   0  0  0  0  0  0  0  0  0  0  0  0
  1  2  1  0  0  0  0
  1  6  2  0  0  0  0
  2  7  2  0  0  0  0
  3 10  2  0  0  0  0
  3 18  1  0  0  0  0
  4 11  1  0  0  0  0
  4 18  2  0  0  0  0
  5  9  2  0  0  0  0
  5 19  1  0  0  0  0
  6 21  1  0  0  0  0
  7 23  1  0  0  0  0
  8 12  2  0  0  0  0
  8 22  1  0  0  0  0
  9 25  1  0  0  0  0
 10 26  1  0  0  0  0
 11 26  2  0  0  0  0
 12 27  1  0  0  0  0
 13 14  2  0  0  0  0
 13 28  1  0  0  0  0
 14 29  1  0  0  0  0
 15 24  1  0  0  0  0
 15 27  2  0  0  0  0
 16 25  2  0  0  0  0
 16 30  1  0  0  0  0
 17 29  2  0  0  0  0
 17 31  1  0  0  0  0
 18 32  1  0  0  0  0
 19 30  2  0  0  0  0
 19 34  1  0  0  0  0
 20 32  1  0  0  0  0
 20 33  2  0  0  0  0
 20 35  1  0  0  0  0
 21 23  2  0  0  0  0
 21 40  1  0  0  0  0
 22 24  2  0  0  0  0
 22 41  1  0  0  0  0
 23 52  1  0  0  0  0
 24 42  1  0  0  0  0
 25 72  1  0  0  0  0
 26 82  1  0  0  0  0
 27 83  1  0  0  0  0
 28 31  2  0  0  0  0
 28 82  1  0  0  0  0
 29 84  1  0  0  0  0
 30 85  1  0  0  0  0
 31 86  1  0  0  0  0
 32 65  2  0  0  0  0
 33 66  1  0  0  0  0
 33 70  1  0  0  0  0
 34 67  1  0  0  0  0
 34 76  2  0  0  0  0
 35 71  1  0  0  0  0
 35 77  2  0  0  0  0
 36 53  1  0  0  0  0
 36 73  1  0  0  0  0
 36 78  2  0  0  0  0
 37 62  1  0  0  0  0
 37 68  1  0  0  0  0
 37 79  2  0  0  0  0
 38 63  1  0  0  0  0
 38 74  1  0  0  0  0
 38 80  2  0  0  0  0
 39 69  1  0  0  0  0
 39 72  1  0  0  0  0
 39 81  2  0  0  0  0
 40 43  1  0  0  0  0
 41 53  1  0  0  0  0
 42 68  1  0  0  0  0
 43 45  1  0  0  0  0
 44 46  1  0  0  0  0
 44 48  1  0  0  0  0
 45 52  1  0  0  0  0
 46 55  1  0  0  0  0
 47 49  1  0  0  0  0
 47 54  1  0  0  0  0
 48 69  1  0  0  0  0
 49 67  1  0  0  0  0
 50 54  1  0  0  0  0
 50 67  1  0  0  0  0
 51 55  1  0  0  0  0
 51 69  1  0  0  0  0
 52 73  1  0  0  0  0
 53 68  1  0  0  0  0
 54 61  1  0  0  0  0
 55 66  1  0  0  0  0
 56 63  1  0  0  0  0
 57 64  1  0  0  0  0
 58 64  1  0  0  0  0
 59 64  1  0  0  0  0
 60 75  1  0  0  0  0
 61 83  1  0  0  0  0
 62 64  1  0  0  0  0
 62 74  1  0  0  0  0
 63 75  1  0  0  0  0
 65 66  1  0  0  0  0
M  CHG  1  75   1
M  ISO  4  39 100  61 101  72 100  83 101
M  END
> <Batch ID>
0099

> <Smiles>
CNC(C)C(=O)NC(C(=O)N1Cc2cc([101O:1][101CH2:1]C3CCN(C(=O)c4ccc([100NH:0][100C:0](=O)N5CCCC(n6nc(-c7ccc(Oc8ccc(F)cc8F)cc7)c(C(N)=O)c6N)C5)cc4F)C3)ccc2CC1C(=O)NC1CCCc2ccccc21)C(C)(C)C

> <Shape>
0.298

> <Color>
0.072

> <Negative vol penalty>
0.000

$$$$

  -OEChem-04052300543D

 86 95  0     1  0  0  0  0  0999 V2000
  -23.2991  -33.4494   24.3014 C   0  0  0  0  0  0  0  0  0  0  0  0
  -24.1661  -32.3939   24.0373 C   0  0  0  0  0  0  0  0  0  0  0  0
  -23.2255  -10.2206   21.9299 C   0  0  0  0  0  0  0  0  0  0  0  0
  -24.7974  -10.8861   23.6397 C   0  0  0  0  0  0  0  0  0  0  0  0
  -21.9258  -33.2202   24.3756 C   0  0  0  0  0  0  0  0  0  0  0  0
  -23.6602  -31.1083   23.8482 C   0  0  0  0  0  0  0  0  0  0  0  0
  -25.7663  -28.7547   19.8896 C   0  0  0  0  0  0  0  0  0  0  0  0
  -30.7365  -20.2358   18.6770 C   0  0  0  0  0  0  0  0  0  0  0  0
  -30.5525  -18.8802   18.9493 C   0  0  0  0  0  0  0  0  0  0  0  0
  -22.7289   -9.2267   22.7732 C   0  0  0  0  0  0  0  0  0  0  0  0
  -24.3008   -9.8921   24.4831 C   0  0  0  0  0  0  0  0  0  0  0  0
  -27.0404  -28.2189   20.0716 C   0  0  0  0  0  0  0  0  0  0  0  0
  -23.6364   -6.1289   23.7757 C   0  0  0  0  0  0  0  0  0  0  0  0
  -23.4245   -4.8630   23.2296 C   0  0  0  0  0  0  0  0  0  0  0  0
  -26.0698  -26.0326   20.3837 C   0  0  0  0  0  0  0  0  0  0  0  0
  -28.3598  -19.3576   19.8443 C   0  0  0  0  0  0  0  0  0  0  0  0
  -21.0805   -5.0109   23.7962 C   0  0  0  0  0  0  0  0  0  0  0  0
  -24.2598  -11.0503   22.3632 C   0  0  0  0  0  0  0  0  0  0  0  0
  -24.0599  -13.1553   20.9361 C   0  0  0  0  0  0  0  0  0  0  0  0
  -21.4021  -31.9329   24.1777 C   0  0  0  0  0  0  0  0  0  0  0  0
  -24.6317  -27.9341   19.9643 C   0  0  0  0  0  0  0  0  0  0  0  0
  -22.2788  -30.8614   23.9211 C   0  0  0  0  0  0  0  0  0  0  0  0
  -24.7826  -26.5601   20.1998 C   0  0  0  0  0  0  0  0  0  0  0  0
  -28.5438  -20.7132   19.5721 C   0  0  0  0  0  0  0  0  0  0  0  0
  -29.7321  -21.1523   18.9884 C   0  0  0  0  0  0  0  0  0  0  0  0
  -29.3642  -18.4411   19.5329 C   0  0  0  0  0  0  0  0  0  0  0  0
  -23.2666   -9.0625   24.0498 C   0  0  0  0  0  0  0  0  0  0  0  0
  -27.1922  -26.8581   20.3215 C   0  0  0  0  0  0  0  0  0  0  0  0
  -22.5703   -6.8358   24.3320 C   0  0  0  0  0  0  0  0  0  0  0  0
  -22.1466   -4.3040   23.2398 C   0  0  0  0  0  0  0  0  0  0  0  0
  -21.2924   -6.2768   24.3423 C   0  0  0  0  0  0  0  0  0  0  0  0
  -24.7735  -12.0768   21.4923 C   0  0  0  0  0  0  0  0  0  0  0  0
  -24.9915  -13.8352   20.1902 C   0  0  0  0  0  0  0  0  0  0  0  0
  -30.2394  -25.2850   18.2281 C   0  0  0  0  0  0  0  0  0  0  0  0
  -22.6785  -13.5108   21.0808 C   0  0  0  0  0  0  0  0  0  0  0  0
  -22.0699  -27.8139   21.8422 C   0  0  0  0  0  0  0  0  0  0  0  0
  -21.1305  -25.5141   19.7563 C   0  0  0  0  0  0  0  0  0  0  0  0
  -22.6615  -22.7409   18.0293 C   0  0  0  0  0  0  0  0  0  0  0  0
  -30.0727  -16.0238   19.5621 C   0  0  0  0  0  0  0  0  0  0  0  0
  -19.9145  -31.7254   24.3144 C   0  0  0  0  0  0  0  0  0  0  0  0
  -23.2660  -28.5229   19.7392 C   0  0  0  0  0  0  0  0  0  0  0  0
  -23.5979  -25.6326   20.2694 C   0  0  0  0  0  0  0  0  0  0  0  0
  -29.7276  -24.3830   17.1292 C   0  0  0  0  0  0  0  0  0  0  0  0
  -19.4280  -30.4015   23.7307 C   0  0  0  0  0  0  0  0  0  0  0  0
  -29.6995  -12.5573   18.8399 C   0  0  0  0  0  0  0  0  0  0  0  0
  -20.3291  -29.2562   24.1813 C   0  0  0  0  0  0  0  0  0  0  0  0
  -28.3260  -12.2120   19.4199 C   0  0  0  0  0  0  0  0  0  0  0  0
  -30.1766  -22.9409   17.3302 C   0  0  0  0  0  0  0  0  0  0  0  0
  -30.4431  -13.5709   19.7080 C   0  0  0  0  0  0  0  0  0  0  0  0
  -30.5389  -23.3365   19.7613 C   0  0  0  0  0  0  0  0  0  0  0  0
  -28.3190  -14.4502   20.5935 C   0  0  0  0  0  0  0  0  0  0  0  0
  -21.7662  -29.4571   23.6857 C   0  0  1  0  0  0  0  0  0  0  0  0
  -30.0735  -24.7904   19.6533 C   0  0  2  0  0  0  0  0  0  0  0  0
  -22.1461  -27.6841   20.3472 C   0  0  1  0  0  0  0  0  0  0  0  0
  -27.5053  -13.4818   19.7195 C   0  0  2  0  0  0  0  0  0  0  0  0
  -27.4524  -21.6735   19.9170 C   0  0  0  0  0  0  0  0  0  0  0  0
  -22.0554  -21.6346   15.8599 C   0  0  0  0  0  0  0  0  0  0  0  0
  -19.5542  -23.5826   21.5155 C   0  0  0  0  0  0  0  0  0  0  0  0
  -20.2680  -21.7255   19.9957 C   0  0  0  0  0  0  0  0  0  0  0  0
  -18.8736  -23.5942   19.1090 C   0  0  0  0  0  0  0  0  0  0  0  0
  -25.3747  -23.1598   16.9239 C   0  0  0  0  0  0  0  0  0  0  0  0
  -28.6285  -24.9749   20.1059 C   0  0  0  0  0  0  0  0  0  1  0  0
  -21.3031  -24.0171   19.6665 C   0  0  1  0  0  0  0  0  0  0  0  0
  -22.9596  -22.6483   16.5437 C   0  0  2  0  0  0  0  0  0  0  0  0
  -20.0191  -23.2463   20.0845 C   0  0  0  0  0  0  0  0  0  0  0  0
  -26.0592  -12.0679   21.1305 N   0  0  0  0  0  0  0  0  0  0  0  0
  -26.1608  -13.1491   20.3389 N   0  0  0  0  0  0  0  0  0  0  0  0
  -29.9339  -22.5075   18.7093 N   0  0  2  0  0  0  0  0  0  0  0  0
  -22.2830  -26.2571   20.0489 N   0  0  0  0  0  0  0  0  0  0  0  0
  -29.6062  -14.7489   19.9464 N   0  0  0  0  0  0  0  0  0  0  0  0
  -24.9162  -14.9470   19.4282 N   0  0  0  0  0  0  0  0  0  0  0  0
  -21.8614  -12.7035   21.8839 N   0  0  0  0  0  0  0  0  0  0  0  0
  -29.1773  -17.0639   19.8089 N   0  0  0  0  0  0  0  0  0  0  0  0
  -21.8714  -29.1076   22.2852 N   0  0  0  0  0  0  0  0  0  0  0  0
  -21.7510  -23.7387   18.3063 N   0  0  0  0  0  0  0  0  0  0  0  0
  -24.3755  -22.2384   16.3241 N   0  3  0  0  0  0  0  0  0  0  0  0
  -30.6779  -26.4087   17.9841 O   0  0  0  0  0  0  0  0  0  0  0  0
  -22.1796  -14.5054   20.5016 O   0  0  0  0  0  0  0  0  0  0  0  0
  -22.1813  -26.8140   22.5419 O   0  0  0  0  0  0  0  0  0  0  0  0
  -20.0156  -26.0068   19.5665 O   0  0  0  0  0  0  0  0  0  0  0  0
  -23.1812  -21.9995   18.8604 O   0  0  0  0  0  0  0  0  0  0  0  0
  -31.1735  -16.1778   19.0268 O   0  0  0  0  0  0  0  0  0  0  0  0
  -22.7821   -8.0929   24.8731 O   0  0  0  0  0  0  0  0  0  0  0  0
  -28.4347  -26.3326   20.5001 O   0  0  0  0  0  0  0  0  0  1  0  0
  -21.9431   -3.0890   22.7141 F   0  0  0  0  0  0  0  0  0  0  0  0
  -20.2641   -6.9516   24.8743 F   0  0  0  0  0  0  0  0  0  0  0  0
  1  2  1  0  0  0  0
  1  5  2  0  0  0  0
  2  6  2  0  0  0  0
  3 10  2  0  0  0  0
  3 18  1  0  0  0  0
  4 11  1  0  0  0  0
  4 18  2  0  0  0  0
  5 20  1  0  0  0  0
  6 22  1  0  0  0  0
  7 12  2  0  0  0  0
  7 21  1  0  0  0  0
  8  9  2  0  0  0  0
  8 25  1  0  0  0  0
  9 26  1  0  0  0  0
 10 27  1  0  0  0  0
 11 27  2  0  0  0  0
 12 28  1  0  0  0  0
 13 14  2  0  0  0  0
 13 29  1  0  0  0  0
 14 30  1  0  0  0  0
 15 23  1  0  0  0  0
 15 28  2  0  0  0  0
 16 24  1  0  0  0  0
 16 26  2  0  0  0  0
 17 30  2  0  0  0  0
 17 31  1  0  0  0  0
 18 32  1  0  0  0  0
 19 32  1  0  0  0  0
 19 33  2  0  0  0  0
 19 35  1  0  0  0  0
 20 22  2  0  0  0  0
 20 40  1  0  0  0  0
 21 23  2  0  0  0  0
 21 41  1  0  0  0  0
 22 52  1  0  0  0  0
 23 42  1  0  0  0  0
 24 25  2  0  0  0  0
 24 56  1  0  0  0  0
 25 68  1  0  0  0  0
 26 73  1  0  0  0  0
 27 83  1  0  0  0  0
 28 84  1  0  0  0  0
 29 31  2  0  0  0  0
 29 83  1  0  0  0  0
 30 85  1  0  0  0  0
 31 86  1  0  0  0  0
 32 66  2  0  0  0  0
 33 67  1  0  0  0  0
 33 71  1  0  0  0  0
 34 43  1  0  0  0  0
 34 53  1  0  0  0  0
 34 77  2  0  0  0  0
 35 72  1  0  0  0  0
 35 78  2  0  0  0  0
 36 54  1  0  0  0  0
 36 74  1  0  0  0  0
 36 79  2  0  0  0  0
 37 63  1  0  0  0  0
 37 69  1  0  0  0  0
 37 80  2  0  0  0  0
 38 64  1  0  0  0  0
 38 75  1  0  0  0  0
 38 81  2  0  0  0  0
 39 70  1  0  0  0  0
 39 73  1  0  0  0  0
 39 82  2  0  0  0  0
 40 44  1  0  0  0  0
 41 54  1  0  0  0  0
 42 69  1  0  0  0  0
 43 48  1  0  0  0  0
 44 46  1  0  0  0  0
 45 47  1  0  0  0  0
 45 49  1  0  0  0  0
 46 52  1  0  0  0  0
 47 55  1  0  0  0  0
 48 68  1  0  0  0  0
 49 70  1  0  0  0  0
 50 53  1  0  0  0  0
 50 68  1  0  0  0  0
 51 55  1  0  0  0  0
 51 70  1  0  0  0  0
 52 74  1  0  0  0  0
 53 62  1  0  0  0  0
 54 69  1  0  0  0  0
 55 67  1  0  0  0  0
 57 64  1  0  0  0  0
 58 65  1  0  0  0  0
 59 65  1  0  0  0  0
 60 65  1  0  0  0  0
 61 76  1  0  0  0  0
 62 84  1  0  0  0  0
 63 65  1  0  0  0  0
 63 75  1  0  0  0  0
 64 76  1  0  0  0  0
 66 67  1  0  0  0  0
M  CHG  1  76   1
M  ISO  4  39 100  62 101  73 100  84 101
M  END
> <Batch ID>
0099

> <Smiles>
CNC(C)C(=O)NC(C(=O)N1Cc2cc([101O:1][101CH2:1]C3CN(c4ccc([100NH:0][100C:0](=O)N5CCCC(n6nc(-c7ccc(Oc8ccc(F)cc8F)cc7)c(C(N)=O)c6N)C5)cc4C)CCC3=O)ccc2CC1C(=O)NC1CCCc2ccccc21)C(C)(C)C

> <Shape>
0.307

> <Color>
0.144

> <Negative vol penalty>
0.000

$$$$

  -OEChem-04052300543D

 85 93  0     1  0  0  0  0  0999 V2000
  -29.8058  -35.1134   22.3878 C   0  0  0  0  0  0  0  0  0  0  0  0
  -29.3818  -33.7885   22.3718 C   0  0  0  0  0  0  0  0  0  0  0  0
  -24.3524   -8.8692   20.5285 C   0  0  0  0  0  0  0  0  0  0  0  0
  -22.9761  -10.7454   21.1788 C   0  0  0  0  0  0  0  0  0  0  0  0
  -29.4671  -20.4931   21.4701 C   0  0  0  0  0  0  0  0  0  0  0  0
  -28.9826  -36.1012   22.9269 C   0  0  0  0  0  0  0  0  0  0  0  0
  -28.1347  -33.4504   22.8960 C   0  0  0  0  0  0  0  0  0  0  0  0
  -25.5707  -30.2648   19.9089 C   0  0  0  0  0  0  0  0  0  0  0  0
  -29.5204  -19.1144   21.6747 C   0  0  0  0  0  0  0  0  0  0  0  0
  -23.3357   -7.9924   20.9064 C   0  0  0  0  0  0  0  0  0  0  0  0
  -21.9593   -9.8685   21.5567 C   0  0  0  0  0  0  0  0  0  0  0  0
  -25.9416  -28.9213   19.9439 C   0  0  0  0  0  0  0  0  0  0  0  0
  -22.1167   -6.6797   23.7727 C   0  0  0  0  0  0  0  0  0  0  0  0
  -22.4741   -5.5583   24.5212 C   0  0  0  0  0  0  0  0  0  0  0  0
  -28.2339  -20.1416   19.4225 C   0  0  0  0  0  0  0  0  0  0  0  0
  -24.0854  -28.4533   21.4117 C   0  0  0  0  0  0  0  0  0  0  0  0
  -21.5984   -4.1219   22.7872 C   0  0  0  0  0  0  0  0  0  0  0  0
  -24.1727  -10.2458   20.6647 C   0  0  0  0  0  0  0  0  0  0  0  0
  -28.8238  -21.0067   20.3441 C   0  0  0  0  0  0  0  0  0  0  0  0
  -25.4169  -11.7339   19.0079 C   0  0  0  0  0  0  0  0  0  0  0  0
  -27.7207  -35.7764   23.4492 C   0  0  0  0  0  0  0  0  0  0  0  0
  -24.4589  -30.7154   20.6350 C   0  0  0  0  0  0  0  0  0  0  0  0
  -27.2944  -34.4345   23.4438 C   0  0  0  0  0  0  0  0  0  0  0  0
  -23.7009  -29.8025   21.3822 C   0  0  0  0  0  0  0  0  0  0  0  0
  -28.9305  -18.2492   20.7532 C   0  0  0  0  0  0  0  0  0  0  0  0
  -22.1391   -8.4919   21.4205 C   0  0  0  0  0  0  0  0  0  0  0  0
  -25.2006  -28.0158   20.6976 C   0  0  0  0  0  0  0  0  0  0  0  0
  -21.5001   -6.5222   22.5314 C   0  0  0  0  0  0  0  0  0  0  0  0
  -22.2149   -4.2794   24.0285 C   0  0  0  0  0  0  0  0  0  0  0  0
  -28.2872  -18.7628   19.6271 C   0  0  0  0  0  0  0  0  0  0  0  0
  -21.2410   -5.2433   22.0387 C   0  0  0  0  0  0  0  0  0  0  0  0
  -25.2229  -11.1521   20.2750 C   0  0  0  0  0  0  0  0  0  0  0  0
  -26.5413  -12.5090   19.1545 C   0  0  0  0  0  0  0  0  0  0  0  0
  -28.7672  -22.4752   20.1262 C   0  0  0  0  0  0  0  0  0  0  0  0
  -24.6494  -11.5869   17.8058 C   0  0  0  0  0  0  0  0  0  0  0  0
  -24.0179  -32.7827   23.0089 C   0  0  0  0  0  0  0  0  0  0  0  0
  -27.3098  -25.1345   21.3224 C   0  0  0  0  0  0  0  0  0  0  0  0
  -20.8841  -32.1591   22.4499 C   0  0  0  0  0  0  0  0  0  0  0  0
  -18.5310  -30.0128   21.2238 C   0  0  0  0  0  0  0  0  0  0  0  0
  -29.5870  -16.1785   22.0288 C   0  0  0  0  0  0  0  0  0  0  0  0
  -26.8859  -36.8715   24.0644 C   0  0  0  0  0  0  0  0  0  0  0  0
  -24.0561  -32.1629   20.5654 C   0  0  0  0  0  0  0  0  0  0  0  0
  -22.4868  -30.2318   22.1633 C   0  0  0  0  0  0  0  0  0  0  0  0
  -25.4221  -36.4849   24.2595 C   0  0  0  0  0  0  0  0  0  0  0  0
  -29.9085  -12.7479   22.9263 C   0  0  0  0  0  0  0  0  0  0  0  0
  -25.3152  -35.0993   24.8884 C   0  0  0  0  0  0  0  0  0  0  0  0
  -28.7341  -12.0748   22.2123 C   0  0  0  0  0  0  0  0  0  0  0  0
  -29.5370  -14.1364   23.4439 C   0  0  0  0  0  0  0  0  0  0  0  0
  -27.7867  -14.3667   21.7257 C   0  0  0  0  0  0  0  0  0  0  0  0
  -25.9379  -34.0318   23.9805 C   0  0  1  0  0  0  0  0  0  0  0  0
  -23.2094  -32.6053   21.7549 C   0  0  1  0  0  0  0  0  0  0  0  0
  -28.1320  -12.9921   21.1299 C   0  0  2  0  0  0  0  0  0  0  0  0
  -16.0501  -29.7617   20.9416 C   0  0  0  0  0  0  0  0  0  0  0  0
  -20.6164  -31.4941   25.4158 C   0  0  0  0  0  0  0  0  0  0  0  0
  -18.4424  -30.3668   24.8954 C   0  0  0  0  0  0  0  0  0  0  0  0
  -18.7131  -32.8090   24.4656 C   0  0  0  0  0  0  0  0  0  0  0  0
  -18.7625  -29.8832   18.2762 C   0  0  0  0  0  0  0  0  0  0  0  0
  -28.7568  -24.7010   21.2224 C   0  0  0  0  0  0  0  0  0  0  0  0
  -26.9485  -26.4071   20.5830 C   0  0  0  0  0  0  0  0  0  1  0  0
  -19.8870  -31.1485   22.9633 C   0  0  1  0  0  0  0  0  0  0  0  0
  -17.3456  -30.2372   20.3025 C   0  0  2  0  0  0  0  0  0  0  0  0
  -19.4387  -31.4466   24.4220 C   0  0  0  0  0  0  0  0  0  0  0  0
  -26.1497  -11.5255   21.1613 N   0  0  0  0  0  0  0  0  0  0  0  0
  -26.9371  -12.3503   20.4500 N   0  0  0  0  0  0  0  0  0  0  0  0
  -22.1371  -31.6588   22.0685 N   0  0  0  0  0  0  0  0  0  0  0  0
  -28.9775  -14.9506   22.3628 N   0  0  0  0  0  0  0  0  0  0  0  0
  -27.2201  -13.3040   18.3003 N   0  0  0  0  0  0  0  0  0  0  0  0
  -23.5239  -10.7521   17.8296 N   0  0  0  0  0  0  0  0  0  0  0  0
  -28.9869  -16.8491   20.9636 N   0  0  0  0  0  0  0  0  0  0  0  0
  -28.8245  -23.2707   21.2678 N   0  0  0  0  0  0  0  0  0  0  0  0
  -25.0395  -33.7061   22.8937 N   0  0  0  0  0  0  0  0  0  0  0  0
  -18.7953  -31.1243   21.9958 N   0  0  0  0  0  0  0  0  0  0  0  0
  -17.5371  -29.4981   19.0226 N   0  3  0  0  0  0  0  0  0  0  0  0
  -28.6548  -22.9082   18.9823 O   0  0  0  0  0  0  0  0  0  0  0  0
  -24.9621  -12.1655   16.7377 O   0  0  0  0  0  0  0  0  0  0  0  0
  -23.7348  -32.1313   24.0075 O   0  0  0  0  0  0  0  0  0  0  0  0
  -26.4862  -24.5246   22.0039 O   0  0  0  0  0  0  0  0  0  0  0  0
  -20.5605  -33.3476   22.3829 O   0  0  0  0  0  0  0  0  0  0  0  0
  -19.1573  -28.9559   21.2581 O   0  0  0  0  0  0  0  0  0  0  0  0
  -30.5854  -16.5906   22.6248 O   0  0  0  0  0  0  0  0  0  0  0  0
  -21.1467   -7.6366   21.7891 O   0  0  0  0  0  0  0  0  0  0  0  0
  -25.5609  -26.7041   20.7340 O   0  0  0  0  0  0  0  0  0  1  0  0
  -22.5596   -3.2026   24.7467 F   0  0  0  0  0  0  0  0  0  0  0  0
  -27.7171  -17.9409   18.7341 F   0  0  0  0  0  0  0  0  0  0  0  0
  -20.6500   -5.0857   20.8464 F   0  0  0  0  0  0  0  0  0  0  0  0
  1  2  1  0  0  0  0
  1  6  2  0  0  0  0
  2  7  2  0  0  0  0
  3 10  2  0  0  0  0
  3 18  1  0  0  0  0
  4 11  1  0  0  0  0
  4 18  2  0  0  0  0
  5  9  2  0  0  0  0
  5 19  1  0  0  0  0
  6 21  1  0  0  0  0
  7 23  1  0  0  0  0
  8 12  2  0  0  0  0
  8 22  1  0  0  0  0
  9 25  1  0  0  0  0
 10 26  1  0  0  0  0
 11 26  2  0  0  0  0
 12 27  1  0  0  0  0
 13 14  2  0  0  0  0
 13 28  1  0  0  0  0
 14 29  1  0  0  0  0
 15 19  2  0  0  0  0
 15 30  1  0  0  0  0
 16 24  1  0  0  0  0
 16 27  2  0  0  0  0
 17 29  2  0  0  0  0
 17 31  1  0  0  0  0
 18 32  1  0  0  0  0
 19 34  1  0  0  0  0
 20 32  1  0  0  0  0
 20 33  2  0  0  0  0
 20 35  1  0  0  0  0
 21 23  2  0  0  0  0
 21 41  1  0  0  0  0
 22 24  2  0  0  0  0
 22 42  1  0  0  0  0
 23 50  1  0  0  0  0
 24 43  1  0  0  0  0
 25 30  2  0  0  0  0
 25 69  1  0  0  0  0
 26 81  1  0  0  0  0
 27 82  1  0  0  0  0
 28 31  2  0  0  0  0
 28 81  1  0  0  0  0
 29 83  1  0  0  0  0
 30 84  1  0  0  0  0
 31 85  1  0  0  0  0
 32 63  2  0  0  0  0
 33 64  1  0  0  0  0
 33 67  1  0  0  0  0
 34 70  1  0  0  0  0
 34 74  2  0  0  0  0
 35 68  1  0  0  0  0
 35 75  2  0  0  0  0
 36 51  1  0  0  0  0
 36 71  1  0  0  0  0
 36 76  2  0  0  0  0
 37 58  1  0  0  0  0
 37 59  1  0  0  0  0
 37 77  2  0  0  0  0
 38 60  1  0  0  0  0
 38 65  1  0  0  0  0
 38 78  2  0  0  0  0
 39 61  1  0  0  0  0
 39 72  1  0  0  0  0
 39 79  2  0  0  0  0
 40 66  1  0  0  0  0
 40 69  1  0  0  0  0
 40 80  2  0  0  0  0
 41 44  1  0  0  0  0
 42 51  1  0  0  0  0
 43 65  1  0  0  0  0
 44 46  1  0  0  0  0
 45 47  1  0  0  0  0
 45 48  1  0  0  0  0
 46 50  1  0  0  0  0
 47 52  1  0  0  0  0
 48 66  1  0  0  0  0
 49 52  1  0  0  0  0
 49 66  1  0  0  0  0
 50 71  1  0  0  0  0
 51 65  1  0  0  0  0
 52 64  1  0  0  0  0
 53 61  1  0  0  0  0
 54 62  1  0  0  0  0
 55 62  1  0  0  0  0
 56 62  1  0  0  0  0
 57 73  1  0  0  0  0
 58 70  1  0  0  0  0
 59 82  1  0  0  0  0
 60 62  1  0  0  0  0
 60 72  1  0  0  0  0
 61 73  1  0  0  0  0
 63 64  1  0  0  0  0
M  CHG  1  73   1
M  ISO  4  40 100  59 101  69 100  82 101
M  END
> <Batch ID>
0099

> <Smiles>
CNC(C)C(=O)NC(C(=O)N1Cc2cc([101O:1][101CH2:1]C(=O)CNC(=O)c3ccc([100NH:0][100C:0](=O)N4CCCC(n5nc(-c6ccc(Oc7ccc(F)cc7F)cc6)c(C(N)=O)c5N)C4)c(F)c3)ccc2CC1C(=O)NC1CCCc2ccccc21)C(C)(C)C

> <Shape>
0.310

> <Color>
0.107

> <Negative vol penalty>
0.000

$$$$
