
  -OEChem-04052300573D

 85 93  0     1  0  0  0  0  0999 V2000
  -29.6564  -33.3977   23.5393 C   0  0  0  0  0  0  0  0  0  0  0  0
  -29.5317  -32.1212   23.0003 C   0  0  0  0  0  0  0  0  0  0  0  0
  -22.9905  -10.0289   19.8864 C   0  0  0  0  0  0  0  0  0  0  0  0
  -24.0269   -9.5358   22.0124 C   0  0  0  0  0  0  0  0  0  0  0  0
  -28.6453  -33.9129   24.3493 C   0  0  0  0  0  0  0  0  0  0  0  0
  -28.3963  -31.3587   23.2721 C   0  0  0  0  0  0  0  0  0  0  0  0
  -26.5464  -29.0880   19.1408 C   0  0  0  0  0  0  0  0  0  0  0  0
  -22.2824   -8.8290   19.9533 C   0  0  0  0  0  0  0  0  0  0  0  0
  -23.3188   -8.3359   22.0793 C   0  0  0  0  0  0  0  0  0  0  0  0
  -27.2022  -27.9404   18.6975 C   0  0  0  0  0  0  0  0  0  0  0  0
  -20.1888   -7.3334   22.8661 C   0  0  0  0  0  0  0  0  0  0  0  0
  -19.5817   -7.0077   24.0789 C   0  0  0  0  0  0  0  0  0  0  0  0
  -25.5146  -26.5763   19.7513 C   0  0  0  0  0  0  0  0  0  0  0  0
  -29.0547  -19.7687   21.4187 C   0  0  0  0  0  0  0  0  0  0  0  0
  -31.1878  -19.7089   20.2860 C   0  0  0  0  0  0  0  0  0  0  0  0
  -20.9032   -4.9886   24.1983 C   0  0  0  0  0  0  0  0  0  0  0  0
  -23.8629  -10.3822   20.9160 C   0  0  0  0  0  0  0  0  0  0  0  0
  -24.1888  -12.8771   21.3367 C   0  0  0  0  0  0  0  0  0  0  0  0
  -27.4926  -33.1601   24.6233 C   0  0  0  0  0  0  0  0  0  0  0  0
  -25.3738  -28.9881   19.9033 C   0  0  0  0  0  0  0  0  0  0  0  0
  -27.3695  -31.8638   24.0877 C   0  0  0  0  0  0  0  0  0  0  0  0
  -24.8444  -27.7243   20.2009 C   0  0  0  0  0  0  0  0  0  0  0  0
  -29.3555  -18.5614   22.0490 C   0  0  0  0  0  0  0  0  0  0  0  0
  -30.5725  -17.9278   21.7979 C   0  0  0  0  0  0  0  0  0  0  0  0
  -29.9708  -20.3425   20.5371 C   0  0  0  0  0  0  0  0  0  0  0  0
  -22.4465   -7.9825   21.0498 C   0  0  0  0  0  0  0  0  0  0  0  0
  -26.6879  -26.6842   19.0052 C   0  0  0  0  0  0  0  0  0  0  0  0
  -21.1531   -6.4867   22.3193 C   0  0  0  0  0  0  0  0  0  0  0  0
  -19.9389   -5.8354   24.7450 C   0  0  0  0  0  0  0  0  0  0  0  0
  -31.4887  -18.5015   20.9164 C   0  0  0  0  0  0  0  0  0  0  0  0
  -21.5103   -5.3143   22.9854 C   0  0  0  0  0  0  0  0  0  0  0  0
  -24.5951  -11.6213   20.8472 C   0  0  0  0  0  0  0  0  0  0  0  0
  -25.2284  -13.7193   21.0262 C   0  0  0  0  0  0  0  0  0  0  0  0
  -22.9799  -13.2491   22.0118 C   0  0  0  0  0  0  0  0  0  0  0  0
  -24.5267  -29.8599   22.8403 C   0  0  0  0  0  0  0  0  0  0  0  0
  -28.4495  -23.5332   19.2774 C   0  0  0  0  0  0  0  0  0  0  0  0
  -21.5968  -28.8597   21.8720 C   0  0  0  0  0  0  0  0  0  0  0  0
  -19.7515  -26.9016   19.7725 C   0  0  0  0  0  0  0  0  0  0  0  0
  -30.6942  -14.8199   20.7835 C   0  0  0  0  0  0  0  0  0  0  0  0
  -26.4478  -33.7410   25.5430 C   0  0  0  0  0  0  0  0  0  0  0  0
  -24.6637  -30.2362   20.3512 C   0  0  0  0  0  0  0  0  0  0  0  0
  -23.5774  -27.5632   20.9991 C   0  0  0  0  0  0  0  0  0  0  0  0
  -25.1068  -33.0146   25.4771 C   0  0  0  0  0  0  0  0  0  0  0  0
  -29.2701  -13.0093   18.0687 C   0  0  0  0  0  0  0  0  0  0  0  0
  -25.3142  -31.5045   25.5342 C   0  0  0  0  0  0  0  0  0  0  0  0
  -27.8967  -12.5854   18.5921 C   0  0  0  0  0  0  0  0  0  0  0  0
  -30.3282  -12.9768   19.1693 C   0  0  0  0  0  0  0  0  0  0  0  0
  -28.6120  -13.3211   20.9042 C   0  0  0  0  0  0  0  0  0  0  0  0
  -26.1416  -31.0157   24.3393 C   0  0  1  0  0  0  0  0  0  0  0  0
  -23.7582  -30.0081   21.5577 C   0  0  1  0  0  0  0  0  0  0  0  0
  -27.5002  -13.3917   19.8435 C   0  0  2  0  0  0  0  0  0  0  0  0
  -28.3588  -17.9660   22.9885 C   0  0  0  0  0  0  0  0  0  0  0  0
  -17.3815  -26.2677   19.2448 C   0  0  0  0  0  0  0  0  0  0  0  0
  -21.5241  -27.0791   24.3488 C   0  0  0  0  0  0  0  0  0  0  0  0
  -19.6414  -25.8091   23.2950 C   0  0  0  0  0  0  0  0  0  0  0  0
  -19.3660  -28.2304   23.8279 C   0  0  0  0  0  0  0  0  0  0  0  0
  -19.9627  -27.9512   17.0134 C   0  0  0  0  0  0  0  0  0  0  0  0
  -30.9131  -16.6343   22.4625 C   0  0  0  0  0  0  0  0  0  0  0  0
  -28.4429  -22.2681   20.1089 C   0  0  0  0  0  0  0  0  0  0  0  0
  -27.2062  -24.3945   19.3855 C   0  0  0  0  0  0  0  0  0  1  0  0
  -20.8521  -27.5468   21.9002 C   0  0  1  0  0  0  0  0  0  0  0  0
  -18.5324  -27.2076   18.9213 C   0  0  2  0  0  0  0  0  0  0  0  0
  -20.3708  -27.1690   23.3296 C   0  0  0  0  0  0  0  0  0  0  0  0
  -25.7988  -11.6579   20.2694 N   0  0  0  0  0  0  0  0  0  0  0  0
  -26.1578  -12.9470   20.3939 N   0  0  0  0  0  0  0  0  0  0  0  0
  -22.9231  -28.8132   21.4197 N   0  0  0  0  0  0  0  0  0  0  0  0
  -29.8915  -13.7616   20.3265 N   0  0  0  0  0  0  0  0  0  0  0  0
  -25.4290  -15.0379   21.2350 N   0  0  0  0  0  0  0  0  0  0  0  0
  -22.0166  -12.2595   22.2510 N   0  0  0  0  0  0  0  0  0  0  0  0
  -29.6722  -21.5437   19.9101 N   0  0  0  0  0  0  0  0  0  0  0  0
  -25.3203  -30.9480   23.1496 N   0  0  0  0  0  0  0  0  0  0  0  0
  -19.7780  -27.6657   20.9200 N   0  0  0  0  0  0  0  0  0  0  0  0
  -30.2038  -15.5163   21.8813 N   0  0  0  0  0  0  0  0  0  0  0  0
  -18.8620  -27.0666   17.4748 N   0  3  0  0  0  0  0  0  0  0  0  0
  -22.7532  -14.4275   22.3771 O   0  0  0  0  0  0  0  0  0  0  0  0
  -24.4073  -28.8349   23.5012 O   0  0  0  0  0  0  0  0  0  0  0  0
  -29.3953  -23.8515   18.5577 O   0  0  0  0  0  0  0  0  0  0  0  0
  -21.0207  -29.8896   22.2310 O   0  0  0  0  0  0  0  0  0  0  0  0
  -20.5939  -26.0656   19.4534 O   0  0  0  0  0  0  0  0  0  0  0  0
  -31.7658  -15.1250   20.2491 O   0  0  0  0  0  0  0  0  0  0  0  0
  -21.7555   -6.8118   21.1155 O   0  0  0  0  0  0  0  0  0  0  0  0
  -27.3264  -25.5623   18.5743 O   0  0  0  0  0  0  0  0  0  1  0  0
  -19.3570   -5.5235   25.9105 F   0  0  0  0  0  0  0  0  0  0  0  0
  -32.6609  -17.9006   20.6681 F   0  0  0  0  0  0  0  0  0  0  0  0
  -22.4368   -4.4975   22.4656 F   0  0  0  0  0  0  0  0  0  0  0  0
  1  2  1  0  0  0  0
  1  5  2  0  0  0  0
  2  6  2  0  0  0  0
  3  8  2  0  0  0  0
  3 17  1  0  0  0  0
  4  9  1  0  0  0  0
  4 17  2  0  0  0  0
  5 19  1  0  0  0  0
  6 21  1  0  0  0  0
  7 10  2  0  0  0  0
  7 20  1  0  0  0  0
  8 26  1  0  0  0  0
  9 26  2  0  0  0  0
 10 27  1  0  0  0  0
 11 12  2  0  0  0  0
 11 28  1  0  0  0  0
 12 29  1  0  0  0  0
 13 22  1  0  0  0  0
 13 27  2  0  0  0  0
 14 23  2  0  0  0  0
 14 25  1  0  0  0  0
 15 25  2  0  0  0  0
 15 30  1  0  0  0  0
 16 29  2  0  0  0  0
 16 31  1  0  0  0  0
 17 32  1  0  0  0  0
 18 32  1  0  0  0  0
 18 33  2  0  0  0  0
 18 34  1  0  0  0  0
 19 21  2  0  0  0  0
 19 40  1  0  0  0  0
 20 22  2  0  0  0  0
 20 41  1  0  0  0  0
 21 49  1  0  0  0  0
 22 42  1  0  0  0  0
 23 24  1  0  0  0  0
 23 52  1  0  0  0  0
 24 30  2  0  0  0  0
 24 58  1  0  0  0  0
 25 70  1  0  0  0  0
 26 81  1  0  0  0  0
 27 82  1  0  0  0  0
 28 31  2  0  0  0  0
 28 81  1  0  0  0  0
 29 83  1  0  0  0  0
 30 84  1  0  0  0  0
 31 85  1  0  0  0  0
 32 64  2  0  0  0  0
 33 65  1  0  0  0  0
 33 68  1  0  0  0  0
 34 69  1  0  0  0  0
 34 75  2  0  0  0  0
 35 50  1  0  0  0  0
 35 71  1  0  0  0  0
 35 76  2  0  0  0  0
 36 59  1  0  0  0  0
 36 60  1  0  0  0  0
 36 77  2  0  0  0  0
 37 61  1  0  0  0  0
 37 66  1  0  0  0  0
 37 78  2  0  0  0  0
 38 62  1  0  0  0  0
 38 72  1  0  0  0  0
 38 79  2  0  0  0  0
 39 67  1  0  0  0  0
 39 73  1  0  0  0  0
 39 80  2  0  0  0  0
 40 43  1  0  0  0  0
 41 50  1  0  0  0  0
 42 66  1  0  0  0  0
 43 45  1  0  0  0  0
 44 46  1  0  0  0  0
 44 47  1  0  0  0  0
 45 49  1  0  0  0  0
 46 51  1  0  0  0  0
 47 67  1  0  0  0  0
 48 51  1  0  0  0  0
 48 67  1  0  0  0  0
 49 71  1  0  0  0  0
 50 66  1  0  0  0  0
 51 65  1  0  0  0  0
 53 62  1  0  0  0  0
 54 63  1  0  0  0  0
 55 63  1  0  0  0  0
 56 63  1  0  0  0  0
 57 74  1  0  0  0  0
 58 73  1  0  0  0  0
 59 70  1  0  0  0  0
 60 82  1  0  0  0  0
 61 63  1  0  0  0  0
 61 72  1  0  0  0  0
 62 74  1  0  0  0  0
 64 65  1  0  0  0  0
M  CHG  1  74   1
M  ISO  4  39 100  60 101  73 100  82 101
M  END
> <Batch ID>
0100

> <Smiles>
CNC(C)C(=O)NC(C(=O)N1Cc2cc([101O:1][101CH2:1]C(=O)CNc3cc(C)c(C[100NH:0][100C:0](=O)N4CCCC(n5nc(-c6ccc(Oc7ccc(F)cc7F)cc6)c(C(N)=O)c5N)C4)c(F)c3)ccc2CC1C(=O)NC1CCCc2ccccc21)C(C)(C)C

> <Shape>
0.406

> <Color>
0.182

> <Negative vol penalty>
0.000

$$$$

  -OEChem-04052300573D

 84 92  0     1  0  0  0  0  0999 V2000
  -27.5952  -35.5494   16.7007 C   0  0  0  0  0  0  0  0  0  0  0  0
  -27.9785  -34.3219   17.2316 C   0  0  0  0  0  0  0  0  0  0  0  0
  -23.4424  -16.0922   22.7697 C   0  0  0  0  0  0  0  0  0  0  0  0
  -22.4999  -16.0819   20.5451 C   0  0  0  0  0  0  0  0  0  0  0  0
  -26.7966  -36.4127   17.4495 C   0  0  0  0  0  0  0  0  0  0  0  0
  -27.5641  -33.9575   18.5122 C   0  0  0  0  0  0  0  0  0  0  0  0
  -25.9144  -29.1747   18.7328 C   0  0  0  0  0  0  0  0  0  0  0  0
  -30.4948  -17.8471   20.7493 C   0  0  0  0  0  0  0  0  0  0  0  0
  -30.0230  -19.1533   20.8789 C   0  0  0  0  0  0  0  0  0  0  0  0
  -22.4971  -17.0383   23.1658 C   0  0  0  0  0  0  0  0  0  0  0  0
  -21.5545  -17.0280   20.9413 C   0  0  0  0  0  0  0  0  0  0  0  0
  -26.8796  -28.1692   18.7668 C   0  0  0  0  0  0  0  0  0  0  0  0
  -20.5572  -19.7239   24.6651 C   0  0  0  0  0  0  0  0  0  0  0  0
  -21.0009  -20.8092   25.4207 C   0  0  0  0  0  0  0  0  0  0  0  0
  -26.5968  -27.9868   21.1555 C   0  0  0  0  0  0  0  0  0  0  0  0
  -29.7365  -17.3511   22.9889 C   0  0  0  0  0  0  0  0  0  0  0  0
  -22.4750  -21.4600   23.6205 C   0  0  0  0  0  0  0  0  0  0  0  0
  -23.4438  -15.6140   21.4593 C   0  0  0  0  0  0  0  0  0  0  0  0
  -24.2975  -13.2360   21.1077 C   0  0  0  0  0  0  0  0  0  0  0  0
  -26.3642  -36.0545   18.7362 C   0  0  0  0  0  0  0  0  0  0  0  0
  -25.2900  -29.6021   19.9134 C   0  0  0  0  0  0  0  0  0  0  0  0
  -26.7600  -34.8174   19.2795 C   0  0  0  0  0  0  0  0  0  0  0  0
  -25.6222  -28.9962   21.1335 C   0  0  0  0  0  0  0  0  0  0  0  0
  -30.3515  -16.9459   21.8043 C   0  0  0  0  0  0  0  0  0  0  0  0
  -29.4081  -19.5585   22.0635 C   0  0  0  0  0  0  0  0  0  0  0  0
  -21.5532  -17.5061   22.2517 C   0  0  0  0  0  0  0  0  0  0  0  0
  -27.2230  -27.5771   19.9787 C   0  0  0  0  0  0  0  0  0  0  0  0
  -21.0725  -19.5066   23.3872 C   0  0  0  0  0  0  0  0  0  0  0  0
  -21.9597  -21.6772   24.8984 C   0  0  0  0  0  0  0  0  0  0  0  0
  -29.2649  -18.6573   23.1186 C   0  0  0  0  0  0  0  0  0  0  0  0
  -22.0313  -20.3746   22.8649 C   0  0  0  0  0  0  0  0  0  0  0  0
  -24.4204  -14.6371   21.0493 C   0  0  0  0  0  0  0  0  0  0  0  0
  -25.4863  -12.7658   20.6053 C   0  0  0  0  0  0  0  0  0  0  0  0
  -23.2064  -12.4313   21.5742 C   0  0  0  0  0  0  0  0  0  0  0  0
  -25.1370  -32.3514   21.5015 C   0  0  0  0  0  0  0  0  0  0  0  0
  -23.0186  -30.7224   23.3404 C   0  0  0  0  0  0  0  0  0  0  0  0
  -21.8799  -27.7105   24.4712 C   0  0  0  0  0  0  0  0  0  0  0  0
  -30.8809  -14.9518   20.4135 C   0  0  0  0  0  0  0  0  0  0  0  0
  -25.5411  -37.0410   19.5262 C   0  0  0  0  0  0  0  0  0  0  0  0
  -24.2316  -30.6693   19.8562 C   0  0  0  0  0  0  0  0  0  0  0  0
  -24.9665  -29.4048   22.4264 C   0  0  0  0  0  0  0  0  0  0  0  0
  -24.8344  -36.4198   20.7283 C   0  0  0  0  0  0  0  0  0  0  0  0
  -28.9987  -13.9175   17.5797 C   0  0  0  0  0  0  0  0  0  0  0  0
  -25.7971  -35.5367   21.5158 C   0  0  0  0  0  0  0  0  0  0  0  0
  -27.5856  -13.8590   18.1589 C   0  0  0  0  0  0  0  0  0  0  0  0
  -29.7890  -15.1106   18.1180 C   0  0  0  0  0  0  0  0  0  0  0  0
  -28.4152  -15.1288   20.1763 C   0  0  0  0  0  0  0  0  0  0  0  0
  -26.3102  -34.3758   20.6553 C   0  0  1  0  0  0  0  0  0  0  0  0
  -24.0307  -31.3837   21.1891 C   0  0  1  0  0  0  0  0  0  0  0  0
  -27.6167  -13.9067   19.6967 C   0  0  1  0  0  0  0  0  0  0  0  0
  -20.1600  -26.7005   25.9941 C   0  0  0  0  0  0  0  0  0  0  0  0
  -24.6960  -31.5214   25.7607 C   0  0  0  0  0  0  0  0  0  0  0  0
  -23.5166  -29.7475   27.0762 C   0  0  0  0  0  0  0  0  0  0  0  0
  -22.2239  -31.6524   26.1156 C   0  0  0  0  0  0  0  0  0  0  0  0
  -31.5215  -14.9790   22.8143 C   0  0  0  0  0  0  0  0  0  0  0  0
  -20.5966  -26.2471   22.2418 C   0  0  0  0  0  0  0  0  0  0  0  0
  -28.4946  -23.1952   21.6185 C   0  0  0  0  0  0  0  0  0  0  0  0
  -28.6316  -24.2897   20.5592 C   0  0  0  0  0  0  0  0  0  0  0  0
  -29.0491  -21.8524   21.1498 C   0  0  0  0  0  0  0  0  0  0  0  0
  -28.0354  -25.6080   21.0363 C   0  0  0  0  0  0  0  0  0  1  0  0
  -23.1172  -29.8583   24.5743 C   0  0  1  0  0  0  0  0  0  0  0  0
  -20.4779  -27.1373   24.5725 C   0  0  2  0  0  0  0  0  0  0  0  0
  -23.4024  -30.6883   25.8578 C   0  0  0  0  0  0  0  0  0  0  0  0
  -25.5946  -15.0314   20.5495 N   0  0  0  0  0  0  0  0  0  0  0  0
  -26.2204  -13.8710   20.2892 N   0  0  0  0  0  0  0  0  0  0  0  0
  -23.9423  -30.4570   22.3194 N   0  0  0  0  0  0  0  0  0  0  0  0
  -29.7564  -15.1370   19.5871 N   0  0  0  0  0  0  0  0  0  0  0  0
  -25.9647  -11.5191   20.4075 N   0  0  0  0  0  0  0  0  0  0  0  0
  -22.0598  -13.0761   22.0578 N   0  0  0  0  0  0  0  0  0  0  0  0
  -28.9411  -20.8572   22.1899 N   0  0  0  0  0  0  0  0  0  0  0  0
  -25.3042  -33.3406   20.5513 N   0  0  0  0  0  0  0  0  0  0  0  0
  -21.8841  -29.0805   24.6275 N   0  0  0  0  0  0  0  0  0  0  0  0
  -30.8403  -15.5938   21.6698 N   0  0  0  0  0  0  0  0  0  0  0  0
  -20.3352  -25.9562   23.6750 N   0  3  0  0  0  0  0  0  0  0  0  0
  -23.2535  -11.1778   21.5777 O   0  0  0  0  0  0  0  0  0  0  0  0
  -25.7895  -32.2117   22.5294 O   0  0  0  0  0  0  0  0  0  0  0  0
  -22.1495  -31.5957   23.2815 O   0  0  0  0  0  0  0  0  0  0  0  0
  -22.8726  -27.0124   24.2769 O   0  0  0  0  0  0  0  0  0  0  0  0
  -31.8358  -14.2462   20.0668 O   0  0  0  0  0  0  0  0  0  0  0  0
  -20.6304  -18.4291   22.6380 O   0  0  0  0  0  0  0  0  0  0  0  0
  -28.1652  -26.5959   20.0148 O   0  0  0  0  0  0  0  0  0  1  0  0
  -22.3845  -22.7202   25.6235 F   0  0  0  0  0  0  0  0  0  0  0  0
  -28.6769  -19.0368   24.2621 F   0  0  0  0  0  0  0  0  0  0  0  0
  -22.5292  -20.1717   21.6374 F   0  0  0  0  0  0  0  0  0  0  0  0
  1  2  1  0  0  0  0
  1  5  2  0  0  0  0
  2  6  2  0  0  0  0
  3 10  2  0  0  0  0
  3 18  1  0  0  0  0
  4 11  1  0  0  0  0
  4 18  2  0  0  0  0
  5 20  1  0  0  0  0
  6 22  1  0  0  0  0
  7 12  2  0  0  0  0
  7 21  1  0  0  0  0
  8  9  2  0  0  0  0
  8 24  1  0  0  0  0
  9 25  1  0  0  0  0
 10 26  1  0  0  0  0
 11 26  2  0  0  0  0
 12 27  1  0  0  0  0
 13 14  2  0  0  0  0
 13 28  1  0  0  0  0
 14 29  1  0  0  0  0
 15 23  1  0  0  0  0
 15 27  2  0  0  0  0
 16 24  2  0  0  0  0
 16 30  1  0  0  0  0
 17 29  2  0  0  0  0
 17 31  1  0  0  0  0
 18 32  1  0  0  0  0
 19 32  1  0  0  0  0
 19 33  2  0  0  0  0
 19 34  1  0  0  0  0
 20 22  2  0  0  0  0
 20 39  1  0  0  0  0
 21 23  2  0  0  0  0
 21 40  1  0  0  0  0
 22 48  1  0  0  0  0
 23 41  1  0  0  0  0
 24 73  1  0  0  0  0
 25 30  2  0  0  0  0
 25 70  1  0  0  0  0
 26 80  1  0  0  0  0
 27 81  1  0  0  0  0
 28 31  2  0  0  0  0
 28 80  1  0  0  0  0
 29 82  1  0  0  0  0
 30 83  1  0  0  0  0
 31 84  1  0  0  0  0
 32 64  2  0  0  0  0
 33 65  1  0  0  0  0
 33 68  1  0  0  0  0
 34 69  1  0  0  0  0
 34 75  2  0  0  0  0
 35 49  1  0  0  0  0
 35 71  1  0  0  0  0
 35 76  2  0  0  0  0
 36 61  1  0  0  0  0
 36 66  1  0  0  0  0
 36 77  2  0  0  0  0
 37 62  1  0  0  0  0
 37 72  1  0  0  0  0
 37 78  2  0  0  0  0
 38 67  1  0  0  0  0
 38 73  1  0  0  0  0
 38 79  2  0  0  0  0
 39 42  1  0  0  0  0
 40 49  1  0  0  0  0
 41 66  1  0  0  0  0
 42 44  1  0  0  0  0
 43 45  1  0  0  0  0
 43 46  1  0  0  0  0
 44 48  1  0  0  0  0
 45 50  1  0  0  0  0
 46 67  1  0  0  0  0
 47 50  1  0  0  0  0
 47 67  1  0  0  0  0
 48 71  1  0  0  0  0
 49 66  1  0  0  0  0
 50 65  1  0  0  0  0
 51 62  1  0  0  0  0
 52 63  1  0  0  0  0
 53 63  1  0  0  0  0
 54 63  1  0  0  0  0
 55 73  1  0  0  0  0
 56 74  1  0  0  0  0
 57 58  1  0  0  0  0
 57 59  1  0  0  0  0
 58 60  1  0  0  0  0
 59 70  1  0  0  0  0
 60 81  1  0  0  0  0
 61 63  1  0  0  0  0
 61 72  1  0  0  0  0
 62 74  1  0  0  0  0
 64 65  1  0  0  0  0
M  CHG  1  74   1
M  ISO  4  38 100  60 101  73 100  81 101
M  END
> <Batch ID>
0100

> <Smiles>
CNC(C)C(=O)NC(C(=O)N1Cc2cc([101O:1][101CH2:1]CCCNc3ccc([100N:0](C)[100C:0](=O)N4CCCC(n5nc(-c6ccc(Oc7ccc(F)cc7F)cc6)c(C(N)=O)c5N)C4)cc3F)ccc2CC1C(=O)NC1CCCc2ccccc21)C(C)(C)C

> <Shape>
0.231

> <Color>
0.141

> <Negative vol penalty>
0.000

$$$$

  -OEChem-04052300573D

 85 93  0     1  0  0  0  0  0999 V2000
  -32.4791  -30.3820   16.1015 C   0  0  0  0  0  0  0  0  0  0  0  0
  -31.6911  -29.5037   16.8384 C   0  0  0  0  0  0  0  0  0  0  0  0
  -22.8590  -10.0687   20.0915 C   0  0  0  0  0  0  0  0  0  0  0  0
  -23.6638  -10.1039   22.3692 C   0  0  0  0  0  0  0  0  0  0  0  0
  -29.1079  -17.5557   21.9528 C   0  0  0  0  0  0  0  0  0  0  0  0
  -32.7927  -31.6378   16.6197 C   0  0  0  0  0  0  0  0  0  0  0  0
  -31.2171  -29.8803   18.0945 C   0  0  0  0  0  0  0  0  0  0  0  0
  -26.3322  -28.7202   18.7557 C   0  0  0  0  0  0  0  0  0  0  0  0
  -28.4595  -18.6924   21.4702 C   0  0  0  0  0  0  0  0  0  0  0  0
  -22.0533   -8.9708   20.3931 C   0  0  0  0  0  0  0  0  0  0  0  0
  -22.8581   -9.0060   22.6709 C   0  0  0  0  0  0  0  0  0  0  0  0
  -26.0272  -27.3913   19.0470 C   0  0  0  0  0  0  0  0  0  0  0  0
  -22.9404   -5.6563   22.2193 C   0  0  0  0  0  0  0  0  0  0  0  0
  -23.5084   -4.6196   22.9597 C   0  0  0  0  0  0  0  0  0  0  0  0
  -29.4706  -16.8003   19.6868 C   0  0  0  0  0  0  0  0  0  0  0  0
  -25.8275  -27.9557   21.3838 C   0  0  0  0  0  0  0  0  0  0  0  0
  -21.8548   -4.9496   24.6900 C   0  0  0  0  0  0  0  0  0  0  0  0
  -23.6644  -10.6352   21.0795 C   0  0  0  0  0  0  0  0  0  0  0  0
  -29.6135  -16.6096   21.0612 C   0  0  0  0  0  0  0  0  0  0  0  0
  -24.1527  -13.1302   20.8693 C   0  0  0  0  0  0  0  0  0  0  0  0
  -32.3144  -32.0337   17.8787 C   0  0  0  0  0  0  0  0  0  0  0  0
  -26.3980  -29.6763   19.7795 C   0  0  0  0  0  0  0  0  0  0  0  0
  -31.5257  -31.1420   18.6307 C   0  0  0  0  0  0  0  0  0  0  0  0
  -26.1311  -29.2966   21.1026 C   0  0  0  0  0  0  0  0  0  0  0  0
  -28.3166  -18.8831   20.0958 C   0  0  0  0  0  0  0  0  0  0  0  0
  -22.0528   -8.4394   21.6828 C   0  0  0  0  0  0  0  0  0  0  0  0
  -25.7776  -27.0083   20.3616 C   0  0  0  0  0  0  0  0  0  0  0  0
  -21.8297   -6.3397   22.7142 C   0  0  0  0  0  0  0  0  0  0  0  0
  -28.8221  -17.9370   19.2041 C   0  0  0  0  0  0  0  0  0  0  0  0
  -22.9656   -4.2662   24.1950 C   0  0  0  0  0  0  0  0  0  0  0  0
  -21.2869   -5.9863   23.9495 C   0  0  0  0  0  0  0  0  0  0  0  0
  -24.4973  -11.7690   20.7684 C   0  0  0  0  0  0  0  0  0  0  0  0
  -25.2798  -13.8009   20.4616 C   0  0  0  0  0  0  0  0  0  0  0  0
  -30.2900  -15.4248   21.5646 C   0  0  0  0  0  0  0  0  0  0  0  0
  -22.9237  -13.7344   21.2938 C   0  0  0  0  0  0  0  0  0  0  0  0
  -30.8384  -14.4010   20.6457 C   0  0  0  0  0  0  0  0  0  0  0  0
  -28.6771  -31.5597   20.9467 C   0  0  0  0  0  0  0  0  0  0  0  0
  -26.2360  -32.7655   22.7100 C   0  0  0  0  0  0  0  0  0  0  0  0
  -23.1498  -32.2954   24.0887 C   0  0  0  0  0  0  0  0  0  0  0  0
  -32.7190  -33.3829   18.4176 C   0  0  0  0  0  0  0  0  0  0  0  0
  -26.7021  -31.1109   19.4453 C   0  0  0  0  0  0  0  0  0  0  0  0
  -26.1691  -30.2885   22.2353 C   0  0  0  0  0  0  0  0  0  0  0  0
  -31.8665  -33.8492   19.5949 C   0  0  0  0  0  0  0  0  0  0  0  0
  -29.4861  -12.1343   18.2187 C   0  0  0  0  0  0  0  0  0  0  0  0
  -31.6962  -32.7232   20.6097 C   0  0  0  0  0  0  0  0  0  0  0  0
  -28.0508  -11.9193   18.6976 C   0  0  0  0  0  0  0  0  0  0  0  0
  -30.4443  -12.3178   19.3912 C   0  0  0  0  0  0  0  0  0  0  0  0
  -28.6133  -13.2075   20.8070 C   0  0  0  0  0  0  0  0  0  0  0  0
  -30.9722  -31.5237   19.9864 C   0  0  1  0  0  0  0  0  0  0  0  0
  -27.2473  -31.8984   20.6328 C   0  0  1  0  0  0  0  0  0  0  0  0
  -27.6119  -13.0458   19.6500 C   0  0  2  0  0  0  0  0  0  0  0  0
  -21.4297  -33.4471   25.5072 C   0  0  0  0  0  0  0  0  0  0  0  0
  -27.9352  -32.2434   25.1900 C   0  0  0  0  0  0  0  0  0  0  0  0
  -25.8667  -32.5029   26.5764 C   0  0  0  0  0  0  0  0  0  0  0  0
  -26.6992  -34.4174   25.2110 C   0  0  0  0  0  0  0  0  0  0  0  0
  -21.1225  -32.1708   21.9362 C   0  0  0  0  0  0  0  0  0  0  0  0
  -27.5234  -17.5663   17.2466 C   0  0  0  0  0  0  0  0  0  0  0  0
  -26.8709  -22.3289   19.7174 C   0  0  0  0  0  0  0  0  0  0  0  0
  -26.2468  -23.4226   20.5854 C   0  0  0  0  0  0  0  0  0  0  0  0
  -27.1205  -21.0369   20.4911 C   0  0  0  0  0  0  0  0  0  0  0  0
  -26.0450  -24.7127   19.8007 C   0  0  0  0  0  0  0  0  0  1  0  0
  -25.6259  -32.4430   24.0527 C   0  0  1  0  0  0  0  0  0  0  0  0
  -21.9045  -33.1636   24.0906 C   0  0  2  0  0  0  0  0  0  0  0  0
  -26.5329  -32.8823   25.2367 C   0  0  0  0  0  0  0  0  0  0  0  0
  -25.7456  -11.5842   20.3307 N   0  0  0  0  0  0  0  0  0  0  0  0
  -30.4614  -15.1834   22.8363 N   0  0  0  0  0  0  0  0  0  0  0  0
  -26.1953  -12.8381   20.1530 N   0  0  0  0  0  0  0  0  0  0  0  0
  -29.9796  -13.3691   20.2940 N   0  0  0  0  0  0  0  0  0  0  0  0
  -26.4772  -31.6780   21.8586 N   0  0  0  0  0  0  0  0  0  0  0  0
  -25.5672  -15.1143   20.3405 N   0  0  0  0  0  0  0  0  0  0  0  0
  -21.8666  -12.8987   21.6794 N   0  0  0  0  0  0  0  0  0  0  0  0
  -27.6694  -20.0166   19.6300 N   0  0  0  0  0  0  0  0  0  0  0  0
  -29.5507  -31.7808   19.8991 N   0  0  0  0  0  0  0  0  0  0  0  0
  -24.3010  -33.0536   24.0563 N   0  0  0  0  0  0  0  0  0  0  0  0
  -20.8008  -32.4879   23.3514 N   0  3  0  0  0  0  0  0  0  0  0  0
  -22.7619  -14.9781   21.3144 O   0  0  0  0  0  0  0  0  0  0  0  0
  -31.9975  -14.5755   20.2930 O   0  0  0  0  0  0  0  0  0  0  0  0
  -28.9665  -31.1308   22.0575 O   0  0  0  0  0  0  0  0  0  0  0  0
  -26.4827  -33.9399   22.4243 O   0  0  0  0  0  0  0  0  0  0  0  0
  -23.1057  -31.0675   24.1172 O   0  0  0  0  0  0  0  0  0  0  0  0
  -21.2665   -7.3682   21.9775 O   0  0  0  0  0  0  0  0  0  0  0  0
  -28.6935  -18.1056   17.8577 O   0  0  0  0  0  0  0  0  0  0  0  0
  -25.4802  -25.7118   20.6487 O   0  0  0  0  0  0  0  0  0  1  0  0
  -23.5101   -3.2696   24.9053 F   0  0  0  0  0  0  0  0  0  0  0  0
  -20.2191   -6.6384   24.4297 F   0  0  0  0  0  0  0  0  0  0  0  0
  1  2  1  0  0  0  0
  1  6  2  0  0  0  0
  2  7  2  0  0  0  0
  3 10  2  0  0  0  0
  3 18  1  0  0  0  0
  4 11  1  0  0  0  0
  4 18  2  0  0  0  0
  5  9  2  0  0  0  0
  5 19  1  0  0  0  0
  6 21  1  0  0  0  0
  7 23  1  0  0  0  0
  8 12  2  0  0  0  0
  8 22  1  0  0  0  0
  9 25  1  0  0  0  0
 10 26  1  0  0  0  0
 11 26  2  0  0  0  0
 12 27  1  0  0  0  0
 13 14  2  0  0  0  0
 13 28  1  0  0  0  0
 14 30  1  0  0  0  0
 15 19  2  0  0  0  0
 15 29  1  0  0  0  0
 16 24  1  0  0  0  0
 16 27  2  0  0  0  0
 17 30  2  0  0  0  0
 17 31  1  0  0  0  0
 18 32  1  0  0  0  0
 19 34  1  0  0  0  0
 20 32  1  0  0  0  0
 20 33  2  0  0  0  0
 20 35  1  0  0  0  0
 21 23  2  0  0  0  0
 21 40  1  0  0  0  0
 22 24  2  0  0  0  0
 22 41  1  0  0  0  0
 23 49  1  0  0  0  0
 24 42  1  0  0  0  0
 25 29  2  0  0  0  0
 25 72  1  0  0  0  0
 26 81  1  0  0  0  0
 27 83  1  0  0  0  0
 28 31  2  0  0  0  0
 28 81  1  0  0  0  0
 29 82  1  0  0  0  0
 30 84  1  0  0  0  0
 31 85  1  0  0  0  0
 32 65  2  0  0  0  0
 33 67  1  0  0  0  0
 33 70  1  0  0  0  0
 34 36  1  0  0  0  0
 34 66  2  0  0  0  0
 35 71  1  0  0  0  0
 35 76  2  0  0  0  0
 36 68  1  0  0  0  0
 36 77  2  0  0  0  0
 37 50  1  0  0  0  0
 37 73  1  0  0  0  0
 37 78  2  0  0  0  0
 38 62  1  0  0  0  0
 38 69  1  0  0  0  0
 38 79  2  0  0  0  0
 39 63  1  0  0  0  0
 39 74  1  0  0  0  0
 39 80  2  0  0  0  0
 40 43  1  0  0  0  0
 41 50  1  0  0  0  0
 42 69  1  0  0  0  0
 43 45  1  0  0  0  0
 44 46  1  0  0  0  0
 44 47  1  0  0  0  0
 45 49  1  0  0  0  0
 46 51  1  0  0  0  0
 47 68  1  0  0  0  0
 48 51  1  0  0  0  0
 48 68  1  0  0  0  0
 49 73  1  0  0  0  0
 50 69  1  0  0  0  0
 51 67  1  0  0  0  0
 52 63  1  0  0  0  0
 53 64  1  0  0  0  0
 54 64  1  0  0  0  0
 55 64  1  0  0  0  0
 56 75  1  0  0  0  0
 57 82  1  0  0  0  0
 58 59  1  0  0  0  0
 58 60  1  0  0  0  0
 59 61  1  0  0  0  0
 60 72  1  0  0  0  0
 61 83  1  0  0  0  0
 62 64  1  0  0  0  0
 62 74  1  0  0  0  0
 63 75  1  0  0  0  0
 65 67  1  0  0  0  0
M  CHG  1  75   1
M  ISO  4  34 100  36 100  61 101  83 101
M  END
> <Batch ID>
0100

> <Smiles>
CNC(C)C(=O)NC(C(=O)N1Cc2cc([101O:1][101CH2:1]CCCNc3ccc([100C:0](=N)[100C:0](=O)N4CCCC(n5nc(-c6ccc(Oc7ccc(F)cc7F)cc6)c(C(N)=O)c5N)C4)cc3OC)ccc2CC1C(=O)NC1CCCc2ccccc21)C(C)(C)C

> <Shape>
0.335

> <Color>
0.231

> <Negative vol penalty>
0.000

$$$$

  -OEChem-04052300573D

 84 92  0     1  0  0  0  0  0999 V2000
  -27.9765  -23.2037   18.7099 C   0  0  0  0  0  0  0  0  0  0  0  0
  -26.8304  -23.5410   19.4227 C   0  0  0  0  0  0  0  0  0  0  0  0
  -26.6586  -13.0820   19.6247 C   0  0  0  0  0  0  0  0  0  0  0  0
  -24.6799  -13.6947   20.8681 C   0  0  0  0  0  0  0  0  0  0  0  0
  -24.4488  -24.0292   23.7391 C   0  0  0  0  0  0  0  0  0  0  0  0
  -29.1821  -23.8476   18.9853 C   0  0  0  0  0  0  0  0  0  0  0  0
  -26.8895  -24.5217   20.4122 C   0  0  0  0  0  0  0  0  0  0  0  0
  -23.0157  -27.7734   20.1585 C   0  0  0  0  0  0  0  0  0  0  0  0
  -25.4147  -23.0604   23.4671 C   0  0  0  0  0  0  0  0  0  0  0  0
  -26.5198  -11.7621   20.0541 C   0  0  0  0  0  0  0  0  0  0  0  0
  -24.5410  -12.3749   21.2975 C   0  0  0  0  0  0  0  0  0  0  0  0
  -21.7902  -27.3448   20.6666 C   0  0  0  0  0  0  0  0  0  0  0  0
  -23.3914   -9.4562   20.0404 C   0  0  0  0  0  0  0  0  0  0  0  0
  -22.1176   -8.8903   19.9890 C   0  0  0  0  0  0  0  0  0  0  0  0
  -22.8333  -22.2911   24.1931 C   0  0  0  0  0  0  0  0  0  0  0  0
  -22.2089  -28.5760   22.6984 C   0  0  0  0  0  0  0  0  0  0  0  0
  -22.1823   -8.5277   22.3768 C   0  0  0  0  0  0  0  0  0  0  0  0
  -25.7387  -14.0483   20.0318 C   0  0  0  0  0  0  0  0  0  0  0  0
  -23.1581  -23.6446   24.1022 C   0  0  0  0  0  0  0  0  0  0  0  0
  -25.3326  -15.9914   18.4296 C   0  0  0  0  0  0  0  0  0  0  0  0
  -29.2539  -24.8435   19.9720 C   0  0  0  0  0  0  0  0  0  0  0  0
  -23.8533  -28.5991   20.9221 C   0  0  0  0  0  0  0  0  0  0  0  0
  -28.0975  -25.1786   20.7020 C   0  0  0  0  0  0  0  0  0  0  0  0
  -23.4434  -29.0158   22.1966 C   0  0  0  0  0  0  0  0  0  0  0  0
  -25.0900  -21.7070   23.5580 C   0  0  0  0  0  0  0  0  0  0  0  0
  -25.4610  -11.4086   20.8905 C   0  0  0  0  0  0  0  0  0  0  0  0
  -21.3880  -27.7437   21.9379 C   0  0  0  0  0  0  0  0  0  0  0  0
  -24.0607   -9.5579   21.2600 C   0  0  0  0  0  0  0  0  0  0  0  0
  -21.5130   -8.4260   21.1572 C   0  0  0  0  0  0  0  0  0  0  0  0
  -23.7992  -21.3223   23.9210 C   0  0  0  0  0  0  0  0  0  0  0  0
  -23.4562   -9.0937   22.4282 C   0  0  0  0  0  0  0  0  0  0  0  0
  -25.8820  -15.4119   19.5890 C   0  0  0  0  0  0  0  0  0  0  0  0
  -25.7575  -17.2971   18.4640 C   0  0  0  0  0  0  0  0  0  0  0  0
  -22.1293  -24.6765   24.3917 C   0  0  0  0  0  0  0  0  0  0  0  0
  -24.5116  -15.4022   17.4126 C   0  0  0  0  0  0  0  0  0  0  0  0
  -26.7817  -28.3235   22.1272 C   0  0  0  0  0  0  0  0  0  0  0  0
  -26.3158  -31.4277   22.9451 C   0  0  0  0  0  0  0  0  0  0  0  0
  -24.1149  -33.9438   23.6325 C   0  0  0  0  0  0  0  0  0  0  0  0
  -27.3995  -20.9400   22.9067 C   0  0  0  0  0  0  0  0  0  0  0  0
  -30.5898  -25.4784   20.2669 C   0  0  0  0  0  0  0  0  0  0  0  0
  -25.1601  -29.0746   20.3489 C   0  0  0  0  0  0  0  0  0  0  0  0
  -24.2968  -29.9183   23.0485 C   0  0  0  0  0  0  0  0  0  0  0  0
  -30.4855  -26.7707   21.0726 C   0  0  0  0  0  0  0  0  0  0  0  0
  -29.3502  -20.0249   20.0722 C   0  0  0  0  0  0  0  0  0  0  0  0
  -29.5319  -26.5905   22.2495 C   0  0  0  0  0  0  0  0  0  0  0  0
  -28.6287  -18.7945   19.5175 C   0  0  0  0  0  0  0  0  0  0  0  0
  -29.3204  -20.0594   21.5992 C   0  0  0  0  0  0  0  0  0  0  0  0
  -27.2635  -18.7043   21.6424 C   0  0  0  0  0  0  0  0  0  0  0  0
  -28.1160  -26.2547   21.7659 C   0  0  1  0  0  0  0  0  0  0  0  0
  -26.1637  -29.4952   21.4181 C   0  0  1  0  0  0  0  0  0  0  0  0
  -27.2108  -18.6594   20.1066 C   0  0  2  0  0  0  0  0  0  0  0  0
  -24.0327  -36.3598   24.3059 C   0  0  0  0  0  0  0  0  0  0  0  0
  -27.0406  -30.6525   25.8058 C   0  0  0  0  0  0  0  0  0  0  0  0
  -26.0386  -32.8153   26.5718 C   0  0  0  0  0  0  0  0  0  0  0  0
  -28.0060  -32.8281   25.0381 C   0  0  0  0  0  0  0  0  0  0  0  0
  -22.6915  -34.7067   21.1524 C   0  0  0  0  0  0  0  0  0  0  0  0
  -18.8937  -25.4264   23.1164 C   0  0  0  0  0  0  0  0  0  0  0  0
  -19.7032  -25.1961   24.3854 C   0  0  0  0  0  0  0  0  0  0  0  0
  -19.7132  -26.0562   21.9966 C   0  0  0  0  0  0  0  0  0  1  0  0
  -25.7423  -32.1428   24.1446 C   0  0  1  0  0  0  0  0  0  0  0  0
  -24.0412  -35.3791   23.1437 C   0  0  2  0  0  0  0  0  0  0  0  0
  -26.6914  -32.0911   25.3751 C   0  0  0  0  0  0  0  0  0  0  0  0
  -26.6011  -16.2784   20.3074 N   0  0  0  0  0  0  0  0  0  0  0  0
  -26.5067  -17.4156   19.5975 N   0  0  0  0  0  0  0  0  0  0  0  0
  -25.5687  -30.3512   22.4464 N   0  0  0  0  0  0  0  0  0  0  0  0
  -27.9449  -19.9309   22.0852 N   0  0  0  0  0  0  0  0  0  0  0  0
  -25.5598  -18.3439   17.6348 N   0  0  0  0  0  0  0  0  0  0  0  0
  -24.1684  -14.0486   17.5320 N   0  0  0  0  0  0  0  0  0  0  0  0
  -26.0733  -20.7253   23.2804 N   0  0  0  0  0  0  0  0  0  0  0  0
  -20.8080  -24.3022   24.1745 N   0  0  0  0  0  0  0  0  0  0  0  0
  -27.4478  -27.4476   21.2914 N   0  0  0  0  0  0  0  0  0  0  0  0
  -25.4163  -33.4927   23.6978 N   0  0  0  0  0  0  0  0  0  0  0  0
  -22.8030  -35.5902   22.3416 N   0  3  0  0  0  0  0  0  0  0  0  0
  -22.4852  -25.7866   24.7785 O   0  0  0  0  0  0  0  0  0  0  0  0
  -24.1083  -16.0524   16.4186 O   0  0  0  0  0  0  0  0  0  0  0  0
  -26.6641  -28.2224   23.3428 O   0  0  0  0  0  0  0  0  0  0  0  0
  -27.3836  -31.8147   22.4639 O   0  0  0  0  0  0  0  0  0  0  0  0
  -23.1181  -33.2895   23.9304 O   0  0  0  0  0  0  0  0  0  0  0  0
  -28.0516  -21.9359   23.2308 O   0  0  0  0  0  0  0  0  0  0  0  0
  -25.3250  -10.1207   21.3095 O   0  0  0  0  0  0  0  0  0  0  0  0
  -20.1926  -27.3262   22.4366 O   0  0  0  0  0  0  0  0  0  1  0  0
  -20.2891   -7.8839   21.1079 F   0  0  0  0  0  0  0  0  0  0  0  0
  -23.4753  -20.0242   24.0111 F   0  0  0  0  0  0  0  0  0  0  0  0
  -24.0938   -9.1897   23.6029 F   0  0  0  0  0  0  0  0  0  0  0  0
  1  2  1  0  0  0  0
  1  6  2  0  0  0  0
  2  7  2  0  0  0  0
  3 10  2  0  0  0  0
  3 18  1  0  0  0  0
  4 11  1  0  0  0  0
  4 18  2  0  0  0  0
  5  9  2  0  0  0  0
  5 19  1  0  0  0  0
  6 21  1  0  0  0  0
  7 23  1  0  0  0  0
  8 12  2  0  0  0  0
  8 22  1  0  0  0  0
  9 25  1  0  0  0  0
 10 26  1  0  0  0  0
 11 26  2  0  0  0  0
 12 27  1  0  0  0  0
 13 14  2  0  0  0  0
 13 28  1  0  0  0  0
 14 29  1  0  0  0  0
 15 19  2  0  0  0  0
 15 30  1  0  0  0  0
 16 24  1  0  0  0  0
 16 27  2  0  0  0  0
 17 29  2  0  0  0  0
 17 31  1  0  0  0  0
 18 32  1  0  0  0  0
 19 34  1  0  0  0  0
 20 32  1  0  0  0  0
 20 33  2  0  0  0  0
 20 35  1  0  0  0  0
 21 23  2  0  0  0  0
 21 40  1  0  0  0  0
 22 24  2  0  0  0  0
 22 41  1  0  0  0  0
 23 49  1  0  0  0  0
 24 42  1  0  0  0  0
 25 30  2  0  0  0  0
 25 69  1  0  0  0  0
 26 80  1  0  0  0  0
 27 81  1  0  0  0  0
 28 31  2  0  0  0  0
 28 80  1  0  0  0  0
 29 82  1  0  0  0  0
 30 83  1  0  0  0  0
 31 84  1  0  0  0  0
 32 63  2  0  0  0  0
 33 64  1  0  0  0  0
 33 67  1  0  0  0  0
 34 70  1  0  0  0  0
 34 74  2  0  0  0  0
 35 68  1  0  0  0  0
 35 75  2  0  0  0  0
 36 50  1  0  0  0  0
 36 71  1  0  0  0  0
 36 76  2  0  0  0  0
 37 60  1  0  0  0  0
 37 65  1  0  0  0  0
 37 77  2  0  0  0  0
 38 61  1  0  0  0  0
 38 72  1  0  0  0  0
 38 78  2  0  0  0  0
 39 66  1  0  0  0  0
 39 69  1  0  0  0  0
 39 79  2  0  0  0  0
 40 43  1  0  0  0  0
 41 50  1  0  0  0  0
 42 65  1  0  0  0  0
 43 45  1  0  0  0  0
 44 46  1  0  0  0  0
 44 47  1  0  0  0  0
 45 49  1  0  0  0  0
 46 51  1  0  0  0  0
 47 66  1  0  0  0  0
 48 51  1  0  0  0  0
 48 66  1  0  0  0  0
 49 71  1  0  0  0  0
 50 65  1  0  0  0  0
 51 64  1  0  0  0  0
 52 61  1  0  0  0  0
 53 62  1  0  0  0  0
 54 62  1  0  0  0  0
 55 62  1  0  0  0  0
 56 73  1  0  0  0  0
 57 58  1  0  0  0  0
 57 59  1  0  0  0  0
 58 70  1  0  0  0  0
 59 81  1  0  0  0  0
 60 62  1  0  0  0  0
 60 72  1  0  0  0  0
 61 73  1  0  0  0  0
 63 64  1  0  0  0  0
M  CHG  1  73   1
M  ISO  4  39 100  59 101  69 100  81 101
M  END
> <Batch ID>
0100

> <Smiles>
CNC(C)C(=O)NC(C(=O)N1Cc2cc([101O:1][101CH2:1]CCNC(=O)c3ccc([100NH:0][100C:0](=O)N4CCCC(n5nc(-c6ccc(Oc7ccc(F)cc7F)cc6)c(C(N)=O)c5N)C4)c(F)c3)ccc2CC1C(=O)NC1CCCc2ccccc21)C(C)(C)C

> <Shape>
0.280

> <Color>
0.067

> <Negative vol penalty>
0.000

$$$$

  -OEChem-04052300573D

 84 92  0     1  0  0  0  0  0999 V2000
  -30.5403  -22.1230   15.7070 C   0  0  0  0  0  0  0  0  0  0  0  0
  -30.0560  -22.0494   17.0091 C   0  0  0  0  0  0  0  0  0  0  0  0
  -22.5241  -19.4140   21.9922 C   0  0  0  0  0  0  0  0  0  0  0  0
  -21.7753  -19.2777   19.6992 C   0  0  0  0  0  0  0  0  0  0  0  0
  -31.2449  -17.5815   25.0182 C   0  0  0  0  0  0  0  0  0  0  0  0
  -30.8568  -23.3619   15.1512 C   0  0  0  0  0  0  0  0  0  0  0  0
  -29.8889  -23.2146   17.7565 C   0  0  0  0  0  0  0  0  0  0  0  0
  -25.4728  -23.3179   20.2329 C   0  0  0  0  0  0  0  0  0  0  0  0
  -30.7979  -17.6572   26.3373 C   0  0  0  0  0  0  0  0  0  0  0  0
  -21.5557  -20.3839   22.2508 C   0  0  0  0  0  0  0  0  0  0  0  0
  -20.8067  -20.2476   19.9579 C   0  0  0  0  0  0  0  0  0  0  0  0
  -25.3805  -22.5635   21.4017 C   0  0  0  0  0  0  0  0  0  0  0  0
  -19.5151  -23.1568   23.4216 C   0  0  0  0  0  0  0  0  0  0  0  0
  -19.9008  -24.2827   24.1491 C   0  0  0  0  0  0  0  0  0  0  0  0
  -29.3310  -18.8670   24.2959 C   0  0  0  0  0  0  0  0  0  0  0  0
  -25.7384  -24.5582   22.7103 C   0  0  0  0  0  0  0  0  0  0  0  0
  -21.5283  -24.8245   22.4477 C   0  0  0  0  0  0  0  0  0  0  0  0
  -22.6340  -18.8609   20.7163 C   0  0  0  0  0  0  0  0  0  0  0  0
  -30.5114  -18.1864   23.9975 C   0  0  0  0  0  0  0  0  0  0  0  0
  -23.4966  -16.4643   20.5761 C   0  0  0  0  0  0  0  0  0  0  0  0
  -30.6844  -24.5438   15.8889 C   0  0  0  0  0  0  0  0  0  0  0  0
  -25.7099  -24.6986   20.2938 C   0  0  0  0  0  0  0  0  0  0  0  0
  -30.2047  -24.4704   17.2106 C   0  0  0  0  0  0  0  0  0  0  0  0
  -25.8308  -25.3282   21.5409 C   0  0  0  0  0  0  0  0  0  0  0  0
  -29.6175  -18.3377   26.6358 C   0  0  0  0  0  0  0  0  0  0  0  0
  -20.6969  -20.8007   21.2337 C   0  0  0  0  0  0  0  0  0  0  0  0
  -25.5161  -23.1831   22.6406 C   0  0  0  0  0  0  0  0  0  0  0  0
  -20.1361  -22.8646   22.2072 C   0  0  0  0  0  0  0  0  0  0  0  0
  -28.8840  -18.9426   25.6151 C   0  0  0  0  0  0  0  0  0  0  0  0
  -20.9073  -25.1166   23.6621 C   0  0  0  0  0  0  0  0  0  0  0  0
  -21.1427  -23.6985   21.7203 C   0  0  0  0  0  0  0  0  0  0  0  0
  -23.6346  -17.8594   20.4483 C   0  0  0  0  0  0  0  0  0  0  0  0
  -24.7203  -15.9628   20.2054 C   0  0  0  0  0  0  0  0  0  0  0  0
  -30.9880  -18.1063   22.5927 C   0  0  0  0  0  0  0  0  0  0  0  0
  -22.3635  -15.6908   20.9926 C   0  0  0  0  0  0  0  0  0  0  0  0
  -28.0243  -26.6243   19.2744 C   0  0  0  0  0  0  0  0  0  0  0  0
  -26.0184  -28.9486   20.3216 C   0  0  0  0  0  0  0  0  0  0  0  0
  -23.4516  -29.8480   22.3829 C   0  0  0  0  0  0  0  0  0  0  0  0
  -30.2361  -18.1781   20.2362 C   0  0  0  0  0  0  0  0  0  0  0  0
  -31.0850  -25.8557   15.2620 C   0  0  0  0  0  0  0  0  0  0  0  0
  -25.7803  -25.5027   19.0246 C   0  0  0  0  0  0  0  0  0  0  0  0
  -26.0660  -26.8110   21.6611 C   0  0  0  0  0  0  0  0  0  0  0  0
  -30.5251  -27.0749   15.9904 C   0  0  0  0  0  0  0  0  0  0  0  0
  -28.4882  -16.9603   17.4150 C   0  0  0  0  0  0  0  0  0  0  0  0
  -30.7299  -26.9379   17.4958 C   0  0  0  0  0  0  0  0  0  0  0  0
  -27.0324  -16.9094   17.8865 C   0  0  0  0  0  0  0  0  0  0  0  0
  -29.2232  -18.1780   17.9735 C   0  0  0  0  0  0  0  0  0  0  0  0
  -27.6923  -18.2892   19.8976 C   0  0  0  0  0  0  0  0  0  0  0  0
  -29.9864  -25.7141   18.0446 C   0  0  1  0  0  0  0  0  0  0  0  0
  -26.5365  -26.8171   19.1911 C   0  0  1  0  0  0  0  0  0  0  0  0
  -26.9291  -17.0436   19.4191 C   0  0  1  0  0  0  0  0  0  0  0  0
  -22.0551  -31.8260   23.0422 C   0  0  0  0  0  0  0  0  0  0  0  0
  -28.3418  -30.0349   21.9745 C   0  0  0  0  0  0  0  0  0  0  0  0
  -26.6864  -31.3699   23.2958 C   0  0  0  0  0  0  0  0  0  0  0  0
  -26.9531  -31.7849   20.8506 C   0  0  0  0  0  0  0  0  0  0  0  0
  -20.9585  -28.5373   21.4743 C   0  0  0  0  0  0  0  0  0  0  0  0
  -26.5610  -21.7240   25.7855 C   0  0  0  0  0  0  0  0  0  0  0  0
  -26.1768  -22.9051   24.9082 C   0  0  0  0  0  0  0  0  0  1  0  0
  -27.3930  -20.7003   25.0291 C   0  0  0  0  0  0  0  0  0  0  0  0
  -25.8090  -29.6698   21.6312 C   0  0  1  0  0  0  0  0  0  0  0  0
  -22.1726  -30.6224   22.1201 C   0  0  2  0  0  0  0  0  0  0  0  0
  -26.9451  -30.6866   21.9360 C   0  0  0  0  0  0  0  0  0  0  0  0
  -24.8502  -18.2210   20.0293 N   0  0  0  0  0  0  0  0  0  0  0  0
  -25.4872  -17.0458   19.8907 N   0  0  0  0  0  0  0  0  0  0  0  0
  -26.1334  -27.5529   20.3912 N   0  0  0  0  0  0  0  0  0  0  0  0
  -29.0853  -18.2272   19.4302 N   0  0  0  0  0  0  0  0  0  0  0  0
  -29.1763  -18.4056   27.9753 N   0  0  0  0  0  0  0  0  0  0  0  0
  -25.2045  -14.7054   20.1212 N   0  0  0  0  0  0  0  0  0  0  0  0
  -21.1846  -16.3654   21.3383 N   0  0  0  0  0  0  0  0  0  0  0  0
  -29.9963  -18.1878   21.6148 N   0  0  0  0  0  0  0  0  0  0  0  0
  -28.5728  -25.9968   18.1722 N   0  0  0  0  0  0  0  0  0  0  0  0
  -24.4783  -30.2637   21.5618 N   0  0  0  0  0  0  0  0  0  0  0  0
  -20.9846  -29.7485   22.3342 N   0  3  0  0  0  0  0  0  0  0  0  0
  -32.1929  -18.0158   22.3742 O   0  0  0  0  0  0  0  0  0  0  0  0
  -22.4005  -14.4395   21.0721 O   0  0  0  0  0  0  0  0  0  0  0  0
  -28.6299  -27.0171   20.2646 O   0  0  0  0  0  0  0  0  0  0  0  0
  -26.0707  -29.5988   19.2747 O   0  0  0  0  0  0  0  0  0  0  0  0
  -23.5328  -28.9653   23.2343 O   0  0  0  0  0  0  0  0  0  0  0  0
  -31.3765  -18.0940   19.7698 O   0  0  0  0  0  0  0  0  0  0  0  0
  -19.7516  -21.7469   21.4859 O   0  0  0  0  0  0  0  0  0  0  0  0
  -25.4270  -22.4490   23.7829 O   0  0  0  0  0  0  0  0  0  1  0  0
  -27.7222  -19.6168   25.8878 O   0  0  0  0  0  0  0  0  0  0  0  0
  -21.2765  -26.1986   24.3600 F   0  0  0  0  0  0  0  0  0  0  0  0
  -21.7421  -23.4237   20.5537 F   0  0  0  0  0  0  0  0  0  0  0  0
  1  2  1  0  0  0  0
  1  6  2  0  0  0  0
  2  7  2  0  0  0  0
  3 10  2  0  0  0  0
  3 18  1  0  0  0  0
  4 11  1  0  0  0  0
  4 18  2  0  0  0  0
  5  9  2  0  0  0  0
  5 19  1  0  0  0  0
  6 21  1  0  0  0  0
  7 23  1  0  0  0  0
  8 12  2  0  0  0  0
  8 22  1  0  0  0  0
  9 25  1  0  0  0  0
 10 26  1  0  0  0  0
 11 26  2  0  0  0  0
 12 27  1  0  0  0  0
 13 14  2  0  0  0  0
 13 28  1  0  0  0  0
 14 30  1  0  0  0  0
 15 19  2  0  0  0  0
 15 29  1  0  0  0  0
 16 24  1  0  0  0  0
 16 27  2  0  0  0  0
 17 30  2  0  0  0  0
 17 31  1  0  0  0  0
 18 32  1  0  0  0  0
 19 34  1  0  0  0  0
 20 32  1  0  0  0  0
 20 33  2  0  0  0  0
 20 35  1  0  0  0  0
 21 23  2  0  0  0  0
 21 40  1  0  0  0  0
 22 24  2  0  0  0  0
 22 41  1  0  0  0  0
 23 49  1  0  0  0  0
 24 42  1  0  0  0  0
 25 29  2  0  0  0  0
 25 67  1  0  0  0  0
 26 80  1  0  0  0  0
 27 81  1  0  0  0  0
 28 31  2  0  0  0  0
 28 80  1  0  0  0  0
 29 82  1  0  0  0  0
 30 83  1  0  0  0  0
 31 84  1  0  0  0  0
 32 63  2  0  0  0  0
 33 64  1  0  0  0  0
 33 68  1  0  0  0  0
 34 70  1  0  0  0  0
 34 74  2  0  0  0  0
 35 69  1  0  0  0  0
 35 75  2  0  0  0  0
 36 50  1  0  0  0  0
 36 71  1  0  0  0  0
 36 76  2  0  0  0  0
 37 60  1  0  0  0  0
 37 65  1  0  0  0  0
 37 77  2  0  0  0  0
 38 61  1  0  0  0  0
 38 72  1  0  0  0  0
 38 78  2  0  0  0  0
 39 66  1  0  0  0  0
 39 70  1  0  0  0  0
 39 79  2  0  0  0  0
 40 43  1  0  0  0  0
 41 50  1  0  0  0  0
 42 65  1  0  0  0  0
 43 45  1  0  0  0  0
 44 46  1  0  0  0  0
 44 47  1  0  0  0  0
 45 49  1  0  0  0  0
 46 51  1  0  0  0  0
 47 66  1  0  0  0  0
 48 51  1  0  0  0  0
 48 66  1  0  0  0  0
 49 71  1  0  0  0  0
 50 65  1  0  0  0  0
 51 64  1  0  0  0  0
 52 61  1  0  0  0  0
 53 62  1  0  0  0  0
 54 62  1  0  0  0  0
 55 62  1  0  0  0  0
 56 73  1  0  0  0  0
 57 58  1  0  0  0  0
 57 59  1  0  0  0  0
 58 81  1  0  0  0  0
 59 82  1  0  0  0  0
 60 62  1  0  0  0  0
 60 72  1  0  0  0  0
 61 73  1  0  0  0  0
 63 64  1  0  0  0  0
M  CHG  1  73   1
M  ISO  4  39 100  58 101  70 100  81 101
M  END
> <Batch ID>
0100

> <Smiles>
CNC(C)C(=O)NC(C(=O)N1Cc2cc([101O:1][101CH2:1]CCOc3cc(C(=O)[100NH:0][100C:0](=O)N4CCCC(n5nc(-c6ccc(Oc7ccc(F)cc7F)cc6)c(C(N)=O)c5N)C4)ccc3N)ccc2CC1C(=O)NC1CCCc2ccccc21)C(C)(C)C

> <Shape>
0.175

> <Color>
0.095

> <Negative vol penalty>
0.000

$$$$

  -OEChem-04052300573D

 85 94  0     1  0  0  0  0  0999 V2000
  -28.2863  -23.6068   17.3573 C   0  0  0  0  0  0  0  0  0  0  0  0
  -27.1158  -23.8201   18.0782 C   0  0  0  0  0  0  0  0  0  0  0  0
  -27.6186  -12.8125   19.8498 C   0  0  0  0  0  0  0  0  0  0  0  0
  -27.7784  -13.8007   22.0486 C   0  0  0  0  0  0  0  0  0  0  0  0
  -29.4712  -24.2244   17.7554 C   0  0  0  0  0  0  0  0  0  0  0  0
  -27.1297  -24.6504   19.1984 C   0  0  0  0  0  0  0  0  0  0  0  0
  -23.1989  -27.8415   19.3002 C   0  0  0  0  0  0  0  0  0  0  0  0
  -28.8726  -12.2266   20.0218 C   0  0  0  0  0  0  0  0  0  0  0  0
  -29.0325  -13.2147   22.2208 C   0  0  0  0  0  0  0  0  0  0  0  0
  -21.9697  -27.3248   19.7075 C   0  0  0  0  0  0  0  0  0  0  0  0
  -30.1716   -9.5472   21.6238 C   0  0  0  0  0  0  0  0  0  0  0  0
  -30.3181   -8.2096   21.2563 C   0  0  0  0  0  0  0  0  0  0  0  0
  -22.3112  -28.2601   21.9047 C   0  0  0  0  0  0  0  0  0  0  0  0
  -18.6728  -21.0206   24.3124 C   0  0  0  0  0  0  0  0  0  0  0  0
  -20.1921  -21.2457   22.4476 C   0  0  0  0  0  0  0  0  0  0  0  0
  -19.6792  -19.0560   23.3304 C   0  0  0  0  0  0  0  0  0  0  0  0
  -32.0204   -8.8347   19.6599 C   0  0  0  0  0  0  0  0  0  0  0  0
  -27.0715  -13.5996   20.8631 C   0  0  0  0  0  0  0  0  0  0  0  0
  -24.5262  -13.6541   21.0246 C   0  0  0  0  0  0  0  0  0  0  0  0
  -29.4976  -25.0703   18.8754 C   0  0  0  0  0  0  0  0  0  0  0  0
  -23.9998  -28.5633   20.1968 C   0  0  0  0  0  0  0  0  0  0  0  0
  -28.3164  -25.2789   19.6126 C   0  0  0  0  0  0  0  0  0  0  0  0
  -23.5490  -28.7871   21.5056 C   0  0  0  0  0  0  0  0  0  0  0  0
  -19.3502  -21.8255   23.3966 C   0  0  0  0  0  0  0  0  0  0  0  0
  -18.8373  -19.6358   24.2794 C   0  0  0  0  0  0  0  0  0  0  0  0
  -20.3566  -19.8609   22.4145 C   0  0  0  0  0  0  0  0  0  0  0  0
  -29.5796  -12.4277   21.2073 C   0  0  0  0  0  0  0  0  0  0  0  0
  -21.5270  -27.5316   21.0107 C   0  0  0  0  0  0  0  0  0  0  0  0
  -30.9494  -10.5286   21.0092 C   0  0  0  0  0  0  0  0  0  0  0  0
  -31.2425   -7.8534   20.2744 C   0  0  0  0  0  0  0  0  0  0  0  0
  -31.8738  -10.1723   20.0273 C   0  0  0  0  0  0  0  0  0  0  0  0
  -25.7763  -14.2055   20.6857 C   0  0  0  0  0  0  0  0  0  0  0  0
  -23.6162  -14.6160   20.6594 C   0  0  0  0  0  0  0  0  0  0  0  0
  -19.7938  -24.1830   22.5754 C   0  0  0  0  0  0  0  0  0  0  0  0
  -24.2152  -12.3858   21.6167 C   0  0  0  0  0  0  0  0  0  0  0  0
  -26.9013  -28.1663   21.4328 C   0  0  0  0  0  0  0  0  0  0  0  0
  -26.3521  -31.1141   22.6704 C   0  0  0  0  0  0  0  0  0  0  0  0
  -24.0840  -33.4701   23.6461 C   0  0  0  0  0  0  0  0  0  0  0  0
  -21.9547  -19.9269   20.4681 C   0  0  0  0  0  0  0  0  0  0  0  0
  -30.8125  -25.6783   19.2951 C   0  0  0  0  0  0  0  0  0  0  0  0
  -25.3110  -29.1370   19.7343 C   0  0  0  0  0  0  0  0  0  0  0  0
  -24.3620  -29.5726   22.5009 C   0  0  0  0  0  0  0  0  0  0  0  0
  -30.6615  -26.8405   20.2732 C   0  0  0  0  0  0  0  0  0  0  0  0
  -24.2031  -18.8388   17.9308 C   0  0  0  0  0  0  0  0  0  0  0  0
  -29.6819  -26.4787   21.3851 C   0  0  0  0  0  0  0  0  0  0  0  0
  -24.7100  -17.4910   18.4492 C   0  0  0  0  0  0  0  0  0  0  0  0
  -18.6944  -25.3454   24.3374 C   0  0  0  0  0  0  0  0  0  0  0  0
  -24.0033  -19.8435   19.0641 C   0  0  0  0  0  0  0  0  0  0  0  0
  -18.2739  -23.8895   24.3580 C   0  0  0  0  0  0  0  0  0  0  0  0
  -23.6700  -18.0232   20.6903 C   0  0  0  0  0  0  0  0  0  0  0  0
  -28.2859  -26.1923   20.8188 C   0  0  1  0  0  0  0  0  0  0  0  0
  -19.1995  -25.5404   22.9152 C   0  0  1  0  0  0  0  0  0  0  0  0
  -26.2782  -29.4171   20.8803 C   0  0  1  0  0  0  0  0  0  0  0  0
  -23.8245  -16.9579   19.5926 C   0  0  2  0  0  0  0  0  0  0  0  0
  -23.9358  -35.7636   24.6536 C   0  0  0  0  0  0  0  0  0  0  0  0
  -27.0188  -29.9505   25.4111 C   0  0  0  0  0  0  0  0  0  0  0  0
  -25.9541  -31.9652   26.4482 C   0  0  0  0  0  0  0  0  0  0  0  0
  -27.9594  -32.2288   24.9881 C   0  0  0  0  0  0  0  0  0  0  0  0
  -22.7095  -34.5558   21.2605 C   0  0  0  0  0  0  0  0  0  0  0  0
  -20.1986  -26.6749   22.7876 C   0  0  0  0  0  0  0  0  0  1  0  0
  -25.7337  -31.6412   23.9427 C   0  0  1  0  0  0  0  0  0  0  0  0
  -23.9939  -34.9590   23.3644 C   0  0  2  0  0  0  0  0  0  0  0  0
  -26.6518  -31.4299   25.1796 C   0  0  0  0  0  0  0  0  0  0  0  0
  -25.6737  -15.4232   20.1465 N   0  0  0  0  0  0  0  0  0  0  0  0
  -24.3482  -15.6448   20.1438 N   0  0  0  0  0  0  0  0  0  0  0  0
  -19.1814  -23.2423   23.4290 N   0  0  0  0  0  0  0  0  0  0  0  0
  -25.6398  -30.1077   22.0027 N   0  0  0  0  0  0  0  0  0  0  0  0
  -23.1511  -19.2710   20.1085 N   0  0  0  0  0  0  0  0  0  0  0  0
  -18.1525  -18.8215   25.2051 N   0  0  0  0  0  0  0  0  0  0  0  0
  -22.2695  -14.6735   20.7323 N   0  0  0  0  0  0  0  0  0  0  0  0
  -25.2702  -11.5178   21.9293 N   0  0  0  0  0  0  0  0  0  0  0  0
  -21.2107  -19.2722   21.4492 N   0  0  0  0  0  0  0  0  0  0  0  0
  -27.6061  -27.4296   20.5001 N   0  0  0  0  0  0  0  0  0  0  0  0
  -25.3921  -33.0356   23.6833 N   0  0  0  0  0  0  0  0  0  0  0  0
  -22.7726  -35.2622   22.5659 N   0  3  0  0  0  0  0  0  0  0  0  0
  -20.6002  -24.0123   21.6727 O   0  0  0  0  0  0  0  0  0  0  0  0
  -23.0356  -12.0261   21.8462 O   0  0  0  0  0  0  0  0  0  0  0  0
  -26.7547  -27.8909   22.6178 O   0  0  0  0  0  0  0  0  0  0  0  0
  -27.4239  -31.5831   22.2794 O   0  0  0  0  0  0  0  0  0  0  0  0
  -23.0932  -32.7638   23.8196 O   0  0  0  0  0  0  0  0  0  0  0  0
  -21.6016  -20.9768   19.9250 O   0  0  0  0  0  0  0  0  0  0  0  0
  -30.8033  -11.8560   21.3757 O   0  0  0  0  0  0  0  0  0  0  0  0
  -20.3279  -27.0277   21.4110 O   0  0  0  0  0  0  0  0  0  1  0  0
  -31.3842   -6.5687   19.9227 F   0  0  0  0  0  0  0  0  0  0  0  0
  -32.6247  -11.1105   19.4342 F   0  0  0  0  0  0  0  0  0  0  0  0
  1  2  1  0  0  0  0
  1  5  2  0  0  0  0
  2  6  2  0  0  0  0
  3  8  2  0  0  0  0
  3 18  1  0  0  0  0
  4  9  1  0  0  0  0
  4 18  2  0  0  0  0
  5 20  1  0  0  0  0
  6 22  1  0  0  0  0
  7 10  2  0  0  0  0
  7 21  1  0  0  0  0
  8 27  1  0  0  0  0
  9 27  2  0  0  0  0
 10 28  1  0  0  0  0
 11 12  2  0  0  0  0
 11 29  1  0  0  0  0
 12 30  1  0  0  0  0
 13 23  1  0  0  0  0
 13 28  2  0  0  0  0
 14 24  1  0  0  0  0
 14 25  2  0  0  0  0
 15 24  2  0  0  0  0
 15 26  1  0  0  0  0
 16 25  1  0  0  0  0
 16 26  2  0  0  0  0
 17 30  2  0  0  0  0
 17 31  1  0  0  0  0
 18 32  1  0  0  0  0
 19 32  1  0  0  0  0
 19 33  2  0  0  0  0
 19 35  1  0  0  0  0
 20 22  2  0  0  0  0
 20 40  1  0  0  0  0
 21 23  2  0  0  0  0
 21 41  1  0  0  0  0
 22 51  1  0  0  0  0
 23 42  1  0  0  0  0
 24 66  1  0  0  0  0
 25 69  1  0  0  0  0
 26 72  1  0  0  0  0
 27 82  1  0  0  0  0
 28 83  1  0  0  0  0
 29 31  2  0  0  0  0
 29 82  1  0  0  0  0
 30 84  1  0  0  0  0
 31 85  1  0  0  0  0
 32 64  2  0  0  0  0
 33 65  1  0  0  0  0
 33 70  1  0  0  0  0
 34 52  1  0  0  0  0
 34 66  1  0  0  0  0
 34 76  2  0  0  0  0
 35 71  1  0  0  0  0
 35 77  2  0  0  0  0
 36 53  1  0  0  0  0
 36 73  1  0  0  0  0
 36 78  2  0  0  0  0
 37 61  1  0  0  0  0
 37 67  1  0  0  0  0
 37 79  2  0  0  0  0
 38 62  1  0  0  0  0
 38 74  1  0  0  0  0
 38 80  2  0  0  0  0
 39 68  1  0  0  0  0
 39 72  1  0  0  0  0
 39 81  2  0  0  0  0
 40 43  1  0  0  0  0
 41 53  1  0  0  0  0
 42 67  1  0  0  0  0
 43 45  1  0  0  0  0
 44 46  1  0  0  0  0
 44 48  1  0  0  0  0
 45 51  1  0  0  0  0
 46 54  1  0  0  0  0
 47 49  1  0  0  0  0
 47 52  1  0  0  0  0
 48 68  1  0  0  0  0
 49 66  1  0  0  0  0
 50 54  1  0  0  0  0
 50 68  1  0  0  0  0
 51 73  1  0  0  0  0
 52 60  1  0  0  0  0
 53 67  1  0  0  0  0
 54 65  1  0  0  0  0
 55 62  1  0  0  0  0
 56 63  1  0  0  0  0
 57 63  1  0  0  0  0
 58 63  1  0  0  0  0
 59 75  1  0  0  0  0
 60 83  1  0  0  0  0
 61 63  1  0  0  0  0
 61 74  1  0  0  0  0
 62 75  1  0  0  0  0
 64 65  1  0  0  0  0
M  CHG  1  75   1
M  ISO  4  39 100  60 101  72 100  83 101
M  END
> <Batch ID>
0100

> <Smiles>
CNC(C)C(=O)NC(C(=O)N1Cc2cc([101O:1][101CH2:1]C3CCN(c4cc(N)cc([100NH:0][100C:0](=O)N5CCCC(n6nc(-c7ccc(Oc8ccc(F)cc8F)cc7)c(C(N)=O)c6N)C5)c4)C3=O)ccc2CC1C(=O)NC1CCCc2ccccc21)C(C)(C)C

> <Shape>
0.261

> <Color>
0.078

> <Negative vol penalty>
0.000

$$$$

  -OEChem-04052300573D

 85 93  0     1  0  0  0  0  0999 V2000
  -18.5400  -15.3946   25.0538 C   0  0  0  0  0  0  0  0  0  0  0  0
  -19.2386  -16.2145   24.1734 C   0  0  0  0  0  0  0  0  0  0  0  0
  -24.6012  -28.8601   22.3814 C   0  0  0  0  0  0  0  0  0  0  0  0
  -25.1643  -30.5298   20.7285 C   0  0  0  0  0  0  0  0  0  0  0  0
  -19.1851  -14.3202   25.6649 C   0  0  0  0  0  0  0  0  0  0  0  0
  -20.5831  -15.9611   23.9044 C   0  0  0  0  0  0  0  0  0  0  0  0
  -21.6678  -16.2675   18.9673 C   0  0  0  0  0  0  0  0  0  0  0  0
  -28.7279  -23.9824   20.3187 C   0  0  0  0  0  0  0  0  0  0  0  0
  -27.5086  -23.5864   19.7691 C   0  0  0  0  0  0  0  0  0  0  0  0
  -24.0421  -29.8494   23.1903 C   0  0  0  0  0  0  0  0  0  0  0  0
  -24.6052  -31.5192   21.5374 C   0  0  0  0  0  0  0  0  0  0  0  0
  -21.8071  -17.5439   18.4241 C   0  0  0  0  0  0  0  0  0  0  0  0
  -25.4884  -33.2888   24.2795 C   0  0  0  0  0  0  0  0  0  0  0  0
  -26.2069  -34.4728   24.4455 C   0  0  0  0  0  0  0  0  0  0  0  0
  -24.2064  -17.3334   18.5602 C   0  0  0  0  0  0  0  0  0  0  0  0
  -28.4560  -22.3617   22.0897 C   0  0  0  0  0  0  0  0  0  0  0  0
  -24.3699  -35.7208   23.4941 C   0  0  0  0  0  0  0  0  0  0  0  0
  -25.1623  -29.2003   21.1505 C   0  0  0  0  0  0  0  0  0  0  0  0
  -25.0876  -27.4199   19.3251 C   0  0  0  0  0  0  0  0  0  0  0  0
  -20.5356  -14.0477   25.3958 C   0  0  0  0  0  0  0  0  0  0  0  0
  -22.7984  -15.5175   19.3218 C   0  0  0  0  0  0  0  0  0  0  0  0
  -21.2473  -14.8828   24.5135 C   0  0  0  0  0  0  0  0  0  0  0  0
  -24.0787  -16.0467   19.1054 C   0  0  0  0  0  0  0  0  0  0  0  0
  -29.2016  -23.3700   21.4790 C   0  0  0  0  0  0  0  0  0  0  0  0
  -26.7630  -22.5781   20.3797 C   0  0  0  0  0  0  0  0  0  0  0  0
  -24.0441  -31.1789   22.7683 C   0  0  0  0  0  0  0  0  0  0  0  0
  -23.0765  -18.0782   18.2231 C   0  0  0  0  0  0  0  0  0  0  0  0
  -24.2107  -33.3207   23.7207 C   0  0  0  0  0  0  0  0  0  0  0  0
  -27.2366  -21.9657   21.5401 C   0  0  0  0  0  0  0  0  0  0  0  0
  -25.6476  -35.6888   24.0528 C   0  0  0  0  0  0  0  0  0  0  0  0
  -23.6515  -34.5368   23.3280 C   0  0  0  0  0  0  0  0  0  0  0  0
  -25.7405  -28.1789   20.3147 C   0  0  0  0  0  0  0  0  0  0  0  0
  -26.0651  -26.5954   18.8241 C   0  0  0  0  0  0  0  0  0  0  0  0
  -23.7197  -27.4568   18.8971 C   0  0  0  0  0  0  0  0  0  0  0  0
  -23.9287  -14.3104   22.0365 C   0  0  0  0  0  0  0  0  0  0  0  0
  -26.1264  -12.9629   20.0676 C   0  0  0  0  0  0  0  0  0  0  0  0
  -27.7926  -13.0557   17.0907 C   0  0  0  0  0  0  0  0  0  0  0  0
  -31.2724  -24.7853   21.4853 C   0  0  0  0  0  0  0  0  0  0  0  0
  -21.2029  -12.9032   26.1166 C   0  0  0  0  0  0  0  0  0  0  0  0
  -22.6317  -14.1315   19.8820 C   0  0  0  0  0  0  0  0  0  0  0  0
  -25.3248  -15.2741   19.4503 C   0  0  0  0  0  0  0  0  0  0  0  0
  -22.5285  -12.4787   25.4899 C   0  0  0  0  0  0  0  0  0  0  0  0
  -30.7905  -26.3269   18.1560 C   0  0  0  0  0  0  0  0  0  0  0  0
  -23.3907  -13.6999   25.1860 C   0  0  0  0  0  0  0  0  0  0  0  0
  -29.4173  -26.9839   18.2818 C   0  0  0  0  0  0  0  0  0  0  0  0
  -31.5048  -26.2452   19.5016 C   0  0  0  0  0  0  0  0  0  0  0  0
  -29.3285  -26.2151   20.6866 C   0  0  0  0  0  0  0  0  0  0  0  0
  -22.7001  -14.6254   24.1771 C   0  0  1  0  0  0  0  0  0  0  0  0
  -23.8414  -13.6617   20.6840 C   0  0  1  0  0  0  0  0  0  0  0  0
  -28.5717  -26.2727   19.3512 C   0  0  1  0  0  0  0  0  0  0  0  0
  -31.7224  -21.7120   22.5110 C   0  0  0  0  0  0  0  0  0  0  0  0
  -29.5561  -11.8417   15.7816 C   0  0  0  0  0  0  0  0  0  0  0  0
  -28.2843  -14.1869   21.8440 C   0  0  0  0  0  0  0  0  0  0  0  0
  -29.9351  -13.7664   20.0093 C   0  0  0  0  0  0  0  0  0  0  0  0
  -28.7569  -11.8504   21.0879 C   0  0  0  0  0  0  0  0  0  0  0  0
  -25.9070  -12.4486   14.8918 C   0  0  0  0  0  0  0  0  0  0  0  0
  -26.7819  -19.6399   21.7389 C   0  0  0  0  0  0  0  0  0  0  0  0
  -24.0245  -21.5584   18.0282 C   0  0  0  0  0  0  0  0  0  0  0  0
  -31.0484  -22.9395   23.0899 C   0  0  0  0  0  0  0  0  0  0  0  0
  -25.1848  -22.4512   18.4513 C   0  0  0  0  0  0  0  0  0  0  0  0
  -24.3634  -20.0736   18.0890 C   0  0  0  0  0  0  0  0  0  1  0  0
  -27.4757  -13.3750   19.5303 C   0  0  1  0  0  0  0  0  0  0  0  0
  -28.0666  -11.9795   16.0557 C   0  0  2  0  0  0  0  0  0  0  0  0
  -28.5897  -13.3102   20.6131 C   0  0  0  0  0  0  0  0  0  0  0  0
  -27.0329  -27.8645   20.4367 N   0  0  0  0  0  0  0  0  0  0  0  0
  -27.1999  -26.8987   19.5172 N   0  0  0  0  0  0  0  0  0  0  0  0
  -25.1095  -13.9259   20.0011 N   0  0  0  0  0  0  0  0  0  0  0  0
  -30.6652  -25.6201   20.5248 N   0  0  0  0  0  0  0  0  0  0  0  0
  -26.0561  -25.6477   17.8627 N   0  0  0  0  0  0  0  0  0  0  0  0
  -22.8496  -28.3635   19.5177 N   0  0  0  0  0  0  0  0  0  0  0  0
  -25.5530  -22.1945   19.8227 N   0  0  0  0  0  0  0  0  0  0  0  0
  -22.8233  -14.0936   22.8368 N   0  0  0  0  0  0  0  0  0  0  0  0
  -27.7254  -12.5335   18.3650 N   0  0  0  0  0  0  0  0  0  0  0  0
  -30.4639  -23.7780   22.0456 N   0  0  0  0  0  0  0  0  0  0  0  0
  -27.3811  -12.3072   14.7737 N   0  3  0  0  0  0  0  0  0  0  0  0
  -23.2781  -26.6965   18.0024 O   0  0  0  0  0  0  0  0  0  0  0  0
  -24.9257  -14.9584   22.3326 O   0  0  0  0  0  0  0  0  0  0  0  0
  -25.9783  -11.8260   20.5227 O   0  0  0  0  0  0  0  0  0  0  0  0
  -27.6558  -14.2416   16.7983 O   0  0  0  0  0  0  0  0  0  0  0  0
  -32.4386  -24.9593   21.8600 O   0  0  0  0  0  0  0  0  0  0  0  0
  -23.4984  -32.1445   23.5573 O   0  0  0  0  0  0  0  0  0  0  0  0
  -26.5223  -20.9797   22.1523 O   0  0  0  0  0  0  0  0  0  0  0  0
  -23.2153  -19.3241   17.6936 O   0  0  0  0  0  0  0  0  0  1  0  0
  -26.3371  -36.8259   24.2137 F   0  0  0  0  0  0  0  0  0  0  0  0
  -22.4240  -34.5739   22.7917 F   0  0  0  0  0  0  0  0  0  0  0  0
  1  2  1  0  0  0  0
  1  5  2  0  0  0  0
  2  6  2  0  0  0  0
  3 10  2  0  0  0  0
  3 18  1  0  0  0  0
  4 11  1  0  0  0  0
  4 18  2  0  0  0  0
  5 20  1  0  0  0  0
  6 22  1  0  0  0  0
  7 12  2  0  0  0  0
  7 21  1  0  0  0  0
  8  9  2  0  0  0  0
  8 24  1  0  0  0  0
  9 25  1  0  0  0  0
 10 26  1  0  0  0  0
 11 26  2  0  0  0  0
 12 27  1  0  0  0  0
 13 14  2  0  0  0  0
 13 28  1  0  0  0  0
 14 30  1  0  0  0  0
 15 23  1  0  0  0  0
 15 27  2  0  0  0  0
 16 24  2  0  0  0  0
 16 29  1  0  0  0  0
 17 30  2  0  0  0  0
 17 31  1  0  0  0  0
 18 32  1  0  0  0  0
 19 32  1  0  0  0  0
 19 33  2  0  0  0  0
 19 34  1  0  0  0  0
 20 22  2  0  0  0  0
 20 39  1  0  0  0  0
 21 23  2  0  0  0  0
 21 40  1  0  0  0  0
 22 48  1  0  0  0  0
 23 41  1  0  0  0  0
 24 74  1  0  0  0  0
 25 29  2  0  0  0  0
 25 71  1  0  0  0  0
 26 81  1  0  0  0  0
 27 83  1  0  0  0  0
 28 31  2  0  0  0  0
 28 81  1  0  0  0  0
 29 82  1  0  0  0  0
 30 84  1  0  0  0  0
 31 85  1  0  0  0  0
 32 65  2  0  0  0  0
 33 66  1  0  0  0  0
 33 69  1  0  0  0  0
 34 70  1  0  0  0  0
 34 76  2  0  0  0  0
 35 49  1  0  0  0  0
 35 72  1  0  0  0  0
 35 77  2  0  0  0  0
 36 62  1  0  0  0  0
 36 67  1  0  0  0  0
 36 78  2  0  0  0  0
 37 63  1  0  0  0  0
 37 73  1  0  0  0  0
 37 79  2  0  0  0  0
 38 68  1  0  0  0  0
 38 74  1  0  0  0  0
 38 80  2  0  0  0  0
 39 42  1  0  0  0  0
 40 49  1  0  0  0  0
 41 67  1  0  0  0  0
 42 44  1  0  0  0  0
 43 45  1  0  0  0  0
 43 46  1  0  0  0  0
 44 48  1  0  0  0  0
 45 50  1  0  0  0  0
 46 68  1  0  0  0  0
 47 50  1  0  0  0  0
 47 68  1  0  0  0  0
 48 72  1  0  0  0  0
 49 67  1  0  0  0  0
 50 66  1  0  0  0  0
 51 59  1  0  0  0  0
 52 63  1  0  0  0  0
 53 64  1  0  0  0  0
 54 64  1  0  0  0  0
 55 64  1  0  0  0  0
 56 75  1  0  0  0  0
 57 82  1  0  0  0  0
 58 60  1  0  0  0  0
 58 61  1  0  0  0  0
 59 74  1  0  0  0  0
 60 71  1  0  0  0  0
 61 83  1  0  0  0  0
 62 64  1  0  0  0  0
 62 73  1  0  0  0  0
 63 75  1  0  0  0  0
 65 66  1  0  0  0  0
M  CHG  1  75   1
M  ISO  4  38 100  61 101  74 100  83 101
M  END
> <Batch ID>
0100

> <Smiles>
CC[100N:0](c1ccc(NCC[101CH2:1][101O:1]c2ccc3c(c2)CN(C(=O)C(NC(=O)C(C)NC)C(C)(C)C)C(C(=O)NC2CCCc4ccccc42)C3)c(OC)c1)[100C:0](=O)N1CCCC(n2nc(-c3ccc(Oc4ccc(F)cc4F)cc3)c(C(N)=O)c2N)C1

> <Shape>
0.235

> <Color>
0.054

> <Negative vol penalty>
0.000

$$$$

  -OEChem-04052300573D

 83 91  0     1  0  0  0  0  0999 V2000
  -20.1847  -30.3502   16.7018 C   0  0  0  0  0  0  0  0  0  0  0  0
  -21.2864  -29.5459   16.9752 C   0  0  0  0  0  0  0  0  0  0  0  0
  -23.0548   -9.8841   19.9530 C   0  0  0  0  0  0  0  0  0  0  0  0
  -23.8694   -9.8709   22.2275 C   0  0  0  0  0  0  0  0  0  0  0  0
  -19.3104  -30.0063   15.6716 C   0  0  0  0  0  0  0  0  0  0  0  0
  -21.5138  -28.3965   16.2192 C   0  0  0  0  0  0  0  0  0  0  0  0
  -26.9425  -26.0623   14.6109 C   0  0  0  0  0  0  0  0  0  0  0  0
  -22.3163   -8.7292   20.2108 C   0  0  0  0  0  0  0  0  0  0  0  0
  -23.1309   -8.7160   22.4853 C   0  0  0  0  0  0  0  0  0  0  0  0
  -27.7152  -25.0313   15.1436 C   0  0  0  0  0  0  0  0  0  0  0  0
  -19.9176   -7.9145   23.1581 C   0  0  0  0  0  0  0  0  0  0  0  0
  -19.1889   -7.8648   24.3464 C   0  0  0  0  0  0  0  0  0  0  0  0
  -29.1848  -17.1186   19.8357 C   0  0  0  0  0  0  0  0  0  0  0  0
  -26.7836  -23.5047   13.5248 C   0  0  0  0  0  0  0  0  0  0  0  0
  -20.4463   -5.9205   25.0361 C   0  0  0  0  0  0  0  0  0  0  0  0
  -28.8624  -17.6463   22.0762 C   0  0  0  0  0  0  0  0  0  0  0  0
  -23.8314  -10.4549   20.9614 C   0  0  0  0  0  0  0  0  0  0  0  0
  -29.4272  -16.7541   21.1916 C   0  0  0  0  0  0  0  0  0  0  0  0
  -24.1720  -12.9809   20.8550 C   0  0  0  0  0  0  0  0  0  0  0  0
  -19.5326  -28.8573   14.8963 C   0  0  0  0  0  0  0  0  0  0  0  0
  -26.0750  -25.8193   13.5363 C   0  0  0  0  0  0  0  0  0  0  0  0
  -20.6410  -28.0362   15.1785 C   0  0  0  0  0  0  0  0  0  0  0  0
  -26.0029  -24.5348   12.9786 C   0  0  0  0  0  0  0  0  0  0  0  0
  -22.3543   -8.1451   21.4769 C   0  0  0  0  0  0  0  0  0  0  0  0
  -27.6337  -23.7516   14.6025 C   0  0  0  0  0  0  0  0  0  0  0  0
  -20.9106   -6.9672   22.9087 C   0  0  0  0  0  0  0  0  0  0  0  0
  -19.4532   -6.8679   25.2854 C   0  0  0  0  0  0  0  0  0  0  0  0
  -21.1749   -5.9702   23.8478 C   0  0  0  0  0  0  0  0  0  0  0  0
  -24.5949  -11.6476   20.6955 C   0  0  0  0  0  0  0  0  0  0  0  0
  -25.2556  -13.7329   20.4721 C   0  0  0  0  0  0  0  0  0  0  0  0
  -28.4436  -18.2756   19.7356 C   0  0  0  0  0  0  0  0  0  0  0  0
  -30.1688  -15.5998   21.6257 C   0  0  0  0  0  0  0  0  0  0  0  0
  -22.9123  -13.4936   21.3087 C   0  0  0  0  0  0  0  0  0  0  0  0
  -30.7706  -14.6494   20.6625 C   0  0  0  0  0  0  0  0  0  0  0  0
  -22.9319  -26.0120   13.1031 C   0  0  0  0  0  0  0  0  0  0  0  0
  -28.3496  -20.5658   16.1833 C   0  0  0  0  0  0  0  0  0  0  0  0
  -23.7072  -25.3370   10.0265 C   0  0  0  0  0  0  0  0  0  0  0  0
  -25.9328  -23.9633    7.8341 C   0  0  0  0  0  0  0  0  0  0  0  0
  -18.5338  -28.5008   13.8240 C   0  0  0  0  0  0  0  0  0  0  0  0
  -25.2681  -26.9482   12.9558 C   0  0  0  0  0  0  0  0  0  0  0  0
  -25.1022  -24.2265   11.8115 C   0  0  0  0  0  0  0  0  0  0  0  0
  -19.0534  -27.4689   12.8263 C   0  0  0  0  0  0  0  0  0  0  0  0
  -29.5389  -12.4111   18.1467 C   0  0  0  0  0  0  0  0  0  0  0  0
  -19.7246  -26.3105   13.5574 C   0  0  0  0  0  0  0  0  0  0  0  0
  -28.1214  -12.0925   18.6209 C   0  0  0  0  0  0  0  0  0  0  0  0
  -30.4915  -12.6011   19.3226 C   0  0  0  0  0  0  0  0  0  0  0  0
  -28.6200  -13.3219   20.7809 C   0  0  0  0  0  0  0  0  0  0  0  0
  -20.9352  -26.7948   14.3645 C   0  0  1  0  0  0  0  0  0  0  0  0
  -24.0358  -26.4714   12.1932 C   0  0  1  0  0  0  0  0  0  0  0  0
  -27.6231  -13.1504   19.6215 C   0  0  2  0  0  0  0  0  0  0  0  0
  -26.2738  -23.5288    5.3861 C   0  0  0  0  0  0  0  0  0  0  0  0
  -21.7077  -23.0360   10.1589 C   0  0  0  0  0  0  0  0  0  0  0  0
  -22.7639  -22.0915    8.0947 C   0  0  0  0  0  0  0  0  0  0  0  0
  -21.6677  -24.3310    8.0198 C   0  0  0  0  0  0  0  0  0  0  0  0
  -28.3876  -25.6149    7.7643 C   0  0  0  0  0  0  0  0  0  0  0  0
  -27.8542  -19.1272   16.1924 C   0  0  0  0  0  0  0  0  0  0  0  0
  -27.8505  -21.4235   15.0368 C   0  0  0  0  0  0  0  0  0  1  0  0
  -28.4013  -18.3162   17.3582 C   0  0  0  0  0  0  0  0  0  0  0  0
  -23.8779  -24.0724    9.2198 C   0  0  1  0  0  0  0  0  0  0  0  0
  -26.5255  -24.4883    6.5388 C   0  0  2  0  0  0  0  0  0  0  0  0
  -22.5199  -23.3878    8.8965 C   0  0  0  0  0  0  0  0  0  0  0  0
  -25.8493  -11.5548   20.2463 N   0  0  0  0  0  0  0  0  0  0  0  0
  -30.3752  -15.2943   22.8871 N   0  0  0  0  0  0  0  0  0  0  0  0
  -26.2239  -12.8392   20.1200 N   0  0  0  0  0  0  0  0  0  0  0  0
  -29.9715  -13.5846   20.2705 N   0  0  0  0  0  0  0  0  0  0  0  0
  -24.3285  -25.3622   11.2831 N   0  0  0  0  0  0  0  0  0  0  0  0
  -25.4652  -15.0649   20.4056 N   0  0  0  0  0  0  0  0  0  0  0  0
  -21.9081  -12.5821   21.6622 N   0  0  0  0  0  0  0  0  0  0  0  0
  -22.0679  -27.0179   13.4919 N   0  0  0  0  0  0  0  0  0  0  0  0
  -24.6563  -24.4414    8.0423 N   0  0  0  0  0  0  0  0  0  0  0  0
  -27.9970  -24.6761    6.6812 N   0  3  0  0  0  0  0  0  0  0  0  0
  -22.6783  -14.7238   21.3823 O   0  0  0  0  0  0  0  0  0  0  0  0
  -31.9155  -14.9061   20.3136 O   0  0  0  0  0  0  0  0  0  0  0  0
  -22.8678  -24.8319   13.4272 O   0  0  0  0  0  0  0  0  0  0  0  0
  -29.1032  -21.0136   17.0460 O   0  0  0  0  0  0  0  0  0  0  0  0
  -23.0528  -26.2708    9.5559 O   0  0  0  0  0  0  0  0  0  0  0  0
  -26.5399  -23.2021    8.5840 O   0  0  0  0  0  0  0  0  0  0  0  0
  -21.6337   -7.0183   21.7288 O   0  0  0  0  0  0  0  0  0  0  0  0
  -28.3863  -22.7434   15.1210 O   0  0  0  0  0  0  0  0  0  1  0  0
  -28.0288  -18.9114   18.5950 O   0  0  0  0  0  0  0  0  0  0  0  0
  -18.7544   -6.8212   26.4272 F   0  0  0  0  0  0  0  0  0  0  0  0
  -22.1285   -5.0580   23.6143 F   0  0  0  0  0  0  0  0  0  0  0  0
  -28.0436  -18.9172   21.2720 S   0  0  0  0  0  0  0  0  0  0  0  0
  1  2  1  0  0  0  0
  1  5  2  0  0  0  0
  2  6  2  0  0  0  0
  3  8  2  0  0  0  0
  3 17  1  0  0  0  0
  4  9  1  0  0  0  0
  4 17  2  0  0  0  0
  5 20  1  0  0  0  0
  6 22  1  0  0  0  0
  7 10  2  0  0  0  0
  7 21  1  0  0  0  0
  8 24  1  0  0  0  0
  9 24  2  0  0  0  0
 10 25  1  0  0  0  0
 11 12  2  0  0  0  0
 11 26  1  0  0  0  0
 12 27  1  0  0  0  0
 13 18  1  0  0  0  0
 13 31  2  0  0  0  0
 14 23  1  0  0  0  0
 14 25  2  0  0  0  0
 15 27  2  0  0  0  0
 15 28  1  0  0  0  0
 16 18  2  0  0  0  0
 16 83  1  0  0  0  0
 17 29  1  0  0  0  0
 18 32  1  0  0  0  0
 19 29  1  0  0  0  0
 19 30  2  0  0  0  0
 19 33  1  0  0  0  0
 20 22  2  0  0  0  0
 20 39  1  0  0  0  0
 21 23  2  0  0  0  0
 21 40  1  0  0  0  0
 22 48  1  0  0  0  0
 23 41  1  0  0  0  0
 24 78  1  0  0  0  0
 25 79  1  0  0  0  0
 26 28  2  0  0  0  0
 26 78  1  0  0  0  0
 27 81  1  0  0  0  0
 28 82  1  0  0  0  0
 29 62  2  0  0  0  0
 30 64  1  0  0  0  0
 30 67  1  0  0  0  0
 31 80  1  0  0  0  0
 31 83  1  0  0  0  0
 32 34  1  0  0  0  0
 32 63  2  0  0  0  0
 33 68  1  0  0  0  0
 33 72  2  0  0  0  0
 34 65  1  0  0  0  0
 34 73  2  0  0  0  0
 35 49  1  0  0  0  0
 35 69  1  0  0  0  0
 35 74  2  0  0  0  0
 36 56  1  0  0  0  0
 36 57  1  0  0  0  0
 36 75  2  0  0  0  0
 37 59  1  0  0  0  0
 37 66  1  0  0  0  0
 37 76  2  0  0  0  0
 38 60  1  0  0  0  0
 38 70  1  0  0  0  0
 38 77  2  0  0  0  0
 39 42  1  0  0  0  0
 40 49  1  0  0  0  0
 41 66  1  0  0  0  0
 42 44  1  0  0  0  0
 43 45  1  0  0  0  0
 43 46  1  0  0  0  0
 44 48  1  0  0  0  0
 45 50  1  0  0  0  0
 46 65  1  0  0  0  0
 47 50  1  0  0  0  0
 47 65  1  0  0  0  0
 48 69  1  0  0  0  0
 49 66  1  0  0  0  0
 50 64  1  0  0  0  0
 51 60  1  0  0  0  0
 52 61  1  0  0  0  0
 53 61  1  0  0  0  0
 54 61  1  0  0  0  0
 55 71  1  0  0  0  0
 56 58  1  0  0  0  0
 57 79  1  0  0  0  0
 58 80  1  0  0  0  0
 59 61  1  0  0  0  0
 59 70  1  0  0  0  0
 60 71  1  0  0  0  0
 62 64  1  0  0  0  0
M  CHG  1  71   1
M  ISO  4  32 100  34 100  57 101  79 101
M  END
> <Batch ID>
0100

> <Smiles>
CNC(C)C(=O)NC(C(=O)N1Cc2cc([101O:1][101CH2:1]C(=O)CCOc3cc([100C:0](=N)[100C:0](=O)N4CCCC(n5nc(-c6ccc(Oc7ccc(F)cc7F)cc6)c(C(N)=O)c5N)C4)cs3)ccc2CC1C(=O)NC1CCCc2ccccc21)C(C)(C)C

> <Shape>
0.192

> <Color>
0.185

> <Negative vol penalty>
0.000

$$$$

  -OEChem-04052300573D

 89 98  0     1  0  0  0  0  0999 V2000
  -29.0883  -14.7326   26.0673 C   0  0  0  0  0  0  0  0  0  0  0  0
  -30.1244  -15.5547   25.6359 C   0  0  0  0  0  0  0  0  0  0  0  0
  -19.7793  -21.0201   21.2127 C   0  0  0  0  0  0  0  0  0  0  0  0
  -21.9553  -21.9843   21.6280 C   0  0  0  0  0  0  0  0  0  0  0  0
  -24.7312  -28.4794   20.7131 C   0  0  0  0  0  0  0  0  0  0  0  0
  -28.1810  -14.2140   25.1444 C   0  0  0  0  0  0  0  0  0  0  0  0
  -30.2544  -15.8578   24.2810 C   0  0  0  0  0  0  0  0  0  0  0  0
  -30.1065  -22.6813   21.9768 C   0  0  0  0  0  0  0  0  0  0  0  0
  -25.9163  -28.1755   20.0432 C   0  0  0  0  0  0  0  0  0  0  0  0
  -20.2551  -19.7725   21.6161 C   0  0  0  0  0  0  0  0  0  0  0  0
  -22.4311  -20.7367   22.0314 C   0  0  0  0  0  0  0  0  0  0  0  0
  -30.2996  -23.9709   21.4809 C   0  0  0  0  0  0  0  0  0  0  0  0
  -22.1101  -17.2709   20.3025 C   0  0  0  0  0  0  0  0  0  0  0  0
  -21.7801  -16.1671   19.5162 C   0  0  0  0  0  0  0  0  0  0  0  0
  -30.4659  -23.0933   19.2336 C   0  0  0  0  0  0  0  0  0  0  0  0
  -26.8060  -30.3426   20.6342 C   0  0  0  0  0  0  0  0  0  0  0  0
  -20.6652  -15.1547   21.4055 C   0  0  0  0  0  0  0  0  0  0  0  0
  -20.6294  -22.1260   21.2186 C   0  0  0  0  0  0  0  0  0  0  0  0
  -24.5834  -29.7149   21.3435 C   0  0  0  0  0  0  0  0  0  0  0  0
  -19.6055  -23.7552   19.5438 C   0  0  0  0  0  0  0  0  0  0  0  0
  -28.2943  -14.5187   23.7787 C   0  0  0  0  0  0  0  0  0  0  0  0
  -30.0770  -21.5932   21.1002 C   0  0  0  0  0  0  0  0  0  0  0  0
  -29.3485  -15.3417   23.3388 C   0  0  0  0  0  0  0  0  0  0  0  0
  -30.2604  -21.8007   19.7232 C   0  0  0  0  0  0  0  0  0  0  0  0
  -26.9537  -29.1071   20.0038 C   0  0  0  0  0  0  0  0  0  0  0  0
  -25.6208  -30.6465   21.3041 C   0  0  0  0  0  0  0  0  0  0  0  0
  -21.5810  -19.6308   22.0254 C   0  0  0  0  0  0  0  0  0  0  0  0
  -30.4791  -24.1763   20.1127 C   0  0  0  0  0  0  0  0  0  0  0  0
  -21.7178  -17.3167   21.6403 C   0  0  0  0  0  0  0  0  0  0  0  0
  -21.0576  -15.1090   20.0677 C   0  0  0  0  0  0  0  0  0  0  0  0
  -20.9953  -16.2586   22.1918 C   0  0  0  0  0  0  0  0  0  0  0  0
  -20.1386  -23.4149   20.8015 C   0  0  0  0  0  0  0  0  0  0  0  0
  -19.2886  -25.0871   19.6542 C   0  0  0  0  0  0  0  0  0  0  0  0
  -28.6206  -29.8292   17.2319 C   0  0  0  0  0  0  0  0  0  0  0  0
  -28.6316  -27.4560   19.2199 C   0  0  0  0  0  0  0  0  0  0  0  0
  -23.3190  -30.0046   22.0429 C   0  0  0  0  0  0  0  0  0  0  0  0
  -19.4139  -22.9403   18.3798 C   0  0  0  0  0  0  0  0  0  0  0  0
  -29.6825  -17.8859   20.6801 C   0  0  0  0  0  0  0  0  0  0  0  0
  -28.1755  -19.2110   18.3599 C   0  0  0  0  0  0  0  0  0  0  0  0
  -26.2855  -21.0624   16.2064 C   0  0  0  0  0  0  0  0  0  0  0  0
  -21.4343  -29.4129   23.2216 C   0  0  0  0  0  0  0  0  0  0  0  0
  -27.3175  -13.8963   22.8127 C   0  0  0  0  0  0  0  0  0  0  0  0
  -29.9334  -20.1802   21.5967 C   0  0  0  0  0  0  0  0  0  0  0  0
  -30.2558  -20.5966   18.8215 C   0  0  0  0  0  0  0  0  0  0  0  0
  -29.5097  -28.9549   16.3848 C   0  0  0  0  0  0  0  0  0  0  0  0
  -28.9463  -29.8821   18.7048 C   0  0  0  0  0  0  0  0  0  0  0  0
  -27.3036  -14.5690   21.4424 C   0  0  0  0  0  0  0  0  0  0  0  0
  -29.3495  -27.4865   16.7675 C   0  0  0  0  0  0  0  0  0  0  0  0
  -17.9962  -28.3872   22.8584 C   0  0  0  0  0  0  0  0  0  0  0  0
  -28.7274  -14.7872   20.9404 C   0  0  0  0  0  0  0  0  0  0  0  0
  -18.1120  -27.0102   22.2048 C   0  0  0  0  0  0  0  0  0  0  0  0
  -19.1417  -28.6425   23.8331 C   0  0  0  0  0  0  0  0  0  0  0  0
  -20.6175  -27.1007   22.5708 C   0  0  0  0  0  0  0  0  0  0  0  0
  -29.5081  -15.7135   21.8805 C   0  0  1  0  0  0  0  0  0  0  0  0
  -29.7741  -27.1762   18.2167 C   0  0  2  0  0  0  0  0  0  0  0  0
  -29.1333  -19.2816   20.6368 C   0  0  1  0  0  0  0  0  0  0  0  0
  -19.4952  -26.8203   21.5570 C   0  0  1  0  0  0  0  0  0  0  0  0
  -24.6101  -21.5421   14.4008 C   0  0  0  0  0  0  0  0  0  0  0  0
  -30.5340  -18.6193   16.5184 C   0  0  0  0  0  0  0  0  0  0  0  0
  -29.1115  -19.3309   14.5849 C   0  0  0  0  0  0  0  0  0  0  0  0
  -28.4407  -17.3665   15.9683 C   0  0  0  0  0  0  0  0  0  0  0  0
  -24.0480  -21.1376   18.1420 C   0  0  0  0  0  0  0  0  0  0  0  0
  -30.1999  -25.7042   18.3113 C   0  0  0  0  0  0  0  0  0  1  0  0
  -28.2231  -19.6936   16.9322 C   0  0  1  0  0  0  0  0  0  0  0  0
  -24.8339  -20.9403   15.7794 C   0  0  2  0  0  0  0  0  0  0  0  0
  -29.0819  -18.7703   16.0228 C   0  0  0  0  0  0  0  0  0  0  0  0
  -20.1609  -24.4473   21.6486 N   0  0  0  0  0  0  0  0  0  0  0  0
  -22.6101  -29.0680   22.5829 N   0  0  0  0  0  0  0  0  0  0  0  0
  -19.6379  -25.4495   20.9218 N   0  0  0  0  0  0  0  0  0  0  0  0
  -28.1805  -28.7918   19.3100 N   0  0  0  0  0  0  0  0  0  0  0  0
  -29.1791  -19.6758   19.2185 N   0  0  0  0  0  0  0  0  0  0  0  0
  -20.4380  -28.4199   23.1913 N   0  0  0  0  0  0  0  0  0  0  0  0
  -25.4906  -31.9039   21.9347 N   0  0  0  0  0  0  0  0  0  0  0  0
  -18.7482  -25.9718   18.7896 N   0  0  0  0  0  0  0  0  0  0  0  0
  -18.1975  -22.2596   18.2337 N   0  0  0  0  0  0  0  0  0  0  0  0
  -29.1251  -17.0923   21.6645 N   0  0  0  0  0  0  0  0  0  0  0  0
  -26.8360  -19.8333   16.5021 N   0  0  0  0  0  0  0  0  0  0  0  0
  -23.9478  -21.6441   16.7490 N   0  3  0  0  0  0  0  0  0  0  0  0
  -27.6274  -30.3857   16.7655 O   0  0  0  0  0  0  0  0  0  0  0  0
  -28.1817  -26.5325   19.9057 O   0  0  0  0  0  0  0  0  0  0  0  0
  -20.3015  -22.8063   17.5036 O   0  0  0  0  0  0  0  0  0  0  0  0
  -30.5474  -17.5519   19.8789 O   0  0  0  0  0  0  0  0  0  0  0  0
  -27.2774  -18.4383   18.7057 O   0  0  0  0  0  0  0  0  0  0  0  0
  -26.8734  -22.1399   16.2676 O   0  0  0  0  0  0  0  0  0  0  0  0
  -21.2497  -30.4944   23.7850 O   0  0  0  0  0  0  0  0  0  0  0  0
  -22.0456  -18.4136   22.4194 O   0  0  0  0  0  0  0  0  0  0  0  0
  -30.6625  -25.4383   19.6348 O   0  0  0  0  0  0  0  0  0  1  0  0
  -20.7394  -14.0498   19.3121 F   0  0  0  0  0  0  0  0  0  0  0  0
  -20.6147  -16.2973   23.4760 F   0  0  0  0  0  0  0  0  0  0  0  0
  1  2  1  0  0  0  0
  1  6  2  0  0  0  0
  2  7  2  0  0  0  0
  3 10  2  0  0  0  0
  3 18  1  0  0  0  0
  4 11  1  0  0  0  0
  4 18  2  0  0  0  0
  5  9  2  0  0  0  0
  5 19  1  0  0  0  0
  6 21  1  0  0  0  0
  7 23  1  0  0  0  0
  8 12  2  0  0  0  0
  8 22  1  0  0  0  0
  9 25  1  0  0  0  0
 10 27  1  0  0  0  0
 11 27  2  0  0  0  0
 12 28  1  0  0  0  0
 13 14  2  0  0  0  0
 13 29  1  0  0  0  0
 14 30  1  0  0  0  0
 15 24  1  0  0  0  0
 15 28  2  0  0  0  0
 16 25  2  0  0  0  0
 16 26  1  0  0  0  0
 17 30  2  0  0  0  0
 17 31  1  0  0  0  0
 18 32  1  0  0  0  0
 19 26  2  0  0  0  0
 19 36  1  0  0  0  0
 20 32  1  0  0  0  0
 20 33  2  0  0  0  0
 20 37  1  0  0  0  0
 21 23  2  0  0  0  0
 21 42  1  0  0  0  0
 22 24  2  0  0  0  0
 22 43  1  0  0  0  0
 23 54  1  0  0  0  0
 24 44  1  0  0  0  0
 25 70  1  0  0  0  0
 26 73  1  0  0  0  0
 27 86  1  0  0  0  0
 28 87  1  0  0  0  0
 29 31  2  0  0  0  0
 29 86  1  0  0  0  0
 30 88  1  0  0  0  0
 31 89  1  0  0  0  0
 32 67  2  0  0  0  0
 33 69  1  0  0  0  0
 33 74  1  0  0  0  0
 34 45  1  0  0  0  0
 34 46  1  0  0  0  0
 34 79  2  0  0  0  0
 35 55  1  0  0  0  0
 35 70  1  0  0  0  0
 35 80  2  0  0  0  0
 36 68  2  0  0  0  0
 37 75  1  0  0  0  0
 37 81  2  0  0  0  0
 38 56  1  0  0  0  0
 38 76  1  0  0  0  0
 38 82  2  0  0  0  0
 39 64  1  0  0  0  0
 39 71  1  0  0  0  0
 39 83  2  0  0  0  0
 40 65  1  0  0  0  0
 40 77  1  0  0  0  0
 40 84  2  0  0  0  0
 41 68  1  0  0  0  0
 41 72  1  0  0  0  0
 41 85  2  0  0  0  0
 42 47  1  0  0  0  0
 43 56  1  0  0  0  0
 44 71  1  0  0  0  0
 45 48  1  0  0  0  0
 46 70  1  0  0  0  0
 47 50  1  0  0  0  0
 48 55  1  0  0  0  0
 49 51  1  0  0  0  0
 49 52  1  0  0  0  0
 50 54  1  0  0  0  0
 51 57  1  0  0  0  0
 52 72  1  0  0  0  0
 53 57  1  0  0  0  0
 53 72  1  0  0  0  0
 54 76  1  0  0  0  0
 55 63  1  0  0  0  0
 56 71  1  0  0  0  0
 57 69  1  0  0  0  0
 58 65  1  0  0  0  0
 59 66  1  0  0  0  0
 60 66  1  0  0  0  0
 61 66  1  0  0  0  0
 62 78  1  0  0  0  0
 63 87  1  0  0  0  0
 64 66  1  0  0  0  0
 64 77  1  0  0  0  0
 65 78  1  0  0  0  0
 67 69  1  0  0  0  0
M  CHG  1  78   1
M  ISO  4  41 100  63 101  68 100  87 101
M  END
> <Batch ID>
0100

> <Smiles>
CNC(C)C(=O)NC(C(=O)N1Cc2cc([101O:1][101CH2:1]C3CCC(=O)CN(c4ccc(C=[100N:0][100C:0](=O)N5CCCC(n6nc(-c7ccc(Oc8ccc(F)cc8F)cc7)c(C(N)=O)c6N)C5)c(N)c4)C3=O)ccc2CC1C(=O)NC1CCCc2ccccc21)C(C)(C)C

> <Shape>
0.208

> <Color>
0.083

> <Negative vol penalty>
0.000

$$$$

  -OEChem-04052300573D

 84 92  0     1  0  0  0  0  0999 V2000
  -34.0167  -35.0608   22.0903 C   0  0  0  0  0  0  0  0  0  0  0  0
  -34.0075  -33.6710   22.1512 C   0  0  0  0  0  0  0  0  0  0  0  0
  -23.0675   -9.8868   19.9311 C   0  0  0  0  0  0  0  0  0  0  0  0
  -23.8475   -9.8590   22.2176 C   0  0  0  0  0  0  0  0  0  0  0  0
  -32.9515  -35.7877   22.6202 C   0  0  0  0  0  0  0  0  0  0  0  0
  -32.9335  -33.0073   22.7431 C   0  0  0  0  0  0  0  0  0  0  0  0
  -30.5666  -27.6119   21.0716 C   0  0  0  0  0  0  0  0  0  0  0  0
  -22.3253   -8.7303   20.1702 C   0  0  0  0  0  0  0  0  0  0  0  0
  -23.1052   -8.7025   22.4567 C   0  0  0  0  0  0  0  0  0  0  0  0
  -30.7435  -26.3182   21.5603 C   0  0  0  0  0  0  0  0  0  0  0  0
  -19.8821   -7.8968   23.0755 C   0  0  0  0  0  0  0  0  0  0  0  0
  -19.1354   -7.8396   24.2522 C   0  0  0  0  0  0  0  0  0  0  0  0
  -28.7603  -26.5640   22.9115 C   0  0  0  0  0  0  0  0  0  0  0  0
  -29.7287  -19.2650   22.4291 C   0  0  0  0  0  0  0  0  0  0  0  0
  -31.1563  -17.6849   20.6269 C   0  0  0  0  0  0  0  0  0  0  0  0
  -20.3823   -5.8908   24.9485 C   0  0  0  0  0  0  0  0  0  0  0  0
  -23.8286  -10.4512   20.9548 C   0  0  0  0  0  0  0  0  0  0  0  0
  -24.1707  -12.9777   20.8698 C   0  0  0  0  0  0  0  0  0  0  0  0
  -31.8593  -35.1322   23.2103 C   0  0  0  0  0  0  0  0  0  0  0  0
  -29.4896  -28.3966   21.5081 C   0  0  0  0  0  0  0  0  0  0  0  0
  -31.8533  -33.7261   23.2827 C   0  0  0  0  0  0  0  0  0  0  0  0
  -28.5705  -27.8664   22.4248 C   0  0  0  0  0  0  0  0  0  0  0  0
  -29.5458  -17.8822   22.4170 C   0  0  0  0  0  0  0  0  0  0  0  0
  -30.6254  -19.8577   21.5401 C   0  0  0  0  0  0  0  0  0  0  0  0
  -30.2596  -17.0922   21.5160 C   0  0  0  0  0  0  0  0  0  0  0  0
  -22.3441   -8.1381   21.4330 C   0  0  0  0  0  0  0  0  0  0  0  0
  -29.8419  -25.7951   22.4825 C   0  0  0  0  0  0  0  0  0  0  0  0
  -20.8788   -6.9511   22.8351 C   0  0  0  0  0  0  0  0  0  0  0  0
  -31.3392  -19.0676   20.6390 C   0  0  0  0  0  0  0  0  0  0  0  0
  -19.3855   -6.8366   25.1887 C   0  0  0  0  0  0  0  0  0  0  0  0
  -21.1289   -5.9481   23.7717 C   0  0  0  0  0  0  0  0  0  0  0  0
  -24.5960  -11.6455   20.7083 C   0  0  0  0  0  0  0  0  0  0  0  0
  -25.2600  -13.7322   20.5083 C   0  0  0  0  0  0  0  0  0  0  0  0
  -22.9042  -13.4876   21.3076 C   0  0  0  0  0  0  0  0  0  0  0  0
  -29.2088  -31.1548   23.0629 C   0  0  0  0  0  0  0  0  0  0  0  0
  -26.0551  -30.7476   22.4222 C   0  0  0  0  0  0  0  0  0  0  0  0
  -30.1697  -22.1797   22.3973 C   0  0  0  0  0  0  0  0  0  0  0  0
  -23.4980  -28.6051   21.7028 C   0  0  0  0  0  0  0  0  0  0  0  0
  -30.7280  -14.7730   20.6508 C   0  0  0  0  0  0  0  0  0  0  0  0
  -30.7531  -35.9623   23.8118 C   0  0  0  0  0  0  0  0  0  0  0  0
  -29.2977  -29.7806   20.9511 C   0  0  0  0  0  0  0  0  0  0  0  0
  -27.3863  -28.6606   22.9099 C   0  0  0  0  0  0  0  0  0  0  0  0
  -29.4776  -35.1699   24.0869 C   0  0  0  0  0  0  0  0  0  0  0  0
  -29.5916  -12.3956   18.2563 C   0  0  0  0  0  0  0  0  0  0  0  0
  -29.8072  -33.8519   24.7805 C   0  0  0  0  0  0  0  0  0  0  0  0
  -28.1557  -12.0981   18.6940 C   0  0  0  0  0  0  0  0  0  0  0  0
  -30.5174  -12.6059   19.4532 C   0  0  0  0  0  0  0  0  0  0  0  0
  -28.6230  -13.3102   20.8619 C   0  0  0  0  0  0  0  0  0  0  0  0
  -30.6946  -32.9691   23.8946 C   0  0  1  0  0  0  0  0  0  0  0  0
  -28.4555  -30.6766   21.8540 C   0  0  1  0  0  0  0  0  0  0  0  0
  -27.6398  -13.1550   19.6902 C   0  0  2  0  0  0  0  0  0  0  0  0
  -28.5777  -17.2744   23.3795 C   0  0  0  0  0  0  0  0  0  0  0  0
  -21.0263  -28.5623   21.2713 C   0  0  0  0  0  0  0  0  0  0  0  0
  -25.5304  -31.1091   25.4061 C   0  0  0  0  0  0  0  0  0  0  0  0
  -23.2529  -30.1310   25.0532 C   0  0  0  0  0  0  0  0  0  0  0  0
  -23.8862  -32.2565   23.9113 C   0  0  0  0  0  0  0  0  0  0  0  0
  -23.8748  -27.5069   18.9805 C   0  0  0  0  0  0  0  0  0  0  0  0
  -31.7039  -20.0222   18.4915 C   0  0  0  0  0  0  0  0  0  0  0  0
  -30.6433  -23.5895   22.0965 C   0  0  0  0  0  0  0  0  0  1  0  0
  -24.8992  -30.0776   23.1250 C   0  0  1  0  0  0  0  0  0  0  0  0
  -22.4094  -28.6548   20.6459 C   0  0  2  0  0  0  0  0  0  0  0  0
  -24.4155  -30.8790   24.3664 C   0  0  0  0  0  0  0  0  0  0  0  0
  -25.8571  -11.5555   20.2775 N   0  0  0  0  0  0  0  0  0  0  0  0
  -26.2335  -12.8407   20.1653 N   0  0  0  0  0  0  0  0  0  0  0  0
  -27.2454  -30.0110   22.3407 N   0  0  0  0  0  0  0  0  0  0  0  0
  -29.9666  -13.6236   20.3508 N   0  0  0  0  0  0  0  0  0  0  0  0
  -25.4704  -15.0645   20.4535 N   0  0  0  0  0  0  0  0  0  0  0  0
  -21.8948  -12.5738   21.6400 N   0  0  0  0  0  0  0  0  0  0  0  0
  -30.8008  -21.2617   21.5648 N   0  0  0  0  0  0  0  0  0  0  0  0
  -30.0883  -15.6859   21.4887 N   0  0  0  0  0  0  0  0  0  0  0  0
  -29.9044  -32.3320   22.8631 N   0  0  0  0  0  0  0  0  0  0  0  0
  -23.8712  -29.8681   22.1113 N   0  0  0  0  0  0  0  0  0  0  0  0
  -22.5676  -27.5259   19.6859 N   0  3  0  0  0  0  0  0  0  0  0  0
  -22.6690  -14.7173   21.3856 O   0  0  0  0  0  0  0  0  0  0  0  0
  -29.1613  -30.5047   24.1006 O   0  0  0  0  0  0  0  0  0  0  0  0
  -25.9052  -31.8798   21.9562 O   0  0  0  0  0  0  0  0  0  0  0  0
  -29.3393  -21.9536   23.2713 O   0  0  0  0  0  0  0  0  0  0  0  0
  -23.9674  -27.5513   22.1264 O   0  0  0  0  0  0  0  0  0  0  0  0
  -31.8530  -14.9484   20.1759 O   0  0  0  0  0  0  0  0  0  0  0  0
  -21.6198   -7.0098   21.6667 O   0  0  0  0  0  0  0  0  0  0  0  0
  -32.2191  -19.6271   19.7610 O   0  0  0  0  0  0  0  0  0  0  0  0
  -30.0126  -24.5329   22.9617 O   0  0  0  0  0  0  0  0  0  1  0  0
  -18.6694   -6.7826   26.3195 F   0  0  0  0  0  0  0  0  0  0  0  0
  -22.0860   -5.0374   23.5469 F   0  0  0  0  0  0  0  0  0  0  0  0
  1  2  1  0  0  0  0
  1  5  2  0  0  0  0
  2  6  2  0  0  0  0
  3  8  2  0  0  0  0
  3 17  1  0  0  0  0
  4  9  1  0  0  0  0
  4 17  2  0  0  0  0
  5 19  1  0  0  0  0
  6 21  1  0  0  0  0
  7 10  2  0  0  0  0
  7 20  1  0  0  0  0
  8 26  1  0  0  0  0
  9 26  2  0  0  0  0
 10 27  1  0  0  0  0
 11 12  2  0  0  0  0
 11 28  1  0  0  0  0
 12 30  1  0  0  0  0
 13 22  1  0  0  0  0
 13 27  2  0  0  0  0
 14 23  2  0  0  0  0
 14 24  1  0  0  0  0
 15 25  2  0  0  0  0
 15 29  1  0  0  0  0
 16 30  2  0  0  0  0
 16 31  1  0  0  0  0
 17 32  1  0  0  0  0
 18 32  1  0  0  0  0
 18 33  2  0  0  0  0
 18 34  1  0  0  0  0
 19 21  2  0  0  0  0
 19 40  1  0  0  0  0
 20 22  2  0  0  0  0
 20 41  1  0  0  0  0
 21 49  1  0  0  0  0
 22 42  1  0  0  0  0
 23 25  1  0  0  0  0
 23 52  1  0  0  0  0
 24 29  2  0  0  0  0
 24 69  1  0  0  0  0
 25 70  1  0  0  0  0
 26 80  1  0  0  0  0
 27 82  1  0  0  0  0
 28 31  2  0  0  0  0
 28 80  1  0  0  0  0
 29 81  1  0  0  0  0
 30 83  1  0  0  0  0
 31 84  1  0  0  0  0
 32 63  2  0  0  0  0
 33 64  1  0  0  0  0
 33 67  1  0  0  0  0
 34 68  1  0  0  0  0
 34 74  2  0  0  0  0
 35 50  1  0  0  0  0
 35 71  1  0  0  0  0
 35 75  2  0  0  0  0
 36 60  1  0  0  0  0
 36 65  1  0  0  0  0
 36 76  2  0  0  0  0
 37 59  1  0  0  0  0
 37 69  1  0  0  0  0
 37 77  2  0  0  0  0
 38 61  1  0  0  0  0
 38 72  1  0  0  0  0
 38 78  2  0  0  0  0
 39 66  1  0  0  0  0
 39 70  1  0  0  0  0
 39 79  2  0  0  0  0
 40 43  1  0  0  0  0
 41 50  1  0  0  0  0
 42 65  1  0  0  0  0
 43 45  1  0  0  0  0
 44 46  1  0  0  0  0
 44 47  1  0  0  0  0
 45 49  1  0  0  0  0
 46 51  1  0  0  0  0
 47 66  1  0  0  0  0
 48 51  1  0  0  0  0
 48 66  1  0  0  0  0
 49 71  1  0  0  0  0
 50 65  1  0  0  0  0
 51 64  1  0  0  0  0
 53 61  1  0  0  0  0
 54 62  1  0  0  0  0
 55 62  1  0  0  0  0
 56 62  1  0  0  0  0
 57 73  1  0  0  0  0
 58 81  1  0  0  0  0
 59 82  1  0  0  0  0
 60 62  1  0  0  0  0
 60 72  1  0  0  0  0
 61 73  1  0  0  0  0
 63 64  1  0  0  0  0
M  CHG  1  73   1
M  ISO  4  39 100  59 101  70 100  82 101
M  END
> <Batch ID>
0100

> <Smiles>
CNC(C)C(=O)NC(C(=O)N1Cc2cc([101O:1][101CH2:1]C(=O)Nc3cc(C)c([100NH:0][100C:0](=O)N4CCCC(n5nc(-c6ccc(Oc7ccc(F)cc7F)cc6)c(C(N)=O)c5N)C4)cc3OC)ccc2CC1C(=O)NC1CCCc2ccccc21)C(C)(C)C

> <Shape>
0.292

> <Color>
0.188

> <Negative vol penalty>
0.000

$$$$

  -OEChem-04052300573D

 84 92  0     1  0  0  0  0  0999 V2000
  -27.0245  -36.7653   17.3923 C   0  0  0  0  0  0  0  0  0  0  0  0
  -27.3376  -35.4178   17.2453 C   0  0  0  0  0  0  0  0  0  0  0  0
  -22.8946  -10.2612   20.0322 C   0  0  0  0  0  0  0  0  0  0  0  0
  -24.1176   -9.5910   22.0051 C   0  0  0  0  0  0  0  0  0  0  0  0
  -29.3603  -17.1118   20.7010 C   0  0  0  0  0  0  0  0  0  0  0  0
  -26.7677  -37.2859   18.6599 C   0  0  0  0  0  0  0  0  0  0  0  0
  -27.3953  -34.5903   18.3662 C   0  0  0  0  0  0  0  0  0  0  0  0
  -25.8075  -28.6831   18.6668 C   0  0  0  0  0  0  0  0  0  0  0  0
  -22.1524   -9.0818   20.0916 C   0  0  0  0  0  0  0  0  0  0  0  0
  -23.3753   -8.4116   22.0645 C   0  0  0  0  0  0  0  0  0  0  0  0
  -28.6407  -18.3056   20.7511 C   0  0  0  0  0  0  0  0  0  0  0  0
  -26.5546  -27.5072   18.6150 C   0  0  0  0  0  0  0  0  0  0  0  0
  -20.3036   -7.4529   23.0971 C   0  0  0  0  0  0  0  0  0  0  0  0
  -19.8080   -7.0629   24.3412 C   0  0  0  0  0  0  0  0  0  0  0  0
  -29.4414  -17.0592   23.1151 C   0  0  0  0  0  0  0  0  0  0  0  0
  -26.5924  -27.4319   21.0258 C   0  0  0  0  0  0  0  0  0  0  0  0
  -21.0586   -5.0011   24.1930 C   0  0  0  0  0  0  0  0  0  0  0  0
  -23.8773  -10.5159   20.9889 C   0  0  0  0  0  0  0  0  0  0  0  0
  -29.7606  -16.4885   21.8830 C   0  0  0  0  0  0  0  0  0  0  0  0
  -24.3361  -12.9646   21.5374 C   0  0  0  0  0  0  0  0  0  0  0  0
  -26.8127  -36.4623   19.7958 C   0  0  0  0  0  0  0  0  0  0  0  0
  -25.4558  -29.2491   19.9007 C   0  0  0  0  0  0  0  0  0  0  0  0
  -27.1402  -35.1006   19.6504 C   0  0  0  0  0  0  0  0  0  0  0  0
  -25.8385  -28.6137   21.0906 C   0  0  0  0  0  0  0  0  0  0  0  0
  -22.3927   -8.1569   21.1077 C   0  0  0  0  0  0  0  0  0  0  0  0
  -26.9497  -26.8830   19.7945 C   0  0  0  0  0  0  0  0  0  0  0  0
  -21.1767   -6.6170   22.4008 C   0  0  0  0  0  0  0  0  0  0  0  0
  -28.3214  -18.8763   21.9832 C   0  0  0  0  0  0  0  0  0  0  0  0
  -20.1855   -5.8370   24.8892 C   0  0  0  0  0  0  0  0  0  0  0  0
  -28.7218  -18.2531   23.1652 C   0  0  0  0  0  0  0  0  0  0  0  0
  -21.5542   -5.3911   22.9488 C   0  0  0  0  0  0  0  0  0  0  0  0
  -24.6447  -11.7338   20.9277 C   0  0  0  0  0  0  0  0  0  0  0  0
  -25.3704  -13.7942   21.1791 C   0  0  0  0  0  0  0  0  0  0  0  0
  -30.5113  -15.2439   21.8311 C   0  0  0  0  0  0  0  0  0  0  0  0
  -23.2147  -13.3257   22.3546 C   0  0  0  0  0  0  0  0  0  0  0  0
  -30.8672  -14.6116   20.5401 C   0  0  0  0  0  0  0  0  0  0  0  0
  -26.0696  -32.0052   21.3606 C   0  0  0  0  0  0  0  0  0  0  0  0
  -23.9668  -30.8650   23.5517 C   0  0  0  0  0  0  0  0  0  0  0  0
  -22.4444  -28.1615   24.9731 C   0  0  0  0  0  0  0  0  0  0  0  0
  -26.5741  -37.0805   21.1507 C   0  0  0  0  0  0  0  0  0  0  0  0
  -24.6267  -30.5035   19.9396 C   0  0  0  0  0  0  0  0  0  0  0  0
  -25.4693  -29.1698   22.4408 C   0  0  0  0  0  0  0  0  0  0  0  0
  -26.2881  -36.0562   22.2457 C   0  0  0  0  0  0  0  0  0  0  0  0
  -29.0612  -13.1962   17.7847 C   0  0  0  0  0  0  0  0  0  0  0  0
  -27.2898  -34.9079   22.1775 C   0  0  0  0  0  0  0  0  0  0  0  0
  -27.7413  -12.7556   18.4167 C   0  0  0  0  0  0  0  0  0  0  0  0
  -30.2260  -13.0378   18.7566 C   0  0  0  0  0  0  0  0  0  0  0  0
  -28.7041  -13.3084   20.6955 C   0  0  0  0  0  0  0  0  0  0  0  0
  -27.1881  -34.1658   20.8395 C   0  0  1  0  0  0  0  0  0  0  0  0
  -24.7638  -31.2699   21.2516 C   0  0  1  0  0  0  0  0  0  0  0  0
  -27.5000  -13.4800   19.7531 C   0  0  2  0  0  0  0  0  0  0  0  0
  -20.8019  -27.5427   26.7665 C   0  0  0  0  0  0  0  0  0  0  0  0
  -26.1008  -31.3638   25.6747 C   0  0  0  0  0  0  0  0  0  0  0  0
  -24.8050  -29.8852   27.2248 C   0  0  0  0  0  0  0  0  0  0  0  0
  -23.7790  -31.9890   26.3623 C   0  0  0  0  0  0  0  0  0  0  0  0
  -20.5921  -26.9374   23.0161 C   0  0  0  0  0  0  0  0  0  0  0  0
  -27.7660  -23.3944   20.3319 C   0  0  0  0  0  0  0  0  0  0  0  0
  -27.5770  -22.3714   21.4466 C   0  0  0  0  0  0  0  0  0  0  0  0
  -27.5113  -24.8134   20.8228 C   0  0  0  0  0  0  0  0  0  1  0  0
  -27.7893  -20.9495   20.9466 C   0  0  0  0  0  0  0  0  0  0  0  0
  -24.0749  -30.0233   24.8002 C   0  0  1  0  0  0  0  0  0  0  0  0
  -20.9880  -27.8795   25.2953 C   0  0  2  0  0  0  0  0  0  0  0  0
  -24.6987  -30.8056   25.9902 C   0  0  0  0  0  0  0  0  0  0  0  0
  -25.7858  -11.7735   20.2346 N   0  0  0  0  0  0  0  0  0  0  0  0
  -30.9192  -14.6081   22.8960 N   0  0  0  0  0  0  0  0  0  0  0  0
  -26.2031  -13.0394   20.4064 N   0  0  0  0  0  0  0  0  0  0  0  0
  -29.9493  -13.7060   20.0267 N   0  0  0  0  0  0  0  0  0  0  0  0
  -24.6632  -30.4017   22.4264 N   0  0  0  0  0  0  0  0  0  0  0  0
  -25.6398  -15.0884   21.4526 N   0  0  0  0  0  0  0  0  0  0  0  0
  -22.2437  -12.3518   22.6247 N   0  0  0  0  0  0  0  0  0  0  0  0
  -26.0409  -33.2835   20.8368 N   0  0  0  0  0  0  0  0  0  0  0  0
  -22.7358  -29.5064   25.0612 N   0  0  0  0  0  0  0  0  0  0  0  0
  -20.4907  -26.7326   24.4840 N   0  3  0  0  0  0  0  0  0  0  0  0
  -23.0694  -14.4824   22.8176 O   0  0  0  0  0  0  0  0  0  0  0  0
  -31.9396  -14.9571   20.0615 O   0  0  0  0  0  0  0  0  0  0  0  0
  -27.0315  -31.4541   21.8828 O   0  0  0  0  0  0  0  0  0  0  0  0
  -23.2836  -31.8919   23.5719 O   0  0  0  0  0  0  0  0  0  0  0  0
  -23.2444  -27.2769   24.6767 O   0  0  0  0  0  0  0  0  0  0  0  0
  -21.6684   -7.0060   21.1661 O   0  0  0  0  0  0  0  0  0  0  0  0
  -27.6796  -25.7355   19.7467 O   0  0  0  0  0  0  0  0  0  1  0  0
  -27.6142  -20.0495   22.0321 O   0  0  0  0  0  0  0  0  0  0  0  0
  -19.7107   -5.4632   26.0846 F   0  0  0  0  0  0  0  0  0  0  0  0
  -28.4179  -18.7958   24.3523 F   0  0  0  0  0  0  0  0  0  0  0  0
  -22.3935   -4.5843   22.2852 F   0  0  0  0  0  0  0  0  0  0  0  0
  1  2  1  0  0  0  0
  1  6  2  0  0  0  0
  2  7  2  0  0  0  0
  3  9  2  0  0  0  0
  3 18  1  0  0  0  0
  4 10  1  0  0  0  0
  4 18  2  0  0  0  0
  5 11  2  0  0  0  0
  5 19  1  0  0  0  0
  6 21  1  0  0  0  0
  7 23  1  0  0  0  0
  8 12  2  0  0  0  0
  8 22  1  0  0  0  0
  9 25  1  0  0  0  0
 10 25  2  0  0  0  0
 11 28  1  0  0  0  0
 12 26  1  0  0  0  0
 13 14  2  0  0  0  0
 13 27  1  0  0  0  0
 14 29  1  0  0  0  0
 15 19  2  0  0  0  0
 15 30  1  0  0  0  0
 16 24  1  0  0  0  0
 16 26  2  0  0  0  0
 17 29  2  0  0  0  0
 17 31  1  0  0  0  0
 18 32  1  0  0  0  0
 19 34  1  0  0  0  0
 20 32  1  0  0  0  0
 20 33  2  0  0  0  0
 20 35  1  0  0  0  0
 21 23  2  0  0  0  0
 21 40  1  0  0  0  0
 22 24  2  0  0  0  0
 22 41  1  0  0  0  0
 23 49  1  0  0  0  0
 24 42  1  0  0  0  0
 25 79  1  0  0  0  0
 26 80  1  0  0  0  0
 27 31  2  0  0  0  0
 27 79  1  0  0  0  0
 28 30  2  0  0  0  0
 28 81  1  0  0  0  0
 29 82  1  0  0  0  0
 30 83  1  0  0  0  0
 31 84  1  0  0  0  0
 32 64  2  0  0  0  0
 33 66  1  0  0  0  0
 33 69  1  0  0  0  0
 34 36  1  0  0  0  0
 34 65  2  0  0  0  0
 35 70  1  0  0  0  0
 35 74  2  0  0  0  0
 36 67  1  0  0  0  0
 36 75  2  0  0  0  0
 37 50  1  0  0  0  0
 37 71  1  0  0  0  0
 37 76  2  0  0  0  0
 38 61  1  0  0  0  0
 38 68  1  0  0  0  0
 38 77  2  0  0  0  0
 39 62  1  0  0  0  0
 39 72  1  0  0  0  0
 39 78  2  0  0  0  0
 40 43  1  0  0  0  0
 41 50  1  0  0  0  0
 42 68  1  0  0  0  0
 43 45  1  0  0  0  0
 44 46  1  0  0  0  0
 44 47  1  0  0  0  0
 45 49  1  0  0  0  0
 46 51  1  0  0  0  0
 47 67  1  0  0  0  0
 48 51  1  0  0  0  0
 48 67  1  0  0  0  0
 49 71  1  0  0  0  0
 50 68  1  0  0  0  0
 51 66  1  0  0  0  0
 52 62  1  0  0  0  0
 53 63  1  0  0  0  0
 54 63  1  0  0  0  0
 55 63  1  0  0  0  0
 56 73  1  0  0  0  0
 57 58  1  0  0  0  0
 57 59  1  0  0  0  0
 58 60  1  0  0  0  0
 59 80  1  0  0  0  0
 60 81  1  0  0  0  0
 61 63  1  0  0  0  0
 61 72  1  0  0  0  0
 62 73  1  0  0  0  0
 64 66  1  0  0  0  0
M  CHG  1  73   1
M  ISO  4  34 100  36 100  59 101  80 101
M  END
> <Batch ID>
0100

> <Smiles>
CNC(C)C(=O)NC(C(=O)N1Cc2cc([101O:1][101CH2:1]CCCOc3ccc([100C:0](=N)[100C:0](=O)N4CCCC(n5nc(-c6ccc(Oc7ccc(F)cc7F)cc6)c(C(N)=O)c5N)C4)cc3F)ccc2CC1C(=O)NC1CCCc2ccccc21)C(C)(C)C

> <Shape>
0.333

> <Color>
0.200

> <Negative vol penalty>
0.000

$$$$

  -OEChem-04052300573D

 87 96  0     1  0  0  0  0  0999 V2000
  -26.0771  -37.4194   21.3183 C   0  0  0  0  0  0  0  0  0  0  0  0
  -26.7543  -36.2545   20.9724 C   0  0  0  0  0  0  0  0  0  0  0  0
  -21.9873  -11.0183   22.7648 C   0  0  0  0  0  0  0  0  0  0  0  0
  -22.9686  -11.0600   20.5574 C   0  0  0  0  0  0  0  0  0  0  0  0
  -28.1611  -21.2371   18.2136 C   0  0  0  0  0  0  0  0  0  0  0  0
  -25.0792  -37.3815   22.2913 C   0  0  0  0  0  0  0  0  0  0  0  0
  -26.4348  -35.0510   21.6001 C   0  0  0  0  0  0  0  0  0  0  0  0
  -26.4969  -29.4626   19.0960 C   0  0  0  0  0  0  0  0  0  0  0  0
  -26.9549  -20.6071   18.5199 C   0  0  0  0  0  0  0  0  0  0  0  0
  -21.6090   -9.6897   22.5715 C   0  0  0  0  0  0  0  0  0  0  0  0
  -22.5904   -9.7314   20.3642 C   0  0  0  0  0  0  0  0  0  0  0  0
  -27.4358  -28.4323   19.1246 C   0  0  0  0  0  0  0  0  0  0  0  0
  -23.0721   -6.6431   22.6740 C   0  0  0  0  0  0  0  0  0  0  0  0
  -23.3057   -5.7446   23.7150 C   0  0  0  0  0  0  0  0  0  0  0  0
  -29.2287  -20.0861   20.0500 C   0  0  0  0  0  0  0  0  0  0  0  0
  -26.2411  -27.4026   20.9499 C   0  0  0  0  0  0  0  0  0  0  0  0
  -20.9389   -5.2758   23.8413 C   0  0  0  0  0  0  0  0  0  0  0  0
  -22.6671  -11.7035   21.7577 C   0  0  0  0  0  0  0  0  0  0  0  0
  -29.2980  -20.9766   18.9786 C   0  0  0  0  0  0  0  0  0  0  0  0
  -23.9081  -13.5814   22.9580 C   0  0  0  0  0  0  0  0  0  0  0  0
  -24.7407  -36.1752   22.9244 C   0  0  0  0  0  0  0  0  0  0  0  0
  -25.4274  -29.4764   20.0028 C   0  0  0  0  0  0  0  0  0  0  0  0
  -25.4324  -34.9972   22.5835 C   0  0  0  0  0  0  0  0  0  0  0  0
  -25.2886  -28.4328   20.9290 C   0  0  0  0  0  0  0  0  0  0  0  0
  -26.8856  -19.7166   19.5913 C   0  0  0  0  0  0  0  0  0  0  0  0
  -21.9106   -9.0463   21.3713 C   0  0  0  0  0  0  0  0  0  0  0  0
  -27.3096  -27.4036   20.0536 C   0  0  0  0  0  0  0  0  0  0  0  0
  -21.7720   -6.8580   22.2166 C   0  0  0  0  0  0  0  0  0  0  0  0
  -28.0225  -19.4561   20.3564 C   0  0  0  0  0  0  0  0  0  0  0  0
  -22.2391   -5.0609   24.2986 C   0  0  0  0  0  0  0  0  0  0  0  0
  -20.7054   -6.1743   22.8002 C   0  0  0  0  0  0  0  0  0  0  0  0
  -23.0576  -13.0761   21.9565 C   0  0  0  0  0  0  0  0  0  0  0  0
  -23.9592  -14.9324   22.7157 C   0  0  0  0  0  0  0  0  0  0  0  0
  -30.5705  -21.6409   18.6553 C   0  0  0  0  0  0  0  0  0  0  0  0
  -24.5911  -12.8913   24.0130 C   0  0  0  0  0  0  0  0  0  0  0  0
  -24.4684  -31.4406   22.3105 C   0  0  0  0  0  0  0  0  0  0  0  0
  -21.9112  -29.4473   22.4097 C   0  0  0  0  0  0  0  0  0  0  0  0
  -20.6266  -26.3492   21.7786 C   0  0  0  0  0  0  0  0  0  0  0  0
  -24.4402  -19.2390   19.2193 C   0  0  0  0  0  0  0  0  0  0  0  0
  -23.6876  -36.1925   24.0040 C   0  0  0  0  0  0  0  0  0  0  0  0
  -24.4082  -30.5809   19.9413 C   0  0  0  0  0  0  0  0  0  0  0  0
  -24.1472  -28.3905   21.9108 C   0  0  0  0  0  0  0  0  0  0  0  0
  -23.1511  -34.8069   24.3538 C   0  0  0  0  0  0  0  0  0  0  0  0
  -21.1949  -17.8304   19.6201 C   0  0  0  0  0  0  0  0  0  0  0  0
  -24.2993  -33.8174   24.5251 C   0  0  0  0  0  0  0  0  0  0  0  0
  -21.4601  -16.5095   20.3461 C   0  0  0  0  0  0  0  0  0  0  0  0
  -31.3789  -25.2273   18.3613 C   0  0  0  0  0  0  0  0  0  0  0  0
  -22.2920  -18.1507   18.6065 C   0  0  0  0  0  0  0  0  0  0  0  0
  -31.8154  -23.7711   18.4067 C   0  0  0  0  0  0  0  0  0  0  0  0
  -29.5142  -23.9236   19.0906 C   0  0  0  0  0  0  0  0  0  0  0  0
  -23.9242  -16.8042   19.8682 C   0  0  0  0  0  0  0  0  0  0  0  0
  -25.0974  -33.6678   23.2243 C   0  0  1  0  0  0  0  0  0  0  0  0
  -23.6462  -30.7643   21.2501 C   0  0  1  0  0  0  0  0  0  0  0  0
  -30.2036  -25.2637   19.3409 C   0  0  2  0  0  0  0  0  0  0  0  0
  -22.8795  -16.4712   20.9458 C   0  0  2  0  0  0  0  0  0  0  0  0
  -18.5171  -25.0084   22.0019 C   0  0  0  0  0  0  0  0  0  0  0  0
  -22.4308  -29.1325   25.3999 C   0  0  0  0  0  0  0  0  0  0  0  0
  -20.9507  -27.1133   25.3737 C   0  0  0  0  0  0  0  0  0  0  0  0
  -20.0183  -29.3489   24.7773 C   0  0  0  0  0  0  0  0  0  0  0  0
  -20.4374  -25.9431   18.8531 C   0  0  0  0  0  0  0  0  0  0  0  0
  -28.2591  -17.2190   21.1278 C   0  0  0  0  0  0  0  0  0  0  0  0
  -29.2892  -26.4580   19.1355 C   0  0  0  0  0  0  0  0  0  1  0  0
  -21.5708  -28.1816   23.1589 C   0  0  1  0  0  0  0  0  0  0  0  0
  -19.3425  -25.9107   21.0979 C   0  0  2  0  0  0  0  0  0  0  0  0
  -21.2654  -28.4456   24.6603 C   0  0  0  0  0  0  0  0  0  0  0  0
  -22.6010  -14.0285   21.1389 N   0  0  0  0  0  0  0  0  0  0  0  0
  -23.1667  -15.1459   21.6264 N   0  0  0  0  0  0  0  0  0  0  0  0
  -30.5995  -23.0263   18.6981 N   0  0  0  0  0  0  0  0  0  0  0  0
  -23.1801  -29.4964   21.8153 N   0  0  0  0  0  0  0  0  0  0  0  0
  -23.6081  -18.0999   19.2468 N   0  0  0  0  0  0  0  0  0  0  0  0
  -24.6041  -15.9467   23.3303 N   0  0  0  0  0  0  0  0  0  0  0  0
  -24.4290  -11.5032   24.1179 N   0  0  0  0  0  0  0  0  0  0  0  0
  -25.6535  -19.0831   19.8887 N   0  0  0  0  0  0  0  0  0  0  0  0
  -24.3876  -32.8200   22.2906 N   0  0  0  0  0  0  0  0  0  0  0  0
  -20.4744  -27.5565   22.4270 N   0  0  0  0  0  0  0  0  0  0  0  0
  -19.6492  -25.1660   19.8440 N   0  3  0  0  0  0  0  0  0  0  0  0
  -31.5285  -20.9219   18.3781 O   0  0  0  0  0  0  0  0  0  0  0  0
  -25.3103  -13.4903   24.8482 O   0  0  0  0  0  0  0  0  0  0  0  0
  -25.1261  -30.7613   23.0900 O   0  0  0  0  0  0  0  0  0  0  0  0
  -21.0792  -30.3559   22.3481 O   0  0  0  0  0  0  0  0  0  0  0  0
  -21.6602  -25.6851   21.7421 O   0  0  0  0  0  0  0  0  0  0  0  0
  -24.0898  -20.2854   18.6677 O   0  0  0  0  0  0  0  0  0  0  0  0
  -21.5418   -7.7498   21.1824 O   0  0  0  0  0  0  0  0  0  0  0  0
  -27.9769  -18.5886   21.4066 O   0  0  0  0  0  0  0  0  0  0  0  0
  -28.2249  -26.3970   20.0841 O   0  0  0  0  0  0  0  0  0  1  0  0
  -22.4637   -4.1970   25.2973 F   0  0  0  0  0  0  0  0  0  0  0  0
  -19.4543   -6.3757   22.3643 F   0  0  0  0  0  0  0  0  0  0  0  0
  1  2  1  0  0  0  0
  1  6  2  0  0  0  0
  2  7  2  0  0  0  0
  3 10  2  0  0  0  0
  3 18  1  0  0  0  0
  4 11  1  0  0  0  0
  4 18  2  0  0  0  0
  5  9  2  0  0  0  0
  5 19  1  0  0  0  0
  6 21  1  0  0  0  0
  7 23  1  0  0  0  0
  8 12  2  0  0  0  0
  8 22  1  0  0  0  0
  9 25  1  0  0  0  0
 10 26  1  0  0  0  0
 11 26  2  0  0  0  0
 12 27  1  0  0  0  0
 13 14  2  0  0  0  0
 13 28  1  0  0  0  0
 14 30  1  0  0  0  0
 15 19  2  0  0  0  0
 15 29  1  0  0  0  0
 16 24  1  0  0  0  0
 16 27  2  0  0  0  0
 17 30  2  0  0  0  0
 17 31  1  0  0  0  0
 18 32  1  0  0  0  0
 19 34  1  0  0  0  0
 20 32  1  0  0  0  0
 20 33  2  0  0  0  0
 20 35  1  0  0  0  0
 21 23  2  0  0  0  0
 21 40  1  0  0  0  0
 22 24  2  0  0  0  0
 22 41  1  0  0  0  0
 23 52  1  0  0  0  0
 24 42  1  0  0  0  0
 25 29  2  0  0  0  0
 25 73  1  0  0  0  0
 26 83  1  0  0  0  0
 27 85  1  0  0  0  0
 28 31  2  0  0  0  0
 28 83  1  0  0  0  0
 29 84  1  0  0  0  0
 30 86  1  0  0  0  0
 31 87  1  0  0  0  0
 32 66  2  0  0  0  0
 33 67  1  0  0  0  0
 33 71  1  0  0  0  0
 34 68  1  0  0  0  0
 34 77  2  0  0  0  0
 35 72  1  0  0  0  0
 35 78  2  0  0  0  0
 36 53  1  0  0  0  0
 36 74  1  0  0  0  0
 36 79  2  0  0  0  0
 37 63  1  0  0  0  0
 37 69  1  0  0  0  0
 37 80  2  0  0  0  0
 38 64  1  0  0  0  0
 38 75  1  0  0  0  0
 38 81  2  0  0  0  0
 39 70  1  0  0  0  0
 39 73  1  0  0  0  0
 39 82  2  0  0  0  0
 40 43  1  0  0  0  0
 41 53  1  0  0  0  0
 42 69  1  0  0  0  0
 43 45  1  0  0  0  0
 44 46  1  0  0  0  0
 44 48  1  0  0  0  0
 45 52  1  0  0  0  0
 46 55  1  0  0  0  0
 47 49  1  0  0  0  0
 47 54  1  0  0  0  0
 48 70  1  0  0  0  0
 49 68  1  0  0  0  0
 50 54  1  0  0  0  0
 50 68  1  0  0  0  0
 51 55  1  0  0  0  0
 51 70  1  0  0  0  0
 52 74  1  0  0  0  0
 53 69  1  0  0  0  0
 54 62  1  0  0  0  0
 55 67  1  0  0  0  0
 56 64  1  0  0  0  0
 57 65  1  0  0  0  0
 58 65  1  0  0  0  0
 59 65  1  0  0  0  0
 60 76  1  0  0  0  0
 61 84  1  0  0  0  0
 62 85  1  0  0  0  0
 63 65  1  0  0  0  0
 63 75  1  0  0  0  0
 64 76  1  0  0  0  0
 66 67  1  0  0  0  0
M  CHG  1  76   1
M  ISO  4  39 100  62 101  73 100  85 101
M  END
> <Batch ID>
0100

> <Smiles>
CNC(C)C(=O)NC(C(=O)N1Cc2cc([101O:1][101CH2:1]C3CCN(C(=O)c4ccc([100NH:0][100C:0](=O)N5CCCC(n6nc(-c7ccc(Oc8ccc(F)cc8F)cc7)c(C(N)=O)c6N)C5)c(OC)c4)C3)ccc2CC1C(=O)NC1CCCc2ccccc21)C(C)(C)C

> <Shape>
0.300

> <Color>
0.074

> <Negative vol penalty>
0.000

$$$$

  -OEChem-04052300573D

 83 91  0     1  0  0  0  0  0999 V2000
  -19.3614  -31.5422   21.8488 C   0  0  0  0  0  0  0  0  0  0  0  0
  -20.7070  -31.2275   22.0091 C   0  0  0  0  0  0  0  0  0  0  0  0
  -26.3251  -13.8652   21.7572 C   0  0  0  0  0  0  0  0  0  0  0  0
  -25.2448  -15.2161   20.0705 C   0  0  0  0  0  0  0  0  0  0  0  0
  -18.3934  -30.5476   21.9821 C   0  0  0  0  0  0  0  0  0  0  0  0
  -21.0853  -29.9182   22.3041 C   0  0  0  0  0  0  0  0  0  0  0  0
  -25.0323  -28.3664   19.5367 C   0  0  0  0  0  0  0  0  0  0  0  0
  -25.1895  -13.0595   21.8392 C   0  0  0  0  0  0  0  0  0  0  0  0
  -24.1091  -14.4104   20.1525 C   0  0  0  0  0  0  0  0  0  0  0  0
  -26.2956  -28.8110   19.9240 C   0  0  0  0  0  0  0  0  0  0  0  0
  -22.7101  -10.4302   22.2327 C   0  0  0  0  0  0  0  0  0  0  0  0
  -22.8961   -9.0481   22.2589 C   0  0  0  0  0  0  0  0  0  0  0  0
  -26.6997  -26.6963   21.0120 C   0  0  0  0  0  0  0  0  0  0  0  0
  -29.9471  -23.5187   17.6073 C   0  0  0  0  0  0  0  0  0  0  0  0
  -31.0814  -25.1877   18.9357 C   0  0  0  0  0  0  0  0  0  0  0  0
  -29.4793  -25.8631   17.2581 C   0  0  0  0  0  0  0  0  0  0  0  0
  -23.9780   -9.1527   20.1013 C   0  0  0  0  0  0  0  0  0  0  0  0
  -26.3527  -14.9436   20.8728 C   0  0  0  0  0  0  0  0  0  0  0  0
  -28.6332  -15.6009   19.9374 C   0  0  0  0  0  0  0  0  0  0  0  0
  -18.7608  -29.2235   22.2693 C   0  0  0  0  0  0  0  0  0  0  0  0
  -24.5882  -27.0852   19.8940 C   0  0  0  0  0  0  0  0  0  0  0  0
  -20.1213  -28.9053   22.4427 C   0  0  0  0  0  0  0  0  0  0  0  0
  -25.4313  -26.2368   20.6258 C   0  0  0  0  0  0  0  0  0  0  0  0
  -30.8593  -23.8499   18.6092 C   0  0  0  0  0  0  0  0  0  0  0  0
  -29.2572  -24.5253   16.9317 C   0  0  0  0  0  0  0  0  0  0  0  0
  -24.0815  -13.3320   21.0369 C   0  0  0  0  0  0  0  0  0  0  0  0
  -27.1284  -27.9771   20.6642 C   0  0  0  0  0  0  0  0  0  0  0  0
  -23.1580  -11.1736   21.1407 C   0  0  0  0  0  0  0  0  0  0  0  0
  -30.3914  -26.1943   18.2601 C   0  0  0  0  0  0  0  0  0  0  0  0
  -23.5301   -8.4093   21.1933 C   0  0  0  0  0  0  0  0  0  0  0  0
  -23.7920  -10.5349   20.0750 C   0  0  0  0  0  0  0  0  0  0  0  0
  -27.5253  -15.7766   20.7880 C   0  0  0  0  0  0  0  0  0  0  0  0
  -29.4683  -16.6485   20.2404 C   0  0  0  0  0  0  0  0  0  0  0  0
  -28.8850  -14.5820   18.9607 C   0  0  0  0  0  0  0  0  0  0  0  0
  -22.1893  -25.9495   21.6432 C   0  0  0  0  0  0  0  0  0  0  0  0
  -23.2593  -23.0897   20.5482 C   0  0  0  0  0  0  0  0  0  0  0  0
  -25.8478  -21.2510   19.2967 C   0  0  0  0  0  0  0  0  0  0  0  0
  -30.2906  -22.0620   21.3188 C   0  0  0  0  0  0  0  0  0  0  0  0
  -17.6754  -28.1922   22.4509 C   0  0  0  0  0  0  0  0  0  0  0  0
  -23.2331  -26.6106   19.4456 C   0  0  0  0  0  0  0  0  0  0  0  0
  -25.0098  -24.8449   21.0175 C   0  0  0  0  0  0  0  0  0  0  0  0
  -18.1856  -26.7546   22.3941 C   0  0  0  0  0  0  0  0  0  0  0  0
  -29.3216  -19.9826   24.0416 C   0  0  0  0  0  0  0  0  0  0  0  0
  -19.4373  -26.5981   23.2518 C   0  0  0  0  0  0  0  0  0  0  0  0
  -28.8537  -18.6916   23.3674 C   0  0  0  0  0  0  0  0  0  0  0  0
  -28.9484  -21.2151   23.2208 C   0  0  0  0  0  0  0  0  0  0  0  0
  -28.9286  -19.8917   21.1419 C   0  0  0  0  0  0  0  0  0  0  0  0
  -20.5730  -27.4916   22.7387 C   0  0  1  0  0  0  0  0  0  0  0  0
  -22.6826  -25.4767   20.3050 C   0  0  1  0  0  0  0  0  0  0  0  0
  -29.3313  -18.6179   21.9047 C   0  0  2  0  0  0  0  0  0  0  0  0
  -27.0339  -19.2758   18.3024 C   0  0  0  0  0  0  0  0  0  0  0  0
  -23.4021  -22.1716   23.4545 C   0  0  0  0  0  0  0  0  0  0  0  0
  -24.8469  -20.2677   22.7092 C   0  0  0  0  0  0  0  0  0  0  0  0
  -22.5083  -20.4619   21.8631 C   0  0  0  0  0  0  0  0  0  0  0  0
  -25.1926  -22.0995   16.5381 C   0  0  0  0  0  0  0  0  0  0  0  0
  -31.5966  -22.7739   19.3321 C   0  0  0  0  0  0  0  0  0  0  0  0
  -30.5213  -29.1894   20.3032 C   0  0  0  0  0  0  0  0  0  0  0  0
  -29.0132  -29.3474   20.1891 C   0  0  0  0  0  0  0  0  0  1  0  0
  -30.9768  -27.7888   19.9247 C   0  0  0  0  0  0  0  0  0  0  0  0
  -24.2677  -22.0721   21.0241 C   0  0  1  0  0  0  0  0  0  0  0  0
  -25.9316  -20.3060   18.1117 C   0  0  2  0  0  0  0  0  0  0  0  0
  -23.7637  -21.2702   22.2572 C   0  0  0  0  0  0  0  0  0  0  0  0
  -27.6429  -16.8511   21.5726 N   0  0  0  0  0  0  0  0  0  0  0  0
  -28.8346  -17.3600   21.2163 N   0  0  0  0  0  0  0  0  0  0  0  0
  -23.6733  -24.4292   20.5608 N   0  0  0  0  0  0  0  0  0  0  0  0
  -29.4317  -21.0826   21.8443 N   0  0  0  0  0  0  0  0  0  0  0  0
  -28.3347  -24.1901   15.9189 N   0  0  0  0  0  0  0  0  0  0  0  0
  -30.6754  -17.0211   19.7647 N   0  0  0  0  0  0  0  0  0  0  0  0
  -27.9219  -13.5805   18.7765 N   0  0  0  0  0  0  0  0  0  0  0  0
  -21.1912  -26.9023   21.5704 N   0  0  0  0  0  0  0  0  0  0  0  0
  -24.5919  -21.2461   19.8660 N   0  0  0  0  0  0  0  0  0  0  0  0
  -30.7068  -21.8569   20.0091 N   0  0  0  0  0  0  0  0  0  0  0  0
  -26.2107  -21.0669   16.8611 N   0  3  0  0  0  0  0  0  0  0  0  0
  -29.9403  -14.5509   18.2833 O   0  0  0  0  0  0  0  0  0  0  0  0
  -22.6771  -25.4832   22.6661 O   0  0  0  0  0  0  0  0  0  0  0  0
  -22.1477  -22.7094   20.1720 O   0  0  0  0  0  0  0  0  0  0  0  0
  -26.8020  -21.9234   19.6814 O   0  0  0  0  0  0  0  0  0  0  0  0
  -30.6634  -23.0435   21.9704 O   0  0  0  0  0  0  0  0  0  0  0  0
  -22.9733  -12.5458   21.1165 O   0  0  0  0  0  0  0  0  0  0  0  0
  -28.3618  -28.4088   21.0441 O   0  0  0  0  0  0  0  0  0  1  0  0
  -30.6098  -27.5090   18.5805 O   0  0  0  0  0  0  0  0  0  0  0  0
  -23.7100   -7.0823   21.2193 F   0  0  0  0  0  0  0  0  0  0  0  0
  -24.2255  -11.2439   19.0237 F   0  0  0  0  0  0  0  0  0  0  0  0
  1  2  1  0  0  0  0
  1  5  2  0  0  0  0
  2  6  2  0  0  0  0
  3  8  2  0  0  0  0
  3 18  1  0  0  0  0
  4  9  1  0  0  0  0
  4 18  2  0  0  0  0
  5 20  1  0  0  0  0
  6 22  1  0  0  0  0
  7 10  2  0  0  0  0
  7 21  1  0  0  0  0
  8 26  1  0  0  0  0
  9 26  2  0  0  0  0
 10 27  1  0  0  0  0
 11 12  2  0  0  0  0
 11 28  1  0  0  0  0
 12 30  1  0  0  0  0
 13 23  1  0  0  0  0
 13 27  2  0  0  0  0
 14 24  2  0  0  0  0
 14 25  1  0  0  0  0
 15 24  1  0  0  0  0
 15 29  2  0  0  0  0
 16 25  2  0  0  0  0
 16 29  1  0  0  0  0
 17 30  2  0  0  0  0
 17 31  1  0  0  0  0
 18 32  1  0  0  0  0
 19 32  1  0  0  0  0
 19 33  2  0  0  0  0
 19 34  1  0  0  0  0
 20 22  2  0  0  0  0
 20 39  1  0  0  0  0
 21 23  2  0  0  0  0
 21 40  1  0  0  0  0
 22 48  1  0  0  0  0
 23 41  1  0  0  0  0
 24 56  1  0  0  0  0
 25 67  1  0  0  0  0
 26 79  1  0  0  0  0
 27 80  1  0  0  0  0
 28 31  2  0  0  0  0
 28 79  1  0  0  0  0
 29 81  1  0  0  0  0
 30 82  1  0  0  0  0
 31 83  1  0  0  0  0
 32 63  2  0  0  0  0
 33 64  1  0  0  0  0
 33 68  1  0  0  0  0
 34 69  1  0  0  0  0
 34 74  2  0  0  0  0
 35 49  1  0  0  0  0
 35 70  1  0  0  0  0
 35 75  2  0  0  0  0
 36 60  1  0  0  0  0
 36 65  1  0  0  0  0
 36 76  2  0  0  0  0
 37 61  1  0  0  0  0
 37 71  1  0  0  0  0
 37 77  2  0  0  0  0
 38 66  1  0  0  0  0
 38 72  1  0  0  0  0
 38 78  2  0  0  0  0
 39 42  1  0  0  0  0
 40 49  1  0  0  0  0
 41 65  1  0  0  0  0
 42 44  1  0  0  0  0
 43 45  1  0  0  0  0
 43 46  1  0  0  0  0
 44 48  1  0  0  0  0
 45 50  1  0  0  0  0
 46 66  1  0  0  0  0
 47 50  1  0  0  0  0
 47 66  1  0  0  0  0
 48 70  1  0  0  0  0
 49 65  1  0  0  0  0
 50 64  1  0  0  0  0
 51 61  1  0  0  0  0
 52 62  1  0  0  0  0
 53 62  1  0  0  0  0
 54 62  1  0  0  0  0
 55 73  1  0  0  0  0
 56 72  1  0  0  0  0
 57 58  1  0  0  0  0
 57 59  1  0  0  0  0
 58 80  1  0  0  0  0
 59 81  1  0  0  0  0
 60 62  1  0  0  0  0
 60 71  1  0  0  0  0
 61 73  1  0  0  0  0
 63 64  1  0  0  0  0
M  CHG  1  73   1
M  ISO  4  38 100  58 101  72 100  80 101
M  END
> <Batch ID>
0100

> <Smiles>
CNC(C)C(=O)NC(C(=O)N1Cc2cc([101O:1][101CH2:1]CCOc3cc(N)cc(C[100NH:0][100C:0](=O)N4CCCC(n5nc(-c6ccc(Oc7ccc(F)cc7F)cc6)c(C(N)=O)c5N)C4)c3)ccc2CC1C(=O)NC1CCCc2ccccc21)C(C)(C)C

> <Shape>
0.261

> <Color>
0.053

> <Negative vol penalty>
0.000

$$$$

  -OEChem-04052300573D

 88 97  0     1  0  0  0  0  0999 V2000
  -19.0003  -33.6721   24.5853 C   0  0  0  0  0  0  0  0  0  0  0  0
  -20.3268  -33.6825   24.1662 C   0  0  0  0  0  0  0  0  0  0  0  0
  -24.5349   -8.8361   21.1429 C   0  0  0  0  0  0  0  0  0  0  0  0
  -22.7470  -10.4594   21.0712 C   0  0  0  0  0  0  0  0  0  0  0  0
  -18.3550  -32.4593   24.8233 C   0  0  0  0  0  0  0  0  0  0  0  0
  -21.0092  -32.4799   23.9859 C   0  0  0  0  0  0  0  0  0  0  0  0
  -26.0884  -29.5005   19.9065 C   0  0  0  0  0  0  0  0  0  0  0  0
  -29.0346  -21.1628   16.5792 C   0  0  0  0  0  0  0  0  0  0  0  0
  -28.5058  -19.8826   16.4143 C   0  0  0  0  0  0  0  0  0  0  0  0
  -23.6033   -7.8190   21.3507 C   0  0  0  0  0  0  0  0  0  0  0  0
  -21.8152   -9.4423   21.2789 C   0  0  0  0  0  0  0  0  0  0  0  0
  -27.2860  -28.7958   20.0208 C   0  0  0  0  0  0  0  0  0  0  0  0
  -21.7851   -6.5948   23.9236 C   0  0  0  0  0  0  0  0  0  0  0  0
  -22.0673   -5.6500   24.9102 C   0  0  0  0  0  0  0  0  0  0  0  0
  -26.0457  -26.7592   20.3858 C   0  0  0  0  0  0  0  0  0  0  0  0
  -27.1790  -20.1734   18.4124 C   0  0  0  0  0  0  0  0  0  0  0  0
  -22.0062   -3.8969   23.2488 C   0  0  0  0  0  0  0  0  0  0  0  0
  -24.1068  -10.1563   21.0032 C   0  0  0  0  0  0  0  0  0  0  0  0
  -26.1276  -11.5770   21.6401 C   0  0  0  0  0  0  0  0  0  0  0  0
  -19.0270  -31.2410   24.6365 C   0  0  0  0  0  0  0  0  0  0  0  0
  -24.8585  -28.8406   20.0420 C   0  0  0  0  0  0  0  0  0  0  0  0
  -20.3728  -31.2496   24.2229 C   0  0  0  0  0  0  0  0  0  0  0  0
  -24.8339  -27.4574   20.2702 C   0  0  0  0  0  0  0  0  0  0  0  0
  -28.6357  -21.9482   17.6607 C   0  0  0  0  0  0  0  0  0  0  0  0
  -27.5780  -19.3880   17.3309 C   0  0  0  0  0  0  0  0  0  0  0  0
  -22.2434   -8.1221   21.4187 C   0  0  0  0  0  0  0  0  0  0  0  0
  -27.2647  -27.4255   20.2634 C   0  0  0  0  0  0  0  0  0  0  0  0
  -21.6133   -6.1906   22.5996 C   0  0  0  0  0  0  0  0  0  0  0  0
  -22.1779   -4.3011   24.5728 C   0  0  0  0  0  0  0  0  0  0  0  0
  -27.7079  -21.4536   18.5773 C   0  0  0  0  0  0  0  0  0  0  0  0
  -21.7239   -4.8417   22.2623 C   0  0  0  0  0  0  0  0  0  0  0  0
  -25.0688  -11.2074   20.7891 C   0  0  0  0  0  0  0  0  0  0  0  0
  -26.7421  -12.6197   20.9907 C   0  0  0  0  0  0  0  0  0  0  0  0
  -30.1517  -25.8560   18.2484 C   0  0  0  0  0  0  0  0  0  0  0  0
  -26.5205  -11.0270   22.9045 C   0  0  0  0  0  0  0  0  0  0  0  0
  -22.4069  -29.0565   22.0536 C   0  0  0  0  0  0  0  0  0  0  0  0
  -21.0555  -26.9187   20.0224 C   0  0  0  0  0  0  0  0  0  0  0  0
  -22.1029  -23.9747   18.2187 C   0  0  0  0  0  0  0  0  0  0  0  0
  -26.6285  -17.2883   18.2695 C   0  0  0  0  0  0  0  0  0  0  0  0
  -18.3022  -29.9565   24.9518 C   0  0  0  0  0  0  0  0  0  0  0  0
  -23.5754  -29.6104   19.8894 C   0  0  0  0  0  0  0  0  0  0  0  0
  -23.5398  -26.6985   20.4035 C   0  0  0  0  0  0  0  0  0  0  0  0
  -29.4970  -25.5012   16.9337 C   0  0  0  0  0  0  0  0  0  0  0  0
  -18.9818  -28.7166   24.3764 C   0  0  0  0  0  0  0  0  0  0  0  0
  -26.1802  -14.3706   16.2872 C   0  0  0  0  0  0  0  0  0  0  0  0
  -20.4807  -28.7505   24.6572 C   0  0  0  0  0  0  0  0  0  0  0  0
  -25.9252  -13.3117   17.3592 C   0  0  0  0  0  0  0  0  0  0  0  0
  -29.5784  -24.0063   16.6500 C   0  0  0  0  0  0  0  0  0  0  0  0
  -25.5057  -15.7007   16.6245 C   0  0  0  0  0  0  0  0  0  0  0  0
  -29.8989  -23.5106   19.0685 C   0  0  0  0  0  0  0  0  0  0  0  0
  -25.5937  -15.1660   19.0392 C   0  0  0  0  0  0  0  0  0  0  0  0
  -21.1392  -29.9653   23.9922 C   0  0  1  0  0  0  0  0  0  0  0  0
  -29.7997  -24.9908   19.4445 C   0  0  2  0  0  0  0  0  0  0  0  0
  -22.3857  -28.9272   20.5568 C   0  0  1  0  0  0  0  0  0  0  0  0
  -26.3076  -13.8354   18.7548 C   0  0  1  0  0  0  0  0  0  0  0  0
  -25.3353  -18.1918   15.3708 C   0  0  0  0  0  0  0  0  0  0  0  0
  -21.2386  -22.9748   16.0854 C   0  0  0  0  0  0  0  0  0  0  0  0
  -19.3269  -25.2073   21.8645 C   0  0  0  0  0  0  0  0  0  0  0  0
  -19.7010  -23.2804   20.3104 C   0  0  0  0  0  0  0  0  0  0  0  0
  -18.5281  -25.3264   19.4976 C   0  0  0  0  0  0  0  0  0  0  0  0
  -24.7856  -24.0293   16.9702 C   0  0  0  0  0  0  0  0  0  0  0  0
  -28.4189  -25.3665   19.9732 C   0  0  0  0  0  0  0  0  0  1  0  0
  -26.6703  -17.6234   15.8075 C   0  0  0  0  0  0  0  0  0  0  0  0
  -21.0185  -25.4126   19.9248 C   0  0  1  0  0  0  0  0  0  0  0  0
  -22.3068  -23.8522   16.7194 C   0  0  2  0  0  0  0  0  0  0  0  0
  -19.6657  -24.8203   20.4111 C   0  0  0  0  0  0  0  0  0  0  0  0
  -25.0109  -11.9546   19.6835 N   0  0  0  0  0  0  0  0  0  0  0  0
  -26.0411  -12.8042   19.8354 N   0  0  0  0  0  0  0  0  0  0  0  0
  -29.1688  -23.2305   17.8242 N   0  0  2  0  0  0  0  0  0  0  0  0
  -22.3119  -27.4967   20.2528 N   0  0  0  0  0  0  0  0  0  0  0  0
  -25.8680  -16.1397   17.9796 N   0  0  0  0  0  0  0  0  0  0  0  0
  -27.8082  -13.3875   21.3009 N   0  0  0  0  0  0  0  0  0  0  0  0
  -25.9618  -11.5672   24.0708 N   0  0  0  0  0  0  0  0  0  0  0  0
  -21.3192  -29.7303   22.5755 N   0  0  0  0  0  0  0  0  0  0  0  0
  -21.3520  -25.0849   18.5429 N   0  0  0  0  0  0  0  0  0  0  0  0
  -27.0305  -18.0627   17.1600 N   0  0  0  0  0  0  0  0  0  0  0  0
  -23.6405  -23.2557   16.4251 N   0  3  0  0  0  0  0  0  0  0  0  0
  -30.8575  -26.8576   18.3644 O   0  0  0  0  0  0  0  0  0  0  0  0
  -27.3552  -10.0953   22.9982 O   0  0  0  0  0  0  0  0  0  0  0  0
  -23.3401  -28.5790   22.6882 O   0  0  0  0  0  0  0  0  0  0  0  0
  -20.0093  -27.5590   19.8918 O   0  0  0  0  0  0  0  0  0  0  0  0
  -22.5604  -23.1645   19.0216 O   0  0  0  0  0  0  0  0  0  0  0  0
  -26.9046  -17.6115   19.4310 O   0  0  0  0  0  0  0  0  0  0  0  0
  -21.3340   -7.1299   21.6212 O   0  0  0  0  0  0  0  0  0  0  0  0
  -28.4322  -26.7353   20.3761 O   0  0  0  0  0  0  0  0  0  1  0  0
  -22.4504   -3.3941   25.5201 F   0  0  0  0  0  0  0  0  0  0  0  0
  -27.3188  -22.1997   19.6209 F   0  0  0  0  0  0  0  0  0  0  0  0
  -21.5612   -4.4476   20.9918 F   0  0  0  0  0  0  0  0  0  0  0  0
  1  2  1  0  0  0  0
  1  5  2  0  0  0  0
  2  6  2  0  0  0  0
  3 10  2  0  0  0  0
  3 18  1  0  0  0  0
  4 11  1  0  0  0  0
  4 18  2  0  0  0  0
  5 20  1  0  0  0  0
  6 22  1  0  0  0  0
  7 12  2  0  0  0  0
  7 21  1  0  0  0  0
  8  9  2  0  0  0  0
  8 24  1  0  0  0  0
  9 25  1  0  0  0  0
 10 26  1  0  0  0  0
 11 26  2  0  0  0  0
 12 27  1  0  0  0  0
 13 14  2  0  0  0  0
 13 28  1  0  0  0  0
 14 29  1  0  0  0  0
 15 23  1  0  0  0  0
 15 27  2  0  0  0  0
 16 25  2  0  0  0  0
 16 30  1  0  0  0  0
 17 29  2  0  0  0  0
 17 31  1  0  0  0  0
 18 32  1  0  0  0  0
 19 32  1  0  0  0  0
 19 33  2  0  0  0  0
 19 35  1  0  0  0  0
 20 22  2  0  0  0  0
 20 40  1  0  0  0  0
 21 23  2  0  0  0  0
 21 41  1  0  0  0  0
 22 52  1  0  0  0  0
 23 42  1  0  0  0  0
 24 30  2  0  0  0  0
 24 69  1  0  0  0  0
 25 76  1  0  0  0  0
 26 84  1  0  0  0  0
 27 85  1  0  0  0  0
 28 31  2  0  0  0  0
 28 84  1  0  0  0  0
 29 86  1  0  0  0  0
 30 87  1  0  0  0  0
 31 88  1  0  0  0  0
 32 67  2  0  0  0  0
 33 68  1  0  0  0  0
 33 72  1  0  0  0  0
 34 43  1  0  0  0  0
 34 53  1  0  0  0  0
 34 78  2  0  0  0  0
 35 73  1  0  0  0  0
 35 79  2  0  0  0  0
 36 54  1  0  0  0  0
 36 74  1  0  0  0  0
 36 80  2  0  0  0  0
 37 64  1  0  0  0  0
 37 70  1  0  0  0  0
 37 81  2  0  0  0  0
 38 65  1  0  0  0  0
 38 75  1  0  0  0  0
 38 82  2  0  0  0  0
 39 71  1  0  0  0  0
 39 76  1  0  0  0  0
 39 83  2  0  0  0  0
 40 44  1  0  0  0  0
 41 54  1  0  0  0  0
 42 70  1  0  0  0  0
 43 48  1  0  0  0  0
 44 46  1  0  0  0  0
 45 47  1  0  0  0  0
 45 49  1  0  0  0  0
 46 52  1  0  0  0  0
 47 55  1  0  0  0  0
 48 69  1  0  0  0  0
 49 71  1  0  0  0  0
 50 53  1  0  0  0  0
 50 69  1  0  0  0  0
 51 55  1  0  0  0  0
 51 71  1  0  0  0  0
 52 74  1  0  0  0  0
 53 62  1  0  0  0  0
 54 70  1  0  0  0  0
 55 68  1  0  0  0  0
 56 63  1  0  0  0  0
 57 65  1  0  0  0  0
 58 66  1  0  0  0  0
 59 66  1  0  0  0  0
 60 66  1  0  0  0  0
 61 77  1  0  0  0  0
 62 85  1  0  0  0  0
 63 76  1  0  0  0  0
 64 66  1  0  0  0  0
 64 75  1  0  0  0  0
 65 77  1  0  0  0  0
 67 68  1  0  0  0  0
M  CHG  1  77   1
M  ISO  4  39 100  62 101  76 100  85 101
M  END
> <Batch ID>
0100

> <Smiles>
CC[100N:0](c1ccc(N2CCC(=O)C([101CH2:1][101O:1]c3ccc4c(c3)CN(C(=O)C(NC(=O)C(C)NC)C(C)(C)C)C(C(=O)NC3CCCc5ccccc53)C4)C2)c(F)c1)[100C:0](=O)N1CCCC(n2nc(-c3ccc(Oc4ccc(F)cc4F)cc3)c(C(N)=O)c2N)C1

> <Shape>
0.260

> <Color>
0.141

> <Negative vol penalty>
0.000

$$$$

  -OEChem-04052300573D

 84 92  0     1  0  0  0  0  0999 V2000
  -20.8330  -29.8018   14.8078 C   0  0  0  0  0  0  0  0  0  0  0  0
  -22.1151  -29.5020   15.2572 C   0  0  0  0  0  0  0  0  0  0  0  0
  -22.1006   -9.5432   20.0252 C   0  0  0  0  0  0  0  0  0  0  0  0
  -22.8018   -9.7370   22.3291 C   0  0  0  0  0  0  0  0  0  0  0  0
  -20.1530  -30.9023   15.3277 C   0  0  0  0  0  0  0  0  0  0  0  0
  -22.7182  -30.3032   16.2260 C   0  0  0  0  0  0  0  0  0  0  0  0
  -24.9916  -27.5920   19.8490 C   0  0  0  0  0  0  0  0  0  0  0  0
  -28.3719  -19.7181   21.9631 C   0  0  0  0  0  0  0  0  0  0  0  0
  -30.1370  -19.4766   20.3313 C   0  0  0  0  0  0  0  0  0  0  0  0
  -28.4091  -21.1027   21.7985 C   0  0  0  0  0  0  0  0  0  0  0  0
  -30.1743  -20.8612   20.1666 C   0  0  0  0  0  0  0  0  0  0  0  0
  -22.2274   -8.1563   20.1033 C   0  0  0  0  0  0  0  0  0  0  0  0
  -22.9285   -8.3501   22.4072 C   0  0  0  0  0  0  0  0  0  0  0  0
  -26.2340  -27.0375   19.5444 C   0  0  0  0  0  0  0  0  0  0  0  0
  -20.8896   -5.6817   22.7849 C   0  0  0  0  0  0  0  0  0  0  0  0
  -20.3686   -5.0474   23.9126 C   0  0  0  0  0  0  0  0  0  0  0  0
  -27.3206  -28.8386   20.7254 C   0  0  0  0  0  0  0  0  0  0  0  0
  -22.5662   -4.2007   24.4517 C   0  0  0  0  0  0  0  0  0  0  0  0
  -22.3879  -10.3336   21.1381 C   0  0  0  0  0  0  0  0  0  0  0  0
  -21.1119  -12.5331   21.3423 C   0  0  0  0  0  0  0  0  0  0  0  0
  -20.7443  -31.7118   16.3104 C   0  0  0  0  0  0  0  0  0  0  0  0
  -24.9046  -28.7818   20.5860 C   0  0  0  0  0  0  0  0  0  0  0  0
  -22.0459  -31.4164   16.7586 C   0  0  0  0  0  0  0  0  0  0  0  0
  -26.0758  -29.4048   21.0402 C   0  0  0  0  0  0  0  0  0  0  0  0
  -29.2359  -18.9050   21.2295 C   0  0  0  0  0  0  0  0  0  0  0  0
  -29.3103  -21.6743   20.9002 C   0  0  0  0  0  0  0  0  0  0  0  0
  -22.6413   -7.5598   21.2943 C   0  0  0  0  0  0  0  0  0  0  0  0
  -27.3988  -27.6624   19.9801 C   0  0  0  0  0  0  0  0  0  0  0  0
  -22.2489   -5.5755   22.4905 C   0  0  0  0  0  0  0  0  0  0  0  0
  -21.2069   -4.3069   24.7460 C   0  0  0  0  0  0  0  0  0  0  0  0
  -23.0872   -4.8350   23.3239 C   0  0  0  0  0  0  0  0  0  0  0  0
  -22.2578  -11.7663   21.0578 C   0  0  0  0  0  0  0  0  0  0  0  0
  -21.5018  -13.8303   21.1153 C   0  0  0  0  0  0  0  0  0  0  0  0
  -19.8114  -12.1104   21.7732 C   0  0  0  0  0  0  0  0  0  0  0  0
  -23.7646  -31.6941   20.0177 C   0  0  0  0  0  0  0  0  0  0  0  0
  -24.4615  -32.1547   23.1521 C   0  0  0  0  0  0  0  0  0  0  0  0
  -26.3050  -31.2409   25.8748 C   0  0  0  0  0  0  0  0  0  0  0  0
  -27.1458  -16.0802   21.1514 C   0  0  0  0  0  0  0  0  0  0  0  0
  -19.9887  -32.9184   16.8082 C   0  0  0  0  0  0  0  0  0  0  0  0
  -23.5559  -29.3527   20.9291 C   0  0  0  0  0  0  0  0  0  0  0  0
  -26.0360  -30.6728   21.8519 C   0  0  0  0  0  0  0  0  0  0  0  0
  -20.5513  -33.4977   18.1036 C   0  0  0  0  0  0  0  0  0  0  0  0
  -24.5288  -16.4400   18.5030 C   0  0  0  0  0  0  0  0  0  0  0  0
  -22.0694  -33.6205   18.0184 C   0  0  0  0  0  0  0  0  0  0  0  0
  -23.5906  -15.2887   18.8620 C   0  0  0  0  0  0  0  0  0  0  0  0
  -25.9623  -16.1343   18.9205 C   0  0  0  0  0  0  0  0  0  0  0  0
  -25.1767  -14.6497   20.7358 C   0  0  0  0  0  0  0  0  0  0  0  0
  -22.7240  -32.2472   17.8263 C   0  0  1  0  0  0  0  0  0  0  0  0
  -23.6016  -30.8443   21.2461 C   0  0  1  0  0  0  0  0  0  0  0  0
  -23.7131  -14.9230   20.3511 C   0  0  2  0  0  0  0  0  0  0  0  0
  -30.5621  -16.7604   21.1734 C   0  0  0  0  0  0  0  0  0  0  0  0
  -26.6801  -31.8255   28.2862 C   0  0  0  0  0  0  0  0  0  0  0  0
  -26.0702  -34.6052   22.3053 C   0  0  0  0  0  0  0  0  0  0  0  0
  -27.1653  -34.5779   24.5565 C   0  0  0  0  0  0  0  0  0  0  0  0
  -24.7011  -34.9201   24.3743 C   0  0  0  0  0  0  0  0  0  0  0  0
  -28.2029  -17.2215   19.1565 C   0  0  0  0  0  0  0  0  0  0  0  0
  -25.4541  -28.5543   26.7789 C   0  0  0  0  0  0  0  0  0  0  0  0
  -30.0749  -25.2365   19.9290 C   0  0  0  0  0  0  0  0  0  0  0  0
  -30.2444  -23.7253   19.8296 C   0  0  0  0  0  0  0  0  0  0  0  0
  -28.6769  -25.7051   19.5427 C   0  0  0  0  0  0  0  0  0  1  0  0
  -29.1971  -17.4246   21.4052 C   0  0  2  0  0  0  0  0  0  0  0  0
  -25.6715  -32.6302   23.9196 C   0  0  1  0  0  0  0  0  0  0  0  0
  -25.9060  -30.9526   27.3108 C   0  0  2  0  0  0  0  0  0  0  0  0
  -25.9032  -34.1605   23.7720 C   0  0  0  0  0  0  0  0  0  0  0  0
  -23.2976  -12.5141   20.6790 N   0  0  0  0  0  0  0  0  0  0  0  0
  -22.8066  -13.7643   20.7237 N   0  0  0  0  0  0  0  0  0  0  0  0
  -24.6937  -31.1955   22.1562 N   0  0  0  0  0  0  0  0  0  0  0  0
  -26.0462  -15.7595   20.3384 N   0  0  0  0  0  0  0  0  0  0  0  0
  -20.8524  -15.0097   21.2145 N   0  0  0  0  0  0  0  0  0  0  0  0
  -19.5812  -10.7403   21.9577 N   0  0  0  0  0  0  0  0  0  0  0  0
  -29.3463  -23.0501   20.7350 N   0  0  0  0  0  0  0  0  0  0  0  0
  -22.7631  -31.5261   19.0805 N   0  0  0  0  0  0  0  0  0  0  0  0
  -25.4829  -32.1844   25.2959 N   0  0  0  0  0  0  0  0  0  0  0  0
  -28.1912  -16.8024   20.5562 N   0  0  0  0  0  0  0  0  0  0  0  0
  -26.1712  -29.5247   27.6454 N   0  3  0  0  0  0  0  0  0  0  0  0
  -18.8762  -12.9224   21.9724 O   0  0  0  0  0  0  0  0  0  0  0  0
  -24.7268  -32.4476   19.9276 O   0  0  0  0  0  0  0  0  0  0  0  0
  -23.3504  -32.6122   23.4309 O   0  0  0  0  0  0  0  0  0  0  0  0
  -27.2537  -30.6874   25.3232 O   0  0  0  0  0  0  0  0  0  0  0  0
  -27.1859  -15.7495   22.3434 O   0  0  0  0  0  0  0  0  0  0  0  0
  -22.7648   -6.2065   21.3709 O   0  0  0  0  0  0  0  0  0  0  0  0
  -28.6128  -27.1237   19.6837 O   0  0  0  0  0  0  0  0  0  1  0  0
  -20.7067   -3.6991   25.8298 F   0  0  0  0  0  0  0  0  0  0  0  0
  -24.3942   -4.7303   23.0469 F   0  0  0  0  0  0  0  0  0  0  0  0
  1  2  1  0  0  0  0
  1  5  2  0  0  0  0
  2  6  2  0  0  0  0
  3 12  2  0  0  0  0
  3 19  1  0  0  0  0
  4 13  1  0  0  0  0
  4 19  2  0  0  0  0
  5 21  1  0  0  0  0
  6 23  1  0  0  0  0
  7 14  2  0  0  0  0
  7 22  1  0  0  0  0
  8 10  2  0  0  0  0
  8 25  1  0  0  0  0
  9 11  1  0  0  0  0
  9 25  2  0  0  0  0
 10 26  1  0  0  0  0
 11 26  2  0  0  0  0
 12 27  1  0  0  0  0
 13 27  2  0  0  0  0
 14 28  1  0  0  0  0
 15 16  2  0  0  0  0
 15 29  1  0  0  0  0
 16 30  1  0  0  0  0
 17 24  1  0  0  0  0
 17 28  2  0  0  0  0
 18 30  2  0  0  0  0
 18 31  1  0  0  0  0
 19 32  1  0  0  0  0
 20 32  1  0  0  0  0
 20 33  2  0  0  0  0
 20 34  1  0  0  0  0
 21 23  2  0  0  0  0
 21 39  1  0  0  0  0
 22 24  2  0  0  0  0
 22 40  1  0  0  0  0
 23 48  1  0  0  0  0
 24 41  1  0  0  0  0
 25 61  1  0  0  0  0
 26 71  1  0  0  0  0
 27 81  1  0  0  0  0
 28 82  1  0  0  0  0
 29 31  2  0  0  0  0
 29 81  1  0  0  0  0
 30 83  1  0  0  0  0
 31 84  1  0  0  0  0
 32 65  2  0  0  0  0
 33 66  1  0  0  0  0
 33 69  1  0  0  0  0
 34 70  1  0  0  0  0
 34 76  2  0  0  0  0
 35 49  1  0  0  0  0
 35 72  1  0  0  0  0
 35 77  2  0  0  0  0
 36 62  1  0  0  0  0
 36 67  1  0  0  0  0
 36 78  2  0  0  0  0
 37 63  1  0  0  0  0
 37 73  1  0  0  0  0
 37 79  2  0  0  0  0
 38 68  1  0  0  0  0
 38 74  1  0  0  0  0
 38 80  2  0  0  0  0
 39 42  1  0  0  0  0
 40 49  1  0  0  0  0
 41 67  1  0  0  0  0
 42 44  1  0  0  0  0
 43 45  1  0  0  0  0
 43 46  1  0  0  0  0
 44 48  1  0  0  0  0
 45 50  1  0  0  0  0
 46 68  1  0  0  0  0
 47 50  1  0  0  0  0
 47 68  1  0  0  0  0
 48 72  1  0  0  0  0
 49 67  1  0  0  0  0
 50 66  1  0  0  0  0
 51 61  1  0  0  0  0
 52 63  1  0  0  0  0
 53 64  1  0  0  0  0
 54 64  1  0  0  0  0
 55 64  1  0  0  0  0
 56 74  1  0  0  0  0
 57 75  1  0  0  0  0
 58 59  1  0  0  0  0
 58 60  1  0  0  0  0
 59 71  1  0  0  0  0
 60 82  1  0  0  0  0
 61 74  1  0  0  0  0
 62 64  1  0  0  0  0
 62 73  1  0  0  0  0
 63 75  1  0  0  0  0
 65 66  1  0  0  0  0
M  CHG  1  75   1
M  ISO  4  38 100  60 101  74 100  82 101
M  END
> <Batch ID>
0100

> <Smiles>
CNC(C)C(=O)NC(C(=O)N1Cc2cc([101O:1][101CH2:1]CCNc3ccc(C(C)[100N:0](C)[100C:0](=O)N4CCCC(n5nc(-c6ccc(Oc7ccc(F)cc7F)cc6)c(C(N)=O)c5N)C4)cc3)ccc2CC1C(=O)NC1CCCc2ccccc21)C(C)(C)C

> <Shape>
0.323

> <Color>
0.104

> <Negative vol penalty>
0.000

$$$$

  -OEChem-04052300573D

 87 96  0     1  0  0  0  0  0999 V2000
  -27.7481  -30.0350   27.7306 C   0  0  0  0  0  0  0  0  0  0  0  0
  -28.9307  -29.6660   27.0976 C   0  0  0  0  0  0  0  0  0  0  0  0
  -23.0790   -9.8628   19.9465 C   0  0  0  0  0  0  0  0  0  0  0  0
  -23.8328   -9.8825   22.2418 C   0  0  0  0  0  0  0  0  0  0  0  0
  -26.5783  -29.3139   27.4951 C   0  0  0  0  0  0  0  0  0  0  0  0
  -28.9444  -28.5749   26.2295 C   0  0  0  0  0  0  0  0  0  0  0  0
  -32.1340  -26.2305   20.2590 C   0  0  0  0  0  0  0  0  0  0  0  0
  -22.3354   -8.7104   20.2005 C   0  0  0  0  0  0  0  0  0  0  0  0
  -23.0892   -8.7301   22.4959 C   0  0  0  0  0  0  0  0  0  0  0  0
  -32.8228  -25.1213   19.7703 C   0  0  0  0  0  0  0  0  0  0  0  0
  -19.8601   -7.9328   23.0941 C   0  0  0  0  0  0  0  0  0  0  0  0
  -19.1001   -7.8985   24.2632 C   0  0  0  0  0  0  0  0  0  0  0  0
  -30.5769  -19.8784   21.4661 C   0  0  0  0  0  0  0  0  0  0  0  0
  -29.5100  -17.8993   22.3502 C   0  0  0  0  0  0  0  0  0  0  0  0
  -30.7242  -23.9981   19.3784 C   0  0  0  0  0  0  0  0  0  0  0  0
  -31.1452  -17.7028   20.5825 C   0  0  0  0  0  0  0  0  0  0  0  0
  -20.3411   -5.9659   25.0131 C   0  0  0  0  0  0  0  0  0  0  0  0
  -23.8278  -10.4488   20.9671 C   0  0  0  0  0  0  0  0  0  0  0  0
  -29.6762  -19.2842   22.3500 C   0  0  0  0  0  0  0  0  0  0  0  0
  -24.1679  -12.9736   20.8347 C   0  0  0  0  0  0  0  0  0  0  0  0
  -26.5756  -28.2192   26.6163 C   0  0  0  0  0  0  0  0  0  0  0  0
  -30.7331  -26.2276   20.3213 C   0  0  0  0  0  0  0  0  0  0  0  0
  -27.7738  -27.8375   25.9831 C   0  0  0  0  0  0  0  0  0  0  0  0
  -30.0198  -25.1096   19.8659 C   0  0  0  0  0  0  0  0  0  0  0  0
  -31.3113  -19.0877   20.5823 C   0  0  0  0  0  0  0  0  0  0  0  0
  -30.2445  -17.1085   21.4664 C   0  0  0  0  0  0  0  0  0  0  0  0
  -22.3404   -8.1440   21.4752 C   0  0  0  0  0  0  0  0  0  0  0  0
  -32.1181  -24.0038   19.3326 C   0  0  0  0  0  0  0  0  0  0  0  0
  -20.8605   -6.9837   22.8844 C   0  0  0  0  0  0  0  0  0  0  0  0
  -19.3406   -6.9150   25.2227 C   0  0  0  0  0  0  0  0  0  0  0  0
  -21.1010   -6.0003   23.8439 C   0  0  0  0  0  0  0  0  0  0  0  0
  -24.5966  -11.6390   20.7051 C   0  0  0  0  0  0  0  0  0  0  0  0
  -25.2605  -13.7220   20.4704 C   0  0  0  0  0  0  0  0  0  0  0  0
  -29.0733  -19.8778   24.5819 C   0  0  0  0  0  0  0  0  0  0  0  0
  -28.9097  -20.1083   23.2713 C   0  0  0  0  0  0  0  0  0  0  0  0
  -22.8960  -13.4906   21.2476 C   0  0  0  0  0  0  0  0  0  0  0  0
  -28.5914  -26.4436   22.6602 C   0  0  0  0  0  0  0  0  0  0  0  0
  -26.4846  -26.5315   20.1953 C   0  0  0  0  0  0  0  0  0  0  0  0
  -25.7996  -25.7659   16.9408 C   0  0  0  0  0  0  0  0  0  0  0  0
  -30.7253  -14.7729   20.6540 C   0  0  0  0  0  0  0  0  0  0  0  0
  -25.2971  -27.4412   26.4298 C   0  0  0  0  0  0  0  0  0  0  0  0
  -30.0039  -27.4424   20.8263 C   0  0  0  0  0  0  0  0  0  0  0  0
  -28.5146  -25.0642   19.8930 C   0  0  0  0  0  0  0  0  0  0  0  0
  -25.3128  -26.5277   25.2068 C   0  0  0  0  0  0  0  0  0  0  0  0
  -29.6191  -12.3458   18.2955 C   0  0  0  0  0  0  0  0  0  0  0  0
  -35.4828  -20.4027   21.3703 C   0  0  0  0  0  0  0  0  0  0  0  0
  -26.6165  -25.7381   25.1470 C   0  0  0  0  0  0  0  0  0  0  0  0
  -28.1785  -12.0553   18.7228 C   0  0  0  0  0  0  0  0  0  0  0  0
  -35.7286  -20.7986   19.9255 C   0  0  0  0  0  0  0  0  0  0  0  0
  -30.5308  -12.5816   19.4983 C   0  0  0  0  0  0  0  0  0  0  0  0
  -28.6197  -13.3118   20.8707 C   0  0  0  0  0  0  0  0  0  0  0  0
  -34.1663  -19.6625   21.2967 C   0  0  0  0  0  0  0  0  0  0  0  0
  -27.8234  -26.6750   25.0155 C   0  0  1  0  0  0  0  0  0  0  0  0
  -28.5959  -27.1303   21.3237 C   0  0  1  0  0  0  0  0  0  0  0  0
  -27.6501  -13.1316   19.6913 C   0  0  2  0  0  0  0  0  0  0  0  0
  -34.3509  -21.1728   19.3791 C   0  0  2  0  0  0  0  0  0  0  0  0
  -27.9558  -21.1746   22.8085 C   0  0  0  0  0  0  0  0  0  0  0  0
  -23.9807  -25.9290   15.2196 C   0  0  0  0  0  0  0  0  0  0  0  0
  -25.0132  -24.2182   21.5345 C   0  0  0  0  0  0  0  0  0  0  0  0
  -23.8245  -23.8120   19.3688 C   0  0  0  0  0  0  0  0  0  0  0  0
  -23.5255  -25.9798   20.5662 C   0  0  0  0  0  0  0  0  0  0  0  0
  -27.4704  -27.4441   15.1657 C   0  0  0  0  0  0  0  0  0  0  0  0
  -32.2798  -19.7263   19.6309 C   0  0  0  0  0  0  0  0  0  0  0  0
  -34.0874  -22.6717   19.3910 C   0  0  0  0  0  0  0  0  0  1  0  0
  -25.7192  -25.4972   19.4057 C   0  0  1  0  0  0  0  0  0  0  0  0
  -25.2123  -26.5952   15.8131 C   0  0  2  0  0  0  0  0  0  0  0  0
  -24.5490  -24.8766   20.2200 C   0  0  0  0  0  0  0  0  0  0  0  0
  -25.8626  -11.5419   20.2907 N   0  0  0  0  0  0  0  0  0  0  0  0
  -26.2389  -12.8251   20.1566 N   0  0  0  0  0  0  0  0  0  0  0  0
  -27.8473  -26.2741   20.4013 N   0  0  0  0  0  0  0  0  0  0  0  0
  -29.9687  -13.6166   20.3688 N   0  0  0  0  0  0  0  0  0  0  0  0
  -25.4700  -15.0533   20.3909 N   0  0  0  0  0  0  0  0  0  0  0  0
  -21.8839  -12.5824   21.5869 N   0  0  0  0  0  0  0  0  0  0  0  0
  -30.0751  -15.7017   21.4658 N   0  0  0  0  0  0  0  0  0  0  0  0
  -27.9461  -27.1531   23.6551 N   0  0  0  0  0  0  0  0  0  0  0  0
  -25.3056  -26.1515   18.1691 N   0  0  0  0  0  0  0  0  0  0  0  0
  -33.3626  -20.4920   20.3228 N   0  3  1  0  0  0  0  0  0  0  0  0
  -26.2167  -26.7784   14.7275 N   0  3  0  0  0  0  0  0  0  0  0  0
  -22.6586  -14.7213   21.2978 O   0  0  0  0  0  0  0  0  0  0  0  0
  -29.1320  -25.3504   22.7796 O   0  0  0  0  0  0  0  0  0  0  0  0
  -25.8966  -27.5344   20.6077 O   0  0  0  0  0  0  0  0  0  0  0  0
  -26.6122  -24.8637   16.7508 O   0  0  0  0  0  0  0  0  0  0  0  0
  -31.8555  -14.9401   20.1884 O   0  0  0  0  0  0  0  0  0  0  0  0
  -21.6147   -7.0197   21.7236 O   0  0  0  0  0  0  0  0  0  0  0  0
  -32.7881  -22.9195   18.8557 O   0  0  0  0  0  0  0  0  0  1  0  0
  -18.6117   -6.8831   26.3460 F   0  0  0  0  0  0  0  0  0  0  0  0
  -22.0616   -5.0865   23.6486 F   0  0  0  0  0  0  0  0  0  0  0  0
  1  2  1  0  0  0  0
  1  5  2  0  0  0  0
  2  6  2  0  0  0  0
  3  8  2  0  0  0  0
  3 18  1  0  0  0  0
  4  9  1  0  0  0  0
  4 18  2  0  0  0  0
  5 21  1  0  0  0  0
  6 23  1  0  0  0  0
  7 10  2  0  0  0  0
  7 22  1  0  0  0  0
  8 27  1  0  0  0  0
  9 27  2  0  0  0  0
 10 28  1  0  0  0  0
 11 12  2  0  0  0  0
 11 29  1  0  0  0  0
 12 30  1  0  0  0  0
 13 19  1  0  0  0  0
 13 25  2  0  0  0  0
 14 19  2  0  0  0  0
 14 26  1  0  0  0  0
 15 24  1  0  0  0  0
 15 28  2  0  0  0  0
 16 25  1  0  0  0  0
 16 26  2  0  0  0  0
 17 30  2  0  0  0  0
 17 31  1  0  0  0  0
 18 32  1  0  0  0  0
 19 35  1  0  0  0  0
 20 32  1  0  0  0  0
 20 33  2  0  0  0  0
 20 36  1  0  0  0  0
 21 23  2  0  0  0  0
 21 41  1  0  0  0  0
 22 24  2  0  0  0  0
 22 42  1  0  0  0  0
 23 53  1  0  0  0  0
 24 43  1  0  0  0  0
 25 63  1  0  0  0  0
 26 74  1  0  0  0  0
 27 84  1  0  0  0  0
 28 85  1  0  0  0  0
 29 31  2  0  0  0  0
 29 84  1  0  0  0  0
 30 86  1  0  0  0  0
 31 87  1  0  0  0  0
 32 68  2  0  0  0  0
 33 69  1  0  0  0  0
 33 72  1  0  0  0  0
 34 35  2  0  0  0  0
 35 57  1  0  0  0  0
 36 73  1  0  0  0  0
 36 79  2  0  0  0  0
 37 54  1  0  0  0  0
 37 75  1  0  0  0  0
 37 80  2  0  0  0  0
 38 65  1  0  0  0  0
 38 70  1  0  0  0  0
 38 81  2  0  0  0  0
 39 66  1  0  0  0  0
 39 76  1  0  0  0  0
 39 82  2  0  0  0  0
 40 71  1  0  0  0  0
 40 74  1  0  0  0  0
 40 83  2  0  0  0  0
 41 44  1  0  0  0  0
 42 54  1  0  0  0  0
 43 70  1  0  0  0  0
 44 47  1  0  0  0  0
 45 48  1  0  0  0  0
 45 50  1  0  0  0  0
 46 49  1  0  0  0  0
 46 52  1  0  0  0  0
 47 53  1  0  0  0  0
 48 55  1  0  0  0  0
 49 56  1  0  0  0  0
 50 71  1  0  0  0  0
 51 55  1  0  0  0  0
 51 71  1  0  0  0  0
 52 77  1  0  0  0  0
 53 75  1  0  0  0  0
 54 70  1  0  0  0  0
 55 69  1  0  0  0  0
 56 64  1  0  0  0  0
 56 77  1  0  0  0  0
 58 66  1  0  0  0  0
 59 67  1  0  0  0  0
 60 67  1  0  0  0  0
 61 67  1  0  0  0  0
 62 78  1  0  0  0  0
 63 77  1  0  0  0  0
 64 85  1  0  0  0  0
 65 67  1  0  0  0  0
 65 76  1  0  0  0  0
 66 78  1  0  0  0  0
 68 69  1  0  0  0  0
M  CHG  2  77   1  78   1
M  ISO  4  40 100  64 101  74 100  85 101
M  END
> <Batch ID>
0100

> <Smiles>
C=C(C)c1cc(CN2CCCC2[101CH2:1][101O:1]c2ccc3c(c2)CN(C(=O)C(NC(=O)C(C)NC)C(C)(C)C)C(C(=O)NC2CCCc4ccccc42)C3)cc([100NH:0][100C:0](=O)N2CCCC(n3nc(-c4ccc(Oc5ccc(F)cc5F)cc4)c(C(N)=O)c3N)C2)c1

> <Shape>
0.247

> <Color>
0.188

> <Negative vol penalty>
0.000

$$$$

  -OEChem-04052300573D

 87 96  0     1  0  0  0  0  0999 V2000
  -32.4776  -34.4220   19.5912 C   0  0  0  0  0  0  0  0  0  0  0  0
  -31.1423  -34.1551   19.8759 C   0  0  0  0  0  0  0  0  0  0  0  0
  -27.0983  -15.1739   20.6504 C   0  0  0  0  0  0  0  0  0  0  0  0
  -26.9656  -14.2714   22.8875 C   0  0  0  0  0  0  0  0  0  0  0  0
  -33.1822  -33.5939   18.7184 C   0  0  0  0  0  0  0  0  0  0  0  0
  -30.5104  -33.0604   19.2869 C   0  0  0  0  0  0  0  0  0  0  0  0
  -26.2003  -29.5077   21.7983 C   0  0  0  0  0  0  0  0  0  0  0  0
  -21.1011  -23.7542   23.4650 C   0  0  0  0  0  0  0  0  0  0  0  0
  -22.1924  -23.1113   24.0493 C   0  0  0  0  0  0  0  0  0  0  0  0
  -26.6297  -13.9654   20.1350 C   0  0  0  0  0  0  0  0  0  0  0  0
  -26.4970  -13.0629   22.3722 C   0  0  0  0  0  0  0  0  0  0  0  0
  -24.8108  -29.4960   21.6844 C   0  0  0  0  0  0  0  0  0  0  0  0
  -24.9234   -9.8605   21.6744 C   0  0  0  0  0  0  0  0  0  0  0  0
  -23.8373   -9.2606   22.3116 C   0  0  0  0  0  0  0  0  0  0  0  0
  -24.9704  -27.7898   19.9865 C   0  0  0  0  0  0  0  0  0  0  0  0
  -21.9842  -23.2597   21.2713 C   0  0  0  0  0  0  0  0  0  0  0  0
  -22.4896  -11.2126   21.8526 C   0  0  0  0  0  0  0  0  0  0  0  0
  -27.2663  -15.3269   22.0266 C   0  0  0  0  0  0  0  0  0  0  0  0
  -28.9812  -17.1985   22.2788 C   0  0  0  0  0  0  0  0  0  0  0  0
  -32.5613  -32.4829   18.1260 C   0  0  0  0  0  0  0  0  0  0  0  0
  -26.9872  -28.6670   20.9981 C   0  0  0  0  0  0  0  0  0  0  0  0
  -31.2069  -32.2175   18.4043 C   0  0  0  0  0  0  0  0  0  0  0  0
  -26.3695  -27.7910   20.0940 C   0  0  0  0  0  0  0  0  0  0  0  0
  -20.9969  -23.8283   22.0760 C   0  0  0  0  0  0  0  0  0  0  0  0
  -23.1796  -22.5427   23.2445 C   0  0  0  0  0  0  0  0  0  0  0  0
  -26.3291  -12.9099   20.9959 C   0  0  0  0  0  0  0  0  0  0  0  0
  -24.1958  -28.6390   20.7764 C   0  0  0  0  0  0  0  0  0  0  0  0
  -24.7926  -11.1366   21.1264 C   0  0  0  0  0  0  0  0  0  0  0  0
  -22.6204   -9.9366   22.4007 C   0  0  0  0  0  0  0  0  0  0  0  0
  -23.0755  -22.6168   21.8555 C   0  0  0  0  0  0  0  0  0  0  0  0
  -23.5758  -11.8126   21.2154 C   0  0  0  0  0  0  0  0  0  0  0  0
  -27.7508  -16.5748   22.5595 C   0  0  0  0  0  0  0  0  0  0  0  0
  -28.9617  -18.3494   23.0282 C   0  0  0  0  0  0  0  0  0  0  0  0
  -18.6167  -26.3629   22.5524 C   0  0  0  0  0  0  0  0  0  0  0  0
  -30.0466  -16.7754   21.4176 C   0  0  0  0  0  0  0  0  0  0  0  0
  -29.2217  -29.1243   18.7841 C   0  0  0  0  0  0  0  0  0  0  0  0
  -29.4839  -25.8948   18.9390 C   0  0  0  0  0  0  0  0  0  0  0  0
  -28.0302  -22.9034   19.7040 C   0  0  0  0  0  0  0  0  0  0  0  0
  -24.5406  -21.7303   25.2026 C   0  0  0  0  0  0  0  0  0  0  0  0
  -33.3503  -31.6440   17.1522 C   0  0  0  0  0  0  0  0  0  0  0  0
  -28.4834  -28.6725   21.1520 C   0  0  0  0  0  0  0  0  0  0  0  0
  -27.1681  -26.8541   19.2263 C   0  0  0  0  0  0  0  0  0  0  0  0
  -18.5551  -27.8438   22.8717 C   0  0  0  0  0  0  0  0  0  0  0  0
  -32.7134  -30.2875   16.8615 C   0  0  0  0  0  0  0  0  0  0  0  0
  -19.9069  -28.5159   23.0103 C   0  0  0  0  0  0  0  0  0  0  0  0
  -27.1328  -20.1566   27.0684 C   0  0  0  0  0  0  0  0  0  0  0  0
  -31.2216  -30.4463   16.5854 C   0  0  0  0  0  0  0  0  0  0  0  0
  -27.7015  -19.1205   26.0963 C   0  0  0  0  0  0  0  0  0  0  0  0
  -25.6186  -20.2987   26.9241 C   0  0  0  0  0  0  0  0  0  0  0  0
  -20.9558  -26.7078   21.6815 C   0  0  0  0  0  0  0  0  0  0  0  0
  -25.7159  -19.5269   24.5866 C   0  0  0  0  0  0  0  0  0  0  0  0
  -30.4935  -31.0252   17.8045 C   0  0  1  0  0  0  0  0  0  0  0  0
  -29.2126  -28.1423   19.9213 C   0  0  1  0  0  0  0  0  0  0  0  0
  -20.7474  -28.2160   21.7765 C   0  0  2  0  0  0  0  0  0  0  0  0
  -27.2464  -19.3956   24.6496 C   0  0  2  0  0  0  0  0  0  0  0  0
  -28.4787  -20.4344   19.6897 C   0  0  0  0  0  0  0  0  0  0  0  0
  -29.0860  -25.8426   15.9143 C   0  0  0  0  0  0  0  0  0  0  0  0
  -28.5956  -23.3939   16.0911 C   0  0  0  0  0  0  0  0  0  0  0  0
  -30.8330  -24.2677   16.7641 C   0  0  0  0  0  0  0  0  0  0  0  0
  -27.6785  -22.7050   22.6359 C   0  0  0  0  0  0  0  0  0  0  0  0
  -19.8229  -24.5213   21.4469 C   0  0  0  0  0  0  0  0  0  0  0  0
  -22.0869  -28.9464   21.8319 C   0  0  0  0  0  0  0  0  0  1  0  0
  -28.8277  -24.7338   18.2316 C   0  0  1  0  0  0  0  0  0  0  0  0
  -28.5309  -21.7161   20.5065 C   0  0  2  0  0  0  0  0  0  0  0  0
  -29.3204  -24.5784   16.7651 C   0  0  0  0  0  0  0  0  0  0  0  0
  -27.0040  -17.2716   23.4202 N   0  0  0  0  0  0  0  0  0  0  0  0
  -27.7674  -18.3451   23.6869 N   0  0  0  0  0  0  0  0  0  0  0  0
  -19.7347  -25.9186   21.8496 N   0  0  0  0  0  0  0  0  0  0  0  0
  -28.6282  -26.9012   19.4091 N   0  0  0  0  0  0  0  0  0  0  0  0
  -25.2622  -20.5623   25.5283 N   0  0  0  0  0  0  0  0  0  0  0  0
  -29.8498  -19.3544   23.1815 N   0  0  0  0  0  0  0  0  0  0  0  0
  -31.0632  -15.9749   21.9561 N   0  0  0  0  0  0  0  0  0  0  0  0
  -24.2874  -21.8906   23.8407 N   0  0  0  0  0  0  0  0  0  0  0  0
  -30.2903  -30.0001   18.8056 N   0  0  0  0  0  0  0  0  0  0  0  0
  -29.0615  -23.5614   19.0678 N   0  0  0  0  0  0  0  0  0  0  0  0
  -27.6988  -21.5289   21.7286 N   0  3  0  0  0  0  0  0  0  0  0  0
  -17.6571  -25.6467   22.8512 O   0  0  0  0  0  0  0  0  0  0  0  0
  -30.1041  -17.1112   20.2103 O   0  0  0  0  0  0  0  0  0  0  0  0
  -28.3263  -29.0890   17.9482 O   0  0  0  0  0  0  0  0  0  0  0  0
  -30.7097  -25.9049   19.0761 O   0  0  0  0  0  0  0  0  0  0  0  0
  -26.8424  -23.2138   19.6443 O   0  0  0  0  0  0  0  0  0  0  0  0
  -24.1979  -22.5430   26.0652 O   0  0  0  0  0  0  0  0  0  0  0  0
  -25.8716  -11.7306   20.4934 O   0  0  0  0  0  0  0  0  0  0  0  0
  -22.8398  -28.6261   20.6628 O   0  0  0  0  0  0  0  0  0  1  0  0
  -21.5771   -9.3596   23.0112 F   0  0  0  0  0  0  0  0  0  0  0  0
  -24.0192  -22.0750   21.0723 F   0  0  0  0  0  0  0  0  0  0  0  0
  -23.4438  -13.0382   20.6898 F   0  0  0  0  0  0  0  0  0  0  0  0
  1  2  1  0  0  0  0
  1  5  2  0  0  0  0
  2  6  2  0  0  0  0
  3 10  2  0  0  0  0
  3 18  1  0  0  0  0
  4 11  1  0  0  0  0
  4 18  2  0  0  0  0
  5 20  1  0  0  0  0
  6 22  1  0  0  0  0
  7 12  2  0  0  0  0
  7 21  1  0  0  0  0
  8  9  2  0  0  0  0
  8 24  1  0  0  0  0
  9 25  1  0  0  0  0
 10 26  1  0  0  0  0
 11 26  2  0  0  0  0
 12 27  1  0  0  0  0
 13 14  2  0  0  0  0
 13 28  1  0  0  0  0
 14 29  1  0  0  0  0
 15 23  1  0  0  0  0
 15 27  2  0  0  0  0
 16 24  2  0  0  0  0
 16 30  1  0  0  0  0
 17 29  2  0  0  0  0
 17 31  1  0  0  0  0
 18 32  1  0  0  0  0
 19 32  1  0  0  0  0
 19 33  2  0  0  0  0
 19 35  1  0  0  0  0
 20 22  2  0  0  0  0
 20 40  1  0  0  0  0
 21 23  2  0  0  0  0
 21 41  1  0  0  0  0
 22 52  1  0  0  0  0
 23 42  1  0  0  0  0
 24 61  1  0  0  0  0
 25 30  2  0  0  0  0
 25 73  1  0  0  0  0
 26 83  1  0  0  0  0
 27 84  1  0  0  0  0
 28 31  2  0  0  0  0
 28 83  1  0  0  0  0
 29 85  1  0  0  0  0
 30 86  1  0  0  0  0
 31 87  1  0  0  0  0
 32 66  2  0  0  0  0
 33 67  1  0  0  0  0
 33 71  1  0  0  0  0
 34 43  1  0  0  0  0
 34 68  1  0  0  0  0
 34 77  2  0  0  0  0
 35 72  1  0  0  0  0
 35 78  2  0  0  0  0
 36 53  1  0  0  0  0
 36 74  1  0  0  0  0
 36 79  2  0  0  0  0
 37 63  1  0  0  0  0
 37 69  1  0  0  0  0
 37 80  2  0  0  0  0
 38 64  1  0  0  0  0
 38 75  1  0  0  0  0
 38 81  2  0  0  0  0
 39 70  1  0  0  0  0
 39 73  1  0  0  0  0
 39 82  2  0  0  0  0
 40 44  1  0  0  0  0
 41 53  1  0  0  0  0
 42 69  1  0  0  0  0
 43 45  1  0  0  0  0
 44 47  1  0  0  0  0
 45 54  1  0  0  0  0
 46 48  1  0  0  0  0
 46 49  1  0  0  0  0
 47 52  1  0  0  0  0
 48 55  1  0  0  0  0
 49 70  1  0  0  0  0
 50 54  1  0  0  0  0
 50 68  1  0  0  0  0
 51 55  1  0  0  0  0
 51 70  1  0  0  0  0
 52 74  1  0  0  0  0
 53 69  1  0  0  0  0
 54 62  1  0  0  0  0
 55 67  1  0  0  0  0
 56 64  1  0  0  0  0
 57 65  1  0  0  0  0
 58 65  1  0  0  0  0
 59 65  1  0  0  0  0
 60 76  1  0  0  0  0
 61 68  1  0  0  0  0
 62 84  1  0  0  0  0
 63 65  1  0  0  0  0
 63 75  1  0  0  0  0
 64 76  1  0  0  0  0
 66 67  1  0  0  0  0
M  CHG  1  76   1
M  ISO  4  39 100  62 101  73 100  84 101
M  END
> <Batch ID>
0100

> <Smiles>
CNC(C)C(=O)NC(C(=O)N1Cc2cc([101O:1][101CH2:1]C3CCC(=O)N(Cc4ccc([100NH:0][100C:0](=O)N5CCCC(n6nc(-c7ccc(Oc8ccc(F)cc8F)cc7)c(C(N)=O)c6N)C5)c(F)c4)C3)ccc2CC1C(=O)NC1CCCc2ccccc21)C(C)(C)C

> <Shape>
0.238

> <Color>
0.067

> <Negative vol penalty>
0.000

$$$$

  -OEChem-04052300573D

 83 91  0     1  0  0  0  0  0999 V2000
  -19.3614  -31.5422   21.8488 C   0  0  0  0  0  0  0  0  0  0  0  0
  -20.7070  -31.2275   22.0091 C   0  0  0  0  0  0  0  0  0  0  0  0
  -26.3251  -13.8652   21.7572 C   0  0  0  0  0  0  0  0  0  0  0  0
  -25.2448  -15.2161   20.0705 C   0  0  0  0  0  0  0  0  0  0  0  0
  -18.3934  -30.5476   21.9821 C   0  0  0  0  0  0  0  0  0  0  0  0
  -21.0853  -29.9182   22.3041 C   0  0  0  0  0  0  0  0  0  0  0  0
  -25.0323  -28.3664   19.5367 C   0  0  0  0  0  0  0  0  0  0  0  0
  -25.1895  -13.0595   21.8392 C   0  0  0  0  0  0  0  0  0  0  0  0
  -24.1091  -14.4104   20.1525 C   0  0  0  0  0  0  0  0  0  0  0  0
  -26.2956  -28.8110   19.9240 C   0  0  0  0  0  0  0  0  0  0  0  0
  -22.7101  -10.4302   22.2327 C   0  0  0  0  0  0  0  0  0  0  0  0
  -22.8961   -9.0481   22.2589 C   0  0  0  0  0  0  0  0  0  0  0  0
  -26.6997  -26.6963   21.0120 C   0  0  0  0  0  0  0  0  0  0  0  0
  -29.9471  -23.5187   17.6073 C   0  0  0  0  0  0  0  0  0  0  0  0
  -31.0814  -25.1877   18.9357 C   0  0  0  0  0  0  0  0  0  0  0  0
  -29.4793  -25.8631   17.2581 C   0  0  0  0  0  0  0  0  0  0  0  0
  -23.9780   -9.1527   20.1013 C   0  0  0  0  0  0  0  0  0  0  0  0
  -26.3527  -14.9436   20.8728 C   0  0  0  0  0  0  0  0  0  0  0  0
  -28.6332  -15.6009   19.9374 C   0  0  0  0  0  0  0  0  0  0  0  0
  -18.7608  -29.2235   22.2693 C   0  0  0  0  0  0  0  0  0  0  0  0
  -24.5882  -27.0852   19.8940 C   0  0  0  0  0  0  0  0  0  0  0  0
  -20.1213  -28.9053   22.4427 C   0  0  0  0  0  0  0  0  0  0  0  0
  -25.4313  -26.2368   20.6258 C   0  0  0  0  0  0  0  0  0  0  0  0
  -30.8593  -23.8499   18.6092 C   0  0  0  0  0  0  0  0  0  0  0  0
  -29.2572  -24.5253   16.9317 C   0  0  0  0  0  0  0  0  0  0  0  0
  -24.0815  -13.3320   21.0369 C   0  0  0  0  0  0  0  0  0  0  0  0
  -27.1284  -27.9771   20.6642 C   0  0  0  0  0  0  0  0  0  0  0  0
  -23.1580  -11.1736   21.1407 C   0  0  0  0  0  0  0  0  0  0  0  0
  -30.3914  -26.1943   18.2601 C   0  0  0  0  0  0  0  0  0  0  0  0
  -23.5301   -8.4093   21.1933 C   0  0  0  0  0  0  0  0  0  0  0  0
  -23.7920  -10.5349   20.0750 C   0  0  0  0  0  0  0  0  0  0  0  0
  -27.5253  -15.7766   20.7880 C   0  0  0  0  0  0  0  0  0  0  0  0
  -29.4683  -16.6485   20.2404 C   0  0  0  0  0  0  0  0  0  0  0  0
  -28.8850  -14.5820   18.9607 C   0  0  0  0  0  0  0  0  0  0  0  0
  -22.1893  -25.9495   21.6432 C   0  0  0  0  0  0  0  0  0  0  0  0
  -23.2593  -23.0897   20.5482 C   0  0  0  0  0  0  0  0  0  0  0  0
  -25.8478  -21.2510   19.2967 C   0  0  0  0  0  0  0  0  0  0  0  0
  -30.2906  -22.0620   21.3188 C   0  0  0  0  0  0  0  0  0  0  0  0
  -17.6754  -28.1922   22.4509 C   0  0  0  0  0  0  0  0  0  0  0  0
  -23.2331  -26.6106   19.4456 C   0  0  0  0  0  0  0  0  0  0  0  0
  -25.0098  -24.8449   21.0175 C   0  0  0  0  0  0  0  0  0  0  0  0
  -18.1856  -26.7546   22.3941 C   0  0  0  0  0  0  0  0  0  0  0  0
  -29.3216  -19.9826   24.0416 C   0  0  0  0  0  0  0  0  0  0  0  0
  -19.4373  -26.5981   23.2518 C   0  0  0  0  0  0  0  0  0  0  0  0
  -28.8537  -18.6916   23.3674 C   0  0  0  0  0  0  0  0  0  0  0  0
  -28.9484  -21.2151   23.2208 C   0  0  0  0  0  0  0  0  0  0  0  0
  -28.9286  -19.8917   21.1419 C   0  0  0  0  0  0  0  0  0  0  0  0
  -20.5730  -27.4916   22.7387 C   0  0  1  0  0  0  0  0  0  0  0  0
  -22.6826  -25.4767   20.3050 C   0  0  1  0  0  0  0  0  0  0  0  0
  -29.3313  -18.6179   21.9047 C   0  0  2  0  0  0  0  0  0  0  0  0
  -27.0339  -19.2758   18.3024 C   0  0  0  0  0  0  0  0  0  0  0  0
  -23.4021  -22.1716   23.4545 C   0  0  0  0  0  0  0  0  0  0  0  0
  -24.8469  -20.2677   22.7092 C   0  0  0  0  0  0  0  0  0  0  0  0
  -22.5083  -20.4619   21.8631 C   0  0  0  0  0  0  0  0  0  0  0  0
  -25.1926  -22.0995   16.5381 C   0  0  0  0  0  0  0  0  0  0  0  0
  -31.5966  -22.7739   19.3321 C   0  0  0  0  0  0  0  0  0  0  0  0
  -30.5213  -29.1894   20.3032 C   0  0  0  0  0  0  0  0  0  0  0  0
  -29.0132  -29.3474   20.1891 C   0  0  0  0  0  0  0  0  0  1  0  0
  -30.9768  -27.7888   19.9247 C   0  0  0  0  0  0  0  0  0  0  0  0
  -24.2677  -22.0721   21.0241 C   0  0  1  0  0  0  0  0  0  0  0  0
  -25.9316  -20.3060   18.1117 C   0  0  2  0  0  0  0  0  0  0  0  0
  -23.7637  -21.2702   22.2572 C   0  0  0  0  0  0  0  0  0  0  0  0
  -27.6429  -16.8511   21.5726 N   0  0  0  0  0  0  0  0  0  0  0  0
  -28.8346  -17.3600   21.2163 N   0  0  0  0  0  0  0  0  0  0  0  0
  -23.6733  -24.4292   20.5608 N   0  0  0  0  0  0  0  0  0  0  0  0
  -29.4317  -21.0826   21.8443 N   0  0  0  0  0  0  0  0  0  0  0  0
  -28.3347  -24.1901   15.9189 N   0  0  0  0  0  0  0  0  0  0  0  0
  -30.6754  -17.0211   19.7647 N   0  0  0  0  0  0  0  0  0  0  0  0
  -27.9219  -13.5805   18.7765 N   0  0  0  0  0  0  0  0  0  0  0  0
  -21.1912  -26.9023   21.5704 N   0  0  0  0  0  0  0  0  0  0  0  0
  -24.5919  -21.2461   19.8660 N   0  0  0  0  0  0  0  0  0  0  0  0
  -30.7068  -21.8569   20.0091 N   0  0  0  0  0  0  0  0  0  0  0  0
  -26.2107  -21.0669   16.8611 N   0  3  0  0  0  0  0  0  0  0  0  0
  -29.9403  -14.5509   18.2833 O   0  0  0  0  0  0  0  0  0  0  0  0
  -22.6771  -25.4832   22.6661 O   0  0  0  0  0  0  0  0  0  0  0  0
  -22.1477  -22.7094   20.1720 O   0  0  0  0  0  0  0  0  0  0  0  0
  -26.8020  -21.9234   19.6814 O   0  0  0  0  0  0  0  0  0  0  0  0
  -30.6634  -23.0435   21.9704 O   0  0  0  0  0  0  0  0  0  0  0  0
  -22.9733  -12.5458   21.1165 O   0  0  0  0  0  0  0  0  0  0  0  0
  -28.3618  -28.4088   21.0441 O   0  0  0  0  0  0  0  0  0  1  0  0
  -30.6098  -27.5090   18.5805 O   0  0  0  0  0  0  0  0  0  0  0  0
  -23.7100   -7.0823   21.2193 F   0  0  0  0  0  0  0  0  0  0  0  0
  -24.2255  -11.2439   19.0237 F   0  0  0  0  0  0  0  0  0  0  0  0
  1  2  1  0  0  0  0
  1  5  2  0  0  0  0
  2  6  2  0  0  0  0
  3  8  2  0  0  0  0
  3 18  1  0  0  0  0
  4  9  1  0  0  0  0
  4 18  2  0  0  0  0
  5 20  1  0  0  0  0
  6 22  1  0  0  0  0
  7 10  2  0  0  0  0
  7 21  1  0  0  0  0
  8 26  1  0  0  0  0
  9 26  2  0  0  0  0
 10 27  1  0  0  0  0
 11 12  2  0  0  0  0
 11 28  1  0  0  0  0
 12 30  1  0  0  0  0
 13 23  1  0  0  0  0
 13 27  2  0  0  0  0
 14 24  2  0  0  0  0
 14 25  1  0  0  0  0
 15 24  1  0  0  0  0
 15 29  2  0  0  0  0
 16 25  2  0  0  0  0
 16 29  1  0  0  0  0
 17 30  2  0  0  0  0
 17 31  1  0  0  0  0
 18 32  1  0  0  0  0
 19 32  1  0  0  0  0
 19 33  2  0  0  0  0
 19 34  1  0  0  0  0
 20 22  2  0  0  0  0
 20 39  1  0  0  0  0
 21 23  2  0  0  0  0
 21 40  1  0  0  0  0
 22 48  1  0  0  0  0
 23 41  1  0  0  0  0
 24 56  1  0  0  0  0
 25 67  1  0  0  0  0
 26 79  1  0  0  0  0
 27 80  1  0  0  0  0
 28 31  2  0  0  0  0
 28 79  1  0  0  0  0
 29 81  1  0  0  0  0
 30 82  1  0  0  0  0
 31 83  1  0  0  0  0
 32 63  2  0  0  0  0
 33 64  1  0  0  0  0
 33 68  1  0  0  0  0
 34 69  1  0  0  0  0
 34 74  2  0  0  0  0
 35 49  1  0  0  0  0
 35 70  1  0  0  0  0
 35 75  2  0  0  0  0
 36 60  1  0  0  0  0
 36 65  1  0  0  0  0
 36 76  2  0  0  0  0
 37 61  1  0  0  0  0
 37 71  1  0  0  0  0
 37 77  2  0  0  0  0
 38 66  1  0  0  0  0
 38 72  1  0  0  0  0
 38 78  2  0  0  0  0
 39 42  1  0  0  0  0
 40 49  1  0  0  0  0
 41 65  1  0  0  0  0
 42 44  1  0  0  0  0
 43 45  1  0  0  0  0
 43 46  1  0  0  0  0
 44 48  1  0  0  0  0
 45 50  1  0  0  0  0
 46 66  1  0  0  0  0
 47 50  1  0  0  0  0
 47 66  1  0  0  0  0
 48 70  1  0  0  0  0
 49 65  1  0  0  0  0
 50 64  1  0  0  0  0
 51 61  1  0  0  0  0
 52 62  1  0  0  0  0
 53 62  1  0  0  0  0
 54 62  1  0  0  0  0
 55 73  1  0  0  0  0
 56 72  1  0  0  0  0
 57 58  1  0  0  0  0
 57 59  1  0  0  0  0
 58 80  1  0  0  0  0
 59 81  1  0  0  0  0
 60 62  1  0  0  0  0
 60 71  1  0  0  0  0
 61 73  1  0  0  0  0
 63 64  1  0  0  0  0
M  CHG  1  73   1
M  ISO  4  38 100  58 101  72 100  80 101
M  END
> <Batch ID>
0100

> <Smiles>
CNC(C)C(=O)NC(C(=O)N1Cc2cc([101O:1][101CH2:1]CCOc3cc(N)cc(C[100NH:0][100C:0](=O)N4CCCC(n5nc(-c6ccc(Oc7ccc(F)cc7F)cc6)c(C(N)=O)c5N)C4)c3)ccc2CC1C(=O)NC1CCCc2ccccc21)C(C)(C)C

> <Shape>
0.261

> <Color>
0.053

> <Negative vol penalty>
0.000

$$$$

  -OEChem-04052300573D

 85 93  0     1  0  0  0  0  0999 V2000
  -25.7115  -31.1053   21.7419 C   0  0  0  0  0  0  0  0  0  0  0  0
  -25.0449  -30.0925   22.4240 C   0  0  0  0  0  0  0  0  0  0  0  0
  -30.4045  -19.7892   19.3103 C   0  0  0  0  0  0  0  0  0  0  0  0
  -28.5328  -20.0302   20.8188 C   0  0  0  0  0  0  0  0  0  0  0  0
  -25.6196  -31.1863   20.3530 C   0  0  0  0  0  0  0  0  0  0  0  0
  -24.2850  -29.1608   21.7177 C   0  0  0  0  0  0  0  0  0  0  0  0
  -23.5426  -23.2335   23.0676 C   0  0  0  0  0  0  0  0  0  0  0  0
  -23.4253  -13.8334   23.8318 C   0  0  0  0  0  0  0  0  0  0  0  0
  -22.4707  -14.7860   24.1879 C   0  0  0  0  0  0  0  0  0  0  0  0
  -30.1326  -21.0469   18.7720 C   0  0  0  0  0  0  0  0  0  0  0  0
  -28.2609  -21.2880   20.2806 C   0  0  0  0  0  0  0  0  0  0  0  0
  -22.5242  -22.5407   23.7209 C   0  0  0  0  0  0  0  0  0  0  0  0
  -28.7781  -24.7915   20.3650 C   0  0  0  0  0  0  0  0  0  0  0  0
  -29.3929  -25.8962   20.9544 C   0  0  0  0  0  0  0  0  0  0  0  0
  -21.5384  -21.9915   21.5888 C   0  0  0  0  0  0  0  0  0  0  0  0
  -21.7682  -14.9440   21.8817 C   0  0  0  0  0  0  0  0  0  0  0  0
  -31.2663  -25.6576   19.4476 C   0  0  0  0  0  0  0  0  0  0  0  0
  -29.6045  -19.2808   20.3337 C   0  0  0  0  0  0  0  0  0  0  0  0
  -30.7249  -17.6864   21.9800 C   0  0  0  0  0  0  0  0  0  0  0  0
  -24.8661  -30.2493   19.6285 C   0  0  0  0  0  0  0  0  0  0  0  0
  -23.5605  -23.3199   21.6681 C   0  0  0  0  0  0  0  0  0  0  0  0
  -24.1818  -29.2301   20.3180 C   0  0  0  0  0  0  0  0  0  0  0  0
  -22.5595  -22.6838   20.9201 C   0  0  0  0  0  0  0  0  0  0  0  0
  -23.5515  -13.4361   22.5006 C   0  0  0  0  0  0  0  0  0  0  0  0
  -21.6421  -15.3413   23.2128 C   0  0  0  0  0  0  0  0  0  0  0  0
  -29.0609  -21.7963   19.2571 C   0  0  0  0  0  0  0  0  0  0  0  0
  -21.5203  -21.9220   22.9816 C   0  0  0  0  0  0  0  0  0  0  0  0
  -29.4074  -24.1198   19.3169 C   0  0  0  0  0  0  0  0  0  0  0  0
  -30.6369  -26.3292   20.4957 C   0  0  0  0  0  0  0  0  0  0  0  0
  -22.7229  -13.9914   21.5256 C   0  0  0  0  0  0  0  0  0  0  0  0
  -30.6515  -24.5529   18.8582 C   0  0  0  0  0  0  0  0  0  0  0  0
  -29.8845  -17.9814   20.8898 C   0  0  0  0  0  0  0  0  0  0  0  0
  -30.6525  -16.3209   22.1097 C   0  0  0  0  0  0  0  0  0  0  0  0
  -31.5014  -18.5678   22.8020 C   0  0  0  0  0  0  0  0  0  0  0  0
  -23.4001  -25.6981   19.5652 C   0  0  0  0  0  0  0  0  0  0  0  0
  -23.9791  -23.3280   17.4275 C   0  0  0  0  0  0  0  0  0  0  0  0
  -23.8288  -20.0020   16.6781 C   0  0  0  0  0  0  0  0  0  0  0  0
  -26.5005  -12.2929   20.5646 C   0  0  0  0  0  0  0  0  0  0  0  0
  -24.7579  -30.4056   18.1323 C   0  0  0  0  0  0  0  0  0  0  0  0
  -24.6806  -24.0484   20.9775 C   0  0  0  0  0  0  0  0  0  0  0  0
  -22.5444  -22.7297   19.4147 C   0  0  0  0  0  0  0  0  0  0  0  0
  -24.2370  -29.1569   17.4255 C   0  0  0  0  0  0  0  0  0  0  0  0
  -29.9115  -12.3502   19.5455 C   0  0  0  0  0  0  0  0  0  0  0  0
  -23.0155  -28.6027   18.1520 C   0  0  0  0  0  0  0  0  0  0  0  0
  -30.3672  -13.7733   19.8728 C   0  0  0  0  0  0  0  0  0  0  0  0
  -28.4653  -12.3192   19.0561 C   0  0  0  0  0  0  0  0  0  0  0  0
  -27.9493  -14.3945   20.2811 C   0  0  0  0  0  0  0  0  0  0  0  0
  -23.3678  -28.1859   19.5850 C   0  0  1  0  0  0  0  0  0  0  0  0
  -24.3162  -24.5071   19.5689 C   0  0  1  0  0  0  0  0  0  0  0  0
  -29.3836  -14.4703   20.8319 C   0  0  2  0  0  0  0  0  0  0  0  0
  -24.3411  -18.3716   14.8405 C   0  0  0  0  0  0  0  0  0  0  0  0
  -17.9865  -17.1370   24.3815 C   0  0  0  0  0  0  0  0  0  0  0  0
  -21.4964  -24.2557   15.9157 C   0  0  0  0  0  0  0  0  0  0  0  0
  -21.5147  -22.0743   14.6871 C   0  0  0  0  0  0  0  0  0  0  0  0
  -23.4373  -23.6475   14.4606 C   0  0  0  0  0  0  0  0  0  0  0  0
  -25.7610  -18.5277   18.3669 C   0  0  0  0  0  0  0  0  0  0  0  0
  -24.5733  -12.4174   22.1233 C   0  0  0  0  0  0  0  0  0  0  0  0
  -19.4824  -19.1108   23.9455 C   0  0  0  0  0  0  0  0  0  0  0  0
  -19.7957  -16.9135   22.6259 C   0  0  0  0  0  0  0  0  0  0  0  0
  -19.9444  -20.1418   22.9232 C   0  0  0  0  0  0  0  0  0  1  0  0
  -23.1219  -22.3793   16.6249 C   0  0  1  0  0  0  0  0  0  0  0  0
  -24.8610  -19.0528   16.0968 C   0  0  2  0  0  0  0  0  0  0  0  0
  -18.8152  -17.8714   23.3210 C   0  0  1  0  0  0  0  0  0  0  0  0
  -22.3915  -23.0898   15.4505 C   0  0  0  0  0  0  0  0  0  0  0  0
  -29.3198  -16.8910   20.3642 N   0  0  0  0  0  0  0  0  0  0  0  0
  -29.8064  -15.8975   21.1273 N   0  0  0  0  0  0  0  0  0  0  0  0
  -23.6577  -23.4595   18.7859 N   0  0  0  0  0  0  0  0  0  0  0  0
  -27.5840  -12.9951   20.0114 N   0  0  0  0  0  0  0  0  0  0  0  0
  -31.2308  -15.4531   22.9669 N   0  0  0  0  0  0  0  0  0  0  0  0
  -31.4613  -19.9424   22.5314 N   0  0  0  0  0  0  0  0  0  0  0  0
  -20.6936  -16.2874   23.5672 N   0  0  0  0  0  0  0  0  0  0  0  0
  -24.0572  -26.9135   19.5862 N   0  0  0  0  0  0  0  0  0  0  0  0
  -23.9977  -21.2883   16.2113 N   0  0  0  0  0  0  0  0  0  0  0  0
  -25.7192  -13.0054   21.4661 N   0  0  0  0  0  0  0  0  0  0  0  0
  -25.2140  -17.9997   17.0905 N   0  3  0  0  0  0  0  0  0  0  0  0
  -32.2228  -18.1472   23.7381 O   0  0  0  0  0  0  0  0  0  0  0  0
  -22.1868  -25.5270   19.5434 O   0  0  0  0  0  0  0  0  0  0  0  0
  -24.9043  -23.9248   16.8714 O   0  0  0  0  0  0  0  0  0  0  0  0
  -22.9573  -19.6379   17.4645 O   0  0  0  0  0  0  0  0  0  0  0  0
  -26.2513  -11.1164   20.2806 O   0  0  0  0  0  0  0  0  0  0  0  0
  -28.7954  -23.0238   18.7323 O   0  0  0  0  0  0  0  0  0  0  0  0
  -20.5248  -21.2456   23.6168 O   0  0  0  0  0  0  0  0  0  1  0  0
  -31.2265  -27.3909   21.0608 F   0  0  0  0  0  0  0  0  0  0  0  0
  -22.8375  -13.6169   20.2437 F   0  0  0  0  0  0  0  0  0  0  0  0
  -31.2604  -23.9124   17.8508 F   0  0  0  0  0  0  0  0  0  0  0  0
  1  2  1  0  0  0  0
  1  5  2  0  0  0  0
  2  6  2  0  0  0  0
  3 10  2  0  0  0  0
  3 18  1  0  0  0  0
  4 11  1  0  0  0  0
  4 18  2  0  0  0  0
  5 20  1  0  0  0  0
  6 22  1  0  0  0  0
  7 12  2  0  0  0  0
  7 21  1  0  0  0  0
  8  9  2  0  0  0  0
  8 24  1  0  0  0  0
  9 25  1  0  0  0  0
 10 26  1  0  0  0  0
 11 26  2  0  0  0  0
 12 27  1  0  0  0  0
 13 14  2  0  0  0  0
 13 28  1  0  0  0  0
 14 29  1  0  0  0  0
 15 23  1  0  0  0  0
 15 27  2  0  0  0  0
 16 25  2  0  0  0  0
 16 30  1  0  0  0  0
 17 29  2  0  0  0  0
 17 31  1  0  0  0  0
 18 32  1  0  0  0  0
 19 32  1  0  0  0  0
 19 33  2  0  0  0  0
 19 34  1  0  0  0  0
 20 22  2  0  0  0  0
 20 39  1  0  0  0  0
 21 23  2  0  0  0  0
 21 40  1  0  0  0  0
 22 48  1  0  0  0  0
 23 41  1  0  0  0  0
 24 30  2  0  0  0  0
 24 57  1  0  0  0  0
 25 71  1  0  0  0  0
 26 81  1  0  0  0  0
 27 82  1  0  0  0  0
 28 31  2  0  0  0  0
 28 81  1  0  0  0  0
 29 83  1  0  0  0  0
 30 84  1  0  0  0  0
 31 85  1  0  0  0  0
 32 65  2  0  0  0  0
 33 66  1  0  0  0  0
 33 69  1  0  0  0  0
 34 70  1  0  0  0  0
 34 76  2  0  0  0  0
 35 49  1  0  0  0  0
 35 72  1  0  0  0  0
 35 77  2  0  0  0  0
 36 61  1  0  0  0  0
 36 67  1  0  0  0  0
 36 78  2  0  0  0  0
 37 62  1  0  0  0  0
 37 73  1  0  0  0  0
 37 79  2  0  0  0  0
 38 68  1  0  0  0  0
 38 74  1  0  0  0  0
 38 80  2  0  0  0  0
 39 42  1  0  0  0  0
 40 49  1  0  0  0  0
 41 67  1  0  0  0  0
 42 44  1  0  0  0  0
 43 45  1  0  0  0  0
 43 46  1  0  0  0  0
 44 48  1  0  0  0  0
 45 50  1  0  0  0  0
 46 68  1  0  0  0  0
 47 50  1  0  0  0  0
 47 68  1  0  0  0  0
 48 72  1  0  0  0  0
 49 67  1  0  0  0  0
 50 66  1  0  0  0  0
 51 62  1  0  0  0  0
 52 63  1  0  0  0  0
 53 64  1  0  0  0  0
 54 64  1  0  0  0  0
 55 64  1  0  0  0  0
 56 75  1  0  0  0  0
 57 74  1  0  0  0  0
 58 60  1  0  0  0  0
 58 63  1  0  0  0  0
 59 63  1  0  0  0  0
 59 71  1  0  0  0  0
 60 82  1  0  0  0  0
 61 64  1  0  0  0  0
 61 73  1  0  0  0  0
 62 75  1  0  0  0  0
 65 66  1  0  0  0  0
M  CHG  1  75   1
M  ISO  4  38 100  60 101  74 100  82 101
M  END
> <Batch ID>
0100

> <Smiles>
CNC(C)C(=O)NC(C(=O)N1Cc2cc([101O:1][101CH2:1]CC(C)CNc3ccc(C[100NH:0][100C:0](=O)N4CCCC(n5nc(-c6ccc(Oc7ccc(F)cc7F)cc6)c(C(N)=O)c5N)C4)c(F)c3)ccc2CC1C(=O)NC1CCCc2ccccc21)C(C)(C)C

> <Shape>
0.215

> <Color>
0.062

> <Negative vol penalty>
0.000

$$$$

  -OEChem-04052300573D

 88 97  0     1  0  0  0  0  0999 V2000
  -24.3350  -29.0269   17.4026 C   0  0  0  0  0  0  0  0  0  0  0  0
  -25.2521  -28.2478   16.7044 C   0  0  0  0  0  0  0  0  0  0  0  0
  -19.5909  -21.9154   23.6280 C   0  0  0  0  0  0  0  0  0  0  0  0
  -19.2244  -21.1863   21.3540 C   0  0  0  0  0  0  0  0  0  0  0  0
  -25.1933  -11.7683   21.8900 C   0  0  0  0  0  0  0  0  0  0  0  0
  -24.5033  -29.2426   18.7697 C   0  0  0  0  0  0  0  0  0  0  0  0
  -26.3386  -27.6848   17.3728 C   0  0  0  0  0  0  0  0  0  0  0  0
  -28.5766  -20.2174   17.8791 C   0  0  0  0  0  0  0  0  0  0  0  0
  -26.5079  -12.1920   21.6957 C   0  0  0  0  0  0  0  0  0  0  0  0
  -19.0642  -23.1675   23.3115 C   0  0  0  0  0  0  0  0  0  0  0  0
  -18.6976  -22.4385   21.0375 C   0  0  0  0  0  0  0  0  0  0  0  0
  -28.9818  -18.9151   18.1722 C   0  0  0  0  0  0  0  0  0  0  0  0
  -20.1031  -25.9879   21.7654 C   0  0  0  0  0  0  0  0  0  0  0  0
  -20.7898  -27.1131   22.2214 C   0  0  0  0  0  0  0  0  0  0  0  0
  -29.9549  -19.6746   20.2517 C   0  0  0  0  0  0  0  0  0  0  0  0
  -25.7063  -14.1239   20.4864 C   0  0  0  0  0  0  0  0  0  0  0  0
  -18.8369  -27.8001   23.4669 C   0  0  0  0  0  0  0  0  0  0  0  0
  -19.6711  -20.9248   22.6493 C   0  0  0  0  0  0  0  0  0  0  0  0
  -24.1351  -12.5223   21.3825 C   0  0  0  0  0  0  0  0  0  0  0  0
  -21.5097  -19.3495   23.4528 C   0  0  0  0  0  0  0  0  0  0  0  0
  -25.5872  -28.6740   19.4572 C   0  0  0  0  0  0  0  0  0  0  0  0
  -28.8457  -21.2519   18.7795 C   0  0  0  0  0  0  0  0  0  0  0  0
  -26.5223  -27.8942   18.7502 C   0  0  0  0  0  0  0  0  0  0  0  0
  -29.5404  -20.9789   19.9693 C   0  0  0  0  0  0  0  0  0  0  0  0
  -26.7644  -13.3698   20.9939 C   0  0  0  0  0  0  0  0  0  0  0  0
  -18.6175  -23.4291   22.0162 C   0  0  0  0  0  0  0  0  0  0  0  0
  -29.6695  -18.6445   19.3555 C   0  0  0  0  0  0  0  0  0  0  0  0
  -18.7833  -25.7688   22.1600 C   0  0  0  0  0  0  0  0  0  0  0  0
  -20.1567  -28.0192   23.0721 C   0  0  0  0  0  0  0  0  0  0  0  0
  -24.3917  -13.7001   20.6807 C   0  0  0  0  0  0  0  0  0  0  0  0
  -18.1502  -26.6749   23.0108 C   0  0  0  0  0  0  0  0  0  0  0  0
  -20.2156  -19.6313   22.9755 C   0  0  0  0  0  0  0  0  0  0  0  0
  -21.5297  -17.9847   23.6055 C   0  0  0  0  0  0  0  0  0  0  0  0
  -30.8096  -14.6781   20.3554 C   0  0  0  0  0  0  0  0  0  0  0  0
  -22.7367  -12.0668   21.5915 C   0  0  0  0  0  0  0  0  0  0  0  0
  -22.5965  -20.2417   23.7330 C   0  0  0  0  0  0  0  0  0  0  0  0
  -28.5242  -24.9024   19.5837 C   0  0  0  0  0  0  0  0  0  0  0  0
  -28.0433  -23.3686   22.1965 C   0  0  0  0  0  0  0  0  0  0  0  0
  -26.6179  -22.5301   24.8738 C   0  0  0  0  0  0  0  0  0  0  0  0
  -20.4045  -12.8627   21.8175 C   0  0  0  0  0  0  0  0  0  0  0  0
  -25.7534  -28.9741   20.9258 C   0  0  0  0  0  0  0  0  0  0  0  0
  -28.4822  -22.6801   18.4763 C   0  0  0  0  0  0  0  0  0  0  0  0
  -29.8384  -22.1290   20.8921 C   0  0  0  0  0  0  0  0  0  0  0  0
  -30.3087  -13.3492   19.8433 C   0  0  0  0  0  0  0  0  0  0  0  0
  -26.7250  -28.0333   21.6336 C   0  0  0  0  0  0  0  0  0  0  0  0
  -17.7737  -14.5915   23.4259 C   0  0  0  0  0  0  0  0  0  0  0  0
  -28.0008  -27.8679   20.8140 C   0  0  0  0  0  0  0  0  0  0  0  0
  -18.2817  -16.0339   23.5002 C   0  0  0  0  0  0  0  0  0  0  0  0
  -29.1681  -12.8190   20.7038 C   0  0  0  0  0  0  0  0  0  0  0  0
  -18.1794  -13.9136   22.1180 C   0  0  0  0  0  0  0  0  0  0  0  0
  -28.3909  -15.2236   20.6951 C   0  0  0  0  0  0  0  0  0  0  0  0
  -20.1152  -15.4143   21.8759 C   0  0  0  0  0  0  0  0  0  0  0  0
  -27.7002  -27.2460   19.4449 C   0  0  1  0  0  0  0  0  0  0  0  0
  -29.8251  -15.5181   21.1543 C   0  0  2  0  0  0  0  0  0  0  0  0
  -28.0750  -23.4780   19.7280 C   0  0  1  0  0  0  0  0  0  0  0  0
  -19.7926  -16.1174   23.2043 C   0  0  1  0  0  0  0  0  0  0  0  0
  -26.3030  -22.5527   27.3633 C   0  0  0  0  0  0  0  0  0  0  0  0
  -31.0257  -22.7935   22.4774 C   0  0  0  0  0  0  0  0  0  0  0  0
  -30.6841  -22.6048   24.9504 C   0  0  0  0  0  0  0  0  0  0  0  0
  -30.2144  -24.7621   23.7893 C   0  0  0  0  0  0  0  0  0  0  0  0
  -23.8527  -23.5566   24.6312 C   0  0  0  0  0  0  0  0  0  0  0  0
  -30.1364  -17.0058   21.0151 C   0  0  0  0  0  0  0  0  0  1  0  0
  -28.6398  -22.8109   23.4640 C   0  0  1  0  0  0  0  0  0  0  0  0
  -25.8795  -23.1661   26.0377 C   0  0  2  0  0  0  0  0  0  0  0  0
  -30.1262  -23.2264   23.6523 C   0  0  0  0  0  0  0  0  0  0  0  0
  -19.4678  -18.5336   22.8342 N   0  0  0  0  0  0  0  0  0  0  0  0
  -20.2946  -17.5488   23.2249 N   0  0  0  0  0  0  0  0  0  0  0  0
  -28.0787  -13.7938   20.7995 N   0  0  3  0  0  0  0  0  0  0  0  0
  -28.6636  -23.0089   20.9939 N   0  0  0  0  0  0  0  0  0  0  0  0
  -19.6249  -14.0284   21.9165 N   0  0  0  0  0  0  0  0  0  0  0  0
  -22.4832  -17.1268   24.0268 N   0  0  0  0  0  0  0  0  0  0  0  0
  -23.5033  -20.5338   22.7051 N   0  0  0  0  0  0  0  0  0  0  0  0
  -21.7791  -13.0785   21.6690 N   0  0  0  0  0  0  0  0  0  0  0  0
  -27.4908  -25.8197   19.5727 N   0  0  0  0  0  0  0  0  0  0  0  0
  -27.7597  -23.2316   24.5488 N   0  0  0  0  0  0  0  0  0  0  0  0
  -24.4091  -22.9799   25.8822 N   0  3  0  0  0  0  0  0  0  0  0  0
  -31.9614  -15.0467   20.1275 O   0  0  0  0  0  0  0  0  0  0  0  0
  -22.5012  -10.8627   21.6429 O   0  0  0  0  0  0  0  0  0  0  0  0
  -22.7680  -20.7515   24.8662 O   0  0  0  0  0  0  0  0  0  0  0  0
  -29.7202  -25.1523   19.4906 O   0  0  0  0  0  0  0  0  0  0  0  0
  -27.0577  -24.1080   22.2682 O   0  0  0  0  0  0  0  0  0  0  0  0
  -26.2235  -21.5108   24.3117 O   0  0  0  0  0  0  0  0  0  0  0  0
  -19.9234  -11.7277   21.8930 O   0  0  0  0  0  0  0  0  0  0  0  0
  -18.1032  -24.6508   21.7071 O   0  0  0  0  0  0  0  0  0  0  0  0
  -30.0583  -17.3701   19.6376 O   0  0  0  0  0  0  0  0  0  1  0  0
  -20.8167  -29.0989   23.5112 F   0  0  0  0  0  0  0  0  0  0  0  0
  -23.3824  -14.4311   20.1866 F   0  0  0  0  0  0  0  0  0  0  0  0
  -16.8828  -26.4691   23.3944 F   0  0  0  0  0  0  0  0  0  0  0  0
  1  2  1  0  0  0  0
  1  6  2  0  0  0  0
  2  7  2  0  0  0  0
  3 10  2  0  0  0  0
  3 18  1  0  0  0  0
  4 11  1  0  0  0  0
  4 18  2  0  0  0  0
  5  9  2  0  0  0  0
  5 19  1  0  0  0  0
  6 21  1  0  0  0  0
  7 23  1  0  0  0  0
  8 12  2  0  0  0  0
  8 22  1  0  0  0  0
  9 25  1  0  0  0  0
 10 26  1  0  0  0  0
 11 26  2  0  0  0  0
 12 27  1  0  0  0  0
 13 14  2  0  0  0  0
 13 28  1  0  0  0  0
 14 29  1  0  0  0  0
 15 24  1  0  0  0  0
 15 27  2  0  0  0  0
 16 25  2  0  0  0  0
 16 30  1  0  0  0  0
 17 29  2  0  0  0  0
 17 31  1  0  0  0  0
 18 32  1  0  0  0  0
 19 30  2  0  0  0  0
 19 35  1  0  0  0  0
 20 32  1  0  0  0  0
 20 33  2  0  0  0  0
 20 36  1  0  0  0  0
 21 23  2  0  0  0  0
 21 41  1  0  0  0  0
 22 24  2  0  0  0  0
 22 42  1  0  0  0  0
 23 53  1  0  0  0  0
 24 43  1  0  0  0  0
 25 68  1  0  0  0  0
 26 84  1  0  0  0  0
 27 85  1  0  0  0  0
 28 31  2  0  0  0  0
 28 84  1  0  0  0  0
 29 86  1  0  0  0  0
 30 87  1  0  0  0  0
 31 88  1  0  0  0  0
 32 66  2  0  0  0  0
 33 67  1  0  0  0  0
 33 71  1  0  0  0  0
 34 44  1  0  0  0  0
 34 54  1  0  0  0  0
 34 77  2  0  0  0  0
 35 73  1  0  0  0  0
 35 78  2  0  0  0  0
 36 72  1  0  0  0  0
 36 79  2  0  0  0  0
 37 55  1  0  0  0  0
 37 74  1  0  0  0  0
 37 80  2  0  0  0  0
 38 63  1  0  0  0  0
 38 69  1  0  0  0  0
 38 81  2  0  0  0  0
 39 64  1  0  0  0  0
 39 75  1  0  0  0  0
 39 82  2  0  0  0  0
 40 70  1  0  0  0  0
 40 73  1  0  0  0  0
 40 83  2  0  0  0  0
 41 45  1  0  0  0  0
 42 55  1  0  0  0  0
 43 69  1  0  0  0  0
 44 49  1  0  0  0  0
 45 47  1  0  0  0  0
 46 48  1  0  0  0  0
 46 50  1  0  0  0  0
 47 53  1  0  0  0  0
 48 56  1  0  0  0  0
 49 68  1  0  0  0  0
 50 70  1  0  0  0  0
 51 54  1  0  0  0  0
 51 68  1  0  0  0  0
 52 56  1  0  0  0  0
 52 70  1  0  0  0  0
 53 74  1  0  0  0  0
 54 62  1  0  0  0  0
 55 69  1  0  0  0  0
 56 67  1  0  0  0  0
 57 64  1  0  0  0  0
 58 65  1  0  0  0  0
 59 65  1  0  0  0  0
 60 65  1  0  0  0  0
 61 76  1  0  0  0  0
 62 85  1  0  0  0  0
 63 65  1  0  0  0  0
 63 75  1  0  0  0  0
 64 76  1  0  0  0  0
 66 67  1  0  0  0  0
M  CHG  1  76   1
M  ISO  4  40 100  62 101  73 100  85 101
M  END
> <Batch ID>
0100

> <Smiles>
CNC(C)C(=O)NC(C(=O)N1Cc2cc([101O:1][101CH2:1]C3CN(c4ccc(C(=O)[100NH:0][100C:0](=O)N5CCCC(n6nc(-c7ccc(Oc8ccc(F)cc8F)cc7)c(C(N)=O)c6N)C5)c(F)c4)CCC3=O)ccc2CC1C(=O)NC1CCCc2ccccc21)C(C)(C)C

> <Shape>
0.232

> <Color>
0.088

> <Negative vol penalty>
0.000

$$$$

  -OEChem-04052300573D

 86 95  0     1  0  0  0  0  0999 V2000
  -25.2510  -38.1211   23.3017 C   0  0  0  0  0  0  0  0  0  0  0  0
  -26.0266  -37.3421   22.4490 C   0  0  0  0  0  0  0  0  0  0  0  0
  -21.9449  -11.4611   21.1801 C   0  0  0  0  0  0  0  0  0  0  0  0
  -24.1067  -12.3607   20.5848 C   0  0  0  0  0  0  0  0  0  0  0  0
  -27.5144  -21.4544   17.9891 C   0  0  0  0  0  0  0  0  0  0  0  0
  -24.5857  -37.5281   24.3739 C   0  0  0  0  0  0  0  0  0  0  0  0
  -26.1381  -35.9696   22.6687 C   0  0  0  0  0  0  0  0  0  0  0  0
  -26.8841  -29.7904   19.1222 C   0  0  0  0  0  0  0  0  0  0  0  0
  -26.2484  -20.9671   18.3136 C   0  0  0  0  0  0  0  0  0  0  0  0
  -22.3535  -10.1973   20.7540 C   0  0  0  0  0  0  0  0  0  0  0  0
  -24.5153  -11.0969   20.1587 C   0  0  0  0  0  0  0  0  0  0  0  0
  -27.6914  -28.6540   19.0965 C   0  0  0  0  0  0  0  0  0  0  0  0
  -24.2396   -7.6562   21.9449 C   0  0  0  0  0  0  0  0  0  0  0  0
  -23.9442   -6.5683   22.7664 C   0  0  0  0  0  0  0  0  0  0  0  0
  -26.4335  -27.7262   20.9338 C   0  0  0  0  0  0  0  0  0  0  0  0
  -27.2136  -19.6411   20.0876 C   0  0  0  0  0  0  0  0  0  0  0  0
  -22.6556   -5.5712   20.9824 C   0  0  0  0  0  0  0  0  0  0  0  0
  -22.8215  -12.5428   21.0955 C   0  0  0  0  0  0  0  0  0  0  0  0
  -28.6301  -21.0350   18.7138 C   0  0  0  0  0  0  0  0  0  0  0  0
  -21.9762  -14.2152   22.8264 C   0  0  0  0  0  0  0  0  0  0  0  0
  -24.6814  -36.1462   24.6012 C   0  0  0  0  0  0  0  0  0  0  0  0
  -25.8506  -29.9082   20.0627 C   0  0  0  0  0  0  0  0  0  0  0  0
  -25.4745  -35.3577   23.7458 C   0  0  0  0  0  0  0  0  0  0  0  0
  -25.6129  -28.8639   20.9677 C   0  0  0  0  0  0  0  0  0  0  0  0
  -26.0980  -20.0604   19.3629 C   0  0  0  0  0  0  0  0  0  0  0  0
  -23.6386  -10.0152   20.2434 C   0  0  0  0  0  0  0  0  0  0  0  0
  -27.4680  -27.6229   20.0042 C   0  0  0  0  0  0  0  0  0  0  0  0
  -23.7429   -7.7017   20.6423 C   0  0  0  0  0  0  0  0  0  0  0  0
  -23.1522   -5.5258   22.2851 C   0  0  0  0  0  0  0  0  0  0  0  0
  -28.4796  -20.1284   19.7631 C   0  0  0  0  0  0  0  0  0  0  0  0
  -22.9510   -6.6592   20.1610 C   0  0  0  0  0  0  0  0  0  0  0  0
  -22.3999  -13.8487   21.5350 C   0  0  0  0  0  0  0  0  0  0  0  0
  -21.6880  -15.5544   22.7261 C   0  0  0  0  0  0  0  0  0  0  0  0
  -29.9640  -21.5497   18.3661 C   0  0  0  0  0  0  0  0  0  0  0  0
  -21.8542  -13.4166   24.0110 C   0  0  0  0  0  0  0  0  0  0  0  0
  -25.2037  -31.9096   22.4458 C   0  0  0  0  0  0  0  0  0  0  0  0
  -22.4274  -30.2372   22.5788 C   0  0  0  0  0  0  0  0  0  0  0  0
  -20.7587  -27.3351   21.9152 C   0  0  0  0  0  0  0  0  0  0  0  0
  -23.6019  -19.8794   19.0742 C   0  0  0  0  0  0  0  0  0  0  0  0
  -23.9822  -35.5577   25.8010 C   0  0  0  0  0  0  0  0  0  0  0  0
  -24.9717  -31.1288   20.0599 C   0  0  0  0  0  0  0  0  0  0  0  0
  -24.5034  -28.9326   21.9840 C   0  0  0  0  0  0  0  0  0  0  0  0
  -23.8500  -34.0380   25.7442 C   0  0  0  0  0  0  0  0  0  0  0  0
  -20.2308  -18.8447   19.5662 C   0  0  0  0  0  0  0  0  0  0  0  0
  -25.1749  -33.4017   25.3363 C   0  0  0  0  0  0  0  0  0  0  0  0
  -20.3659  -17.4822   20.2500 C   0  0  0  0  0  0  0  0  0  0  0  0
  -31.1929  -25.0192   18.1320 C   0  0  0  0  0  0  0  0  0  0  0  0
  -21.3211  -19.0642   18.5189 C   0  0  0  0  0  0  0  0  0  0  0  0
  -31.4506  -23.5203   18.1288 C   0  0  0  0  0  0  0  0  0  0  0  0
  -29.2055  -23.9303   18.8890 C   0  0  0  0  0  0  0  0  0  0  0  0
  -22.8290  -17.5033   19.6846 C   0  0  0  0  0  0  0  0  0  0  0  0
  -25.6002  -33.8618   23.9367 C   0  0  1  0  0  0  0  0  0  0  0  0
  -24.2755  -31.3667   21.3964 C   0  0  1  0  0  0  0  0  0  0  0  0
  -30.0593  -25.1701   19.1491 C   0  0  2  0  0  0  0  0  0  0  0  0
  -21.7915  -17.2633   20.7935 C   0  0  2  0  0  0  0  0  0  0  0  0
  -18.5094  -26.2529   22.1736 C   0  0  0  0  0  0  0  0  0  0  0  0
  -22.9905  -29.7799   25.5426 C   0  0  0  0  0  0  0  0  0  0  0  0
  -21.2762  -27.9555   25.5154 C   0  0  0  0  0  0  0  0  0  0  0  0
  -20.6053  -30.3027   25.0024 C   0  0  0  0  0  0  0  0  0  0  0  0
  -20.4378  -27.0353   18.9885 C   0  0  0  0  0  0  0  0  0  0  0  0
  -29.2911  -26.4711   19.0014 C   0  0  0  0  0  0  0  0  0  1  0  0
  -21.9575  -29.0017   23.3081 C   0  0  1  0  0  0  0  0  0  0  0  0
  -19.4119  -27.0736   21.2655 C   0  0  2  0  0  0  0  0  0  0  0  0
  -21.7296  -29.2592   24.8244 C   0  0  0  0  0  0  0  0  0  0  0  0
  -22.3837  -14.8722   20.6771 N   0  0  0  0  0  0  0  0  0  0  0  0
  -21.9462  -15.8952   21.4309 N   0  0  0  0  0  0  0  0  0  0  0  0
  -30.1622  -22.9198   18.4409 N   0  0  0  0  0  0  0  0  0  0  0  0
  -23.6753  -30.1492   21.9457 N   0  0  0  0  0  0  0  0  0  0  0  0
  -22.6443  -18.8437   19.1067 N   0  0  0  0  0  0  0  0  0  0  0  0
  -21.2414  -16.4619   23.6202 N   0  0  0  0  0  0  0  0  0  0  0  0
  -22.1921  -12.0584   23.9388 N   0  0  0  0  0  0  0  0  0  0  0  0
  -24.8118  -19.5655   19.6924 N   0  0  0  0  0  0  0  0  0  0  0  0
  -24.8465  -33.1566   22.9222 N   0  0  0  0  0  0  0  0  0  0  0  0
  -20.7728  -28.5337   22.5968 N   0  0  0  0  0  0  0  0  0  0  0  0
  -19.5898  -26.3320   19.9851 N   0  3  0  0  0  0  0  0  0  0  0  0
  -30.8193  -20.7283   18.0415 O   0  0  0  0  0  0  0  0  0  0  0  0
  -21.4416  -13.8897   25.0970 O   0  0  0  0  0  0  0  0  0  0  0  0
  -26.1714  -31.2456   22.7984 O   0  0  0  0  0  0  0  0  0  0  0  0
  -21.7104  -31.2408   22.5653 O   0  0  0  0  0  0  0  0  0  0  0  0
  -21.7026  -26.5525   21.8301 O   0  0  0  0  0  0  0  0  0  0  0  0
  -23.3566  -20.9743   18.5614 O   0  0  0  0  0  0  0  0  0  0  0  0
  -24.0377   -8.7821   19.8277 O   0  0  0  0  0  0  0  0  0  0  0  0
  -28.2549  -26.5129   19.9817 O   0  0  0  0  0  0  0  0  0  1  0  0
  -22.8699   -4.4804   23.0736 F   0  0  0  0  0  0  0  0  0  0  0  0
  -29.5449  -19.7180   20.4662 F   0  0  0  0  0  0  0  0  0  0  0  0
  -22.4720   -6.6967   18.9100 F   0  0  0  0  0  0  0  0  0  0  0  0
  1  2  1  0  0  0  0
  1  6  2  0  0  0  0
  2  7  2  0  0  0  0
  3 10  2  0  0  0  0
  3 18  1  0  0  0  0
  4 11  1  0  0  0  0
  4 18  2  0  0  0  0
  5  9  2  0  0  0  0
  5 19  1  0  0  0  0
  6 21  1  0  0  0  0
  7 23  1  0  0  0  0
  8 12  2  0  0  0  0
  8 22  1  0  0  0  0
  9 25  1  0  0  0  0
 10 26  1  0  0  0  0
 11 26  2  0  0  0  0
 12 27  1  0  0  0  0
 13 14  2  0  0  0  0
 13 28  1  0  0  0  0
 14 29  1  0  0  0  0
 15 24  1  0  0  0  0
 15 27  2  0  0  0  0
 16 25  2  0  0  0  0
 16 30  1  0  0  0  0
 17 29  2  0  0  0  0
 17 31  1  0  0  0  0
 18 32  1  0  0  0  0
 19 30  2  0  0  0  0
 19 34  1  0  0  0  0
 20 32  1  0  0  0  0
 20 33  2  0  0  0  0
 20 35  1  0  0  0  0
 21 23  2  0  0  0  0
 21 40  1  0  0  0  0
 22 24  2  0  0  0  0
 22 41  1  0  0  0  0
 23 52  1  0  0  0  0
 24 42  1  0  0  0  0
 25 72  1  0  0  0  0
 26 82  1  0  0  0  0
 27 83  1  0  0  0  0
 28 31  2  0  0  0  0
 28 82  1  0  0  0  0
 29 84  1  0  0  0  0
 30 85  1  0  0  0  0
 31 86  1  0  0  0  0
 32 65  2  0  0  0  0
 33 66  1  0  0  0  0
 33 70  1  0  0  0  0
 34 67  1  0  0  0  0
 34 76  2  0  0  0  0
 35 71  1  0  0  0  0
 35 77  2  0  0  0  0
 36 53  1  0  0  0  0
 36 73  1  0  0  0  0
 36 78  2  0  0  0  0
 37 62  1  0  0  0  0
 37 68  1  0  0  0  0
 37 79  2  0  0  0  0
 38 63  1  0  0  0  0
 38 74  1  0  0  0  0
 38 80  2  0  0  0  0
 39 69  1  0  0  0  0
 39 72  1  0  0  0  0
 39 81  2  0  0  0  0
 40 43  1  0  0  0  0
 41 53  1  0  0  0  0
 42 68  1  0  0  0  0
 43 45  1  0  0  0  0
 44 46  1  0  0  0  0
 44 48  1  0  0  0  0
 45 52  1  0  0  0  0
 46 55  1  0  0  0  0
 47 49  1  0  0  0  0
 47 54  1  0  0  0  0
 48 69  1  0  0  0  0
 49 67  1  0  0  0  0
 50 54  1  0  0  0  0
 50 67  1  0  0  0  0
 51 55  1  0  0  0  0
 51 69  1  0  0  0  0
 52 73  1  0  0  0  0
 53 68  1  0  0  0  0
 54 61  1  0  0  0  0
 55 66  1  0  0  0  0
 56 63  1  0  0  0  0
 57 64  1  0  0  0  0
 58 64  1  0  0  0  0
 59 64  1  0  0  0  0
 60 75  1  0  0  0  0
 61 83  1  0  0  0  0
 62 64  1  0  0  0  0
 62 74  1  0  0  0  0
 63 75  1  0  0  0  0
 65 66  1  0  0  0  0
M  CHG  1  75   1
M  ISO  4  39 100  61 101  72 100  83 101
M  END
> <Batch ID>
0100

> <Smiles>
CNC(C)C(=O)NC(C(=O)N1Cc2cc([101O:1][101CH2:1]C3CCN(C(=O)c4ccc([100NH:0][100C:0](=O)N5CCCC(n6nc(-c7ccc(Oc8ccc(F)cc8F)cc7)c(C(N)=O)c6N)C5)cc4F)C3)ccc2CC1C(=O)NC1CCCc2ccccc21)C(C)(C)C

> <Shape>
0.298

> <Color>
0.072

> <Negative vol penalty>
0.000

$$$$

  -OEChem-04052300573D

 84 92  0     1  0  0  0  0  0999 V2000
  -26.8881  -35.6027   23.0406 C   0  0  0  0  0  0  0  0  0  0  0  0
  -27.3296  -34.3007   22.8274 C   0  0  0  0  0  0  0  0  0  0  0  0
  -23.9228   -9.6229   22.1447 C   0  0  0  0  0  0  0  0  0  0  0  0
  -24.3430  -11.2674   23.8640 C   0  0  0  0  0  0  0  0  0  0  0  0
  -30.7625  -20.0258   19.4692 C   0  0  0  0  0  0  0  0  0  0  0  0
  -25.6283  -35.8285   23.5935 C   0  0  0  0  0  0  0  0  0  0  0  0
  -26.5120  -33.2238   23.1682 C   0  0  0  0  0  0  0  0  0  0  0  0
  -26.3955  -29.6593   19.5729 C   0  0  0  0  0  0  0  0  0  0  0  0
  -30.5351  -18.6534   19.3677 C   0  0  0  0  0  0  0  0  0  0  0  0
  -23.4601   -8.7303   23.1115 C   0  0  0  0  0  0  0  0  0  0  0  0
  -23.8802  -10.3748   24.8308 C   0  0  0  0  0  0  0  0  0  0  0  0
  -27.4878  -28.7964   19.4963 C   0  0  0  0  0  0  0  0  0  0  0  0
  -20.6327   -8.2408   24.9001 C   0  0  0  0  0  0  0  0  0  0  0  0
  -19.4549   -7.5446   24.6287 C   0  0  0  0  0  0  0  0  0  0  0  0
  -28.3788  -20.4180   19.5056 C   0  0  0  0  0  0  0  0  0  0  0  0
  -26.2342  -27.1136   20.6863 C   0  0  0  0  0  0  0  0  0  0  0  0
  -20.6490   -5.4525   24.8138 C   0  0  0  0  0  0  0  0  0  0  0  0
  -24.3643  -10.8915   22.5209 C   0  0  0  0  0  0  0  0  0  0  0  0
  -29.6843  -20.9082   19.5382 C   0  0  0  0  0  0  0  0  0  0  0  0
  -24.0851  -12.7582   20.8049 C   0  0  0  0  0  0  0  0  0  0  0  0
  -24.7908  -34.7540   23.9322 C   0  0  0  0  0  0  0  0  0  0  0  0
  -25.2161  -29.2592   20.2175 C   0  0  0  0  0  0  0  0  0  0  0  0
  -25.2403  -33.4355   23.7274 C   0  0  0  0  0  0  0  0  0  0  0  0
  -25.1275  -27.9724   20.7675 C   0  0  0  0  0  0  0  0  0  0  0  0
  -29.2296  -18.1633   19.3351 C   0  0  0  0  0  0  0  0  0  0  0  0
  -23.4388   -9.1062   24.4545 C   0  0  0  0  0  0  0  0  0  0  0  0
  -27.4083  -27.5243   20.0555 C   0  0  0  0  0  0  0  0  0  0  0  0
  -21.8187   -7.5429   25.1282 C   0  0  0  0  0  0  0  0  0  0  0  0
  -19.4630   -6.1504   24.5856 C   0  0  0  0  0  0  0  0  0  0  0  0
  -28.1514  -19.0456   19.4041 C   0  0  0  0  0  0  0  0  0  0  0  0
  -21.8269   -6.1488   25.0851 C   0  0  0  0  0  0  0  0  0  0  0  0
  -24.8430  -11.8138   21.5228 C   0  0  0  0  0  0  0  0  0  0  0  0
  -24.9969  -13.3807   19.9879 C   0  0  0  0  0  0  0  0  0  0  0  0
  -29.9272  -22.3738   19.6464 C   0  0  0  0  0  0  0  0  0  0  0  0
  -22.6823  -13.0471   20.8708 C   0  0  0  0  0  0  0  0  0  0  0  0
  -23.5846  -30.2812   22.7468 C   0  0  0  0  0  0  0  0  0  0  0  0
  -29.2746  -24.5410   19.1858 C   0  0  0  0  0  0  0  0  0  0  0  0
  -21.4390  -28.0503   21.7762 C   0  0  0  0  0  0  0  0  0  0  0  0
  -20.8381  -25.1617   20.0609 C   0  0  0  0  0  0  0  0  0  0  0  0
  -29.9614  -15.7596   19.1526 C   0  0  0  0  0  0  0  0  0  0  0  0
  -23.4564  -35.0470   24.5711 C   0  0  0  0  0  0  0  0  0  0  0  0
  -24.0374  -30.1921   20.2683 C   0  0  0  0  0  0  0  0  0  0  0  0
  -23.8770  -27.4872   21.4526 C   0  0  0  0  0  0  0  0  0  0  0  0
  -22.5002  -33.8571   24.5574 C   0  0  0  0  0  0  0  0  0  0  0  0
  -29.8053  -12.2098   18.9248 C   0  0  0  0  0  0  0  0  0  0  0  0
  -23.2186  -32.5897   25.0093 C   0  0  0  0  0  0  0  0  0  0  0  0
  -28.4380  -11.8680   19.5213 C   0  0  0  0  0  0  0  0  0  0  0  0
  -30.4660  -13.3786   19.6537 C   0  0  0  0  0  0  0  0  0  0  0  0
  -28.2718  -14.2450   20.3637 C   0  0  0  0  0  0  0  0  0  0  0  0
  -24.3723  -32.2416   24.0609 C   0  0  1  0  0  0  0  0  0  0  0  0
  -23.0661  -29.8667   21.3988 C   0  0  1  0  0  0  0  0  0  0  0  0
  -27.5388  -13.1159   19.6210 C   0  0  2  0  0  0  0  0  0  0  0  0
  -31.1898  -22.8350   20.3483 C   0  0  0  0  0  0  0  0  0  0  0  0
  -18.9926  -23.5642   19.4784 C   0  0  0  0  0  0  0  0  0  0  0  0
  -21.5487  -26.8978   24.5993 C   0  0  0  0  0  0  0  0  0  0  0  0
  -20.4739  -24.8162   23.7163 C   0  0  0  0  0  0  0  0  0  0  0  0
  -19.2585  -26.9914   23.5990 C   0  0  0  0  0  0  0  0  0  0  0  0
  -21.1686  -25.6557   17.1617 C   0  0  0  0  0  0  0  0  0  0  0  0
  -28.1921  -25.2819   19.9418 C   0  0  0  0  0  0  0  0  0  1  0  0
  -21.2206  -26.5833   22.0578 C   0  0  1  0  0  0  0  0  0  0  0  0
  -19.7707  -24.7969   19.0451 C   0  0  2  0  0  0  0  0  0  0  0  0
  -20.6498  -26.3317   23.4819 C   0  0  0  0  0  0  0  0  0  0  0  0
  -26.1367  -11.8310   21.1909 N   0  0  0  0  0  0  0  0  0  0  0  0
  -29.0502  -23.1856   19.1338 N   0  0  0  0  0  0  0  0  0  0  0  0
  -26.1987  -12.7939   20.2554 N   0  0  0  0  0  0  0  0  0  0  0  0
  -22.7537  -28.4386   21.4820 N   0  0  0  0  0  0  0  0  0  0  0  0
  -29.5574  -14.5260   19.7056 N   0  0  0  0  0  0  0  0  0  0  0  0
  -24.8800  -14.3673   19.0739 N   0  0  0  0  0  0  0  0  0  0  0  0
  -21.8903  -12.3136   21.7647 N   0  0  0  0  0  0  0  0  0  0  0  0
  -29.0021  -16.7686   19.2313 N   0  0  0  0  0  0  0  0  0  0  0  0
  -23.8652  -31.6302   22.8512 N   0  0  0  0  0  0  0  0  0  0  0  0
  -20.3768  -26.0817   20.9786 N   0  0  0  0  0  0  0  0  0  0  0  0
  -20.3912  -24.5190   17.7189 N   0  3  0  0  0  0  0  0  0  0  0  0
  -22.1440  -13.9182   20.1462 O   0  0  0  0  0  0  0  0  0  0  0  0
  -23.7186  -29.4396   23.6274 O   0  0  0  0  0  0  0  0  0  0  0  0
  -30.2177  -25.1215   18.6545 O   0  0  0  0  0  0  0  0  0  0  0  0
  -20.4772  -28.8220   21.8088 O   0  0  0  0  0  0  0  0  0  0  0  0
  -21.9671  -24.6761   20.0445 O   0  0  0  0  0  0  0  0  0  0  0  0
  -31.0661  -15.9023   18.6222 O   0  0  0  0  0  0  0  0  0  0  0  0
  -22.9870   -8.2356   25.3982 O   0  0  0  0  0  0  0  0  0  0  0  0
  -28.4733  -26.6803   19.9827 O   0  0  0  0  0  0  0  0  0  1  0  0
  -18.3316   -5.4819   24.3266 F   0  0  0  0  0  0  0  0  0  0  0  0
  -26.8922  -18.5860   19.3731 F   0  0  0  0  0  0  0  0  0  0  0  0
  -22.9629   -5.4727   25.3046 F   0  0  0  0  0  0  0  0  0  0  0  0
  1  2  1  0  0  0  0
  1  6  2  0  0  0  0
  2  7  2  0  0  0  0
  3 10  2  0  0  0  0
  3 18  1  0  0  0  0
  4 11  1  0  0  0  0
  4 18  2  0  0  0  0
  5  9  2  0  0  0  0
  5 19  1  0  0  0  0
  6 21  1  0  0  0  0
  7 23  1  0  0  0  0
  8 12  2  0  0  0  0
  8 22  1  0  0  0  0
  9 25  1  0  0  0  0
 10 26  1  0  0  0  0
 11 26  2  0  0  0  0
 12 27  1  0  0  0  0
 13 14  2  0  0  0  0
 13 28  1  0  0  0  0
 14 29  1  0  0  0  0
 15 19  2  0  0  0  0
 15 30  1  0  0  0  0
 16 24  1  0  0  0  0
 16 27  2  0  0  0  0
 17 29  2  0  0  0  0
 17 31  1  0  0  0  0
 18 32  1  0  0  0  0
 19 34  1  0  0  0  0
 20 32  1  0  0  0  0
 20 33  2  0  0  0  0
 20 35  1  0  0  0  0
 21 23  2  0  0  0  0
 21 41  1  0  0  0  0
 22 24  2  0  0  0  0
 22 42  1  0  0  0  0
 23 50  1  0  0  0  0
 24 43  1  0  0  0  0
 25 30  2  0  0  0  0
 25 70  1  0  0  0  0
 26 80  1  0  0  0  0
 27 81  1  0  0  0  0
 28 31  2  0  0  0  0
 28 80  1  0  0  0  0
 29 82  1  0  0  0  0
 30 83  1  0  0  0  0
 31 84  1  0  0  0  0
 32 63  2  0  0  0  0
 33 65  1  0  0  0  0
 33 68  1  0  0  0  0
 34 53  1  0  0  0  0
 34 64  2  0  0  0  0
 35 69  1  0  0  0  0
 35 74  2  0  0  0  0
 36 51  1  0  0  0  0
 36 71  1  0  0  0  0
 36 75  2  0  0  0  0
 37 59  1  0  0  0  0
 37 64  1  0  0  0  0
 37 76  2  0  0  0  0
 38 60  1  0  0  0  0
 38 66  1  0  0  0  0
 38 77  2  0  0  0  0
 39 61  1  0  0  0  0
 39 72  1  0  0  0  0
 39 78  2  0  0  0  0
 40 67  1  0  0  0  0
 40 70  1  0  0  0  0
 40 79  2  0  0  0  0
 41 44  1  0  0  0  0
 42 51  1  0  0  0  0
 43 66  1  0  0  0  0
 44 46  1  0  0  0  0
 45 47  1  0  0  0  0
 45 48  1  0  0  0  0
 46 50  1  0  0  0  0
 47 52  1  0  0  0  0
 48 67  1  0  0  0  0
 49 52  1  0  0  0  0
 49 67  1  0  0  0  0
 50 71  1  0  0  0  0
 51 66  1  0  0  0  0
 52 65  1  0  0  0  0
 54 61  1  0  0  0  0
 55 62  1  0  0  0  0
 56 62  1  0  0  0  0
 57 62  1  0  0  0  0
 58 73  1  0  0  0  0
 59 81  1  0  0  0  0
 60 62  1  0  0  0  0
 60 72  1  0  0  0  0
 61 73  1  0  0  0  0
 63 65  1  0  0  0  0
M  CHG  1  73   1
M  ISO  4  40 100  59 101  70 100  81 101
M  END
> <Batch ID>
0100

> <Smiles>
CNC(C)C(=O)NC(C(=O)N1Cc2cc([101O:1][101CH2:1]C(=O)N=C(C)c3ccc([100NH:0][100C:0](=O)N4CCCC(n5nc(-c6ccc(Oc7ccc(F)cc7F)cc6)c(C(N)=O)c5N)C4)c(F)c3)ccc2CC1C(=O)NC1CCCc2ccccc21)C(C)(C)C

> <Shape>
0.345

> <Color>
0.155

> <Negative vol penalty>
0.000

$$$$

  -OEChem-04052300573D

 85 93  0     1  0  0  0  0  0999 V2000
  -27.9878  -24.5598   16.7284 C   0  0  0  0  0  0  0  0  0  0  0  0
  -26.8366  -24.7326   17.4901 C   0  0  0  0  0  0  0  0  0  0  0  0
  -26.0017  -13.0537   22.2513 C   0  0  0  0  0  0  0  0  0  0  0  0
  -25.3609  -14.4220   20.3661 C   0  0  0  0  0  0  0  0  0  0  0  0
  -29.1930  -25.1183   17.1520 C   0  0  0  0  0  0  0  0  0  0  0  0
  -26.8901  -25.4632   18.6766 C   0  0  0  0  0  0  0  0  0  0  0  0
  -23.0293  -28.7078   19.1362 C   0  0  0  0  0  0  0  0  0  0  0  0
  -24.7738  -22.6745   21.5283 C   0  0  0  0  0  0  0  0  0  0  0  0
  -23.5028  -23.2095   21.7382 C   0  0  0  0  0  0  0  0  0  0  0  0
  -24.8881  -12.2408   22.0399 C   0  0  0  0  0  0  0  0  0  0  0  0
  -24.2473  -13.6091   20.1546 C   0  0  0  0  0  0  0  0  0  0  0  0
  -21.7980  -28.1814   19.5244 C   0  0  0  0  0  0  0  0  0  0  0  0
  -22.4113   -9.5930   21.7754 C   0  0  0  0  0  0  0  0  0  0  0  0
  -22.5970   -8.2117   21.8302 C   0  0  0  0  0  0  0  0  0  0  0  0
  -22.2028  -28.9179   21.7856 C   0  0  0  0  0  0  0  0  0  0  0  0
  -25.7557  -24.5508   22.6912 C   0  0  0  0  0  0  0  0  0  0  0  0
  -24.1784   -8.3520   20.0091 C   0  0  0  0  0  0  0  0  0  0  0  0
  -26.2381  -14.1443   21.4145 C   0  0  0  0  0  0  0  0  0  0  0  0
  -28.6733  -14.8268   21.0809 C   0  0  0  0  0  0  0  0  0  0  0  0
  -29.2593  -25.8643   18.3394 C   0  0  0  0  0  0  0  0  0  0  0  0
  -23.8628  -29.3346   20.0737 C   0  0  0  0  0  0  0  0  0  0  0  0
  -28.0976  -26.0311   19.1173 C   0  0  0  0  0  0  0  0  0  0  0  0
  -23.4430  -29.4537   21.4063 C   0  0  0  0  0  0  0  0  0  0  0  0
  -25.9002  -23.3451   22.0049 C   0  0  0  0  0  0  0  0  0  0  0  0
  -23.3583  -24.4152   22.4246 C   0  0  0  0  0  0  0  0  0  0  0  0
  -24.4847  -25.0858   22.9011 C   0  0  0  0  0  0  0  0  0  0  0  0
  -24.0109  -12.5184   20.9915 C   0  0  0  0  0  0  0  0  0  0  0  0
  -21.3858  -28.2839   20.8498 C   0  0  0  0  0  0  0  0  0  0  0  0
  -23.1092  -10.3539   20.8374 C   0  0  0  0  0  0  0  0  0  0  0  0
  -23.4805   -7.5912   20.9471 C   0  0  0  0  0  0  0  0  0  0  0  0
  -23.9927   -9.7334   19.9542 C   0  0  0  0  0  0  0  0  0  0  0  0
  -27.3879  -14.9848   21.6327 C   0  0  0  0  0  0  0  0  0  0  0  0
  -29.3983  -15.8746   21.5939 C   0  0  0  0  0  0  0  0  0  0  0  0
  -29.1678  -13.8229   20.1847 C   0  0  0  0  0  0  0  0  0  0  0  0
  -26.7795  -28.7779   21.2079 C   0  0  0  0  0  0  0  0  0  0  0  0
  -26.3165  -31.6183   22.7045 C   0  0  0  0  0  0  0  0  0  0  0  0
  -20.8491  -24.3876   22.2113 C   0  0  0  0  0  0  0  0  0  0  0  0
  -24.1179  -33.9244   23.9271 C   0  0  0  0  0  0  0  0  0  0  0  0
  -27.8517  -21.2744   23.6678 C   0  0  0  0  0  0  0  0  0  0  0  0
  -30.5947  -26.4089   18.7809 C   0  0  0  0  0  0  0  0  0  0  0  0
  -25.1761  -29.9209   19.6335 C   0  0  0  0  0  0  0  0  0  0  0  0
  -24.2919  -30.1351   22.4472 C   0  0  0  0  0  0  0  0  0  0  0  0
  -30.4875  -27.4854   19.8578 C   0  0  0  0  0  0  0  0  0  0  0  0
  -29.6435  -18.7424   25.4157 C   0  0  0  0  0  0  0  0  0  0  0  0
  -29.5230  -27.0481   20.9557 C   0  0  0  0  0  0  0  0  0  0  0  0
  -29.3846  -17.4780   24.5946 C   0  0  0  0  0  0  0  0  0  0  0  0
  -28.4176  -19.6523   25.4524 C   0  0  0  0  0  0  0  0  0  0  0  0
  -27.6109  -18.7427   23.3087 C   0  0  0  0  0  0  0  0  0  0  0  0
  -28.1103  -26.8380   20.3974 C   0  0  1  0  0  0  0  0  0  0  0  0
  -26.1717  -30.0830   20.7780 C   0  0  1  0  0  0  0  0  0  0  0  0
  -28.8366  -17.8201   23.1960 C   0  0  2  0  0  0  0  0  0  0  0  0
  -24.0376  -36.1253   25.1300 C   0  0  0  0  0  0  0  0  0  0  0  0
  -27.0137  -30.2111   25.3206 C   0  0  0  0  0  0  0  0  0  0  0  0
  -26.0120  -32.1491   26.5490 C   0  0  0  0  0  0  0  0  0  0  0  0
  -27.9928  -32.4991   25.0737 C   0  0  0  0  0  0  0  0  0  0  0  0
  -22.7188  -35.2369   21.6735 C   0  0  0  0  0  0  0  0  0  0  0  0
  -27.2588  -22.7726   21.7801 C   0  0  0  0  0  0  0  0  0  0  0  0
  -19.6864  -25.2751   22.6335 C   0  0  0  0  0  0  0  0  0  0  0  0
  -18.8689  -25.7758   21.4478 C   0  0  0  0  0  0  0  0  0  0  0  0
  -19.7051  -26.6357   20.5113 C   0  0  0  0  0  0  0  0  0  1  0  0
  -25.7349  -32.0458   24.0304 C   0  0  1  0  0  0  0  0  0  0  0  0
  -24.0531  -35.4335   23.7758 C   0  0  2  0  0  0  0  0  0  0  0  0
  -26.6729  -31.7117   25.2245 C   0  0  0  0  0  0  0  0  0  0  0  0
  -27.2983  -16.0489   22.4349 N   0  0  0  0  0  0  0  0  0  0  0  0
  -28.5367  -16.5691   22.3910 N   0  0  0  0  0  0  0  0  0  0  0  0
  -25.5703  -30.6867   21.9689 N   0  0  0  0  0  0  0  0  0  0  0  0
  -27.9490  -19.9397   24.0946 N   0  0  0  0  0  0  0  0  0  0  0  0
  -24.3613  -26.3084   23.5987 N   0  0  0  0  0  0  0  0  0  0  0  0
  -30.6824  -16.2603   21.4364 N   0  0  0  0  0  0  0  0  0  0  0  0
  -28.2891  -12.8189   19.7557 N   0  0  0  0  0  0  0  0  0  0  0  0
  -22.0588  -24.9383   22.6251 N   0  0  0  0  0  0  0  0  0  0  0  0
  -27.4502  -28.1108   20.2006 N   0  0  0  0  0  0  0  0  0  0  0  0
  -25.4172  -33.4636   23.8986 N   0  0  0  0  0  0  0  0  0  0  0  0
  -27.4052  -21.4583   22.3649 N   0  0  0  0  0  0  0  0  0  0  0  0
  -22.8227  -35.8273   23.0328 N   0  3  0  0  0  0  0  0  0  0  0  0
  -30.3582  -13.8069   19.7894 O   0  0  0  0  0  0  0  0  0  0  0  0
  -26.6510  -28.4045   22.3679 O   0  0  0  0  0  0  0  0  0  0  0  0
  -27.3898  -32.0988   22.3319 O   0  0  0  0  0  0  0  0  0  0  0  0
  -20.6791  -23.3423   21.5926 O   0  0  0  0  0  0  0  0  0  0  0  0
  -23.1164  -33.2248   24.0611 O   0  0  0  0  0  0  0  0  0  0  0  0
  -28.1465  -22.2311   24.3922 O   0  0  0  0  0  0  0  0  0  0  0  0
  -22.9243  -11.7253   20.7848 O   0  0  0  0  0  0  0  0  0  0  0  0
  -20.1848  -27.7704   21.2315 O   0  0  0  0  0  0  0  0  0  1  0  0
  -23.6599   -6.2649   21.0008 F   0  0  0  0  0  0  0  0  0  0  0  0
  -24.6668  -10.4592   19.0517 F   0  0  0  0  0  0  0  0  0  0  0  0
  1  2  1  0  0  0  0
  1  5  2  0  0  0  0
  2  6  2  0  0  0  0
  3 10  2  0  0  0  0
  3 18  1  0  0  0  0
  4 11  1  0  0  0  0
  4 18  2  0  0  0  0
  5 20  1  0  0  0  0
  6 22  1  0  0  0  0
  7 12  2  0  0  0  0
  7 21  1  0  0  0  0
  8  9  2  0  0  0  0
  8 24  1  0  0  0  0
  9 25  1  0  0  0  0
 10 27  1  0  0  0  0
 11 27  2  0  0  0  0
 12 28  1  0  0  0  0
 13 14  2  0  0  0  0
 13 29  1  0  0  0  0
 14 30  1  0  0  0  0
 15 23  1  0  0  0  0
 15 28  2  0  0  0  0
 16 24  2  0  0  0  0
 16 26  1  0  0  0  0
 17 30  2  0  0  0  0
 17 31  1  0  0  0  0
 18 32  1  0  0  0  0
 19 32  1  0  0  0  0
 19 33  2  0  0  0  0
 19 34  1  0  0  0  0
 20 22  2  0  0  0  0
 20 40  1  0  0  0  0
 21 23  2  0  0  0  0
 21 41  1  0  0  0  0
 22 49  1  0  0  0  0
 23 42  1  0  0  0  0
 24 57  1  0  0  0  0
 25 26  2  0  0  0  0
 25 71  1  0  0  0  0
 26 68  1  0  0  0  0
 27 82  1  0  0  0  0
 28 83  1  0  0  0  0
 29 31  2  0  0  0  0
 29 82  1  0  0  0  0
 30 84  1  0  0  0  0
 31 85  1  0  0  0  0
 32 64  2  0  0  0  0
 33 65  1  0  0  0  0
 33 69  1  0  0  0  0
 34 70  1  0  0  0  0
 34 76  2  0  0  0  0
 35 50  1  0  0  0  0
 35 72  1  0  0  0  0
 35 77  2  0  0  0  0
 36 61  1  0  0  0  0
 36 66  1  0  0  0  0
 36 78  2  0  0  0  0
 37 58  1  0  0  0  0
 37 71  1  0  0  0  0
 37 79  2  0  0  0  0
 38 62  1  0  0  0  0
 38 73  1  0  0  0  0
 38 80  2  0  0  0  0
 39 67  1  0  0  0  0
 39 74  1  0  0  0  0
 39 81  2  0  0  0  0
 40 43  1  0  0  0  0
 41 50  1  0  0  0  0
 42 66  1  0  0  0  0
 43 45  1  0  0  0  0
 44 46  1  0  0  0  0
 44 47  1  0  0  0  0
 45 49  1  0  0  0  0
 46 51  1  0  0  0  0
 47 67  1  0  0  0  0
 48 51  1  0  0  0  0
 48 67  1  0  0  0  0
 49 72  1  0  0  0  0
 50 66  1  0  0  0  0
 51 65  1  0  0  0  0
 52 62  1  0  0  0  0
 53 63  1  0  0  0  0
 54 63  1  0  0  0  0
 55 63  1  0  0  0  0
 56 75  1  0  0  0  0
 57 74  1  0  0  0  0
 58 59  1  0  0  0  0
 59 60  1  0  0  0  0
 60 83  1  0  0  0  0
 61 63  1  0  0  0  0
 61 73  1  0  0  0  0
 62 75  1  0  0  0  0
 64 65  1  0  0  0  0
M  CHG  1  75   1
M  ISO  4  39 100  60 101  74 100  83 101
M  END
> <Batch ID>
0100

> <Smiles>
CNC(C)C(=O)NC(C(=O)N1Cc2cc([101O:1][101CH2:1]CCC(=O)Nc3ccc(C[100NH:0][100C:0](=O)N4CCCC(n5nc(-c6ccc(Oc7ccc(F)cc7F)cc6)c(C(N)=O)c5N)C4)cc3N)ccc2CC1C(=O)NC1CCCc2ccccc21)C(C)(C)C

> <Shape>
0.305

> <Color>
0.077

> <Negative vol penalty>
0.000

$$$$

  -OEChem-04052300573D

 86 95  0     1  0  0  0  0  0999 V2000
  -22.7526   -8.5734   21.9433 C   0  0  0  0  0  0  0  0  0  0  0  0
  -23.9808   -9.1495   22.2515 C   0  0  0  0  0  0  0  0  0  0  0  0
  -22.1990  -29.0550   23.5663 C   0  0  0  0  0  0  0  0  0  0  0  0
  -21.2368  -28.6253   21.3923 C   0  0  0  0  0  0  0  0  0  0  0  0
  -31.9128  -23.5236   20.0060 C   0  0  0  0  0  0  0  0  0  0  0  0
  -21.9842   -9.0888   20.9003 C   0  0  0  0  0  0  0  0  0  0  0  0
  -24.4419  -10.2409   21.5161 C   0  0  0  0  0  0  0  0  0  0  0  0
  -28.3025  -16.2314   22.2407 C   0  0  0  0  0  0  0  0  0  0  0  0
  -30.8392  -24.3905   19.8025 C   0  0  0  0  0  0  0  0  0  0  0  0
  -21.0495  -28.5510   24.1747 C   0  0  0  0  0  0  0  0  0  0  0  0
  -20.0873  -28.1212   22.0007 C   0  0  0  0  0  0  0  0  0  0  0  0
  -29.3867  -16.8905   21.6629 C   0  0  0  0  0  0  0  0  0  0  0  0
  -17.3094  -29.3521   23.4837 C   0  0  0  0  0  0  0  0  0  0  0  0
  -16.0758  -29.7633   22.9792 C   0  0  0  0  0  0  0  0  0  0  0  0
  -32.5786  -23.8070   17.7009 C   0  0  0  0  0  0  0  0  0  0  0  0
  -27.9379  -17.7460   19.9344 C   0  0  0  0  0  0  0  0  0  0  0  0
  -15.5171  -27.4676   22.4742 C   0  0  0  0  0  0  0  0  0  0  0  0
  -22.2926  -29.0922   22.1751 C   0  0  0  0  0  0  0  0  0  0  0  0
  -32.7826  -23.2319   18.9552 C   0  0  0  0  0  0  0  0  0  0  0  0
  -24.0117  -30.9100   21.6770 C   0  0  0  0  0  0  0  0  0  0  0  0
  -22.4317  -10.1930   20.1580 C   0  0  0  0  0  0  0  0  0  0  0  0
  -27.0278  -16.3160   21.6625 C   0  0  0  0  0  0  0  0  0  0  0  0
  -23.6794  -10.7707   20.4613 C   0  0  0  0  0  0  0  0  0  0  0  0
  -26.8386  -17.0892   20.5082 C   0  0  0  0  0  0  0  0  0  0  0  0
  -30.6352  -24.9656   18.5482 C   0  0  0  0  0  0  0  0  0  0  0  0
  -19.9936  -28.0841   23.3919 C   0  0  0  0  0  0  0  0  0  0  0  0
  -29.2051  -17.6456   20.5080 C   0  0  0  0  0  0  0  0  0  0  0  0
  -17.6470  -27.9987   23.4834 C   0  0  0  0  0  0  0  0  0  0  0  0
  -15.1796  -28.8211   22.4745 C   0  0  0  0  0  0  0  0  0  0  0  0
  -31.5049  -24.6739   17.4974 C   0  0  0  0  0  0  0  0  0  0  0  0
  -16.7509  -27.0565   22.9787 C   0  0  0  0  0  0  0  0  0  0  0  0
  -23.4796  -29.6133   21.5460 C   0  0  0  0  0  0  0  0  0  0  0  0
  -25.1351  -30.9016   20.8869 C   0  0  0  0  0  0  0  0  0  0  0  0
  -33.9150  -22.3172   19.1699 C   0  0  0  0  0  0  0  0  0  0  0  0
  -23.5333  -32.0227   22.4444 C   0  0  0  0  0  0  0  0  0  0  0  0
  -24.9926  -14.2240   20.4034 C   0  0  0  0  0  0  0  0  0  0  0  0
  -23.0323  -16.8047   20.2643 C   0  0  0  0  0  0  0  0  0  0  0  0
  -22.7177  -20.2007   20.1419 C   0  0  0  0  0  0  0  0  0  0  0  0
  -28.5816  -26.2448   19.2768 C   0  0  0  0  0  0  0  0  0  0  0  0
  -21.5878  -10.6855   19.0091 C   0  0  0  0  0  0  0  0  0  0  0  0
  -25.8633  -15.6209   22.3130 C   0  0  0  0  0  0  0  0  0  0  0  0
  -25.4863  -17.2285   19.8598 C   0  0  0  0  0  0  0  0  0  0  0  0
  -21.9766  -12.0786   18.5210 C   0  0  0  0  0  0  0  0  0  0  0  0
  -26.2815  -28.2852   16.9811 C   0  0  0  0  0  0  0  0  0  0  0  0
  -23.4899  -12.1854   18.3617 C   0  0  0  0  0  0  0  0  0  0  0  0
  -25.9196  -29.4238   17.9319 C   0  0  0  0  0  0  0  0  0  0  0  0
  -33.9710  -18.8441   20.4095 C   0  0  0  0  0  0  0  0  0  0  0  0
  -27.5916  -27.6080   17.3632 C   0  0  0  0  0  0  0  0  0  0  0  0
  -34.6785  -20.0424   19.7959 C   0  0  0  0  0  0  0  0  0  0  0  0
  -32.3040  -20.4252   19.7539 C   0  0  0  0  0  0  0  0  0  0  0  0
  -26.5398  -27.6200   19.6325 C   0  0  0  0  0  0  0  0  0  0  0  0
  -24.2023  -11.9711   19.7026 C   0  0  1  0  0  0  0  0  0  0  0  0
  -24.7106  -15.3570   21.3491 C   0  0  1  0  0  0  0  0  0  0  0  0
  -32.5708  -18.9216   19.7964 C   0  0  2  0  0  0  0  0  0  0  0  0
  -26.2617  -29.1137   19.4027 C   0  0  2  0  0  0  0  0  0  0  0  0
  -20.9902  -22.0150   19.9954 C   0  0  0  0  0  0  0  0  0  0  0  0
  -22.6494  -16.1973   17.2987 C   0  0  0  0  0  0  0  0  0  0  0  0
  -21.7299  -18.5087   17.0154 C   0  0  0  0  0  0  0  0  0  0  0  0
  -20.5653  -16.8785   18.5017 C   0  0  0  0  0  0  0  0  0  0  0  0
  -23.5434  -21.3565   22.7383 C   0  0  0  0  0  0  0  0  0  0  0  0
  -31.5284  -18.1480   20.5836 C   0  0  0  0  0  0  0  0  0  1  0  0
  -22.7603  -17.8871   19.2477 C   0  0  1  0  0  0  0  0  0  0  0  0
  -21.8382  -21.1597   20.9239 C   0  0  2  0  0  0  0  0  0  0  0  0
  -21.9522  -17.3639   18.0268 C   0  0  0  0  0  0  0  0  0  0  0  0
  -24.2052  -28.8376   20.7362 N   0  0  0  0  0  0  0  0  0  0  0  0
  -25.2047  -29.6492   20.3512 N   0  0  0  0  0  0  0  0  0  0  0  0
  -33.6259  -21.0221   19.5713 N   0  0  0  0  0  0  0  0  0  0  0  0
  -24.3802  -16.5248   20.5299 N   0  0  0  0  0  0  0  0  0  0  0  0
  -27.6143  -27.1390   18.7563 N   0  0  0  0  0  0  0  0  0  0  0  0
  -26.0603  -31.8434   20.6049 N   0  0  0  0  0  0  0  0  0  0  0  0
  -22.6368  -32.9147   21.8404 N   0  0  0  0  0  0  0  0  0  0  0  0
  -29.5430  -25.8456   18.3446 N   0  0  0  0  0  0  0  0  0  0  0  0
  -24.1141  -13.1635   20.5181 N   0  0  0  0  0  0  0  0  0  0  0  0
  -22.1111  -18.9741   19.9725 N   0  0  0  0  0  0  0  0  0  0  0  0
  -22.6753  -22.0639   21.7621 N   0  3  0  0  0  0  0  0  0  0  0  0
  -35.0443  -22.7597   18.9687 O   0  0  0  0  0  0  0  0  0  0  0  0
  -23.9030  -32.2291   23.6251 O   0  0  0  0  0  0  0  0  0  0  0  0
  -25.9364  -14.3064   19.6262 O   0  0  0  0  0  0  0  0  0  0  0  0
  -22.0837  -16.2337   20.8081 O   0  0  0  0  0  0  0  0  0  0  0  0
  -23.8298  -20.5102   19.7202 O   0  0  0  0  0  0  0  0  0  0  0  0
  -28.5592  -25.8797   20.4541 O   0  0  0  0  0  0  0  0  0  0  0  0
  -18.8719  -27.5919   23.9853 O   0  0  0  0  0  0  0  0  0  0  0  0
  -30.2618  -18.2894   19.9417 O   0  0  0  0  0  0  0  0  0  1  0  0
  -13.9943  -29.2159   21.9915 F   0  0  0  0  0  0  0  0  0  0  0  0
  -31.3184  -25.2203   16.2872 F   0  0  0  0  0  0  0  0  0  0  0  0
  -17.0691  -25.7547   22.9768 F   0  0  0  0  0  0  0  0  0  0  0  0
  1  2  1  0  0  0  0
  1  6  2  0  0  0  0
  2  7  2  0  0  0  0
  3 10  2  0  0  0  0
  3 18  1  0  0  0  0
  4 11  1  0  0  0  0
  4 18  2  0  0  0  0
  5  9  2  0  0  0  0
  5 19  1  0  0  0  0
  6 21  1  0  0  0  0
  7 23  1  0  0  0  0
  8 12  2  0  0  0  0
  8 22  1  0  0  0  0
  9 25  1  0  0  0  0
 10 26  1  0  0  0  0
 11 26  2  0  0  0  0
 12 27  1  0  0  0  0
 13 14  2  0  0  0  0
 13 28  1  0  0  0  0
 14 29  1  0  0  0  0
 15 19  2  0  0  0  0
 15 30  1  0  0  0  0
 16 24  1  0  0  0  0
 16 27  2  0  0  0  0
 17 29  2  0  0  0  0
 17 31  1  0  0  0  0
 18 32  1  0  0  0  0
 19 34  1  0  0  0  0
 20 32  1  0  0  0  0
 20 33  2  0  0  0  0
 20 35  1  0  0  0  0
 21 23  2  0  0  0  0
 21 40  1  0  0  0  0
 22 24  2  0  0  0  0
 22 41  1  0  0  0  0
 23 52  1  0  0  0  0
 24 42  1  0  0  0  0
 25 30  2  0  0  0  0
 25 72  1  0  0  0  0
 26 82  1  0  0  0  0
 27 83  1  0  0  0  0
 28 31  2  0  0  0  0
 28 82  1  0  0  0  0
 29 84  1  0  0  0  0
 30 85  1  0  0  0  0
 31 86  1  0  0  0  0
 32 65  2  0  0  0  0
 33 66  1  0  0  0  0
 33 70  1  0  0  0  0
 34 67  1  0  0  0  0
 34 76  2  0  0  0  0
 35 71  1  0  0  0  0
 35 77  2  0  0  0  0
 36 53  1  0  0  0  0
 36 73  1  0  0  0  0
 36 78  2  0  0  0  0
 37 62  1  0  0  0  0
 37 68  1  0  0  0  0
 37 79  2  0  0  0  0
 38 63  1  0  0  0  0
 38 74  1  0  0  0  0
 38 80  2  0  0  0  0
 39 69  1  0  0  0  0
 39 72  1  0  0  0  0
 39 81  2  0  0  0  0
 40 43  1  0  0  0  0
 41 53  1  0  0  0  0
 42 68  1  0  0  0  0
 43 45  1  0  0  0  0
 44 46  1  0  0  0  0
 44 48  1  0  0  0  0
 45 52  1  0  0  0  0
 46 55  1  0  0  0  0
 47 49  1  0  0  0  0
 47 54  1  0  0  0  0
 48 69  1  0  0  0  0
 49 67  1  0  0  0  0
 50 54  1  0  0  0  0
 50 67  1  0  0  0  0
 51 55  1  0  0  0  0
 51 69  1  0  0  0  0
 52 73  1  0  0  0  0
 53 68  1  0  0  0  0
 54 61  1  0  0  0  0
 55 66  1  0  0  0  0
 56 63  1  0  0  0  0
 57 64  1  0  0  0  0
 58 64  1  0  0  0  0
 59 64  1  0  0  0  0
 60 75  1  0  0  0  0
 61 83  1  0  0  0  0
 62 64  1  0  0  0  0
 62 74  1  0  0  0  0
 63 75  1  0  0  0  0
 65 66  1  0  0  0  0
M  CHG  1  75   1
M  ISO  4  39 100  61 101  72 100  83 101
M  END
> <Batch ID>
0100

> <Smiles>
CNC(C)C(=O)NC(C(=O)N1Cc2cc([101O:1][101CH2:1]C3CCN(C(=O)c4ccc([100NH:0][100C:0](=O)N5CCCC(n6nc(-c7ccc(Oc8ccc(F)cc8F)cc7)c(C(N)=O)c6N)C5)c(F)c4)C3)ccc2CC1C(=O)NC1CCCc2ccccc21)C(C)(C)C

> <Shape>
0.251

> <Color>
0.076

> <Negative vol penalty>
0.000

$$$$

  -OEChem-04052300573D

 87 96  0     1  0  0  0  0  0999 V2000
  -16.6575  -30.5179   22.4469 C   0  0  0  0  0  0  0  0  0  0  0  0
  -17.6465  -30.8511   21.5270 C   0  0  0  0  0  0  0  0  0  0  0  0
  -33.1953  -21.2749   19.6938 C   0  0  0  0  0  0  0  0  0  0  0  0
  -25.1420  -12.3009   19.2571 C   0  0  0  0  0  0  0  0  0  0  0  0
  -26.0326  -13.3380   21.2492 C   0  0  0  0  0  0  0  0  0  0  0  0
  -16.9289  -30.5783   23.8131 C   0  0  0  0  0  0  0  0  0  0  0  0
  -18.9073  -31.2461   21.9729 C   0  0  0  0  0  0  0  0  0  0  0  0
  -24.8292  -27.6391   20.0205 C   0  0  0  0  0  0  0  0  0  0  0  0
  -33.1919  -22.6690   19.6479 C   0  0  0  0  0  0  0  0  0  0  0  0
  -32.0220  -20.5657   19.4367 C   0  0  0  0  0  0  0  0  0  0  0  0
  -24.6396  -11.2524   20.0276 C   0  0  0  0  0  0  0  0  0  0  0  0
  -25.5302  -12.2895   22.0197 C   0  0  0  0  0  0  0  0  0  0  0  0
  -26.0282  -27.1289   19.5221 C   0  0  0  0  0  0  0  0  0  0  0  0
  -25.8278   -8.4500   21.4970 C   0  0  0  0  0  0  0  0  0  0  0  0
  -26.0222   -7.1509   21.0277 C   0  0  0  0  0  0  0  0  0  0  0  0
  -27.2735  -28.6326   20.9490 C   0  0  0  0  0  0  0  0  0  0  0  0
  -30.8419  -22.6448   19.0878 C   0  0  0  0  0  0  0  0  0  0  0  0
  -23.6301   -6.8189   20.9560 C   0  0  0  0  0  0  0  0  0  0  0  0
  -25.8386  -13.3438   19.8679 C   0  0  0  0  0  0  0  0  0  0  0  0
  -27.2911  -14.3386   18.0217 C   0  0  0  0  0  0  0  0  0  0  0  0
  -18.1966  -30.9649   24.2758 C   0  0  0  0  0  0  0  0  0  0  0  0
  -24.8480  -28.6385   20.9973 C   0  0  0  0  0  0  0  0  0  0  0  0
  -19.1955  -31.3131   23.3466 C   0  0  0  0  0  0  0  0  0  0  0  0
  -26.0758  -29.1388   21.4609 C   0  0  0  0  0  0  0  0  0  0  0  0
  -32.0152  -23.3539   19.3449 C   0  0  0  0  0  0  0  0  0  0  0  0
  -30.8453  -21.2507   19.1337 C   0  0  0  0  0  0  0  0  0  0  0  0
  -24.8336  -11.2466   21.4089 C   0  0  0  0  0  0  0  0  0  0  0  0
  -27.2473  -27.6246   19.9851 C   0  0  0  0  0  0  0  0  0  0  0  0
  -24.5346   -8.9335   21.6959 C   0  0  0  0  0  0  0  0  0  0  0  0
  -24.9234   -6.3354   20.7572 C   0  0  0  0  0  0  0  0  0  0  0  0
  -23.4358   -8.1180   21.4253 C   0  0  0  0  0  0  0  0  0  0  0  0
  -26.3584  -14.4269   19.0725 C   0  0  0  0  0  0  0  0  0  0  0  0
  -27.4528  -15.6345   17.5963 C   0  0  0  0  0  0  0  0  0  0  0  0
  -33.2128  -25.4498   18.9170 C   0  0  0  0  0  0  0  0  0  0  0  0
  -30.8079  -25.4703   19.6462 C   0  0  0  0  0  0  0  0  0  0  0  0
  -27.9521  -13.1880   17.4788 C   0  0  0  0  0  0  0  0  0  0  0  0
  -22.8655  -30.8960   23.2444 C   0  0  0  0  0  0  0  0  0  0  0  0
  -25.2591  -29.8907   24.8785 C   0  0  0  0  0  0  0  0  0  0  0  0
  -27.7858  -28.2290   26.4571 C   0  0  0  0  0  0  0  0  0  0  0  0
  -28.3478  -21.0193   19.1504 C   0  0  0  0  0  0  0  0  0  0  0  0
  -18.4285  -31.0608   25.7630 C   0  0  0  0  0  0  0  0  0  0  0  0
  -23.5808  -29.2607   21.5179 C   0  0  0  0  0  0  0  0  0  0  0  0
  -26.0474  -30.2383   22.4872 C   0  0  0  0  0  0  0  0  0  0  0  0
  -33.2449  -26.9598   19.0331 C   0  0  0  0  0  0  0  0  0  0  0  0
  -19.9046  -31.1283   26.1462 C   0  0  0  0  0  0  0  0  0  0  0  0
  -32.1227  -27.5383   19.8628 C   0  0  0  0  0  0  0  0  0  0  0  0
  -24.8742  -19.8372   18.6706 C   0  0  0  0  0  0  0  0  0  0  0  0
  -20.6390  -32.1351   25.2666 C   0  0  0  0  0  0  0  0  0  0  0  0
  -25.0213  -18.3180   18.7321 C   0  0  0  0  0  0  0  0  0  0  0  0
  -25.9448  -20.5438   19.4966 C   0  0  0  0  0  0  0  0  0  0  0  0
  -27.4865  -18.6281   19.1886 C   0  0  0  0  0  0  0  0  0  0  0  0
  -20.5831  -31.7224   23.7908 C   0  0  1  0  0  0  0  0  0  0  0  0
  -30.8107  -26.9649   19.3581 C   0  0  2  0  0  0  0  0  0  0  0  0
  -23.6662  -29.6499   23.0047 C   0  0  1  0  0  0  0  0  0  0  0  0
  -26.4441  -17.8942   18.3317 C   0  0  1  0  0  0  0  0  0  0  0  0
  -28.9238  -28.0321   28.6850 C   0  0  0  0  0  0  0  0  0  0  0  0
  -26.6849  -32.5407   24.3803 C   0  0  0  0  0  0  0  0  0  0  0  0
  -28.4164  -31.8413   26.0479 C   0  0  0  0  0  0  0  0  0  0  0  0
  -26.0443  -32.1321   26.7630 C   0  0  0  0  0  0  0  0  0  0  0  0
  -29.7493  -19.0989   18.5344 C   0  0  0  0  0  0  0  0  0  0  0  0
  -27.0793  -25.3649   26.6950 C   0  0  0  0  0  0  0  0  0  0  0  0
  -29.6252  -27.6699   20.0131 C   0  0  0  0  0  0  0  0  0  1  0  0
  -26.6736  -30.1423   25.3359 C   0  0  1  0  0  0  0  0  0  0  0  0
  -27.8307  -27.4856   27.7798 C   0  0  2  0  0  0  0  0  0  0  0  0
  -26.9492  -31.6479   25.6091 C   0  0  0  0  0  0  0  0  0  0  0  0
  -25.9559  -15.6799   19.3007 N   0  0  0  0  0  0  0  0  0  0  0  0
  -26.6390  -16.3908   18.3874 N   0  0  0  0  0  0  0  0  0  0  0  0
  -32.0126  -24.8026   19.2968 N   0  0  0  0  0  0  0  0  0  0  0  0
  -25.0194  -29.9533   23.5004 N   0  0  0  0  0  0  0  0  0  0  0  0
  -27.2905  -20.0864   19.1464 N   0  0  0  0  0  0  0  0  0  0  0  0
  -28.2103  -16.1894   16.6264 N   0  0  0  0  0  0  0  0  0  0  0  0
  -27.6708  -11.9320   18.0335 N   0  0  0  0  0  0  0  0  0  0  0  0
  -21.5329  -30.6630   23.5259 N   0  0  0  0  0  0  0  0  0  0  0  0
  -26.8895  -29.2763   26.4900 N   0  0  0  0  0  0  0  0  0  0  0  0
  -29.6322  -20.5167   18.8678 N   0  0  0  0  0  0  0  0  0  0  0  0
  -28.0912  -26.0362   27.5508 N   0  3  0  0  0  0  0  0  0  0  0  0
  -34.1962  -24.8883   18.4233 O   0  0  0  0  0  0  0  0  0  0  0  0
  -29.8227  -24.9342   20.1576 O   0  0  0  0  0  0  0  0  0  0  0  0
  -28.7805  -13.2732   16.5406 O   0  0  0  0  0  0  0  0  0  0  0  0
  -23.4155  -31.9892   23.1804 O   0  0  0  0  0  0  0  0  0  0  0  0
  -24.3873  -29.6505   25.7185 O   0  0  0  0  0  0  0  0  0  0  0  0
  -28.4794  -27.9146   25.4924 O   0  0  0  0  0  0  0  0  0  0  0  0
  -28.1699  -22.2087   19.4406 O   0  0  0  0  0  0  0  0  0  0  0  0
  -24.3433  -10.2237   22.1611 O   0  0  0  0  0  0  0  0  0  0  0  0
  -28.4140  -27.1189   19.4976 O   0  0  0  0  0  0  0  0  0  1  0  0
  -25.1101   -5.0884   20.3051 F   0  0  0  0  0  0  0  0  0  0  0  0
  -22.1910   -8.5774   21.6133 F   0  0  0  0  0  0  0  0  0  0  0  0
  1  2  1  0  0  0  0
  1  6  2  0  0  0  0
  2  7  2  0  0  0  0
  3  9  2  0  0  0  0
  3 10  1  0  0  0  0
  4 11  2  0  0  0  0
  4 19  1  0  0  0  0
  5 12  1  0  0  0  0
  5 19  2  0  0  0  0
  6 21  1  0  0  0  0
  7 23  1  0  0  0  0
  8 13  2  0  0  0  0
  8 22  1  0  0  0  0
  9 25  1  0  0  0  0
 10 26  2  0  0  0  0
 11 27  1  0  0  0  0
 12 27  2  0  0  0  0
 13 28  1  0  0  0  0
 14 15  2  0  0  0  0
 14 29  1  0  0  0  0
 15 30  1  0  0  0  0
 16 24  1  0  0  0  0
 16 28  2  0  0  0  0
 17 25  2  0  0  0  0
 17 26  1  0  0  0  0
 18 30  2  0  0  0  0
 18 31  1  0  0  0  0
 19 32  1  0  0  0  0
 20 32  1  0  0  0  0
 20 33  2  0  0  0  0
 20 36  1  0  0  0  0
 21 23  2  0  0  0  0
 21 41  1  0  0  0  0
 22 24  2  0  0  0  0
 22 42  1  0  0  0  0
 23 52  1  0  0  0  0
 24 43  1  0  0  0  0
 25 68  1  0  0  0  0
 26 75  1  0  0  0  0
 27 84  1  0  0  0  0
 28 85  1  0  0  0  0
 29 31  2  0  0  0  0
 29 84  1  0  0  0  0
 30 86  1  0  0  0  0
 31 87  1  0  0  0  0
 32 66  2  0  0  0  0
 33 67  1  0  0  0  0
 33 71  1  0  0  0  0
 34 44  1  0  0  0  0
 34 68  1  0  0  0  0
 34 77  2  0  0  0  0
 35 53  1  0  0  0  0
 35 68  1  0  0  0  0
 35 78  2  0  0  0  0
 36 72  1  0  0  0  0
 36 79  2  0  0  0  0
 37 54  1  0  0  0  0
 37 73  1  0  0  0  0
 37 80  2  0  0  0  0
 38 63  1  0  0  0  0
 38 69  1  0  0  0  0
 38 81  2  0  0  0  0
 39 64  1  0  0  0  0
 39 74  1  0  0  0  0
 39 82  2  0  0  0  0
 40 70  1  0  0  0  0
 40 75  1  0  0  0  0
 40 83  2  0  0  0  0
 41 45  1  0  0  0  0
 42 54  1  0  0  0  0
 43 69  1  0  0  0  0
 44 46  1  0  0  0  0
 45 48  1  0  0  0  0
 46 53  1  0  0  0  0
 47 49  1  0  0  0  0
 47 50  1  0  0  0  0
 48 52  1  0  0  0  0
 49 55  1  0  0  0  0
 50 70  1  0  0  0  0
 51 55  1  0  0  0  0
 51 70  1  0  0  0  0
 52 73  1  0  0  0  0
 53 62  1  0  0  0  0
 54 69  1  0  0  0  0
 55 67  1  0  0  0  0
 56 64  1  0  0  0  0
 57 65  1  0  0  0  0
 58 65  1  0  0  0  0
 59 65  1  0  0  0  0
 60 75  1  0  0  0  0
 61 76  1  0  0  0  0
 62 85  1  0  0  0  0
 63 65  1  0  0  0  0
 63 74  1  0  0  0  0
 64 76  1  0  0  0  0
 66 67  1  0  0  0  0
M  CHG  1  76   1
M  ISO  4  40 100  62 101  75 100  85 101
M  END
> <Batch ID>
0100

> <Smiles>
CNC(C)C(=O)NC(C(=O)N1Cc2cc([101O:1][101CH2:1]C3CCC(=O)N(c4cccc([100N:0](C)[100C:0](=O)N5CCCC(n6nc(-c7ccc(Oc8ccc(F)cc8F)cc7)c(C(N)=O)c6N)C5)c4)C3=O)ccc2CC1C(=O)NC1CCCc2ccccc21)C(C)(C)C

> <Shape>
0.266

> <Color>
0.088

> <Negative vol penalty>
0.000

$$$$

  -OEChem-04052300573D

 84 92  0     1  0  0  0  0  0999 V2000
  -24.3090  -20.7027   18.7175 C   0  0  0  0  0  0  0  0  0  0  0  0
  -25.3600  -20.7942   19.6243 C   0  0  0  0  0  0  0  0  0  0  0  0
  -23.1073   -9.8164   20.7243 C   0  0  0  0  0  0  0  0  0  0  0  0
  -23.8258  -10.3775   22.9617 C   0  0  0  0  0  0  0  0  0  0  0  0
  -23.9244  -21.8234   17.9826 C   0  0  0  0  0  0  0  0  0  0  0  0
  -26.0278  -22.0062   19.7961 C   0  0  0  0  0  0  0  0  0  0  0  0
  -26.8183  -23.1146   24.6737 C   0  0  0  0  0  0  0  0  0  0  0  0
  -22.3686   -8.7467   21.2298 C   0  0  0  0  0  0  0  0  0  0  0  0
  -23.0871   -9.3078   23.4672 C   0  0  0  0  0  0  0  0  0  0  0  0
  -27.8659  -22.4549   25.3149 C   0  0  0  0  0  0  0  0  0  0  0  0
  -19.8553   -8.6364   24.1921 C   0  0  0  0  0  0  0  0  0  0  0  0
  -19.0778   -8.8666   25.3270 C   0  0  0  0  0  0  0  0  0  0  0  0
  -30.3579  -19.1128   22.8087 C   0  0  0  0  0  0  0  0  0  0  0  0
  -29.2597  -24.4029   25.0289 C   0  0  0  0  0  0  0  0  0  0  0  0
  -31.9907  -17.0919   21.7924 C   0  0  0  0  0  0  0  0  0  0  0  0
  -20.3217   -7.1751   26.5222 C   0  0  0  0  0  0  0  0  0  0  0  0
  -23.8360  -10.6318   21.5903 C   0  0  0  0  0  0  0  0  0  0  0  0
  -31.7407  -19.1822   22.9779 C   0  0  0  0  0  0  0  0  0  0  0  0
  -24.1591  -13.0601   20.8785 C   0  0  0  0  0  0  0  0  0  0  0  0
  -24.5814  -23.0523   18.1525 C   0  0  0  0  0  0  0  0  0  0  0  0
  -26.9873  -24.4217   24.1948 C   0  0  0  0  0  0  0  0  0  0  0  0
  -25.6524  -23.1441   19.0618 C   0  0  0  0  0  0  0  0  0  0  0  0
  -28.2119  -25.0779   24.3842 C   0  0  0  0  0  0  0  0  0  0  0  0
  -32.5571  -18.1718   22.4697 C   0  0  0  0  0  0  0  0  0  0  0  0
  -30.6078  -17.0225   21.6232 C   0  0  0  0  0  0  0  0  0  0  0  0
  -22.3585   -8.4923   22.6012 C   0  0  0  0  0  0  0  0  0  0  0  0
  -29.0877  -23.0980   25.4900 C   0  0  0  0  0  0  0  0  0  0  0  0
  -20.8660   -7.6755   24.2222 C   0  0  0  0  0  0  0  0  0  0  0  0
  -19.3110   -8.1360   26.4921 C   0  0  0  0  0  0  0  0  0  0  0  0
  -29.7915  -18.0329   22.1314 C   0  0  0  0  0  0  0  0  0  0  0  0
  -21.0992   -6.9449   25.3873 C   0  0  0  0  0  0  0  0  0  0  0  0
  -24.5998  -11.7367   21.0687 C   0  0  0  0  0  0  0  0  0  0  0  0
  -25.2514  -13.7152   20.3644 C   0  0  0  0  0  0  0  0  0  0  0  0
  -32.3165  -20.3418   23.7065 C   0  0  0  0  0  0  0  0  0  0  0  0
  -22.8771  -13.6451   21.1430 C   0  0  0  0  0  0  0  0  0  0  0  0
  -26.8763  -25.7926   21.3291 C   0  0  0  0  0  0  0  0  0  0  0  0
  -27.2114  -28.5206   23.0518 C   0  0  0  0  0  0  0  0  0  0  0  0
  -28.2720  -30.0183   25.9291 C   0  0  0  0  0  0  0  0  0  0  0  0
  -30.7048  -14.8393   20.3701 C   0  0  0  0  0  0  0  0  0  0  0  0
  -24.1608  -24.2241   17.3012 C   0  0  0  0  0  0  0  0  0  0  0  0
  -25.8389  -25.1292   23.5291 C   0  0  0  0  0  0  0  0  0  0  0  0
  -28.4380  -26.4883   23.9066 C   0  0  0  0  0  0  0  0  0  0  0  0
  -24.6754  -25.5662   17.8153 C   0  0  0  0  0  0  0  0  0  0  0  0
  -29.6530  -11.9183   18.6268 C   0  0  0  0  0  0  0  0  0  0  0  0
  -26.1550  -25.4688   18.1737 C   0  0  0  0  0  0  0  0  0  0  0  0
  -28.2083  -11.7196   19.0911 C   0  0  0  0  0  0  0  0  0  0  0  0
  -30.5445  -12.4374   19.7536 C   0  0  0  0  0  0  0  0  0  0  0  0
  -28.6071  -13.4459   20.8932 C   0  0  0  0  0  0  0  0  0  0  0  0
  -26.3851  -24.4476   19.2942 C   0  0  1  0  0  0  0  0  0  0  0  0
  -26.2858  -26.2734   22.6244 C   0  0  1  0  0  0  0  0  0  0  0  0
  -27.6571  -12.9858   19.7755 C   0  0  2  0  0  0  0  0  0  0  0  0
  -34.0411  -18.2216   22.6358 C   0  0  0  0  0  0  0  0  0  0  0  0
  -28.4475  -32.2662   27.0308 C   0  0  0  0  0  0  0  0  0  0  0  0
  -29.5911  -29.2058   21.2691 C   0  0  0  0  0  0  0  0  0  0  0  0
  -30.2836  -30.9101   22.9674 C   0  0  0  0  0  0  0  0  0  0  0  0
  -28.0926  -31.1373   21.7968 C   0  0  0  0  0  0  0  0  0  0  0  0
  -26.5264  -29.1857   28.1694 C   0  0  0  0  0  0  0  0  0  0  0  0
  -32.3419  -21.5981   25.8459 C   0  0  0  0  0  0  0  0  0  0  0  0
  -31.4372  -22.8110   25.7217 C   0  0  0  0  0  0  0  0  0  1  0  0
  -28.3819  -29.3356   23.5467 C   0  0  1  0  0  0  0  0  0  0  0  0
  -27.5981  -31.0175   26.8522 C   0  0  2  0  0  0  0  0  0  0  0  0
  -29.0840  -30.1199   22.4024 C   0  0  0  0  0  0  0  0  0  0  0  0
  -25.8727  -11.5597   20.7048 N   0  0  0  0  0  0  0  0  0  0  0  0
  -26.2412  -12.7806   20.2808 N   0  0  0  0  0  0  0  0  0  0  0  0
  -27.2868  -27.1356   23.2560 N   0  0  0  0  0  0  0  0  0  0  0  0
  -29.9614  -13.6402   20.3519 N   0  0  0  0  0  0  0  0  0  0  0  0
  -25.4521  -14.9936   19.9801 N   0  0  0  0  0  0  0  0  0  0  0  0
  -21.8668  -12.8298   21.6711 N   0  0  0  0  0  0  0  0  0  0  0  0
  -30.0352  -15.9243   20.9349 N   0  0  0  0  0  0  0  0  0  0  0  0
  -31.8934  -20.5093   25.0191 N   0  0  0  0  0  0  0  0  0  0  0  0
  -26.0200  -25.0125   20.5756 N   0  0  0  0  0  0  0  0  0  0  0  0
  -27.8675  -30.1784   24.6207 N   0  0  0  0  0  0  0  0  0  0  0  0
  -27.3676  -30.4100   28.1934 N   0  3  0  0  0  0  0  0  0  0  0  0
  -33.1001  -21.0872   23.1244 O   0  0  0  0  0  0  0  0  0  0  0  0
  -22.6297  -14.8511   20.9024 O   0  0  0  0  0  0  0  0  0  0  0  0
  -28.0234  -26.1072   21.0344 O   0  0  0  0  0  0  0  0  0  0  0  0
  -26.2620  -29.0927   22.5106 O   0  0  0  0  0  0  0  0  0  0  0  0
  -29.0794  -29.1822   26.3283 O   0  0  0  0  0  0  0  0  0  0  0  0
  -31.8407  -14.9059   19.8933 O   0  0  0  0  0  0  0  0  0  0  0  0
  -21.6375   -7.4487   23.0948 O   0  0  0  0  0  0  0  0  0  0  0  0
  -30.1121  -22.4561   26.1149 O   0  0  0  0  0  0  0  0  0  1  0  0
  -18.5653   -8.3582   27.5824 F   0  0  0  0  0  0  0  0  0  0  0  0
  -28.4611  -17.9758   21.9756 F   0  0  0  0  0  0  0  0  0  0  0  0
  -22.0695   -6.0212   25.4226 F   0  0  0  0  0  0  0  0  0  0  0  0
  1  2  1  0  0  0  0
  1  5  2  0  0  0  0
  2  6  2  0  0  0  0
  3  8  2  0  0  0  0
  3 17  1  0  0  0  0
  4  9  1  0  0  0  0
  4 17  2  0  0  0  0
  5 20  1  0  0  0  0
  6 22  1  0  0  0  0
  7 10  2  0  0  0  0
  7 21  1  0  0  0  0
  8 26  1  0  0  0  0
  9 26  2  0  0  0  0
 10 27  1  0  0  0  0
 11 12  2  0  0  0  0
 11 28  1  0  0  0  0
 12 29  1  0  0  0  0
 13 18  1  0  0  0  0
 13 30  2  0  0  0  0
 14 23  1  0  0  0  0
 14 27  2  0  0  0  0
 15 24  1  0  0  0  0
 15 25  2  0  0  0  0
 16 29  2  0  0  0  0
 16 31  1  0  0  0  0
 17 32  1  0  0  0  0
 18 24  2  0  0  0  0
 18 34  1  0  0  0  0
 19 32  1  0  0  0  0
 19 33  2  0  0  0  0
 19 35  1  0  0  0  0
 20 22  2  0  0  0  0
 20 40  1  0  0  0  0
 21 23  2  0  0  0  0
 21 41  1  0  0  0  0
 22 49  1  0  0  0  0
 23 42  1  0  0  0  0
 24 52  1  0  0  0  0
 25 30  1  0  0  0  0
 25 69  1  0  0  0  0
 26 80  1  0  0  0  0
 27 81  1  0  0  0  0
 28 31  2  0  0  0  0
 28 80  1  0  0  0  0
 29 82  1  0  0  0  0
 30 83  1  0  0  0  0
 31 84  1  0  0  0  0
 32 63  2  0  0  0  0
 33 64  1  0  0  0  0
 33 67  1  0  0  0  0
 34 70  1  0  0  0  0
 34 74  2  0  0  0  0
 35 68  1  0  0  0  0
 35 75  2  0  0  0  0
 36 50  1  0  0  0  0
 36 71  1  0  0  0  0
 36 76  2  0  0  0  0
 37 60  1  0  0  0  0
 37 65  1  0  0  0  0
 37 77  2  0  0  0  0
 38 61  1  0  0  0  0
 38 72  1  0  0  0  0
 38 78  2  0  0  0  0
 39 66  1  0  0  0  0
 39 69  1  0  0  0  0
 39 79  2  0  0  0  0
 40 43  1  0  0  0  0
 41 50  1  0  0  0  0
 42 65  1  0  0  0  0
 43 45  1  0  0  0  0
 44 46  1  0  0  0  0
 44 47  1  0  0  0  0
 45 49  1  0  0  0  0
 46 51  1  0  0  0  0
 47 66  1  0  0  0  0
 48 51  1  0  0  0  0
 48 66  1  0  0  0  0
 49 71  1  0  0  0  0
 50 65  1  0  0  0  0
 51 64  1  0  0  0  0
 53 61  1  0  0  0  0
 54 62  1  0  0  0  0
 55 62  1  0  0  0  0
 56 62  1  0  0  0  0
 57 73  1  0  0  0  0
 58 59  1  0  0  0  0
 58 70  1  0  0  0  0
 59 81  1  0  0  0  0
 60 62  1  0  0  0  0
 60 72  1  0  0  0  0
 61 73  1  0  0  0  0
 63 64  1  0  0  0  0
M  CHG  1  73   1
M  ISO  4  39 100  59 101  69 100  81 101
M  END
> <Batch ID>
0100

> <Smiles>
CNC(C)C(=O)NC(C(=O)N1Cc2cc([101O:1][101CH2:1]CNC(=O)c3cc(F)c([100NH:0][100C:0](=O)N4CCCC(n5nc(-c6ccc(Oc7ccc(F)cc7F)cc6)c(C(N)=O)c5N)C4)cc3C)ccc2CC1C(=O)NC1CCCc2ccccc21)C(C)(C)C

> <Shape>
0.201

> <Color>
0.161

> <Negative vol penalty>
0.000

$$$$

  -OEChem-04052300573D

 85 93  0     1  0  0  0  0  0999 V2000
  -21.7948  -11.9279   21.4489 C   0  0  0  0  0  0  0  0  0  0  0  0
  -21.8643  -13.3138   21.5351 C   0  0  0  0  0  0  0  0  0  0  0  0
  -20.3877  -27.2972   23.7163 C   0  0  0  0  0  0  0  0  0  0  0  0
  -20.3008  -28.5243   21.6369 C   0  0  0  0  0  0  0  0  0  0  0  0
  -22.9458  -11.1918   21.1760 C   0  0  0  0  0  0  0  0  0  0  0  0
  -23.0824  -13.9648   21.3366 C   0  0  0  0  0  0  0  0  0  0  0  0
  -22.9880  -18.8807   21.1689 C   0  0  0  0  0  0  0  0  0  0  0  0
  -23.5522  -27.6407   27.0356 C   0  0  0  0  0  0  0  0  0  0  0  0
  -24.0457  -28.8811   27.4399 C   0  0  0  0  0  0  0  0  0  0  0  0
  -18.9945  -27.2332   23.7368 C   0  0  0  0  0  0  0  0  0  0  0  0
  -18.9076  -28.4603   21.6574 C   0  0  0  0  0  0  0  0  0  0  0  0
  -22.7738  -19.6694   22.2984 C   0  0  0  0  0  0  0  0  0  0  0  0
  -15.4727  -26.4333   24.1511 C   0  0  0  0  0  0  0  0  0  0  0  0
  -14.8843  -25.2093   24.4693 C   0  0  0  0  0  0  0  0  0  0  0  0
  -25.1293  -20.1837   22.3785 C   0  0  0  0  0  0  0  0  0  0  0  0
  -25.6986  -27.1026   26.0659 C   0  0  0  0  0  0  0  0  0  0  0  0
  -15.9725  -24.1918   22.5673 C   0  0  0  0  0  0  0  0  0  0  0  0
  -21.0409  -27.9428   22.6663 C   0  0  0  0  0  0  0  0  0  0  0  0
  -23.3655  -27.0838   22.0613 C   0  0  0  0  0  0  0  0  0  0  0  0
  -24.1805  -11.8340   20.9866 C   0  0  0  0  0  0  0  0  0  0  0  0
  -24.2783  -18.7285   20.6413 C   0  0  0  0  0  0  0  0  0  0  0  0
  -24.2506  -13.2411   21.0365 C   0  0  0  0  0  0  0  0  0  0  0  0
  -25.3568  -19.3945   21.2407 C   0  0  0  0  0  0  0  0  0  0  0  0
  -24.3786  -26.7514   26.3487 C   0  0  0  0  0  0  0  0  0  0  0  0
  -25.3657  -29.2323   27.1571 C   0  0  0  0  0  0  0  0  0  0  0  0
  -18.2544  -27.8148   22.7073 C   0  0  0  0  0  0  0  0  0  0  0  0
  -23.8449  -20.3187   22.9051 C   0  0  0  0  0  0  0  0  0  0  0  0
  -16.3109  -26.5366   23.0410 C   0  0  0  0  0  0  0  0  0  0  0  0
  -15.1342  -24.0886   23.6774 C   0  0  0  0  0  0  0  0  0  0  0  0
  -16.5608  -25.4159   22.2491 C   0  0  0  0  0  0  0  0  0  0  0  0
  -26.1922  -28.3430   26.4702 C   0  0  0  0  0  0  0  0  0  0  0  0
  -22.4801  -28.0097   22.6449 C   0  0  0  0  0  0  0  0  0  0  0  0
  -24.6142  -27.5981   22.3116 C   0  0  0  0  0  0  0  0  0  0  0  0
  -23.0844  -25.8677   21.3558 C   0  0  0  0  0  0  0  0  0  0  0  0
  -26.2457  -16.2713   20.1998 C   0  0  0  0  0  0  0  0  0  0  0  0
  -23.8228  -23.3114   24.9560 C   0  0  0  0  0  0  0  0  0  0  0  0
  -28.0569  -18.4958   18.6853 C   0  0  0  0  0  0  0  0  0  0  0  0
  -28.8689  -21.7861   18.2839 C   0  0  0  0  0  0  0  0  0  0  0  0
  -26.3294  -31.5030   26.7030 C   0  0  0  0  0  0  0  0  0  0  0  0
  -25.3933  -10.9889   20.6861 C   0  0  0  0  0  0  0  0  0  0  0  0
  -24.4885  -17.8957   19.4065 C   0  0  0  0  0  0  0  0  0  0  0  0
  -26.7583  -19.2800   20.7013 C   0  0  0  0  0  0  0  0  0  0  0  0
  -26.7064  -11.7253   20.9308 C   0  0  0  0  0  0  0  0  0  0  0  0
  -26.9106  -31.7239   23.0552 C   0  0  0  0  0  0  0  0  0  0  0  0
  -26.6726  -13.0872   20.2536 C   0  0  0  0  0  0  0  0  0  0  0  0
  -25.8549  -30.7781   22.4856 C   0  0  0  0  0  0  0  0  0  0  0  0
  -26.4651  -32.3388   24.3785 C   0  0  0  0  0  0  0  0  0  0  0  0
  -25.0220  -30.3769   24.8365 C   0  0  0  0  0  0  0  0  0  0  0  0
  -25.5704  -13.9687   20.8546 C   0  0  1  0  0  0  0  0  0  0  0  0
  -25.9228  -17.3974   19.2589 C   0  0  1  0  0  0  0  0  0  0  0  0
  -25.4639  -29.7133   23.5236 C   0  0  1  0  0  0  0  0  0  0  0  0
  -27.3835  -30.1061   29.4665 C   0  0  0  0  0  0  0  0  0  0  0  0
  -29.9792  -23.8062   17.2920 C   0  0  0  0  0  0  0  0  0  0  0  0
  -30.3674  -17.6665   20.4973 C   0  0  0  0  0  0  0  0  0  0  0  0
  -31.5404  -19.7825   19.8532 C   0  0  0  0  0  0  0  0  0  0  0  0
  -31.0057  -18.0759   18.1142 C   0  0  0  0  0  0  0  0  0  0  0  0
  -26.7125  -22.1345   16.2871 C   0  0  0  0  0  0  0  0  0  0  0  0
  -24.6657  -24.5381   25.2332 C   0  0  0  0  0  0  0  0  0  0  0  0
  -24.5186  -22.1954   24.2014 C   0  0  0  0  0  0  0  0  0  1  0  0
  -26.0745  -30.7239   29.0181 C   0  0  0  0  0  0  0  0  0  0  0  0
  -29.1382  -19.4613   19.1067 C   0  0  1  0  0  0  0  0  0  0  0  0
  -29.0411  -22.6364   17.0382 C   0  0  2  0  0  0  0  0  0  0  0  0
  -30.4869  -18.7474   19.4044 C   0  0  0  0  0  0  0  0  0  0  0  0
  -23.1126  -29.0344   23.2226 N   0  0  0  0  0  0  0  0  0  0  0  0
  -24.4088  -28.7555   23.0034 N   0  0  0  0  0  0  0  0  0  0  0  0
  -26.9138  -18.4492   19.4958 N   0  0  0  0  0  0  0  0  0  0  0  0
  -26.0390  -31.3168   25.3358 N   0  0  0  0  0  0  0  0  0  0  0  0
  -25.8569  -27.1687   22.0055 N   0  0  0  0  0  0  0  0  0  0  0  0
  -21.7461  -25.4868   21.1879 N   0  0  0  0  0  0  0  0  0  0  0  0
  -23.8868  -25.5181   25.9459 N   0  0  0  0  0  0  0  0  0  0  0  0
  -25.4322  -15.1642   20.0523 N   0  0  0  0  0  0  0  0  0  0  0  0
  -29.2157  -20.4711   18.0566 N   0  0  0  0  0  0  0  0  0  0  0  0
  -25.8436  -30.5229   27.5893 N   0  0  0  0  0  0  0  0  0  0  0  0
  -27.7253  -23.1771   16.5941 N   0  3  0  0  0  0  0  0  0  0  0  0
  -23.9936  -25.1319   20.9026 O   0  0  0  0  0  0  0  0  0  0  0  0
  -27.1659  -16.3970   20.9993 O   0  0  0  0  0  0  0  0  0  0  0  0
  -22.6496  -23.2155   25.3143 O   0  0  0  0  0  0  0  0  0  0  0  0
  -28.2174  -17.8135   17.6703 O   0  0  0  0  0  0  0  0  0  0  0  0
  -28.4705  -22.2436   19.3528 O   0  0  0  0  0  0  0  0  0  0  0  0
  -26.9320  -32.5024   27.1137 O   0  0  0  0  0  0  0  0  0  0  0  0
  -16.8949  -27.7523   22.7269 O   0  0  0  0  0  0  0  0  0  0  0  0
  -23.6388  -21.0886   24.0081 O   0  0  0  0  0  0  0  0  0  1  0  0
  -14.5703  -22.9129   23.9839 F   0  0  0  0  0  0  0  0  0  0  0  0
  -17.3662  -25.5087   21.1820 F   0  0  0  0  0  0  0  0  0  0  0  0
  -27.8329  -28.7381   26.0991 Cl  0  0  0  0  0  0  0  0  0  0  0  0
  1  2  1  0  0  0  0
  1  5  2  0  0  0  0
  2  6  2  0  0  0  0
  3 10  2  0  0  0  0
  3 18  1  0  0  0  0
  4 11  1  0  0  0  0
  4 18  2  0  0  0  0
  5 20  1  0  0  0  0
  6 22  1  0  0  0  0
  7 12  2  0  0  0  0
  7 21  1  0  0  0  0
  8  9  2  0  0  0  0
  8 24  1  0  0  0  0
  9 25  1  0  0  0  0
 10 26  1  0  0  0  0
 11 26  2  0  0  0  0
 12 27  1  0  0  0  0
 13 14  2  0  0  0  0
 13 28  1  0  0  0  0
 14 29  1  0  0  0  0
 15 23  1  0  0  0  0
 15 27  2  0  0  0  0
 16 24  2  0  0  0  0
 16 31  1  0  0  0  0
 17 29  2  0  0  0  0
 17 30  1  0  0  0  0
 18 32  1  0  0  0  0
 19 32  1  0  0  0  0
 19 33  2  0  0  0  0
 19 34  1  0  0  0  0
 20 22  2  0  0  0  0
 20 40  1  0  0  0  0
 21 23  2  0  0  0  0
 21 41  1  0  0  0  0
 22 49  1  0  0  0  0
 23 42  1  0  0  0  0
 24 70  1  0  0  0  0
 25 31  2  0  0  0  0
 25 73  1  0  0  0  0
 26 81  1  0  0  0  0
 27 82  1  0  0  0  0
 28 30  2  0  0  0  0
 28 81  1  0  0  0  0
 29 83  1  0  0  0  0
 30 84  1  0  0  0  0
 31 85  1  0  0  0  0
 32 64  2  0  0  0  0
 33 65  1  0  0  0  0
 33 68  1  0  0  0  0
 34 69  1  0  0  0  0
 34 75  2  0  0  0  0
 35 50  1  0  0  0  0
 35 71  1  0  0  0  0
 35 76  2  0  0  0  0
 36 58  1  0  0  0  0
 36 59  1  0  0  0  0
 36 77  2  0  0  0  0
 37 61  1  0  0  0  0
 37 66  1  0  0  0  0
 37 78  2  0  0  0  0
 38 62  1  0  0  0  0
 38 72  1  0  0  0  0
 38 79  2  0  0  0  0
 39 67  1  0  0  0  0
 39 73  1  0  0  0  0
 39 80  2  0  0  0  0
 40 43  1  0  0  0  0
 41 50  1  0  0  0  0
 42 66  1  0  0  0  0
 43 45  1  0  0  0  0
 44 46  1  0  0  0  0
 44 47  1  0  0  0  0
 45 49  1  0  0  0  0
 46 51  1  0  0  0  0
 47 67  1  0  0  0  0
 48 51  1  0  0  0  0
 48 67  1  0  0  0  0
 49 71  1  0  0  0  0
 50 66  1  0  0  0  0
 51 65  1  0  0  0  0
 52 60  1  0  0  0  0
 53 62  1  0  0  0  0
 54 63  1  0  0  0  0
 55 63  1  0  0  0  0
 56 63  1  0  0  0  0
 57 74  1  0  0  0  0
 58 70  1  0  0  0  0
 59 82  1  0  0  0  0
 60 73  1  0  0  0  0
 61 63  1  0  0  0  0
 61 72  1  0  0  0  0
 62 74  1  0  0  0  0
 64 65  1  0  0  0  0
M  CHG  1  74   1
M  ISO  4  39 100  59 101  73 100  82 101
M  END
> <Batch ID>
0100

> <Smiles>
CC[100N:0](c1ccc(NCC(=O)[101CH2:1][101O:1]c2ccc3c(c2)CN(C(=O)C(NC(=O)C(C)NC)C(C)(C)C)C(C(=O)NC2CCCc4ccccc42)C3)cc1Cl)[100C:0](=O)N1CCCC(n2nc(-c3ccc(Oc4ccc(F)cc4F)cc3)c(C(N)=O)c2N)C1

> <Shape>
0.222

> <Color>
0.076

> <Negative vol penalty>
0.000

$$$$

  -OEChem-04052300573D

 86 95  0     1  0  0  0  0  0999 V2000
  -27.9086  -36.0802   22.3568 C   0  0  0  0  0  0  0  0  0  0  0  0
  -28.2115  -34.7289   22.2243 C   0  0  0  0  0  0  0  0  0  0  0  0
  -21.0247  -11.5504   20.0702 C   0  0  0  0  0  0  0  0  0  0  0  0
  -23.4270  -11.4463   20.3052 C   0  0  0  0  0  0  0  0  0  0  0  0
  -26.7214  -36.4699   22.9753 C   0  0  0  0  0  0  0  0  0  0  0  0
  -27.3279  -33.7664   22.7112 C   0  0  0  0  0  0  0  0  0  0  0  0
  -26.6078  -29.9618   19.4476 C   0  0  0  0  0  0  0  0  0  0  0  0
  -21.0439  -10.3584   19.3460 C   0  0  0  0  0  0  0  0  0  0  0  0
  -23.4462  -10.2543   19.5810 C   0  0  0  0  0  0  0  0  0  0  0  0
  -27.6075  -28.9933   19.3681 C   0  0  0  0  0  0  0  0  0  0  0  0
  -22.8010   -6.9861   20.1490 C   0  0  0  0  0  0  0  0  0  0  0  0
  -23.5859   -5.9433   20.6408 C   0  0  0  0  0  0  0  0  0  0  0  0
  -26.3016  -27.5380   20.7809 C   0  0  0  0  0  0  0  0  0  0  0  0
  -27.1762  -20.0135   18.7775 C   0  0  0  0  0  0  0  0  0  0  0  0
  -29.5331  -19.4857   18.7179 C   0  0  0  0  0  0  0  0  0  0  0  0
  -28.0290  -18.1483   20.0544 C   0  0  0  0  0  0  0  0  0  0  0  0
  -24.8762   -5.9511   18.5982 C   0  0  0  0  0  0  0  0  0  0  0  0
  -22.2163  -12.0944   20.5497 C   0  0  0  0  0  0  0  0  0  0  0  0
  -22.0674  -13.4722   22.6915 C   0  0  0  0  0  0  0  0  0  0  0  0
  -25.8181  -35.5115   23.4614 C   0  0  0  0  0  0  0  0  0  0  0  0
  -25.4504  -29.7296   20.2045 C   0  0  0  0  0  0  0  0  0  0  0  0
  -26.1280  -34.1436   23.3380 C   0  0  0  0  0  0  0  0  0  0  0  0
  -25.2876  -28.5042   20.8663 C   0  0  0  0  0  0  0  0  0  0  0  0
  -28.4632  -20.2834   18.3122 C   0  0  0  0  0  0  0  0  0  0  0  0
  -26.9592  -18.9460   19.6487 C   0  0  0  0  0  0  0  0  0  0  0  0
  -22.2547   -9.7104   19.1014 C   0  0  0  0  0  0  0  0  0  0  0  0
  -27.4558  -27.7823   20.0371 C   0  0  0  0  0  0  0  0  0  0  0  0
  -23.0535   -7.5113   18.8816 C   0  0  0  0  0  0  0  0  0  0  0  0
  -29.3160  -18.4182   19.5891 C   0  0  0  0  0  0  0  0  0  0  0  0
  -24.6236   -5.4258   19.8655 C   0  0  0  0  0  0  0  0  0  0  0  0
  -24.0911   -6.9938   18.1063 C   0  0  0  0  0  0  0  0  0  0  0  0
  -22.1972  -13.3259   21.2974 C   0  0  0  0  0  0  0  0  0  0  0  0
  -22.1066  -14.8292   22.8996 C   0  0  0  0  0  0  0  0  0  0  0  0
  -21.9242  -12.4708   23.7076 C   0  0  0  0  0  0  0  0  0  0  0  0
  -24.1201  -31.0988   22.7460 C   0  0  0  0  0  0  0  0  0  0  0  0
  -21.7110  -29.0188   22.1201 C   0  0  0  0  0  0  0  0  0  0  0  0
  -20.7176  -26.0780   20.7017 C   0  0  0  0  0  0  0  0  0  0  0  0
  -24.4807  -19.3646   19.8175 C   0  0  0  0  0  0  0  0  0  0  0  0
  -24.5696  -35.9817   24.1649 C   0  0  0  0  0  0  0  0  0  0  0  0
  -24.3693  -30.7740   20.2584 C   0  0  0  0  0  0  0  0  0  0  0  0
  -24.0549  -28.1977   21.6757 C   0  0  0  0  0  0  0  0  0  0  0  0
  -23.5106  -34.8931   24.3188 C   0  0  0  0  0  0  0  0  0  0  0  0
  -21.0657  -18.9792   20.7481 C   0  0  0  0  0  0  0  0  0  0  0  0
  -24.1432  -33.6007   24.8251 C   0  0  0  0  0  0  0  0  0  0  0  0
  -20.9579  -17.5004   21.1273 C   0  0  0  0  0  0  0  0  0  0  0  0
  -28.9951  -24.9769   17.7713 C   0  0  0  0  0  0  0  0  0  0  0  0
  -22.0139  -19.1950   19.5700 C   0  0  0  0  0  0  0  0  0  0  0  0
  -23.2425  -17.1295   20.1123 C   0  0  0  0  0  0  0  0  0  0  0  0
  -29.6336  -23.7684   17.1064 C   0  0  0  0  0  0  0  0  0  0  0  0
  -28.5588  -23.1508   19.2129 C   0  0  0  0  0  0  0  0  0  0  0  0
  -25.1832  -33.0693   23.8313 C   0  0  1  0  0  0  0  0  0  0  0  0
  -23.4630  -30.6334   21.4775 C   0  0  1  0  0  0  0  0  0  0  0  0
  -28.9678  -24.6133   19.2493 C   0  0  2  0  0  0  0  0  0  0  0  0
  -22.3485  -16.8693   21.3357 C   0  0  2  0  0  0  0  0  0  0  0  0
  -18.6944  -24.6273   20.3868 C   0  0  0  0  0  0  0  0  0  0  0  0
  -21.9336  -28.0838   25.0160 C   0  0  0  0  0  0  0  0  0  0  0  0
  -20.6080  -26.0544   24.3896 C   0  0  0  0  0  0  0  0  0  0  0  0
  -19.5909  -28.3219   24.1738 C   0  0  0  0  0  0  0  0  0  0  0  0
  -20.8659  -26.3108   17.7550 C   0  0  0  0  0  0  0  0  0  0  0  0
  -31.6491  -17.9724   19.4717 C   0  0  0  0  0  0  0  0  0  0  0  0
  -28.6969  -21.4318   17.3753 C   0  0  0  0  0  0  0  0  0  0  0  0
  -28.0203  -25.4722   20.0592 C   0  0  0  0  0  0  0  0  0  1  0  0
  -21.3821  -27.6063   22.5394 C   0  0  1  0  0  0  0  0  0  0  0  0
  -19.5458  -25.7410   19.7974 C   0  0  2  0  0  0  0  0  0  0  0  0
  -20.9029  -27.5229   24.0161 C   0  0  0  0  0  0  0  0  0  0  0  0
  -22.3103  -14.4967   20.6645 N   0  0  0  0  0  0  0  0  0  0  0  0
  -22.2516  -15.3915   21.6654 N   0  0  0  0  0  0  0  0  0  0  0  0
  -23.0289  -29.2532   21.7030 N   0  0  0  0  0  0  0  0  0  0  0  0
  -23.3124  -18.5739   19.8404 N   0  0  0  0  0  0  0  0  0  0  0  0
  -22.0308  -15.5845   24.0159 N   0  0  0  0  0  0  0  0  0  0  0  0
  -21.9030  -11.1240   23.3202 N   0  0  0  0  0  0  0  0  0  0  0  0
  -25.6520  -18.6716   20.1217 N   0  0  0  0  0  0  0  0  0  0  0  0
  -24.5300  -32.4181   22.7161 N   0  0  0  0  0  0  0  0  0  0  0  0
  -20.4148  -27.1070   21.5681 N   0  0  0  0  0  0  0  0  0  0  0  0
  -29.3420  -22.6062   18.0379 N   0  3  1  0  0  0  0  0  0  0  0  0
  -20.0335  -25.3019   18.4594 N   0  3  0  0  0  0  0  0  0  0  0  0
  -21.8017  -12.7624   24.9215 O   0  0  0  0  0  0  0  0  0  0  0  0
  -24.2447  -30.3191   23.6832 O   0  0  0  0  0  0  0  0  0  0  0  0
  -20.8292  -29.8806   22.1544 O   0  0  0  0  0  0  0  0  0  0  0  0
  -21.7928  -25.4850   20.6475 O   0  0  0  0  0  0  0  0  0  0  0  0
  -24.4415  -20.5735   19.5744 O   0  0  0  0  0  0  0  0  0  0  0  0
  -22.2737   -8.5471   18.3950 O   0  0  0  0  0  0  0  0  0  0  0  0
  -30.3600  -17.6401   19.9853 O   0  0  0  0  0  0  0  0  0  0  0  0
  -28.4304  -26.8355   19.9617 O   0  0  0  0  0  0  0  0  0  1  0  0
  -25.3783   -4.4255   20.3386 F   0  0  0  0  0  0  0  0  0  0  0  0
  -24.3393   -7.4951   16.8885 F   0  0  0  0  0  0  0  0  0  0  0  0
  1  2  1  0  0  0  0
  1  5  2  0  0  0  0
  2  6  2  0  0  0  0
  3  8  2  0  0  0  0
  3 18  1  0  0  0  0
  4  9  1  0  0  0  0
  4 18  2  0  0  0  0
  5 20  1  0  0  0  0
  6 22  1  0  0  0  0
  7 10  2  0  0  0  0
  7 21  1  0  0  0  0
  8 26  1  0  0  0  0
  9 26  2  0  0  0  0
 10 27  1  0  0  0  0
 11 12  2  0  0  0  0
 11 28  1  0  0  0  0
 12 30  1  0  0  0  0
 13 23  1  0  0  0  0
 13 27  2  0  0  0  0
 14 24  1  0  0  0  0
 14 25  2  0  0  0  0
 15 24  2  0  0  0  0
 15 29  1  0  0  0  0
 16 25  1  0  0  0  0
 16 29  2  0  0  0  0
 17 30  2  0  0  0  0
 17 31  1  0  0  0  0
 18 32  1  0  0  0  0
 19 32  1  0  0  0  0
 19 33  2  0  0  0  0
 19 34  1  0  0  0  0
 20 22  2  0  0  0  0
 20 39  1  0  0  0  0
 21 23  2  0  0  0  0
 21 40  1  0  0  0  0
 22 51  1  0  0  0  0
 23 41  1  0  0  0  0
 24 61  1  0  0  0  0
 25 72  1  0  0  0  0
 26 82  1  0  0  0  0
 27 84  1  0  0  0  0
 28 31  2  0  0  0  0
 28 82  1  0  0  0  0
 29 83  1  0  0  0  0
 30 85  1  0  0  0  0
 31 86  1  0  0  0  0
 32 66  2  0  0  0  0
 33 67  1  0  0  0  0
 33 70  1  0  0  0  0
 34 71  1  0  0  0  0
 34 77  2  0  0  0  0
 35 52  1  0  0  0  0
 35 73  1  0  0  0  0
 35 78  2  0  0  0  0
 36 63  1  0  0  0  0
 36 68  1  0  0  0  0
 36 79  2  0  0  0  0
 37 64  1  0  0  0  0
 37 74  1  0  0  0  0
 37 80  2  0  0  0  0
 38 69  1  0  0  0  0
 38 72  1  0  0  0  0
 38 81  2  0  0  0  0
 39 42  1  0  0  0  0
 40 52  1  0  0  0  0
 41 68  1  0  0  0  0
 42 44  1  0  0  0  0
 43 45  1  0  0  0  0
 43 47  1  0  0  0  0
 44 51  1  0  0  0  0
 45 54  1  0  0  0  0
 46 49  1  0  0  0  0
 46 53  1  0  0  0  0
 47 69  1  0  0  0  0
 48 54  1  0  0  0  0
 48 69  1  0  0  0  0
 49 75  1  0  0  0  0
 50 53  1  0  0  0  0
 50 75  1  0  0  0  0
 51 73  1  0  0  0  0
 52 68  1  0  0  0  0
 53 62  1  0  0  0  0
 54 67  1  0  0  0  0
 55 64  1  0  0  0  0
 56 65  1  0  0  0  0
 57 65  1  0  0  0  0
 58 65  1  0  0  0  0
 59 76  1  0  0  0  0
 60 83  1  0  0  0  0
 61 75  1  0  0  0  0
 62 84  1  0  0  0  0
 63 65  1  0  0  0  0
 63 74  1  0  0  0  0
 64 76  1  0  0  0  0
 66 67  1  0  0  0  0
M  CHG  2  75   1  76   1
M  ISO  4  38 100  62 101  72 100  84 101
M  END
> <Batch ID>
0100

> <Smiles>
CNC(C)C(=O)NC(C(=O)N1Cc2cc([101O:1][101CH2:1]C3CCN(Cc4cc([100NH:0][100C:0](=O)N5CCCC(n6nc(-c7ccc(Oc8ccc(F)cc8F)cc7)c(C(N)=O)c6N)C5)cc(OC)c4)C3)ccc2CC1C(=O)NC1CCCc2ccccc21)C(C)(C)C

> <Shape>
0.260

> <Color>
0.080

> <Negative vol penalty>
0.000

$$$$

  -OEChem-04052300573D

 85 93  0     1  0  0  0  0  0999 V2000
  -28.2658  -33.3400   26.1669 C   0  0  0  0  0  0  0  0  0  0  0  0
  -28.2963  -31.9931   25.8198 C   0  0  0  0  0  0  0  0  0  0  0  0
  -21.3438  -17.2055   21.3397 C   0  0  0  0  0  0  0  0  0  0  0  0
  -21.0892  -16.5393   19.0313 C   0  0  0  0  0  0  0  0  0  0  0  0
  -27.0902  -34.0729   26.0093 C   0  0  0  0  0  0  0  0  0  0  0  0
  -27.1507  -31.3781   25.3160 C   0  0  0  0  0  0  0  0  0  0  0  0
  -28.1221  -28.4605   21.2924 C   0  0  0  0  0  0  0  0  0  0  0  0
  -27.1216  -17.4409   19.7744 C   0  0  0  0  0  0  0  0  0  0  0  0
  -21.1206  -18.5347   20.9807 C   0  0  0  0  0  0  0  0  0  0  0  0
  -20.8660  -17.8686   18.6723 C   0  0  0  0  0  0  0  0  0  0  0  0
  -28.6800  -27.2061   21.5353 C   0  0  0  0  0  0  0  0  0  0  0  0
  -27.5116  -18.7781   19.7022 C   0  0  0  0  0  0  0  0  0  0  0  0
  -22.8748  -21.0667   19.5892 C   0  0  0  0  0  0  0  0  0  0  0  0
  -23.7214  -22.0342   20.1302 C   0  0  0  0  0  0  0  0  0  0  0  0
  -26.5046  -26.1956   21.2791 C   0  0  0  0  0  0  0  0  0  0  0  0
  -29.3503  -16.8288   20.4782 C   0  0  0  0  0  0  0  0  0  0  0  0
  -21.8239  -23.1183   21.1605 C   0  0  0  0  0  0  0  0  0  0  0  0
  -21.3282  -16.2077   20.3650 C   0  0  0  0  0  0  0  0  0  0  0  0
  -20.5943  -13.8828   21.1159 C   0  0  0  0  0  0  0  0  0  0  0  0
  -25.9324  -33.4689   25.4943 C   0  0  0  0  0  0  0  0  0  0  0  0
  -26.7471  -28.5934   21.0514 C   0  0  0  0  0  0  0  0  0  0  0  0
  -25.9582  -32.1032   25.1527 C   0  0  0  0  0  0  0  0  0  0  0  0
  -25.9321  -27.4525   21.0309 C   0  0  0  0  0  0  0  0  0  0  0  0
  -28.0409  -16.4662   20.1625 C   0  0  0  0  0  0  0  0  0  0  0  0
  -20.8817  -18.8663   19.6471 C   0  0  0  0  0  0  0  0  0  0  0  0
  -27.8708  -26.0738   21.5316 C   0  0  0  0  0  0  0  0  0  0  0  0
  -21.5027  -21.1250   19.8337 C   0  0  0  0  0  0  0  0  0  0  0  0
  -28.8210  -19.1407   20.0179 C   0  0  0  0  0  0  0  0  0  0  0  0
  -23.1960  -23.0600   20.9159 C   0  0  0  0  0  0  0  0  0  0  0  0
  -29.7404  -18.1661   20.4060 C   0  0  0  0  0  0  0  0  0  0  0  0
  -20.9773  -22.1508   20.6194 C   0  0  0  0  0  0  0  0  0  0  0  0
  -21.5592  -14.8345   20.7351 C   0  0  0  0  0  0  0  0  0  0  0  0
  -21.3170  -12.7417   21.3647 C   0  0  0  0  0  0  0  0  0  0  0  0
  -19.1718  -14.0182   21.2342 C   0  0  0  0  0  0  0  0  0  0  0  0
  -24.3486  -30.0869   22.5075 C   0  0  0  0  0  0  0  0  0  0  0  0
  -22.6763  -29.1133   19.9041 C   0  0  0  0  0  0  0  0  0  0  0  0
  -28.5353  -14.0310   20.0084 C   0  0  0  0  0  0  0  0  0  0  0  0
  -22.3638  -26.9053   17.3207 C   0  0  0  0  0  0  0  0  0  0  0  0
  -26.3860  -14.8037   20.8302 C   0  0  0  0  0  0  0  0  0  0  0  0
  -24.6719  -34.2900   25.3863 C   0  0  0  0  0  0  0  0  0  0  0  0
  -26.1651  -29.9504   20.7647 C   0  0  0  0  0  0  0  0  0  0  0  0
  -24.4536  -27.5389   20.7574 C   0  0  0  0  0  0  0  0  0  0  0  0
  -23.6071  -33.6569   24.4943 C   0  0  0  0  0  0  0  0  0  0  0  0
  -24.7976  -12.0864   18.8983 C   0  0  0  0  0  0  0  0  0  0  0  0
  -23.4412  -32.1779   24.8285 C   0  0  0  0  0  0  0  0  0  0  0  0
  -24.0615  -11.3173   19.9888 C   0  0  0  0  0  0  0  0  0  0  0  0
  -26.0945  -12.7008   19.4147 C   0  0  0  0  0  0  0  0  0  0  0  0
  -25.1298  -12.8546   21.7073 C   0  0  0  0  0  0  0  0  0  0  0  0
  -24.7431  -31.4066   24.5796 C   0  0  1  0  0  0  0  0  0  0  0  0
  -24.6667  -30.0283   21.0402 C   0  0  1  0  0  0  0  0  0  0  0  0
  -23.8341  -12.1570   21.2551 C   0  0  1  0  0  0  0  0  0  0  0  0
  -29.4342  -14.1524   18.7969 C   0  0  0  0  0  0  0  0  0  0  0  0
  -20.8743  -26.3399   15.3819 C   0  0  0  0  0  0  0  0  0  0  0  0
  -20.6553  -27.8701   21.8225 C   0  0  0  0  0  0  0  0  0  0  0  0
  -19.7505  -26.5454   19.9003 C   0  0  0  0  0  0  0  0  0  0  0  0
  -19.6448  -29.0372   19.8549 C   0  0  0  0  0  0  0  0  0  0  0  0
  -24.5374  -27.3685   15.3661 C   0  0  0  0  0  0  0  0  0  0  0  0
  -28.8202  -22.6554   20.8486 C   0  0  0  0  0  0  0  0  0  0  0  0
  -27.7848  -23.7286   21.1458 C   0  0  0  0  0  0  0  0  0  1  0  0
  -28.1982  -21.4286   20.2003 C   0  0  0  0  0  0  0  0  0  0  0  0
  -21.8742  -27.8854   19.5465 C   0  0  1  0  0  0  0  0  0  0  0  0
  -22.0981  -27.1171   15.8412 C   0  0  2  0  0  0  0  0  0  0  0  0
  -20.5087  -27.8328   20.2882 C   0  0  0  0  0  0  0  0  0  0  0  0
  -22.8003  -14.3409   20.7402 N   0  0  0  0  0  0  0  0  0  0  0  0
  -22.6202  -13.0666   21.1273 N   0  0  0  0  0  0  0  0  0  0  0  0
  -23.9306  -28.8888   20.4889 N   0  0  0  0  0  0  0  0  0  0  0  0
  -25.8824  -13.5007   20.6279 N   0  0  0  0  0  0  0  0  0  0  0  0
  -20.9586  -11.5020   21.7612 N   0  0  0  0  0  0  0  0  0  0  0  0
  -18.5922  -15.2600   20.9405 N   0  0  0  0  0  0  0  0  0  0  0  0
  -24.9213  -31.1590   23.1650 N   0  0  0  0  0  0  0  0  0  0  0  0
  -21.7646  -27.8789   18.0917 N   0  0  0  0  0  0  0  0  0  0  0  0
  -27.6375  -15.0828   20.2372 N   0  0  0  0  0  0  0  0  0  0  0  0
  -23.2690  -26.6693   15.0353 N   0  3  0  0  0  0  0  0  0  0  0  0
  -18.4384  -13.0708   21.6056 O   0  0  0  0  0  0  0  0  0  0  0  0
  -23.6351  -29.2243   23.0060 O   0  0  0  0  0  0  0  0  0  0  0  0
  -22.2103  -30.2305   19.6665 O   0  0  0  0  0  0  0  0  0  0  0  0
  -28.5916  -13.0173   20.7103 O   0  0  0  0  0  0  0  0  0  0  0  0
  -23.0327  -25.9678   17.7498 O   0  0  0  0  0  0  0  0  0  0  0  0
  -25.8066  -15.6385   21.5359 O   0  0  0  0  0  0  0  0  0  0  0  0
  -20.6637  -20.1632   19.2964 O   0  0  0  0  0  0  0  0  0  0  0  0
  -28.4127  -24.8483   21.7690 O   0  0  0  0  0  0  0  0  0  1  0  0
  -29.2023  -20.4553   19.9471 O   0  0  0  0  0  0  0  0  0  0  0  0
  -24.0092  -23.9882   21.4367 F   0  0  0  0  0  0  0  0  0  0  0  0
  -30.9994  -18.5085   20.7117 F   0  0  0  0  0  0  0  0  0  0  0  0
  -19.6602  -22.2114   20.8587 F   0  0  0  0  0  0  0  0  0  0  0  0
  1  2  1  0  0  0  0
  1  5  2  0  0  0  0
  2  6  2  0  0  0  0
  3  9  2  0  0  0  0
  3 18  1  0  0  0  0
  4 10  1  0  0  0  0
  4 18  2  0  0  0  0
  5 20  1  0  0  0  0
  6 22  1  0  0  0  0
  7 11  2  0  0  0  0
  7 21  1  0  0  0  0
  8 12  2  0  0  0  0
  8 24  1  0  0  0  0
  9 25  1  0  0  0  0
 10 25  2  0  0  0  0
 11 26  1  0  0  0  0
 12 28  1  0  0  0  0
 13 14  2  0  0  0  0
 13 27  1  0  0  0  0
 14 29  1  0  0  0  0
 15 23  1  0  0  0  0
 15 26  2  0  0  0  0
 16 24  2  0  0  0  0
 16 30  1  0  0  0  0
 17 29  2  0  0  0  0
 17 31  1  0  0  0  0
 18 32  1  0  0  0  0
 19 32  1  0  0  0  0
 19 33  2  0  0  0  0
 19 34  1  0  0  0  0
 20 22  2  0  0  0  0
 20 40  1  0  0  0  0
 21 23  2  0  0  0  0
 21 41  1  0  0  0  0
 22 49  1  0  0  0  0
 23 42  1  0  0  0  0
 24 72  1  0  0  0  0
 25 80  1  0  0  0  0
 26 81  1  0  0  0  0
 27 31  2  0  0  0  0
 27 80  1  0  0  0  0
 28 30  2  0  0  0  0
 28 82  1  0  0  0  0
 29 83  1  0  0  0  0
 30 84  1  0  0  0  0
 31 85  1  0  0  0  0
 32 64  2  0  0  0  0
 33 65  1  0  0  0  0
 33 68  1  0  0  0  0
 34 69  1  0  0  0  0
 34 74  2  0  0  0  0
 35 50  1  0  0  0  0
 35 70  1  0  0  0  0
 35 75  2  0  0  0  0
 36 61  1  0  0  0  0
 36 66  1  0  0  0  0
 36 76  2  0  0  0  0
 37 52  1  0  0  0  0
 37 72  1  0  0  0  0
 37 77  2  0  0  0  0
 38 62  1  0  0  0  0
 38 71  1  0  0  0  0
 38 78  2  0  0  0  0
 39 67  1  0  0  0  0
 39 72  1  0  0  0  0
 39 79  2  0  0  0  0
 40 43  1  0  0  0  0
 41 50  1  0  0  0  0
 42 66  1  0  0  0  0
 43 45  1  0  0  0  0
 44 46  1  0  0  0  0
 44 47  1  0  0  0  0
 45 49  1  0  0  0  0
 46 51  1  0  0  0  0
 47 67  1  0  0  0  0
 48 51  1  0  0  0  0
 48 67  1  0  0  0  0
 49 70  1  0  0  0  0
 50 66  1  0  0  0  0
 51 65  1  0  0  0  0
 53 62  1  0  0  0  0
 54 63  1  0  0  0  0
 55 63  1  0  0  0  0
 56 63  1  0  0  0  0
 57 73  1  0  0  0  0
 58 59  1  0  0  0  0
 58 60  1  0  0  0  0
 59 81  1  0  0  0  0
 60 82  1  0  0  0  0
 61 63  1  0  0  0  0
 61 71  1  0  0  0  0
 62 73  1  0  0  0  0
 64 65  1  0  0  0  0
M  CHG  1  73   1
M  ISO  4  39 100  59 101  72 100  81 101
M  END
> <Batch ID>
0100

> <Smiles>
CNC(C)C(=O)NC(C(=O)N1Cc2cc([101O:1][101CH2:1]CCOc3ccc([100N:0](C(C)=O)[100C:0](=O)N4CCCC(n5nc(-c6ccc(Oc7ccc(F)cc7F)cc6)c(C(N)=O)c5N)C4)cc3F)ccc2CC1C(=O)NC1CCCc2ccccc21)C(C)(C)C

> <Shape>
0.259

> <Color>
0.077

> <Negative vol penalty>
0.000

$$$$

  -OEChem-04052300573D

 86 95  0     1  0  0  0  0  0999 V2000
  -22.9887  -28.0921   14.7490 C   0  0  0  0  0  0  0  0  0  0  0  0
  -24.2173  -27.7301   15.2920 C   0  0  0  0  0  0  0  0  0  0  0  0
  -23.0213  -10.3614   21.9676 C   0  0  0  0  0  0  0  0  0  0  0  0
  -24.7406  -10.6545   23.6394 C   0  0  0  0  0  0  0  0  0  0  0  0
  -22.2560  -29.1331   15.3178 C   0  0  0  0  0  0  0  0  0  0  0  0
  -24.7146  -28.4097   16.4034 C   0  0  0  0  0  0  0  0  0  0  0  0
  -26.6024  -25.2810   19.9093 C   0  0  0  0  0  0  0  0  0  0  0  0
  -32.4765  -18.8522   20.6446 C   0  0  0  0  0  0  0  0  0  0  0  0
  -31.9169  -17.6206   20.3048 C   0  0  0  0  0  0  0  0  0  0  0  0
  -22.3907   -9.4201   22.7811 C   0  0  0  0  0  0  0  0  0  0  0  0
  -24.1100   -9.7132   24.4530 C   0  0  0  0  0  0  0  0  0  0  0  0
  -27.8709  -24.7522   19.6742 C   0  0  0  0  0  0  0  0  0  0  0  0
  -22.7878   -6.1622   23.5892 C   0  0  0  0  0  0  0  0  0  0  0  0
  -22.3441   -4.9830   22.9907 C   0  0  0  0  0  0  0  0  0  0  0  0
  -28.8250  -26.3961   21.1596 C   0  0  0  0  0  0  0  0  0  0  0  0
  -30.2638  -19.7769   20.9376 C   0  0  0  0  0  0  0  0  0  0  0  0
  -20.0804   -5.4932   23.6637 C   0  0  0  0  0  0  0  0  0  0  0  0
  -24.1963  -10.9786   22.3967 C   0  0  0  0  0  0  0  0  0  0  0  0
  -24.3117  -13.1638   21.0855 C   0  0  0  0  0  0  0  0  0  0  0  0
  -22.7401  -29.8195   16.4426 C   0  0  0  0  0  0  0  0  0  0  0  0
  -26.4368  -26.3800   20.7644 C   0  0  0  0  0  0  0  0  0  0  0  0
  -23.9884  -29.4618   16.9869 C   0  0  0  0  0  0  0  0  0  0  0  0
  -27.5531  -26.9353   21.4060 C   0  0  0  0  0  0  0  0  0  0  0  0
  -29.7041  -18.5453   20.5977 C   0  0  0  0  0  0  0  0  0  0  0  0
  -31.6500  -19.9304   20.9610 C   0  0  0  0  0  0  0  0  0  0  0  0
  -30.5307  -17.4671   20.2814 C   0  0  0  0  0  0  0  0  0  0  0  0
  -22.9350   -9.0960   24.0238 C   0  0  0  0  0  0  0  0  0  0  0  0
  -28.9827  -25.3116   20.2971 C   0  0  0  0  0  0  0  0  0  0  0  0
  -21.8778   -7.0069   24.2250 C   0  0  0  0  0  0  0  0  0  0  0  0
  -20.9904   -4.6485   23.0279 C   0  0  0  0  0  0  0  0  0  0  0  0
  -20.5242   -6.6724   24.2622 C   0  0  0  0  0  0  0  0  0  0  0  0
  -24.8485  -11.9506   21.5566 C   0  0  0  0  0  0  0  0  0  0  0  0
  -25.3202  -13.7171   20.3350 C   0  0  0  0  0  0  0  0  0  0  0  0
  -33.4848  -21.2756   21.9479 C   0  0  0  0  0  0  0  0  0  0  0  0
  -23.0172  -13.7391   21.3067 C   0  0  0  0  0  0  0  0  0  0  0  0
  -25.3570  -29.3494   20.4172 C   0  0  0  0  0  0  0  0  0  0  0  0
  -25.7222  -29.4433   23.6390 C   0  0  0  0  0  0  0  0  0  0  0  0
  -28.1581  -28.3099   26.0472 C   0  0  0  0  0  0  0  0  0  0  0  0
  -30.6769  -15.0465   19.5992 C   0  0  0  0  0  0  0  0  0  0  0  0
  -21.9344  -30.9692   16.9937 C   0  0  0  0  0  0  0  0  0  0  0  0
  -25.0587  -26.9218   21.0285 C   0  0  0  0  0  0  0  0  0  0  0  0
  -27.4265  -28.1031   22.3487 C   0  0  0  0  0  0  0  0  0  0  0  0
  -34.1432  -22.6416   21.9946 C   0  0  0  0  0  0  0  0  0  0  0  0
  -22.3578  -31.3916   18.3982 C   0  0  0  0  0  0  0  0  0  0  0  0
  -33.1775  -23.7949   22.1565 C   0  0  0  0  0  0  0  0  0  0  0  0
  -29.6917  -11.7391   18.7229 C   0  0  0  0  0  0  0  0  0  0  0  0
  -23.8762  -31.5079   18.4858 C   0  0  0  0  0  0  0  0  0  0  0  0
  -28.2997  -11.5991   19.3433 C   0  0  0  0  0  0  0  0  0  0  0  0
  -30.6267  -12.5620   19.6074 C   0  0  0  0  0  0  0  0  0  0  0  0
  -31.3739  -22.3999   21.1849 C   0  0  0  0  0  0  0  0  0  0  0  0
  -28.7155  -13.7368   20.6255 C   0  0  0  0  0  0  0  0  0  0  0  0
  -24.5499  -30.1588   18.2071 C   0  0  1  0  0  0  0  0  0  0  0  0
  -25.0683  -28.3671   21.5169 C   0  0  1  0  0  0  0  0  0  0  0  0
  -32.1333  -23.7194   21.0548 C   0  0  1  0  0  0  0  0  0  0  0  0
  -27.7191  -12.9705   19.7403 C   0  0  2  0  0  0  0  0  0  0  0  0
  -28.2162  -18.4086   20.5826 C   0  0  0  0  0  0  0  0  0  0  0  0
  -27.8968  -27.6934   28.4657 C   0  0  0  0  0  0  0  0  0  0  0  0
  -26.5133  -32.3430   24.1642 C   0  0  0  0  0  0  0  0  0  0  0  0
  -27.8334  -31.5522   26.1390 C   0  0  0  0  0  0  0  0  0  0  0  0
  -25.3629  -31.2130   26.0757 C   0  0  0  0  0  0  0  0  0  0  0  0
  -29.3539  -25.6374   25.6151 C   0  0  0  0  0  0  0  0  0  0  0  0
  -31.1748  -24.9064   21.1255 C   0  0  0  0  0  0  0  0  0  1  0  0
  -26.8446  -29.8161   24.5773 C   0  0  1  0  0  0  0  0  0  0  0  0
  -27.9938  -27.1732   27.0399 C   0  0  2  0  0  0  0  0  0  0  0  0
  -26.6437  -31.2207   25.2131 C   0  0  0  0  0  0  0  0  0  0  0  0
  -26.1008  -11.7447   21.1401 N   0  0  0  0  0  0  0  0  0  0  0  0
  -26.3592  -12.8359   20.3994 N   0  0  0  0  0  0  0  0  0  0  0  0
  -32.2310  -21.2075   21.3163 N   0  0  0  0  0  0  0  0  0  0  0  0
  -26.0588  -28.6013   22.5696 N   0  0  0  0  0  0  0  0  0  0  0  0
  -30.0123  -13.8493   19.9395 N   0  0  0  0  0  0  0  0  0  0  0  0
  -25.4107  -14.8665   19.6329 N   0  0  0  0  0  0  0  0  0  0  0  0
  -22.8417  -14.5850   22.4103 N   0  0  0  0  0  0  0  0  0  0  0  0
  -29.9816  -16.2076   19.9352 N   0  0  0  0  0  0  0  0  0  0  0  0
  -24.4592  -29.2993   19.3680 N   0  0  0  0  0  0  0  0  0  0  0  0
  -26.9440  -28.7302   25.5465 N   0  0  0  0  0  0  0  0  0  0  0  0
  -29.1542  -26.2417   26.9574 N   0  3  0  0  0  0  0  0  0  0  0  0
  -34.1090  -20.3153   22.4073 O   0  0  0  0  0  0  0  0  0  0  0  0
  -22.0407  -13.4969   20.5574 O   0  0  0  0  0  0  0  0  0  0  0  0
  -26.3220  -30.0985   20.5141 O   0  0  0  0  0  0  0  0  0  0  0  0
  -24.5872  -29.8773   23.8513 O   0  0  0  0  0  0  0  0  0  0  0  0
  -29.2535  -28.7806   25.7488 O   0  0  0  0  0  0  0  0  0  0  0  0
  -31.7691  -15.0418   19.0255 O   0  0  0  0  0  0  0  0  0  0  0  0
  -22.3198   -8.1777   24.8180 O   0  0  0  0  0  0  0  0  0  0  0  0
  -30.2220  -24.7979   20.0687 O   0  0  0  0  0  0  0  0  0  1  0  0
  -20.5643   -3.5169   22.4518 F   0  0  0  0  0  0  0  0  0  0  0  0
  -19.6451   -7.4805   24.8705 F   0  0  0  0  0  0  0  0  0  0  0  0
  1  2  1  0  0  0  0
  1  5  2  0  0  0  0
  2  6  2  0  0  0  0
  3 10  2  0  0  0  0
  3 18  1  0  0  0  0
  4 11  1  0  0  0  0
  4 18  2  0  0  0  0
  5 20  1  0  0  0  0
  6 22  1  0  0  0  0
  7 12  2  0  0  0  0
  7 21  1  0  0  0  0
  8  9  2  0  0  0  0
  8 25  1  0  0  0  0
  9 26  1  0  0  0  0
 10 27  1  0  0  0  0
 11 27  2  0  0  0  0
 12 28  1  0  0  0  0
 13 14  2  0  0  0  0
 13 29  1  0  0  0  0
 14 30  1  0  0  0  0
 15 23  1  0  0  0  0
 15 28  2  0  0  0  0
 16 24  1  0  0  0  0
 16 25  2  0  0  0  0
 17 30  2  0  0  0  0
 17 31  1  0  0  0  0
 18 32  1  0  0  0  0
 19 32  1  0  0  0  0
 19 33  2  0  0  0  0
 19 35  1  0  0  0  0
 20 22  2  0  0  0  0
 20 40  1  0  0  0  0
 21 23  2  0  0  0  0
 21 41  1  0  0  0  0
 22 52  1  0  0  0  0
 23 42  1  0  0  0  0
 24 26  2  0  0  0  0
 24 56  1  0  0  0  0
 25 68  1  0  0  0  0
 26 73  1  0  0  0  0
 27 83  1  0  0  0  0
 28 84  1  0  0  0  0
 29 31  2  0  0  0  0
 29 83  1  0  0  0  0
 30 85  1  0  0  0  0
 31 86  1  0  0  0  0
 32 66  2  0  0  0  0
 33 67  1  0  0  0  0
 33 71  1  0  0  0  0
 34 43  1  0  0  0  0
 34 68  1  0  0  0  0
 34 77  2  0  0  0  0
 35 72  1  0  0  0  0
 35 78  2  0  0  0  0
 36 53  1  0  0  0  0
 36 74  1  0  0  0  0
 36 79  2  0  0  0  0
 37 63  1  0  0  0  0
 37 69  1  0  0  0  0
 37 80  2  0  0  0  0
 38 64  1  0  0  0  0
 38 75  1  0  0  0  0
 38 81  2  0  0  0  0
 39 70  1  0  0  0  0
 39 73  1  0  0  0  0
 39 82  2  0  0  0  0
 40 44  1  0  0  0  0
 41 53  1  0  0  0  0
 42 69  1  0  0  0  0
 43 45  1  0  0  0  0
 44 47  1  0  0  0  0
 45 54  1  0  0  0  0
 46 48  1  0  0  0  0
 46 49  1  0  0  0  0
 47 52  1  0  0  0  0
 48 55  1  0  0  0  0
 49 70  1  0  0  0  0
 50 54  1  0  0  0  0
 50 68  1  0  0  0  0
 51 55  1  0  0  0  0
 51 70  1  0  0  0  0
 52 74  1  0  0  0  0
 53 69  1  0  0  0  0
 54 62  1  0  0  0  0
 55 67  1  0  0  0  0
 57 64  1  0  0  0  0
 58 65  1  0  0  0  0
 59 65  1  0  0  0  0
 60 65  1  0  0  0  0
 61 76  1  0  0  0  0
 62 84  1  0  0  0  0
 63 65  1  0  0  0  0
 63 75  1  0  0  0  0
 64 76  1  0  0  0  0
 66 67  1  0  0  0  0
M  CHG  1  76   1
M  ISO  4  39 100  62 101  73 100  84 101
M  END
> <Batch ID>
0100

> <Smiles>
CNC(C)C(=O)NC(C(=O)N1Cc2cc([101O:1][101CH2:1]C3CCC(=O)N(c4ccc([100NH:0][100C:0](=O)N5CCCC(n6nc(-c7ccc(Oc8ccc(F)cc8F)cc7)c(C(N)=O)c6N)C5)c(C)c4)C3)ccc2CC1C(=O)NC1CCCc2ccccc21)C(C)(C)C

> <Shape>
0.255

> <Color>
0.128

> <Negative vol penalty>
0.000

$$$$

  -OEChem-04052300573D

 87 95  0     1  0  0  0  0  0999 V2000
  -30.2107  -32.6526   25.4155 C   0  0  0  0  0  0  0  0  0  0  0  0
  -29.8605  -31.4847   24.7457 C   0  0  0  0  0  0  0  0  0  0  0  0
  -27.8111  -12.2123   15.8779 C   0  0  0  0  0  0  0  0  0  0  0  0
  -26.7410  -10.3795   17.0323 C   0  0  0  0  0  0  0  0  0  0  0  0
  -29.2225  -33.4392   26.0060 C   0  0  0  0  0  0  0  0  0  0  0  0
  -28.5219  -31.1020   24.6669 C   0  0  0  0  0  0  0  0  0  0  0  0
  -27.2080  -29.5751   20.0207 C   0  0  0  0  0  0  0  0  0  0  0  0
  -28.0265  -11.3900   14.7720 C   0  0  0  0  0  0  0  0  0  0  0  0
  -26.9564   -9.5571   15.9264 C   0  0  0  0  0  0  0  0  0  0  0  0
  -27.5904  -28.2892   19.6412 C   0  0  0  0  0  0  0  0  0  0  0  0
  -29.5188   -7.8059   14.5855 C   0  0  0  0  0  0  0  0  0  0  0  0
  -30.0050   -6.5196   14.8193 C   0  0  0  0  0  0  0  0  0  0  0  0
  -25.3676  -27.4902   20.1308 C   0  0  0  0  0  0  0  0  0  0  0  0
  -30.9999  -19.4769   20.9997 C   0  0  0  0  0  0  0  0  0  0  0  0
  -33.2494  -20.3577   20.9747 C   0  0  0  0  0  0  0  0  0  0  0  0
  -32.8728  -18.0199   21.4542 C   0  0  0  0  0  0  0  0  0  0  0  0
  -28.0337   -5.5857   13.7806 C   0  0  0  0  0  0  0  0  0  0  0  0
  -27.1684  -11.7070   17.0081 C   0  0  0  0  0  0  0  0  0  0  0  0
  -25.8239  -13.3683   18.4010 C   0  0  0  0  0  0  0  0  0  0  0  0
  -27.8702  -33.0711   25.9261 C   0  0  0  0  0  0  0  0  0  0  0  0
  -25.9034  -29.8264   20.4693 C   0  0  0  0  0  0  0  0  0  0  0  0
  -27.5149  -31.8838   25.2580 C   0  0  0  0  0  0  0  0  0  0  0  0
  -24.9704  -28.7806   20.5130 C   0  0  0  0  0  0  0  0  0  0  0  0
  -31.8753  -20.5497   20.8316 C   0  0  0  0  0  0  0  0  0  0  0  0
  -31.4986  -18.2119   21.3110 C   0  0  0  0  0  0  0  0  0  0  0  0
  -27.5992  -10.0624   14.7963 C   0  0  0  0  0  0  0  0  0  0  0  0
  -26.6710  -27.2459   19.6990 C   0  0  0  0  0  0  0  0  0  0  0  0
  -28.2900   -7.9821   13.9493 C   0  0  0  0  0  0  0  0  0  0  0  0
  -33.7482  -19.0927   21.2860 C   0  0  0  0  0  0  0  0  0  0  0  0
  -29.2625   -5.4095   14.4169 C   0  0  0  0  0  0  0  0  0  0  0  0
  -27.5475   -6.8720   13.5469 C   0  0  0  0  0  0  0  0  0  0  0  0
  -26.9460  -12.5559   18.1510 C   0  0  0  0  0  0  0  0  0  0  0  0
  -26.0958  -13.9678   19.6065 C   0  0  0  0  0  0  0  0  0  0  0  0
  -24.6414  -13.5635   17.6140 C   0  0  0  0  0  0  0  0  0  0  0  0
  -24.6277  -30.8672   23.1883 C   0  0  0  0  0  0  0  0  0  0  0  0
  -21.8821  -30.8280   21.4613 C   0  0  0  0  0  0  0  0  0  0  0  0
  -30.0382  -22.2005   20.3391 C   0  0  0  0  0  0  0  0  0  0  0  0
  -20.1452  -29.5638   18.8095 C   0  0  0  0  0  0  0  0  0  0  0  0
  -30.8995  -16.0345   22.3573 C   0  0  0  0  0  0  0  0  0  0  0  0
  -26.8422  -33.9287   26.6206 C   0  0  0  0  0  0  0  0  0  0  0  0
  -25.4991  -31.2244   20.8497 C   0  0  0  0  0  0  0  0  0  0  0  0
  -23.5518  -29.0020   20.9680 C   0  0  0  0  0  0  0  0  0  0  0  0
  -25.4108  -33.6490   26.1699 C   0  0  0  0  0  0  0  0  0  0  0  0
  -29.0943  -12.9919   23.4033 C   0  0  0  0  0  0  0  0  0  0  0  0
  -25.1464  -32.1471   26.1336 C   0  0  0  0  0  0  0  0  0  0  0  0
  -28.3058  -12.6159   22.1499 C   0  0  0  0  0  0  0  0  0  0  0  0
  -30.3941  -13.7134   23.0601 C   0  0  0  0  0  0  0  0  0  0  0  0
  -29.4159  -14.5366   20.9399 C   0  0  0  0  0  0  0  0  0  0  0  0
  -26.0713  -31.4483   25.1298 C   0  0  1  0  0  0  0  0  0  0  0  0
  -24.2900  -31.2646   21.7792 C   0  0  1  0  0  0  0  0  0  0  0  0
  -28.0800  -13.8463   21.2542 C   0  0  1  0  0  0  0  0  0  0  0  0
  -27.8310  -17.2851   18.8223 C   0  0  0  0  0  0  0  0  0  0  0  0
  -17.9103  -29.6946   17.6759 C   0  0  0  0  0  0  0  0  0  0  0  0
  -20.6631  -29.1147   23.6722 C   0  0  0  0  0  0  0  0  0  0  0  0
  -18.8257  -28.4996   22.0867 C   0  0  0  0  0  0  0  0  0  0  0  0
  -19.1430  -30.8799   22.7623 C   0  0  0  0  0  0  0  0  0  0  0  0
  -21.3506  -30.5437   16.2904 C   0  0  0  0  0  0  0  0  0  0  0  0
  -29.9331  -23.6833   20.0102 C   0  0  0  0  0  0  0  0  0  0  0  0
  -29.2296  -17.1483   19.4076 C   0  0  0  0  0  0  0  0  0  0  0  0
  -28.4924  -24.1389   19.8058 C   0  0  0  0  0  0  0  0  0  0  0  0
  -29.2394  -17.2082   20.9304 C   0  0  0  0  0  0  0  0  0  0  0  0
  -28.4094  -25.6323   19.5255 C   0  0  0  0  0  0  0  0  0  1  0  0
  -20.8051  -29.8060   21.1887 C   0  0  1  0  0  0  0  0  0  0  0  0
  -19.3281  -30.2423   17.7249 C   0  0  2  0  0  0  0  0  0  0  0  0
  -19.8864  -29.5702   22.4207 C   0  0  0  0  0  0  0  0  0  0  0  0
  -27.8626  -12.6302   19.1197 N   0  0  0  0  0  0  0  0  0  0  0  0
  -27.3168  -13.4966   19.9901 N   0  0  0  0  0  0  0  0  0  0  0  0
  -23.2065  -30.3852   21.3355 N   0  0  0  0  0  0  0  0  0  0  0  0
  -30.1566  -14.8513   22.1712 N   0  0  0  0  0  0  0  0  0  0  0  0
  -25.4071  -14.8467   20.3651 N   0  0  0  0  0  0  0  0  0  0  0  0
  -24.5235  -12.8699   16.4019 N   0  0  0  0  0  0  0  0  0  0  0  0
  -31.3692  -21.8332   20.5164 N   0  0  0  0  0  0  0  0  0  0  0  0
  -25.5980  -31.6549   23.7778 N   0  0  0  0  0  0  0  0  0  0  0  0
  -20.1000  -30.2641   19.9965 N   0  0  0  0  0  0  0  0  0  0  0  0
  -30.5930  -17.1009   21.4845 N   0  0  0  0  0  0  0  0  0  0  0  0
  -19.9599  -30.0310   16.3918 N   0  3  0  0  0  0  0  0  0  0  0  0
  -23.7241  -14.3430   17.9671 O   0  0  0  0  0  0  0  0  0  0  0  0
  -24.0496  -29.9172   23.7031 O   0  0  0  0  0  0  0  0  0  0  0  0
  -21.5603  -31.9788   21.7673 O   0  0  0  0  0  0  0  0  0  0  0  0
  -29.0490  -21.4802   20.4221 O   0  0  0  0  0  0  0  0  0  0  0  0
  -20.7590  -28.5154   18.6236 O   0  0  0  0  0  0  0  0  0  0  0  0
  -31.7474  -16.1385   23.2517 O   0  0  0  0  0  0  0  0  0  0  0  0
  -35.0890  -18.9051   21.4257 O   0  0  0  0  0  0  0  0  0  0  0  0
  -27.8090   -9.2597   13.7173 O   0  0  0  0  0  0  0  0  0  0  0  0
  -27.0418  -25.9897   19.3297 O   0  0  0  0  0  0  0  0  0  1  0  0
  -29.7303   -4.1744   14.6400 F   0  0  0  0  0  0  0  0  0  0  0  0
  -26.3669   -7.0349   12.9342 F   0  0  0  0  0  0  0  0  0  0  0  0
  1  2  1  0  0  0  0
  1  5  2  0  0  0  0
  2  6  2  0  0  0  0
  3  8  2  0  0  0  0
  3 18  1  0  0  0  0
  4  9  1  0  0  0  0
  4 18  2  0  0  0  0
  5 20  1  0  0  0  0
  6 22  1  0  0  0  0
  7 10  2  0  0  0  0
  7 21  1  0  0  0  0
  8 26  1  0  0  0  0
  9 26  2  0  0  0  0
 10 27  1  0  0  0  0
 11 12  2  0  0  0  0
 11 28  1  0  0  0  0
 12 30  1  0  0  0  0
 13 23  1  0  0  0  0
 13 27  2  0  0  0  0
 14 24  1  0  0  0  0
 14 25  2  0  0  0  0
 15 24  2  0  0  0  0
 15 29  1  0  0  0  0
 16 25  1  0  0  0  0
 16 29  2  0  0  0  0
 17 30  2  0  0  0  0
 17 31  1  0  0  0  0
 18 32  1  0  0  0  0
 19 32  1  0  0  0  0
 19 33  2  0  0  0  0
 19 34  1  0  0  0  0
 20 22  2  0  0  0  0
 20 40  1  0  0  0  0
 21 23  2  0  0  0  0
 21 41  1  0  0  0  0
 22 49  1  0  0  0  0
 23 42  1  0  0  0  0
 24 72  1  0  0  0  0
 25 75  1  0  0  0  0
 26 84  1  0  0  0  0
 27 85  1  0  0  0  0
 28 31  2  0  0  0  0
 28 84  1  0  0  0  0
 29 83  1  0  0  0  0
 30 86  1  0  0  0  0
 31 87  1  0  0  0  0
 32 66  2  0  0  0  0
 33 67  1  0  0  0  0
 33 70  1  0  0  0  0
 34 71  1  0  0  0  0
 34 77  2  0  0  0  0
 35 50  1  0  0  0  0
 35 73  1  0  0  0  0
 35 78  2  0  0  0  0
 36 63  1  0  0  0  0
 36 68  1  0  0  0  0
 36 79  2  0  0  0  0
 37 58  1  0  0  0  0
 37 72  1  0  0  0  0
 37 80  2  0  0  0  0
 38 64  1  0  0  0  0
 38 74  1  0  0  0  0
 38 81  2  0  0  0  0
 39 69  1  0  0  0  0
 39 75  1  0  0  0  0
 39 82  2  0  0  0  0
 40 43  1  0  0  0  0
 41 50  1  0  0  0  0
 42 68  1  0  0  0  0
 43 45  1  0  0  0  0
 44 46  1  0  0  0  0
 44 47  1  0  0  0  0
 45 49  1  0  0  0  0
 46 51  1  0  0  0  0
 47 69  1  0  0  0  0
 48 51  1  0  0  0  0
 48 69  1  0  0  0  0
 49 73  1  0  0  0  0
 50 68  1  0  0  0  0
 51 67  1  0  0  0  0
 52 59  1  0  0  0  0
 53 64  1  0  0  0  0
 54 65  1  0  0  0  0
 55 65  1  0  0  0  0
 56 65  1  0  0  0  0
 57 76  1  0  0  0  0
 58 60  1  0  0  0  0
 59 61  1  0  0  0  0
 60 62  1  0  0  0  0
 61 75  1  0  0  0  0
 62 85  1  0  0  0  0
 63 65  1  0  0  0  0
 63 74  1  0  0  0  0
 64 76  1  0  0  0  0
 66 67  1  0  0  0  0
M  CHG  1  76   1
M  ISO  4  39 100  62 101  75 100  85 101
M  END
> <Batch ID>
0100

> <Smiles>
CCC[100N:0](c1cc(O)cc(NC(=O)CC[101CH2:1][101O:1]c2ccc3c(c2)CN(C(=O)C(NC(=O)C(C)NC)C(C)(C)C)C(C(=O)NC2CCCc4ccccc42)C3)c1)[100C:0](=O)N1CCCC(n2nc(-c3ccc(Oc4ccc(F)cc4F)cc3)c(C(N)=O)c2N)C1

> <Shape>
0.263

> <Color>
0.077

> <Negative vol penalty>
0.000

$$$$

  -OEChem-04052300573D

 85 93  0     1  0  0  0  0  0999 V2000
  -29.8586  -11.6536   19.1765 C   0  0  0  0  0  0  0  0  0  0  0  0
  -30.1447  -12.9654   18.8125 C   0  0  0  0  0  0  0  0  0  0  0  0
  -19.3403  -21.8725   25.3868 C   0  0  0  0  0  0  0  0  0  0  0  0
  -17.3065  -21.6004   24.1113 C   0  0  0  0  0  0  0  0  0  0  0  0
  -28.6619  -11.3573   19.8277 C   0  0  0  0  0  0  0  0  0  0  0  0
  -29.2338  -13.9817   19.0985 C   0  0  0  0  0  0  0  0  0  0  0  0
  -30.5331  -19.7725   20.6098 C   0  0  0  0  0  0  0  0  0  0  0  0
  -18.9142  -20.8865   26.2766 C   0  0  0  0  0  0  0  0  0  0  0  0
  -16.8804  -20.6143   25.0011 C   0  0  0  0  0  0  0  0  0  0  0  0
  -30.5635  -20.9517   19.8665 C   0  0  0  0  0  0  0  0  0  0  0  0
  -18.7739  -17.5095   26.3721 C   0  0  0  0  0  0  0  0  0  0  0  0
  -19.6991  -16.5386   26.7555 C   0  0  0  0  0  0  0  0  0  0  0  0
  -28.3186  -21.4583   20.5894 C   0  0  0  0  0  0  0  0  0  0  0  0
  -26.5359  -28.4963   20.3660 C   0  0  0  0  0  0  0  0  0  0  0  0
  -24.9612  -27.1113   19.1663 C   0  0  0  0  0  0  0  0  0  0  0  0
  -19.4508  -17.2127   29.0622 C   0  0  0  0  0  0  0  0  0  0  0  0
  -18.5364  -22.2295   24.3041 C   0  0  0  0  0  0  0  0  0  0  0  0
  -24.1726  -28.9868   20.4692 C   0  0  0  0  0  0  0  0  0  0  0  0
  -19.7347  -23.0662   22.2133 C   0  0  0  0  0  0  0  0  0  0  0  0
  -27.7401  -12.3718   20.1305 C   0  0  0  0  0  0  0  0  0  0  0  0
  -29.3892  -19.4214   21.3410 C   0  0  0  0  0  0  0  0  0  0  0  0
  -28.0230  -13.6985   19.7532 C   0  0  0  0  0  0  0  0  0  0  0  0
  -28.2771  -20.2754   21.3433 C   0  0  0  0  0  0  0  0  0  0  0  0
  -25.4853  -29.2850   20.8346 C   0  0  0  0  0  0  0  0  0  0  0  0
  -26.2739  -27.4095   19.5318 C   0  0  0  0  0  0  0  0  0  0  0  0
  -17.6843  -20.2574   26.0838 C   0  0  0  0  0  0  0  0  0  0  0  0
  -29.4551  -21.7933   19.8539 C   0  0  0  0  0  0  0  0  0  0  0  0
  -18.1872  -18.3321   27.3338 C   0  0  0  0  0  0  0  0  0  0  0  0
  -20.0375  -16.3902   28.1005 C   0  0  0  0  0  0  0  0  0  0  0  0
  -23.9105  -27.9000   19.6351 C   0  0  0  0  0  0  0  0  0  0  0  0
  -18.5256  -18.1837   28.6789 C   0  0  0  0  0  0  0  0  0  0  0  0
  -18.9758  -23.2484   23.3849 C   0  0  0  0  0  0  0  0  0  0  0  0
  -19.8853  -24.3319   21.7016 C   0  0  0  0  0  0  0  0  0  0  0  0
  -23.0377  -29.8128   20.9557 C   0  0  0  0  0  0  0  0  0  0  0  0
  -20.2568  -21.8608   21.6389 C   0  0  0  0  0  0  0  0  0  0  0  0
  -27.3313  -17.0002   21.2609 C   0  0  0  0  0  0  0  0  0  0  0  0
  -26.1556  -18.4210   23.9295 C   0  0  0  0  0  0  0  0  0  0  0  0
  -25.8024  -21.2661   25.7809 C   0  0  0  0  0  0  0  0  0  0  0  0
  -20.9597  -29.7346   22.2972 C   0  0  0  0  0  0  0  0  0  0  0  0
  -26.4386  -11.9960   20.7934 C   0  0  0  0  0  0  0  0  0  0  0  0
  -29.3821  -18.1593   22.1591 C   0  0  0  0  0  0  0  0  0  0  0  0
  -27.0322  -19.9541   22.1277 C   0  0  0  0  0  0  0  0  0  0  0  0
  -25.6952  -13.1861   21.3944 C   0  0  0  0  0  0  0  0  0  0  0  0
  -17.6516  -28.6936   22.9825 C   0  0  0  0  0  0  0  0  0  0  0  0
  -25.6562  -14.3463   20.4048 C   0  0  0  0  0  0  0  0  0  0  0  0
  -17.7588  -27.1675   23.0447 C   0  0  0  0  0  0  0  0  0  0  0  0
  -18.8766  -29.3738   23.5919 C   0  0  0  0  0  0  0  0  0  0  0  0
  -20.2733  -27.4018   23.1245 C   0  0  0  0  0  0  0  0  0  0  0  0
  -27.0712  -14.8321   20.0682 C   0  0  1  0  0  0  0  0  0  0  0  0
  -27.9760  -17.6465   22.4544 C   0  0  1  0  0  0  0  0  0  0  0  0
  -19.0960  -26.6701   22.4599 C   0  0  1  0  0  0  0  0  0  0  0  0
  -25.7941  -30.4430   21.7266 C   0  0  0  0  0  0  0  0  0  0  0  0
  -24.7577  -22.1233   27.8953 C   0  0  0  0  0  0  0  0  0  0  0  0
  -23.4184  -18.4033   22.5814 C   0  0  0  0  0  0  0  0  0  0  0  0
  -22.6498  -20.0773   24.2771 C   0  0  0  0  0  0  0  0  0  0  0  0
  -23.3886  -17.8105   25.0108 C   0  0  0  0  0  0  0  0  0  0  0  0
  -28.4297  -22.0387   26.9029 C   0  0  0  0  0  0  0  0  0  0  0  0
  -29.3875  -25.3405   19.2269 C   0  0  0  0  0  0  0  0  0  0  0  0
  -28.6204  -26.5750   19.6847 C   0  0  0  0  0  0  0  0  0  0  0  0
  -28.7008  -24.0359   19.6135 C   0  0  0  0  0  0  0  0  0  1  0  0
  -25.1125  -19.4763   24.2076 C   0  0  1  0  0  0  0  0  0  0  0  0
  -26.0090  -21.5374   27.2601 C   0  0  2  0  0  0  0  0  0  0  0  0
  -23.6649  -18.9472   24.0028 C   0  0  0  0  0  0  0  0  0  0  0  0
  -18.6660  -24.5289   23.6048 N   0  0  0  0  0  0  0  0  0  0  0  0
  -19.2331  -25.1629   22.5643 N   0  0  0  0  0  0  0  0  0  0  0  0
  -27.0716  -18.7056   22.9069 N   0  0  0  0  0  0  0  0  0  0  0  0
  -20.1003  -28.8549   22.9783 N   0  0  0  0  0  0  0  0  0  0  0  0
  -20.5107  -24.8040   20.6023 N   0  0  0  0  0  0  0  0  0  0  0  0
  -20.0093  -20.6467   22.2940 N   0  0  0  0  0  0  0  0  0  0  0  0
  -27.3178  -26.6255   19.0658 N   0  0  0  0  0  0  0  0  0  0  0  0
  -22.0793  -29.1350   21.7096 N   0  0  0  0  0  0  0  0  0  0  0  0
  -27.5941  -15.6488   21.1425 N   0  0  0  0  0  0  0  0  0  0  0  0
  -25.3826  -19.9726   25.5526 N   0  0  0  0  0  0  0  0  0  0  0  0
  -27.1309  -22.4981   27.4587 N   0  3  0  0  0  0  0  0  0  0  0  0
  -23.0252  -31.0159   20.7102 O   0  0  0  0  0  0  0  0  0  0  0  0
  -20.9370  -21.8621   20.5849 O   0  0  0  0  0  0  0  0  0  0  0  0
  -26.6451  -17.6772   20.5043 O   0  0  0  0  0  0  0  0  0  0  0  0
  -26.1619  -17.3855   24.5998 O   0  0  0  0  0  0  0  0  0  0  0  0
  -25.9907  -22.1175   24.9148 O   0  0  0  0  0  0  0  0  0  0  0  0
  -20.7307  -30.9433   22.1885 O   0  0  0  0  0  0  0  0  0  0  0  0
  -17.2683  -19.2950   26.9518 O   0  0  0  0  0  0  0  0  0  0  0  0
  -29.4820  -22.9445   19.1287 O   0  0  0  0  0  0  0  0  0  1  0  0
  -20.9248  -15.4567   28.4686 F   0  0  0  0  0  0  0  0  0  0  0  0
  -22.6531  -27.6031   19.2767 F   0  0  0  0  0  0  0  0  0  0  0  0
  -17.9644  -18.9702   29.6074 F   0  0  0  0  0  0  0  0  0  0  0  0
  1  2  1  0  0  0  0
  1  5  2  0  0  0  0
  2  6  2  0  0  0  0
  3  8  2  0  0  0  0
  3 17  1  0  0  0  0
  4  9  1  0  0  0  0
  4 17  2  0  0  0  0
  5 20  1  0  0  0  0
  6 22  1  0  0  0  0
  7 10  2  0  0  0  0
  7 21  1  0  0  0  0
  8 26  1  0  0  0  0
  9 26  2  0  0  0  0
 10 27  1  0  0  0  0
 11 12  2  0  0  0  0
 11 28  1  0  0  0  0
 12 29  1  0  0  0  0
 13 23  1  0  0  0  0
 13 27  2  0  0  0  0
 14 24  2  0  0  0  0
 14 25  1  0  0  0  0
 15 25  2  0  0  0  0
 15 30  1  0  0  0  0
 16 29  2  0  0  0  0
 16 31  1  0  0  0  0
 17 32  1  0  0  0  0
 18 24  1  0  0  0  0
 18 30  2  0  0  0  0
 18 34  1  0  0  0  0
 19 32  1  0  0  0  0
 19 33  2  0  0  0  0
 19 35  1  0  0  0  0
 20 22  2  0  0  0  0
 20 40  1  0  0  0  0
 21 23  2  0  0  0  0
 21 41  1  0  0  0  0
 22 49  1  0  0  0  0
 23 42  1  0  0  0  0
 24 52  1  0  0  0  0
 25 70  1  0  0  0  0
 26 81  1  0  0  0  0
 27 82  1  0  0  0  0
 28 31  2  0  0  0  0
 28 81  1  0  0  0  0
 29 83  1  0  0  0  0
 30 84  1  0  0  0  0
 31 85  1  0  0  0  0
 32 64  2  0  0  0  0
 33 65  1  0  0  0  0
 33 68  1  0  0  0  0
 34 71  1  0  0  0  0
 34 75  2  0  0  0  0
 35 69  1  0  0  0  0
 35 76  2  0  0  0  0
 36 50  1  0  0  0  0
 36 72  1  0  0  0  0
 36 77  2  0  0  0  0
 37 61  1  0  0  0  0
 37 66  1  0  0  0  0
 37 78  2  0  0  0  0
 38 62  1  0  0  0  0
 38 73  1  0  0  0  0
 38 79  2  0  0  0  0
 39 67  1  0  0  0  0
 39 71  1  0  0  0  0
 39 80  2  0  0  0  0
 40 43  1  0  0  0  0
 41 50  1  0  0  0  0
 42 66  1  0  0  0  0
 43 45  1  0  0  0  0
 44 46  1  0  0  0  0
 44 47  1  0  0  0  0
 45 49  1  0  0  0  0
 46 51  1  0  0  0  0
 47 67  1  0  0  0  0
 48 51  1  0  0  0  0
 48 67  1  0  0  0  0
 49 72  1  0  0  0  0
 50 66  1  0  0  0  0
 51 65  1  0  0  0  0
 53 62  1  0  0  0  0
 54 63  1  0  0  0  0
 55 63  1  0  0  0  0
 56 63  1  0  0  0  0
 57 74  1  0  0  0  0
 58 59  1  0  0  0  0
 58 60  1  0  0  0  0
 59 70  1  0  0  0  0
 60 82  1  0  0  0  0
 61 63  1  0  0  0  0
 61 73  1  0  0  0  0
 62 74  1  0  0  0  0
 64 65  1  0  0  0  0
M  CHG  1  74   1
M  ISO  4  39 100  60 101  71 100  82 101
M  END
> <Batch ID>
0100

> <Smiles>
CNC(C)C(=O)NC(C(=O)N1Cc2cc([101O:1][101CH2:1]CCNc3cc(C)c(C(=O)[100NH:0][100C:0](=O)N4CCCC(n5nc(-c6ccc(Oc7ccc(F)cc7F)cc6)c(C(N)=O)c5N)C4)c(F)c3)ccc2CC1C(=O)NC1CCCc2ccccc21)C(C)(C)C

> <Shape>
0.227

> <Color>
0.062

> <Negative vol penalty>
0.000

$$$$

  -OEChem-04052300573D

 82 90  0     1  0  0  0  0  0999 V2000
  -18.7171  -31.7417   25.5411 C   0  0  0  0  0  0  0  0  0  0  0  0
  -18.4081  -30.5472   24.8982 C   0  0  0  0  0  0  0  0  0  0  0  0
  -22.6806  -15.9748   21.5710 C   0  0  0  0  0  0  0  0  0  0  0  0
  -22.0626  -15.0780   19.4144 C   0  0  0  0  0  0  0  0  0  0  0  0
  -19.7488  -32.5455   25.0580 C   0  0  0  0  0  0  0  0  0  0  0  0
  -19.1300  -30.1565   23.7711 C   0  0  0  0  0  0  0  0  0  0  0  0
  -22.7023  -23.9024   23.6398 C   0  0  0  0  0  0  0  0  0  0  0  0
  -28.8548  -19.5488   19.2560 C   0  0  0  0  0  0  0  0  0  0  0  0
  -29.5502  -18.3909   19.6041 C   0  0  0  0  0  0  0  0  0  0  0  0
  -21.5463  -16.7865   21.5585 C   0  0  0  0  0  0  0  0  0  0  0  0
  -20.9282  -15.8897   19.4019 C   0  0  0  0  0  0  0  0  0  0  0  0
  -23.2374  -22.6267   23.4596 C   0  0  0  0  0  0  0  0  0  0  0  0
  -17.8462  -15.8814   20.7880 C   0  0  0  0  0  0  0  0  0  0  0  0
  -16.6398  -15.3006   20.3969 C   0  0  0  0  0  0  0  0  0  0  0  0
  -24.0232  -23.2552   21.2607 C   0  0  0  0  0  0  0  0  0  0  0  0
  -28.5896  -18.4799   21.8191 C   0  0  0  0  0  0  0  0  0  0  0  0
  -16.4709  -16.8782   18.5749 C   0  0  0  0  0  0  0  0  0  0  0  0
  -22.9388  -15.1206   20.4989 C   0  0  0  0  0  0  0  0  0  0  0  0
  -24.2158  -12.9756   21.0239 C   0  0  0  0  0  0  0  0  0  0  0  0
  -20.4901  -32.1596   23.9301 C   0  0  0  0  0  0  0  0  0  0  0  0
  -22.8392  -24.8652   22.6360 C   0  0  0  0  0  0  0  0  0  0  0  0
  -20.1718  -30.9565   23.2716 C   0  0  0  0  0  0  0  0  0  0  0  0
  -23.5001  -24.5385   21.4405 C   0  0  0  0  0  0  0  0  0  0  0  0
  -28.0268  -20.1724   20.1895 C   0  0  0  0  0  0  0  0  0  0  0  0
  -29.4175  -17.8564   20.8856 C   0  0  0  0  0  0  0  0  0  0  0  0
  -20.6701  -16.7439   20.4740 C   0  0  0  0  0  0  0  0  0  0  0  0
  -23.8961  -22.3039   22.2729 C   0  0  0  0  0  0  0  0  0  0  0  0
  -18.3649  -16.9607   20.0726 C   0  0  0  0  0  0  0  0  0  0  0  0
  -27.8942  -19.6379   21.4710 C   0  0  0  0  0  0  0  0  0  0  0  0
  -15.9522  -15.7990   19.2903 C   0  0  0  0  0  0  0  0  0  0  0  0
  -17.6773  -17.4591   18.9660 C   0  0  0  0  0  0  0  0  0  0  0  0
  -24.1106  -14.2823   20.5109 C   0  0  0  0  0  0  0  0  0  0  0  0
  -25.5231  -12.6213   20.7956 C   0  0  0  0  0  0  0  0  0  0  0  0
  -23.2208  -12.1553   21.6506 C   0  0  0  0  0  0  0  0  0  0  0  0
  -22.1626  -28.3829   21.5205 C   0  0  0  0  0  0  0  0  0  0  0  0
  -25.0101  -27.6923   20.6123 C   0  0  0  0  0  0  0  0  0  0  0  0
  -28.2387  -26.6878   20.1600 C   0  0  0  0  0  0  0  0  0  0  0  0
  -30.4545  -15.6765   20.2821 C   0  0  0  0  0  0  0  0  0  0  0  0
  -21.5651  -33.0845   23.4168 C   0  0  0  0  0  0  0  0  0  0  0  0
  -22.2249  -26.2330   22.7618 C   0  0  0  0  0  0  0  0  0  0  0  0
  -23.5933  -25.5955   20.3742 C   0  0  0  0  0  0  0  0  0  0  0  0
  -22.5280  -32.4159   22.4390 C   0  0  0  0  0  0  0  0  0  0  0  0
  -29.1714  -13.4492   17.8254 C   0  0  0  0  0  0  0  0  0  0  0  0
  -21.7576  -31.6083   21.3992 C   0  0  0  0  0  0  0  0  0  0  0  0
  -27.7226  -13.2917   18.2857 C   0  0  0  0  0  0  0  0  0  0  0  0
  -29.6721  -14.8843   17.9915 C   0  0  0  0  0  0  0  0  0  0  0  0
  -28.0488  -15.2697   19.8194 C   0  0  0  0  0  0  0  0  0  0  0  0
  -20.9483  -30.4864   22.0608 C   0  0  1  0  0  0  0  0  0  0  0  0
  -23.0690  -27.3368   22.0997 C   0  0  1  0  0  0  0  0  0  0  0  0
  -27.5370  -13.8244   19.7175 C   0  0  1  0  0  0  0  0  0  0  0  0
  -27.2904  -21.4111   19.7994 C   0  0  0  0  0  0  0  0  0  0  0  0
  -30.4276  -27.4625   19.2082 C   0  0  0  0  0  0  0  0  0  0  0  0
  -23.9631  -27.1762   17.7943 C   0  0  0  0  0  0  0  0  0  0  0  0
  -26.3380  -27.0267   17.0158 C   0  0  0  0  0  0  0  0  0  0  0  0
  -25.4808  -29.1535   17.9979 C   0  0  0  0  0  0  0  0  0  0  0  0
  -30.7510  -16.5834   22.5766 C   0  0  0  0  0  0  0  0  0  0  0  0
  -29.5837  -26.4922   22.7891 C   0  0  0  0  0  0  0  0  0  0  0  0
  -24.8630  -20.3777   23.2791 C   0  0  0  0  0  0  0  0  0  1  0  0
  -26.0127  -19.4586   22.9145 C   0  0  0  0  0  0  0  0  0  0  0  0
  -25.8938  -27.1687   19.5085 C   0  0  1  0  0  0  0  0  0  0  0  0
  -29.5589  -27.3774   20.4535 C   0  0  2  0  0  0  0  0  0  0  0  0
  -25.4094  -27.6143   18.0999 C   0  0  0  0  0  0  0  0  0  0  0  0
  -25.2595  -14.7281   19.9957 N   0  0  0  0  0  0  0  0  0  0  0  0
  -26.0990  -13.6957   20.1839 N   0  0  0  0  0  0  0  0  0  0  0  0
  -23.9202  -26.8949   20.9820 N   0  0  0  0  0  0  0  0  0  0  0  0
  -29.4371  -15.3628   19.3612 N   0  0  0  0  0  0  0  0  0  0  0  0
  -26.2246  -11.4988   21.0606 N   0  0  0  0  0  0  0  0  0  0  0  0
  -21.9282  -12.6742   21.8061 N   0  0  0  0  0  0  0  0  0  0  0  0
  -21.8120  -29.3793   22.4114 N   0  0  0  0  0  0  0  0  0  0  0  0
  -27.2506  -27.5933   19.8358 N   0  0  0  0  0  0  0  0  0  0  0  0
  -30.1382  -16.6580   21.2459 N   0  0  0  0  0  0  0  0  0  0  0  0
  -30.3113  -26.6311   21.5014 N   0  3  0  0  0  0  0  0  0  0  0  0
  -23.4749  -11.0027   22.0754 O   0  0  0  0  0  0  0  0  0  0  0  0
  -21.8078  -28.2945   20.3509 O   0  0  0  0  0  0  0  0  0  0  0  0
  -25.2734  -28.7810   21.1306 O   0  0  0  0  0  0  0  0  0  0  0  0
  -28.0990  -25.4678   20.2096 O   0  0  0  0  0  0  0  0  0  0  0  0
  -31.5515  -15.1054   20.2616 O   0  0  0  0  0  0  0  0  0  0  0  0
  -19.5631  -17.5357   20.4616 O   0  0  0  0  0  0  0  0  0  0  0  0
  -24.4201  -21.0581   22.1055 O   0  0  0  0  0  0  0  0  0  1  0  0
  -27.0854  -20.2381   22.3998 O   0  0  0  0  0  0  0  0  0  0  0  0
  -14.7945  -15.2401   18.9140 F   0  0  0  0  0  0  0  0  0  0  0  0
  -18.1713  -18.4949   18.2741 F   0  0  0  0  0  0  0  0  0  0  0  0
  1  2  1  0  0  0  0
  1  5  2  0  0  0  0
  2  6  2  0  0  0  0
  3 10  2  0  0  0  0
  3 18  1  0  0  0  0
  4 11  1  0  0  0  0
  4 18  2  0  0  0  0
  5 20  1  0  0  0  0
  6 22  1  0  0  0  0
  7 12  2  0  0  0  0
  7 21  1  0  0  0  0
  8  9  2  0  0  0  0
  8 24  1  0  0  0  0
  9 25  1  0  0  0  0
 10 26  1  0  0  0  0
 11 26  2  0  0  0  0
 12 27  1  0  0  0  0
 13 14  2  0  0  0  0
 13 28  1  0  0  0  0
 14 30  1  0  0  0  0
 15 23  1  0  0  0  0
 15 27  2  0  0  0  0
 16 25  2  0  0  0  0
 16 29  1  0  0  0  0
 17 30  2  0  0  0  0
 17 31  1  0  0  0  0
 18 32  1  0  0  0  0
 19 32  1  0  0  0  0
 19 33  2  0  0  0  0
 19 34  1  0  0  0  0
 20 22  2  0  0  0  0
 20 39  1  0  0  0  0
 21 23  2  0  0  0  0
 21 40  1  0  0  0  0
 22 48  1  0  0  0  0
 23 41  1  0  0  0  0
 24 29  2  0  0  0  0
 24 51  1  0  0  0  0
 25 71  1  0  0  0  0
 26 78  1  0  0  0  0
 27 79  1  0  0  0  0
 28 31  2  0  0  0  0
 28 78  1  0  0  0  0
 29 80  1  0  0  0  0
 30 81  1  0  0  0  0
 31 82  1  0  0  0  0
 32 63  2  0  0  0  0
 33 64  1  0  0  0  0
 33 67  1  0  0  0  0
 34 68  1  0  0  0  0
 34 73  2  0  0  0  0
 35 49  1  0  0  0  0
 35 69  1  0  0  0  0
 35 74  2  0  0  0  0
 36 60  1  0  0  0  0
 36 65  1  0  0  0  0
 36 75  2  0  0  0  0
 37 61  1  0  0  0  0
 37 70  1  0  0  0  0
 37 76  2  0  0  0  0
 38 66  1  0  0  0  0
 38 71  1  0  0  0  0
 38 77  2  0  0  0  0
 39 42  1  0  0  0  0
 40 49  1  0  0  0  0
 41 65  1  0  0  0  0
 42 44  1  0  0  0  0
 43 45  1  0  0  0  0
 43 46  1  0  0  0  0
 44 48  1  0  0  0  0
 45 50  1  0  0  0  0
 46 66  1  0  0  0  0
 47 50  1  0  0  0  0
 47 66  1  0  0  0  0
 48 69  1  0  0  0  0
 49 65  1  0  0  0  0
 50 64  1  0  0  0  0
 52 61  1  0  0  0  0
 53 62  1  0  0  0  0
 54 62  1  0  0  0  0
 55 62  1  0  0  0  0
 56 71  1  0  0  0  0
 57 72  1  0  0  0  0
 58 59  1  0  0  0  0
 58 79  1  0  0  0  0
 59 80  1  0  0  0  0
 60 62  1  0  0  0  0
 60 70  1  0  0  0  0
 61 72  1  0  0  0  0
 63 64  1  0  0  0  0
M  CHG  1  72   1
M  ISO  4  38 100  58 101  71 100  79 101
M  END
> <Batch ID>
0100

> <Smiles>
CNC(C)C(=O)NC(C(=O)N1Cc2cc([101O:1][101CH2:1]COc3cc([100N:0](C)[100C:0](=O)N4CCCC(n5nc(-c6ccc(Oc7ccc(F)cc7F)cc6)c(C(N)=O)c5N)C4)ccc3C)ccc2CC1C(=O)NC1CCCc2ccccc21)C(C)(C)C

> <Shape>
0.230

> <Color>
0.090

> <Negative vol penalty>
0.000

$$$$

  -OEChem-04052300573D

 89 98  0     1  0  0  0  0  0999 V2000
  -18.9665  -28.6813   23.0707 C   0  0  0  0  0  0  0  0  0  0  0  0
  -20.3370  -28.4630   22.9732 C   0  0  0  0  0  0  0  0  0  0  0  0
  -24.2888  -14.9295   22.2440 C   0  0  0  0  0  0  0  0  0  0  0  0
  -25.6436  -13.6756   20.6854 C   0  0  0  0  0  0  0  0  0  0  0  0
  -18.0735  -27.6796   22.6925 C   0  0  0  0  0  0  0  0  0  0  0  0
  -20.8153  -27.2423   22.4984 C   0  0  0  0  0  0  0  0  0  0  0  0
  -24.5734  -27.7981   19.1499 C   0  0  0  0  0  0  0  0  0  0  0  0
  -30.8403  -25.3565   21.1060 C   0  0  0  0  0  0  0  0  0  0  0  0
  -30.3983  -24.1052   20.6764 C   0  0  0  0  0  0  0  0  0  0  0  0
  -23.2620  -13.9960   22.1025 C   0  0  0  0  0  0  0  0  0  0  0  0
  -24.6168  -12.7421   20.5439 C   0  0  0  0  0  0  0  0  0  0  0  0
  -25.8394  -28.0891   19.6561 C   0  0  0  0  0  0  0  0  0  0  0  0
  -23.3844  -10.1154   22.2766 C   0  0  0  0  0  0  0  0  0  0  0  0
  -23.7297   -8.7644   22.3100 C   0  0  0  0  0  0  0  0  0  0  0  0
  -26.4626  -25.7714   19.4135 C   0  0  0  0  0  0  0  0  0  0  0  0
  -28.6682  -24.1375   22.3625 C   0  0  0  0  0  0  0  0  0  0  0  0
  -22.8381   -8.4815   20.0824 C   0  0  0  0  0  0  0  0  0  0  0  0
  -25.4796  -14.7693   21.5354 C   0  0  0  0  0  0  0  0  0  0  0  0
  -27.2203  -16.0773   22.8645 C   0  0  0  0  0  0  0  0  0  0  0  0
  -18.5411  -26.4495   22.2038 C   0  0  0  0  0  0  0  0  0  0  0  0
  -24.2383  -26.4873   18.7813 C   0  0  0  0  0  0  0  0  0  0  0  0
  -19.9278  -26.2226   22.1146 C   0  0  0  0  0  0  0  0  0  0  0  0
  -25.1925  -25.4668   18.9005 C   0  0  0  0  0  0  0  0  0  0  0  0
  -30.1963  -25.9983   22.1639 C   0  0  0  0  0  0  0  0  0  0  0  0
  -29.3123  -23.4957   21.3046 C   0  0  0  0  0  0  0  0  0  0  0  0
  -23.4260  -12.9023   21.2524 C   0  0  0  0  0  0  0  0  0  0  0  0
  -26.7833  -27.0752   19.7907 C   0  0  0  0  0  0  0  0  0  0  0  0
  -22.7659  -10.6495   21.1462 C   0  0  0  0  0  0  0  0  0  0  0  0
  -29.1103  -25.3887   22.7921 C   0  0  0  0  0  0  0  0  0  0  0  0
  -23.4566   -7.9475   21.2129 C   0  0  0  0  0  0  0  0  0  0  0  0
  -22.4928   -9.8326   20.0491 C   0  0  0  0  0  0  0  0  0  0  0  0
  -26.5404  -15.7335   21.6807 C   0  0  0  0  0  0  0  0  0  0  0  0
  -28.1280  -17.0315   22.4743 C   0  0  0  0  0  0  0  0  0  0  0  0
  -27.0470  -15.5788   24.1976 C   0  0  0  0  0  0  0  0  0  0  0  0
  -22.0797  -24.3662   19.7533 C   0  0  0  0  0  0  0  0  0  0  0  0
  -23.2066  -22.6502   17.2417 C   0  0  0  0  0  0  0  0  0  0  0  0
  -26.4243  -21.9262   15.7791 C   0  0  0  0  0  0  0  0  0  0  0  0
  -28.9967  -21.7944   19.5155 C   0  0  0  0  0  0  0  0  0  0  0  0
  -17.5380  -25.3796   21.8518 C   0  0  0  0  0  0  0  0  0  0  0  0
  -22.8772  -26.1948   18.2118 C   0  0  0  0  0  0  0  0  0  0  0  0
  -24.8892  -24.0469   18.5000 C   0  0  0  0  0  0  0  0  0  0  0  0
  -18.1224  -24.2513   21.0059 C   0  0  0  0  0  0  0  0  0  0  0  0
  -31.6789  -30.4473   21.4028 C   0  0  0  0  0  0  0  0  0  0  0  0
  -29.5750  -18.5395   17.8780 C   0  0  0  0  0  0  0  0  0  0  0  0
  -31.2275  -30.4006   22.8615 C   0  0  0  0  0  0  0  0  0  0  0  0
  -19.4546  -23.7852   21.5846 C   0  0  0  0  0  0  0  0  0  0  0  0
  -28.8337  -17.5632   18.7898 C   0  0  0  0  0  0  0  0  0  0  0  0
  -30.5278  -30.1688   20.4471 C   0  0  0  0  0  0  0  0  0  0  0  0
  -28.9355  -19.9247   17.8915 C   0  0  0  0  0  0  0  0  0  0  0  0
  -28.0498  -19.5296   20.1696 C   0  0  0  0  0  0  0  0  0  0  0  0
  -29.8979  -29.6865   23.0648 C   0  0  0  0  0  0  0  0  0  0  0  0
  -20.4851  -24.9208   21.5811 C   0  0  1  0  0  0  0  0  0  0  0  0
  -22.4740  -24.7299   18.3498 C   0  0  1  0  0  0  0  0  0  0  0  0
  -28.6958  -18.1365   20.2108 C   0  0  1  0  0  0  0  0  0  0  0  0
  -29.9126  -28.7840   20.6839 C   0  0  2  0  0  0  0  0  0  0  0  0
  -26.9579  -21.1341   22.0235 C   0  0  0  0  0  0  0  0  0  0  0  0
  -27.0492  -21.3358   13.4215 C   0  0  0  0  0  0  0  0  0  0  0  0
  -22.9672  -19.7659   18.2078 C   0  0  0  0  0  0  0  0  0  0  0  0
  -24.9508  -19.1995   16.7891 C   0  0  0  0  0  0  0  0  0  0  0  0
  -22.8597  -20.0468   15.7251 C   0  0  0  0  0  0  0  0  0  0  0  0
  -28.3733  -24.1474   15.6164 C   0  0  0  0  0  0  0  0  0  0  0  0
  -27.3701  -25.3076   24.4111 C   0  0  0  0  0  0  0  0  0  0  0  0
  -30.6857  -27.3437   22.6126 C   0  0  0  0  0  0  0  0  0  0  0  0
  -28.5346  -28.6646   20.0409 C   0  0  0  0  0  0  0  0  0  1  0  0
  -28.4634  -21.2119   21.8705 C   0  0  0  0  0  0  0  0  0  0  0  0
  -24.3112  -21.6399   17.0469 C   0  0  1  0  0  0  0  0  0  0  0  0
  -26.9593  -22.4460   14.4570 C   0  0  2  0  0  0  0  0  0  0  0  0
  -23.7740  -20.1833   16.9621 C   0  0  0  0  0  0  0  0  0  0  0  0
  -26.9785  -16.4139   20.6182 N   0  0  0  0  0  0  0  0  0  0  0  0
  -27.9434  -17.1950   21.1329 N   0  0  0  0  0  0  0  0  0  0  0  0
  -23.5425  -23.8099   17.9545 N   0  0  0  0  0  0  0  0  0  0  0  0
  -28.7743  -20.4270   19.2565 N   0  0  0  0  0  0  0  0  0  0  0  0
  -29.0579  -17.7382   23.1512 N   0  0  0  0  0  0  0  0  0  0  0  0
  -26.0695  -14.6000   24.4230 N   0  0  0  0  0  0  0  0  0  0  0  0
  -21.0260  -25.1083   20.2519 N   0  0  0  0  0  0  0  0  0  0  0  0
  -25.0561  -22.0715   15.8691 N   0  0  0  0  0  0  0  0  0  0  0  0
  -28.8554  -22.2001   20.8602 N   0  0  0  0  0  0  0  0  0  0  0  0
  -29.7893  -28.4744   22.1751 N   0  3  1  0  0  0  0  0  0  0  0  0
  -28.3187  -23.0281   14.6411 N   0  3  0  0  0  0  0  0  0  0  0  0
  -27.7273  -16.0009   25.1632 O   0  0  0  0  0  0  0  0  0  0  0  0
  -22.6854  -23.4770   20.3399 O   0  0  0  0  0  0  0  0  0  0  0  0
  -22.0888  -22.4222   16.7725 O   0  0  0  0  0  0  0  0  0  0  0  0
  -27.1474  -21.4366   16.6440 O   0  0  0  0  0  0  0  0  0  0  0  0
  -29.3247  -22.5829   18.6209 O   0  0  0  0  0  0  0  0  0  0  0  0
  -22.4244  -11.9912   21.1143 O   0  0  0  0  0  0  0  0  0  0  0  0
  -28.4704  -26.0019   23.8271 O   0  0  0  0  0  0  0  0  0  0  0  0
  -28.0195  -27.3564   20.2852 O   0  0  0  0  0  0  0  0  0  1  0  0
  -23.7896   -6.6505   21.2445 F   0  0  0  0  0  0  0  0  0  0  0  0
  -21.8998  -10.3402   18.9598 F   0  0  0  0  0  0  0  0  0  0  0  0
  1  2  1  0  0  0  0
  1  5  2  0  0  0  0
  2  6  2  0  0  0  0
  3 10  2  0  0  0  0
  3 18  1  0  0  0  0
  4 11  1  0  0  0  0
  4 18  2  0  0  0  0
  5 20  1  0  0  0  0
  6 22  1  0  0  0  0
  7 12  2  0  0  0  0
  7 21  1  0  0  0  0
  8  9  2  0  0  0  0
  8 24  1  0  0  0  0
  9 25  1  0  0  0  0
 10 26  1  0  0  0  0
 11 26  2  0  0  0  0
 12 27  1  0  0  0  0
 13 14  2  0  0  0  0
 13 28  1  0  0  0  0
 14 30  1  0  0  0  0
 15 23  1  0  0  0  0
 15 27  2  0  0  0  0
 16 25  2  0  0  0  0
 16 29  1  0  0  0  0
 17 30  2  0  0  0  0
 17 31  1  0  0  0  0
 18 32  1  0  0  0  0
 19 32  1  0  0  0  0
 19 33  2  0  0  0  0
 19 34  1  0  0  0  0
 20 22  2  0  0  0  0
 20 39  1  0  0  0  0
 21 23  2  0  0  0  0
 21 40  1  0  0  0  0
 22 52  1  0  0  0  0
 23 41  1  0  0  0  0
 24 29  2  0  0  0  0
 24 63  1  0  0  0  0
 25 77  1  0  0  0  0
 26 85  1  0  0  0  0
 27 87  1  0  0  0  0
 28 31  2  0  0  0  0
 28 85  1  0  0  0  0
 29 86  1  0  0  0  0
 30 88  1  0  0  0  0
 31 89  1  0  0  0  0
 32 69  2  0  0  0  0
 33 70  1  0  0  0  0
 33 73  1  0  0  0  0
 34 74  1  0  0  0  0
 34 80  2  0  0  0  0
 35 53  1  0  0  0  0
 35 75  1  0  0  0  0
 35 81  2  0  0  0  0
 36 66  1  0  0  0  0
 36 71  1  0  0  0  0
 36 82  2  0  0  0  0
 37 67  1  0  0  0  0
 37 76  1  0  0  0  0
 37 83  2  0  0  0  0
 38 72  1  0  0  0  0
 38 77  1  0  0  0  0
 38 84  2  0  0  0  0
 39 42  1  0  0  0  0
 40 53  1  0  0  0  0
 41 71  1  0  0  0  0
 42 46  1  0  0  0  0
 43 45  1  0  0  0  0
 43 48  1  0  0  0  0
 44 47  1  0  0  0  0
 44 49  1  0  0  0  0
 45 51  1  0  0  0  0
 46 52  1  0  0  0  0
 47 54  1  0  0  0  0
 48 55  1  0  0  0  0
 49 72  1  0  0  0  0
 50 54  1  0  0  0  0
 50 72  1  0  0  0  0
 51 78  1  0  0  0  0
 52 75  1  0  0  0  0
 53 71  1  0  0  0  0
 54 70  1  0  0  0  0
 55 64  1  0  0  0  0
 55 78  1  0  0  0  0
 56 65  1  0  0  0  0
 57 67  1  0  0  0  0
 58 68  1  0  0  0  0
 59 68  1  0  0  0  0
 60 68  1  0  0  0  0
 61 79  1  0  0  0  0
 62 86  1  0  0  0  0
 63 78  1  0  0  0  0
 64 87  1  0  0  0  0
 65 77  1  0  0  0  0
 66 68  1  0  0  0  0
 66 76  1  0  0  0  0
 67 79  1  0  0  0  0
 69 70  1  0  0  0  0
M  CHG  2  78   1  79   1
M  ISO  4  38 100  64 101  77 100  87 101
M  END
> <Batch ID>
0100

> <Smiles>
CC[100N:0](c1ccc(CN2CCCCC2[101CH2:1][101O:1]c2ccc3c(c2)CN(C(=O)C(NC(=O)C(C)NC)C(C)(C)C)C(C(=O)NC2CCCc4ccccc42)C3)c(OC)c1)[100C:0](=O)N1CCCC(n2nc(-c3ccc(Oc4ccc(F)cc4F)cc3)c(C(N)=O)c2N)C1

> <Shape>
0.230

> <Color>
0.063

> <Negative vol penalty>
0.000

$$$$

  -OEChem-04052300573D

 87 95  0     1  0  0  0  0  0999 V2000
  -29.2582  -36.0329   25.1631 C   0  0  0  0  0  0  0  0  0  0  0  0
  -29.6193  -35.2666   24.0596 C   0  0  0  0  0  0  0  0  0  0  0  0
  -23.7727  -14.5566   15.5055 C   0  0  0  0  0  0  0  0  0  0  0  0
  -23.2573  -12.2742   16.1070 C   0  0  0  0  0  0  0  0  0  0  0  0
  -30.2094  -19.6237   19.6276 C   0  0  0  0  0  0  0  0  0  0  0  0
  -28.4366  -35.4890   26.1494 C   0  0  0  0  0  0  0  0  0  0  0  0
  -29.1598  -33.9553   23.9424 C   0  0  0  0  0  0  0  0  0  0  0  0
  -27.1904  -29.1499   19.0082 C   0  0  0  0  0  0  0  0  0  0  0  0
  -29.4999  -20.8243   19.5974 C   0  0  0  0  0  0  0  0  0  0  0  0
  -23.0885  -14.3937   14.3010 C   0  0  0  0  0  0  0  0  0  0  0  0
  -22.5730  -12.1113   14.9025 C   0  0  0  0  0  0  0  0  0  0  0  0
  -27.4550  -27.8384   18.6161 C   0  0  0  0  0  0  0  0  0  0  0  0
  -23.3402  -11.5560   11.6569 C   0  0  0  0  0  0  0  0  0  0  0  0
  -23.5751  -10.3884   10.9308 C   0  0  0  0  0  0  0  0  0  0  0  0
  -25.9762  -27.0303   20.3421 C   0  0  0  0  0  0  0  0  0  0  0  0
  -21.2348   -9.8126   11.0994 C   0  0  0  0  0  0  0  0  0  0  0  0
  -23.8572  -13.4968   16.4085 C   0  0  0  0  0  0  0  0  0  0  0  0
  -30.0243  -18.7305   20.6828 C   0  0  0  0  0  0  0  0  0  0  0  0
  -24.0337  -14.1071   18.8792 C   0  0  0  0  0  0  0  0  0  0  0  0
  -27.9588  -34.1736   26.0394 C   0  0  0  0  0  0  0  0  0  0  0  0
  -26.3236  -29.4115   20.0790 C   0  0  0  0  0  0  0  0  0  0  0  0
  -28.3320  -33.3927   24.9288 C   0  0  0  0  0  0  0  0  0  0  0  0
  -25.7002  -28.3461   20.7442 C   0  0  0  0  0  0  0  0  0  0  0  0
  -29.1297  -19.0378   21.7080 C   0  0  0  0  0  0  0  0  0  0  0  0
  -28.4202  -20.2384   21.6779 C   0  0  0  0  0  0  0  0  0  0  0  0
  -28.6053  -21.1316   20.6226 C   0  0  0  0  0  0  0  0  0  0  0  0
  -22.4887  -13.1711   13.9995 C   0  0  0  0  0  0  0  0  0  0  0  0
  -26.8502  -26.7783   19.2849 C   0  0  0  0  0  0  0  0  0  0  0  0
  -22.0525  -11.8519   12.1043 C   0  0  0  0  0  0  0  0  0  0  0  0
  -22.5225   -9.5168   10.6521 C   0  0  0  0  0  0  0  0  0  0  0  0
  -20.9998  -10.9802   11.8255 C   0  0  0  0  0  0  0  0  0  0  0  0
  -24.5643  -13.6643   17.6527 C   0  0  0  0  0  0  0  0  0  0  0  0
  -25.1028  -14.0920   19.7413 C   0  0  0  0  0  0  0  0  0  0  0  0
  -30.7945  -17.4602   20.6863 C   0  0  0  0  0  0  0  0  0  0  0  0
  -22.6942  -14.4972   19.2096 C   0  0  0  0  0  0  0  0  0  0  0  0
  -26.6259  -30.8020   22.9214 C   0  0  0  0  0  0  0  0  0  0  0  0
  -23.4114  -30.3818   23.0346 C   0  0  0  0  0  0  0  0  0  0  0  0
  -27.9734  -23.3387   19.5914 C   0  0  0  0  0  0  0  0  0  0  0  0
  -20.6756  -28.6531   21.9511 C   0  0  0  0  0  0  0  0  0  0  0  0
  -30.7539  -15.1140   19.9007 C   0  0  0  0  0  0  0  0  0  0  0  0
  -27.1116  -33.6133   27.1543 C   0  0  0  0  0  0  0  0  0  0  0  0
  -26.0277  -30.8328   20.4724 C   0  0  0  0  0  0  0  0  0  0  0  0
  -24.7460  -28.5742   21.8870 C   0  0  0  0  0  0  0  0  0  0  0  0
  -26.3619  -32.3406   26.7690 C   0  0  0  0  0  0  0  0  0  0  0  0
  -29.4978  -11.8109   19.8062 C   0  0  0  0  0  0  0  0  0  0  0  0
  -27.2941  -31.3675   26.0544 C   0  0  0  0  0  0  0  0  0  0  0  0
  -28.0412  -11.9909   19.3698 C   0  0  0  0  0  0  0  0  0  0  0  0
  -30.4285  -12.7922   19.0950 C   0  0  0  0  0  0  0  0  0  0  0  0
  -28.5800  -14.3794   18.7465 C   0  0  0  0  0  0  0  0  0  0  0  0
  -27.8335  -31.9747   24.7536 C   0  0  1  0  0  0  0  0  0  0  0  0
  -25.5283  -30.9638   21.9080 C   0  0  1  0  0  0  0  0  0  0  0  0
  -27.5933  -13.4617   19.4863 C   0  0  1  0  0  0  0  0  0  0  0  0
  -27.4605  -20.5665   22.7789 C   0  0  0  0  0  0  0  0  0  0  0  0
  -30.2200  -17.8572   23.6498 C   0  0  0  0  0  0  0  0  0  0  0  0
  -28.3646  -16.7289   22.3694 C   0  0  0  0  0  0  0  0  0  0  0  0
  -18.1879  -28.5134   22.2505 C   0  0  0  0  0  0  0  0  0  0  0  0
  -23.8150  -28.9778   25.7133 C   0  0  0  0  0  0  0  0  0  0  0  0
  -21.5000  -28.0492   25.4964 C   0  0  0  0  0  0  0  0  0  0  0  0
  -21.8452  -30.5163   25.6283 C   0  0  0  0  0  0  0  0  0  0  0  0
  -20.1806  -29.2852   19.1025 C   0  0  0  0  0  0  0  0  0  0  0  0
  -27.0455  -24.4942   19.9178 C   0  0  0  0  0  0  0  0  0  1  0  0
  -28.9308  -18.0796   22.8403 C   0  0  0  0  0  0  0  0  0  0  0  0
  -22.4929  -29.2852   23.5171 C   0  0  1  0  0  0  0  0  0  0  0  0
  -19.3240  -29.1219   21.4431 C   0  0  2  0  0  0  0  0  0  0  0  0
  -22.4327  -29.2024   25.0685 C   0  0  0  0  0  0  0  0  0  0  0  0
  -25.8691  -13.3882   17.7251 N   0  0  0  0  0  0  0  0  0  0  0  0
  -26.1674  -13.6582   19.0073 N   0  0  0  0  0  0  0  0  0  0  0  0
  -24.4939  -29.9815   22.2384 N   0  0  0  0  0  0  0  0  0  0  0  0
  -29.9405  -14.1624   19.2611 N   0  0  0  0  0  0  0  0  0  0  0  0
  -25.2267  -14.4076   21.0480 N   0  0  0  0  0  0  0  0  0  0  0  0
  -21.7184  -14.4535   18.2045 N   0  0  0  0  0  0  0  0  0  0  0  0
  -27.8962  -22.3551   20.5715 N   0  0  0  0  0  0  0  0  0  0  0  0
  -30.1807  -16.3820   20.0484 N   0  0  0  0  0  0  0  0  0  0  0  0
  -26.8288  -31.9157   23.7137 N   0  0  0  0  0  0  0  0  0  0  0  0
  -21.2020  -29.5246   22.8810 N   0  0  0  0  0  0  0  0  0  0  0  0
  -19.1451  -28.7355   20.0149 N   0  3  0  0  0  0  0  0  0  0  0  0
  -31.9104  -17.4389   21.1984 O   0  0  0  0  0  0  0  0  0  0  0  0
  -22.3756  -14.8890   20.3578 O   0  0  0  0  0  0  0  0  0  0  0  0
  -27.2419  -29.7443   22.9811 O   0  0  0  0  0  0  0  0  0  0  0  0
  -23.1730  -31.5512   23.3464 O   0  0  0  0  0  0  0  0  0  0  0  0
  -28.6695  -23.3393   18.5815 O   0  0  0  0  0  0  0  0  0  0  0  0
  -21.2091  -27.6155   21.5647 O   0  0  0  0  0  0  0  0  0  0  0  0
  -31.8783  -14.8480   20.3368 O   0  0  0  0  0  0  0  0  0  0  0  0
  -21.8207  -13.0118   12.8243 O   0  0  0  0  0  0  0  0  0  0  0  0
  -27.1073  -25.4972   18.9047 O   0  0  0  0  0  0  0  0  0  1  0  0
  -22.7480   -8.3963    9.9535 F   0  0  0  0  0  0  0  0  0  0  0  0
  -19.7604  -11.2597   12.2517 F   0  0  0  0  0  0  0  0  0  0  0  0
  1  2  1  0  0  0  0
  1  6  2  0  0  0  0
  2  7  2  0  0  0  0
  3 10  2  0  0  0  0
  3 17  1  0  0  0  0
  4 11  1  0  0  0  0
  4 17  2  0  0  0  0
  5  9  2  0  0  0  0
  5 18  1  0  0  0  0
  6 20  1  0  0  0  0
  7 22  1  0  0  0  0
  8 12  2  0  0  0  0
  8 21  1  0  0  0  0
  9 26  1  0  0  0  0
 10 27  1  0  0  0  0
 11 27  2  0  0  0  0
 12 28  1  0  0  0  0
 13 14  2  0  0  0  0
 13 29  1  0  0  0  0
 14 30  1  0  0  0  0
 15 23  1  0  0  0  0
 15 28  2  0  0  0  0
 16 30  2  0  0  0  0
 16 31  1  0  0  0  0
 17 32  1  0  0  0  0
 18 24  2  0  0  0  0
 18 34  1  0  0  0  0
 19 32  1  0  0  0  0
 19 33  2  0  0  0  0
 19 35  1  0  0  0  0
 20 22  2  0  0  0  0
 20 41  1  0  0  0  0
 21 23  2  0  0  0  0
 21 42  1  0  0  0  0
 22 50  1  0  0  0  0
 23 43  1  0  0  0  0
 24 25  1  0  0  0  0
 24 62  1  0  0  0  0
 25 26  2  0  0  0  0
 25 53  1  0  0  0  0
 26 72  1  0  0  0  0
 27 84  1  0  0  0  0
 28 85  1  0  0  0  0
 29 31  2  0  0  0  0
 29 84  1  0  0  0  0
 30 86  1  0  0  0  0
 31 87  1  0  0  0  0
 32 66  2  0  0  0  0
 33 67  1  0  0  0  0
 33 70  1  0  0  0  0
 34 73  1  0  0  0  0
 34 77  2  0  0  0  0
 35 71  1  0  0  0  0
 35 78  2  0  0  0  0
 36 51  1  0  0  0  0
 36 74  1  0  0  0  0
 36 79  2  0  0  0  0
 37 63  1  0  0  0  0
 37 68  1  0  0  0  0
 37 80  2  0  0  0  0
 38 61  1  0  0  0  0
 38 72  1  0  0  0  0
 38 81  2  0  0  0  0
 39 64  1  0  0  0  0
 39 75  1  0  0  0  0
 39 82  2  0  0  0  0
 40 69  1  0  0  0  0
 40 73  1  0  0  0  0
 40 83  2  0  0  0  0
 41 44  1  0  0  0  0
 42 51  1  0  0  0  0
 43 68  1  0  0  0  0
 44 46  1  0  0  0  0
 45 47  1  0  0  0  0
 45 48  1  0  0  0  0
 46 50  1  0  0  0  0
 47 52  1  0  0  0  0
 48 69  1  0  0  0  0
 49 52  1  0  0  0  0
 49 69  1  0  0  0  0
 50 74  1  0  0  0  0
 51 68  1  0  0  0  0
 52 67  1  0  0  0  0
 54 62  1  0  0  0  0
 55 62  1  0  0  0  0
 56 64  1  0  0  0  0
 57 65  1  0  0  0  0
 58 65  1  0  0  0  0
 59 65  1  0  0  0  0
 60 76  1  0  0  0  0
 61 85  1  0  0  0  0
 63 65  1  0  0  0  0
 63 75  1  0  0  0  0
 64 76  1  0  0  0  0
 66 67  1  0  0  0  0
M  CHG  1  76   1
M  ISO  4  40 100  61 101  73 100  85 101
M  END
> <Batch ID>
0100

> <Smiles>
CNC(C)C(=O)NC(C(=O)N1Cc2cc([101O:1][101CH2:1]C(=O)Nc3ccc(C(=O)[100NH:0][100C:0](=O)N4CCCC(n5nc(-c6ccc(Oc7ccc(F)cc7F)cc6)c(C(N)=O)c5N)C4)c(C(C)C)c3C)ccc2CC1C(=O)NC1CCCc2ccccc21)C(C)(C)C

> <Shape>
0.261

> <Color>
0.123

> <Negative vol penalty>
0.000

$$$$

  -OEChem-04052300573D

 89 98  0     1  0  0  0  0  0999 V2000
  -32.0785  -12.8939   17.6350 C   0  0  0  0  0  0  0  0  0  0  0  0
  -31.4488  -14.0450   17.1725 C   0  0  0  0  0  0  0  0  0  0  0  0
  -25.0407  -31.7685   24.3104 C   0  0  0  0  0  0  0  0  0  0  0  0
  -24.9674  -31.3188   21.9378 C   0  0  0  0  0  0  0  0  0  0  0  0
  -31.4619  -12.1054   18.6055 C   0  0  0  0  0  0  0  0  0  0  0  0
  -30.2014  -14.4076   17.6795 C   0  0  0  0  0  0  0  0  0  0  0  0
  -29.2182  -20.7715   20.9083 C   0  0  0  0  0  0  0  0  0  0  0  0
  -25.6432  -33.0010   24.0583 C   0  0  0  0  0  0  0  0  0  0  0  0
  -25.5699  -32.5514   21.6856 C   0  0  0  0  0  0  0  0  0  0  0  0
  -28.8991  -22.0554   21.3508 C   0  0  0  0  0  0  0  0  0  0  0  0
  -28.7256  -34.1554   23.2896 C   0  0  0  0  0  0  0  0  0  0  0  0
  -29.8198  -34.5141   24.0767 C   0  0  0  0  0  0  0  0  0  0  0  0
  -26.6267  -21.3522   21.7862 C   0  0  0  0  0  0  0  0  0  0  0  0
  -23.8894  -27.7370   19.4325 C   0  0  0  0  0  0  0  0  0  0  0  0
  -23.4922  -25.7461   20.7422 C   0  0  0  0  0  0  0  0  0  0  0  0
  -28.6255  -36.4682   24.8464 C   0  0  0  0  0  0  0  0  0  0  0  0
  -24.7029  -30.9274   23.2502 C   0  0  0  0  0  0  0  0  0  0  0  0
  -24.6072  -28.5894   24.2663 C   0  0  0  0  0  0  0  0  0  0  0  0
  -30.2107  -12.4637   19.1317 C   0  0  0  0  0  0  0  0  0  0  0  0
  -28.2456  -19.7678   20.9176 C   0  0  0  0  0  0  0  0  0  0  0  0
  -29.5669  -13.6224   18.6570 C   0  0  0  0  0  0  0  0  0  0  0  0
  -26.9438  -20.0611   21.3559 C   0  0  0  0  0  0  0  0  0  0  0  0
  -22.5499  -27.7487   19.0439 C   0  0  0  0  0  0  0  0  0  0  0  0
  -24.3606  -26.7357   20.2816 C   0  0  0  0  0  0  0  0  0  0  0  0
  -21.6814  -26.7591   19.5045 C   0  0  0  0  0  0  0  0  0  0  0  0
  -25.9078  -33.3924   22.7459 C   0  0  0  0  0  0  0  0  0  0  0  0
  -27.6065  -22.3451   21.7884 C   0  0  0  0  0  0  0  0  0  0  0  0
  -27.5813  -34.9530   23.2808 C   0  0  0  0  0  0  0  0  0  0  0  0
  -29.7698  -35.6705   24.8551 C   0  0  0  0  0  0  0  0  0  0  0  0
  -22.1526  -25.7578   20.3537 C   0  0  0  0  0  0  0  0  0  0  0  0
  -27.5312  -36.1094   24.0592 C   0  0  0  0  0  0  0  0  0  0  0  0
  -24.0810  -29.6539   23.5101 C   0  0  0  0  0  0  0  0  0  0  0  0
  -23.6388  -27.6170   24.2105 C   0  0  0  0  0  0  0  0  0  0  0  0
  -26.7028  -27.2575   19.7797 C   0  0  0  0  0  0  0  0  0  0  0  0
  -26.0619  -26.1837   21.9581 C   0  0  0  0  0  0  0  0  0  0  0  0
  -25.8594  -28.4887   24.9573 C   0  0  0  0  0  0  0  0  0  0  0  0
  -27.4033  -16.1797   20.2165 C   0  0  0  0  0  0  0  0  0  0  0  0
  -26.0022  -16.9274   22.8411 C   0  0  0  0  0  0  0  0  0  0  0  0
  -24.5558  -16.9417   25.9306 C   0  0  0  0  0  0  0  0  0  0  0  0
  -19.2311  -26.8475   20.0328 C   0  0  0  0  0  0  0  0  0  0  0  0
  -29.5620  -11.5545   20.1451 C   0  0  0  0  0  0  0  0  0  0  0  0
  -28.5281  -18.3866   20.3921 C   0  0  0  0  0  0  0  0  0  0  0  0
  -25.9207  -18.9589   21.3157 C   0  0  0  0  0  0  0  0  0  0  0  0
  -28.1275  -27.3980   20.2758 C   0  0  0  0  0  0  0  0  0  0  0  0
  -28.4100  -12.2100   20.9024 C   0  0  0  0  0  0  0  0  0  0  0  0
  -28.2858  -27.2229   21.7673 C   0  0  0  0  0  0  0  0  0  0  0  0
  -18.9221  -27.0202   23.7162 C   0  0  0  0  0  0  0  0  0  0  0  0
  -27.4826  -12.9397   19.9358 C   0  0  0  0  0  0  0  0  0  0  0  0
  -20.2229  -27.7033   24.1341 C   0  0  0  0  0  0  0  0  0  0  0  0
  -18.4860  -27.4408   22.3160 C   0  0  0  0  0  0  0  0  0  0  0  0
  -20.8389  -27.9062   21.6926 C   0  0  0  0  0  0  0  0  0  0  0  0
  -28.2247  -14.0622   19.2004 C   0  0  1  0  0  0  0  0  0  0  0  0
  -27.5371  -25.9924   22.2456 C   0  0  2  0  0  0  0  0  0  0  0  0
  -27.7790  -17.2835   21.1609 C   0  0  1  0  0  0  0  0  0  0  0  0
  -21.3209  -27.4681   23.0837 C   0  0  1  0  0  0  0  0  0  0  0  0
  -22.0731  -28.8329   18.1324 C   0  0  0  0  0  0  0  0  0  0  0  0
  -22.7603  -15.8108   27.2701 C   0  0  0  0  0  0  0  0  0  0  0  0
  -23.8803  -18.5108   21.3266 C   0  0  0  0  0  0  0  0  0  0  0  0
  -22.3171  -18.1109   23.2409 C   0  0  0  0  0  0  0  0  0  0  0  0
  -23.2069  -16.1805   21.9354 C   0  0  0  0  0  0  0  0  0  0  0  0
  -19.9707  -26.3858   17.7368 C   0  0  0  0  0  0  0  0  0  0  0  0
  -26.5041  -15.9618   27.9314 C   0  0  0  0  0  0  0  0  0  0  0  0
  -28.0306  -24.6810   21.6426 C   0  0  0  0  0  0  0  0  0  1  0  0
  -24.7453  -17.4294   23.5056 C   0  0  1  0  0  0  0  0  0  0  0  0
  -24.2348  -15.8167   26.8979 C   0  0  2  0  0  0  0  0  0  0  0  0
  -23.5625  -17.5706   22.5063 C   0  0  0  0  0  0  0  0  0  0  0  0
  -22.8722  -29.3833   23.0104 N   0  0  0  0  0  0  0  0  0  0  0  0
  -22.6308  -28.1377   23.4535 N   0  0  0  0  0  0  0  0  0  0  0  0
  -25.7532  -26.7236   20.6840 N   0  0  0  0  0  0  0  0  0  0  0  0
  -26.5172  -17.7021   21.7946 N   0  0  0  0  0  0  0  0  0  0  0  0
  -19.5610  -27.2676   21.3377 N   0  0  0  0  0  0  0  0  0  0  0  0
  -23.5597  -26.3759   24.7356 N   0  0  0  0  0  0  0  0  0  0  0  0
  -26.7372  -29.5803   24.9122 N   0  0  0  0  0  0  0  0  0  0  0  0
  -28.3801  -15.2145   20.0621 N   0  0  0  0  0  0  0  0  0  0  0  0
  -24.4824  -16.5237   24.6187 N   0  0  0  0  0  0  0  0  0  0  0  0
  -20.2931  -26.7566   19.1129 N   0  0  0  0  0  0  0  0  0  0  0  0
  -25.0342  -15.9637   28.1471 N   0  3  0  0  0  0  0  0  0  0  0  0
  -26.4752  -27.5405   18.5987 O   0  0  0  0  0  0  0  0  0  0  0  0
  -25.2423  -25.8867   22.8310 O   0  0  0  0  0  0  0  0  0  0  0  0
  -26.1971  -27.4548   25.5823 O   0  0  0  0  0  0  0  0  0  0  0  0
  -26.3073  -16.2001   19.6687 O   0  0  0  0  0  0  0  0  0  0  0  0
  -26.5126  -15.8743   23.2334 O   0  0  0  0  0  0  0  0  0  0  0  0
  -24.8395  -18.0785   26.3015 O   0  0  0  0  0  0  0  0  0  0  0  0
  -18.0628  -26.6222   19.6936 O   0  0  0  0  0  0  0  0  0  0  0  0
  -26.4955  -34.5951   22.4994 O   0  0  0  0  0  0  0  0  0  0  0  0
  -27.3030  -23.5995   22.2234 O   0  0  0  0  0  0  0  0  0  1  0  0
  -30.8201  -36.0140   25.6121 F   0  0  0  0  0  0  0  0  0  0  0  0
  -21.3275  -24.8012   20.8028 F   0  0  0  0  0  0  0  0  0  0  0  0
  -26.4342  -36.8791   24.0558 F   0  0  0  0  0  0  0  0  0  0  0  0
  1  2  1  0  0  0  0
  1  5  2  0  0  0  0
  2  6  2  0  0  0  0
  3  8  2  0  0  0  0
  3 17  1  0  0  0  0
  4  9  1  0  0  0  0
  4 17  2  0  0  0  0
  5 19  1  0  0  0  0
  6 21  1  0  0  0  0
  7 10  2  0  0  0  0
  7 20  1  0  0  0  0
  8 26  1  0  0  0  0
  9 26  2  0  0  0  0
 10 27  1  0  0  0  0
 11 12  2  0  0  0  0
 11 28  1  0  0  0  0
 12 29  1  0  0  0  0
 13 22  1  0  0  0  0
 13 27  2  0  0  0  0
 14 23  2  0  0  0  0
 14 24  1  0  0  0  0
 15 24  2  0  0  0  0
 15 30  1  0  0  0  0
 16 29  2  0  0  0  0
 16 31  1  0  0  0  0
 17 32  1  0  0  0  0
 18 32  1  0  0  0  0
 18 33  2  0  0  0  0
 18 36  1  0  0  0  0
 19 21  2  0  0  0  0
 19 41  1  0  0  0  0
 20 22  2  0  0  0  0
 20 42  1  0  0  0  0
 21 52  1  0  0  0  0
 22 43  1  0  0  0  0
 23 25  1  0  0  0  0
 23 56  1  0  0  0  0
 24 69  1  0  0  0  0
 25 30  2  0  0  0  0
 25 76  1  0  0  0  0
 26 85  1  0  0  0  0
 27 86  1  0  0  0  0
 28 31  2  0  0  0  0
 28 85  1  0  0  0  0
 29 87  1  0  0  0  0
 30 88  1  0  0  0  0
 31 89  1  0  0  0  0
 32 67  2  0  0  0  0
 33 68  1  0  0  0  0
 33 72  1  0  0  0  0
 34 44  1  0  0  0  0
 34 69  1  0  0  0  0
 34 78  2  0  0  0  0
 35 53  1  0  0  0  0
 35 69  1  0  0  0  0
 35 79  2  0  0  0  0
 36 73  1  0  0  0  0
 36 80  2  0  0  0  0
 37 54  1  0  0  0  0
 37 74  1  0  0  0  0
 37 81  2  0  0  0  0
 38 64  1  0  0  0  0
 38 70  1  0  0  0  0
 38 82  2  0  0  0  0
 39 65  1  0  0  0  0
 39 75  1  0  0  0  0
 39 83  2  0  0  0  0
 40 71  1  0  0  0  0
 40 76  1  0  0  0  0
 40 84  2  0  0  0  0
 41 45  1  0  0  0  0
 42 54  1  0  0  0  0
 43 70  1  0  0  0  0
 44 46  1  0  0  0  0
 45 48  1  0  0  0  0
 46 53  1  0  0  0  0
 47 49  1  0  0  0  0
 47 50  1  0  0  0  0
 48 52  1  0  0  0  0
 49 55  1  0  0  0  0
 50 71  1  0  0  0  0
 51 55  1  0  0  0  0
 51 71  1  0  0  0  0
 52 74  1  0  0  0  0
 53 63  1  0  0  0  0
 54 70  1  0  0  0  0
 55 68  1  0  0  0  0
 57 65  1  0  0  0  0
 58 66  1  0  0  0  0
 59 66  1  0  0  0  0
 60 66  1  0  0  0  0
 61 76  1  0  0  0  0
 62 77  1  0  0  0  0
 63 86  1  0  0  0  0
 64 66  1  0  0  0  0
 64 75  1  0  0  0  0
 65 77  1  0  0  0  0
 67 68  1  0  0  0  0
M  CHG  1  77   1
M  ISO  4  40 100  63 101  76 100  86 101
M  END
> <Batch ID>
0100

> <Smiles>
CNC(C)C(=O)NC(C(=O)N1Cc2cc([101O:1][101CH2:1]C3CCC(=O)N(c4cc(C)c([100N:0](C)[100C:0](=O)N5CCCC(n6nc(-c7ccc(Oc8ccc(F)cc8F)cc7)c(C(N)=O)c6N)C5)c(F)c4)C3=O)ccc2CC1C(=O)NC1CCCc2ccccc21)C(C)(C)C

> <Shape>
0.233

> <Color>
0.061

> <Negative vol penalty>
0.000

$$$$

  -OEChem-04052300573D

 84 92  0     1  0  0  0  0  0999 V2000
  -22.9364  -28.2405   20.4304 C   0  0  0  0  0  0  0  0  0  0  0  0
  -23.5500  -27.2105   21.1360 C   0  0  0  0  0  0  0  0  0  0  0  0
  -23.1973   -9.8552   19.9516 C   0  0  0  0  0  0  0  0  0  0  0  0
  -23.9138   -9.9273   22.2578 C   0  0  0  0  0  0  0  0  0  0  0  0
  -21.6735  -28.0461   19.8726 C   0  0  0  0  0  0  0  0  0  0  0  0
  -22.9005  -25.9856   21.2852 C   0  0  0  0  0  0  0  0  0  0  0  0
  -25.4928  -20.4395   21.4484 C   0  0  0  0  0  0  0  0  0  0  0  0
  -33.3972  -15.0385   24.3985 C   0  0  0  0  0  0  0  0  0  0  0  0
  -32.6256  -14.7247   23.2797 C   0  0  0  0  0  0  0  0  0  0  0  0
  -22.5048   -8.6709   20.2037 C   0  0  0  0  0  0  0  0  0  0  0  0
  -23.2213   -8.7430   22.5100 C   0  0  0  0  0  0  0  0  0  0  0  0
  -25.8448  -19.5994   22.5039 C   0  0  0  0  0  0  0  0  0  0  0  0
  -20.0244   -7.7989   23.0658 C   0  0  0  0  0  0  0  0  0  0  0  0
  -19.2489   -7.7374   24.2235 C   0  0  0  0  0  0  0  0  0  0  0  0
  -23.7578  -18.4164   22.2502 C   0  0  0  0  0  0  0  0  0  0  0  0
  -31.4026  -15.7069   25.5867 C   0  0  0  0  0  0  0  0  0  0  0  0
  -20.5676   -5.8711   25.0077 C   0  0  0  0  0  0  0  0  0  0  0  0
  -23.9018  -10.4834   20.9786 C   0  0  0  0  0  0  0  0  0  0  0  0
  -24.1249  -13.0203   20.8309 C   0  0  0  0  0  0  0  0  0  0  0  0
  -21.0123  -26.8151   20.0068 C   0  0  0  0  0  0  0  0  0  0  0  0
  -24.2638  -20.2811   20.7919 C   0  0  0  0  0  0  0  0  0  0  0  0
  -21.6269  -25.7750   20.7299 C   0  0  0  0  0  0  0  0  0  0  0  0
  -23.3937  -19.2542   21.1850 C   0  0  0  0  0  0  0  0  0  0  0  0
  -32.7857  -15.5295   25.5521 C   0  0  0  0  0  0  0  0  0  0  0  0
  -31.2425  -14.9021   23.3143 C   0  0  0  0  0  0  0  0  0  0  0  0
  -22.5168   -8.1149   21.4829 C   0  0  0  0  0  0  0  0  0  0  0  0
  -24.9760  -18.5894   22.9068 C   0  0  0  0  0  0  0  0  0  0  0  0
  -21.0715   -6.8965   22.8790 C   0  0  0  0  0  0  0  0  0  0  0  0
  -30.6310  -15.3932   24.4678 C   0  0  0  0  0  0  0  0  0  0  0  0
  -19.5205   -6.7735   25.1945 C   0  0  0  0  0  0  0  0  0  0  0  0
  -21.3431   -5.9326   23.8499 C   0  0  0  0  0  0  0  0  0  0  0  0
  -24.6178  -11.7065   20.7186 C   0  0  0  0  0  0  0  0  0  0  0  0
  -25.1865  -13.8167   20.4770 C   0  0  0  0  0  0  0  0  0  0  0  0
  -26.3830  -15.7451   24.5809 C   0  0  0  0  0  0  0  0  0  0  0  0
  -25.9998  -16.6209   23.6466 C   0  0  0  0  0  0  0  0  0  1  0  0
  -22.8237  -13.4798   21.2203 C   0  0  0  0  0  0  0  0  0  0  0  0
  -21.6858  -22.0962   20.3887 C   0  0  0  0  0  0  0  0  0  0  0  0
  -20.7625  -19.6722   18.4409 C   0  0  0  0  0  0  0  0  0  0  0  0
  -21.0217  -16.3761   17.5951 C   0  0  0  0  0  0  0  0  0  0  0  0
  -30.9366  -14.0814   20.9523 C   0  0  0  0  0  0  0  0  0  0  0  0
  -19.6279  -26.6676   19.4268 C   0  0  0  0  0  0  0  0  0  0  0  0
  -23.9107  -21.1787   19.6378 C   0  0  0  0  0  0  0  0  0  0  0  0
  -22.0715  -19.0294   20.4997 C   0  0  0  0  0  0  0  0  0  0  0  0
  -19.1677  -25.2168   19.3103 C   0  0  0  0  0  0  0  0  0  0  0  0
  -29.3581  -13.1244   17.9077 C   0  0  0  0  0  0  0  0  0  0  0  0
  -19.4597  -24.4588   20.6014 C   0  0  0  0  0  0  0  0  0  0  0  0
  -27.9262  -12.7893   18.3314 C   0  0  0  0  0  0  0  0  0  0  0  0
  -30.3764  -12.6996   18.9644 C   0  0  0  0  0  0  0  0  0  0  0  0
  -28.6795  -12.8661   20.7426 C   0  0  0  0  0  0  0  0  0  0  0  0
  -20.9649  -24.4238   20.8922 C   0  0  1  0  0  0  0  0  0  0  0  0
  -22.4095  -21.2537   19.3768 C   0  0  1  0  0  0  0  0  0  0  0  0
  -27.6130  -13.3339   19.7389 C   0  0  2  0  0  0  0  0  0  0  0  0
  -26.3088  -13.2662   24.7134 C   0  0  0  0  0  0  0  0  0  0  0  0
  -20.1153  -14.6785   15.9845 C   0  0  0  0  0  0  0  0  0  0  0  0
  -18.1716  -19.5355   20.0468 C   0  0  0  0  0  0  0  0  0  0  0  0
  -17.7514  -17.2798   19.0450 C   0  0  0  0  0  0  0  0  0  0  0  0
  -17.8810  -19.2909   17.5749 C   0  0  0  0  0  0  0  0  0  0  0  0
  -23.7005  -15.8664   16.4448 C   0  0  0  0  0  0  0  0  0  0  0  0
  -28.4991  -14.4717   24.9793 C   0  0  0  0  0  0  0  0  0  0  0  0
  -27.1379  -14.4735   24.2756 C   0  0  2  0  0  0  0  0  0  0  0  0
  -19.9948  -18.3855   18.6257 C   0  0  1  0  0  0  0  0  0  0  0  0
  -21.2161  -15.6927   16.2536 C   0  0  2  0  0  0  0  0  0  0  0  0
  -18.4737  -18.6282   18.8375 C   0  0  0  0  0  0  0  0  0  0  0  0
  -25.8932  -11.6662   20.3241 N   0  0  0  0  0  0  0  0  0  0  0  0
  -26.2107  -12.9646   20.1853 N   0  0  0  0  0  0  0  0  0  0  0  0
  -21.7686  -19.9370   19.3808 N   0  0  0  0  0  0  0  0  0  0  0  0
  -30.0175  -13.2559   20.2707 N   0  0  0  0  0  0  0  0  0  0  0  0
  -33.5658  -15.8460   26.6837 N   0  0  0  0  0  0  0  0  0  0  0  0
  -25.3344  -15.1557   20.3899 N   0  0  0  0  0  0  0  0  0  0  0  0
  -21.8504  -12.5275   21.5517 N   0  0  0  0  0  0  0  0  0  0  0  0
  -30.4725  -14.5785   22.1697 N   0  0  0  0  0  0  0  0  0  0  0  0
  -21.6178  -23.4366   20.0594 N   0  0  0  0  0  0  0  0  0  0  0  0
  -20.3118  -17.5517   17.4713 N   0  0  0  0  0  0  0  0  0  0  0  0
  -22.5268  -14.9843   16.2183 N   0  3  0  0  0  0  0  0  0  0  0  0
  -22.5280  -14.6983   21.2570 O   0  0  0  0  0  0  0  0  0  0  0  0
  -21.2220  -21.5691   21.3931 O   0  0  0  0  0  0  0  0  0  0  0  0
  -20.4845  -20.4115   17.4934 O   0  0  0  0  0  0  0  0  0  0  0  0
  -21.4530  -15.9115   18.6480 O   0  0  0  0  0  0  0  0  0  0  0  0
  -32.0428  -14.3510   20.4773 O   0  0  0  0  0  0  0  0  0  0  0  0
  -21.8410   -6.9594   21.7294 O   0  0  0  0  0  0  0  0  0  0  0  0
  -25.3168  -17.7684   23.9371 O   0  0  0  0  0  0  0  0  0  1  0  0
  -29.2743  -15.5745   24.5233 O   0  0  0  0  0  0  0  0  0  0  0  0
  -18.7767   -6.7155   26.3069 F   0  0  0  0  0  0  0  0  0  0  0  0
  -22.3485   -5.0637   23.6766 F   0  0  0  0  0  0  0  0  0  0  0  0
  1  2  1  0  0  0  0
  1  5  2  0  0  0  0
  2  6  2  0  0  0  0
  3 10  2  0  0  0  0
  3 18  1  0  0  0  0
  4 11  1  0  0  0  0
  4 18  2  0  0  0  0
  5 20  1  0  0  0  0
  6 22  1  0  0  0  0
  7 12  2  0  0  0  0
  7 21  1  0  0  0  0
  8  9  2  0  0  0  0
  8 24  1  0  0  0  0
  9 25  1  0  0  0  0
 10 26  1  0  0  0  0
 11 26  2  0  0  0  0
 12 27  1  0  0  0  0
 13 14  2  0  0  0  0
 13 28  1  0  0  0  0
 14 30  1  0  0  0  0
 15 23  1  0  0  0  0
 15 27  2  0  0  0  0
 16 24  2  0  0  0  0
 16 29  1  0  0  0  0
 17 30  2  0  0  0  0
 17 31  1  0  0  0  0
 18 32  1  0  0  0  0
 19 32  1  0  0  0  0
 19 33  2  0  0  0  0
 19 36  1  0  0  0  0
 20 22  2  0  0  0  0
 20 41  1  0  0  0  0
 21 23  2  0  0  0  0
 21 42  1  0  0  0  0
 22 50  1  0  0  0  0
 23 43  1  0  0  0  0
 24 68  1  0  0  0  0
 25 29  2  0  0  0  0
 25 71  1  0  0  0  0
 26 80  1  0  0  0  0
 27 81  1  0  0  0  0
 28 31  2  0  0  0  0
 28 80  1  0  0  0  0
 29 82  1  0  0  0  0
 30 83  1  0  0  0  0
 31 84  1  0  0  0  0
 32 64  2  0  0  0  0
 33 65  1  0  0  0  0
 33 69  1  0  0  0  0
 34 35  2  0  0  0  0
 34 60  1  0  0  0  0
 35 81  1  0  0  0  0
 36 70  1  0  0  0  0
 36 75  2  0  0  0  0
 37 51  1  0  0  0  0
 37 72  1  0  0  0  0
 37 76  2  0  0  0  0
 38 61  1  0  0  0  0
 38 66  1  0  0  0  0
 38 77  2  0  0  0  0
 39 62  1  0  0  0  0
 39 73  1  0  0  0  0
 39 78  2  0  0  0  0
 40 67  1  0  0  0  0
 40 71  1  0  0  0  0
 40 79  2  0  0  0  0
 41 44  1  0  0  0  0
 42 51  1  0  0  0  0
 43 66  1  0  0  0  0
 44 46  1  0  0  0  0
 45 47  1  0  0  0  0
 45 48  1  0  0  0  0
 46 50  1  0  0  0  0
 47 52  1  0  0  0  0
 48 67  1  0  0  0  0
 49 52  1  0  0  0  0
 49 67  1  0  0  0  0
 50 72  1  0  0  0  0
 51 66  1  0  0  0  0
 52 65  1  0  0  0  0
 53 60  1  0  0  0  0
 54 62  1  0  0  0  0
 55 63  1  0  0  0  0
 56 63  1  0  0  0  0
 57 63  1  0  0  0  0
 58 74  1  0  0  0  0
 59 60  1  0  0  0  0
 59 82  1  0  0  0  0
 61 63  1  0  0  0  0
 61 73  1  0  0  0  0
 62 74  1  0  0  0  0
 64 65  1  0  0  0  0
M  CHG  1  74   1
M  ISO  4  35 101  40 100  71 100  81 101
M  END
> <Batch ID>
0100

> <Smiles>
CNC(C)C(=O)NC(C(=O)N1Cc2cc([101O:1][101CH:1]=CC(C)COc3cc(N)ccc3[100NH:0][100C:0](=O)N3CCCC(n4nc(-c5ccc(Oc6ccc(F)cc6F)cc5)c(C(N)=O)c4N)C3)ccc2CC1C(=O)NC1CCCc2ccccc21)C(C)(C)C

> <Shape>
0.170

> <Color>
0.178

> <Negative vol penalty>
0.000

$$$$

  -OEChem-04052300572D

  0  0  0     0  0  0  0  0  0999 V2000
M  END
$$$$

  -OEChem-04052300573D

 88 96  0     1  0  0  0  0  0999 V2000
  -28.7926  -37.2167   20.9099 C   0  0  0  0  0  0  0  0  0  0  0  0
  -29.1194  -35.8681   20.8112 C   0  0  0  0  0  0  0  0  0  0  0  0
  -23.6002   -8.7854   20.2294 C   0  0  0  0  0  0  0  0  0  0  0  0
  -23.0174  -10.6787   21.6124 C   0  0  0  0  0  0  0  0  0  0  0  0
  -28.4823  -19.5647   18.4352 C   0  0  0  0  0  0  0  0  0  0  0  0
  -27.6969  -37.6131   21.6756 C   0  0  0  0  0  0  0  0  0  0  0  0
  -28.3512  -34.9150   21.4790 C   0  0  0  0  0  0  0  0  0  0  0  0
  -27.0559  -29.2398   19.5765 C   0  0  0  0  0  0  0  0  0  0  0  0
  -28.3815  -18.1739   18.4691 C   0  0  0  0  0  0  0  0  0  0  0  0
  -22.7251   -7.9820   20.9604 C   0  0  0  0  0  0  0  0  0  0  0  0
  -22.1423   -9.8754   22.3434 C   0  0  0  0  0  0  0  0  0  0  0  0
  -27.6131  -27.9985   19.8805 C   0  0  0  0  0  0  0  0  0  0  0  0
  -22.7144   -6.3762   23.9346 C   0  0  0  0  0  0  0  0  0  0  0  0
  -23.1663   -5.1158   24.3256 C   0  0  0  0  0  0  0  0  0  0  0  0
  -25.8960  -27.6398   21.5363 C   0  0  0  0  0  0  0  0  0  0  0  0
  -30.4444  -18.0549   19.7211 C   0  0  0  0  0  0  0  0  0  0  0  0
  -21.3671   -4.0859   23.0848 C   0  0  0  0  0  0  0  0  0  0  0  0
  -23.7464  -10.1337   20.5554 C   0  0  0  0  0  0  0  0  0  0  0  0
  -29.5642  -20.2006   19.0441 C   0  0  0  0  0  0  0  0  0  0  0  0
  -24.3536  -11.7150   18.6479 C   0  0  0  0  0  0  0  0  0  0  0  0
  -26.9091  -36.6635   22.3453 C   0  0  0  0  0  0  0  0  0  0  0  0
  -25.9189  -29.6959   20.2589 C   0  0  0  0  0  0  0  0  0  0  0  0
  -27.2447  -35.2991   22.2554 C   0  0  0  0  0  0  0  0  0  0  0  0
  -25.3247  -28.8862   21.2374 C   0  0  0  0  0  0  0  0  0  0  0  0
  -29.3625  -17.4190   19.1121 C   0  0  0  0  0  0  0  0  0  0  0  0
  -21.9961   -8.5270   22.0174 C   0  0  0  0  0  0  0  0  0  0  0  0
  -27.0349  -27.1995   20.8625 C   0  0  0  0  0  0  0  0  0  0  0  0
  -21.5889   -6.4915   23.1188 C   0  0  0  0  0  0  0  0  0  0  0  0
  -22.4927   -3.9707   23.9007 C   0  0  0  0  0  0  0  0  0  0  0  0
  -30.5452  -19.4457   19.6871 C   0  0  0  0  0  0  0  0  0  0  0  0
  -20.9152   -5.3463   22.6939 C   0  0  0  0  0  0  0  0  0  0  0  0
  -24.6506  -10.9640   19.8009 C   0  0  0  0  0  0  0  0  0  0  0  0
  -25.5407  -12.3222   18.3183 C   0  0  0  0  0  0  0  0  0  0  0  0
  -29.6688  -21.6820   19.0030 C   0  0  0  0  0  0  0  0  0  0  0  0
  -23.1153  -11.8517   17.9382 C   0  0  0  0  0  0  0  0  0  0  0  0
  -25.2783  -32.1728   22.1453 C   0  0  0  0  0  0  0  0  0  0  0  0
  -31.7546  -24.0859   20.9158 C   0  0  0  0  0  0  0  0  0  0  0  0
  -29.2251  -24.2352   20.8830 C   0  0  0  0  0  0  0  0  0  0  0  0
  -22.2451  -31.0399   21.9484 C   0  0  0  0  0  0  0  0  0  0  0  0
  -20.1743  -28.3867   21.3839 C   0  0  0  0  0  0  0  0  0  0  0  0
  -30.1460  -15.1091   19.7419 C   0  0  0  0  0  0  0  0  0  0  0  0
  -25.7626  -37.1439   23.1994 C   0  0  0  0  0  0  0  0  0  0  0  0
  -25.3142  -31.0257   19.9006 C   0  0  0  0  0  0  0  0  0  0  0  0
  -24.0916  -29.3210   21.9848 C   0  0  0  0  0  0  0  0  0  0  0  0
  -24.7763  -36.0399   23.5718 C   0  0  0  0  0  0  0  0  0  0  0  0
  -30.2268  -11.5652   20.0759 C   0  0  0  0  0  0  0  0  0  0  0  0
  -25.5212  -34.7979   24.0510 C   0  0  0  0  0  0  0  0  0  0  0  0
  -28.7588  -11.1547   19.9393 C   0  0  0  0  0  0  0  0  0  0  0  0
  -30.3786  -12.8862   20.8280 C   0  0  0  0  0  0  0  0  0  0  0  0
  -28.1140  -13.5884   20.1588 C   0  0  0  0  0  0  0  0  0  0  0  0
  -26.4209  -34.2333   22.9450 C   0  0  1  0  0  0  0  0  0  0  0  0
  -24.4576  -31.6131   21.0180 C   0  0  1  0  0  0  0  0  0  0  0  0
  -27.9067  -12.2965   19.3515 C   0  0  2  0  0  0  0  0  0  0  0  0
  -32.4748  -25.3492   20.5176 C   0  0  0  0  0  0  0  0  0  0  0  0
  -17.7448  -27.7604   21.3308 C   0  0  0  0  0  0  0  0  0  0  0  0
  -22.1820  -31.0354   24.9990 C   0  0  0  0  0  0  0  0  0  0  0  0
  -20.1708  -29.5488   24.8858 C   0  0  0  0  0  0  0  0  0  0  0  0
  -20.0793  -31.8441   23.9133 C   0  0  0  0  0  0  0  0  0  0  0  0
  -20.3141  -27.6235   18.5278 C   0  0  0  0  0  0  0  0  0  0  0  0
  -28.7388  -25.5977   20.4302 C   0  0  0  0  0  0  0  0  0  1  0  0
  -30.4707  -23.7041   20.1964 C   0  0  2  0  0  0  0  0  0  0  0  0
  -21.4195  -30.0521   22.7368 C   0  0  1  0  0  0  0  0  0  0  0  0
  -18.9363  -28.2416   20.5174 C   0  0  2  0  0  0  0  0  0  0  0  0
  -20.9873  -30.6124   24.1211 C   0  0  0  0  0  0  0  0  0  0  0  0
  -25.9264  -11.0816   20.1784 N   0  0  0  0  0  0  0  0  0  0  0  0
  -26.4416  -11.9135   19.2572 N   0  0  0  0  0  0  0  0  0  0  0  0
  -23.5413  -30.6321   21.6029 N   0  0  0  0  0  0  0  0  0  0  0  0
  -29.5460  -13.9219   20.2123 N   0  0  0  0  0  0  0  0  0  0  0  0
  -25.8914  -13.1603   17.3199 N   0  0  0  0  0  0  0  0  0  0  0  0
  -21.9932  -11.1587   18.4127 N   0  0  0  0  0  0  0  0  0  0  0  0
  -29.2599  -16.0062   19.1464 N   0  0  0  0  0  0  0  0  0  0  0  0
  -30.3125  -22.2812   20.0803 N   0  0  0  0  0  0  0  0  0  0  0  0
  -25.6333  -33.4978   21.9790 N   0  0  0  0  0  0  0  0  0  0  0  0
  -20.3076  -29.6687   21.8736 N   0  0  0  0  0  0  0  0  0  0  0  0
  -19.1831  -27.2628   19.4211 N   0  3  0  0  0  0  0  0  0  0  0  0
  -29.1779  -22.2921   18.0569 O   0  0  0  0  0  0  0  0  0  0  0  0
  -23.0110  -12.5540   16.9041 O   0  0  0  0  0  0  0  0  0  0  0  0
  -25.5668  -31.4559   23.0964 O   0  0  0  0  0  0  0  0  0  0  0  0
  -32.1811  -23.3940   21.8439 O   0  0  0  0  0  0  0  0  0  0  0  0
  -28.6607  -23.6096   21.7809 O   0  0  0  0  0  0  0  0  0  0  0  0
  -21.7553  -32.1304   21.6440 O   0  0  0  0  0  0  0  0  0  0  0  0
  -20.9439  -27.4549   21.6072 O   0  0  0  0  0  0  0  0  0  0  0  0
  -31.3609  -15.3030   19.8342 O   0  0  0  0  0  0  0  0  0  0  0  0
  -21.1420   -7.7434   22.7309 O   0  0  0  0  0  0  0  0  0  0  0  0
  -27.5772  -25.9878   21.1617 O   0  0  0  0  0  0  0  0  0  1  0  0
  -22.9276   -2.7603   24.2749 F   0  0  0  0  0  0  0  0  0  0  0  0
  -31.5896  -20.0462   20.2755 F   0  0  0  0  0  0  0  0  0  0  0  0
  -19.8340   -5.4507   21.9091 F   0  0  0  0  0  0  0  0  0  0  0  0
  1  2  1  0  0  0  0
  1  6  2  0  0  0  0
  2  7  2  0  0  0  0
  3 10  2  0  0  0  0
  3 18  1  0  0  0  0
  4 11  1  0  0  0  0
  4 18  2  0  0  0  0
  5  9  2  0  0  0  0
  5 19  1  0  0  0  0
  6 21  1  0  0  0  0
  7 23  1  0  0  0  0
  8 12  2  0  0  0  0
  8 22  1  0  0  0  0
  9 25  1  0  0  0  0
 10 26  1  0  0  0  0
 11 26  2  0  0  0  0
 12 27  1  0  0  0  0
 13 14  2  0  0  0  0
 13 28  1  0  0  0  0
 14 29  1  0  0  0  0
 15 24  1  0  0  0  0
 15 27  2  0  0  0  0
 16 25  2  0  0  0  0
 16 30  1  0  0  0  0
 17 29  2  0  0  0  0
 17 31  1  0  0  0  0
 18 32  1  0  0  0  0
 19 30  2  0  0  0  0
 19 34  1  0  0  0  0
 20 32  1  0  0  0  0
 20 33  2  0  0  0  0
 20 35  1  0  0  0  0
 21 23  2  0  0  0  0
 21 42  1  0  0  0  0
 22 24  2  0  0  0  0
 22 43  1  0  0  0  0
 23 51  1  0  0  0  0
 24 44  1  0  0  0  0
 25 71  1  0  0  0  0
 26 84  1  0  0  0  0
 27 85  1  0  0  0  0
 28 31  2  0  0  0  0
 28 84  1  0  0  0  0
 29 86  1  0  0  0  0
 30 87  1  0  0  0  0
 31 88  1  0  0  0  0
 32 65  2  0  0  0  0
 33 66  1  0  0  0  0
 33 69  1  0  0  0  0
 34 72  1  0  0  0  0
 34 76  2  0  0  0  0
 35 70  1  0  0  0  0
 35 77  2  0  0  0  0
 36 52  1  0  0  0  0
 36 73  1  0  0  0  0
 36 78  2  0  0  0  0
 37 54  1  0  0  0  0
 37 61  1  0  0  0  0
 37 79  2  0  0  0  0
 38 60  1  0  0  0  0
 38 61  1  0  0  0  0
 38 80  2  0  0  0  0
 39 62  1  0  0  0  0
 39 67  1  0  0  0  0
 39 81  2  0  0  0  0
 40 63  1  0  0  0  0
 40 74  1  0  0  0  0
 40 82  2  0  0  0  0
 41 68  1  0  0  0  0
 41 71  1  0  0  0  0
 41 83  2  0  0  0  0
 42 45  1  0  0  0  0
 43 52  1  0  0  0  0
 44 67  1  0  0  0  0
 45 47  1  0  0  0  0
 46 48  1  0  0  0  0
 46 49  1  0  0  0  0
 47 51  1  0  0  0  0
 48 53  1  0  0  0  0
 49 68  1  0  0  0  0
 50 53  1  0  0  0  0
 50 68  1  0  0  0  0
 51 73  1  0  0  0  0
 52 67  1  0  0  0  0
 53 66  1  0  0  0  0
 55 63  1  0  0  0  0
 56 64  1  0  0  0  0
 57 64  1  0  0  0  0
 58 64  1  0  0  0  0
 59 75  1  0  0  0  0
 60 85  1  0  0  0  0
 61 72  1  0  0  0  0
 62 64  1  0  0  0  0
 62 74  1  0  0  0  0
 63 75  1  0  0  0  0
 65 66  1  0  0  0  0
M  CHG  1  75   1
M  ISO  4  41 100  60 101  71 100  85 101
M  END
> <Batch ID>
0100

> <Smiles>
CNC(C)C(=O)NC(C(=O)N1Cc2cc([101O:1][101CH2:1]C(=O)C(NC(=O)c3ccc([100NH:0][100C:0](=O)N4CCCC(n5nc(-c6ccc(Oc7ccc(F)cc7F)cc6)c(C(N)=O)c5N)C4)cc3F)C(C)=O)ccc2CC1C(=O)NC1CCCc2ccccc21)C(C)(C)C

> <Shape>
0.326

> <Color>
0.113

> <Negative vol penalty>
0.000

$$$$

  -OEChem-04052300573D

 85 94  0     1  0  0  0  0  0999 V2000
  -25.6641  -35.2276   21.7995 C   0  0  0  0  0  0  0  0  0  0  0  0
  -26.2675  -33.9744   21.7692 C   0  0  0  0  0  0  0  0  0  0  0  0
  -22.1976  -10.6745   22.6553 C   0  0  0  0  0  0  0  0  0  0  0  0
  -23.5091  -10.5411   20.6306 C   0  0  0  0  0  0  0  0  0  0  0  0
  -24.3894  -35.3732   22.3451 C   0  0  0  0  0  0  0  0  0  0  0  0
  -25.5968  -32.8663   22.2855 C   0  0  0  0  0  0  0  0  0  0  0  0
  -25.9146  -28.8190   19.2583 C   0  0  0  0  0  0  0  0  0  0  0  0
  -26.9780  -21.2707   17.4563 C   0  0  0  0  0  0  0  0  0  0  0  0
  -25.9413  -20.5755   18.0788 C   0  0  0  0  0  0  0  0  0  0  0  0
  -21.7894   -9.3526   22.4780 C   0  0  0  0  0  0  0  0  0  0  0  0
  -23.1010   -9.2191   20.4534 C   0  0  0  0  0  0  0  0  0  0  0  0
  -27.1080  -28.0986   19.2817 C   0  0  0  0  0  0  0  0  0  0  0  0
  -20.6892   -5.8987   22.7522 C   0  0  0  0  0  0  0  0  0  0  0  0
  -20.7114   -5.0583   23.8652 C   0  0  0  0  0  0  0  0  0  0  0  0
  -26.0882  -26.4682   20.7381 C   0  0  0  0  0  0  0  0  0  0  0  0
  -28.5928  -20.0043   18.7314 C   0  0  0  0  0  0  0  0  0  0  0  0
  -23.0893   -5.4210   24.0916 C   0  0  0  0  0  0  0  0  0  0  0  0
  -23.0574  -11.2688   21.7315 C   0  0  0  0  0  0  0  0  0  0  0  0
  -24.6110  -13.0882   22.6169 C   0  0  0  0  0  0  0  0  0  0  0  0
  -23.6988  -34.2646   22.8596 C   0  0  0  0  0  0  0  0  0  0  0  0
  -24.8005  -28.3745   19.9847 C   0  0  0  0  0  0  0  0  0  0  0  0
  -24.3121  -32.9974   22.8397 C   0  0  0  0  0  0  0  0  0  0  0  0
  -24.8811  -27.1834   20.7202 C   0  0  0  0  0  0  0  0  0  0  0  0
  -28.3038  -20.9851   17.7826 C   0  0  0  0  0  0  0  0  0  0  0  0
  -26.2303  -19.5947   19.0276 C   0  0  0  0  0  0  0  0  0  0  0  0
  -22.2411   -8.6248   21.3771 C   0  0  0  0  0  0  0  0  0  0  0  0
  -27.1959  -26.9245   20.0240 C   0  0  0  0  0  0  0  0  0  0  0  0
  -21.8671   -6.5001   22.3087 C   0  0  0  0  0  0  0  0  0  0  0  0
  -21.9114   -4.8195   24.5350 C   0  0  0  0  0  0  0  0  0  0  0  0
  -27.5561  -19.3091   19.3539 C   0  0  0  0  0  0  0  0  0  0  0  0
  -23.0671   -6.2613   22.9785 C   0  0  0  0  0  0  0  0  0  0  0  0
  -23.4789  -12.6345   21.9138 C   0  0  0  0  0  0  0  0  0  0  0  0
  -24.5651  -14.4556   22.4961 C   0  0  0  0  0  0  0  0  0  0  0  0
  -25.6144  -12.3404   23.3167 C   0  0  0  0  0  0  0  0  0  0  0  0
  -23.0679  -29.5492   22.3767 C   0  0  0  0  0  0  0  0  0  0  0  0
  -21.2197  -26.9465   21.8003 C   0  0  0  0  0  0  0  0  0  0  0  0
  -20.9828  -23.7819   20.5448 C   0  0  0  0  0  0  0  0  0  0  0  0
  -23.8062  -19.0534   19.4485 C   0  0  0  0  0  0  0  0  0  0  0  0
  -22.3420  -34.4795   23.4822 C   0  0  0  0  0  0  0  0  0  0  0  0
  -23.5123  -29.1488   19.9276 C   0  0  0  0  0  0  0  0  0  0  0  0
  -23.7075  -26.6526   21.5009 C   0  0  0  0  0  0  0  0  0  0  0  0
  -21.5461  -33.1903   23.6682 C   0  0  0  0  0  0  0  0  0  0  0  0
  -20.8962  -17.4890   20.7758 C   0  0  0  0  0  0  0  0  0  0  0  0
  -22.4239  -32.1050   24.2833 C   0  0  0  0  0  0  0  0  0  0  0  0
  -21.4018  -16.1239   21.2480 C   0  0  0  0  0  0  0  0  0  0  0  0
  -30.8833  -24.9717   17.5431 C   0  0  0  0  0  0  0  0  0  0  0  0
  -21.5872  -17.9355   19.4886 C   0  0  0  0  0  0  0  0  0  0  0  0
  -23.5606  -16.5546   20.0065 C   0  0  0  0  0  0  0  0  0  0  0  0
  -31.2158  -23.4988   17.3696 C   0  0  0  0  0  0  0  0  0  0  0  0
  -29.0847  -23.7911   18.5302 C   0  0  0  0  0  0  0  0  0  0  0  0
  -23.6065  -31.7671   23.3675 C   0  0  1  0  0  0  0  0  0  0  0  0
  -22.5981  -28.8763   21.1181 C   0  0  1  0  0  0  0  0  0  0  0  0
  -29.9709  -25.0030   18.7613 C   0  0  2  0  0  0  0  0  0  0  0  0
  -22.9403  -16.0921   21.3350 C   0  0  2  0  0  0  0  0  0  0  0  0
  -19.3535  -21.8960   20.2510 C   0  0  0  0  0  0  0  0  0  0  0  0
  -21.4945  -26.2514   24.7585 C   0  0  0  0  0  0  0  0  0  0  0  0
  -20.6896  -23.9428   24.2193 C   0  0  0  0  0  0  0  0  0  0  0  0
  -19.2047  -25.9059   23.8141 C   0  0  0  0  0  0  0  0  0  0  0  0
  -21.2284  -23.8751   17.5969 C   0  0  0  0  0  0  0  0  0  0  0  0
  -29.4191  -21.7335   17.1141 C   0  0  0  0  0  0  0  0  0  0  0  0
  -29.1880  -26.2921   18.8893 C   0  0  0  0  0  0  0  0  0  1  0  0
  -21.1930  -25.5223   22.3002 C   0  0  1  0  0  0  0  0  0  0  0  0
  -19.9643  -23.1382   19.6213 C   0  0  2  0  0  0  0  0  0  0  0  0
  -20.6683  -25.4164   23.7600 C   0  0  0  0  0  0  0  0  0  0  0  0
  -22.7658  -13.6328   21.3855 N   0  0  0  0  0  0  0  0  0  0  0  0
  -23.4515  -14.7273   21.7570 N   0  0  0  0  0  0  0  0  0  0  0  0
  -22.4719  -27.4487   21.4187 N   0  0  0  0  0  0  0  0  0  0  0  0
  -23.0423  -17.8838   19.6469 N   0  0  0  0  0  0  0  0  0  0  0  0
  -25.3689  -15.4400   22.9511 N   0  0  0  0  0  0  0  0  0  0  0  0
  -25.5100  -10.9430   23.3421 N   0  0  0  0  0  0  0  0  0  0  0  0
  -25.1751  -18.8904   19.6587 N   0  0  0  0  0  0  0  0  0  0  0  0
  -23.1741  -30.9231   22.2743 N   0  0  0  0  0  0  0  0  0  0  0  0
  -20.4133  -24.7631   21.3285 N   0  0  0  0  0  0  0  0  0  0  0  0
  -30.0535  -22.7553   18.0017 N   0  3  1  0  0  0  0  0  0  0  0  0
  -20.6066  -22.7457   18.3351 N   0  3  0  0  0  0  0  0  0  0  0  0
  -26.5661  -12.8959   23.9161 O   0  0  0  0  0  0  0  0  0  0  0  0
  -23.3144  -28.8721   23.3680 O   0  0  0  0  0  0  0  0  0  0  0  0
  -20.1672  -27.5873   21.7435 O   0  0  0  0  0  0  0  0  0  0  0  0
  -22.1645  -23.4452   20.5712 O   0  0  0  0  0  0  0  0  0  0  0  0
  -23.2814  -20.1273   19.1431 O   0  0  0  0  0  0  0  0  0  0  0  0
  -21.8433   -7.3348   21.2040 O   0  0  0  0  0  0  0  0  0  0  0  0
  -28.3597  -26.2197   20.0490 O   0  0  0  0  0  0  0  0  0  1  0  0
  -21.9322   -4.0137   25.6048 F   0  0  0  0  0  0  0  0  0  0  0  0
  -27.8454  -18.3696   20.2655 F   0  0  0  0  0  0  0  0  0  0  0  0
  -24.2017   -6.8372   22.5579 F   0  0  0  0  0  0  0  0  0  0  0  0
  1  2  1  0  0  0  0
  1  5  2  0  0  0  0
  2  6  2  0  0  0  0
  3 10  2  0  0  0  0
  3 18  1  0  0  0  0
  4 11  1  0  0  0  0
  4 18  2  0  0  0  0
  5 20  1  0  0  0  0
  6 22  1  0  0  0  0
  7 12  2  0  0  0  0
  7 21  1  0  0  0  0
  8  9  2  0  0  0  0
  8 24  1  0  0  0  0
  9 25  1  0  0  0  0
 10 26  1  0  0  0  0
 11 26  2  0  0  0  0
 12 27  1  0  0  0  0
 13 14  2  0  0  0  0
 13 28  1  0  0  0  0
 14 29  1  0  0  0  0
 15 23  1  0  0  0  0
 15 27  2  0  0  0  0
 16 24  2  0  0  0  0
 16 30  1  0  0  0  0
 17 29  2  0  0  0  0
 17 31  1  0  0  0  0
 18 32  1  0  0  0  0
 19 32  1  0  0  0  0
 19 33  2  0  0  0  0
 19 34  1  0  0  0  0
 20 22  2  0  0  0  0
 20 39  1  0  0  0  0
 21 23  2  0  0  0  0
 21 40  1  0  0  0  0
 22 51  1  0  0  0  0
 23 41  1  0  0  0  0
 24 60  1  0  0  0  0
 25 30  2  0  0  0  0
 25 71  1  0  0  0  0
 26 81  1  0  0  0  0
 27 82  1  0  0  0  0
 28 31  2  0  0  0  0
 28 81  1  0  0  0  0
 29 83  1  0  0  0  0
 30 84  1  0  0  0  0
 31 85  1  0  0  0  0
 32 65  2  0  0  0  0
 33 66  1  0  0  0  0
 33 69  1  0  0  0  0
 34 70  1  0  0  0  0
 34 76  2  0  0  0  0
 35 52  1  0  0  0  0
 35 72  1  0  0  0  0
 35 77  2  0  0  0  0
 36 62  1  0  0  0  0
 36 67  1  0  0  0  0
 36 78  2  0  0  0  0
 37 63  1  0  0  0  0
 37 73  1  0  0  0  0
 37 79  2  0  0  0  0
 38 68  1  0  0  0  0
 38 71  1  0  0  0  0
 38 80  2  0  0  0  0
 39 42  1  0  0  0  0
 40 52  1  0  0  0  0
 41 67  1  0  0  0  0
 42 44  1  0  0  0  0
 43 45  1  0  0  0  0
 43 47  1  0  0  0  0
 44 51  1  0  0  0  0
 45 54  1  0  0  0  0
 46 49  1  0  0  0  0
 46 53  1  0  0  0  0
 47 68  1  0  0  0  0
 48 54  1  0  0  0  0
 48 68  1  0  0  0  0
 49 74  1  0  0  0  0
 50 53  1  0  0  0  0
 50 74  1  0  0  0  0
 51 72  1  0  0  0  0
 52 67  1  0  0  0  0
 53 61  1  0  0  0  0
 54 66  1  0  0  0  0
 55 63  1  0  0  0  0
 56 64  1  0  0  0  0
 57 64  1  0  0  0  0
 58 64  1  0  0  0  0
 59 75  1  0  0  0  0
 60 74  1  0  0  0  0
 61 82  1  0  0  0  0
 62 64  1  0  0  0  0
 62 73  1  0  0  0  0
 63 75  1  0  0  0  0
 65 66  1  0  0  0  0
M  CHG  2  74   1  75   1
M  ISO  4  38 100  61 101  71 100  82 101
M  END
> <Batch ID>
0100

> <Smiles>
CNC(C)C(=O)NC(C(=O)N1Cc2cc([101O:1][101CH2:1]C3CCN(Cc4ccc([100NH:0][100C:0](=O)N5CCCC(n6nc(-c7ccc(Oc8ccc(F)cc8F)cc7)c(C(N)=O)c6N)C5)c(F)c4)C3)ccc2CC1C(=O)NC1CCCc2ccccc21)C(C)(C)C

> <Shape>
0.243

> <Color>
0.087

> <Negative vol penalty>
0.000

$$$$

  -OEChem-04052300573D

 87 96  0     1  0  0  0  0  0999 V2000
  -18.3748  -28.1866   18.7636 C   0  0  0  0  0  0  0  0  0  0  0  0
  -19.7561  -28.0589   18.6578 C   0  0  0  0  0  0  0  0  0  0  0  0
  -24.8514   -8.7631   21.9274 C   0  0  0  0  0  0  0  0  0  0  0  0
  -23.2298  -10.3532   21.1032 C   0  0  0  0  0  0  0  0  0  0  0  0
  -17.8251  -29.0056   19.7489 C   0  0  0  0  0  0  0  0  0  0  0  0
  -20.5885  -28.7512   19.5366 C   0  0  0  0  0  0  0  0  0  0  0  0
  -24.3374  -25.8647   21.3419 C   0  0  0  0  0  0  0  0  0  0  0  0
  -30.8462  -20.8032   18.4453 C   0  0  0  0  0  0  0  0  0  0  0  0
  -28.8920  -21.2133   19.8054 C   0  0  0  0  0  0  0  0  0  0  0  0
  -30.3969  -19.5076   18.1902 C   0  0  0  0  0  0  0  0  0  0  0  0
  -28.4426  -19.9176   19.5502 C   0  0  0  0  0  0  0  0  0  0  0  0
  -23.8949   -7.7505   21.8558 C   0  0  0  0  0  0  0  0  0  0  0  0
  -22.2732   -9.3405   21.0316 C   0  0  0  0  0  0  0  0  0  0  0  0
  -25.4263  -25.6364   20.5017 C   0  0  0  0  0  0  0  0  0  0  0  0
  -21.2565   -6.6835   23.6792 C   0  0  0  0  0  0  0  0  0  0  0  0
  -21.1524   -5.8135   24.7645 C   0  0  0  0  0  0  0  0  0  0  0  0
  -26.6748  -27.3402   21.6668 C   0  0  0  0  0  0  0  0  0  0  0  0
  -21.6723   -3.9485   23.3193 C   0  0  0  0  0  0  0  0  0  0  0  0
  -24.5189  -10.0645   21.5511 C   0  0  0  0  0  0  0  0  0  0  0  0
  -26.1918  -11.5533   22.7728 C   0  0  0  0  0  0  0  0  0  0  0  0
  -18.6510  -29.7007   20.6464 C   0  0  0  0  0  0  0  0  0  0  0  0
  -24.4053  -26.8417   22.3455 C   0  0  0  0  0  0  0  0  0  0  0  0
  -20.0493  -29.5814   20.5340 C   0  0  0  0  0  0  0  0  0  0  0  0
  -25.5863  -27.5772   22.5201 C   0  0  0  0  0  0  0  0  0  0  0  0
  -30.0938  -21.6560   19.2529 C   0  0  0  0  0  0  0  0  0  0  0  0
  -29.1950  -19.0648   18.7426 C   0  0  0  0  0  0  0  0  0  0  0  0
  -22.6058   -8.0392   21.4079 C   0  0  0  0  0  0  0  0  0  0  0  0
  -26.5942  -26.3762   20.6622 C   0  0  0  0  0  0  0  0  0  0  0  0
  -21.5684   -6.1861   22.4139 C   0  0  0  0  0  0  0  0  0  0  0  0
  -21.3603   -4.4460   24.5845 C   0  0  0  0  0  0  0  0  0  0  0  0
  -21.7764   -4.8186   22.2340 C   0  0  0  0  0  0  0  0  0  0  0  0
  -25.5064  -11.1112   21.6254 C   0  0  0  0  0  0  0  0  0  0  0  0
  -27.0120  -12.5565   22.3174 C   0  0  0  0  0  0  0  0  0  0  0  0
  -31.9350  -23.2911   19.5477 C   0  0  0  0  0  0  0  0  0  0  0  0
  -26.0958  -11.0978   24.1289 C   0  0  0  0  0  0  0  0  0  0  0  0
  -22.8264  -29.5287   22.9708 C   0  0  0  0  0  0  0  0  0  0  0  0
  -24.5966  -29.4771   25.6885 C   0  0  0  0  0  0  0  0  0  0  0  0
  -28.0072  -28.7275   26.5959 C   0  0  0  0  0  0  0  0  0  0  0  0
  -27.9450  -17.0228   19.4198 C   0  0  0  0  0  0  0  0  0  0  0  0
  -18.0118  -30.6113   21.6648 C   0  0  0  0  0  0  0  0  0  0  0  0
  -23.2313  -27.0573   23.2608 C   0  0  0  0  0  0  0  0  0  0  0  0
  -25.7172  -28.6235   23.5955 C   0  0  0  0  0  0  0  0  0  0  0  0
  -32.3145  -24.7596   19.5193 C   0  0  0  0  0  0  0  0  0  0  0  0
  -18.9539  -31.0169   22.7954 C   0  0  0  0  0  0  0  0  0  0  0  0
  -31.3576  -25.6663   20.2618 C   0  0  0  0  0  0  0  0  0  0  0  0
  -28.2049  -13.9686   17.6177 C   0  0  0  0  0  0  0  0  0  0  0  0
  -20.3055  -31.4485   22.2351 C   0  0  0  0  0  0  0  0  0  0  0  0
  -27.5675  -12.9834   18.5968 C   0  0  0  0  0  0  0  0  0  0  0  0
  -27.4708  -15.3097   17.5958 C   0  0  0  0  0  0  0  0  0  0  0  0
  -29.5587  -23.9883   19.9593 C   0  0  0  0  0  0  0  0  0  0  0  0
  -26.6760  -14.9454   19.9109 C   0  0  0  0  0  0  0  0  0  0  0  0
  -20.9847  -30.2967   21.4845 C   0  0  1  0  0  0  0  0  0  0  0  0
  -23.2307  -28.4343   23.9176 C   0  0  1  0  0  0  0  0  0  0  0  0
  -29.9538  -25.4452   19.7230 C   0  0  1  0  0  0  0  0  0  0  0  0
  -27.4278  -13.6079   19.9963 C   0  0  1  0  0  0  0  0  0  0  0  0
  -27.7947  -17.7051   16.1945 C   0  0  0  0  0  0  0  0  0  0  0  0
  -28.9767  -27.9049   28.7594 C   0  0  0  0  0  0  0  0  0  0  0  0
  -25.0647  -32.4359   26.2688 C   0  0  0  0  0  0  0  0  0  0  0  0
  -27.2459  -31.8115   27.3275 C   0  0  0  0  0  0  0  0  0  0  0  0
  -25.1068  -30.9578   28.2857 C   0  0  0  0  0  0  0  0  0  0  0  0
  -29.2858  -26.4080   25.2752 C   0  0  0  0  0  0  0  0  0  0  0  0
  -28.9564  -26.3925   20.3866 C   0  0  0  0  0  0  0  0  0  1  0  0
  -28.8755  -17.1866   17.1215 C   0  0  0  0  0  0  0  0  0  0  0  0
  -25.9470  -30.0156   26.0952 C   0  0  1  0  0  0  0  0  0  0  0  0
  -28.4965  -27.5166   27.3697 C   0  0  2  0  0  0  0  0  0  0  0  0
  -25.8355  -31.2979   26.9674 C   0  0  0  0  0  0  0  0  0  0  0  0
  -25.8602  -11.7789   20.5240 N   0  0  0  0  0  0  0  0  0  0  0  0
  -26.7769  -12.6509   20.9773 N   0  0  0  0  0  0  0  0  0  0  0  0
  -30.5601  -23.0004   19.5181 N   0  0  0  0  0  0  0  0  0  0  0  0
  -24.5398  -28.8018   24.4611 N   0  0  0  0  0  0  0  0  0  0  0  0
  -27.3258  -15.8467   18.9562 N   0  0  0  0  0  0  0  0  0  0  0  0
  -27.9042  -13.3584   22.9367 N   0  0  0  0  0  0  0  0  0  0  0  0
  -25.1611  -11.7102   24.9747 N   0  0  0  0  0  0  0  0  0  0  0  0
  -21.5707  -29.3601   22.4193 N   0  0  0  0  0  0  0  0  0  0  0  0
  -26.6486  -28.9121   26.7421 N   0  0  0  0  0  0  0  0  0  0  0  0
  -28.7295  -17.7236   18.4787 N   0  0  0  0  0  0  0  0  0  0  0  0
  -29.6246  -26.8622   26.6484 N   0  3  0  0  0  0  0  0  0  0  0  0
  -32.8443  -22.4570   19.5348 O   0  0  0  0  0  0  0  0  0  0  0  0
  -26.8290  -10.1863   24.5817 O   0  0  0  0  0  0  0  0  0  0  0  0
  -23.5962  -30.4581   22.7576 O   0  0  0  0  0  0  0  0  0  0  0  0
  -23.6293  -29.6431   26.4358 O   0  0  0  0  0  0  0  0  0  0  0  0
  -28.7559  -29.4405   25.9315 O   0  0  0  0  0  0  0  0  0  0  0  0
  -27.7880  -17.4297   20.5773 O   0  0  0  0  0  0  0  0  0  0  0  0
  -21.6722   -7.0512   21.3376 O   0  0  0  0  0  0  0  0  0  0  0  0
  -27.6583  -26.1558   19.8431 O   0  0  0  0  0  0  0  0  0  1  0  0
  -21.2618   -3.6108   25.6271 F   0  0  0  0  0  0  0  0  0  0  0  0
  -22.0775   -4.3349   21.0210 F   0  0  0  0  0  0  0  0  0  0  0  0
  1  2  1  0  0  0  0
  1  5  2  0  0  0  0
  2  6  2  0  0  0  0
  3 12  2  0  0  0  0
  3 19  1  0  0  0  0
  4 13  1  0  0  0  0
  4 19  2  0  0  0  0
  5 21  1  0  0  0  0
  6 23  1  0  0  0  0
  7 14  2  0  0  0  0
  7 22  1  0  0  0  0
  8 10  2  0  0  0  0
  8 25  1  0  0  0  0
  9 11  1  0  0  0  0
  9 25  2  0  0  0  0
 10 26  1  0  0  0  0
 11 26  2  0  0  0  0
 12 27  1  0  0  0  0
 13 27  2  0  0  0  0
 14 28  1  0  0  0  0
 15 16  2  0  0  0  0
 15 29  1  0  0  0  0
 16 30  1  0  0  0  0
 17 24  1  0  0  0  0
 17 28  2  0  0  0  0
 18 30  2  0  0  0  0
 18 31  1  0  0  0  0
 19 32  1  0  0  0  0
 20 32  1  0  0  0  0
 20 33  2  0  0  0  0
 20 35  1  0  0  0  0
 21 23  2  0  0  0  0
 21 40  1  0  0  0  0
 22 24  2  0  0  0  0
 22 41  1  0  0  0  0
 23 52  1  0  0  0  0
 24 42  1  0  0  0  0
 25 69  1  0  0  0  0
 26 76  1  0  0  0  0
 27 84  1  0  0  0  0
 28 85  1  0  0  0  0
 29 31  2  0  0  0  0
 29 84  1  0  0  0  0
 30 86  1  0  0  0  0
 31 87  1  0  0  0  0
 32 67  2  0  0  0  0
 33 68  1  0  0  0  0
 33 72  1  0  0  0  0
 34 43  1  0  0  0  0
 34 69  1  0  0  0  0
 34 78  2  0  0  0  0
 35 73  1  0  0  0  0
 35 79  2  0  0  0  0
 36 53  1  0  0  0  0
 36 74  1  0  0  0  0
 36 80  2  0  0  0  0
 37 64  1  0  0  0  0
 37 70  1  0  0  0  0
 37 81  2  0  0  0  0
 38 65  1  0  0  0  0
 38 75  1  0  0  0  0
 38 82  2  0  0  0  0
 39 71  1  0  0  0  0
 39 76  1  0  0  0  0
 39 83  2  0  0  0  0
 40 44  1  0  0  0  0
 41 53  1  0  0  0  0
 42 70  1  0  0  0  0
 43 45  1  0  0  0  0
 44 47  1  0  0  0  0
 45 54  1  0  0  0  0
 46 48  1  0  0  0  0
 46 49  1  0  0  0  0
 47 52  1  0  0  0  0
 48 55  1  0  0  0  0
 49 71  1  0  0  0  0
 50 54  1  0  0  0  0
 50 69  1  0  0  0  0
 51 55  1  0  0  0  0
 51 71  1  0  0  0  0
 52 74  1  0  0  0  0
 53 70  1  0  0  0  0
 54 62  1  0  0  0  0
 55 68  1  0  0  0  0
 56 63  1  0  0  0  0
 57 65  1  0  0  0  0
 58 66  1  0  0  0  0
 59 66  1  0  0  0  0
 60 66  1  0  0  0  0
 61 77  1  0  0  0  0
 62 85  1  0  0  0  0
 63 76  1  0  0  0  0
 64 66  1  0  0  0  0
 64 75  1  0  0  0  0
 65 77  1  0  0  0  0
 67 68  1  0  0  0  0
M  CHG  1  77   1
M  ISO  4  39 100  62 101  76 100  85 101
M  END
> <Batch ID>
0100

> <Smiles>
CC[100N:0](c1ccc(N2CC([101CH2:1][101O:1]c3ccc4c(c3)CN(C(=O)C(NC(=O)C(C)NC)C(C)(C)C)C(C(=O)NC3CCCc5ccccc53)C4)CCC2=O)cc1)[100C:0](=O)N1CCCC(n2nc(-c3ccc(Oc4ccc(F)cc4F)cc3)c(C(N)=O)c2N)C1

> <Shape>
0.265

> <Color>
0.105

> <Negative vol penalty>
0.000

$$$$

  -OEChem-04052300573D

 85 93  0     1  0  0  0  0  0999 V2000
  -30.9202  -25.0019   18.5569 C   0  0  0  0  0  0  0  0  0  0  0  0
  -29.5382  -24.8970   18.6771 C   0  0  0  0  0  0  0  0  0  0  0  0
  -25.4744  -12.5995   19.3030 C   0  0  0  0  0  0  0  0  0  0  0  0
  -24.6026  -12.7977   21.5475 C   0  0  0  0  0  0  0  0  0  0  0  0
  -31.6486  -25.7210   19.5036 C   0  0  0  0  0  0  0  0  0  0  0  0
  -28.8838  -25.5104   19.7448 C   0  0  0  0  0  0  0  0  0  0  0  0
  -23.3164  -28.0608   19.6754 C   0  0  0  0  0  0  0  0  0  0  0  0
  -25.8277  -11.2743   19.5572 C   0  0  0  0  0  0  0  0  0  0  0  0
  -24.9559  -11.4725   21.8017 C   0  0  0  0  0  0  0  0  0  0  0  0
  -22.0652  -27.5928   20.0747 C   0  0  0  0  0  0  0  0  0  0  0  0
  -25.3010   -8.0319   22.9248 C   0  0  0  0  0  0  0  0  0  0  0  0
  -24.3673   -7.2242   23.5740 C   0  0  0  0  0  0  0  0  0  0  0  0
  -22.3418  -28.6894   22.2055 C   0  0  0  0  0  0  0  0  0  0  0  0
  -24.9850  -22.9940   24.4991 C   0  0  0  0  0  0  0  0  0  0  0  0
  -23.5507  -21.0896   24.8898 C   0  0  0  0  0  0  0  0  0  0  0  0
  -22.8006   -7.5857   21.7707 C   0  0  0  0  0  0  0  0  0  0  0  0
  -24.8619  -13.3613   20.2982 C   0  0  0  0  0  0  0  0  0  0  0  0
  -23.2749  -15.2008   19.5203 C   0  0  0  0  0  0  0  0  0  0  0  0
  -31.0017  -26.3517   20.5781 C   0  0  0  0  0  0  0  0  0  0  0  0
  -24.0956  -28.8388   20.5437 C   0  0  0  0  0  0  0  0  0  0  0  0
  -29.6044  -26.2376   20.7075 C   0  0  0  0  0  0  0  0  0  0  0  0
  -23.6013  -29.1681   21.8138 C   0  0  0  0  0  0  0  0  0  0  0  0
  -24.8267  -21.6251   24.7145 C   0  0  0  0  0  0  0  0  0  0  0  0
  -23.8673  -23.8277   24.4591 C   0  0  0  0  0  0  0  0  0  0  0  0
  -22.4329  -21.9232   24.8497 C   0  0  0  0  0  0  0  0  0  0  0  0
  -25.5684  -10.7108   20.8066 C   0  0  0  0  0  0  0  0  0  0  0  0
  -21.5790  -27.9046   21.3409 C   0  0  0  0  0  0  0  0  0  0  0  0
  -24.9844   -8.6166   21.6985 C   0  0  0  0  0  0  0  0  0  0  0  0
  -22.5913  -23.2922   24.6343 C   0  0  0  0  0  0  0  0  0  0  0  0
  -23.1172   -7.0011   22.9970 C   0  0  0  0  0  0  0  0  0  0  0  0
  -23.7343   -8.3935   21.1215 C   0  0  0  0  0  0  0  0  0  0  0  0
  -24.4973  -14.7304   20.0364 C   0  0  0  0  0  0  0  0  0  0  0  0
  -23.4293  -16.5643   19.4608 C   0  0  0  0  0  0  0  0  0  0  0  0
  -22.1045  -14.4706   19.1297 C   0  0  0  0  0  0  0  0  0  0  0  0
  -26.9438  -28.5002   21.9136 C   0  0  0  0  0  0  0  0  0  0  0  0
  -26.3967  -31.5411   22.9017 C   0  0  0  0  0  0  0  0  0  0  0  0
  -24.1323  -33.9942   23.6098 C   0  0  0  0  0  0  0  0  0  0  0  0
  -26.9023  -20.4093   22.4617 C   0  0  0  0  0  0  0  0  0  0  0  0
  -31.8366  -27.0784   21.6025 C   0  0  0  0  0  0  0  0  0  0  0  0
  -25.4316  -29.3582   20.0880 C   0  0  0  0  0  0  0  0  0  0  0  0
  -24.3900  -30.0170   22.7761 C   0  0  0  0  0  0  0  0  0  0  0  0
  -31.0260  -28.0129   22.4969 C   0  0  0  0  0  0  0  0  0  0  0  0
  -26.7857  -19.9332   18.9352 C   0  0  0  0  0  0  0  0  0  0  0  0
  -29.7693  -27.3112   23.0022 C   0  0  0  0  0  0  0  0  0  0  0  0
  -26.0757  -18.5882   18.7709 C   0  0  0  0  0  0  0  0  0  0  0  0
  -27.6958  -19.9449   20.1614 C   0  0  0  0  0  0  0  0  0  0  0  0
  -26.3287  -18.2133   21.2597 C   0  0  0  0  0  0  0  0  0  0  0  0
  -28.8557  -26.9097   21.8379 C   0  0  1  0  0  0  0  0  0  0  0  0
  -26.3610  -29.7128   21.2447 C   0  0  1  0  0  0  0  0  0  0  0  0
  -25.3568  -18.1716   20.0681 C   0  0  2  0  0  0  0  0  0  0  0  0
  -24.0576  -25.2907   24.2273 C   0  0  0  0  0  0  0  0  0  0  0  0
  -23.9839  -36.3599   24.4336 C   0  0  0  0  0  0  0  0  0  0  0  0
  -26.9454  -30.5826   25.7460 C   0  0  0  0  0  0  0  0  0  0  0  0
  -25.8757  -32.6845   26.5862 C   0  0  0  0  0  0  0  0  0  0  0  0
  -27.9365  -32.8093   25.1862 C   0  0  0  0  0  0  0  0  0  0  0  0
  -22.8624  -34.9114   21.0989 C   0  0  0  0  0  0  0  0  0  0  0  0
  -26.0225  -20.7352   24.7593 C   0  0  0  0  0  0  0  0  0  0  0  0
  -18.9937  -25.5035   22.1634 C   0  0  0  0  0  0  0  0  0  0  0  0
  -19.6862  -25.2329   23.4946 C   0  0  0  0  0  0  0  0  0  0  0  0
  -19.9203  -26.2078   21.1812 C   0  0  0  0  0  0  0  0  0  1  0  0
  -20.8882  -24.3142   23.3264 C   0  0  0  0  0  0  0  0  0  0  0  0
  -25.7411  -32.1722   24.1062 C   0  0  1  0  0  0  0  0  0  0  0  0
  -24.0759  -35.4582   23.2124 C   0  0  2  0  0  0  0  0  0  0  0  0
  -26.6104  -32.0445   25.3890 C   0  0  0  0  0  0  0  0  0  0  0  0
  -25.3644  -15.7151   20.2868 N   0  0  0  0  0  0  0  0  0  0  0  0
  -24.6860  -16.8178   19.9264 N   0  0  0  0  0  0  0  0  0  0  0  0
  -25.6933  -30.4958   22.2865 N   0  0  0  0  0  0  0  0  0  0  0  0
  -26.9526  -19.5421   21.3578 N   0  0  0  0  0  0  0  0  0  0  0  0
  -21.1475  -21.3666   25.0296 N   0  0  0  0  0  0  0  0  0  0  0  0
  -22.6115  -17.5591   19.0560 N   0  0  0  0  0  0  0  0  0  0  0  0
  -22.1147  -13.0748   19.2561 N   0  0  0  0  0  0  0  0  0  0  0  0
  -28.1254  -28.0594   21.3488 N   0  0  0  0  0  0  0  0  0  0  0  0
  -25.4312  -33.5469   23.7288 N   0  0  0  0  0  0  0  0  0  0  0  0
  -26.1716  -19.9534   23.5521 N   0  0  0  0  0  0  0  0  0  0  0  0
  -22.8894  -35.7150   22.3481 N   0  3  0  0  0  0  0  0  0  0  0  0
  -21.0860  -15.0376   18.6665 O   0  0  0  0  0  0  0  0  0  0  0  0
  -26.3652  -28.0023   22.8722 O   0  0  0  0  0  0  0  0  0  0  0  0
  -27.4893  -31.9648   22.5164 O   0  0  0  0  0  0  0  0  0  0  0  0
  -23.1249  -33.3162   23.7996 O   0  0  0  0  0  0  0  0  0  0  0  0
  -27.4623  -21.5108   22.4725 O   0  0  0  0  0  0  0  0  0  0  0  0
  -25.9127   -9.4176   21.0549 O   0  0  0  0  0  0  0  0  0  0  0  0
  -20.3584  -27.4486   21.7334 O   0  0  0  0  0  0  0  0  0  1  0  0
  -21.4952  -24.1144   24.5955 O   0  0  0  0  0  0  0  0  0  0  0  0
  -22.2212   -6.2242   23.6198 F   0  0  0  0  0  0  0  0  0  0  0  0
  -23.4249   -8.9516   19.9431 F   0  0  0  0  0  0  0  0  0  0  0  0
  1  2  1  0  0  0  0
  1  5  2  0  0  0  0
  2  6  2  0  0  0  0
  3  8  2  0  0  0  0
  3 17  1  0  0  0  0
  4  9  1  0  0  0  0
  4 17  2  0  0  0  0
  5 19  1  0  0  0  0
  6 21  1  0  0  0  0
  7 10  2  0  0  0  0
  7 20  1  0  0  0  0
  8 26  1  0  0  0  0
  9 26  2  0  0  0  0
 10 27  1  0  0  0  0
 11 12  2  0  0  0  0
 11 28  1  0  0  0  0
 12 30  1  0  0  0  0
 13 22  1  0  0  0  0
 13 27  2  0  0  0  0
 14 23  1  0  0  0  0
 14 24  2  0  0  0  0
 15 23  2  0  0  0  0
 15 25  1  0  0  0  0
 16 30  2  0  0  0  0
 16 31  1  0  0  0  0
 17 32  1  0  0  0  0
 18 32  1  0  0  0  0
 18 33  2  0  0  0  0
 18 34  1  0  0  0  0
 19 21  2  0  0  0  0
 19 39  1  0  0  0  0
 20 22  2  0  0  0  0
 20 40  1  0  0  0  0
 21 48  1  0  0  0  0
 22 41  1  0  0  0  0
 23 57  1  0  0  0  0
 24 29  1  0  0  0  0
 24 51  1  0  0  0  0
 25 29  2  0  0  0  0
 25 69  1  0  0  0  0
 26 81  1  0  0  0  0
 27 82  1  0  0  0  0
 28 31  2  0  0  0  0
 28 81  1  0  0  0  0
 29 83  1  0  0  0  0
 30 84  1  0  0  0  0
 31 85  1  0  0  0  0
 32 65  2  0  0  0  0
 33 66  1  0  0  0  0
 33 70  1  0  0  0  0
 34 71  1  0  0  0  0
 34 76  2  0  0  0  0
 35 49  1  0  0  0  0
 35 72  1  0  0  0  0
 35 77  2  0  0  0  0
 36 62  1  0  0  0  0
 36 67  1  0  0  0  0
 36 78  2  0  0  0  0
 37 63  1  0  0  0  0
 37 73  1  0  0  0  0
 37 79  2  0  0  0  0
 38 68  1  0  0  0  0
 38 74  1  0  0  0  0
 38 80  2  0  0  0  0
 39 42  1  0  0  0  0
 40 49  1  0  0  0  0
 41 67  1  0  0  0  0
 42 44  1  0  0  0  0
 43 45  1  0  0  0  0
 43 46  1  0  0  0  0
 44 48  1  0  0  0  0
 45 50  1  0  0  0  0
 46 68  1  0  0  0  0
 47 50  1  0  0  0  0
 47 68  1  0  0  0  0
 48 72  1  0  0  0  0
 49 67  1  0  0  0  0
 50 66  1  0  0  0  0
 52 63  1  0  0  0  0
 53 64  1  0  0  0  0
 54 64  1  0  0  0  0
 55 64  1  0  0  0  0
 56 75  1  0  0  0  0
 57 74  1  0  0  0  0
 58 59  1  0  0  0  0
 58 60  1  0  0  0  0
 59 61  1  0  0  0  0
 60 82  1  0  0  0  0
 61 83  1  0  0  0  0
 62 64  1  0  0  0  0
 62 73  1  0  0  0  0
 63 75  1  0  0  0  0
 65 66  1  0  0  0  0
M  CHG  1  75   1
M  ISO  4  38 100  60 101  74 100  82 101
M  END
> <Batch ID>
0100

> <Smiles>
CNC(C)C(=O)NC(C(=O)N1Cc2cc([101O:1][101CH2:1]CCCOc3c(C)cc(C[100NH:0][100C:0](=O)N4CCCC(n5nc(-c6ccc(Oc7ccc(F)cc7F)cc6)c(C(N)=O)c5N)C4)cc3N)ccc2CC1C(=O)NC1CCCc2ccccc21)C(C)(C)C

> <Shape>
0.275

> <Color>
0.066

> <Negative vol penalty>
0.000

$$$$

  -OEChem-04052300573D

 89 98  0     1  0  0  0  0  0999 V2000
  -18.0789  -28.9643   19.7165 C   0  0  0  0  0  0  0  0  0  0  0  0
  -19.3088  -29.6115   19.7536 C   0  0  0  0  0  0  0  0  0  0  0  0
  -25.3300  -13.2033   22.0428 C   0  0  0  0  0  0  0  0  0  0  0  0
  -25.8965  -13.6756   19.7421 C   0  0  0  0  0  0  0  0  0  0  0  0
  -17.8133  -27.9289   20.6101 C   0  0  0  0  0  0  0  0  0  0  0  0
  -20.2778  -29.2157   20.6762 C   0  0  0  0  0  0  0  0  0  0  0  0
  -24.5655  -24.5159   21.3914 C   0  0  0  0  0  0  0  0  0  0  0  0
  -25.1679  -11.8546   21.7260 C   0  0  0  0  0  0  0  0  0  0  0  0
  -25.7344  -12.3269   19.4253 C   0  0  0  0  0  0  0  0  0  0  0  0
  -23.8848  -23.5643   20.6332 C   0  0  0  0  0  0  0  0  0  0  0  0
  -22.8201   -9.9012   20.2779 C   0  0  0  0  0  0  0  0  0  0  0  0
  -21.6963   -9.2480   20.7838 C   0  0  0  0  0  0  0  0  0  0  0  0
  -23.1250  -25.3033   19.1439 C   0  0  0  0  0  0  0  0  0  0  0  0
  -26.8177  -18.5242   19.0482 C   0  0  0  0  0  0  0  0  0  0  0  0
  -26.5003  -17.4070   16.9296 C   0  0  0  0  0  0  0  0  0  0  0  0
  -23.1274   -7.6928   21.9545 C   0  0  0  0  0  0  0  0  0  0  0  0
  -25.6942  -14.1138   21.0508 C   0  0  0  0  0  0  0  0  0  0  0  0
  -24.8902  -16.3788   21.9057 C   0  0  0  0  0  0  0  0  0  0  0  0
  -18.7755  -27.5291   21.5521 C   0  0  0  0  0  0  0  0  0  0  0  0
  -24.5220  -25.8721   21.0372 C   0  0  0  0  0  0  0  0  0  0  0  0
  -20.0376  -28.1569   21.5705 C   0  0  0  0  0  0  0  0  0  0  0  0
  -23.8081  -26.2698   19.8978 C   0  0  0  0  0  0  0  0  0  0  0  0
  -27.9359  -17.7294   19.2998 C   0  0  0  0  0  0  0  0  0  0  0  0
  -26.0998  -18.3630   17.8631 C   0  0  0  0  0  0  0  0  0  0  0  0
  -28.3364  -16.7734   18.3664 C   0  0  0  0  0  0  0  0  0  0  0  0
  -25.3701  -11.4164   20.4173 C   0  0  0  0  0  0  0  0  0  0  0  0
  -23.1621  -23.9583   19.5109 C   0  0  0  0  0  0  0  0  0  0  0  0
  -24.0976   -9.4502   20.6103 C   0  0  0  0  0  0  0  0  0  0  0  0
  -21.8499   -8.1438   21.6221 C   0  0  0  0  0  0  0  0  0  0  0  0
  -27.6186  -16.6122   17.1813 C   0  0  0  0  0  0  0  0  0  0  0  0
  -24.2512   -8.3460   21.4486 C   0  0  0  0  0  0  0  0  0  0  0  0
  -25.8612  -15.5072   21.3773 C   0  0  0  0  0  0  0  0  0  0  0  0
  -25.5417  -17.5811   22.0346 C   0  0  0  0  0  0  0  0  0  0  0  0
  -22.8099  -19.0246   16.4420 C   0  0  0  0  0  0  0  0  0  0  0  0
  -24.4989  -20.1646   18.5199 C   0  0  0  0  0  0  0  0  0  0  0  0
  -23.5217  -16.1245   22.2494 C   0  0  0  0  0  0  0  0  0  0  0  0
  -23.4596  -28.5223   22.4341 C   0  0  0  0  0  0  0  0  0  0  0  0
  -24.8219  -29.9575   19.8638 C   0  0  0  0  0  0  0  0  0  0  0  0
  -28.0595  -30.7790   20.5637 C   0  0  0  0  0  0  0  0  0  0  0  0
  -30.2484  -16.0703   19.7940 C   0  0  0  0  0  0  0  0  0  0  0  0
  -18.4380  -26.3974   22.4905 C   0  0  0  0  0  0  0  0  0  0  0  0
  -25.2836  -26.8827   21.8502 C   0  0  0  0  0  0  0  0  0  0  0  0
  -23.7465  -27.7106   19.4634 C   0  0  0  0  0  0  0  0  0  0  0  0
  -22.2177  -19.7449   17.6300 C   0  0  0  0  0  0  0  0  0  0  0  0
  -24.3106  -19.1000   16.2818 C   0  0  0  0  0  0  0  0  0  0  0  0
  -19.3487  -26.3472   23.7130 C   0  0  0  0  0  0  0  0  0  0  0  0
  -29.8060  -17.4573   23.0345 C   0  0  0  0  0  0  0  0  0  0  0  0
  -20.8050  -26.4273   23.2800 C   0  0  0  0  0  0  0  0  0  0  0  0
  -28.7061  -18.5009   22.8579 C   0  0  0  0  0  0  0  0  0  0  0  0
  -30.7254  -17.4168   21.8219 C   0  0  0  0  0  0  0  0  0  0  0  0
  -28.8991  -18.1727   20.3235 C   0  0  0  0  0  0  0  0  0  0  0  0
  -21.0956  -27.7639   22.5857 C   0  0  1  0  0  0  0  0  0  0  0  0
  -23.1934  -20.8356   18.0794 C   0  0  1  0  0  0  0  0  0  0  0  0
  -24.7478  -28.3024   21.6927 C   0  0  1  0  0  0  0  0  0  0  0  0
  -27.9498  -18.3772   21.5237 C   0  0  1  0  0  0  0  0  0  0  0  0
  -28.6851  -17.9232   20.5784 C   0  0  0  0  0  0  0  0  0  0  0  0
  -29.1447  -28.5428   20.2188 C   0  0  0  0  0  0  0  0  0  0  0  0
  -24.4907  -32.5222   22.4293 C   0  0  0  0  0  0  0  0  0  0  0  0
  -25.6629  -30.5121   23.3533 C   0  0  0  0  0  0  0  0  0  0  0  0
  -23.5021  -30.2438   22.1360 C   0  0  0  0  0  0  0  0  0  0  0  0
  -29.7322  -14.7968   17.7291 C   0  0  0  0  0  0  0  0  0  0  0  0
  -30.7354  -30.2828   22.8464 C   0  0  0  0  0  0  0  0  0  0  0  0
  -22.5811  -21.6734   19.1987 C   0  0  0  0  0  0  0  0  0  1  0  0
  -25.5940  -30.8158   20.8365 C   0  0  1  0  0  0  0  0  0  0  0  0
  -29.2772  -29.9194   20.8513 C   0  0  2  0  0  0  0  0  0  0  0  0
  -24.8250  -31.0398   22.1691 C   0  0  0  0  0  0  0  0  0  0  0  0
  -27.0399  -16.1049   21.1836 N   0  0  0  0  0  0  0  0  0  0  0  0
  -26.8137  -17.3650   21.5924 N   0  0  0  0  0  0  0  0  0  0  0  0
  -24.9444  -19.1833   17.6045 N   0  0  0  0  0  0  0  0  0  0  0  0
  -24.5025  -28.6620   20.2945 N   0  0  0  0  0  0  0  0  0  0  0  0
  -29.9738  -17.2037   20.5860 N   0  0  0  0  0  0  0  0  0  0  0  0
  -25.1449  -18.7914   22.4818 N   0  0  0  0  0  0  0  0  0  0  0  0
  -22.5397  -16.3148   21.2676 N   0  0  0  0  0  0  0  0  0  0  0  0
  -22.4205  -27.7174   22.0077 N   0  0  0  0  0  0  0  0  0  0  0  0
  -26.8966  -30.1789   20.9981 N   0  0  0  0  0  0  0  0  0  0  0  0
  -29.4916  -15.9430   18.6107 N   0  0  0  0  0  0  0  0  0  0  0  0
  -29.4536  -29.7463   22.3210 N   0  3  0  0  0  0  0  0  0  0  0  0
  -22.0955  -18.4972   15.5905 O   0  0  0  0  0  0  0  0  0  0  0  0
  -25.0186  -20.4492   19.5976 O   0  0  0  0  0  0  0  0  0  0  0  0
  -23.1780  -15.7556   23.3980 O   0  0  0  0  0  0  0  0  0  0  0  0
  -23.4123  -29.3592   23.3281 O   0  0  0  0  0  0  0  0  0  0  0  0
  -24.5073  -30.4219   18.7652 O   0  0  0  0  0  0  0  0  0  0  0  0
  -28.1330  -31.8750   20.0124 O   0  0  0  0  0  0  0  0  0  0  0  0
  -31.1108  -15.2425   20.1110 O   0  0  0  0  0  0  0  0  0  0  0  0
  -25.2123  -10.1003   20.1079 O   0  0  0  0  0  0  0  0  0  0  0  0
  -22.4962  -23.0316   18.7694 O   0  0  0  0  0  0  0  0  0  1  0  0
  -20.7707   -7.5175   22.1091 F   0  0  0  0  0  0  0  0  0  0  0  0
  -27.9938  -15.6966   16.2766 F   0  0  0  0  0  0  0  0  0  0  0  0
  -25.4759   -7.9089   21.7724 F   0  0  0  0  0  0  0  0  0  0  0  0
  1  2  1  0  0  0  0
  1  5  2  0  0  0  0
  2  6  2  0  0  0  0
  3  8  2  0  0  0  0
  3 17  1  0  0  0  0
  4  9  1  0  0  0  0
  4 17  2  0  0  0  0
  5 19  1  0  0  0  0
  6 21  1  0  0  0  0
  7 10  2  0  0  0  0
  7 20  1  0  0  0  0
  8 26  1  0  0  0  0
  9 26  2  0  0  0  0
 10 27  1  0  0  0  0
 11 12  2  0  0  0  0
 11 28  1  0  0  0  0
 12 29  1  0  0  0  0
 13 22  1  0  0  0  0
 13 27  2  0  0  0  0
 14 23  2  0  0  0  0
 14 24  1  0  0  0  0
 15 24  2  0  0  0  0
 15 30  1  0  0  0  0
 16 29  2  0  0  0  0
 16 31  1  0  0  0  0
 17 32  1  0  0  0  0
 18 32  1  0  0  0  0
 18 33  2  0  0  0  0
 18 36  1  0  0  0  0
 19 21  2  0  0  0  0
 19 41  1  0  0  0  0
 20 22  2  0  0  0  0
 20 42  1  0  0  0  0
 21 52  1  0  0  0  0
 22 43  1  0  0  0  0
 23 25  1  0  0  0  0
 23 56  1  0  0  0  0
 24 69  1  0  0  0  0
 25 30  2  0  0  0  0
 25 76  1  0  0  0  0
 26 85  1  0  0  0  0
 27 86  1  0  0  0  0
 28 31  2  0  0  0  0
 28 85  1  0  0  0  0
 29 87  1  0  0  0  0
 30 88  1  0  0  0  0
 31 89  1  0  0  0  0
 32 67  2  0  0  0  0
 33 68  1  0  0  0  0
 33 72  1  0  0  0  0
 34 44  1  0  0  0  0
 34 45  1  0  0  0  0
 34 78  2  0  0  0  0
 35 53  1  0  0  0  0
 35 69  1  0  0  0  0
 35 79  2  0  0  0  0
 36 73  1  0  0  0  0
 36 80  2  0  0  0  0
 37 54  1  0  0  0  0
 37 74  1  0  0  0  0
 37 81  2  0  0  0  0
 38 64  1  0  0  0  0
 38 70  1  0  0  0  0
 38 82  2  0  0  0  0
 39 65  1  0  0  0  0
 39 75  1  0  0  0  0
 39 83  2  0  0  0  0
 40 71  1  0  0  0  0
 40 76  1  0  0  0  0
 40 84  2  0  0  0  0
 41 46  1  0  0  0  0
 42 54  1  0  0  0  0
 43 70  1  0  0  0  0
 44 53  1  0  0  0  0
 45 69  1  0  0  0  0
 46 48  1  0  0  0  0
 47 49  1  0  0  0  0
 47 50  1  0  0  0  0
 48 52  1  0  0  0  0
 49 55  1  0  0  0  0
 50 71  1  0  0  0  0
 51 55  1  0  0  0  0
 51 71  1  0  0  0  0
 52 74  1  0  0  0  0
 53 63  1  0  0  0  0
 54 70  1  0  0  0  0
 55 68  1  0  0  0  0
 57 65  1  0  0  0  0
 58 66  1  0  0  0  0
 59 66  1  0  0  0  0
 60 66  1  0  0  0  0
 61 76  1  0  0  0  0
 62 77  1  0  0  0  0
 63 86  1  0  0  0  0
 64 66  1  0  0  0  0
 64 75  1  0  0  0  0
 65 77  1  0  0  0  0
 67 68  1  0  0  0  0
M  CHG  1  77   1
M  ISO  4  40 100  63 101  76 100  86 101
M  END
> <Batch ID>
0100

> <Smiles>
CNC(C)C(=O)NC(C(=O)N1Cc2cc([101O:1][101CH2:1]C3CC(=O)CN(c4cc(C)c([100N:0](C)[100C:0](=O)N5CCCC(n6nc(-c7ccc(Oc8ccc(F)cc8F)cc7)c(C(N)=O)c6N)C5)c(F)c4)C3=O)ccc2CC1C(=O)NC1CCCc2ccccc21)C(C)(C)C

> <Shape>
0.237

> <Color>
0.070

> <Negative vol penalty>
0.000

$$$$

  -OEChem-04052300573D

 85 94  0     1  0  0  0  0  0999 V2000
  -25.6833  -37.2613   22.7065 C   0  0  0  0  0  0  0  0  0  0  0  0
  -26.4216  -36.1893   22.2155 C   0  0  0  0  0  0  0  0  0  0  0  0
  -26.3357  -10.0813   18.6284 C   0  0  0  0  0  0  0  0  0  0  0  0
  -26.9932   -9.5167   20.8837 C   0  0  0  0  0  0  0  0  0  0  0  0
  -24.6621  -37.0385   23.6294 C   0  0  0  0  0  0  0  0  0  0  0  0
  -26.1399  -34.8939   22.6479 C   0  0  0  0  0  0  0  0  0  0  0  0
  -26.5222  -29.7473   19.3506 C   0  0  0  0  0  0  0  0  0  0  0  0
  -27.1850   -9.0919   18.1331 C   0  0  0  0  0  0  0  0  0  0  0  0
  -27.8425   -8.5272   20.3883 C   0  0  0  0  0  0  0  0  0  0  0  0
  -27.5055  -28.7632   19.2585 C   0  0  0  0  0  0  0  0  0  0  0  0
  -27.1531   -5.7292   17.7805 C   0  0  0  0  0  0  0  0  0  0  0  0
  -26.6587   -4.8914   16.7810 C   0  0  0  0  0  0  0  0  0  0  0  0
  -26.3095  -27.4257   20.8710 C   0  0  0  0  0  0  0  0  0  0  0  0
  -25.5489  -22.1593   17.6675 C   0  0  0  0  0  0  0  0  0  0  0  0
  -24.6178  -20.7105   19.3618 C   0  0  0  0  0  0  0  0  0  0  0  0
  -26.9582  -20.5461   18.7848 C   0  0  0  0  0  0  0  0  0  0  0  0
  -28.4122   -5.6318   15.2930 C   0  0  0  0  0  0  0  0  0  0  0  0
  -26.2398  -10.2937   20.0037 C   0  0  0  0  0  0  0  0  0  0  0  0
  -24.0094  -11.1732   20.8751 C   0  0  0  0  0  0  0  0  0  0  0  0
  -24.3614  -35.7387   24.0660 C   0  0  0  0  0  0  0  0  0  0  0  0
  -25.4290  -29.5825   20.2132 C   0  0  0  0  0  0  0  0  0  0  0  0
  -25.1146  -34.6536   23.5785 C   0  0  0  0  0  0  0  0  0  0  0  0
  -25.3124  -28.4081   20.9703 C   0  0  0  0  0  0  0  0  0  0  0  0
  -24.4584  -21.7311   18.4245 C   0  0  0  0  0  0  0  0  0  0  0  0
  -26.7987  -21.5668   17.8475 C   0  0  0  0  0  0  0  0  0  0  0  0
  -27.9384   -8.3149   19.0130 C   0  0  0  0  0  0  0  0  0  0  0  0
  -27.4008  -27.6035   20.0209 C   0  0  0  0  0  0  0  0  0  0  0  0
  -28.2770   -6.5184   17.5364 C   0  0  0  0  0  0  0  0  0  0  0  0
  -25.8677  -20.1179   19.5420 C   0  0  0  0  0  0  0  0  0  0  0  0
  -27.2882   -4.8426   15.5372 C   0  0  0  0  0  0  0  0  0  0  0  0
  -28.9066   -6.4697   16.2926 C   0  0  0  0  0  0  0  0  0  0  0  0
  -25.3631  -11.3160   20.5160 C   0  0  0  0  0  0  0  0  0  0  0  0
  -23.6329  -12.4243   21.2990 C   0  0  0  0  0  0  0  0  0  0  0  0
  -23.1676  -10.0135   20.8297 C   0  0  0  0  0  0  0  0  0  0  0  0
  -24.3200  -31.1411   22.7519 C   0  0  0  0  0  0  0  0  0  0  0  0
  -21.8537  -29.0528   22.4704 C   0  0  0  0  0  0  0  0  0  0  0  0
  -20.7279  -26.0334   21.3467 C   0  0  0  0  0  0  0  0  0  0  0  0
  -25.8117  -17.8111   19.9707 C   0  0  0  0  0  0  0  0  0  0  0  0
  -23.2798  -35.5524   25.1004 C   0  0  0  0  0  0  0  0  0  0  0  0
  -24.3630  -30.6415   20.2812 C   0  0  0  0  0  0  0  0  0  0  0  0
  -24.1479  -28.1738   21.8963 C   0  0  0  0  0  0  0  0  0  0  0  0
  -22.7971  -34.1095   25.2239 C   0  0  0  0  0  0  0  0  0  0  0  0
  -25.3772  -16.3972   23.2944 C   0  0  0  0  0  0  0  0  0  0  0  0
  -23.9838  -33.1531   25.2859 C   0  0  0  0  0  0  0  0  0  0  0  0
  -25.2393  -14.9073   22.9825 C   0  0  0  0  0  0  0  0  0  0  0  0
  -30.2004  -24.8232   17.1930 C   0  0  0  0  0  0  0  0  0  0  0  0
  -26.3436  -17.0850   22.3343 C   0  0  0  0  0  0  0  0  0  0  0  0
  -25.8545  -15.4034   20.5768 C   0  0  0  0  0  0  0  0  0  0  0  0
  -30.1523  -23.3131   17.0271 C   0  0  0  0  0  0  0  0  0  0  0  0
  -28.3040  -24.1072   18.4154 C   0  0  0  0  0  0  0  0  0  0  0  0
  -24.8227  -33.2312   24.0046 C   0  0  1  0  0  0  0  0  0  0  0  0
  -23.5583  -30.5971   21.5765 C   0  0  1  0  0  0  0  0  0  0  0  0
  -29.4726  -25.0734   18.5064 C   0  0  2  0  0  0  0  0  0  0  0  0
  -24.8632  -14.6848   21.5070 C   0  0  1  0  0  0  0  0  0  0  0  0
  -23.1224  -22.3648   18.2310 C   0  0  0  0  0  0  0  0  0  0  0  0
  -18.6759  -24.5897   21.2991 C   0  0  0  0  0  0  0  0  0  0  0  0
  -22.3057  -28.3181   25.3972 C   0  0  0  0  0  0  0  0  0  0  0  0
  -20.9196  -26.2668   25.0240 C   0  0  0  0  0  0  0  0  0  0  0  0
  -19.9037  -28.5264   24.7329 C   0  0  0  0  0  0  0  0  0  0  0  0
  -20.6367  -26.0596   18.3886 C   0  0  0  0  0  0  0  0  0  0  0  0
  -27.9718  -22.0265   17.0330 C   0  0  0  0  0  0  0  0  0  0  0  0
  -29.0376  -26.5123   18.6845 C   0  0  0  0  0  0  0  0  0  1  0  0
  -21.5506  -27.6770   23.0129 C   0  0  1  0  0  0  0  0  0  0  0  0
  -19.4839  -25.6493   20.5661 C   0  0  2  0  0  0  0  0  0  0  0  0
  -21.1930  -27.7021   24.5258 C   0  0  0  0  0  0  0  0  0  0  0  0
  -25.8159  -12.5596   20.6959 N   0  0  0  0  0  0  0  0  0  0  0  0
  -24.7407  -13.2098   21.1726 N   0  0  0  0  0  0  0  0  0  0  0  0
  -23.1347  -29.2414   21.9325 N   0  0  0  0  0  0  0  0  0  0  0  0
  -25.9807  -16.8162   20.9393 N   0  0  0  0  0  0  0  0  0  0  0  0
  -22.4656  -12.9180   21.7637 N   0  0  0  0  0  0  0  0  0  0  0  0
  -23.7146   -8.8086   20.3678 N   0  0  0  0  0  0  0  0  0  0  0  0
  -24.1775  -32.5036   22.9329 N   0  0  0  0  0  0  0  0  0  0  0  0
  -20.5038  -27.1237   22.1606 N   0  0  0  0  0  0  0  0  0  0  0  0
  -28.9306  -22.8693   17.8107 N   0  3  1  0  0  0  0  0  0  0  0  0
  -19.8578  -25.1124   19.2271 N   0  3  0  0  0  0  0  0  0  0  0  0
  -21.9615  -10.0486   21.1727 O   0  0  0  0  0  0  0  0  0  0  0  0
  -24.9863  -30.3806   23.4443 O   0  0  0  0  0  0  0  0  0  0  0  0
  -20.9835  -29.9259   22.5156 O   0  0  0  0  0  0  0  0  0  0  0  0
  -21.7910  -25.4248   21.2473 O   0  0  0  0  0  0  0  0  0  0  0  0
  -25.5073  -17.5915   18.7988 O   0  0  0  0  0  0  0  0  0  0  0  0
  -28.7671   -7.3491   18.5300 O   0  0  0  0  0  0  0  0  0  0  0  0
  -26.0275  -19.0942   20.4813 O   0  0  0  0  0  0  0  0  0  0  0  0
  -28.3595  -26.6417   19.9334 O   0  0  0  0  0  0  0  0  0  1  0  0
  -26.8143   -4.0369   14.5779 F   0  0  0  0  0  0  0  0  0  0  0  0
  -29.9874   -7.2246   16.0526 F   0  0  0  0  0  0  0  0  0  0  0  0
  1  2  1  0  0  0  0
  1  5  2  0  0  0  0
  2  6  2  0  0  0  0
  3  8  2  0  0  0  0
  3 18  1  0  0  0  0
  4  9  1  0  0  0  0
  4 18  2  0  0  0  0
  5 20  1  0  0  0  0
  6 22  1  0  0  0  0
  7 10  2  0  0  0  0
  7 21  1  0  0  0  0
  8 26  1  0  0  0  0
  9 26  2  0  0  0  0
 10 27  1  0  0  0  0
 11 12  2  0  0  0  0
 11 28  1  0  0  0  0
 12 30  1  0  0  0  0
 13 23  1  0  0  0  0
 13 27  2  0  0  0  0
 14 24  2  0  0  0  0
 14 25  1  0  0  0  0
 15 24  1  0  0  0  0
 15 29  2  0  0  0  0
 16 25  2  0  0  0  0
 16 29  1  0  0  0  0
 17 30  2  0  0  0  0
 17 31  1  0  0  0  0
 18 32  1  0  0  0  0
 19 32  1  0  0  0  0
 19 33  2  0  0  0  0
 19 34  1  0  0  0  0
 20 22  2  0  0  0  0
 20 39  1  0  0  0  0
 21 23  2  0  0  0  0
 21 40  1  0  0  0  0
 22 51  1  0  0  0  0
 23 41  1  0  0  0  0
 24 55  1  0  0  0  0
 25 61  1  0  0  0  0
 26 81  1  0  0  0  0
 27 83  1  0  0  0  0
 28 31  2  0  0  0  0
 28 81  1  0  0  0  0
 29 82  1  0  0  0  0
 30 84  1  0  0  0  0
 31 85  1  0  0  0  0
 32 66  2  0  0  0  0
 33 67  1  0  0  0  0
 33 70  1  0  0  0  0
 34 71  1  0  0  0  0
 34 76  2  0  0  0  0
 35 52  1  0  0  0  0
 35 72  1  0  0  0  0
 35 77  2  0  0  0  0
 36 63  1  0  0  0  0
 36 68  1  0  0  0  0
 36 78  2  0  0  0  0
 37 64  1  0  0  0  0
 37 73  1  0  0  0  0
 37 79  2  0  0  0  0
 38 69  1  0  0  0  0
 38 80  2  0  0  0  0
 38 82  1  0  0  0  0
 39 42  1  0  0  0  0
 40 52  1  0  0  0  0
 41 68  1  0  0  0  0
 42 44  1  0  0  0  0
 43 45  1  0  0  0  0
 43 47  1  0  0  0  0
 44 51  1  0  0  0  0
 45 54  1  0  0  0  0
 46 49  1  0  0  0  0
 46 53  1  0  0  0  0
 47 69  1  0  0  0  0
 48 54  1  0  0  0  0
 48 69  1  0  0  0  0
 49 74  1  0  0  0  0
 50 53  1  0  0  0  0
 50 74  1  0  0  0  0
 51 72  1  0  0  0  0
 52 68  1  0  0  0  0
 53 62  1  0  0  0  0
 54 67  1  0  0  0  0
 56 64  1  0  0  0  0
 57 65  1  0  0  0  0
 58 65  1  0  0  0  0
 59 65  1  0  0  0  0
 60 75  1  0  0  0  0
 61 74  1  0  0  0  0
 62 83  1  0  0  0  0
 63 65  1  0  0  0  0
 63 73  1  0  0  0  0
 64 75  1  0  0  0  0
 66 67  1  0  0  0  0
M  CHG  2  74   1  75   1
M  ISO  4  38 100  62 101  82 100  83 101
M  END
> <Batch ID>
0100

> <Smiles>
CNC(C)C(=O)NC(C(=O)N1Cc2cc([101O:1][101CH2:1]C3CCN(Cc4cc(C)cc([100O:0][100C:0](=O)N5CCCC(n6nc(-c7ccc(Oc8ccc(F)cc8F)cc7)c(C(N)=O)c6N)C5)c4)C3)ccc2CC1C(=O)NC1CCCc2ccccc21)C(C)(C)C

> <Shape>
0.250

> <Color>
0.079

> <Negative vol penalty>
0.000

$$$$

  -OEChem-04052300573D

 83 92  0     1  0  0  0  0  0999 V2000
  -28.6039  -37.0917   20.3222 C   0  0  0  0  0  0  0  0  0  0  0  0
  -28.9045  -35.7637   20.0368 C   0  0  0  0  0  0  0  0  0  0  0  0
  -22.8674  -10.9854   20.8148 C   0  0  0  0  0  0  0  0  0  0  0  0
  -24.4123   -9.2262   21.4110 C   0  0  0  0  0  0  0  0  0  0  0  0
  -27.7532  -37.4002   21.3829 C   0  0  0  0  0  0  0  0  0  0  0  0
  -28.3555  -34.7434   20.8127 C   0  0  0  0  0  0  0  0  0  0  0  0
  -26.6471  -29.1804   18.9048 C   0  0  0  0  0  0  0  0  0  0  0  0
  -21.9671  -10.5195   21.7729 C   0  0  0  0  0  0  0  0  0  0  0  0
  -23.5120   -8.7603   22.3692 C   0  0  0  0  0  0  0  0  0  0  0  0
  -27.2779  -27.9379   18.9520 C   0  0  0  0  0  0  0  0  0  0  0  0
  -20.6818   -6.9121   22.4378 C   0  0  0  0  0  0  0  0  0  0  0  0
  -20.4558   -5.5371   22.5003 C   0  0  0  0  0  0  0  0  0  0  0  0
  -26.0778  -27.4123   20.9775 C   0  0  0  0  0  0  0  0  0  0  0  0
  -21.2426   -5.5117   24.7845 C   0  0  0  0  0  0  0  0  0  0  0  0
  -30.4740  -17.8984   20.4400 C   0  0  0  0  0  0  0  0  0  0  0  0
  -24.0900  -10.3387   20.6338 C   0  0  0  0  0  0  0  0  0  0  0  0
  -24.8043  -10.9294   18.2571 C   0  0  0  0  0  0  0  0  0  0  0  0
  -27.1858  -36.3827   22.1662 C   0  0  0  0  0  0  0  0  0  0  0  0
  -25.7337  -29.5532   19.9013 C   0  0  0  0  0  0  0  0  0  0  0  0
  -27.4975  -35.0386   21.8857 C   0  0  0  0  0  0  0  0  0  0  0  0
  -25.4349  -28.6591   20.9393 C   0  0  0  0  0  0  0  0  0  0  0  0
  -22.2894   -9.4069   22.5501 C   0  0  0  0  0  0  0  0  0  0  0  0
  -26.9954  -27.0548   19.9900 C   0  0  0  0  0  0  0  0  0  0  0  0
  -21.1882   -7.5869   23.5487 C   0  0  0  0  0  0  0  0  0  0  0  0
  -20.7362   -4.8369   23.6737 C   0  0  0  0  0  0  0  0  0  0  0  0
  -21.4686   -6.8867   24.7220 C   0  0  0  0  0  0  0  0  0  0  0  0
  -25.0202  -10.8192   19.6439 C   0  0  0  0  0  0  0  0  0  0  0  0
  -25.9832  -11.4339   17.7651 C   0  0  0  0  0  0  0  0  0  0  0  0
  -29.3923  -17.0432   20.4120 C   0  0  0  0  0  0  0  0  0  0  0  0
  -28.8727  -19.3861   20.6207 C   0  0  0  0  0  0  0  0  0  0  0  0
  -23.6419  -10.6047   17.4830 C   0  0  0  0  0  0  0  0  0  0  0  0
  -25.6051  -31.8706   22.0731 C   0  0  0  0  0  0  0  0  0  0  0  0
  -22.6432  -30.6646   22.6164 C   0  0  0  0  0  0  0  0  0  0  0  0
  -20.5224  -27.9972   22.4316 C   0  0  0  0  0  0  0  0  0  0  0  0
  -30.3442  -14.7214   20.1899 C   0  0  0  0  0  0  0  0  0  0  0  0
  -26.3094  -36.7672   23.3318 C   0  0  0  0  0  0  0  0  0  0  0  0
  -25.0417  -30.8863   19.8215 C   0  0  0  0  0  0  0  0  0  0  0  0
  -24.4467  -29.0032   22.0226 C   0  0  0  0  0  0  0  0  0  0  0  0
  -25.4718  -35.6108   23.8716 C   0  0  0  0  0  0  0  0  0  0  0  0
  -30.6855  -11.5209   18.6676 C   0  0  0  0  0  0  0  0  0  0  0  0
  -26.3306  -34.3609   24.0362 C   0  0  0  0  0  0  0  0  0  0  0  0
  -28.4242  -21.6335   19.5460 C   0  0  0  0  0  0  0  0  0  0  0  0
  -28.5206  -21.4312   22.0697 C   0  0  0  0  0  0  0  0  0  0  0  0
  -27.6926  -22.9684   19.6841 C   0  0  0  0  0  0  0  0  0  0  0  0
  -27.7889  -22.7666   22.2015 C   0  0  0  0  0  0  0  0  0  0  0  0
  -29.2510  -10.9903   18.6134 C   0  0  0  0  0  0  0  0  0  0  0  0
  -30.9458  -12.3232   19.9413 C   0  0  0  0  0  0  0  0  0  0  0  0
  -28.5536  -12.8755   20.1453 C   0  0  0  0  0  0  0  0  0  0  0  0
  -26.9019  -33.9028   22.6890 C   0  0  1  0  0  0  0  0  0  0  0  0
  -28.1605  -20.7198   20.7547 C   0  0  0  0  0  0  0  0  0  0  0  0
  -24.5147  -31.3676   21.1698 C   0  0  1  0  0  0  0  0  0  0  0  0
  -28.0514  -23.6786   20.9960 C   0  0  0  0  0  0  0  0  0  0  0  0
  -28.2247  -12.1156   18.8499 C   0  0  2  0  0  0  0  0  0  0  0  0
  -18.1758  -27.3040   22.9885 C   0  0  0  0  0  0  0  0  0  0  0  0
  -23.4101  -30.4430   25.5613 C   0  0  0  0  0  0  0  0  0  0  0  0
  -21.4578  -28.9088   25.8824 C   0  0  0  0  0  0  0  0  0  0  0  0
  -21.0840  -31.2632   25.1479 C   0  0  0  0  0  0  0  0  0  0  0  0
  -19.8895  -27.4418   19.5944 C   0  0  0  0  0  0  0  0  0  0  0  0
  -27.2737  -24.9865   21.1305 C   0  0  0  0  0  0  0  0  0  1  0  0
  -22.0720  -29.5994   23.5208 C   0  0  1  0  0  0  0  0  0  0  0  0
  -19.0972  -27.8768   21.9229 C   0  0  2  0  0  0  0  0  0  0  0  0
  -22.0261  -30.0476   25.0089 C   0  0  0  0  0  0  0  0  0  0  0  0
  -30.1780  -19.2422   20.5592 N   0  0  0  0  0  0  0  0  0  0  0  0
  -26.2404  -11.2213   20.0093 N   0  0  0  0  0  0  0  0  0  0  0  0
  -26.8018  -11.5889   18.8449 N   0  0  0  0  0  0  0  0  0  0  0  0
  -23.8009  -30.3209   21.9040 N   0  0  0  0  0  0  0  0  0  0  0  0
  -29.9372  -13.3736   20.0970 N   0  0  0  0  0  0  0  0  0  0  0  0
  -26.3891  -11.7555   16.5184 N   0  0  0  0  0  0  0  0  0  0  0  0
  -23.5250   -9.3076   16.9651 N   0  0  0  0  0  0  0  0  0  0  0  0
  -29.2957  -15.6338   20.3025 N   0  0  0  0  0  0  0  0  0  0  0  0
  -25.8889  -33.2141   21.9183 N   0  0  0  0  0  0  0  0  0  0  0  0
  -20.7713  -29.2449   22.9632 N   0  0  0  0  0  0  0  0  0  0  0  0
  -19.0468  -26.9855   20.7295 N   0  3  0  0  0  0  0  0  0  0  0  0
  -22.7418  -11.4449   17.2434 O   0  0  0  0  0  0  0  0  0  0  0  0
  -26.1476  -31.0974   22.8538 O   0  0  0  0  0  0  0  0  0  0  0  0
  -22.0788  -31.7587   22.5391 O   0  0  0  0  0  0  0  0  0  0  0  0
  -21.3327  -27.0753   22.3675 O   0  0  0  0  0  0  0  0  0  0  0  0
  -31.5338  -15.0447   20.1435 O   0  0  0  0  0  0  0  0  0  0  0  0
  -21.4112   -8.9521   23.4853 O   0  0  0  0  0  0  0  0  0  0  0  0
  -27.6102  -25.8417   20.0388 O   0  0  0  0  0  0  0  0  0  1  0  0
  -20.5178   -3.5167   23.7341 F   0  0  0  0  0  0  0  0  0  0  0  0
  -21.9541   -7.5297   25.7928 F   0  0  0  0  0  0  0  0  0  0  0  0
  -27.9407  -17.9473   20.5414 S   0  0  0  0  0  0  0  0  0  0  0  0
  1  2  1  0  0  0  0
  1  5  2  0  0  0  0
  2  6  2  0  0  0  0
  3  8  2  0  0  0  0
  3 16  1  0  0  0  0
  4  9  1  0  0  0  0
  4 16  2  0  0  0  0
  5 18  1  0  0  0  0
  6 20  1  0  0  0  0
  7 10  2  0  0  0  0
  7 19  1  0  0  0  0
  8 22  1  0  0  0  0
  9 22  2  0  0  0  0
 10 23  1  0  0  0  0
 11 12  2  0  0  0  0
 11 24  1  0  0  0  0
 12 25  1  0  0  0  0
 13 21  1  0  0  0  0
 13 23  2  0  0  0  0
 14 25  2  0  0  0  0
 14 26  1  0  0  0  0
 15 29  2  0  0  0  0
 15 63  1  0  0  0  0
 16 27  1  0  0  0  0
 17 27  1  0  0  0  0
 17 28  2  0  0  0  0
 17 31  1  0  0  0  0
 18 20  2  0  0  0  0
 18 36  1  0  0  0  0
 19 21  2  0  0  0  0
 19 37  1  0  0  0  0
 20 49  1  0  0  0  0
 21 38  1  0  0  0  0
 22 79  1  0  0  0  0
 23 80  1  0  0  0  0
 24 26  2  0  0  0  0
 24 79  1  0  0  0  0
 25 81  1  0  0  0  0
 26 82  1  0  0  0  0
 27 64  2  0  0  0  0
 28 65  1  0  0  0  0
 28 68  1  0  0  0  0
 29 70  1  0  0  0  0
 29 83  1  0  0  0  0
 30 50  1  0  0  0  0
 30 63  2  0  0  0  0
 30 83  1  0  0  0  0
 31 69  1  0  0  0  0
 31 74  2  0  0  0  0
 32 51  1  0  0  0  0
 32 71  1  0  0  0  0
 32 75  2  0  0  0  0
 33 60  1  0  0  0  0
 33 66  1  0  0  0  0
 33 76  2  0  0  0  0
 34 61  1  0  0  0  0
 34 72  1  0  0  0  0
 34 77  2  0  0  0  0
 35 67  1  0  0  0  0
 35 70  1  0  0  0  0
 35 78  2  0  0  0  0
 36 39  1  0  0  0  0
 37 51  1  0  0  0  0
 38 66  1  0  0  0  0
 39 41  1  0  0  0  0
 40 46  1  0  0  0  0
 40 47  1  0  0  0  0
 41 49  1  0  0  0  0
 42 44  1  0  0  0  0
 42 50  1  0  0  0  0
 43 45  1  0  0  0  0
 43 50  1  0  0  0  0
 44 52  1  0  0  0  0
 45 52  1  0  0  0  0
 46 53  1  0  0  0  0
 47 67  1  0  0  0  0
 48 53  1  0  0  0  0
 48 67  1  0  0  0  0
 49 71  1  0  0  0  0
 51 66  1  0  0  0  0
 52 59  1  0  0  0  0
 53 65  1  0  0  0  0
 54 61  1  0  0  0  0
 55 62  1  0  0  0  0
 56 62  1  0  0  0  0
 57 62  1  0  0  0  0
 58 73  1  0  0  0  0
 59 80  1  0  0  0  0
 60 62  1  0  0  0  0
 60 72  1  0  0  0  0
 61 73  1  0  0  0  0
 64 65  1  0  0  0  0
M  CHG  1  73   1
M  ISO  4  35 100  59 101  70 100  80 101
M  END
> <Batch ID>
0100

> <Smiles>
CNC(C)C(=O)NC(C(=O)N1Cc2cc([101O:1][101CH2:1]C3CCC(c4ncc([100NH:0][100C:0](=O)N5CCCC(n6nc(-c7ccc(Oc8ccc(F)cc8F)cc7)c(C(N)=O)c6N)C5)s4)CC3)ccc2CC1C(=O)NC1CCCc2ccccc21)C(C)(C)C

> <Shape>
0.333

> <Color>
0.106

> <Negative vol penalty>
0.000

$$$$

  -OEChem-04052300573D

 84 92  0     1  0  0  0  0  0999 V2000
  -25.1842  -17.9503   16.4368 C   0  0  0  0  0  0  0  0  0  0  0  0
  -25.6844  -17.5888   17.6836 C   0  0  0  0  0  0  0  0  0  0  0  0
  -23.0724   -9.8697   19.9445 C   0  0  0  0  0  0  0  0  0  0  0  0
  -23.8347   -9.8794   22.2370 C   0  0  0  0  0  0  0  0  0  0  0  0
  -24.3554  -19.0649   16.3160 C   0  0  0  0  0  0  0  0  0  0  0  0
  -25.3569  -18.3423   18.8102 C   0  0  0  0  0  0  0  0  0  0  0  0
  -24.4903  -16.2637   24.5053 C   0  0  0  0  0  0  0  0  0  0  0  0
  -22.3290   -8.7167   20.1965 C   0  0  0  0  0  0  0  0  0  0  0  0
  -23.0912   -8.7264   22.4891 C   0  0  0  0  0  0  0  0  0  0  0  0
  -25.3201  -16.2216   25.6249 C   0  0  0  0  0  0  0  0  0  0  0  0
  -22.9023   -5.3987   20.4905 C   0  0  0  0  0  0  0  0  0  0  0  0
  -22.9684   -4.3680   19.5530 C   0  0  0  0  0  0  0  0  0  0  0  0
  -24.3401  -18.2772   26.4208 C   0  0  0  0  0  0  0  0  0  0  0  0
  -29.4703  -18.4940   23.2568 C   0  0  0  0  0  0  0  0  0  0  0  0
  -30.2908  -17.2768   25.6291 C   0  0  0  0  0  0  0  0  0  0  0  0
  -20.5835   -4.5329   19.2036 C   0  0  0  0  0  0  0  0  0  0  0  0
  -23.8253  -10.4510   20.9647 C   0  0  0  0  0  0  0  0  0  0  0  0
  -24.1665  -12.9761   20.8415 C   0  0  0  0  0  0  0  0  0  0  0  0
  -24.0097  -19.8269   17.4432 C   0  0  0  0  0  0  0  0  0  0  0  0
  -23.5853  -17.3203   24.3293 C   0  0  0  0  0  0  0  0  0  0  0  0
  -24.5238  -19.4690   18.7042 C   0  0  0  0  0  0  0  0  0  0  0  0
  -23.4981  -18.3290   25.2994 C   0  0  0  0  0  0  0  0  0  0  0  0
  -30.3343  -17.3997   23.2166 C   0  0  0  0  0  0  0  0  0  0  0  0
  -30.7445  -16.7911   24.4027 C   0  0  0  0  0  0  0  0  0  0  0  0
  -29.0166  -18.9798   24.4831 C   0  0  0  0  0  0  0  0  0  0  0  0
  -22.3384   -8.1450   21.4688 C   0  0  0  0  0  0  0  0  0  0  0  0
  -25.2471  -17.2300   26.5814 C   0  0  0  0  0  0  0  0  0  0  0  0
  -21.6768   -5.9964   20.7847 C   0  0  0  0  0  0  0  0  0  0  0  0
  -29.4269  -18.3712   25.6693 C   0  0  0  0  0  0  0  0  0  0  0  0
  -21.8090   -3.9352   18.9095 C   0  0  0  0  0  0  0  0  0  0  0  0
  -20.5174   -5.5636   20.1412 C   0  0  0  0  0  0  0  0  0  0  0  0
  -24.5938  -11.6418   20.7049 C   0  0  0  0  0  0  0  0  0  0  0  0
  -25.2581  -13.7254   20.4763 C   0  0  0  0  0  0  0  0  0  0  0  0
  -22.8963  -13.4922   21.2612 C   0  0  0  0  0  0  0  0  0  0  0  0
  -23.1968  -19.6015   22.1501 C   0  0  0  0  0  0  0  0  0  0  0  0
  -20.5115  -20.2333   23.8567 C   0  0  0  0  0  0  0  0  0  0  0  0
  -18.8557  -20.0292   26.8338 C   0  0  0  0  0  0  0  0  0  0  0  0
  -30.7418  -14.7458   20.6578 C   0  0  0  0  0  0  0  0  0  0  0  0
  -23.1489  -21.0510   17.2558 C   0  0  0  0  0  0  0  0  0  0  0  0
  -22.6784  -17.3370   23.1295 C   0  0  0  0  0  0  0  0  0  0  0  0
  -22.5292  -19.4745   25.1675 C   0  0  0  0  0  0  0  0  0  0  0  0
  -22.5465  -21.5769   18.5562 C   0  0  0  0  0  0  0  0  0  0  0  0
  -29.6022  -12.3584   18.2749 C   0  0  0  0  0  0  0  0  0  0  0  0
  -23.6087  -21.6405   19.6491 C   0  0  0  0  0  0  0  0  0  0  0  0
  -28.1653  -12.0649   18.7096 C   0  0  0  0  0  0  0  0  0  0  0  0
  -30.5205  -12.5807   19.4746 C   0  0  0  0  0  0  0  0  0  0  0  0
  -28.6201  -13.3130   20.8623 C   0  0  0  0  0  0  0  0  0  0  0  0
  -24.1712  -20.2468   19.9535 C   0  0  1  0  0  0  0  0  0  0  0  0
  -22.1558  -18.7306   22.7948 C   0  0  1  0  0  0  0  0  0  0  0  0
  -27.6447  -13.1369   19.6859 C   0  0  2  0  0  0  0  0  0  0  0  0
  -31.6706  -15.6195   24.3854 C   0  0  0  0  0  0  0  0  0  0  0  0
  -16.6917  -20.6683   27.9322 C   0  0  0  0  0  0  0  0  0  0  0  0
  -21.4694  -23.1234   24.0571 C   0  0  0  0  0  0  0  0  0  0  0  0
  -19.8201  -23.4684   25.9087 C   0  0  0  0  0  0  0  0  0  0  0  0
  -19.0199  -22.8639   23.6247 C   0  0  0  0  0  0  0  0  0  0  0  0
  -18.1646  -17.2039   27.3802 C   0  0  0  0  0  0  0  0  0  0  0  0
  -30.8085  -16.8978   21.8922 C   0  0  0  0  0  0  0  0  0  0  0  0
  -27.7991  -18.3128   28.9109 C   0  0  0  0  0  0  0  0  0  0  0  0
  -26.4388  -18.4433   28.2439 C   0  0  0  0  0  0  0  0  0  1  0  0
  -28.8747  -17.8759   27.9288 C   0  0  0  0  0  0  0  0  0  0  0  0
  -20.1769  -21.1142   25.0361 C   0  0  1  0  0  0  0  0  0  0  0  0
  -17.4438  -19.5863   27.1729 C   0  0  2  0  0  0  0  0  0  0  0  0
  -20.1413  -22.6220   24.6585 C   0  0  0  0  0  0  0  0  0  0  0  0
  -25.8583  -11.5457   20.2854 N   0  0  0  0  0  0  0  0  0  0  0  0
  -26.2348  -12.8293   20.1552 N   0  0  0  0  0  0  0  0  0  0  0  0
  -21.6681  -19.4495   23.9736 N   0  0  0  0  0  0  0  0  0  0  0  0
  -29.9707  -13.6101   20.3600 N   0  0  0  0  0  0  0  0  0  0  0  0
  -28.1420  -20.0882   24.5098 N   0  0  0  0  0  0  0  0  0  0  0  0
  -25.4681  -15.0569   20.4015 N   0  0  0  0  0  0  0  0  0  0  0  0
  -21.8849  -12.5832   21.6005 N   0  0  0  0  0  0  0  0  0  0  0  0
  -23.2446  -19.4957   20.7732 N   0  0  0  0  0  0  0  0  0  0  0  0
  -18.9236  -20.6055   25.5830 N   0  0  0  0  0  0  0  0  0  0  0  0
  -30.1433  -15.6755   21.4994 N   0  0  0  0  0  0  0  0  0  0  0  0
  -17.4747  -18.3567   28.0142 N   0  3  0  0  0  0  0  0  0  0  0  0
  -22.6598  -14.7228   21.3174 O   0  0  0  0  0  0  0  0  0  0  0  0
  -23.9033  -20.3175   22.8500 O   0  0  0  0  0  0  0  0  0  0  0  0
  -19.7699  -20.2352   22.8709 O   0  0  0  0  0  0  0  0  0  0  0  0
  -19.8027  -19.8824   27.6032 O   0  0  0  0  0  0  0  0  0  0  0  0
  -31.8772  -14.9210   20.2028 O   0  0  0  0  0  0  0  0  0  0  0  0
  -21.6129   -7.0200   21.7151 O   0  0  0  0  0  0  0  0  0  0  0  0
  -26.0563  -17.1918   27.6749 O   0  0  0  0  0  0  0  0  0  1  0  0
  -28.9916  -18.8325   26.8843 O   0  0  0  0  0  0  0  0  0  0  0  0
  -21.8729   -2.9465   18.0081 F   0  0  0  0  0  0  0  0  0  0  0  0
  -19.3374   -6.1348   20.4187 F   0  0  0  0  0  0  0  0  0  0  0  0
  1  2  1  0  0  0  0
  1  5  2  0  0  0  0
  2  6  2  0  0  0  0
  3  8  2  0  0  0  0
  3 17  1  0  0  0  0
  4  9  1  0  0  0  0
  4 17  2  0  0  0  0
  5 19  1  0  0  0  0
  6 21  1  0  0  0  0
  7 10  2  0  0  0  0
  7 20  1  0  0  0  0
  8 26  1  0  0  0  0
  9 26  2  0  0  0  0
 10 27  1  0  0  0  0
 11 12  2  0  0  0  0
 11 28  1  0  0  0  0
 12 30  1  0  0  0  0
 13 22  1  0  0  0  0
 13 27  2  0  0  0  0
 14 23  2  0  0  0  0
 14 25  1  0  0  0  0
 15 24  2  0  0  0  0
 15 29  1  0  0  0  0
 16 30  2  0  0  0  0
 16 31  1  0  0  0  0
 17 32  1  0  0  0  0
 18 32  1  0  0  0  0
 18 33  2  0  0  0  0
 18 34  1  0  0  0  0
 19 21  2  0  0  0  0
 19 39  1  0  0  0  0
 20 22  2  0  0  0  0
 20 40  1  0  0  0  0
 21 48  1  0  0  0  0
 22 41  1  0  0  0  0
 23 24  1  0  0  0  0
 23 57  1  0  0  0  0
 24 51  1  0  0  0  0
 25 29  2  0  0  0  0
 25 68  1  0  0  0  0
 26 80  1  0  0  0  0
 27 81  1  0  0  0  0
 28 31  2  0  0  0  0
 28 80  1  0  0  0  0
 29 82  1  0  0  0  0
 30 83  1  0  0  0  0
 31 84  1  0  0  0  0
 32 64  2  0  0  0  0
 33 65  1  0  0  0  0
 33 69  1  0  0  0  0
 34 70  1  0  0  0  0
 34 75  2  0  0  0  0
 35 49  1  0  0  0  0
 35 71  1  0  0  0  0
 35 76  2  0  0  0  0
 36 61  1  0  0  0  0
 36 66  1  0  0  0  0
 36 77  2  0  0  0  0
 37 62  1  0  0  0  0
 37 72  1  0  0  0  0
 37 78  2  0  0  0  0
 38 67  1  0  0  0  0
 38 73  1  0  0  0  0
 38 79  2  0  0  0  0
 39 42  1  0  0  0  0
 40 49  1  0  0  0  0
 41 66  1  0  0  0  0
 42 44  1  0  0  0  0
 43 45  1  0  0  0  0
 43 46  1  0  0  0  0
 44 48  1  0  0  0  0
 45 50  1  0  0  0  0
 46 67  1  0  0  0  0
 47 50  1  0  0  0  0
 47 67  1  0  0  0  0
 48 71  1  0  0  0  0
 49 66  1  0  0  0  0
 50 65  1  0  0  0  0
 52 62  1  0  0  0  0
 53 63  1  0  0  0  0
 54 63  1  0  0  0  0
 55 63  1  0  0  0  0
 56 74  1  0  0  0  0
 57 73  1  0  0  0  0
 58 59  1  0  0  0  0
 58 60  1  0  0  0  0
 59 81  1  0  0  0  0
 60 82  1  0  0  0  0
 61 63  1  0  0  0  0
 61 72  1  0  0  0  0
 62 74  1  0  0  0  0
 64 65  1  0  0  0  0
M  CHG  1  74   1
M  ISO  4  38 100  59 101  73 100  81 101
M  END
> <Batch ID>
0100

> <Smiles>
CNC(C)C(=O)NC(C(=O)N1Cc2cc([101O:1][101CH2:1]CCOc3cc(C)c(C[100NH:0][100C:0](=O)N4CCCC(n5nc(-c6ccc(Oc7ccc(F)cc7F)cc6)c(C(N)=O)c5N)C4)cc3N)ccc2CC1C(=O)NC1CCCc2ccccc21)C(C)(C)C

> <Shape>
0.149

> <Color>
0.187

> <Negative vol penalty>
0.000

$$$$

  -OEChem-04052300573D

 85 94  0     1  0  0  0  0  0999 V2000
  -27.2161  -37.9928   24.7404 C   0  0  0  0  0  0  0  0  0  0  0  0
  -27.9102  -37.1576   23.8709 C   0  0  0  0  0  0  0  0  0  0  0  0
  -24.1997   -9.6084   21.6439 C   0  0  0  0  0  0  0  0  0  0  0  0
  -24.7979  -10.8952   23.5992 C   0  0  0  0  0  0  0  0  0  0  0  0
  -26.3305  -37.4487   25.6697 C   0  0  0  0  0  0  0  0  0  0  0  0
  -27.7199  -35.7775   23.9309 C   0  0  0  0  0  0  0  0  0  0  0  0
  -27.6053  -29.9701   19.7384 C   0  0  0  0  0  0  0  0  0  0  0  0
  -23.8342   -8.5380   22.4602 C   0  0  0  0  0  0  0  0  0  0  0  0
  -24.4323   -9.8249   24.4155 C   0  0  0  0  0  0  0  0  0  0  0  0
  -28.1668  -28.6974   19.6457 C   0  0  0  0  0  0  0  0  0  0  0  0
  -21.2009   -7.6657   24.3935 C   0  0  0  0  0  0  0  0  0  0  0  0
  -19.9991   -7.0162   24.1113 C   0  0  0  0  0  0  0  0  0  0  0  0
  -26.5521  -27.8757   21.2385 C   0  0  0  0  0  0  0  0  0  0  0  0
  -28.4324  -20.7899   20.7250 C   0  0  0  0  0  0  0  0  0  0  0  0
  -30.5348  -19.0962   20.0222 C   0  0  0  0  0  0  0  0  0  0  0  0
  -21.1983   -4.9475   23.7658 C   0  0  0  0  0  0  0  0  0  0  0  0
  -24.6817  -10.7870   22.2134 C   0  0  0  0  0  0  0  0  0  0  0  0
  -24.2367  -12.9460   20.9296 C   0  0  0  0  0  0  0  0  0  0  0  0
  -26.1220  -36.0620   25.7346 C   0  0  0  0  0  0  0  0  0  0  0  0
  -26.5181  -30.2081   20.5915 C   0  0  0  0  0  0  0  0  0  0  0  0
  -26.8316  -35.2142   24.8628 C   0  0  0  0  0  0  0  0  0  0  0  0
  -25.9770  -29.1518   21.3382 C   0  0  0  0  0  0  0  0  0  0  0  0
  -28.1740  -19.4627   20.3821 C   0  0  0  0  0  0  0  0  0  0  0  0
  -29.7419  -21.2702   20.7164 C   0  0  0  0  0  0  0  0  0  0  0  0
  -29.2252  -18.6159   20.0308 C   0  0  0  0  0  0  0  0  0  0  0  0
  -30.7931  -20.4234   20.3650 C   0  0  0  0  0  0  0  0  0  0  0  0
  -23.9504   -8.6463   23.8460 C   0  0  0  0  0  0  0  0  0  0  0  0
  -27.6420  -27.6505   20.3980 C   0  0  0  0  0  0  0  0  0  0  0  0
  -22.4014   -6.9561   24.3617 C   0  0  0  0  0  0  0  0  0  0  0  0
  -19.9978   -5.6571   23.7975 C   0  0  0  0  0  0  0  0  0  0  0  0
  -22.4001   -5.5970   24.0479 C   0  0  0  0  0  0  0  0  0  0  0  0
  -25.0600  -11.8928   21.3707 C   0  0  0  0  0  0  0  0  0  0  0  0
  -25.0632  -13.7297   20.1621 C   0  0  0  0  0  0  0  0  0  0  0  0
  -29.8121  -24.8978   21.1716 C   0  0  0  0  0  0  0  0  0  0  0  0
  -29.2025  -26.0880   21.1688 C   0  0  0  0  0  0  0  0  0  1  0  0
  -22.8488  -13.1939   21.1905 C   0  0  0  0  0  0  0  0  0  0  0  0
  -26.0232  -32.0502   23.1342 C   0  0  0  0  0  0  0  0  0  0  0  0
  -22.9714  -30.9973   22.8176 C   0  0  0  0  0  0  0  0  0  0  0  0
  -20.8405  -28.5954   21.6614 C   0  0  0  0  0  0  0  0  0  0  0  0
  -29.9261  -16.3053   19.3123 C   0  0  0  0  0  0  0  0  0  0  0  0
  -25.1901  -35.5166   26.7876 C   0  0  0  0  0  0  0  0  0  0  0  0
  -25.9069  -31.5807   20.6599 C   0  0  0  0  0  0  0  0  0  0  0  0
  -24.7976  -29.3504   22.2536 C   0  0  0  0  0  0  0  0  0  0  0  0
  -30.9243  -24.5029   22.0908 C   0  0  0  0  0  0  0  0  0  0  0  0
  -29.4051  -23.7213   20.3363 C   0  0  0  0  0  0  0  0  0  0  0  0
  -24.7638  -34.0728   26.5349 C   0  0  0  0  0  0  0  0  0  0  0  0
  -29.7348  -12.8648   18.4156 C   0  0  0  0  0  0  0  0  0  0  0  0
  -25.9717  -33.2154   26.1709 C   0  0  0  0  0  0  0  0  0  0  0  0
  -28.4338  -12.3919   19.0682 C   0  0  0  0  0  0  0  0  0  0  0  0
  -30.7161  -22.9994   22.2495 C   0  0  0  0  0  0  0  0  0  0  0  0
  -30.4702  -13.8807   19.2879 C   0  0  0  0  0  0  0  0  0  0  0  0
  -28.3624  -14.5576   20.3688 C   0  0  0  0  0  0  0  0  0  0  0  0
  -26.6335  -33.7140   24.8806 C   0  0  1  0  0  0  0  0  0  0  0  0
  -25.1279  -31.8243   21.9488 C   0  0  1  0  0  0  0  0  0  0  0  0
  -27.5539  -13.5820   19.4981 C   0  0  2  0  0  0  0  0  0  0  0  0
  -26.7616  -18.9750   20.4003 C   0  0  0  0  0  0  0  0  0  0  0  0
  -18.4057  -27.9923   21.5869 C   0  0  0  0  0  0  0  0  0  0  0  0
  -23.0981  -30.1349   25.7417 C   0  0  0  0  0  0  0  0  0  0  0  0
  -21.0675  -28.7261   25.3417 C   0  0  0  0  0  0  0  0  0  0  0  0
  -20.9408  -31.2015   25.0611 C   0  0  0  0  0  0  0  0  0  0  0  0
  -20.7941  -28.6669   18.7030 C   0  0  0  0  0  0  0  0  0  0  0  0
  -22.1857  -29.8219   23.3468 C   0  0  1  0  0  0  0  0  0  0  0  0
  -19.5495  -28.6911   20.8685 C   0  0  2  0  0  0  0  0  0  0  0  0
  -21.8465  -29.9675   24.8571 C   0  0  0  0  0  0  0  0  0  0  0  0
  -26.3134  -11.9949   20.9207 N   0  0  0  0  0  0  0  0  0  0  0  0
  -26.2838  -13.1216   20.1887 N   0  0  0  0  0  0  0  0  0  0  0  0
  -29.9761  -22.5875   21.0591 N   0  0  3  0  0  0  0  0  0  0  0  0
  -24.2390  -30.7121   22.2908 N   0  0  0  0  0  0  0  0  0  0  0  0
  -29.5757  -14.9816   19.6526 N   0  0  0  0  0  0  0  0  0  0  0  0
  -32.1269  -20.8893   20.3505 N   0  0  0  0  0  0  0  0  0  0  0  0
  -24.8578  -14.8726   19.4736 N   0  0  0  0  0  0  0  0  0  0  0  0
  -22.1489  -12.2885   21.9996 N   0  0  0  0  0  0  0  0  0  0  0  0
  -28.9832  -17.2642   19.6812 N   0  0  0  0  0  0  0  0  0  0  0  0
  -25.8718  -33.2899   23.7254 N   0  0  0  0  0  0  0  0  0  0  0  0
  -21.0180  -29.6889   22.4823 N   0  0  0  0  0  0  0  0  0  0  0  0
  -19.7170  -28.0617   19.5281 N   0  3  0  0  0  0  0  0  0  0  0  0
  -22.2430  -14.1800   20.7066 O   0  0  0  0  0  0  0  0  0  0  0  0
  -26.7932  -31.1646   23.4872 O   0  0  0  0  0  0  0  0  0  0  0  0
  -22.4756  -32.1259   22.8632 O   0  0  0  0  0  0  0  0  0  0  0  0
  -21.6123  -27.6437   21.5651 O   0  0  0  0  0  0  0  0  0  0  0  0
  -30.9718  -16.5658   18.7118 O   0  0  0  0  0  0  0  0  0  0  0  0
  -23.5935   -7.6021   24.6428 O   0  0  0  0  0  0  0  0  0  0  0  0
  -28.1886  -26.4074   20.3100 O   0  0  0  0  0  0  0  0  0  1  0  0
  -18.8436   -5.0332   23.5281 F   0  0  0  0  0  0  0  0  0  0  0  0
  -23.5501   -4.9097   24.0169 F   0  0  0  0  0  0  0  0  0  0  0  0
  1  2  1  0  0  0  0
  1  5  2  0  0  0  0
  2  6  2  0  0  0  0
  3  8  2  0  0  0  0
  3 17  1  0  0  0  0
  4  9  1  0  0  0  0
  4 17  2  0  0  0  0
  5 19  1  0  0  0  0
  6 21  1  0  0  0  0
  7 10  2  0  0  0  0
  7 20  1  0  0  0  0
  8 27  1  0  0  0  0
  9 27  2  0  0  0  0
 10 28  1  0  0  0  0
 11 12  2  0  0  0  0
 11 29  1  0  0  0  0
 12 30  1  0  0  0  0
 13 22  1  0  0  0  0
 13 28  2  0  0  0  0
 14 23  2  0  0  0  0
 14 24  1  0  0  0  0
 15 25  2  0  0  0  0
 15 26  1  0  0  0  0
 16 30  2  0  0  0  0
 16 31  1  0  0  0  0
 17 32  1  0  0  0  0
 18 32  1  0  0  0  0
 18 33  2  0  0  0  0
 18 36  1  0  0  0  0
 19 21  2  0  0  0  0
 19 41  1  0  0  0  0
 20 22  2  0  0  0  0
 20 42  1  0  0  0  0
 21 53  1  0  0  0  0
 22 43  1  0  0  0  0
 23 25  1  0  0  0  0
 23 56  1  0  0  0  0
 24 26  2  0  0  0  0
 24 67  1  0  0  0  0
 25 73  1  0  0  0  0
 26 70  1  0  0  0  0
 27 82  1  0  0  0  0
 28 83  1  0  0  0  0
 29 31  2  0  0  0  0
 29 82  1  0  0  0  0
 30 84  1  0  0  0  0
 31 85  1  0  0  0  0
 32 65  2  0  0  0  0
 33 66  1  0  0  0  0
 33 71  1  0  0  0  0
 34 35  2  0  0  0  0
 34 44  1  0  0  0  0
 34 45  1  0  0  0  0
 35 83  1  0  0  0  0
 36 72  1  0  0  0  0
 36 77  2  0  0  0  0
 37 54  1  0  0  0  0
 37 74  1  0  0  0  0
 37 78  2  0  0  0  0
 38 62  1  0  0  0  0
 38 68  1  0  0  0  0
 38 79  2  0  0  0  0
 39 63  1  0  0  0  0
 39 75  1  0  0  0  0
 39 80  2  0  0  0  0
 40 69  1  0  0  0  0
 40 73  1  0  0  0  0
 40 81  2  0  0  0  0
 41 46  1  0  0  0  0
 42 54  1  0  0  0  0
 43 68  1  0  0  0  0
 44 50  1  0  0  0  0
 45 67  1  0  0  0  0
 46 48  1  0  0  0  0
 47 49  1  0  0  0  0
 47 51  1  0  0  0  0
 48 53  1  0  0  0  0
 49 55  1  0  0  0  0
 50 67  1  0  0  0  0
 51 69  1  0  0  0  0
 52 55  1  0  0  0  0
 52 69  1  0  0  0  0
 53 74  1  0  0  0  0
 54 68  1  0  0  0  0
 55 66  1  0  0  0  0
 57 63  1  0  0  0  0
 58 64  1  0  0  0  0
 59 64  1  0  0  0  0
 60 64  1  0  0  0  0
 61 76  1  0  0  0  0
 62 64  1  0  0  0  0
 62 75  1  0  0  0  0
 63 76  1  0  0  0  0
 65 66  1  0  0  0  0
M  CHG  1  76   1
M  ISO  4  35 101  40 100  73 100  83 101
M  END
> <Batch ID>
0100

> <Smiles>
CNC(C)C(=O)NC(C(=O)N1Cc2cc([101O:1][101CH:1]=C3CCN(c4cc(C)c([100NH:0][100C:0](=O)N5CCCC(n6nc(-c7ccc(Oc8ccc(F)cc8F)cc7)c(C(N)=O)c6N)C5)cc4N)C3)ccc2CC1C(=O)NC1CCCc2ccccc21)C(C)(C)C

> <Shape>
0.362

> <Color>
0.146

> <Negative vol penalty>
0.000

$$$$

  -OEChem-04052300573D

 91 99  0     1  0  0  0  0  0999 V2000
  -23.4127  -32.0019   24.2372 C   0  0  0  0  0  0  0  0  0  0  0  0
  -23.7428  -30.6516   24.2905 C   0  0  0  0  0  0  0  0  0  0  0  0
  -23.0813   -9.8828   21.4598 C   0  0  0  0  0  0  0  0  0  0  0  0
  -23.8806  -10.7545   23.5666 C   0  0  0  0  0  0  0  0  0  0  0  0
  -22.0770  -32.3952   24.3096 C   0  0  0  0  0  0  0  0  0  0  0  0
  -22.7375  -29.6936   24.4175 C   0  0  0  0  0  0  0  0  0  0  0  0
  -22.6646  -24.0851   21.9589 C   0  0  0  0  0  0  0  0  0  0  0  0
  -22.3621   -8.8997   22.1394 C   0  0  0  0  0  0  0  0  0  0  0  0
  -23.1614   -9.7714   24.2462 C   0  0  0  0  0  0  0  0  0  0  0  0
  -22.9742  -22.8290   22.4787 C   0  0  0  0  0  0  0  0  0  0  0  0
  -22.9973   -5.9366   23.6365 C   0  0  0  0  0  0  0  0  0  0  0  0
  -23.0658   -4.6314   23.1494 C   0  0  0  0  0  0  0  0  0  0  0  0
  -24.1946  -18.4522   22.1421 C   0  0  0  0  0  0  0  0  0  0  0  0
  -20.6381  -22.4550   22.9500 C   0  0  0  0  0  0  0  0  0  0  0  0
  -23.1133  -18.1712   19.5858 C   0  0  0  0  0  0  0  0  0  0  0  0
  -20.6730   -4.6305   22.8152 C   0  0  0  0  0  0  0  0  0  0  0  0
  -23.8406  -10.8102   22.1734 C   0  0  0  0  0  0  0  0  0  0  0  0
  -25.0358  -18.4041   21.0306 C   0  0  0  0  0  0  0  0  0  0  0  0
  -24.1362  -13.1104   21.1106 C   0  0  0  0  0  0  0  0  0  0  0  0
  -21.0541  -31.4411   24.4278 C   0  0  0  0  0  0  0  0  0  0  0  0
  -21.3385  -24.5408   21.9407 C   0  0  0  0  0  0  0  0  0  0  0  0
  -21.3869  -30.0746   24.4929 C   0  0  0  0  0  0  0  0  0  0  0  0
  -20.3140  -23.7162   22.4271 C   0  0  0  0  0  0  0  0  0  0  0  0
  -22.8127  -18.3597   21.9756 C   0  0  0  0  0  0  0  0  0  0  0  0
  -22.2721  -18.2192   20.6975 C   0  0  0  0  0  0  0  0  0  0  0  0
  -22.4021   -8.8440   23.5326 C   0  0  0  0  0  0  0  0  0  0  0  0
  -21.9612  -22.0149   22.9770 C   0  0  0  0  0  0  0  0  0  0  0  0
  -21.7666   -6.5888   23.7130 C   0  0  0  0  0  0  0  0  0  0  0  0
  -24.4952  -18.2636   19.7524 C   0  0  0  0  0  0  0  0  0  0  0  0
  -21.9037   -3.9783   22.7388 C   0  0  0  0  0  0  0  0  0  0  0  0
  -20.6045   -5.9357   23.3023 C   0  0  0  0  0  0  0  0  0  0  0  0
  -24.5842  -11.8256   21.4719 C   0  0  0  0  0  0  0  0  0  0  0  0
  -25.2086  -13.6801   20.4690 C   0  0  0  0  0  0  0  0  0  0  0  0
  -30.0789  -15.9410   20.8187 C   0  0  0  0  0  0  0  0  0  0  0  0
  -26.4756  -18.5007   21.2268 C   0  0  0  0  0  0  0  0  0  0  0  0
  -22.8643  -13.7331   21.3350 C   0  0  0  0  0  0  0  0  0  0  0  0
  -29.3728  -16.7610   20.0266 C   0  0  0  0  0  0  0  0  0  0  0  0
  -30.7045  -14.7067   20.2913 C   0  0  0  0  0  0  0  0  0  0  0  0
  -19.7866  -26.9802   23.2615 C   0  0  0  0  0  0  0  0  0  0  0  0
  -17.3293  -25.8958   21.4426 C   0  0  0  0  0  0  0  0  0  0  0  0
  -15.8832  -23.2868   19.7848 C   0  0  0  0  0  0  0  0  0  0  0  0
  -19.6281  -31.9170   24.5502 C   0  0  0  0  0  0  0  0  0  0  0  0
  -21.0178  -25.8873   21.3522 C   0  0  0  0  0  0  0  0  0  0  0  0
  -18.8719  -24.1504   22.4118 C   0  0  0  0  0  0  0  0  0  0  0  0
  -18.5965  -30.8185   24.3069 C   0  0  0  0  0  0  0  0  0  0  0  0
  -29.5309  -11.6537   18.8219 C   0  0  0  0  0  0  0  0  0  0  0  0
  -18.9710  -29.5548   25.0748 C   0  0  0  0  0  0  0  0  0  0  0  0
  -28.1162  -11.5130   19.3827 C   0  0  0  0  0  0  0  0  0  0  0  0
  -30.4718  -12.2969   19.8354 C   0  0  0  0  0  0  0  0  0  0  0  0
  -28.5776  -13.4835   20.9090 C   0  0  0  0  0  0  0  0  0  0  0  0
  -20.3230  -29.0043   24.6054 C   0  0  1  0  0  0  0  0  0  0  0  0
  -19.6961  -26.4597   21.8549 C   0  0  1  0  0  0  0  0  0  0  0  0
  -27.5919  -12.8630   19.9036 C   0  0  2  0  0  0  0  0  0  0  0  0
  -27.0096  -19.3050   22.4154 C   0  0  0  0  0  0  0  0  0  0  0  0
  -30.6772  -19.5773   20.0073 C   0  0  0  0  0  0  0  0  0  0  0  0
  -26.0247  -16.9061   16.7842 C   0  0  0  0  0  0  0  0  0  0  0  0
  -13.8589  -22.6966   18.4242 C   0  0  0  0  0  0  0  0  0  0  0  0
  -15.6454  -25.8185   23.9860 C   0  0  0  0  0  0  0  0  0  0  0  0
  -14.0074  -24.3638   22.7739 C   0  0  0  0  0  0  0  0  0  0  0  0
  -14.4479  -26.6831   21.9678 C   0  0  0  0  0  0  0  0  0  0  0  0
  -17.5287  -22.5909   17.4253 C   0  0  0  0  0  0  0  0  0  0  0  0
  -21.9265  -18.4145   23.1962 C   0  0  0  0  0  0  0  0  0  0  0  0
  -29.1908  -19.2987   19.8320 C   0  0  0  0  0  0  0  0  0  0  0  0
  -24.8340  -17.4525   17.5426 C   0  0  0  0  0  0  0  0  0  0  0  0
  -21.2621  -19.7759   23.3697 C   0  0  0  0  0  0  0  0  0  1  0  0
  -28.7248  -18.0219   20.5482 C   0  0  1  0  0  0  0  0  0  0  0  0
  -16.2111  -24.9010   21.6398 C   0  0  1  0  0  0  0  0  0  0  0  0
  -15.3002  -23.1804   18.3872 C   0  0  2  0  0  0  0  0  0  0  0  0
  -15.1053  -25.4339   22.5941 C   0  0  0  0  0  0  0  0  0  0  0  0
  -25.8431  -11.5926   21.0913 N   0  0  0  0  0  0  0  0  0  0  0  0
  -27.2839  -17.9114   20.3847 N   0  0  0  0  0  0  0  0  0  0  0  0
  -26.1952  -12.7386   20.4841 N   0  0  0  0  0  0  0  0  0  0  0  0
  -29.9275  -13.5575   20.3362 N   0  0  0  0  0  0  0  0  0  0  0  0
  -18.6099  -25.4780   21.8319 N   0  0  0  0  0  0  0  0  0  0  0  0
  -20.8759  -18.1235   20.5096 N   0  0  0  0  0  0  0  0  0  0  0  0
  -25.3944  -14.8896   19.8989 N   0  0  0  0  0  0  0  0  0  0  0  0
  -21.8744  -13.0062   22.0104 N   0  0  0  0  0  0  0  0  0  0  0  0
  -20.1744  -28.3037   23.3478 N   0  0  0  0  0  0  0  0  0  0  0  0
  -15.7330  -24.5546   20.3057 N   0  0  0  0  0  0  0  0  0  0  0  0
  -16.0957  -22.2249   17.5655 N   0  3  0  0  0  0  0  0  0  0  0  0
  -22.6076  -14.8934   20.9336 O   0  0  0  0  0  0  0  0  0  0  0  0
  -31.8468  -14.8329   19.8700 O   0  0  0  0  0  0  0  0  0  0  0  0
  -19.5227  -26.2365   24.1991 O   0  0  0  0  0  0  0  0  0  0  0  0
  -17.0772  -27.0002   20.9544 O   0  0  0  0  0  0  0  0  0  0  0  0
  -16.4152  -22.3389   20.3586 O   0  0  0  0  0  0  0  0  0  0  0  0
  -29.1898  -16.4874   18.6832 O   0  0  0  0  0  0  0  0  0  0  0  0
  -21.7003   -7.8849   24.1960 O   0  0  0  0  0  0  0  0  0  0  0  0
  -22.2607  -20.7887   23.4855 O   0  0  0  0  0  0  0  0  0  1  0  0
  -25.3009  -18.2139   18.6542 O   0  0  0  0  0  0  0  0  0  0  0  0
  -21.9699   -2.7254   22.2696 F   0  0  0  0  0  0  0  0  0  0  0  0
  -19.4195   -6.5575   23.3724 F   0  0  0  0  0  0  0  0  0  0  0  0
  1  2  1  0  0  0  0
  1  5  2  0  0  0  0
  2  6  2  0  0  0  0
  3  8  2  0  0  0  0
  3 17  1  0  0  0  0
  4  9  1  0  0  0  0
  4 17  2  0  0  0  0
  5 20  1  0  0  0  0
  6 22  1  0  0  0  0
  7 10  2  0  0  0  0
  7 21  1  0  0  0  0
  8 26  1  0  0  0  0
  9 26  2  0  0  0  0
 10 27  1  0  0  0  0
 11 12  2  0  0  0  0
 11 28  1  0  0  0  0
 12 30  1  0  0  0  0
 13 18  1  0  0  0  0
 13 24  2  0  0  0  0
 14 23  1  0  0  0  0
 14 27  2  0  0  0  0
 15 25  2  0  0  0  0
 15 29  1  0  0  0  0
 16 30  2  0  0  0  0
 16 31  1  0  0  0  0
 17 32  1  0  0  0  0
 18 29  2  0  0  0  0
 18 35  1  0  0  0  0
 19 32  1  0  0  0  0
 19 33  2  0  0  0  0
 19 36  1  0  0  0  0
 20 22  2  0  0  0  0
 20 42  1  0  0  0  0
 21 23  2  0  0  0  0
 21 43  1  0  0  0  0
 22 51  1  0  0  0  0
 23 44  1  0  0  0  0
 24 25  1  0  0  0  0
 24 62  1  0  0  0  0
 25 75  1  0  0  0  0
 26 87  1  0  0  0  0
 27 88  1  0  0  0  0
 28 31  2  0  0  0  0
 28 87  1  0  0  0  0
 29 89  1  0  0  0  0
 30 90  1  0  0  0  0
 31 91  1  0  0  0  0
 32 70  2  0  0  0  0
 33 72  1  0  0  0  0
 33 76  1  0  0  0  0
 34 37  2  0  0  0  0
 34 38  1  0  0  0  0
 35 54  1  0  0  0  0
 35 71  2  0  0  0  0
 36 77  1  0  0  0  0
 36 81  2  0  0  0  0
 37 66  1  0  0  0  0
 37 86  1  0  0  0  0
 38 73  1  0  0  0  0
 38 82  2  0  0  0  0
 39 52  1  0  0  0  0
 39 78  1  0  0  0  0
 39 83  2  0  0  0  0
 40 67  1  0  0  0  0
 40 74  1  0  0  0  0
 40 84  2  0  0  0  0
 41 68  1  0  0  0  0
 41 79  1  0  0  0  0
 41 85  2  0  0  0  0
 42 45  1  0  0  0  0
 43 52  1  0  0  0  0
 44 74  1  0  0  0  0
 45 47  1  0  0  0  0
 46 48  1  0  0  0  0
 46 49  1  0  0  0  0
 47 51  1  0  0  0  0
 48 53  1  0  0  0  0
 49 73  1  0  0  0  0
 50 53  1  0  0  0  0
 50 73  1  0  0  0  0
 51 78  1  0  0  0  0
 52 74  1  0  0  0  0
 53 72  1  0  0  0  0
 55 63  1  0  0  0  0
 56 64  1  0  0  0  0
 57 68  1  0  0  0  0
 58 69  1  0  0  0  0
 59 69  1  0  0  0  0
 60 69  1  0  0  0  0
 61 80  1  0  0  0  0
 62 65  1  0  0  0  0
 63 66  1  0  0  0  0
 64 89  1  0  0  0  0
 65 88  1  0  0  0  0
 66 71  1  0  0  0  0
 67 69  1  0  0  0  0
 67 79  1  0  0  0  0
 68 80  1  0  0  0  0
 70 72  1  0  0  0  0
M  CHG  1  80   1
M  ISO  4  34 100  38 100  65 101  88 101
M  END
> <Batch ID>
0100

> <Smiles>
CCOc1cc(N)c(C[101CH2:1][101O:1]c2ccc3c(c2)CN(C(=O)C(NC(=O)C(C)NC)C(C)(C)C)C(C(=O)NC2CCCc4ccccc42)C3)cc1C(C)=NC(CC)C(=O)[100CH2:0][100C:0](=O)N1CCCC(n2nc(-c3ccc(Oc4ccc(F)cc4F)cc3)c(C(N)=O)c2N)C1

> <Shape>
0.234

> <Color>
0.146

> <Negative vol penalty>
0.000

$$$$

  -OEChem-04052300573D

 90 99  0     1  0  0  0  0  0999 V2000
  -27.1647  -36.3649   21.4398 C   0  0  0  0  0  0  0  0  0  0  0  0
  -27.5925  -35.0411   21.4527 C   0  0  0  0  0  0  0  0  0  0  0  0
  -24.3736   -9.0701   21.2451 C   0  0  0  0  0  0  0  0  0  0  0  0
  -22.3839  -10.4401   21.2119 C   0  0  0  0  0  0  0  0  0  0  0  0
  -25.9438  -36.7074   22.0194 C   0  0  0  0  0  0  0  0  0  0  0  0
  -26.8001  -34.0592   22.0462 C   0  0  0  0  0  0  0  0  0  0  0  0
  -26.4505  -29.8729   19.2183 C   0  0  0  0  0  0  0  0  0  0  0  0
  -27.3978  -22.1538   17.7731 C   0  0  0  0  0  0  0  0  0  0  0  0
  -26.5068  -21.1023   17.5582 C   0  0  0  0  0  0  0  0  0  0  0  0
  -23.5833   -7.9245   21.3374 C   0  0  0  0  0  0  0  0  0  0  0  0
  -21.5935   -9.2945   21.3041 C   0  0  0  0  0  0  0  0  0  0  0  0
  -27.5362  -28.9985   19.2383 C   0  0  0  0  0  0  0  0  0  0  0  0
  -22.0976   -4.6614   21.9442 C   0  0  0  0  0  0  0  0  0  0  0  0
  -22.4714   -3.6865   22.8690 C   0  0  0  0  0  0  0  0  0  0  0  0
  -26.3654  -27.5901   20.8082 C   0  0  0  0  0  0  0  0  0  0  0  0
  -28.5589  -20.8316   19.4286 C   0  0  0  0  0  0  0  0  0  0  0  0
  -22.2371   -5.2936   24.6577 C   0  0  0  0  0  0  0  0  0  0  0  0
  -23.7739  -10.3280   21.1824 C   0  0  0  0  0  0  0  0  0  0  0  0
  -25.5584  -11.9526   22.0092 C   0  0  0  0  0  0  0  0  0  0  0  0
  -25.1315  -35.7276   22.6119 C   0  0  0  0  0  0  0  0  0  0  0  0
  -25.3166  -29.6177   20.0028 C   0  0  0  0  0  0  0  0  0  0  0  0
  -25.5678  -34.3892   22.6355 C   0  0  0  0  0  0  0  0  0  0  0  0
  -25.2655  -28.4615   20.7944 C   0  0  0  0  0  0  0  0  0  0  0  0
  -28.4239  -22.0184   18.7083 C   0  0  0  0  0  0  0  0  0  0  0  0
  -26.6419  -19.9154   18.2784 C   0  0  0  0  0  0  0  0  0  0  0  0
  -22.1933   -8.0366   21.3669 C   0  0  0  0  0  0  0  0  0  0  0  0
  -27.4950  -27.8584   20.0355 C   0  0  0  0  0  0  0  0  0  0  0  0
  -21.7935   -5.9524   22.3760 C   0  0  0  0  0  0  0  0  0  0  0  0
  -22.5412   -4.0026   24.2258 C   0  0  0  0  0  0  0  0  0  0  0  0
  -27.6679  -19.7801   19.2137 C   0  0  0  0  0  0  0  0  0  0  0  0
  -21.8632   -6.2685   23.7328 C   0  0  0  0  0  0  0  0  0  0  0  0
  -24.5898  -11.5118   21.0877 C   0  0  0  0  0  0  0  0  0  0  0  0
  -26.0463  -13.1154   21.4647 C   0  0  0  0  0  0  0  0  0  0  0  0
  -30.6677  -22.7847   19.3312 C   0  0  0  0  0  0  0  0  0  0  0  0
  -28.8634  -24.4335   18.7469 C   0  0  0  0  0  0  0  0  0  0  0  0
  -25.6612  -18.9715   14.4245 C   0  0  0  0  0  0  0  0  0  0  0  0
  -25.8482  -18.5148   15.6680 C   0  0  0  0  0  0  0  0  0  0  0  0
  -25.9797  -11.3637   23.2467 C   0  0  0  0  0  0  0  0  0  0  0  0
  -23.8541  -31.1249   22.3888 C   0  0  0  0  0  0  0  0  0  0  0  0
  -21.6514  -28.7746   22.0062 C   0  0  0  0  0  0  0  0  0  0  0  0
  -21.6738  -25.2173   21.4037 C   0  0  0  0  0  0  0  0  0  0  0  0
  -25.3877  -17.9238   19.0858 C   0  0  0  0  0  0  0  0  0  0  0  0
  -23.8418  -36.1533   23.2676 C   0  0  0  0  0  0  0  0  0  0  0  0
  -24.1428  -30.5568   19.9496 C   0  0  0  0  0  0  0  0  0  0  0  0
  -24.0633  -28.1314   21.6395 C   0  0  0  0  0  0  0  0  0  0  0  0
  -31.5714  -23.9356   19.7226 C   0  0  0  0  0  0  0  0  0  0  0  0
  -22.8879  -34.9942   23.5448 C   0  0  0  0  0  0  0  0  0  0  0  0
  -30.8424  -25.2358   19.9684 C   0  0  0  0  0  0  0  0  0  0  0  0
  -25.4106  -15.1352   16.8799 C   0  0  0  0  0  0  0  0  0  0  0  0
  -23.6357  -33.8287   24.1844 C   0  0  0  0  0  0  0  0  0  0  0  0
  -25.2665  -13.9716   17.8602 C   0  0  0  0  0  0  0  0  0  0  0  0
  -24.5494  -16.3328   17.2823 C   0  0  0  0  0  0  0  0  0  0  0  0
  -24.6274  -15.6289   19.6535 C   0  0  0  0  0  0  0  0  0  0  0  0
  -24.7248  -33.2916   23.2479 C   0  0  1  0  0  0  0  0  0  0  0  0
  -29.9394  -25.5095   18.7790 C   0  0  2  0  0  0  0  0  0  0  0  0
  -23.2484  -30.4657   21.1820 C   0  0  1  0  0  0  0  0  0  0  0  0
  -25.5260  -14.4319   19.3055 C   0  0  1  0  0  0  0  0  0  0  0  0
  -19.9753  -23.7396   20.2951 C   0  0  0  0  0  0  0  0  0  0  0  0
  -20.6268  -28.3143   24.8431 C   0  0  0  0  0  0  0  0  0  0  0  0
  -20.2115  -25.9226   24.2305 C   0  0  0  0  0  0  0  0  0  0  0  0
  -18.9925  -27.7434   23.0382 C   0  0  0  0  0  0  0  0  0  0  0  0
  -23.6648  -24.1785   19.4760 C   0  0  0  0  0  0  0  0  0  0  0  0
  -24.9381  -18.8186   16.8115 C   0  0  0  0  0  0  0  0  0  0  0  0
  -29.3373  -26.9098   18.8685 C   0  0  0  0  0  0  0  0  0  1  0  0
  -21.4535  -27.3915   22.5779 C   0  0  1  0  0  0  0  0  0  0  0  0
  -21.2747  -24.5103   20.1210 C   0  0  2  0  0  0  0  0  0  0  0  0
  -20.3470  -27.3543   23.6696 C   0  0  0  0  0  0  0  0  0  0  0  0
  -24.4679  -12.3281   20.0375 N   0  0  0  0  0  0  0  0  0  0  0  0
  -25.3664  -13.2936   20.2959 N   0  0  0  0  0  0  0  0  0  0  0  0
  -29.3494  -23.1112   18.9323 N   0  0  0  0  0  0  0  0  0  0  0  0
  -22.9435  -29.0838   21.5583 N   0  0  0  0  0  0  0  0  0  0  0  0
  -24.8018  -16.7098   18.6803 N   0  0  0  0  0  0  0  0  0  0  0  0
  -26.9861  -13.9926   21.8765 N   0  0  0  0  0  0  0  0  0  0  0  0
  -25.3129  -11.7321   24.4231 N   0  0  0  0  0  0  0  0  0  0  0  0
  -24.1397  -32.4655   22.2136 N   0  0  0  0  0  0  0  0  0  0  0  0
  -21.2014  -26.5122   21.4414 N   0  0  0  0  0  0  0  0  0  0  0  0
  -25.7176  -18.8289   18.0541 N   0  0  0  0  0  0  0  0  0  0  0  0
  -22.3375  -23.5519   19.7055 N   0  3  0  0  0  0  0  0  0  0  0  0
  -31.1572  -21.6508   19.3032 O   0  0  0  0  0  0  0  0  0  0  0  0
  -27.6796  -24.7380   18.5874 O   0  0  0  0  0  0  0  0  0  0  0  0
  -26.9303  -10.5477   23.3096 O   0  0  0  0  0  0  0  0  0  0  0  0
  -24.0466  -30.4664   23.4042 O   0  0  0  0  0  0  0  0  0  0  0  0
  -20.6931  -29.5494   21.9521 O   0  0  0  0  0  0  0  0  0  0  0  0
  -22.3351  -24.6740   22.2857 O   0  0  0  0  0  0  0  0  0  0  0  0
  -25.5774  -18.1900   20.2787 O   0  0  0  0  0  0  0  0  0  0  0  0
  -21.4218   -6.9189   21.4566 O   0  0  0  0  0  0  0  0  0  0  0  0
  -28.5536  -27.0037   20.0573 O   0  0  0  0  0  0  0  0  0  1  0  0
  -22.8987   -3.0659   25.1141 F   0  0  0  0  0  0  0  0  0  0  0  0
  -27.8064  -18.6444   19.9129 F   0  0  0  0  0  0  0  0  0  0  0  0
  -21.5711   -7.5067   24.1538 F   0  0  0  0  0  0  0  0  0  0  0  0
  1  2  1  0  0  0  0
  1  5  2  0  0  0  0
  2  6  2  0  0  0  0
  3 10  2  0  0  0  0
  3 18  1  0  0  0  0
  4 11  1  0  0  0  0
  4 18  2  0  0  0  0
  5 20  1  0  0  0  0
  6 22  1  0  0  0  0
  7 12  2  0  0  0  0
  7 21  1  0  0  0  0
  8  9  2  0  0  0  0
  8 24  1  0  0  0  0
  9 25  1  0  0  0  0
 10 26  1  0  0  0  0
 11 26  2  0  0  0  0
 12 27  1  0  0  0  0
 13 14  2  0  0  0  0
 13 28  1  0  0  0  0
 14 29  1  0  0  0  0
 15 23  1  0  0  0  0
 15 27  2  0  0  0  0
 16 24  2  0  0  0  0
 16 30  1  0  0  0  0
 17 29  2  0  0  0  0
 17 31  1  0  0  0  0
 18 32  1  0  0  0  0
 19 32  1  0  0  0  0
 19 33  2  0  0  0  0
 19 38  1  0  0  0  0
 20 22  2  0  0  0  0
 20 43  1  0  0  0  0
 21 23  2  0  0  0  0
 21 44  1  0  0  0  0
 22 54  1  0  0  0  0
 23 45  1  0  0  0  0
 24 70  1  0  0  0  0
 25 30  2  0  0  0  0
 25 77  1  0  0  0  0
 26 86  1  0  0  0  0
 27 87  1  0  0  0  0
 28 31  2  0  0  0  0
 28 86  1  0  0  0  0
 29 88  1  0  0  0  0
 30 89  1  0  0  0  0
 31 90  1  0  0  0  0
 32 68  2  0  0  0  0
 33 69  1  0  0  0  0
 33 73  1  0  0  0  0
 34 46  1  0  0  0  0
 34 70  1  0  0  0  0
 34 79  2  0  0  0  0
 35 55  1  0  0  0  0
 35 70  1  0  0  0  0
 35 80  2  0  0  0  0
 36 37  2  0  0  0  0
 37 63  1  0  0  0  0
 38 74  1  0  0  0  0
 38 81  2  0  0  0  0
 39 56  1  0  0  0  0
 39 75  1  0  0  0  0
 39 82  2  0  0  0  0
 40 65  1  0  0  0  0
 40 71  1  0  0  0  0
 40 83  2  0  0  0  0
 41 66  1  0  0  0  0
 41 76  1  0  0  0  0
 41 84  2  0  0  0  0
 42 72  1  0  0  0  0
 42 77  1  0  0  0  0
 42 85  2  0  0  0  0
 43 47  1  0  0  0  0
 44 56  1  0  0  0  0
 45 71  1  0  0  0  0
 46 48  1  0  0  0  0
 47 50  1  0  0  0  0
 48 55  1  0  0  0  0
 49 51  1  0  0  0  0
 49 52  1  0  0  0  0
 50 54  1  0  0  0  0
 51 57  1  0  0  0  0
 52 72  1  0  0  0  0
 53 57  1  0  0  0  0
 53 72  1  0  0  0  0
 54 75  1  0  0  0  0
 55 64  1  0  0  0  0
 56 71  1  0  0  0  0
 57 69  1  0  0  0  0
 58 66  1  0  0  0  0
 59 67  1  0  0  0  0
 60 67  1  0  0  0  0
 61 67  1  0  0  0  0
 62 78  1  0  0  0  0
 63 77  1  0  0  0  0
 64 87  1  0  0  0  0
 65 67  1  0  0  0  0
 65 76  1  0  0  0  0
 66 78  1  0  0  0  0
 68 69  1  0  0  0  0
M  CHG  1  78   1
M  ISO  4  42 100  64 101  77 100  87 101
M  END
> <Batch ID>
0100

> <Smiles>
C=CC[100N:0](c1ccc(N2C(=O)CCC([101CH2:1][101O:1]c3ccc4c(c3)CN(C(=O)C(NC(=O)C(C)NC)C(C)(C)C)C(C(=O)NC3CCCc5ccccc53)C4)C2=O)cc1F)[100C:0](=O)N1CCCC(n2nc(-c3ccc(Oc4ccc(F)cc4F)cc3)c(C(N)=O)c2N)C1

> <Shape>
0.314

> <Color>
0.109

> <Negative vol penalty>
0.000

$$$$

  -OEChem-04052300573D

 86 94  0     1  0  0  0  0  0999 V2000
  -27.6484  -22.1968   18.6613 C   0  0  0  0  0  0  0  0  0  0  0  0
  -26.5231  -22.5810   19.3836 C   0  0  0  0  0  0  0  0  0  0  0  0
  -26.5317  -12.9075   20.8953 C   0  0  0  0  0  0  0  0  0  0  0  0
  -24.2985  -13.4403   20.1429 C   0  0  0  0  0  0  0  0  0  0  0  0
  -28.8745  -22.8154   18.9020 C   0  0  0  0  0  0  0  0  0  0  0  0
  -26.6237  -23.5832   20.3479 C   0  0  0  0  0  0  0  0  0  0  0  0
  -22.8314  -26.9283   20.0758 C   0  0  0  0  0  0  0  0  0  0  0  0
  -26.0936  -11.6477   21.3034 C   0  0  0  0  0  0  0  0  0  0  0  0
  -23.8604  -12.1804   20.5510 C   0  0  0  0  0  0  0  0  0  0  0  0
  -21.6037  -26.5441   20.6134 C   0  0  0  0  0  0  0  0  0  0  0  0
  -23.9766   -9.0084   19.3912 C   0  0  0  0  0  0  0  0  0  0  0  0
  -23.1560   -8.2949   18.5177 C   0  0  0  0  0  0  0  0  0  0  0  0
  -22.0372  -22.2539   22.7873 C   0  0  0  0  0  0  0  0  0  0  0  0
  -19.6878  -22.3186   22.2277 C   0  0  0  0  0  0  0  0  0  0  0  0
  -22.0871  -27.8122   22.6078 C   0  0  0  0  0  0  0  0  0  0  0  0
  -21.1922  -20.9125   20.9642 C   0  0  0  0  0  0  0  0  0  0  0  0
  -21.4112   -8.2563   20.1885 C   0  0  0  0  0  0  0  0  0  0  0  0
  -25.6341  -13.8039   20.3150 C   0  0  0  0  0  0  0  0  0  0  0  0
  -20.7526  -22.7442   23.0219 C   0  0  0  0  0  0  0  0  0  0  0  0
  -26.5959  -15.4607   18.6306 C   0  0  0  0  0  0  0  0  0  0  0  0
  -28.9880  -23.8324   19.8630 C   0  0  0  0  0  0  0  0  0  0  0  0
  -23.7023  -27.7498   20.8059 C   0  0  0  0  0  0  0  0  0  0  0  0
  -27.8527  -24.2150   20.6026 C   0  0  0  0  0  0  0  0  0  0  0  0
  -23.3242  -28.2074   22.0762 C   0  0  0  0  0  0  0  0  0  0  0  0
  -22.2570  -21.3380   21.7584 C   0  0  0  0  0  0  0  0  0  0  0  0
  -24.7580  -11.2842   21.1313 C   0  0  0  0  0  0  0  0  0  0  0  0
  -21.2327  -26.9837   21.8808 C   0  0  0  0  0  0  0  0  0  0  0  0
  -23.5146   -9.3458   20.6634 C   0  0  0  0  0  0  0  0  0  0  0  0
  -19.9076  -21.4027   21.1988 C   0  0  0  0  0  0  0  0  0  0  0  0
  -21.8733   -7.9189   18.9163 C   0  0  0  0  0  0  0  0  0  0  0  0
  -22.2319   -8.9698   21.0620 C   0  0  0  0  0  0  0  0  0  0  0  0
  -26.0858  -15.1056   19.8937 C   0  0  0  0  0  0  0  0  0  0  0  0
  -26.8782  -16.8005   18.7387 C   0  0  0  0  0  0  0  0  0  0  0  0
  -20.5169  -23.7218   24.1217 C   0  0  0  0  0  0  0  0  0  0  0  0
  -26.7965  -14.6518   17.4639 C   0  0  0  0  0  0  0  0  0  0  0  0
  -26.6419  -27.4265   21.9713 C   0  0  0  0  0  0  0  0  0  0  0  0
  -18.9502  -25.4155   24.1641 C   0  0  0  0  0  0  0  0  0  0  0  0
  -26.2696  -30.5606   22.7206 C   0  0  0  0  0  0  0  0  0  0  0  0
  -24.1459  -33.1491   23.3809 C   0  0  0  0  0  0  0  0  0  0  0  0
  -24.7277  -21.1581   22.2161 C   0  0  0  0  0  0  0  0  0  0  0  0
  -30.3445  -24.4389   20.1213 C   0  0  0  0  0  0  0  0  0  0  0  0
  -25.0115  -28.1770   20.2009 C   0  0  0  0  0  0  0  0  0  0  0  0
  -24.2144  -29.1073   22.8923 C   0  0  0  0  0  0  0  0  0  0  0  0
  -30.2868  -25.7525   20.8969 C   0  0  0  0  0  0  0  0  0  0  0  0
  -28.1231  -20.1173   21.9611 C   0  0  0  0  0  0  0  0  0  0  0  0
  -29.3482  -25.6255   22.0926 C   0  0  0  0  0  0  0  0  0  0  0  0
  -28.0329  -18.7490   21.2815 C   0  0  0  0  0  0  0  0  0  0  0  0
  -26.9651  -20.3465   22.9306 C   0  0  0  0  0  0  0  0  0  0  0  0
  -25.5373  -18.7764   21.6795 C   0  0  0  0  0  0  0  0  0  0  0  0
  -27.9164  -25.3154   21.6395 C   0  0  1  0  0  0  0  0  0  0  0  0
  -26.0429  -28.5967   21.2436 C   0  0  1  0  0  0  0  0  0  0  0  0
  -26.6469  -18.5262   20.6451 C   0  0  2  0  0  0  0  0  0  0  0  0
  -16.7531  -25.8354   23.0662 C   0  0  0  0  0  0  0  0  0  0  0  0
  -24.1370  -35.5819   23.9965 C   0  0  0  0  0  0  0  0  0  0  0  0
  -27.0208  -29.8353   25.5876 C   0  0  0  0  0  0  0  0  0  0  0  0
  -26.0875  -32.0413   26.3163 C   0  0  0  0  0  0  0  0  0  0  0  0
  -28.0293  -31.9659   24.7521 C   0  0  0  0  0  0  0  0  0  0  0  0
  -22.7024  -33.8895   20.9056 C   0  0  0  0  0  0  0  0  0  0  0  0
  -17.5817  -21.5278   20.7187 C   0  0  0  0  0  0  0  0  0  0  0  0
  -17.5125  -25.8474   24.3798 C   0  0  0  0  0  0  0  0  0  0  0  0
  -19.9584  -26.4954   23.8285 C   0  0  0  0  0  0  0  0  0  1  0  0
  -25.7344  -31.3189   23.9112 C   0  0  1  0  0  0  0  0  0  0  0  0
  -24.1013  -34.5737   22.8585 C   0  0  2  0  0  0  0  0  0  0  0  0
  -26.7019  -31.2718   25.1275 C   0  0  0  0  0  0  0  0  0  0  0  0
  -26.0455  -16.1366   20.7420 N   0  0  0  0  0  0  0  0  0  0  0  0
  -19.2207  -24.1501   24.2793 N   0  0  0  0  0  0  0  0  0  0  0  0
  -26.5338  -17.1527   20.0105 N   0  0  0  0  0  0  0  0  0  0  0  0
  -25.4870  -29.4924   22.2600 N   0  0  0  0  0  0  0  0  0  0  0  0
  -25.6842  -20.1216   22.2570 N   0  0  0  0  0  0  0  0  0  0  0  0
  -27.3851  -17.7000   17.8689 N   0  0  0  0  0  0  0  0  0  0  0  0
  -26.4530  -13.2944   17.5249 N   0  0  0  0  0  0  0  0  0  0  0  0
  -23.5619  -20.8395   21.5205 N   0  0  0  0  0  0  0  0  0  0  0  0
  -27.2715  -26.5137   21.1468 N   0  0  0  0  0  0  0  0  0  0  0  0
  -25.4361  -32.6658   23.4368 N   0  0  0  0  0  0  0  0  0  0  0  0
  -22.8560  -34.7979   22.0710 N   0  3  0  0  0  0  0  0  0  0  0  0
  -21.4520  -24.0632   24.8389 O   0  0  0  0  0  0  0  0  0  0  0  0
  -27.2818  -15.1153   16.4041 O   0  0  0  0  0  0  0  0  0  0  0  0
  -26.5416  -27.3576   23.1907 O   0  0  0  0  0  0  0  0  0  0  0  0
  -27.3391  -30.9078   22.2134 O   0  0  0  0  0  0  0  0  0  0  0  0
  -23.1375  -32.5285   23.7103 O   0  0  0  0  0  0  0  0  0  0  0  0
  -24.9393  -22.2572   22.7348 O   0  0  0  0  0  0  0  0  0  0  0  0
  -24.3303  -10.0548   21.5292 O   0  0  0  0  0  0  0  0  0  0  0  0
  -18.8688  -20.9870   20.4240 O   0  0  0  0  0  0  0  0  0  0  0  0
  -20.0352  -26.6097   22.4082 O   0  0  0  0  0  0  0  0  0  1  0  0
  -21.0847   -7.2351   18.0768 F   0  0  0  0  0  0  0  0  0  0  0  0
  -21.7821   -9.2921   22.2825 F   0  0  0  0  0  0  0  0  0  0  0  0
  1  2  1  0  0  0  0
  1  5  2  0  0  0  0
  2  6  2  0  0  0  0
  3  8  2  0  0  0  0
  3 18  1  0  0  0  0
  4  9  1  0  0  0  0
  4 18  2  0  0  0  0
  5 21  1  0  0  0  0
  6 23  1  0  0  0  0
  7 10  2  0  0  0  0
  7 22  1  0  0  0  0
  8 26  1  0  0  0  0
  9 26  2  0  0  0  0
 10 27  1  0  0  0  0
 11 12  2  0  0  0  0
 11 28  1  0  0  0  0
 12 30  1  0  0  0  0
 13 19  1  0  0  0  0
 13 25  2  0  0  0  0
 14 19  2  0  0  0  0
 14 29  1  0  0  0  0
 15 24  1  0  0  0  0
 15 27  2  0  0  0  0
 16 25  1  0  0  0  0
 16 29  2  0  0  0  0
 17 30  2  0  0  0  0
 17 31  1  0  0  0  0
 18 32  1  0  0  0  0
 19 34  1  0  0  0  0
 20 32  1  0  0  0  0
 20 33  2  0  0  0  0
 20 35  1  0  0  0  0
 21 23  2  0  0  0  0
 21 41  1  0  0  0  0
 22 24  2  0  0  0  0
 22 42  1  0  0  0  0
 23 50  1  0  0  0  0
 24 43  1  0  0  0  0
 25 72  1  0  0  0  0
 26 82  1  0  0  0  0
 27 84  1  0  0  0  0
 28 31  2  0  0  0  0
 28 82  1  0  0  0  0
 29 83  1  0  0  0  0
 30 85  1  0  0  0  0
 31 86  1  0  0  0  0
 32 65  2  0  0  0  0
 33 67  1  0  0  0  0
 33 70  1  0  0  0  0
 34 66  1  0  0  0  0
 34 76  2  0  0  0  0
 35 71  1  0  0  0  0
 35 77  2  0  0  0  0
 36 51  1  0  0  0  0
 36 73  1  0  0  0  0
 36 78  2  0  0  0  0
 37 60  1  0  0  0  0
 37 61  1  0  0  0  0
 37 66  2  0  0  0  0
 38 62  1  0  0  0  0
 38 68  1  0  0  0  0
 38 79  2  0  0  0  0
 39 63  1  0  0  0  0
 39 74  1  0  0  0  0
 39 80  2  0  0  0  0
 40 69  1  0  0  0  0
 40 72  1  0  0  0  0
 40 81  2  0  0  0  0
 41 44  1  0  0  0  0
 42 51  1  0  0  0  0
 43 68  1  0  0  0  0
 44 46  1  0  0  0  0
 45 47  1  0  0  0  0
 45 48  1  0  0  0  0
 46 50  1  0  0  0  0
 47 52  1  0  0  0  0
 48 69  1  0  0  0  0
 49 52  1  0  0  0  0
 49 69  1  0  0  0  0
 50 73  1  0  0  0  0
 51 68  1  0  0  0  0
 52 67  1  0  0  0  0
 53 60  1  0  0  0  0
 54 63  1  0  0  0  0
 55 64  1  0  0  0  0
 56 64  1  0  0  0  0
 57 64  1  0  0  0  0
 58 75  1  0  0  0  0
 59 83  1  0  0  0  0
 61 84  1  0  0  0  0
 62 64  1  0  0  0  0
 62 74  1  0  0  0  0
 63 75  1  0  0  0  0
 65 67  1  0  0  0  0
M  CHG  1  75   1
M  ISO  4  40 100  61 101  72 100  84 101
M  END
> <Batch ID>
0100

> <Smiles>
CCC(=NC(=O)c1cc([100NH:0][100C:0](=O)N2CCCC(n3nc(-c4ccc(Oc5ccc(F)cc5F)cc4)c(C(N)=O)c3N)C2)cc(OC)c1)[101CH2:1][101O:1]c1ccc2c(c1)CN(C(=O)C(NC(=O)C(C)NC)C(C)(C)C)C(C(=O)NC1CCCc3ccccc31)C2

> <Shape>
0.228

> <Color>
0.055

> <Negative vol penalty>
0.000

$$$$

  -OEChem-04052300573D

 83 91  0     1  0  0  0  0  0999 V2000
  -30.9052  -32.8152   24.7351 C   0  0  0  0  0  0  0  0  0  0  0  0
  -31.0236  -31.5408   24.1900 C   0  0  0  0  0  0  0  0  0  0  0  0
  -23.0206   -9.9178   19.9334 C   0  0  0  0  0  0  0  0  0  0  0  0
  -23.8684   -9.8303   22.1941 C   0  0  0  0  0  0  0  0  0  0  0  0
  -29.6437  -33.3351   25.0218 C   0  0  0  0  0  0  0  0  0  0  0  0
  -29.8804  -30.7850   23.9323 C   0  0  0  0  0  0  0  0  0  0  0  0
  -29.0253  -26.8629   19.3071 C   0  0  0  0  0  0  0  0  0  0  0  0
  -22.2829   -8.7569   20.1650 C   0  0  0  0  0  0  0  0  0  0  0  0
  -23.1306   -8.6694   22.4258 C   0  0  0  0  0  0  0  0  0  0  0  0
  -29.1238  -25.4747   19.2241 C   0  0  0  0  0  0  0  0  0  0  0  0
  -23.3882   -5.3721   21.7237 C   0  0  0  0  0  0  0  0  0  0  0  0
  -24.0274   -4.3174   22.3753 C   0  0  0  0  0  0  0  0  0  0  0  0
  -29.7503  -17.3632   20.0720 C   0  0  0  0  0  0  0  0  0  0  0  0
  -26.7451  -25.2906   19.5802 C   0  0  0  0  0  0  0  0  0  0  0  0
  -27.6932  -18.3878   21.6535 C   0  0  0  0  0  0  0  0  0  0  0  0
  -22.3936   -4.4249   24.1519 C   0  0  0  0  0  0  0  0  0  0  0  0
  -23.8134  -10.4545   20.9479 C   0  0  0  0  0  0  0  0  0  0  0  0
  -29.4215  -16.7422   21.2768 C   0  0  0  0  0  0  0  0  0  0  0  0
  -24.1592  -12.9817   20.9170 C   0  0  0  0  0  0  0  0  0  0  0  0
  -28.4841  -32.5891   24.7586 C   0  0  0  0  0  0  0  0  0  0  0  0
  -27.7855  -27.4759   19.5386 C   0  0  0  0  0  0  0  0  0  0  0  0
  -28.6023  -31.2948   24.2171 C   0  0  0  0  0  0  0  0  0  0  0  0
  -26.6331  -26.6869   19.6632 C   0  0  0  0  0  0  0  0  0  0  0  0
  -28.0221  -19.0090   20.4486 C   0  0  0  0  0  0  0  0  0  0  0  0
  -28.3929  -17.2544   22.0676 C   0  0  0  0  0  0  0  0  0  0  0  0
  -22.3379   -8.1327   21.4112 C   0  0  0  0  0  0  0  0  0  0  0  0
  -27.9841  -24.6881   19.3635 C   0  0  0  0  0  0  0  0  0  0  0  0
  -22.2518   -5.9534   22.2862 C   0  0  0  0  0  0  0  0  0  0  0  0
  -23.5301   -3.8437   23.5893 C   0  0  0  0  0  0  0  0  0  0  0  0
  -29.0507  -18.4967   19.6579 C   0  0  0  0  0  0  0  0  0  0  0  0
  -21.7545   -5.4797   23.5003 C   0  0  0  0  0  0  0  0  0  0  0  0
  -24.5761  -11.6533   20.7090 C   0  0  0  0  0  0  0  0  0  0  0  0
  -25.2391  -13.7432   20.5424 C   0  0  0  0  0  0  0  0  0  0  0  0
  -27.7985  -21.2839   20.4254 C   0  0  0  0  0  0  0  0  0  0  0  0
  -30.1736  -15.5616   21.6826 C   0  0  0  0  0  0  0  0  0  0  0  0
  -22.9076  -13.4826   21.4052 C   0  0  0  0  0  0  0  0  0  0  0  0
  -30.7587  -14.6410   20.6809 C   0  0  0  0  0  0  0  0  0  0  0  0
  -26.5856  -29.3119   21.8392 C   0  0  0  0  0  0  0  0  0  0  0  0
  -24.0469  -29.4998   19.8288 C   0  0  0  0  0  0  0  0  0  0  0  0
  -22.2694  -28.1092   17.2688 C   0  0  0  0  0  0  0  0  0  0  0  0
  -27.1445  -33.1746   25.1294 C   0  0  0  0  0  0  0  0  0  0  0  0
  -27.6918  -28.9759   19.5989 C   0  0  0  0  0  0  0  0  0  0  0  0
  -25.2753  -27.2970   19.8926 C   0  0  0  0  0  0  0  0  0  0  0  0
  -25.9649  -32.4570   24.4783 C   0  0  0  0  0  0  0  0  0  0  0  0
  -29.4844  -12.4867   18.1134 C   0  0  0  0  0  0  0  0  0  0  0  0
  -26.1190  -30.9454   24.6134 C   0  0  0  0  0  0  0  0  0  0  0  0
  -28.0731  -12.1563   18.5980 C   0  0  0  0  0  0  0  0  0  0  0  0
  -30.4546  -12.6371   19.2807 C   0  0  0  0  0  0  0  0  0  0  0  0
  -28.6065  -13.3151   20.7885 C   0  0  0  0  0  0  0  0  0  0  0  0
  -27.3845  -30.4540   23.9003 C   0  0  1  0  0  0  0  0  0  0  0  0
  -26.4586  -29.4679   20.3502 C   0  0  1  0  0  0  0  0  0  0  0  0
  -27.5923  -13.1829   19.6390 C   0  0  2  0  0  0  0  0  0  0  0  0
  -20.2201  -28.4745   15.8672 C   0  0  0  0  0  0  0  0  0  0  0  0
  -22.2959  -28.5896   22.1560 C   0  0  0  0  0  0  0  0  0  0  0  0
  -20.4918  -28.0634   20.5018 C   0  0  0  0  0  0  0  0  0  0  0  0
  -21.3051  -30.4081   20.7539 C   0  0  0  0  0  0  0  0  0  0  0  0
  -23.8588  -28.2580   14.7767 C   0  0  0  0  0  0  0  0  0  0  0  0
  -27.1350  -22.5712   20.0372 C   0  0  0  0  0  0  0  0  0  1  0  0
  -22.7844  -28.6979   19.6231 C   0  0  1  0  0  0  0  0  0  0  0  0
  -21.7188  -28.7039   15.9852 C   0  0  2  0  0  0  0  0  0  0  0  0
  -21.7450  -28.9279   20.7563 C   0  0  0  0  0  0  0  0  0  0  0  0
  -25.8236  -11.5721   20.2386 N   0  0  0  0  0  0  0  0  0  0  0  0
  -30.3811  -15.2414   22.9295 N   0  0  0  0  0  0  0  0  0  0  0  0
  -27.3155  -20.1504   20.0335 N   0  0  0  0  0  0  0  0  0  0  0  0
  -26.1997  -12.8591   20.1478 N   0  0  0  0  0  0  0  0  0  0  0  0
  -29.9511  -13.5910   20.2669 N   0  0  0  0  0  0  0  0  0  0  0  0
  -25.2364  -28.7676   19.9502 N   0  0  0  0  0  0  0  0  0  0  0  0
  -28.0451  -16.6405   23.2916 N   0  0  0  0  0  0  0  0  0  0  0  0
  -25.4512  -15.0761   20.5152 N   0  0  0  0  0  0  0  0  0  0  0  0
  -21.9062  -12.5624   21.7443 N   0  0  0  0  0  0  0  0  0  0  0  0
  -27.1682  -30.3943   22.4706 N   0  0  0  0  0  0  0  0  0  0  0  0
  -22.2990  -29.0359   18.2895 N   0  0  0  0  0  0  0  0  0  0  0  0
  -22.3832  -28.0876   14.8021 N   0  3  0  0  0  0  0  0  0  0  0  0
  -22.6780  -14.7103   21.5213 O   0  0  0  0  0  0  0  0  0  0  0  0
  -31.8990  -14.9062   20.3236 O   0  0  0  0  0  0  0  0  0  0  0  0
  -26.1834  -28.2862   22.3758 O   0  0  0  0  0  0  0  0  0  0  0  0
  -23.9809  -30.7308   19.8728 O   0  0  0  0  0  0  0  0  0  0  0  0
  -22.6330  -26.9386   17.3583 O   0  0  0  0  0  0  0  0  0  0  0  0
  -21.6180   -7.0000   21.6377 O   0  0  0  0  0  0  0  0  0  0  0  0
  -28.0775  -23.3329   19.2836 O   0  0  0  0  0  0  0  0  0  1  0  0
  -24.1430   -2.8298   24.2142 F   0  0  0  0  0  0  0  0  0  0  0  0
  -29.3731  -19.0874   18.4986 F   0  0  0  0  0  0  0  0  0  0  0  0
  -20.6624   -6.0333   24.0450 F   0  0  0  0  0  0  0  0  0  0  0  0
  1  2  1  0  0  0  0
  1  5  2  0  0  0  0
  2  6  2  0  0  0  0
  3  8  2  0  0  0  0
  3 17  1  0  0  0  0
  4  9  1  0  0  0  0
  4 17  2  0  0  0  0
  5 20  1  0  0  0  0
  6 22  1  0  0  0  0
  7 10  2  0  0  0  0
  7 21  1  0  0  0  0
  8 26  1  0  0  0  0
  9 26  2  0  0  0  0
 10 27  1  0  0  0  0
 11 12  2  0  0  0  0
 11 28  1  0  0  0  0
 12 29  1  0  0  0  0
 13 18  2  0  0  0  0
 13 30  1  0  0  0  0
 14 23  1  0  0  0  0
 14 27  2  0  0  0  0
 15 24  1  0  0  0  0
 15 25  2  0  0  0  0
 16 29  2  0  0  0  0
 16 31  1  0  0  0  0
 17 32  1  0  0  0  0
 18 25  1  0  0  0  0
 18 35  1  0  0  0  0
 19 32  1  0  0  0  0
 19 33  2  0  0  0  0
 19 36  1  0  0  0  0
 20 22  2  0  0  0  0
 20 41  1  0  0  0  0
 21 23  2  0  0  0  0
 21 42  1  0  0  0  0
 22 50  1  0  0  0  0
 23 43  1  0  0  0  0
 24 30  2  0  0  0  0
 24 64  1  0  0  0  0
 25 68  1  0  0  0  0
 26 79  1  0  0  0  0
 27 80  1  0  0  0  0
 28 31  2  0  0  0  0
 28 79  1  0  0  0  0
 29 81  1  0  0  0  0
 30 82  1  0  0  0  0
 31 83  1  0  0  0  0
 32 62  2  0  0  0  0
 33 65  1  0  0  0  0
 33 69  1  0  0  0  0
 34 58  1  0  0  0  0
 34 64  2  0  0  0  0
 35 37  1  0  0  0  0
 35 63  2  0  0  0  0
 36 70  1  0  0  0  0
 36 74  2  0  0  0  0
 37 66  1  0  0  0  0
 37 75  2  0  0  0  0
 38 51  1  0  0  0  0
 38 71  1  0  0  0  0
 38 76  2  0  0  0  0
 39 59  1  0  0  0  0
 39 67  1  0  0  0  0
 39 77  2  0  0  0  0
 40 60  1  0  0  0  0
 40 72  1  0  0  0  0
 40 78  2  0  0  0  0
 41 44  1  0  0  0  0
 42 51  1  0  0  0  0
 43 67  1  0  0  0  0
 44 46  1  0  0  0  0
 45 47  1  0  0  0  0
 45 48  1  0  0  0  0
 46 50  1  0  0  0  0
 47 52  1  0  0  0  0
 48 66  1  0  0  0  0
 49 52  1  0  0  0  0
 49 66  1  0  0  0  0
 50 71  1  0  0  0  0
 51 67  1  0  0  0  0
 52 65  1  0  0  0  0
 53 60  1  0  0  0  0
 54 61  1  0  0  0  0
 55 61  1  0  0  0  0
 56 61  1  0  0  0  0
 57 73  1  0  0  0  0
 58 80  1  0  0  0  0
 59 61  1  0  0  0  0
 59 72  1  0  0  0  0
 60 73  1  0  0  0  0
 62 65  1  0  0  0  0
M  CHG  1  73   1
M  ISO  4  35 100  37 100  58 101  80 101
M  END
> <Batch ID>
0100

> <Smiles>
CNC(C)C(=O)NC(C(=O)N1Cc2cc([101O:1][101CH:1]=CNc3cc(N)c([100C:0](=N)[100C:0](=O)N4CCCC(n5nc(-c6ccc(Oc7ccc(F)cc7F)cc6)c(C(N)=O)c5N)C4)cc3F)ccc2CC1C(=O)NC1CCCc2ccccc21)C(C)(C)C

> <Shape>
0.382

> <Color>
0.209

> <Negative vol penalty>
0.000

$$$$

  -OEChem-04052300573D

 85 94  0     1  0  0  0  0  0999 V2000
  -26.8312  -37.8129   19.6794 C   0  0  0  0  0  0  0  0  0  0  0  0
  -27.3809  -36.5600   19.4276 C   0  0  0  0  0  0  0  0  0  0  0  0
  -24.6202   -8.5630   20.6274 C   0  0  0  0  0  0  0  0  0  0  0  0
  -23.1795  -10.4646   21.0088 C   0  0  0  0  0  0  0  0  0  0  0  0
  -26.0143  -38.0035   20.7931 C   0  0  0  0  0  0  0  0  0  0  0  0
  -27.1149  -35.4971   20.2901 C   0  0  0  0  0  0  0  0  0  0  0  0
  -26.4716  -29.5984   18.7743 C   0  0  0  0  0  0  0  0  0  0  0  0
  -23.5522   -7.7027   20.8820 C   0  0  0  0  0  0  0  0  0  0  0  0
  -22.1114   -9.6043   21.2634 C   0  0  0  0  0  0  0  0  0  0  0  0
  -27.3495  -28.5165   18.8224 C   0  0  0  0  0  0  0  0  0  0  0  0
  -20.8372   -6.5461   19.2314 C   0  0  0  0  0  0  0  0  0  0  0  0
  -20.6499   -5.4707   18.3632 C   0  0  0  0  0  0  0  0  0  0  0  0
  -26.4363  -27.8782   20.9619 C   0  0  0  0  0  0  0  0  0  0  0  0
  -28.7188  -19.7978   19.7513 C   0  0  0  0  0  0  0  0  0  0  0  0
  -29.6541  -18.8104   22.1871 C   0  0  0  0  0  0  0  0  0  0  0  0
  -20.9285   -3.9338   20.2064 C   0  0  0  0  0  0  0  0  0  0  0  0
  -24.4338   -9.9440   20.6909 C   0  0  0  0  0  0  0  0  0  0  0  0
  -25.9176  -11.3714   19.1847 C   0  0  0  0  0  0  0  0  0  0  0  0
  -25.7304  -36.9400   21.6643 C   0  0  0  0  0  0  0  0  0  0  0  0
  -25.5754  -29.8351   19.8265 C   0  0  0  0  0  0  0  0  0  0  0  0
  -26.2946  -35.6739   21.4173 C   0  0  0  0  0  0  0  0  0  0  0  0
  -25.5462  -28.9623   20.9236 C   0  0  0  0  0  0  0  0  0  0  0  0
  -28.7262  -18.4236   19.9902 C   0  0  0  0  0  0  0  0  0  0  0  0
  -29.1791  -20.6783   20.7304 C   0  0  0  0  0  0  0  0  0  0  0  0
  -29.1939  -17.9299   21.2080 C   0  0  0  0  0  0  0  0  0  0  0  0
  -29.6467  -20.1846   21.9482 C   0  0  0  0  0  0  0  0  0  0  0  0
  -22.2978   -8.2234   21.1999 C   0  0  0  0  0  0  0  0  0  0  0  0
  -27.3340  -27.6578   19.9176 C   0  0  0  0  0  0  0  0  0  0  0  0
  -21.0703   -6.3154   20.5873 C   0  0  0  0  0  0  0  0  0  0  0  0
  -20.6955   -4.1646   18.8506 C   0  0  0  0  0  0  0  0  0  0  0  0
  -21.1159   -5.0093   21.0747 C   0  0  0  0  0  0  0  0  0  0  0  0
  -25.5369  -10.8332   20.4285 C   0  0  0  0  0  0  0  0  0  0  0  0
  -27.0151  -12.1472   19.4678 C   0  0  0  0  0  0  0  0  0  0  0  0
  -25.3316  -11.1867   17.8893 C   0  0  0  0  0  0  0  0  0  0  0  0
  -25.1241  -32.2025   21.8991 C   0  0  0  0  0  0  0  0  0  0  0  0
  -22.5269  -30.4503   22.7396 C   0  0  0  0  0  0  0  0  0  0  0  0
  -21.0021  -27.3990   22.8484 C   0  0  0  0  0  0  0  0  0  0  0  0
  -29.6412  -15.9009   22.6327 C   0  0  0  0  0  0  0  0  0  0  0  0
  -24.8802  -37.2058   22.8814 C   0  0  0  0  0  0  0  0  0  0  0  0
  -24.6164  -30.9911   19.7472 C   0  0  0  0  0  0  0  0  0  0  0  0
  -24.5894  -29.1609   22.0697 C   0  0  0  0  0  0  0  0  0  0  0  0
  -24.3440  -35.9367   23.5388 C   0  0  0  0  0  0  0  0  0  0  0  0
  -29.8008  -12.5015   23.6793 C   0  0  0  0  0  0  0  0  0  0  0  0
  -25.4545  -34.9012   23.6851 C   0  0  0  0  0  0  0  0  0  0  0  0
  -28.7370  -11.8087   22.8245 C   0  0  0  0  0  0  0  0  0  0  0  0
  -29.9007  -24.2310   20.0616 C   0  0  0  0  0  0  0  0  0  0  0  0
  -29.3695  -13.9078   24.0916 C   0  0  0  0  0  0  0  0  0  0  0  0
  -30.2713  -22.7628   19.8633 C   0  0  0  0  0  0  0  0  0  0  0  0
  -28.0400  -22.9134   20.7885 C   0  0  0  0  0  0  0  0  0  0  0  0
  -27.8891  -14.0860   22.1305 C   0  0  0  0  0  0  0  0  0  0  0  0
  -26.0093  -34.4902   22.3159 C   0  0  1  0  0  0  0  0  0  0  0  0
  -24.1000  -31.4340   21.1127 C   0  0  1  0  0  0  0  0  0  0  0  0
  -28.3750  -24.2109   20.0443 C   0  0  1  0  0  0  0  0  0  0  0  0
  -28.3061  -12.6911   21.6366 C   0  0  2  0  0  0  0  0  0  0  0  0
  -28.2270  -17.5035   18.9236 C   0  0  0  0  0  0  0  0  0  0  0  0
  -18.8988  -26.2747   23.6289 C   0  0  0  0  0  0  0  0  0  0  0  0
  -23.5353  -30.5666   25.6170 C   0  0  0  0  0  0  0  0  0  0  0  0
  -21.9751  -28.6871   26.1662 C   0  0  0  0  0  0  0  0  0  0  0  0
  -21.0654  -30.8671   25.3643 C   0  0  0  0  0  0  0  0  0  0  0  0
  -20.2944  -26.5576   20.1007 C   0  0  0  0  0  0  0  0  0  0  0  0
  -27.7525  -25.4433   20.6769 C   0  0  0  0  0  0  0  0  0  1  0  0
  -22.2580  -29.3466   23.7339 C   0  0  1  0  0  0  0  0  0  0  0  0
  -19.6003  -26.9593   22.4662 C   0  0  2  0  0  0  0  0  0  0  0  0
  -22.2279  -29.8639   25.1998 C   0  0  0  0  0  0  0  0  0  0  0  0
  -26.3283  -11.2330   21.4274 N   0  0  0  0  0  0  0  0  0  0  0  0
  -27.2173  -12.0307   20.8116 N   0  0  0  0  0  0  0  0  0  0  0  0
  -29.1633  -22.0330   20.4743 N   0  0  3  0  0  0  0  0  0  0  0  0
  -23.6759  -30.3090   21.9486 N   0  0  0  0  0  0  0  0  0  0  0  0
  -28.9795  -14.6870   22.9145 N   0  0  0  0  0  0  0  0  0  0  0  0
  -30.1167  -21.0590   22.9537 N   0  0  0  0  0  0  0  0  0  0  0  0
  -27.8173  -12.9107   18.6959 N   0  0  0  0  0  0  0  0  0  0  0  0
  -24.2078  -10.3569   17.7765 N   0  0  0  0  0  0  0  0  0  0  0  0
  -29.2077  -16.5374   21.4701 N   0  0  0  0  0  0  0  0  0  0  0  0
  -25.1091  -33.5639   21.6631 N   0  0  0  0  0  0  0  0  0  0  0  0
  -21.0229  -28.7007   23.3027 N   0  0  0  0  0  0  0  0  0  0  0  0
  -19.6504  -26.0070   21.3209 N   0  3  0  0  0  0  0  0  0  0  0  0
  -25.8009  -11.7280   16.8596 O   0  0  0  0  0  0  0  0  0  0  0  0
  -25.8715  -31.6047   22.6644 O   0  0  0  0  0  0  0  0  0  0  0  0
  -21.7424  -31.3991   22.6625 O   0  0  0  0  0  0  0  0  0  0  0  0
  -21.9801  -26.6604   22.7568 O   0  0  0  0  0  0  0  0  0  0  0  0
  -30.5458  -16.3295   23.3537 O   0  0  0  0  0  0  0  0  0  0  0  0
  -21.2553   -7.3842   21.4482 O   0  0  0  0  0  0  0  0  0  0  0  0
  -28.1903  -26.6014   19.9673 O   0  0  0  0  0  0  0  0  0  1  0  0
  -20.5141   -3.1320   18.0170 F   0  0  0  0  0  0  0  0  0  0  0  0
  -21.3382   -4.7815   22.3765 F   0  0  0  0  0  0  0  0  0  0  0  0
  1  2  1  0  0  0  0
  1  5  2  0  0  0  0
  2  6  2  0  0  0  0
  3  8  2  0  0  0  0
  3 17  1  0  0  0  0
  4  9  1  0  0  0  0
  4 17  2  0  0  0  0
  5 19  1  0  0  0  0
  6 21  1  0  0  0  0
  7 10  2  0  0  0  0
  7 20  1  0  0  0  0
  8 27  1  0  0  0  0
  9 27  2  0  0  0  0
 10 28  1  0  0  0  0
 11 12  2  0  0  0  0
 11 29  1  0  0  0  0
 12 30  1  0  0  0  0
 13 22  1  0  0  0  0
 13 28  2  0  0  0  0
 14 23  2  0  0  0  0
 14 24  1  0  0  0  0
 15 25  2  0  0  0  0
 15 26  1  0  0  0  0
 16 30  2  0  0  0  0
 16 31  1  0  0  0  0
 17 32  1  0  0  0  0
 18 32  1  0  0  0  0
 18 33  2  0  0  0  0
 18 34  1  0  0  0  0
 19 21  2  0  0  0  0
 19 39  1  0  0  0  0
 20 22  2  0  0  0  0
 20 40  1  0  0  0  0
 21 51  1  0  0  0  0
 22 41  1  0  0  0  0
 23 25  1  0  0  0  0
 23 55  1  0  0  0  0
 24 26  2  0  0  0  0
 24 67  1  0  0  0  0
 25 73  1  0  0  0  0
 26 70  1  0  0  0  0
 27 82  1  0  0  0  0
 28 83  1  0  0  0  0
 29 31  2  0  0  0  0
 29 82  1  0  0  0  0
 30 84  1  0  0  0  0
 31 85  1  0  0  0  0
 32 65  2  0  0  0  0
 33 66  1  0  0  0  0
 33 71  1  0  0  0  0
 34 72  1  0  0  0  0
 34 77  2  0  0  0  0
 35 52  1  0  0  0  0
 35 74  1  0  0  0  0
 35 78  2  0  0  0  0
 36 62  1  0  0  0  0
 36 68  1  0  0  0  0
 36 79  2  0  0  0  0
 37 63  1  0  0  0  0
 37 75  1  0  0  0  0
 37 80  2  0  0  0  0
 38 69  1  0  0  0  0
 38 73  1  0  0  0  0
 38 81  2  0  0  0  0
 39 42  1  0  0  0  0
 40 52  1  0  0  0  0
 41 68  1  0  0  0  0
 42 44  1  0  0  0  0
 43 45  1  0  0  0  0
 43 47  1  0  0  0  0
 44 51  1  0  0  0  0
 45 54  1  0  0  0  0
 46 48  1  0  0  0  0
 46 53  1  0  0  0  0
 47 69  1  0  0  0  0
 48 67  1  0  0  0  0
 49 53  1  0  0  0  0
 49 67  1  0  0  0  0
 50 54  1  0  0  0  0
 50 69  1  0  0  0  0
 51 74  1  0  0  0  0
 52 68  1  0  0  0  0
 53 61  1  0  0  0  0
 54 66  1  0  0  0  0
 56 63  1  0  0  0  0
 57 64  1  0  0  0  0
 58 64  1  0  0  0  0
 59 64  1  0  0  0  0
 60 76  1  0  0  0  0
 61 83  1  0  0  0  0
 62 64  1  0  0  0  0
 62 75  1  0  0  0  0
 63 76  1  0  0  0  0
 65 66  1  0  0  0  0
M  CHG  1  76   1
M  ISO  4  38 100  61 101  73 100  83 101
M  END
> <Batch ID>
0100

> <Smiles>
CNC(C)C(=O)NC(C(=O)N1Cc2cc([101O:1][101CH2:1]C3CCN(c4cc(C)c([100NH:0][100C:0](=O)N5CCCC(n6nc(-c7ccc(Oc8ccc(F)cc8F)cc7)c(C(N)=O)c6N)C5)cc4N)C3)ccc2CC1C(=O)NC1CCCc2ccccc21)C(C)(C)C

> <Shape>
0.314

> <Color>
0.091

> <Negative vol penalty>
0.000

$$$$

  -OEChem-04052300573D

 84 92  0     1  0  0  0  0  0999 V2000
  -19.2624  -29.3080   20.1584 C   0  0  0  0  0  0  0  0  0  0  0  0
  -19.7499  -28.4519   19.1761 C   0  0  0  0  0  0  0  0  0  0  0  0
  -23.2772   -9.8406   19.8934 C   0  0  0  0  0  0  0  0  0  0  0  0
  -23.6930   -9.9577   22.2705 C   0  0  0  0  0  0  0  0  0  0  0  0
  -28.2194  -18.5780   15.2490 C   0  0  0  0  0  0  0  0  0  0  0  0
  -20.1487  -29.9692   21.0076 C   0  0  0  0  0  0  0  0  0  0  0  0
  -21.1241  -28.2574   19.0418 C   0  0  0  0  0  0  0  0  0  0  0  0
  -22.3469  -23.3791   18.4481 C   0  0  0  0  0  0  0  0  0  0  0  0
  -27.1104  -19.3107   14.8259 C   0  0  0  0  0  0  0  0  0  0  0  0
  -22.5281   -8.6792   20.0816 C   0  0  0  0  0  0  0  0  0  0  0  0
  -22.9438   -8.7962   22.4587 C   0  0  0  0  0  0  0  0  0  0  0  0
  -22.1520  -22.8231   17.1845 C   0  0  0  0  0  0  0  0  0  0  0  0
  -20.8058   -5.4819   19.8948 C   0  0  0  0  0  0  0  0  0  0  0  0
  -21.0264   -4.4174   19.0209 C   0  0  0  0  0  0  0  0  0  0  0  0
  -24.5028  -23.0873   16.7122 C   0  0  0  0  0  0  0  0  0  0  0  0
  -25.7915  -18.3403   16.6024 C   0  0  0  0  0  0  0  0  0  0  0  0
  -23.3375   -4.3235   19.7187 C   0  0  0  0  0  0  0  0  0  0  0  0
  -23.8597  -10.4799   20.9878 C   0  0  0  0  0  0  0  0  0  0  0  0
  -28.1144  -17.7264   16.3488 C   0  0  0  0  0  0  0  0  0  0  0  0
  -24.1646  -13.0064   20.8110 C   0  0  0  0  0  0  0  0  0  0  0  0
  -21.5340  -29.7753   20.8899 C   0  0  0  0  0  0  0  0  0  0  0  0
  -23.6214  -23.8042   18.8498 C   0  0  0  0  0  0  0  0  0  0  0  0
  -22.0299  -28.9177   19.8893 C   0  0  0  0  0  0  0  0  0  0  0  0
  -24.7117  -23.6461   17.9824 C   0  0  0  0  0  0  0  0  0  0  0  0
  -25.8965  -19.1919   15.5026 C   0  0  0  0  0  0  0  0  0  0  0  0
  -22.3614   -8.1570   21.3642 C   0  0  0  0  0  0  0  0  0  0  0  0
  -23.2295  -22.6798   16.3153 C   0  0  0  0  0  0  0  0  0  0  0  0
  -21.8511   -5.9673   20.6806 C   0  0  0  0  0  0  0  0  0  0  0  0
  -22.2922   -3.8382   18.9328 C   0  0  0  0  0  0  0  0  0  0  0  0
  -26.9004  -17.6076   17.0255 C   0  0  0  0  0  0  0  0  0  0  0  0
  -23.1169   -5.3881   20.5925 C   0  0  0  0  0  0  0  0  0  0  0  0
  -24.6341  -11.6794   20.7940 C   0  0  0  0  0  0  0  0  0  0  0  0
  -25.2828  -13.7693   20.5787 C   0  0  0  0  0  0  0  0  0  0  0  0
  -29.2979  -16.9475   16.7955 C   0  0  0  0  0  0  0  0  0  0  0  0
  -22.8364  -13.5049   21.0183 C   0  0  0  0  0  0  0  0  0  0  0  0
  -24.8951  -26.5933   19.6878 C   0  0  0  0  0  0  0  0  0  0  0  0
  -27.4866  -24.7638   20.3655 C   0  0  0  0  0  0  0  0  0  0  0  0
  -29.2196  -21.8765   19.8114 C   0  0  0  0  0  0  0  0  0  0  0  0
  -29.9880  -14.8163   17.8468 C   0  0  0  0  0  0  0  0  0  0  0  0
  -22.4552  -30.5484   21.8000 C   0  0  0  0  0  0  0  0  0  0  0  0
  -23.8199  -24.3774   20.2261 C   0  0  0  0  0  0  0  0  0  0  0  0
  -26.1037  -24.0679   18.3733 C   0  0  0  0  0  0  0  0  0  0  0  0
  -23.8788  -29.9986   21.8355 C   0  0  0  0  0  0  0  0  0  0  0  0
  -30.1852  -12.4980   20.5083 C   0  0  0  0  0  0  0  0  0  0  0  0
  -24.3790  -29.7202   20.4216 C   0  0  0  0  0  0  0  0  0  0  0  0
  -28.7198  -12.1912   20.8292 C   0  0  0  0  0  0  0  0  0  0  0  0
  -30.4138  -12.6672   19.0069 C   0  0  0  0  0  0  0  0  0  0  0  0
  -28.0659  -13.3228   18.6669 C   0  0  0  0  0  0  0  0  0  0  0  0
  -23.5126  -28.6616   19.7285 C   0  0  1  0  0  0  0  0  0  0  0  0
  -25.0672  -25.2489   20.3363 C   0  0  1  0  0  0  0  0  0  0  0  0
  -27.7708  -13.2131   20.1715 C   0  0  1  0  0  0  0  0  0  0  0  0
  -31.3215  -20.6809   20.4823 C   0  0  0  0  0  0  0  0  0  0  0  0
  -22.3572  -20.4385   13.5608 C   0  0  0  0  0  0  0  0  0  0  0  0
  -29.1142  -26.6299   18.5827 C   0  0  0  0  0  0  0  0  0  0  0  0
  -30.9142  -24.8907   18.5242 C   0  0  0  0  0  0  0  0  0  0  0  0
  -30.2638  -25.9376   20.6930 C   0  0  0  0  0  0  0  0  0  0  0  0
  -27.7028  -19.5927   20.9261 C   0  0  0  0  0  0  0  0  0  0  0  0
  -23.5019  -19.8568   15.7246 C   0  0  0  0  0  0  0  0  0  0  0  0
  -28.6933  -24.2908   19.5914 C   0  0  1  0  0  0  0  0  0  0  0  0
  -29.8405  -20.8749   20.7683 C   0  0  2  0  0  0  0  0  0  0  0  0
  -22.5309  -20.8067   15.0271 C   0  0  1  0  0  0  0  0  0  1  0  0
  -29.7199  -25.4310   19.3394 C   0  0  0  0  0  0  0  0  0  0  0  0
  -25.9483  -11.6003   20.5685 N   0  0  0  0  0  0  0  0  0  0  0  0
  -26.3140  -12.8872   20.4416 N   0  0  0  0  0  0  0  0  0  0  0  0
  -26.2456  -24.6287   19.7271 N   0  0  0  0  0  0  0  0  0  0  0  0
  -29.4832  -13.6577   18.4626 N   0  0  0  0  0  0  0  0  0  0  0  0
  -25.4749  -15.1019   20.4802 N   0  0  0  0  0  0  0  0  0  0  0  0
  -21.8045  -12.5836   21.2434 N   0  0  0  0  0  0  0  0  0  0  0  0
  -24.7954  -19.9193   15.0828 N   0  0  0  0  0  0  0  0  0  0  0  0
  -29.0189  -15.7204   17.3978 N   0  0  0  0  0  0  0  0  0  0  0  0
  -23.8529  -27.3384   20.2057 N   0  0  0  0  0  0  0  0  0  0  0  0
  -29.2322  -23.1540   20.3301 N   0  0  0  0  0  0  0  0  0  0  0  0
  -29.1616  -19.5537   20.6478 N   0  3  0  0  0  0  0  0  0  0  0  0
  -30.4222  -17.3927   16.5816 O   0  0  0  0  0  0  0  0  0  0  0  0
  -22.5696  -14.7303   20.9880 O   0  0  0  0  0  0  0  0  0  0  0  0
  -25.6526  -26.9303   18.7855 O   0  0  0  0  0  0  0  0  0  0  0  0
  -27.6387  -25.2291   21.4977 O   0  0  0  0  0  0  0  0  0  0  0  0
  -28.7718  -21.5580   18.7120 O   0  0  0  0  0  0  0  0  0  0  0  0
  -31.1971  -15.0445   17.7400 O   0  0  0  0  0  0  0  0  0  0  0  0
  -21.6303   -7.0238   21.5483 O   0  0  0  0  0  0  0  0  0  0  0  0
  -23.0419  -22.1379   15.0811 O   0  0  0  0  0  0  0  0  0  1  0  0
  -22.5035   -2.8149   18.0947 F   0  0  0  0  0  0  0  0  0  0  0  0
  -26.7879  -16.7902   18.0821 F   0  0  0  0  0  0  0  0  0  0  0  0
  -24.1247   -5.8493   21.3458 F   0  0  0  0  0  0  0  0  0  0  0  0
  1  2  1  0  0  0  0
  1  6  2  0  0  0  0
  2  7  2  0  0  0  0
  3 10  2  0  0  0  0
  3 18  1  0  0  0  0
  4 11  1  0  0  0  0
  4 18  2  0  0  0  0
  5  9  2  0  0  0  0
  5 19  1  0  0  0  0
  6 21  1  0  0  0  0
  7 23  1  0  0  0  0
  8 12  2  0  0  0  0
  8 22  1  0  0  0  0
  9 25  1  0  0  0  0
 10 26  1  0  0  0  0
 11 26  2  0  0  0  0
 12 27  1  0  0  0  0
 13 14  2  0  0  0  0
 13 28  1  0  0  0  0
 14 29  1  0  0  0  0
 15 24  1  0  0  0  0
 15 27  2  0  0  0  0
 16 25  2  0  0  0  0
 16 30  1  0  0  0  0
 17 29  2  0  0  0  0
 17 31  1  0  0  0  0
 18 32  1  0  0  0  0
 19 30  2  0  0  0  0
 19 34  1  0  0  0  0
 20 32  1  0  0  0  0
 20 33  2  0  0  0  0
 20 35  1  0  0  0  0
 21 23  2  0  0  0  0
 21 40  1  0  0  0  0
 22 24  2  0  0  0  0
 22 41  1  0  0  0  0
 23 49  1  0  0  0  0
 24 42  1  0  0  0  0
 25 69  1  0  0  0  0
 26 80  1  0  0  0  0
 27 81  1  0  0  0  0
 28 31  2  0  0  0  0
 28 80  1  0  0  0  0
 29 82  1  0  0  0  0
 30 83  1  0  0  0  0
 31 84  1  0  0  0  0
 32 63  2  0  0  0  0
 33 64  1  0  0  0  0
 33 67  1  0  0  0  0
 34 70  1  0  0  0  0
 34 74  2  0  0  0  0
 35 68  1  0  0  0  0
 35 75  2  0  0  0  0
 36 50  1  0  0  0  0
 36 71  1  0  0  0  0
 36 76  2  0  0  0  0
 37 59  1  0  0  0  0
 37 65  1  0  0  0  0
 37 77  2  0  0  0  0
 38 60  1  0  0  0  0
 38 72  1  0  0  0  0
 38 78  2  0  0  0  0
 39 66  1  0  0  0  0
 39 70  1  0  0  0  0
 39 79  2  0  0  0  0
 40 43  1  0  0  0  0
 41 50  1  0  0  0  0
 42 65  1  0  0  0  0
 43 45  1  0  0  0  0
 44 46  1  0  0  0  0
 44 47  1  0  0  0  0
 45 49  1  0  0  0  0
 46 51  1  0  0  0  0
 47 66  1  0  0  0  0
 48 51  1  0  0  0  0
 48 66  1  0  0  0  0
 49 71  1  0  0  0  0
 50 65  1  0  0  0  0
 51 64  1  0  0  0  0
 52 60  1  0  0  0  0
 53 61  1  0  0  0  0
 54 62  1  0  0  0  0
 55 62  1  0  0  0  0
 56 62  1  0  0  0  0
 57 73  1  0  0  0  0
 58 61  1  0  0  0  0
 58 69  1  0  0  0  0
 59 62  1  0  0  0  0
 59 72  1  0  0  0  0
 60 73  1  0  0  0  0
 61 81  1  0  0  0  0
 63 64  1  0  0  0  0
M  CHG  1  73   1
M  ISO  4  39 100  61 101  70 100  81 101
M  END
> <Batch ID>
0100

> <Smiles>
CNC(C)C(=O)NC(C(=O)N1Cc2cc([101O:1][101CH:1](C)CNc3ccc(C(=O)[100NH:0][100C:0](=O)N4CCCC(n5nc(-c6ccc(Oc7ccc(F)cc7F)cc6)c(C(N)=O)c5N)C4)c(F)c3)ccc2CC1C(=O)NC1CCCc2ccccc21)C(C)(C)C

> <Shape>
0.241

> <Color>
0.177

> <Negative vol penalty>
0.000

$$$$

  -OEChem-04052300573D

 86 94  0     1  0  0  0  0  0999 V2000
  -34.0369  -27.0418   16.0122 C   0  0  0  0  0  0  0  0  0  0  0  0
  -32.7399  -27.3698   16.3938 C   0  0  0  0  0  0  0  0  0  0  0  0
  -23.8448  -13.6773   22.5669 C   0  0  0  0  0  0  0  0  0  0  0  0
  -24.8997  -15.2432   21.0595 C   0  0  0  0  0  0  0  0  0  0  0  0
  -19.4212  -25.5820   21.6337 C   0  0  0  0  0  0  0  0  0  0  0  0
  -34.4513  -25.7107   16.0280 C   0  0  0  0  0  0  0  0  0  0  0  0
  -31.8561  -26.3667   16.7902 C   0  0  0  0  0  0  0  0  0  0  0  0
  -29.2661  -27.5975   20.9641 C   0  0  0  0  0  0  0  0  0  0  0  0
  -19.2150  -24.2064   21.7368 C   0  0  0  0  0  0  0  0  0  0  0  0
  -24.5534  -12.6312   21.9762 C   0  0  0  0  0  0  0  0  0  0  0  0
  -25.6084  -14.1970   20.4688 C   0  0  0  0  0  0  0  0  0  0  0  0
  -28.1921  -28.4734   20.8119 C   0  0  0  0  0  0  0  0  0  0  0  0
  -28.3428  -12.3373   21.1650 C   0  0  0  0  0  0  0  0  0  0  0  0
  -29.7020  -12.5338   20.9207 C   0  0  0  0  0  0  0  0  0  0  0  0
  -21.3969  -25.3891   23.0108 C   0  0  0  0  0  0  0  0  0  0  0  0
  -26.6680  -26.6043   20.8643 C   0  0  0  0  0  0  0  0  0  0  0  0
  -29.3280  -12.1851   18.5594 C   0  0  0  0  0  0  0  0  0  0  0  0
  -24.0179  -14.9833   22.1086 C   0  0  0  0  0  0  0  0  0  0  0  0
  -20.5122  -26.1734   22.2706 C   0  0  0  0  0  0  0  0  0  0  0  0
  -23.6866  -16.8505   23.8149 C   0  0  0  0  0  0  0  0  0  0  0  0
  -33.5752  -24.6917   16.4341 C   0  0  0  0  0  0  0  0  0  0  0  0
  -29.0495  -26.2152   21.0568 C   0  0  0  0  0  0  0  0  0  0  0  0
  -32.2589  -25.0205   16.8101 C   0  0  0  0  0  0  0  0  0  0  0  0
  -27.7407  -25.7132   21.0203 C   0  0  0  0  0  0  0  0  0  0  0  0
  -20.0997  -23.4221   22.4769 C   0  0  0  0  0  0  0  0  0  0  0  0
  -25.4352  -12.8910   20.9271 C   0  0  0  0  0  0  0  0  0  0  0  0
  -26.8931  -27.9767   20.7591 C   0  0  0  0  0  0  0  0  0  0  0  0
  -27.4762  -12.0645   20.1065 C   0  0  0  0  0  0  0  0  0  0  0  0
  -30.1946  -12.4577   19.6179 C   0  0  0  0  0  0  0  0  0  0  0  0
  -21.1907  -24.0134   23.1140 C   0  0  0  0  0  0  0  0  0  0  0  0
  -27.9688  -11.9885   18.8037 C   0  0  0  0  0  0  0  0  0  0  0  0
  -23.2857  -16.0644   22.7180 C   0  0  0  0  0  0  0  0  0  0  0  0
  -22.6498  -17.7315   24.0030 C   0  0  0  0  0  0  0  0  0  0  0  0
  -20.7317  -27.6386   22.1609 C   0  0  0  0  0  0  0  0  0  0  0  0
  -24.8887  -16.7899   24.5940 C   0  0  0  0  0  0  0  0  0  0  0  0
  -29.8975  -23.6905   19.3217 C   0  0  0  0  0  0  0  0  0  0  0  0
  -23.7880  -29.6586   21.5834 C   0  0  0  0  0  0  0  0  0  0  0  0
  -28.5299  -22.0445   21.7595 C   0  0  0  0  0  0  0  0  0  0  0  0
  -26.3082  -22.0173   24.3499 C   0  0  0  0  0  0  0  0  0  0  0  0
  -18.8533  -21.2833   22.0094 C   0  0  0  0  0  0  0  0  0  0  0  0
  -34.0540  -23.2622   16.3894 C   0  0  0  0  0  0  0  0  0  0  0  0
  -30.2167  -25.2858   21.2476 C   0  0  0  0  0  0  0  0  0  0  0  0
  -27.4532  -24.2393   21.1357 C   0  0  0  0  0  0  0  0  0  0  0  0
  -33.1722  -22.2996   17.1807 C   0  0  0  0  0  0  0  0  0  0  0  0
  -18.0027  -17.8259   21.9987 C   0  0  0  0  0  0  0  0  0  0  0  0
  -31.6995  -22.5447   16.8677 C   0  0  0  0  0  0  0  0  0  0  0  0
  -19.3343  -17.1241   22.2751 C   0  0  0  0  0  0  0  0  0  0  0  0
  -18.1847  -19.0617   21.1192 C   0  0  0  0  0  0  0  0  0  0  0  0
  -20.5139  -19.3235   21.8778 C   0  0  0  0  0  0  0  0  0  0  0  0
  -31.2786  -23.9633   17.2701 C   0  0  1  0  0  0  0  0  0  0  0  0
  -29.9172  -23.8538   20.8152 C   0  0  1  0  0  0  0  0  0  0  0  0
  -20.3898  -18.1099   22.8134 C   0  0  2  0  0  0  0  0  0  0  0  0
  -22.3713  -30.0804   23.6150 C   0  0  0  0  0  0  0  0  0  0  0  0
  -25.0959  -21.1501   26.3687 C   0  0  0  0  0  0  0  0  0  0  0  0
  -26.8242  -20.6154   19.6719 C   0  0  0  0  0  0  0  0  0  0  0  0
  -25.3106  -19.8688   21.5211 C   0  0  0  0  0  0  0  0  0  0  0  0
  -27.6963  -19.1406   21.4936 C   0  0  0  0  0  0  0  0  0  0  0  0
  -28.3524  -23.1095   26.1904 C   0  0  0  0  0  0  0  0  0  0  0  0
  -24.6004  -28.4374   21.1916 C   0  0  0  0  0  0  0  0  0  1  0  0
  -22.4157  -29.4595   22.2271 C   0  0  2  0  0  0  0  0  0  0  0  0
  -27.1394  -21.5405   22.0616 C   0  0  1  0  0  0  0  0  0  0  0  0
  -26.4433  -21.5500   25.7879 C   0  0  2  0  0  0  0  0  0  0  0  0
  -26.7479  -20.3190   21.1829 C   0  0  0  0  0  0  0  0  0  0  0  0
  -22.0877  -16.4149   22.2429 N   0  0  0  0  0  0  0  0  0  0  0  0
  -21.7267  -17.4309   23.0450 N   0  0  0  0  0  0  0  0  0  0  0  0
  -28.6282  -23.3705   21.3146 N   0  0  0  0  0  0  0  0  0  0  0  0
  -19.1962  -19.9516   21.6936 N   0  0  0  0  0  0  0  0  0  0  0  0
  -22.4467  -18.7261   24.8929 N   0  0  0  0  0  0  0  0  0  0  0  0
  -25.8500  -15.8245   24.2651 N   0  0  0  0  0  0  0  0  0  0  0  0
  -19.8871  -22.0250   22.5802 N   0  0  0  0  0  0  0  0  0  0  0  0
  -22.0463  -28.0701   22.2861 N   0  0  0  0  0  0  0  0  0  0  0  0
  -31.0804  -24.0448   18.7014 N   0  0  0  0  0  0  0  0  0  0  0  0
  -27.1023  -21.2806   23.4967 N   0  0  0  0  0  0  0  0  0  0  0  0
  -27.0162  -22.6352   26.6336 N   0  3  0  0  0  0  0  0  0  0  0  0
  -19.7664  -28.3788   21.9904 O   0  0  0  0  0  0  0  0  0  0  0  0
  -25.0967  -17.5580   25.5636 O   0  0  0  0  0  0  0  0  0  0  0  0
  -28.8847  -23.2725   18.7729 O   0  0  0  0  0  0  0  0  0  0  0  0
  -24.2008  -30.7961   21.3411 O   0  0  0  0  0  0  0  0  0  0  0  0
  -29.4940  -21.2918   21.9194 O   0  0  0  0  0  0  0  0  0  0  0  0
  -25.5693  -22.9410   24.0163 O   0  0  0  0  0  0  0  0  0  0  0  0
  -17.7179  -21.7247   21.8147 O   0  0  0  0  0  0  0  0  0  0  0  0
  -26.1270  -11.8704   20.3506 O   0  0  0  0  0  0  0  0  0  0  0  0
  -25.8431  -28.8294   20.6099 O   0  0  0  0  0  0  0  0  0  1  0  0
  -31.4995  -12.6480   19.3833 F   0  0  0  0  0  0  0  0  0  0  0  0
  -22.0474  -23.2697   23.8287 F   0  0  0  0  0  0  0  0  0  0  0  0
  -27.1410  -11.7280   17.7826 F   0  0  0  0  0  0  0  0  0  0  0  0
  1  2  1  0  0  0  0
  1  6  2  0  0  0  0
  2  7  2  0  0  0  0
  3 10  2  0  0  0  0
  3 18  1  0  0  0  0
  4 11  1  0  0  0  0
  4 18  2  0  0  0  0
  5  9  2  0  0  0  0
  5 19  1  0  0  0  0
  6 21  1  0  0  0  0
  7 23  1  0  0  0  0
  8 12  2  0  0  0  0
  8 22  1  0  0  0  0
  9 25  1  0  0  0  0
 10 26  1  0  0  0  0
 11 26  2  0  0  0  0
 12 27  1  0  0  0  0
 13 14  2  0  0  0  0
 13 28  1  0  0  0  0
 14 29  1  0  0  0  0
 15 19  2  0  0  0  0
 15 30  1  0  0  0  0
 16 24  1  0  0  0  0
 16 27  2  0  0  0  0
 17 29  2  0  0  0  0
 17 31  1  0  0  0  0
 18 32  1  0  0  0  0
 19 34  1  0  0  0  0
 20 32  1  0  0  0  0
 20 33  2  0  0  0  0
 20 35  1  0  0  0  0
 21 23  2  0  0  0  0
 21 41  1  0  0  0  0
 22 24  2  0  0  0  0
 22 42  1  0  0  0  0
 23 50  1  0  0  0  0
 24 43  1  0  0  0  0
 25 30  2  0  0  0  0
 25 70  1  0  0  0  0
 26 82  1  0  0  0  0
 27 83  1  0  0  0  0
 28 31  2  0  0  0  0
 28 82  1  0  0  0  0
 29 84  1  0  0  0  0
 30 85  1  0  0  0  0
 31 86  1  0  0  0  0
 32 64  2  0  0  0  0
 33 65  1  0  0  0  0
 33 68  1  0  0  0  0
 34 71  1  0  0  0  0
 34 75  2  0  0  0  0
 35 69  1  0  0  0  0
 35 76  2  0  0  0  0
 36 51  1  0  0  0  0
 36 72  1  0  0  0  0
 36 77  2  0  0  0  0
 37 59  1  0  0  0  0
 37 60  1  0  0  0  0
 37 78  2  0  0  0  0
 38 61  1  0  0  0  0
 38 66  1  0  0  0  0
 38 79  2  0  0  0  0
 39 62  1  0  0  0  0
 39 73  1  0  0  0  0
 39 80  2  0  0  0  0
 40 67  1  0  0  0  0
 40 70  1  0  0  0  0
 40 81  2  0  0  0  0
 41 44  1  0  0  0  0
 42 51  1  0  0  0  0
 43 66  1  0  0  0  0
 44 46  1  0  0  0  0
 45 47  1  0  0  0  0
 45 48  1  0  0  0  0
 46 50  1  0  0  0  0
 47 52  1  0  0  0  0
 48 67  1  0  0  0  0
 49 52  1  0  0  0  0
 49 67  1  0  0  0  0
 50 72  1  0  0  0  0
 51 66  1  0  0  0  0
 52 65  1  0  0  0  0
 53 60  1  0  0  0  0
 54 62  1  0  0  0  0
 55 63  1  0  0  0  0
 56 63  1  0  0  0  0
 57 63  1  0  0  0  0
 58 74  1  0  0  0  0
 59 83  1  0  0  0  0
 60 71  1  0  0  0  0
 61 63  1  0  0  0  0
 61 73  1  0  0  0  0
 62 74  1  0  0  0  0
 64 65  1  0  0  0  0
M  CHG  1  74   1
M  ISO  4  40 100  59 101  70 100  83 101
M  END
> <Batch ID>
0100

> <Smiles>
CNC(C)C(=O)NC(C(=O)N1Cc2cc([101O:1][101CH2:1]C(=O)C(C)NC(=O)c3ccc([100NH:0][100C:0](=O)N4CCCC(n5nc(-c6ccc(Oc7ccc(F)cc7F)cc6)c(C(N)=O)c5N)C4)c(F)c3)ccc2CC1C(=O)NC1CCCc2ccccc21)C(C)(C)C

> <Shape>
0.214

> <Color>
0.049

> <Negative vol penalty>
0.000

$$$$

  -OEChem-04052300573D

 87 95  0     1  0  0  0  0  0999 V2000
  -23.4063  -18.9995   39.1507 C   0  0  0  0  0  0  0  0  0  0  0  0
  -23.9145  -19.6171   38.0124 C   0  0  0  0  0  0  0  0  0  0  0  0
  -23.0748   -9.8688   19.9401 C   0  0  0  0  0  0  0  0  0  0  0  0
  -23.8346   -9.8745   22.2335 C   0  0  0  0  0  0  0  0  0  0  0  0
  -23.8082  -17.7053   39.4785 C   0  0  0  0  0  0  0  0  0  0  0  0
  -24.8259  -18.9413   37.2018 C   0  0  0  0  0  0  0  0  0  0  0  0
  -26.7988  -18.3073   30.3446 C   0  0  0  0  0  0  0  0  0  0  0  0
  -22.3305   -8.7159   20.1895 C   0  0  0  0  0  0  0  0  0  0  0  0
  -23.0901   -8.7216   22.4830 C   0  0  0  0  0  0  0  0  0  0  0  0
  -27.9359  -18.3725   29.5405 C   0  0  0  0  0  0  0  0  0  0  0  0
  -19.8616   -7.9249   23.0850 C   0  0  0  0  0  0  0  0  0  0  0  0
  -19.1046   -7.8848   24.2558 C   0  0  0  0  0  0  0  0  0  0  0  0
  -28.4977  -16.1104   30.1623 C   0  0  0  0  0  0  0  0  0  0  0  0
  -32.0646  -16.6058   22.5524 C   0  0  0  0  0  0  0  0  0  0  0  0
  -29.8804  -17.4539   23.1414 C   0  0  0  0  0  0  0  0  0  0  0  0
  -20.3451   -5.9466   24.9916 C   0  0  0  0  0  0  0  0  0  0  0  0
  -23.8270  -10.4481   20.9621 C   0  0  0  0  0  0  0  0  0  0  0  0
  -24.1699  -12.9732   20.8431 C   0  0  0  0  0  0  0  0  0  0  0  0
  -24.7176  -17.0096   38.6663 C   0  0  0  0  0  0  0  0  0  0  0  0
  -26.5079  -17.1451   31.0732 C   0  0  0  0  0  0  0  0  0  0  0  0
  -25.2414  -17.6371   37.5198 C   0  0  0  0  0  0  0  0  0  0  0  0
  -27.3549  -16.0321   30.9728 C   0  0  0  0  0  0  0  0  0  0  0  0
  -30.6789  -16.5882   22.3940 C   0  0  0  0  0  0  0  0  0  0  0  0
  -32.6519  -17.4891   23.4583 C   0  0  0  0  0  0  0  0  0  0  0  0
  -31.8534  -18.3548   24.2057 C   0  0  0  0  0  0  0  0  0  0  0  0
  -22.3381   -8.1423   21.4610 C   0  0  0  0  0  0  0  0  0  0  0  0
  -28.7871  -17.2749   29.4515 C   0  0  0  0  0  0  0  0  0  0  0  0
  -20.8604   -6.9758   22.8674 C   0  0  0  0  0  0  0  0  0  0  0  0
  -19.3463   -6.8957   25.2091 C   0  0  0  0  0  0  0  0  0  0  0  0
  -30.4677  -18.3372   24.0473 C   0  0  0  0  0  0  0  0  0  0  0  0
  -21.1021   -5.9866   23.8207 C   0  0  0  0  0  0  0  0  0  0  0  0
  -24.5966  -11.6388   20.7049 C   0  0  0  0  0  0  0  0  0  0  0  0
  -25.2624  -13.7223   20.4802 C   0  0  0  0  0  0  0  0  0  0  0  0
  -22.8996  -13.4894   21.2621 C   0  0  0  0  0  0  0  0  0  0  0  0
  -26.2175  -16.4471   34.1607 C   0  0  0  0  0  0  0  0  0  0  0  0
  -31.3907  -18.4582   27.1240 C   0  0  0  0  0  0  0  0  0  0  0  0
  -25.2734  -13.5610   33.0196 C   0  0  0  0  0  0  0  0  0  0  0  0
  -25.3301  -11.2947   30.4687 C   0  0  0  0  0  0  0  0  0  0  0  0
  -30.7290  -14.7655   20.6557 C   0  0  0  0  0  0  0  0  0  0  0  0
  -25.1587  -15.6301   39.0870 C   0  0  0  0  0  0  0  0  0  0  0  0
  -25.2631  -17.0814   31.9151 C   0  0  0  0  0  0  0  0  0  0  0  0
  -27.0765  -14.7538   31.7190 C   0  0  0  0  0  0  0  0  0  0  0  0
  -25.8414  -14.8424   37.9719 C   0  0  0  0  0  0  0  0  0  0  0  0
  -29.6137  -12.3531   18.2864 C   0  0  0  0  0  0  0  0  0  0  0  0
  -26.8744  -15.7104   37.2603 C   0  0  0  0  0  0  0  0  0  0  0  0
  -28.1739  -12.0620   18.7157 C   0  0  0  0  0  0  0  0  0  0  0  0
  -30.5288  -12.5811   19.4882 C   0  0  0  0  0  0  0  0  0  0  0  0
  -28.6221  -13.3058   20.8696 C   0  0  0  0  0  0  0  0  0  0  0  0
  -26.2130  -16.9273   36.6020 C   0  0  1  0  0  0  0  0  0  0  0  0
  -25.3393  -16.0279   33.0158 C   0  0  1  0  0  0  0  0  0  0  0  0
  -27.6493  -13.1334   19.6916 C   0  0  2  0  0  0  0  0  0  0  0  0
  -33.5966  -22.9797   27.2905 C   0  0  0  0  0  0  0  0  0  0  0  0
  -24.4975   -9.0114   29.8434 C   0  0  0  0  0  0  0  0  0  0  0  0
  -27.3994  -12.2988   34.8075 C   0  0  0  0  0  0  0  0  0  0  0  0
  -27.1787  -10.1959   33.4669 C   0  0  0  0  0  0  0  0  0  0  0  0
  -25.2231  -11.0682   34.7463 C   0  0  0  0  0  0  0  0  0  0  0  0
  -23.7873  -12.3576   28.1777 C   0  0  0  0  0  0  0  0  0  0  0  0
  -30.1305  -18.5558   27.9647 C   0  0  0  0  0  0  0  0  0  1  0  0
  -32.6655  -22.0625   26.5129 C   0  0  0  0  0  0  0  0  0  0  0  0
  -32.6631  -20.6456   27.0938 C   0  0  0  0  0  0  0  0  0  0  0  0
  -31.7543  -19.6934   26.3090 C   0  0  1  0  0  0  0  0  0  0  0  0
  -25.9739  -12.2744   32.6550 C   0  0  1  0  0  0  0  0  0  0  0  0
  -24.2203  -10.5060   29.7971 C   0  0  2  0  0  0  0  0  0  0  0  0
  -26.4503  -11.4839   33.9063 C   0  0  0  0  0  0  0  0  0  0  0  0
  -25.8614  -11.5426   20.2866 N   0  0  0  0  0  0  0  0  0  0  0  0
  -26.2389  -12.8260   20.1588 N   0  0  0  0  0  0  0  0  0  0  0  0
  -25.8503  -14.7430   32.5339 N   0  0  0  0  0  0  0  0  0  0  0  0
  -29.9702  -13.6118   20.3659 N   0  0  0  0  0  0  0  0  0  0  0  0
  -34.0575  -17.4899   23.6029 N   0  0  0  0  0  0  0  0  0  0  0  0
  -25.4733  -15.0537   20.4077 N   0  0  0  0  0  0  0  0  0  0  0  0
  -21.8872  -12.5805   21.5990 N   0  0  0  0  0  0  0  0  0  0  0  0
  -30.0820  -15.6905   21.4744 N   0  0  0  0  0  0  0  0  0  0  0  0
  -32.4192  -19.2390   25.1093 N   0  0  0  0  0  0  0  0  0  0  0  0
  -25.5572  -16.5417   35.3708 N   0  0  0  0  0  0  0  0  0  0  0  0
  -25.0525  -11.5369   31.7975 N   0  0  0  0  0  0  0  0  0  0  0  0
  -24.0845  -10.9149   28.3705 N   0  3  0  0  0  0  0  0  0  0  0  0
  -22.6638  -14.7200   21.3199 O   0  0  0  0  0  0  0  0  0  0  0  0
  -27.4064  -16.6669   33.9611 O   0  0  0  0  0  0  0  0  0  0  0  0
  -32.0669  -17.4300   27.0930 O   0  0  0  0  0  0  0  0  0  0  0  0
  -24.2480  -13.5184   33.7040 O   0  0  0  0  0  0  0  0  0  0  0  0
  -26.3436  -11.6562   29.8750 O   0  0  0  0  0  0  0  0  0  0  0  0
  -31.8582  -14.9339   20.1882 O   0  0  0  0  0  0  0  0  0  0  0  0
  -21.6116   -7.0174   21.7048 O   0  0  0  0  0  0  0  0  0  0  0  0
  -29.8981  -17.3360   28.6680 O   0  0  0  0  0  0  0  0  0  1  0  0
  -18.6203   -6.8583   26.3341 F   0  0  0  0  0  0  0  0  0  0  0  0
  -29.6903  -19.1649   24.7602 F   0  0  0  0  0  0  0  0  0  0  0  0
  -22.0611   -5.0728   23.6177 F   0  0  0  0  0  0  0  0  0  0  0  0
  1  2  1  0  0  0  0
  1  5  2  0  0  0  0
  2  6  2  0  0  0  0
  3  8  2  0  0  0  0
  3 17  1  0  0  0  0
  4  9  1  0  0  0  0
  4 17  2  0  0  0  0
  5 19  1  0  0  0  0
  6 21  1  0  0  0  0
  7 10  2  0  0  0  0
  7 20  1  0  0  0  0
  8 26  1  0  0  0  0
  9 26  2  0  0  0  0
 10 27  1  0  0  0  0
 11 12  2  0  0  0  0
 11 28  1  0  0  0  0
 12 29  1  0  0  0  0
 13 22  1  0  0  0  0
 13 27  2  0  0  0  0
 14 23  1  0  0  0  0
 14 24  2  0  0  0  0
 15 23  2  0  0  0  0
 15 30  1  0  0  0  0
 16 29  2  0  0  0  0
 16 31  1  0  0  0  0
 17 32  1  0  0  0  0
 18 32  1  0  0  0  0
 18 33  2  0  0  0  0
 18 34  1  0  0  0  0
 19 21  2  0  0  0  0
 19 40  1  0  0  0  0
 20 22  2  0  0  0  0
 20 41  1  0  0  0  0
 21 49  1  0  0  0  0
 22 42  1  0  0  0  0
 23 72  1  0  0  0  0
 24 25  1  0  0  0  0
 24 69  1  0  0  0  0
 25 30  2  0  0  0  0
 25 73  1  0  0  0  0
 26 83  1  0  0  0  0
 27 84  1  0  0  0  0
 28 31  2  0  0  0  0
 28 83  1  0  0  0  0
 29 85  1  0  0  0  0
 30 86  1  0  0  0  0
 31 87  1  0  0  0  0
 32 65  2  0  0  0  0
 33 66  1  0  0  0  0
 33 70  1  0  0  0  0
 34 71  1  0  0  0  0
 34 77  2  0  0  0  0
 35 50  1  0  0  0  0
 35 74  1  0  0  0  0
 35 78  2  0  0  0  0
 36 58  1  0  0  0  0
 36 61  1  0  0  0  0
 36 79  2  0  0  0  0
 37 62  1  0  0  0  0
 37 67  1  0  0  0  0
 37 80  2  0  0  0  0
 38 63  1  0  0  0  0
 38 75  1  0  0  0  0
 38 81  2  0  0  0  0
 39 68  1  0  0  0  0
 39 72  1  0  0  0  0
 39 82  2  0  0  0  0
 40 43  1  0  0  0  0
 41 50  1  0  0  0  0
 42 67  1  0  0  0  0
 43 45  1  0  0  0  0
 44 46  1  0  0  0  0
 44 47  1  0  0  0  0
 45 49  1  0  0  0  0
 46 51  1  0  0  0  0
 47 68  1  0  0  0  0
 48 51  1  0  0  0  0
 48 68  1  0  0  0  0
 49 74  1  0  0  0  0
 50 67  1  0  0  0  0
 51 66  1  0  0  0  0
 52 59  1  0  0  0  0
 53 63  1  0  0  0  0
 54 64  1  0  0  0  0
 55 64  1  0  0  0  0
 56 64  1  0  0  0  0
 57 76  1  0  0  0  0
 58 84  1  0  0  0  0
 59 60  1  0  0  0  0
 60 61  1  0  0  0  0
 61 73  1  0  0  0  0
 62 64  1  0  0  0  0
 62 75  1  0  0  0  0
 63 76  1  0  0  0  0
 65 66  1  0  0  0  0
M  CHG  1  76   1
M  ISO  4  39 100  58 101  72 100  84 101
M  END
> <Batch ID>
0100

> <Smiles>
CCCC(Nc1c(N)cc([100NH:0][100C:0](=O)N2CCCC(n3nc(-c4ccc(Oc5ccc(F)cc5F)cc4)c(C(N)=O)c3N)C2)cc1F)C(=O)[101CH2:1][101O:1]c1ccc2c(c1)CN(C(=O)C(NC(=O)C(C)NC)C(C)(C)C)C(C(=O)NC1CCCc3ccccc31)C2

> <Shape>
0.164

> <Color>
0.180

> <Negative vol penalty>
0.000

$$$$

  -OEChem-04052300573D

 86 95  0     1  0  0  0  0  0999 V2000
  -26.9338  -33.9703   17.3712 C   0  0  0  0  0  0  0  0  0  0  0  0
  -27.2463  -32.6205   17.4971 C   0  0  0  0  0  0  0  0  0  0  0  0
  -23.0328   -9.9518   19.8484 C   0  0  0  0  0  0  0  0  0  0  0  0
  -23.8793   -9.7243   22.0998 C   0  0  0  0  0  0  0  0  0  0  0  0
  -27.5543  -34.7396   16.3878 C   0  0  0  0  0  0  0  0  0  0  0  0
  -28.1787  -32.0389   16.6388 C   0  0  0  0  0  0  0  0  0  0  0  0
  -31.4700  -29.0605   19.0763 C   0  0  0  0  0  0  0  0  0  0  0  0
  -22.2927   -8.7804   20.0083 C   0  0  0  0  0  0  0  0  0  0  0  0
  -23.1391   -8.5529   22.2598 C   0  0  0  0  0  0  0  0  0  0  0  0
  -31.0277  -27.7907   19.4446 C   0  0  0  0  0  0  0  0  0  0  0  0
  -19.9319   -7.7031   22.9015 C   0  0  0  0  0  0  0  0  0  0  0  0
  -19.2198   -7.5455   24.0904 C   0  0  0  0  0  0  0  0  0  0  0  0
  -32.1583  -26.8491   17.5330 C   0  0  0  0  0  0  0  0  0  0  0  0
  -29.3405  -18.5852   21.5508 C   0  0  0  0  0  0  0  0  0  0  0  0
  -31.5154  -18.4371   20.5091 C   0  0  0  0  0  0  0  0  0  0  0  0
  -20.4776   -5.5412   24.5781 C   0  0  0  0  0  0  0  0  0  0  0  0
  -23.8262  -10.4238   20.8942 C   0  0  0  0  0  0  0  0  0  0  0  0
  -24.1770  -12.9475   21.0182 C   0  0  0  0  0  0  0  0  0  0  0  0
  -28.5019  -34.1693   15.5232 C   0  0  0  0  0  0  0  0  0  0  0  0
  -32.2520  -29.2359   17.9256 C   0  0  0  0  0  0  0  0  0  0  0  0
  -28.8115  -32.8010   15.6419 C   0  0  0  0  0  0  0  0  0  0  0  0
  -32.6114  -28.1218   17.1537 C   0  0  0  0  0  0  0  0  0  0  0  0
  -30.5704  -17.9428   21.4083 C   0  0  0  0  0  0  0  0  0  0  0  0
  -29.0555  -19.7218   20.7940 C   0  0  0  0  0  0  0  0  0  0  0  0
  -30.0004  -20.2161   19.8949 C   0  0  0  0  0  0  0  0  0  0  0  0
  -31.2304  -19.5738   19.7525 C   0  0  0  0  0  0  0  0  0  0  0  0
  -22.3458   -8.0810   21.2140 C   0  0  0  0  0  0  0  0  0  0  0  0
  -31.3695  -26.6851   18.6714 C   0  0  0  0  0  0  0  0  0  0  0  0
  -20.9168   -6.7797   22.5508 C   0  0  0  0  0  0  0  0  0  0  0  0
  -19.4926   -6.4646   24.9288 C   0  0  0  0  0  0  0  0  0  0  0  0
  -21.1897   -5.6988   23.3891 C   0  0  0  0  0  0  0  0  0  0  0  0
  -24.5914  -11.6335   20.7294 C   0  0  0  0  0  0  0  0  0  0  0  0
  -25.2587  -13.7283   20.6913 C   0  0  0  0  0  0  0  0  0  0  0  0
  -29.6749  -23.5331   18.3906 C   0  0  0  0  0  0  0  0  0  0  0  0
  -30.1540  -24.7572   18.1452 C   0  0  0  0  0  0  0  0  0  1  0  0
  -22.9262  -13.4200   21.5358 C   0  0  0  0  0  0  0  0  0  0  0  0
  -31.8962  -30.8174   15.1914 C   0  0  0  0  0  0  0  0  0  0  0  0
  -34.9621  -29.8783   14.7006 C   0  0  0  0  0  0  0  0  0  0  0  0
  -37.4606  -27.6617   15.4012 C   0  0  0  0  0  0  0  0  0  0  0  0
  -30.7511  -14.7142   20.7718 C   0  0  0  0  0  0  0  0  0  0  0  0
  -29.1114  -35.0299   14.4449 C   0  0  0  0  0  0  0  0  0  0  0  0
  -32.7434  -30.6088   17.5567 C   0  0  0  0  0  0  0  0  0  0  0  0
  -33.4657  -28.2539   15.9203 C   0  0  0  0  0  0  0  0  0  0  0  0
  -28.8142  -22.7428   17.4565 C   0  0  0  0  0  0  0  0  0  0  0  0
  -30.0163  -22.7005   19.5896 C   0  0  0  0  0  0  0  0  0  0  0  0
  -30.3650  -34.4247   13.8186 C   0  0  0  0  0  0  0  0  0  0  0  0
  -29.5106  -12.5866   18.2005 C   0  0  0  0  0  0  0  0  0  0  0  0
  -30.1372  -32.9544   13.4822 C   0  0  0  0  0  0  0  0  0  0  0  0
  -28.0891  -12.2527   18.6562 C   0  0  0  0  0  0  0  0  0  0  0  0
  -29.1939  -21.3011   17.7826 C   0  0  0  0  0  0  0  0  0  0  0  0
  -30.4739  -12.6827   19.3816 C   0  0  0  0  0  0  0  0  0  0  0  0
  -28.6302  -13.2720   20.9072 C   0  0  0  0  0  0  0  0  0  0  0  0
  -29.8361  -32.1396   14.7459 C   0  0  1  0  0  0  0  0  0  0  0  0
  -33.1050  -30.7372   16.0802 C   0  0  1  0  0  0  0  0  0  0  0  0
  -27.6111  -13.2196   19.7561 C   0  0  2  0  0  0  0  0  0  0  0  0
  -27.7290  -20.3876   20.9677 C   0  0  0  0  0  0  0  0  0  0  0  0
  -39.8427  -27.1297   14.8183 C   0  0  0  0  0  0  0  0  0  0  0  0
  -34.0470  -28.7160   12.0320 C   0  0  0  0  0  0  0  0  0  0  0  0
  -36.1792  -27.4063   11.9506 C   0  0  0  0  0  0  0  0  0  0  0  0
  -36.2485  -29.8999   11.9542 C   0  0  0  0  0  0  0  0  0  0  0  0
  -38.3511  -28.0392   18.1982 C   0  0  0  0  0  0  0  0  0  0  0  0
  -30.8757  -16.7277   22.2173 C   0  0  0  0  0  0  0  0  0  0  0  0
  -35.6243  -28.6743   14.0756 C   0  0  1  0  0  0  0  0  0  0  0  0
  -38.9179  -27.8705   15.7715 C   0  0  2  0  0  0  0  0  0  0  0  0
  -35.5070  -28.6715   12.5252 C   0  0  0  0  0  0  0  0  0  0  0  0
  -25.8389  -11.5787   20.2554 N   0  0  0  0  0  0  0  0  0  0  0  0
  -26.2177  -12.8681   20.2437 N   0  0  0  0  0  0  0  0  0  0  0  0
  -29.7146  -21.3414   19.1470 N   0  0  3  0  0  0  0  0  0  0  0  0
  -33.9164  -29.6178   15.5975 N   0  0  0  0  0  0  0  0  0  0  0  0
  -29.9630  -13.6167   20.3879 N   0  0  0  0  0  0  0  0  0  0  0  0
  -32.2027  -20.0564   18.8476 N   0  0  0  0  0  0  0  0  0  0  0  0
  -25.4734  -15.0600   20.7459 N   0  0  0  0  0  0  0  0  0  0  0  0
  -21.9229  -12.4829   21.8175 N   0  0  0  0  0  0  0  0  0  0  0  0
  -31.0553  -31.8754   15.4794 N   0  0  0  0  0  0  0  0  0  0  0  0
  -36.9965  -28.6600   14.5710 N   0  0  0  0  0  0  0  0  0  0  0  0
  -30.1895  -15.5536   21.7262 N   0  0  0  0  0  0  0  0  0  0  0  0
  -39.1765  -27.3789   17.1544 N   0  3  0  0  0  0  0  0  0  0  0  0
  -22.6990  -14.6388   21.7269 O   0  0  0  0  0  0  0  0  0  0  0  0
  -31.7388  -29.9822   14.3086 O   0  0  0  0  0  0  0  0  0  0  0  0
  -35.3627  -31.0080   14.4094 O   0  0  0  0  0  0  0  0  0  0  0  0
  -36.8011  -26.7063   15.8048 O   0  0  0  0  0  0  0  0  0  0  0  0
  -31.8699  -14.9331   20.2951 O   0  0  0  0  0  0  0  0  0  0  0  0
  -21.6235   -6.9380   21.3704 O   0  0  0  0  0  0  0  0  0  0  0  0
  -30.9386  -25.4446   19.0282 O   0  0  0  0  0  0  0  0  0  1  0  0
  -18.8098   -6.3142   26.0713 F   0  0  0  0  0  0  0  0  0  0  0  0
  -22.1356   -4.8091   23.0581 F   0  0  0  0  0  0  0  0  0  0  0  0
  1  2  1  0  0  0  0
  1  5  2  0  0  0  0
  2  6  2  0  0  0  0
  3  8  2  0  0  0  0
  3 17  1  0  0  0  0
  4  9  1  0  0  0  0
  4 17  2  0  0  0  0
  5 19  1  0  0  0  0
  6 21  1  0  0  0  0
  7 10  2  0  0  0  0
  7 20  1  0  0  0  0
  8 27  1  0  0  0  0
  9 27  2  0  0  0  0
 10 28  1  0  0  0  0
 11 12  2  0  0  0  0
 11 29  1  0  0  0  0
 12 30  1  0  0  0  0
 13 22  1  0  0  0  0
 13 28  2  0  0  0  0
 14 23  1  0  0  0  0
 14 24  2  0  0  0  0
 15 23  2  0  0  0  0
 15 26  1  0  0  0  0
 16 30  2  0  0  0  0
 16 31  1  0  0  0  0
 17 32  1  0  0  0  0
 18 32  1  0  0  0  0
 18 33  2  0  0  0  0
 18 36  1  0  0  0  0
 19 21  2  0  0  0  0
 19 41  1  0  0  0  0
 20 22  2  0  0  0  0
 20 42  1  0  0  0  0
 21 53  1  0  0  0  0
 22 43  1  0  0  0  0
 23 62  1  0  0  0  0
 24 25  1  0  0  0  0
 24 56  1  0  0  0  0
 25 26  2  0  0  0  0
 25 68  1  0  0  0  0
 26 71  1  0  0  0  0
 27 83  1  0  0  0  0
 28 84  1  0  0  0  0
 29 31  2  0  0  0  0
 29 83  1  0  0  0  0
 30 85  1  0  0  0  0
 31 86  1  0  0  0  0
 32 66  2  0  0  0  0
 33 67  1  0  0  0  0
 33 72  1  0  0  0  0
 34 35  2  0  0  0  0
 34 44  1  0  0  0  0
 34 45  1  0  0  0  0
 35 84  1  0  0  0  0
 36 73  1  0  0  0  0
 36 78  2  0  0  0  0
 37 54  1  0  0  0  0
 37 74  1  0  0  0  0
 37 79  2  0  0  0  0
 38 63  1  0  0  0  0
 38 69  1  0  0  0  0
 38 80  2  0  0  0  0
 39 64  1  0  0  0  0
 39 75  1  0  0  0  0
 39 81  2  0  0  0  0
 40 70  1  0  0  0  0
 40 76  1  0  0  0  0
 40 82  2  0  0  0  0
 41 46  1  0  0  0  0
 42 54  1  0  0  0  0
 43 69  1  0  0  0  0
 44 50  1  0  0  0  0
 45 68  1  0  0  0  0
 46 48  1  0  0  0  0
 47 49  1  0  0  0  0
 47 51  1  0  0  0  0
 48 53  1  0  0  0  0
 49 55  1  0  0  0  0
 50 68  1  0  0  0  0
 51 70  1  0  0  0  0
 52 55  1  0  0  0  0
 52 70  1  0  0  0  0
 53 74  1  0  0  0  0
 54 69  1  0  0  0  0
 55 67  1  0  0  0  0
 57 64  1  0  0  0  0
 58 65  1  0  0  0  0
 59 65  1  0  0  0  0
 60 65  1  0  0  0  0
 61 77  1  0  0  0  0
 62 76  1  0  0  0  0
 63 65  1  0  0  0  0
 63 75  1  0  0  0  0
 64 77  1  0  0  0  0
 66 67  1  0  0  0  0
M  CHG  1  77   1
M  ISO  4  35 101  40 100  76 100  84 101
M  END
> <Batch ID>
0100

> <Smiles>
CNC(C)C(=O)NC(C(=O)N1Cc2cc([101O:1][101CH:1]=C3CCN(c4c(C)cc(C[100NH:0][100C:0](=O)N5CCCC(n6nc(-c7ccc(Oc8ccc(F)cc8F)cc7)c(C(N)=O)c6N)C5)cc4N)C3)ccc2CC1C(=O)NC1CCCc2ccccc21)C(C)(C)C

> <Shape>
0.242

> <Color>
0.197

> <Negative vol penalty>
0.000

$$$$

  -OEChem-04052300573D

 88 97  0     1  0  0  0  0  0999 V2000
  -29.1399  -30.6187   26.9421 C   0  0  0  0  0  0  0  0  0  0  0  0
  -29.1702  -29.8161   25.8073 C   0  0  0  0  0  0  0  0  0  0  0  0
  -30.4172  -20.1594   20.2542 C   0  0  0  0  0  0  0  0  0  0  0  0
  -28.0280  -19.8590   20.4504 C   0  0  0  0  0  0  0  0  0  0  0  0
  -28.2282  -30.3460   27.9598 C   0  0  0  0  0  0  0  0  0  0  0  0
  -28.2809  -28.7479   25.6844 C   0  0  0  0  0  0  0  0  0  0  0  0
  -24.8091  -22.4118   22.3644 C   0  0  0  0  0  0  0  0  0  0  0  0
  -30.2126  -21.4182   19.6895 C   0  0  0  0  0  0  0  0  0  0  0  0
  -27.8233  -21.1179   19.8858 C   0  0  0  0  0  0  0  0  0  0  0  0
  -24.0230  -21.2964   22.6504 C   0  0  0  0  0  0  0  0  0  0  0  0
  -29.4555  -24.5351   20.7596 C   0  0  0  0  0  0  0  0  0  0  0  0
  -30.2426  -25.5892   21.2232 C   0  0  0  0  0  0  0  0  0  0  0  0
  -22.3539  -22.7329   23.6353 C   0  0  0  0  0  0  0  0  0  0  0  0
  -23.4036  -13.2450   24.0512 C   0  0  0  0  0  0  0  0  0  0  0  0
  -21.9386  -15.3718   22.9962 C   0  0  0  0  0  0  0  0  0  0  0  0
  -31.1151  -25.9178   18.9943 C   0  0  0  0  0  0  0  0  0  0  0  0
  -29.3249  -19.3797   20.6346 C   0  0  0  0  0  0  0  0  0  0  0  0
  -30.2373  -17.7812   22.4010 C   0  0  0  0  0  0  0  0  0  0  0  0
  -27.3361  -29.2662   27.8540 C   0  0  0  0  0  0  0  0  0  0  0  0
  -24.3777  -23.6972   22.7220 C   0  0  0  0  0  0  0  0  0  0  0  0
  -27.3372  -28.4710   26.6900 C   0  0  0  0  0  0  0  0  0  0  0  0
  -23.1352  -23.8631   23.3503 C   0  0  0  0  0  0  0  0  0  0  0  0
  -23.3637  -13.4481   22.6718 C   0  0  0  0  0  0  0  0  0  0  0  0
  -21.9784  -15.1687   24.3756 C   0  0  0  0  0  0  0  0  0  0  0  0
  -22.6313  -14.5115   22.1443 C   0  0  0  0  0  0  0  0  0  0  0  0
  -28.9156  -21.8976   19.5053 C   0  0  0  0  0  0  0  0  0  0  0  0
  -22.7965  -21.4566   23.2886 C   0  0  0  0  0  0  0  0  0  0  0  0
  -29.4982  -24.1723   19.4134 C   0  0  0  0  0  0  0  0  0  0  0  0
  -31.0724  -26.2806   20.3405 C   0  0  0  0  0  0  0  0  0  0  0  0
  -22.7109  -14.1053   24.9031 C   0  0  0  0  0  0  0  0  0  0  0  0
  -30.3280  -24.8637   18.5308 C   0  0  0  0  0  0  0  0  0  0  0  0
  -29.5356  -18.0789   21.2175 C   0  0  0  0  0  0  0  0  0  0  0  0
  -30.1502  -16.4155   22.5176 C   0  0  0  0  0  0  0  0  0  0  0  0
  -21.3313  -18.7986   26.5533 C   0  0  0  0  0  0  0  0  0  0  0  0
  -20.9622  -19.0707   25.2879 C   0  0  0  0  0  0  0  0  0  0  0  0
  -30.9080  -18.6606   23.3134 C   0  0  0  0  0  0  0  0  0  0  0  0
  -25.4764  -25.9782   24.6439 C   0  0  0  0  0  0  0  0  0  0  0  0
  -23.0285  -27.6863   23.3740 C   0  0  0  0  0  0  0  0  0  0  0  0
  -19.5798  -27.0920   22.4960 C   0  0  0  0  0  0  0  0  0  0  0  0
  -26.2180  -12.3911   20.4697 C   0  0  0  0  0  0  0  0  0  0  0  0
  -26.3649  -29.0211   28.9819 C   0  0  0  0  0  0  0  0  0  0  0  0
  -25.2252  -24.8926   22.3824 C   0  0  0  0  0  0  0  0  0  0  0  0
  -22.6174  -25.2236   23.7368 C   0  0  0  0  0  0  0  0  0  0  0  0
  -21.1847  -17.4971   27.2845 C   0  0  0  0  0  0  0  0  0  0  0  0
  -20.3054  -18.1079   24.3227 C   0  0  0  0  0  0  0  0  0  0  0  0
  -25.7730  -27.6156   28.9618 C   0  0  0  0  0  0  0  0  0  0  0  0
  -29.7276  -12.4510   19.8728 C   0  0  0  0  0  0  0  0  0  0  0  0
  -25.2553  -27.2895   27.5689 C   0  0  0  0  0  0  0  0  0  0  0  0
  -30.1396  -13.8733   20.2565 C   0  0  0  0  0  0  0  0  0  0  0  0
  -21.7899  -16.2775   26.5842 C   0  0  0  0  0  0  0  0  0  0  0  0
  -20.0410  -16.6809   24.8073 C   0  0  0  0  0  0  0  0  0  0  0  0
  -28.3515  -12.4212   19.2112 C   0  0  0  0  0  0  0  0  0  0  0  0
  -27.6899  -14.4935   20.3694 C   0  0  0  0  0  0  0  0  0  0  0  0
  -26.4002  -27.2852   26.5479 C   0  0  1  0  0  0  0  0  0  0  0  0
  -24.9212  -26.1074   23.2536 C   0  0  1  0  0  0  0  0  0  0  0  0
  -29.0466  -14.5680   21.0906 C   0  0  2  0  0  0  0  0  0  0  0  0
  -18.1201  -28.1952   20.7786 C   0  0  0  0  0  0  0  0  0  0  0  0
  -22.1589  -29.4778   25.6856 C   0  0  0  0  0  0  0  0  0  0  0  0
  -19.8322  -29.4211   24.7627 C   0  0  0  0  0  0  0  0  0  0  0  0
  -21.6844  -30.4047   23.4119 C   0  0  0  0  0  0  0  0  0  0  0  0
  -18.9304  -24.5036   21.2165 C   0  0  0  0  0  0  0  0  0  0  0  0
  -24.1156  -12.5118   21.7828 C   0  0  0  0  0  0  0  0  0  0  0  0
  -21.1862  -20.4488   24.7194 C   0  0  0  0  0  0  0  0  0  1  0  0
  -21.5764  -27.8986   23.7279 C   0  0  1  0  0  0  0  0  0  0  0  0
  -19.0019  -26.9974   21.0955 C   0  0  2  0  0  0  0  0  0  0  0  0
  -21.3265  -29.2765   24.4036 C   0  0  0  0  0  0  0  0  0  0  0  0
  -29.0394  -16.9898   20.6245 N   0  0  0  0  0  0  0  0  0  0  0  0
  -29.4299  -15.9945   21.4387 N   0  0  0  0  0  0  0  0  0  0  0  0
  -21.2832  -16.0329   25.2280 N   0  0  3  0  0  0  0  0  0  0  0  0
  -23.4854  -26.3608   23.3891 N   0  0  0  0  0  0  0  0  0  0  0  0
  -27.3605  -13.0947   20.0539 N   0  0  0  0  0  0  0  0  0  0  0  0
  -22.5795  -14.7314   20.7500 N   0  0  0  0  0  0  0  0  0  0  0  0
  -30.6202  -15.5456   23.4367 N   0  0  0  0  0  0  0  0  0  0  0  0
  -30.1796  -19.1921   24.3864 N   0  0  0  0  0  0  0  0  0  0  0  0
  -25.8450  -27.1806   25.2165 N   0  0  0  0  0  0  0  0  0  0  0  0
  -20.8216  -27.6913   22.4967 N   0  0  0  0  0  0  0  0  0  0  0  0
  -25.3327  -13.1014   21.2712 N   0  0  0  0  0  0  0  0  0  0  0  0
  -18.1825  -25.7605   20.9557 N   0  3  0  0  0  0  0  0  0  0  0  0
  -32.1130  -18.9791   23.1718 O   0  0  0  0  0  0  0  0  0  0  0  0
  -25.5626  -24.8699   25.1595 O   0  0  0  0  0  0  0  0  0  0  0  0
  -23.7298  -28.6598   23.0874 O   0  0  0  0  0  0  0  0  0  0  0  0
  -18.9872  -26.6792   23.4905 O   0  0  0  0  0  0  0  0  0  0  0  0
  -26.0056  -11.2153   20.1546 O   0  0  0  0  0  0  0  0  0  0  0  0
  -28.7156  -23.1261   18.9546 O   0  0  0  0  0  0  0  0  0  0  0  0
  -22.0276  -20.3695   23.5695 O   0  0  0  0  0  0  0  0  0  1  0  0
  -31.8271  -27.2938   20.7855 F   0  0  0  0  0  0  0  0  0  0  0  0
  -22.7561  -13.9013   26.2273 F   0  0  0  0  0  0  0  0  0  0  0  0
  -30.3724  -24.5205   17.2361 F   0  0  0  0  0  0  0  0  0  0  0  0
  1  2  1  0  0  0  0
  1  5  2  0  0  0  0
  2  6  2  0  0  0  0
  3  8  2  0  0  0  0
  3 17  1  0  0  0  0
  4  9  1  0  0  0  0
  4 17  2  0  0  0  0
  5 19  1  0  0  0  0
  6 21  1  0  0  0  0
  7 10  2  0  0  0  0
  7 20  1  0  0  0  0
  8 26  1  0  0  0  0
  9 26  2  0  0  0  0
 10 27  1  0  0  0  0
 11 12  2  0  0  0  0
 11 28  1  0  0  0  0
 12 29  1  0  0  0  0
 13 22  1  0  0  0  0
 13 27  2  0  0  0  0
 14 23  2  0  0  0  0
 14 30  1  0  0  0  0
 15 24  1  0  0  0  0
 15 25  2  0  0  0  0
 16 29  2  0  0  0  0
 16 31  1  0  0  0  0
 17 32  1  0  0  0  0
 18 32  1  0  0  0  0
 18 33  2  0  0  0  0
 18 36  1  0  0  0  0
 19 21  2  0  0  0  0
 19 41  1  0  0  0  0
 20 22  2  0  0  0  0
 20 42  1  0  0  0  0
 21 54  1  0  0  0  0
 22 43  1  0  0  0  0
 23 25  1  0  0  0  0
 23 62  1  0  0  0  0
 24 30  2  0  0  0  0
 24 69  1  0  0  0  0
 25 72  1  0  0  0  0
 26 84  1  0  0  0  0
 27 85  1  0  0  0  0
 28 31  2  0  0  0  0
 28 84  1  0  0  0  0
 29 86  1  0  0  0  0
 30 87  1  0  0  0  0
 31 88  1  0  0  0  0
 32 67  2  0  0  0  0
 33 68  1  0  0  0  0
 33 73  1  0  0  0  0
 34 35  2  0  0  0  0
 34 44  1  0  0  0  0
 35 45  1  0  0  0  0
 35 63  1  0  0  0  0
 36 74  1  0  0  0  0
 36 79  2  0  0  0  0
 37 55  1  0  0  0  0
 37 75  1  0  0  0  0
 37 80  2  0  0  0  0
 38 64  1  0  0  0  0
 38 70  1  0  0  0  0
 38 81  2  0  0  0  0
 39 65  1  0  0  0  0
 39 76  1  0  0  0  0
 39 82  2  0  0  0  0
 40 71  1  0  0  0  0
 40 77  1  0  0  0  0
 40 83  2  0  0  0  0
 41 46  1  0  0  0  0
 42 55  1  0  0  0  0
 43 70  1  0  0  0  0
 44 50  1  0  0  0  0
 45 51  1  0  0  0  0
 46 48  1  0  0  0  0
 47 49  1  0  0  0  0
 47 52  1  0  0  0  0
 48 54  1  0  0  0  0
 49 56  1  0  0  0  0
 50 69  1  0  0  0  0
 51 69  1  0  0  0  0
 52 71  1  0  0  0  0
 53 56  1  0  0  0  0
 53 71  1  0  0  0  0
 54 75  1  0  0  0  0
 55 70  1  0  0  0  0
 56 68  1  0  0  0  0
 57 65  1  0  0  0  0
 58 66  1  0  0  0  0
 59 66  1  0  0  0  0
 60 66  1  0  0  0  0
 61 78  1  0  0  0  0
 62 77  1  0  0  0  0
 63 85  1  0  0  0  0
 64 66  1  0  0  0  0
 64 76  1  0  0  0  0
 65 78  1  0  0  0  0
 67 68  1  0  0  0  0
M  CHG  1  78   1
M  ISO  4  40 100  63 101  77 100  85 101
M  END
> <Batch ID>
0100

> <Smiles>
CNC(C)C(=O)NC(C(=O)N1Cc2cc([101O:1][101CH2:1]C3=CCCN(c4cc(N)c(C[100NH:0][100C:0](=O)N5CCCC(n6nc(-c7ccc(Oc8ccc(F)cc8F)cc7)c(C(N)=O)c6N)C5)cc4F)CC3)ccc2CC1C(=O)NC1CCCc2ccccc21)C(C)(C)C

> <Shape>
0.223

> <Color>
0.073

> <Negative vol penalty>
0.000

$$$$

  -OEChem-04052300573D

 87 96  0     1  0  0  0  0  0999 V2000
  -34.3619  -11.6076   18.7000 C   0  0  0  0  0  0  0  0  0  0  0  0
  -33.7741  -12.8413   18.4394 C   0  0  0  0  0  0  0  0  0  0  0  0
  -24.7861  -28.8589   22.1742 C   0  0  0  0  0  0  0  0  0  0  0  0
  -24.5403  -30.4813   20.4009 C   0  0  0  0  0  0  0  0  0  0  0  0
  -33.5981  -10.4434   18.6264 C   0  0  0  0  0  0  0  0  0  0  0  0
  -32.4224  -12.9115   18.1041 C   0  0  0  0  0  0  0  0  0  0  0  0
  -28.4875  -17.3634   19.5882 C   0  0  0  0  0  0  0  0  0  0  0  0
  -26.6440  -22.3119   20.2026 C   0  0  0  0  0  0  0  0  0  0  0  0
  -27.9347  -22.7484   20.5010 C   0  0  0  0  0  0  0  0  0  0  0  0
  -24.3785  -29.8145   23.1050 C   0  0  0  0  0  0  0  0  0  0  0  0
  -24.1325  -31.4368   21.3317 C   0  0  0  0  0  0  0  0  0  0  0  0
  -28.0111  -18.4677   18.8830 C   0  0  0  0  0  0  0  0  0  0  0  0
  -21.4728  -31.1886   24.1546 C   0  0  0  0  0  0  0  0  0  0  0  0
  -20.5402  -30.8001   25.1163 C   0  0  0  0  0  0  0  0  0  0  0  0
  -26.0587  -17.2061   18.2383 C   0  0  0  0  0  0  0  0  0  0  0  0
  -27.0854  -22.6168   17.8469 C   0  0  0  0  0  0  0  0  0  0  0  0
  -22.1200  -31.3348   26.8643 C   0  0  0  0  0  0  0  0  0  0  0  0
  -24.8671  -29.1923   20.8222 C   0  0  0  0  0  0  0  0  0  0  0  0
  -24.4705  -27.3065   19.1507 C   0  0  0  0  0  0  0  0  0  0  0  0
  -32.2341  -10.5003   18.2994 C   0  0  0  0  0  0  0  0  0  0  0  0
  -27.7571  -16.1667   19.6147 C   0  0  0  0  0  0  0  0  0  0  0  0
  -31.6401  -11.7469   18.0248 C   0  0  0  0  0  0  0  0  0  0  0  0
  -26.5268  -16.0889   18.9467 C   0  0  0  0  0  0  0  0  0  0  0  0
  -26.2193  -22.2460   18.8756 C   0  0  0  0  0  0  0  0  0  0  0  0
  -28.8007  -23.1193   19.4724 C   0  0  0  0  0  0  0  0  0  0  0  0
  -24.0517  -31.1034   22.6837 C   0  0  0  0  0  0  0  0  0  0  0  0
  -26.7979  -18.3883   18.2055 C   0  0  0  0  0  0  0  0  0  0  0  0
  -22.7291  -31.6500   24.5477 C   0  0  0  0  0  0  0  0  0  0  0  0
  -20.8638  -30.8733   26.4712 C   0  0  0  0  0  0  0  0  0  0  0  0
  -28.3761  -23.0535   18.1453 C   0  0  0  0  0  0  0  0  0  0  0  0
  -23.0527  -31.7232   25.9025 C   0  0  0  0  0  0  0  0  0  0  0  0
  -25.2887  -28.2058   19.8603 C   0  0  0  0  0  0  0  0  0  0  0  0
  -25.3447  -26.5886   18.3716 C   0  0  0  0  0  0  0  0  0  0  0  0
  -23.7534  -21.9497   19.3859 C   0  0  0  0  0  0  0  0  0  0  0  0
  -23.0476  -27.1353   19.1920 C   0  0  0  0  0  0  0  0  0  0  0  0
  -28.2944  -13.1888   18.6414 C   0  0  0  0  0  0  0  0  0  0  0  0
  -25.4702  -12.6079   20.1277 C   0  0  0  0  0  0  0  0  0  0  0  0
  -22.4852  -13.8206   21.2528 C   0  0  0  0  0  0  0  0  0  0  0  0
  -30.8417  -24.4960   18.9926 C   0  0  0  0  0  0  0  0  0  0  0  0
  -31.4605   -9.2106   18.1859 C   0  0  0  0  0  0  0  0  0  0  0  0
  -28.2719  -14.9930   20.4022 C   0  0  0  0  0  0  0  0  0  0  0  0
  -25.6946  -14.8336   18.9609 C   0  0  0  0  0  0  0  0  0  0  0  0
  -22.5817  -21.3456   18.6487 C   0  0  0  0  0  0  0  0  0  0  0  0
  -29.9465   -9.4061   18.1905 C   0  0  0  0  0  0  0  0  0  0  0  0
  -23.0585  -21.2939   17.2096 C   0  0  0  0  0  0  0  0  0  0  0  0
  -29.9405  -27.2631   16.7070 C   0  0  0  0  0  0  0  0  0  0  0  0
  -29.5511  -10.5342   17.2429 C   0  0  0  0  0  0  0  0  0  0  0  0
  -28.6125  -27.7563   17.2785 C   0  0  0  0  0  0  0  0  0  0  0  0
  -30.8312  -26.6561   17.7868 C   0  0  0  0  0  0  0  0  0  0  0  0
  -28.8385  -26.0545   19.1317 C   0  0  0  0  0  0  0  0  0  0  0  0
  -30.1709  -11.8663   17.6820 C   0  0  1  0  0  0  0  0  0  0  0  0
  -27.6938  -13.6606   19.9354 C   0  0  1  0  0  0  0  0  0  0  0  0
  -27.9066  -26.6337   18.0568 C   0  0  1  0  0  0  0  0  0  0  0  0
  -24.5645  -21.0916   17.3343 C   0  0  2  0  0  0  0  0  0  0  0  0
  -31.4581  -21.5533   20.2811 C   0  0  0  0  0  0  0  0  0  0  0  0
  -20.3690  -13.0984   22.3920 C   0  0  0  0  0  0  0  0  0  0  0  0
  -24.5040  -11.3420   17.5250 C   0  0  0  0  0  0  0  0  0  0  0  0
  -22.1620  -11.5112   18.3935 C   0  0  0  0  0  0  0  0  0  0  0  0
  -23.8378  -10.1078   19.5956 C   0  0  0  0  0  0  0  0  0  0  0  0
  -22.9632  -15.6321   23.5439 C   0  0  0  0  0  0  0  0  0  0  0  0
  -24.9146  -19.6038   17.4108 C   0  0  0  0  0  0  0  0  0  1  0  0
  -30.8789  -22.8484   20.8135 C   0  0  0  0  0  0  0  0  0  0  0  0
  -24.0193  -12.6269   19.7113 C   0  0  1  0  0  0  0  0  0  0  0  0
  -21.7694  -13.6603   22.5819 C   0  0  2  0  0  0  0  0  0  0  0  0
  -23.6471  -11.4202   18.8043 C   0  0  0  0  0  0  0  0  0  0  0  0
  -26.5831  -28.0733   19.5589 N   0  0  0  0  0  0  0  0  0  0  0  0
  -26.5850  -27.0821   18.6513 N   0  0  0  0  0  0  0  0  0  0  0  0
  -24.8940  -21.7984   18.5690 N   0  0  0  0  0  0  0  0  0  0  0  0
  -26.2435  -13.7112   19.7396 N   0  0  0  0  0  0  0  0  0  0  0  0
  -30.1267  -25.6312   18.5587 N   0  0  0  0  0  0  0  0  0  0  0  0
  -25.1657  -25.5896   17.4814 N   0  0  0  0  0  0  0  0  0  0  0  0
  -22.3005  -27.9562   20.0477 N   0  0  0  0  0  0  0  0  0  0  0  0
  -29.4344  -12.4235   18.7963 N   0  0  0  0  0  0  0  0  0  0  0  0
  -23.2422  -12.7105   20.9432 N   0  0  0  0  0  0  0  0  0  0  0  0
  -30.1347  -23.5709   19.7842 N   0  0  0  0  0  0  0  0  0  0  0  0
  -21.6582  -14.9762   23.2724 N   0  3  0  0  0  0  0  0  0  0  0  0
  -23.6397  -22.4333   20.5030 O   0  0  0  0  0  0  0  0  0  0  0  0
  -22.4579  -26.2686   18.5031 O   0  0  0  0  0  0  0  0  0  0  0  0
  -27.7620  -13.4951   17.5810 O   0  0  0  0  0  0  0  0  0  0  0  0
  -25.8999  -11.6529   20.7795 O   0  0  0  0  0  0  0  0  0  0  0  0
  -22.3802  -14.8282   20.5570 O   0  0  0  0  0  0  0  0  0  0  0  0
  -32.0431  -24.3432   18.7396 O   0  0  0  0  0  0  0  0  0  0  0  0
  -23.6536  -32.0360   23.5917 O   0  0  0  0  0  0  0  0  0  0  0  0
  -26.3309  -19.4645   17.5159 O   0  0  0  0  0  0  0  0  0  1  0  0
  -19.9675  -30.5017   27.3947 F   0  0  0  0  0  0  0  0  0  0  0  0
  -29.1994  -23.4089   17.1486 F   0  0  0  0  0  0  0  0  0  0  0  0
  -24.2575  -32.1669   26.2862 F   0  0  0  0  0  0  0  0  0  0  0  0
  1  2  1  0  0  0  0
  1  5  2  0  0  0  0
  2  6  2  0  0  0  0
  3 10  2  0  0  0  0
  3 18  1  0  0  0  0
  4 11  1  0  0  0  0
  4 18  2  0  0  0  0
  5 20  1  0  0  0  0
  6 22  1  0  0  0  0
  7 12  2  0  0  0  0
  7 21  1  0  0  0  0
  8  9  2  0  0  0  0
  8 24  1  0  0  0  0
  9 25  1  0  0  0  0
 10 26  1  0  0  0  0
 11 26  2  0  0  0  0
 12 27  1  0  0  0  0
 13 14  2  0  0  0  0
 13 28  1  0  0  0  0
 14 29  1  0  0  0  0
 15 23  1  0  0  0  0
 15 27  2  0  0  0  0
 16 24  2  0  0  0  0
 16 30  1  0  0  0  0
 17 29  2  0  0  0  0
 17 31  1  0  0  0  0
 18 32  1  0  0  0  0
 19 32  1  0  0  0  0
 19 33  2  0  0  0  0
 19 35  1  0  0  0  0
 20 22  2  0  0  0  0
 20 40  1  0  0  0  0
 21 23  2  0  0  0  0
 21 41  1  0  0  0  0
 22 51  1  0  0  0  0
 23 42  1  0  0  0  0
 24 68  1  0  0  0  0
 25 30  2  0  0  0  0
 25 75  1  0  0  0  0
 26 83  1  0  0  0  0
 27 84  1  0  0  0  0
 28 31  2  0  0  0  0
 28 83  1  0  0  0  0
 29 85  1  0  0  0  0
 30 86  1  0  0  0  0
 31 87  1  0  0  0  0
 32 66  2  0  0  0  0
 33 67  1  0  0  0  0
 33 71  1  0  0  0  0
 34 43  1  0  0  0  0
 34 68  1  0  0  0  0
 34 77  2  0  0  0  0
 35 72  1  0  0  0  0
 35 78  2  0  0  0  0
 36 52  1  0  0  0  0
 36 73  1  0  0  0  0
 36 79  2  0  0  0  0
 37 63  1  0  0  0  0
 37 69  1  0  0  0  0
 37 80  2  0  0  0  0
 38 64  1  0  0  0  0
 38 74  1  0  0  0  0
 38 81  2  0  0  0  0
 39 70  1  0  0  0  0
 39 75  1  0  0  0  0
 39 82  2  0  0  0  0
 40 44  1  0  0  0  0
 41 52  1  0  0  0  0
 42 69  1  0  0  0  0
 43 45  1  0  0  0  0
 44 47  1  0  0  0  0
 45 54  1  0  0  0  0
 46 48  1  0  0  0  0
 46 49  1  0  0  0  0
 47 51  1  0  0  0  0
 48 53  1  0  0  0  0
 49 70  1  0  0  0  0
 50 53  1  0  0  0  0
 50 70  1  0  0  0  0
 51 73  1  0  0  0  0
 52 69  1  0  0  0  0
 53 67  1  0  0  0  0
 54 61  1  0  0  0  0
 54 68  1  0  0  0  0
 55 62  1  0  0  0  0
 56 64  1  0  0  0  0
 57 65  1  0  0  0  0
 58 65  1  0  0  0  0
 59 65  1  0  0  0  0
 60 76  1  0  0  0  0
 61 84  1  0  0  0  0
 62 75  1  0  0  0  0
 63 65  1  0  0  0  0
 63 74  1  0  0  0  0
 64 76  1  0  0  0  0
 66 67  1  0  0  0  0
M  CHG  1  76   1
M  ISO  4  39 100  61 101  75 100  84 101
M  END
> <Batch ID>
0100

> <Smiles>
CC[100N:0](c1ccc(N2C(=O)CCC2[101CH2:1][101O:1]c2ccc3c(c2)CN(C(=O)C(NC(=O)C(C)NC)C(C)(C)C)C(C(=O)NC2CCCc4ccccc42)C3)cc1F)[100C:0](=O)N1CCCC(n2nc(-c3ccc(Oc4ccc(F)cc4F)cc3)c(C(N)=O)c2N)C1

> <Shape>
0.226

> <Color>
0.071

> <Negative vol penalty>
0.000

$$$$

  -OEChem-04052300573D

 89 97  0     1  0  0  0  0  0999 V2000
  -32.4114  -14.1265   20.5589 C   0  0  0  0  0  0  0  0  0  0  0  0
  -31.6200  -15.2683   20.6329 C   0  0  0  0  0  0  0  0  0  0  0  0
  -29.3724  -28.6930   20.0097 C   0  0  0  0  0  0  0  0  0  0  0  0
  -27.5977  -27.2829   19.1738 C   0  0  0  0  0  0  0  0  0  0  0  0
  -31.8388  -12.9043   20.2094 C   0  0  0  0  0  0  0  0  0  0  0  0
  -30.2556  -15.1886   20.3564 C   0  0  0  0  0  0  0  0  0  0  0  0
  -25.7681  -18.4038   23.0080 C   0  0  0  0  0  0  0  0  0  0  0  0
  -30.2521  -27.6114   19.9667 C   0  0  0  0  0  0  0  0  0  0  0  0
  -28.4773  -26.2012   19.1307 C   0  0  0  0  0  0  0  0  0  0  0  0
  -25.0784  -19.5505   22.6167 C   0  0  0  0  0  0  0  0  0  0  0  0
  -29.8159  -23.9904   21.3105 C   0  0  0  0  0  0  0  0  0  0  0  0
  -18.7325  -25.9077   22.5325 C   0  0  0  0  0  0  0  0  0  0  0  0
  -29.3650  -22.7682   21.8089 C   0  0  0  0  0  0  0  0  0  0  0  0
  -18.8496  -27.2363   22.9256 C   0  0  0  0  0  0  0  0  0  0  0  0
  -23.3134  -18.1743   21.7166 C   0  0  0  0  0  0  0  0  0  0  0  0
  -29.7117  -21.7568   19.6423 C   0  0  0  0  0  0  0  0  0  0  0  0
  -28.0452  -28.5287   19.6133 C   0  0  0  0  0  0  0  0  0  0  0  0
  -26.8801  -30.5752   18.6322 C   0  0  0  0  0  0  0  0  0  0  0  0
  -30.4649  -12.8078   19.9379 C   0  0  0  0  0  0  0  0  0  0  0  0
  -25.2399  -17.1314   22.7464 C   0  0  0  0  0  0  0  0  0  0  0  0
  -29.6643  -13.9642   20.0017 C   0  0  0  0  0  0  0  0  0  0  0  0
  -23.9972  -17.0131   22.1079 C   0  0  0  0  0  0  0  0  0  0  0  0
  -29.8046  -26.3655   19.5272 C   0  0  0  0  0  0  0  0  0  0  0  0
  -23.8522  -19.4358   21.9683 C   0  0  0  0  0  0  0  0  0  0  0  0
  -30.2146  -24.0959   19.9780 C   0  0  0  0  0  0  0  0  0  0  0  0
  -19.5720  -25.4041   21.5451 C   0  0  0  0  0  0  0  0  0  0  0  0
  -29.3129  -21.6514   20.9748 C   0  0  0  0  0  0  0  0  0  0  0  0
  -30.1625  -22.9791   19.1439 C   0  0  0  0  0  0  0  0  0  0  0  0
  -27.1359  -29.6455   19.6580 C   0  0  0  0  0  0  0  0  0  0  0  0
  -19.8145  -28.0135   22.3053 C   0  0  0  0  0  0  0  0  0  0  0  0
  -20.5044  -26.2634   20.9865 C   0  0  0  0  0  0  0  0  0  0  0  0
  -25.9477  -31.4297   19.1679 C   0  0  0  0  0  0  0  0  0  0  0  0
  -27.4357  -30.6588   17.3131 C   0  0  0  0  0  0  0  0  0  0  0  0
  -26.1789  -14.6208   21.0380 C   0  0  0  0  0  0  0  0  0  0  0  0
  -23.5839  -13.2213   22.3906 C   0  0  0  0  0  0  0  0  0  0  0  0
  -20.5228  -13.5950   23.8525 C   0  0  0  0  0  0  0  0  0  0  0  0
  -21.8724  -30.8141   23.5112 C   0  0  0  0  0  0  0  0  0  0  0  0
  -29.8998  -11.4739   19.5182 C   0  0  0  0  0  0  0  0  0  0  0  0
  -25.9837  -15.9048   23.1988 C   0  0  0  0  0  0  0  0  0  0  0  0
  -23.3772  -15.6706   21.8218 C   0  0  0  0  0  0  0  0  0  0  0  0
  -28.3775  -11.4025   19.6058 C   0  0  0  0  0  0  0  0  0  0  0  0
  -24.4846  -33.2282   23.3530 C   0  0  0  0  0  0  0  0  0  0  0  0
  -27.7482  -12.6454   18.9844 C   0  0  0  0  0  0  0  0  0  0  0  0
  -25.4372  -32.6677   22.2956 C   0  0  0  0  0  0  0  0  0  0  0  0
  -23.8633  -32.1183   24.1981 C   0  0  0  0  0  0  0  0  0  0  0  0
  -24.1503  -30.4912   22.3695 C   0  0  0  0  0  0  0  0  0  0  0  0
  -28.1759  -13.9134   19.7331 C   0  0  1  0  0  0  0  0  0  0  0  0
  -25.5955  -14.6503   22.4223 C   0  0  1  0  0  0  0  0  0  0  0  0
  -24.7587  -31.5688   21.4557 C   0  0  2  0  0  0  0  0  0  0  0  0
  -18.7377  -31.1668   18.0812 C   0  0  0  0  0  0  0  0  0  0  0  0
  -18.6254  -12.2664   24.8179 C   0  0  0  0  0  0  0  0  0  0  0  0
  -22.6656  -12.4907   19.5740 C   0  0  0  0  0  0  0  0  0  0  0  0
  -20.3870  -12.0409   20.5088 C   0  0  0  0  0  0  0  0  0  0  0  0
  -22.3377  -10.6899   21.2782 C   0  0  0  0  0  0  0  0  0  0  0  0
  -20.8536  -14.8402   26.5169 C   0  0  0  0  0  0  0  0  0  0  0  0
  -22.2820  -26.7321   19.4778 C   0  0  0  0  0  0  0  0  0  0  0  0
  -18.4858  -31.2795   19.5763 C   0  0  0  0  0  0  0  0  0  0  0  0
  -19.4010  -30.3466   20.3704 C   0  0  0  0  0  0  0  0  0  0  0  0
  -21.1502  -21.8446   21.8187 C   0  0  0  0  0  0  0  0  0  0  0  0
  -19.6261  -21.8008   21.8111 C   0  0  0  0  0  0  0  0  0  0  0  0
  -19.1132  -30.4343   21.8733 C   0  0  0  0  0  0  0  0  0  0  0  0
  -21.7529  -20.4721   21.5499 C   0  0  0  0  0  0  0  0  0  1  0  0
  -19.0230  -23.1633   22.1221 C   0  0  0  0  0  0  0  0  0  0  0  0
  -19.9679  -29.4438   22.7023 C   0  0  2  0  0  0  0  0  0  0  0  0
  -22.1246  -13.0959   22.0250 C   0  0  1  0  0  0  0  0  0  0  0  0
  -19.9283  -12.9932   25.1129 C   0  0  2  0  0  0  0  0  0  0  0  0
  -21.8910  -12.1048   20.8500 C   0  0  0  0  0  0  0  0  0  0  0  0
  -26.4236  -29.8867   20.7619 N   0  0  0  0  0  0  0  0  0  0  0  0
  -20.6479  -27.5597   21.3425 N   0  0  0  0  0  0  0  0  0  0  0  0
  -25.7112  -30.9777   20.4328 N   0  0  0  0  0  0  0  0  0  0  0  0
  -24.1460  -14.5009   22.2780 N   0  0  0  0  0  0  0  0  0  0  0  0
  -23.2351  -31.1095   23.3415 N   0  0  0  0  0  0  0  0  0  0  0  0
  -25.3154  -32.5161   18.6757 N   0  0  0  0  0  0  0  0  0  0  0  0
  -28.3814  -29.7002   16.9245 N   0  0  0  0  0  0  0  0  0  0  0  0
  -27.4335  -14.0456   20.9683 N   0  0  0  0  0  0  0  0  0  0  0  0
  -21.4247  -12.7404   23.2547 N   0  0  0  0  0  0  0  0  0  0  0  0
  -21.3546  -29.8507   22.6542 N   0  0  0  0  0  0  0  0  0  0  0  0
  -19.6544  -14.0599   26.1169 N   0  3  0  0  0  0  0  0  0  0  0  0
  -27.1155  -31.5666   16.5088 O   0  0  0  0  0  0  0  0  0  0  0  0
  -25.5377  -15.0840   20.1020 O   0  0  0  0  0  0  0  0  0  0  0  0
  -24.2005  -12.2223   22.7692 O   0  0  0  0  0  0  0  0  0  0  0  0
  -20.2149  -14.7102   23.4375 O   0  0  0  0  0  0  0  0  0  0  0  0
  -21.1681  -31.3716   24.3597 O   0  0  0  0  0  0  0  0  0  0  0  0
  -30.6628  -25.3099   19.4849 O   0  0  0  0  0  0  0  0  0  0  0  0
  -23.1772  -20.5534   21.5847 O   0  0  0  0  0  0  0  0  0  1  0  0
  -19.4682  -24.0964   21.1474 O   0  0  0  0  0  0  0  0  0  0  0  0
  -21.3482  -25.8007   20.0104 O   0  0  0  0  0  0  0  0  0  0  0  0
  -28.8814  -20.4773   21.4539 F   0  0  0  0  0  0  0  0  0  0  0  0
  -30.5454  -23.0740   17.8632 F   0  0  0  0  0  0  0  0  0  0  0  0
  1  2  1  0  0  0  0
  1  5  2  0  0  0  0
  2  6  2  0  0  0  0
  3  8  2  0  0  0  0
  3 17  1  0  0  0  0
  4  9  1  0  0  0  0
  4 17  2  0  0  0  0
  5 19  1  0  0  0  0
  6 21  1  0  0  0  0
  7 10  2  0  0  0  0
  7 20  1  0  0  0  0
  8 23  1  0  0  0  0
  9 23  2  0  0  0  0
 10 24  1  0  0  0  0
 11 13  2  0  0  0  0
 11 25  1  0  0  0  0
 12 14  2  0  0  0  0
 12 26  1  0  0  0  0
 13 27  1  0  0  0  0
 14 30  1  0  0  0  0
 15 22  1  0  0  0  0
 15 24  2  0  0  0  0
 16 27  2  0  0  0  0
 16 28  1  0  0  0  0
 17 29  1  0  0  0  0
 18 29  1  0  0  0  0
 18 32  2  0  0  0  0
 18 33  1  0  0  0  0
 19 21  2  0  0  0  0
 19 38  1  0  0  0  0
 20 22  2  0  0  0  0
 20 39  1  0  0  0  0
 21 47  1  0  0  0  0
 22 40  1  0  0  0  0
 23 84  1  0  0  0  0
 24 85  1  0  0  0  0
 25 28  2  0  0  0  0
 25 84  1  0  0  0  0
 26 31  2  0  0  0  0
 26 86  1  0  0  0  0
 27 88  1  0  0  0  0
 28 89  1  0  0  0  0
 29 68  2  0  0  0  0
 30 64  1  0  0  0  0
 30 69  2  0  0  0  0
 31 69  1  0  0  0  0
 31 87  1  0  0  0  0
 32 70  1  0  0  0  0
 32 73  1  0  0  0  0
 33 74  1  0  0  0  0
 33 79  2  0  0  0  0
 34 48  1  0  0  0  0
 34 75  1  0  0  0  0
 34 80  2  0  0  0  0
 35 65  1  0  0  0  0
 35 71  1  0  0  0  0
 35 81  2  0  0  0  0
 36 66  1  0  0  0  0
 36 76  1  0  0  0  0
 36 82  2  0  0  0  0
 37 72  1  0  0  0  0
 37 77  1  0  0  0  0
 37 83  2  0  0  0  0
 38 41  1  0  0  0  0
 39 48  1  0  0  0  0
 40 71  1  0  0  0  0
 41 43  1  0  0  0  0
 42 44  1  0  0  0  0
 42 45  1  0  0  0  0
 43 47  1  0  0  0  0
 44 49  1  0  0  0  0
 45 72  1  0  0  0  0
 46 49  1  0  0  0  0
 46 72  1  0  0  0  0
 47 75  1  0  0  0  0
 48 71  1  0  0  0  0
 49 70  1  0  0  0  0
 50 57  1  0  0  0  0
 51 66  1  0  0  0  0
 52 67  1  0  0  0  0
 53 67  1  0  0  0  0
 54 67  1  0  0  0  0
 55 78  1  0  0  0  0
 56 87  1  0  0  0  0
 57 58  1  0  0  0  0
 58 61  1  0  0  0  0
 59 60  1  0  0  0  0
 59 62  1  0  0  0  0
 60 63  1  0  0  0  0
 61 64  1  0  0  0  0
 62 85  1  0  0  0  0
 63 86  1  0  0  0  0
 64 77  1  0  0  0  0
 65 67  1  0  0  0  0
 65 76  1  0  0  0  0
 66 78  1  0  0  0  0
 68 70  1  0  0  0  0
M  CHG  1  78   1
M  ISO  4  37 100  62 101  77 100  85 101
M  END
> <Batch ID>
0100

> <Smiles>
CCCCC([100NH:0][100C:0](=O)N1CCCC(n2nc(-c3ccc(Oc4ccc(F)cc4F)cc3)c(C(N)=O)c2N)C1)c1ccc(OCCC[101CH2:1][101O:1]c2ccc3c(c2)CN(C(=O)C(NC(=O)C(C)NC)C(C)(C)C)C(C(=O)NC2CCCc4ccccc42)C3)c(OC)n1

> <Shape>
0.270

> <Color>
0.074

> <Negative vol penalty>
0.000

$$$$

  -OEChem-04052300573D

 83 91  0     1  0  0  0  0  0999 V2000
  -18.9782  -30.4858   24.8323 C   0  0  0  0  0  0  0  0  0  0  0  0
  -20.3486  -30.3500   24.6344 C   0  0  0  0  0  0  0  0  0  0  0  0
  -24.9208  -13.3336   19.7897 C   0  0  0  0  0  0  0  0  0  0  0  0
  -25.3134  -14.0122   22.0750 C   0  0  0  0  0  0  0  0  0  0  0  0
  -18.0995  -29.5559   24.2782 C   0  0  0  0  0  0  0  0  0  0  0  0
  -20.8411  -29.2834   23.8831 C   0  0  0  0  0  0  0  0  0  0  0  0
  -25.7257  -29.3277   20.1894 C   0  0  0  0  0  0  0  0  0  0  0  0
  -24.8716  -11.9996   20.1943 C   0  0  0  0  0  0  0  0  0  0  0  0
  -25.2642  -12.6782   22.4796 C   0  0  0  0  0  0  0  0  0  0  0  0
  -27.0432  -28.9096   20.3715 C   0  0  0  0  0  0  0  0  0  0  0  0
  -24.2834   -8.4451   20.6782 C   0  0  0  0  0  0  0  0  0  0  0  0
  -23.2585   -7.6495   20.1662 C   0  0  0  0  0  0  0  0  0  0  0  0
  -26.5088  -26.7958   19.3391 C   0  0  0  0  0  0  0  0  0  0  0  0
  -29.6475  -20.8362   23.7714 C   0  0  0  0  0  0  0  0  0  0  0  0
  -30.1654  -23.1403   24.2807 C   0  0  0  0  0  0  0  0  0  0  0  0
  -30.4225  -22.3146   22.0248 C   0  0  0  0  0  0  0  0  0  0  0  0
  -21.6198   -9.1258   21.1522 C   0  0  0  0  0  0  0  0  0  0  0  0
  -25.1417  -14.3399   20.7301 C   0  0  0  0  0  0  0  0  0  0  0  0
  -24.1170  -16.6218   20.2295 C   0  0  0  0  0  0  0  0  0  0  0  0
  -18.5809  -28.4828   23.5116 C   0  0  0  0  0  0  0  0  0  0  0  0
  -24.7856  -28.4774   19.5896 C   0  0  0  0  0  0  0  0  0  0  0  0
  -19.9681  -28.3375   23.3194 C   0  0  0  0  0  0  0  0  0  0  0  0
  -25.1806  -27.2065   19.1482 C   0  0  0  0  0  0  0  0  0  0  0  0
  -29.7345  -21.8794   24.6931 C   0  0  0  0  0  0  0  0  0  0  0  0
  -29.9916  -21.0537   22.4372 C   0  0  0  0  0  0  0  0  0  0  0  0
  -25.0433  -11.6719   21.5392 C   0  0  0  0  0  0  0  0  0  0  0  0
  -27.4343  -27.6424   19.9489 C   0  0  0  0  0  0  0  0  0  0  0  0
  -23.9765   -9.5811   21.4273 C   0  0  0  0  0  0  0  0  0  0  0  0
  -30.5094  -23.3579   22.9465 C   0  0  0  0  0  0  0  0  0  0  0  0
  -21.9267   -7.9899   20.4032 C   0  0  0  0  0  0  0  0  0  0  0  0
  -22.6448   -9.9214   21.6643 C   0  0  0  0  0  0  0  0  0  0  0  0
  -25.1932  -15.7181   20.3127 C   0  0  0  0  0  0  0  0  0  0  0  0
  -24.6843  -17.7913   19.7856 C   0  0  0  0  0  0  0  0  0  0  0  0
  -22.7287  -16.4221   20.5268 C   0  0  0  0  0  0  0  0  0  0  0  0
  -22.0607  -27.1328   20.5225 C   0  0  0  0  0  0  0  0  0  0  0  0
  -21.9245  -26.1778   17.4254 C   0  0  0  0  0  0  0  0  0  0  0  0
  -23.5957  -25.4775   14.5334 C   0  0  0  0  0  0  0  0  0  0  0  0
  -29.8964  -25.4414   22.1146 C   0  0  0  0  0  0  0  0  0  0  0  0
  -30.2087  -20.0406   20.1410 C   0  0  0  0  0  0  0  0  0  0  0  0
  -17.5955  -27.4763   22.9724 C   0  0  0  0  0  0  0  0  0  0  0  0
  -23.3749  -28.9535   19.3762 C   0  0  0  0  0  0  0  0  0  0  0  0
  -24.2148  -26.2633   18.4804 C   0  0  0  0  0  0  0  0  0  0  0  0
  -18.1733  -26.5856   21.8756 C   0  0  0  0  0  0  0  0  0  0  0  0
  -28.3503  -19.4177   17.1685 C   0  0  0  0  0  0  0  0  0  0  0  0
  -19.5454  -26.0585   22.2836 C   0  0  0  0  0  0  0  0  0  0  0  0
  -27.2283  -18.4854   17.6311 C   0  0  0  0  0  0  0  0  0  0  0  0
  -29.6631  -19.1291   17.8946 C   0  0  0  0  0  0  0  0  0  0  0  0
  -28.4513  -18.1897   19.8229 C   0  0  0  0  0  0  0  0  0  0  0  0
  -20.5391  -27.2081   22.4897 C   0  0  1  0  0  0  0  0  0  0  0  0
  -22.3760  -27.8110   19.2194 C   0  0  1  0  0  0  0  0  0  0  0  0
  -27.0929  -18.4852   19.1664 C   0  0  2  0  0  0  0  0  0  0  0  0
  -23.2184  -24.6824   12.1834 C   0  0  0  0  0  0  0  0  0  0  0  0
  -21.5597  -23.3273   18.4510 C   0  0  0  0  0  0  0  0  0  0  0  0
  -22.1386  -22.5029   16.1590 C   0  0  0  0  0  0  0  0  0  0  0  0
  -20.1177  -23.9256   16.4972 C   0  0  0  0  0  0  0  0  0  0  0  0
  -24.6693  -27.9866   13.3887 C   0  0  0  0  0  0  0  0  0  0  0  0
  -30.4866  -26.7717   21.6947 C   0  0  0  0  0  0  0  0  0  0  0  0
  -29.4225  -27.7634   21.2482 C   0  0  0  0  0  0  0  0  0  1  0  0
  -22.4126  -24.9747   16.6552 C   0  0  1  0  0  0  0  0  0  0  0  0
  -23.3392  -25.8928   13.0960 C   0  0  2  0  0  0  0  0  0  0  0  0
  -21.5751  -23.6994   16.9549 C   0  0  0  0  0  0  0  0  0  0  0  0
  -26.3561  -16.2663   19.9507 N   0  0  0  0  0  0  0  0  0  0  0  0
  -26.0139  -17.5271   19.6355 N   0  0  0  0  0  0  0  0  0  0  0  0
  -22.8451  -26.7723   18.3000 N   0  0  0  0  0  0  0  0  0  0  0  0
  -29.4587  -19.1495   19.3446 N   0  0  0  0  0  0  0  0  0  0  0  0
  -29.3867  -21.6598   26.0424 N   0  0  0  0  0  0  0  0  0  0  0  0
  -24.1705  -19.0095   19.5129 N   0  0  0  0  0  0  0  0  0  0  0  0
  -22.3158  -15.1589   20.9721 N   0  0  0  0  0  0  0  0  0  0  0  0
  -29.9051  -19.9935   21.5012 N   0  0  0  0  0  0  0  0  0  0  0  0
  -21.0097  -27.7041   21.2142 N   0  0  0  0  0  0  0  0  0  0  0  0
  -22.4228  -25.3662   15.2499 N   0  0  0  0  0  0  0  0  0  0  0  0
  -24.4532  -26.7481   12.5974 N   0  3  0  0  0  0  0  0  0  0  0  0
  -21.8768  -17.3320   20.3857 O   0  0  0  0  0  0  0  0  0  0  0  0
  -22.7209  -26.1620   20.8737 O   0  0  0  0  0  0  0  0  0  0  0  0
  -20.7713  -26.5797   17.2521 O   0  0  0  0  0  0  0  0  0  0  0  0
  -24.7233  -25.2687   14.9754 O   0  0  0  0  0  0  0  0  0  0  0  0
  -28.7083  -25.1505   22.0862 O   0  0  0  0  0  0  0  0  0  0  0  0
  -31.0384  -20.8096   19.6488 O   0  0  0  0  0  0  0  0  0  0  0  0
  -24.9952  -10.3703   21.9343 O   0  0  0  0  0  0  0  0  0  0  0  0
  -30.9420  -24.6203   22.5337 O   0  0  0  0  0  0  0  0  0  0  0  0
  -28.7194  -27.2316   20.1261 O   0  0  0  0  0  0  0  0  0  1  0  0
  -20.9426   -7.2266   19.9101 F   0  0  0  0  0  0  0  0  0  0  0  0
  -22.3438  -11.0122   22.3822 F   0  0  0  0  0  0  0  0  0  0  0  0
  1  2  1  0  0  0  0
  1  5  2  0  0  0  0
  2  6  2  0  0  0  0
  3  8  2  0  0  0  0
  3 18  1  0  0  0  0
  4  9  1  0  0  0  0
  4 18  2  0  0  0  0
  5 20  1  0  0  0  0
  6 22  1  0  0  0  0
  7 10  2  0  0  0  0
  7 21  1  0  0  0  0
  8 26  1  0  0  0  0
  9 26  2  0  0  0  0
 10 27  1  0  0  0  0
 11 12  2  0  0  0  0
 11 28  1  0  0  0  0
 12 30  1  0  0  0  0
 13 23  1  0  0  0  0
 13 27  2  0  0  0  0
 14 24  1  0  0  0  0
 14 25  2  0  0  0  0
 15 24  2  0  0  0  0
 15 29  1  0  0  0  0
 16 25  1  0  0  0  0
 16 29  2  0  0  0  0
 17 30  2  0  0  0  0
 17 31  1  0  0  0  0
 18 32  1  0  0  0  0
 19 32  1  0  0  0  0
 19 33  2  0  0  0  0
 19 34  1  0  0  0  0
 20 22  2  0  0  0  0
 20 40  1  0  0  0  0
 21 23  2  0  0  0  0
 21 41  1  0  0  0  0
 22 49  1  0  0  0  0
 23 42  1  0  0  0  0
 24 66  1  0  0  0  0
 25 69  1  0  0  0  0
 26 79  1  0  0  0  0
 27 81  1  0  0  0  0
 28 31  2  0  0  0  0
 28 79  1  0  0  0  0
 29 80  1  0  0  0  0
 30 82  1  0  0  0  0
 31 83  1  0  0  0  0
 32 62  2  0  0  0  0
 33 63  1  0  0  0  0
 33 67  1  0  0  0  0
 34 68  1  0  0  0  0
 34 73  2  0  0  0  0
 35 50  1  0  0  0  0
 35 70  1  0  0  0  0
 35 74  2  0  0  0  0
 36 59  1  0  0  0  0
 36 64  1  0  0  0  0
 36 75  2  0  0  0  0
 37 60  1  0  0  0  0
 37 71  1  0  0  0  0
 37 76  2  0  0  0  0
 38 57  1  0  0  0  0
 38 77  2  0  0  0  0
 38 80  1  0  0  0  0
 39 65  1  0  0  0  0
 39 69  1  0  0  0  0
 39 78  2  0  0  0  0
 40 43  1  0  0  0  0
 41 50  1  0  0  0  0
 42 64  1  0  0  0  0
 43 45  1  0  0  0  0
 44 46  1  0  0  0  0
 44 47  1  0  0  0  0
 45 49  1  0  0  0  0
 46 51  1  0  0  0  0
 47 65  1  0  0  0  0
 48 51  1  0  0  0  0
 48 65  1  0  0  0  0
 49 70  1  0  0  0  0
 50 64  1  0  0  0  0
 51 63  1  0  0  0  0
 52 60  1  0  0  0  0
 53 61  1  0  0  0  0
 54 61  1  0  0  0  0
 55 61  1  0  0  0  0
 56 72  1  0  0  0  0
 57 58  1  0  0  0  0
 58 81  1  0  0  0  0
 59 61  1  0  0  0  0
 59 71  1  0  0  0  0
 60 72  1  0  0  0  0
 62 63  1  0  0  0  0
M  CHG  1  72   1
M  ISO  4  39 100  58 101  69 100  81 101
M  END
> <Batch ID>
0100

> <Smiles>
CNC(C)C(=O)NC(C(=O)N1Cc2cc([101O:1][101CH2:1]CC(=O)Oc3cc(N)cc([100NH:0][100C:0](=O)N4CCCC(n5nc(-c6ccc(Oc7ccc(F)cc7F)cc6)c(C(N)=O)c5N)C4)c3)ccc2CC1C(=O)NC1CCCc2ccccc21)C(C)(C)C

> <Shape>
0.227

> <Color>
0.076

> <Negative vol penalty>
0.000

$$$$

  -OEChem-04052300573D

 89 98  0     1  0  0  0  0  0999 V2000
  -34.5252  -29.0734   18.6235 C   0  0  0  0  0  0  0  0  0  0  0  0
  -33.4984  -28.6154   17.8041 C   0  0  0  0  0  0  0  0  0  0  0  0
  -28.1519  -17.8674   20.0699 C   0  0  0  0  0  0  0  0  0  0  0  0
  -30.2885  -18.7088   19.3190 C   0  0  0  0  0  0  0  0  0  0  0  0
  -34.4412  -28.9043   20.0049 C   0  0  0  0  0  0  0  0  0  0  0  0
  -32.3875  -27.9868   18.3657 C   0  0  0  0  0  0  0  0  0  0  0  0
  -25.3385  -27.1783   17.3790 C   0  0  0  0  0  0  0  0  0  0  0  0
  -28.7323  -16.6261   20.3306 C   0  0  0  0  0  0  0  0  0  0  0  0
  -30.8690  -17.4675   19.5797 C   0  0  0  0  0  0  0  0  0  0  0  0
  -24.3730  -26.1777   17.2769 C   0  0  0  0  0  0  0  0  0  0  0  0
  -29.6896  -13.9051   18.5688 C   0  0  0  0  0  0  0  0  0  0  0  0
  -29.0020  -12.7675   18.1462 C   0  0  0  0  0  0  0  0  0  0  0  0
  -24.2995  -26.0114   19.6823 C   0  0  0  0  0  0  0  0  0  0  0  0
  -20.6010  -20.1408   19.0747 C   0  0  0  0  0  0  0  0  0  0  0  0
  -19.5948  -18.7677   17.3604 C   0  0  0  0  0  0  0  0  0  0  0  0
  -28.8863  -11.9890   20.4305 C   0  0  0  0  0  0  0  0  0  0  0  0
  -28.9300  -18.9087   19.5640 C   0  0  0  0  0  0  0  0  0  0  0  0
  -21.0292  -20.6114   16.7439 C   0  0  0  0  0  0  0  0  0  0  0  0
  -28.2143  -21.2785   20.1802 C   0  0  0  0  0  0  0  0  0  0  0  0
  -33.3243  -28.2820   20.5844 C   0  0  0  0  0  0  0  0  0  0  0  0
  -25.8004  -27.5960   18.6354 C   0  0  0  0  0  0  0  0  0  0  0  0
  -32.2892  -27.8080   19.7560 C   0  0  0  0  0  0  0  0  0  0  0  0
  -25.2690  -27.0193   19.7978 C   0  0  0  0  0  0  0  0  0  0  0  0
  -19.7874  -19.0685   18.7087 C   0  0  0  0  0  0  0  0  0  0  0  0
  -30.0908  -16.4262   20.0856 C   0  0  0  0  0  0  0  0  0  0  0  0
  -23.8554  -25.5921   18.4285 C   0  0  0  0  0  0  0  0  0  0  0  0
  -29.9756  -14.0848   19.9221 C   0  0  0  0  0  0  0  0  0  0  0  0
  -21.2218  -20.9123   18.0923 C   0  0  0  0  0  0  0  0  0  0  0  0
  -28.6004  -11.8094   19.0771 C   0  0  0  0  0  0  0  0  0  0  0  0
  -20.2156  -19.5391   16.3780 C   0  0  0  0  0  0  0  0  0  0  0  0
  -29.5740  -13.1267   20.8530 C   0  0  0  0  0  0  0  0  0  0  0  0
  -28.3309  -20.1910   19.2939 C   0  0  0  0  0  0  0  0  0  0  0  0
  -27.5757  -22.2503   19.4493 C   0  0  0  0  0  0  0  0  0  0  0  0
  -19.2489  -18.4586   21.1074 C   0  0  0  0  0  0  0  0  0  0  0  0
  -21.6833  -21.4221   15.6848 C   0  0  0  0  0  0  0  0  0  0  0  0
  -28.6450  -21.3994   21.5424 C   0  0  0  0  0  0  0  0  0  0  0  0
  -28.6178  -27.5837   20.1072 C   0  0  0  0  0  0  0  0  0  0  0  0
  -27.0039  -29.2536   22.3720 C   0  0  0  0  0  0  0  0  0  0  0  0
  -24.0115  -30.0266   23.8193 C   0  0  0  0  0  0  0  0  0  0  0  0
  -23.8854  -22.1125   14.7916 C   0  0  0  0  0  0  0  0  0  0  0  0
  -33.3002  -28.0794   22.0788 C   0  0  0  0  0  0  0  0  0  0  0  0
  -26.8228  -28.6952   18.7293 C   0  0  0  0  0  0  0  0  0  0  0  0
  -25.7167  -27.4463   21.1710 C   0  0  0  0  0  0  0  0  0  0  0  0
  -18.4901  -17.3241   21.7578 C   0  0  0  0  0  0  0  0  0  0  0  0
  -31.9161  -27.7384   22.6249 C   0  0  0  0  0  0  0  0  0  0  0  0
  -17.5721  -16.8384   20.6540 C   0  0  0  0  0  0  0  0  0  0  0  0
  -27.0008  -23.7764   14.9417 C   0  0  0  0  0  0  0  0  0  0  0  0
  -31.2560  -26.6603   21.7712 C   0  0  0  0  0  0  0  0  0  0  0  0
  -27.6820  -23.1577   16.1654 C   0  0  0  0  0  0  0  0  0  0  0  0
  -18.3681  -17.1032   19.3932 C   0  0  0  0  0  0  0  0  0  0  0  0
  -26.1975  -22.7413   14.1555 C   0  0  0  0  0  0  0  0  0  0  0  0
  -25.9167  -21.3501   16.1664 C   0  0  0  0  0  0  0  0  0  0  0  0
  -31.0565  -27.1434   20.3296 C   0  0  1  0  0  0  0  0  0  0  0  0
  -27.5948  -28.6824   20.0451 C   0  0  1  0  0  0  0  0  0  0  0  0
  -26.6807  -22.3664   17.0305 C   0  0  1  0  0  0  0  0  0  0  0  0
  -23.0147  -31.3914   25.6742 C   0  0  0  0  0  0  0  0  0  0  0  0
  -27.9854  -27.2017   24.4058 C   0  0  0  0  0  0  0  0  0  0  0  0
  -26.2361  -28.0382   25.9897 C   0  0  0  0  0  0  0  0  0  0  0  0
  -28.0407  -29.5710   25.2044 C   0  0  0  0  0  0  0  0  0  0  0  0
  -22.3914  -31.6260   21.9282 C   0  0  0  0  0  0  0  0  0  0  0  0
  -22.4268  -24.0585   19.5523 C   0  0  0  0  0  0  0  0  0  1  0  0
  -21.3979  -22.9908   19.2345 C   0  0  0  0  0  0  0  0  0  0  0  0
  -26.2069  -28.8919   23.6019 C   0  0  1  0  0  0  0  0  0  0  0  0
  -23.3916  -31.3586   24.2013 C   0  0  2  0  0  0  0  0  0  0  0  0
  -27.1100  -28.4161   24.7747 C   0  0  0  0  0  0  0  0  0  0  0  0
  -27.8081  -20.4472   18.0918 N   0  0  0  0  0  0  0  0  0  0  0  0
  -27.3568  -21.7068   18.2177 N   0  0  0  0  0  0  0  0  0  0  0  0
  -19.1523  -18.2802   19.7135 N   0  0  0  0  0  0  0  0  0  0  0  0
  -26.7229  -28.5204   21.2104 N   0  0  0  0  0  0  0  0  0  0  0  0
  -25.2666  -22.0430   15.0439 N   0  0  0  0  0  0  0  0  0  0  0  0
  -27.1856  -23.5080   19.7464 N   0  0  0  0  0  0  0  0  0  0  0  0
  -29.2851  -20.3054   22.1405 N   0  0  0  0  0  0  0  0  0  0  0  0
  -23.0777  -21.4481   15.7213 N   0  0  0  0  0  0  0  0  0  0  0  0
  -29.9173  -28.0321   20.2475 N   0  0  0  0  0  0  0  0  0  0  0  0
  -25.3867  -30.0574   23.9142 N   0  0  0  0  0  0  0  0  0  0  0  0
  -22.1627  -31.6080   23.3960 N   0  3  0  0  0  0  0  0  0  0  0  0
  -19.8574  -19.2987   21.7542 O   0  0  0  0  0  0  0  0  0  0  0  0
  -20.9862  -21.9747   14.8384 O   0  0  0  0  0  0  0  0  0  0  0  0
  -28.4527  -22.4409   22.2147 O   0  0  0  0  0  0  0  0  0  0  0  0
  -28.2548  -26.4154   20.0347 O   0  0  0  0  0  0  0  0  0  0  0  0
  -27.8399  -30.1583   22.4375 O   0  0  0  0  0  0  0  0  0  0  0  0
  -23.3424  -29.0549   23.4749 O   0  0  0  0  0  0  0  0  0  0  0  0
  -23.4096  -22.7433   13.8424 O   0  0  0  0  0  0  0  0  0  0  0  0
  -30.6576  -15.2152   20.3401 O   0  0  0  0  0  0  0  0  0  0  0  0
  -22.9134  -24.6148   18.3317 O   0  0  0  0  0  0  0  0  0  1  0  0
  -22.0167  -21.9616   18.4721 O   0  0  0  0  0  0  0  0  0  0  0  0
  -27.9388  -10.7177   18.6714 F   0  0  0  0  0  0  0  0  0  0  0  0
  -20.0239  -19.2393   15.0854 F   0  0  0  0  0  0  0  0  0  0  0  0
  -29.8448  -13.2944   22.1547 F   0  0  0  0  0  0  0  0  0  0  0  0
  1  2  1  0  0  0  0
  1  5  2  0  0  0  0
  2  6  2  0  0  0  0
  3  8  2  0  0  0  0
  3 17  1  0  0  0  0
  4  9  1  0  0  0  0
  4 17  2  0  0  0  0
  5 20  1  0  0  0  0
  6 22  1  0  0  0  0
  7 10  2  0  0  0  0
  7 21  1  0  0  0  0
  8 25  1  0  0  0  0
  9 25  2  0  0  0  0
 10 26  1  0  0  0  0
 11 12  2  0  0  0  0
 11 27  1  0  0  0  0
 12 29  1  0  0  0  0
 13 23  1  0  0  0  0
 13 26  2  0  0  0  0
 14 24  2  0  0  0  0
 14 28  1  0  0  0  0
 15 24  1  0  0  0  0
 15 30  2  0  0  0  0
 16 29  2  0  0  0  0
 16 31  1  0  0  0  0
 17 32  1  0  0  0  0
 18 28  2  0  0  0  0
 18 30  1  0  0  0  0
 18 35  1  0  0  0  0
 19 32  1  0  0  0  0
 19 33  2  0  0  0  0
 19 36  1  0  0  0  0
 20 22  2  0  0  0  0
 20 41  1  0  0  0  0
 21 23  2  0  0  0  0
 21 42  1  0  0  0  0
 22 53  1  0  0  0  0
 23 43  1  0  0  0  0
 24 68  1  0  0  0  0
 25 84  1  0  0  0  0
 26 85  1  0  0  0  0
 27 31  2  0  0  0  0
 27 84  1  0  0  0  0
 28 86  1  0  0  0  0
 29 87  1  0  0  0  0
 30 88  1  0  0  0  0
 31 89  1  0  0  0  0
 32 66  2  0  0  0  0
 33 67  1  0  0  0  0
 33 71  1  0  0  0  0
 34 44  1  0  0  0  0
 34 68  1  0  0  0  0
 34 77  2  0  0  0  0
 35 73  1  0  0  0  0
 35 78  2  0  0  0  0
 36 72  1  0  0  0  0
 36 79  2  0  0  0  0
 37 54  1  0  0  0  0
 37 74  1  0  0  0  0
 37 80  2  0  0  0  0
 38 63  1  0  0  0  0
 38 69  1  0  0  0  0
 38 81  2  0  0  0  0
 39 64  1  0  0  0  0
 39 75  1  0  0  0  0
 39 82  2  0  0  0  0
 40 70  1  0  0  0  0
 40 73  1  0  0  0  0
 40 83  2  0  0  0  0
 41 45  1  0  0  0  0
 42 54  1  0  0  0  0
 43 69  1  0  0  0  0
 44 46  1  0  0  0  0
 45 48  1  0  0  0  0
 46 50  1  0  0  0  0
 47 49  1  0  0  0  0
 47 51  1  0  0  0  0
 48 53  1  0  0  0  0
 49 55  1  0  0  0  0
 50 68  1  0  0  0  0
 51 70  1  0  0  0  0
 52 55  1  0  0  0  0
 52 70  1  0  0  0  0
 53 74  1  0  0  0  0
 54 69  1  0  0  0  0
 55 67  1  0  0  0  0
 56 64  1  0  0  0  0
 57 65  1  0  0  0  0
 58 65  1  0  0  0  0
 59 65  1  0  0  0  0
 60 76  1  0  0  0  0
 61 62  1  0  0  0  0
 61 85  1  0  0  0  0
 62 86  1  0  0  0  0
 63 65  1  0  0  0  0
 63 75  1  0  0  0  0
 64 76  1  0  0  0  0
 66 67  1  0  0  0  0
M  CHG  1  76   1
M  ISO  4  40 100  61 101  73 100  85 101
M  END
> <Batch ID>
0100

> <Smiles>
CNC(C)C(=O)NC(C(=O)N1Cc2cc([101O:1][101CH2:1]COc3cc(N4CCCC4=O)cc(F)c3C(=O)[100NH:0][100C:0](=O)N3CCCC(n4nc(-c5ccc(Oc6ccc(F)cc6F)cc5)c(C(N)=O)c4N)C3)ccc2CC1C(=O)NC1CCCc2ccccc21)C(C)(C)C

> <Shape>
0.188

> <Color>
0.069

> <Negative vol penalty>
0.000

$$$$

  -OEChem-04052300573D

 86 95  0     1  0  0  0  0  0999 V2000
  -26.5182  -38.1914   20.9755 C   0  0  0  0  0  0  0  0  0  0  0  0
  -27.1446  -37.1249   20.3386 C   0  0  0  0  0  0  0  0  0  0  0  0
  -24.7509   -8.8870   22.3967 C   0  0  0  0  0  0  0  0  0  0  0  0
  -25.2875   -7.6900   20.3678 C   0  0  0  0  0  0  0  0  0  0  0  0
  -25.8206  -37.9797   22.1640 C   0  0  0  0  0  0  0  0  0  0  0  0
  -27.0748  -35.8462   20.8906 C   0  0  0  0  0  0  0  0  0  0  0  0
  -26.8217  -28.9469   18.9798 C   0  0  0  0  0  0  0  0  0  0  0  0
  -23.4914   -8.2880   22.4170 C   0  0  0  0  0  0  0  0  0  0  0  0
  -24.0280   -7.0910   20.3881 C   0  0  0  0  0  0  0  0  0  0  0  0
  -27.4632  -27.7351   19.2324 C   0  0  0  0  0  0  0  0  0  0  0  0
  -20.2691   -6.7990   23.2008 C   0  0  0  0  0  0  0  0  0  0  0  0
  -19.8101   -6.2952   24.4178 C   0  0  0  0  0  0  0  0  0  0  0  0
  -26.1634  -27.4740   21.2477 C   0  0  0  0  0  0  0  0  0  0  0  0
  -21.7056   -4.8002   24.5138 C   0  0  0  0  0  0  0  0  0  0  0  0
  -25.6490   -8.5881   21.3721 C   0  0  0  0  0  0  0  0  0  0  0  0
  -28.1307   -8.7251   21.9466 C   0  0  0  0  0  0  0  0  0  0  0  0
  -25.7340  -36.6961   22.7257 C   0  0  0  0  0  0  0  0  0  0  0  0
  -25.8524  -29.4375   19.8664 C   0  0  0  0  0  0  0  0  0  0  0  0
  -26.3765  -35.6175   22.0884 C   0  0  0  0  0  0  0  0  0  0  0  0
  -25.5092  -28.6911   21.0027 C   0  0  0  0  0  0  0  0  0  0  0  0
  -23.1299   -7.3900   21.4127 C   0  0  0  0  0  0  0  0  0  0  0  0
  -27.1362  -26.9999   20.3680 C   0  0  0  0  0  0  0  0  0  0  0  0
  -21.4463   -6.3034   22.6402 C   0  0  0  0  0  0  0  0  0  0  0  0
  -20.5283   -5.2958   25.0743 C   0  0  0  0  0  0  0  0  0  0  0  0
  -22.1646   -5.3040   23.2968 C   0  0  0  0  0  0  0  0  0  0  0  0
  -26.9500   -9.2069   21.3502 C   0  0  0  0  0  0  0  0  0  0  0  0
  -29.0802   -9.6690   21.6399 C   0  0  0  0  0  0  0  0  0  0  0  0
  -30.5758  -24.0242   20.6564 C   0  0  0  0  0  0  0  0  0  0  0  0
  -30.4068  -21.6405   20.9314 C   0  0  0  0  0  0  0  0  0  0  0  0
  -29.3487  -24.1088   20.1189 C   0  0  0  0  0  0  0  0  0  0  0  0
  -31.1220  -22.7621   21.0743 C   0  0  0  0  0  0  0  0  0  0  0  0
  -28.5319  -22.8531   19.9516 C   0  0  0  0  0  0  0  0  0  0  0  0
  -28.7650  -17.8723   20.1212 C   0  0  0  0  0  0  0  0  0  0  0  0
  -28.3496   -7.5311   22.7095 C   0  0  0  0  0  0  0  0  0  0  0  0
  -25.5822  -32.0317   21.6832 C   0  0  0  0  0  0  0  0  0  0  0  0
  -22.6097  -30.8577   22.2381 C   0  0  0  0  0  0  0  0  0  0  0  0
  -20.5323  -28.1513   22.3206 C   0  0  0  0  0  0  0  0  0  0  0  0
  -28.4106  -15.4624   20.3645 C   0  0  0  0  0  0  0  0  0  0  0  0
  -25.0087  -36.5249   24.0369 C   0  0  0  0  0  0  0  0  0  0  0  0
  -25.1505  -30.7334   19.5657 C   0  0  0  0  0  0  0  0  0  0  0  0
  -24.4610  -29.1640   21.9754 C   0  0  0  0  0  0  0  0  0  0  0  0
  -24.6663  -35.0724   24.3584 C   0  0  0  0  0  0  0  0  0  0  0  0
  -30.2130  -12.9299   18.3570 C   0  0  0  0  0  0  0  0  0  0  0  0
  -25.8739  -34.1728   24.1148 C   0  0  0  0  0  0  0  0  0  0  0  0
  -29.6206  -11.6424   18.9206 C   0  0  0  0  0  0  0  0  0  0  0  0
  -29.2072  -14.0803   18.3689 C   0  0  0  0  0  0  0  0  0  0  0  0
  -28.0141  -13.0359   20.2784 C   0  0  0  0  0  0  0  0  0  0  0  0
  -26.3025  -34.2114   22.6430 C   0  0  1  0  0  0  0  0  0  0  0  0
  -24.5472  -31.3877   20.8048 C   0  0  1  0  0  0  0  0  0  0  0  0
  -29.0323  -11.8869   20.3179 C   0  0  1  0  0  0  0  0  0  0  0  0
  -28.3054  -19.6565   21.6080 C   0  0  1  0  0  0  0  0  0  0  0  0
  -28.4309  -20.3927   20.2666 C   0  0  1  0  0  0  0  0  0  0  0  0
  -27.0604  -20.0543   22.3821 C   0  0  0  0  0  0  0  0  0  0  0  0
  -18.1675  -27.4986   22.8486 C   0  0  0  0  0  0  0  0  0  0  0  0
  -23.2216  -31.0625   25.2204 C   0  0  0  0  0  0  0  0  0  0  0  0
  -21.2727  -29.5515   25.6530 C   0  0  0  0  0  0  0  0  0  0  0  0
  -20.9115  -31.7735   24.5782 C   0  0  0  0  0  0  0  0  0  0  0  0
  -20.0573  -27.1949   19.5604 C   0  0  0  0  0  0  0  0  0  0  0  0
  -28.7421  -25.3892   19.6732 C   0  0  0  0  0  0  0  0  0  1  0  0
  -22.0034  -29.9182   23.2524 C   0  0  1  0  0  0  0  0  0  0  0  0
  -19.1376  -27.9347   21.7617 C   0  0  2  0  0  0  0  0  0  0  0  0
  -21.8735  -30.5682   24.6589 C   0  0  0  0  0  0  0  0  0  0  0  0
  -27.1304  -10.3669   20.7130 N   0  0  0  0  0  0  0  0  0  0  0  0
  -28.4355  -10.6218   20.9073 N   0  0  0  0  0  0  0  0  0  0  0  0
  -29.1365  -21.6640   20.3838 N   0  0  0  0  0  0  0  0  0  0  0  0
  -23.8074  -30.4401   21.6409 N   0  0  0  0  0  0  0  0  0  0  0  0
  -28.5862  -14.2515   19.6895 N   0  0  0  0  0  0  0  0  0  0  0  0
  -28.2332  -18.2156   21.2918 N   0  3  0  0  0  0  0  0  0  0  0  0
  -30.3952   -9.7686   21.9281 N   0  0  0  0  0  0  0  0  0  0  0  0
  -27.2650   -6.6713   22.9307 N   0  0  0  0  0  0  0  0  0  0  0  0
  -28.8661  -16.6339   19.6599 N   0  0  0  0  0  0  0  0  0  0  0  0
  -25.4193  -33.3952   21.8378 N   0  0  0  0  0  0  0  0  0  0  0  0
  -20.7383  -29.4653   22.6843 N   0  0  0  0  0  0  0  0  0  0  0  0
  -19.1608  -26.8853   20.7038 N   0  3  0  0  0  0  0  0  0  0  0  0
  -27.4061  -22.9247   19.4585 O   0  0  0  0  0  0  0  0  0  0  0  0
  -29.4699   -7.2435   23.1949 O   0  0  0  0  0  0  0  0  0  0  0  0
  -26.4625  -31.3424   22.1848 O   0  0  0  0  0  0  0  0  0  0  0  0
  -22.0377  -31.9197   21.9799 O   0  0  0  0  0  0  0  0  0  0  0  0
  -21.3553  -27.2448   22.4275 O   0  0  0  0  0  0  0  0  0  0  0  0
  -27.8911  -15.5990   21.4675 O   0  0  0  0  0  0  0  0  0  0  0  0
  -32.3858  -22.8071   21.6095 O   0  0  0  0  0  0  0  0  0  0  0  0
  -21.9011   -6.8051   21.4323 O   0  0  0  0  0  0  0  0  0  0  0  0
  -27.7613  -25.8171   20.6173 O   0  0  0  0  0  0  0  0  0  1  0  0
  -20.0883   -4.8132   26.2438 F   0  0  0  0  0  0  0  0  0  0  0  0
  -23.2968   -4.8248   22.7638 F   0  0  0  0  0  0  0  0  0  0  0  0
  -29.3249  -19.2289   19.1895 S   0  0  0  0  0  0  0  0  0  0  0  0
  1  2  1  0  0  0  0
  1  5  2  0  0  0  0
  2  6  2  0  0  0  0
  3  8  2  0  0  0  0
  3 15  1  0  0  0  0
  4  9  1  0  0  0  0
  4 15  2  0  0  0  0
  5 17  1  0  0  0  0
  6 19  1  0  0  0  0
  7 10  2  0  0  0  0
  7 18  1  0  0  0  0
  8 21  1  0  0  0  0
  9 21  2  0  0  0  0
 10 22  1  0  0  0  0
 11 12  2  0  0  0  0
 11 23  1  0  0  0  0
 12 24  1  0  0  0  0
 13 20  1  0  0  0  0
 13 22  2  0  0  0  0
 14 24  2  0  0  0  0
 14 25  1  0  0  0  0
 15 26  1  0  0  0  0
 16 26  1  0  0  0  0
 16 27  2  0  0  0  0
 16 34  1  0  0  0  0
 17 19  2  0  0  0  0
 17 39  1  0  0  0  0
 18 20  2  0  0  0  0
 18 40  1  0  0  0  0
 19 48  1  0  0  0  0
 20 41  1  0  0  0  0
 21 82  1  0  0  0  0
 22 83  1  0  0  0  0
 23 25  2  0  0  0  0
 23 82  1  0  0  0  0
 24 84  1  0  0  0  0
 25 85  1  0  0  0  0
 26 63  2  0  0  0  0
 27 64  1  0  0  0  0
 27 69  1  0  0  0  0
 28 30  2  0  0  0  0
 28 31  1  0  0  0  0
 29 31  2  0  0  0  0
 29 65  1  0  0  0  0
 30 32  1  0  0  0  0
 30 59  1  0  0  0  0
 31 81  1  0  0  0  0
 32 65  1  0  0  0  0
 32 75  2  0  0  0  0
 33 68  2  0  0  0  0
 33 71  1  0  0  0  0
 33 86  1  0  0  0  0
 34 70  1  0  0  0  0
 34 76  2  0  0  0  0
 35 49  1  0  0  0  0
 35 72  1  0  0  0  0
 35 77  2  0  0  0  0
 36 60  1  0  0  0  0
 36 66  1  0  0  0  0
 36 78  2  0  0  0  0
 37 61  1  0  0  0  0
 37 73  1  0  0  0  0
 37 79  2  0  0  0  0
 38 67  1  0  0  0  0
 38 71  1  0  0  0  0
 38 80  2  0  0  0  0
 39 42  1  0  0  0  0
 40 49  1  0  0  0  0
 41 66  1  0  0  0  0
 42 44  1  0  0  0  0
 43 45  1  0  0  0  0
 43 46  1  0  0  0  0
 44 48  1  0  0  0  0
 45 50  1  0  0  0  0
 46 67  1  0  0  0  0
 47 50  1  0  0  0  0
 47 67  1  0  0  0  0
 48 72  1  0  0  0  0
 49 66  1  0  0  0  0
 50 64  1  0  0  0  0
 51 52  1  0  0  0  0
 51 53  1  0  0  0  0
 51 68  1  0  0  0  0
 52 65  1  0  0  0  0
 52 86  1  0  0  0  0
 54 61  1  0  0  0  0
 55 62  1  0  0  0  0
 56 62  1  0  0  0  0
 57 62  1  0  0  0  0
 58 74  1  0  0  0  0
 59 83  1  0  0  0  0
 60 62  1  0  0  0  0
 60 73  1  0  0  0  0
 61 74  1  0  0  0  0
 63 64  1  0  0  0  0
M  CHG  2  68   1  74   1
M  ISO  4  38 100  59 101  71 100  83 101
M  END
> <Batch ID>
0100

> <Smiles>
CNC(C)C(=O)NC(C(=O)N1Cc2cc([101O:1][101CH2:1]C3CC(=O)CN(c4sc([100NH:0][100C:0](=O)N5CCCC(n6nc(-c7ccc(Oc8ccc(F)cc8F)cc7)c(C(N)=O)c6N)C5)nc4C)C3=O)ccc2CC1C(=O)NC1CCCc2ccccc21)C(C)(C)C

> <Shape>
0.326

> <Color>
0.091

> <Negative vol penalty>
0.000

$$$$

  -OEChem-04052300573D

 85 94  0     1  0  0  0  0  0999 V2000
  -29.0064  -35.3921   13.9782 C   0  0  0  0  0  0  0  0  0  0  0  0
  -29.4671  -34.2427   14.6122 C   0  0  0  0  0  0  0  0  0  0  0  0
  -24.4601   -9.5394   21.3933 C   0  0  0  0  0  0  0  0  0  0  0  0
  -24.8773  -10.5789   23.5339 C   0  0  0  0  0  0  0  0  0  0  0  0
  -28.2128  -36.3014   14.6763 C   0  0  0  0  0  0  0  0  0  0  0  0
  -29.1355  -34.0025   15.9452 C   0  0  0  0  0  0  0  0  0  0  0  0
  -28.0785  -28.5631   18.5533 C   0  0  0  0  0  0  0  0  0  0  0  0
  -24.1464   -8.3418   22.0360 C   0  0  0  0  0  0  0  0  0  0  0  0
  -24.5636   -9.3814   24.1766 C   0  0  0  0  0  0  0  0  0  0  0  0
  -28.8806  -27.7185   19.3193 C   0  0  0  0  0  0  0  0  0  0  0  0
  -21.5134   -7.0213   23.6961 C   0  0  0  0  0  0  0  0  0  0  0  0
  -20.3781   -6.3336   23.2674 C   0  0  0  0  0  0  0  0  0  0  0  0
  -27.9419  -28.6617   21.3314 C   0  0  0  0  0  0  0  0  0  0  0  0
  -27.6915  -19.7168   21.6863 C   0  0  0  0  0  0  0  0  0  0  0  0
  -30.0896  -19.6058   21.4146 C   0  0  0  0  0  0  0  0  0  0  0  0
  -21.7474   -4.4247   22.7033 C   0  0  0  0  0  0  0  0  0  0  0  0
  -24.8257  -10.6579   22.1422 C   0  0  0  0  0  0  0  0  0  0  0  0
  -24.2660  -12.9382   21.1449 C   0  0  0  0  0  0  0  0  0  0  0  0
  -27.8632  -36.0674   16.0156 C   0  0  0  0  0  0  0  0  0  0  0  0
  -27.2084  -29.4726   19.1716 C   0  0  0  0  0  0  0  0  0  0  0  0
  -28.3376  -34.9102   16.6622 C   0  0  0  0  0  0  0  0  0  0  0  0
  -27.1278  -29.5150   20.5709 C   0  0  0  0  0  0  0  0  0  0  0  0
  -27.8113  -20.9996   22.2207 C   0  0  0  0  0  0  0  0  0  0  0  0
  -29.0703  -21.5855   22.3521 C   0  0  0  0  0  0  0  0  0  0  0  0
  -28.8306  -19.0199   21.2832 C   0  0  0  0  0  0  0  0  0  0  0  0
  -30.2095  -20.8887   21.9490 C   0  0  0  0  0  0  0  0  0  0  0  0
  -24.1981   -8.2628   23.4276 C   0  0  0  0  0  0  0  0  0  0  0  0
  -28.8145  -27.7697   20.7086 C   0  0  0  0  0  0  0  0  0  0  0  0
  -22.7657   -6.4107   23.6284 C   0  0  0  0  0  0  0  0  0  0  0  0
  -20.4951   -5.0353   22.7710 C   0  0  0  0  0  0  0  0  0  0  0  0
  -22.8827   -5.1124   23.1320 C   0  0  0  0  0  0  0  0  0  0  0  0
  -25.1504  -11.8951   21.4789 C   0  0  0  0  0  0  0  0  0  0  0  0
  -25.0593  -13.8787   20.5345 C   0  0  0  0  0  0  0  0  0  0  0  0
  -22.8537  -13.0473   21.3667 C   0  0  0  0  0  0  0  0  0  0  0  0
  -26.9358  -32.6392   19.2177 C   0  0  0  0  0  0  0  0  0  0  0  0
  -24.2311  -31.9923   20.8875 C   0  0  0  0  0  0  0  0  0  0  0  0
  -22.5018  -29.8218   22.8739 C   0  0  0  0  0  0  0  0  0  0  0  0
  -29.7373  -16.8888   20.2919 C   0  0  0  0  0  0  0  0  0  0  0  0
  -27.0424  -37.1026   16.7430 C   0  0  0  0  0  0  0  0  0  0  0  0
  -26.3303  -30.3582   18.3309 C   0  0  0  0  0  0  0  0  0  0  0  0
  -26.1954  -30.4593   21.2832 C   0  0  0  0  0  0  0  0  0  0  0  0
  -26.4255  -36.5885   18.0413 C   0  0  0  0  0  0  0  0  0  0  0  0
  -29.8504  -13.6032   18.9248 C   0  0  0  0  0  0  0  0  0  0  0  0
  -27.4636  -35.8293   18.8616 C   0  0  0  0  0  0  0  0  0  0  0  0
  -28.5650  -12.9517   19.4399 C   0  0  0  0  0  0  0  0  0  0  0  0
  -29.1375  -24.6414   24.4129 C   0  0  0  0  0  0  0  0  0  0  0  0
  -30.4689  -14.5367   19.9638 C   0  0  0  0  0  0  0  0  0  0  0  0
  -29.3571  -23.1340   24.3040 C   0  0  0  0  0  0  0  0  0  0  0  0
  -29.1411  -24.0797   22.0868 C   0  0  0  0  0  0  0  0  0  0  0  0
  -28.2732  -14.9031   21.0191 C   0  0  0  0  0  0  0  0  0  0  0  0
  -27.9787  -34.6022   18.0997 C   0  0  1  0  0  0  0  0  0  0  0  0
  -25.8557  -31.6050   19.0709 C   0  0  1  0  0  0  0  0  0  0  0  0
  -29.6180  -25.1623   23.0616 C   0  0  1  0  0  0  0  0  0  0  0  0
  -27.5786  -14.0039   19.9834 C   0  0  2  0  0  0  0  0  0  0  0  0
  -26.5730  -21.7214   22.6437 C   0  0  0  0  0  0  0  0  0  0  0  0
  -20.3324  -29.5870   24.1131 C   0  0  0  0  0  0  0  0  0  0  0  0
  -25.2666  -33.8765   23.0526 C   0  0  0  0  0  0  0  0  0  0  0  0
  -23.5855  -32.8856   24.6211 C   0  0  0  0  0  0  0  0  0  0  0  0
  -22.8213  -34.0841   22.5712 C   0  0  0  0  0  0  0  0  0  0  0  0
  -21.7177  -27.4508   21.2857 C   0  0  0  0  0  0  0  0  0  0  0  0
  -29.0861  -26.5454   22.7293 C   0  0  0  0  0  0  0  0  0  1  0  0
  -23.8947  -31.8061   22.3474 C   0  0  1  0  0  0  0  0  0  0  0  0
  -21.0704  -29.3204   22.8104 C   0  0  2  0  0  0  0  0  0  0  0  0
  -23.9111  -33.1465   23.1350 C   0  0  0  0  0  0  0  0  0  0  0  0
  -26.4091  -12.1486   21.1110 N   0  0  0  0  0  0  0  0  0  0  0  0
  -26.3214  -13.3618   20.5394 N   0  0  0  0  0  0  0  0  0  0  0  0
  -29.1851  -22.8537   22.8808 N   0  0  3  0  0  0  0  0  0  0  0  0
  -25.3618  -31.3094   20.4173 N   0  0  0  0  0  0  0  0  0  0  0  0
  -29.4776  -15.5088   20.4299 N   0  0  0  0  0  0  0  0  0  0  0  0
  -31.4950  -21.4622   22.0726 N   0  0  0  0  0  0  0  0  0  0  0  0
  -24.7934  -15.0892   19.9993 N   0  0  0  0  0  0  0  0  0  0  0  0
  -22.1944  -11.9897   22.0079 N   0  0  0  0  0  0  0  0  0  0  0  0
  -28.7087  -17.7167   20.7403 N   0  0  0  0  0  0  0  0  0  0  0  0
  -27.0123  -33.5267   18.1613 N   0  0  0  0  0  0  0  0  0  0  0  0
  -22.6152  -31.1063   22.3854 N   0  0  0  0  0  0  0  0  0  0  0  0
  -21.0466  -27.8535   22.5485 N   0  3  0  0  0  0  0  0  0  0  0  0
  -22.1930  -14.0457   20.9922 O   0  0  0  0  0  0  0  0  0  0  0  0
  -27.6462  -32.6333   20.2162 O   0  0  0  0  0  0  0  0  0  0  0  0
  -23.5128  -32.7113   20.1884 O   0  0  0  0  0  0  0  0  0  0  0  0
  -23.4263  -29.1435   23.3163 O   0  0  0  0  0  0  0  0  0  0  0  0
  -30.7829  -17.3050   19.7864 O   0  0  0  0  0  0  0  0  0  0  0  0
  -23.8918   -7.0945   24.0551 O   0  0  0  0  0  0  0  0  0  0  0  0
  -29.5969  -26.9469   21.4587 O   0  0  0  0  0  0  0  0  0  1  0  0
  -19.4046   -4.3744   22.3608 F   0  0  0  0  0  0  0  0  0  0  0  0
  -24.0830   -4.5202   23.0656 F   0  0  0  0  0  0  0  0  0  0  0  0
  1  2  1  0  0  0  0
  1  5  2  0  0  0  0
  2  6  2  0  0  0  0
  3  8  2  0  0  0  0
  3 17  1  0  0  0  0
  4  9  1  0  0  0  0
  4 17  2  0  0  0  0
  5 19  1  0  0  0  0
  6 21  1  0  0  0  0
  7 10  2  0  0  0  0
  7 20  1  0  0  0  0
  8 27  1  0  0  0  0
  9 27  2  0  0  0  0
 10 28  1  0  0  0  0
 11 12  2  0  0  0  0
 11 29  1  0  0  0  0
 12 30  1  0  0  0  0
 13 22  1  0  0  0  0
 13 28  2  0  0  0  0
 14 23  2  0  0  0  0
 14 25  1  0  0  0  0
 15 25  2  0  0  0  0
 15 26  1  0  0  0  0
 16 30  2  0  0  0  0
 16 31  1  0  0  0  0
 17 32  1  0  0  0  0
 18 32  1  0  0  0  0
 18 33  2  0  0  0  0
 18 34  1  0  0  0  0
 19 21  2  0  0  0  0
 19 39  1  0  0  0  0
 20 22  2  0  0  0  0
 20 40  1  0  0  0  0
 21 51  1  0  0  0  0
 22 41  1  0  0  0  0
 23 24  1  0  0  0  0
 23 55  1  0  0  0  0
 24 26  2  0  0  0  0
 24 67  1  0  0  0  0
 25 73  1  0  0  0  0
 26 70  1  0  0  0  0
 27 82  1  0  0  0  0
 28 83  1  0  0  0  0
 29 31  2  0  0  0  0
 29 82  1  0  0  0  0
 30 84  1  0  0  0  0
 31 85  1  0  0  0  0
 32 65  2  0  0  0  0
 33 66  1  0  0  0  0
 33 71  1  0  0  0  0
 34 72  1  0  0  0  0
 34 77  2  0  0  0  0
 35 52  1  0  0  0  0
 35 74  1  0  0  0  0
 35 78  2  0  0  0  0
 36 62  1  0  0  0  0
 36 68  1  0  0  0  0
 36 79  2  0  0  0  0
 37 63  1  0  0  0  0
 37 75  1  0  0  0  0
 37 80  2  0  0  0  0
 38 69  1  0  0  0  0
 38 73  1  0  0  0  0
 38 81  2  0  0  0  0
 39 42  1  0  0  0  0
 40 52  1  0  0  0  0
 41 68  1  0  0  0  0
 42 44  1  0  0  0  0
 43 45  1  0  0  0  0
 43 47  1  0  0  0  0
 44 51  1  0  0  0  0
 45 54  1  0  0  0  0
 46 48  1  0  0  0  0
 46 53  1  0  0  0  0
 47 69  1  0  0  0  0
 48 67  1  0  0  0  0
 49 53  1  0  0  0  0
 49 67  1  0  0  0  0
 50 54  1  0  0  0  0
 50 69  1  0  0  0  0
 51 74  1  0  0  0  0
 52 68  1  0  0  0  0
 53 61  1  0  0  0  0
 54 66  1  0  0  0  0
 56 63  1  0  0  0  0
 57 64  1  0  0  0  0
 58 64  1  0  0  0  0
 59 64  1  0  0  0  0
 60 76  1  0  0  0  0
 61 83  1  0  0  0  0
 62 64  1  0  0  0  0
 62 75  1  0  0  0  0
 63 76  1  0  0  0  0
 65 66  1  0  0  0  0
M  CHG  1  76   1
M  ISO  4  38 100  61 101  73 100  83 101
M  END
> <Batch ID>
0100

> <Smiles>
CNC(C)C(=O)NC(C(=O)N1Cc2cc([101O:1][101CH2:1]C3CCN(c4c(C)cc([100NH:0][100C:0](=O)N5CCCC(n6nc(-c7ccc(Oc8ccc(F)cc8F)cc7)c(C(N)=O)c6N)C5)cc4N)C3)ccc2CC1C(=O)NC1CCCc2ccccc21)C(C)(C)C

> <Shape>
0.265

> <Color>
0.121

> <Negative vol penalty>
0.000

$$$$

  -OEChem-04052300573D

 84 92  0     1  0  0  0  0  0999 V2000
  -25.1415  -35.7675   21.3774 C   0  0  0  0  0  0  0  0  0  0  0  0
  -25.8533  -34.5726   21.4097 C   0  0  0  0  0  0  0  0  0  0  0  0
  -24.2908   -9.2915   21.3392 C   0  0  0  0  0  0  0  0  0  0  0  0
  -24.9949  -10.4217   23.3551 C   0  0  0  0  0  0  0  0  0  0  0  0
  -23.8619  -35.8304   21.9275 C   0  0  0  0  0  0  0  0  0  0  0  0
  -25.2863  -33.4401   21.9931 C   0  0  0  0  0  0  0  0  0  0  0  0
  -25.9444  -29.2744   19.1899 C   0  0  0  0  0  0  0  0  0  0  0  0
  -29.8214  -19.2773   18.9904 C   0  0  0  0  0  0  0  0  0  0  0  0
  -24.0084   -8.1445   22.0808 C   0  0  0  0  0  0  0  0  0  0  0  0
  -24.7125   -9.2747   24.0968 C   0  0  0  0  0  0  0  0  0  0  0  0
  -27.1971  -28.6643   19.2403 C   0  0  0  0  0  0  0  0  0  0  0  0
  -29.8477  -20.6692   18.9048 C   0  0  0  0  0  0  0  0  0  0  0  0
  -21.5384   -7.0319   24.1043 C   0  0  0  0  0  0  0  0  0  0  0  0
  -20.3352   -6.3744   23.8483 C   0  0  0  0  0  0  0  0  0  0  0  0
  -26.3338  -27.0340   20.7947 C   0  0  0  0  0  0  0  0  0  0  0  0
  -27.7487  -19.3923   20.2264 C   0  0  0  0  0  0  0  0  0  0  0  0
  -21.5547   -4.3791   23.2410 C   0  0  0  0  0  0  0  0  0  0  0  0
  -24.7841  -10.4302   21.9763 C   0  0  0  0  0  0  0  0  0  0  0  0
  -24.2001  -12.6781   20.9211 C   0  0  0  0  0  0  0  0  0  0  0  0
  -23.2751  -34.6956   22.5094 C   0  0  0  0  0  0  0  0  0  0  0  0
  -24.8781  -28.7745   19.9511 C   0  0  0  0  0  0  0  0  0  0  0  0
  -23.9981  -33.4882   22.5527 C   0  0  0  0  0  0  0  0  0  0  0  0
  -25.0680  -27.6380   20.7502 C   0  0  0  0  0  0  0  0  0  0  0  0
  -28.7719  -18.6388   19.6511 C   0  0  0  0  0  0  0  0  0  0  0  0
  -24.2192   -8.1360   23.4597 C   0  0  0  0  0  0  0  0  0  0  0  0
  -27.3927  -27.5457   20.0450 C   0  0  0  0  0  0  0  0  0  0  0  0
  -28.8245  -21.4228   19.4801 C   0  0  0  0  0  0  0  0  0  0  0  0
  -22.7498   -6.3631   23.9285 C   0  0  0  0  0  0  0  0  0  0  0  0
  -27.7750  -20.7843   20.1409 C   0  0  0  0  0  0  0  0  0  0  0  0
  -20.3433   -5.0480   23.4167 C   0  0  0  0  0  0  0  0  0  0  0  0
  -22.7579   -5.0367   23.4969 C   0  0  0  0  0  0  0  0  0  0  0  0
  -25.0766  -11.6152   21.2106 C   0  0  0  0  0  0  0  0  0  0  0  0
  -24.9523  -13.5489   20.1712 C   0  0  0  0  0  0  0  0  0  0  0  0
  -22.8286  -12.8618   21.2966 C   0  0  0  0  0  0  0  0  0  0  0  0
  -23.0617  -29.9234   22.2930 C   0  0  0  0  0  0  0  0  0  0  0  0
  -21.4480  -27.1399   21.8798 C   0  0  0  0  0  0  0  0  0  0  0  0
  -21.4853  -23.9018   20.8028 C   0  0  0  0  0  0  0  0  0  0  0  0
  -29.6824  -16.3292   19.2231 C   0  0  0  0  0  0  0  0  0  0  0  0
  -21.9081  -34.8244   23.1334 C   0  0  0  0  0  0  0  0  0  0  0  0
  -23.5261  -29.4280   19.8651 C   0  0  0  0  0  0  0  0  0  0  0  0
  -23.9504  -27.0501   21.5711 C   0  0  0  0  0  0  0  0  0  0  0  0
  -21.2305  -33.4824   23.3983 C   0  0  0  0  0  0  0  0  0  0  0  0
  -29.5083  -12.9749   18.0417 C   0  0  0  0  0  0  0  0  0  0  0  0
  -22.2045  -32.5147   24.0629 C   0  0  0  0  0  0  0  0  0  0  0  0
  -28.2677  -12.4096   18.7370 C   0  0  0  0  0  0  0  0  0  0  0  0
  -30.2795  -13.9328   18.9481 C   0  0  0  0  0  0  0  0  0  0  0  0
  -28.2378  -14.4519   20.2253 C   0  0  0  0  0  0  0  0  0  0  0  0
  -23.4072  -32.2318   23.1546 C   0  0  1  0  0  0  0  0  0  0  0  0
  -22.6462  -29.1427   21.0783 C   0  0  1  0  0  0  0  0  0  0  0  0
  -27.3928  -13.5320   19.3289 C   0  0  2  0  0  0  0  0  0  0  0  0
  -20.0278  -21.8663   20.6302 C   0  0  0  0  0  0  0  0  0  0  0  0
  -21.7997  -26.6375   24.8688 C   0  0  0  0  0  0  0  0  0  0  0  0
  -21.1995  -24.2406   24.4658 C   0  0  0  0  0  0  0  0  0  0  0  0
  -19.5444  -26.0395   23.9688 C   0  0  0  0  0  0  0  0  0  0  0  0
  -21.7052  -23.8520   17.8519 C   0  0  0  0  0  0  0  0  0  0  0  0
  -25.6398  -21.8008   19.8889 C   0  0  0  0  0  0  0  0  0  0  0  0
  -28.6410  -25.5443   20.3477 C   0  0  0  0  0  0  0  0  0  1  0  0
  -29.9889  -23.4386   19.9666 C   0  0  0  0  0  0  0  0  0  0  0  0
  -21.5503  -25.7489   22.4576 C   0  0  1  0  0  0  0  0  0  0  0  0
  -20.5227  -23.1204   19.9268 C   0  0  2  0  0  0  0  0  0  0  0  0
  -29.8916  -24.9392   19.7222 C   0  0  1  0  0  0  0  0  0  0  0  0
  -21.0453  -25.6786   23.9264 C   0  0  0  0  0  0  0  0  0  0  0  0
  -26.2925  -11.7924   20.6871 N   0  0  0  0  0  0  0  0  0  0  0  0
  -26.1855  -12.9767   20.0610 N   0  0  0  0  0  0  0  0  0  0  0  0
  -22.6486  -27.7285   21.4581 N   0  0  0  0  0  0  0  0  0  0  0  0
  -29.3876  -14.9714   19.4684 N   0  0  0  0  0  0  0  0  0  0  0  0
  -24.6725  -14.7404   19.6017 N   0  0  0  0  0  0  0  0  0  0  0  0
  -22.2085  -11.8699   22.0684 N   0  0  0  0  0  0  0  0  0  0  0  0
  -28.7458  -17.2248   19.7384 N   0  0  0  0  0  0  0  0  0  0  0  0
  -23.0451  -31.2934   22.1141 N   0  0  0  0  0  0  0  0  0  0  0  0
  -20.8355  -24.8711   21.5373 N   0  0  0  0  0  0  0  0  0  0  0  0
  -29.8332  -25.1690   18.2456 N   0  3  0  0  0  0  0  0  0  0  0  0
  -21.1901  -22.7150   18.6574 N   0  3  0  0  0  0  0  0  0  0  0  0
  -22.1676  -13.8679   20.9438 O   0  0  0  0  0  0  0  0  0  0  0  0
  -23.3727  -29.3269   23.3173 O   0  0  0  0  0  0  0  0  0  0  0  0
  -20.3426  -27.6813   21.7989 O   0  0  0  0  0  0  0  0  0  0  0  0
  -22.6923  -23.6725   20.8353 O   0  0  0  0  0  0  0  0  0  0  0  0
  -30.6770  -16.6711   18.5782 O   0  0  0  0  0  0  0  0  0  0  0  0
  -23.9435   -7.0170   24.1838 O   0  0  0  0  0  0  0  0  0  0  0  0
  -26.7705  -21.5092   20.7078 O   0  0  0  0  0  0  0  0  0  0  0  0
  -28.6145  -26.9487   20.0966 O   0  0  0  0  0  0  0  0  0  1  0  0
  -28.8620  -22.7893   19.3901 O   0  0  0  0  0  0  0  0  0  0  0  0
  -19.1877   -4.4162   23.1725 F   0  0  0  0  0  0  0  0  0  0  0  0
  -23.9185   -4.3886   23.3274 F   0  0  0  0  0  0  0  0  0  0  0  0
  1  2  1  0  0  0  0
  1  5  2  0  0  0  0
  2  6  2  0  0  0  0
  3  9  2  0  0  0  0
  3 18  1  0  0  0  0
  4 10  1  0  0  0  0
  4 18  2  0  0  0  0
  5 20  1  0  0  0  0
  6 22  1  0  0  0  0
  7 11  2  0  0  0  0
  7 21  1  0  0  0  0
  8 12  2  0  0  0  0
  8 24  1  0  0  0  0
  9 25  1  0  0  0  0
 10 25  2  0  0  0  0
 11 26  1  0  0  0  0
 12 27  1  0  0  0  0
 13 14  2  0  0  0  0
 13 28  1  0  0  0  0
 14 30  1  0  0  0  0
 15 23  1  0  0  0  0
 15 26  2  0  0  0  0
 16 24  2  0  0  0  0
 16 29  1  0  0  0  0
 17 30  2  0  0  0  0
 17 31  1  0  0  0  0
 18 32  1  0  0  0  0
 19 32  1  0  0  0  0
 19 33  2  0  0  0  0
 19 34  1  0  0  0  0
 20 22  2  0  0  0  0
 20 39  1  0  0  0  0
 21 23  2  0  0  0  0
 21 40  1  0  0  0  0
 22 48  1  0  0  0  0
 23 41  1  0  0  0  0
 24 69  1  0  0  0  0
 25 79  1  0  0  0  0
 26 81  1  0  0  0  0
 27 29  2  0  0  0  0
 27 82  1  0  0  0  0
 28 31  2  0  0  0  0
 28 79  1  0  0  0  0
 29 80  1  0  0  0  0
 30 83  1  0  0  0  0
 31 84  1  0  0  0  0
 32 63  2  0  0  0  0
 33 64  1  0  0  0  0
 33 67  1  0  0  0  0
 34 68  1  0  0  0  0
 34 74  2  0  0  0  0
 35 49  1  0  0  0  0
 35 70  1  0  0  0  0
 35 75  2  0  0  0  0
 36 59  1  0  0  0  0
 36 65  1  0  0  0  0
 36 76  2  0  0  0  0
 37 60  1  0  0  0  0
 37 71  1  0  0  0  0
 37 77  2  0  0  0  0
 38 66  1  0  0  0  0
 38 69  1  0  0  0  0
 38 78  2  0  0  0  0
 39 42  1  0  0  0  0
 40 49  1  0  0  0  0
 41 65  1  0  0  0  0
 42 44  1  0  0  0  0
 43 45  1  0  0  0  0
 43 46  1  0  0  0  0
 44 48  1  0  0  0  0
 45 50  1  0  0  0  0
 46 66  1  0  0  0  0
 47 50  1  0  0  0  0
 47 66  1  0  0  0  0
 48 70  1  0  0  0  0
 49 65  1  0  0  0  0
 50 64  1  0  0  0  0
 51 60  1  0  0  0  0
 52 62  1  0  0  0  0
 53 62  1  0  0  0  0
 54 62  1  0  0  0  0
 55 73  1  0  0  0  0
 56 80  1  0  0  0  0
 57 61  1  0  0  0  0
 57 81  1  0  0  0  0
 58 61  1  0  0  0  0
 58 82  1  0  0  0  0
 59 62  1  0  0  0  0
 59 71  1  0  0  0  0
 60 73  1  0  0  0  0
 61 72  1  0  0  0  0
 63 64  1  0  0  0  0
M  CHG  2  72   1  73   1
M  ISO  4  38 100  57 101  69 100  81 101
M  END
> <Batch ID>
0100

> <Smiles>
CNC(C)C(=O)NC(C(=O)N1Cc2cc([101O:1][101CH2:1]C(N)COc3ccc([100NH:0][100C:0](=O)N4CCCC(n5nc(-c6ccc(Oc7ccc(F)cc7F)cc6)c(C(N)=O)c5N)C4)cc3OC)ccc2CC1C(=O)NC1CCCc2ccccc21)C(C)(C)C

> <Shape>
0.318

> <Color>
0.155

> <Negative vol penalty>
0.000

$$$$

  -OEChem-04052300573D

 87 96  0     1  0  0  0  0  0999 V2000
  -17.8425  -24.7098   23.6392 C   0  0  0  0  0  0  0  0  0  0  0  0
  -18.9984  -24.6946   22.8652 C   0  0  0  0  0  0  0  0  0  0  0  0
  -23.0078  -10.3717   21.7366 C   0  0  0  0  0  0  0  0  0  0  0  0
  -23.9430   -9.0756   19.9247 C   0  0  0  0  0  0  0  0  0  0  0  0
  -17.5816  -25.7916   24.4792 C   0  0  0  0  0  0  0  0  0  0  0  0
  -19.8936  -25.7618   22.9299 C   0  0  0  0  0  0  0  0  0  0  0  0
  -24.7133  -24.2385   23.2382 C   0  0  0  0  0  0  0  0  0  0  0  0
  -22.2665   -9.2636   22.1466 C   0  0  0  0  0  0  0  0  0  0  0  0
  -23.2016   -7.9675   20.3348 C   0  0  0  0  0  0  0  0  0  0  0  0
  -25.3219  -23.8089   22.0598 C   0  0  0  0  0  0  0  0  0  0  0  0
  -22.8054   -6.4058   23.8716 C   0  0  0  0  0  0  0  0  0  0  0  0
  -22.7826   -6.1094   25.2344 C   0  0  0  0  0  0  0  0  0  0  0  0
  -26.4013  -25.9552   21.8418 C   0  0  0  0  0  0  0  0  0  0  0  0
  -29.2275  -19.8602   20.9611 C   0  0  0  0  0  0  0  0  0  0  0  0
  -30.3854  -19.1466   18.9644 C   0  0  0  0  0  0  0  0  0  0  0  0
  -20.3812   -6.3744   25.2518 C   0  0  0  0  0  0  0  0  0  0  0  0
  -23.8461  -10.2777   20.6256 C   0  0  0  0  0  0  0  0  0  0  0  0
  -24.1140  -12.6750   19.7955 C   0  0  0  0  0  0  0  0  0  0  0  0
  -18.4788  -26.8681   24.5615 C   0  0  0  0  0  0  0  0  0  0  0  0
  -24.9359  -25.5356   23.7223 C   0  0  0  0  0  0  0  0  0  0  0  0
  -19.6438  -26.8596   23.7708 C   0  0  0  0  0  0  0  0  0  0  0  0
  -25.7963  -26.3980   23.0280 C   0  0  0  0  0  0  0  0  0  0  0  0
  -29.1106  -18.5313   21.3683 C   0  0  0  0  0  0  0  0  0  0  0  0
  -29.8649  -20.1679   19.7591 C   0  0  0  0  0  0  0  0  0  0  0  0
  -29.6311  -17.5100   20.5736 C   0  0  0  0  0  0  0  0  0  0  0  0
  -22.3634   -8.0615   21.4458 C   0  0  0  0  0  0  0  0  0  0  0  0
  -26.1637  -24.6682   21.3598 C   0  0  0  0  0  0  0  0  0  0  0  0
  -21.6161   -6.6866   23.1989 C   0  0  0  0  0  0  0  0  0  0  0  0
  -21.5705   -6.0936   25.9245 C   0  0  0  0  0  0  0  0  0  0  0  0
  -30.2685  -17.8176   19.3716 C   0  0  0  0  0  0  0  0  0  0  0  0
  -20.4040   -6.6709   23.8890 C   0  0  0  0  0  0  0  0  0  0  0  0
  -24.6117  -11.4222   20.2012 C   0  0  0  0  0  0  0  0  0  0  0  0
  -25.2353  -13.4092   19.4956 C   0  0  0  0  0  0  0  0  0  0  0  0
  -31.0737  -21.9665   18.5533 C   0  0  0  0  0  0  0  0  0  0  0  0
  -22.7591  -13.1340   19.6985 C   0  0  0  0  0  0  0  0  0  0  0  0
  -23.0984  -28.0698   24.2747 C   0  0  0  0  0  0  0  0  0  0  0  0
  -25.8288  -29.2885   25.5324 C   0  0  0  0  0  0  0  0  0  0  0  0
  -29.3349  -29.3203   24.6818 C   0  0  0  0  0  0  0  0  0  0  0  0
  -30.4019  -15.1140   20.6801 C   0  0  0  0  0  0  0  0  0  0  0  0
  -18.1306  -28.0372   25.4484 C   0  0  0  0  0  0  0  0  0  0  0  0
  -24.2930  -25.9748   25.0093 C   0  0  0  0  0  0  0  0  0  0  0  0
  -26.0841  -27.7934   23.5163 C   0  0  0  0  0  0  0  0  0  0  0  0
  -30.9521  -23.3330   17.9059 C   0  0  0  0  0  0  0  0  0  0  0  0
  -19.3153  -28.9548   25.7398 C   0  0  0  0  0  0  0  0  0  0  0  0
  -30.2128  -24.3558   18.7404 C   0  0  0  0  0  0  0  0  0  0  0  0
  -30.0691  -11.9889   19.0068 C   0  0  0  0  0  0  0  0  0  0  0  0
  -20.0784  -29.2653   24.4561 C   0  0  0  0  0  0  0  0  0  0  0  0
  -28.5787  -11.6659   19.1350 C   0  0  0  0  0  0  0  0  0  0  0  0
  -30.6109  -12.6737   20.2603 C   0  0  0  0  0  0  0  0  0  0  0  0
  -29.0486  -22.5194   19.9302 C   0  0  0  0  0  0  0  0  0  0  0  0
  -28.3730  -13.5392   20.8188 C   0  0  0  0  0  0  0  0  0  0  0  0
  -20.6513  -27.9871   23.8320 C   0  0  1  0  0  0  0  0  0  0  0  0
  -24.1849  -27.4912   25.1362 C   0  0  1  0  0  0  0  0  0  0  0  0
  -28.8502  -23.7942   19.1116 C   0  0  1  0  0  0  0  0  0  0  0  0
  -27.7672  -12.9071   19.5551 C   0  0  2  0  0  0  0  0  0  0  0  0
  -28.4216  -18.2311   22.6602 C   0  0  0  0  0  0  0  0  0  0  0  0
  -31.3658  -29.5325   26.1405 C   0  0  0  0  0  0  0  0  0  0  0  0
  -25.6198  -32.2648   24.8937 C   0  0  0  0  0  0  0  0  0  0  0  0
  -28.1194  -32.3435   24.7743 C   0  0  0  0  0  0  0  0  0  0  0  0
  -26.9935  -31.7250   26.9127 C   0  0  0  0  0  0  0  0  0  0  0  0
  -30.4990  -26.8130   23.6247 C   0  0  0  0  0  0  0  0  0  0  0  0
  -28.0294  -24.8183   19.8926 C   0  0  0  0  0  0  0  0  0  1  0  0
  -26.9941  -30.0813   24.9917 C   0  0  1  0  0  0  0  0  0  0  0  0
  -30.4496  -28.5754   25.3939 C   0  0  2  0  0  0  0  0  0  0  0  0
  -26.9170  -31.5857   25.3766 C   0  0  0  0  0  0  0  0  0  0  0  0
  -25.9454  -11.3604   20.1634 N   0  0  0  0  0  0  0  0  0  0  0  0
  -26.2952  -12.5836   19.7304 N   0  0  0  0  0  0  0  0  0  0  0  0
  -29.9847  -21.5471   19.3367 N   0  0  0  0  0  0  0  0  0  0  0  0
  -25.4268  -28.1784   24.7761 N   0  0  0  0  0  0  0  0  0  0  0  0
  -29.7952  -13.8430   20.5952 N   0  0  0  0  0  0  0  0  0  0  0  0
  -25.4083  -14.6740   19.0565 N   0  0  0  0  0  0  0  0  0  0  0  0
  -22.0764  -12.9503   18.4883 N   0  0  0  0  0  0  0  0  0  0  0  0
  -29.5213  -16.1549   20.9728 N   0  0  0  0  0  0  0  0  0  0  0  0
  -21.8397  -27.5664   24.5427 N   0  0  0  0  0  0  0  0  0  0  0  0
  -28.1996  -29.4058   25.4596 N   0  0  0  0  0  0  0  0  0  0  0  0
  -31.2693  -27.8089   24.4134 N   0  3  0  0  0  0  0  0  0  0  0  0
  -32.0795  -21.2954   18.3063 O   0  0  0  0  0  0  0  0  0  0  0  0
  -22.1767  -13.7054   20.6513 O   0  0  0  0  0  0  0  0  0  0  0  0
  -23.3808  -28.9119   23.4303 O   0  0  0  0  0  0  0  0  0  0  0  0
  -25.2994  -29.6370   26.5907 O   0  0  0  0  0  0  0  0  0  0  0  0
  -29.4601  -29.7833   23.5502 O   0  0  0  0  0  0  0  0  0  0  0  0
  -31.6089  -15.2716   20.4791 O   0  0  0  0  0  0  0  0  0  0  0  0
  -21.6403   -6.9800   21.8457 O   0  0  0  0  0  0  0  0  0  0  0  0
  -26.7585  -24.2515   20.2089 O   0  0  0  0  0  0  0  0  0  1  0  0
  -21.5486   -5.8074   27.2328 F   0  0  0  0  0  0  0  0  0  0  0  0
  -30.7727  -16.8446   18.5992 F   0  0  0  0  0  0  0  0  0  0  0  0
  -19.2581   -6.9386   23.2479 F   0  0  0  0  0  0  0  0  0  0  0  0
  1  2  1  0  0  0  0
  1  5  2  0  0  0  0
  2  6  2  0  0  0  0
  3  8  2  0  0  0  0
  3 17  1  0  0  0  0
  4  9  1  0  0  0  0
  4 17  2  0  0  0  0
  5 19  1  0  0  0  0
  6 21  1  0  0  0  0
  7 10  2  0  0  0  0
  7 20  1  0  0  0  0
  8 26  1  0  0  0  0
  9 26  2  0  0  0  0
 10 27  1  0  0  0  0
 11 12  2  0  0  0  0
 11 28  1  0  0  0  0
 12 29  1  0  0  0  0
 13 22  1  0  0  0  0
 13 27  2  0  0  0  0
 14 23  2  0  0  0  0
 14 24  1  0  0  0  0
 15 24  2  0  0  0  0
 15 30  1  0  0  0  0
 16 29  2  0  0  0  0
 16 31  1  0  0  0  0
 17 32  1  0  0  0  0
 18 32  1  0  0  0  0
 18 33  2  0  0  0  0
 18 35  1  0  0  0  0
 19 21  2  0  0  0  0
 19 40  1  0  0  0  0
 20 22  2  0  0  0  0
 20 41  1  0  0  0  0
 21 52  1  0  0  0  0
 22 42  1  0  0  0  0
 23 25  1  0  0  0  0
 23 56  1  0  0  0  0
 24 68  1  0  0  0  0
 25 30  2  0  0  0  0
 25 73  1  0  0  0  0
 26 83  1  0  0  0  0
 27 84  1  0  0  0  0
 28 31  2  0  0  0  0
 28 83  1  0  0  0  0
 29 85  1  0  0  0  0
 30 86  1  0  0  0  0
 31 87  1  0  0  0  0
 32 66  2  0  0  0  0
 33 67  1  0  0  0  0
 33 71  1  0  0  0  0
 34 43  1  0  0  0  0
 34 68  1  0  0  0  0
 34 77  2  0  0  0  0
 35 72  1  0  0  0  0
 35 78  2  0  0  0  0
 36 53  1  0  0  0  0
 36 74  1  0  0  0  0
 36 79  2  0  0  0  0
 37 63  1  0  0  0  0
 37 69  1  0  0  0  0
 37 80  2  0  0  0  0
 38 64  1  0  0  0  0
 38 75  1  0  0  0  0
 38 81  2  0  0  0  0
 39 70  1  0  0  0  0
 39 73  1  0  0  0  0
 39 82  2  0  0  0  0
 40 44  1  0  0  0  0
 41 53  1  0  0  0  0
 42 69  1  0  0  0  0
 43 45  1  0  0  0  0
 44 47  1  0  0  0  0
 45 54  1  0  0  0  0
 46 48  1  0  0  0  0
 46 49  1  0  0  0  0
 47 52  1  0  0  0  0
 48 55  1  0  0  0  0
 49 70  1  0  0  0  0
 50 54  1  0  0  0  0
 50 68  1  0  0  0  0
 51 55  1  0  0  0  0
 51 70  1  0  0  0  0
 52 74  1  0  0  0  0
 53 69  1  0  0  0  0
 54 62  1  0  0  0  0
 55 67  1  0  0  0  0
 57 64  1  0  0  0  0
 58 65  1  0  0  0  0
 59 65  1  0  0  0  0
 60 65  1  0  0  0  0
 61 76  1  0  0  0  0
 62 84  1  0  0  0  0
 63 65  1  0  0  0  0
 63 75  1  0  0  0  0
 64 76  1  0  0  0  0
 66 67  1  0  0  0  0
M  CHG  1  76   1
M  ISO  4  39 100  62 101  73 100  84 101
M  END
> <Batch ID>
0100

> <Smiles>
CNC(C)C(=O)NC(C(=O)N1Cc2cc([101O:1][101CH2:1]C3CCC(=O)N(c4cc(C)c([100NH:0][100C:0](=O)N5CCCC(n6nc(-c7ccc(Oc8ccc(F)cc8F)cc7)c(C(N)=O)c6N)C5)c(F)c4)C3)ccc2CC1C(=O)NC1CCCc2ccccc21)C(C)(C)C

> <Shape>
0.292

> <Color>
0.142

> <Negative vol penalty>
0.000

$$$$

  -OEChem-04052300573D

 85 93  0     1  0  0  0  0  0999 V2000
  -16.6585  -30.6410   23.8574 C   0  0  0  0  0  0  0  0  0  0  0  0
  -17.2711  -29.8825   24.8497 C   0  0  0  0  0  0  0  0  0  0  0  0
  -23.3392  -10.0349   21.2512 C   0  0  0  0  0  0  0  0  0  0  0  0
  -24.8154   -8.4029   22.2487 C   0  0  0  0  0  0  0  0  0  0  0  0
  -29.3541  -19.3324   22.0583 C   0  0  0  0  0  0  0  0  0  0  0  0
  -17.0730  -30.5180   22.5319 C   0  0  0  0  0  0  0  0  0  0  0  0
  -18.2978  -28.9996   24.5169 C   0  0  0  0  0  0  0  0  0  0  0  0
  -24.3651  -26.2462   27.1482 C   0  0  0  0  0  0  0  0  0  0  0  0
  -28.5941  -20.0505   22.9815 C   0  0  0  0  0  0  0  0  0  0  0  0
  -22.3576   -9.0554   21.1012 C   0  0  0  0  0  0  0  0  0  0  0  0
  -23.8337   -7.4234   22.0987 C   0  0  0  0  0  0  0  0  0  0  0  0
  -24.9810  -25.0157   27.3726 C   0  0  0  0  0  0  0  0  0  0  0  0
  -20.9969   -6.4805   23.6747 C   0  0  0  0  0  0  0  0  0  0  0  0
  -20.7583   -5.6332   24.7568 C   0  0  0  0  0  0  0  0  0  0  0  0
  -27.4024  -18.0422   21.4552 C   0  0  0  0  0  0  0  0  0  0  0  0
  -25.6676  -24.9447   25.0612 C   0  0  0  0  0  0  0  0  0  0  0  0
  -21.3460   -3.7270   23.3937 C   0  0  0  0  0  0  0  0  0  0  0  0
  -24.5682   -9.7087   21.8249 C   0  0  0  0  0  0  0  0  0  0  0  0
  -28.7582  -18.3282   21.2951 C   0  0  0  0  0  0  0  0  0  0  0  0
  -25.7748  -11.5694   23.0857 C   0  0  0  0  0  0  0  0  0  0  0  0
  -18.1119  -29.6403   22.1840 C   0  0  0  0  0  0  0  0  0  0  0  0
  -24.3864  -26.8309   25.8739 C   0  0  0  0  0  0  0  0  0  0  0  0
  -18.7257  -28.8638   23.1853 C   0  0  0  0  0  0  0  0  0  0  0  0
  -25.0534  -26.1838   24.8238 C   0  0  0  0  0  0  0  0  0  0  0  0
  -27.2383  -19.7645   23.1416 C   0  0  0  0  0  0  0  0  0  0  0  0
  -22.6048   -7.7496   21.5250 C   0  0  0  0  0  0  0  0  0  0  0  0
  -25.6299  -24.3634   26.3283 C   0  0  0  0  0  0  0  0  0  0  0  0
  -21.4099   -5.9510   22.4521 C   0  0  0  0  0  0  0  0  0  0  0  0
  -20.9329   -4.2565   24.6163 C   0  0  0  0  0  0  0  0  0  0  0  0
  -26.6424  -18.7604   22.3785 C   0  0  0  0  0  0  0  0  0  0  0  0
  -21.5845   -4.5743   22.3116 C   0  0  0  0  0  0  0  0  0  0  0  0
  -25.5828  -10.7200   21.9796 C   0  0  0  0  0  0  0  0  0  0  0  0
  -26.8592  -12.3395   22.7430 C   0  0  0  0  0  0  0  0  0  0  0  0
  -29.5677  -17.5633   20.3120 C   0  0  0  0  0  0  0  0  0  0  0  0
  -25.0387  -11.6545   24.3132 C   0  0  0  0  0  0  0  0  0  0  0  0
  -22.1727  -27.6579   23.7479 C   0  0  0  0  0  0  0  0  0  0  0  0
  -24.7127  -28.9222   22.1755 C   0  0  0  0  0  0  0  0  0  0  0  0
  -28.0816  -28.9101   21.6309 C   0  0  0  0  0  0  0  0  0  0  0  0
  -26.8999  -21.5247   24.9098 C   0  0  0  0  0  0  0  0  0  0  0  0
  -29.7094  -15.4038   19.1120 C   0  0  0  0  0  0  0  0  0  0  0  0
  -18.4934  -29.5067   20.7310 C   0  0  0  0  0  0  0  0  0  0  0  0
  -23.7402  -28.1714   25.6546 C   0  0  0  0  0  0  0  0  0  0  0  0
  -25.1224  -26.7789   23.4420 C   0  0  0  0  0  0  0  0  0  0  0  0
  -19.8419  -28.8245   20.5156 C   0  0  0  0  0  0  0  0  0  0  0  0
  -30.1341  -11.9005   18.9043 C   0  0  0  0  0  0  0  0  0  0  0  0
  -19.9486  -27.5692   21.3758 C   0  0  0  0  0  0  0  0  0  0  0  0
  -29.0089  -11.3475   19.7832 C   0  0  0  0  0  0  0  0  0  0  0  0
  -29.6873  -13.1325   18.1187 C   0  0  0  0  0  0  0  0  0  0  0  0
  -27.9649  -13.6484   19.7996 C   0  0  0  0  0  0  0  0  0  0  0  0
  -19.8597  -27.9134   22.8674 C   0  0  1  0  0  0  0  0  0  0  0  0
  -23.3818  -28.4302   24.1944 C   0  0  1  0  0  0  0  0  0  0  0  0
  -28.3860  -12.4491   20.6641 C   0  0  1  0  0  0  0  0  0  0  0  0
  -29.8596  -30.0319   20.2606 C   0  0  0  0  0  0  0  0  0  0  0  0
  -25.2288  -20.9822   26.7188 C   0  0  0  0  0  0  0  0  0  0  0  0
  -23.8433  -27.3121   19.7338 C   0  0  0  0  0  0  0  0  0  0  0  0
  -26.1121  -27.7079   18.7518 C   0  0  0  0  0  0  0  0  0  0  0  0
  -24.6079  -29.6394   19.2305 C   0  0  0  0  0  0  0  0  0  0  0  0
  -29.4689  -29.9169   24.0435 C   0  0  0  0  0  0  0  0  0  0  0  0
  -25.6989  -28.4119   21.1527 C   0  0  1  0  0  0  0  0  0  0  0  0
  -29.0973  -30.0370   21.5765 C   0  0  2  0  0  0  0  0  0  0  0  0
  -25.7615  -22.0533   25.7787 C   0  0  1  0  0  0  0  0  0  1  0  0
  -25.0628  -28.2554   19.7427 C   0  0  0  0  0  0  0  0  0  0  0  0
  -26.4737  -10.9306   21.0070 N   0  0  0  0  0  0  0  0  0  0  0  0
  -27.2359  -11.9212   21.5007 N   0  0  0  0  0  0  0  0  0  0  0  0
  -24.4700  -28.0883   23.2762 N   0  0  0  0  0  0  0  0  0  0  0  0
  -29.1185  -14.1312   19.0256 N   0  0  0  0  0  0  0  0  0  0  0  0
  -27.5176  -13.3271   23.3861 N   0  0  0  0  0  0  0  0  0  0  0  0
  -23.9528  -10.7890   24.5024 N   0  0  0  0  0  0  0  0  0  0  0  0
  -26.4701  -20.4946   24.0796 N   0  0  0  0  0  0  0  0  0  0  0  0
  -29.1187  -16.2712   20.0376 N   0  0  0  0  0  0  0  0  0  0  0  0
  -21.1182  -28.4512   23.3379 N   0  0  0  0  0  0  0  0  0  0  0  0
  -26.8392  -29.3208   21.1963 N   0  0  0  0  0  0  0  0  0  0  0  0
  -30.0795  -29.9033   22.6892 N   0  3  0  0  0  0  0  0  0  0  0  0
  -30.5333  -18.1056   19.7815 O   0  0  0  0  0  0  0  0  0  0  0  0
  -25.3252  -12.4850   25.2085 O   0  0  0  0  0  0  0  0  0  0  0  0
  -22.1954  -26.4329   23.7722 O   0  0  0  0  0  0  0  0  0  0  0  0
  -24.1827  -30.0234   22.0077 O   0  0  0  0  0  0  0  0  0  0  0  0
  -28.3633  -27.7776   22.0165 O   0  0  0  0  0  0  0  0  0  0  0  0
  -28.0270  -22.0068   24.9750 O   0  0  0  0  0  0  0  0  0  0  0  0
  -30.7008  -15.7274   18.4504 O   0  0  0  0  0  0  0  0  0  0  0  0
  -21.6471   -6.7936   21.3790 O   0  0  0  0  0  0  0  0  0  0  0  0
  -26.2314  -23.1620   26.5445 O   0  0  0  0  0  0  0  0  0  1  0  0
  -20.7053   -3.4431   25.6559 F   0  0  0  0  0  0  0  0  0  0  0  0
  -25.3401  -18.4763   22.5242 F   0  0  0  0  0  0  0  0  0  0  0  0
  -21.9823   -4.0599   21.1399 F   0  0  0  0  0  0  0  0  0  0  0  0
  1  2  1  0  0  0  0
  1  6  2  0  0  0  0
  2  7  2  0  0  0  0
  3 10  2  0  0  0  0
  3 18  1  0  0  0  0
  4 11  1  0  0  0  0
  4 18  2  0  0  0  0
  5  9  2  0  0  0  0
  5 19  1  0  0  0  0
  6 21  1  0  0  0  0
  7 23  1  0  0  0  0
  8 12  2  0  0  0  0
  8 22  1  0  0  0  0
  9 25  1  0  0  0  0
 10 26  1  0  0  0  0
 11 26  2  0  0  0  0
 12 27  1  0  0  0  0
 13 14  2  0  0  0  0
 13 28  1  0  0  0  0
 14 29  1  0  0  0  0
 15 19  2  0  0  0  0
 15 30  1  0  0  0  0
 16 24  1  0  0  0  0
 16 27  2  0  0  0  0
 17 29  2  0  0  0  0
 17 31  1  0  0  0  0
 18 32  1  0  0  0  0
 19 34  1  0  0  0  0
 20 32  1  0  0  0  0
 20 33  2  0  0  0  0
 20 35  1  0  0  0  0
 21 23  2  0  0  0  0
 21 41  1  0  0  0  0
 22 24  2  0  0  0  0
 22 42  1  0  0  0  0
 23 50  1  0  0  0  0
 24 43  1  0  0  0  0
 25 30  2  0  0  0  0
 25 69  1  0  0  0  0
 26 81  1  0  0  0  0
 27 82  1  0  0  0  0
 28 31  2  0  0  0  0
 28 81  1  0  0  0  0
 29 83  1  0  0  0  0
 30 84  1  0  0  0  0
 31 85  1  0  0  0  0
 32 63  2  0  0  0  0
 33 64  1  0  0  0  0
 33 67  1  0  0  0  0
 34 70  1  0  0  0  0
 34 74  2  0  0  0  0
 35 68  1  0  0  0  0
 35 75  2  0  0  0  0
 36 51  1  0  0  0  0
 36 71  1  0  0  0  0
 36 76  2  0  0  0  0
 37 59  1  0  0  0  0
 37 65  1  0  0  0  0
 37 77  2  0  0  0  0
 38 60  1  0  0  0  0
 38 72  1  0  0  0  0
 38 78  2  0  0  0  0
 39 61  1  0  0  0  0
 39 69  1  0  0  0  0
 39 79  2  0  0  0  0
 40 66  1  0  0  0  0
 40 70  1  0  0  0  0
 40 80  2  0  0  0  0
 41 44  1  0  0  0  0
 42 51  1  0  0  0  0
 43 65  1  0  0  0  0
 44 46  1  0  0  0  0
 45 47  1  0  0  0  0
 45 48  1  0  0  0  0
 46 50  1  0  0  0  0
 47 52  1  0  0  0  0
 48 66  1  0  0  0  0
 49 52  1  0  0  0  0
 49 66  1  0  0  0  0
 50 71  1  0  0  0  0
 51 65  1  0  0  0  0
 52 64  1  0  0  0  0
 53 60  1  0  0  0  0
 54 61  1  0  0  0  0
 55 62  1  0  0  0  0
 56 62  1  0  0  0  0
 57 62  1  0  0  0  0
 58 73  1  0  0  0  0
 59 62  1  0  0  0  0
 59 72  1  0  0  0  0
 60 73  1  0  0  0  0
 61 82  1  0  0  0  0
 63 64  1  0  0  0  0
M  CHG  1  73   1
M  ISO  4  40 100  61 101  70 100  82 101
M  END
> <Batch ID>
0100

> <Smiles>
CNC(C)C(=O)NC(C(=O)N1Cc2cc([101O:1][101CH:1](C)C(=O)Nc3ccc(C(=O)[100NH:0][100C:0](=O)N4CCCC(n5nc(-c6ccc(Oc7ccc(F)cc7F)cc6)c(C(N)=O)c5N)C4)cc3F)ccc2CC1C(=O)NC1CCCc2ccccc21)C(C)(C)C

> <Shape>
0.253

> <Color>
0.110

> <Negative vol penalty>
0.000

$$$$

  -OEChem-04052300573D

 84 92  0     1  0  0  0  0  0999 V2000
  -22.8109  -23.5608   16.8867 C   0  0  0  0  0  0  0  0  0  0  0  0
  -24.0753  -23.1055   17.2461 C   0  0  0  0  0  0  0  0  0  0  0  0
  -21.1640  -26.4293   20.5615 C   0  0  0  0  0  0  0  0  0  0  0  0
  -22.1297  -25.9276   22.7185 C   0  0  0  0  0  0  0  0  0  0  0  0
  -21.6760  -22.9854   17.4566 C   0  0  0  0  0  0  0  0  0  0  0  0
  -24.2057  -22.0751   18.1764 C   0  0  0  0  0  0  0  0  0  0  0  0
  -28.4755  -17.6851   18.2336 C   0  0  0  0  0  0  0  0  0  0  0  0
  -20.0319  -25.6860   20.8954 C   0  0  0  0  0  0  0  0  0  0  0  0
  -20.9975  -25.1844   23.0525 C   0  0  0  0  0  0  0  0  0  0  0  0
  -29.6682  -17.5459   18.9419 C   0  0  0  0  0  0  0  0  0  0  0  0
  -16.7325  -24.2199   21.3188 C   0  0  0  0  0  0  0  0  0  0  0  0
  -15.4852  -24.7713   21.0261 C   0  0  0  0  0  0  0  0  0  0  0  0
  -28.5263  -16.2039   20.5894 C   0  0  0  0  0  0  0  0  0  0  0  0
  -29.7969  -22.7972   23.0157 C   0  0  0  0  0  0  0  0  0  0  0  0
  -32.0363  -21.3886   22.1304 C   0  0  0  0  0  0  0  0  0  0  0  0
  -15.9841  -26.6567   22.4521 C   0  0  0  0  0  0  0  0  0  0  0  0
  -22.2130  -26.5500   21.4730 C   0  0  0  0  0  0  0  0  0  0  0  0
  -23.5954  -28.6906   21.3530 C   0  0  0  0  0  0  0  0  0  0  0  0
  -21.7922  -21.9408   18.3872 C   0  0  0  0  0  0  0  0  0  0  0  0
  -27.2948  -17.0929   18.7044 C   0  0  0  0  0  0  0  0  0  0  0  0
  -23.0714  -21.4860   18.7603 C   0  0  0  0  0  0  0  0  0  0  0  0
  -27.3204  -16.3350   19.8839 C   0  0  0  0  0  0  0  0  0  0  0  0
  -29.8842  -21.4214   23.2280 C   0  0  0  0  0  0  0  0  0  0  0  0
  -30.8293  -23.4688   22.3607 C   0  0  0  0  0  0  0  0  0  0  0  0
  -31.0039  -20.7171   22.7853 C   0  0  0  0  0  0  0  0  0  0  0  0
  -19.9486  -25.0636   22.1409 C   0  0  0  0  0  0  0  0  0  0  0  0
  -29.6932  -16.8077   20.1215 C   0  0  0  0  0  0  0  0  0  0  0  0
  -17.6057  -24.8869   22.1782 C   0  0  0  0  0  0  0  0  0  0  0  0
  -15.1110  -25.9897   21.5927 C   0  0  0  0  0  0  0  0  0  0  0  0
  -31.9490  -22.7644   21.9181 C   0  0  0  0  0  0  0  0  0  0  0  0
  -17.2314  -26.1053   22.7448 C   0  0  0  0  0  0  0  0  0  0  0  0
  -23.3829  -27.3172   21.1285 C   0  0  0  0  0  0  0  0  0  0  0  0
  -24.8500  -28.9309   20.8482 C   0  0  0  0  0  0  0  0  0  0  0  0
  -22.7357  -29.6622   21.9633 C   0  0  0  0  0  0  0  0  0  0  0  0
  -24.4627  -18.1812   19.6524 C   0  0  0  0  0  0  0  0  0  0  0  0
  -23.7287  -15.0242   19.7822 C   0  0  0  0  0  0  0  0  0  0  0  0
  -24.8220  -11.8057   20.0869 C   0  0  0  0  0  0  0  0  0  0  0  0
  -29.6296  -25.4337   19.9675 C   0  0  0  0  0  0  0  0  0  0  0  0
  -20.5382  -21.3821   19.0118 C   0  0  0  0  0  0  0  0  0  0  0  0
  -26.0221  -17.2301   17.9146 C   0  0  0  0  0  0  0  0  0  0  0  0
  -26.0846  -15.6623   20.4212 C   0  0  0  0  0  0  0  0  0  0  0  0
  -20.7506  -20.0409   19.7092 C   0  0  0  0  0  0  0  0  0  0  0  0
  -27.9103  -27.3655   17.5203 C   0  0  0  0  0  0  0  0  0  0  0  0
  -21.9975  -20.0870   20.5866 C   0  0  0  0  0  0  0  0  0  0  0  0
  -26.5742  -27.6961   18.1878 C   0  0  0  0  0  0  0  0  0  0  0  0
  -28.3931  -25.9641   17.8875 C   0  0  0  0  0  0  0  0  0  0  0  0
  -27.1304  -26.0245   20.0031 C   0  0  0  0  0  0  0  0  0  0  0  0
  -23.2530  -20.3534   19.7475 C   0  0  1  0  0  0  0  0  0  0  0  0
  -24.7693  -17.0135   18.7578 C   0  0  1  0  0  0  0  0  0  0  0  0
  -26.6302  -27.4488   19.7073 C   0  0  2  0  0  0  0  0  0  0  0  0
  -28.7640  -20.7274   23.9323 C   0  0  0  0  0  0  0  0  0  0  0  0
  -23.9842   -9.4428   20.1966 C   0  0  0  0  0  0  0  0  0  0  0  0
  -22.8254  -15.4807   22.6606 C   0  0  0  0  0  0  0  0  0  0  0  0
  -22.9094  -13.0024   23.0064 C   0  0  0  0  0  0  0  0  0  0  0  0
  -21.3402  -13.9733   21.3278 C   0  0  0  0  0  0  0  0  0  0  0  0
  -26.3130  -11.0411   17.6475 C   0  0  0  0  0  0  0  0  0  0  0  0
  -30.7330  -24.9399   22.1349 C   0  0  0  0  0  0  0  0  0  0  0  0
  -32.0136  -17.0853   22.8760 C   0  0  0  0  0  0  0  0  0  0  0  0
  -32.2353  -18.5590   22.5574 C   0  0  0  0  0  0  0  0  0  0  0  0
  -30.7539  -16.5200   22.2305 C   0  0  0  0  0  0  0  0  0  1  0  0
  -23.8202  -13.9478   20.8367 C   0  0  1  0  0  0  0  0  0  0  0  0
  -24.4987  -10.5527   19.2932 C   0  0  2  0  0  0  0  0  0  0  0  0
  -22.7468  -14.1152   21.9491 C   0  0  0  0  0  0  0  0  0  0  0  0
  -24.4194  -26.7265   20.5277 N   0  0  0  0  0  0  0  0  0  0  0  0
  -25.2952  -27.7336   20.3703 N   0  0  0  0  0  0  0  0  0  0  0  0
  -24.8633  -15.8311   19.6164 N   0  0  0  0  0  0  0  0  0  0  0  0
  -28.4248  -25.7952   19.3423 N   0  0  0  0  0  0  0  0  0  0  0  0
  -25.6047  -30.0476   20.7709 N   0  0  0  0  0  0  0  0  0  0  0  0
  -21.4805  -29.2459   22.4275 N   0  0  0  0  0  0  0  0  0  0  0  0
  -31.1075  -19.3497   22.9878 N   0  0  0  0  0  0  0  0  0  0  0  0
  -23.6694  -19.1476   19.0640 N   0  0  0  0  0  0  0  0  0  0  0  0
  -23.7522  -12.6747   20.1275 N   0  0  0  0  0  0  0  0  0  0  0  0
  -29.5739  -25.3008   21.3495 N   0  0  0  0  0  0  0  0  0  0  0  0
  -25.7147  -10.0585   18.5875 N   0  3  0  0  0  0  0  0  0  0  0  0
  -23.0640  -30.8674   22.0783 O   0  0  0  0  0  0  0  0  0  0  0  0
  -24.9114  -18.2031   20.7925 O   0  0  0  0  0  0  0  0  0  0  0  0
  -22.6915  -15.1401   19.1247 O   0  0  0  0  0  0  0  0  0  0  0  0
  -25.9130  -11.9930   20.6209 O   0  0  0  0  0  0  0  0  0  0  0  0
  -30.6785  -25.2486   19.3411 O   0  0  0  0  0  0  0  0  0  0  0  0
  -18.8440  -24.3385   22.4671 O   0  0  0  0  0  0  0  0  0  0  0  0
  -30.8559  -16.6708   20.8152 O   0  0  0  0  0  0  0  0  0  1  0  0
  -13.9137  -26.5199   21.3104 F   0  0  0  0  0  0  0  0  0  0  0  0
  -32.9459  -23.4011   21.2876 F   0  0  0  0  0  0  0  0  0  0  0  0
  -18.0665  -26.7513   23.5702 F   0  0  0  0  0  0  0  0  0  0  0  0
  1  2  1  0  0  0  0
  1  5  2  0  0  0  0
  2  6  2  0  0  0  0
  3  8  2  0  0  0  0
  3 17  1  0  0  0  0
  4  9  1  0  0  0  0
  4 17  2  0  0  0  0
  5 19  1  0  0  0  0
  6 21  1  0  0  0  0
  7 10  2  0  0  0  0
  7 20  1  0  0  0  0
  8 26  1  0  0  0  0
  9 26  2  0  0  0  0
 10 27  1  0  0  0  0
 11 12  2  0  0  0  0
 11 28  1  0  0  0  0
 12 29  1  0  0  0  0
 13 22  1  0  0  0  0
 13 27  2  0  0  0  0
 14 23  1  0  0  0  0
 14 24  2  0  0  0  0
 15 25  1  0  0  0  0
 15 30  2  0  0  0  0
 16 29  2  0  0  0  0
 16 31  1  0  0  0  0
 17 32  1  0  0  0  0
 18 32  1  0  0  0  0
 18 33  2  0  0  0  0
 18 34  1  0  0  0  0
 19 21  2  0  0  0  0
 19 39  1  0  0  0  0
 20 22  2  0  0  0  0
 20 40  1  0  0  0  0
 21 48  1  0  0  0  0
 22 41  1  0  0  0  0
 23 25  2  0  0  0  0
 23 51  1  0  0  0  0
 24 30  1  0  0  0  0
 24 57  1  0  0  0  0
 25 70  1  0  0  0  0
 26 80  1  0  0  0  0
 27 81  1  0  0  0  0
 28 31  2  0  0  0  0
 28 80  1  0  0  0  0
 29 82  1  0  0  0  0
 30 83  1  0  0  0  0
 31 84  1  0  0  0  0
 32 64  2  0  0  0  0
 33 65  1  0  0  0  0
 33 68  1  0  0  0  0
 34 69  1  0  0  0  0
 34 75  2  0  0  0  0
 35 49  1  0  0  0  0
 35 71  1  0  0  0  0
 35 76  2  0  0  0  0
 36 61  1  0  0  0  0
 36 66  1  0  0  0  0
 36 77  2  0  0  0  0
 37 62  1  0  0  0  0
 37 72  1  0  0  0  0
 37 78  2  0  0  0  0
 38 67  1  0  0  0  0
 38 73  1  0  0  0  0
 38 79  2  0  0  0  0
 39 42  1  0  0  0  0
 40 49  1  0  0  0  0
 41 66  1  0  0  0  0
 42 44  1  0  0  0  0
 43 45  1  0  0  0  0
 43 46  1  0  0  0  0
 44 48  1  0  0  0  0
 45 50  1  0  0  0  0
 46 67  1  0  0  0  0
 47 50  1  0  0  0  0
 47 67  1  0  0  0  0
 48 71  1  0  0  0  0
 49 66  1  0  0  0  0
 50 65  1  0  0  0  0
 52 62  1  0  0  0  0
 53 63  1  0  0  0  0
 54 63  1  0  0  0  0
 55 63  1  0  0  0  0
 56 74  1  0  0  0  0
 57 73  1  0  0  0  0
 58 59  1  0  0  0  0
 58 60  1  0  0  0  0
 59 70  1  0  0  0  0
 60 81  1  0  0  0  0
 61 63  1  0  0  0  0
 61 72  1  0  0  0  0
 62 74  1  0  0  0  0
 64 65  1  0  0  0  0
M  CHG  1  74   1
M  ISO  4  38 100  60 101  73 100  81 101
M  END
> <Batch ID>
0100

> <Smiles>
CNC(C)C(=O)NC(C(=O)N1Cc2cc([101O:1][101CH2:1]CCNc3cc(F)c(C[100NH:0][100C:0](=O)N4CCCC(n5nc(-c6ccc(Oc7ccc(F)cc7F)cc6)c(C(N)=O)c5N)C4)cc3C)ccc2CC1C(=O)NC1CCCc2ccccc21)C(C)(C)C

> <Shape>
0.192

> <Color>
0.060

> <Negative vol penalty>
0.000

$$$$

  -OEChem-04052300573D

 85 94  0     1  0  0  0  0  0999 V2000
  -17.8868  -30.8213   23.2917 C   0  0  0  0  0  0  0  0  0  0  0  0
  -19.0788  -30.1272   23.1106 C   0  0  0  0  0  0  0  0  0  0  0  0
  -23.3466   -9.5961   20.0701 C   0  0  0  0  0  0  0  0  0  0  0  0
  -23.7190  -10.0684   22.4101 C   0  0  0  0  0  0  0  0  0  0  0  0
  -16.8216  -30.2138   23.9552 C   0  0  0  0  0  0  0  0  0  0  0  0
  -19.2067  -28.8255   23.5940 C   0  0  0  0  0  0  0  0  0  0  0  0
  -22.3773  -24.2472   21.0461 C   0  0  0  0  0  0  0  0  0  0  0  0
  -22.6429   -8.4422   20.4150 C   0  0  0  0  0  0  0  0  0  0  0  0
  -23.0152   -8.9145   22.7550 C   0  0  0  0  0  0  0  0  0  0  0  0
  -23.6470  -23.7304   21.3002 C   0  0  0  0  0  0  0  0  0  0  0  0
  -21.0073   -6.2851   24.2625 C   0  0  0  0  0  0  0  0  0  0  0  0
  -20.0736   -6.3782   25.2945 C   0  0  0  0  0  0  0  0  0  0  0  0
  -22.6674  -22.0293   22.7024 C   0  0  0  0  0  0  0  0  0  0  0  0
  -29.0631  -18.2006   22.7894 C   0  0  0  0  0  0  0  0  0  0  0  0
  -31.3617  -17.4617   22.7012 C   0  0  0  0  0  0  0  0  0  0  0  0
  -18.8508   -8.0406   24.0382 C   0  0  0  0  0  0  0  0  0  0  0  0
  -23.8847  -10.4092   21.0677 C   0  0  0  0  0  0  0  0  0  0  0  0
  -24.0883  -12.8955   20.5343 C   0  0  0  0  0  0  0  0  0  0  0  0
  -16.9332  -28.9006   24.4385 C   0  0  0  0  0  0  0  0  0  0  0  0
  -21.2422  -23.6646   21.6279 C   0  0  0  0  0  0  0  0  0  0  0  0
  -18.1425  -28.2004   24.2658 C   0  0  0  0  0  0  0  0  0  0  0  0
  -21.3842  -22.5391   22.4520 C   0  0  0  0  0  0  0  0  0  0  0  0
  -29.4402  -19.2779   23.5912 C   0  0  0  0  0  0  0  0  0  0  0  0
  -30.0239  -17.2925   22.3445 C   0  0  0  0  0  0  0  0  0  0  0  0
  -31.7388  -18.5391   23.5030 C   0  0  0  0  0  0  0  0  0  0  0  0
  -30.7780  -19.4472   23.9479 C   0  0  0  0  0  0  0  0  0  0  0  0
  -22.4772   -8.1015   21.7574 C   0  0  0  0  0  0  0  0  0  0  0  0
  -23.7924  -22.6231   22.1308 C   0  0  0  0  0  0  0  0  0  0  0  0
  -20.8629   -7.0699   23.1184 C   0  0  0  0  0  0  0  0  0  0  0  0
  -18.9953   -7.2559   25.1823 C   0  0  0  0  0  0  0  0  0  0  0  0
  -19.7846   -7.9476   23.0062 C   0  0  0  0  0  0  0  0  0  0  0  0
  -24.6122  -11.6010   20.7120 C   0  0  0  0  0  0  0  0  0  0  0  0
  -25.1779  -13.6648   20.2065 C   0  0  0  0  0  0  0  0  0  0  0  0
  -26.6596  -21.6103   24.0384 C   0  0  0  0  0  0  0  0  0  0  0  0
  -25.4628  -22.0851   23.6771 C   0  0  0  0  0  0  0  0  0  1  0  0
  -22.7376  -13.3610   20.6549 C   0  0  0  0  0  0  0  0  0  0  0  0
  -18.9930  -24.6592   23.6418 C   0  0  0  0  0  0  0  0  0  0  0  0
  -17.6763  -21.7680   22.9863 C   0  0  0  0  0  0  0  0  0  0  0  0
  -18.1249  -18.5496   21.9434 C   0  0  0  0  0  0  0  0  0  0  0  0
  -30.4685  -15.2072   21.0026 C   0  0  0  0  0  0  0  0  0  0  0  0
  -15.7709  -28.3028   25.1911 C   0  0  0  0  0  0  0  0  0  0  0  0
  -19.8772  -24.2177   21.3225 C   0  0  0  0  0  0  0  0  0  0  0  0
  -20.1955  -21.8645   23.0849 C   0  0  0  0  0  0  0  0  0  0  0  0
  -27.1755  -21.5550   25.4414 C   0  0  0  0  0  0  0  0  0  0  0  0
  -27.6357  -20.9460   23.1146 C   0  0  0  0  0  0  0  0  0  0  0  0
  -15.8589  -26.7864   25.3431 C   0  0  0  0  0  0  0  0  0  0  0  0
  -29.9047  -12.3297   18.9829 C   0  0  0  0  0  0  0  0  0  0  0  0
  -17.2573  -26.3751   25.7924 C   0  0  0  0  0  0  0  0  0  0  0  0
  -28.4344  -11.9901   19.2381 C   0  0  0  0  0  0  0  0  0  0  0  0
  -28.0852  -20.3298   25.4207 C   0  0  0  0  0  0  0  0  0  0  0  0
  -30.5952  -12.8440   20.2448 C   0  0  0  0  0  0  0  0  0  0  0  0
  -28.4477  -13.6244   21.1657 C   0  0  0  0  0  0  0  0  0  0  0  0
  -18.3113  -26.7780   24.7540 C   0  0  1  0  0  0  0  0  0  0  0  0
  -18.8370  -23.8593   22.3794 C   0  0  1  0  0  0  0  0  0  0  0  0
  -27.6930  -13.1636   19.9080 C   0  0  2  0  0  0  0  0  0  0  0  0
  -16.8681  -16.4139   21.5472 C   0  0  0  0  0  0  0  0  0  0  0  0
  -17.5786  -21.2701   25.9950 C   0  0  0  0  0  0  0  0  0  0  0  0
  -17.2293  -18.8387   25.5110 C   0  0  0  0  0  0  0  0  0  0  0  0
  -15.5477  -20.5150   24.7462 C   0  0  0  0  0  0  0  0  0  0  0  0
  -18.8198  -18.5385   19.0666 C   0  0  0  0  0  0  0  0  0  0  0  0
  -17.7865  -20.3839   23.5790 C   0  0  1  0  0  0  0  0  0  0  0  0
  -17.3760  -17.7064   20.9272 C   0  0  2  0  0  0  0  0  0  0  0  0
  -17.0583  -20.2656   24.9476 C   0  0  0  0  0  0  0  0  0  0  0  0
  -25.9319  -11.5470   20.5134 N   0  0  0  0  0  0  0  0  0  0  0  0
  -26.2465  -12.8172   20.2074 N   0  0  0  0  0  0  0  0  0  0  0  0
  -28.4715  -20.1633   24.0216 N   0  0  3  0  0  0  0  0  0  0  0  0
  -18.8825  -22.4463   22.7608 N   0  0  0  0  0  0  0  0  0  0  0  0
  -29.8389  -13.9575   20.8219 N   0  0  0  0  0  0  0  0  0  0  0  0
  -33.0998  -18.6900   23.8522 N   0  0  0  0  0  0  0  0  0  0  0  0
  -31.1602  -20.5399   24.7627 N   0  0  0  0  0  0  0  0  0  0  0  0
  -25.3166  -14.9768   19.9203 N   0  0  0  0  0  0  0  0  0  0  0  0
  -21.7409  -12.4377   20.9991 N   0  0  0  0  0  0  0  0  0  0  0  0
  -29.6412  -16.1989   21.5288 N   0  0  0  0  0  0  0  0  0  0  0  0
  -18.3009  -25.8552   23.6391 N   0  0  0  0  0  0  0  0  0  0  0  0
  -17.2958  -19.4630   22.5594 N   0  0  0  0  0  0  0  0  0  0  0  0
  -18.2670  -17.3607   19.7837 N   0  3  0  0  0  0  0  0  0  0  0  0
  -22.4212  -14.5569   20.4470 O   0  0  0  0  0  0  0  0  0  0  0  0
  -19.6884  -24.2228   24.5515 O   0  0  0  0  0  0  0  0  0  0  0  0
  -16.5615  -22.2274   22.7261 O   0  0  0  0  0  0  0  0  0  0  0  0
  -19.3245  -18.4093   22.1708 O   0  0  0  0  0  0  0  0  0  0  0  0
  -31.6466  -15.3921   20.6867 O   0  0  0  0  0  0  0  0  0  0  0  0
  -21.7903   -6.9757   22.0943 O   0  0  0  0  0  0  0  0  0  0  0  0
  -25.0307  -22.1170   22.3810 O   0  0  0  0  0  0  0  0  0  1  0  0
  -18.0978   -7.3441   26.1728 F   0  0  0  0  0  0  0  0  0  0  0  0
  -19.6399   -8.7031   21.9089 F   0  0  0  0  0  0  0  0  0  0  0  0
  1  2  1  0  0  0  0
  1  5  2  0  0  0  0
  2  6  2  0  0  0  0
  3  8  2  0  0  0  0
  3 17  1  0  0  0  0
  4  9  1  0  0  0  0
  4 17  2  0  0  0  0
  5 19  1  0  0  0  0
  6 21  1  0  0  0  0
  7 10  2  0  0  0  0
  7 20  1  0  0  0  0
  8 27  1  0  0  0  0
  9 27  2  0  0  0  0
 10 28  1  0  0  0  0
 11 12  2  0  0  0  0
 11 29  1  0  0  0  0
 12 30  1  0  0  0  0
 13 22  1  0  0  0  0
 13 28  2  0  0  0  0
 14 23  1  0  0  0  0
 14 24  2  0  0  0  0
 15 24  1  0  0  0  0
 15 25  2  0  0  0  0
 16 30  2  0  0  0  0
 16 31  1  0  0  0  0
 17 32  1  0  0  0  0
 18 32  1  0  0  0  0
 18 33  2  0  0  0  0
 18 36  1  0  0  0  0
 19 21  2  0  0  0  0
 19 41  1  0  0  0  0
 20 22  2  0  0  0  0
 20 42  1  0  0  0  0
 21 53  1  0  0  0  0
 22 43  1  0  0  0  0
 23 26  2  0  0  0  0
 23 66  1  0  0  0  0
 24 73  1  0  0  0  0
 25 26  1  0  0  0  0
 25 69  1  0  0  0  0
 26 70  1  0  0  0  0
 27 82  1  0  0  0  0
 28 83  1  0  0  0  0
 29 31  2  0  0  0  0
 29 82  1  0  0  0  0
 30 84  1  0  0  0  0
 31 85  1  0  0  0  0
 32 64  2  0  0  0  0
 33 65  1  0  0  0  0
 33 71  1  0  0  0  0
 34 35  2  0  0  0  0
 34 44  1  0  0  0  0
 34 45  1  0  0  0  0
 35 83  1  0  0  0  0
 36 72  1  0  0  0  0
 36 77  2  0  0  0  0
 37 54  1  0  0  0  0
 37 74  1  0  0  0  0
 37 78  2  0  0  0  0
 38 61  1  0  0  0  0
 38 67  1  0  0  0  0
 38 79  2  0  0  0  0
 39 62  1  0  0  0  0
 39 75  1  0  0  0  0
 39 80  2  0  0  0  0
 40 68  1  0  0  0  0
 40 73  1  0  0  0  0
 40 81  2  0  0  0  0
 41 46  1  0  0  0  0
 42 54  1  0  0  0  0
 43 67  1  0  0  0  0
 44 50  1  0  0  0  0
 45 66  1  0  0  0  0
 46 48  1  0  0  0  0
 47 49  1  0  0  0  0
 47 51  1  0  0  0  0
 48 53  1  0  0  0  0
 49 55  1  0  0  0  0
 50 66  1  0  0  0  0
 51 68  1  0  0  0  0
 52 55  1  0  0  0  0
 52 68  1  0  0  0  0
 53 74  1  0  0  0  0
 54 67  1  0  0  0  0
 55 65  1  0  0  0  0
 56 62  1  0  0  0  0
 57 63  1  0  0  0  0
 58 63  1  0  0  0  0
 59 63  1  0  0  0  0
 60 76  1  0  0  0  0
 61 63  1  0  0  0  0
 61 75  1  0  0  0  0
 62 76  1  0  0  0  0
 64 65  1  0  0  0  0
M  CHG  1  76   1
M  ISO  4  35 101  40 100  73 100  83 101
M  END
> <Batch ID>
0100

> <Smiles>
CNC(C)C(=O)NC(C(=O)N1Cc2cc([101O:1][101CH:1]=C3CCN(c4cc([100NH:0][100C:0](=O)N5CCCC(n6nc(-c7ccc(Oc8ccc(F)cc8F)cc7)c(C(N)=O)c6N)C5)cc(N)c4N)C3)ccc2CC1C(=O)NC1CCCc2ccccc21)C(C)(C)C

> <Shape>
0.189

> <Color>
0.163

> <Negative vol penalty>
0.000

$$$$

  -OEChem-04052300573D

 86 94  0     1  0  0  0  0  0999 V2000
  -30.0213  -21.6172   14.3597 C   0  0  0  0  0  0  0  0  0  0  0  0
  -29.6720  -21.7077   15.7033 C   0  0  0  0  0  0  0  0  0  0  0  0
  -23.0756   -9.8661   19.9436 C   0  0  0  0  0  0  0  0  0  0  0  0
  -23.8387   -9.8764   22.2359 C   0  0  0  0  0  0  0  0  0  0  0  0
  -31.2734  -21.1218   13.9980 C   0  0  0  0  0  0  0  0  0  0  0  0
  -30.5743  -21.3018   16.6860 C   0  0  0  0  0  0  0  0  0  0  0  0
  -30.8706  -24.5879   20.5277 C   0  0  0  0  0  0  0  0  0  0  0  0
  -28.9147  -17.8864   23.1954 C   0  0  0  0  0  0  0  0  0  0  0  0
  -22.3336   -8.7123   20.1957 C   0  0  0  0  0  0  0  0  0  0  0  0
  -23.0966   -8.7225   22.4881 C   0  0  0  0  0  0  0  0  0  0  0  0
  -29.8432  -24.5604   21.4698 C   0  0  0  0  0  0  0  0  0  0  0  0
  -28.0028  -18.9133   23.4394 C   0  0  0  0  0  0  0  0  0  0  0  0
  -21.1171   -5.9842   23.8302 C   0  0  0  0  0  0  0  0  0  0  0  0
  -20.3625   -5.9408   25.0025 C   0  0  0  0  0  0  0  0  0  0  0  0
  -31.2440  -23.2705   22.9507 C   0  0  0  0  0  0  0  0  0  0  0  0
  -29.8369  -19.1436   21.3499 C   0  0  0  0  0  0  0  0  0  0  0  0
  -19.1144   -7.8758   24.2707 C   0  0  0  0  0  0  0  0  0  0  0  0
  -23.8282  -10.4482   20.9636 C   0  0  0  0  0  0  0  0  0  0  0  0
  -24.1666  -12.9736   20.8406 C   0  0  0  0  0  0  0  0  0  0  0  0
  -32.1952  -20.7188   14.9771 C   0  0  0  0  0  0  0  0  0  0  0  0
  -32.0906  -23.9466   20.7860 C   0  0  0  0  0  0  0  0  0  0  0  0
  -31.8394  -20.7994   16.3370 C   0  0  0  0  0  0  0  0  0  0  0  0
  -32.2862  -23.2935   22.0113 C   0  0  0  0  0  0  0  0  0  0  0  0
  -29.8318  -18.0016   22.1507 C   0  0  0  0  0  0  0  0  0  0  0  0
  -22.3440   -8.1405   21.4679 C   0  0  0  0  0  0  0  0  0  0  0  0
  -30.0288  -23.8991   22.6804 C   0  0  0  0  0  0  0  0  0  0  0  0
  -20.8704   -6.9734   22.8781 C   0  0  0  0  0  0  0  0  0  0  0  0
  -28.0079  -20.0554   22.6386 C   0  0  0  0  0  0  0  0  0  0  0  0
  -19.3612   -6.8866   25.2228 C   0  0  0  0  0  0  0  0  0  0  0  0
  -28.9250  -20.1706   21.5938 C   0  0  0  0  0  0  0  0  0  0  0  0
  -19.8691   -7.9192   23.0984 C   0  0  0  0  0  0  0  0  0  0  0  0
  -24.5954  -11.6398   20.7036 C   0  0  0  0  0  0  0  0  0  0  0  0
  -25.2573  -13.7241   20.4751 C   0  0  0  0  0  0  0  0  0  0  0  0
  -22.8961  -13.4882   21.2608 C   0  0  0  0  0  0  0  0  0  0  0  0
  -33.6998  -21.5601   19.4374 C   0  0  0  0  0  0  0  0  0  0  0  0
  -31.7676  -16.6698   23.0633 C   0  0  0  0  0  0  0  0  0  0  0  0
  -35.9810  -22.4022   21.5844 C   0  0  0  0  0  0  0  0  0  0  0  0
  -36.7534  -23.8863   24.5589 C   0  0  0  0  0  0  0  0  0  0  0  0
  -30.7400  -14.7504   20.6547 C   0  0  0  0  0  0  0  0  0  0  0  0
  -33.5186  -20.1456   14.5360 C   0  0  0  0  0  0  0  0  0  0  0  0
  -33.1983  -24.0083   19.7704 C   0  0  0  0  0  0  0  0  0  0  0  0
  -33.5843  -22.6068   22.3456 C   0  0  0  0  0  0  0  0  0  0  0  0
  -34.5592  -20.0874   15.6514 C   0  0  0  0  0  0  0  0  0  0  0  0
  -29.6021  -12.3621   18.2719 C   0  0  0  0  0  0  0  0  0  0  0  0
  -33.9465  -19.5103   16.9235 C   0  0  0  0  0  0  0  0  0  0  0  0
  -28.1657  -12.0669   18.7072 C   0  0  0  0  0  0  0  0  0  0  0  0
  -30.5206  -12.5853   19.4713 C   0  0  0  0  0  0  0  0  0  0  0  0
  -28.6199  -13.3153   20.8598 C   0  0  0  0  0  0  0  0  0  0  0  0
  -32.8002  -20.3923   17.4330 C   0  0  1  0  0  0  0  0  0  0  0  0
  -34.2165  -22.8831   19.9277 C   0  0  1  0  0  0  0  0  0  0  0  0
  -27.6443  -13.1383   19.6837 C   0  0  2  0  0  0  0  0  0  0  0  0
  -32.6880  -17.7792   23.5066 C   0  0  0  0  0  0  0  0  0  0  0  0
  -38.6977  -24.3864   26.0646 C   0  0  0  0  0  0  0  0  0  0  0  0
  -36.0209  -19.4906   22.4958 C   0  0  0  0  0  0  0  0  0  0  0  0
  -37.2255  -20.2270   24.5634 C   0  0  0  0  0  0  0  0  0  0  0  0
  -38.2746  -20.5612   22.3250 C   0  0  0  0  0  0  0  0  0  0  0  0
  -36.3214  -26.8060   24.3398 C   0  0  0  0  0  0  0  0  0  0  0  0
  -26.7698  -23.1431   24.0442 C   0  0  0  0  0  0  0  0  0  0  0  0
  -27.6893  -23.9108   23.1074 C   0  0  0  0  0  0  0  0  0  1  0  0
  -27.1670  -21.6798   24.1585 C   0  0  0  0  0  0  0  0  0  0  0  0
  -30.8048  -16.9023   21.8894 C   0  0  1  0  0  0  0  0  0  0  0  0
  -36.3131  -22.0053   23.0026 C   0  0  1  0  0  0  0  0  0  0  0  0
  -37.8213  -24.8986   24.9322 C   0  0  2  0  0  0  0  0  0  0  0  0
  -36.9332  -20.5822   23.0899 C   0  0  0  0  0  0  0  0  0  0  0  0
  -25.8598  -11.5451   20.2837 N   0  0  0  0  0  0  0  0  0  0  0  0
  -26.2349  -12.8291   20.1535 N   0  0  0  0  0  0  0  0  0  0  0  0
  -34.6349  -22.6897   21.3175 N   0  0  0  0  0  0  0  0  0  0  0  0
  -29.9700  -13.6140   20.3570 N   0  0  0  0  0  0  0  0  0  0  0  0
  -25.4659  -15.0558   20.4004 N   0  0  0  0  0  0  0  0  0  0  0  0
  -21.8858  -12.5781   21.6004 N   0  0  0  0  0  0  0  0  0  0  0  0
  -33.3232  -21.5608   18.1079 N   0  0  0  0  0  0  0  0  0  0  0  0
  -37.1667  -23.0627   23.5332 N   0  0  0  0  0  0  0  0  0  0  0  0
  -30.1408  -15.6793   21.4967 N   0  0  0  0  0  0  0  0  0  0  0  0
  -37.1929  -26.1783   25.3662 N   0  3  0  0  0  0  0  0  0  0  0  0
  -22.6583  -14.7186   21.3172 O   0  0  0  0  0  0  0  0  0  0  0  0
  -33.6482  -20.6086   20.2079 O   0  0  0  0  0  0  0  0  0  0  0  0
  -31.7682  -15.5911   23.6630 O   0  0  0  0  0  0  0  0  0  0  0  0
  -36.8839  -22.4622   20.7460 O   0  0  0  0  0  0  0  0  0  0  0  0
  -35.6632  -23.8294   25.1234 O   0  0  0  0  0  0  0  0  0  0  0  0
  -31.8751  -14.9269   20.1993 O   0  0  0  0  0  0  0  0  0  0  0  0
  -21.6199   -7.0147   21.7144 O   0  0  0  0  0  0  0  0  0  0  0  0
  -29.0275  -23.8702   23.6014 O   0  0  0  0  0  0  0  0  0  1  0  0
  -27.1110  -21.0635   22.8791 O   0  0  0  0  0  0  0  0  0  0  0  0
  -18.6356   -6.8439   26.3479 F   0  0  0  0  0  0  0  0  0  0  0  0
  -28.9345  -21.2652   20.8209 F   0  0  0  0  0  0  0  0  0  0  0  0
  -19.6266   -8.8711   22.1869 F   0  0  0  0  0  0  0  0  0  0  0  0
  1  2  1  0  0  0  0
  1  5  2  0  0  0  0
  2  6  2  0  0  0  0
  3  9  2  0  0  0  0
  3 18  1  0  0  0  0
  4 10  1  0  0  0  0
  4 18  2  0  0  0  0
  5 20  1  0  0  0  0
  6 22  1  0  0  0  0
  7 11  2  0  0  0  0
  7 21  1  0  0  0  0
  8 12  2  0  0  0  0
  8 24  1  0  0  0  0
  9 25  1  0  0  0  0
 10 25  2  0  0  0  0
 11 26  1  0  0  0  0
 12 28  1  0  0  0  0
 13 14  2  0  0  0  0
 13 27  1  0  0  0  0
 14 29  1  0  0  0  0
 15 23  1  0  0  0  0
 15 26  2  0  0  0  0
 16 24  2  0  0  0  0
 16 30  1  0  0  0  0
 17 29  2  0  0  0  0
 17 31  1  0  0  0  0
 18 32  1  0  0  0  0
 19 32  1  0  0  0  0
 19 33  2  0  0  0  0
 19 34  1  0  0  0  0
 20 22  2  0  0  0  0
 20 40  1  0  0  0  0
 21 23  2  0  0  0  0
 21 41  1  0  0  0  0
 22 49  1  0  0  0  0
 23 42  1  0  0  0  0
 24 61  1  0  0  0  0
 25 81  1  0  0  0  0
 26 82  1  0  0  0  0
 27 31  2  0  0  0  0
 27 81  1  0  0  0  0
 28 30  2  0  0  0  0
 28 83  1  0  0  0  0
 29 84  1  0  0  0  0
 30 85  1  0  0  0  0
 31 86  1  0  0  0  0
 32 65  2  0  0  0  0
 33 66  1  0  0  0  0
 33 69  1  0  0  0  0
 34 70  1  0  0  0  0
 34 75  2  0  0  0  0
 35 50  1  0  0  0  0
 35 71  1  0  0  0  0
 35 76  2  0  0  0  0
 36 52  1  0  0  0  0
 36 61  1  0  0  0  0
 36 77  2  0  0  0  0
 37 62  1  0  0  0  0
 37 67  1  0  0  0  0
 37 78  2  0  0  0  0
 38 63  1  0  0  0  0
 38 72  1  0  0  0  0
 38 79  2  0  0  0  0
 39 68  1  0  0  0  0
 39 73  1  0  0  0  0
 39 80  2  0  0  0  0
 40 43  1  0  0  0  0
 41 50  1  0  0  0  0
 42 67  1  0  0  0  0
 43 45  1  0  0  0  0
 44 46  1  0  0  0  0
 44 47  1  0  0  0  0
 45 49  1  0  0  0  0
 46 51  1  0  0  0  0
 47 68  1  0  0  0  0
 48 51  1  0  0  0  0
 48 68  1  0  0  0  0
 49 71  1  0  0  0  0
 50 67  1  0  0  0  0
 51 66  1  0  0  0  0
 53 63  1  0  0  0  0
 54 64  1  0  0  0  0
 55 64  1  0  0  0  0
 56 64  1  0  0  0  0
 57 74  1  0  0  0  0
 58 59  1  0  0  0  0
 58 60  1  0  0  0  0
 59 82  1  0  0  0  0
 60 83  1  0  0  0  0
 61 73  1  0  0  0  0
 62 64  1  0  0  0  0
 62 72  1  0  0  0  0
 63 74  1  0  0  0  0
 65 66  1  0  0  0  0
M  CHG  1  74   1
M  ISO  4  39 100  59 101  73 100  82 101
M  END
> <Batch ID>
0100

> <Smiles>
CNC(C)C(=O)NC(C(=O)N1Cc2cc([101O:1][101CH2:1]CCOc3ccc(C([100NH:0][100C:0](=O)N4CCCC(n5nc(-c6ccc(Oc7ccc(F)cc7F)cc6)c(C(N)=O)c5N)C4)C(C)=O)cc3F)ccc2CC1C(=O)NC1CCCc2ccccc21)C(C)(C)C

> <Shape>
0.192

> <Color>
0.191

> <Negative vol penalty>
0.000

$$$$

  -OEChem-04052300573D

 86 95  0     1  0  0  0  0  0999 V2000
  -24.0782  -26.7191   19.2653 C   0  0  0  0  0  0  0  0  0  0  0  0
  -24.9128  -25.9504   20.0702 C   0  0  0  0  0  0  0  0  0  0  0  0
  -22.8004  -10.1446   20.0971 C   0  0  0  0  0  0  0  0  0  0  0  0
  -24.1816   -9.5731   21.9953 C   0  0  0  0  0  0  0  0  0  0  0  0
  -23.3535  -27.7729   19.8205 C   0  0  0  0  0  0  0  0  0  0  0  0
  -25.0241  -26.2358   21.4306 C   0  0  0  0  0  0  0  0  0  0  0  0
  -24.8310  -22.0749   24.3107 C   0  0  0  0  0  0  0  0  0  0  0  0
  -30.6109  -14.9777   24.9980 C   0  0  0  0  0  0  0  0  0  0  0  0
  -32.7214  -15.2867   23.8633 C   0  0  0  0  0  0  0  0  0  0  0  0
  -30.6216  -16.3184   25.3829 C   0  0  0  0  0  0  0  0  0  0  0  0
  -32.7321  -16.6274   24.2482 C   0  0  0  0  0  0  0  0  0  0  0  0
  -22.0660   -8.9727   20.2786 C   0  0  0  0  0  0  0  0  0  0  0  0
  -23.4471   -8.4012   22.1768 C   0  0  0  0  0  0  0  0  0  0  0  0
  -25.9867  -21.2988   24.3864 C   0  0  0  0  0  0  0  0  0  0  0  0
  -23.2903   -5.3199   20.7940 C   0  0  0  0  0  0  0  0  0  0  0  0
  -23.9981   -4.1423   21.0346 C   0  0  0  0  0  0  0  0  0  0  0  0
  -26.5128  -22.3006   26.5168 C   0  0  0  0  0  0  0  0  0  0  0  0
  -22.8755   -3.9019   23.1604 C   0  0  0  0  0  0  0  0  0  0  0  0
  -23.8583  -10.4447   20.9554 C   0  0  0  0  0  0  0  0  0  0  0  0
  -24.1337  -12.9763   20.8042 C   0  0  0  0  0  0  0  0  0  0  0  0
  -23.4485  -28.0653   21.1902 C   0  0  0  0  0  0  0  0  0  0  0  0
  -24.5127  -22.9792   25.3341 C   0  0  0  0  0  0  0  0  0  0  0  0
  -24.3010  -27.2954   22.0043 C   0  0  0  0  0  0  0  0  0  0  0  0
  -25.3512  -23.0853   26.4530 C   0  0  0  0  0  0  0  0  0  0  0  0
  -31.6609  -14.4618   24.2383 C   0  0  0  0  0  0  0  0  0  0  0  0
  -31.6821  -17.1432   25.0080 C   0  0  0  0  0  0  0  0  0  0  0  0
  -22.3894   -8.1010   21.3185 C   0  0  0  0  0  0  0  0  0  0  0  0
  -26.8293  -21.4136   25.4882 C   0  0  0  0  0  0  0  0  0  0  0  0
  -22.3752   -5.7886   21.7367 C   0  0  0  0  0  0  0  0  0  0  0  0
  -23.7906   -3.4333   22.2177 C   0  0  0  0  0  0  0  0  0  0  0  0
  -22.1678   -5.0796   22.9198 C   0  0  0  0  0  0  0  0  0  0  0  0
  -24.6176  -11.6548   20.7681 C   0  0  0  0  0  0  0  0  0  0  0  0
  -25.2413  -13.7541   20.5704 C   0  0  0  0  0  0  0  0  0  0  0  0
  -32.9068  -19.2109   25.6202 C   0  0  0  0  0  0  0  0  0  0  0  0
  -22.8020  -13.4577   21.0291 C   0  0  0  0  0  0  0  0  0  0  0  0
  -24.1456  -26.1318   25.5078 C   0  0  0  0  0  0  0  0  0  0  0  0
  -23.2004  -25.4633   28.5380 C   0  0  0  0  0  0  0  0  0  0  0  0
  -24.2564  -23.2724   31.2030 C   0  0  0  0  0  0  0  0  0  0  0  0
  -31.1019  -12.8615   21.4120 C   0  0  0  0  0  0  0  0  0  0  0  0
  -22.6821  -29.2442   21.7357 C   0  0  0  0  0  0  0  0  0  0  0  0
  -23.2485  -23.7899   25.2501 C   0  0  0  0  0  0  0  0  0  0  0  0
  -25.0438  -24.0264   27.5879 C   0  0  0  0  0  0  0  0  0  0  0  0
  -32.8270  -20.7222   25.7253 C   0  0  0  0  0  0  0  0  0  0  0  0
  -22.5687  -29.2452   23.2580 C   0  0  0  0  0  0  0  0  0  0  0  0
  -31.5734  -21.2360   26.3987 C   0  0  0  0  0  0  0  0  0  0  0  0
  -29.4772  -13.6659   18.3477 C   0  0  0  0  0  0  0  0  0  0  0  0
  -23.9227  -28.9477   23.8944 C   0  0  0  0  0  0  0  0  0  0  0  0
  -28.0039  -13.3610   18.6238 C   0  0  0  0  0  0  0  0  0  0  0  0
  -30.4001  -12.6683   19.0441 C   0  0  0  0  0  0  0  0  0  0  0  0
  -30.4025  -19.1405   25.7813 C   0  0  0  0  0  0  0  0  0  0  0  0
  -28.6998  -12.2176   20.7702 C   0  0  0  0  0  0  0  0  0  0  0  0
  -24.4294  -27.5583   23.4890 C   0  0  1  0  0  0  0  0  0  0  0  0
  -23.2897  -25.0517   26.1066 C   0  0  1  0  0  0  0  0  0  0  0  0
  -30.3614  -20.6647   25.6815 C   0  0  1  0  0  0  0  0  0  0  0  0
  -27.7319  -13.2302   20.1345 C   0  0  2  0  0  0  0  0  0  0  0  0
  -22.9551  -22.2591   33.0944 C   0  0  0  0  0  0  0  0  0  0  0  0
  -24.1619  -27.8907   30.1170 C   0  0  0  0  0  0  0  0  0  0  0  0
  -24.4383  -26.3986   32.1084 C   0  0  0  0  0  0  0  0  0  0  0  0
  -22.1799  -26.7248   31.1003 C   0  0  0  0  0  0  0  0  0  0  0  0
  -25.0870  -20.5309   30.4591 C   0  0  0  0  0  0  0  0  0  0  0  0
  -31.6494  -13.0284   23.8268 C   0  0  0  0  0  0  0  0  0  0  0  0
  -29.0649  -21.2125   26.2742 C   0  0  0  0  0  0  0  0  0  1  0  0
  -23.8968  -25.3343   29.8712 C   0  0  1  0  0  0  0  0  0  0  0  0
  -23.5314  -22.0366   31.7047 C   0  0  2  0  0  0  0  0  0  0  0  0
  -23.6826  -26.5813   30.7748 C   0  0  0  0  0  0  0  0  0  0  0  0
  -25.9304  -11.5928   20.5299 N   0  0  0  0  0  0  0  0  0  0  0  0
  -26.2808  -12.8851   20.4141 N   0  0  0  0  0  0  0  0  0  0  0  0
  -31.6933  -18.5345   25.4070 N   0  0  0  0  0  0  0  0  0  0  0  0
  -23.7994  -24.8021   27.4564 N   0  0  0  0  0  0  0  0  0  0  0  0
  -30.0913  -12.5929   20.4741 N   0  0  0  0  0  0  0  0  0  0  0  0
  -25.4178  -15.0898   20.4852 N   0  0  0  0  0  0  0  0  0  0  0  0
  -22.4034  -13.7302   22.3449 N   0  0  0  0  0  0  0  0  0  0  0  0
  -23.7472  -26.5308   24.2463 N   0  0  0  0  0  0  0  0  0  0  0  0
  -23.4272  -24.0837   30.4577 N   0  0  0  0  0  0  0  0  0  0  0  0
  -30.7232  -12.7740   22.7460 N   0  0  0  0  0  0  0  0  0  0  0  0
  -24.4648  -20.8763   31.7631 N   0  3  0  0  0  0  0  0  0  0  0  0
  -34.0219  -18.6846   25.6683 O   0  0  0  0  0  0  0  0  0  0  0  0
  -21.9843  -13.6252   20.0928 O   0  0  0  0  0  0  0  0  0  0  0  0
  -25.0961  -26.5718   26.1440 O   0  0  0  0  0  0  0  0  0  0  0  0
  -22.1594  -26.1204   28.4606 O   0  0  0  0  0  0  0  0  0  0  0  0
  -25.4390  -23.4974   31.4508 O   0  0  0  0  0  0  0  0  0  0  0  0
  -32.2548  -13.1625   21.0847 O   0  0  0  0  0  0  0  0  0  0  0  0
  -21.6728   -6.9575   21.4960 O   0  0  0  0  0  0  0  0  0  0  0  0
  -27.9583  -20.6577   25.5643 O   0  0  0  0  0  0  0  0  0  1  0  0
  -24.4692   -2.3016   22.4479 F   0  0  0  0  0  0  0  0  0  0  0  0
  -21.2890   -5.5243   23.8287 F   0  0  0  0  0  0  0  0  0  0  0  0
  1  2  1  0  0  0  0
  1  5  2  0  0  0  0
  2  6  2  0  0  0  0
  3 12  2  0  0  0  0
  3 19  1  0  0  0  0
  4 13  1  0  0  0  0
  4 19  2  0  0  0  0
  5 21  1  0  0  0  0
  6 23  1  0  0  0  0
  7 14  2  0  0  0  0
  7 22  1  0  0  0  0
  8 10  2  0  0  0  0
  8 25  1  0  0  0  0
  9 11  1  0  0  0  0
  9 25  2  0  0  0  0
 10 26  1  0  0  0  0
 11 26  2  0  0  0  0
 12 27  1  0  0  0  0
 13 27  2  0  0  0  0
 14 28  1  0  0  0  0
 15 16  2  0  0  0  0
 15 29  1  0  0  0  0
 16 30  1  0  0  0  0
 17 24  1  0  0  0  0
 17 28  2  0  0  0  0
 18 30  2  0  0  0  0
 18 31  1  0  0  0  0
 19 32  1  0  0  0  0
 20 32  1  0  0  0  0
 20 33  2  0  0  0  0
 20 35  1  0  0  0  0
 21 23  2  0  0  0  0
 21 40  1  0  0  0  0
 22 24  2  0  0  0  0
 22 41  1  0  0  0  0
 23 52  1  0  0  0  0
 24 42  1  0  0  0  0
 25 61  1  0  0  0  0
 26 68  1  0  0  0  0
 27 83  1  0  0  0  0
 28 84  1  0  0  0  0
 29 31  2  0  0  0  0
 29 83  1  0  0  0  0
 30 85  1  0  0  0  0
 31 86  1  0  0  0  0
 32 66  2  0  0  0  0
 33 67  1  0  0  0  0
 33 71  1  0  0  0  0
 34 43  1  0  0  0  0
 34 68  1  0  0  0  0
 34 77  2  0  0  0  0
 35 72  1  0  0  0  0
 35 78  2  0  0  0  0
 36 53  1  0  0  0  0
 36 73  1  0  0  0  0
 36 79  2  0  0  0  0
 37 63  1  0  0  0  0
 37 69  1  0  0  0  0
 37 80  2  0  0  0  0
 38 64  1  0  0  0  0
 38 74  1  0  0  0  0
 38 81  2  0  0  0  0
 39 70  1  0  0  0  0
 39 75  1  0  0  0  0
 39 82  2  0  0  0  0
 40 44  1  0  0  0  0
 41 53  1  0  0  0  0
 42 69  1  0  0  0  0
 43 45  1  0  0  0  0
 44 47  1  0  0  0  0
 45 54  1  0  0  0  0
 46 48  1  0  0  0  0
 46 49  1  0  0  0  0
 47 52  1  0  0  0  0
 48 55  1  0  0  0  0
 49 70  1  0  0  0  0
 50 54  1  0  0  0  0
 50 68  1  0  0  0  0
 51 55  1  0  0  0  0
 51 70  1  0  0  0  0
 52 73  1  0  0  0  0
 53 69  1  0  0  0  0
 54 62  1  0  0  0  0
 55 67  1  0  0  0  0
 56 64  1  0  0  0  0
 57 65  1  0  0  0  0
 58 65  1  0  0  0  0
 59 65  1  0  0  0  0
 60 76  1  0  0  0  0
 61 75  1  0  0  0  0
 62 84  1  0  0  0  0
 63 65  1  0  0  0  0
 63 74  1  0  0  0  0
 64 76  1  0  0  0  0
 66 67  1  0  0  0  0
M  CHG  1  76   1
M  ISO  4  39 100  62 101  75 100  84 101
M  END
> <Batch ID>
0100

> <Smiles>
CNC(C)C(=O)NC(C(=O)N1Cc2cc([101O:1][101CH2:1]C3CCC(=O)N(c4ccc(C[100NH:0][100C:0](=O)N5CCCC(n6nc(-c7ccc(Oc8ccc(F)cc8F)cc7)c(C(N)=O)c6N)C5)cc4)C3)ccc2CC1C(=O)NC1CCCc2ccccc21)C(C)(C)C

> <Shape>
0.169

> <Color>
0.155

> <Negative vol penalty>
0.000

$$$$

  -OEChem-04052300573D

 86 94  0     1  0  0  0  0  0999 V2000
  -35.8652  -19.7850   27.5404 C   0  0  0  0  0  0  0  0  0  0  0  0
  -35.6380  -20.2807   26.2606 C   0  0  0  0  0  0  0  0  0  0  0  0
  -23.0345   -9.9659   19.8565 C   0  0  0  0  0  0  0  0  0  0  0  0
  -23.8607   -9.7747   22.1188 C   0  0  0  0  0  0  0  0  0  0  0  0
  -34.8076  -19.6755   28.4423 C   0  0  0  0  0  0  0  0  0  0  0  0
  -34.3527  -20.6664   25.8815 C   0  0  0  0  0  0  0  0  0  0  0  0
  -32.8448  -25.2717   22.1367 C   0  0  0  0  0  0  0  0  0  0  0  0
  -31.5705  -18.4034   20.4302 C   0  0  0  0  0  0  0  0  0  0  0  0
  -31.2997  -19.5274   19.6500 C   0  0  0  0  0  0  0  0  0  0  0  0
  -22.2848   -8.8028   20.0320 C   0  0  0  0  0  0  0  0  0  0  0  0
  -23.1110   -8.6116   22.2943 C   0  0  0  0  0  0  0  0  0  0  0  0
  -32.5097  -25.3093   20.7839 C   0  0  0  0  0  0  0  0  0  0  0  0
  -22.8268   -5.4665   20.0290 C   0  0  0  0  0  0  0  0  0  0  0  0
  -22.8544   -4.5182   19.0065 C   0  0  0  0  0  0  0  0  0  0  0  0
  -30.1698  -25.2591   21.3683 C   0  0  0  0  0  0  0  0  0  0  0  0
  -29.3884  -18.5861   21.4510 C   0  0  0  0  0  0  0  0  0  0  0  0
  -20.4627   -4.7346   18.7413 C   0  0  0  0  0  0  0  0  0  0  0  0
  -23.8225  -10.4519   20.8999 C   0  0  0  0  0  0  0  0  0  0  0  0
  -24.1900  -12.9750   20.9799 C   0  0  0  0  0  0  0  0  0  0  0  0
  -33.5105  -20.0690   28.0773 C   0  0  0  0  0  0  0  0  0  0  0  0
  -31.8433  -25.2164   23.1168 C   0  0  0  0  0  0  0  0  0  0  0  0
  -33.2765  -20.5608   26.7789 C   0  0  0  0  0  0  0  0  0  0  0  0
  -30.4947  -25.2235   22.7329 C   0  0  0  0  0  0  0  0  0  0  0  0
  -30.6149  -17.9327   21.3307 C   0  0  0  0  0  0  0  0  0  0  0  0
  -30.0732  -20.1809   19.7703 C   0  0  0  0  0  0  0  0  0  0  0  0
  -22.3230   -8.1257   21.2508 C   0  0  0  0  0  0  0  0  0  0  0  0
  -31.1721  -25.3001   20.3994 C   0  0  0  0  0  0  0  0  0  0  0  0
  -21.6171   -6.0489   20.4077 C   0  0  0  0  0  0  0  0  0  0  0  0
  -29.1176  -19.7102   20.6708 C   0  0  0  0  0  0  0  0  0  0  0  0
  -21.6724   -4.1522   18.3626 C   0  0  0  0  0  0  0  0  0  0  0  0
  -20.4351   -5.6829   19.7638 C   0  0  0  0  0  0  0  0  0  0  0  0
  -24.5975  -11.6530   20.7191 C   0  0  0  0  0  0  0  0  0  0  0  0
  -25.2798  -13.7421   20.6477 C   0  0  0  0  0  0  0  0  0  0  0  0
  -22.9383  -13.4657   21.4780 C   0  0  0  0  0  0  0  0  0  0  0  0
  -31.0262  -23.1328   25.3739 C   0  0  0  0  0  0  0  0  0  0  0  0
  -28.9258  -25.4580   26.2131 C   0  0  0  0  0  0  0  0  0  0  0  0
  -30.6583  -21.9120   18.0373 C   0  0  0  0  0  0  0  0  0  0  0  0
  -27.1085  -28.1933   25.2846 C   0  0  0  0  0  0  0  0  0  0  0  0
  -30.7781  -14.6916   20.7560 C   0  0  0  0  0  0  0  0  0  0  0  0
  -32.3903  -19.8879   29.0708 C   0  0  0  0  0  0  0  0  0  0  0  0
  -32.2208  -25.2033   24.5727 C   0  0  0  0  0  0  0  0  0  0  0  0
  -29.3815  -25.1855   23.7466 C   0  0  0  0  0  0  0  0  0  0  0  0
  -31.1281  -20.6691   28.7148 C   0  0  0  0  0  0  0  0  0  0  0  0
  -29.5441  -12.5249   18.2145 C   0  0  0  0  0  0  0  0  0  0  0  0
  -30.7814  -20.4805   27.2413 C   0  0  0  0  0  0  0  0  0  0  0  0
  -28.1165  -12.2093   18.6643 C   0  0  0  0  0  0  0  0  0  0  0  0
  -30.4982  -12.6364   19.4016 C   0  0  0  0  0  0  0  0  0  0  0  0
  -28.6461  -13.2668   20.9004 C   0  0  0  0  0  0  0  0  0  0  0  0
  -31.9009  -21.0127   26.3386 C   0  0  1  0  0  0  0  0  0  0  0  0
  -31.1275  -24.6290   25.4683 C   0  0  1  0  0  0  0  0  0  0  0  0
  -27.6362  -13.1999   19.7419 C   0  0  2  0  0  0  0  0  0  0  0  0
  -25.4548  -29.8558   26.1785 C   0  0  0  0  0  0  0  0  0  0  0  0
  -26.7211  -23.3560   26.0371 C   0  0  0  0  0  0  0  0  0  0  0  0
  -25.0466  -25.2168   25.9934 C   0  0  0  0  0  0  0  0  0  0  0  0
  -26.5225  -24.9158   27.9818 C   0  0  0  0  0  0  0  0  0  0  0  0
  -28.9401  -30.4621   24.7780 C   0  0  0  0  0  0  0  0  0  0  0  0
  -27.8279  -21.3765   21.7734 C   0  0  0  0  0  0  0  0  0  0  0  0
  -30.9048  -16.7309   22.1647 C   0  0  0  0  0  0  0  0  0  0  0  0
  -29.9878  -23.1227   17.4030 C   0  0  0  0  0  0  0  0  0  0  0  0
  -30.9879  -24.1915   16.9760 C   0  0  0  0  0  0  0  0  0  0  0  0
  -31.7624  -24.7435   18.1639 C   0  0  0  0  0  0  0  0  0  1  0  0
  -27.5076  -25.8065   25.8305 C   0  0  1  0  0  0  0  0  0  0  0  0
  -26.9254  -29.5506   25.9393 C   0  0  2  0  0  0  0  0  0  0  0  0
  -26.4702  -24.8225   26.4413 C   0  0  0  0  0  0  0  0  0  0  0  0
  -25.8485  -11.5808   20.2567 N   0  0  0  0  0  0  0  0  0  0  0  0
  -26.2364  -12.8671   20.2242 N   0  0  0  0  0  0  0  0  0  0  0  0
  -29.8016  -25.1672   25.1576 N   0  0  0  0  0  0  0  0  0  0  0  0
  -29.9856  -13.5925   20.3860 N   0  0  0  0  0  0  0  0  0  0  0  0
  -25.5034  -15.0730   20.6792 N   0  0  0  0  0  0  0  0  0  0  0  0
  -21.9261  -12.5409   21.7687 N   0  0  0  0  0  0  0  0  0  0  0  0
  -29.8142  -21.3213   18.9734 N   0  0  0  0  0  0  0  0  0  0  0  0
  -31.8432  -22.4566   26.2598 N   0  0  0  0  0  0  0  0  0  0  0  0
  -27.3107  -27.1990   26.2183 N   0  0  0  0  0  0  0  0  0  0  0  0
  -30.2145  -15.5524   21.6898 N   0  0  0  0  0  0  0  0  0  0  0  0
  -27.4935  -30.6235   25.0750 N   0  3  0  0  0  0  0  0  0  0  0  0
  -22.7181  -14.6894   21.6444 O   0  0  0  0  0  0  0  0  0  0  0  0
  -30.2622  -22.6292   24.5588 O   0  0  0  0  0  0  0  0  0  0  0  0
  -29.2465  -25.4512   27.4042 O   0  0  0  0  0  0  0  0  0  0  0  0
  -31.7896  -21.5559   17.7246 O   0  0  0  0  0  0  0  0  0  0  0  0
  -27.0718  -28.0308   24.0669 O   0  0  0  0  0  0  0  0  0  0  0  0
  -31.9024  -14.8939   20.2847 O   0  0  0  0  0  0  0  0  0  0  0  0
  -21.5915   -6.9908   21.4225 O   0  0  0  0  0  0  0  0  0  0  0  0
  -27.9131  -20.3345   20.8039 O   0  0  0  0  0  0  0  0  0  0  0  0
  -30.8423  -25.3361   19.0796 O   0  0  0  0  0  0  0  0  0  1  0  0
  -21.6993   -3.2427   17.3797 F   0  0  0  0  0  0  0  0  0  0  0  0
  -19.2702   -6.2398   20.1224 F   0  0  0  0  0  0  0  0  0  0  0  0
  1  2  1  0  0  0  0
  1  5  2  0  0  0  0
  2  6  2  0  0  0  0
  3 10  2  0  0  0  0
  3 18  1  0  0  0  0
  4 11  1  0  0  0  0
  4 18  2  0  0  0  0
  5 20  1  0  0  0  0
  6 22  1  0  0  0  0
  7 12  2  0  0  0  0
  7 21  1  0  0  0  0
  8  9  2  0  0  0  0
  8 24  1  0  0  0  0
  9 25  1  0  0  0  0
 10 26  1  0  0  0  0
 11 26  2  0  0  0  0
 12 27  1  0  0  0  0
 13 14  2  0  0  0  0
 13 28  1  0  0  0  0
 14 30  1  0  0  0  0
 15 23  1  0  0  0  0
 15 27  2  0  0  0  0
 16 24  2  0  0  0  0
 16 29  1  0  0  0  0
 17 30  2  0  0  0  0
 17 31  1  0  0  0  0
 18 32  1  0  0  0  0
 19 32  1  0  0  0  0
 19 33  2  0  0  0  0
 19 34  1  0  0  0  0
 20 22  2  0  0  0  0
 20 40  1  0  0  0  0
 21 23  2  0  0  0  0
 21 41  1  0  0  0  0
 22 49  1  0  0  0  0
 23 42  1  0  0  0  0
 24 58  1  0  0  0  0
 25 29  2  0  0  0  0
 25 71  1  0  0  0  0
 26 82  1  0  0  0  0
 27 84  1  0  0  0  0
 28 31  2  0  0  0  0
 28 82  1  0  0  0  0
 29 83  1  0  0  0  0
 30 85  1  0  0  0  0
 31 86  1  0  0  0  0
 32 65  2  0  0  0  0
 33 66  1  0  0  0  0
 33 69  1  0  0  0  0
 34 70  1  0  0  0  0
 34 76  2  0  0  0  0
 35 50  1  0  0  0  0
 35 72  1  0  0  0  0
 35 77  2  0  0  0  0
 36 62  1  0  0  0  0
 36 67  1  0  0  0  0
 36 78  2  0  0  0  0
 37 59  1  0  0  0  0
 37 71  1  0  0  0  0
 37 79  2  0  0  0  0
 38 63  1  0  0  0  0
 38 73  1  0  0  0  0
 38 80  2  0  0  0  0
 39 68  1  0  0  0  0
 39 74  1  0  0  0  0
 39 81  2  0  0  0  0
 40 43  1  0  0  0  0
 41 50  1  0  0  0  0
 42 67  1  0  0  0  0
 43 45  1  0  0  0  0
 44 46  1  0  0  0  0
 44 47  1  0  0  0  0
 45 49  1  0  0  0  0
 46 51  1  0  0  0  0
 47 68  1  0  0  0  0
 48 51  1  0  0  0  0
 48 68  1  0  0  0  0
 49 72  1  0  0  0  0
 50 67  1  0  0  0  0
 51 66  1  0  0  0  0
 52 63  1  0  0  0  0
 53 64  1  0  0  0  0
 54 64  1  0  0  0  0
 55 64  1  0  0  0  0
 56 75  1  0  0  0  0
 57 83  1  0  0  0  0
 58 74  1  0  0  0  0
 59 60  1  0  0  0  0
 60 61  1  0  0  0  0
 61 84  1  0  0  0  0
 62 64  1  0  0  0  0
 62 73  1  0  0  0  0
 63 75  1  0  0  0  0
 65 66  1  0  0  0  0
M  CHG  1  75   1
M  ISO  4  39 100  61 101  74 100  84 101
M  END
> <Batch ID>
0100

> <Smiles>
CNC(C)C(=O)NC(C(=O)N1Cc2cc([101O:1][101CH2:1]CCC(=O)Nc3ccc(C[100NH:0][100C:0](=O)N4CCCC(n5nc(-c6ccc(Oc7ccc(F)cc7F)cc6)c(C(N)=O)c5N)C4)cc3OC)ccc2CC1C(=O)NC1CCCc2ccccc21)C(C)(C)C

> <Shape>
0.233

> <Color>
0.204

> <Negative vol penalty>
0.000

$$$$

  -OEChem-04052300573D

 85 94  0     1  0  0  0  0  0999 V2000
  -25.9573  -37.9976   22.7515 C   0  0  0  0  0  0  0  0  0  0  0  0
  -26.6976  -37.0944   21.9954 C   0  0  0  0  0  0  0  0  0  0  0  0
  -23.8243  -12.4893   19.7670 C   0  0  0  0  0  0  0  0  0  0  0  0
  -24.8777  -13.6634   21.5970 C   0  0  0  0  0  0  0  0  0  0  0  0
  -26.8433  -20.8798   18.5837 C   0  0  0  0  0  0  0  0  0  0  0  0
  -27.5804  -19.5892   20.4885 C   0  0  0  0  0  0  0  0  0  0  0  0
  -25.1783  -37.5415   23.8141 C   0  0  0  0  0  0  0  0  0  0  0  0
  -26.6602  -35.7347   22.3022 C   0  0  0  0  0  0  0  0  0  0  0  0
  -26.9844  -29.2959   19.1792 C   0  0  0  0  0  0  0  0  0  0  0  0
  -25.5205  -20.5372   18.8634 C   0  0  0  0  0  0  0  0  0  0  0  0
  -26.2575  -19.2466   20.7683 C   0  0  0  0  0  0  0  0  0  0  0  0
  -25.0656  -11.9902   19.3726 C   0  0  0  0  0  0  0  0  0  0  0  0
  -26.1191  -13.1643   21.2026 C   0  0  0  0  0  0  0  0  0  0  0  0
  -27.6752  -28.0883   19.2701 C   0  0  0  0  0  0  0  0  0  0  0  0
  -28.4408  -13.8429   18.8404 C   0  0  0  0  0  0  0  0  0  0  0  0
  -29.5147  -14.7322   18.8030 C   0  0  0  0  0  0  0  0  0  0  0  0
  -26.2319  -27.4058   21.0785 C   0  0  0  0  0  0  0  0  0  0  0  0
  -30.6894  -13.3820   20.4260 C   0  0  0  0  0  0  0  0  0  0  0  0
  -23.7303  -13.3259   20.8792 C   0  0  0  0  0  0  0  0  0  0  0  0
  -27.8733  -20.4058   19.3962 C   0  0  0  0  0  0  0  0  0  0  0  0
  -21.3170  -13.0996   21.6742 C   0  0  0  0  0  0  0  0  0  0  0  0
  -25.1237  -36.1744   24.1280 C   0  0  0  0  0  0  0  0  0  0  0  0
  -25.9173  -29.5725   20.0460 C   0  0  0  0  0  0  0  0  0  0  0  0
  -25.8808  -35.2601   23.3709 C   0  0  0  0  0  0  0  0  0  0  0  0
  -25.5276  -28.6166   20.9949 C   0  0  0  0  0  0  0  0  0  0  0  0
  -25.2275  -19.7206   19.9557 C   0  0  0  0  0  0  0  0  0  0  0  0
  -26.2130  -12.3277   20.0904 C   0  0  0  0  0  0  0  0  0  0  0  0
  -27.3009  -27.1442   20.2217 C   0  0  0  0  0  0  0  0  0  0  0  0
  -28.4911  -12.7231   19.6706 C   0  0  0  0  0  0  0  0  0  0  0  0
  -30.6390  -14.5018   19.5958 C   0  0  0  0  0  0  0  0  0  0  0  0
  -29.6154  -12.4926   20.4634 C   0  0  0  0  0  0  0  0  0  0  0  0
  -22.4484  -13.8423   21.2868 C   0  0  0  0  0  0  0  0  0  0  0  0
  -20.3664  -14.0478   21.9635 C   0  0  0  0  0  0  0  0  0  0  0  0
  -29.2689  -20.7670   19.1011 C   0  0  0  0  0  0  0  0  0  0  0  0
  -21.1410  -11.6795   21.7645 C   0  0  0  0  0  0  0  0  0  0  0  0
  -25.3415  -31.7767   22.2627 C   0  0  0  0  0  0  0  0  0  0  0  0
  -22.4100  -30.3893   22.3240 C   0  0  0  0  0  0  0  0  0  0  0  0
  -20.5009  -27.6231   21.7319 C   0  0  0  0  0  0  0  0  0  0  0  0
  -23.4071  -18.5730   21.2817 C   0  0  0  0  0  0  0  0  0  0  0  0
  -24.3045  -35.7343   25.3154 C   0  0  0  0  0  0  0  0  0  0  0  0
  -25.1653  -30.8688   19.9173 C   0  0  0  0  0  0  0  0  0  0  0  0
  -24.3760  -28.8565   21.9355 C   0  0  0  0  0  0  0  0  0  0  0  0
  -24.0255  -34.2337   25.3405 C   0  0  0  0  0  0  0  0  0  0  0  0
  -19.6433  -18.5750   20.4447 C   0  0  0  0  0  0  0  0  0  0  0  0
  -25.3014  -33.4487   25.0528 C   0  0  0  0  0  0  0  0  0  0  0  0
  -19.5748  -17.0667   20.6478 C   0  0  0  0  0  0  0  0  0  0  0  0
  -30.8469  -24.0807   18.7383 C   0  0  0  0  0  0  0  0  0  0  0  0
  -21.0950  -19.0244   20.3030 C   0  0  0  0  0  0  0  0  0  0  0  0
  -30.9544  -22.5670   18.8393 C   0  0  0  0  0  0  0  0  0  0  0  0
  -28.7225  -23.2381   19.4350 C   0  0  0  0  0  0  0  0  0  0  0  0
  -21.3669  -17.6816   22.3899 C   0  0  0  0  0  0  0  0  0  0  0  0
  -25.8467  -33.7745   23.6571 C   0  0  1  0  0  0  0  0  0  0  0  0
  -24.4234  -31.2582   21.1922 C   0  0  1  0  0  0  0  0  0  0  0  0
  -29.6794  -24.4048   19.6733 C   0  0  2  0  0  0  0  0  0  0  0  0
  -20.3441  -16.6310   21.9109 C   0  0  2  0  0  0  0  0  0  0  0  0
  -18.1445  -26.7798   21.9155 C   0  0  0  0  0  0  0  0  0  0  0  0
  -22.7605  -30.0732   25.3385 C   0  0  0  0  0  0  0  0  0  0  0  0
  -20.8779  -28.4230   25.3141 C   0  0  0  0  0  0  0  0  0  0  0  0
  -20.4724  -30.7854   24.6233 C   0  0  0  0  0  0  0  0  0  0  0  0
  -20.3139  -27.1665   18.8138 C   0  0  0  0  0  0  0  0  0  0  0  0
  -29.0533  -25.7610   19.4022 C   0  0  0  0  0  0  0  0  0  1  0  0
  -21.7803  -29.2542   23.0947 C   0  0  1  0  0  0  0  0  0  0  0  0
  -19.1727  -27.4499   21.0175 C   0  0  2  0  0  0  0  0  0  0  0  0
  -21.4957  -29.6299   24.5763 C   0  0  0  0  0  0  0  0  0  0  0  0
  -22.2377  -15.1607   21.3252 N   0  0  0  0  0  0  0  0  0  0  0  0
  -20.9629  -15.2539   21.7402 N   0  0  0  0  0  0  0  0  0  0  0  0
  -29.5975  -22.1139   19.1069 N   0  0  0  0  0  0  0  0  0  0  0  0
  -23.6760  -30.1417   21.7747 N   0  0  0  0  0  0  0  0  0  0  0  0
  -21.9984  -18.4161   21.2907 N   0  0  0  0  0  0  0  0  0  0  0  0
  -19.0868  -13.9593   22.3845 N   0  0  0  0  0  0  0  0  0  0  0  0
  -21.4421  -11.0448   22.9773 N   0  0  0  0  0  0  0  0  0  0  0  0
  -23.8826  -19.3732   20.2393 N   0  0  0  0  0  0  0  0  0  0  0  0
  -25.0840  -33.0803   22.6418 N   0  0  0  0  0  0  0  0  0  0  0  0
  -20.5962  -28.8565   22.3411 N   0  0  0  0  0  0  0  0  0  0  0  0
  -19.3466  -26.6134   19.7964 N   0  3  0  0  0  0  0  0  0  0  0  0
  -30.0551  -19.8484   18.8786 O   0  0  0  0  0  0  0  0  0  0  0  0
  -20.7446  -10.9916   20.7934 O   0  0  0  0  0  0  0  0  0  0  0  0
  -26.2177  -31.0475   22.7125 O   0  0  0  0  0  0  0  0  0  0  0  0
  -21.7979  -31.4539   22.2073 O   0  0  0  0  0  0  0  0  0  0  0  0
  -21.3658  -26.7501   21.7511 O   0  0  0  0  0  0  0  0  0  0  0  0
  -24.1234  -18.0421   22.1329 O   0  0  0  0  0  0  0  0  0  0  0  0
  -27.4245  -11.8407   19.7060 O   0  0  0  0  0  0  0  0  0  0  0  0
  -27.9738  -25.9650   20.3130 O   0  0  0  0  0  0  0  0  0  1  0  0
  -31.6708  -15.3551   19.5586 F   0  0  0  0  0  0  0  0  0  0  0  0
  -29.6701  -11.4179   21.2620 F   0  0  0  0  0  0  0  0  0  0  0  0
  1  2  1  0  0  0  0
  1  7  2  0  0  0  0
  2  8  2  0  0  0  0
  3 12  2  0  0  0  0
  3 19  1  0  0  0  0
  4 13  1  0  0  0  0
  4 19  2  0  0  0  0
  5 10  2  0  0  0  0
  5 20  1  0  0  0  0
  6 11  1  0  0  0  0
  6 20  2  0  0  0  0
  7 22  1  0  0  0  0
  8 24  1  0  0  0  0
  9 14  2  0  0  0  0
  9 23  1  0  0  0  0
 10 26  1  0  0  0  0
 11 26  2  0  0  0  0
 12 27  1  0  0  0  0
 13 27  2  0  0  0  0
 14 28  1  0  0  0  0
 15 16  2  0  0  0  0
 15 29  1  0  0  0  0
 16 30  1  0  0  0  0
 17 25  1  0  0  0  0
 17 28  2  0  0  0  0
 18 30  2  0  0  0  0
 18 31  1  0  0  0  0
 19 32  1  0  0  0  0
 20 34  1  0  0  0  0
 21 32  1  0  0  0  0
 21 33  2  0  0  0  0
 21 35  1  0  0  0  0
 22 24  2  0  0  0  0
 22 40  1  0  0  0  0
 23 25  2  0  0  0  0
 23 41  1  0  0  0  0
 24 52  1  0  0  0  0
 25 42  1  0  0  0  0
 26 72  1  0  0  0  0
 27 82  1  0  0  0  0
 28 83  1  0  0  0  0
 29 31  2  0  0  0  0
 29 82  1  0  0  0  0
 30 84  1  0  0  0  0
 31 85  1  0  0  0  0
 32 65  2  0  0  0  0
 33 66  1  0  0  0  0
 33 70  1  0  0  0  0
 34 67  1  0  0  0  0
 34 76  2  0  0  0  0
 35 71  1  0  0  0  0
 35 77  2  0  0  0  0
 36 53  1  0  0  0  0
 36 73  1  0  0  0  0
 36 78  2  0  0  0  0
 37 62  1  0  0  0  0
 37 68  1  0  0  0  0
 37 79  2  0  0  0  0
 38 63  1  0  0  0  0
 38 74  1  0  0  0  0
 38 80  2  0  0  0  0
 39 69  1  0  0  0  0
 39 72  1  0  0  0  0
 39 81  2  0  0  0  0
 40 43  1  0  0  0  0
 41 53  1  0  0  0  0
 42 68  1  0  0  0  0
 43 45  1  0  0  0  0
 44 46  1  0  0  0  0
 44 48  1  0  0  0  0
 45 52  1  0  0  0  0
 46 55  1  0  0  0  0
 47 49  1  0  0  0  0
 47 54  1  0  0  0  0
 48 69  1  0  0  0  0
 49 67  1  0  0  0  0
 50 54  1  0  0  0  0
 50 67  1  0  0  0  0
 51 55  1  0  0  0  0
 51 69  1  0  0  0  0
 52 73  1  0  0  0  0
 53 68  1  0  0  0  0
 54 61  1  0  0  0  0
 55 66  1  0  0  0  0
 56 63  1  0  0  0  0
 57 64  1  0  0  0  0
 58 64  1  0  0  0  0
 59 64  1  0  0  0  0
 60 75  1  0  0  0  0
 61 83  1  0  0  0  0
 62 64  1  0  0  0  0
 62 74  1  0  0  0  0
 63 75  1  0  0  0  0
 65 66  1  0  0  0  0
M  CHG  1  75   1
M  ISO  4  39 100  61 101  72 100  83 101
M  END
> <Batch ID>
0100

> <Smiles>
CNC(C)C(=O)NC(C(=O)N1Cc2cc([101O:1][101CH2:1]C3CCN(C(=O)c4ccc([100NH:0][100C:0](=O)N5CCCC(n6nc(-c7ccc(Oc8ccc(F)cc8F)cc7)c(C(N)=O)c6N)C5)cc4)C3)ccc2CC1C(=O)NC1CCCc2ccccc21)C(C)(C)C

> <Shape>
0.323

> <Color>
0.085

> <Negative vol penalty>
0.000

$$$$

  -OEChem-04052300573D

 86 95  0     1  0  0  0  0  0999 V2000
  -22.7526   -8.5734   21.9433 C   0  0  0  0  0  0  0  0  0  0  0  0
  -23.9808   -9.1495   22.2515 C   0  0  0  0  0  0  0  0  0  0  0  0
  -22.1990  -29.0550   23.5663 C   0  0  0  0  0  0  0  0  0  0  0  0
  -21.2368  -28.6253   21.3923 C   0  0  0  0  0  0  0  0  0  0  0  0
  -31.9128  -23.5236   20.0060 C   0  0  0  0  0  0  0  0  0  0  0  0
  -21.9842   -9.0888   20.9003 C   0  0  0  0  0  0  0  0  0  0  0  0
  -24.4419  -10.2409   21.5161 C   0  0  0  0  0  0  0  0  0  0  0  0
  -28.3025  -16.2314   22.2407 C   0  0  0  0  0  0  0  0  0  0  0  0
  -30.8392  -24.3905   19.8025 C   0  0  0  0  0  0  0  0  0  0  0  0
  -21.0495  -28.5510   24.1747 C   0  0  0  0  0  0  0  0  0  0  0  0
  -20.0873  -28.1212   22.0007 C   0  0  0  0  0  0  0  0  0  0  0  0
  -29.3867  -16.8905   21.6629 C   0  0  0  0  0  0  0  0  0  0  0  0
  -17.3094  -29.3521   23.4837 C   0  0  0  0  0  0  0  0  0  0  0  0
  -16.0758  -29.7633   22.9792 C   0  0  0  0  0  0  0  0  0  0  0  0
  -32.5786  -23.8070   17.7009 C   0  0  0  0  0  0  0  0  0  0  0  0
  -27.9379  -17.7460   19.9344 C   0  0  0  0  0  0  0  0  0  0  0  0
  -15.5171  -27.4676   22.4742 C   0  0  0  0  0  0  0  0  0  0  0  0
  -22.2926  -29.0922   22.1751 C   0  0  0  0  0  0  0  0  0  0  0  0
  -32.7826  -23.2319   18.9552 C   0  0  0  0  0  0  0  0  0  0  0  0
  -24.0117  -30.9100   21.6770 C   0  0  0  0  0  0  0  0  0  0  0  0
  -22.4317  -10.1930   20.1580 C   0  0  0  0  0  0  0  0  0  0  0  0
  -27.0278  -16.3160   21.6625 C   0  0  0  0  0  0  0  0  0  0  0  0
  -23.6794  -10.7707   20.4613 C   0  0  0  0  0  0  0  0  0  0  0  0
  -26.8386  -17.0892   20.5082 C   0  0  0  0  0  0  0  0  0  0  0  0
  -30.6352  -24.9656   18.5482 C   0  0  0  0  0  0  0  0  0  0  0  0
  -19.9936  -28.0841   23.3919 C   0  0  0  0  0  0  0  0  0  0  0  0
  -29.2051  -17.6456   20.5080 C   0  0  0  0  0  0  0  0  0  0  0  0
  -17.6470  -27.9987   23.4834 C   0  0  0  0  0  0  0  0  0  0  0  0
  -15.1796  -28.8211   22.4745 C   0  0  0  0  0  0  0  0  0  0  0  0
  -31.5049  -24.6739   17.4974 C   0  0  0  0  0  0  0  0  0  0  0  0
  -16.7509  -27.0565   22.9787 C   0  0  0  0  0  0  0  0  0  0  0  0
  -23.4796  -29.6133   21.5460 C   0  0  0  0  0  0  0  0  0  0  0  0
  -25.1351  -30.9016   20.8869 C   0  0  0  0  0  0  0  0  0  0  0  0
  -33.9150  -22.3172   19.1699 C   0  0  0  0  0  0  0  0  0  0  0  0
  -23.5333  -32.0227   22.4444 C   0  0  0  0  0  0  0  0  0  0  0  0
  -24.9926  -14.2240   20.4034 C   0  0  0  0  0  0  0  0  0  0  0  0
  -23.0323  -16.8047   20.2643 C   0  0  0  0  0  0  0  0  0  0  0  0
  -22.7177  -20.2007   20.1419 C   0  0  0  0  0  0  0  0  0  0  0  0
  -28.5816  -26.2448   19.2768 C   0  0  0  0  0  0  0  0  0  0  0  0
  -21.5878  -10.6855   19.0091 C   0  0  0  0  0  0  0  0  0  0  0  0
  -25.8633  -15.6209   22.3130 C   0  0  0  0  0  0  0  0  0  0  0  0
  -25.4863  -17.2285   19.8598 C   0  0  0  0  0  0  0  0  0  0  0  0
  -21.9766  -12.0786   18.5210 C   0  0  0  0  0  0  0  0  0  0  0  0
  -26.2815  -28.2852   16.9811 C   0  0  0  0  0  0  0  0  0  0  0  0
  -23.4899  -12.1854   18.3617 C   0  0  0  0  0  0  0  0  0  0  0  0
  -25.9196  -29.4238   17.9319 C   0  0  0  0  0  0  0  0  0  0  0  0
  -33.9710  -18.8441   20.4095 C   0  0  0  0  0  0  0  0  0  0  0  0
  -27.5916  -27.6080   17.3632 C   0  0  0  0  0  0  0  0  0  0  0  0
  -34.6785  -20.0424   19.7959 C   0  0  0  0  0  0  0  0  0  0  0  0
  -32.3040  -20.4252   19.7539 C   0  0  0  0  0  0  0  0  0  0  0  0
  -26.5398  -27.6200   19.6325 C   0  0  0  0  0  0  0  0  0  0  0  0
  -24.2023  -11.9711   19.7026 C   0  0  1  0  0  0  0  0  0  0  0  0
  -24.7106  -15.3570   21.3491 C   0  0  1  0  0  0  0  0  0  0  0  0
  -32.5708  -18.9216   19.7964 C   0  0  2  0  0  0  0  0  0  0  0  0
  -26.2617  -29.1137   19.4027 C   0  0  2  0  0  0  0  0  0  0  0  0
  -20.9902  -22.0150   19.9954 C   0  0  0  0  0  0  0  0  0  0  0  0
  -22.6494  -16.1973   17.2987 C   0  0  0  0  0  0  0  0  0  0  0  0
  -21.7299  -18.5087   17.0154 C   0  0  0  0  0  0  0  0  0  0  0  0
  -20.5653  -16.8785   18.5017 C   0  0  0  0  0  0  0  0  0  0  0  0
  -23.5434  -21.3565   22.7383 C   0  0  0  0  0  0  0  0  0  0  0  0
  -31.5284  -18.1480   20.5836 C   0  0  0  0  0  0  0  0  0  1  0  0
  -22.7603  -17.8871   19.2477 C   0  0  1  0  0  0  0  0  0  0  0  0
  -21.8382  -21.1597   20.9239 C   0  0  2  0  0  0  0  0  0  0  0  0
  -21.9522  -17.3639   18.0268 C   0  0  0  0  0  0  0  0  0  0  0  0
  -24.2052  -28.8376   20.7362 N   0  0  0  0  0  0  0  0  0  0  0  0
  -25.2047  -29.6492   20.3512 N   0  0  0  0  0  0  0  0  0  0  0  0
  -33.6259  -21.0221   19.5713 N   0  0  0  0  0  0  0  0  0  0  0  0
  -24.3802  -16.5248   20.5299 N   0  0  0  0  0  0  0  0  0  0  0  0
  -27.6143  -27.1390   18.7563 N   0  0  0  0  0  0  0  0  0  0  0  0
  -26.0603  -31.8434   20.6049 N   0  0  0  0  0  0  0  0  0  0  0  0
  -22.6368  -32.9147   21.8404 N   0  0  0  0  0  0  0  0  0  0  0  0
  -29.5430  -25.8456   18.3446 N   0  0  0  0  0  0  0  0  0  0  0  0
  -24.1141  -13.1635   20.5181 N   0  0  0  0  0  0  0  0  0  0  0  0
  -22.1111  -18.9741   19.9725 N   0  0  0  0  0  0  0  0  0  0  0  0
  -22.6753  -22.0639   21.7621 N   0  3  0  0  0  0  0  0  0  0  0  0
  -35.0443  -22.7597   18.9687 O   0  0  0  0  0  0  0  0  0  0  0  0
  -23.9030  -32.2291   23.6251 O   0  0  0  0  0  0  0  0  0  0  0  0
  -25.9364  -14.3064   19.6262 O   0  0  0  0  0  0  0  0  0  0  0  0
  -22.0837  -16.2337   20.8081 O   0  0  0  0  0  0  0  0  0  0  0  0
  -23.8298  -20.5102   19.7202 O   0  0  0  0  0  0  0  0  0  0  0  0
  -28.5592  -25.8797   20.4541 O   0  0  0  0  0  0  0  0  0  0  0  0
  -18.8719  -27.5919   23.9853 O   0  0  0  0  0  0  0  0  0  0  0  0
  -30.2618  -18.2894   19.9417 O   0  0  0  0  0  0  0  0  0  1  0  0
  -13.9943  -29.2159   21.9915 F   0  0  0  0  0  0  0  0  0  0  0  0
  -31.3184  -25.2203   16.2872 F   0  0  0  0  0  0  0  0  0  0  0  0
  -17.0691  -25.7547   22.9768 F   0  0  0  0  0  0  0  0  0  0  0  0
  1  2  1  0  0  0  0
  1  6  2  0  0  0  0
  2  7  2  0  0  0  0
  3 10  2  0  0  0  0
  3 18  1  0  0  0  0
  4 11  1  0  0  0  0
  4 18  2  0  0  0  0
  5  9  2  0  0  0  0
  5 19  1  0  0  0  0
  6 21  1  0  0  0  0
  7 23  1  0  0  0  0
  8 12  2  0  0  0  0
  8 22  1  0  0  0  0
  9 25  1  0  0  0  0
 10 26  1  0  0  0  0
 11 26  2  0  0  0  0
 12 27  1  0  0  0  0
 13 14  2  0  0  0  0
 13 28  1  0  0  0  0
 14 29  1  0  0  0  0
 15 19  2  0  0  0  0
 15 30  1  0  0  0  0
 16 24  1  0  0  0  0
 16 27  2  0  0  0  0
 17 29  2  0  0  0  0
 17 31  1  0  0  0  0
 18 32  1  0  0  0  0
 19 34  1  0  0  0  0
 20 32  1  0  0  0  0
 20 33  2  0  0  0  0
 20 35  1  0  0  0  0
 21 23  2  0  0  0  0
 21 40  1  0  0  0  0
 22 24  2  0  0  0  0
 22 41  1  0  0  0  0
 23 52  1  0  0  0  0
 24 42  1  0  0  0  0
 25 30  2  0  0  0  0
 25 72  1  0  0  0  0
 26 82  1  0  0  0  0
 27 83  1  0  0  0  0
 28 31  2  0  0  0  0
 28 82  1  0  0  0  0
 29 84  1  0  0  0  0
 30 85  1  0  0  0  0
 31 86  1  0  0  0  0
 32 65  2  0  0  0  0
 33 66  1  0  0  0  0
 33 70  1  0  0  0  0
 34 67  1  0  0  0  0
 34 76  2  0  0  0  0
 35 71  1  0  0  0  0
 35 77  2  0  0  0  0
 36 53  1  0  0  0  0
 36 73  1  0  0  0  0
 36 78  2  0  0  0  0
 37 62  1  0  0  0  0
 37 68  1  0  0  0  0
 37 79  2  0  0  0  0
 38 63  1  0  0  0  0
 38 74  1  0  0  0  0
 38 80  2  0  0  0  0
 39 69  1  0  0  0  0
 39 72  1  0  0  0  0
 39 81  2  0  0  0  0
 40 43  1  0  0  0  0
 41 53  1  0  0  0  0
 42 68  1  0  0  0  0
 43 45  1  0  0  0  0
 44 46  1  0  0  0  0
 44 48  1  0  0  0  0
 45 52  1  0  0  0  0
 46 55  1  0  0  0  0
 47 49  1  0  0  0  0
 47 54  1  0  0  0  0
 48 69  1  0  0  0  0
 49 67  1  0  0  0  0
 50 54  1  0  0  0  0
 50 67  1  0  0  0  0
 51 55  1  0  0  0  0
 51 69  1  0  0  0  0
 52 73  1  0  0  0  0
 53 68  1  0  0  0  0
 54 61  1  0  0  0  0
 55 66  1  0  0  0  0
 56 63  1  0  0  0  0
 57 64  1  0  0  0  0
 58 64  1  0  0  0  0
 59 64  1  0  0  0  0
 60 75  1  0  0  0  0
 61 83  1  0  0  0  0
 62 64  1  0  0  0  0
 62 74  1  0  0  0  0
 63 75  1  0  0  0  0
 65 66  1  0  0  0  0
M  CHG  1  75   1
M  ISO  4  39 100  61 101  72 100  83 101
M  END
> <Batch ID>
0100

> <Smiles>
CNC(C)C(=O)NC(C(=O)N1Cc2cc([101O:1][101CH2:1]C3CCN(C(=O)c4ccc([100NH:0][100C:0](=O)N5CCCC(n6nc(-c7ccc(Oc8ccc(F)cc8F)cc7)c(C(N)=O)c6N)C5)c(F)c4)C3)ccc2CC1C(=O)NC1CCCc2ccccc21)C(C)(C)C

> <Shape>
0.251

> <Color>
0.076

> <Negative vol penalty>
0.000

$$$$

  -OEChem-04052300573D

 80 88  0     1  0  0  0  0  0999 V2000
  -31.7567  -32.5663   14.9647 C   0  0  0  0  0  0  0  0  0  0  0  0
  -31.3424  -31.2447   15.0958 C   0  0  0  0  0  0  0  0  0  0  0  0
  -23.4293  -10.2229   21.9381 C   0  0  0  0  0  0  0  0  0  0  0  0
  -22.9314  -12.5425   22.3950 C   0  0  0  0  0  0  0  0  0  0  0  0
  -31.7966  -33.3973   16.0835 C   0  0  0  0  0  0  0  0  0  0  0  0
  -30.9688  -30.7531   16.3460 C   0  0  0  0  0  0  0  0  0  0  0  0
  -26.5999  -26.6261   17.5236 C   0  0  0  0  0  0  0  0  0  0  0  0
  -22.5924   -9.8370   22.9850 C   0  0  0  0  0  0  0  0  0  0  0  0
  -22.0943  -12.1565   23.4420 C   0  0  0  0  0  0  0  0  0  0  0  0
  -26.6463  -25.2536   17.7640 C   0  0  0  0  0  0  0  0  0  0  0  0
  -19.2722   -9.4854   23.5198 C   0  0  0  0  0  0  0  0  0  0  0  0
  -18.3868   -8.4330   23.2876 C   0  0  0  0  0  0  0  0  0  0  0  0
  -30.9170  -18.2058   20.8544 C   0  0  0  0  0  0  0  0  0  0  0  0
  -26.6342  -25.6753   20.1391 C   0  0  0  0  0  0  0  0  0  0  0  0
  -19.4166   -7.1726   25.0730 C   0  0  0  0  0  0  0  0  0  0  0  0
  -30.7216  -19.5553   21.0493 C   0  0  0  0  0  0  0  0  0  0  0  0
  -28.7221  -18.5599   21.2107 C   0  0  0  0  0  0  0  0  0  0  0  0
  -23.5989  -11.5757   21.6431 C   0  0  0  0  0  0  0  0  0  0  0  0
  -24.1071  -12.1643   19.2135 C   0  0  0  0  0  0  0  0  0  0  0  0
  -31.4141  -32.9184   17.3464 C   0  0  0  0  0  0  0  0  0  0  0  0
  -26.5812  -27.5354   18.5909 C   0  0  0  0  0  0  0  0  0  0  0  0
  -31.0049  -31.5781   17.4830 C   0  0  0  0  0  0  0  0  0  0  0  0
  -26.5849  -27.0588   19.9096 C   0  0  0  0  0  0  0  0  0  0  0  0
  -29.6521  -17.5760   20.9566 C   0  0  0  0  0  0  0  0  0  0  0  0
  -21.9248  -10.8037   23.7369 C   0  0  0  0  0  0  0  0  0  0  0  0
  -26.6664  -24.7781   19.0719 C   0  0  0  0  0  0  0  0  0  0  0  0
  -20.2300   -9.3814   24.5286 C   0  0  0  0  0  0  0  0  0  0  0  0
  -18.4589   -7.2766   24.0642 C   0  0  0  0  0  0  0  0  0  0  0  0
  -20.3021   -8.2250   25.3052 C   0  0  0  0  0  0  0  0  0  0  0  0
  -24.4638  -11.9750   20.5621 C   0  0  0  0  0  0  0  0  0  0  0  0
  -25.2769  -12.5376   18.5981 C   0  0  0  0  0  0  0  0  0  0  0  0
  -22.8323  -12.0161   18.5743 C   0  0  0  0  0  0  0  0  0  0  0  0
  -28.5058  -29.8584   19.5926 C   0  0  0  0  0  0  0  0  0  0  0  0
  -27.9955  -21.6465   20.3159 C   0  0  0  0  0  0  0  0  0  0  0  0
  -26.1095  -30.3990   21.7110 C   0  0  0  0  0  0  0  0  0  0  0  0
  -23.4212  -29.1734   23.4191 C   0  0  0  0  0  0  0  0  0  0  0  0
  -30.2688  -15.1644   20.5691 C   0  0  0  0  0  0  0  0  0  0  0  0
  -31.5189  -33.8409   18.5349 C   0  0  0  0  0  0  0  0  0  0  0  0
  -26.5041  -29.0120   18.3149 C   0  0  0  0  0  0  0  0  0  0  0  0
  -26.5457  -27.9927   21.0905 C   0  0  0  0  0  0  0  0  0  0  0  0
  -30.7493  -33.3486   19.7579 C   0  0  0  0  0  0  0  0  0  0  0  0
  -30.0239  -12.0070   18.9419 C   0  0  0  0  0  0  0  0  0  0  0  0
  -31.0292  -31.8696   20.0049 C   0  0  0  0  0  0  0  0  0  0  0  0
  -28.5368  -11.6605   19.0447 C   0  0  0  0  0  0  0  0  0  0  0  0
  -30.5277  -12.7215   20.1947 C   0  0  0  0  0  0  0  0  0  0  0  0
  -28.2643  -13.5575   20.6922 C   0  0  0  0  0  0  0  0  0  0  0  0
  -30.5681  -31.0150   18.8180 C   0  0  1  0  0  0  0  0  0  0  0  0
  -27.0078  -29.8640   19.4758 C   0  0  1  0  0  0  0  0  0  0  0  0
  -27.6959  -12.8943   19.4270 C   0  0  2  0  0  0  0  0  0  0  0  0
  -21.6873  -29.8419   25.1055 C   0  0  0  0  0  0  0  0  0  0  0  0
  -28.1954  -30.2041   23.9293 C   0  0  0  0  0  0  0  0  0  0  0  0
  -26.3241  -29.9251   25.5690 C   0  0  0  0  0  0  0  0  0  0  0  0
  -26.5112  -32.0268   24.2383 C   0  0  0  0  0  0  0  0  0  0  0  0
  -21.2091  -28.6521   21.5234 C   0  0  0  0  0  0  0  0  0  0  0  0
  -28.7382  -21.0955   21.5195 C   0  0  0  0  0  0  0  0  0  0  0  0
  -27.3662  -23.0132   20.5042 C   0  0  0  0  0  0  0  0  0  1  0  0
  -25.7718  -29.8970   23.0941 C   0  0  1  0  0  0  0  0  0  0  0  0
  -22.0226  -29.7258   23.6267 C   0  0  2  0  0  0  0  0  0  0  0  0
  -26.7033  -30.4954   24.1857 C   0  0  0  0  0  0  0  0  0  0  0  0
  -25.7589  -12.2086   20.7906 N   0  0  0  0  0  0  0  0  0  0  0  0
  -29.3835  -19.7590   21.2646 N   0  0  0  0  0  0  0  0  0  0  0  0
  -26.2262  -12.5484   19.5772 N   0  0  0  0  0  0  0  0  0  0  0  0
  -26.4771  -29.4278   20.7689 N   0  0  0  0  0  0  0  0  0  0  0  0
  -29.6855  -13.8820   20.4930 N   0  0  0  0  0  0  0  0  0  0  0  0
  -25.5757  -12.8542   17.3202 N   0  0  0  0  0  0  0  0  0  0  0  0
  -21.7351  -11.6261   19.3543 N   0  0  0  0  0  0  0  0  0  0  0  0
  -29.3648  -16.1947   20.8260 N   0  0  0  0  0  0  0  0  0  0  0  0
  -29.1318  -30.8404   18.8487 N   0  0  0  0  0  0  0  0  0  0  0  0
  -24.3551  -30.1805   23.2966 N   0  0  0  0  0  0  0  0  0  0  0  0
  -21.0138  -28.8366   22.9845 N   0  3  0  0  0  0  0  0  0  0  0  0
  -22.6744  -12.2074   17.3447 O   0  0  0  0  0  0  0  0  0  0  0  0
  -29.0531  -29.0258   20.3059 O   0  0  0  0  0  0  0  0  0  0  0  0
  -27.9023  -21.0341   19.2529 O   0  0  0  0  0  0  0  0  0  0  0  0
  -26.0426  -31.6076   21.4733 O   0  0  0  0  0  0  0  0  0  0  0  0
  -23.6618  -27.9690   23.3742 O   0  0  0  0  0  0  0  0  0  0  0  0
  -31.4769  -15.3395   20.3905 O   0  0  0  0  0  0  0  0  0  0  0  0
  -21.1078  -10.4275   24.7585 O   0  0  0  0  0  0  0  0  0  0  0  0
  -26.7125  -23.4389   19.3093 O   0  0  0  0  0  0  0  0  0  1  0  0
  -17.6075   -6.2667   23.8421 F   0  0  0  0  0  0  0  0  0  0  0  0
  -21.2193   -8.1198   26.2766 F   0  0  0  0  0  0  0  0  0  0  0  0
  1  2  1  0  0  0  0
  1  5  2  0  0  0  0
  2  6  2  0  0  0  0
  3  8  2  0  0  0  0
  3 18  1  0  0  0  0
  4  9  1  0  0  0  0
  4 18  2  0  0  0  0
  5 20  1  0  0  0  0
  6 22  1  0  0  0  0
  7 10  2  0  0  0  0
  7 21  1  0  0  0  0
  8 25  1  0  0  0  0
  9 25  2  0  0  0  0
 10 26  1  0  0  0  0
 11 12  2  0  0  0  0
 11 27  1  0  0  0  0
 12 28  1  0  0  0  0
 13 16  2  0  0  0  0
 13 24  1  0  0  0  0
 14 23  1  0  0  0  0
 14 26  2  0  0  0  0
 15 28  2  0  0  0  0
 15 29  1  0  0  0  0
 16 61  1  0  0  0  0
 17 24  2  0  0  0  0
 17 61  1  0  0  0  0
 18 30  1  0  0  0  0
 19 30  1  0  0  0  0
 19 31  2  0  0  0  0
 19 32  1  0  0  0  0
 20 22  2  0  0  0  0
 20 38  1  0  0  0  0
 21 23  2  0  0  0  0
 21 39  1  0  0  0  0
 22 47  1  0  0  0  0
 23 40  1  0  0  0  0
 24 67  1  0  0  0  0
 25 77  1  0  0  0  0
 26 78  1  0  0  0  0
 27 29  2  0  0  0  0
 27 77  1  0  0  0  0
 28 79  1  0  0  0  0
 29 80  1  0  0  0  0
 30 60  2  0  0  0  0
 31 62  1  0  0  0  0
 31 65  1  0  0  0  0
 32 66  1  0  0  0  0
 32 71  2  0  0  0  0
 33 48  1  0  0  0  0
 33 68  1  0  0  0  0
 33 72  2  0  0  0  0
 34 55  1  0  0  0  0
 34 56  1  0  0  0  0
 34 73  2  0  0  0  0
 35 57  1  0  0  0  0
 35 63  1  0  0  0  0
 35 74  2  0  0  0  0
 36 58  1  0  0  0  0
 36 69  1  0  0  0  0
 36 75  2  0  0  0  0
 37 64  1  0  0  0  0
 37 67  1  0  0  0  0
 37 76  2  0  0  0  0
 38 41  1  0  0  0  0
 39 48  1  0  0  0  0
 40 63  1  0  0  0  0
 41 43  1  0  0  0  0
 42 44  1  0  0  0  0
 42 45  1  0  0  0  0
 43 47  1  0  0  0  0
 44 49  1  0  0  0  0
 45 64  1  0  0  0  0
 46 49  1  0  0  0  0
 46 64  1  0  0  0  0
 47 68  1  0  0  0  0
 48 63  1  0  0  0  0
 49 62  1  0  0  0  0
 50 58  1  0  0  0  0
 51 59  1  0  0  0  0
 52 59  1  0  0  0  0
 53 59  1  0  0  0  0
 54 70  1  0  0  0  0
 55 61  1  0  0  0  0
 56 78  1  0  0  0  0
 57 59  1  0  0  0  0
 57 69  1  0  0  0  0
 58 70  1  0  0  0  0
 60 62  1  0  0  0  0
M  CHG  1  70   1
M  ISO  4  37 100  56 101  67 100  78 101
M  END
> <Batch ID>
0100

> <Smiles>
CNC(C)C(=O)NC(C(=O)N1Cc2cc([101O:1][101CH2:1]C(=O)Cn3ccc([100NH:0][100C:0](=O)N4CCCC(n5nc(-c6ccc(Oc7ccc(F)cc7F)cc6)c(C(N)=O)c5N)C4)c3)ccc2CC1C(=O)NC1CCCc2ccccc21)C(C)(C)C

> <Shape>
0.244

> <Color>
0.085

> <Negative vol penalty>
0.000

$$$$

  -OEChem-04052300573D

 82 90  0     1  0  0  0  0  0999 V2000
  -33.2972  -20.6507   12.9919 C   0  0  0  0  0  0  0  0  0  0  0  0
  -32.5321  -20.2101   14.0671 C   0  0  0  0  0  0  0  0  0  0  0  0
  -23.0023   -9.9019   19.9606 C   0  0  0  0  0  0  0  0  0  0  0  0
  -23.7471   -9.9048   22.2589 C   0  0  0  0  0  0  0  0  0  0  0  0
  -33.6320  -21.9997   12.8824 C   0  0  0  0  0  0  0  0  0  0  0  0
  -32.1023  -21.1183   15.0340 C   0  0  0  0  0  0  0  0  0  0  0  0
  -26.8110  -20.9867   18.1147 C   0  0  0  0  0  0  0  0  0  0  0  0
  -22.2394   -8.7609   20.2092 C   0  0  0  0  0  0  0  0  0  0  0  0
  -22.9842   -8.7639   22.5076 C   0  0  0  0  0  0  0  0  0  0  0  0
  -26.4784  -20.5279   19.3885 C   0  0  0  0  0  0  0  0  0  0  0  0
  -23.2284   -5.4361   21.9627 C   0  0  0  0  0  0  0  0  0  0  0  0
  -23.8235   -4.4039   22.6879 C   0  0  0  0  0  0  0  0  0  0  0  0
  -26.7150  -22.7684   20.2508 C   0  0  0  0  0  0  0  0  0  0  0  0
  -29.5510  -17.8303   22.4068 C   0  0  0  0  0  0  0  0  0  0  0  0
  -31.1895  -17.6105   20.6449 C   0  0  0  0  0  0  0  0  0  0  0  0
  -30.6526  -19.7936   21.5297 C   0  0  0  0  0  0  0  0  0  0  0  0
  -22.1137   -4.6088   24.3826 C   0  0  0  0  0  0  0  0  0  0  0  0
  -23.7562  -10.4738   20.9855 C   0  0  0  0  0  0  0  0  0  0  0  0
  -24.1371  -12.9931   20.8597 C   0  0  0  0  0  0  0  0  0  0  0  0
  -33.1980  -22.9264   13.8434 C   0  0  0  0  0  0  0  0  0  0  0  0
  -27.1092  -22.3402   17.9011 C   0  0  0  0  0  0  0  0  0  0  0  0
  -32.4328  -22.4807   14.9380 C   0  0  0  0  0  0  0  0  0  0  0  0
  -27.0486  -23.2423   18.9728 C   0  0  0  0  0  0  0  0  0  0  0  0
  -30.2761  -17.0294   21.5246 C   0  0  0  0  0  0  0  0  0  0  0  0
  -22.2303   -8.1919   21.4827 C   0  0  0  0  0  0  0  0  0  0  0  0
  -26.4332  -21.4182   20.4574 C   0  0  0  0  0  0  0  0  0  0  0  0
  -22.0759   -6.0547   22.4474 C   0  0  0  0  0  0  0  0  0  0  0  0
  -29.7392  -19.2125   22.4093 C   0  0  0  0  0  0  0  0  0  0  0  0
  -23.2662   -3.9902   23.8978 C   0  0  0  0  0  0  0  0  0  0  0  0
  -31.3777  -18.9926   20.6475 C   0  0  0  0  0  0  0  0  0  0  0  0
  -21.5186   -5.6410   23.6573 C   0  0  0  0  0  0  0  0  0  0  0  0
  -24.5449  -11.6521   20.7291 C   0  0  0  0  0  0  0  0  0  0  0  0
  -25.2428  -13.7248   20.5014 C   0  0  0  0  0  0  0  0  0  0  0  0
  -22.8718  -13.5294   21.2686 C   0  0  0  0  0  0  0  0  0  0  0  0
  -29.6659  -23.9432   16.9024 C   0  0  0  0  0  0  0  0  0  0  0  0
  -27.6403  -26.4743   17.0151 C   0  0  0  0  0  0  0  0  0  0  0  0
  -24.8110  -27.8648   18.3221 C   0  0  0  0  0  0  0  0  0  0  0  0
  -30.7230  -14.6881   20.7091 C   0  0  0  0  0  0  0  0  0  0  0  0
  -33.6248  -24.3666   13.7078 C   0  0  0  0  0  0  0  0  0  0  0  0
  -27.4401  -22.8241   16.5159 C   0  0  0  0  0  0  0  0  0  0  0  0
  -27.3404  -24.7089   18.7924 C   0  0  0  0  0  0  0  0  0  0  0  0
  -32.8143  -25.3263   14.5751 C   0  0  0  0  0  0  0  0  0  0  0  0
  -29.5877  -12.2837   18.3411 C   0  0  0  0  0  0  0  0  0  0  0  0
  -32.6752  -24.7779   15.9916 C   0  0  0  0  0  0  0  0  0  0  0  0
  -28.1410  -12.0154   18.7620 C   0  0  0  0  0  0  0  0  0  0  0  0
  -30.4983  -12.5025   19.5480 C   0  0  0  0  0  0  0  0  0  0  0  0
  -28.5934  -13.2603   20.9143 C   0  0  0  0  0  0  0  0  0  0  0  0
  -31.9269  -23.4394   15.9940 C   0  0  1  0  0  0  0  0  0  0  0  0
  -28.2273  -24.1309   16.5116 C   0  0  1  0  0  0  0  0  0  0  0  0
  -27.6259  -13.0979   19.7306 C   0  0  2  0  0  0  0  0  0  0  0  0
  -23.4324  -29.9605   18.2518 C   0  0  0  0  0  0  0  0  0  0  0  0
  -29.7015  -27.8861   18.7667 C   0  0  0  0  0  0  0  0  0  0  0  0
  -27.9196  -29.5149   19.4299 C   0  0  0  0  0  0  0  0  0  0  0  0
  -28.6241  -29.3430   17.0431 C   0  0  0  0  0  0  0  0  0  0  0  0
  -22.4428  -26.4112   17.3034 C   0  0  0  0  0  0  0  0  0  0  0  0
  -26.8417  -20.7213   23.9871 C   0  0  0  0  0  0  0  0  0  0  0  0
  -26.6789  -21.6695   22.8095 C   0  0  0  0  0  0  0  0  0  1  0  0
  -27.7340  -19.5382   23.6457 C   0  0  0  0  0  0  0  0  0  0  0  0
  -27.2491  -27.4845   18.0665 C   0  0  1  0  0  0  0  0  0  0  0  0
  -23.6404  -28.5732   17.6646 C   0  0  2  0  0  0  0  0  0  0  0  0
  -28.3699  -28.5292   18.3307 C   0  0  0  0  0  0  0  0  0  0  0  0
  -25.8109  -11.5357   20.3195 N   0  0  0  0  0  0  0  0  0  0  0  0
  -26.2081  -12.8130   20.1896 N   0  0  0  0  0  0  0  0  0  0  0  0
  -27.6652  -25.1322   17.4203 N   0  0  0  0  0  0  0  0  0  0  0  0
  -29.9492  -13.5446   20.4184 N   0  0  0  0  0  0  0  0  0  0  0  0
  -25.4739  -15.0526   20.4256 N   0  0  0  0  0  0  0  0  0  0  0  0
  -21.8440  -12.6368   21.6020 N   0  0  0  0  0  0  0  0  0  0  0  0
  -30.0843  -15.6255   21.5203 N   0  0  0  0  0  0  0  0  0  0  0  0
  -30.5040  -23.6557   15.8420 N   0  0  0  0  0  0  0  0  0  0  0  0
  -25.9845  -28.0633   17.6259 N   0  0  0  0  0  0  0  0  0  0  0  0
  -22.3873  -27.7894   17.8553 N   0  3  0  0  0  0  0  0  0  0  0  0
  -22.6539  -14.7637   21.3205 O   0  0  0  0  0  0  0  0  0  0  0  0
  -29.9918  -24.0526   18.0786 O   0  0  0  0  0  0  0  0  0  0  0  0
  -27.9068  -26.8609   15.8745 O   0  0  0  0  0  0  0  0  0  0  0  0
  -24.6966  -27.2047   19.3525 O   0  0  0  0  0  0  0  0  0  0  0  0
  -31.8575  -14.8382   20.2484 O   0  0  0  0  0  0  0  0  0  0  0  0
  -21.4858   -7.0787   21.7258 O   0  0  0  0  0  0  0  0  0  0  0  0
  -26.1095  -20.9728   21.7019 O   0  0  0  0  0  0  0  0  0  1  0  0
  -29.0263  -19.9995   23.2759 O   0  0  0  0  0  0  0  0  0  0  0  0
  -23.8369   -2.9979   24.5934 F   0  0  0  0  0  0  0  0  0  0  0  0
  -32.2533  -19.5511   19.8014 F   0  0  0  0  0  0  0  0  0  0  0  0
  -20.4109   -6.2307   24.1275 F   0  0  0  0  0  0  0  0  0  0  0  0
  1  2  1  0  0  0  0
  1  5  2  0  0  0  0
  2  6  2  0  0  0  0
  3  8  2  0  0  0  0
  3 18  1  0  0  0  0
  4  9  1  0  0  0  0
  4 18  2  0  0  0  0
  5 20  1  0  0  0  0
  6 22  1  0  0  0  0
  7 10  2  0  0  0  0
  7 21  1  0  0  0  0
  8 25  1  0  0  0  0
  9 25  2  0  0  0  0
 10 26  1  0  0  0  0
 11 12  2  0  0  0  0
 11 27  1  0  0  0  0
 12 29  1  0  0  0  0
 13 23  1  0  0  0  0
 13 26  2  0  0  0  0
 14 24  1  0  0  0  0
 14 28  2  0  0  0  0
 15 24  2  0  0  0  0
 15 30  1  0  0  0  0
 16 28  1  0  0  0  0
 16 30  2  0  0  0  0
 17 29  2  0  0  0  0
 17 31  1  0  0  0  0
 18 32  1  0  0  0  0
 19 32  1  0  0  0  0
 19 33  2  0  0  0  0
 19 34  1  0  0  0  0
 20 22  2  0  0  0  0
 20 39  1  0  0  0  0
 21 23  2  0  0  0  0
 21 40  1  0  0  0  0
 22 48  1  0  0  0  0
 23 41  1  0  0  0  0
 24 68  1  0  0  0  0
 25 77  1  0  0  0  0
 26 78  1  0  0  0  0
 27 31  2  0  0  0  0
 27 77  1  0  0  0  0
 28 79  1  0  0  0  0
 29 80  1  0  0  0  0
 30 81  1  0  0  0  0
 31 82  1  0  0  0  0
 32 62  2  0  0  0  0
 33 63  1  0  0  0  0
 33 66  1  0  0  0  0
 34 67  1  0  0  0  0
 34 72  2  0  0  0  0
 35 49  1  0  0  0  0
 35 69  1  0  0  0  0
 35 73  2  0  0  0  0
 36 59  1  0  0  0  0
 36 64  1  0  0  0  0
 36 74  2  0  0  0  0
 37 60  1  0  0  0  0
 37 70  1  0  0  0  0
 37 75  2  0  0  0  0
 38 65  1  0  0  0  0
 38 68  1  0  0  0  0
 38 76  2  0  0  0  0
 39 42  1  0  0  0  0
 40 49  1  0  0  0  0
 41 64  1  0  0  0  0
 42 44  1  0  0  0  0
 43 45  1  0  0  0  0
 43 46  1  0  0  0  0
 44 48  1  0  0  0  0
 45 50  1  0  0  0  0
 46 65  1  0  0  0  0
 47 50  1  0  0  0  0
 47 65  1  0  0  0  0
 48 69  1  0  0  0  0
 49 64  1  0  0  0  0
 50 63  1  0  0  0  0
 51 60  1  0  0  0  0
 52 61  1  0  0  0  0
 53 61  1  0  0  0  0
 54 61  1  0  0  0  0
 55 71  1  0  0  0  0
 56 57  1  0  0  0  0
 56 58  1  0  0  0  0
 57 78  1  0  0  0  0
 58 79  1  0  0  0  0
 59 61  1  0  0  0  0
 59 70  1  0  0  0  0
 60 71  1  0  0  0  0
 62 63  1  0  0  0  0
M  CHG  1  71   1
M  ISO  4  38 100  57 101  68 100  78 101
M  END
> <Batch ID>
0100

> <Smiles>
CNC(C)C(=O)NC(C(=O)N1Cc2cc([101O:1][101CH2:1]CCOc3cc(F)cc([100NH:0][100C:0](=O)N4CCCC(n5nc(-c6ccc(Oc7ccc(F)cc7F)cc6)c(C(N)=O)c5N)C4)c3)ccc2CC1C(=O)NC1CCCc2ccccc21)C(C)(C)C

> <Shape>
0.238

> <Color>
0.204

> <Negative vol penalty>
0.000

$$$$

  -OEChem-04052300573D

 86 95  0     1  0  0  0  0  0999 V2000
  -29.0382  -35.2152   23.0580 C   0  0  0  0  0  0  0  0  0  0  0  0
  -29.4937  -33.9155   22.8614 C   0  0  0  0  0  0  0  0  0  0  0  0
  -23.9664  -11.1160   23.7176 C   0  0  0  0  0  0  0  0  0  0  0  0
  -24.0516  -13.4902   24.1568 C   0  0  0  0  0  0  0  0  0  0  0  0
  -27.6961  -35.4442   23.3584 C   0  0  0  0  0  0  0  0  0  0  0  0
  -28.6076  -32.8439   22.9661 C   0  0  0  0  0  0  0  0  0  0  0  0
  -28.6968  -27.6605   19.7057 C   0  0  0  0  0  0  0  0  0  0  0  0
  -23.4267  -10.9007   24.9856 C   0  0  0  0  0  0  0  0  0  0  0  0
  -23.5118  -13.2750   25.4249 C   0  0  0  0  0  0  0  0  0  0  0  0
  -29.1896  -26.3862   19.9832 C   0  0  0  0  0  0  0  0  0  0  0  0
  -20.4126  -11.1863   26.4912 C   0  0  0  0  0  0  0  0  0  0  0  0
  -19.3249  -10.3191   26.5941 C   0  0  0  0  0  0  0  0  0  0  0  0
  -26.9874  -25.6938   20.6835 C   0  0  0  0  0  0  0  0  0  0  0  0
  -32.3162  -17.0137   21.1479 C   0  0  0  0  0  0  0  0  0  0  0  0
  -20.5995   -8.8960   28.0730 C   0  0  0  0  0  0  0  0  0  0  0  0
  -24.2789  -12.4107   23.3032 C   0  0  0  0  0  0  0  0  0  0  0  0
  -24.1325  -12.8800   20.8000 C   0  0  0  0  0  0  0  0  0  0  0  0
  -26.7911  -34.3757   23.4574 C   0  0  0  0  0  0  0  0  0  0  0  0
  -27.3457  -27.9647   19.9256 C   0  0  0  0  0  0  0  0  0  0  0  0
  -27.2524  -33.0588   23.2695 C   0  0  0  0  0  0  0  0  0  0  0  0
  -26.4795  -26.9720   20.4055 C   0  0  0  0  0  0  0  0  0  0  0  0
  -30.8389  -19.2354   21.9629 C   0  0  0  0  0  0  0  0  0  0  0  0
  -32.9693  -18.1407   21.6469 C   0  0  0  0  0  0  0  0  0  0  0  0
  -30.9244  -16.9976   21.0563 C   0  0  0  0  0  0  0  0  0  0  0  0
  -32.2307  -19.2515   22.0544 C   0  0  0  0  0  0  0  0  0  0  0  0
  -23.1993  -11.9802   25.8393 C   0  0  0  0  0  0  0  0  0  0  0  0
  -28.3355  -25.4034   20.4749 C   0  0  0  0  0  0  0  0  0  0  0  0
  -21.5938  -10.9083   27.1792 C   0  0  0  0  0  0  0  0  0  0  0  0
  -19.4183   -9.1740   27.3850 C   0  0  0  0  0  0  0  0  0  0  0  0
  -21.6872   -9.7631   27.9701 C   0  0  0  0  0  0  0  0  0  0  0  0
  -30.1858  -18.1084   21.4638 C   0  0  0  0  0  0  0  0  0  0  0  0
  -24.8370  -12.6337   21.9936 C   0  0  0  0  0  0  0  0  0  0  0  0
  -25.1111  -13.0221   19.8467 C   0  0  0  0  0  0  0  0  0  0  0  0
  -22.7198  -12.9722   20.5731 C   0  0  0  0  0  0  0  0  0  0  0  0
  -25.7815  -30.0089   21.7906 C   0  0  0  0  0  0  0  0  0  0  0  0
  -23.2001  -28.9241   20.1528 C   0  0  0  0  0  0  0  0  0  0  0  0
  -21.7768  -26.4283   18.3110 C   0  0  0  0  0  0  0  0  0  0  0  0
  -30.8498  -14.6675   20.1016 C   0  0  0  0  0  0  0  0  0  0  0  0
  -25.3596  -34.6691   23.8308 C   0  0  0  0  0  0  0  0  0  0  0  0
  -26.8241  -29.3365   19.5959 C   0  0  0  0  0  0  0  0  0  0  0  0
  -25.0163  -27.2419   20.6397 C   0  0  0  0  0  0  0  0  0  0  0  0
  -24.4078  -33.5080   23.5545 C   0  0  0  0  0  0  0  0  0  0  0  0
  -29.5678  -11.6051   18.8151 C   0  0  0  0  0  0  0  0  0  0  0  0
  -25.0004  -32.1987   24.0659 C   0  0  0  0  0  0  0  0  0  0  0  0
  -28.1429  -11.5467   19.3706 C   0  0  0  0  0  0  0  0  0  0  0  0
  -28.5948  -21.6725   23.5798 C   0  0  0  0  0  0  0  0  0  0  0  0
  -30.5430  -12.2179   19.8186 C   0  0  0  0  0  0  0  0  0  0  0  0
  -29.5789  -20.5125   23.7154 C   0  0  0  0  0  0  0  0  0  0  0  0
  -29.7076  -21.4216   21.4761 C   0  0  0  0  0  0  0  0  0  0  0  0
  -28.7206  -13.4693   20.9058 C   0  0  0  0  0  0  0  0  0  0  0  0
  -26.3167  -31.8722   23.3502 C   0  0  1  0  0  0  0  0  0  0  0  0
  -25.5404  -29.6832   20.3438 C   0  0  1  0  0  0  0  0  0  0  0  0
  -29.1805  -22.4947   22.4355 C   0  0  1  0  0  0  0  0  0  0  0  0
  -27.6902  -12.9192   19.9062 C   0  0  2  0  0  0  0  0  0  0  0  0
  -19.6423  -25.8137   17.1433 C   0  0  0  0  0  0  0  0  0  0  0  0
  -21.9072  -28.3063   22.8467 C   0  0  0  0  0  0  0  0  0  0  0  0
  -20.2530  -26.8630   21.6431 C   0  0  0  0  0  0  0  0  0  0  0  0
  -20.3626  -29.3065   21.1531 C   0  0  0  0  0  0  0  0  0  0  0  0
  -23.1280  -26.2554   15.6836 C   0  0  0  0  0  0  0  0  0  0  0  0
  -28.1719  -23.4307   21.7931 C   0  0  0  0  0  0  0  0  0  1  0  0
  -22.2160  -27.7939   20.3351 C   0  0  1  0  0  0  0  0  0  0  0  0
  -21.0139  -26.4544   16.9988 C   0  0  2  0  0  0  0  0  0  0  0  0
  -21.2126  -28.0626   21.4920 C   0  0  0  0  0  0  0  0  0  0  0  0
  -26.1609  -12.6193   21.8174 N   0  0  0  0  0  0  0  0  0  0  0  0
  -26.2961  -12.8583   20.5018 N   0  0  0  0  0  0  0  0  0  0  0  0
  -30.0909  -20.3232   22.3605 N   0  0  3  0  0  0  0  0  0  0  0  0
  -24.5554  -28.6002   20.3082 N   0  0  0  0  0  0  0  0  0  0  0  0
  -30.0508  -13.5181   20.2789 N   0  0  0  0  0  0  0  0  0  0  0  0
  -34.3800  -18.1339   21.7309 N   0  0  0  0  0  0  0  0  0  0  0  0
  -32.8936  -20.3952   22.5612 N   0  0  0  0  0  0  0  0  0  0  0  0
  -25.0649  -13.2698   18.5205 N   0  0  0  0  0  0  0  0  0  0  0  0
  -21.8555  -12.8008   21.6631 N   0  0  0  0  0  0  0  0  0  0  0  0
  -30.2640  -15.8514   20.5485 N   0  0  0  0  0  0  0  0  0  0  0  0
  -26.0558  -31.3420   22.0291 N   0  0  0  0  0  0  0  0  0  0  0  0
  -21.5874  -27.5865   19.0350 N   0  0  0  0  0  0  0  0  0  0  0  0
  -21.7685  -25.7171   15.9463 N   0  3  0  0  0  0  0  0  0  0  0  0
  -22.2376  -13.1835   19.4346 O   0  0  0  0  0  0  0  0  0  0  0  0
  -25.7215  -29.1169   22.6288 O   0  0  0  0  0  0  0  0  0  0  0  0
  -22.7822  -30.0511   19.8756 O   0  0  0  0  0  0  0  0  0  0  0  0
  -22.4684  -25.4744   18.6606 O   0  0  0  0  0  0  0  0  0  0  0  0
  -31.9597  -14.6101   19.5661 O   0  0  0  0  0  0  0  0  0  0  0  0
  -22.6725  -11.7706   27.0766 O   0  0  0  0  0  0  0  0  0  0  0  0
  -28.8140  -24.1590   20.7473 O   0  0  0  0  0  0  0  0  0  1  0  0
  -18.3733   -8.3421   27.4850 F   0  0  0  0  0  0  0  0  0  0  0  0
  -22.8189   -9.4914   28.6343 F   0  0  0  0  0  0  0  0  0  0  0  0
  -28.8469  -18.0930   21.3750 F   0  0  0  0  0  0  0  0  0  0  0  0
  1  2  1  0  0  0  0
  1  5  2  0  0  0  0
  2  6  2  0  0  0  0
  3  8  2  0  0  0  0
  3 16  1  0  0  0  0
  4  9  1  0  0  0  0
  4 16  2  0  0  0  0
  5 18  1  0  0  0  0
  6 20  1  0  0  0  0
  7 10  2  0  0  0  0
  7 19  1  0  0  0  0
  8 26  1  0  0  0  0
  9 26  2  0  0  0  0
 10 27  1  0  0  0  0
 11 12  2  0  0  0  0
 11 28  1  0  0  0  0
 12 29  1  0  0  0  0
 13 21  1  0  0  0  0
 13 27  2  0  0  0  0
 14 23  1  0  0  0  0
 14 24  2  0  0  0  0
 15 29  2  0  0  0  0
 15 30  1  0  0  0  0
 16 32  1  0  0  0  0
 17 32  1  0  0  0  0
 17 33  2  0  0  0  0
 17 34  1  0  0  0  0
 18 20  2  0  0  0  0
 18 39  1  0  0  0  0
 19 21  2  0  0  0  0
 19 40  1  0  0  0  0
 20 51  1  0  0  0  0
 21 41  1  0  0  0  0
 22 25  1  0  0  0  0
 22 31  2  0  0  0  0
 22 66  1  0  0  0  0
 23 25  2  0  0  0  0
 23 69  1  0  0  0  0
 24 31  1  0  0  0  0
 24 73  1  0  0  0  0
 25 70  1  0  0  0  0
 26 82  1  0  0  0  0
 27 83  1  0  0  0  0
 28 30  2  0  0  0  0
 28 82  1  0  0  0  0
 29 84  1  0  0  0  0
 30 85  1  0  0  0  0
 31 86  1  0  0  0  0
 32 64  2  0  0  0  0
 33 65  1  0  0  0  0
 33 71  1  0  0  0  0
 34 72  1  0  0  0  0
 34 77  2  0  0  0  0
 35 52  1  0  0  0  0
 35 74  1  0  0  0  0
 35 78  2  0  0  0  0
 36 61  1  0  0  0  0
 36 67  1  0  0  0  0
 36 79  2  0  0  0  0
 37 62  1  0  0  0  0
 37 75  1  0  0  0  0
 37 80  2  0  0  0  0
 38 68  1  0  0  0  0
 38 73  1  0  0  0  0
 38 81  2  0  0  0  0
 39 42  1  0  0  0  0
 40 52  1  0  0  0  0
 41 67  1  0  0  0  0
 42 44  1  0  0  0  0
 43 45  1  0  0  0  0
 43 47  1  0  0  0  0
 44 51  1  0  0  0  0
 45 54  1  0  0  0  0
 46 48  1  0  0  0  0
 46 53  1  0  0  0  0
 47 68  1  0  0  0  0
 48 66  1  0  0  0  0
 49 53  1  0  0  0  0
 49 66  1  0  0  0  0
 50 54  1  0  0  0  0
 50 68  1  0  0  0  0
 51 74  1  0  0  0  0
 52 67  1  0  0  0  0
 53 60  1  0  0  0  0
 54 65  1  0  0  0  0
 55 62  1  0  0  0  0
 56 63  1  0  0  0  0
 57 63  1  0  0  0  0
 58 63  1  0  0  0  0
 59 76  1  0  0  0  0
 60 83  1  0  0  0  0
 61 63  1  0  0  0  0
 61 75  1  0  0  0  0
 62 76  1  0  0  0  0
 64 65  1  0  0  0  0
M  CHG  1  76   1
M  ISO  4  38 100  60 101  73 100  83 101
M  END
> <Batch ID>
0100

> <Smiles>
CNC(C)C(=O)NC(C(=O)N1Cc2cc([101O:1][101CH2:1]C3CCN(c4c(N)c(N)cc([100NH:0][100C:0](=O)N5CCCC(n6nc(-c7ccc(Oc8ccc(F)cc8F)cc7)c(C(N)=O)c6N)C5)c4F)C3)ccc2CC1C(=O)NC1CCCc2ccccc21)C(C)(C)C

> <Shape>
0.257

> <Color>
0.082

> <Negative vol penalty>
0.000

$$$$

  -OEChem-04052300573D

 84 92  0     1  0  0  0  0  0999 V2000
  -28.1277  -33.0077   14.0371 C   0  0  0  0  0  0  0  0  0  0  0  0
  -28.0554  -31.6247   14.1693 C   0  0  0  0  0  0  0  0  0  0  0  0
  -22.7588  -10.6749   21.3436 C   0  0  0  0  0  0  0  0  0  0  0  0
  -24.7560   -9.3155   21.3436 C   0  0  0  0  0  0  0  0  0  0  0  0
  -27.9401  -33.8241   15.1516 C   0  0  0  0  0  0  0  0  0  0  0  0
  -27.7964  -31.0573   15.4165 C   0  0  0  0  0  0  0  0  0  0  0  0
  -24.5810  -25.9699   16.5504 C   0  0  0  0  0  0  0  0  0  0  0  0
  -30.3362  -16.5801   23.3905 C   0  0  0  0  0  0  0  0  0  0  0  0
  -21.9748   -9.5232   21.2773 C   0  0  0  0  0  0  0  0  0  0  0  0
  -23.9720   -8.1637   21.2773 C   0  0  0  0  0  0  0  0  0  0  0  0
  -24.9656  -24.6531   16.7993 C   0  0  0  0  0  0  0  0  0  0  0  0
  -29.9895  -17.9092   23.1483 C   0  0  0  0  0  0  0  0  0  0  0  0
  -21.0041   -7.3036   18.9203 C   0  0  0  0  0  0  0  0  0  0  0  0
  -19.9420   -7.2947   18.0162 C   0  0  0  0  0  0  0  0  0  0  0  0
  -30.0933  -17.5027   20.7690 C   0  0  0  0  0  0  0  0  0  0  0  0
  -24.8096  -25.0624   19.1715 C   0  0  0  0  0  0  0  0  0  0  0  0
  -18.3940   -6.9458   19.8381 C   0  0  0  0  0  0  0  0  0  0  0  0
  -24.1494  -10.5711   21.3767 C   0  0  0  0  0  0  0  0  0  0  0  0
  -30.4401  -16.1735   21.0113 C   0  0  0  0  0  0  0  0  0  0  0  0
  -25.4081  -12.4186   22.6055 C   0  0  0  0  0  0  0  0  0  0  0  0
  -27.6691  -33.2668   16.4111 C   0  0  0  0  0  0  0  0  0  0  0  0
  -24.3179  -26.8474   17.6121 C   0  0  0  0  0  0  0  0  0  0  0  0
  -27.6063  -31.8670   16.5491 C   0  0  0  0  0  0  0  0  0  0  0  0
  -24.4194  -26.3890   18.9334 C   0  0  0  0  0  0  0  0  0  0  0  0
  -30.5616  -15.7122   22.3220 C   0  0  0  0  0  0  0  0  0  0  0  0
  -22.5814   -8.2676   21.2442 C   0  0  0  0  0  0  0  0  0  0  0  0
  -29.8680  -18.3705   21.8375 C   0  0  0  0  0  0  0  0  0  0  0  0
  -25.0828  -24.2000   18.1100 C   0  0  0  0  0  0  0  0  0  0  0  0
  -20.7612   -7.1335   20.2833 C   0  0  0  0  0  0  0  0  0  0  0  0
  -18.6370   -7.1158   18.4750 C   0  0  0  0  0  0  0  0  0  0  0  0
  -19.4562   -6.9547   20.7422 C   0  0  0  0  0  0  0  0  0  0  0  0
  -24.9599  -11.7605   21.4446 C   0  0  0  0  0  0  0  0  0  0  0  0
  -26.1352  -13.4853   22.1364 C   0  0  0  0  0  0  0  0  0  0  0  0
  -30.6705  -15.2923   19.8735 C   0  0  0  0  0  0  0  0  0  0  0  0
  -25.1871  -12.0947   23.9846 C   0  0  0  0  0  0  0  0  0  0  0  0
  -29.9638  -15.4957   18.5880 C   0  0  0  0  0  0  0  0  0  0  0  0
  -25.5833  -29.5799   18.6299 C   0  0  0  0  0  0  0  0  0  0  0  0
  -23.0938  -29.5069   20.7082 C   0  0  0  0  0  0  0  0  0  0  0  0
  -20.7703  -27.6502   22.3819 C   0  0  0  0  0  0  0  0  0  0  0  0
  -27.5204  -34.1882   17.5959 C   0  0  0  0  0  0  0  0  0  0  0  0
  -23.8781  -28.2571   17.3265 C   0  0  0  0  0  0  0  0  0  0  0  0
  -24.1284  -27.2855   20.1082 C   0  0  0  0  0  0  0  0  0  0  0  0
  -26.8787  -33.5209   18.8096 C   0  0  0  0  0  0  0  0  0  0  0  0
  -26.5527  -15.4099   17.4864 C   0  0  0  0  0  0  0  0  0  0  0  0
  -27.5158  -32.1595   19.0694 C   0  0  0  0  0  0  0  0  0  0  0  0
  -25.8805  -14.4752   18.4915 C   0  0  0  0  0  0  0  0  0  0  0  0
  -27.9904  -14.9857   17.2045 C   0  0  0  0  0  0  0  0  0  0  0  0
  -28.1667  -13.9333   19.4428 C   0  0  0  0  0  0  0  0  0  0  0  0
  -27.3027  -31.2147   17.8805 C   0  0  1  0  0  0  0  0  0  0  0  0
  -24.1336  -29.2101   18.4901 C   0  0  1  0  0  0  0  0  0  0  0  0
  -26.7219  -14.3461   19.7737 C   0  0  2  0  0  0  0  0  0  0  0  0
  -18.8971  -27.8661   24.0376 C   0  0  0  0  0  0  0  0  0  0  0  0
  -25.1257  -29.8442   22.9594 C   0  0  0  0  0  0  0  0  0  0  0  0
  -23.3573  -29.1083   24.5717 C   0  0  0  0  0  0  0  0  0  0  0  0
  -23.0340  -31.1877   23.2321 C   0  0  0  0  0  0  0  0  0  0  0  0
  -18.7903  -26.5884   20.4554 C   0  0  0  0  0  0  0  0  0  0  0  0
  -27.9126  -21.1637   20.6039 C   0  0  0  0  0  0  0  0  0  0  0  0
  -27.0981  -21.4743   19.3529 C   0  0  0  0  0  0  0  0  0  0  0  0
  -28.8006  -19.9422   20.4070 C   0  0  0  0  0  0  0  0  0  0  0  0
  -26.1786  -22.6690   19.5630 C   0  0  0  0  0  0  0  0  0  1  0  0
  -22.8700  -28.9386   22.0888 C   0  0  1  0  0  0  0  0  0  0  0  0
  -19.2748  -27.8352   22.5648 C   0  0  2  0  0  0  0  0  0  0  0  0
  -23.6041  -29.7531   23.1911 C   0  0  0  0  0  0  0  0  0  0  0  0
  -25.3679  -12.3591   20.3224 N   0  0  0  0  0  0  0  0  0  0  0  0
  -31.4990  -14.2858   19.9068 N   0  0  0  0  0  0  0  0  0  0  0  0
  -26.0801  -13.4046   20.7760 N   0  0  0  0  0  0  0  0  0  0  0  0
  -28.7505  -14.8375   18.4440 N   0  0  0  0  0  0  0  0  0  0  0  0
  -23.7080  -28.6571   19.7775 N   0  0  0  0  0  0  0  0  0  0  0  0
  -30.9141  -14.3705   22.5886 N   0  0  0  0  0  0  0  0  0  0  0  0
  -26.8098  -14.4751   22.7590 N   0  0  0  0  0  0  0  0  0  0  0  0
  -24.4168  -10.9644   24.2902 N   0  0  0  0  0  0  0  0  0  0  0  0
  -25.9555  -30.6861   17.8901 N   0  0  0  0  0  0  0  0  0  0  0  0
  -21.4243  -28.8587   22.2679 N   0  0  0  0  0  0  0  0  0  0  0  0
  -18.5313  -26.7206   21.9123 N   0  3  0  0  0  0  0  0  0  0  0  0
  -25.6450  -12.7963   24.9181 O   0  0  0  0  0  0  0  0  0  0  0  0
  -30.5292  -16.2266   17.7852 O   0  0  0  0  0  0  0  0  0  0  0  0
  -26.3098  -28.9120   19.3563 O   0  0  0  0  0  0  0  0  0  0  0  0
  -22.7303  -30.6598   20.4626 O   0  0  0  0  0  0  0  0  0  0  0  0
  -21.3055  -26.5443   22.3475 O   0  0  0  0  0  0  0  0  0  0  0  0
  -21.8166   -7.1435   21.1798 O   0  0  0  0  0  0  0  0  0  0  0  0
  -29.5266  -19.6764   21.5998 O   0  0  0  0  0  0  0  0  0  0  0  0
  -25.4587  -22.9154   18.3558 O   0  0  0  0  0  0  0  0  0  1  0  0
  -17.6170   -7.1088   17.6068 F   0  0  0  0  0  0  0  0  0  0  0  0
  -19.2165   -6.7920   22.0506 F   0  0  0  0  0  0  0  0  0  0  0  0
  1  2  1  0  0  0  0
  1  5  2  0  0  0  0
  2  6  2  0  0  0  0
  3  9  2  0  0  0  0
  3 18  1  0  0  0  0
  4 10  1  0  0  0  0
  4 18  2  0  0  0  0
  5 21  1  0  0  0  0
  6 23  1  0  0  0  0
  7 11  2  0  0  0  0
  7 22  1  0  0  0  0
  8 12  2  0  0  0  0
  8 25  1  0  0  0  0
  9 26  1  0  0  0  0
 10 26  2  0  0  0  0
 11 28  1  0  0  0  0
 12 27  1  0  0  0  0
 13 14  2  0  0  0  0
 13 29  1  0  0  0  0
 14 30  1  0  0  0  0
 15 19  1  0  0  0  0
 15 27  2  0  0  0  0
 16 24  1  0  0  0  0
 16 28  2  0  0  0  0
 17 30  2  0  0  0  0
 17 31  1  0  0  0  0
 18 32  1  0  0  0  0
 19 25  2  0  0  0  0
 19 34  1  0  0  0  0
 20 32  1  0  0  0  0
 20 33  2  0  0  0  0
 20 35  1  0  0  0  0
 21 23  2  0  0  0  0
 21 40  1  0  0  0  0
 22 24  2  0  0  0  0
 22 41  1  0  0  0  0
 23 49  1  0  0  0  0
 24 42  1  0  0  0  0
 25 69  1  0  0  0  0
 26 80  1  0  0  0  0
 27 81  1  0  0  0  0
 28 82  1  0  0  0  0
 29 31  2  0  0  0  0
 29 80  1  0  0  0  0
 30 83  1  0  0  0  0
 31 84  1  0  0  0  0
 32 64  2  0  0  0  0
 33 66  1  0  0  0  0
 33 70  1  0  0  0  0
 34 36  1  0  0  0  0
 34 65  2  0  0  0  0
 35 71  1  0  0  0  0
 35 75  2  0  0  0  0
 36 67  1  0  0  0  0
 36 76  2  0  0  0  0
 37 50  1  0  0  0  0
 37 72  1  0  0  0  0
 37 77  2  0  0  0  0
 38 61  1  0  0  0  0
 38 68  1  0  0  0  0
 38 78  2  0  0  0  0
 39 62  1  0  0  0  0
 39 73  1  0  0  0  0
 39 79  2  0  0  0  0
 40 43  1  0  0  0  0
 41 50  1  0  0  0  0
 42 68  1  0  0  0  0
 43 45  1  0  0  0  0
 44 46  1  0  0  0  0
 44 47  1  0  0  0  0
 45 49  1  0  0  0  0
 46 51  1  0  0  0  0
 47 67  1  0  0  0  0
 48 51  1  0  0  0  0
 48 67  1  0  0  0  0
 49 72  1  0  0  0  0
 50 68  1  0  0  0  0
 51 66  1  0  0  0  0
 52 62  1  0  0  0  0
 53 63  1  0  0  0  0
 54 63  1  0  0  0  0
 55 63  1  0  0  0  0
 56 74  1  0  0  0  0
 57 58  1  0  0  0  0
 57 59  1  0  0  0  0
 58 60  1  0  0  0  0
 59 81  1  0  0  0  0
 60 82  1  0  0  0  0
 61 63  1  0  0  0  0
 61 73  1  0  0  0  0
 62 74  1  0  0  0  0
 64 66  1  0  0  0  0
M  CHG  1  74   1
M  ISO  4  34 100  36 100  60 101  82 101
M  END
> <Batch ID>
0100

> <Smiles>
CNC(C)C(=O)NC(C(=O)N1Cc2cc([101O:1][101CH2:1]CCCOc3ccc(N)c([100C:0](=N)[100C:0](=O)N4CCCC(n5nc(-c6ccc(Oc7ccc(F)cc7F)cc6)c(C(N)=O)c5N)C4)c3)ccc2CC1C(=O)NC1CCCc2ccccc21)C(C)(C)C

> <Shape>
0.229

> <Color>
0.080

> <Negative vol penalty>
0.000

$$$$

  -OEChem-04052300573D

 83 91  0     1  0  0  0  0  0999 V2000
  -19.3614  -31.5422   21.8488 C   0  0  0  0  0  0  0  0  0  0  0  0
  -20.7070  -31.2275   22.0091 C   0  0  0  0  0  0  0  0  0  0  0  0
  -26.3251  -13.8652   21.7572 C   0  0  0  0  0  0  0  0  0  0  0  0
  -25.2448  -15.2161   20.0705 C   0  0  0  0  0  0  0  0  0  0  0  0
  -18.3934  -30.5476   21.9821 C   0  0  0  0  0  0  0  0  0  0  0  0
  -21.0853  -29.9182   22.3041 C   0  0  0  0  0  0  0  0  0  0  0  0
  -25.0323  -28.3664   19.5367 C   0  0  0  0  0  0  0  0  0  0  0  0
  -25.1895  -13.0595   21.8392 C   0  0  0  0  0  0  0  0  0  0  0  0
  -24.1091  -14.4104   20.1525 C   0  0  0  0  0  0  0  0  0  0  0  0
  -26.2956  -28.8110   19.9240 C   0  0  0  0  0  0  0  0  0  0  0  0
  -22.7101  -10.4302   22.2327 C   0  0  0  0  0  0  0  0  0  0  0  0
  -22.8961   -9.0481   22.2589 C   0  0  0  0  0  0  0  0  0  0  0  0
  -26.6997  -26.6963   21.0120 C   0  0  0  0  0  0  0  0  0  0  0  0
  -29.9471  -23.5187   17.6073 C   0  0  0  0  0  0  0  0  0  0  0  0
  -31.0814  -25.1877   18.9357 C   0  0  0  0  0  0  0  0  0  0  0  0
  -29.4793  -25.8631   17.2581 C   0  0  0  0  0  0  0  0  0  0  0  0
  -23.9780   -9.1527   20.1013 C   0  0  0  0  0  0  0  0  0  0  0  0
  -26.3527  -14.9436   20.8728 C   0  0  0  0  0  0  0  0  0  0  0  0
  -28.6332  -15.6009   19.9374 C   0  0  0  0  0  0  0  0  0  0  0  0
  -18.7608  -29.2235   22.2693 C   0  0  0  0  0  0  0  0  0  0  0  0
  -24.5882  -27.0852   19.8940 C   0  0  0  0  0  0  0  0  0  0  0  0
  -20.1213  -28.9053   22.4427 C   0  0  0  0  0  0  0  0  0  0  0  0
  -25.4313  -26.2368   20.6258 C   0  0  0  0  0  0  0  0  0  0  0  0
  -30.8593  -23.8499   18.6092 C   0  0  0  0  0  0  0  0  0  0  0  0
  -29.2572  -24.5253   16.9317 C   0  0  0  0  0  0  0  0  0  0  0  0
  -24.0815  -13.3320   21.0369 C   0  0  0  0  0  0  0  0  0  0  0  0
  -27.1284  -27.9771   20.6642 C   0  0  0  0  0  0  0  0  0  0  0  0
  -23.1580  -11.1736   21.1407 C   0  0  0  0  0  0  0  0  0  0  0  0
  -30.3914  -26.1943   18.2601 C   0  0  0  0  0  0  0  0  0  0  0  0
  -23.5301   -8.4093   21.1933 C   0  0  0  0  0  0  0  0  0  0  0  0
  -23.7920  -10.5349   20.0750 C   0  0  0  0  0  0  0  0  0  0  0  0
  -27.5253  -15.7766   20.7880 C   0  0  0  0  0  0  0  0  0  0  0  0
  -29.4683  -16.6485   20.2404 C   0  0  0  0  0  0  0  0  0  0  0  0
  -28.8850  -14.5820   18.9607 C   0  0  0  0  0  0  0  0  0  0  0  0
  -22.1893  -25.9495   21.6432 C   0  0  0  0  0  0  0  0  0  0  0  0
  -23.2593  -23.0897   20.5482 C   0  0  0  0  0  0  0  0  0  0  0  0
  -25.8478  -21.2510   19.2967 C   0  0  0  0  0  0  0  0  0  0  0  0
  -30.2906  -22.0620   21.3188 C   0  0  0  0  0  0  0  0  0  0  0  0
  -17.6754  -28.1922   22.4509 C   0  0  0  0  0  0  0  0  0  0  0  0
  -23.2331  -26.6106   19.4456 C   0  0  0  0  0  0  0  0  0  0  0  0
  -25.0098  -24.8449   21.0175 C   0  0  0  0  0  0  0  0  0  0  0  0
  -18.1856  -26.7546   22.3941 C   0  0  0  0  0  0  0  0  0  0  0  0
  -29.3216  -19.9826   24.0416 C   0  0  0  0  0  0  0  0  0  0  0  0
  -19.4373  -26.5981   23.2518 C   0  0  0  0  0  0  0  0  0  0  0  0
  -28.8537  -18.6916   23.3674 C   0  0  0  0  0  0  0  0  0  0  0  0
  -28.9484  -21.2151   23.2208 C   0  0  0  0  0  0  0  0  0  0  0  0
  -28.9286  -19.8917   21.1419 C   0  0  0  0  0  0  0  0  0  0  0  0
  -20.5730  -27.4916   22.7387 C   0  0  1  0  0  0  0  0  0  0  0  0
  -22.6826  -25.4767   20.3050 C   0  0  1  0  0  0  0  0  0  0  0  0
  -29.3313  -18.6179   21.9047 C   0  0  2  0  0  0  0  0  0  0  0  0
  -27.0339  -19.2758   18.3024 C   0  0  0  0  0  0  0  0  0  0  0  0
  -23.4021  -22.1716   23.4545 C   0  0  0  0  0  0  0  0  0  0  0  0
  -24.8469  -20.2677   22.7092 C   0  0  0  0  0  0  0  0  0  0  0  0
  -22.5083  -20.4619   21.8631 C   0  0  0  0  0  0  0  0  0  0  0  0
  -25.1926  -22.0995   16.5381 C   0  0  0  0  0  0  0  0  0  0  0  0
  -31.5966  -22.7739   19.3321 C   0  0  0  0  0  0  0  0  0  0  0  0
  -30.5213  -29.1894   20.3032 C   0  0  0  0  0  0  0  0  0  0  0  0
  -29.0132  -29.3474   20.1891 C   0  0  0  0  0  0  0  0  0  1  0  0
  -30.9768  -27.7888   19.9247 C   0  0  0  0  0  0  0  0  0  0  0  0
  -24.2677  -22.0721   21.0241 C   0  0  1  0  0  0  0  0  0  0  0  0
  -25.9316  -20.3060   18.1117 C   0  0  2  0  0  0  0  0  0  0  0  0
  -23.7637  -21.2702   22.2572 C   0  0  0  0  0  0  0  0  0  0  0  0
  -27.6429  -16.8511   21.5726 N   0  0  0  0  0  0  0  0  0  0  0  0
  -28.8346  -17.3600   21.2163 N   0  0  0  0  0  0  0  0  0  0  0  0
  -23.6733  -24.4292   20.5608 N   0  0  0  0  0  0  0  0  0  0  0  0
  -29.4317  -21.0826   21.8443 N   0  0  0  0  0  0  0  0  0  0  0  0
  -28.3347  -24.1901   15.9189 N   0  0  0  0  0  0  0  0  0  0  0  0
  -30.6754  -17.0211   19.7647 N   0  0  0  0  0  0  0  0  0  0  0  0
  -27.9219  -13.5805   18.7765 N   0  0  0  0  0  0  0  0  0  0  0  0
  -21.1912  -26.9023   21.5704 N   0  0  0  0  0  0  0  0  0  0  0  0
  -24.5919  -21.2461   19.8660 N   0  0  0  0  0  0  0  0  0  0  0  0
  -30.7068  -21.8569   20.0091 N   0  0  0  0  0  0  0  0  0  0  0  0
  -26.2107  -21.0669   16.8611 N   0  3  0  0  0  0  0  0  0  0  0  0
  -29.9403  -14.5509   18.2833 O   0  0  0  0  0  0  0  0  0  0  0  0
  -22.6771  -25.4832   22.6661 O   0  0  0  0  0  0  0  0  0  0  0  0
  -22.1477  -22.7094   20.1720 O   0  0  0  0  0  0  0  0  0  0  0  0
  -26.8020  -21.9234   19.6814 O   0  0  0  0  0  0  0  0  0  0  0  0
  -30.6634  -23.0435   21.9704 O   0  0  0  0  0  0  0  0  0  0  0  0
  -22.9733  -12.5458   21.1165 O   0  0  0  0  0  0  0  0  0  0  0  0
  -28.3618  -28.4088   21.0441 O   0  0  0  0  0  0  0  0  0  1  0  0
  -30.6098  -27.5090   18.5805 O   0  0  0  0  0  0  0  0  0  0  0  0
  -23.7100   -7.0823   21.2193 F   0  0  0  0  0  0  0  0  0  0  0  0
  -24.2255  -11.2439   19.0237 F   0  0  0  0  0  0  0  0  0  0  0  0
  1  2  1  0  0  0  0
  1  5  2  0  0  0  0
  2  6  2  0  0  0  0
  3  8  2  0  0  0  0
  3 18  1  0  0  0  0
  4  9  1  0  0  0  0
  4 18  2  0  0  0  0
  5 20  1  0  0  0  0
  6 22  1  0  0  0  0
  7 10  2  0  0  0  0
  7 21  1  0  0  0  0
  8 26  1  0  0  0  0
  9 26  2  0  0  0  0
 10 27  1  0  0  0  0
 11 12  2  0  0  0  0
 11 28  1  0  0  0  0
 12 30  1  0  0  0  0
 13 23  1  0  0  0  0
 13 27  2  0  0  0  0
 14 24  2  0  0  0  0
 14 25  1  0  0  0  0
 15 24  1  0  0  0  0
 15 29  2  0  0  0  0
 16 25  2  0  0  0  0
 16 29  1  0  0  0  0
 17 30  2  0  0  0  0
 17 31  1  0  0  0  0
 18 32  1  0  0  0  0
 19 32  1  0  0  0  0
 19 33  2  0  0  0  0
 19 34  1  0  0  0  0
 20 22  2  0  0  0  0
 20 39  1  0  0  0  0
 21 23  2  0  0  0  0
 21 40  1  0  0  0  0
 22 48  1  0  0  0  0
 23 41  1  0  0  0  0
 24 56  1  0  0  0  0
 25 67  1  0  0  0  0
 26 79  1  0  0  0  0
 27 80  1  0  0  0  0
 28 31  2  0  0  0  0
 28 79  1  0  0  0  0
 29 81  1  0  0  0  0
 30 82  1  0  0  0  0
 31 83  1  0  0  0  0
 32 63  2  0  0  0  0
 33 64  1  0  0  0  0
 33 68  1  0  0  0  0
 34 69  1  0  0  0  0
 34 74  2  0  0  0  0
 35 49  1  0  0  0  0
 35 70  1  0  0  0  0
 35 75  2  0  0  0  0
 36 60  1  0  0  0  0
 36 65  1  0  0  0  0
 36 76  2  0  0  0  0
 37 61  1  0  0  0  0
 37 71  1  0  0  0  0
 37 77  2  0  0  0  0
 38 66  1  0  0  0  0
 38 72  1  0  0  0  0
 38 78  2  0  0  0  0
 39 42  1  0  0  0  0
 40 49  1  0  0  0  0
 41 65  1  0  0  0  0
 42 44  1  0  0  0  0
 43 45  1  0  0  0  0
 43 46  1  0  0  0  0
 44 48  1  0  0  0  0
 45 50  1  0  0  0  0
 46 66  1  0  0  0  0
 47 50  1  0  0  0  0
 47 66  1  0  0  0  0
 48 70  1  0  0  0  0
 49 65  1  0  0  0  0
 50 64  1  0  0  0  0
 51 61  1  0  0  0  0
 52 62  1  0  0  0  0
 53 62  1  0  0  0  0
 54 62  1  0  0  0  0
 55 73  1  0  0  0  0
 56 72  1  0  0  0  0
 57 58  1  0  0  0  0
 57 59  1  0  0  0  0
 58 80  1  0  0  0  0
 59 81  1  0  0  0  0
 60 62  1  0  0  0  0
 60 71  1  0  0  0  0
 61 73  1  0  0  0  0
 63 64  1  0  0  0  0
M  CHG  1  73   1
M  ISO  4  38 100  58 101  72 100  80 101
M  END
> <Batch ID>
0100

> <Smiles>
CNC(C)C(=O)NC(C(=O)N1Cc2cc([101O:1][101CH2:1]CCOc3cc(N)cc(C[100NH:0][100C:0](=O)N4CCCC(n5nc(-c6ccc(Oc7ccc(F)cc7F)cc6)c(C(N)=O)c5N)C4)c3)ccc2CC1C(=O)NC1CCCc2ccccc21)C(C)(C)C

> <Shape>
0.261

> <Color>
0.053

> <Negative vol penalty>
0.000

$$$$

  -OEChem-04052300573D

 84 92  0     1  0  0  0  0  0999 V2000
  -28.1827  -22.1247   28.5331 C   0  0  0  0  0  0  0  0  0  0  0  0
  -28.3262  -23.0023   27.4644 C   0  0  0  0  0  0  0  0  0  0  0  0
  -28.4168  -12.6357   21.5904 C   0  0  0  0  0  0  0  0  0  0  0  0
  -26.7470  -13.4448   20.0431 C   0  0  0  0  0  0  0  0  0  0  0  0
  -26.9139  -21.6815   28.9005 C   0  0  0  0  0  0  0  0  0  0  0  0
  -27.2001  -23.4463   26.7703 C   0  0  0  0  0  0  0  0  0  0  0  0
  -27.8991  -26.9404   23.3783 C   0  0  0  0  0  0  0  0  0  0  0  0
  -27.8038  -11.3828   21.5968 C   0  0  0  0  0  0  0  0  0  0  0  0
  -26.1340  -12.1919   20.0495 C   0  0  0  0  0  0  0  0  0  0  0  0
  -28.5276  -26.6921   22.1589 C   0  0  0  0  0  0  0  0  0  0  0  0
  -24.0622  -10.4423   22.0688 C   0  0  0  0  0  0  0  0  0  0  0  0
  -22.6728  -10.4012   22.1849 C   0  0  0  0  0  0  0  0  0  0  0  0
  -27.1132  -21.6973   20.5982 C   0  0  0  0  0  0  0  0  0  0  0  0
  -25.0264  -20.9017   19.6768 C   0  0  0  0  0  0  0  0  0  0  0  0
  -26.3819  -26.7074   21.0567 C   0  0  0  0  0  0  0  0  0  0  0  0
  -26.6255  -22.0227   18.2544 C   0  0  0  0  0  0  0  0  0  0  0  0
  -22.5282   -9.2702   20.0548 C   0  0  0  0  0  0  0  0  0  0  0  0
  -27.8884  -13.6668   20.8136 C   0  0  0  0  0  0  0  0  0  0  0  0
  -25.8845  -21.0585   20.7652 C   0  0  0  0  0  0  0  0  0  0  0  0
  -29.5381  -15.4062   19.9414 C   0  0  0  0  0  0  0  0  0  0  0  0
  -25.7734  -22.1109   28.2022 C   0  0  0  0  0  0  0  0  0  0  0  0
  -26.5040  -27.0635   23.4480 C   0  0  0  0  0  0  0  0  0  0  0  0
  -25.9090  -23.0291   27.1411 C   0  0  0  0  0  0  0  0  0  0  0  0
  -25.7383  -26.9598   22.2779 C   0  0  0  0  0  0  0  0  0  0  0  0
  -26.6624  -11.1609   20.8263 C   0  0  0  0  0  0  0  0  0  0  0  0
  -27.7688  -26.5727   20.9983 C   0  0  0  0  0  0  0  0  0  0  0  0
  -24.6846   -9.8975   20.9456 C   0  0  0  0  0  0  0  0  0  0  0  0
  -27.4837  -22.1794   19.3428 C   0  0  0  0  0  0  0  0  0  0  0  0
  -21.9058   -9.8151   21.1780 C   0  0  0  0  0  0  0  0  0  0  0  0
  -25.3968  -21.3838   18.4214 C   0  0  0  0  0  0  0  0  0  0  0  0
  -23.9177   -9.3114   19.9387 C   0  0  0  0  0  0  0  0  0  0  0  0
  -28.5208  -14.9614   20.8069 C   0  0  0  0  0  0  0  0  0  0  0  0
  -29.7904  -16.6955   20.3420 C   0  0  0  0  0  0  0  0  0  0  0  0
  -30.8579  -25.0700   17.7672 C   0  0  0  0  0  0  0  0  0  0  0  0
  -25.4980  -20.5558   22.0741 C   0  0  0  0  0  0  0  0  0  0  0  0
  -30.1960  -14.7156   18.8709 C   0  0  0  0  0  0  0  0  0  0  0  0
  -29.7936  -24.8335   18.5505 C   0  0  0  0  0  0  0  0  0  0  0  0
  -26.3852  -20.7057   23.2504 C   0  0  0  0  0  0  0  0  0  0  0  0
  -24.1821  -25.4678   24.9199 C   0  0  0  0  0  0  0  0  0  0  0  0
  -22.3305  -27.8652   23.7596 C   0  0  0  0  0  0  0  0  0  0  0  0
  -21.8852  -30.3085   21.4188 C   0  0  0  0  0  0  0  0  0  0  0  0
  -24.4236  -21.6058   28.6473 C   0  0  0  0  0  0  0  0  0  0  0  0
  -25.8435  -27.3579   24.7669 C   0  0  0  0  0  0  0  0  0  0  0  0
  -24.2392  -27.1040   22.2958 C   0  0  0  0  0  0  0  0  0  0  0  0
  -23.3441  -21.7778   27.5836 C   0  0  0  0  0  0  0  0  0  0  0  0
  -29.6429  -19.5321   24.1812 C   0  0  0  0  0  0  0  0  0  0  0  0
  -23.3665  -23.2008   27.0457 C   0  0  0  0  0  0  0  0  0  0  0  0
  -29.7999  -18.2461   23.3706 C   0  0  0  0  0  0  0  0  0  0  0  0
  -28.1965  -19.7451   24.6160 C   0  0  0  0  0  0  0  0  0  0  0  0
  -27.3728  -18.4502   22.6683 C   0  0  0  0  0  0  0  0  0  0  0  0
  -24.7012  -23.5015   26.3521 C   0  0  1  0  0  0  0  0  0  0  0  0
  -24.3729  -26.9536   24.8021 C   0  0  1  0  0  0  0  0  0  0  0  0
  -28.8156  -18.2153   22.1878 C   0  0  2  0  0  0  0  0  0  0  0  0
  -20.2567  -32.0792   20.7049 C   0  0  0  0  0  0  0  0  0  0  0  0
  -20.5382  -25.7202   22.5363 C   0  0  0  0  0  0  0  0  0  0  0  0
  -19.5245  -27.4923   21.0871 C   0  0  0  0  0  0  0  0  0  0  0  0
  -19.3121  -27.6402   23.5682 C   0  0  0  0  0  0  0  0  0  0  0  0
  -23.8586  -32.4680   21.8674 C   0  0  0  0  0  0  0  0  0  0  0  0
  -29.5959  -25.5840   19.8407 C   0  0  0  0  0  0  0  0  0  1  0  0
  -28.7631  -23.8056   18.1705 C   0  0  0  0  0  0  0  0  0  0  0  0
  -21.5518  -28.0942   22.4867 C   0  0  1  0  0  0  0  0  0  0  0  0
  -21.4827  -31.7664   21.5486 C   0  0  2  0  0  0  0  0  0  0  0  0
  -20.2597  -27.2320   22.4192 C   0  0  0  0  0  0  0  0  0  0  0  0
  -28.1523  -15.8925   21.6908 N   0  0  0  0  0  0  0  0  0  0  0  0
  -24.3639  -19.9506   22.3030 N   0  0  0  0  0  0  0  0  0  0  0  0
  -28.9422  -16.9351   21.3828 N   0  0  0  0  0  0  0  0  0  0  0  0
  -27.2858  -19.6739   23.4751 N   0  0  0  0  0  0  0  0  0  0  0  0
  -23.6394  -27.3851   23.6105 N   0  0  0  0  0  0  0  0  0  0  0  0
  -30.6529  -17.6362   19.9020 N   0  0  0  0  0  0  0  0  0  0  0  0
  -29.8149  -13.3958   18.5932 N   0  0  0  0  0  0  0  0  0  0  0  0
  -24.7652  -24.9130   26.0432 N   0  0  0  0  0  0  0  0  0  0  0  0
  -21.3159  -29.5316   22.4056 N   0  0  0  0  0  0  0  0  0  0  0  0
  -22.5962  -32.6526   21.1062 N   0  3  0  0  0  0  0  0  0  0  0  0
  -31.1067  -15.2475   18.1917 O   0  0  0  0  0  0  0  0  0  0  0  0
  -26.2278  -21.7295   23.9026 O   0  0  0  0  0  0  0  0  0  0  0  0
  -23.5513  -24.8694   24.0564 O   0  0  0  0  0  0  0  0  0  0  0  0
  -21.7996  -28.1103   24.8457 O   0  0  0  0  0  0  0  0  0  0  0  0
  -22.6273  -29.8990   20.5288 O   0  0  0  0  0  0  0  0  0  0  0  0
  -26.0642   -9.9384   20.8322 O   0  0  0  0  0  0  0  0  0  0  0  0
  -28.3797  -26.3297   19.8068 O   0  0  0  0  0  0  0  0  0  1  0  0
  -28.6913  -22.8065   19.1789 O   0  0  0  0  0  0  0  0  0  0  0  0
  -20.5717   -9.7744   21.2903 F   0  0  0  0  0  0  0  0  0  0  0  0
  -24.5727  -21.2337   17.3762 F   0  0  0  0  0  0  0  0  0  0  0  0
  -24.5100   -8.7852   18.8580 F   0  0  0  0  0  0  0  0  0  0  0  0
  1  2  1  0  0  0  0
  1  5  2  0  0  0  0
  2  6  2  0  0  0  0
  3  8  2  0  0  0  0
  3 18  1  0  0  0  0
  4  9  1  0  0  0  0
  4 18  2  0  0  0  0
  5 21  1  0  0  0  0
  6 23  1  0  0  0  0
  7 10  2  0  0  0  0
  7 22  1  0  0  0  0
  8 25  1  0  0  0  0
  9 25  2  0  0  0  0
 10 26  1  0  0  0  0
 11 12  2  0  0  0  0
 11 27  1  0  0  0  0
 12 29  1  0  0  0  0
 13 19  1  0  0  0  0
 13 28  2  0  0  0  0
 14 19  2  0  0  0  0
 14 30  1  0  0  0  0
 15 24  1  0  0  0  0
 15 26  2  0  0  0  0
 16 28  1  0  0  0  0
 16 30  2  0  0  0  0
 17 29  2  0  0  0  0
 17 31  1  0  0  0  0
 18 32  1  0  0  0  0
 19 35  1  0  0  0  0
 20 32  1  0  0  0  0
 20 33  2  0  0  0  0
 20 36  1  0  0  0  0
 21 23  2  0  0  0  0
 21 42  1  0  0  0  0
 22 24  2  0  0  0  0
 22 43  1  0  0  0  0
 23 51  1  0  0  0  0
 24 44  1  0  0  0  0
 25 79  1  0  0  0  0
 26 80  1  0  0  0  0
 27 31  2  0  0  0  0
 27 79  1  0  0  0  0
 28 81  1  0  0  0  0
 29 82  1  0  0  0  0
 30 83  1  0  0  0  0
 31 84  1  0  0  0  0
 32 64  2  0  0  0  0
 33 66  1  0  0  0  0
 33 69  1  0  0  0  0
 34 37  2  0  0  0  0
 35 38  1  0  0  0  0
 35 65  2  0  0  0  0
 36 70  1  0  0  0  0
 36 74  2  0  0  0  0
 37 59  1  0  0  0  0
 37 60  1  0  0  0  0
 38 67  1  0  0  0  0
 38 75  2  0  0  0  0
 39 52  1  0  0  0  0
 39 71  1  0  0  0  0
 39 76  2  0  0  0  0
 40 61  1  0  0  0  0
 40 68  1  0  0  0  0
 40 77  2  0  0  0  0
 41 62  1  0  0  0  0
 41 72  1  0  0  0  0
 41 78  2  0  0  0  0
 42 45  1  0  0  0  0
 43 52  1  0  0  0  0
 44 68  1  0  0  0  0
 45 47  1  0  0  0  0
 46 48  1  0  0  0  0
 46 49  1  0  0  0  0
 47 51  1  0  0  0  0
 48 53  1  0  0  0  0
 49 67  1  0  0  0  0
 50 53  1  0  0  0  0
 50 67  1  0  0  0  0
 51 71  1  0  0  0  0
 52 68  1  0  0  0  0
 53 66  1  0  0  0  0
 54 62  1  0  0  0  0
 55 63  1  0  0  0  0
 56 63  1  0  0  0  0
 57 63  1  0  0  0  0
 58 73  1  0  0  0  0
 59 80  1  0  0  0  0
 60 81  1  0  0  0  0
 61 63  1  0  0  0  0
 61 72  1  0  0  0  0
 62 73  1  0  0  0  0
 64 66  1  0  0  0  0
M  CHG  1  73   1
M  ISO  4  35 100  38 100  59 101  80 101
M  END
> <Batch ID>
0100

> <Smiles>
C=C(COc1cc(F)cc([100C:0](=N)[100C:0](=O)N2CCCC(n3nc(-c4ccc(Oc5ccc(F)cc5F)cc4)c(C(N)=O)c3N)C2)c1)[101CH2:1][101O:1]c1ccc2c(c1)CN(C(=O)C(NC(=O)C(C)NC)C(C)(C)C)C(C(=O)NC1CCCc3ccccc31)C2

> <Shape>
0.199

> <Color>
0.080

> <Negative vol penalty>
0.000

$$$$

  -OEChem-04052300573D

 83 91  0     1  0  0  0  0  0999 V2000
  -19.4345  -27.4162   18.9676 C   0  0  0  0  0  0  0  0  0  0  0  0
  -20.1073  -26.4471   19.7048 C   0  0  0  0  0  0  0  0  0  0  0  0
  -23.0721   -9.8715   19.9408 C   0  0  0  0  0  0  0  0  0  0  0  0
  -23.8322   -9.8761   22.2342 C   0  0  0  0  0  0  0  0  0  0  0  0
  -18.4402  -27.0390   18.0658 C   0  0  0  0  0  0  0  0  0  0  0  0
  -19.7856  -25.1002   19.5414 C   0  0  0  0  0  0  0  0  0  0  0  0
  -23.8878  -22.1521   19.1864 C   0  0  0  0  0  0  0  0  0  0  0  0
  -22.3270   -8.7190   20.1900 C   0  0  0  0  0  0  0  0  0  0  0  0
  -23.0870   -8.7235   22.4834 C   0  0  0  0  0  0  0  0  0  0  0  0
  -24.5534  -21.8419   20.3715 C   0  0  0  0  0  0  0  0  0  0  0  0
  -19.9389   -5.9811   20.3167 C   0  0  0  0  0  0  0  0  0  0  0  0
  -18.6331   -5.9349   19.8285 C   0  0  0  0  0  0  0  0  0  0  0  0
  -23.4649  -19.6895   20.4125 C   0  0  0  0  0  0  0  0  0  0  0  0
  -29.8064  -17.7426   22.7538 C   0  0  0  0  0  0  0  0  0  0  0  0
  -31.5861  -19.3745   22.8356 C   0  0  0  0  0  0  0  0  0  0  0  0
  -31.8705  -17.3395   21.5647 C   0  0  0  0  0  0  0  0  0  0  0  0
  -18.0702   -7.8775   21.1500 C   0  0  0  0  0  0  0  0  0  0  0  0
  -23.8248  -10.4500   20.9629 C   0  0  0  0  0  0  0  0  0  0  0  0
  -24.1693  -12.9749   20.8445 C   0  0  0  0  0  0  0  0  0  0  0  0
  -18.1128  -25.6860   17.8843 C   0  0  0  0  0  0  0  0  0  0  0  0
  -22.9959  -21.2361   18.6103 C   0  0  0  0  0  0  0  0  0  0  0  0
  -18.7851  -24.7046   18.6374 C   0  0  0  0  0  0  0  0  0  0  0  0
  -22.7912  -19.9895   19.2187 C   0  0  0  0  0  0  0  0  0  0  0  0
  -30.3048  -18.9649   23.2047 C   0  0  0  0  0  0  0  0  0  0  0  0
  -30.5892  -16.9299   21.9338 C   0  0  0  0  0  0  0  0  0  0  0  0
  -22.3344   -8.1450   21.4613 C   0  0  0  0  0  0  0  0  0  0  0  0
  -24.3399  -20.6116   20.9863 C   0  0  0  0  0  0  0  0  0  0  0  0
  -20.3103   -6.9755   21.2217 C   0  0  0  0  0  0  0  0  0  0  0  0
  -17.6988   -6.8830   20.2451 C   0  0  0  0  0  0  0  0  0  0  0  0
  -32.3689  -18.5618   22.0155 C   0  0  0  0  0  0  0  0  0  0  0  0
  -19.3759   -7.9237   21.6383 C   0  0  0  0  0  0  0  0  0  0  0  0
  -24.5951  -11.6402   20.7059 C   0  0  0  0  0  0  0  0  0  0  0  0
  -25.2623  -13.7234   20.4817 C   0  0  0  0  0  0  0  0  0  0  0  0
  -22.8994  -13.4918   21.2639 C   0  0  0  0  0  0  0  0  0  0  0  0
  -19.8872  -21.2459   17.9474 C   0  0  0  0  0  0  0  0  0  0  0  0
  -20.5780  -18.4124   16.5274 C   0  0  0  0  0  0  0  0  0  0  0  0
  -27.1600  -19.9736   23.1558 C   0  0  0  0  0  0  0  0  0  0  0  0
  -22.6437  -15.7039   16.3186 C   0  0  0  0  0  0  0  0  0  0  0  0
  -30.7296  -14.7629   20.6568 C   0  0  0  0  0  0  0  0  0  0  0  0
  -16.9982  -25.3303   16.9326 C   0  0  0  0  0  0  0  0  0  0  0  0
  -22.3060  -21.5752   17.3174 C   0  0  0  0  0  0  0  0  0  0  0  0
  -21.8593  -18.9631   18.6298 C   0  0  0  0  0  0  0  0  0  0  0  0
  -16.9768  -23.8541   16.5442 C   0  0  0  0  0  0  0  0  0  0  0  0
  -29.6124  -12.3519   18.2869 C   0  0  0  0  0  0  0  0  0  0  0  0
  -17.1365  -22.9746   17.7802 C   0  0  0  0  0  0  0  0  0  0  0  0
  -28.1725  -12.0616   18.7164 C   0  0  0  0  0  0  0  0  0  0  0  0
  -30.5279  -12.5789   19.4887 C   0  0  0  0  0  0  0  0  0  0  0  0
  -28.6218  -13.3045   20.8706 C   0  0  0  0  0  0  0  0  0  0  0  0
  -18.4817  -23.2315   18.4700 C   0  0  1  0  0  0  0  0  0  0  0  0
  -21.0287  -20.7717   17.0931 C   0  0  1  0  0  0  0  0  0  0  0  0
  -27.6487  -13.1331   19.6927 C   0  0  2  0  0  0  0  0  0  0  0  0
  -22.9294  -13.5344   15.0903 C   0  0  0  0  0  0  0  0  0  0  0  0
  -18.3551  -17.1706   18.2085 C   0  0  0  0  0  0  0  0  0  0  0  0
  -19.3016  -14.9165   17.6692 C   0  0  0  0  0  0  0  0  0  0  0  0
  -18.4390  -16.3755   15.8389 C   0  0  0  0  0  0  0  0  0  0  0  0
  -25.2538  -16.5444   15.2050 C   0  0  0  0  0  0  0  0  0  0  0  0
  -29.4624  -19.8403   24.0868 C   0  0  0  0  0  0  0  0  0  0  0  0
  -26.2741  -20.8919   22.3413 C   0  0  0  0  0  0  0  0  0  1  0  0
  -20.6160  -16.9721   16.9778 C   0  0  1  0  0  0  0  0  0  0  0  0
  -23.2819  -15.0133   15.1269 C   0  0  2  0  0  0  0  0  0  0  0  0
  -19.1941  -16.3786   17.1860 C   0  0  0  0  0  0  0  0  0  0  0  0
  -25.8598  -11.5433   20.2875 N   0  0  0  0  0  0  0  0  0  0  0  0
  -26.2381  -12.8265   20.1600 N   0  0  0  0  0  0  0  0  0  0  0  0
  -21.2034  -19.3441   17.3680 N   0  0  0  0  0  0  0  0  0  0  0  0
  -29.9701  -13.6098   20.3668 N   0  0  0  0  0  0  0  0  0  0  0  0
  -25.4741  -15.0547   20.4096 N   0  0  0  0  0  0  0  0  0  0  0  0
  -21.8865  -12.5835   21.6006 N   0  0  0  0  0  0  0  0  0  0  0  0
  -30.0833  -15.6881   21.4759 N   0  0  0  0  0  0  0  0  0  0  0  0
  -19.5518  -22.5722   17.7525 N   0  0  0  0  0  0  0  0  0  0  0  0
  -28.4222  -20.5143   23.3447 N   0  0  0  0  0  0  0  0  0  0  0  0
  -21.4234  -16.2581   15.9946 N   0  0  0  0  0  0  0  0  0  0  0  0
  -24.7655  -15.1415   15.1872 N   0  3  0  0  0  0  0  0  0  0  0  0
  -22.6645  -14.7226   21.3221 O   0  0  0  0  0  0  0  0  0  0  0  0
  -19.3495  -20.4659   18.7246 O   0  0  0  0  0  0  0  0  0  0  0  0
  -20.0204  -18.6994   15.4651 O   0  0  0  0  0  0  0  0  0  0  0  0
  -26.7775  -18.8873   23.5818 O   0  0  0  0  0  0  0  0  0  0  0  0
  -23.1730  -15.7443   17.4271 O   0  0  0  0  0  0  0  0  0  0  0  0
  -31.8589  -14.9307   20.1892 O   0  0  0  0  0  0  0  0  0  0  0  0
  -21.6073   -7.0205   21.7049 O   0  0  0  0  0  0  0  0  0  0  0  0
  -24.9878  -20.3066   22.1434 O   0  0  0  0  0  0  0  0  0  1  0  0
  -16.4453   -6.8394   19.7749 F   0  0  0  0  0  0  0  0  0  0  0  0
  -33.5993  -18.9552   21.6611 F   0  0  0  0  0  0  0  0  0  0  0  0
  -19.7272   -8.8820   22.5066 F   0  0  0  0  0  0  0  0  0  0  0  0
  1  2  1  0  0  0  0
  1  5  2  0  0  0  0
  2  6  2  0  0  0  0
  3  8  2  0  0  0  0
  3 18  1  0  0  0  0
  4  9  1  0  0  0  0
  4 18  2  0  0  0  0
  5 20  1  0  0  0  0
  6 22  1  0  0  0  0
  7 10  2  0  0  0  0
  7 21  1  0  0  0  0
  8 26  1  0  0  0  0
  9 26  2  0  0  0  0
 10 27  1  0  0  0  0
 11 12  2  0  0  0  0
 11 28  1  0  0  0  0
 12 29  1  0  0  0  0
 13 23  1  0  0  0  0
 13 27  2  0  0  0  0
 14 24  2  0  0  0  0
 14 25  1  0  0  0  0
 15 24  1  0  0  0  0
 15 30  2  0  0  0  0
 16 25  2  0  0  0  0
 16 30  1  0  0  0  0
 17 29  2  0  0  0  0
 17 31  1  0  0  0  0
 18 32  1  0  0  0  0
 19 32  1  0  0  0  0
 19 33  2  0  0  0  0
 19 34  1  0  0  0  0
 20 22  2  0  0  0  0
 20 40  1  0  0  0  0
 21 23  2  0  0  0  0
 21 41  1  0  0  0  0
 22 49  1  0  0  0  0
 23 42  1  0  0  0  0
 24 57  1  0  0  0  0
 25 68  1  0  0  0  0
 26 79  1  0  0  0  0
 27 80  1  0  0  0  0
 28 31  2  0  0  0  0
 28 79  1  0  0  0  0
 29 81  1  0  0  0  0
 30 82  1  0  0  0  0
 31 83  1  0  0  0  0
 32 62  2  0  0  0  0
 33 63  1  0  0  0  0
 33 66  1  0  0  0  0
 34 67  1  0  0  0  0
 34 73  2  0  0  0  0
 35 50  1  0  0  0  0
 35 69  1  0  0  0  0
 35 74  2  0  0  0  0
 36 59  1  0  0  0  0
 36 64  1  0  0  0  0
 36 75  2  0  0  0  0
 37 58  1  0  0  0  0
 37 70  1  0  0  0  0
 37 76  2  0  0  0  0
 38 60  1  0  0  0  0
 38 71  1  0  0  0  0
 38 77  2  0  0  0  0
 39 65  1  0  0  0  0
 39 68  1  0  0  0  0
 39 78  2  0  0  0  0
 40 43  1  0  0  0  0
 41 50  1  0  0  0  0
 42 64  1  0  0  0  0
 43 45  1  0  0  0  0
 44 46  1  0  0  0  0
 44 47  1  0  0  0  0
 45 49  1  0  0  0  0
 46 51  1  0  0  0  0
 47 65  1  0  0  0  0
 48 51  1  0  0  0  0
 48 65  1  0  0  0  0
 49 69  1  0  0  0  0
 50 64  1  0  0  0  0
 51 63  1  0  0  0  0
 52 60  1  0  0  0  0
 53 61  1  0  0  0  0
 54 61  1  0  0  0  0
 55 61  1  0  0  0  0
 56 72  1  0  0  0  0
 57 70  1  0  0  0  0
 58 80  1  0  0  0  0
 59 61  1  0  0  0  0
 59 71  1  0  0  0  0
 60 72  1  0  0  0  0
 62 63  1  0  0  0  0
M  CHG  1  72   1
M  ISO  4  39 100  58 101  68 100  80 101
M  END
> <Batch ID>
0100

> <Smiles>
CNC(C)C(=O)NC(C(=O)N1Cc2cc([101O:1][101CH2:1]C(=O)NCc3cc(F)cc([100NH:0][100C:0](=O)N4CCCC(n5nc(-c6ccc(Oc7ccc(F)cc7F)cc6)c(C(N)=O)c5N)C4)c3)ccc2CC1C(=O)NC1CCCc2ccccc21)C(C)(C)C

> <Shape>
0.155

> <Color>
0.191

> <Negative vol penalty>
0.000

$$$$

  -OEChem-04052300573D

 85 94  0     1  0  0  0  0  0999 V2000
  -35.1574  -23.0018   25.1633 C   0  0  0  0  0  0  0  0  0  0  0  0
  -33.8050  -23.3172   25.2463 C   0  0  0  0  0  0  0  0  0  0  0  0
  -31.1065  -28.6832   19.5858 C   0  0  0  0  0  0  0  0  0  0  0  0
  -30.8120  -27.7570   21.7977 C   0  0  0  0  0  0  0  0  0  0  0  0
  -35.6703  -22.4387   23.9955 C   0  0  0  0  0  0  0  0  0  0  0  0
  -32.9649  -23.0707   24.1611 C   0  0  0  0  0  0  0  0  0  0  0  0
  -27.0910  -21.3502   24.3690 C   0  0  0  0  0  0  0  0  0  0  0  0
  -18.7174  -28.5639   22.6213 C   0  0  0  0  0  0  0  0  0  0  0  0
  -17.9406  -27.4139   22.4812 C   0  0  0  0  0  0  0  0  0  0  0  0
  -32.3713  -29.1463   19.9481 C   0  0  0  0  0  0  0  0  0  0  0  0
  -32.0769  -28.2200   22.1600 C   0  0  0  0  0  0  0  0  0  0  0  0
  -25.8996  -22.0639   24.2465 C   0  0  0  0  0  0  0  0  0  0  0  0
  -33.6709  -31.7334   21.6923 C   0  0  0  0  0  0  0  0  0  0  0  0
  -34.0115  -33.0366   21.3299 C   0  0  0  0  0  0  0  0  0  0  0  0
  -25.7985  -21.4818   21.9077 C   0  0  0  0  0  0  0  0  0  0  0  0
  -20.5809  -27.2152   23.3601 C   0  0  0  0  0  0  0  0  0  0  0  0
  -35.8718  -32.1918   20.0404 C   0  0  0  0  0  0  0  0  0  0  0  0
  -30.3267  -27.9886   20.5106 C   0  0  0  0  0  0  0  0  0  0  0  0
  -28.7012  -26.2613   19.5718 C   0  0  0  0  0  0  0  0  0  0  0  0
  -34.8341  -22.1762   22.8988 C   0  0  0  0  0  0  0  0  0  0  0  0
  -27.6517  -20.7049   23.2574 C   0  0  0  0  0  0  0  0  0  0  0  0
  -33.4673  -22.5048   22.9770 C   0  0  0  0  0  0  0  0  0  0  0  0
  -26.9957  -20.7584   22.0193 C   0  0  0  0  0  0  0  0  0  0  0  0
  -20.0376  -28.4646   23.0607 C   0  0  0  0  0  0  0  0  0  0  0  0
  -19.8040  -26.0652   23.2200 C   0  0  0  0  0  0  0  0  0  0  0  0
  -18.4839  -26.1645   22.7805 C   0  0  0  0  0  0  0  0  0  0  0  0
  -32.8566  -28.9147   21.2352 C   0  0  0  0  0  0  0  0  0  0  0  0
  -25.2547  -22.1323   23.0150 C   0  0  0  0  0  0  0  0  0  0  0  0
  -34.4308  -30.6594   21.2289 C   0  0  0  0  0  0  0  0  0  0  0  0
  -35.1119  -33.2658   20.5039 C   0  0  0  0  0  0  0  0  0  0  0  0
  -35.5312  -30.8886   20.4029 C   0  0  0  0  0  0  0  0  0  0  0  0
  -29.0198  -27.5105   20.1371 C   0  0  0  0  0  0  0  0  0  0  0  0
  -27.3382  -26.2970   19.4062 C   0  0  0  0  0  0  0  0  0  0  0  0
  -21.8373  -23.0518   23.6161 C   0  0  0  0  0  0  0  0  0  0  0  0
  -23.0262  -22.4409   23.6549 C   0  0  0  0  0  0  0  0  0  1  0  0
  -29.5604  -25.1664   19.2272 C   0  0  0  0  0  0  0  0  0  0  0  0
  -30.3783  -20.9752   21.6461 C   0  0  0  0  0  0  0  0  0  0  0  0
  -29.2615  -18.3609   20.0839 C   0  0  0  0  0  0  0  0  0  0  0  0
  -26.5773  -16.4757   19.1416 C   0  0  0  0  0  0  0  0  0  0  0  0
  -23.1112  -29.3064   22.2225 C   0  0  0  0  0  0  0  0  0  0  0  0
  -35.4433  -21.6102   21.6406 C   0  0  0  0  0  0  0  0  0  0  0  0
  -28.9234  -19.9168   23.4122 C   0  0  0  0  0  0  0  0  0  0  0  0
  -27.5456  -20.0662   20.7999 C   0  0  0  0  0  0  0  0  0  0  0  0
  -20.6437  -22.6641   24.4304 C   0  0  0  0  0  0  0  0  0  0  0  0
  -21.5360  -24.2985   22.8398 C   0  0  0  0  0  0  0  0  0  0  0  0
  -34.4141  -21.0344   20.6713 C   0  0  0  0  0  0  0  0  0  0  0  0
  -23.7356  -29.3580   18.6581 C   0  0  0  0  0  0  0  0  0  0  0  0
  -33.2450  -21.9990   20.4990 C   0  0  0  0  0  0  0  0  0  0  0  0
  -25.1440  -28.7649   18.5875 C   0  0  0  0  0  0  0  0  0  0  0  0
  -19.9218  -23.9939   24.6291 C   0  0  0  0  0  0  0  0  0  0  0  0
  -23.5743  -30.2549   19.8819 C   0  0  0  0  0  0  0  0  0  0  0  0
  -25.3042  -28.9999   21.1092 C   0  0  0  0  0  0  0  0  0  0  0  0
  -32.5192  -22.2295   21.8300 C   0  0  1  0  0  0  0  0  0  0  0  0
  -29.6729  -19.7275   22.0970 C   0  0  1  0  0  0  0  0  0  0  0  0
  -25.5241  -28.0652   19.9058 C   0  0  2  0  0  0  0  0  0  0  0  0
  -25.9759  -14.4177   17.8377 C   0  0  0  0  0  0  0  0  0  0  0  0
  -29.6915  -19.8890   17.4781 C   0  0  0  0  0  0  0  0  0  0  0  0
  -28.2255  -18.2125   16.3343 C   0  0  0  0  0  0  0  0  0  0  0  0
  -30.3601  -17.4805   17.3975 C   0  0  0  0  0  0  0  0  0  0  0  0
  -25.4144  -15.1639   21.5261 C   0  0  0  0  0  0  0  0  0  0  0  0
  -20.8682  -29.6942   23.2102 C   0  0  0  0  0  0  0  0  0  0  0  0
  -28.4047  -18.1302   18.8626 C   0  0  1  0  0  0  0  0  0  0  0  0
  -26.3238  -14.9804   19.2070 C   0  0  2  0  0  0  0  0  0  0  0  0
  -29.1608  -18.4428   17.5405 C   0  0  0  0  0  0  0  0  0  0  0  0
  -27.9458  -28.2835   20.3184 N   0  0  0  0  0  0  0  0  0  0  0  0
  -26.9389  -27.5180   19.8642 N   0  0  0  0  0  0  0  0  0  0  0  0
  -20.3614  -24.8378   23.5205 N   0  0  3  0  0  0  0  0  0  0  0  0
  -28.7948  -19.3135   21.0007 N   0  0  0  0  0  0  0  0  0  0  0  0
  -23.9340  -29.5233   21.1048 N   0  0  0  0  0  0  0  0  0  0  0  0
  -17.6795  -25.0130   22.6300 N   0  0  0  0  0  0  0  0  0  0  0  0
  -26.4542  -25.4027   18.9148 N   0  0  0  0  0  0  0  0  0  0  0  0
  -30.9357  -25.2963   19.4639 N   0  0  0  0  0  0  0  0  0  0  0  0
  -31.6624  -21.1051   22.1398 N   0  0  0  0  0  0  0  0  0  0  0  0
  -27.9144  -16.7596   18.9608 N   0  0  0  0  0  0  0  0  0  0  0  0
  -21.8310  -29.8405   22.1413 N   0  0  0  0  0  0  0  0  0  0  0  0
  -25.1965  -14.6863   20.1363 N   0  3  0  0  0  0  0  0  0  0  0  0
  -29.1236  -24.1108   18.7092 O   0  0  0  0  0  0  0  0  0  0  0  0
  -29.8009  -21.7610   20.9040 O   0  0  0  0  0  0  0  0  0  0  0  0
  -30.3028  -17.7143   20.2229 O   0  0  0  0  0  0  0  0  0  0  0  0
  -25.6785  -17.3085   19.2373 O   0  0  0  0  0  0  0  0  0  0  0  0
  -23.4878  -28.6781   23.2178 O   0  0  0  0  0  0  0  0  0  0  0  0
  -34.0909  -29.3662   21.5890 O   0  0  0  0  0  0  0  0  0  0  0  0
  -24.0920  -22.8288   22.8925 O   0  0  0  0  0  0  0  0  0  1  0  0
  -35.4379  -34.5171   20.1547 F   0  0  0  0  0  0  0  0  0  0  0  0
  -36.2643  -29.8607   19.9536 F   0  0  0  0  0  0  0  0  0  0  0  0
  1  2  1  0  0  0  0
  1  5  2  0  0  0  0
  2  6  2  0  0  0  0
  3 10  2  0  0  0  0
  3 18  1  0  0  0  0
  4 11  1  0  0  0  0
  4 18  2  0  0  0  0
  5 20  1  0  0  0  0
  6 22  1  0  0  0  0
  7 12  2  0  0  0  0
  7 21  1  0  0  0  0
  8  9  2  0  0  0  0
  8 24  1  0  0  0  0
  9 26  1  0  0  0  0
 10 27  1  0  0  0  0
 11 27  2  0  0  0  0
 12 28  1  0  0  0  0
 13 14  2  0  0  0  0
 13 29  1  0  0  0  0
 14 30  1  0  0  0  0
 15 23  1  0  0  0  0
 15 28  2  0  0  0  0
 16 24  2  0  0  0  0
 16 25  1  0  0  0  0
 17 30  2  0  0  0  0
 17 31  1  0  0  0  0
 18 32  1  0  0  0  0
 19 32  1  0  0  0  0
 19 33  2  0  0  0  0
 19 36  1  0  0  0  0
 20 22  2  0  0  0  0
 20 41  1  0  0  0  0
 21 23  2  0  0  0  0
 21 42  1  0  0  0  0
 22 53  1  0  0  0  0
 23 43  1  0  0  0  0
 24 61  1  0  0  0  0
 25 26  2  0  0  0  0
 25 67  1  0  0  0  0
 26 70  1  0  0  0  0
 27 82  1  0  0  0  0
 28 83  1  0  0  0  0
 29 31  2  0  0  0  0
 29 82  1  0  0  0  0
 30 84  1  0  0  0  0
 31 85  1  0  0  0  0
 32 65  2  0  0  0  0
 33 66  1  0  0  0  0
 33 71  1  0  0  0  0
 34 35  2  0  0  0  0
 34 44  1  0  0  0  0
 34 45  1  0  0  0  0
 35 83  1  0  0  0  0
 36 72  1  0  0  0  0
 36 77  2  0  0  0  0
 37 54  1  0  0  0  0
 37 73  1  0  0  0  0
 37 78  2  0  0  0  0
 38 62  1  0  0  0  0
 38 68  1  0  0  0  0
 38 79  2  0  0  0  0
 39 63  1  0  0  0  0
 39 74  1  0  0  0  0
 39 80  2  0  0  0  0
 40 69  1  0  0  0  0
 40 75  1  0  0  0  0
 40 81  2  0  0  0  0
 41 46  1  0  0  0  0
 42 54  1  0  0  0  0
 43 68  1  0  0  0  0
 44 50  1  0  0  0  0
 45 67  1  0  0  0  0
 46 48  1  0  0  0  0
 47 49  1  0  0  0  0
 47 51  1  0  0  0  0
 48 53  1  0  0  0  0
 49 55  1  0  0  0  0
 50 67  1  0  0  0  0
 51 69  1  0  0  0  0
 52 55  1  0  0  0  0
 52 69  1  0  0  0  0
 53 73  1  0  0  0  0
 54 68  1  0  0  0  0
 55 66  1  0  0  0  0
 56 63  1  0  0  0  0
 57 64  1  0  0  0  0
 58 64  1  0  0  0  0
 59 64  1  0  0  0  0
 60 76  1  0  0  0  0
 61 75  1  0  0  0  0
 62 64  1  0  0  0  0
 62 74  1  0  0  0  0
 63 76  1  0  0  0  0
 65 66  1  0  0  0  0
M  CHG  1  76   1
M  ISO  4  35 101  40 100  75 100  83 101
M  END
> <Batch ID>
0100

> <Smiles>
CNC(C)C(=O)NC(C(=O)N1Cc2cc([101O:1][101CH:1]=C3CCN(c4cc(C[100NH:0][100C:0](=O)N5CCCC(n6nc(-c7ccc(Oc8ccc(F)cc8F)cc7)c(C(N)=O)c6N)C5)ccc4N)C3)ccc2CC1C(=O)NC1CCCc2ccccc21)C(C)(C)C

> <Shape>
0.203

> <Color>
0.087

> <Negative vol penalty>
0.000

$$$$

  -OEChem-04052300573D

 88 97  0     1  0  0  0  0  0999 V2000
  -29.0676  -24.9094   16.7689 C   0  0  0  0  0  0  0  0  0  0  0  0
  -27.9208  -25.6448   17.0466 C   0  0  0  0  0  0  0  0  0  0  0  0
  -25.8408  -12.7766   20.0268 C   0  0  0  0  0  0  0  0  0  0  0  0
  -24.0967  -14.2407   20.8341 C   0  0  0  0  0  0  0  0  0  0  0  0
  -30.1127  -24.8809   17.6898 C   0  0  0  0  0  0  0  0  0  0  0  0
  -27.8237  -26.3613   18.2399 C   0  0  0  0  0  0  0  0  0  0  0  0
  -23.9136  -29.2997   18.7703 C   0  0  0  0  0  0  0  0  0  0  0  0
  -25.3250  -11.7361   20.7993 C   0  0  0  0  0  0  0  0  0  0  0  0
  -23.5808  -13.2001   21.6066 C   0  0  0  0  0  0  0  0  0  0  0  0
  -22.6259  -28.8096   18.9835 C   0  0  0  0  0  0  0  0  0  0  0  0
  -22.7689   -9.5300   20.6187 C   0  0  0  0  0  0  0  0  0  0  0  0
  -22.6468   -8.2765   20.0193 C   0  0  0  0  0  0  0  0  0  0  0  0
  -22.7962  -29.3948   21.3176 C   0  0  0  0  0  0  0  0  0  0  0  0
  -24.2188  -23.3667   21.5076 C   0  0  0  0  0  0  0  0  0  0  0  0
  -21.5741  -22.8490   20.7865 C   0  0  0  0  0  0  0  0  0  0  0  0
  -24.1301   -7.3381   21.6795 C   0  0  0  0  0  0  0  0  0  0  0  0
  -25.2267  -14.0289   20.0442 C   0  0  0  0  0  0  0  0  0  0  0  0
  -25.9109  -15.1308   17.8475 C   0  0  0  0  0  0  0  0  0  0  0  0
  -30.0223  -25.5876   18.9003 C   0  0  0  0  0  0  0  0  0  0  0  0
  -24.6577  -29.8319   19.8331 C   0  0  0  0  0  0  0  0  0  0  0  0
  -28.8776  -26.3644   19.1715 C   0  0  0  0  0  0  0  0  0  0  0  0
  -24.0921  -29.8934   21.1147 C   0  0  0  0  0  0  0  0  0  0  0  0
  -23.1947  -24.1909   21.9739 C   0  0  0  0  0  0  0  0  0  0  0  0
  -21.8723  -23.9320   21.6134 C   0  0  0  0  0  0  0  0  0  0  0  0
  -23.9206  -22.2837   20.6806 C   0  0  0  0  0  0  0  0  0  0  0  0
  -24.1950  -11.9478   21.5892 C   0  0  0  0  0  0  0  0  0  0  0  0
  -22.0681  -28.8545   20.2579 C   0  0  0  0  0  0  0  0  0  0  0  0
  -23.5716   -9.6877   21.7485 C   0  0  0  0  0  0  0  0  0  0  0  0
  -22.5982  -22.0248   20.3201 C   0  0  0  0  0  0  0  0  0  0  0  0
  -23.3274   -7.1806   20.5497 C   0  0  0  0  0  0  0  0  0  0  0  0
  -24.2522   -8.5917   22.2789 C   0  0  0  0  0  0  0  0  0  0  0  0
  -25.7595  -15.1043   19.2468 C   0  0  0  0  0  0  0  0  0  0  0  0
  -26.4562  -16.3636   17.5844 C   0  0  0  0  0  0  0  0  0  0  0  0
  -18.8007  -26.5091   22.9689 C   0  0  0  0  0  0  0  0  0  0  0  0
  -25.5874  -14.1304   16.8726 C   0  0  0  0  0  0  0  0  0  0  0  0
  -27.3998  -29.0758   21.2518 C   0  0  0  0  0  0  0  0  0  0  0  0
  -26.8802  -31.8437   22.8615 C   0  0  0  0  0  0  0  0  0  0  0  0
  -23.9375  -33.2676   23.8411 C   0  0  0  0  0  0  0  0  0  0  0  0
  -26.3333  -21.5853   20.4866 C   0  0  0  0  0  0  0  0  0  0  0  0
  -31.1864  -25.5282   19.8578 C   0  0  0  0  0  0  0  0  0  0  0  0
  -26.0352  -30.3809   19.5813 C   0  0  0  0  0  0  0  0  0  0  0  0
  -24.8416  -30.4735   22.2853 C   0  0  0  0  0  0  0  0  0  0  0  0
  -19.5779  -25.6861   23.9697 C   0  0  0  0  0  0  0  0  0  0  0  0
  -30.8128  -25.9510   21.2748 C   0  0  0  0  0  0  0  0  0  0  0  0
  -29.2286  -19.7312   19.5611 C   0  0  0  0  0  0  0  0  0  0  0  0
  -30.0587  -27.2719   21.2413 C   0  0  0  0  0  0  0  0  0  0  0  0
  -28.6805  -18.3383   19.2423 C   0  0  0  0  0  0  0  0  0  0  0  0
  -20.1584  -24.4288   23.3343 C   0  0  0  0  0  0  0  0  0  0  0  0
  -28.4905  -20.3766   20.7326 C   0  0  0  0  0  0  0  0  0  0  0  0
  -20.0220  -25.4473   21.0668 C   0  0  0  0  0  0  0  0  0  0  0  0
  -26.4807  -19.0259   20.2792 C   0  0  0  0  0  0  0  0  0  0  0  0
  -28.7369  -27.1269   20.4766 C   0  0  1  0  0  0  0  0  0  0  0  0
  -19.4616  -26.7573   21.6255 C   0  0  2  0  0  0  0  0  0  0  0  0
  -26.8977  -30.4304   20.8387 C   0  0  1  0  0  0  0  0  0  0  0  0
  -27.1497  -18.3622   19.0644 C   0  0  2  0  0  0  0  0  0  0  0  0
  -23.5425  -25.3447   22.8572 C   0  0  0  0  0  0  0  0  0  0  0  0
  -22.3509  -35.0731   24.5627 C   0  0  0  0  0  0  0  0  0  0  0  0
  -28.0598  -31.2762   25.6177 C   0  0  0  0  0  0  0  0  0  0  0  0
  -26.3617  -32.8385   26.5893 C   0  0  0  0  0  0  0  0  0  0  0  0
  -28.0512  -33.6900   24.9634 C   0  0  0  0  0  0  0  0  0  0  0  0
  -23.2774  -33.9669   21.0422 C   0  0  0  0  0  0  0  0  0  0  0  0
  -22.2697  -21.2168   18.1076 C   0  0  0  0  0  0  0  0  0  0  0  0
  -20.5300  -27.8378   21.7600 C   0  0  0  0  0  0  0  0  0  1  0  0
  -26.1669  -32.2206   24.1375 C   0  0  1  0  0  0  0  0  0  0  0  0
  -23.2796  -34.5824   23.4629 C   0  0  2  0  0  0  0  0  0  0  0  0
  -27.1517  -32.4839   25.3114 C   0  0  0  0  0  0  0  0  0  0  0  0
  -26.1752  -16.2308   19.8318 N   0  0  0  0  0  0  0  0  0  0  0  0
  -26.5933  -16.9766   18.7950 N   0  0  0  0  0  0  0  0  0  0  0  0
  -20.8331  -24.7470   22.0726 N   0  0  2  0  0  0  0  0  0  0  0  0
  -26.1875  -30.9917   21.9896 N   0  0  0  0  0  0  0  0  0  0  0  0
  -27.0459  -20.3676   20.4921 N   0  0  0  0  0  0  0  0  0  0  0  0
  -26.8271  -16.9722   16.4379 N   0  0  0  0  0  0  0  0  0  0  0  0
  -25.0339  -12.9210   17.3147 N   0  0  0  0  0  0  0  0  0  0  0  0
  -24.9717  -21.4555   20.2148 N   0  0  0  0  0  0  0  0  0  0  0  0
  -28.1552  -28.4374   20.2867 N   0  0  0  0  0  0  0  0  0  0  0  0
  -25.3130  -33.3566   23.8076 N   0  0  0  0  0  0  0  0  0  0  0  0
  -22.4843  -34.4229   22.2127 N   0  3  0  0  0  0  0  0  0  0  0  0
  -17.7285  -27.0356   23.2654 O   0  0  0  0  0  0  0  0  0  0  0  0
  -25.7986  -14.2974   15.6475 O   0  0  0  0  0  0  0  0  0  0  0  0
  -27.1237  -28.6425   22.3643 O   0  0  0  0  0  0  0  0  0  0  0  0
  -28.0074  -32.2944   22.6431 O   0  0  0  0  0  0  0  0  0  0  0  0
  -23.2953  -32.2633   24.1403 O   0  0  0  0  0  0  0  0  0  0  0  0
  -26.8948  -22.6667   20.6800 O   0  0  0  0  0  0  0  0  0  0  0  0
  -23.6912  -10.9327   22.3430 O   0  0  0  0  0  0  0  0  0  0  0  0
  -22.2856  -20.9723   19.5122 O   0  0  0  0  0  0  0  0  0  0  0  0
  -20.8117  -28.3762   20.4689 O   0  0  0  0  0  0  0  0  0  1  0  0
  -23.2088   -5.9765   19.9748 F   0  0  0  0  0  0  0  0  0  0  0  0
  -25.0239   -8.7367   23.3649 F   0  0  0  0  0  0  0  0  0  0  0  0
  1  2  1  0  0  0  0
  1  5  2  0  0  0  0
  2  6  2  0  0  0  0
  3  8  2  0  0  0  0
  3 17  1  0  0  0  0
  4  9  1  0  0  0  0
  4 17  2  0  0  0  0
  5 19  1  0  0  0  0
  6 21  1  0  0  0  0
  7 10  2  0  0  0  0
  7 20  1  0  0  0  0
  8 26  1  0  0  0  0
  9 26  2  0  0  0  0
 10 27  1  0  0  0  0
 11 12  2  0  0  0  0
 11 28  1  0  0  0  0
 12 30  1  0  0  0  0
 13 22  1  0  0  0  0
 13 27  2  0  0  0  0
 14 23  1  0  0  0  0
 14 25  2  0  0  0  0
 15 24  1  0  0  0  0
 15 29  2  0  0  0  0
 16 30  2  0  0  0  0
 16 31  1  0  0  0  0
 17 32  1  0  0  0  0
 18 32  1  0  0  0  0
 18 33  2  0  0  0  0
 18 35  1  0  0  0  0
 19 21  2  0  0  0  0
 19 40  1  0  0  0  0
 20 22  2  0  0  0  0
 20 41  1  0  0  0  0
 21 52  1  0  0  0  0
 22 42  1  0  0  0  0
 23 24  2  0  0  0  0
 23 56  1  0  0  0  0
 24 69  1  0  0  0  0
 25 29  1  0  0  0  0
 25 74  1  0  0  0  0
 26 84  1  0  0  0  0
 27 86  1  0  0  0  0
 28 31  2  0  0  0  0
 28 84  1  0  0  0  0
 29 85  1  0  0  0  0
 30 87  1  0  0  0  0
 31 88  1  0  0  0  0
 32 67  2  0  0  0  0
 33 68  1  0  0  0  0
 33 72  1  0  0  0  0
 34 43  1  0  0  0  0
 34 53  1  0  0  0  0
 34 78  2  0  0  0  0
 35 73  1  0  0  0  0
 35 79  2  0  0  0  0
 36 54  1  0  0  0  0
 36 75  1  0  0  0  0
 36 80  2  0  0  0  0
 37 64  1  0  0  0  0
 37 70  1  0  0  0  0
 37 81  2  0  0  0  0
 38 65  1  0  0  0  0
 38 76  1  0  0  0  0
 38 82  2  0  0  0  0
 39 71  1  0  0  0  0
 39 74  1  0  0  0  0
 39 83  2  0  0  0  0
 40 44  1  0  0  0  0
 41 54  1  0  0  0  0
 42 70  1  0  0  0  0
 43 48  1  0  0  0  0
 44 46  1  0  0  0  0
 45 47  1  0  0  0  0
 45 49  1  0  0  0  0
 46 52  1  0  0  0  0
 47 55  1  0  0  0  0
 48 69  1  0  0  0  0
 49 71  1  0  0  0  0
 50 53  1  0  0  0  0
 50 69  1  0  0  0  0
 51 55  1  0  0  0  0
 51 71  1  0  0  0  0
 52 75  1  0  0  0  0
 53 63  1  0  0  0  0
 54 70  1  0  0  0  0
 55 68  1  0  0  0  0
 57 65  1  0  0  0  0
 58 66  1  0  0  0  0
 59 66  1  0  0  0  0
 60 66  1  0  0  0  0
 61 77  1  0  0  0  0
 62 85  1  0  0  0  0
 63 86  1  0  0  0  0
 64 66  1  0  0  0  0
 64 76  1  0  0  0  0
 65 77  1  0  0  0  0
 67 68  1  0  0  0  0
M  CHG  1  77   1
M  ISO  4  39 100  63 101  74 100  86 101
M  END
> <Batch ID>
0100

> <Smiles>
CNC(C)C(=O)NC(C(=O)N1Cc2cc([101O:1][101CH2:1]C3CN(c4cc(OC)c([100NH:0][100C:0](=O)N5CCCC(n6nc(-c7ccc(Oc8ccc(F)cc8F)cc7)c(C(N)=O)c6N)C5)cc4C)CCC3=O)ccc2CC1C(=O)NC1CCCc2ccccc21)C(C)(C)C

> <Shape>
0.306

> <Color>
0.064

> <Negative vol penalty>
0.000

$$$$

  -OEChem-04052300573D

 88 96  0     1  0  0  0  0  0999 V2000
  -35.6571  -32.9180   30.3699 C   0  0  0  0  0  0  0  0  0  0  0  0
  -34.7088  -31.9204   30.1674 C   0  0  0  0  0  0  0  0  0  0  0  0
  -23.2036   -9.7305   20.0812 C   0  0  0  0  0  0  0  0  0  0  0  0
  -23.8134  -10.0174   22.4013 C   0  0  0  0  0  0  0  0  0  0  0  0
  -35.2699  -34.2574   30.3664 C   0  0  0  0  0  0  0  0  0  0  0  0
  -33.3724  -32.2617   29.9624 C   0  0  0  0  0  0  0  0  0  0  0  0
  -31.2664  -29.6675   26.1571 C   0  0  0  0  0  0  0  0  0  0  0  0
  -22.4895   -8.5787   20.4112 C   0  0  0  0  0  0  0  0  0  0  0  0
  -23.0992   -8.8656   22.7314 C   0  0  0  0  0  0  0  0  0  0  0  0
  -30.8831  -28.3527   26.4183 C   0  0  0  0  0  0  0  0  0  0  0  0
  -19.4862   -7.8113   21.7620 C   0  0  0  0  0  0  0  0  0  0  0  0
  -18.2160   -7.6550   21.2074 C   0  0  0  0  0  0  0  0  0  0  0  0
  -29.4936  -17.9160   22.8275 C   0  0  0  0  0  0  0  0  0  0  0  0
  -31.3585  -19.0153   23.9001 C   0  0  0  0  0  0  0  0  0  0  0  0
  -28.5998  -29.0800   26.6958 C   0  0  0  0  0  0  0  0  0  0  0  0
  -31.7419  -17.1086   22.4668 C   0  0  0  0  0  0  0  0  0  0  0  0
  -18.9330   -5.6083   20.1424 C   0  0  0  0  0  0  0  0  0  0  0  0
  -23.8657  -10.4498   21.0762 C   0  0  0  0  0  0  0  0  0  0  0  0
  -29.9874  -18.9180   23.6628 C   0  0  0  0  0  0  0  0  0  0  0  0
  -24.1185  -12.9603   20.7003 C   0  0  0  0  0  0  0  0  0  0  0  0
  -33.9297  -34.6157   30.1516 C   0  0  0  0  0  0  0  0  0  0  0  0
  -30.3196  -30.7017   26.1741 C   0  0  0  0  0  0  0  0  0  0  0  0
  -32.9667  -33.6071   29.9574 C   0  0  0  0  0  0  0  0  0  0  0  0
  -28.9733  -30.4066   26.4320 C   0  0  0  0  0  0  0  0  0  0  0  0
  -30.3708  -17.0113   22.2295 C   0  0  0  0  0  0  0  0  0  0  0  0
  -22.4373   -8.1463   21.7363 C   0  0  0  0  0  0  0  0  0  0  0  0
  -29.5501  -28.0592   26.6905 C   0  0  0  0  0  0  0  0  0  0  0  0
  -20.4799   -6.8662   21.5068 C   0  0  0  0  0  0  0  0  0  0  0  0
  -32.2358  -18.1106   23.3021 C   0  0  0  0  0  0  0  0  0  0  0  0
  -17.9394   -6.5534   20.3976 C   0  0  0  0  0  0  0  0  0  0  0  0
  -20.2033   -5.7647   20.6970 C   0  0  0  0  0  0  0  0  0  0  0  0
  -24.6040  -11.6394   20.7357 C   0  0  0  0  0  0  0  0  0  0  0  0
  -25.2025  -13.7146   20.3229 C   0  0  0  0  0  0  0  0  0  0  0  0
  -29.0540  -19.8823   24.2990 C   0  0  0  0  0  0  0  0  0  0  0  0
  -22.8050  -13.4607   20.9831 C   0  0  0  0  0  0  0  0  0  0  0  0
  -29.9085  -33.3384   27.9011 C   0  0  0  0  0  0  0  0  0  0  0  0
  -27.5080  -33.8803   25.7877 C   0  0  0  0  0  0  0  0  0  0  0  0
  -28.8908  -22.1641   25.2320 C   0  0  0  0  0  0  0  0  0  0  0  0
  -25.2634  -32.5957   23.5609 C   0  0  0  0  0  0  0  0  0  0  0  0
  -30.6025  -15.0162   20.7088 C   0  0  0  0  0  0  0  0  0  0  0  0
  -33.5511  -36.0747   30.2037 C   0  0  0  0  0  0  0  0  0  0  0  0
  -30.7447  -32.1108   25.8640 C   0  0  0  0  0  0  0  0  0  0  0  0
  -27.9145  -31.4778   26.4421 C   0  0  0  0  0  0  0  0  0  0  0  0
  -32.1775  -36.3692   29.6063 C   0  0  0  0  0  0  0  0  0  0  0  0
  -29.7353  -12.3149   18.5575 C   0  0  0  0  0  0  0  0  0  0  0  0
  -31.1464  -35.3695   30.1202 C   0  0  0  0  0  0  0  0  0  0  0  0
  -28.2831  -12.0070   18.9295 C   0  0  0  0  0  0  0  0  0  0  0  0
  -30.5618  -12.7120   19.7794 C   0  0  0  0  0  0  0  0  0  0  0  0
  -28.5437  -13.4944   20.9560 C   0  0  0  0  0  0  0  0  0  0  0  0
  -31.5115  -33.9386   29.7069 C   0  0  1  0  0  0  0  0  0  0  0  0
  -29.7834  -33.1597   26.4144 C   0  0  1  0  0  0  0  0  0  0  0  0
  -27.6561  -13.1525   19.7482 C   0  0  2  0  0  0  0  0  0  0  0  0
  -35.5322  -19.5668   23.3200 C   0  0  0  0  0  0  0  0  0  0  0  0
  -23.4072  -33.2811   22.0175 C   0  0  0  0  0  0  0  0  0  0  0  0
  -25.6453  -34.2159   28.1810 C   0  0  0  0  0  0  0  0  0  0  0  0
  -23.7058  -33.9466   26.6208 C   0  0  0  0  0  0  0  0  0  0  0  0
  -25.2781  -35.8620   26.3343 C   0  0  0  0  0  0  0  0  0  0  0  0
  -26.7087  -31.5829   21.1851 C   0  0  0  0  0  0  0  0  0  0  0  0
  -29.7646  -23.3926   25.4173 C   0  0  0  0  0  0  0  0  0  0  0  0
  -29.0241  -24.5369   26.1001 C   0  0  0  0  0  0  0  0  0  0  0  0
  -34.0965  -19.5068   23.7960 C   0  0  0  0  0  0  0  0  0  0  0  0
  -29.9286  -25.7407   26.3201 C   0  0  0  0  0  0  0  0  0  1  0  0
  -26.0409  -33.5302   25.7235 C   0  0  1  0  0  0  0  0  0  0  0  0
  -24.8980  -33.0095   22.1469 C   0  0  2  0  0  0  0  0  0  0  0  0
  -25.1876  -34.3686   26.7167 C   0  0  0  0  0  0  0  0  0  0  0  0
  -25.8959  -11.5559   20.4070 N   0  0  0  0  0  0  0  0  0  0  0  0
  -26.2313  -12.8339   20.1613 N   0  0  0  0  0  0  0  0  0  0  0  0
  -28.3810  -32.8410   26.1392 N   0  0  0  0  0  0  0  0  0  0  0  0
  -29.9088  -13.8049   20.5032 N   0  0  0  0  0  0  0  0  0  0  0  0
  -25.3665  -15.0386   20.1169 N   0  0  0  0  0  0  0  0  0  0  0  0
  -21.8087  -12.5486   21.3570 N   0  0  0  0  0  0  0  0  0  0  0  0
  -29.8692  -15.9938   21.3805 N   0  0  0  0  0  0  0  0  0  0  0  0
  -29.5920  -21.1311   24.6049 N   0  0  0  0  0  0  0  0  0  0  0  0
  -31.1719  -33.7113   28.3186 N   0  0  0  0  0  0  0  0  0  0  0  0
  -25.6472  -33.6765   24.3263 N   0  0  0  0  0  0  0  0  0  0  0  0
  -25.2655  -31.9353   21.1814 N   0  3  0  0  0  0  0  0  0  0  0  0
  -27.9024  -19.5299   24.5391 O   0  0  0  0  0  0  0  0  0  0  0  0
  -22.5190  -14.6786   20.8907 O   0  0  0  0  0  0  0  0  0  0  0  0
  -28.9308  -33.1532   28.6163 O   0  0  0  0  0  0  0  0  0  0  0  0
  -27.8669  -35.0316   25.5285 O   0  0  0  0  0  0  0  0  0  0  0  0
  -27.7188  -22.1113   25.5942 O   0  0  0  0  0  0  0  0  0  0  0  0
  -25.2100  -31.4307   23.9489 O   0  0  0  0  0  0  0  0  0  0  0  0
  -31.7522  -15.1841   20.2940 O   0  0  0  0  0  0  0  0  0  0  0  0
  -21.7403   -7.0225   22.0588 O   0  0  0  0  0  0  0  0  0  0  0  0
  -29.1733  -26.7768   26.9464 O   0  0  0  0  0  0  0  0  0  1  0  0
  -33.5736  -18.2056   23.5331 O   0  0  0  0  0  0  0  0  0  0  0  0
  -16.7191   -6.4025   19.8663 F   0  0  0  0  0  0  0  0  0  0  0  0
  -21.1535   -4.8528   20.4493 F   0  0  0  0  0  0  0  0  0  0  0  0
  1  2  1  0  0  0  0
  1  5  2  0  0  0  0
  2  6  2  0  0  0  0
  3  8  2  0  0  0  0
  3 18  1  0  0  0  0
  4  9  1  0  0  0  0
  4 18  2  0  0  0  0
  5 21  1  0  0  0  0
  6 23  1  0  0  0  0
  7 10  2  0  0  0  0
  7 22  1  0  0  0  0
  8 26  1  0  0  0  0
  9 26  2  0  0  0  0
 10 27  1  0  0  0  0
 11 12  2  0  0  0  0
 11 28  1  0  0  0  0
 12 30  1  0  0  0  0
 13 19  2  0  0  0  0
 13 25  1  0  0  0  0
 14 19  1  0  0  0  0
 14 29  2  0  0  0  0
 15 24  1  0  0  0  0
 15 27  2  0  0  0  0
 16 25  2  0  0  0  0
 16 29  1  0  0  0  0
 17 30  2  0  0  0  0
 17 31  1  0  0  0  0
 18 32  1  0  0  0  0
 19 34  1  0  0  0  0
 20 32  1  0  0  0  0
 20 33  2  0  0  0  0
 20 35  1  0  0  0  0
 21 23  2  0  0  0  0
 21 41  1  0  0  0  0
 22 24  2  0  0  0  0
 22 42  1  0  0  0  0
 23 50  1  0  0  0  0
 24 43  1  0  0  0  0
 25 72  1  0  0  0  0
 26 84  1  0  0  0  0
 27 85  1  0  0  0  0
 28 31  2  0  0  0  0
 28 84  1  0  0  0  0
 29 86  1  0  0  0  0
 30 87  1  0  0  0  0
 31 88  1  0  0  0  0
 32 66  2  0  0  0  0
 33 67  1  0  0  0  0
 33 70  1  0  0  0  0
 34 73  1  0  0  0  0
 34 77  2  0  0  0  0
 35 71  1  0  0  0  0
 35 78  2  0  0  0  0
 36 51  1  0  0  0  0
 36 74  1  0  0  0  0
 36 79  2  0  0  0  0
 37 63  1  0  0  0  0
 37 68  1  0  0  0  0
 37 80  2  0  0  0  0
 38 59  1  0  0  0  0
 38 73  1  0  0  0  0
 38 81  2  0  0  0  0
 39 64  1  0  0  0  0
 39 75  1  0  0  0  0
 39 82  2  0  0  0  0
 40 69  1  0  0  0  0
 40 72  1  0  0  0  0
 40 83  2  0  0  0  0
 41 44  1  0  0  0  0
 42 51  1  0  0  0  0
 43 68  1  0  0  0  0
 44 46  1  0  0  0  0
 45 47  1  0  0  0  0
 45 48  1  0  0  0  0
 46 50  1  0  0  0  0
 47 52  1  0  0  0  0
 48 69  1  0  0  0  0
 49 52  1  0  0  0  0
 49 69  1  0  0  0  0
 50 74  1  0  0  0  0
 51 68  1  0  0  0  0
 52 67  1  0  0  0  0
 53 61  1  0  0  0  0
 54 64  1  0  0  0  0
 55 65  1  0  0  0  0
 56 65  1  0  0  0  0
 57 65  1  0  0  0  0
 58 76  1  0  0  0  0
 59 60  1  0  0  0  0
 60 62  1  0  0  0  0
 61 86  1  0  0  0  0
 62 85  1  0  0  0  0
 63 65  1  0  0  0  0
 63 75  1  0  0  0  0
 64 76  1  0  0  0  0
 66 67  1  0  0  0  0
M  CHG  1  76   1
M  ISO  4  40 100  62 101  72 100  85 101
M  END
> <Batch ID>
0100

> <Smiles>
CCOc1cc([100NH:0][100C:0](=O)N2CCCC(n3nc(-c4ccc(Oc5ccc(F)cc5F)cc4)c(C(N)=O)c3N)C2)cc(C(=O)NC(=O)CC[101CH2:1][101O:1]c2ccc3c(c2)CN(C(=O)C(NC(=O)C(C)NC)C(C)(C)C)C(C(=O)NC2CCCc4ccccc42)C3)c1

> <Shape>
0.213

> <Color>
0.195

> <Negative vol penalty>
0.000

$$$$

  -OEChem-04052300573D

 85 93  0     1  0  0  0  0  0999 V2000
  -22.3450  -22.8578   14.7312 C   0  0  0  0  0  0  0  0  0  0  0  0
  -22.4035  -21.7616   15.5859 C   0  0  0  0  0  0  0  0  0  0  0  0
  -26.7409  -28.9907   19.0919 C   0  0  0  0  0  0  0  0  0  0  0  0
  -26.2354  -27.7518   21.1036 C   0  0  0  0  0  0  0  0  0  0  0  0
  -22.6697  -24.1281   15.2054 C   0  0  0  0  0  0  0  0  0  0  0  0
  -22.7877  -21.9351   16.9151 C   0  0  0  0  0  0  0  0  0  0  0  0
  -19.8147  -19.4072   20.1425 C   0  0  0  0  0  0  0  0  0  0  0  0
  -27.6189  -16.6451   18.0544 C   0  0  0  0  0  0  0  0  0  0  0  0
  -26.5816  -15.8772   18.5834 C   0  0  0  0  0  0  0  0  0  0  0  0
  -25.6926  -29.8681   19.3688 C   0  0  0  0  0  0  0  0  0  0  0  0
  -25.1870  -28.6293   21.3805 C   0  0  0  0  0  0  0  0  0  0  0  0
  -20.0310  -18.0355   20.2664 C   0  0  0  0  0  0  0  0  0  0  0  0
  -22.6055  -30.7558   22.8058 C   0  0  0  0  0  0  0  0  0  0  0  0
  -22.4802  -31.2257   24.1131 C   0  0  0  0  0  0  0  0  0  0  0  0
  -21.2775  -18.4216   22.2953 C   0  0  0  0  0  0  0  0  0  0  0  0
  -27.3144  -16.4272   20.8189 C   0  0  0  0  0  0  0  0  0  0  0  0
  -24.6846  -32.2045   23.9724 C   0  0  0  0  0  0  0  0  0  0  0  0
  -27.0123  -27.9324   19.9593 C   0  0  0  0  0  0  0  0  0  0  0  0
  -29.4357  -27.1456   20.0848 C   0  0  0  0  0  0  0  0  0  0  0  0
  -23.0488  -24.3186   16.5435 C   0  0  0  0  0  0  0  0  0  0  0  0
  -20.3383  -20.2988   21.0897 C   0  0  0  0  0  0  0  0  0  0  0  0
  -23.1190  -23.2089   17.4073 C   0  0  0  0  0  0  0  0  0  0  0  0
  -21.0642  -19.8039   22.1825 C   0  0  0  0  0  0  0  0  0  0  0  0
  -28.5041  -17.3040   18.9076 C   0  0  0  0  0  0  0  0  0  0  0  0
  -26.4293  -15.7682   19.9656 C   0  0  0  0  0  0  0  0  0  0  0  0
  -24.9157  -29.6875   20.5131 C   0  0  0  0  0  0  0  0  0  0  0  0
  -20.7650  -17.5427   21.3414 C   0  0  0  0  0  0  0  0  0  0  0  0
  -23.7703  -31.0102   22.0818 C   0  0  0  0  0  0  0  0  0  0  0  0
  -23.5198  -31.9501   24.6964 C   0  0  0  0  0  0  0  0  0  0  0  0
  -28.3518  -17.1951   20.2899 C   0  0  0  0  0  0  0  0  0  0  0  0
  -24.8099  -31.7346   22.6651 C   0  0  0  0  0  0  0  0  0  0  0  0
  -28.0947  -27.0254   19.6735 C   0  0  0  0  0  0  0  0  0  0  0  0
  -30.0564  -26.0384   19.5600 C   0  0  0  0  0  0  0  0  0  0  0  0
  -30.0640  -28.1667   20.8710 C   0  0  0  0  0  0  0  0  0  0  0  0
  -22.4167  -22.7021   20.9993 C   0  0  0  0  0  0  0  0  0  0  0  0
  -22.6698  -14.4714   21.5497 C   0  0  0  0  0  0  0  0  0  0  0  0
  -21.5097  -23.0891   24.0896 C   0  0  0  0  0  0  0  0  0  0  0  0
  -20.1989  -21.7036   26.9196 C   0  0  0  0  0  0  0  0  0  0  0  0
  -29.0259  -20.5190   18.6186 C   0  0  0  0  0  0  0  0  0  0  0  0
  -23.4363  -25.7035   16.9981 C   0  0  0  0  0  0  0  0  0  0  0  0
  -20.0733  -21.7734   20.9561 C   0  0  0  0  0  0  0  0  0  0  0  0
  -21.6305  -20.7175   23.2375 C   0  0  0  0  0  0  0  0  0  0  0  0
  -23.4719  -25.8585   18.5163 C   0  0  0  0  0  0  0  0  0  0  0  0
  -29.0441  -22.8895   15.8840 C   0  0  0  0  0  0  0  0  0  0  0  0
  -24.2146  -24.6891   19.1550 C   0  0  0  0  0  0  0  0  0  0  0  0
  -28.9312  -24.2186   16.6329 C   0  0  0  0  0  0  0  0  0  0  0  0
  -28.2052  -21.8049   16.5532 C   0  0  0  0  0  0  0  0  0  0  0  0
  -28.4031  -22.9146   18.7448 C   0  0  0  0  0  0  0  0  0  0  0  0
  -23.5074  -23.3604   18.8621 C   0  0  1  0  0  0  0  0  0  0  0  0
  -21.0899  -22.6330   21.7011 C   0  0  1  0  0  0  0  0  0  0  0  0
  -29.2466  -24.0465   18.1306 C   0  0  2  0  0  0  0  0  0  0  0  0
  -19.6150  -22.2583   29.2963 C   0  0  0  0  0  0  0  0  0  0  0  0
  -24.4645  -22.9686   24.8411 C   0  0  0  0  0  0  0  0  0  0  0  0
  -23.7730  -22.5710   27.2143 C   0  0  0  0  0  0  0  0  0  0  0  0
  -23.1443  -24.6985   26.0736 C   0  0  0  0  0  0  0  0  0  0  0  0
  -17.3356  -21.0977   26.4796 C   0  0  0  0  0  0  0  0  0  0  0  0
  -29.6122  -18.1242   18.3387 C   0  0  0  0  0  0  0  0  0  0  0  0
  -23.9621  -13.9380   22.1514 C   0  0  0  0  0  0  0  0  0  0  0  0
  -22.1847  -15.7953   22.1075 C   0  0  0  0  0  0  0  0  0  1  0  0
  -25.1670  -14.8380   21.9065 C   0  0  0  0  0  0  0  0  0  0  0  0
  -21.9829  -22.5506   25.4181 C   0  0  1  0  0  0  0  0  0  0  0  0
  -19.1103  -22.1809   27.8638 C   0  0  2  0  0  0  0  0  0  0  0  0
  -23.3323  -23.1798   25.8660 C   0  0  0  0  0  0  0  0  0  0  0  0
  -27.8756  -25.9285   18.9436 N   0  0  0  0  0  0  0  0  0  0  0  0
  -29.0873  -25.3494   18.8920 N   0  0  0  0  0  0  0  0  0  0  0  0
  -21.3498  -22.1517   23.0594 N   0  0  0  0  0  0  0  0  0  0  0  0
  -28.5674  -21.6788   17.9720 N   0  0  0  0  0  0  0  0  0  0  0  0
  -31.3311  -25.5969   19.6093 N   0  0  0  0  0  0  0  0  0  0  0  0
  -29.2799  -29.2338   21.3302 N   0  0  0  0  0  0  0  0  0  0  0  0
  -25.3987  -15.0058   20.4904 N   0  0  0  0  0  0  0  0  0  0  0  0
  -22.3481  -23.2061   19.7145 N   0  0  0  0  0  0  0  0  0  0  0  0
  -20.8858  -22.7585   26.3570 N   0  0  0  0  0  0  0  0  0  0  0  0
  -29.1473  -19.3903   17.8173 N   0  0  0  0  0  0  0  0  0  0  0  0
  -17.9466  -21.2508   27.8251 N   0  3  0  0  0  0  0  0  0  0  0  0
  -31.2881  -28.1424   21.1441 O   0  0  0  0  0  0  0  0  0  0  0  0
  -23.4281  -22.3272   21.5810 O   0  0  0  0  0  0  0  0  0  0  0  0
  -22.0458  -13.8694   20.6773 O   0  0  0  0  0  0  0  0  0  0  0  0
  -21.2833  -24.2960   23.9723 O   0  0  0  0  0  0  0  0  0  0  0  0
  -20.4204  -20.5138   26.7055 O   0  0  0  0  0  0  0  0  0  0  0  0
  -29.3115  -20.4925   19.8206 O   0  0  0  0  0  0  0  0  0  0  0  0
  -23.8928  -30.5436   20.7837 O   0  0  0  0  0  0  0  0  0  0  0  0
  -20.9782  -16.2043   21.4644 O   0  0  0  0  0  0  0  0  0  1  0  0
  -23.3987  -32.4026   25.9513 F   0  0  0  0  0  0  0  0  0  0  0  0
  -29.1981  -17.8236   21.1177 F   0  0  0  0  0  0  0  0  0  0  0  0
  -25.9308  -31.9831   21.9741 F   0  0  0  0  0  0  0  0  0  0  0  0
  1  2  1  0  0  0  0
  1  5  2  0  0  0  0
  2  6  2  0  0  0  0
  3 10  2  0  0  0  0
  3 18  1  0  0  0  0
  4 11  1  0  0  0  0
  4 18  2  0  0  0  0
  5 20  1  0  0  0  0
  6 22  1  0  0  0  0
  7 12  2  0  0  0  0
  7 21  1  0  0  0  0
  8  9  2  0  0  0  0
  8 24  1  0  0  0  0
  9 25  1  0  0  0  0
 10 26  1  0  0  0  0
 11 26  2  0  0  0  0
 12 27  1  0  0  0  0
 13 14  2  0  0  0  0
 13 28  1  0  0  0  0
 14 29  1  0  0  0  0
 15 23  1  0  0  0  0
 15 27  2  0  0  0  0
 16 25  2  0  0  0  0
 16 30  1  0  0  0  0
 17 29  2  0  0  0  0
 17 31  1  0  0  0  0
 18 32  1  0  0  0  0
 19 32  1  0  0  0  0
 19 33  2  0  0  0  0
 19 34  1  0  0  0  0
 20 22  2  0  0  0  0
 20 40  1  0  0  0  0
 21 23  2  0  0  0  0
 21 41  1  0  0  0  0
 22 49  1  0  0  0  0
 23 42  1  0  0  0  0
 24 30  2  0  0  0  0
 24 57  1  0  0  0  0
 25 70  1  0  0  0  0
 26 81  1  0  0  0  0
 27 82  1  0  0  0  0
 28 31  2  0  0  0  0
 28 81  1  0  0  0  0
 29 83  1  0  0  0  0
 30 84  1  0  0  0  0
 31 85  1  0  0  0  0
 32 64  2  0  0  0  0
 33 65  1  0  0  0  0
 33 68  1  0  0  0  0
 34 69  1  0  0  0  0
 34 75  2  0  0  0  0
 35 50  1  0  0  0  0
 35 71  1  0  0  0  0
 35 76  2  0  0  0  0
 36 58  1  0  0  0  0
 36 59  1  0  0  0  0
 36 77  2  0  0  0  0
 37 61  1  0  0  0  0
 37 66  1  0  0  0  0
 37 78  2  0  0  0  0
 38 62  1  0  0  0  0
 38 72  1  0  0  0  0
 38 79  2  0  0  0  0
 39 67  1  0  0  0  0
 39 73  1  0  0  0  0
 39 80  2  0  0  0  0
 40 43  1  0  0  0  0
 41 50  1  0  0  0  0
 42 66  1  0  0  0  0
 43 45  1  0  0  0  0
 44 46  1  0  0  0  0
 44 47  1  0  0  0  0
 45 49  1  0  0  0  0
 46 51  1  0  0  0  0
 47 67  1  0  0  0  0
 48 51  1  0  0  0  0
 48 67  1  0  0  0  0
 49 71  1  0  0  0  0
 50 66  1  0  0  0  0
 51 65  1  0  0  0  0
 52 62  1  0  0  0  0
 53 63  1  0  0  0  0
 54 63  1  0  0  0  0
 55 63  1  0  0  0  0
 56 74  1  0  0  0  0
 57 73  1  0  0  0  0
 58 60  1  0  0  0  0
 59 82  1  0  0  0  0
 60 70  1  0  0  0  0
 61 63  1  0  0  0  0
 61 72  1  0  0  0  0
 62 74  1  0  0  0  0
 64 65  1  0  0  0  0
M  CHG  1  74   1
M  ISO  4  39 100  59 101  73 100  82 101
M  END
> <Batch ID>
0100

> <Smiles>
CNC(C)C(=O)NC(C(=O)N1Cc2cc([101O:1][101CH2:1]C(=O)CCNc3ccc(C[100NH:0][100C:0](=O)N4CCCC(n5nc(-c6ccc(Oc7ccc(F)cc7F)cc6)c(C(N)=O)c5N)C4)c(F)c3)ccc2CC1C(=O)NC1CCCc2ccccc21)C(C)(C)C

> <Shape>
0.176

> <Color>
0.077

> <Negative vol penalty>
0.000

$$$$

  -OEChem-04052300573D

 85 94  0     1  0  0  0  0  0999 V2000
  -29.0263  -35.2088   23.0715 C   0  0  0  0  0  0  0  0  0  0  0  0
  -29.4831  -33.9096   22.8745 C   0  0  0  0  0  0  0  0  0  0  0  0
  -23.9643  -11.1199   23.7183 C   0  0  0  0  0  0  0  0  0  0  0  0
  -24.0519  -13.4941   24.1572 C   0  0  0  0  0  0  0  0  0  0  0  0
  -27.6834  -35.4366   23.3697 C   0  0  0  0  0  0  0  0  0  0  0  0
  -28.5976  -32.8373   22.9766 C   0  0  0  0  0  0  0  0  0  0  0  0
  -28.6965  -27.6571   19.7114 C   0  0  0  0  0  0  0  0  0  0  0  0
  -23.4244  -10.9053   24.9863 C   0  0  0  0  0  0  0  0  0  0  0  0
  -23.5119  -13.2795   25.4253 C   0  0  0  0  0  0  0  0  0  0  0  0
  -29.1897  -26.3828   19.9887 C   0  0  0  0  0  0  0  0  0  0  0  0
  -20.4107  -11.1940   26.4919 C   0  0  0  0  0  0  0  0  0  0  0  0
  -19.3221  -10.3279   26.5949 C   0  0  0  0  0  0  0  0  0  0  0  0
  -26.9867  -25.6882   20.6842 C   0  0  0  0  0  0  0  0  0  0  0  0
  -30.1885  -18.1047   21.4633 C   0  0  0  0  0  0  0  0  0  0  0  0
  -32.3198  -17.0107   21.1504 C   0  0  0  0  0  0  0  0  0  0  0  0
  -20.5953   -8.9037   28.0740 C   0  0  0  0  0  0  0  0  0  0  0  0
  -24.2781  -12.4143   23.3037 C   0  0  0  0  0  0  0  0  0  0  0  0
  -24.1321  -12.8834   20.8005 C   0  0  0  0  0  0  0  0  0  0  0  0
  -26.7790  -34.3673   23.4660 C   0  0  0  0  0  0  0  0  0  0  0  0
  -27.3448  -27.9601   19.9292 C   0  0  0  0  0  0  0  0  0  0  0  0
  -27.2417  -33.0509   23.2777 C   0  0  0  0  0  0  0  0  0  0  0  0
  -26.4784  -26.9663   20.4065 C   0  0  0  0  0  0  0  0  0  0  0  0
  -30.8404  -19.2313   21.9646 C   0  0  0  0  0  0  0  0  0  0  0  0
  -30.9282  -16.9943   21.0562 C   0  0  0  0  0  0  0  0  0  0  0  0
  -32.2320  -19.2477   22.0588 C   0  0  0  0  0  0  0  0  0  0  0  0
  -23.1982  -11.9851   25.8399 C   0  0  0  0  0  0  0  0  0  0  0  0
  -28.3354  -25.3990   20.4779 C   0  0  0  0  0  0  0  0  0  0  0  0
  -21.5916  -10.9149   27.1799 C   0  0  0  0  0  0  0  0  0  0  0  0
  -19.4144   -9.1828   27.3860 C   0  0  0  0  0  0  0  0  0  0  0  0
  -32.9717  -18.1374   21.6517 C   0  0  0  0  0  0  0  0  0  0  0  0
  -21.6839   -9.7698   27.9710 C   0  0  0  0  0  0  0  0  0  0  0  0
  -24.8364  -12.6366   21.9941 C   0  0  0  0  0  0  0  0  0  0  0  0
  -25.1109  -13.0245   19.8472 C   0  0  0  0  0  0  0  0  0  0  0  0
  -22.7195  -12.9770   20.5736 C   0  0  0  0  0  0  0  0  0  0  0  0
  -25.7756  -30.0013   21.7932 C   0  0  0  0  0  0  0  0  0  0  0  0
  -23.1981  -28.9162   20.1496 C   0  0  0  0  0  0  0  0  0  0  0  0
  -21.7800  -26.4213   18.3028 C   0  0  0  0  0  0  0  0  0  0  0  0
  -30.8512  -14.6642   20.1018 C   0  0  0  0  0  0  0  0  0  0  0  0
  -25.3466  -34.6593   23.8370 C   0  0  0  0  0  0  0  0  0  0  0  0
  -26.8228  -29.3318   19.5998 C   0  0  0  0  0  0  0  0  0  0  0  0
  -25.0146  -27.2349   20.6382 C   0  0  0  0  0  0  0  0  0  0  0  0
  -24.3962  -33.4978   23.5578 C   0  0  0  0  0  0  0  0  0  0  0  0
  -29.5661  -11.6029   18.8157 C   0  0  0  0  0  0  0  0  0  0  0  0
  -24.9888  -32.1885   24.0691 C   0  0  0  0  0  0  0  0  0  0  0  0
  -28.1412  -11.5460   19.3712 C   0  0  0  0  0  0  0  0  0  0  0  0
  -28.5916  -21.6653   23.5797 C   0  0  0  0  0  0  0  0  0  0  0  0
  -30.5420  -12.2148   19.8191 C   0  0  0  0  0  0  0  0  0  0  0  0
  -29.5763  -20.5059   23.7160 C   0  0  0  0  0  0  0  0  0  0  0  0
  -29.7085  -21.4172   21.4779 C   0  0  0  0  0  0  0  0  0  0  0  0
  -28.7209  -13.4682   20.9061 C   0  0  0  0  0  0  0  0  0  0  0  0
  -26.3067  -31.8636   23.3556 C   0  0  1  0  0  0  0  0  0  0  0  0
  -25.5375  -29.6769   20.3456 C   0  0  1  0  0  0  0  0  0  0  0  0
  -29.1789  -22.4890   22.4373 C   0  0  1  0  0  0  0  0  0  0  0  0
  -27.6899  -12.9190   19.9066 C   0  0  2  0  0  0  0  0  0  0  0  0
  -19.6481  -25.8062   17.1306 C   0  0  0  0  0  0  0  0  0  0  0  0
  -21.9006  -28.2950   22.8405 C   0  0  0  0  0  0  0  0  0  0  0  0
  -20.2497  -26.8517   21.6325 C   0  0  0  0  0  0  0  0  0  0  0  0
  -20.3585  -29.2957   21.1449 C   0  0  0  0  0  0  0  0  0  0  0  0
  -23.1362  -26.2517   15.6777 C   0  0  0  0  0  0  0  0  0  0  0  0
  -28.1707  -23.4249   21.7939 C   0  0  0  0  0  0  0  0  0  1  0  0
  -22.2145  -27.7852   20.3289 C   0  0  1  0  0  0  0  0  0  0  0  0
  -21.0195  -26.4480   16.9892 C   0  0  2  0  0  0  0  0  0  0  0  0
  -21.2087  -28.0521   21.4843 C   0  0  0  0  0  0  0  0  0  0  0  0
  -26.1603  -12.6208   21.8179 N   0  0  0  0  0  0  0  0  0  0  0  0
  -26.2957  -12.8595   20.5023 N   0  0  0  0  0  0  0  0  0  0  0  0
  -30.0909  -20.3182   22.3619 N   0  0  3  0  0  0  0  0  0  0  0  0
  -24.5534  -28.5932   20.3072 N   0  0  0  0  0  0  0  0  0  0  0  0
  -30.0511  -13.5157   20.2792 N   0  0  0  0  0  0  0  0  0  0  0  0
  -32.9101  -20.3799   22.5637 N   0  0  0  0  0  0  0  0  0  0  0  0
  -25.0649  -13.2721   18.5210 N   0  0  0  0  0  0  0  0  0  0  0  0
  -21.8551  -12.8066   21.6636 N   0  0  0  0  0  0  0  0  0  0  0  0
  -30.2666  -15.8488   20.5486 N   0  0  0  0  0  0  0  0  0  0  0  0
  -26.0485  -31.3345   22.0335 N   0  0  0  0  0  0  0  0  0  0  0  0
  -21.5884  -27.5785   19.0275 N   0  0  0  0  0  0  0  0  0  0  0  0
  -21.7766  -25.7122   15.9374 N   0  3  0  0  0  0  0  0  0  0  0  0
  -22.2375  -13.1887   19.4350 O   0  0  0  0  0  0  0  0  0  0  0  0
  -25.7147  -29.1085   22.6304 O   0  0  0  0  0  0  0  0  0  0  0  0
  -22.7799  -30.0432   19.8727 O   0  0  0  0  0  0  0  0  0  0  0  0
  -22.4716  -25.4675   18.6528 O   0  0  0  0  0  0  0  0  0  0  0  0
  -31.9611  -14.6056   19.5663 O   0  0  0  0  0  0  0  0  0  0  0  0
  -22.6711  -11.7761   27.0772 O   0  0  0  0  0  0  0  0  0  0  0  0
  -28.8143  -24.1546   20.7500 O   0  0  0  0  0  0  0  0  0  1  0  0
  -18.3685   -8.3520   27.4861 F   0  0  0  0  0  0  0  0  0  0  0  0
  -34.3095  -18.1409   21.7397 F   0  0  0  0  0  0  0  0  0  0  0  0
  -22.8153   -9.4970   28.6352 F   0  0  0  0  0  0  0  0  0  0  0  0
  1  2  1  0  0  0  0
  1  5  2  0  0  0  0
  2  6  2  0  0  0  0
  3  8  2  0  0  0  0
  3 17  1  0  0  0  0
  4  9  1  0  0  0  0
  4 17  2  0  0  0  0
  5 19  1  0  0  0  0
  6 21  1  0  0  0  0
  7 10  2  0  0  0  0
  7 20  1  0  0  0  0
  8 26  1  0  0  0  0
  9 26  2  0  0  0  0
 10 27  1  0  0  0  0
 11 12  2  0  0  0  0
 11 28  1  0  0  0  0
 12 29  1  0  0  0  0
 13 22  1  0  0  0  0
 13 27  2  0  0  0  0
 14 23  1  0  0  0  0
 14 24  2  0  0  0  0
 15 24  1  0  0  0  0
 15 30  2  0  0  0  0
 16 29  2  0  0  0  0
 16 31  1  0  0  0  0
 17 32  1  0  0  0  0
 18 32  1  0  0  0  0
 18 33  2  0  0  0  0
 18 34  1  0  0  0  0
 19 21  2  0  0  0  0
 19 39  1  0  0  0  0
 20 22  2  0  0  0  0
 20 40  1  0  0  0  0
 21 51  1  0  0  0  0
 22 41  1  0  0  0  0
 23 25  2  0  0  0  0
 23 66  1  0  0  0  0
 24 72  1  0  0  0  0
 25 30  1  0  0  0  0
 25 69  1  0  0  0  0
 26 81  1  0  0  0  0
 27 82  1  0  0  0  0
 28 31  2  0  0  0  0
 28 81  1  0  0  0  0
 29 83  1  0  0  0  0
 30 84  1  0  0  0  0
 31 85  1  0  0  0  0
 32 64  2  0  0  0  0
 33 65  1  0  0  0  0
 33 70  1  0  0  0  0
 34 71  1  0  0  0  0
 34 76  2  0  0  0  0
 35 52  1  0  0  0  0
 35 73  1  0  0  0  0
 35 77  2  0  0  0  0
 36 61  1  0  0  0  0
 36 67  1  0  0  0  0
 36 78  2  0  0  0  0
 37 62  1  0  0  0  0
 37 74  1  0  0  0  0
 37 79  2  0  0  0  0
 38 68  1  0  0  0  0
 38 72  1  0  0  0  0
 38 80  2  0  0  0  0
 39 42  1  0  0  0  0
 40 52  1  0  0  0  0
 41 67  1  0  0  0  0
 42 44  1  0  0  0  0
 43 45  1  0  0  0  0
 43 47  1  0  0  0  0
 44 51  1  0  0  0  0
 45 54  1  0  0  0  0
 46 48  1  0  0  0  0
 46 53  1  0  0  0  0
 47 68  1  0  0  0  0
 48 66  1  0  0  0  0
 49 53  1  0  0  0  0
 49 66  1  0  0  0  0
 50 54  1  0  0  0  0
 50 68  1  0  0  0  0
 51 73  1  0  0  0  0
 52 67  1  0  0  0  0
 53 60  1  0  0  0  0
 54 65  1  0  0  0  0
 55 62  1  0  0  0  0
 56 63  1  0  0  0  0
 57 63  1  0  0  0  0
 58 63  1  0  0  0  0
 59 75  1  0  0  0  0
 60 82  1  0  0  0  0
 61 63  1  0  0  0  0
 61 74  1  0  0  0  0
 62 75  1  0  0  0  0
 64 65  1  0  0  0  0
M  CHG  1  75   1
M  ISO  4  38 100  60 101  72 100  82 101
M  END
> <Batch ID>
0100

> <Smiles>
CNC(C)C(=O)NC(C(=O)N1Cc2cc([101O:1][101CH2:1]C3CCN(c4cc([100NH:0][100C:0](=O)N5CCCC(n6nc(-c7ccc(Oc8ccc(F)cc8F)cc7)c(C(N)=O)c6N)C5)cc(F)c4N)C3)ccc2CC1C(=O)NC1CCCc2ccccc21)C(C)(C)C

> <Shape>
0.252

> <Color>
0.086

> <Negative vol penalty>
0.000

$$$$

  -OEChem-04052300573D

 85 93  0     1  0  0  0  0  0999 V2000
  -16.8870  -28.9127   24.3706 C   0  0  0  0  0  0  0  0  0  0  0  0
  -17.5252  -27.9427   23.6042 C   0  0  0  0  0  0  0  0  0  0  0  0
  -25.6716  -14.0876   21.3213 C   0  0  0  0  0  0  0  0  0  0  0  0
  -26.7706  -12.1377   20.4119 C   0  0  0  0  0  0  0  0  0  0  0  0
  -29.0413  -22.8722   21.0956 C   0  0  0  0  0  0  0  0  0  0  0  0
  -17.2916  -30.2442   24.2856 C   0  0  0  0  0  0  0  0  0  0  0  0
  -18.5677  -28.3040   22.7515 C   0  0  0  0  0  0  0  0  0  0  0  0
  -22.5089  -25.1383   23.0518 C   0  0  0  0  0  0  0  0  0  0  0  0
  -24.4310  -13.4836   21.1170 C   0  0  0  0  0  0  0  0  0  0  0  0
  -25.5300  -11.5337   20.2077 C   0  0  0  0  0  0  0  0  0  0  0  0
  -28.0175  -23.2823   21.9495 C   0  0  0  0  0  0  0  0  0  0  0  0
  -22.3975  -23.9180   22.3868 C   0  0  0  0  0  0  0  0  0  0  0  0
  -22.6687   -9.3318   19.7800 C   0  0  0  0  0  0  0  0  0  0  0  0
  -22.5278   -7.9954   20.1538 C   0  0  0  0  0  0  0  0  0  0  0  0
  -27.7390  -20.9380   20.4630 C   0  0  0  0  0  0  0  0  0  0  0  0
  -23.7151  -24.7963   20.5669 C   0  0  0  0  0  0  0  0  0  0  0  0
  -23.0713   -8.5763   22.4351 C   0  0  0  0  0  0  0  0  0  0  0  0
  -26.8414  -13.4146   20.9686 C   0  0  0  0  0  0  0  0  0  0  0  0
  -28.9021  -21.7001   20.3523 C   0  0  0  0  0  0  0  0  0  0  0  0
  -28.9301  -13.9561   22.3295 C   0  0  0  0  0  0  0  0  0  0  0  0
  -18.3460  -30.6205   23.4387 C   0  0  0  0  0  0  0  0  0  0  0  0
  -23.2162  -26.2020   22.4734 C   0  0  0  0  0  0  0  0  0  0  0  0
  -18.9859  -29.6421   22.6541 C   0  0  0  0  0  0  0  0  0  0  0  0
  -23.8361  -26.0282   21.2278 C   0  0  0  0  0  0  0  0  0  0  0  0
  -24.3602  -12.2067   20.5603 C   0  0  0  0  0  0  0  0  0  0  0  0
  -22.9982  -23.7477   21.1429 C   0  0  0  0  0  0  0  0  0  0  0  0
  -26.8544  -22.5202   22.0602 C   0  0  0  0  0  0  0  0  0  0  0  0
  -23.0110  -10.2904   20.7337 C   0  0  0  0  0  0  0  0  0  0  0  0
  -26.7152  -21.3481   21.3170 C   0  0  0  0  0  0  0  0  0  0  0  0
  -22.7291   -7.6176   21.4814 C   0  0  0  0  0  0  0  0  0  0  0  0
  -23.2123   -9.9127   22.0612 C   0  0  0  0  0  0  0  0  0  0  0  0
  -28.1232  -14.0382   21.1788 C   0  0  0  0  0  0  0  0  0  0  0  0
  -30.0338  -14.7168   22.0300 C   0  0  0  0  0  0  0  0  0  0  0  0
  -29.9916  -21.2646   19.4412 C   0  0  0  0  0  0  0  0  0  0  0  0
  -28.7023  -13.2548   23.5591 C   0  0  0  0  0  0  0  0  0  0  0  0
  -22.4635  -29.1368   21.5120 C   0  0  0  0  0  0  0  0  0  0  0  0
  -25.6635  -29.3830   21.0416 C   0  0  0  0  0  0  0  0  0  0  0  0
  -28.6377  -27.8092   20.4721 C   0  0  0  0  0  0  0  0  0  0  0  0
  -30.9858  -19.2818   18.3440 C   0  0  0  0  0  0  0  0  0  0  0  0
  -18.7167  -32.0795   23.3451 C   0  0  0  0  0  0  0  0  0  0  0  0
  -23.3497  -27.5034   23.2157 C   0  0  0  0  0  0  0  0  0  0  0  0
  -24.6238  -27.1324   20.5730 C   0  0  0  0  0  0  0  0  0  0  0  0
  -20.0777  -32.3218   22.6975 C   0  0  0  0  0  0  0  0  0  0  0  0
  -32.6782  -16.1783   18.3086 C   0  0  0  0  0  0  0  0  0  0  0  0
  -20.2196  -31.4905   21.4264 C   0  0  0  0  0  0  0  0  0  0  0  0
  -31.7853  -15.2704   19.1587 C   0  0  0  0  0  0  0  0  0  0  0  0
  -31.8568  -17.1396   17.4506 C   0  0  0  0  0  0  0  0  0  0  0  0
  -29.9706  -17.0235   19.0275 C   0  0  0  0  0  0  0  0  0  0  0  0
  -20.1373  -29.9908   21.7360 C   0  0  1  0  0  0  0  0  0  0  0  0
  -23.6596  -28.6842   22.3007 C   0  0  1  0  0  0  0  0  0  0  0  0
  -30.7514  -16.0851   19.9617 C   0  0  1  0  0  0  0  0  0  0  0  0
  -31.1164  -27.5507   20.1777 C   0  0  0  0  0  0  0  0  0  0  0  0
  -25.0497  -30.2603   18.1844 C   0  0  0  0  0  0  0  0  0  0  0  0
  -27.4395  -29.7940   17.6019 C   0  0  0  0  0  0  0  0  0  0  0  0
  -26.8884  -31.5398   19.2963 C   0  0  0  0  0  0  0  0  0  0  0  0
  -29.0605  -27.4322   23.3770 C   0  0  0  0  0  0  0  0  0  0  0  0
  -26.0834  -24.1404   23.6211 C   0  0  0  0  0  0  0  0  0  0  0  0
  -23.3606  -20.1923   20.5605 C   0  0  0  0  0  0  0  0  0  0  0  0
  -22.7705  -21.3854   21.2958 C   0  0  0  0  0  0  0  0  0  1  0  0
  -24.8281  -20.4019   20.2218 C   0  0  0  0  0  0  0  0  0  0  0  0
  -26.6000  -29.0997   19.8919 C   0  0  1  0  0  0  0  0  0  0  0  0
  -29.9998  -27.9631   21.1243 C   0  0  2  0  0  0  0  0  0  0  0  0
  -26.4780  -30.1531   18.7548 C   0  0  0  0  0  0  0  0  0  0  0  0
  -28.6679  -14.7918   20.2199 N   0  0  0  0  0  0  0  0  0  0  0  0
  -29.8287  -15.1902   20.7674 N   0  0  0  0  0  0  0  0  0  0  0  0
  -24.7203  -28.3881   21.3356 N   0  0  0  0  0  0  0  0  0  0  0  0
  -30.9093  -17.8792   18.2864 N   0  0  0  0  0  0  0  0  0  0  0  0
  -31.1499  -15.0203   22.7261 N   0  0  0  0  0  0  0  0  0  0  0  0
  -27.5163  -12.5214   23.7003 N   0  0  0  0  0  0  0  0  0  0  0  0
  -30.0651  -19.8919   19.2032 N   0  0  0  0  0  0  0  0  0  0  0  0
  -21.3882  -29.5199   22.2908 N   0  0  0  0  0  0  0  0  0  0  0  0
  -27.9357  -28.9959   20.4694 N   0  0  0  0  0  0  0  0  0  0  0  0
  -30.0861  -27.1185   22.3491 N   0  3  0  0  0  0  0  0  0  0  0  0
  -30.7199  -22.1121   18.9319 O   0  0  0  0  0  0  0  0  0  0  0  0
  -29.5186  -13.2912   24.5110 O   0  0  0  0  0  0  0  0  0  0  0  0
  -22.5130  -29.1397   20.2876 O   0  0  0  0  0  0  0  0  0  0  0  0
  -25.7698  -30.4446   21.6606 O   0  0  0  0  0  0  0  0  0  0  0  0
  -28.2380  -26.7437   20.0079 O   0  0  0  0  0  0  0  0  0  0  0  0
  -31.8259  -19.9324   17.7147 O   0  0  0  0  0  0  0  0  0  0  0  0
  -23.1498  -11.6169   20.3611 O   0  0  0  0  0  0  0  0  0  0  0  0
  -25.8617  -22.9314   22.8977 O   0  0  0  0  0  0  0  0  0  0  0  0
  -22.8904  -22.5579   20.4913 O   0  0  0  0  0  0  0  0  0  1  0  0
  -25.5763  -20.5918   21.4151 O   0  0  0  0  0  0  0  0  0  0  0  0
  -22.5922   -6.3345   21.8405 F   0  0  0  0  0  0  0  0  0  0  0  0
  -23.5401  -10.8293   22.9821 F   0  0  0  0  0  0  0  0  0  0  0  0
  1  2  1  0  0  0  0
  1  6  2  0  0  0  0
  2  7  2  0  0  0  0
  3  9  2  0  0  0  0
  3 18  1  0  0  0  0
  4 10  1  0  0  0  0
  4 18  2  0  0  0  0
  5 11  2  0  0  0  0
  5 19  1  0  0  0  0
  6 21  1  0  0  0  0
  7 23  1  0  0  0  0
  8 12  2  0  0  0  0
  8 22  1  0  0  0  0
  9 25  1  0  0  0  0
 10 25  2  0  0  0  0
 11 27  1  0  0  0  0
 12 26  1  0  0  0  0
 13 14  2  0  0  0  0
 13 28  1  0  0  0  0
 14 30  1  0  0  0  0
 15 19  2  0  0  0  0
 15 29  1  0  0  0  0
 16 24  1  0  0  0  0
 16 26  2  0  0  0  0
 17 30  2  0  0  0  0
 17 31  1  0  0  0  0
 18 32  1  0  0  0  0
 19 34  1  0  0  0  0
 20 32  1  0  0  0  0
 20 33  2  0  0  0  0
 20 35  1  0  0  0  0
 21 23  2  0  0  0  0
 21 40  1  0  0  0  0
 22 24  2  0  0  0  0
 22 41  1  0  0  0  0
 23 49  1  0  0  0  0
 24 42  1  0  0  0  0
 25 80  1  0  0  0  0
 26 82  1  0  0  0  0
 27 29  2  0  0  0  0
 27 81  1  0  0  0  0
 28 31  2  0  0  0  0
 28 80  1  0  0  0  0
 29 83  1  0  0  0  0
 30 84  1  0  0  0  0
 31 85  1  0  0  0  0
 32 64  2  0  0  0  0
 33 65  1  0  0  0  0
 33 68  1  0  0  0  0
 34 70  1  0  0  0  0
 34 74  2  0  0  0  0
 35 69  1  0  0  0  0
 35 75  2  0  0  0  0
 36 50  1  0  0  0  0
 36 71  1  0  0  0  0
 36 76  2  0  0  0  0
 37 61  1  0  0  0  0
 37 66  1  0  0  0  0
 37 77  2  0  0  0  0
 38 62  1  0  0  0  0
 38 72  1  0  0  0  0
 38 78  2  0  0  0  0
 39 67  1  0  0  0  0
 39 70  1  0  0  0  0
 39 79  2  0  0  0  0
 40 43  1  0  0  0  0
 41 50  1  0  0  0  0
 42 66  1  0  0  0  0
 43 45  1  0  0  0  0
 44 46  1  0  0  0  0
 44 47  1  0  0  0  0
 45 49  1  0  0  0  0
 46 51  1  0  0  0  0
 47 67  1  0  0  0  0
 48 51  1  0  0  0  0
 48 67  1  0  0  0  0
 49 71  1  0  0  0  0
 50 66  1  0  0  0  0
 51 65  1  0  0  0  0
 52 62  1  0  0  0  0
 53 63  1  0  0  0  0
 54 63  1  0  0  0  0
 55 63  1  0  0  0  0
 56 73  1  0  0  0  0
 57 81  1  0  0  0  0
 58 59  1  0  0  0  0
 58 60  1  0  0  0  0
 59 82  1  0  0  0  0
 60 83  1  0  0  0  0
 61 63  1  0  0  0  0
 61 72  1  0  0  0  0
 62 73  1  0  0  0  0
 64 65  1  0  0  0  0
M  CHG  1  73   1
M  ISO  4  39 100  59 101  70 100  82 101
M  END
> <Batch ID>
0100

> <Smiles>
CNC(C)C(=O)NC(C(=O)N1Cc2cc([101O:1][101CH2:1]CCOc3cc(C(=O)[100NH:0][100C:0](=O)N4CCCC(n5nc(-c6ccc(Oc7ccc(F)cc7F)cc6)c(C(N)=O)c5N)C4)ccc3OC)ccc2CC1C(=O)NC1CCCc2ccccc21)C(C)(C)C

> <Shape>
0.266

> <Color>
0.089

> <Negative vol penalty>
0.000

$$$$

  -OEChem-04052300573D

 88 96  0     1  0  0  0  0  0999 V2000
  -20.9843  -26.5678   26.0470 C   0  0  0  0  0  0  0  0  0  0  0  0
  -22.0359  -26.2767   25.1839 C   0  0  0  0  0  0  0  0  0  0  0  0
  -22.9821  -10.9925   22.1513 C   0  0  0  0  0  0  0  0  0  0  0  0
  -23.8093  -12.6907   23.6576 C   0  0  0  0  0  0  0  0  0  0  0  0
  -19.7720  -27.0295   25.5360 C   0  0  0  0  0  0  0  0  0  0  0  0
  -21.8754  -26.4460   23.8092 C   0  0  0  0  0  0  0  0  0  0  0  0
  -25.8409  -28.7474   21.6591 C   0  0  0  0  0  0  0  0  0  0  0  0
  -31.7146  -18.7140   19.5002 C   0  0  0  0  0  0  0  0  0  0  0  0
  -31.3840  -19.9629   20.0261 C   0  0  0  0  0  0  0  0  0  0  0  0
  -22.1903  -10.4708   23.1742 C   0  0  0  0  0  0  0  0  0  0  0  0
  -23.0174  -12.1690   24.6806 C   0  0  0  0  0  0  0  0  0  0  0  0
  -26.9760  -27.9729   21.4238 C   0  0  0  0  0  0  0  0  0  0  0  0
  -19.2510  -11.2105   24.6730 C   0  0  0  0  0  0  0  0  0  0  0  0
  -17.9296  -10.8845   24.3678 C   0  0  0  0  0  0  0  0  0  0  0  0
  -26.3292  -27.7380   19.1118 C   0  0  0  0  0  0  0  0  0  0  0  0
  -29.4625  -18.4719   18.6596 C   0  0  0  0  0  0  0  0  0  0  0  0
  -18.3537   -8.5874   24.9848 C   0  0  0  0  0  0  0  0  0  0  0  0
  -23.7916  -12.1025   22.3930 C   0  0  0  0  0  0  0  0  0  0  0  0
  -24.2532  -13.6385   20.4093 C   0  0  0  0  0  0  0  0  0  0  0  0
  -19.5997  -27.2137   24.1550 C   0  0  0  0  0  0  0  0  0  0  0  0
  -24.9342  -29.0145   20.6232 C   0  0  0  0  0  0  0  0  0  0  0  0
  -20.6592  -26.9092   23.2791 C   0  0  0  0  0  0  0  0  0  0  0  0
  -25.1847  -28.5184   19.3358 C   0  0  0  0  0  0  0  0  0  0  0  0
  -30.7538  -17.9685   18.8169 C   0  0  0  0  0  0  0  0  0  0  0  0
  -30.0927  -20.4663   19.8689 C   0  0  0  0  0  0  0  0  0  0  0  0
  -22.2080  -11.0590   24.4389 C   0  0  0  0  0  0  0  0  0  0  0  0
  -27.2188  -27.4656   20.1507 C   0  0  0  0  0  0  0  0  0  0  0  0
  -20.1239  -10.2249   25.1340 C   0  0  0  0  0  0  0  0  0  0  0  0
  -29.1319  -19.7208   19.1856 C   0  0  0  0  0  0  0  0  0  0  0  0
  -17.4809   -9.5730   24.5237 C   0  0  0  0  0  0  0  0  0  0  0  0
  -19.6752   -8.9134   25.2899 C   0  0  0  0  0  0  0  0  0  0  0  0
  -24.6102  -12.6416   21.3368 C   0  0  0  0  0  0  0  0  0  0  0  0
  -25.3695  -13.7925   19.6240 C   0  0  0  0  0  0  0  0  0  0  0  0
  -23.0226  -14.3609   20.2699 C   0  0  0  0  0  0  0  0  0  0  0  0
  -21.8660  -28.3654   20.1048 C   0  0  0  0  0  0  0  0  0  0  0  0
  -22.3094  -30.2498   17.5020 C   0  0  0  0  0  0  0  0  0  0  0  0
  -24.4722  -31.5726   15.2173 C   0  0  0  0  0  0  0  0  0  0  0  0
  -30.8998  -14.2999   19.0730 C   0  0  0  0  0  0  0  0  0  0  0  0
  -18.2555  -27.6699   23.6457 C   0  0  0  0  0  0  0  0  0  0  0  0
  -23.7284  -29.8740   20.8870 C   0  0  0  0  0  0  0  0  0  0  0  0
  -24.2529  -28.7932   18.1849 C   0  0  0  0  0  0  0  0  0  0  0  0
  -18.2900  -28.1789   22.2069 C   0  0  0  0  0  0  0  0  0  0  0  0
  -29.5762  -11.0024   19.2986 C   0  0  0  0  0  0  0  0  0  0  0  0
  -19.0749  -27.2182   21.3194 C   0  0  0  0  0  0  0  0  0  0  0  0
  -28.1395  -11.2169   19.7782 C   0  0  0  0  0  0  0  0  0  0  0  0
  -30.5383  -12.0048   19.9322 C   0  0  0  0  0  0  0  0  0  0  0  0
  -28.7168  -13.6340   20.2508 C   0  0  0  0  0  0  0  0  0  0  0  0
  -20.5319  -27.1036   21.7837 C   0  0  1  0  0  0  0  0  0  0  0  0
  -22.6053  -29.6537   19.8782 C   0  0  1  0  0  0  0  0  0  0  0  0
  -27.7006  -12.6824   19.5964 C   0  0  2  0  0  0  0  0  0  0  0  0
  -31.6863  -17.2531   14.4377 C   0  0  0  0  0  0  0  0  0  0  0  0
  -24.5346  -33.0458   13.1868 C   0  0  0  0  0  0  0  0  0  0  0  0
  -21.1925  -27.9665   15.8140 C   0  0  0  0  0  0  0  0  0  0  0  0
  -22.1468  -29.0889   13.7898 C   0  0  0  0  0  0  0  0  0  0  0  0
  -20.3996  -30.2424   15.1460 C   0  0  0  0  0  0  0  0  0  0  0  0
  -26.2309  -33.5405   16.5564 C   0  0  0  0  0  0  0  0  0  0  0  0
  -27.6112  -20.9718   17.8521 C   0  0  0  0  0  0  0  0  0  0  0  0
  -31.8328  -17.4565   15.9378 C   0  0  0  0  0  0  0  0  0  0  0  0
  -30.0491  -23.8126   21.6177 C   0  0  0  0  0  0  0  0  0  0  0  0
  -29.5188  -24.6853   20.4793 C   0  0  0  0  0  0  0  0  0  0  0  0
  -30.9227  -16.5059   16.7215 C   0  0  0  0  0  0  0  0  0  0  0  0
  -30.7175  -22.5354   21.1155 C   0  0  0  0  0  0  0  0  0  0  0  0
  -28.8221  -25.9326   21.0083 C   0  0  0  0  0  0  0  0  0  1  0  0
  -31.1078  -16.6335   18.2543 C   0  0  2  0  0  0  0  0  0  0  0  0
  -22.7404  -30.0165   16.0741 C   0  0  1  0  0  0  0  0  0  0  0  0
  -24.6509  -32.9893   14.7021 C   0  0  2  0  0  0  0  0  0  0  0  0
  -21.6366  -29.3216   15.2279 C   0  0  0  0  0  0  0  0  0  0  0  0
  -25.8558  -12.1937   21.1586 N   0  0  0  0  0  0  0  0  0  0  0  0
  -26.2913  -12.9124   20.1098 N   0  0  0  0  0  0  0  0  0  0  0  0
  -23.0844  -29.6335   18.4946 N   0  0  0  0  0  0  0  0  0  0  0  0
  -30.0655  -13.3754   19.7226 N   0  0  0  0  0  0  0  0  0  0  0  0
  -25.6427  -14.5934   18.5722 N   0  0  0  0  0  0  0  0  0  0  0  0
  -21.9777  -14.0788   21.1605 N   0  0  0  0  0  0  0  0  0  0  0  0
  -29.7776  -21.7082   20.3969 N   0  0  0  0  0  0  0  0  0  0  0  0
  -21.2907  -28.2596   21.3567 N   0  0  0  0  0  0  0  0  0  0  0  0
  -23.1611  -31.3144   15.5575 N   0  0  0  0  0  0  0  0  0  0  0  0
  -30.3722  -15.5749   18.9093 N   0  0  0  0  0  0  0  0  0  0  0  0
  -25.9894  -33.5168   15.0907 N   0  3  0  0  0  0  0  0  0  0  0  0
  -22.8488  -15.2191   19.3717 O   0  0  0  0  0  0  0  0  0  0  0  0
  -21.8197  -27.5299   19.2096 O   0  0  0  0  0  0  0  0  0  0  0  0
  -21.3257  -30.9588   17.7286 O   0  0  0  0  0  0  0  0  0  0  0  0
  -25.4019  -30.7736   15.3055 O   0  0  0  0  0  0  0  0  0  0  0  0
  -32.0290  -14.0091   18.6640 O   0  0  0  0  0  0  0  0  0  0  0  0
  -21.4353  -10.5503   25.4373 O   0  0  0  0  0  0  0  0  0  0  0  0
  -27.8649  -20.1954   19.0209 O   0  0  0  0  0  0  0  0  0  0  0  0
  -28.3257  -26.7087   19.9185 O   0  0  0  0  0  0  0  0  0  1  0  0
  -16.2115   -9.2605   24.2321 F   0  0  0  0  0  0  0  0  0  0  0  0
  -20.5088   -7.9626   25.7335 F   0  0  0  0  0  0  0  0  0  0  0  0
  1  2  1  0  0  0  0
  1  5  2  0  0  0  0
  2  6  2  0  0  0  0
  3 10  2  0  0  0  0
  3 18  1  0  0  0  0
  4 11  1  0  0  0  0
  4 18  2  0  0  0  0
  5 20  1  0  0  0  0
  6 22  1  0  0  0  0
  7 12  2  0  0  0  0
  7 21  1  0  0  0  0
  8  9  2  0  0  0  0
  8 24  1  0  0  0  0
  9 25  1  0  0  0  0
 10 26  1  0  0  0  0
 11 26  2  0  0  0  0
 12 27  1  0  0  0  0
 13 14  2  0  0  0  0
 13 28  1  0  0  0  0
 14 30  1  0  0  0  0
 15 23  1  0  0  0  0
 15 27  2  0  0  0  0
 16 24  2  0  0  0  0
 16 29  1  0  0  0  0
 17 30  2  0  0  0  0
 17 31  1  0  0  0  0
 18 32  1  0  0  0  0
 19 32  1  0  0  0  0
 19 33  2  0  0  0  0
 19 34  1  0  0  0  0
 20 22  2  0  0  0  0
 20 39  1  0  0  0  0
 21 23  2  0  0  0  0
 21 40  1  0  0  0  0
 22 48  1  0  0  0  0
 23 41  1  0  0  0  0
 24 64  1  0  0  0  0
 25 29  2  0  0  0  0
 25 74  1  0  0  0  0
 26 84  1  0  0  0  0
 27 86  1  0  0  0  0
 28 31  2  0  0  0  0
 28 84  1  0  0  0  0
 29 85  1  0  0  0  0
 30 87  1  0  0  0  0
 31 88  1  0  0  0  0
 32 68  2  0  0  0  0
 33 69  1  0  0  0  0
 33 72  1  0  0  0  0
 34 73  1  0  0  0  0
 34 79  2  0  0  0  0
 35 49  1  0  0  0  0
 35 75  1  0  0  0  0
 35 80  2  0  0  0  0
 36 65  1  0  0  0  0
 36 70  1  0  0  0  0
 36 81  2  0  0  0  0
 37 66  1  0  0  0  0
 37 76  1  0  0  0  0
 37 82  2  0  0  0  0
 38 71  1  0  0  0  0
 38 77  1  0  0  0  0
 38 83  2  0  0  0  0
 39 42  1  0  0  0  0
 40 49  1  0  0  0  0
 41 70  1  0  0  0  0
 42 44  1  0  0  0  0
 43 45  1  0  0  0  0
 43 46  1  0  0  0  0
 44 48  1  0  0  0  0
 45 50  1  0  0  0  0
 46 71  1  0  0  0  0
 47 50  1  0  0  0  0
 47 71  1  0  0  0  0
 48 75  1  0  0  0  0
 49 70  1  0  0  0  0
 50 69  1  0  0  0  0
 51 58  1  0  0  0  0
 52 66  1  0  0  0  0
 53 67  1  0  0  0  0
 54 67  1  0  0  0  0
 55 67  1  0  0  0  0
 56 78  1  0  0  0  0
 57 85  1  0  0  0  0
 58 61  1  0  0  0  0
 59 60  1  0  0  0  0
 59 62  1  0  0  0  0
 60 63  1  0  0  0  0
 61 64  1  0  0  0  0
 62 74  1  0  0  0  0
 63 86  1  0  0  0  0
 64 77  1  0  0  0  0
 65 67  1  0  0  0  0
 65 76  1  0  0  0  0
 66 78  1  0  0  0  0
 68 69  1  0  0  0  0
M  CHG  1  78   1
M  ISO  4  38 100  63 101  77 100  86 101
M  END
> <Batch ID>
0100

> <Smiles>
CCCC([100NH:0][100C:0](=O)N1CCCC(n2nc(-c3ccc(Oc4ccc(F)cc4F)cc3)c(C(N)=O)c2N)C1)c1ccc(NCCC[101CH2:1][101O:1]c2ccc3c(c2)CN(C(=O)C(NC(=O)C(C)NC)C(C)(C)C)C(C(=O)NC2CCCc4ccccc42)C3)c(OC)c1

> <Shape>
0.226

> <Color>
0.108

> <Negative vol penalty>
0.000

$$$$

  -OEChem-04052300573D

 84 92  0     1  0  0  0  0  0999 V2000
  -23.9564   -8.0595   21.7844 C   0  0  0  0  0  0  0  0  0  0  0  0
  -24.6119   -9.1757   21.2747 C   0  0  0  0  0  0  0  0  0  0  0  0
  -22.4134  -28.9708   20.7751 C   0  0  0  0  0  0  0  0  0  0  0  0
  -22.9299  -26.6957   21.4031 C   0  0  0  0  0  0  0  0  0  0  0  0
  -22.5786   -8.0971   21.9944 C   0  0  0  0  0  0  0  0  0  0  0  0
  -23.8896  -10.3298   20.9735 C   0  0  0  0  0  0  0  0  0  0  0  0
  -26.1759  -14.5375   22.6207 C   0  0  0  0  0  0  0  0  0  0  0  0
  -31.3484  -23.5687   17.7565 C   0  0  0  0  0  0  0  0  0  0  0  0
  -31.2975  -22.2348   18.1611 C   0  0  0  0  0  0  0  0  0  0  0  0
  -21.0756  -28.7590   21.1081 C   0  0  0  0  0  0  0  0  0  0  0  0
  -21.5920  -26.4840   21.7362 C   0  0  0  0  0  0  0  0  0  0  0  0
  -27.2450  -15.0183   21.8660 C   0  0  0  0  0  0  0  0  0  0  0  0
  -17.5921  -28.9271   22.1340 C   0  0  0  0  0  0  0  0  0  0  0  0
  -16.9449  -29.9139   22.8775 C   0  0  0  0  0  0  0  0  0  0  0  0
  -25.7872  -16.6509   20.8519 C   0  0  0  0  0  0  0  0  0  0  0  0
  -30.1356  -24.2174   19.7428 C   0  0  0  0  0  0  0  0  0  0  0  0
  -18.5488  -29.6222   24.6607 C   0  0  0  0  0  0  0  0  0  0  0  0
  -23.3406  -27.9391   20.9225 C   0  0  0  0  0  0  0  0  0  0  0  0
  -25.7464  -28.6229   21.4247 C   0  0  0  0  0  0  0  0  0  0  0  0
  -21.8405   -9.2555   21.7047 C   0  0  0  0  0  0  0  0  0  0  0  0
  -24.8998  -15.1036   22.4884 C   0  0  0  0  0  0  0  0  0  0  0  0
  -22.5004  -10.3825   21.1785 C   0  0  0  0  0  0  0  0  0  0  0  0
  -24.7041  -16.1772   21.6079 C   0  0  0  0  0  0  0  0  0  0  0  0
  -30.7674  -24.5600   18.5474 C   0  0  0  0  0  0  0  0  0  0  0  0
  -30.6656  -21.8922   19.3565 C   0  0  0  0  0  0  0  0  0  0  0  0
  -20.6649  -27.5157   21.5887 C   0  0  0  0  0  0  0  0  0  0  0  0
  -27.0502  -16.0733   20.9793 C   0  0  0  0  0  0  0  0  0  0  0  0
  -18.7176  -28.2877   22.6538 C   0  0  0  0  0  0  0  0  0  0  0  0
  -17.4232  -30.2615   24.1409 C   0  0  0  0  0  0  0  0  0  0  0  0
  -30.0846  -22.8835   20.1474 C   0  0  0  0  0  0  0  0  0  0  0  0
  -19.1959  -28.6353   23.9171 C   0  0  0  0  0  0  0  0  0  0  0  0
  -24.7226  -28.1570   20.5781 C   0  0  0  0  0  0  0  0  0  0  0  0
  -26.8637  -28.6553   20.6265 C   0  0  0  0  0  0  0  0  0  0  0  0
  -29.5896  -19.8836   19.3529 C   0  0  0  0  0  0  0  0  0  0  0  0
  -25.6923  -28.9931   22.8087 C   0  0  0  0  0  0  0  0  0  0  0  0
  -29.4677  -18.4480   19.7488 C   0  0  0  0  0  0  0  0  0  0  0  0
  -22.0549  -14.0305   21.5615 C   0  0  0  0  0  0  0  0  0  0  0  0
  -30.1259  -26.2096   16.7969 C   0  0  0  0  0  0  0  0  0  0  0  0
  -21.0718  -16.9755   22.5010 C   0  0  0  0  0  0  0  0  0  0  0  0
  -21.8640  -20.2412   23.0964 C   0  0  0  0  0  0  0  0  0  0  0  0
  -20.3457   -9.2327   21.9038 C   0  0  0  0  0  0  0  0  0  0  0  0
  -23.7628  -14.5911   23.3293 C   0  0  0  0  0  0  0  0  0  0  0  0
  -23.3582  -16.8330   21.4438 C   0  0  0  0  0  0  0  0  0  0  0  0
  -19.7109  -10.6209   21.9111 C   0  0  0  0  0  0  0  0  0  0  0  0
  -27.3627  -28.1666   15.6245 C   0  0  0  0  0  0  0  0  0  0  0  0
  -20.2400  -11.4559   20.7493 C   0  0  0  0  0  0  0  0  0  0  0  0
  -26.4987  -28.3510   16.8714 C   0  0  0  0  0  0  0  0  0  0  0  0
  -28.0380  -26.7989   15.6104 C   0  0  0  0  0  0  0  0  0  0  0  0
  -27.9838  -26.6912   18.0816 C   0  0  0  0  0  0  0  0  0  0  0  0
  -21.7554  -11.6614   20.8628 C   0  0  1  0  0  0  0  0  0  0  0  0
  -22.3926  -14.9044   22.7363 C   0  0  1  0  0  0  0  0  0  0  0  0
  -27.3076  -28.0719   18.1505 C   0  0  2  0  0  0  0  0  0  0  0  0
  -20.8417  -22.4161   23.8189 C   0  0  0  0  0  0  0  0  0  0  0  0
  -19.8161  -17.3000   19.7391 C   0  0  0  0  0  0  0  0  0  0  0  0
  -19.6625  -19.7607   20.1747 C   0  0  0  0  0  0  0  0  0  0  0  0
  -18.4193  -18.1586   21.6275 C   0  0  0  0  0  0  0  0  0  0  0  0
  -23.6158  -20.4075   25.4760 C   0  0  0  0  0  0  0  0  0  0  0  0
  -28.0639  -17.9258   19.8855 C   0  0  0  0  0  0  0  0  0  1  0  0
  -30.8209  -25.9866   18.1164 C   0  0  2  0  0  0  0  0  0  0  0  0
  -20.9342  -18.3210   21.8304 C   0  0  1  0  0  0  0  0  0  0  0  0
  -21.5593  -21.1537   24.2707 C   0  0  2  0  0  0  0  0  0  0  0  0
  -19.7331  -18.3717   20.8444 C   0  0  0  0  0  0  0  0  0  0  0  0
  -25.1514  -27.9113   19.3373 N   0  0  0  0  0  0  0  0  0  0  0  0
  -30.6142  -20.5479   19.7618 N   0  0  0  0  0  0  0  0  0  0  0  0
  -26.4570  -28.2240   19.3982 N   0  0  0  0  0  0  0  0  0  0  0  0
  -22.2765  -16.2921   22.2834 N   0  0  0  0  0  0  0  0  0  0  0  0
  -28.7775  -26.5628   16.8516 N   0  0  0  0  0  0  0  0  0  0  0  0
  -28.1446  -29.0104   20.8626 N   0  0  0  0  0  0  0  0  0  0  0  0
  -24.4643  -28.8998   23.4778 N   0  0  0  0  0  0  0  0  0  0  0  0
  -22.0552  -12.6786   21.8476 N   0  0  0  0  0  0  0  0  0  0  0  0
  -20.8683  -19.3071   22.9036 N   0  0  0  0  0  0  0  0  0  0  0  0
  -32.2111  -26.5414   18.0238 N   0  3  0  0  0  0  0  0  0  0  0  0
  -22.8201  -21.5506   24.9590 N   0  3  0  0  0  0  0  0  0  0  0  0
  -26.6994  -29.4104   23.4293 O   0  0  0  0  0  0  0  0  0  0  0  0
  -30.4924  -17.8062   19.9173 O   0  0  0  0  0  0  0  0  0  0  0  0
  -21.8107  -14.5447   20.4764 O   0  0  0  0  0  0  0  0  0  0  0  0
  -30.7648  -26.0763   15.7498 O   0  0  0  0  0  0  0  0  0  0  0  0
  -20.1474  -16.5499   23.1981 O   0  0  0  0  0  0  0  0  0  0  0  0
  -22.8817  -20.3489   22.4157 O   0  0  0  0  0  0  0  0  0  0  0  0
  -19.3595  -27.3088   21.9140 O   0  0  0  0  0  0  0  0  0  0  0  0
  -28.0919  -16.5441   20.2410 O   0  0  0  0  0  0  0  0  0  1  0  0
  -16.8025  -31.2102   24.8542 F   0  0  0  0  0  0  0  0  0  0  0  0
  -29.4752  -22.5635   21.2977 F   0  0  0  0  0  0  0  0  0  0  0  0
  -20.2775  -28.0254   24.4213 F   0  0  0  0  0  0  0  0  0  0  0  0
  1  2  1  0  0  0  0
  1  5  2  0  0  0  0
  2  6  2  0  0  0  0
  3 10  2  0  0  0  0
  3 18  1  0  0  0  0
  4 11  1  0  0  0  0
  4 18  2  0  0  0  0
  5 20  1  0  0  0  0
  6 22  1  0  0  0  0
  7 12  2  0  0  0  0
  7 21  1  0  0  0  0
  8  9  2  0  0  0  0
  8 24  1  0  0  0  0
  9 25  1  0  0  0  0
 10 26  1  0  0  0  0
 11 26  2  0  0  0  0
 12 27  1  0  0  0  0
 13 14  2  0  0  0  0
 13 28  1  0  0  0  0
 14 29  1  0  0  0  0
 15 23  1  0  0  0  0
 15 27  2  0  0  0  0
 16 24  2  0  0  0  0
 16 30  1  0  0  0  0
 17 29  2  0  0  0  0
 17 31  1  0  0  0  0
 18 32  1  0  0  0  0
 19 32  1  0  0  0  0
 19 33  2  0  0  0  0
 19 35  1  0  0  0  0
 20 22  2  0  0  0  0
 20 41  1  0  0  0  0
 21 23  2  0  0  0  0
 21 42  1  0  0  0  0
 22 50  1  0  0  0  0
 23 43  1  0  0  0  0
 24 59  1  0  0  0  0
 25 30  2  0  0  0  0
 25 64  1  0  0  0  0
 26 80  1  0  0  0  0
 27 81  1  0  0  0  0
 28 31  2  0  0  0  0
 28 80  1  0  0  0  0
 29 82  1  0  0  0  0
 30 83  1  0  0  0  0
 31 84  1  0  0  0  0
 32 63  2  0  0  0  0
 33 65  1  0  0  0  0
 33 68  1  0  0  0  0
 34 36  1  0  0  0  0
 34 64  2  0  0  0  0
 35 69  1  0  0  0  0
 35 74  2  0  0  0  0
 36 58  1  0  0  0  0
 36 75  2  0  0  0  0
 37 51  1  0  0  0  0
 37 70  1  0  0  0  0
 37 76  2  0  0  0  0
 38 59  1  0  0  0  0
 38 67  1  0  0  0  0
 38 77  2  0  0  0  0
 39 60  1  0  0  0  0
 39 66  1  0  0  0  0
 39 78  2  0  0  0  0
 40 61  1  0  0  0  0
 40 71  1  0  0  0  0
 40 79  2  0  0  0  0
 41 44  1  0  0  0  0
 42 51  1  0  0  0  0
 43 66  1  0  0  0  0
 44 46  1  0  0  0  0
 45 47  1  0  0  0  0
 45 48  1  0  0  0  0
 46 50  1  0  0  0  0
 47 52  1  0  0  0  0
 48 67  1  0  0  0  0
 49 52  1  0  0  0  0
 49 67  1  0  0  0  0
 50 70  1  0  0  0  0
 51 66  1  0  0  0  0
 52 65  1  0  0  0  0
 53 61  1  0  0  0  0
 54 62  1  0  0  0  0
 55 62  1  0  0  0  0
 56 62  1  0  0  0  0
 57 73  1  0  0  0  0
 58 81  1  0  0  0  0
 59 72  1  0  0  0  0
 60 62  1  0  0  0  0
 60 71  1  0  0  0  0
 61 73  1  0  0  0  0
 63 65  1  0  0  0  0
M  CHG  2  72   1  73   1
M  ISO  4  38 100  58 101  59 100  81 101
M  END
> <Batch ID>
0100

> <Smiles>
CNC(C)C(=O)NC(C(=O)N1Cc2cc([101O:1][101CH2:1]C(=O)CNc3ccc([100C:0](=N)[100C:0](=O)N4CCCC(n5nc(-c6ccc(Oc7ccc(F)cc7F)cc6)c(C(N)=O)c5N)C4)cc3F)ccc2CC1C(=O)NC1CCCc2ccccc21)C(C)(C)C

> <Shape>
0.241

> <Color>
0.109

> <Negative vol penalty>
0.000

$$$$

  -OEChem-04052300573D

 87 96  0     1  0  0  0  0  0999 V2000
  -18.8836  -26.3994   23.8035 C   0  0  0  0  0  0  0  0  0  0  0  0
  -19.8573  -26.1743   22.8356 C   0  0  0  0  0  0  0  0  0  0  0  0
  -26.5239  -12.6650   21.5684 C   0  0  0  0  0  0  0  0  0  0  0  0
  -25.7007  -14.0246   19.7488 C   0  0  0  0  0  0  0  0  0  0  0  0
  -18.3664  -27.6813   23.9853 C   0  0  0  0  0  0  0  0  0  0  0  0
  -20.3134  -27.2309   22.0482 C   0  0  0  0  0  0  0  0  0  0  0  0
  -25.3555  -27.2677   21.5784 C   0  0  0  0  0  0  0  0  0  0  0  0
  -31.3715  -23.7302   20.5765 C   0  0  0  0  0  0  0  0  0  0  0  0
  -31.7909  -22.9384   21.6454 C   0  0  0  0  0  0  0  0  0  0  0  0
  -25.3019  -11.9947   21.6205 C   0  0  0  0  0  0  0  0  0  0  0  0
  -24.4786  -13.3542   19.8008 C   0  0  0  0  0  0  0  0  0  0  0  0
  -25.9178  -26.3637   20.6782 C   0  0  0  0  0  0  0  0  0  0  0  0
  -22.5233   -9.6804   21.9932 C   0  0  0  0  0  0  0  0  0  0  0  0
  -22.5504   -8.2902   22.1032 C   0  0  0  0  0  0  0  0  0  0  0  0
  -26.1227  -28.1269   19.0447 C   0  0  0  0  0  0  0  0  0  0  0  0
  -31.7034  -20.9820   20.2305 C   0  0  0  0  0  0  0  0  0  0  0  0
  -23.7583   -8.1486   20.0156 C   0  0  0  0  0  0  0  0  0  0  0  0
  -26.7234  -13.6800   20.6326 C   0  0  0  0  0  0  0  0  0  0  0  0
  -29.2530  -13.8132   20.3313 C   0  0  0  0  0  0  0  0  0  0  0  0
  -18.8234  -28.7560   23.2064 C   0  0  0  0  0  0  0  0  0  0  0  0
  -25.1623  -28.6080   21.2140 C   0  0  0  0  0  0  0  0  0  0  0  0
  -19.8008  -28.5281   22.2189 C   0  0  0  0  0  0  0  0  0  0  0  0
  -25.5602  -29.0465   19.9430 C   0  0  0  0  0  0  0  0  0  0  0  0
  -31.1180  -23.1480   19.3345 C   0  0  0  0  0  0  0  0  0  0  0  0
  -31.9569  -21.5643   21.4724 C   0  0  0  0  0  0  0  0  0  0  0  0
  -31.2839  -21.7739   19.1615 C   0  0  0  0  0  0  0  0  0  0  0  0
  -24.2792  -12.3392   20.7367 C   0  0  0  0  0  0  0  0  0  0  0  0
  -26.2988  -26.7925   19.4101 C   0  0  0  0  0  0  0  0  0  0  0  0
  -23.1137  -10.3048   20.8944 C   0  0  0  0  0  0  0  0  0  0  0  0
  -23.1679   -7.5243   21.1144 C   0  0  0  0  0  0  0  0  0  0  0  0
  -23.7312   -9.5389   19.9056 C   0  0  0  0  0  0  0  0  0  0  0  0
  -27.9854  -14.3732   20.5786 C   0  0  0  0  0  0  0  0  0  0  0  0
  -30.1163  -14.8801   20.3854 C   0  0  0  0  0  0  0  0  0  0  0  0
  -31.4376  -24.0814   17.0593 C   0  0  0  0  0  0  0  0  0  0  0  0
  -29.6176  -12.4504   20.0755 C   0  0  0  0  0  0  0  0  0  0  0  0
  -22.6311  -30.5053   20.9026 C   0  0  0  0  0  0  0  0  0  0  0  0
  -24.8870  -32.7829   20.4064 C   0  0  0  0  0  0  0  0  0  0  0  0
  -28.0081  -33.0521   18.6165 C   0  0  0  0  0  0  0  0  0  0  0  0
  -31.9990  -19.3933   22.6876 C   0  0  0  0  0  0  0  0  0  0  0  0
  -18.2003  -30.1147   23.4072 C   0  0  0  0  0  0  0  0  0  0  0  0
  -24.5791  -29.5767   22.2060 C   0  0  0  0  0  0  0  0  0  0  0  0
  -25.3928  -30.4794   19.5101 C   0  0  0  0  0  0  0  0  0  0  0  0
  -30.7533  -24.7279   15.8696 C   0  0  0  0  0  0  0  0  0  0  0  0
  -19.0073  -31.2525   22.7870 C   0  0  0  0  0  0  0  0  0  0  0  0
  -29.8138  -25.8582   16.2280 C   0  0  0  0  0  0  0  0  0  0  0  0
  -29.2206  -19.8485   20.5158 C   0  0  0  0  0  0  0  0  0  0  0  0
  -19.4349  -30.8919   21.3679 C   0  0  0  0  0  0  0  0  0  0  0  0
  -28.7452  -18.4086   20.3255 C   0  0  0  0  0  0  0  0  0  0  0  0
  -29.6707  -20.1177   21.9521 C   0  0  0  0  0  0  0  0  0  0  0  0
  -29.5469  -24.8956   18.4963 C   0  0  0  0  0  0  0  0  0  0  0  0
  -30.2116  -17.7227   22.2620 C   0  0  0  0  0  0  0  0  0  0  0  0
  -20.3390  -29.6533   21.3620 C   0  0  1  0  0  0  0  0  0  0  0  0
  -23.9552  -30.8032   21.5475 C   0  0  1  0  0  0  0  0  0  0  0  0
  -28.8019  -25.3526   17.2430 C   0  0  1  0  0  0  0  0  0  0  0  0
  -29.8070  -17.4074   20.8135 C   0  0  1  0  0  0  0  0  0  0  0  0
  -30.0018  -34.5202   19.0251 C   0  0  0  0  0  0  0  0  0  0  0  0
  -23.5492  -34.6622   18.4092 C   0  0  0  0  0  0  0  0  0  0  0  0
  -25.8179  -35.1875   17.4899 C   0  0  0  0  0  0  0  0  0  0  0  0
  -25.2762  -35.7409   19.8612 C   0  0  0  0  0  0  0  0  0  0  0  0
  -33.4434  -21.2615   23.4616 C   0  0  0  0  0  0  0  0  0  0  0  0
  -29.8407  -30.7308   18.7248 C   0  0  0  0  0  0  0  0  0  0  0  0
  -27.7795  -26.4347   17.5838 C   0  0  0  0  0  0  0  0  0  1  0  0
  -25.6118  -33.3244   19.1979 C   0  0  1  0  0  0  0  0  0  0  0  0
  -29.3979  -33.1383   19.2211 C   0  0  2  0  0  0  0  0  0  0  0  0
  -25.0544  -34.7019   18.7405 C   0  0  0  0  0  0  0  0  0  0  0  0
  -28.0344  -15.6934   20.7754 N   0  0  0  0  0  0  0  0  0  0  0  0
  -29.3433  -15.9718   20.6518 N   0  0  0  0  0  0  0  0  0  0  0  0
  -30.6820  -23.9900   18.2409 N   0  0  0  0  0  0  0  0  0  0  0  0
  -24.8120  -31.3869   20.5134 N   0  0  0  0  0  0  0  0  0  0  0  0
  -30.6524  -19.1141   22.3872 N   0  0  0  0  0  0  0  0  0  0  0  0
  -31.0315  -21.1631   17.9124 N   0  0  0  0  0  0  0  0  0  0  0  0
  -31.4535  -14.9816   20.2307 N   0  0  0  0  0  0  0  0  0  0  0  0
  -29.6339  -12.0010   18.7480 N   0  0  0  0  0  0  0  0  0  0  0  0
  -21.6813  -30.0055   21.7729 N   0  0  0  0  0  0  0  0  0  0  0  0
  -27.0289  -33.3384   19.5442 N   0  0  0  0  0  0  0  0  0  0  0  0
  -32.3918  -20.7448   22.5791 N   0  0  0  0  0  0  0  0  0  0  0  0
  -30.3013  -32.1365   18.5877 N   0  3  0  0  0  0  0  0  0  0  0  0
  -32.5750  -23.6303   16.8992 O   0  0  0  0  0  0  0  0  0  0  0  0
  -29.9042  -11.6502   20.9981 O   0  0  0  0  0  0  0  0  0  0  0  0
  -22.4819  -30.7149   19.7045 O   0  0  0  0  0  0  0  0  0  0  0  0
  -24.4112  -33.5695   21.2289 O   0  0  0  0  0  0  0  0  0  0  0  0
  -27.8110  -32.7635   17.4382 O   0  0  0  0  0  0  0  0  0  0  0  0
  -32.7834  -18.5083   23.0501 O   0  0  0  0  0  0  0  0  0  0  0  0
  -23.0866  -11.6852   20.7871 O   0  0  0  0  0  0  0  0  0  0  0  0
  -26.8472  -25.9120   18.5293 O   0  0  0  0  0  0  0  0  0  1  0  0
  -23.1952   -6.1893   21.2209 F   0  0  0  0  0  0  0  0  0  0  0  0
  -24.3011  -10.1331   18.8483 F   0  0  0  0  0  0  0  0  0  0  0  0
  1  2  1  0  0  0  0
  1  5  2  0  0  0  0
  2  6  2  0  0  0  0
  3 10  2  0  0  0  0
  3 18  1  0  0  0  0
  4 11  1  0  0  0  0
  4 18  2  0  0  0  0
  5 20  1  0  0  0  0
  6 22  1  0  0  0  0
  7 12  2  0  0  0  0
  7 21  1  0  0  0  0
  8  9  2  0  0  0  0
  8 24  1  0  0  0  0
  9 25  1  0  0  0  0
 10 27  1  0  0  0  0
 11 27  2  0  0  0  0
 12 28  1  0  0  0  0
 13 14  2  0  0  0  0
 13 29  1  0  0  0  0
 14 30  1  0  0  0  0
 15 23  1  0  0  0  0
 15 28  2  0  0  0  0
 16 25  2  0  0  0  0
 16 26  1  0  0  0  0
 17 30  2  0  0  0  0
 17 31  1  0  0  0  0
 18 32  1  0  0  0  0
 19 32  1  0  0  0  0
 19 33  2  0  0  0  0
 19 35  1  0  0  0  0
 20 22  2  0  0  0  0
 20 40  1  0  0  0  0
 21 23  2  0  0  0  0
 21 41  1  0  0  0  0
 22 52  1  0  0  0  0
 23 42  1  0  0  0  0
 24 26  2  0  0  0  0
 24 68  1  0  0  0  0
 25 76  1  0  0  0  0
 26 71  1  0  0  0  0
 27 84  1  0  0  0  0
 28 85  1  0  0  0  0
 29 31  2  0  0  0  0
 29 84  1  0  0  0  0
 30 86  1  0  0  0  0
 31 87  1  0  0  0  0
 32 66  2  0  0  0  0
 33 67  1  0  0  0  0
 33 72  1  0  0  0  0
 34 43  1  0  0  0  0
 34 68  1  0  0  0  0
 34 78  2  0  0  0  0
 35 73  1  0  0  0  0
 35 79  2  0  0  0  0
 36 53  1  0  0  0  0
 36 74  1  0  0  0  0
 36 80  2  0  0  0  0
 37 63  1  0  0  0  0
 37 69  1  0  0  0  0
 37 81  2  0  0  0  0
 38 64  1  0  0  0  0
 38 75  1  0  0  0  0
 38 82  2  0  0  0  0
 39 70  1  0  0  0  0
 39 76  1  0  0  0  0
 39 83  2  0  0  0  0
 40 44  1  0  0  0  0
 41 53  1  0  0  0  0
 42 69  1  0  0  0  0
 43 45  1  0  0  0  0
 44 47  1  0  0  0  0
 45 54  1  0  0  0  0
 46 48  1  0  0  0  0
 46 49  1  0  0  0  0
 47 52  1  0  0  0  0
 48 55  1  0  0  0  0
 49 70  1  0  0  0  0
 50 54  1  0  0  0  0
 50 68  1  0  0  0  0
 51 55  1  0  0  0  0
 51 70  1  0  0  0  0
 52 74  1  0  0  0  0
 53 69  1  0  0  0  0
 54 62  1  0  0  0  0
 55 67  1  0  0  0  0
 56 64  1  0  0  0  0
 57 65  1  0  0  0  0
 58 65  1  0  0  0  0
 59 65  1  0  0  0  0
 60 76  1  0  0  0  0
 61 77  1  0  0  0  0
 62 85  1  0  0  0  0
 63 65  1  0  0  0  0
 63 75  1  0  0  0  0
 64 77  1  0  0  0  0
 66 67  1  0  0  0  0
M  CHG  1  77   1
M  ISO  4  39 100  62 101  76 100  85 101
M  END
> <Batch ID>
0100

> <Smiles>
CNC(C)C(=O)NC(C(=O)N1Cc2cc([101O:1][101CH2:1]C3CCC(=O)N(c4ccc([100N:0](C)[100C:0](=O)N5CCCC(n6nc(-c7ccc(Oc8ccc(F)cc8F)cc7)c(C(N)=O)c6N)C5)cc4N)C3)ccc2CC1C(=O)NC1CCCc2ccccc21)C(C)(C)C

> <Shape>
0.282

> <Color>
0.103

> <Negative vol penalty>
0.000

$$$$

  -OEChem-04052300573D

 85 93  0     1  0  0  0  0  0999 V2000
  -17.7140  -32.1622   29.8639 C   0  0  0  0  0  0  0  0  0  0  0  0
  -18.3668  -30.9341   29.8939 C   0  0  0  0  0  0  0  0  0  0  0  0
  -23.0963   -9.8955   19.9208 C   0  0  0  0  0  0  0  0  0  0  0  0
  -23.8664   -9.8751   22.2107 C   0  0  0  0  0  0  0  0  0  0  0  0
  -17.5646  -32.8417   28.6556 C   0  0  0  0  0  0  0  0  0  0  0  0
  -18.8696  -30.3841   28.7153 C   0  0  0  0  0  0  0  0  0  0  0  0
  -23.9579  -27.0331   28.0941 C   0  0  0  0  0  0  0  0  0  0  0  0
  -22.3709   -8.7273   20.1543 C   0  0  0  0  0  0  0  0  0  0  0  0
  -23.1409   -8.7068   22.4442 C   0  0  0  0  0  0  0  0  0  0  0  0
  -24.1713  -25.6577   28.0141 C   0  0  0  0  0  0  0  0  0  0  0  0
  -19.9278   -7.8505   23.0469 C   0  0  0  0  0  0  0  0  0  0  0  0
  -19.1769   -7.7794   24.2201 C   0  0  0  0  0  0  0  0  0  0  0  0
  -24.1939  -25.8072   25.6066 C   0  0  0  0  0  0  0  0  0  0  0  0
  -20.4504   -5.8487   24.9182 C   0  0  0  0  0  0  0  0  0  0  0  0
  -28.4404  -19.7612   23.1283 C   0  0  0  0  0  0  0  0  0  0  0  0
  -23.8441  -10.4694   20.9490 C   0  0  0  0  0  0  0  0  0  0  0  0
  -24.1476  -13.0011   20.8704 C   0  0  0  0  0  0  0  0  0  0  0  0
  -18.0743  -32.3043   27.4631 C   0  0  0  0  0  0  0  0  0  0  0  0
  -23.8499  -27.8056   26.9287 C   0  0  0  0  0  0  0  0  0  0  0  0
  -18.7257  -31.0564   27.4897 C   0  0  0  0  0  0  0  0  0  0  0  0
  -23.9817  -27.1927   25.6745 C   0  0  0  0  0  0  0  0  0  0  0  0
  -29.8610  -17.8429   22.8345 C   0  0  0  0  0  0  0  0  0  0  0  0
  -22.3932   -8.1329   21.4160 C   0  0  0  0  0  0  0  0  0  0  0  0
  -24.2864  -25.0441   26.7702 C   0  0  0  0  0  0  0  0  0  0  0  0
  -20.9401   -6.9207   22.8092 C   0  0  0  0  0  0  0  0  0  0  0  0
  -19.4382   -6.7785   25.1558 C   0  0  0  0  0  0  0  0  0  0  0  0
  -21.2014   -5.9198   23.7449 C   0  0  0  0  0  0  0  0  0  0  0  0
  -29.2545  -18.9810   22.3148 C   0  0  0  0  0  0  0  0  0  0  0  0
  -24.5942  -11.6759   20.7082 C   0  0  0  0  0  0  0  0  0  0  0  0
  -29.6234  -17.5308   24.1634 C   0  0  0  0  0  0  0  0  0  0  0  0
  -28.2662  -19.3632   24.4440 C   0  0  0  0  0  0  0  0  0  0  0  0
  -25.2268  -13.7729   20.5153 C   0  0  0  0  0  0  0  0  0  0  0  0
  -22.8715  -13.4906   21.3035 C   0  0  0  0  0  0  0  0  0  0  0  0
  -21.5723  -29.6054   25.6338 C   0  0  0  0  0  0  0  0  0  0  0  0
  -25.9791  -21.9530   25.9083 C   0  0  0  0  0  0  0  0  0  0  0  0
  -23.9063  -30.3414   23.5047 C   0  0  0  0  0  0  0  0  0  0  0  0
  -26.8341  -29.4527   21.9930 C   0  0  0  0  0  0  0  0  0  0  0  0
  -30.6955  -14.8709   20.6974 C   0  0  0  0  0  0  0  0  0  0  0  0
  -17.8470  -33.0532   26.1739 C   0  0  0  0  0  0  0  0  0  0  0  0
  -23.6464  -29.2922   27.0324 C   0  0  0  0  0  0  0  0  0  0  0  0
  -23.8935  -27.9803   24.3938 C   0  0  0  0  0  0  0  0  0  0  0  0
  -18.7380  -32.5790   25.0287 C   0  0  0  0  0  0  0  0  0  0  0  0
  -29.5829  -12.5103   18.2754 C   0  0  0  0  0  0  0  0  0  0  0  0
  -18.7416  -31.0556   24.9509 C   0  0  0  0  0  0  0  0  0  0  0  0
  -28.1519  -12.1877   18.7094 C   0  0  0  0  0  0  0  0  0  0  0  0
  -30.5020  -12.7245   19.4759 C   0  0  0  0  0  0  0  0  0  0  0  0
  -28.5959  -13.4034   20.8829 C   0  0  0  0  0  0  0  0  0  0  0  0
  -19.3066  -30.4389   26.2361 C   0  0  1  0  0  0  0  0  0  0  0  0
  -23.0389  -29.9015   25.7726 C   0  0  1  0  0  0  0  0  0  0  0  0
  -27.6191  -13.2341   19.7066 C   0  0  2  0  0  0  0  0  0  0  0  0
  -30.2485  -16.3201   24.7755 C   0  0  0  0  0  0  0  0  0  0  0  0
  -28.4781  -30.2389   20.2677 C   0  0  0  0  0  0  0  0  0  0  0  0
  -21.9741  -29.5175   21.2916 C   0  0  0  0  0  0  0  0  0  0  0  0
  -23.9241  -29.4094   19.7250 C   0  0  0  0  0  0  0  0  0  0  0  0
  -23.3081  -31.5748   20.7993 C   0  0  0  0  0  0  0  0  0  0  0  0
  -29.0328  -29.5647   23.9709 C   0  0  0  0  0  0  0  0  0  0  0  0
  -30.7348  -17.0009   21.9704 C   0  0  0  0  0  0  0  0  0  0  0  0
  -26.7872  -21.3440   24.7822 C   0  0  0  0  0  0  0  0  0  0  0  0
  -25.2290  -23.2247   25.5630 C   0  0  0  0  0  0  0  0  0  1  0  0
  -24.3807  -29.7598   22.1948 C   0  0  1  0  0  0  0  0  0  0  0  0
  -28.1153  -30.2281   21.7445 C   0  0  2  0  0  0  0  0  0  0  0  0
  -23.3965  -30.0500   21.0266 C   0  0  0  0  0  0  0  0  0  0  0  0
  -25.8584  -11.6062   20.2829 N   0  0  0  0  0  0  0  0  0  0  0  0
  -28.8388  -18.2643   24.9845 N   0  0  0  0  0  0  0  0  0  0  0  0
  -26.2155  -12.8973   20.1748 N   0  0  0  0  0  0  0  0  0  0  0  0
  -23.6875  -29.4300   24.5474 N   0  0  0  0  0  0  0  0  0  0  0  0
  -29.9402  -13.7295   20.3816 N   0  0  0  0  0  0  0  0  0  0  0  0
  -25.4170  -15.1085   20.4640 N   0  0  0  0  0  0  0  0  0  0  0  0
  -21.8748  -12.5608   21.6296 N   0  0  0  0  0  0  0  0  0  0  0  0
  -27.4510  -20.1516   25.2434 N   0  0  0  0  0  0  0  0  0  0  0  0
  -20.7509  -30.5310   26.2485 N   0  0  0  0  0  0  0  0  0  0  0  0
  -25.7285  -30.2766   21.9830 N   0  0  0  0  0  0  0  0  0  0  0  0
  -30.0864  -15.7762   21.5577 N   0  0  0  0  0  0  0  0  0  0  0  0
  -29.2449  -29.6183   22.5015 N   0  3  0  0  0  0  0  0  0  0  0  0
  -22.6172  -14.7164   21.3827 O   0  0  0  0  0  0  0  0  0  0  0  0
  -21.2126  -28.6117   25.0135 O   0  0  0  0  0  0  0  0  0  0  0  0
  -25.9274  -21.4577   27.0334 O   0  0  0  0  0  0  0  0  0  0  0  0
  -23.7431  -31.5603   23.6013 O   0  0  0  0  0  0  0  0  0  0  0  0
  -26.8156  -28.2372   22.1738 O   0  0  0  0  0  0  0  0  0  0  0  0
  -31.8267  -15.0710   20.2420 O   0  0  0  0  0  0  0  0  0  0  0  0
  -21.6852   -6.9931   21.6442 O   0  0  0  0  0  0  0  0  0  0  0  0
  -24.4940  -23.7016   26.6894 O   0  0  0  0  0  0  0  0  0  1  0  0
  -18.7180   -6.7113   26.2832 F   0  0  0  0  0  0  0  0  0  0  0  0
  -22.1733   -5.0243   23.5227 F   0  0  0  0  0  0  0  0  0  0  0  0
  -29.4477  -19.3328   21.0361 F   0  0  0  0  0  0  0  0  0  0  0  0
  1  2  1  0  0  0  0
  1  5  2  0  0  0  0
  2  6  2  0  0  0  0
  3  8  2  0  0  0  0
  3 16  1  0  0  0  0
  4  9  1  0  0  0  0
  4 16  2  0  0  0  0
  5 18  1  0  0  0  0
  6 20  1  0  0  0  0
  7 10  2  0  0  0  0
  7 19  1  0  0  0  0
  8 23  1  0  0  0  0
  9 23  2  0  0  0  0
 10 24  1  0  0  0  0
 11 12  2  0  0  0  0
 11 25  1  0  0  0  0
 12 26  1  0  0  0  0
 13 21  1  0  0  0  0
 13 24  2  0  0  0  0
 14 26  2  0  0  0  0
 14 27  1  0  0  0  0
 15 28  2  0  0  0  0
 15 31  1  0  0  0  0
 16 29  1  0  0  0  0
 17 29  1  0  0  0  0
 17 32  2  0  0  0  0
 17 33  1  0  0  0  0
 18 20  2  0  0  0  0
 18 39  1  0  0  0  0
 19 21  2  0  0  0  0
 19 40  1  0  0  0  0
 20 48  1  0  0  0  0
 21 41  1  0  0  0  0
 22 28  1  0  0  0  0
 22 30  2  0  0  0  0
 22 57  1  0  0  0  0
 23 81  1  0  0  0  0
 24 82  1  0  0  0  0
 25 27  2  0  0  0  0
 25 81  1  0  0  0  0
 26 83  1  0  0  0  0
 27 84  1  0  0  0  0
 28 85  1  0  0  0  0
 29 63  2  0  0  0  0
 30 51  1  0  0  0  0
 30 64  1  0  0  0  0
 31 64  2  0  0  0  0
 31 70  1  0  0  0  0
 32 65  1  0  0  0  0
 32 68  1  0  0  0  0
 33 69  1  0  0  0  0
 33 75  2  0  0  0  0
 34 49  1  0  0  0  0
 34 71  1  0  0  0  0
 34 76  2  0  0  0  0
 35 58  1  0  0  0  0
 35 59  1  0  0  0  0
 35 77  2  0  0  0  0
 36 60  1  0  0  0  0
 36 66  1  0  0  0  0
 36 78  2  0  0  0  0
 37 61  1  0  0  0  0
 37 72  1  0  0  0  0
 37 79  2  0  0  0  0
 38 67  1  0  0  0  0
 38 73  1  0  0  0  0
 38 80  2  0  0  0  0
 39 42  1  0  0  0  0
 40 49  1  0  0  0  0
 41 66  1  0  0  0  0
 42 44  1  0  0  0  0
 43 45  1  0  0  0  0
 43 46  1  0  0  0  0
 44 48  1  0  0  0  0
 45 50  1  0  0  0  0
 46 67  1  0  0  0  0
 47 50  1  0  0  0  0
 47 67  1  0  0  0  0
 48 71  1  0  0  0  0
 49 66  1  0  0  0  0
 50 65  1  0  0  0  0
 52 61  1  0  0  0  0
 53 62  1  0  0  0  0
 54 62  1  0  0  0  0
 55 62  1  0  0  0  0
 56 74  1  0  0  0  0
 57 73  1  0  0  0  0
 58 70  1  0  0  0  0
 59 82  1  0  0  0  0
 60 62  1  0  0  0  0
 60 72  1  0  0  0  0
 61 74  1  0  0  0  0
 63 65  1  0  0  0  0
M  CHG  1  74   1
M  ISO  4  38 100  59 101  73 100  82 101
M  END
> <Batch ID>
0100

> <Smiles>
CNC(C)C(=O)NC(C(=O)N1Cc2cc([101O:1][101CH2:1]C(=O)CNc3cc(F)c(C[100NH:0][100C:0](=O)N4CCCC(n5nc(-c6ccc(Oc7ccc(F)cc7F)cc6)c(C(N)=O)c5N)C4)c(C)n3)ccc2CC1C(=O)NC1CCCc2ccccc21)C(C)(C)C

> <Shape>
0.255

> <Color>
0.203

> <Negative vol penalty>
0.000

$$$$

  -OEChem-04052300573D

 89 98  0     1  0  0  0  0  0999 V2000
  -16.8364  -28.3630   23.9555 C   0  0  0  0  0  0  0  0  0  0  0  0
  -17.6020  -27.6153   23.0665 C   0  0  0  0  0  0  0  0  0  0  0  0
  -24.4218  -14.3997   23.2619 C   0  0  0  0  0  0  0  0  0  0  0  0
  -24.7046  -15.8059   21.3178 C   0  0  0  0  0  0  0  0  0  0  0  0
  -17.1376  -29.7067   24.1738 C   0  0  0  0  0  0  0  0  0  0  0  0
  -18.6686  -28.2112   22.3944 C   0  0  0  0  0  0  0  0  0  0  0  0
  -22.8213  -25.3131   22.3839 C   0  0  0  0  0  0  0  0  0  0  0  0
  -24.1026  -15.5215   24.0269 C   0  0  0  0  0  0  0  0  0  0  0  0
  -24.3853  -16.9277   22.0828 C   0  0  0  0  0  0  0  0  0  0  0  0
  -22.8547  -24.2516   21.4807 C   0  0  0  0  0  0  0  0  0  0  0  0
  -25.9291  -18.9400   24.3185 C   0  0  0  0  0  0  0  0  0  0  0  0
  -26.7281  -20.0738   24.1709 C   0  0  0  0  0  0  0  0  0  0  0  0
  -27.4785  -19.5882   19.0323 C   0  0  0  0  0  0  0  0  0  0  0  0
  -28.7164  -17.6379   19.7399 C   0  0  0  0  0  0  0  0  0  0  0  0
  -24.2201  -25.5696   19.9915 C   0  0  0  0  0  0  0  0  0  0  0  0
  -27.3778  -17.5555   17.7303 C   0  0  0  0  0  0  0  0  0  0  0  0
  -24.7984  -21.3409   23.4581 C   0  0  0  0  0  0  0  0  0  0  0  0
  -24.7228  -14.5419   21.9073 C   0  0  0  0  0  0  0  0  0  0  0  0
  -28.3373  -18.9655   19.9380 C   0  0  0  0  0  0  0  0  0  0  0  0
  -24.2435  -12.2564   20.8806 C   0  0  0  0  0  0  0  0  0  0  0  0
  -18.2143  -30.3169   23.5113 C   0  0  0  0  0  0  0  0  0  0  0  0
  -23.4791  -26.5167   22.0924 C   0  0  0  0  0  0  0  0  0  0  0  0
  -18.9836  -29.5648   22.6030 C   0  0  0  0  0  0  0  0  0  0  0  0
  -24.1957  -26.6439   20.8939 C   0  0  0  0  0  0  0  0  0  0  0  0
  -26.9987  -18.8832   17.9285 C   0  0  0  0  0  0  0  0  0  0  0  0
  -28.2366  -16.9328   18.6361 C   0  0  0  0  0  0  0  0  0  0  0  0
  -24.0844  -16.7855   23.4374 C   0  0  0  0  0  0  0  0  0  0  0  0
  -23.5517  -24.3808   20.2829 C   0  0  0  0  0  0  0  0  0  0  0  0
  -24.5647  -19.0066   24.0358 C   0  0  0  0  0  0  0  0  0  0  0  0
  -26.1627  -21.2742   23.7408 C   0  0  0  0  0  0  0  0  0  0  0  0
  -23.9994  -20.2071   23.6056 C   0  0  0  0  0  0  0  0  0  0  0  0
  -25.0532  -13.3835   21.1167 C   0  0  0  0  0  0  0  0  0  0  0  0
  -25.0080  -11.4469   20.0763 C   0  0  0  0  0  0  0  0  0  0  0  0
  -23.8100  -18.6474   17.3026 C   0  0  0  0  0  0  0  0  0  0  0  0
  -28.8374  -19.7007   21.0890 C   0  0  0  0  0  0  0  0  0  0  0  0
  -22.9188  -11.9670   21.3465 C   0  0  0  0  0  0  0  0  0  0  0  0
  -22.5611  -29.5317   21.6795 C   0  0  0  0  0  0  0  0  0  0  0  0
  -25.7559  -30.0759   21.5389 C   0  0  0  0  0  0  0  0  0  0  0  0
  -28.8792  -28.8489   20.9175 C   0  0  0  0  0  0  0  0  0  0  0  0
  -29.4666  -14.8184   19.2376 C   0  0  0  0  0  0  0  0  0  0  0  0
  -18.4721  -31.7846   23.7439 C   0  0  0  0  0  0  0  0  0  0  0  0
  -23.4559  -27.6428   23.0892 C   0  0  0  0  0  0  0  0  0  0  0  0
  -24.9354  -27.9080   20.5426 C   0  0  0  0  0  0  0  0  0  0  0  0
  -22.4016  -18.8820   17.8126 C   0  0  0  0  0  0  0  0  0  0  0  0
  -19.8506  -32.2427   23.2749 C   0  0  0  0  0  0  0  0  0  0  0  0
  -22.3066  -19.8365   18.9866 C   0  0  0  0  0  0  0  0  0  0  0  0
  -29.2247  -11.5154   20.8106 C   0  0  0  0  0  0  0  0  0  0  0  0
  -20.1465  -31.7024   21.8794 C   0  0  0  0  0  0  0  0  0  0  0  0
  -28.3002  -10.7302   19.8886 C   0  0  0  0  0  0  0  0  0  0  0  0
  -30.0301  -12.5407   20.0269 C   0  0  0  0  0  0  0  0  0  0  0  0
  -24.4995  -20.8172   18.3823 C   0  0  0  0  0  0  0  0  0  0  0  0
  -28.1808  -12.7733   18.3701 C   0  0  0  0  0  0  0  0  0  0  0  0
  -20.1638  -30.1691   21.8738 C   0  0  1  0  0  0  0  0  0  0  0  0
  -23.7323  -29.0044   22.4591 C   0  0  1  0  0  0  0  0  0  0  0  0
  -23.0296  -21.1318   18.6423 C   0  0  2  0  0  0  0  0  0  0  0  0
  -27.3833  -11.6503   19.0682 C   0  0  2  0  0  0  0  0  0  0  0  0
  -31.2901  -29.5420   20.8482 C   0  0  0  0  0  0  0  0  0  0  0  0
  -25.2725  -31.4821   18.8745 C   0  0  0  0  0  0  0  0  0  0  0  0
  -27.7267  -31.3015   18.4134 C   0  0  0  0  0  0  0  0  0  0  0  0
  -26.9210  -32.6209   20.3712 C   0  0  0  0  0  0  0  0  0  0  0  0
  -29.6150  -26.9198   23.0379 C   0  0  0  0  0  0  0  0  0  0  0  0
  -26.0742  -19.5531   16.9535 C   0  0  0  0  0  0  0  0  0  0  0  0
  -22.8844  -22.1580   19.7634 C   0  0  0  0  0  0  0  0  0  1  0  0
  -26.7894  -30.0970   20.4387 C   0  0  1  0  0  0  0  0  0  0  0  0
  -30.1762  -28.9527   21.6996 C   0  0  2  0  0  0  0  0  0  0  0  0
  -26.6620  -31.3521   19.5299 C   0  0  0  0  0  0  0  0  0  0  0  0
  -26.2410  -13.3010   20.5115 N   0  0  0  0  0  0  0  0  0  0  0  0
  -26.1834  -12.1123   19.8872 N   0  0  0  0  0  0  0  0  0  0  0  0
  -24.7237  -19.6835   17.4841 N   0  0  0  0  0  0  0  0  0  0  0  0
  -24.8776  -28.9830   21.5469 N   0  0  0  0  0  0  0  0  0  0  0  0
  -29.1806  -13.4307   19.2319 N   0  0  0  0  0  0  0  0  0  0  0  0
  -24.7827  -10.2379   19.5195 N   0  0  0  0  0  0  0  0  0  0  0  0
  -29.6913  -19.0335   21.9624 N   0  0  0  0  0  0  0  0  0  0  0  0
  -22.2778  -12.9076   22.1643 N   0  0  0  0  0  0  0  0  0  0  0  0
  -28.6216  -15.5843   18.4342 N   0  0  0  0  0  0  0  0  0  0  0  0
  -21.4072  -29.6756   22.4260 N   0  0  0  0  0  0  0  0  0  0  0  0
  -28.0859  -29.9628   21.0940 N   0  0  0  0  0  0  0  0  0  0  0  0
  -30.6066  -27.6057   22.1700 N   0  3  0  0  0  0  0  0  0  0  0  0
  -24.0582  -17.6048   16.6907 O   0  0  0  0  0  0  0  0  0  0  0  0
  -28.5036  -20.8799   21.2999 O   0  0  0  0  0  0  0  0  0  0  0  0
  -22.3276  -10.8984   21.0600 O   0  0  0  0  0  0  0  0  0  0  0  0
  -22.6948  -29.7904   20.4891 O   0  0  0  0  0  0  0  0  0  0  0  0
  -25.7333  -30.9916   22.3651 O   0  0  0  0  0  0  0  0  0  0  0  0
  -28.5996  -27.8785   20.2170 O   0  0  0  0  0  0  0  0  0  0  0  0
  -30.4034  -15.2874   19.8892 O   0  0  0  0  0  0  0  0  0  0  0  0
  -23.7727  -17.8804   24.1835 O   0  0  0  0  0  0  0  0  0  0  0  0
  -23.5853  -23.3464   19.3992 O   0  0  0  0  0  0  0  0  0  1  0  0
  -26.9298  -22.3633   23.6006 F   0  0  0  0  0  0  0  0  0  0  0  0
  -22.6891  -20.2775   23.3337 F   0  0  0  0  0  0  0  0  0  0  0  0
  1  2  1  0  0  0  0
  1  5  2  0  0  0  0
  2  6  2  0  0  0  0
  3  8  2  0  0  0  0
  3 18  1  0  0  0  0
  4  9  1  0  0  0  0
  4 18  2  0  0  0  0
  5 21  1  0  0  0  0
  6 23  1  0  0  0  0
  7 10  2  0  0  0  0
  7 22  1  0  0  0  0
  8 27  1  0  0  0  0
  9 27  2  0  0  0  0
 10 28  1  0  0  0  0
 11 12  2  0  0  0  0
 11 29  1  0  0  0  0
 12 30  1  0  0  0  0
 13 19  1  0  0  0  0
 13 25  2  0  0  0  0
 14 19  2  0  0  0  0
 14 26  1  0  0  0  0
 15 24  1  0  0  0  0
 15 28  2  0  0  0  0
 16 25  1  0  0  0  0
 16 26  2  0  0  0  0
 17 30  2  0  0  0  0
 17 31  1  0  0  0  0
 18 32  1  0  0  0  0
 19 35  1  0  0  0  0
 20 32  1  0  0  0  0
 20 33  2  0  0  0  0
 20 36  1  0  0  0  0
 21 23  2  0  0  0  0
 21 41  1  0  0  0  0
 22 24  2  0  0  0  0
 22 42  1  0  0  0  0
 23 53  1  0  0  0  0
 24 43  1  0  0  0  0
 25 62  1  0  0  0  0
 26 75  1  0  0  0  0
 27 86  1  0  0  0  0
 28 87  1  0  0  0  0
 29 31  2  0  0  0  0
 29 86  1  0  0  0  0
 30 88  1  0  0  0  0
 31 89  1  0  0  0  0
 32 67  2  0  0  0  0
 33 68  1  0  0  0  0
 33 72  1  0  0  0  0
 34 44  1  0  0  0  0
 34 69  1  0  0  0  0
 34 79  2  0  0  0  0
 35 73  1  0  0  0  0
 35 80  2  0  0  0  0
 36 74  1  0  0  0  0
 36 81  2  0  0  0  0
 37 54  1  0  0  0  0
 37 76  1  0  0  0  0
 37 82  2  0  0  0  0
 38 64  1  0  0  0  0
 38 70  1  0  0  0  0
 38 83  2  0  0  0  0
 39 65  1  0  0  0  0
 39 77  1  0  0  0  0
 39 84  2  0  0  0  0
 40 71  1  0  0  0  0
 40 75  1  0  0  0  0
 40 85  2  0  0  0  0
 41 45  1  0  0  0  0
 42 54  1  0  0  0  0
 43 70  1  0  0  0  0
 44 46  1  0  0  0  0
 45 48  1  0  0  0  0
 46 55  1  0  0  0  0
 47 49  1  0  0  0  0
 47 50  1  0  0  0  0
 48 53  1  0  0  0  0
 49 56  1  0  0  0  0
 50 71  1  0  0  0  0
 51 55  1  0  0  0  0
 51 69  1  0  0  0  0
 52 56  1  0  0  0  0
 52 71  1  0  0  0  0
 53 76  1  0  0  0  0
 54 70  1  0  0  0  0
 55 63  1  0  0  0  0
 56 68  1  0  0  0  0
 57 65  1  0  0  0  0
 58 66  1  0  0  0  0
 59 66  1  0  0  0  0
 60 66  1  0  0  0  0
 61 78  1  0  0  0  0
 62 69  1  0  0  0  0
 63 87  1  0  0  0  0
 64 66  1  0  0  0  0
 64 77  1  0  0  0  0
 65 78  1  0  0  0  0
 67 68  1  0  0  0  0
M  CHG  1  78   1
M  ISO  4  40 100  63 101  75 100  87 101
M  END
> <Batch ID>
0100

> <Smiles>
CNC(C)C(=O)NC(C(=O)N1Cc2cc([101O:1][101CH2:1]C3CCC(=O)N(Cc4cc([100NH:0][100C:0](=O)N5CCCC(n6nc(-c7ccc(Oc8ccc(F)cc8F)cc7)c(C(N)=O)c6N)C5)cc(C(N)=O)c4)C3)ccc2CC1C(=O)NC1CCCc2ccccc21)C(C)(C)C

> <Shape>
0.242

> <Color>
0.087

> <Negative vol penalty>
0.000

$$$$

  -OEChem-04052300573D

 84 92  0     1  0  0  0  0  0999 V2000
  -28.4605  -18.2475   17.9899 C   0  0  0  0  0  0  0  0  0  0  0  0
  -29.0597  -18.7661   19.1333 C   0  0  0  0  0  0  0  0  0  0  0  0
  -23.0809   -9.8597   19.9417 C   0  0  0  0  0  0  0  0  0  0  0  0
  -23.8379   -9.8724   22.2360 C   0  0  0  0  0  0  0  0  0  0  0  0
  -32.6558  -17.4879   23.4329 C   0  0  0  0  0  0  0  0  0  0  0  0
  -28.7607  -18.7884   16.7404 C   0  0  0  0  0  0  0  0  0  0  0  0
  -29.9603  -19.8255   19.0277 C   0  0  0  0  0  0  0  0  0  0  0  0
  -29.1524  -23.4162   22.5061 C   0  0  0  0  0  0  0  0  0  0  0  0
  -32.0499  -16.6103   22.5339 C   0  0  0  0  0  0  0  0  0  0  0  0
  -22.3396   -8.7052   20.1926 C   0  0  0  0  0  0  0  0  0  0  0  0
  -23.0966   -8.7178   22.4870 C   0  0  0  0  0  0  0  0  0  0  0  0
  -29.6104  -23.1650   23.7988 C   0  0  0  0  0  0  0  0  0  0  0  0
  -21.1169   -5.9779   23.8256 C   0  0  0  0  0  0  0  0  0  0  0  0
  -20.3593   -5.9343   24.9959 C   0  0  0  0  0  0  0  0  0  0  0  0
  -30.4867  -18.3574   24.0460 C   0  0  0  0  0  0  0  0  0  0  0  0
  -31.5494  -24.5349   23.3714 C   0  0  0  0  0  0  0  0  0  0  0  0
  -19.1108   -7.8673   24.2597 C   0  0  0  0  0  0  0  0  0  0  0  0
  -23.8301  -10.4433   20.9634 C   0  0  0  0  0  0  0  0  0  0  0  0
  -31.8742  -18.3615   24.1891 C   0  0  0  0  0  0  0  0  0  0  0  0
  -24.1658  -12.9691   20.8397 C   0  0  0  0  0  0  0  0  0  0  0  0
  -29.6581  -19.8612   16.6205 C   0  0  0  0  0  0  0  0  0  0  0  0
  -29.8962  -24.2211   21.6313 C   0  0  0  0  0  0  0  0  0  0  0  0
  -30.2738  -20.3804   17.7754 C   0  0  0  0  0  0  0  0  0  0  0  0
  -31.0974  -24.7968   22.0690 C   0  0  0  0  0  0  0  0  0  0  0  0
  -30.6624  -16.6063   22.3908 C   0  0  0  0  0  0  0  0  0  0  0  0
  -29.8808  -17.4798   23.1469 C   0  0  0  0  0  0  0  0  0  0  0  0
  -22.3474   -8.1342   21.4652 C   0  0  0  0  0  0  0  0  0  0  0  0
  -30.8105  -23.7220   24.2306 C   0  0  0  0  0  0  0  0  0  0  0  0
  -20.8715   -6.9662   22.8723 C   0  0  0  0  0  0  0  0  0  0  0  0
  -19.3562   -6.8790   25.2130 C   0  0  0  0  0  0  0  0  0  0  0  0
  -19.8684   -7.9109   23.0893 C   0  0  0  0  0  0  0  0  0  0  0  0
  -24.5966  -11.6357   20.7047 C   0  0  0  0  0  0  0  0  0  0  0  0
  -25.2565  -13.7207   20.4765 C   0  0  0  0  0  0  0  0  0  0  0  0
  -32.5200  -19.2958   25.1467 C   0  0  0  0  0  0  0  0  0  0  0  0
  -22.8935  -13.4825   21.2562 C   0  0  0  0  0  0  0  0  0  0  0  0
  -31.3208  -23.7644   18.8267 C   0  0  0  0  0  0  0  0  0  0  0  0
  -31.8269  -26.9636   19.0029 C   0  0  0  0  0  0  0  0  0  0  0  0
  -32.1350  -29.7449   20.9564 C   0  0  0  0  0  0  0  0  0  0  0  0
  -30.7199  -14.7803   20.6563 C   0  0  0  0  0  0  0  0  0  0  0  0
  -29.9875  -20.3818   15.2438 C   0  0  0  0  0  0  0  0  0  0  0  0
  -29.3751  -24.5041   20.2490 C   0  0  0  0  0  0  0  0  0  0  0  0
  -31.9232  -25.6846   21.1755 C   0  0  0  0  0  0  0  0  0  0  0  0
  -30.6667  -21.7488   15.2559 C   0  0  0  0  0  0  0  0  0  0  0  0
  -29.6144  -12.3598   18.2906 C   0  0  0  0  0  0  0  0  0  0  0  0
  -31.7860  -21.7796   16.2917 C   0  0  0  0  0  0  0  0  0  0  0  0
  -28.1750  -12.0654   18.7188 C   0  0  0  0  0  0  0  0  0  0  0  0
  -30.5275  -12.5929   19.4930 C   0  0  0  0  0  0  0  0  0  0  0  0
  -28.6170  -13.3148   20.8707 C   0  0  0  0  0  0  0  0  0  0  0  0
  -31.2371  -21.5454   17.7043 C   0  0  1  0  0  0  0  0  0  0  0  0
  -30.4698  -24.9202   19.2713 C   0  0  1  0  0  0  0  0  0  0  0  0
  -27.6461  -13.1372   19.6919 C   0  0  2  0  0  0  0  0  0  0  0  0
  -32.5849  -32.2098   20.8175 C   0  0  0  0  0  0  0  0  0  0  0  0
  -33.4950  -23.7517   26.3552 C   0  0  0  0  0  0  0  0  0  0  0  0
  -34.7882  -26.3945   18.5376 C   0  0  0  0  0  0  0  0  0  0  0  0
  -35.2887  -28.7111   19.3442 C   0  0  0  0  0  0  0  0  0  0  0  0
  -33.8999  -28.3773   17.2992 C   0  0  0  0  0  0  0  0  0  0  0  0
  -29.5046  -30.4094   22.1390 C   0  0  0  0  0  0  0  0  0  0  0  0
  -32.3349  -21.4845   26.3004 C   0  0  0  0  0  0  0  0  0  0  0  0
  -32.9159  -27.8443   19.5663 C   0  0  1  0  0  0  0  0  0  0  0  0
  -31.5173  -31.1271   20.8457 C   0  0  2  0  0  0  0  0  0  0  0  0
  -32.5284  -22.8357   25.6160 C   0  0  1  0  0  0  0  0  0  1  0  0
  -34.2088  -27.8135   18.7033 C   0  0  0  0  0  0  0  0  0  0  0  0
  -25.8622  -11.5424   20.2881 N   0  0  0  0  0  0  0  0  0  0  0  0
  -26.2360  -12.8267   20.1581 N   0  0  0  0  0  0  0  0  0  0  0  0
  -31.3747  -25.9263   19.8308 N   0  0  0  0  0  0  0  0  0  0  0  0
  -29.9649  -13.6237   20.3680 N   0  0  0  0  0  0  0  0  0  0  0  0
  -28.4737  -17.4924   23.0193 N   0  0  0  0  0  0  0  0  0  0  0  0
  -25.4637  -15.0526   20.4016 N   0  0  0  0  0  0  0  0  0  0  0  0
  -21.8835  -12.5713   21.5937 N   0  0  0  0  0  0  0  0  0  0  0  0
  -30.0692  -15.7050   21.4724 N   0  0  0  0  0  0  0  0  0  0  0  0
  -31.8283  -20.4705   25.4142 N   0  0  0  0  0  0  0  0  0  0  0  0
  -30.6139  -22.7495   18.2104 N   0  0  0  0  0  0  0  0  0  0  0  0
  -32.3299  -29.1718   19.7176 N   0  0  0  0  0  0  0  0  0  0  0  0
  -30.6159  -31.3860   22.0039 N   0  3  0  0  0  0  0  0  0  0  0  0
  -33.6123  -19.0033   25.6262 O   0  0  0  0  0  0  0  0  0  0  0  0
  -22.6541  -14.7126   21.3112 O   0  0  0  0  0  0  0  0  0  0  0  0
  -32.5295  -23.7920   19.0267 O   0  0  0  0  0  0  0  0  0  0  0  0
  -31.3884  -27.1922   17.8728 O   0  0  0  0  0  0  0  0  0  0  0  0
  -32.4199  -29.2270   22.0340 O   0  0  0  0  0  0  0  0  0  0  0  0
  -31.8491  -14.9510   20.1898 O   0  0  0  0  0  0  0  0  0  0  0  0
  -21.6240   -7.0077   21.7105 O   0  0  0  0  0  0  0  0  0  0  0  0
  -31.2602  -23.4780   25.4916 O   0  0  0  0  0  0  0  0  0  1  0  0
  -18.6277   -6.8361   26.3362 F   0  0  0  0  0  0  0  0  0  0  0  0
  -19.6273   -8.8620   22.1766 F   0  0  0  0  0  0  0  0  0  0  0  0
  1  2  1  0  0  0  0
  1  6  2  0  0  0  0
  2  7  2  0  0  0  0
  3 10  2  0  0  0  0
  3 18  1  0  0  0  0
  4 11  1  0  0  0  0
  4 18  2  0  0  0  0
  5  9  2  0  0  0  0
  5 19  1  0  0  0  0
  6 21  1  0  0  0  0
  7 23  1  0  0  0  0
  8 12  2  0  0  0  0
  8 22  1  0  0  0  0
  9 25  1  0  0  0  0
 10 27  1  0  0  0  0
 11 27  2  0  0  0  0
 12 28  1  0  0  0  0
 13 14  2  0  0  0  0
 13 29  1  0  0  0  0
 14 30  1  0  0  0  0
 15 19  2  0  0  0  0
 15 26  1  0  0  0  0
 16 24  1  0  0  0  0
 16 28  2  0  0  0  0
 17 30  2  0  0  0  0
 17 31  1  0  0  0  0
 18 32  1  0  0  0  0
 19 34  1  0  0  0  0
 20 32  1  0  0  0  0
 20 33  2  0  0  0  0
 20 35  1  0  0  0  0
 21 23  2  0  0  0  0
 21 40  1  0  0  0  0
 22 24  2  0  0  0  0
 22 41  1  0  0  0  0
 23 49  1  0  0  0  0
 24 42  1  0  0  0  0
 25 26  2  0  0  0  0
 25 70  1  0  0  0  0
 26 67  1  0  0  0  0
 27 81  1  0  0  0  0
 28 82  1  0  0  0  0
 29 31  2  0  0  0  0
 29 81  1  0  0  0  0
 30 83  1  0  0  0  0
 31 84  1  0  0  0  0
 32 63  2  0  0  0  0
 33 64  1  0  0  0  0
 33 68  1  0  0  0  0
 34 71  1  0  0  0  0
 34 75  2  0  0  0  0
 35 69  1  0  0  0  0
 35 76  2  0  0  0  0
 36 50  1  0  0  0  0
 36 72  1  0  0  0  0
 36 77  2  0  0  0  0
 37 59  1  0  0  0  0
 37 65  1  0  0  0  0
 37 78  2  0  0  0  0
 38 60  1  0  0  0  0
 38 73  1  0  0  0  0
 38 79  2  0  0  0  0
 39 66  1  0  0  0  0
 39 70  1  0  0  0  0
 39 80  2  0  0  0  0
 40 43  1  0  0  0  0
 41 50  1  0  0  0  0
 42 65  1  0  0  0  0
 43 45  1  0  0  0  0
 44 46  1  0  0  0  0
 44 47  1  0  0  0  0
 45 49  1  0  0  0  0
 46 51  1  0  0  0  0
 47 66  1  0  0  0  0
 48 51  1  0  0  0  0
 48 66  1  0  0  0  0
 49 72  1  0  0  0  0
 50 65  1  0  0  0  0
 51 64  1  0  0  0  0
 52 60  1  0  0  0  0
 53 61  1  0  0  0  0
 54 62  1  0  0  0  0
 55 62  1  0  0  0  0
 56 62  1  0  0  0  0
 57 74  1  0  0  0  0
 58 61  1  0  0  0  0
 58 71  1  0  0  0  0
 59 62  1  0  0  0  0
 59 73  1  0  0  0  0
 60 74  1  0  0  0  0
 61 82  1  0  0  0  0
 63 64  1  0  0  0  0
M  CHG  1  74   1
M  ISO  4  39 100  61 101  70 100  82 101
M  END
> <Batch ID>
0100

> <Smiles>
CNC(C)C(=O)NC(C(=O)N1Cc2cc([101O:1][101CH:1](C)CNC(=O)c3ccc([100NH:0][100C:0](=O)N4CCCC(n5nc(-c6ccc(Oc7ccc(F)cc7F)cc6)c(C(N)=O)c5N)C4)c(N)c3)ccc2CC1C(=O)NC1CCCc2ccccc21)C(C)(C)C

> <Shape>
0.230

> <Color>
0.184

> <Negative vol penalty>
0.000

$$$$

  -OEChem-04052300573D

 85 93  0     1  0  0  0  0  0999 V2000
  -19.9359  -24.0811   21.8518 C   0  0  0  0  0  0  0  0  0  0  0  0
  -21.3239  -24.0065   21.9098 C   0  0  0  0  0  0  0  0  0  0  0  0
  -24.7550  -13.1239   22.0327 C   0  0  0  0  0  0  0  0  0  0  0  0
  -26.1782  -13.2104   20.0822 C   0  0  0  0  0  0  0  0  0  0  0  0
  -19.3183  -25.2715   21.4704 C   0  0  0  0  0  0  0  0  0  0  0  0
  -22.0951  -25.1220   21.5854 C   0  0  0  0  0  0  0  0  0  0  0  0
  -27.4232  -26.7751   24.1122 C   0  0  0  0  0  0  0  0  0  0  0  0
  -24.4826  -11.7805   21.7743 C   0  0  0  0  0  0  0  0  0  0  0  0
  -25.9058  -11.8670   19.8239 C   0  0  0  0  0  0  0  0  0  0  0  0
  -28.7464  -26.6017   23.7088 C   0  0  0  0  0  0  0  0  0  0  0  0
  -22.5018   -9.9960   19.6967 C   0  0  0  0  0  0  0  0  0  0  0  0
  -21.1756   -9.5746   19.7916 C   0  0  0  0  0  0  0  0  0  0  0  0
  -30.2534  -23.6731   19.8385 C   0  0  0  0  0  0  0  0  0  0  0  0
  -28.7321  -28.8084   22.7343 C   0  0  0  0  0  0  0  0  0  0  0  0
  -27.5610  -24.0676   19.2239 C   0  0  0  0  0  0  0  0  0  0  0  0
  -21.7983   -8.0036   21.5183 C   0  0  0  0  0  0  0  0  0  0  0  0
  -25.6028  -13.8389   21.1866 C   0  0  0  0  0  0  0  0  0  0  0  0
  -29.3675  -22.5960   19.8629 C   0  0  0  0  0  0  0  0  0  0  0  0
  -26.9300  -15.7466   22.2386 C   0  0  0  0  0  0  0  0  0  0  0  0
  -20.0821  -26.4050   21.1505 C   0  0  0  0  0  0  0  0  0  0  0  0
  -26.7398  -27.9642   23.8196 C   0  0  0  0  0  0  0  0  0  0  0  0
  -21.4871  -26.3283   21.1981 C   0  0  0  0  0  0  0  0  0  0  0  0
  -27.4011  -28.9954   23.1373 C   0  0  0  0  0  0  0  0  0  0  0  0
  -28.0213  -22.7932   19.5556 C   0  0  0  0  0  0  0  0  0  0  0  0
  -25.0580  -11.1521   20.6700 C   0  0  0  0  0  0  0  0  0  0  0  0
  -29.4002  -27.6173   23.0172 C   0  0  0  0  0  0  0  0  0  0  0  0
  -23.4764   -9.4212   20.5126 C   0  0  0  0  0  0  0  0  0  0  0  0
  -29.7932  -24.9474   19.5069 C   0  0  0  0  0  0  0  0  0  0  0  0
  -20.8238   -8.5784   20.7024 C   0  0  0  0  0  0  0  0  0  0  0  0
  -28.4470  -25.1446   19.1996 C   0  0  0  0  0  0  0  0  0  0  0  0
  -23.1246   -8.4250   21.4233 C   0  0  0  0  0  0  0  0  0  0  0  0
  -25.8841  -15.2267   21.4526 C   0  0  0  0  0  0  0  0  0  0  0  0
  -26.7625  -17.1084   22.1757 C   0  0  0  0  0  0  0  0  0  0  0  0
  -29.8798  -21.2780   20.2164 C   0  0  0  0  0  0  0  0  0  0  0  0
  -27.9608  -15.0600   22.9608 C   0  0  0  0  0  0  0  0  0  0  0  0
  -24.1592  -28.7082   22.1196 C   0  0  0  0  0  0  0  0  0  0  0  0
  -24.6662  -31.6592   23.3673 C   0  0  0  0  0  0  0  0  0  0  0  0
  -26.8601  -33.8925   24.7260 C   0  0  0  0  0  0  0  0  0  0  0  0
  -25.7375  -21.7621   19.2955 C   0  0  0  0  0  0  0  0  0  0  0  0
  -19.3707  -27.6556   20.6981 C   0  0  0  0  0  0  0  0  0  0  0  0
  -25.3212  -28.1461   24.2852 C   0  0  0  0  0  0  0  0  0  0  0  0
  -26.7185  -30.2990   22.8164 C   0  0  0  0  0  0  0  0  0  0  0  0
  -20.2503  -28.9028   20.7321 C   0  0  0  0  0  0  0  0  0  0  0  0
  -22.9211  -19.8754   20.3842 C   0  0  0  0  0  0  0  0  0  0  0  0
  -21.6093  -28.6150   20.1018 C   0  0  0  0  0  0  0  0  0  0  0  0
  -23.5270  -18.5406   20.8239 C   0  0  0  0  0  0  0  0  0  0  0  0
  -23.6342  -20.4459   19.1595 C   0  0  0  0  0  0  0  0  0  0  0  0
  -25.6982  -19.2269   19.7278 C   0  0  0  0  0  0  0  0  0  0  0  0
  -22.3574  -27.5241   20.8777 C   0  0  1  0  0  0  0  0  0  0  0  0
  -24.5592  -29.1965   23.4831 C   0  0  1  0  0  0  0  0  0  0  0  0
  -25.0549  -18.6450   20.9971 C   0  0  2  0  0  0  0  0  0  0  0  0
  -26.9894  -36.2369   25.6116 C   0  0  0  0  0  0  0  0  0  0  0  0
  -24.6159  -32.7375   20.5135 C   0  0  0  0  0  0  0  0  0  0  0  0
  -25.6725  -34.8418   21.3642 C   0  0  0  0  0  0  0  0  0  0  0  0
  -23.4188  -34.1590   22.1870 C   0  0  0  0  0  0  0  0  0  0  0  0
  -27.6752  -32.9563   27.4127 C   0  0  0  0  0  0  0  0  0  0  0  0
  -32.2108  -27.3497   20.7500 C   0  0  0  0  0  0  0  0  0  0  0  0
  -31.1007  -28.1305   21.4358 C   0  0  0  0  0  0  0  0  0  1  0  0
  -31.7700  -25.9431   20.3766 C   0  0  0  0  0  0  0  0  0  0  0  0
  -25.4584  -32.8747   22.9501 C   0  0  1  0  0  0  0  0  0  0  0  0
  -26.7670  -34.7731   25.9590 C   0  0  2  0  0  0  0  0  0  0  0  0
  -24.8039  -33.6280   21.7579 C   0  0  0  0  0  0  0  0  0  0  0  0
  -25.1094  -16.1805   20.9290 N   0  0  0  0  0  0  0  0  0  0  0  0
  -25.6689  -17.3134   21.3869 N   0  0  0  0  0  0  0  0  0  0  0  0
  -25.3293  -30.4265   23.2872 N   0  0  0  0  0  0  0  0  0  0  0  0
  -25.0773  -20.5194   19.3982 N   0  0  0  0  0  0  0  0  0  0  0  0
  -27.4454  -18.1385   22.7188 N   0  0  0  0  0  0  0  0  0  0  0  0
  -29.8657  -20.9203   21.5599 N   0  0  0  0  0  0  0  0  0  0  0  0
  -27.9867  -13.6593   22.9185 N   0  0  0  0  0  0  0  0  0  0  0  0
  -27.1027  -21.7146   19.5760 N   0  0  0  0  0  0  0  0  0  0  0  0
  -22.9341  -28.0698   22.0877 N   0  0  0  0  0  0  0  0  0  0  0  0
  -25.6239  -33.6861   24.1512 N   0  0  0  0  0  0  0  0  0  0  0  0
  -27.7904  -34.3677   26.9636 N   0  3  0  0  0  0  0  0  0  0  0  0
  -30.3290  -20.5076   19.3522 O   0  0  0  0  0  0  0  0  0  0  0  0
  -28.8233  -15.6698   23.6374 O   0  0  0  0  0  0  0  0  0  0  0  0
  -24.9060  -28.8980   21.1667 O   0  0  0  0  0  0  0  0  0  0  0  0
  -23.5042  -31.7992   23.7570 O   0  0  0  0  0  0  0  0  0  0  0  0
  -27.9237  -33.4366   24.3118 O   0  0  0  0  0  0  0  0  0  0  0  0
  -25.1312  -22.7974   19.0083 O   0  0  0  0  0  0  0  0  0  0  0  0
  -24.7925   -9.8412   20.4177 O   0  0  0  0  0  0  0  0  0  0  0  0
  -30.6915  -27.4504   22.6217 O   0  0  0  0  0  0  0  0  0  1  0  0
  -30.6653  -26.0045   19.4846 O   0  0  0  0  0  0  0  0  0  0  0  0
  -19.5499   -8.1749   20.7945 F   0  0  0  0  0  0  0  0  0  0  0  0
  -27.9989  -26.3670   18.8817 F   0  0  0  0  0  0  0  0  0  0  0  0
  -24.0562   -7.8699   22.2106 F   0  0  0  0  0  0  0  0  0  0  0  0
  1  2  1  0  0  0  0
  1  5  2  0  0  0  0
  2  6  2  0  0  0  0
  3  8  2  0  0  0  0
  3 17  1  0  0  0  0
  4  9  1  0  0  0  0
  4 17  2  0  0  0  0
  5 20  1  0  0  0  0
  6 22  1  0  0  0  0
  7 10  2  0  0  0  0
  7 21  1  0  0  0  0
  8 25  1  0  0  0  0
  9 25  2  0  0  0  0
 10 26  1  0  0  0  0
 11 12  2  0  0  0  0
 11 27  1  0  0  0  0
 12 29  1  0  0  0  0
 13 18  2  0  0  0  0
 13 28  1  0  0  0  0
 14 23  1  0  0  0  0
 14 26  2  0  0  0  0
 15 24  2  0  0  0  0
 15 30  1  0  0  0  0
 16 29  2  0  0  0  0
 16 31  1  0  0  0  0
 17 32  1  0  0  0  0
 18 24  1  0  0  0  0
 18 34  1  0  0  0  0
 19 32  1  0  0  0  0
 19 33  2  0  0  0  0
 19 35  1  0  0  0  0
 20 22  2  0  0  0  0
 20 40  1  0  0  0  0
 21 23  2  0  0  0  0
 21 41  1  0  0  0  0
 22 49  1  0  0  0  0
 23 42  1  0  0  0  0
 24 70  1  0  0  0  0
 25 80  1  0  0  0  0
 26 81  1  0  0  0  0
 27 31  2  0  0  0  0
 27 80  1  0  0  0  0
 28 30  2  0  0  0  0
 28 82  1  0  0  0  0
 29 83  1  0  0  0  0
 30 84  1  0  0  0  0
 31 85  1  0  0  0  0
 32 63  2  0  0  0  0
 33 64  1  0  0  0  0
 33 67  1  0  0  0  0
 34 68  1  0  0  0  0
 34 74  2  0  0  0  0
 35 69  1  0  0  0  0
 35 75  2  0  0  0  0
 36 50  1  0  0  0  0
 36 71  1  0  0  0  0
 36 76  2  0  0  0  0
 37 60  1  0  0  0  0
 37 65  1  0  0  0  0
 37 77  2  0  0  0  0
 38 61  1  0  0  0  0
 38 72  1  0  0  0  0
 38 78  2  0  0  0  0
 39 66  1  0  0  0  0
 39 70  1  0  0  0  0
 39 79  2  0  0  0  0
 40 43  1  0  0  0  0
 41 50  1  0  0  0  0
 42 65  1  0  0  0  0
 43 45  1  0  0  0  0
 44 46  1  0  0  0  0
 44 47  1  0  0  0  0
 45 49  1  0  0  0  0
 46 51  1  0  0  0  0
 47 66  1  0  0  0  0
 48 51  1  0  0  0  0
 48 66  1  0  0  0  0
 49 71  1  0  0  0  0
 50 65  1  0  0  0  0
 51 64  1  0  0  0  0
 52 61  1  0  0  0  0
 53 62  1  0  0  0  0
 54 62  1  0  0  0  0
 55 62  1  0  0  0  0
 56 73  1  0  0  0  0
 57 58  1  0  0  0  0
 57 59  1  0  0  0  0
 58 81  1  0  0  0  0
 59 82  1  0  0  0  0
 60 62  1  0  0  0  0
 60 72  1  0  0  0  0
 61 73  1  0  0  0  0
 63 64  1  0  0  0  0
M  CHG  1  73   1
M  ISO  4  39 100  58 101  70 100  81 101
M  END
> <Batch ID>
0100

> <Smiles>
CNC(C)C(=O)NC(C(=O)N1Cc2cc([101O:1][101CH2:1]CCOc3cc(C(N)=O)c([100NH:0][100C:0](=O)N4CCCC(n5nc(-c6ccc(Oc7ccc(F)cc7F)cc6)c(C(N)=O)c5N)C4)cc3F)ccc2CC1C(=O)NC1CCCc2ccccc21)C(C)(C)C

> <Shape>
0.245

> <Color>
0.079

> <Negative vol penalty>
0.000

$$$$

  -OEChem-04052300573D

 85 93  0     1  0  0  0  0  0999 V2000
  -31.2374  -25.6731   17.9084 C   0  0  0  0  0  0  0  0  0  0  0  0
  -29.8543  -25.5316   17.9598 C   0  0  0  0  0  0  0  0  0  0  0  0
  -27.1518  -19.6201   19.8542 C   0  0  0  0  0  0  0  0  0  0  0  0
  -28.8075  -20.8245   18.5717 C   0  0  0  0  0  0  0  0  0  0  0  0
  -31.9142  -26.2835   18.9635 C   0  0  0  0  0  0  0  0  0  0  0  0
  -29.1474  -25.9995   19.0670 C   0  0  0  0  0  0  0  0  0  0  0  0
  -23.5336  -28.4471   19.0849 C   0  0  0  0  0  0  0  0  0  0  0  0
  -28.0825  -18.6132   20.1102 C   0  0  0  0  0  0  0  0  0  0  0  0
  -29.7383  -19.8177   18.8277 C   0  0  0  0  0  0  0  0  0  0  0  0
  -22.2786  -27.9134   19.3744 C   0  0  0  0  0  0  0  0  0  0  0  0
  -32.4446  -17.3916   18.8419 C   0  0  0  0  0  0  0  0  0  0  0  0
  -33.2223  -16.9412   17.7752 C   0  0  0  0  0  0  0  0  0  0  0  0
  -22.4515  -28.7467   21.6316 C   0  0  0  0  0  0  0  0  0  0  0  0
  -19.2074  -24.0873   17.8841 C   0  0  0  0  0  0  0  0  0  0  0  0
  -20.3822  -22.7045   19.4792 C   0  0  0  0  0  0  0  0  0  0  0  0
  -31.2212  -16.2704   16.5994 C   0  0  0  0  0  0  0  0  0  0  0  0
  -27.5143  -20.7257   19.0849 C   0  0  0  0  0  0  0  0  0  0  0  0
  -26.3129  -22.9184   19.5914 C   0  0  0  0  0  0  0  0  0  0  0  0
  -31.2142  -26.7678   20.0798 C   0  0  0  0  0  0  0  0  0  0  0  0
  -24.2630  -29.1263   20.0714 C   0  0  0  0  0  0  0  0  0  0  0  0
  -29.8157  -26.6158   20.1386 C   0  0  0  0  0  0  0  0  0  0  0  0
  -23.7145  -29.2903   21.3513 C   0  0  0  0  0  0  0  0  0  0  0  0
  -19.4705  -23.1542   16.8813 C   0  0  0  0  0  0  0  0  0  0  0  0
  -19.6632  -23.8625   19.1831 C   0  0  0  0  0  0  0  0  0  0  0  0
  -20.1895  -21.9962   17.1775 C   0  0  0  0  0  0  0  0  0  0  0  0
  -29.3758  -18.7120   19.5970 C   0  0  0  0  0  0  0  0  0  0  0  0
  -21.7386  -28.0606   20.6487 C   0  0  0  0  0  0  0  0  0  0  0  0
  -31.0551  -17.2814   18.7874 C   0  0  0  0  0  0  0  0  0  0  0  0
  -32.6107  -16.3806   16.6540 C   0  0  0  0  0  0  0  0  0  0  0  0
  -20.6453  -21.7713   18.4764 C   0  0  0  0  0  0  0  0  0  0  0  0
  -30.4434  -16.7209   17.6661 C   0  0  0  0  0  0  0  0  0  0  0  0
  -26.5531  -21.7659   18.8196 C   0  0  0  0  0  0  0  0  0  0  0  0
  -25.3134  -23.5792   18.9200 C   0  0  0  0  0  0  0  0  0  0  0  0
  -26.9375  -23.3529   20.8067 C   0  0  0  0  0  0  0  0  0  0  0  0
  -27.0643  -28.6705   21.5027 C   0  0  0  0  0  0  0  0  0  0  0  0
  -26.4160  -31.5589   22.8291 C   0  0  0  0  0  0  0  0  0  0  0  0
  -19.7731  -24.7473   21.5387 C   0  0  0  0  0  0  0  0  0  0  0  0
  -24.0751  -33.8698   23.7381 C   0  0  0  0  0  0  0  0  0  0  0  0
  -21.2049  -21.3135   14.9879 C   0  0  0  0  0  0  0  0  0  0  0  0
  -31.9943  -27.3780   21.2172 C   0  0  0  0  0  0  0  0  0  0  0  0
  -25.6039  -29.7194   19.7355 C   0  0  0  0  0  0  0  0  0  0  0  0
  -24.4483  -30.0286   22.4399 C   0  0  0  0  0  0  0  0  0  0  0  0
  -31.1311  -28.1831   22.1851 C   0  0  0  0  0  0  0  0  0  0  0  0
  -23.4808  -24.1980   14.5489 C   0  0  0  0  0  0  0  0  0  0  0  0
  -29.8715  -27.4045   22.5512 C   0  0  0  0  0  0  0  0  0  0  0  0
  -24.5525  -23.9490   15.6085 C   0  0  0  0  0  0  0  0  0  0  0  0
  -22.8614  -22.8951   14.0526 C   0  0  0  0  0  0  0  0  0  0  0  0
  -23.3811  -21.7934   16.2108 C   0  0  0  0  0  0  0  0  0  0  0  0
  -29.0110  -27.1328   21.3113 C   0  0  1  0  0  0  0  0  0  0  0  0
  -26.4814  -29.9458   20.9628 C   0  0  1  0  0  0  0  0  0  0  0  0
  -23.9920  -23.0929   16.7562 C   0  0  1  0  0  0  0  0  0  0  0  0
  -18.9709  -23.4219   15.4984 C   0  0  0  0  0  0  0  0  0  0  0  0
  -23.8457  -36.1148   24.8356 C   0  0  0  0  0  0  0  0  0  0  0  0
  -26.8776  -30.2703   25.5561 C   0  0  0  0  0  0  0  0  0  0  0  0
  -25.7328  -32.2363   26.6012 C   0  0  0  0  0  0  0  0  0  0  0  0
  -27.8416  -32.5647   25.3099 C   0  0  0  0  0  0  0  0  0  0  0  0
  -19.7461  -19.7521   16.1986 C   0  0  0  0  0  0  0  0  0  0  0  0
  -22.8812  -35.0649   21.3080 C   0  0  0  0  0  0  0  0  0  0  0  0
  -19.2812  -25.9795   22.2896 C   0  0  0  0  0  0  0  0  0  0  0  0
  -20.2825  -27.1247   22.2795 C   0  0  0  0  0  0  0  0  0  1  0  0
  -25.7024  -32.0277   24.0740 C   0  0  1  0  0  0  0  0  0  0  0  0
  -24.0026  -35.3702   23.5189 C   0  0  2  0  0  0  0  0  0  0  0  0
  -26.5254  -31.7591   25.3656 C   0  0  0  0  0  0  0  0  0  0  0  0
  -25.7692  -21.6954   17.7404 N   0  0  0  0  0  0  0  0  0  0  0  0
  -25.0266  -22.8120   17.8295 N   0  0  0  0  0  0  0  0  0  0  0  0
  -25.7586  -30.5848   22.0643 N   0  0  0  0  0  0  0  0  0  0  0  0
  -22.3865  -22.0635   15.1597 N   0  0  0  0  0  0  0  0  0  0  0  0
  -24.6606  -24.7357   19.1621 N   0  0  0  0  0  0  0  0  0  0  0  0
  -27.9470  -22.5545   21.3616 N   0  0  0  0  0  0  0  0  0  0  0  0
  -19.3968  -24.8103   20.1997 N   0  0  0  0  0  0  0  0  0  0  0  0
  -28.2753  -28.3213   20.9363 N   0  0  0  0  0  0  0  0  0  0  0  0
  -25.3777  -33.4328   23.8538 N   0  0  0  0  0  0  0  0  0  0  0  0
  -20.4699  -21.0206   16.1525 N   0  0  0  0  0  0  0  0  0  0  0  0
  -22.8442  -35.7107   22.6454 N   0  3  0  0  0  0  0  0  0  0  0  0
  -26.5988  -24.4093   21.3922 O   0  0  0  0  0  0  0  0  0  0  0  0
  -26.4607  -28.0500   22.3702 O   0  0  0  0  0  0  0  0  0  0  0  0
  -27.5130  -32.0444   22.5418 O   0  0  0  0  0  0  0  0  0  0  0  0
  -20.4080  -23.8558   22.0922 O   0  0  0  0  0  0  0  0  0  0  0  0
  -23.0758  -33.1572   23.8041 O   0  0  0  0  0  0  0  0  0  0  0  0
  -20.8567  -20.8855   13.8806 O   0  0  0  0  0  0  0  0  0  0  0  0
  -30.2843  -17.7298   19.8468 O   0  0  0  0  0  0  0  0  0  0  0  0
  -20.5141  -27.5401   20.9341 O   0  0  0  0  0  0  0  0  0  1  0  0
  -33.3576  -15.9495   15.6291 F   0  0  0  0  0  0  0  0  0  0  0  0
  -21.3375  -20.6621   18.7732 F   0  0  0  0  0  0  0  0  0  0  0  0
  -29.1090  -16.6134   17.6074 F   0  0  0  0  0  0  0  0  0  0  0  0
  1  2  1  0  0  0  0
  1  5  2  0  0  0  0
  2  6  2  0  0  0  0
  3  8  2  0  0  0  0
  3 17  1  0  0  0  0
  4  9  1  0  0  0  0
  4 17  2  0  0  0  0
  5 19  1  0  0  0  0
  6 21  1  0  0  0  0
  7 10  2  0  0  0  0
  7 20  1  0  0  0  0
  8 26  1  0  0  0  0
  9 26  2  0  0  0  0
 10 27  1  0  0  0  0
 11 12  2  0  0  0  0
 11 28  1  0  0  0  0
 12 29  1  0  0  0  0
 13 22  1  0  0  0  0
 13 27  2  0  0  0  0
 14 23  2  0  0  0  0
 14 24  1  0  0  0  0
 15 24  2  0  0  0  0
 15 30  1  0  0  0  0
 16 29  2  0  0  0  0
 16 31  1  0  0  0  0
 17 32  1  0  0  0  0
 18 32  1  0  0  0  0
 18 33  2  0  0  0  0
 18 34  1  0  0  0  0
 19 21  2  0  0  0  0
 19 40  1  0  0  0  0
 20 22  2  0  0  0  0
 20 41  1  0  0  0  0
 21 49  1  0  0  0  0
 22 42  1  0  0  0  0
 23 25  1  0  0  0  0
 23 52  1  0  0  0  0
 24 70  1  0  0  0  0
 25 30  2  0  0  0  0
 25 73  1  0  0  0  0
 26 81  1  0  0  0  0
 27 82  1  0  0  0  0
 28 31  2  0  0  0  0
 28 81  1  0  0  0  0
 29 83  1  0  0  0  0
 30 84  1  0  0  0  0
 31 85  1  0  0  0  0
 32 64  2  0  0  0  0
 33 65  1  0  0  0  0
 33 68  1  0  0  0  0
 34 69  1  0  0  0  0
 34 75  2  0  0  0  0
 35 50  1  0  0  0  0
 35 71  1  0  0  0  0
 35 76  2  0  0  0  0
 36 61  1  0  0  0  0
 36 66  1  0  0  0  0
 36 77  2  0  0  0  0
 37 59  1  0  0  0  0
 37 70  1  0  0  0  0
 37 78  2  0  0  0  0
 38 62  1  0  0  0  0
 38 72  1  0  0  0  0
 38 79  2  0  0  0  0
 39 67  1  0  0  0  0
 39 73  1  0  0  0  0
 39 80  2  0  0  0  0
 40 43  1  0  0  0  0
 41 50  1  0  0  0  0
 42 66  1  0  0  0  0
 43 45  1  0  0  0  0
 44 46  1  0  0  0  0
 44 47  1  0  0  0  0
 45 49  1  0  0  0  0
 46 51  1  0  0  0  0
 47 67  1  0  0  0  0
 48 51  1  0  0  0  0
 48 67  1  0  0  0  0
 49 71  1  0  0  0  0
 50 66  1  0  0  0  0
 51 65  1  0  0  0  0
 53 62  1  0  0  0  0
 54 63  1  0  0  0  0
 55 63  1  0  0  0  0
 56 63  1  0  0  0  0
 57 73  1  0  0  0  0
 58 74  1  0  0  0  0
 59 60  1  0  0  0  0
 60 82  1  0  0  0  0
 61 63  1  0  0  0  0
 61 72  1  0  0  0  0
 62 74  1  0  0  0  0
 64 65  1  0  0  0  0
M  CHG  1  74   1
M  ISO  4  39 100  60 101  73 100  82 101
M  END
> <Batch ID>
0100

> <Smiles>
CNC(C)C(=O)NC(C(=O)N1Cc2cc([101O:1][101CH2:1]CC(=O)Nc3cc(C)c([100N:0](C)[100C:0](=O)N4CCCC(n5nc(-c6ccc(Oc7ccc(F)cc7F)cc6)c(C(N)=O)c5N)C4)c(F)c3)ccc2CC1C(=O)NC1CCCc2ccccc21)C(C)(C)C

> <Shape>
0.231

> <Color>
0.070

> <Negative vol penalty>
0.000

$$$$

  -OEChem-04052300573D

 86 94  0     1  0  0  0  0  0999 V2000
  -27.8134  -23.7184   17.7716 C   0  0  0  0  0  0  0  0  0  0  0  0
  -26.6926  -24.4681   18.1102 C   0  0  0  0  0  0  0  0  0  0  0  0
  -27.7900  -11.7846   19.9507 C   0  0  0  0  0  0  0  0  0  0  0  0
  -25.6393  -12.8823   19.8677 C   0  0  0  0  0  0  0  0  0  0  0  0
  -29.0045  -23.8972   18.4720 C   0  0  0  0  0  0  0  0  0  0  0  0
  -26.7658  -25.4053   19.1414 C   0  0  0  0  0  0  0  0  0  0  0  0
  -22.8456  -28.3010   19.8120 C   0  0  0  0  0  0  0  0  0  0  0  0
  -24.0217  -21.8532   20.7223 C   0  0  0  0  0  0  0  0  0  0  0  0
  -24.9717  -20.9825   20.1885 C   0  0  0  0  0  0  0  0  0  0  0  0
  -27.2356  -10.7559   20.7122 C   0  0  0  0  0  0  0  0  0  0  0  0
  -25.0849  -11.8535   20.6293 C   0  0  0  0  0  0  0  0  0  0  0  0
  -21.6467  -27.8341   20.3490 C   0  0  0  0  0  0  0  0  0  0  0  0
  -23.9930   -8.6950   20.1270 C   0  0  0  0  0  0  0  0  0  0  0  0
  -22.7639   -8.1779   19.7179 C   0  0  0  0  0  0  0  0  0  0  0  0
  -22.1916  -28.8755   22.4556 C   0  0  0  0  0  0  0  0  0  0  0  0
  -26.7205  -22.1797   21.3486 C   0  0  0  0  0  0  0  0  0  0  0  0
  -21.7906   -8.8166   21.8349 C   0  0  0  0  0  0  0  0  0  0  0  0
  -26.9918  -12.8479   19.5285 C   0  0  0  0  0  0  0  0  0  0  0  0
  -27.6520  -13.9780   17.3388 C   0  0  0  0  0  0  0  0  0  0  0  0
  -29.0880  -24.8284   19.5203 C   0  0  0  0  0  0  0  0  0  0  0  0
  -23.7330  -29.0507   20.5973 C   0  0  0  0  0  0  0  0  0  0  0  0
  -27.9656  -25.6174   19.8443 C   0  0  0  0  0  0  0  0  0  0  0  0
  -23.3999  -29.3529   21.9254 C   0  0  0  0  0  0  0  0  0  0  0  0
  -24.4210  -22.8872   21.5691 C   0  0  0  0  0  0  0  0  0  0  0  0
  -26.3211  -21.1457   20.5017 C   0  0  0  0  0  0  0  0  0  0  0  0
  -25.8831  -10.7903   21.0515 C   0  0  0  0  0  0  0  0  0  0  0  0
  -21.3208  -28.1188   21.6718 C   0  0  0  0  0  0  0  0  0  0  0  0
  -24.1210   -9.2729   21.3901 C   0  0  0  0  0  0  0  0  0  0  0  0
  -21.6626   -8.2387   20.5718 C   0  0  0  0  0  0  0  0  0  0  0  0
  -25.7704  -23.0504   21.8823 C   0  0  0  0  0  0  0  0  0  0  0  0
  -23.0198   -9.3337   22.2440 C   0  0  0  0  0  0  0  0  0  0  0  0
  -27.5640  -13.9111   18.7422 C   0  0  0  0  0  0  0  0  0  0  0  0
  -28.2729  -15.1777   17.0905 C   0  0  0  0  0  0  0  0  0  0  0  0
  -27.2118  -13.0396   16.3482 C   0  0  0  0  0  0  0  0  0  0  0  0
  -26.7220  -28.6541   21.6035 C   0  0  0  0  0  0  0  0  0  0  0  0
  -26.3335  -31.6743   22.7215 C   0  0  0  0  0  0  0  0  0  0  0  0
  -22.0264  -24.4530   24.1459 C   0  0  0  0  0  0  0  0  0  0  0  0
  -24.1997  -34.1286   23.7562 C   0  0  0  0  0  0  0  0  0  0  0  0
  -28.6650  -20.2851   20.1672 C   0  0  0  0  0  0  0  0  0  0  0  0
  -30.4042  -24.9869   20.2398 C   0  0  0  0  0  0  0  0  0  0  0  0
  -25.0100  -29.5697   19.9953 C   0  0  0  0  0  0  0  0  0  0  0  0
  -24.3089  -30.1711   22.8045 C   0  0  0  0  0  0  0  0  0  0  0  0
  -30.2625  -25.6745   21.5939 C   0  0  0  0  0  0  0  0  0  0  0  0
  -31.3716  -18.2648   19.0404 C   0  0  0  0  0  0  0  0  0  0  0  0
  -29.4383  -26.9449   21.4480 C   0  0  0  0  0  0  0  0  0  0  0  0
  -30.7094  -16.9270   18.7026 C   0  0  0  0  0  0  0  0  0  0  0  0
  -30.7375  -18.9177   20.2673 C   0  0  0  0  0  0  0  0  0  0  0  0
  -28.6159  -17.7309   19.8679 C   0  0  0  0  0  0  0  0  0  0  0  0
  -28.0131  -26.6208   20.9824 C   0  0  1  0  0  0  0  0  0  0  0  0
  -26.0765  -29.8878   21.0387 C   0  0  1  0  0  0  0  0  0  0  0  0
  -29.1778  -17.0663   18.6005 C   0  0  2  0  0  0  0  0  0  0  0  0
  -24.1793  -36.4745   24.6469 C   0  0  0  0  0  0  0  0  0  0  0  0
  -27.2113  -30.6414   25.4551 C   0  0  0  0  0  0  0  0  0  0  0  0
  -26.2754  -32.7311   26.4677 C   0  0  0  0  0  0  0  0  0  0  0  0
  -28.1529  -32.8728   24.8314 C   0  0  0  0  0  0  0  0  0  0  0  0
  -22.6459  -35.1182   21.4399 C   0  0  0  0  0  0  0  0  0  0  0  0
  -23.3901  -23.8253   22.1458 C   0  0  0  0  0  0  0  0  0  0  0  0
  -23.0357  -23.5066   23.6009 C   0  0  0  0  0  0  0  0  0  0  0  0
  -18.8747  -25.7164   22.7780 C   0  0  0  0  0  0  0  0  0  0  0  0
  -19.7551  -25.3733   23.9681 C   0  0  0  0  0  0  0  0  0  0  0  0
  -19.6356  -26.4407   21.6747 C   0  0  0  0  0  0  0  0  0  1  0  0
  -25.8358  -32.2812   24.0111 C   0  0  1  0  0  0  0  0  0  0  0  0
  -24.1125  -35.6023   23.4029 C   0  0  2  0  0  0  0  0  0  0  0  0
  -26.8524  -32.1145   25.1756 C   0  0  0  0  0  0  0  0  0  0  0  0
  -28.0873  -14.9830   19.3433 N   0  0  0  0  0  0  0  0  0  0  0  0
  -28.5101  -15.7346   18.3126 N   0  0  0  0  0  0  0  0  0  0  0  0
  -25.5489  -30.6506   22.1719 N   0  0  0  0  0  0  0  0  0  0  0  0
  -29.2865  -19.0203   20.0974 N   0  0  0  0  0  0  0  0  0  0  0  0
  -28.6337  -15.7999   15.9481 N   0  0  0  0  0  0  0  0  0  0  0  0
  -26.5927  -11.8573   16.7763 N   0  0  0  0  0  0  0  0  0  0  0  0
  -22.3935  -25.1735   25.1997 N   0  0  0  0  0  0  0  0  0  0  0  0
  -27.2865  -20.2625   19.9579 N   0  0  0  0  0  0  0  0  0  0  0  0
  -27.3312  -27.8539   20.6559 N   0  0  0  0  0  0  0  0  0  0  0  0
  -25.4982  -33.6674   23.7063 N   0  0  0  0  0  0  0  0  0  0  0  0
  -20.8429  -24.4966   23.5336 N   0  3  0  0  0  0  0  0  0  0  0  0
  -22.8331  -35.8905   22.6950 N   0  3  0  0  0  0  0  0  0  0  0  0
  -27.3777  -13.2359   15.1204 O   0  0  0  0  0  0  0  0  0  0  0  0
  -26.6724  -28.4446   22.8099 O   0  0  0  0  0  0  0  0  0  0  0  0
  -27.3762  -32.0980   22.2166 O   0  0  0  0  0  0  0  0  0  0  0  0
  -23.2150  -33.4548   24.0508 O   0  0  0  0  0  0  0  0  0  0  0  0
  -29.3121  -21.3159   20.3687 O   0  0  0  0  0  0  0  0  0  0  0  0
  -25.3418   -9.7865   21.7945 O   0  0  0  0  0  0  0  0  0  0  0  0
  -20.1515  -27.6637   22.1986 O   0  0  0  0  0  0  0  0  0  1  0  0
  -20.4820   -7.7434   20.1782 F   0  0  0  0  0  0  0  0  0  0  0  0
  -26.1638  -24.0408   22.6951 F   0  0  0  0  0  0  0  0  0  0  0  0
  -23.1363   -9.8887   23.4582 F   0  0  0  0  0  0  0  0  0  0  0  0
  1  2  1  0  0  0  0
  1  5  2  0  0  0  0
  2  6  2  0  0  0  0
  3 10  2  0  0  0  0
  3 18  1  0  0  0  0
  4 11  1  0  0  0  0
  4 18  2  0  0  0  0
  5 20  1  0  0  0  0
  6 22  1  0  0  0  0
  7 12  2  0  0  0  0
  7 21  1  0  0  0  0
  8  9  2  0  0  0  0
  8 24  1  0  0  0  0
  9 25  1  0  0  0  0
 10 26  1  0  0  0  0
 11 26  2  0  0  0  0
 12 27  1  0  0  0  0
 13 14  2  0  0  0  0
 13 28  1  0  0  0  0
 14 29  1  0  0  0  0
 15 23  1  0  0  0  0
 15 27  2  0  0  0  0
 16 25  2  0  0  0  0
 16 30  1  0  0  0  0
 17 29  2  0  0  0  0
 17 31  1  0  0  0  0
 18 32  1  0  0  0  0
 19 32  1  0  0  0  0
 19 33  2  0  0  0  0
 19 34  1  0  0  0  0
 20 22  2  0  0  0  0
 20 40  1  0  0  0  0
 21 23  2  0  0  0  0
 21 41  1  0  0  0  0
 22 49  1  0  0  0  0
 23 42  1  0  0  0  0
 24 30  2  0  0  0  0
 24 57  1  0  0  0  0
 25 72  1  0  0  0  0
 26 82  1  0  0  0  0
 27 83  1  0  0  0  0
 28 31  2  0  0  0  0
 28 82  1  0  0  0  0
 29 84  1  0  0  0  0
 30 85  1  0  0  0  0
 31 86  1  0  0  0  0
 32 65  2  0  0  0  0
 33 66  1  0  0  0  0
 33 69  1  0  0  0  0
 34 70  1  0  0  0  0
 34 77  2  0  0  0  0
 35 50  1  0  0  0  0
 35 73  1  0  0  0  0
 35 78  2  0  0  0  0
 36 62  1  0  0  0  0
 36 67  1  0  0  0  0
 36 79  2  0  0  0  0
 37 58  1  0  0  0  0
 37 71  1  0  0  0  0
 37 75  2  0  0  0  0
 38 63  1  0  0  0  0
 38 74  1  0  0  0  0
 38 80  2  0  0  0  0
 39 68  1  0  0  0  0
 39 72  1  0  0  0  0
 39 81  2  0  0  0  0
 40 43  1  0  0  0  0
 41 50  1  0  0  0  0
 42 67  1  0  0  0  0
 43 45  1  0  0  0  0
 44 46  1  0  0  0  0
 44 47  1  0  0  0  0
 45 49  1  0  0  0  0
 46 51  1  0  0  0  0
 47 68  1  0  0  0  0
 48 51  1  0  0  0  0
 48 68  1  0  0  0  0
 49 73  1  0  0  0  0
 50 67  1  0  0  0  0
 51 66  1  0  0  0  0
 52 63  1  0  0  0  0
 53 64  1  0  0  0  0
 54 64  1  0  0  0  0
 55 64  1  0  0  0  0
 56 76  1  0  0  0  0
 57 58  1  0  0  0  0
 59 60  1  0  0  0  0
 59 61  1  0  0  0  0
 60 75  1  0  0  0  0
 61 83  1  0  0  0  0
 62 64  1  0  0  0  0
 62 74  1  0  0  0  0
 63 76  1  0  0  0  0
 65 66  1  0  0  0  0
M  CHG  2  75   1  76   1
M  ISO  4  39 100  61 101  72 100  83 101
M  END
> <Batch ID>
0100

> <Smiles>
CNC(C)C(=O)NC(C(=O)N1Cc2cc([101O:1][101CH2:1]CCNC(=N)CCc3ccc([100NH:0][100C:0](=O)N4CCCC(n5nc(-c6ccc(Oc7ccc(F)cc7F)cc6)c(C(N)=O)c5N)C4)cc3F)ccc2CC1C(=O)NC1CCCc2ccccc21)C(C)(C)C

> <Shape>
0.318

> <Color>
0.062

> <Negative vol penalty>
0.000

$$$$

  -OEChem-04052300573D

 85 93  0     1  0  0  0  0  0999 V2000
  -27.9092  -20.8169   22.7946 C   0  0  0  0  0  0  0  0  0  0  0  0
  -26.7322  -20.5369   22.1078 C   0  0  0  0  0  0  0  0  0  0  0  0
  -25.3074  -30.0330   23.1829 C   0  0  0  0  0  0  0  0  0  0  0  0
  -26.3982  -31.5219   21.6239 C   0  0  0  0  0  0  0  0  0  0  0  0
  -24.0667  -20.9049   17.0294 C   0  0  0  0  0  0  0  0  0  0  0  0
  -28.9938  -19.9458   22.7006 C   0  0  0  0  0  0  0  0  0  0  0  0
  -26.6396  -19.3862   21.3256 C   0  0  0  0  0  0  0  0  0  0  0  0
  -22.2743  -16.9140   22.0165 C   0  0  0  0  0  0  0  0  0  0  0  0
  -22.6785  -20.8644   16.8992 C   0  0  0  0  0  0  0  0  0  0  0  0
  -25.2624  -31.0568   24.1291 C   0  0  0  0  0  0  0  0  0  0  0  0
  -26.3532  -32.5457   22.5701 C   0  0  0  0  0  0  0  0  0  0  0  0
  -21.1442  -17.4277   21.3817 C   0  0  0  0  0  0  0  0  0  0  0  0
  -24.0726  -34.7381   23.7588 C   0  0  0  0  0  0  0  0  0  0  0  0
  -23.6662  -36.0004   23.3267 C   0  0  0  0  0  0  0  0  0  0  0  0
  -21.3778  -15.7742   19.6409 C   0  0  0  0  0  0  0  0  0  0  0  0
  -22.4488  -22.0899   18.9686 C   0  0  0  0  0  0  0  0  0  0  0  0
  -25.7925  -36.9199   24.0128 C   0  0  0  0  0  0  0  0  0  0  0  0
  -25.8754  -30.2655   21.9302 C   0  0  0  0  0  0  0  0  0  0  0  0
  -24.6459  -21.5377   18.1292 C   0  0  0  0  0  0  0  0  0  0  0  0
  -24.9499  -28.9043   19.9813 C   0  0  0  0  0  0  0  0  0  0  0  0
  -28.9111  -18.7789   21.9247 C   0  0  0  0  0  0  0  0  0  0  0  0
  -22.9721  -15.8316   21.4615 C   0  0  0  0  0  0  0  0  0  0  0  0
  -27.7245  -18.4994   21.2201 C   0  0  0  0  0  0  0  0  0  0  0  0
  -22.5149  -15.2469   20.2719 C   0  0  0  0  0  0  0  0  0  0  0  0
  -21.8696  -21.4570   17.8687 C   0  0  0  0  0  0  0  0  0  0  0  0
  -25.7853  -32.3131   23.8228 C   0  0  0  0  0  0  0  0  0  0  0  0
  -20.6975  -16.8597   20.1922 C   0  0  0  0  0  0  0  0  0  0  0  0
  -25.3390  -34.5665   24.3180 C   0  0  0  0  0  0  0  0  0  0  0  0
  -24.5261  -37.0913   23.4537 C   0  0  0  0  0  0  0  0  0  0  0  0
  -23.8369  -22.1302   19.0988 C   0  0  0  0  0  0  0  0  0  0  0  0
  -26.1989  -35.6574   24.4450 C   0  0  0  0  0  0  0  0  0  0  0  0
  -25.9227  -29.2082   20.9525 C   0  0  0  0  0  0  0  0  0  0  0  0
  -25.4637  -27.8235   19.3073 C   0  0  0  0  0  0  0  0  0  0  0  0
  -26.1248  -21.5778   18.2640 C   0  0  0  0  0  0  0  0  0  0  0  0
  -23.6942  -29.5420   19.7125 C   0  0  0  0  0  0  0  0  0  0  0  0
  -25.9207  -15.3918   20.3589 C   0  0  0  0  0  0  0  0  0  0  0  0
  -24.9537  -12.3044   20.1237 C   0  0  0  0  0  0  0  0  0  0  0  0
  -22.3728  -10.0914   19.8272 C   0  0  0  0  0  0  0  0  0  0  0  0
  -27.9955  -22.8963   19.2052 C   0  0  0  0  0  0  0  0  0  0  0  0
  -30.1260  -17.8919   21.8158 C   0  0  0  0  0  0  0  0  0  0  0  0
  -24.1736  -15.2721   22.1726 C   0  0  0  0  0  0  0  0  0  0  0  0
  -23.2166  -14.0706   19.6456 C   0  0  0  0  0  0  0  0  0  0  0  0
  -29.8178  -16.5017   21.2655 C   0  0  0  0  0  0  0  0  0  0  0  0
  -30.0792  -25.7420   19.4443 C   0  0  0  0  0  0  0  0  0  0  0  0
  -28.9230  -16.6013   20.0342 C   0  0  0  0  0  0  0  0  0  0  0  0
  -29.1045  -26.8768   19.7705 C   0  0  0  0  0  0  0  0  0  0  0  0
  -29.6908  -24.4412   20.1458 C   0  0  0  0  0  0  0  0  0  0  0  0
  -27.3342  -25.1422   20.2618 C   0  0  0  0  0  0  0  0  0  0  0  0
  -27.5769  -17.2485   20.3814 C   0  0  1  0  0  0  0  0  0  0  0  0
  -25.1067  -14.4955   21.2486 C   0  0  1  0  0  0  0  0  0  0  0  0
  -27.6421  -26.4550   19.5236 C   0  0  1  0  0  0  0  0  0  0  0  0
  -21.8970   -7.6361   19.6207 C   0  0  0  0  0  0  0  0  0  0  0  0
  -25.8347  -12.3819   17.2035 C   0  0  0  0  0  0  0  0  0  0  0  0
  -24.4957  -10.3020   16.8169 C   0  0  0  0  0  0  0  0  0  0  0  0
  -26.4133  -10.2702   18.4120 C   0  0  0  0  0  0  0  0  0  0  0  0
  -20.8100  -10.0646   22.3404 C   0  0  0  0  0  0  0  0  0  0  0  0
  -18.3073  -20.7858   18.6495 C   0  0  0  0  0  0  0  0  0  0  0  0
  -18.5948  -19.2894   18.5180 C   0  0  0  0  0  0  0  0  0  0  0  0
  -19.5764  -21.6125   18.8397 C   0  0  0  0  0  0  0  0  0  0  0  0
  -19.3288  -18.7512   19.7398 C   0  0  0  0  0  0  0  0  0  1  0  0
  -24.2845  -11.4720   19.0568 C   0  0  1  0  0  0  0  0  0  0  0  0
  -22.0541   -8.8095   20.5753 C   0  0  2  0  0  0  0  0  0  0  0  0
  -25.2447  -11.1299   17.8828 C   0  0  0  0  0  0  0  0  0  0  0  0
  -26.9747  -28.3867   20.9033 N   0  0  0  0  0  0  0  0  0  0  0  0
  -26.6659  -27.5559   19.8931 N   0  0  0  0  0  0  0  0  0  0  0  0
  -24.3904  -13.5634   20.3754 N   0  0  0  0  0  0  0  0  0  0  0  0
  -28.2957  -24.1068   19.8540 N   0  0  0  0  0  0  0  0  0  0  0  0
  -24.9997  -27.0853   18.2766 N   0  0  0  0  0  0  0  0  0  0  0  0
  -23.3201  -30.6395   20.4999 N   0  0  0  0  0  0  0  0  0  0  0  0
  -20.4903  -21.4171   17.7395 N   0  0  0  0  0  0  0  0  0  0  0  0
  -26.6386  -22.6890   18.9330 N   0  0  0  0  0  0  0  0  0  0  0  0
  -26.7128  -16.2943   21.0426 N   0  0  0  0  0  0  0  0  0  0  0  0
  -23.7319  -10.3052   19.7362 N   0  0  0  0  0  0  0  0  0  0  0  0
  -20.7878   -8.9608   21.3463 N   0  3  0  0  0  0  0  0  0  0  0  0
  -26.7905  -20.6421   17.8291 O   0  0  0  0  0  0  0  0  0  0  0  0
  -22.9193  -29.1401   18.8117 O   0  0  0  0  0  0  0  0  0  0  0  0
  -25.8374  -15.2725   19.1421 O   0  0  0  0  0  0  0  0  0  0  0  0
  -25.9356  -11.8512   20.7170 O   0  0  0  0  0  0  0  0  0  0  0  0
  -21.5031  -10.8274   19.3663 O   0  0  0  0  0  0  0  0  0  0  0  0
  -28.8637  -22.0872   18.8633 O   0  0  0  0  0  0  0  0  0  0  0  0
  -25.7413  -33.3124   24.7458 O   0  0  0  0  0  0  0  0  0  0  0  0
  -19.5952  -17.3596   19.5703 O   0  0  0  0  0  0  0  0  0  1  0  0
  -24.1362  -38.3033   23.0372 F   0  0  0  0  0  0  0  0  0  0  0  0
  -24.3832  -22.7389   20.1610 F   0  0  0  0  0  0  0  0  0  0  0  0
  -27.4171  -35.4986   24.9803 F   0  0  0  0  0  0  0  0  0  0  0  0
  1  2  1  0  0  0  0
  1  6  2  0  0  0  0
  2  7  2  0  0  0  0
  3 10  2  0  0  0  0
  3 18  1  0  0  0  0
  4 11  1  0  0  0  0
  4 18  2  0  0  0  0
  5  9  2  0  0  0  0
  5 19  1  0  0  0  0
  6 21  1  0  0  0  0
  7 23  1  0  0  0  0
  8 12  2  0  0  0  0
  8 22  1  0  0  0  0
  9 25  1  0  0  0  0
 10 26  1  0  0  0  0
 11 26  2  0  0  0  0
 12 27  1  0  0  0  0
 13 14  2  0  0  0  0
 13 28  1  0  0  0  0
 14 29  1  0  0  0  0
 15 24  1  0  0  0  0
 15 27  2  0  0  0  0
 16 25  2  0  0  0  0
 16 30  1  0  0  0  0
 17 29  2  0  0  0  0
 17 31  1  0  0  0  0
 18 32  1  0  0  0  0
 19 30  2  0  0  0  0
 19 34  1  0  0  0  0
 20 32  1  0  0  0  0
 20 33  2  0  0  0  0
 20 35  1  0  0  0  0
 21 23  2  0  0  0  0
 21 40  1  0  0  0  0
 22 24  2  0  0  0  0
 22 41  1  0  0  0  0
 23 49  1  0  0  0  0
 24 42  1  0  0  0  0
 25 70  1  0  0  0  0
 26 81  1  0  0  0  0
 27 82  1  0  0  0  0
 28 31  2  0  0  0  0
 28 81  1  0  0  0  0
 29 83  1  0  0  0  0
 30 84  1  0  0  0  0
 31 85  1  0  0  0  0
 32 64  2  0  0  0  0
 33 65  1  0  0  0  0
 33 68  1  0  0  0  0
 34 71  1  0  0  0  0
 34 75  2  0  0  0  0
 35 69  1  0  0  0  0
 35 76  2  0  0  0  0
 36 50  1  0  0  0  0
 36 72  1  0  0  0  0
 36 77  2  0  0  0  0
 37 61  1  0  0  0  0
 37 66  1  0  0  0  0
 37 78  2  0  0  0  0
 38 62  1  0  0  0  0
 38 73  1  0  0  0  0
 38 79  2  0  0  0  0
 39 67  1  0  0  0  0
 39 71  1  0  0  0  0
 39 80  2  0  0  0  0
 40 43  1  0  0  0  0
 41 50  1  0  0  0  0
 42 66  1  0  0  0  0
 43 45  1  0  0  0  0
 44 46  1  0  0  0  0
 44 47  1  0  0  0  0
 45 49  1  0  0  0  0
 46 51  1  0  0  0  0
 47 67  1  0  0  0  0
 48 51  1  0  0  0  0
 48 67  1  0  0  0  0
 49 72  1  0  0  0  0
 50 66  1  0  0  0  0
 51 65  1  0  0  0  0
 52 62  1  0  0  0  0
 53 63  1  0  0  0  0
 54 63  1  0  0  0  0
 55 63  1  0  0  0  0
 56 74  1  0  0  0  0
 57 58  1  0  0  0  0
 57 59  1  0  0  0  0
 58 60  1  0  0  0  0
 59 70  1  0  0  0  0
 60 82  1  0  0  0  0
 61 63  1  0  0  0  0
 61 73  1  0  0  0  0
 62 74  1  0  0  0  0
 64 65  1  0  0  0  0
M  CHG  1  74   1
M  ISO  4  39 100  60 101  71 100  82 101
M  END
> <Batch ID>
0100

> <Smiles>
CNC(C)C(=O)NC(C(=O)N1Cc2cc([101O:1][101CH2:1]CCCNc3ccc(C(=O)[100NH:0][100C:0](=O)N4CCCC(n5nc(-c6ccc(Oc7ccc(F)cc7F)cc6)c(C(N)=O)c5N)C4)c(F)c3)ccc2CC1C(=O)NC1CCCc2ccccc21)C(C)(C)C

> <Shape>
0.263

> <Color>
0.048

> <Negative vol penalty>
0.000

$$$$

  -OEChem-04052300573D

 87 95  0     1  0  0  0  0  0999 V2000
  -36.5342  -30.6835   22.7141 C   0  0  0  0  0  0  0  0  0  0  0  0
  -36.4179  -29.6280   23.6129 C   0  0  0  0  0  0  0  0  0  0  0  0
  -23.3040   -9.7679   20.0829 C   0  0  0  0  0  0  0  0  0  0  0  0
  -23.7763  -10.1040   22.4284 C   0  0  0  0  0  0  0  0  0  0  0  0
  -32.6346  -15.8806   24.2337 C   0  0  0  0  0  0  0  0  0  0  0  0
  -35.4457  -31.0462   21.9220 C   0  0  0  0  0  0  0  0  0  0  0  0
  -35.2126  -28.9353   23.7209 C   0  0  0  0  0  0  0  0  0  0  0  0
  -34.4885  -22.9633   24.8681 C   0  0  0  0  0  0  0  0  0  0  0  0
  -32.1482  -15.0296   23.2413 C   0  0  0  0  0  0  0  0  0  0  0  0
  -22.6055   -8.6004   20.3909 C   0  0  0  0  0  0  0  0  0  0  0  0
  -23.0778   -8.9366   22.7363 C   0  0  0  0  0  0  0  0  0  0  0  0
  -34.2023  -22.2608   26.0378 C   0  0  0  0  0  0  0  0  0  0  0  0
  -21.7265   -5.8536   24.1071 C   0  0  0  0  0  0  0  0  0  0  0  0
  -22.3081   -4.9712   25.0175 C   0  0  0  0  0  0  0  0  0  0  0  0
  -31.1209  -14.8833   25.8309 C   0  0  0  0  0  0  0  0  0  0  0  0
  -31.8630  -22.2456   25.4492 C   0  0  0  0  0  0  0  0  0  0  0  0
  -24.2149   -4.7195   23.5554 C   0  0  0  0  0  0  0  0  0  0  0  0
  -23.8894  -10.5197   21.1017 C   0  0  0  0  0  0  0  0  0  0  0  0
  -32.1210  -15.8075   25.5285 C   0  0  0  0  0  0  0  0  0  0  0  0
  -24.0914  -13.0311   20.7020 C   0  0  0  0  0  0  0  0  0  0  0  0
  -34.2293  -30.3514   22.0134 C   0  0  0  0  0  0  0  0  0  0  0  0
  -33.4610  -23.3223   23.9839 C   0  0  0  0  0  0  0  0  0  0  0  0
  -34.1063  -29.2899   22.9303 C   0  0  0  0  0  0  0  0  0  0  0  0
  -32.1391  -22.9503   24.2676 C   0  0  0  0  0  0  0  0  0  0  0  0
  -31.1481  -14.1054   23.5438 C   0  0  0  0  0  0  0  0  0  0  0  0
  -22.4924   -8.1848   21.7175 C   0  0  0  0  0  0  0  0  0  0  0  0
  -32.8891  -21.9043   26.3300 C   0  0  0  0  0  0  0  0  0  0  0  0
  -22.3891   -6.1689   22.9208 C   0  0  0  0  0  0  0  0  0  0  0  0
  -23.5523   -4.4042   24.7416 C   0  0  0  0  0  0  0  0  0  0  0  0
  -30.6345  -14.0323   24.8386 C   0  0  0  0  0  0  0  0  0  0  0  0
  -23.6333   -5.6019   22.6450 C   0  0  0  0  0  0  0  0  0  0  0  0
  -24.6115  -11.7255   20.7842 C   0  0  0  0  0  0  0  0  0  0  0  0
  -25.1729  -13.8113   20.3732 C   0  0  0  0  0  0  0  0  0  0  0  0
  -32.6415  -16.7184   26.5903 C   0  0  0  0  0  0  0  0  0  0  0  0
  -22.7507  -13.4969   20.9047 C   0  0  0  0  0  0  0  0  0  0  0  0
  -32.2886  -26.0731   22.9058 C   0  0  0  0  0  0  0  0  0  0  0  0
  -30.5177  -24.1264   21.0093 C   0  0  0  0  0  0  0  0  0  0  0  0
  -32.9872  -18.6447   29.2257 C   0  0  0  0  0  0  0  0  0  0  0  0
  -29.1376  -21.0463   20.5042 C   0  0  0  0  0  0  0  0  0  0  0  0
  -31.0580  -13.1882   21.1992 C   0  0  0  0  0  0  0  0  0  0  0  0
  -33.0659  -30.8104   21.1704 C   0  0  0  0  0  0  0  0  0  0  0  0
  -33.7896  -24.0567   22.7131 C   0  0  0  0  0  0  0  0  0  0  0  0
  -31.0024  -23.2941   23.3412 C   0  0  0  0  0  0  0  0  0  0  0  0
  -31.9392  -29.7847   21.0772 C   0  0  0  0  0  0  0  0  0  0  0  0
  -29.3775  -13.6132   18.0892 C   0  0  0  0  0  0  0  0  0  0  0  0
  -31.6127  -29.2234   22.4575 C   0  0  0  0  0  0  0  0  0  0  0  0
  -27.9163  -13.3021   18.4212 C   0  0  0  0  0  0  0  0  0  0  0  0
  -30.3391  -12.7171   18.8676 C   0  0  0  0  0  0  0  0  0  0  0  0
  -28.6739  -12.3919   20.6538 C   0  0  0  0  0  0  0  0  0  0  0  0
  -32.8229  -28.4983   23.0586 C   0  0  1  0  0  0  0  0  0  0  0  0
  -32.5996  -24.8191   22.1387 C   0  0  1  0  0  0  0  0  0  0  0  0
  -27.6694  -13.3131   19.9426 C   0  0  2  0  0  0  0  0  0  0  0  0
  -34.1661  -20.2698   30.7099 C   0  0  0  0  0  0  0  0  0  0  0  0
  -27.7125  -19.7683   18.8814 C   0  0  0  0  0  0  0  0  0  0  0  0
  -28.0417  -25.5790   22.0434 C   0  0  0  0  0  0  0  0  0  0  0  0
  -26.6520  -23.6928   21.1606 C   0  0  0  0  0  0  0  0  0  0  0  0
  -28.0105  -25.0787   19.5933 C   0  0  0  0  0  0  0  0  0  0  0  0
  -31.2885  -19.0809   19.9844 C   0  0  0  0  0  0  0  0  0  0  0  0
  -31.7080  -17.1349   27.7096 C   0  0  0  0  0  0  0  0  0  0  0  0
  -33.7048  -20.8981   28.3245 C   0  0  0  0  0  0  0  0  0  1  0  0
  -29.1757  -23.4459   21.1322 C   0  0  1  0  0  0  0  0  0  0  0  0
  -33.1899  -20.1287   29.5430 C   0  0  1  0  0  0  0  0  0  0  0  0
  -29.1309  -20.1319   19.2924 C   0  0  2  0  0  0  0  0  0  0  0  0
  -27.9909  -24.4442   21.0010 C   0  0  0  0  0  0  0  0  0  0  0  0
  -25.9214  -11.6751   20.5281 N   0  0  0  0  0  0  0  0  0  0  0  0
  -26.2336  -12.9588   20.2817 N   0  0  0  0  0  0  0  0  0  0  0  0
  -31.3738  -24.0183   22.1144 N   0  0  0  0  0  0  0  0  0  0  0  0
  -30.0482  -12.7816   20.3015 N   0  0  0  0  0  0  0  0  0  0  0  0
  -25.3105  -15.1366   20.1563 N   0  0  0  0  0  0  0  0  0  0  0  0
  -21.7615  -12.5614   21.2372 N   0  0  0  0  0  0  0  0  0  0  0  0
  -30.6557  -13.2427   22.5333 N   0  0  0  0  0  0  0  0  0  0  0  0
  -32.9742  -27.1881   22.4629 N   0  0  0  0  0  0  0  0  0  0  0  0
  -32.0800  -18.4445   28.1949 N   0  0  0  0  0  0  0  0  0  0  0  0
  -29.1682  -22.3759   20.1405 N   0  0  0  0  0  0  0  0  0  0  0  0
  -29.8716  -18.8732   19.5891 N   0  3  0  0  0  0  0  0  0  0  0  0
  -33.8072  -17.1037   26.5307 O   0  0  0  0  0  0  0  0  0  0  0  0
  -22.4359  -14.7046   20.7782 O   0  0  0  0  0  0  0  0  0  0  0  0
  -31.4849  -26.0324   23.8300 O   0  0  0  0  0  0  0  0  0  0  0  0
  -30.7989  -24.7254   19.9683 O   0  0  0  0  0  0  0  0  0  0  0  0
  -33.5682  -17.7483   29.8337 O   0  0  0  0  0  0  0  0  0  0  0  0
  -29.1141  -20.6233   21.6579 O   0  0  0  0  0  0  0  0  0  0  0  0
  -32.1881  -13.4935   20.8098 O   0  0  0  0  0  0  0  0  0  0  0  0
  -21.8108   -7.0458   22.0184 O   0  0  0  0  0  0  0  0  0  0  0  0
  -32.6069  -21.2192   27.4714 O   0  0  0  0  0  0  0  0  0  1  0  0
  -24.1114   -3.5580   25.6166 F   0  0  0  0  0  0  0  0  0  0  0  0
  -29.6726  -13.1484   25.1409 F   0  0  0  0  0  0  0  0  0  0  0  0
  -24.2752   -5.9020   21.5076 F   0  0  0  0  0  0  0  0  0  0  0  0
  1  2  1  0  0  0  0
  1  6  2  0  0  0  0
  2  7  2  0  0  0  0
  3 10  2  0  0  0  0
  3 18  1  0  0  0  0
  4 11  1  0  0  0  0
  4 18  2  0  0  0  0
  5  9  2  0  0  0  0
  5 19  1  0  0  0  0
  6 21  1  0  0  0  0
  7 23  1  0  0  0  0
  8 12  2  0  0  0  0
  8 22  1  0  0  0  0
  9 25  1  0  0  0  0
 10 26  1  0  0  0  0
 11 26  2  0  0  0  0
 12 27  1  0  0  0  0
 13 14  2  0  0  0  0
 13 28  1  0  0  0  0
 14 29  1  0  0  0  0
 15 19  2  0  0  0  0
 15 30  1  0  0  0  0
 16 24  1  0  0  0  0
 16 27  2  0  0  0  0
 17 29  2  0  0  0  0
 17 31  1  0  0  0  0
 18 32  1  0  0  0  0
 19 34  1  0  0  0  0
 20 32  1  0  0  0  0
 20 33  2  0  0  0  0
 20 35  1  0  0  0  0
 21 23  2  0  0  0  0
 21 41  1  0  0  0  0
 22 24  2  0  0  0  0
 22 42  1  0  0  0  0
 23 50  1  0  0  0  0
 24 43  1  0  0  0  0
 25 30  2  0  0  0  0
 25 71  1  0  0  0  0
 26 83  1  0  0  0  0
 27 84  1  0  0  0  0
 28 31  2  0  0  0  0
 28 83  1  0  0  0  0
 29 85  1  0  0  0  0
 30 86  1  0  0  0  0
 31 87  1  0  0  0  0
 32 65  2  0  0  0  0
 33 66  1  0  0  0  0
 33 69  1  0  0  0  0
 34 59  1  0  0  0  0
 34 76  2  0  0  0  0
 35 70  1  0  0  0  0
 35 77  2  0  0  0  0
 36 51  1  0  0  0  0
 36 72  1  0  0  0  0
 36 78  2  0  0  0  0
 37 61  1  0  0  0  0
 37 67  1  0  0  0  0
 37 79  2  0  0  0  0
 38 62  1  0  0  0  0
 38 73  1  0  0  0  0
 38 80  2  0  0  0  0
 39 63  1  0  0  0  0
 39 74  1  0  0  0  0
 39 81  2  0  0  0  0
 40 68  1  0  0  0  0
 40 71  1  0  0  0  0
 40 82  2  0  0  0  0
 41 44  1  0  0  0  0
 42 51  1  0  0  0  0
 43 67  1  0  0  0  0
 44 46  1  0  0  0  0
 45 47  1  0  0  0  0
 45 48  1  0  0  0  0
 46 50  1  0  0  0  0
 47 52  1  0  0  0  0
 48 68  1  0  0  0  0
 49 52  1  0  0  0  0
 49 68  1  0  0  0  0
 50 72  1  0  0  0  0
 51 67  1  0  0  0  0
 52 66  1  0  0  0  0
 53 62  1  0  0  0  0
 54 63  1  0  0  0  0
 55 64  1  0  0  0  0
 56 64  1  0  0  0  0
 57 64  1  0  0  0  0
 58 75  1  0  0  0  0
 59 73  1  0  0  0  0
 60 62  1  0  0  0  0
 60 84  1  0  0  0  0
 61 64  1  0  0  0  0
 61 74  1  0  0  0  0
 63 75  1  0  0  0  0
 65 66  1  0  0  0  0
M  CHG  1  75   1
M  ISO  4  40 100  60 101  71 100  84 101
M  END
> <Batch ID>
0100

> <Smiles>
CNC(C)C(=O)NC(C(=O)N1Cc2cc([101O:1][101CH2:1]C(C)C(=O)NCC(=O)c3ccc([100NH:0][100C:0](=O)N4CCCC(n5nc(-c6ccc(Oc7ccc(F)cc7F)cc6)c(C(N)=O)c5N)C4)c(F)c3)ccc2CC1C(=O)NC1CCCc2ccccc21)C(C)(C)C

> <Shape>
0.193

> <Color>
0.175

> <Negative vol penalty>
0.000

$$$$

  -OEChem-04052300573D

 87 96  0     1  0  0  0  0  0999 V2000
  -30.6454  -29.9918   15.5316 C   0  0  0  0  0  0  0  0  0  0  0  0
  -30.6722  -29.4093   16.7947 C   0  0  0  0  0  0  0  0  0  0  0  0
  -22.5181  -10.6198   20.4478 C   0  0  0  0  0  0  0  0  0  0  0  0
  -24.1155   -9.8975   22.1102 C   0  0  0  0  0  0  0  0  0  0  0  0
  -29.6103  -30.8603   15.1876 C   0  0  0  0  0  0  0  0  0  0  0  0
  -29.6645  -29.6959   17.7150 C   0  0  0  0  0  0  0  0  0  0  0  0
  -27.9606  -25.5560   20.0821 C   0  0  0  0  0  0  0  0  0  0  0  0
  -31.4204  -17.8119   23.9695 C   0  0  0  0  0  0  0  0  0  0  0  0
  -30.9840  -18.8471   24.7962 C   0  0  0  0  0  0  0  0  0  0  0  0
  -21.7004   -9.5344   20.7620 C   0  0  0  0  0  0  0  0  0  0  0  0
  -23.2977   -8.8121   22.4244 C   0  0  0  0  0  0  0  0  0  0  0  0
  -28.7465  -25.0433   21.1132 C   0  0  0  0  0  0  0  0  0  0  0  0
  -19.4866   -8.7006   23.1779 C   0  0  0  0  0  0  0  0  0  0  0  0
  -18.1207   -8.9400   23.3275 C   0  0  0  0  0  0  0  0  0  0  0  0
  -27.3089  -26.1092   22.7308 C   0  0  0  0  0  0  0  0  0  0  0  0
  -29.7219  -19.7815   22.9602 C   0  0  0  0  0  0  0  0  0  0  0  0
  -17.6530   -7.3956   21.5294 C   0  0  0  0  0  0  0  0  0  0  0  0
  -23.7258  -10.8013   21.1219 C   0  0  0  0  0  0  0  0  0  0  0  0
  -24.2446  -13.2882   20.8898 C   0  0  0  0  0  0  0  0  0  0  0  0
  -28.5843  -31.1501   16.1007 C   0  0  0  0  0  0  0  0  0  0  0  0
  -26.8474  -26.3596   20.3677 C   0  0  0  0  0  0  0  0  0  0  0  0
  -28.6155  -30.5701   17.3833 C   0  0  0  0  0  0  0  0  0  0  0  0
  -26.5090  -26.6288   21.7016 C   0  0  0  0  0  0  0  0  0  0  0  0
  -31.0075  -17.7615   22.6380 C   0  0  0  0  0  0  0  0  0  0  0  0
  -30.1348  -19.8319   24.2916 C   0  0  0  0  0  0  0  0  0  0  0  0
  -22.0901   -8.6305   21.7503 C   0  0  0  0  0  0  0  0  0  0  0  0
  -28.4224  -25.3222   22.4377 C   0  0  0  0  0  0  0  0  0  0  0  0
  -19.9358   -7.8087   22.2040 C   0  0  0  0  0  0  0  0  0  0  0  0
  -17.2039   -8.2875   22.5033 C   0  0  0  0  0  0  0  0  0  0  0  0
  -30.1583  -18.7463   22.1334 C   0  0  0  0  0  0  0  0  0  0  0  0
  -19.0190   -7.1562   21.3798 C   0  0  0  0  0  0  0  0  0  0  0  0
  -24.5713  -11.9220   20.7974 C   0  0  0  0  0  0  0  0  0  0  0  0
  -25.3778  -13.9414   20.4706 C   0  0  0  0  0  0  0  0  0  0  0  0
  -29.5277  -20.7066   26.5314 C   0  0  0  0  0  0  0  0  0  0  0  0
  -23.0258  -13.9112   21.3166 C   0  0  0  0  0  0  0  0  0  0  0  0
  -26.0202  -29.3591   19.7180 C   0  0  0  0  0  0  0  0  0  0  0  0
  -30.9421  -14.5017   20.5881 C   0  0  0  0  0  0  0  0  0  0  0  0
  -23.2141  -28.4689   21.0803 C   0  0  0  0  0  0  0  0  0  0  0  0
  -20.2153  -28.0766   22.6615 C   0  0  0  0  0  0  0  0  0  0  0  0
  -27.5118  -32.1319   15.7000 C   0  0  0  0  0  0  0  0  0  0  0  0
  -25.9943  -26.8829   19.2449 C   0  0  0  0  0  0  0  0  0  0  0  0
  -25.3124  -27.4694   22.0620 C   0  0  0  0  0  0  0  0  0  0  0  0
  -29.3587  -21.9534   27.3789 C   0  0  0  0  0  0  0  0  0  0  0  0
  -26.2808  -32.0909   16.6017 C   0  0  0  0  0  0  0  0  0  0  0  0
  -28.5815  -23.0642   26.7074 C   0  0  0  0  0  0  0  0  0  0  0  0
  -29.5506  -12.1993   18.2210 C   0  0  0  0  0  0  0  0  0  0  0  0
  -26.6945  -32.0814   18.0699 C   0  0  0  0  0  0  0  0  0  0  0  0
  -28.1136  -12.0110   18.7055 C   0  0  0  0  0  0  0  0  0  0  0  0
  -30.5144  -12.3817   19.3893 C   0  0  0  0  0  0  0  0  0  0  0  0
  -29.1984  -22.1356   24.4938 C   0  0  0  0  0  0  0  0  0  0  0  0
  -28.7061  -13.3075   20.8015 C   0  0  0  0  0  0  0  0  0  0  0  0
  -27.5272  -30.8369   18.4004 C   0  0  1  0  0  0  0  0  0  0  0  0
  -25.1827  -28.1143   19.6351 C   0  0  1  0  0  0  0  0  0  0  0  0
  -29.2357  -23.3843   25.3735 C   0  0  1  0  0  0  0  0  0  0  0  0
  -27.6954  -13.1505   19.6516 C   0  0  2  0  0  0  0  0  0  0  0  0
  -18.3862  -29.3893   23.7698 C   0  0  0  0  0  0  0  0  0  0  0  0
  -24.9842  -28.8582   23.5350 C   0  0  0  0  0  0  0  0  0  0  0  0
  -22.9119  -29.2737   24.8771 C   0  0  0  0  0  0  0  0  0  0  0  0
  -23.5051  -30.8016   22.9965 C   0  0  0  0  0  0  0  0  0  0  0  0
  -18.1971  -27.1282   20.7156 C   0  0  0  0  0  0  0  0  0  0  0  0
  -31.4749  -16.6517   21.7578 C   0  0  0  0  0  0  0  0  0  0  0  0
  -30.4119  -15.5753   21.5048 C   0  0  0  0  0  0  0  0  0  0  0  0
  -28.5346  -24.5539   24.6856 C   0  0  0  0  0  0  0  0  0  1  0  0
  -22.6574  -28.4757   22.4835 C   0  0  1  0  0  0  0  0  0  0  0  0
  -18.8780  -28.7693   22.4711 C   0  0  2  0  0  0  0  0  0  0  0  0
  -23.5178  -29.3281   23.4584 C   0  0  0  0  0  0  0  0  0  0  0  0
  -25.8146  -11.7180   20.3541 N   0  0  0  0  0  0  0  0  0  0  0  0
  -26.2791  -12.9647   20.1641 N   0  0  0  0  0  0  0  0  0  0  0  0
  -29.6836  -20.9072   25.1490 N   0  0  0  0  0  0  0  0  0  0  0  0
  -24.5131  -27.9634   20.9286 N   0  0  0  0  0  0  0  0  0  0  0  0
  -30.0703  -13.4582   20.2765 N   0  0  0  0  0  0  0  0  0  0  0  0
  -25.6811  -15.2501   20.3379 N   0  0  0  0  0  0  0  0  0  0  0  0
  -22.8746  -14.2227   22.6747 N   0  0  0  0  0  0  0  0  0  0  0  0
  -26.6709  -29.6788   18.5416 N   0  0  0  0  0  0  0  0  0  0  0  0
  -21.2707  -28.9148   22.3703 N   0  0  0  0  0  0  0  0  0  0  0  0
  -17.8535  -27.7964   21.9972 N   0  3  0  0  0  0  0  0  0  0  0  0
  -29.5767  -19.6163   27.1074 O   0  0  0  0  0  0  0  0  0  0  0  0
  -22.0916  -14.1686   20.5200 O   0  0  0  0  0  0  0  0  0  0  0  0
  -26.0711  -29.9841   20.7708 O   0  0  0  0  0  0  0  0  0  0  0  0
  -32.0959  -14.5911   20.1603 O   0  0  0  0  0  0  0  0  0  0  0  0
  -22.5194  -28.8898   20.1520 O   0  0  0  0  0  0  0  0  0  0  0  0
  -20.3139  -26.9098   23.0349 O   0  0  0  0  0  0  0  0  0  0  0  0
  -21.2922   -7.5714   22.0573 O   0  0  0  0  0  0  0  0  0  0  0  0
  -29.1882  -24.8235   23.4461 O   0  0  0  0  0  0  0  0  0  1  0  0
  -15.8920   -8.5164   22.6481 F   0  0  0  0  0  0  0  0  0  0  0  0
  -29.7561  -18.7063   20.8555 F   0  0  0  0  0  0  0  0  0  0  0  0
  -19.4445   -6.2974   20.4432 F   0  0  0  0  0  0  0  0  0  0  0  0
  1  2  1  0  0  0  0
  1  5  2  0  0  0  0
  2  6  2  0  0  0  0
  3 10  2  0  0  0  0
  3 18  1  0  0  0  0
  4 11  1  0  0  0  0
  4 18  2  0  0  0  0
  5 20  1  0  0  0  0
  6 22  1  0  0  0  0
  7 12  2  0  0  0  0
  7 21  1  0  0  0  0
  8  9  2  0  0  0  0
  8 24  1  0  0  0  0
  9 25  1  0  0  0  0
 10 26  1  0  0  0  0
 11 26  2  0  0  0  0
 12 27  1  0  0  0  0
 13 14  2  0  0  0  0
 13 28  1  0  0  0  0
 14 29  1  0  0  0  0
 15 23  1  0  0  0  0
 15 27  2  0  0  0  0
 16 25  2  0  0  0  0
 16 30  1  0  0  0  0
 17 29  2  0  0  0  0
 17 31  1  0  0  0  0
 18 32  1  0  0  0  0
 19 32  1  0  0  0  0
 19 33  2  0  0  0  0
 19 35  1  0  0  0  0
 20 22  2  0  0  0  0
 20 40  1  0  0  0  0
 21 23  2  0  0  0  0
 21 41  1  0  0  0  0
 22 52  1  0  0  0  0
 23 42  1  0  0  0  0
 24 30  2  0  0  0  0
 24 61  1  0  0  0  0
 25 69  1  0  0  0  0
 26 83  1  0  0  0  0
 27 84  1  0  0  0  0
 28 31  2  0  0  0  0
 28 83  1  0  0  0  0
 29 85  1  0  0  0  0
 30 86  1  0  0  0  0
 31 87  1  0  0  0  0
 32 67  2  0  0  0  0
 33 68  1  0  0  0  0
 33 72  1  0  0  0  0
 34 43  1  0  0  0  0
 34 69  1  0  0  0  0
 34 77  2  0  0  0  0
 35 73  1  0  0  0  0
 35 78  2  0  0  0  0
 36 53  1  0  0  0  0
 36 74  1  0  0  0  0
 36 79  2  0  0  0  0
 37 62  1  0  0  0  0
 37 71  1  0  0  0  0
 37 80  2  0  0  0  0
 38 64  1  0  0  0  0
 38 70  1  0  0  0  0
 38 81  2  0  0  0  0
 39 65  1  0  0  0  0
 39 75  1  0  0  0  0
 39 82  2  0  0  0  0
 40 44  1  0  0  0  0
 41 53  1  0  0  0  0
 42 70  1  0  0  0  0
 43 45  1  0  0  0  0
 44 47  1  0  0  0  0
 45 54  1  0  0  0  0
 46 48  1  0  0  0  0
 46 49  1  0  0  0  0
 47 52  1  0  0  0  0
 48 55  1  0  0  0  0
 49 71  1  0  0  0  0
 50 54  1  0  0  0  0
 50 69  1  0  0  0  0
 51 55  1  0  0  0  0
 51 71  1  0  0  0  0
 52 74  1  0  0  0  0
 53 70  1  0  0  0  0
 54 63  1  0  0  0  0
 55 68  1  0  0  0  0
 56 65  1  0  0  0  0
 57 66  1  0  0  0  0
 58 66  1  0  0  0  0
 59 66  1  0  0  0  0
 60 76  1  0  0  0  0
 61 62  1  0  0  0  0
 63 84  1  0  0  0  0
 64 66  1  0  0  0  0
 64 75  1  0  0  0  0
 65 76  1  0  0  0  0
 67 68  1  0  0  0  0
M  CHG  1  76   1
M  ISO  4  37 100  62 100  63 101  84 101
M  END
> <Batch ID>
0100

> <Smiles>
CNC(C)C(=O)NC(C(=O)N1Cc2cc([101O:1][101CH2:1]C3CCC(=O)N(c4ccc(C[100CH2:0][100C:0](=O)N5CCCC(n6nc(-c7ccc(Oc8ccc(F)cc8F)cc7)c(C(N)=O)c6N)C5)c(F)c4)C3)ccc2CC1C(=O)NC1CCCc2ccccc21)C(C)(C)C

> <Shape>
0.266

> <Color>
0.185

> <Negative vol penalty>
0.000

$$$$

  -OEChem-04052300573D

 88 97  0     1  0  0  0  0  0999 V2000
  -27.8294  -37.2152   21.9876 C   0  0  0  0  0  0  0  0  0  0  0  0
  -28.0878  -35.8972   22.3502 C   0  0  0  0  0  0  0  0  0  0  0  0
  -24.0434   -9.6679   22.1871 C   0  0  0  0  0  0  0  0  0  0  0  0
  -23.0236  -10.0166   20.0248 C   0  0  0  0  0  0  0  0  0  0  0  0
  -26.5221  -37.6995   22.0093 C   0  0  0  0  0  0  0  0  0  0  0  0
  -27.0391  -35.0629   22.7358 C   0  0  0  0  0  0  0  0  0  0  0  0
  -27.3277  -30.4730   20.6159 C   0  0  0  0  0  0  0  0  0  0  0  0
  -28.2952  -21.5230   22.8976 C   0  0  0  0  0  0  0  0  0  0  0  0
  -27.9573  -22.5897   20.7563 C   0  0  0  0  0  0  0  0  0  0  0  0
  -27.4436  -20.4864   22.5156 C   0  0  0  0  0  0  0  0  0  0  0  0
  -27.1057  -21.5530   20.3743 C   0  0  0  0  0  0  0  0  0  0  0  0
  -23.1987   -8.5806   22.4102 C   0  0  0  0  0  0  0  0  0  0  0  0
  -22.1789   -8.9292   20.2478 C   0  0  0  0  0  0  0  0  0  0  0  0
  -28.2376  -29.5726   21.1683 C   0  0  0  0  0  0  0  0  0  0  0  0
  -23.0137   -5.3368   21.4738 C   0  0  0  0  0  0  0  0  0  0  0  0
  -23.5792   -4.1725   21.9934 C   0  0  0  0  0  0  0  0  0  0  0  0
  -26.4394  -28.4998   22.3661 C   0  0  0  0  0  0  0  0  0  0  0  0
  -22.1240   -4.3236   23.9160 C   0  0  0  0  0  0  0  0  0  0  0  0
  -23.9558  -10.3860   20.9944 C   0  0  0  0  0  0  0  0  0  0  0  0
  -26.2349  -11.4999   20.7251 C   0  0  0  0  0  0  0  0  0  0  0  0
  -25.4557  -36.8680   22.3861 C   0  0  0  0  0  0  0  0  0  0  0  0
  -25.9662  -30.4003   20.9435 C   0  0  0  0  0  0  0  0  0  0  0  0
  -25.7165  -35.5369   22.7639 C   0  0  0  0  0  0  0  0  0  0  0  0
  -25.5139  -29.3988   21.8145 C   0  0  0  0  0  0  0  0  0  0  0  0
  -28.5520  -22.5747   22.0179 C   0  0  0  0  0  0  0  0  0  0  0  0
  -26.8489  -20.5014   21.2539 C   0  0  0  0  0  0  0  0  0  0  0  0
  -22.2665   -8.2112   21.4405 C   0  0  0  0  0  0  0  0  0  0  0  0
  -27.7939  -28.5876   22.0459 C   0  0  0  0  0  0  0  0  0  0  0  0
  -22.0033   -5.9946   22.1753 C   0  0  0  0  0  0  0  0  0  0  0  0
  -23.1344   -3.6659   23.2145 C   0  0  0  0  0  0  0  0  0  0  0  0
  -21.5584   -5.4880   23.3964 C   0  0  0  0  0  0  0  0  0  0  0  0
  -24.8277  -11.5096   20.7637 C   0  0  0  0  0  0  0  0  0  0  0  0
  -26.5807  -12.8056   20.4759 C   0  0  0  0  0  0  0  0  0  0  0  0
  -30.4783  -23.3466   23.3232 C   0  0  0  0  0  0  0  0  0  0  0  0
  -29.1871  -24.9417   21.8726 C   0  0  0  0  0  0  0  0  0  0  0  0
  -27.1479  -10.4081   20.8988 C   0  0  0  0  0  0  0  0  0  0  0  0
  -23.8928  -32.3488   22.3606 C   0  0  0  0  0  0  0  0  0  0  0  0
  -21.7579  -30.0565   21.5178 C   0  0  0  0  0  0  0  0  0  0  0  0
  -21.6415  -26.4506   21.4846 C   0  0  0  0  0  0  0  0  0  0  0  0
  -26.1369  -18.1195   21.3586 C   0  0  0  0  0  0  0  0  0  0  0  0
  -24.0653  -37.4499   22.4396 C   0  0  0  0  0  0  0  0  0  0  0  0
  -24.9935  -31.3623   20.3182 C   0  0  0  0  0  0  0  0  0  0  0  0
  -24.0595  -29.2654   22.1826 C   0  0  0  0  0  0  0  0  0  0  0  0
  -31.2873  -24.5107   23.8567 C   0  0  0  0  0  0  0  0  0  0  0  0
  -22.9649  -36.3936   22.5002 C   0  0  0  0  0  0  0  0  0  0  0  0
  -30.6533  -25.8616   23.6208 C   0  0  0  0  0  0  0  0  0  0  0  0
  -23.7629  -16.7598   19.0874 C   0  0  0  0  0  0  0  0  0  0  0  0
  -23.3066  -35.3255   23.5342 C   0  0  0  0  0  0  0  0  0  0  0  0
  -23.9373  -15.2607   19.3275 C   0  0  0  0  0  0  0  0  0  0  0  0
  -23.8499  -17.5616   20.3864 C   0  0  0  0  0  0  0  0  0  0  0  0
  -25.2518  -15.7999   21.4137 C   0  0  0  0  0  0  0  0  0  0  0  0
  -24.6025  -34.5940   23.1642 C   0  0  1  0  0  0  0  0  0  0  0  0
  -30.2793  -25.9641   22.1529 C   0  0  2  0  0  0  0  0  0  0  0  0
  -23.7066  -31.5180   21.1225 C   0  0  1  0  0  0  0  0  0  0  0  0
  -25.2262  -14.9743   20.1179 C   0  0  1  0  0  0  0  0  0  0  0  0
  -23.6545  -20.2708   21.0410 C   0  0  0  0  0  0  0  0  0  0  0  0
  -20.3258  -24.8739   20.0423 C   0  0  0  0  0  0  0  0  0  0  0  0
  -19.7276  -30.1275   23.7944 C   0  0  0  0  0  0  0  0  0  0  0  0
  -19.3269  -27.6846   23.4201 C   0  0  0  0  0  0  0  0  0  0  0  0
  -18.8166  -29.3223   21.6090 C   0  0  0  0  0  0  0  0  0  0  0  0
  -24.0837  -25.0206   20.6190 C   0  0  0  0  0  0  0  0  0  0  0  0
  -29.8299  -27.3818   21.8075 C   0  0  0  0  0  0  0  0  0  1  0  0
  -24.7451  -19.7634   20.1193 C   0  0  0  0  0  0  0  0  0  0  0  0
  -21.2271  -28.8001   22.1648 C   0  0  1  0  0  0  0  0  0  0  0  0
  -21.6694  -25.5517   20.2617 C   0  0  2  0  0  0  0  0  0  0  0  0
  -19.8007  -28.9933   22.7526 C   0  0  0  0  0  0  0  0  0  0  0  0
  -24.3146  -12.7252   20.5558 N   0  0  0  0  0  0  0  0  0  0  0  0
  -25.4053  -13.4914   20.3843 N   0  0  0  0  0  0  0  0  0  0  0  0
  -29.4365  -23.6522   22.4148 N   0  0  0  0  0  0  0  0  0  0  0  0
  -23.1484  -30.2336   21.5501 N   0  0  0  0  0  0  0  0  0  0  0  0
  -25.0751  -17.2252   21.1252 N   0  0  0  0  0  0  0  0  0  0  0  0
  -27.7723  -13.4225   20.3285 N   0  0  0  0  0  0  0  0  0  0  0  0
  -27.5387   -9.6775   19.7684 N   0  0  0  0  0  0  0  0  0  0  0  0
  -24.3557  -33.6275   22.1157 N   0  0  0  0  0  0  0  0  0  0  0  0
  -21.3204  -27.7506   21.1557 N   0  0  0  0  0  0  0  0  0  0  0  0
  -25.9673  -19.4284   20.8582 N   0  0  0  0  0  0  0  0  0  0  0  0
  -22.7086  -24.4952   20.4190 N   0  3  0  0  0  0  0  0  0  0  0  0
  -30.8277  -22.2061   23.6444 O   0  0  0  0  0  0  0  0  0  0  0  0
  -28.1802  -25.2611   21.2372 O   0  0  0  0  0  0  0  0  0  0  0  0
  -27.5910  -10.0796   22.0255 O   0  0  0  0  0  0  0  0  0  0  0  0
  -23.6342  -31.8658   23.4568 O   0  0  0  0  0  0  0  0  0  0  0  0
  -20.9685  -30.8482   20.9965 O   0  0  0  0  0  0  0  0  0  0  0  0
  -21.8771  -26.0398   22.6188 O   0  0  0  0  0  0  0  0  0  0  0  0
  -27.1469  -17.7826   21.9880 O   0  0  0  0  0  0  0  0  0  0  0  0
  -21.4422   -7.1500   21.6578 O   0  0  0  0  0  0  0  0  0  0  0  0
  -28.6800  -27.7078   22.5870 O   0  0  0  0  0  0  0  0  0  1  0  0
  -23.6765   -2.5469   23.7126 F   0  0  0  0  0  0  0  0  0  0  0  0
  -20.5872   -6.1149   24.0744 F   0  0  0  0  0  0  0  0  0  0  0  0
  1  2  1  0  0  0  0
  1  5  2  0  0  0  0
  2  6  2  0  0  0  0
  3 12  2  0  0  0  0
  3 19  1  0  0  0  0
  4 13  1  0  0  0  0
  4 19  2  0  0  0  0
  5 21  1  0  0  0  0
  6 23  1  0  0  0  0
  7 14  2  0  0  0  0
  7 22  1  0  0  0  0
  8 10  2  0  0  0  0
  8 25  1  0  0  0  0
  9 11  1  0  0  0  0
  9 25  2  0  0  0  0
 10 26  1  0  0  0  0
 11 26  2  0  0  0  0
 12 27  1  0  0  0  0
 13 27  2  0  0  0  0
 14 28  1  0  0  0  0
 15 16  2  0  0  0  0
 15 29  1  0  0  0  0
 16 30  1  0  0  0  0
 17 24  1  0  0  0  0
 17 28  2  0  0  0  0
 18 30  2  0  0  0  0
 18 31  1  0  0  0  0
 19 32  1  0  0  0  0
 20 32  1  0  0  0  0
 20 33  2  0  0  0  0
 20 36  1  0  0  0  0
 21 23  2  0  0  0  0
 21 41  1  0  0  0  0
 22 24  2  0  0  0  0
 22 42  1  0  0  0  0
 23 52  1  0  0  0  0
 24 43  1  0  0  0  0
 25 69  1  0  0  0  0
 26 76  1  0  0  0  0
 27 85  1  0  0  0  0
 28 86  1  0  0  0  0
 29 31  2  0  0  0  0
 29 85  1  0  0  0  0
 30 87  1  0  0  0  0
 31 88  1  0  0  0  0
 32 67  2  0  0  0  0
 33 68  1  0  0  0  0
 33 72  1  0  0  0  0
 34 44  1  0  0  0  0
 34 69  1  0  0  0  0
 34 78  2  0  0  0  0
 35 53  1  0  0  0  0
 35 69  1  0  0  0  0
 35 79  2  0  0  0  0
 36 73  1  0  0  0  0
 36 80  2  0  0  0  0
 37 54  1  0  0  0  0
 37 74  1  0  0  0  0
 37 81  2  0  0  0  0
 38 64  1  0  0  0  0
 38 70  1  0  0  0  0
 38 82  2  0  0  0  0
 39 65  1  0  0  0  0
 39 75  1  0  0  0  0
 39 83  2  0  0  0  0
 40 71  1  0  0  0  0
 40 76  1  0  0  0  0
 40 84  2  0  0  0  0
 41 45  1  0  0  0  0
 42 54  1  0  0  0  0
 43 70  1  0  0  0  0
 44 46  1  0  0  0  0
 45 48  1  0  0  0  0
 46 53  1  0  0  0  0
 47 49  1  0  0  0  0
 47 50  1  0  0  0  0
 48 52  1  0  0  0  0
 49 55  1  0  0  0  0
 50 71  1  0  0  0  0
 51 55  1  0  0  0  0
 51 71  1  0  0  0  0
 52 74  1  0  0  0  0
 53 62  1  0  0  0  0
 54 70  1  0  0  0  0
 55 68  1  0  0  0  0
 56 63  1  0  0  0  0
 57 65  1  0  0  0  0
 58 66  1  0  0  0  0
 59 66  1  0  0  0  0
 60 66  1  0  0  0  0
 61 77  1  0  0  0  0
 62 86  1  0  0  0  0
 63 76  1  0  0  0  0
 64 66  1  0  0  0  0
 64 75  1  0  0  0  0
 65 77  1  0  0  0  0
 67 68  1  0  0  0  0
M  CHG  1  77   1
M  ISO  4  40 100  62 101  76 100  86 101
M  END
> <Batch ID>
0100

> <Smiles>
CC[100N:0](c1ccc(N2C(=O)CCC([101CH2:1][101O:1]c3ccc4c(c3)CN(C(=O)C(NC(=O)C(C)NC)C(C)(C)C)C(C(=O)NC3CCCc5ccccc53)C4)C2=O)cc1)[100C:0](=O)N1CCCC(n2nc(-c3ccc(Oc4ccc(F)cc4F)cc3)c(C(N)=O)c2N)C1

> <Shape>
0.288

> <Color>
0.091

> <Negative vol penalty>
0.000

$$$$

  -OEChem-04052300573D

 85 93  0     1  0  0  0  0  0999 V2000
  -32.1476  -16.6381   20.0941 C   0  0  0  0  0  0  0  0  0  0  0  0
  -31.1271  -17.5373   20.3862 C   0  0  0  0  0  0  0  0  0  0  0  0
  -17.5942  -27.3478   23.8779 C   0  0  0  0  0  0  0  0  0  0  0  0
  -29.0903  -26.2180   20.3003 C   0  0  0  0  0  0  0  0  0  0  0  0
  -27.2134  -25.8993   18.8128 C   0  0  0  0  0  0  0  0  0  0  0  0
  -31.8473  -15.4148   19.4965 C   0  0  0  0  0  0  0  0  0  0  0  0
  -29.8057  -17.2142   20.0797 C   0  0  0  0  0  0  0  0  0  0  0  0
  -24.8056  -18.7559   23.2623 C   0  0  0  0  0  0  0  0  0  0  0  0
  -18.3173  -28.4703   23.4745 C   0  0  0  0  0  0  0  0  0  0  0  0
  -17.8115  -26.1180   23.2566 C   0  0  0  0  0  0  0  0  0  0  0  0
  -29.5746  -24.9550   19.9598 C   0  0  0  0  0  0  0  0  0  0  0  0
  -27.6977  -24.6363   18.4722 C   0  0  0  0  0  0  0  0  0  0  0  0
  -23.8686  -19.7756   23.1012 C   0  0  0  0  0  0  0  0  0  0  0  0
  -27.7326  -21.5353   19.8187 C   0  0  0  0  0  0  0  0  0  0  0  0
  -26.8207  -20.4806   19.7788 C   0  0  0  0  0  0  0  0  0  0  0  0
  -22.4225  -18.2513   21.9161 C   0  0  0  0  0  0  0  0  0  0  0  0
  -27.3338  -20.1253   17.4447 C   0  0  0  0  0  0  0  0  0  0  0  0
  -27.9097  -26.6901   19.7268 C   0  0  0  0  0  0  0  0  0  0  0  0
  -27.7024  -29.2171   19.4457 C   0  0  0  0  0  0  0  0  0  0  0  0
  -30.5205  -15.0724   19.1914 C   0  0  0  0  0  0  0  0  0  0  0  0
  -24.5625  -17.4769   22.7411 C   0  0  0  0  0  0  0  0  0  0  0  0
  -29.4875  -15.9857   19.4762 C   0  0  0  0  0  0  0  0  0  0  0  0
  -23.3569  -17.2164   22.0742 C   0  0  0  0  0  0  0  0  0  0  0  0
  -19.2575  -28.3630   22.4498 C   0  0  0  0  0  0  0  0  0  0  0  0
  -28.8783  -24.1642   19.0458 C   0  0  0  0  0  0  0  0  0  0  0  0
  -22.6781  -19.5242   22.4255 C   0  0  0  0  0  0  0  0  0  0  0  0
  -28.4451  -21.8850   18.6716 C   0  0  0  0  0  0  0  0  0  0  0  0
  -18.7517  -26.0107   22.2318 C   0  0  0  0  0  0  0  0  0  0  0  0
  -26.6213  -19.7756   18.5918 C   0  0  0  0  0  0  0  0  0  0  0  0
  -28.2457  -21.1800   17.4847 C   0  0  0  0  0  0  0  0  0  0  0  0
  -19.4747  -27.1332   21.8284 C   0  0  0  0  0  0  0  0  0  0  0  0
  -27.4086  -27.9944   20.0786 C   0  0  0  0  0  0  0  0  0  0  0  0
  -26.9834  -30.1506   20.1515 C   0  0  0  0  0  0  0  0  0  0  0  0
  -28.5494  -29.4850   18.3203 C   0  0  0  0  0  0  0  0  0  0  0  0
  -25.9771  -15.6316   20.5738 C   0  0  0  0  0  0  0  0  0  0  0  0
  -23.7970  -13.4497   21.5780 C   0  0  0  0  0  0  0  0  0  0  0  0
  -20.7758  -12.8345   23.0412 C   0  0  0  0  0  0  0  0  0  0  0  0
  -22.0199  -29.8083   23.4827 C   0  0  0  0  0  0  0  0  0  0  0  0
  -30.2500  -13.7583   18.5025 C   0  0  0  0  0  0  0  0  0  0  0  0
  -25.5716  -16.3807   22.9467 C   0  0  0  0  0  0  0  0  0  0  0  0
  -23.0389  -15.8552   21.5136 C   0  0  0  0  0  0  0  0  0  0  0  0
  -28.7841  -13.3350   18.5519 C   0  0  0  0  0  0  0  0  0  0  0  0
  -25.2132  -30.9972   24.5150 C   0  0  0  0  0  0  0  0  0  0  0  0
  -27.8778  -14.5060   18.1858 C   0  0  0  0  0  0  0  0  0  0  0  0
  -26.1645  -30.4728   23.4380 C   0  0  0  0  0  0  0  0  0  0  0  0
  -24.0979  -29.9990   24.8176 C   0  0  0  0  0  0  0  0  0  0  0  0
  -24.2855  -29.0233   22.5622 C   0  0  0  0  0  0  0  0  0  0  0  0
  -28.0391  -15.6609   19.1816 C   0  0  1  0  0  0  0  0  0  0  0  0
  -25.4449  -15.2530   21.9270 C   0  0  1  0  0  0  0  0  0  0  0  0
  -25.3949  -30.0190   22.1829 C   0  0  2  0  0  0  0  0  0  0  0  0
  -19.8010  -29.9249   20.5453 C   0  0  0  0  0  0  0  0  0  0  0  0
  -19.2483  -10.9524   23.6906 C   0  0  0  0  0  0  0  0  0  0  0  0
  -22.9746  -13.1132   18.6590 C   0  0  0  0  0  0  0  0  0  0  0  0
  -20.8811  -11.9914   19.4507 C   0  0  0  0  0  0  0  0  0  0  0  0
  -23.1043  -10.9806   19.9587 C   0  0  0  0  0  0  0  0  0  0  0  0
  -20.9075  -13.5622   25.9069 C   0  0  0  0  0  0  0  0  0  0  0  0
  -19.5090  -21.2537   22.7275 C   0  0  0  0  0  0  0  0  0  0  0  0
  -19.6691  -22.5304   21.9095 C   0  0  0  0  0  0  0  0  0  0  0  0
  -20.3903  -20.1314   22.1953 C   0  0  0  0  0  0  0  0  0  1  0  0
  -18.7569  -23.6395   22.4143 C   0  0  0  0  0  0  0  0  0  0  0  0
  -20.0294  -29.5647   22.0205 C   0  0  2  0  0  0  0  0  0  0  0  0
  -22.3904  -13.0796   21.1737 C   0  0  1  0  0  0  0  0  0  0  0  0
  -20.3679  -11.8758   24.1452 C   0  0  2  0  0  0  0  0  0  0  0  0
  -22.3441  -12.3175   19.8193 C   0  0  0  0  0  0  0  0  0  0  0  0
  -26.5686  -28.1352   21.1075 N   0  0  0  0  0  0  0  0  0  0  0  0
  -26.3285  -29.4574   21.1265 N   0  0  0  0  0  0  0  0  0  0  0  0
  -24.0600  -14.8179   21.7347 N   0  0  0  0  0  0  0  0  0  0  0  0
  -23.4067  -29.6104   23.5859 N   0  0  0  0  0  0  0  0  0  0  0  0
  -26.8540  -31.4886   20.0271 N   0  0  0  0  0  0  0  0  0  0  0  0
  -29.2138  -28.4106   17.7133 N   0  0  0  0  0  0  0  0  0  0  0  0
  -27.3246  -15.3750   20.4073 N   0  0  0  0  0  0  0  0  0  0  0  0
  -21.8246  -12.3387   22.2959 N   0  0  0  0  0  0  0  0  0  0  0  0
  -21.4445  -29.4185   22.2795 N   0  0  0  0  0  0  0  0  0  0  0  0
  -19.8974  -12.6318   25.3402 N   0  3  0  0  0  0  0  0  0  0  0  0
  -28.7251  -30.6451   17.8766 O   0  0  0  0  0  0  0  0  0  0  0  0
  -25.2208  -16.1191   19.7418 O   0  0  0  0  0  0  0  0  0  0  0  0
  -24.6298  -12.5571   21.7555 O   0  0  0  0  0  0  0  0  0  0  0  0
  -20.2174  -13.9136   22.8560 O   0  0  0  0  0  0  0  0  0  0  0  0
  -21.3454  -30.3011   24.3933 O   0  0  0  0  0  0  0  0  0  0  0  0
  -29.3507  -22.9318   18.7131 O   0  0  0  0  0  0  0  0  0  0  0  0
  -21.7621  -20.5179   22.2663 O   0  0  0  0  0  0  0  0  0  1  0  0
  -18.9643  -24.8012   21.6228 O   0  0  0  0  0  0  0  0  0  0  0  0
  -25.7466  -18.7618   18.5540 F   0  0  0  0  0  0  0  0  0  0  0  0
  -28.9282  -21.5106   16.3798 F   0  0  0  0  0  0  0  0  0  0  0  0
  -20.3786  -27.0272   20.8434 F   0  0  0  0  0  0  0  0  0  0  0  0
  1  2  1  0  0  0  0
  1  6  2  0  0  0  0
  2  7  2  0  0  0  0
  3  9  1  0  0  0  0
  3 10  2  0  0  0  0
  4 11  2  0  0  0  0
  4 18  1  0  0  0  0
  5 12  1  0  0  0  0
  5 18  2  0  0  0  0
  6 20  1  0  0  0  0
  7 22  1  0  0  0  0
  8 13  2  0  0  0  0
  8 21  1  0  0  0  0
  9 24  2  0  0  0  0
 10 28  1  0  0  0  0
 11 25  1  0  0  0  0
 12 25  2  0  0  0  0
 13 26  1  0  0  0  0
 14 15  2  0  0  0  0
 14 27  1  0  0  0  0
 15 29  1  0  0  0  0
 16 23  1  0  0  0  0
 16 26  2  0  0  0  0
 17 29  2  0  0  0  0
 17 30  1  0  0  0  0
 18 32  1  0  0  0  0
 19 32  1  0  0  0  0
 19 33  2  0  0  0  0
 19 34  1  0  0  0  0
 20 22  2  0  0  0  0
 20 39  1  0  0  0  0
 21 23  2  0  0  0  0
 21 40  1  0  0  0  0
 22 48  1  0  0  0  0
 23 41  1  0  0  0  0
 24 31  1  0  0  0  0
 24 61  1  0  0  0  0
 25 80  1  0  0  0  0
 26 81  1  0  0  0  0
 27 30  2  0  0  0  0
 27 80  1  0  0  0  0
 28 31  2  0  0  0  0
 28 82  1  0  0  0  0
 29 83  1  0  0  0  0
 30 84  1  0  0  0  0
 31 85  1  0  0  0  0
 32 65  2  0  0  0  0
 33 66  1  0  0  0  0
 33 69  1  0  0  0  0
 34 70  1  0  0  0  0
 34 75  2  0  0  0  0
 35 49  1  0  0  0  0
 35 71  1  0  0  0  0
 35 76  2  0  0  0  0
 36 62  1  0  0  0  0
 36 67  1  0  0  0  0
 36 77  2  0  0  0  0
 37 63  1  0  0  0  0
 37 72  1  0  0  0  0
 37 78  2  0  0  0  0
 38 68  1  0  0  0  0
 38 73  1  0  0  0  0
 38 79  2  0  0  0  0
 39 42  1  0  0  0  0
 40 49  1  0  0  0  0
 41 67  1  0  0  0  0
 42 44  1  0  0  0  0
 43 45  1  0  0  0  0
 43 46  1  0  0  0  0
 44 48  1  0  0  0  0
 45 50  1  0  0  0  0
 46 68  1  0  0  0  0
 47 50  1  0  0  0  0
 47 68  1  0  0  0  0
 48 71  1  0  0  0  0
 49 67  1  0  0  0  0
 50 66  1  0  0  0  0
 51 61  1  0  0  0  0
 52 63  1  0  0  0  0
 53 64  1  0  0  0  0
 54 64  1  0  0  0  0
 55 64  1  0  0  0  0
 56 74  1  0  0  0  0
 57 58  1  0  0  0  0
 57 59  1  0  0  0  0
 58 60  1  0  0  0  0
 59 81  1  0  0  0  0
 60 82  1  0  0  0  0
 61 73  1  0  0  0  0
 62 64  1  0  0  0  0
 62 72  1  0  0  0  0
 63 74  1  0  0  0  0
 65 66  1  0  0  0  0
M  CHG  1  74   1
M  ISO  4  38 100  59 101  73 100  81 101
M  END
> <Batch ID>
0100

> <Smiles>
CNC(C)C(=O)NC(C(=O)N1Cc2cc([101O:1][101CH2:1]CCCOc3cccc(C(C)[100NH:0][100C:0](=O)N4CCCC(n5nc(-c6ccc(Oc7ccc(F)cc7F)cc6)c(C(N)=O)c5N)C4)c3F)ccc2CC1C(=O)NC1CCCc2ccccc21)C(C)(C)C

> <Shape>
0.239

> <Color>
0.068

> <Negative vol penalty>
0.000

$$$$
