
  -OEChem-04052301003D

 87 96  0     1  0  0  0  0  0999 V2000
  -21.8413  -30.6511   21.8849 C   0  0  0  0  0  0  0  0  0  0  0  0
  -22.6119  -29.5295   22.1738 C   0  0  0  0  0  0  0  0  0  0  0  0
  -23.2621   -9.7049   21.3276 C   0  0  0  0  0  0  0  0  0  0  0  0
  -23.8882  -10.6852   23.4452 C   0  0  0  0  0  0  0  0  0  0  0  0
  -20.4593  -30.6110   22.0644 C   0  0  0  0  0  0  0  0  0  0  0  0
  -22.0010  -28.3674   22.6437 C   0  0  0  0  0  0  0  0  0  0  0  0
  -23.7394  -24.1974   20.3558 C   0  0  0  0  0  0  0  0  0  0  0  0
  -22.5565   -8.7061   21.9986 C   0  0  0  0  0  0  0  0  0  0  0  0
  -23.1825   -9.6865   24.1162 C   0  0  0  0  0  0  0  0  0  0  0  0
  -24.9756  -23.7089   20.7762 C   0  0  0  0  0  0  0  0  0  0  0  0
  -19.9633   -8.9968   24.8787 C   0  0  0  0  0  0  0  0  0  0  0  0
  -19.1429   -9.3850   25.9379 C   0  0  0  0  0  0  0  0  0  0  0  0
  -29.5307  -18.3545   21.3995 C   0  0  0  0  0  0  0  0  0  0  0  0
  -31.3985  -19.7318   22.0712 C   0  0  0  0  0  0  0  0  0  0  0  0
  -23.8553  -22.0535   22.1267 C   0  0  0  0  0  0  0  0  0  0  0  0
  -31.7801  -17.4807   21.2815 C   0  0  0  0  0  0  0  0  0  0  0  0
  -20.4240   -7.9927   27.4404 C   0  0  0  0  0  0  0  0  0  0  0  0
  -23.9280  -10.6944   22.0509 C   0  0  0  0  0  0  0  0  0  0  0  0
  -30.0261  -19.5640   21.8866 C   0  0  0  0  0  0  0  0  0  0  0  0
  -24.1649  -12.9723   20.9273 C   0  0  0  0  0  0  0  0  0  0  0  0
  -19.8300  -29.4448   22.5275 C   0  0  0  0  0  0  0  0  0  0  0  0
  -22.5497  -23.6237   20.8269 C   0  0  0  0  0  0  0  0  0  0  0  0
  -20.6094  -28.3121   22.8309 C   0  0  0  0  0  0  0  0  0  0  0  0
  -22.6053  -22.5349   21.7087 C   0  0  0  0  0  0  0  0  0  0  0  0
  -30.4077  -17.3128   21.0970 C   0  0  0  0  0  0  0  0  0  0  0  0
  -22.5167   -8.6969   23.3929 C   0  0  0  0  0  0  0  0  0  0  0  0
  -25.0337  -22.6386   21.6640 C   0  0  0  0  0  0  0  0  0  0  0  0
  -21.0140   -8.1065   25.1004 C   0  0  0  0  0  0  0  0  0  0  0  0
  -19.3733   -8.8830   27.2188 C   0  0  0  0  0  0  0  0  0  0  0  0
  -32.2755  -18.6902   21.7686 C   0  0  0  0  0  0  0  0  0  0  0  0
  -21.2443   -7.6045   26.3812 C   0  0  0  0  0  0  0  0  0  0  0  0
  -24.6575  -11.7260   21.3584 C   0  0  0  0  0  0  0  0  0  0  0  0
  -25.2421  -13.5790   20.3289 C   0  0  0  0  0  0  0  0  0  0  0  0
  -29.1026  -20.6607   22.2080 C   0  0  0  0  0  0  0  0  0  0  0  0
  -22.8510  -13.5317   21.0563 C   0  0  0  0  0  0  0  0  0  0  0  0
  -20.0737  -24.6691   22.5241 C   0  0  0  0  0  0  0  0  0  0  0  0
  -18.8675  -21.7357   21.8438 C   0  0  0  0  0  0  0  0  0  0  0  0
  -19.4622  -18.4838   20.9965 C   0  0  0  0  0  0  0  0  0  0  0  0
  -30.6381  -14.9504   20.2528 C   0  0  0  0  0  0  0  0  0  0  0  0
  -18.3385  -29.4644   22.7509 C   0  0  0  0  0  0  0  0  0  0  0  0
  -21.2244  -24.1451   20.3429 C   0  0  0  0  0  0  0  0  0  0  0  0
  -21.3573  -21.8707   22.2281 C   0  0  0  0  0  0  0  0  0  0  0  0
  -17.7260  -28.0737   22.8962 C   0  0  0  0  0  0  0  0  0  0  0  0
  -29.7684  -11.7207   19.0324 C   0  0  0  0  0  0  0  0  0  0  0  0
  -18.5561  -27.2220   23.8513 C   0  0  0  0  0  0  0  0  0  0  0  0
  -28.3207  -11.5367   19.4933 C   0  0  0  0  0  0  0  0  0  0  0  0
  -27.9702  -20.1708   25.7211 C   0  0  0  0  0  0  0  0  0  0  0  0
  -30.6022  -12.4726   20.0683 C   0  0  0  0  0  0  0  0  0  0  0  0
  -28.9110  -19.7829   24.5880 C   0  0  0  0  0  0  0  0  0  0  0  0
  -28.5892  -13.5705   20.9693 C   0  0  0  0  0  0  0  0  0  0  0  0
  -19.9806  -27.0250   23.3188 C   0  0  1  0  0  0  0  0  0  0  0  0
  -20.0721  -23.8162   21.2870 C   0  0  1  0  0  0  0  0  0  0  0  0
  -27.6940  -12.8752   19.9305 C   0  0  2  0  0  0  0  0  0  0  0  0
  -27.7177  -21.6572   25.4765 C   0  0  2  0  0  0  0  0  0  0  0  0
  -27.7020  -21.7797   23.9494 C   0  0  2  0  0  0  0  0  0  0  0  0
  -18.2788  -16.3167   20.5486 C   0  0  0  0  0  0  0  0  0  0  0  0
  -18.4264  -21.3602   24.8396 C   0  0  0  0  0  0  0  0  0  0  0  0
  -18.1570  -18.9064   24.4216 C   0  0  0  0  0  0  0  0  0  0  0  0
  -16.5605  -20.5269   23.3979 C   0  0  0  0  0  0  0  0  0  0  0  0
  -20.4857  -18.3644   18.2221 C   0  0  0  0  0  0  0  0  0  0  0  0
  -26.2972  -21.5835   23.3805 C   0  0  0  0  0  0  0  0  0  1  0  0
  -18.9206  -20.3787   22.5032 C   0  0  1  0  0  0  0  0  0  0  0  0
  -18.8436  -17.5895   19.9373 C   0  0  2  0  0  0  0  0  0  0  0  0
  -18.0398  -20.3066   23.7825 C   0  0  0  0  0  0  0  0  0  0  0  0
  -25.9473  -11.5499   21.0592 N   0  0  0  0  0  0  0  0  0  0  0  0
  -26.2742  -12.6935   20.4336 N   0  0  0  0  0  0  0  0  0  0  0  0
  -28.6021  -20.7110   23.5018 N   0  0  0  0  0  0  0  0  0  0  0  0
  -20.0856  -22.4207   21.7305 N   0  0  0  0  0  0  0  0  0  0  0  0
  -29.9490  -13.7322   20.4314 N   0  0  0  0  0  0  0  0  0  0  0  0
  -25.3976  -14.7781   19.7286 N   0  0  0  0  0  0  0  0  0  0  0  0
  -21.8624  -12.7739   21.6986 N   0  0  0  0  0  0  0  0  0  0  0  0
  -29.9048  -16.0840   20.6019 N   0  0  0  0  0  0  0  0  0  0  0  0
  -19.9952  -26.0255   22.2723 N   0  0  0  0  0  0  0  0  0  0  0  0
  -18.5593  -19.4102   21.4737 N   0  0  0  0  0  0  0  0  0  0  0  0
  -19.8640  -17.2095   18.9198 N   0  3  0  0  0  0  0  0  0  0  0  0
  -28.8328  -21.4494   21.3050 O   0  0  0  0  0  0  0  0  0  0  0  0
  -22.5581  -14.6630   20.6005 O   0  0  0  0  0  0  0  0  0  0  0  0
  -20.1397  -24.1359   23.6255 O   0  0  0  0  0  0  0  0  0  0  0  0
  -17.7862  -22.1688   21.4376 O   0  0  0  0  0  0  0  0  0  0  0  0
  -20.6287  -18.3693   21.3665 O   0  0  0  0  0  0  0  0  0  0  0  0
  -31.7836  -14.9873   19.7964 O   0  0  0  0  0  0  0  0  0  0  0  0
  -28.8050  -22.4213   25.9901 O   0  0  0  0  0  0  0  0  0  0  0  0
  -21.8280   -7.7226   24.0479 O   0  0  0  0  0  0  0  0  0  0  0  0
  -26.2391  -22.1602   22.0766 O   0  0  0  0  0  0  0  0  0  1  0  0
  -18.5864   -9.2571   28.2361 F   0  0  0  0  0  0  0  0  0  0  0  0
  -33.5930  -18.8502   21.9487 F   0  0  0  0  0  0  0  0  0  0  0  0
  -22.2529   -6.7498   26.6005 F   0  0  0  0  0  0  0  0  0  0  0  0
  1  2  1  0  0  0  0
  1  5  2  0  0  0  0
  2  6  2  0  0  0  0
  3  8  2  0  0  0  0
  3 18  1  0  0  0  0
  4  9  1  0  0  0  0
  4 18  2  0  0  0  0
  5 21  1  0  0  0  0
  6 23  1  0  0  0  0
  7 10  2  0  0  0  0
  7 22  1  0  0  0  0
  8 26  1  0  0  0  0
  9 26  2  0  0  0  0
 10 27  1  0  0  0  0
 11 12  2  0  0  0  0
 11 28  1  0  0  0  0
 12 29  1  0  0  0  0
 13 19  2  0  0  0  0
 13 25  1  0  0  0  0
 14 19  1  0  0  0  0
 14 30  2  0  0  0  0
 15 24  1  0  0  0  0
 15 27  2  0  0  0  0
 16 25  2  0  0  0  0
 16 30  1  0  0  0  0
 17 29  2  0  0  0  0
 17 31  1  0  0  0  0
 18 32  1  0  0  0  0
 19 34  1  0  0  0  0
 20 32  1  0  0  0  0
 20 33  2  0  0  0  0
 20 35  1  0  0  0  0
 21 23  2  0  0  0  0
 21 40  1  0  0  0  0
 22 24  2  0  0  0  0
 22 41  1  0  0  0  0
 23 51  1  0  0  0  0
 24 42  1  0  0  0  0
 25 72  1  0  0  0  0
 26 83  1  0  0  0  0
 27 84  1  0  0  0  0
 28 31  2  0  0  0  0
 28 83  1  0  0  0  0
 29 85  1  0  0  0  0
 30 86  1  0  0  0  0
 31 87  1  0  0  0  0
 32 65  2  0  0  0  0
 33 66  1  0  0  0  0
 33 70  1  0  0  0  0
 34 67  1  0  0  0  0
 34 76  2  0  0  0  0
 35 71  1  0  0  0  0
 35 77  2  0  0  0  0
 36 52  1  0  0  0  0
 36 73  1  0  0  0  0
 36 78  2  0  0  0  0
 37 62  1  0  0  0  0
 37 68  1  0  0  0  0
 37 79  2  0  0  0  0
 38 63  1  0  0  0  0
 38 74  1  0  0  0  0
 38 80  2  0  0  0  0
 39 69  1  0  0  0  0
 39 72  1  0  0  0  0
 39 81  2  0  0  0  0
 40 43  1  0  0  0  0
 41 52  1  0  0  0  0
 42 68  1  0  0  0  0
 43 45  1  0  0  0  0
 44 46  1  0  0  0  0
 44 48  1  0  0  0  0
 45 51  1  0  0  0  0
 46 53  1  0  0  0  0
 47 49  1  0  0  0  0
 47 54  1  0  0  0  0
 48 69  1  0  0  0  0
 49 67  1  0  0  0  0
 50 53  1  0  0  0  0
 50 69  1  0  0  0  0
 51 73  1  0  0  0  0
 52 68  1  0  0  0  0
 53 66  1  0  0  0  0
 54 55  1  0  0  0  0
 54 82  1  0  0  0  0
 55 61  1  0  0  0  0
 55 67  1  0  0  0  0
 56 63  1  0  0  0  0
 57 64  1  0  0  0  0
 58 64  1  0  0  0  0
 59 64  1  0  0  0  0
 60 75  1  0  0  0  0
 61 84  1  0  0  0  0
 62 64  1  0  0  0  0
 62 74  1  0  0  0  0
 63 75  1  0  0  0  0
 65 66  1  0  0  0  0
M  CHG  1  75   1
M  ISO  4  39 100  61 101  72 100  84 101
M  END
> <Batch ID>
0101

> <Smiles>
CNC(C)C(=O)NC(C(=O)N1Cc2cc([101O:1][101CH2:1]C3C(O)CCN3C(=O)c3cc(F)cc([100NH:0][100C:0](=O)N4CCCC(n5nc(-c6ccc(Oc7ccc(F)cc7F)cc6)c(C(N)=O)c5N)C4)c3)ccc2CC1C(=O)NC1CCCc2ccccc21)C(C)(C)C

> <Shape>
0.208

> <Color>
0.138

> <Negative vol penalty>
0.000

$$$$

  -OEChem-04052301003D

 88 97  0     1  0  0  0  0  0999 V2000
  -29.4906  -25.0034   16.7753 C   0  0  0  0  0  0  0  0  0  0  0  0
  -28.2600  -24.9481   17.4217 C   0  0  0  0  0  0  0  0  0  0  0  0
  -30.0666  -17.7896   21.6052 C   0  0  0  0  0  0  0  0  0  0  0  0
  -27.9832  -16.6853   22.1313 C   0  0  0  0  0  0  0  0  0  0  0  0
  -21.9361  -21.9149   25.3513 C   0  0  0  0  0  0  0  0  0  0  0  0
  -30.5422  -25.7232   17.3410 C   0  0  0  0  0  0  0  0  0  0  0  0
  -28.0806  -25.6117   18.6349 C   0  0  0  0  0  0  0  0  0  0  0  0
  -23.7129  -28.1677   18.8238 C   0  0  0  0  0  0  0  0  0  0  0  0
  -21.2369  -22.5630   24.3332 C   0  0  0  0  0  0  0  0  0  0  0  0
  -30.6409  -16.5574   21.2931 C   0  0  0  0  0  0  0  0  0  0  0  0
  -28.5574  -15.4531   21.8191 C   0  0  0  0  0  0  0  0  0  0  0  0
  -22.5539  -27.4309   19.0636 C   0  0  0  0  0  0  0  0  0  0  0  0
  -29.3061  -13.6895   19.0353 C   0  0  0  0  0  0  0  0  0  0  0  0
  -28.5615  -12.8095   18.2499 C   0  0  0  0  0  0  0  0  0  0  0  0
  -22.6170  -28.0974   21.3812 C   0  0  0  0  0  0  0  0  0  0  0  0
  -21.3079  -20.5482   23.0018 C   0  0  0  0  0  0  0  0  0  0  0  0
  -28.6203  -11.1737   20.0269 C   0  0  0  0  0  0  0  0  0  0  0  0
  -28.7377  -17.8536   22.0243 C   0  0  0  0  0  0  0  0  0  0  0  0
  -22.3214  -20.5834   25.1946 C   0  0  0  0  0  0  0  0  0  0  0  0
  -27.9913  -20.2343   21.4929 C   0  0  0  0  0  0  0  0  0  0  0  0
  -30.3727  -26.4039   18.5569 C   0  0  0  0  0  0  0  0  0  0  0  0
  -24.3399  -28.8672   19.8650 C   0  0  0  0  0  0  0  0  0  0  0  0
  -29.1312  -26.3401   19.2181 C   0  0  0  0  0  0  0  0  0  0  0  0
  -23.7824  -28.8444   21.1514 C   0  0  0  0  0  0  0  0  0  0  0  0
  -20.9227  -21.8797   23.1585 C   0  0  0  0  0  0  0  0  0  0  0  0
  -22.0072  -19.9001   24.0199 C   0  0  0  0  0  0  0  0  0  0  0  0
  -29.8864  -15.3891   21.4000 C   0  0  0  0  0  0  0  0  0  0  0  0
  -22.0073  -27.3933   20.3431 C   0  0  0  0  0  0  0  0  0  0  0  0
  -29.7079  -13.3115   20.3165 C   0  0  0  0  0  0  0  0  0  0  0  0
  -28.2186  -11.5516   18.7457 C   0  0  0  0  0  0  0  0  0  0  0  0
  -29.3649  -12.0537   20.8123 C   0  0  0  0  0  0  0  0  0  0  0  0
  -28.1441  -19.1261   22.3474 C   0  0  0  0  0  0  0  0  0  0  0  0
  -27.3758  -21.1849   22.2701 C   0  0  0  0  0  0  0  0  0  0  0  0
  -18.9458  -22.0139   21.7148 C   0  0  0  0  0  0  0  0  0  0  0  0
  -20.7966  -23.7027   21.5188 C   0  0  0  0  0  0  0  0  0  0  0  0
  -23.0506  -19.9348   26.2773 C   0  0  0  0  0  0  0  0  0  0  0  0
  -28.3716  -20.3905   20.1193 C   0  0  0  0  0  0  0  0  0  0  0  0
  -23.9372  -20.7071   27.1777 C   0  0  0  0  0  0  0  0  0  0  0  0
  -27.1883  -28.7222   21.2683 C   0  0  0  0  0  0  0  0  0  0  0  0
  -26.1255  -31.3658   22.8190 C   0  0  0  0  0  0  0  0  0  0  0  0
  -23.0403  -32.4721   24.3271 C   0  0  0  0  0  0  0  0  0  0  0  0
  -31.5526  -27.1298   19.1532 C   0  0  0  0  0  0  0  0  0  0  0  0
  -25.5746  -29.6790   19.5841 C   0  0  0  0  0  0  0  0  0  0  0  0
  -24.4057  -29.5946   22.2991 C   0  0  0  0  0  0  0  0  0  0  0  0
  -18.2789  -22.6266   20.5006 C   0  0  0  0  0  0  0  0  0  0  0  0
  -31.1688  -28.1147   20.2545 C   0  0  0  0  0  0  0  0  0  0  0  0
  -19.1944  -23.4897   19.6642 C   0  0  0  0  0  0  0  0  0  0  0  0
  -26.9435  -22.6250   26.8031 C   0  0  0  0  0  0  0  0  0  0  0  0
  -30.1901  -27.4694   21.2304 C   0  0  0  0  0  0  0  0  0  0  0  0
  -27.5967  -22.0188   25.5614 C   0  0  0  0  0  0  0  0  0  0  0  0
  -26.2030  -21.5685   27.6166 C   0  0  0  0  0  0  0  0  0  0  0  0
  -25.8351  -20.1963   25.5843 C   0  0  0  0  0  0  0  0  0  0  0  0
  -28.8902  -27.0672   20.5233 C   0  0  1  0  0  0  0  0  0  0  0  0
  -19.8853  -24.4825   20.5818 C   0  0  2  0  0  0  0  0  0  0  0  0
  -26.4174  -29.9351   20.8296 C   0  0  1  0  0  0  0  0  0  0  0  0
  -26.5693  -21.2382   24.7225 C   0  0  2  0  0  0  0  0  0  0  0  0
  -22.1401  -34.7860   24.6914 C   0  0  0  0  0  0  0  0  0  0  0  0
  -27.4149  -31.1208   25.5735 C   0  0  0  0  0  0  0  0  0  0  0  0
  -25.4404  -32.3280   26.5283 C   0  0  0  0  0  0  0  0  0  0  0  0
  -26.9093  -33.4647   24.8631 C   0  0  0  0  0  0  0  0  0  0  0  0
  -20.5271  -31.8452   22.8955 C   0  0  0  0  0  0  0  0  0  0  0  0
  -20.6600  -25.5189   19.7712 C   0  0  0  0  0  0  0  0  0  1  0  0
  -25.3590  -31.6215   24.0941 C   0  0  1  0  0  0  0  0  0  0  0  0
  -22.1090  -33.5510   23.8046 C   0  0  2  0  0  0  0  0  0  0  0  0
  -26.2774  -32.1098   25.2498 C   0  0  0  0  0  0  0  0  0  0  0  0
  -27.6645  -19.3505   23.5737 N   0  0  0  0  0  0  0  0  0  0  0  0
  -22.9730  -18.6569   26.5243 N   0  0  0  0  0  0  0  0  0  0  0  0
  -27.2044  -20.6107   23.4953 N   0  0  0  0  0  0  0  0  0  0  0  0
  -20.1960  -22.5539   22.1009 N   0  0  0  0  0  0  0  0  0  0  0  0
  -25.2627  -20.8225   26.7828 N   0  0  0  0  0  0  0  0  0  0  0  0
  -25.6154  -30.3688   21.9755 N   0  0  0  0  0  0  0  0  0  0  0  0
  -22.3896  -18.5520   23.8408 N   0  0  0  0  0  0  0  0  0  0  0  0
  -26.9701  -22.4476   22.0182 N   0  0  0  0  0  0  0  0  0  0  0  0
  -27.4473  -20.0391   19.1261 N   0  0  0  0  0  0  0  0  0  0  0  0
  -28.0514  -28.2271   20.3096 N   0  0  0  0  0  0  0  0  0  0  0  0
  -24.2890  -32.5508   23.7479 N   0  0  0  0  0  0  0  0  0  0  0  0
  -20.7081  -33.0452   23.7522 N   0  3  0  0  0  0  0  0  0  0  0  0
  -18.3249  -21.1462   22.3375 O   0  0  0  0  0  0  0  0  0  0  0  0
  -21.9578  -24.0696   21.7100 O   0  0  0  0  0  0  0  0  0  0  0  0
  -29.5036  -20.8132   19.7827 O   0  0  0  0  0  0  0  0  0  0  0  0
  -23.4028  -21.1633   28.1800 O   0  0  0  0  0  0  0  0  0  0  0  0
  -27.0140  -28.2700   22.3939 O   0  0  0  0  0  0  0  0  0  0  0  0
  -27.1355  -32.0313   22.5767 O   0  0  0  0  0  0  0  0  0  0  0  0
  -22.6956  -31.6447   25.1681 O   0  0  0  0  0  0  0  0  0  0  0  0
  -30.4464  -14.1866   21.0953 O   0  0  0  0  0  0  0  0  0  0  0  0
  -20.8764  -26.6744   20.5800 O   0  0  0  0  0  0  0  0  0  1  0  0
  -27.5022  -10.7073   17.9920 F   0  0  0  0  0  0  0  0  0  0  0  0
  -29.7470  -11.6854   22.0429 F   0  0  0  0  0  0  0  0  0  0  0  0
  1  2  1  0  0  0  0
  1  6  2  0  0  0  0
  2  7  2  0  0  0  0
  3 10  2  0  0  0  0
  3 18  1  0  0  0  0
  4 11  1  0  0  0  0
  4 18  2  0  0  0  0
  5  9  2  0  0  0  0
  5 19  1  0  0  0  0
  6 21  1  0  0  0  0
  7 23  1  0  0  0  0
  8 12  2  0  0  0  0
  8 22  1  0  0  0  0
  9 25  1  0  0  0  0
 10 27  1  0  0  0  0
 11 27  2  0  0  0  0
 12 28  1  0  0  0  0
 13 14  2  0  0  0  0
 13 29  1  0  0  0  0
 14 30  1  0  0  0  0
 15 24  1  0  0  0  0
 15 28  2  0  0  0  0
 16 25  2  0  0  0  0
 16 26  1  0  0  0  0
 17 30  2  0  0  0  0
 17 31  1  0  0  0  0
 18 32  1  0  0  0  0
 19 26  2  0  0  0  0
 19 36  1  0  0  0  0
 20 32  1  0  0  0  0
 20 33  2  0  0  0  0
 20 37  1  0  0  0  0
 21 23  2  0  0  0  0
 21 42  1  0  0  0  0
 22 24  2  0  0  0  0
 22 43  1  0  0  0  0
 23 53  1  0  0  0  0
 24 44  1  0  0  0  0
 25 69  1  0  0  0  0
 26 72  1  0  0  0  0
 27 85  1  0  0  0  0
 28 86  1  0  0  0  0
 29 31  2  0  0  0  0
 29 85  1  0  0  0  0
 30 87  1  0  0  0  0
 31 88  1  0  0  0  0
 32 66  2  0  0  0  0
 33 68  1  0  0  0  0
 33 73  1  0  0  0  0
 34 45  1  0  0  0  0
 34 69  1  0  0  0  0
 34 78  2  0  0  0  0
 35 54  1  0  0  0  0
 35 69  1  0  0  0  0
 35 79  2  0  0  0  0
 36 38  1  0  0  0  0
 36 67  2  0  0  0  0
 37 74  1  0  0  0  0
 37 80  2  0  0  0  0
 38 70  1  0  0  0  0
 38 81  2  0  0  0  0
 39 55  1  0  0  0  0
 39 75  1  0  0  0  0
 39 82  2  0  0  0  0
 40 63  1  0  0  0  0
 40 71  1  0  0  0  0
 40 83  2  0  0  0  0
 41 64  1  0  0  0  0
 41 76  1  0  0  0  0
 41 84  2  0  0  0  0
 42 46  1  0  0  0  0
 43 55  1  0  0  0  0
 44 71  1  0  0  0  0
 45 47  1  0  0  0  0
 46 49  1  0  0  0  0
 47 54  1  0  0  0  0
 48 50  1  0  0  0  0
 48 51  1  0  0  0  0
 49 53  1  0  0  0  0
 50 56  1  0  0  0  0
 51 70  1  0  0  0  0
 52 56  1  0  0  0  0
 52 70  1  0  0  0  0
 53 75  1  0  0  0  0
 54 62  1  0  0  0  0
 55 71  1  0  0  0  0
 56 68  1  0  0  0  0
 57 64  1  0  0  0  0
 58 65  1  0  0  0  0
 59 65  1  0  0  0  0
 60 65  1  0  0  0  0
 61 77  1  0  0  0  0
 62 86  1  0  0  0  0
 63 65  1  0  0  0  0
 63 76  1  0  0  0  0
 64 77  1  0  0  0  0
 66 68  1  0  0  0  0
M  CHG  1  77   1
M  ISO  4  36 100  38 100  62 101  86 101
M  END
> <Batch ID>
0101

> <Smiles>
CNC(C)C(=O)NC(C(=O)N1Cc2cc([101O:1][101CH2:1]C3CCC(=O)N(c4ccc([100C:0](=N)[100C:0](=O)N5CCCC(n6nc(-c7ccc(Oc8ccc(F)cc8F)cc7)c(C(N)=O)c6N)C5)c(N)c4)C3=O)ccc2CC1C(=O)NC1CCCc2ccccc21)C(C)(C)C

> <Shape>
0.248

> <Color>
0.053

> <Negative vol penalty>
0.000

$$$$

  -OEChem-04052301003D

 82 90  0     1  0  0  0  0  0999 V2000
  -19.9951  -34.2130   21.8277 C   0  0  0  0  0  0  0  0  0  0  0  0
  -21.2529  -33.7511   21.4534 C   0  0  0  0  0  0  0  0  0  0  0  0
  -23.0263  -14.5301   21.9735 C   0  0  0  0  0  0  0  0  0  0  0  0
  -25.0906  -13.2748   21.9775 C   0  0  0  0  0  0  0  0  0  0  0  0
  -30.6180  -23.0215   20.2845 C   0  0  0  0  0  0  0  0  0  0  0  0
  -19.2292  -33.4858   22.7379 C   0  0  0  0  0  0  0  0  0  0  0  0
  -21.7459  -32.5622   21.9899 C   0  0  0  0  0  0  0  0  0  0  0  0
  -25.2914  -28.4417   19.1693 C   0  0  0  0  0  0  0  0  0  0  0  0
  -30.8806  -21.6969   19.9354 C   0  0  0  0  0  0  0  0  0  0  0  0
  -22.3202  -13.3698   22.2910 C   0  0  0  0  0  0  0  0  0  0  0  0
  -24.3845  -12.1146   22.2951 C   0  0  0  0  0  0  0  0  0  0  0  0
  -26.6671  -28.2162   19.1912 C   0  0  0  0  0  0  0  0  0  0  0  0
  -23.0848   -8.7513   22.7526 C   0  0  0  0  0  0  0  0  0  0  0  0
  -23.4020   -7.5873   22.0527 C   0  0  0  0  0  0  0  0  0  0  0  0
  -26.3566  -26.5231   20.8811 C   0  0  0  0  0  0  0  0  0  0  0  0
  -31.0480  -22.3419   17.6132 C   0  0  0  0  0  0  0  0  0  0  0  0
  -22.7985   -8.6698   19.9788 C   0  0  0  0  0  0  0  0  0  0  0  0
  -24.4116  -14.4825   21.8167 C   0  0  0  0  0  0  0  0  0  0  0  0
  -30.5702  -24.0064   19.2978 C   0  0  0  0  0  0  0  0  0  0  0  0
  -25.7034  -16.6071   22.3868 C   0  0  0  0  0  0  0  0  0  0  0  0
  -19.7090  -32.2824   23.2785 C   0  0  0  0  0  0  0  0  0  0  0  0
  -24.4377  -27.7159   20.0124 C   0  0  0  0  0  0  0  0  0  0  0  0
  -20.9862  -31.8189   22.9092 C   0  0  0  0  0  0  0  0  0  0  0  0
  -24.9702  -26.7393   20.8662 C   0  0  0  0  0  0  0  0  0  0  0  0
  -31.0957  -21.3570   18.5998 C   0  0  0  0  0  0  0  0  0  0  0  0
  -30.7853  -23.6666   17.9622 C   0  0  0  0  0  0  0  0  0  0  0  0
  -22.9992  -12.1621   22.4518 C   0  0  0  0  0  0  0  0  0  0  0  0
  -27.2002  -27.2589   20.0493 C   0  0  0  0  0  0  0  0  0  0  0  0
  -22.6243   -9.8746   22.0657 C   0  0  0  0  0  0  0  0  0  0  0  0
  -23.2589   -7.5465   20.6658 C   0  0  0  0  0  0  0  0  0  0  0  0
  -22.4812   -9.8338   20.6788 C   0  0  0  0  0  0  0  0  0  0  0  0
  -25.1415  -15.6806   21.4881 C   0  0  0  0  0  0  0  0  0  0  0  0
  -26.2837  -17.5572   21.5824 C   0  0  0  0  0  0  0  0  0  0  0  0
  -30.2870  -25.4129   19.7048 C   0  0  0  0  0  0  0  0  0  0  0  0
  -25.7010  -16.6088   23.8206 C   0  0  0  0  0  0  0  0  0  0  0  0
  -22.4456  -28.4670   22.3727 C   0  0  0  0  0  0  0  0  0  0  0  0
  -21.6822  -25.3186   22.2075 C   0  0  0  0  0  0  0  0  0  0  0  0
  -22.6085  -22.1555   21.3225 C   0  0  0  0  0  0  0  0  0  0  0  0
  -29.3720  -18.9522   17.1483 C   0  0  0  0  0  0  0  0  0  0  0  0
  -18.8646  -31.5555   24.2950 C   0  0  0  0  0  0  0  0  0  0  0  0
  -22.9533  -27.9521   19.9575 C   0  0  0  0  0  0  0  0  0  0  0  0
  -24.0945  -25.9191   21.7765 C   0  0  0  0  0  0  0  0  0  0  0  0
  -19.3033  -30.1126   24.5313 C   0  0  0  0  0  0  0  0  0  0  0  0
  -25.9115  -18.3221   16.5961 C   0  0  0  0  0  0  0  0  0  0  0  0
  -20.8163  -30.0371   24.7098 C   0  0  0  0  0  0  0  0  0  0  0  0
  -25.4510  -17.6499   17.8907 C   0  0  0  0  0  0  0  0  0  0  0  0
  -27.3302  -17.9035   16.2166 C   0  0  0  0  0  0  0  0  0  0  0  0
  -27.8768  -17.4239   18.5714 C   0  0  0  0  0  0  0  0  0  0  0  0
  -21.5452  -30.5210   23.4504 C   0  0  1  0  0  0  0  0  0  0  0  0
  -22.2315  -27.5164   21.2289 C   0  0  1  0  0  0  0  0  0  0  0  0
  -26.4725  -17.8583   19.0249 C   0  0  2  0  0  0  0  0  0  0  0  0
  -21.7888  -19.7838   21.3451 C   0  0  0  0  0  0  0  0  0  0  0  0
  -22.2596  -25.1501   25.1989 C   0  0  0  0  0  0  0  0  0  0  0  0
  -22.3567  -22.6590   24.9690 C   0  0  0  0  0  0  0  0  0  0  0  0
  -20.2413  -23.8759   24.4525 C   0  0  0  0  0  0  0  0  0  0  0  0
  -22.7377  -21.9604   18.3722 C   0  0  0  0  0  0  0  0  0  0  0  0
  -31.3765  -19.9406   18.2272 C   0  0  0  0  0  0  0  0  0  0  0  0
  -28.9776  -25.7193   20.4049 C   0  0  0  0  0  0  0  0  0  1  0  0
  -22.1965  -24.0582   22.8601 C   0  0  1  0  0  0  0  0  0  0  0  0
  -21.8815  -21.0735   20.5446 C   0  0  2  0  0  0  0  0  0  0  0  0
  -21.7805  -23.9524   24.3545 C   0  0  0  0  0  0  0  0  0  0  0  0
  -25.3462  -16.0122   20.2106 N   0  0  0  0  0  0  0  0  0  0  0  0
  -26.0432  -17.1577   20.3007 N   0  0  0  0  0  0  0  0  0  0  0  0
  -22.6502  -26.1915   21.6908 N   0  0  0  0  0  0  0  0  0  0  0  0
  -28.2497  -18.1282   17.3346 N   0  0  0  0  0  0  0  0  0  0  0  0
  -30.7413  -24.6489   16.9479 N   0  0  0  0  0  0  0  0  0  0  0  0
  -26.9710  -18.6870   21.8535 N   0  0  0  0  0  0  0  0  0  0  0  0
  -25.0593  -15.5571   24.4889 N   0  0  0  0  0  0  0  0  0  0  0  0
  -21.5246  -29.4957   22.4293 N   0  0  0  0  0  0  0  0  0  0  0  0
  -21.7330  -22.9509   22.0310 N   0  0  0  0  0  0  0  0  0  0  0  0
  -30.1883  -19.1173   18.2605 N   0  0  0  0  0  0  0  0  0  0  0  0
  -22.5954  -20.7844   19.2688 N   0  3  0  0  0  0  0  0  0  0  0  0
  -31.1134  -26.2911   19.4682 O   0  0  0  0  0  0  0  0  0  0  0  0
  -26.2375  -17.5245   24.4893 O   0  0  0  0  0  0  0  0  0  0  0  0
  -23.3765  -28.2802   23.1474 O   0  0  0  0  0  0  0  0  0  0  0  0
  -20.4662  -25.5179   22.1517 O   0  0  0  0  0  0  0  0  0  0  0  0
  -23.8311  -22.2801   21.3065 O   0  0  0  0  0  0  0  0  0  0  0  0
  -29.6246  -19.5043   16.0721 O   0  0  0  0  0  0  0  0  0  0  0  0
  -22.3105  -11.0298   22.7619 O   0  0  0  0  0  0  0  0  0  0  0  0
  -28.5427  -27.0373   20.0732 O   0  0  0  0  0  0  0  0  0  1  0  0
  -23.5650   -6.4291   19.9936 F   0  0  0  0  0  0  0  0  0  0  0  0
  -22.0404  -10.9102   20.0132 F   0  0  0  0  0  0  0  0  0  0  0  0
  1  2  1  0  0  0  0
  1  6  2  0  0  0  0
  2  7  2  0  0  0  0
  3 10  2  0  0  0  0
  3 18  1  0  0  0  0
  4 11  1  0  0  0  0
  4 18  2  0  0  0  0
  5  9  2  0  0  0  0
  5 19  1  0  0  0  0
  6 21  1  0  0  0  0
  7 23  1  0  0  0  0
  8 12  2  0  0  0  0
  8 22  1  0  0  0  0
  9 25  1  0  0  0  0
 10 27  1  0  0  0  0
 11 27  2  0  0  0  0
 12 28  1  0  0  0  0
 13 14  2  0  0  0  0
 13 29  1  0  0  0  0
 14 30  1  0  0  0  0
 15 24  1  0  0  0  0
 15 28  2  0  0  0  0
 16 25  2  0  0  0  0
 16 26  1  0  0  0  0
 17 30  2  0  0  0  0
 17 31  1  0  0  0  0
 18 32  1  0  0  0  0
 19 26  2  0  0  0  0
 19 34  1  0  0  0  0
 20 32  1  0  0  0  0
 20 33  2  0  0  0  0
 20 35  1  0  0  0  0
 21 23  2  0  0  0  0
 21 40  1  0  0  0  0
 22 24  2  0  0  0  0
 22 41  1  0  0  0  0
 23 49  1  0  0  0  0
 24 42  1  0  0  0  0
 25 57  1  0  0  0  0
 26 66  1  0  0  0  0
 27 79  1  0  0  0  0
 28 80  1  0  0  0  0
 29 31  2  0  0  0  0
 29 79  1  0  0  0  0
 30 81  1  0  0  0  0
 31 82  1  0  0  0  0
 32 62  2  0  0  0  0
 33 63  1  0  0  0  0
 33 67  1  0  0  0  0
 34 58  1  0  0  0  0
 34 73  2  0  0  0  0
 35 68  1  0  0  0  0
 35 74  2  0  0  0  0
 36 50  1  0  0  0  0
 36 69  1  0  0  0  0
 36 75  2  0  0  0  0
 37 59  1  0  0  0  0
 37 64  1  0  0  0  0
 37 76  2  0  0  0  0
 38 60  1  0  0  0  0
 38 70  1  0  0  0  0
 38 77  2  0  0  0  0
 39 65  1  0  0  0  0
 39 71  1  0  0  0  0
 39 78  2  0  0  0  0
 40 43  1  0  0  0  0
 41 50  1  0  0  0  0
 42 64  1  0  0  0  0
 43 45  1  0  0  0  0
 44 46  1  0  0  0  0
 44 47  1  0  0  0  0
 45 49  1  0  0  0  0
 46 51  1  0  0  0  0
 47 65  1  0  0  0  0
 48 51  1  0  0  0  0
 48 65  1  0  0  0  0
 49 69  1  0  0  0  0
 50 64  1  0  0  0  0
 51 63  1  0  0  0  0
 52 60  1  0  0  0  0
 53 61  1  0  0  0  0
 54 61  1  0  0  0  0
 55 61  1  0  0  0  0
 56 72  1  0  0  0  0
 57 71  1  0  0  0  0
 58 80  1  0  0  0  0
 59 61  1  0  0  0  0
 59 70  1  0  0  0  0
 60 72  1  0  0  0  0
 62 63  1  0  0  0  0
M  CHG  1  72   1
M  ISO  4  39 100  58 101  71 100  80 101
M  END
> <Batch ID>
0101

> <Smiles>
CNC(C)C(=O)NC(C(=O)N1Cc2cc([101O:1][101CH2:1]C(=O)c3ccc(C[100NH:0][100C:0](=O)N4CCCC(n5nc(-c6ccc(Oc7ccc(F)cc7F)cc6)c(C(N)=O)c5N)C4)cc3N)ccc2CC1C(=O)NC1CCCc2ccccc21)C(C)(C)C

> <Shape>
0.191

> <Color>
0.089

> <Negative vol penalty>
0.000

$$$$

  -OEChem-04052301003D

 86 94  0     1  0  0  0  0  0999 V2000
  -27.1346  -17.5127   14.0749 C   0  0  0  0  0  0  0  0  0  0  0  0
  -26.2115  -17.0458   15.0051 C   0  0  0  0  0  0  0  0  0  0  0  0
  -22.7397  -10.1449   20.2987 C   0  0  0  0  0  0  0  0  0  0  0  0
  -23.9682   -9.8674   22.3605 C   0  0  0  0  0  0  0  0  0  0  0  0
  -28.3447  -18.0541   14.5067 C   0  0  0  0  0  0  0  0  0  0  0  0
  -26.4984  -17.1192   16.3678 C   0  0  0  0  0  0  0  0  0  0  0  0
  -23.2931  -18.0565   22.7053 C   0  0  0  0  0  0  0  0  0  0  0  0
  -21.9585   -9.0335   20.6145 C   0  0  0  0  0  0  0  0  0  0  0  0
  -23.1868   -8.7559   22.6764 C   0  0  0  0  0  0  0  0  0  0  0  0
  -23.2000  -17.4629   23.9634 C   0  0  0  0  0  0  0  0  0  0  0  0
  -21.7548   -5.6306   23.8561 C   0  0  0  0  0  0  0  0  0  0  0  0
  -22.4066   -4.4964   24.3400 C   0  0  0  0  0  0  0  0  0  0  0  0
  -25.2887  -18.4907   24.5962 C   0  0  0  0  0  0  0  0  0  0  0  0
  -29.8288  -14.6801   25.6415 C   0  0  0  0  0  0  0  0  0  0  0  0
  -31.5990  -15.8934   24.5320 C   0  0  0  0  0  0  0  0  0  0  0  0
  -30.0622  -17.0600   25.9860 C   0  0  0  0  0  0  0  0  0  0  0  0
  -23.6829   -4.3566   22.2933 C   0  0  0  0  0  0  0  0  0  0  0  0
  -23.7447  -10.5619   21.1716 C   0  0  0  0  0  0  0  0  0  0  0  0
  -24.1086  -13.0281   20.6304 C   0  0  0  0  0  0  0  0  0  0  0  0
  -28.6425  -18.1430   15.8757 C   0  0  0  0  0  0  0  0  0  0  0  0
  -24.3921  -18.8641   22.3789 C   0  0  0  0  0  0  0  0  0  0  0  0
  -27.7141  -17.6611   16.8182 C   0  0  0  0  0  0  0  0  0  0  0  0
  -25.3921  -19.0954   23.3342 C   0  0  0  0  0  0  0  0  0  0  0  0
  -30.9312  -14.6956   24.7870 C   0  0  0  0  0  0  0  0  0  0  0  0
  -29.3943  -15.8623   26.2410 C   0  0  0  0  0  0  0  0  0  0  0  0
  -22.1820   -8.3390   21.8034 C   0  0  0  0  0  0  0  0  0  0  0  0
  -24.1993  -17.6777   24.9081 C   0  0  0  0  0  0  0  0  0  0  0  0
  -22.0670   -6.1278   22.5907 C   0  0  0  0  0  0  0  0  0  0  0  0
  -31.1645  -17.0756   25.1315 C   0  0  0  0  0  0  0  0  0  0  0  0
  -23.3707   -3.8593   23.5587 C   0  0  0  0  0  0  0  0  0  0  0  0
  -23.0310   -5.4908   21.8094 C   0  0  0  0  0  0  0  0  0  0  0  0
  -24.5525  -11.7096   20.8456 C   0  0  0  0  0  0  0  0  0  0  0  0
  -25.2534  -13.7351   20.3546 C   0  0  0  0  0  0  0  0  0  0  0  0
  -22.7802  -13.5658   20.6758 C   0  0  0  0  0  0  0  0  0  0  0  0
  -26.7142  -18.7238   20.2129 C   0  0  0  0  0  0  0  0  0  0  0  0
  -27.4480  -21.6604   21.3791 C   0  0  0  0  0  0  0  0  0  0  0  0
  -27.4982  -14.7507   27.4706 C   0  0  0  0  0  0  0  0  0  0  0  0
  -27.2846  -23.8710   23.9740 C   0  0  0  0  0  0  0  0  0  0  0  0
  -31.0112  -12.8800   21.7570 C   0  0  0  0  0  0  0  0  0  0  0  0
  -29.9836  -18.6928   16.2927 C   0  0  0  0  0  0  0  0  0  0  0  0
  -24.4644  -19.5187   21.0266 C   0  0  0  0  0  0  0  0  0  0  0  0
  -26.5822  -19.9705   23.0404 C   0  0  0  0  0  0  0  0  0  0  0  0
  -30.0520  -19.0776   17.7683 C   0  0  0  0  0  0  0  0  0  0  0  0
  -29.6277  -13.1997   18.4920 C   0  0  0  0  0  0  0  0  0  0  0  0
  -29.4587  -17.9725   18.6363 C   0  0  0  0  0  0  0  0  0  0  0  0
  -28.1300  -12.9731   18.7055 C   0  0  0  0  0  0  0  0  0  0  0  0
  -30.4689  -12.3129   19.4073 C   0  0  0  0  0  0  0  0  0  0  0  0
  -28.6403  -12.1859   21.0547 C   0  0  0  0  0  0  0  0  0  0  0  0
  -27.9784  -17.7461   18.3059 C   0  0  1  0  0  0  0  0  0  0  0  0
  -25.8843  -19.9064   20.6256 C   0  0  1  0  0  0  0  0  0  0  0  0
  -27.7505  -13.0983   20.1933 C   0  0  2  0  0  0  0  0  0  0  0  0
  -28.0089  -26.1781   24.6449 C   0  0  0  0  0  0  0  0  0  0  0  0
  -30.2886  -20.6377   21.8205 C   0  0  0  0  0  0  0  0  0  0  0  0
  -30.6868  -22.5996   23.3241 C   0  0  0  0  0  0  0  0  0  0  0  0
  -30.1465  -22.9650   20.9163 C   0  0  0  0  0  0  0  0  0  0  0  0
  -24.4875  -24.7748   24.3180 C   0  0  0  0  0  0  0  0  0  0  0  0
  -32.9349  -18.1884   23.9986 C   0  0  0  0  0  0  0  0  0  0  0  0
  -31.3958  -13.4319   24.1458 C   0  0  0  0  0  0  0  0  0  0  0  0
  -26.3910  -15.1744   28.4258 C   0  0  0  0  0  0  0  0  0  0  0  0
  -25.1126  -15.5796   27.7003 C   0  0  0  0  0  0  0  0  0  0  0  0
  -25.3371  -16.7816   26.7945 C   0  0  0  0  0  0  0  0  0  1  0  0
  -28.3292  -22.1803   22.4891 C   0  0  1  0  0  0  0  0  0  0  0  0
  -26.9028  -25.3394   24.0238 C   0  0  2  0  0  0  0  0  0  0  0  0
  -29.8415  -22.0775   22.1427 C   0  0  0  0  0  0  0  0  0  0  0  0
  -25.8760  -11.5838   20.7174 N   0  0  0  0  0  0  0  0  0  0  0  0
  -26.2736  -12.8322   20.4186 N   0  0  0  0  0  0  0  0  0  0  0  0
  -26.6108  -20.5831   21.7020 N   0  0  0  0  0  0  0  0  0  0  0  0
  -30.0599  -12.4801   20.8040 N   0  0  0  0  0  0  0  0  0  0  0  0
  -25.4768  -15.0348   20.0659 N   0  0  0  0  0  0  0  0  0  0  0  0
  -22.3004  -14.0590   21.8967 N   0  0  0  0  0  0  0  0  0  0  0  0
  -28.2758  -15.8469   27.1079 N   0  0  0  0  0  0  0  0  0  0  0  0
  -27.1627  -18.7793   18.9070 N   0  0  0  0  0  0  0  0  0  0  0  0
  -27.8719  -23.5365   22.7721 N   0  0  0  0  0  0  0  0  0  0  0  0
  -30.5388  -13.0209   23.0561 N   0  0  0  0  0  0  0  0  0  0  0  0
  -25.6631  -25.5252   24.8298 N   0  3  0  0  0  0  0  0  0  0  0  0
  -22.0346  -13.5925   19.6673 O   0  0  0  0  0  0  0  0  0  0  0  0
  -26.9329  -17.8279   21.0200 O   0  0  0  0  0  0  0  0  0  0  0  0
  -27.4954  -22.1952   20.2685 O   0  0  0  0  0  0  0  0  0  0  0  0
  -27.6346  -13.5873   27.1068 O   0  0  0  0  0  0  0  0  0  0  0  0
  -27.0855  -23.0989   24.9092 O   0  0  0  0  0  0  0  0  0  0  0  0
  -32.1928  -13.1005   21.4702 O   0  0  0  0  0  0  0  0  0  0  0  0
  -21.4196   -7.2545   22.1120 O   0  0  0  0  0  0  0  0  0  0  0  0
  -31.8160  -18.2442   24.8823 O   0  0  0  0  0  0  0  0  0  0  0  0
  -24.1112  -17.0990   26.1366 O   0  0  0  0  0  0  0  0  0  1  0  0
  -23.9976   -2.7710   24.0241 F   0  0  0  0  0  0  0  0  0  0  0  0
  -23.3361   -5.9645   20.5935 F   0  0  0  0  0  0  0  0  0  0  0  0
  1  2  1  0  0  0  0
  1  5  2  0  0  0  0
  2  6  2  0  0  0  0
  3  8  2  0  0  0  0
  3 18  1  0  0  0  0
  4  9  1  0  0  0  0
  4 18  2  0  0  0  0
  5 20  1  0  0  0  0
  6 22  1  0  0  0  0
  7 10  2  0  0  0  0
  7 21  1  0  0  0  0
  8 26  1  0  0  0  0
  9 26  2  0  0  0  0
 10 27  1  0  0  0  0
 11 12  2  0  0  0  0
 11 28  1  0  0  0  0
 12 30  1  0  0  0  0
 13 23  1  0  0  0  0
 13 27  2  0  0  0  0
 14 24  2  0  0  0  0
 14 25  1  0  0  0  0
 15 24  1  0  0  0  0
 15 29  2  0  0  0  0
 16 25  2  0  0  0  0
 16 29  1  0  0  0  0
 17 30  2  0  0  0  0
 17 31  1  0  0  0  0
 18 32  1  0  0  0  0
 19 32  1  0  0  0  0
 19 33  2  0  0  0  0
 19 34  1  0  0  0  0
 20 22  2  0  0  0  0
 20 40  1  0  0  0  0
 21 23  2  0  0  0  0
 21 41  1  0  0  0  0
 22 49  1  0  0  0  0
 23 42  1  0  0  0  0
 24 58  1  0  0  0  0
 25 71  1  0  0  0  0
 26 82  1  0  0  0  0
 27 84  1  0  0  0  0
 28 31  2  0  0  0  0
 28 82  1  0  0  0  0
 29 83  1  0  0  0  0
 30 85  1  0  0  0  0
 31 86  1  0  0  0  0
 32 65  2  0  0  0  0
 33 66  1  0  0  0  0
 33 69  1  0  0  0  0
 34 70  1  0  0  0  0
 34 76  2  0  0  0  0
 35 50  1  0  0  0  0
 35 72  1  0  0  0  0
 35 77  2  0  0  0  0
 36 62  1  0  0  0  0
 36 67  1  0  0  0  0
 36 78  2  0  0  0  0
 37 59  1  0  0  0  0
 37 71  1  0  0  0  0
 37 79  2  0  0  0  0
 38 63  1  0  0  0  0
 38 73  1  0  0  0  0
 38 80  2  0  0  0  0
 39 68  1  0  0  0  0
 39 74  1  0  0  0  0
 39 81  2  0  0  0  0
 40 43  1  0  0  0  0
 41 50  1  0  0  0  0
 42 67  1  0  0  0  0
 43 45  1  0  0  0  0
 44 46  1  0  0  0  0
 44 47  1  0  0  0  0
 45 49  1  0  0  0  0
 46 51  1  0  0  0  0
 47 68  1  0  0  0  0
 48 51  1  0  0  0  0
 48 68  1  0  0  0  0
 49 72  1  0  0  0  0
 50 67  1  0  0  0  0
 51 66  1  0  0  0  0
 52 63  1  0  0  0  0
 53 64  1  0  0  0  0
 54 64  1  0  0  0  0
 55 64  1  0  0  0  0
 56 75  1  0  0  0  0
 57 83  1  0  0  0  0
 58 74  1  0  0  0  0
 59 60  1  0  0  0  0
 60 61  1  0  0  0  0
 61 84  1  0  0  0  0
 62 64  1  0  0  0  0
 62 73  1  0  0  0  0
 63 75  1  0  0  0  0
 65 66  1  0  0  0  0
M  CHG  1  75   1
M  ISO  4  39 100  61 101  74 100  84 101
M  END
> <Batch ID>
0101

> <Smiles>
CNC(C)C(=O)NC(C(=O)N1Cc2cc([101O:1][101CH2:1]CCC(=O)Nc3cc(C[100NH:0][100C:0](=O)N4CCCC(n5nc(-c6ccc(Oc7ccc(F)cc7F)cc6)c(C(N)=O)c5N)C4)cc(OC)c3)ccc2CC1C(=O)NC1CCCc2ccccc21)C(C)(C)C

> <Shape>
0.180

> <Color>
0.130

> <Negative vol penalty>
0.000

$$$$

  -OEChem-04052301003D

 83 91  0     1  0  0  0  0  0999 V2000
  -29.8876  -21.7491   26.2948 C   0  0  0  0  0  0  0  0  0  0  0  0
  -29.8252  -21.3251   24.9712 C   0  0  0  0  0  0  0  0  0  0  0  0
  -23.0620   -9.8792   19.9579 C   0  0  0  0  0  0  0  0  0  0  0  0
  -23.8709   -9.8790   22.2345 C   0  0  0  0  0  0  0  0  0  0  0  0
  -29.4133  -23.0129   26.6438 C   0  0  0  0  0  0  0  0  0  0  0  0
  -29.2875  -22.1643   23.9961 C   0  0  0  0  0  0  0  0  0  0  0  0
  -32.0881  -22.2860   19.7786 C   0  0  0  0  0  0  0  0  0  0  0  0
  -28.1213  -18.7863   21.5888 C   0  0  0  0  0  0  0  0  0  0  0  0
  -22.3263   -8.7234   20.2192 C   0  0  0  0  0  0  0  0  0  0  0  0
  -23.1351   -8.7232   22.4959 C   0  0  0  0  0  0  0  0  0  0  0  0
  -31.9699  -21.2064   18.9044 C   0  0  0  0  0  0  0  0  0  0  0  0
  -27.9803  -18.9898   20.2161 C   0  0  0  0  0  0  0  0  0  0  0  0
  -19.9224   -7.9155   23.1643 C   0  0  0  0  0  0  0  0  0  0  0  0
  -19.1909   -7.8692   24.3510 C   0  0  0  0  0  0  0  0  0  0  0  0
  -29.2631  -16.9878   19.7876 C   0  0  0  0  0  0  0  0  0  0  0  0
  -30.4853  -22.5029   17.5136 C   0  0  0  0  0  0  0  0  0  0  0  0
  -20.4522   -5.9319   25.0530 C   0  0  0  0  0  0  0  0  0  0  0  0
  -23.8344  -10.4570   20.9656 C   0  0  0  0  0  0  0  0  0  0  0  0
  -29.4041  -16.7843   21.1603 C   0  0  0  0  0  0  0  0  0  0  0  0
  -24.1679  -12.9834   20.8482 C   0  0  0  0  0  0  0  0  0  0  0  0
  -28.8784  -23.8718   25.6708 C   0  0  0  0  0  0  0  0  0  0  0  0
  -31.3960  -23.4805   19.5322 C   0  0  0  0  0  0  0  0  0  0  0  0
  -28.8044  -23.4402   24.3326 C   0  0  0  0  0  0  0  0  0  0  0  0
  -30.5985  -23.5971   18.3849 C   0  0  0  0  0  0  0  0  0  0  0  0
  -28.8332  -17.6836   22.0609 C   0  0  0  0  0  0  0  0  0  0  0  0
  -22.3628   -8.1454   21.4882 C   0  0  0  0  0  0  0  0  0  0  0  0
  -28.5512  -18.0906   19.3155 C   0  0  0  0  0  0  0  0  0  0  0  0
  -31.1661  -21.3137   17.7733 C   0  0  0  0  0  0  0  0  0  0  0  0
  -20.9189   -6.9699   22.9219 C   0  0  0  0  0  0  0  0  0  0  0  0
  -19.4557   -6.8775   25.2954 C   0  0  0  0  0  0  0  0  0  0  0  0
  -21.1837   -5.9781   23.8663 C   0  0  0  0  0  0  0  0  0  0  0  0
  -24.5951  -11.6507   20.6961 C   0  0  0  0  0  0  0  0  0  0  0  0
  -25.2503  -13.7369   20.4645 C   0  0  0  0  0  0  0  0  0  0  0  0
  -30.1550  -15.6236   21.6218 C   0  0  0  0  0  0  0  0  0  0  0  0
  -22.9055  -13.4946   21.2963 C   0  0  0  0  0  0  0  0  0  0  0  0
  -30.7621  -14.6704   20.6646 C   0  0  0  0  0  0  0  0  0  0  0  0
  -29.1541  -25.1313   21.0660 C   0  0  0  0  0  0  0  0  0  0  0  0
  -29.6893  -27.2977   18.7117 C   0  0  0  0  0  0  0  0  0  0  0  0
  -30.7942  -27.9197   15.5432 C   0  0  0  0  0  0  0  0  0  0  0  0
  -28.3349  -25.2103   26.1038 C   0  0  0  0  0  0  0  0  0  0  0  0
  -31.5552  -24.6450   20.4708 C   0  0  0  0  0  0  0  0  0  0  0  0
  -29.8507  -24.8646   18.0643 C   0  0  0  0  0  0  0  0  0  0  0  0
  -28.1236  -26.1848   24.9480 C   0  0  0  0  0  0  0  0  0  0  0  0
  -29.5433  -12.4167   18.1562 C   0  0  0  0  0  0  0  0  0  0  0  0
  -27.4124  -25.4928   23.7895 C   0  0  0  0  0  0  0  0  0  0  0  0
  -28.1255  -12.0962   18.6283 C   0  0  0  0  0  0  0  0  0  0  0  0
  -30.4924  -12.6151   19.3336 C   0  0  0  0  0  0  0  0  0  0  0  0
  -28.6150  -13.3372   20.7838 C   0  0  0  0  0  0  0  0  0  0  0  0
  -28.2508  -24.3315   23.2420 C   0  0  1  0  0  0  0  0  0  0  0  0
  -30.3989  -25.6372   20.3935 C   0  0  1  0  0  0  0  0  0  0  0  0
  -27.6215  -13.1574   19.6227 C   0  0  2  0  0  0  0  0  0  0  0  0
  -31.0726  -29.7816   13.8840 C   0  0  0  0  0  0  0  0  0  0  0  0
  -26.6899  -27.2461   18.1541 C   0  0  0  0  0  0  0  0  0  0  0  0
  -27.1513  -28.3408   15.9503 C   0  0  0  0  0  0  0  0  0  0  0  0
  -27.7273  -29.5202   18.0717 C   0  0  0  0  0  0  0  0  0  0  0  0
  -33.7274  -27.5406   15.4352 C   0  0  0  0  0  0  0  0  0  0  0  0
  -29.5570  -18.6724   15.8829 C   0  0  0  0  0  0  0  0  0  0  0  0
  -29.4638  -17.8168   17.1365 C   0  0  0  0  0  0  0  0  0  0  0  0
  -29.8164  -20.1346   16.2100 C   0  0  0  0  0  0  0  0  0  1  0  0
  -29.1203  -27.5431   17.3351 C   0  0  1  0  0  0  0  0  0  0  0  0
  -31.7332  -28.9782   14.9935 C   0  0  2  0  0  0  0  0  0  0  0  0
  -27.6846  -28.1379   17.3846 C   0  0  0  0  0  0  0  0  0  0  0  0
  -25.8509  -11.5595   20.2504 N   0  0  0  0  0  0  0  0  0  0  0  0
  -30.3425  -15.3504   22.8830 N   0  0  0  0  0  0  0  0  0  0  0  0
  -26.2221  -12.8444   20.1191 N   0  0  0  0  0  0  0  0  0  0  0  0
  -29.9670  -13.6014   20.2756 N   0  0  0  0  0  0  0  0  0  0  0  0
  -30.0336  -25.9731   19.0158 N   0  0  0  0  0  0  0  0  0  0  0  0
  -28.9664  -17.4966   23.4548 N   0  0  0  0  0  0  0  0  0  0  0  0
  -25.4561  -15.0691   20.3923 N   0  0  0  0  0  0  0  0  0  0  0  0
  -21.9031  -12.5818   21.6516 N   0  0  0  0  0  0  0  0  0  0  0  0
  -29.3202  -24.8310   22.4045 N   0  0  0  0  0  0  0  0  0  0  0  0
  -30.0898  -28.3794   16.6358 N   0  0  0  0  0  0  0  0  0  0  0  0
  -32.9649  -28.3436   14.4448 N   0  3  0  0  0  0  0  0  0  0  0  0
  -22.6677  -14.7245   21.3635 O   0  0  0  0  0  0  0  0  0  0  0  0
  -31.9070  -14.9289   20.3174 O   0  0  0  0  0  0  0  0  0  0  0  0
  -28.1192  -25.0230   20.4187 O   0  0  0  0  0  0  0  0  0  0  0  0
  -29.8299  -28.2476   19.4860 O   0  0  0  0  0  0  0  0  0  0  0  0
  -30.6928  -26.7984   15.0503 O   0  0  0  0  0  0  0  0  0  0  0  0
  -21.6448   -7.0176   21.7436 O   0  0  0  0  0  0  0  0  0  0  0  0
  -28.4120  -18.2905   17.9667 O   0  0  0  0  0  0  0  0  0  0  0  0
  -31.0485  -20.2612   16.9187 O   0  0  0  0  0  0  0  0  0  1  0  0
  -18.7542   -6.8341   26.4356 F   0  0  0  0  0  0  0  0  0  0  0  0
  -22.1405   -5.0677   23.6395 F   0  0  0  0  0  0  0  0  0  0  0  0
  1  2  1  0  0  0  0
  1  5  2  0  0  0  0
  2  6  2  0  0  0  0
  3  9  2  0  0  0  0
  3 18  1  0  0  0  0
  4 10  1  0  0  0  0
  4 18  2  0  0  0  0
  5 21  1  0  0  0  0
  6 23  1  0  0  0  0
  7 11  2  0  0  0  0
  7 22  1  0  0  0  0
  8 12  2  0  0  0  0
  8 25  1  0  0  0  0
  9 26  1  0  0  0  0
 10 26  2  0  0  0  0
 11 28  1  0  0  0  0
 12 27  1  0  0  0  0
 13 14  2  0  0  0  0
 13 29  1  0  0  0  0
 14 30  1  0  0  0  0
 15 19  1  0  0  0  0
 15 27  2  0  0  0  0
 16 24  1  0  0  0  0
 16 28  2  0  0  0  0
 17 30  2  0  0  0  0
 17 31  1  0  0  0  0
 18 32  1  0  0  0  0
 19 25  2  0  0  0  0
 19 34  1  0  0  0  0
 20 32  1  0  0  0  0
 20 33  2  0  0  0  0
 20 35  1  0  0  0  0
 21 23  2  0  0  0  0
 21 40  1  0  0  0  0
 22 24  2  0  0  0  0
 22 41  1  0  0  0  0
 23 49  1  0  0  0  0
 24 42  1  0  0  0  0
 25 68  1  0  0  0  0
 26 79  1  0  0  0  0
 27 80  1  0  0  0  0
 28 81  1  0  0  0  0
 29 31  2  0  0  0  0
 29 79  1  0  0  0  0
 30 82  1  0  0  0  0
 31 83  1  0  0  0  0
 32 63  2  0  0  0  0
 33 65  1  0  0  0  0
 33 69  1  0  0  0  0
 34 36  1  0  0  0  0
 34 64  2  0  0  0  0
 35 70  1  0  0  0  0
 35 74  2  0  0  0  0
 36 66  1  0  0  0  0
 36 75  2  0  0  0  0
 37 50  1  0  0  0  0
 37 71  1  0  0  0  0
 37 76  2  0  0  0  0
 38 60  1  0  0  0  0
 38 67  1  0  0  0  0
 38 77  2  0  0  0  0
 39 61  1  0  0  0  0
 39 72  1  0  0  0  0
 39 78  2  0  0  0  0
 40 43  1  0  0  0  0
 41 50  1  0  0  0  0
 42 67  1  0  0  0  0
 43 45  1  0  0  0  0
 44 46  1  0  0  0  0
 44 47  1  0  0  0  0
 45 49  1  0  0  0  0
 46 51  1  0  0  0  0
 47 66  1  0  0  0  0
 48 51  1  0  0  0  0
 48 66  1  0  0  0  0
 49 71  1  0  0  0  0
 50 67  1  0  0  0  0
 51 65  1  0  0  0  0
 52 61  1  0  0  0  0
 53 62  1  0  0  0  0
 54 62  1  0  0  0  0
 55 62  1  0  0  0  0
 56 73  1  0  0  0  0
 57 58  1  0  0  0  0
 57 59  1  0  0  0  0
 58 80  1  0  0  0  0
 59 81  1  0  0  0  0
 60 62  1  0  0  0  0
 60 72  1  0  0  0  0
 61 73  1  0  0  0  0
 63 65  1  0  0  0  0
M  CHG  1  73   1
M  ISO  4  34 100  36 100  59 101  81 101
M  END
> <Batch ID>
0101

> <Smiles>
CNC(C)C(=O)NC(C(=O)N1Cc2cc([101O:1][101CH2:1]CCOc3ccc(N)c([100C:0](=N)[100C:0](=O)N4CCCC(n5nc(-c6ccc(Oc7ccc(F)cc7F)cc6)c(C(N)=O)c5N)C4)c3)ccc2CC1C(=O)NC1CCCc2ccccc21)C(C)(C)C

> <Shape>
0.263

> <Color>
0.183

> <Negative vol penalty>
0.000

$$$$

  -OEChem-04052301003D

 86 95  0     1  0  0  0  0  0999 V2000
  -29.1881  -30.1150   15.3108 C   0  0  0  0  0  0  0  0  0  0  0  0
  -28.5596  -29.0508   15.9497 C   0  0  0  0  0  0  0  0  0  0  0  0
  -23.2501   -9.6389   20.0613 C   0  0  0  0  0  0  0  0  0  0  0  0
  -23.8086   -9.9775   22.3874 C   0  0  0  0  0  0  0  0  0  0  0  0
  -29.7506  -31.1447   16.0639 C   0  0  0  0  0  0  0  0  0  0  0  0
  -28.4944  -29.0153   17.3421 C   0  0  0  0  0  0  0  0  0  0  0  0
  -23.9218  -26.7947   20.7577 C   0  0  0  0  0  0  0  0  0  0  0  0
  -28.8182  -19.2621   21.6231 C   0  0  0  0  0  0  0  0  0  0  0  0
  -27.8962  -20.1224   22.2190 C   0  0  0  0  0  0  0  0  0  0  0  0
  -22.5515   -8.4795   20.3978 C   0  0  0  0  0  0  0  0  0  0  0  0
  -23.1099   -8.8181   22.7239 C   0  0  0  0  0  0  0  0  0  0  0  0
  -23.7430  -25.5735   21.4061 C   0  0  0  0  0  0  0  0  0  0  0  0
  -19.5372   -7.6781   21.7035 C   0  0  0  0  0  0  0  0  0  0  0  0
  -18.2813   -7.4878   21.1272 C   0  0  0  0  0  0  0  0  0  0  0  0
  -24.5577  -26.5495   23.4562 C   0  0  0  0  0  0  0  0  0  0  0  0
  -28.1567  -18.9497   24.3152 C   0  0  0  0  0  0  0  0  0  0  0  0
  -19.0577   -5.4371   20.1127 C   0  0  0  0  0  0  0  0  0  0  0  0
  -23.8788  -10.3879   21.0561 C   0  0  0  0  0  0  0  0  0  0  0  0
  -24.0915  -12.8959   20.6408 C   0  0  0  0  0  0  0  0  0  0  0  0
  -29.6837  -31.1266   17.4660 C   0  0  0  0  0  0  0  0  0  0  0  0
  -24.4311  -27.9014   21.4522 C   0  0  0  0  0  0  0  0  0  0  0  0
  -29.0577  -30.0451   18.1147 C   0  0  0  0  0  0  0  0  0  0  0  0
  -24.7397  -27.7843   22.8149 C   0  0  0  0  0  0  0  0  0  0  0  0
  -29.4095  -18.2454   22.3731 C   0  0  0  0  0  0  0  0  0  0  0  0
  -27.5654  -19.9663   23.5651 C   0  0  0  0  0  0  0  0  0  0  0  0
  -29.0787  -18.0893   23.7192 C   0  0  0  0  0  0  0  0  0  0  0  0
  -22.4813   -8.0691   21.7291 C   0  0  0  0  0  0  0  0  0  0  0  0
  -24.0636  -25.4500   22.7548 C   0  0  0  0  0  0  0  0  0  0  0  0
  -20.5534   -6.7480   21.4843 C   0  0  0  0  0  0  0  0  0  0  0  0
  -18.0415   -6.3673   20.3318 C   0  0  0  0  0  0  0  0  0  0  0  0
  -20.3136   -5.6275   20.6890 C   0  0  0  0  0  0  0  0  0  0  0  0
  -24.6011  -11.5853   20.7090 C   0  0  0  0  0  0  0  0  0  0  0  0
  -25.1684  -13.6642   20.2712 C   0  0  0  0  0  0  0  0  0  0  0  0
  -25.9429  -21.9146   23.5517 C   0  0  0  0  0  0  0  0  0  0  0  0
  -22.7635  -13.3758   20.8892 C   0  0  0  0  0  0  0  0  0  0  0  0
  -27.0249  -29.7189   21.1829 C   0  0  0  0  0  0  0  0  0  0  0  0
  -25.5779  -31.4501   23.5136 C   0  0  0  0  0  0  0  0  0  0  0  0
  -23.3523  -31.5375   26.0992 C   0  0  0  0  0  0  0  0  0  0  0  0
  -30.5520  -15.0523   20.7569 C   0  0  0  0  0  0  0  0  0  0  0  0
  -30.3477  -32.2386   18.2388 C   0  0  0  0  0  0  0  0  0  0  0  0
  -24.5930  -29.2190   20.7449 C   0  0  0  0  0  0  0  0  0  0  0  0
  -25.2704  -28.9478   23.6106 C   0  0  0  0  0  0  0  0  0  0  0  0
  -29.9071  -32.3133   19.6985 C   0  0  0  0  0  0  0  0  0  0  0  0
  -29.7554  -12.3232   18.6135 C   0  0  0  0  0  0  0  0  0  0  0  0
  -29.9235  -30.9262   20.3327 C   0  0  0  0  0  0  0  0  0  0  0  0
  -28.3042  -11.9924   18.9664 C   0  0  0  0  0  0  0  0  0  0  0  0
  -25.5477  -22.0152   25.8965 C   0  0  0  0  0  0  0  0  0  0  0  0
  -30.5525  -12.7493   19.8444 C   0  0  0  0  0  0  0  0  0  0  0  0
  -26.2019  -20.6916   25.5544 C   0  0  0  0  0  0  0  0  0  0  0  0
  -28.5016  -13.5206   20.9725 C   0  0  0  0  0  0  0  0  0  0  0  0
  -28.9448  -29.9832   19.6225 C   0  0  1  0  0  0  0  0  0  0  0  0
  -24.9541  -22.4621   24.5684 C   0  0  1  0  0  0  0  0  0  0  0  0
  -25.6027  -30.1405   21.4222 C   0  0  1  0  0  0  0  0  0  0  0  0
  -27.6432  -13.1395   19.7542 C   0  0  2  0  0  0  0  0  0  0  0  0
  -22.4126  -33.0837   27.8381 C   0  0  0  0  0  0  0  0  0  0  0  0
  -28.1540  -31.1952   25.1287 C   0  0  0  0  0  0  0  0  0  0  0  0
  -26.8681  -31.8966   27.1592 C   0  0  0  0  0  0  0  0  0  0  0  0
  -27.0833  -33.4534   25.2220 C   0  0  0  0  0  0  0  0  0  0  0  0
  -20.6045  -31.2482   25.0385 C   0  0  0  0  0  0  0  0  0  0  0  0
  -30.3940  -17.3385   21.7095 C   0  0  0  0  0  0  0  0  0  0  0  0
  -24.7739  -23.9654   24.4717 C   0  0  0  0  0  0  0  0  0  1  0  0
  -25.5847  -31.4269   25.0230 C   0  0  1  0  0  0  0  0  0  0  0  0
  -22.2405  -32.5138   26.4387 C   0  0  2  0  0  0  0  0  0  0  0  0
  -26.9144  -31.9704   25.6181 C   0  0  0  0  0  0  0  0  0  0  0  0
  -25.9006  -11.5210   20.4069 N   0  0  0  0  0  0  0  0  0  0  0  0
  -26.2166  -12.8007   20.1452 N   0  0  0  0  0  0  0  0  0  0  0  0
  -26.6216  -20.8466   24.1741 N   0  0  0  0  0  0  0  0  0  0  0  0
  -25.4172  -30.2134   22.8728 N   0  0  0  0  0  0  0  0  0  0  0  0
  -29.8726  -13.8412   20.5454 N   0  0  0  0  0  0  0  0  0  0  0  0
  -29.6671  -17.0647   24.4931 N   0  0  0  0  0  0  0  0  0  0  0  0
  -25.3114  -14.9873   20.0450 N   0  0  0  0  0  0  0  0  0  0  0  0
  -21.7774  -12.4514   21.2598 N   0  0  0  0  0  0  0  0  0  0  0  0
  -27.5864  -30.2563   20.0404 N   0  0  0  0  0  0  0  0  0  0  0  0
  -24.3966  -32.1591   25.4479 N   0  0  0  0  0  0  0  0  0  0  0  0
  -29.8329  -16.0369   21.4235 N   0  0  0  0  0  0  0  0  0  0  0  0
  -20.9156  -31.8353   26.3672 N   0  3  0  0  0  0  0  0  0  0  0  0
  -26.0276  -22.3349   22.4069 O   0  0  0  0  0  0  0  0  0  0  0  0
  -22.4565  -14.5862   20.7698 O   0  0  0  0  0  0  0  0  0  0  0  0
  -27.5728  -28.9632   21.9770 O   0  0  0  0  0  0  0  0  0  0  0  0
  -25.7033  -32.5267   22.9247 O   0  0  0  0  0  0  0  0  0  0  0  0
  -23.3012  -30.3437   26.3866 O   0  0  0  0  0  0  0  0  0  0  0  0
  -31.7114  -15.2439   20.3750 O   0  0  0  0  0  0  0  0  0  0  0  0
  -21.7994   -6.9380   22.0578 O   0  0  0  0  0  0  0  0  0  0  0  0
  -23.8906  -24.2589   23.3900 O   0  0  0  0  0  0  0  0  0  1  0  0
  -16.8350   -6.1838   19.7797 F   0  0  0  0  0  0  0  0  0  0  0  0
  -21.2855   -4.7298   20.4758 F   0  0  0  0  0  0  0  0  0  0  0  0
  1  2  1  0  0  0  0
  1  5  2  0  0  0  0
  2  6  2  0  0  0  0
  3 10  2  0  0  0  0
  3 18  1  0  0  0  0
  4 11  1  0  0  0  0
  4 18  2  0  0  0  0
  5 20  1  0  0  0  0
  6 22  1  0  0  0  0
  7 12  2  0  0  0  0
  7 21  1  0  0  0  0
  8  9  2  0  0  0  0
  8 24  1  0  0  0  0
  9 25  1  0  0  0  0
 10 27  1  0  0  0  0
 11 27  2  0  0  0  0
 12 28  1  0  0  0  0
 13 14  2  0  0  0  0
 13 29  1  0  0  0  0
 14 30  1  0  0  0  0
 15 23  1  0  0  0  0
 15 28  2  0  0  0  0
 16 25  2  0  0  0  0
 16 26  1  0  0  0  0
 17 30  2  0  0  0  0
 17 31  1  0  0  0  0
 18 32  1  0  0  0  0
 19 32  1  0  0  0  0
 19 33  2  0  0  0  0
 19 35  1  0  0  0  0
 20 22  2  0  0  0  0
 20 40  1  0  0  0  0
 21 23  2  0  0  0  0
 21 41  1  0  0  0  0
 22 51  1  0  0  0  0
 23 42  1  0  0  0  0
 24 26  2  0  0  0  0
 24 60  1  0  0  0  0
 25 67  1  0  0  0  0
 26 70  1  0  0  0  0
 27 83  1  0  0  0  0
 28 84  1  0  0  0  0
 29 31  2  0  0  0  0
 29 83  1  0  0  0  0
 30 85  1  0  0  0  0
 31 86  1  0  0  0  0
 32 65  2  0  0  0  0
 33 66  1  0  0  0  0
 33 71  1  0  0  0  0
 34 52  1  0  0  0  0
 34 67  1  0  0  0  0
 34 77  2  0  0  0  0
 35 72  1  0  0  0  0
 35 78  2  0  0  0  0
 36 53  1  0  0  0  0
 36 73  1  0  0  0  0
 36 79  2  0  0  0  0
 37 62  1  0  0  0  0
 37 68  1  0  0  0  0
 37 80  2  0  0  0  0
 38 63  1  0  0  0  0
 38 74  1  0  0  0  0
 38 81  2  0  0  0  0
 39 69  1  0  0  0  0
 39 75  1  0  0  0  0
 39 82  2  0  0  0  0
 40 43  1  0  0  0  0
 41 53  1  0  0  0  0
 42 68  1  0  0  0  0
 43 45  1  0  0  0  0
 44 46  1  0  0  0  0
 44 48  1  0  0  0  0
 45 51  1  0  0  0  0
 46 54  1  0  0  0  0
 47 49  1  0  0  0  0
 47 52  1  0  0  0  0
 48 69  1  0  0  0  0
 49 67  1  0  0  0  0
 50 54  1  0  0  0  0
 50 69  1  0  0  0  0
 51 73  1  0  0  0  0
 52 61  1  0  0  0  0
 53 68  1  0  0  0  0
 54 66  1  0  0  0  0
 55 63  1  0  0  0  0
 56 64  1  0  0  0  0
 57 64  1  0  0  0  0
 58 64  1  0  0  0  0
 59 76  1  0  0  0  0
 60 75  1  0  0  0  0
 61 84  1  0  0  0  0
 62 64  1  0  0  0  0
 62 74  1  0  0  0  0
 63 76  1  0  0  0  0
 65 66  1  0  0  0  0
M  CHG  1  76   1
M  ISO  4  39 100  61 101  75 100  84 101
M  END
> <Batch ID>
0101

> <Smiles>
CNC(C)C(=O)NC(C(=O)N1Cc2cc([101O:1][101CH2:1]C3CCN(c4ccc(C[100NH:0][100C:0](=O)N5CCCC(n6nc(-c7ccc(Oc8ccc(F)cc8F)cc7)c(C(N)=O)c6N)C5)c(N)c4)C3=O)ccc2CC1C(=O)NC1CCCc2ccccc21)C(C)(C)C

> <Shape>
0.249

> <Color>
0.175

> <Negative vol penalty>
0.000

$$$$

  -OEChem-04052301003D

 87 95  0     1  0  0  0  0  0999 V2000
  -17.4739  -31.2507   23.7145 C   0  0  0  0  0  0  0  0  0  0  0  0
  -17.9007  -30.4243   24.7491 C   0  0  0  0  0  0  0  0  0  0  0  0
  -28.6266  -12.6120   21.1369 C   0  0  0  0  0  0  0  0  0  0  0  0
  -26.6404  -13.2839   19.9366 C   0  0  0  0  0  0  0  0  0  0  0  0
  -30.4772  -21.5962   17.5181 C   0  0  0  0  0  0  0  0  0  0  0  0
  -17.3241  -30.7344   22.4281 C   0  0  0  0  0  0  0  0  0  0  0  0
  -18.1769  -29.0807   24.4980 C   0  0  0  0  0  0  0  0  0  0  0  0
  -24.3930  -25.2142   21.0729 C   0  0  0  0  0  0  0  0  0  0  0  0
  -28.1681  -11.2949   21.1585 C   0  0  0  0  0  0  0  0  0  0  0  0
  -26.1819  -11.9667   19.9581 C   0  0  0  0  0  0  0  0  0  0  0  0
  -31.6687  -22.3212   17.5330 C   0  0  0  0  0  0  0  0  0  0  0  0
  -25.5151  -25.8082   20.4949 C   0  0  0  0  0  0  0  0  0  0  0  0
  -24.6886   -9.8843   22.1637 C   0  0  0  0  0  0  0  0  0  0  0  0
  -23.3520   -9.6687   22.4993 C   0  0  0  0  0  0  0  0  0  0  0  0
  -29.4597  -23.2384   18.9688 C   0  0  0  0  0  0  0  0  0  0  0  0
  -24.8839  -27.9435   21.4383 C   0  0  0  0  0  0  0  0  0  0  0  0
  -22.9797   -8.6304   20.3497 C   0  0  0  0  0  0  0  0  0  0  0  0
  -27.8628  -13.6066   20.5260 C   0  0  0  0  0  0  0  0  0  0  0  0
  -29.3726  -22.0548   18.2359 C   0  0  0  0  0  0  0  0  0  0  0  0
  -29.5278  -15.4439   19.9266 C   0  0  0  0  0  0  0  0  0  0  0  0
  -17.6079  -29.3861   22.1591 C   0  0  0  0  0  0  0  0  0  0  0  0
  -23.5193  -25.9803   21.8496 C   0  0  0  0  0  0  0  0  0  0  0  0
  -18.0295  -28.5456   23.2070 C   0  0  0  0  0  0  0  0  0  0  0  0
  -23.7651  -27.3514   22.0301 C   0  0  0  0  0  0  0  0  0  0  0  0
  -26.9458  -10.9722   20.5690 C   0  0  0  0  0  0  0  0  0  0  0  0
  -25.7598  -27.1695   20.6769 C   0  0  0  0  0  0  0  0  0  0  0  0
  -31.7557  -23.5048   18.2659 C   0  0  0  0  0  0  0  0  0  0  0  0
  -25.1708   -9.4730   20.9210 C   0  0  0  0  0  0  0  0  0  0  0  0
  -30.6512  -23.9634   18.9838 C   0  0  0  0  0  0  0  0  0  0  0  0
  -22.4976   -9.0418   21.5923 C   0  0  0  0  0  0  0  0  0  0  0  0
  -24.3164   -8.8460   20.0141 C   0  0  0  0  0  0  0  0  0  0  0  0
  -28.3356  -14.9675   20.5040 C   0  0  0  0  0  0  0  0  0  0  0  0
  -29.5128  -16.7950   20.1733 C   0  0  0  0  0  0  0  0  0  0  0  0
  -28.1297  -21.2999   18.2185 C   0  0  0  0  0  0  0  0  0  0  0  0
  -30.5569  -14.7291   19.2296 C   0  0  0  0  0  0  0  0  0  0  0  0
  -20.4106  -26.0694   23.9481 C   0  0  0  0  0  0  0  0  0  0  0  0
  -25.3544  -18.0852   18.9033 C   0  0  0  0  0  0  0  0  0  0  0  0
  -22.4839  -27.8422   25.3512 C   0  0  0  0  0  0  0  0  0  0  0  0
  -23.8049  -25.4885   27.4374 C   0  0  0  0  0  0  0  0  0  0  0  0
  -17.3858  -28.8622   20.7624 C   0  0  0  0  0  0  0  0  0  0  0  0
  -22.2651  -25.3956   22.4403 C   0  0  0  0  0  0  0  0  0  0  0  0
  -22.7793  -28.1436   22.8448 C   0  0  0  0  0  0  0  0  0  0  0  0
  -18.0588  -27.5170   20.5022 C   0  0  0  0  0  0  0  0  0  0  0  0
  -25.5427  -17.9780   22.4641 C   0  0  0  0  0  0  0  0  0  0  0  0
  -17.7872  -26.5529   21.6527 C   0  0  0  0  0  0  0  0  0  0  0  0
  -27.0126  -18.3659   22.6729 C   0  0  0  0  0  0  0  0  0  0  0  0
  -24.9010  -18.7480   21.3152 C   0  0  0  0  0  0  0  0  0  0  0  0
  -27.0941  -19.1726   20.2872 C   0  0  0  0  0  0  0  0  0  0  0  0
  -18.3628  -27.0887   22.9691 C   0  0  1  0  0  0  0  0  0  0  0  0
  -21.9029  -26.0016   23.8081 C   0  0  1  0  0  0  0  0  0  0  0  0
  -27.8541  -18.3814   21.3739 C   0  0  2  0  0  0  0  0  0  0  0  0
  -25.4092  -24.3790   25.8586 C   0  0  0  0  0  0  0  0  0  0  0  0
  -19.6848  -26.9964   27.5209 C   0  0  0  0  0  0  0  0  0  0  0  0
  -20.3755  -25.0032   26.1724 C   0  0  0  0  0  0  0  0  0  0  0  0
  -19.9436  -27.1837   25.0405 C   0  0  0  0  0  0  0  0  0  0  0  0
  -24.0363  -22.0024   28.0788 C   0  0  0  0  0  0  0  0  0  0  0  0
  -32.9569  -25.4064   19.0385 C   0  0  0  0  0  0  0  0  0  0  0  0
  -28.0344  -19.9940   17.4069 C   0  0  0  0  0  0  0  0  0  0  0  0
  -26.3783  -18.1045   17.7969 C   0  0  0  0  0  0  0  0  0  0  0  0
  -27.6689  -18.7739   18.2583 C   0  0  0  0  0  0  0  0  0  0  0  0
  -29.1156  -26.9031   19.9453 C   0  0  0  0  0  0  0  0  0  0  0  0
  -27.7155  -26.8913   19.3520 C   0  0  0  0  0  0  0  0  0  1  0  0
  -29.5503  -25.5204   20.4050 C   0  0  0  0  0  0  0  0  0  0  0  0
  -22.0291  -26.9067   26.4427 C   0  0  1  0  0  0  0  0  0  0  0  0
  -24.6331  -24.2470   27.1598 C   0  0  2  0  0  0  0  0  0  0  0  0
  -20.5253  -26.5329   26.3144 C   0  0  0  0  0  0  0  0  0  0  0  0
  -27.6156  -15.9370   21.0746 N   0  0  0  0  0  0  0  0  0  0  0  0
  -28.3576  -17.0362   20.8571 N   0  0  0  0  0  0  0  0  0  0  0  0
  -22.3797  -27.3764   24.0349 N   0  0  0  0  0  0  0  0  0  0  0  0
  -25.7360  -18.6571   20.1157 N   0  0  0  0  0  0  0  0  0  0  0  0
  -30.3752  -17.7883   19.8700 N   0  0  0  0  0  0  0  0  0  0  0  0
  -30.4457  -14.5840   17.8400 N   0  0  0  0  0  0  0  0  0  0  0  0
  -19.7944  -26.8824   23.0159 N   0  0  0  0  0  0  0  0  0  0  0  0
  -22.9344  -25.7634   26.4040 N   0  0  0  0  0  0  0  0  0  0  0  0
  -23.7530  -23.0483   27.0624 N   0  3  0  0  0  0  0  0  0  0  0  0
  -27.1330  -21.6964   18.8568 O   0  0  0  0  0  0  0  0  0  0  0  0
  -31.5373  -14.2197   19.8236 O   0  0  0  0  0  0  0  0  0  0  0  0
  -19.8573  -25.4303   24.8352 O   0  0  0  0  0  0  0  0  0  0  0  0
  -24.2488  -17.5793   18.6942 O   0  0  0  0  0  0  0  0  0  0  0  0
  -22.9253  -28.9541   25.6549 O   0  0  0  0  0  0  0  0  0  0  0  0
  -23.9161  -26.1463   28.4696 O   0  0  0  0  0  0  0  0  0  0  0  0
  -26.4982   -9.6870   20.5896 O   0  0  0  0  0  0  0  0  0  0  0  0
  -32.9251  -24.2038   18.2725 O   0  0  0  0  0  0  0  0  0  0  0  0
  -26.8595  -27.7421   20.1135 O   0  0  0  0  0  0  0  0  0  1  0  0
  -30.7232  -25.1262   19.7059 O   0  0  0  0  0  0  0  0  0  0  0  0
  -21.2145   -8.8335   21.9154 F   0  0  0  0  0  0  0  0  0  0  0  0
  -24.7741   -8.4476   18.8193 F   0  0  0  0  0  0  0  0  0  0  0  0
  1  2  1  0  0  0  0
  1  6  2  0  0  0  0
  2  7  2  0  0  0  0
  3  9  2  0  0  0  0
  3 18  1  0  0  0  0
  4 10  1  0  0  0  0
  4 18  2  0  0  0  0
  5 11  2  0  0  0  0
  5 19  1  0  0  0  0
  6 21  1  0  0  0  0
  7 23  1  0  0  0  0
  8 12  2  0  0  0  0
  8 22  1  0  0  0  0
  9 25  1  0  0  0  0
 10 25  2  0  0  0  0
 11 27  1  0  0  0  0
 12 26  1  0  0  0  0
 13 14  2  0  0  0  0
 13 28  1  0  0  0  0
 14 30  1  0  0  0  0
 15 19  2  0  0  0  0
 15 29  1  0  0  0  0
 16 24  1  0  0  0  0
 16 26  2  0  0  0  0
 17 30  2  0  0  0  0
 17 31  1  0  0  0  0
 18 32  1  0  0  0  0
 19 34  1  0  0  0  0
 20 32  1  0  0  0  0
 20 33  2  0  0  0  0
 20 35  1  0  0  0  0
 21 23  2  0  0  0  0
 21 40  1  0  0  0  0
 22 24  2  0  0  0  0
 22 41  1  0  0  0  0
 23 49  1  0  0  0  0
 24 42  1  0  0  0  0
 25 82  1  0  0  0  0
 26 84  1  0  0  0  0
 27 29  2  0  0  0  0
 27 83  1  0  0  0  0
 28 31  2  0  0  0  0
 28 82  1  0  0  0  0
 29 85  1  0  0  0  0
 30 86  1  0  0  0  0
 31 87  1  0  0  0  0
 32 67  2  0  0  0  0
 33 68  1  0  0  0  0
 33 71  1  0  0  0  0
 34 58  1  0  0  0  0
 34 76  2  0  0  0  0
 35 72  1  0  0  0  0
 35 77  2  0  0  0  0
 36 50  1  0  0  0  0
 36 73  1  0  0  0  0
 36 78  2  0  0  0  0
 37 59  1  0  0  0  0
 37 70  1  0  0  0  0
 37 79  2  0  0  0  0
 38 64  1  0  0  0  0
 38 69  1  0  0  0  0
 38 80  2  0  0  0  0
 39 65  1  0  0  0  0
 39 74  1  0  0  0  0
 39 81  2  0  0  0  0
 40 43  1  0  0  0  0
 41 50  1  0  0  0  0
 42 69  1  0  0  0  0
 43 45  1  0  0  0  0
 44 46  1  0  0  0  0
 44 47  1  0  0  0  0
 45 49  1  0  0  0  0
 46 51  1  0  0  0  0
 47 70  1  0  0  0  0
 48 51  1  0  0  0  0
 48 70  1  0  0  0  0
 49 73  1  0  0  0  0
 50 69  1  0  0  0  0
 51 68  1  0  0  0  0
 52 65  1  0  0  0  0
 53 66  1  0  0  0  0
 54 66  1  0  0  0  0
 55 66  1  0  0  0  0
 56 75  1  0  0  0  0
 57 83  1  0  0  0  0
 58 60  1  0  0  0  0
 59 60  1  0  0  0  0
 61 62  1  0  0  0  0
 61 63  1  0  0  0  0
 62 84  1  0  0  0  0
 63 85  1  0  0  0  0
 64 66  1  0  0  0  0
 64 74  1  0  0  0  0
 65 75  1  0  0  0  0
 67 68  1  0  0  0  0
M  CHG  1  75   1
M  ISO  4  37 100  59 100  62 101  84 101
M  END
> <Batch ID>
0101

> <Smiles>
CNC(C)C(=O)NC(C(=O)N1Cc2cc([101O:1][101CH2:1]CCOc3cc(C(=O)CC[100CH2:0][100C:0](=O)N4CCCC(n5nc(-c6ccc(Oc7ccc(F)cc7F)cc6)c(C(N)=O)c5N)C4)ccc3OC)ccc2CC1C(=O)NC1CCCc2ccccc21)C(C)(C)C

> <Shape>
0.222

> <Color>
0.081

> <Negative vol penalty>
0.000

$$$$

  -OEChem-04052301003D

 83 91  0     1  0  0  0  0  0999 V2000
  -24.1880   -6.7542   23.9085 C   0  0  0  0  0  0  0  0  0  0  0  0
  -25.3613   -7.4963   23.8178 C   0  0  0  0  0  0  0  0  0  0  0  0
  -23.7251  -33.0900   22.1250 C   0  0  0  0  0  0  0  0  0  0  0  0
  -25.7069  -32.3322   23.2804 C   0  0  0  0  0  0  0  0  0  0  0  0
  -23.1059   -7.0596   23.0840 C   0  0  0  0  0  0  0  0  0  0  0  0
  -25.4535   -8.5436   22.9018 C   0  0  0  0  0  0  0  0  0  0  0  0
  -28.4943  -14.9752   22.0627 C   0  0  0  0  0  0  0  0  0  0  0  0
  -23.7467  -34.2730   22.8638 C   0  0  0  0  0  0  0  0  0  0  0  0
  -25.7286  -33.5152   24.0192 C   0  0  0  0  0  0  0  0  0  0  0  0
  -29.2831  -15.6838   21.1575 C   0  0  0  0  0  0  0  0  0  0  0  0
  -26.5142  -36.4911   25.9544 C   0  0  0  0  0  0  0  0  0  0  0  0
  -27.7396  -37.1401   26.1052 C   0  0  0  0  0  0  0  0  0  0  0  0
  -27.3222  -16.1714   19.8398 C   0  0  0  0  0  0  0  0  0  0  0  0
  -28.6975  -22.4496   19.6989 C   0  0  0  0  0  0  0  0  0  0  0  0
  -26.4388  -21.9254   21.2500 C   0  0  0  0  0  0  0  0  0  0  0  0
  -27.9106  -37.3744   23.7066 C   0  0  0  0  0  0  0  0  0  0  0  0
  -24.7052  -32.1196   22.3334 C   0  0  0  0  0  0  0  0  0  0  0  0
  -25.3114  -30.6549   20.3347 C   0  0  0  0  0  0  0  0  0  0  0  0
  -23.1815   -8.1174   22.1642 C   0  0  0  0  0  0  0  0  0  0  0  0
  -27.1128  -14.8500   21.8571 C   0  0  0  0  0  0  0  0  0  0  0  0
  -24.3718   -8.8626   22.0633 C   0  0  0  0  0  0  0  0  0  0  0  0
  -26.5177  -15.4629   20.7453 C   0  0  0  0  0  0  0  0  0  0  0  0
  -27.7098  -23.4237   19.8441 C   0  0  0  0  0  0  0  0  0  0  0  0
  -26.5804  -23.1616   20.6196 C   0  0  0  0  0  0  0  0  0  0  0  0
  -24.7484  -34.4856   23.8108 C   0  0  0  0  0  0  0  0  0  0  0  0
  -28.6975  -16.2796   20.0443 C   0  0  0  0  0  0  0  0  0  0  0  0
  -25.9870  -36.2837   24.6797 C   0  0  0  0  0  0  0  0  0  0  0  0
  -28.5559  -21.2133   20.3293 C   0  0  0  0  0  0  0  0  0  0  0  0
  -28.4378  -37.5818   24.9813 C   0  0  0  0  0  0  0  0  0  0  0  0
  -26.6852  -36.7254   23.5558 C   0  0  0  0  0  0  0  0  0  0  0  0
  -27.4265  -20.9512   21.1049 C   0  0  0  0  0  0  0  0  0  0  0  0
  -24.6831  -30.8972   21.5709 C   0  0  0  0  0  0  0  0  0  0  0  0
  -24.9895  -29.3537   20.0352 C   0  0  0  0  0  0  0  0  0  0  0  0
  -26.1143  -31.5279   19.5292 C   0  0  0  0  0  0  0  0  0  0  0  0
  -25.1281  -12.4138   21.3780 C   0  0  0  0  0  0  0  0  0  0  0  0
  -22.8617  -14.7247   21.5921 C   0  0  0  0  0  0  0  0  0  0  0  0
  -22.0560  -18.0283   21.3022 C   0  0  0  0  0  0  0  0  0  0  0  0
  -24.3883  -24.0200   21.5163 C   0  0  0  0  0  0  0  0  0  0  0  0
  -22.0025   -8.3796   21.2610 C   0  0  0  0  0  0  0  0  0  0  0  0
  -26.2718  -14.1049   22.8572 C   0  0  0  0  0  0  0  0  0  0  0  0
  -25.0360  -15.3751   20.4899 C   0  0  0  0  0  0  0  0  0  0  0  0
  -22.0495   -9.7445   20.5788 C   0  0  0  0  0  0  0  0  0  0  0  0
  -21.6584  -26.2061   22.1842 C   0  0  0  0  0  0  0  0  0  0  0  0
  -23.4357  -10.0031   19.9972 C   0  0  0  0  0  0  0  0  0  0  0  0
  -22.2537  -27.6015   21.9825 C   0  0  0  0  0  0  0  0  0  0  0  0
  -22.6639  -25.2469   22.8188 C   0  0  0  0  0  0  0  0  0  0  0  0
  -24.5528  -26.5536   21.9278 C   0  0  0  0  0  0  0  0  0  0  0  0
  -24.5017  -10.0220   21.0994 C   0  0  1  0  0  0  0  0  0  0  0  0
  -24.9527  -13.6063   22.2751 C   0  0  1  0  0  0  0  0  0  0  0  0
  -23.5982  -27.5375   21.2317 C   0  0  2  0  0  0  0  0  0  0  0  0
  -27.8861  -24.7380   19.1554 C   0  0  0  0  0  0  0  0  0  0  0  0
  -20.1165  -19.6079   21.5034 C   0  0  0  0  0  0  0  0  0  0  0  0
  -21.7925  -13.7500   18.9057 C   0  0  0  0  0  0  0  0  0  0  0  0
  -20.5181  -15.8964   18.7131 C   0  0  0  0  0  0  0  0  0  0  0  0
  -20.0295  -14.3216   20.5849 C   0  0  0  0  0  0  0  0  0  0  0  0
  -23.3731  -19.5530   23.4700 C   0  0  0  0  0  0  0  0  0  0  0  0
  -30.9525  -18.8444   18.8408 C   0  0  0  0  0  0  0  0  0  0  0  0
  -30.6316  -17.6128   19.6730 C   0  0  0  0  0  0  0  0  0  1  0  0
  -29.8073  -19.8448   18.8403 C   0  0  0  0  0  0  0  0  0  0  0  0
  -22.1812  -15.6489   20.6114 C   0  0  1  0  0  0  0  0  0  0  0  0
  -21.2915  -18.9631   22.2220 C   0  0  2  0  0  0  0  0  0  0  0  0
  -21.1585  -14.9044   19.7073 C   0  0  0  0  0  0  0  0  0  0  0  0
  -24.0126  -29.8352   22.0255 N   0  0  0  0  0  0  0  0  0  0  0  0
  -24.2177  -28.9130   21.0697 N   0  0  0  0  0  0  0  0  0  0  0  0
  -24.2571  -14.6304   21.4930 N   0  0  0  0  0  0  0  0  0  0  0  0
  -23.9114  -25.2352   22.0515 N   0  0  0  0  0  0  0  0  0  0  0  0
  -25.2941  -28.5549   18.9903 N   0  0  0  0  0  0  0  0  0  0  0  0
  -26.3463  -32.8326   19.9853 N   0  0  0  0  0  0  0  0  0  0  0  0
  -25.5656  -24.1377   20.7783 N   0  0  0  0  0  0  0  0  0  0  0  0
  -24.4683  -11.2804   21.8133 N   0  0  0  0  0  0  0  0  0  0  0  0
  -21.6033  -16.7297   21.4027 N   0  0  0  0  0  0  0  0  0  0  0  0
  -22.1869  -20.0441   22.7225 N   0  3  0  0  0  0  0  0  0  0  0  0
  -26.5976  -31.1670   18.4293 O   0  0  0  0  0  0  0  0  0  0  0  0
  -25.8102  -12.5149   20.3650 O   0  0  0  0  0  0  0  0  0  0  0  0
  -22.1810  -14.1146   22.4204 O   0  0  0  0  0  0  0  0  0  0  0  0
  -22.9616  -18.4122   20.5654 O   0  0  0  0  0  0  0  0  0  0  0  0
  -23.7813  -22.9579   21.6762 O   0  0  0  0  0  0  0  0  0  0  0  0
  -24.7699  -35.6399   24.5317 O   0  0  0  0  0  0  0  0  0  0  0  0
  -29.4652  -16.9713   19.1588 O   0  0  0  0  0  0  0  0  0  1  0  0
  -29.5409  -20.2739   20.1688 O   0  0  0  0  0  0  0  0  0  0  0  0
  -29.6139  -38.2064   25.1263 F   0  0  0  0  0  0  0  0  0  0  0  0
  -26.1832  -36.5300   22.3288 F   0  0  0  0  0  0  0  0  0  0  0  0
  -27.2260  -19.4312   21.8955 Cl  0  0  0  0  0  0  0  0  0  0  0  0
  1  2  1  0  0  0  0
  1  5  2  0  0  0  0
  2  6  2  0  0  0  0
  3  8  2  0  0  0  0
  3 17  1  0  0  0  0
  4  9  1  0  0  0  0
  4 17  2  0  0  0  0
  5 19  1  0  0  0  0
  6 21  1  0  0  0  0
  7 10  2  0  0  0  0
  7 20  1  0  0  0  0
  8 25  1  0  0  0  0
  9 25  2  0  0  0  0
 10 26  1  0  0  0  0
 11 12  2  0  0  0  0
 11 27  1  0  0  0  0
 12 29  1  0  0  0  0
 13 22  1  0  0  0  0
 13 26  2  0  0  0  0
 14 23  2  0  0  0  0
 14 28  1  0  0  0  0
 15 24  2  0  0  0  0
 15 31  1  0  0  0  0
 16 29  2  0  0  0  0
 16 30  1  0  0  0  0
 17 32  1  0  0  0  0
 18 32  1  0  0  0  0
 18 33  2  0  0  0  0
 18 34  1  0  0  0  0
 19 21  2  0  0  0  0
 19 39  1  0  0  0  0
 20 22  2  0  0  0  0
 20 40  1  0  0  0  0
 21 48  1  0  0  0  0
 22 41  1  0  0  0  0
 23 24  1  0  0  0  0
 23 51  1  0  0  0  0
 24 69  1  0  0  0  0
 25 78  1  0  0  0  0
 26 79  1  0  0  0  0
 27 30  2  0  0  0  0
 27 78  1  0  0  0  0
 28 31  2  0  0  0  0
 28 80  1  0  0  0  0
 29 81  1  0  0  0  0
 30 82  1  0  0  0  0
 31 83  1  0  0  0  0
 32 63  2  0  0  0  0
 33 64  1  0  0  0  0
 33 67  1  0  0  0  0
 34 68  1  0  0  0  0
 34 73  2  0  0  0  0
 35 49  1  0  0  0  0
 35 70  1  0  0  0  0
 35 74  2  0  0  0  0
 36 60  1  0  0  0  0
 36 65  1  0  0  0  0
 36 75  2  0  0  0  0
 37 61  1  0  0  0  0
 37 71  1  0  0  0  0
 37 76  2  0  0  0  0
 38 66  1  0  0  0  0
 38 69  1  0  0  0  0
 38 77  2  0  0  0  0
 39 42  1  0  0  0  0
 40 49  1  0  0  0  0
 41 65  1  0  0  0  0
 42 44  1  0  0  0  0
 43 45  1  0  0  0  0
 43 46  1  0  0  0  0
 44 48  1  0  0  0  0
 45 50  1  0  0  0  0
 46 66  1  0  0  0  0
 47 50  1  0  0  0  0
 47 66  1  0  0  0  0
 48 70  1  0  0  0  0
 49 65  1  0  0  0  0
 50 64  1  0  0  0  0
 52 61  1  0  0  0  0
 53 62  1  0  0  0  0
 54 62  1  0  0  0  0
 55 62  1  0  0  0  0
 56 72  1  0  0  0  0
 57 58  1  0  0  0  0
 57 59  1  0  0  0  0
 58 79  1  0  0  0  0
 59 80  1  0  0  0  0
 60 62  1  0  0  0  0
 60 71  1  0  0  0  0
 61 72  1  0  0  0  0
 63 64  1  0  0  0  0
M  CHG  1  72   1
M  ISO  4  38 100  58 101  69 100  79 101
M  END
> <Batch ID>
0101

> <Smiles>
CNC(C)C(=O)NC(C(=O)N1Cc2cc([101O:1][101CH2:1]CCOc3cc(C)c([100NH:0][100C:0](=O)N4CCCC(n5nc(-c6ccc(Oc7ccc(F)cc7F)cc6)c(C(N)=O)c5N)C4)cc3Cl)ccc2CC1C(=O)NC1CCCc2ccccc21)C(C)(C)C

> <Shape>
0.262

> <Color>
0.069

> <Negative vol penalty>
0.000

$$$$

  -OEChem-04052301003D

 87 96  0     1  0  0  0  0  0999 V2000
  -18.9756  -27.3984   26.2655 C   0  0  0  0  0  0  0  0  0  0  0  0
  -20.3392  -27.2009   26.0738 C   0  0  0  0  0  0  0  0  0  0  0  0
  -24.4124   -9.3103   22.2661 C   0  0  0  0  0  0  0  0  0  0  0  0
  -24.3715   -8.8413   19.8964 C   0  0  0  0  0  0  0  0  0  0  0  0
  -28.7526  -20.9694   22.5128 C   0  0  0  0  0  0  0  0  0  0  0  0
  -18.1578  -27.7086   25.1797 C   0  0  0  0  0  0  0  0  0  0  0  0
  -20.8859  -27.3123   24.7959 C   0  0  0  0  0  0  0  0  0  0  0  0
  -26.4324  -29.4614   23.3387 C   0  0  0  0  0  0  0  0  0  0  0  0
  -29.1096  -22.3007   22.2989 C   0  0  0  0  0  0  0  0  0  0  0  0
  -23.2638   -8.5380   22.4388 C   0  0  0  0  0  0  0  0  0  0  0  0
  -23.2229   -8.0689   20.0691 C   0  0  0  0  0  0  0  0  0  0  0  0
  -27.6387  -28.8250   23.0496 C   0  0  0  0  0  0  0  0  0  0  0  0
  -22.4766   -5.2561   22.6452 C   0  0  0  0  0  0  0  0  0  0  0  0
  -22.4537   -4.3581   23.7122 C   0  0  0  0  0  0  0  0  0  0  0  0
  -27.1547  -28.9919   20.6922 C   0  0  0  0  0  0  0  0  0  0  0  0
  -29.2051  -21.8927   19.9195 C   0  0  0  0  0  0  0  0  0  0  0  0
  -20.5271   -5.4936   24.6266 C   0  0  0  0  0  0  0  0  0  0  0  0
  -24.9662   -9.4620   20.9949 C   0  0  0  0  0  0  0  0  0  0  0  0
  -28.6219  -20.0997   21.4301 C   0  0  0  0  0  0  0  0  0  0  0  0
  -27.4889   -9.8228   20.8791 C   0  0  0  0  0  0  0  0  0  0  0  0
  -18.6963  -27.8334   23.8893 C   0  0  0  0  0  0  0  0  0  0  0  0
  -25.5717  -29.8587   22.3054 C   0  0  0  0  0  0  0  0  0  0  0  0
  -20.0744  -27.6231   23.6915 C   0  0  0  0  0  0  0  0  0  0  0  0
  -25.9393  -29.6354   20.9708 C   0  0  0  0  0  0  0  0  0  0  0  0
  -29.3359  -22.7623   21.0022 C   0  0  0  0  0  0  0  0  0  0  0  0
  -22.6691   -7.9173   21.3403 C   0  0  0  0  0  0  0  0  0  0  0  0
  -27.9987  -28.5876   21.7263 C   0  0  0  0  0  0  0  0  0  0  0  0
  -21.5248   -6.2730   22.5689 C   0  0  0  0  0  0  0  0  0  0  0  0
  -28.8481  -20.5614   20.1334 C   0  0  0  0  0  0  0  0  0  0  0  0
  -21.4790   -4.4767   24.7029 C   0  0  0  0  0  0  0  0  0  0  0  0
  -20.5501   -6.3917   23.5596 C   0  0  0  0  0  0  0  0  0  0  0  0
  -26.1524  -10.2602   20.8157 C   0  0  0  0  0  0  0  0  0  0  0  0
  -28.2318  -10.9533   20.6416 C   0  0  0  0  0  0  0  0  0  0  0  0
  -29.8820  -25.1161   21.6424 C   0  0  0  0  0  0  0  0  0  0  0  0
  -28.2493  -18.7138   21.6799 C   0  0  0  0  0  0  0  0  0  0  0  0
  -27.1595  -18.0957   21.1802 C   0  0  0  0  0  0  0  0  0  0  0  0
  -28.0121   -8.5117   21.1300 C   0  0  0  0  0  0  0  0  0  0  0  0
  -26.9233  -16.6779   21.5189 C   0  0  0  0  0  0  0  0  0  0  0  0
  -22.6033  -29.1131   21.4471 C   0  0  0  0  0  0  0  0  0  0  0  0
  -23.0499  -31.4850   19.2798 C   0  0  0  0  0  0  0  0  0  0  0  0
  -25.2333  -33.3632   17.4490 C   0  0  0  0  0  0  0  0  0  0  0  0
  -17.7650  -28.1236   22.7390 C   0  0  0  0  0  0  0  0  0  0  0  0
  -24.2864  -30.5681   22.6330 C   0  0  0  0  0  0  0  0  0  0  0  0
  -25.0599  -30.0606   19.8243 C   0  0  0  0  0  0  0  0  0  0  0  0
  -18.4839  -28.5923   21.4766 C   0  0  0  0  0  0  0  0  0  0  0  0
  -28.0609  -15.1532   18.3863 C   0  0  0  0  0  0  0  0  0  0  0  0
  -19.6854  -27.6993   21.1838 C   0  0  0  0  0  0  0  0  0  0  0  0
  -27.7719  -13.6788   18.6554 C   0  0  0  0  0  0  0  0  0  0  0  0
  -27.0274  -16.0675   19.0424 C   0  0  0  0  0  0  0  0  0  0  0  0
  -26.5756  -14.3544   20.7750 C   0  0  0  0  0  0  0  0  0  0  0  0
  -29.9780  -24.8026   19.5612 C   0  0  0  0  0  0  0  0  0  0  0  0
  -20.7086  -27.7597   22.3244 C   0  0  1  0  0  0  0  0  0  0  0  0
  -23.2482  -30.4683   21.5196 C   0  0  1  0  0  0  0  0  0  0  0  0
  -27.6297  -13.4184   20.1634 C   0  0  1  0  0  0  0  0  0  0  0  0
  -30.2231  -26.0577   20.4517 C   0  0  2  0  0  0  0  0  0  0  0  0
  -31.6620  -26.5622   20.4570 C   0  0  0  0  0  0  0  0  0  0  0  0
  -25.2994  -35.1973   15.7376 C   0  0  0  0  0  0  0  0  0  0  0  0
  -22.2262  -29.4948   17.1186 C   0  0  0  0  0  0  0  0  0  0  0  0
  -23.2078  -31.0449   15.4151 C   0  0  0  0  0  0  0  0  0  0  0  0
  -21.2936  -31.7969   16.8270 C   0  0  0  0  0  0  0  0  0  0  0  0
  -26.7422  -35.1548   19.2579 C   0  0  0  0  0  0  0  0  0  0  0  0
  -29.8983  -19.0268   18.6508 C   0  0  0  0  0  0  0  0  0  0  0  0
  -29.2228  -27.1796   20.2515 C   0  0  0  0  0  0  0  0  0  1  0  0
  -23.5844  -31.5581   17.8699 C   0  0  1  0  0  0  0  0  0  0  0  0
  -25.3276  -34.8610   17.2204 C   0  0  2  0  0  0  0  0  0  0  0  0
  -22.5939  -30.9638   16.8291 C   0  0  0  0  0  0  0  0  0  0  0  0
  -26.0491  -11.5668   20.5584 N   0  0  0  0  0  0  0  0  0  0  0  0
  -27.3302  -11.9601   20.4580 N   0  0  0  0  0  0  0  0  0  0  0  0
  -29.6880  -24.0751   20.7916 N   0  0  0  0  0  0  0  0  0  0  0  0
  -26.8669  -15.7600   20.4716 N   0  0  0  0  0  0  0  0  0  0  0  0
  -23.8105  -30.7449   20.1961 N   0  0  0  0  0  0  0  0  0  0  0  0
  -29.5618  -11.1746   20.5742 N   0  0  0  0  0  0  0  0  0  0  0  0
  -27.1091   -7.4635   21.3539 N   0  0  0  0  0  0  0  0  0  0  0  0
  -21.4828  -28.9799   22.2447 N   0  0  0  0  0  0  0  0  0  0  0  0
  -23.9292  -32.9562   17.6360 N   0  0  0  0  0  0  0  0  0  0  0  0
  -26.5929  -35.3946   17.7994 N   0  3  0  0  0  0  0  0  0  0  0  0
  -29.8072  -25.2211   22.8455 O   0  0  0  0  0  0  0  0  0  0  0  0
  -29.2442   -8.2799   21.1713 O   0  0  0  0  0  0  0  0  0  0  0  0
  -26.7853  -16.3932   22.7099 O   0  0  0  0  0  0  0  0  0  0  0  0
  -23.0857  -28.2525   20.7202 O   0  0  0  0  0  0  0  0  0  0  0  0
  -22.0001  -32.0691   19.5597 O   0  0  0  0  0  0  0  0  0  0  0  0
  -26.2176  -32.6273   17.4568 O   0  0  0  0  0  0  0  0  0  0  0  0
  -21.5484   -7.1633   21.5085 O   0  0  0  0  0  0  0  0  0  0  0  0
  -28.7279  -19.7318   19.0577 O   0  0  0  0  0  0  0  0  0  0  0  0
  -29.1752  -27.9660   21.4413 O   0  0  0  0  0  0  0  0  0  1  0  0
  -21.4562   -3.6133   25.7267 F   0  0  0  0  0  0  0  0  0  0  0  0
  -19.6323   -7.3658   23.4910 F   0  0  0  0  0  0  0  0  0  0  0  0
  1  2  1  0  0  0  0
  1  6  2  0  0  0  0
  2  7  2  0  0  0  0
  3 10  2  0  0  0  0
  3 18  1  0  0  0  0
  4 11  1  0  0  0  0
  4 18  2  0  0  0  0
  5  9  2  0  0  0  0
  5 19  1  0  0  0  0
  6 21  1  0  0  0  0
  7 23  1  0  0  0  0
  8 12  2  0  0  0  0
  8 22  1  0  0  0  0
  9 25  1  0  0  0  0
 10 26  1  0  0  0  0
 11 26  2  0  0  0  0
 12 27  1  0  0  0  0
 13 14  2  0  0  0  0
 13 28  1  0  0  0  0
 14 30  1  0  0  0  0
 15 24  1  0  0  0  0
 15 27  2  0  0  0  0
 16 25  2  0  0  0  0
 16 29  1  0  0  0  0
 17 30  2  0  0  0  0
 17 31  1  0  0  0  0
 18 32  1  0  0  0  0
 19 29  2  0  0  0  0
 19 35  1  0  0  0  0
 20 32  1  0  0  0  0
 20 33  2  0  0  0  0
 20 37  1  0  0  0  0
 21 23  2  0  0  0  0
 21 42  1  0  0  0  0
 22 24  2  0  0  0  0
 22 43  1  0  0  0  0
 23 52  1  0  0  0  0
 24 44  1  0  0  0  0
 25 69  1  0  0  0  0
 26 83  1  0  0  0  0
 27 85  1  0  0  0  0
 28 31  2  0  0  0  0
 28 83  1  0  0  0  0
 29 84  1  0  0  0  0
 30 86  1  0  0  0  0
 31 87  1  0  0  0  0
 32 67  2  0  0  0  0
 33 68  1  0  0  0  0
 33 72  1  0  0  0  0
 34 55  1  0  0  0  0
 34 69  1  0  0  0  0
 34 77  2  0  0  0  0
 35 36  2  0  0  0  0
 36 38  1  0  0  0  0
 37 73  1  0  0  0  0
 37 78  2  0  0  0  0
 38 70  1  0  0  0  0
 38 79  2  0  0  0  0
 39 53  1  0  0  0  0
 39 74  1  0  0  0  0
 39 80  2  0  0  0  0
 40 64  1  0  0  0  0
 40 71  1  0  0  0  0
 40 81  2  0  0  0  0
 41 65  1  0  0  0  0
 41 75  1  0  0  0  0
 41 82  2  0  0  0  0
 42 45  1  0  0  0  0
 43 53  1  0  0  0  0
 44 71  1  0  0  0  0
 45 47  1  0  0  0  0
 46 48  1  0  0  0  0
 46 49  1  0  0  0  0
 47 52  1  0  0  0  0
 48 54  1  0  0  0  0
 49 70  1  0  0  0  0
 50 54  1  0  0  0  0
 50 70  1  0  0  0  0
 51 55  1  0  0  0  0
 51 69  1  0  0  0  0
 52 74  1  0  0  0  0
 53 71  1  0  0  0  0
 54 68  1  0  0  0  0
 55 56  1  0  0  0  0
 55 63  1  0  0  0  0
 57 65  1  0  0  0  0
 58 66  1  0  0  0  0
 59 66  1  0  0  0  0
 60 66  1  0  0  0  0
 61 76  1  0  0  0  0
 62 84  1  0  0  0  0
 63 85  1  0  0  0  0
 64 66  1  0  0  0  0
 64 75  1  0  0  0  0
 65 76  1  0  0  0  0
 67 68  1  0  0  0  0
M  CHG  1  76   1
M  ISO  4  36 100  38 100  63 101  85 101
M  END
> <Batch ID>
0101

> <Smiles>
CNC(C)C(=O)NC(C(=O)N1Cc2cc([101O:1][101CH2:1]C3(C)CN(c4ccc(C=[100CH:0][100C:0](=O)N5CCCC(n6nc(-c7ccc(Oc8ccc(F)cc8F)cc7)c(C(N)=O)c6N)C5)c(OC)c4)C3=O)ccc2CC1C(=O)NC1CCCc2ccccc21)C(C)(C)C

> <Shape>
0.297

> <Color>
0.126

> <Negative vol penalty>
0.000

$$$$

  -OEChem-04052301003D

 87 95  0     1  0  0  0  0  0999 V2000
  -17.8260  -32.8974   22.2897 C   0  0  0  0  0  0  0  0  0  0  0  0
  -19.1557  -33.0729   21.9201 C   0  0  0  0  0  0  0  0  0  0  0  0
  -22.2472  -17.8366   23.0531 C   0  0  0  0  0  0  0  0  0  0  0  0
  -23.7163  -17.2644   24.8837 C   0  0  0  0  0  0  0  0  0  0  0  0
  -17.4558  -31.7900   23.0517 C   0  0  0  0  0  0  0  0  0  0  0  0
  -20.1161  -32.1416   22.3133 C   0  0  0  0  0  0  0  0  0  0  0  0
  -26.2210  -29.1343   20.0763 C   0  0  0  0  0  0  0  0  0  0  0  0
  -21.3861  -18.4768   23.9442 C   0  0  0  0  0  0  0  0  0  0  0  0
  -22.8552  -17.9047   25.7749 C   0  0  0  0  0  0  0  0  0  0  0  0
  -27.5253  -28.8961   20.5071 C   0  0  0  0  0  0  0  0  0  0  0  0
  -20.8641  -19.0763   28.5807 C   0  0  0  0  0  0  0  0  0  0  0  0
  -20.5605  -18.4202   29.7735 C   0  0  0  0  0  0  0  0  0  0  0  0
  -26.7568  -26.9800   21.7549 C   0  0  0  0  0  0  0  0  0  0  0  0
  -28.6574  -22.3801   18.8566 C   0  0  0  0  0  0  0  0  0  0  0  0
  -30.9446  -22.0608   18.1470 C   0  0  0  0  0  0  0  0  0  0  0  0
  -19.6239  -16.5781   28.5219 C   0  0  0  0  0  0  0  0  0  0  0  0
  -23.4123  -17.2303   23.5228 C   0  0  0  0  0  0  0  0  0  0  0  0
  -24.0006  -15.4784   21.7643 C   0  0  0  0  0  0  0  0  0  0  0  0
  -18.4106  -30.8396   23.4462 C   0  0  0  0  0  0  0  0  0  0  0  0
  -25.1712  -28.3022   20.4910 C   0  0  0  0  0  0  0  0  0  0  0  0
  -19.7586  -31.0211   23.0824 C   0  0  0  0  0  0  0  0  0  0  0  0
  -25.4404  -27.2083   21.3258 C   0  0  0  0  0  0  0  0  0  0  0  0
  -29.6474  -21.5711   18.2988 C   0  0  0  0  0  0  0  0  0  0  0  0
  -28.9647  -23.6787   19.2626 C   0  0  0  0  0  0  0  0  0  0  0  0
  -31.2519  -23.3594   18.5531 C   0  0  0  0  0  0  0  0  0  0  0  0
  -21.6901  -18.5109   25.3051 C   0  0  0  0  0  0  0  0  0  0  0  0
  -27.7930  -27.8205   21.3489 C   0  0  0  0  0  0  0  0  0  0  0  0
  -20.5475  -18.4834   27.3584 C   0  0  0  0  0  0  0  0  0  0  0  0
  -30.2619  -24.1684   19.1109 C   0  0  0  0  0  0  0  0  0  0  0  0
  -19.9405  -17.1711   29.7442 C   0  0  0  0  0  0  0  0  0  0  0  0
  -19.9274  -17.2343   27.3290 C   0  0  0  0  0  0  0  0  0  0  0  0
  -24.3020  -16.5683   22.6028 C   0  0  0  0  0  0  0  0  0  0  0  0
  -25.1729  -15.2261   21.0945 C   0  0  0  0  0  0  0  0  0  0  0  0
  -22.7710  -14.7585   21.6050 C   0  0  0  0  0  0  0  0  0  0  0  0
  -22.5033  -28.7230   22.1670 C   0  0  0  0  0  0  0  0  0  0  0  0
  -21.9529  -25.6380   21.3290 C   0  0  0  0  0  0  0  0  0  0  0  0
  -23.2326  -22.6273   20.3571 C   0  0  0  0  0  0  0  0  0  0  0  0
  -29.8966  -18.6374   19.7158 C   0  0  0  0  0  0  0  0  0  0  0  0
  -17.9706  -29.6837   24.3093 C   0  0  0  0  0  0  0  0  0  0  0  0
  -23.7739  -28.5569   19.9958 C   0  0  0  0  0  0  0  0  0  0  0  0
  -24.3519  -26.2732   21.7834 C   0  0  0  0  0  0  0  0  0  0  0  0
  -18.9868  -28.5460   24.3679 C   0  0  0  0  0  0  0  0  0  0  0  0
  -29.9178  -15.6032   21.5786 C   0  0  0  0  0  0  0  0  0  0  0  0
  -20.3891  -29.0948   24.6112 C   0  0  0  0  0  0  0  0  0  0  0  0
  -28.4537  -15.4081   21.9767 C   0  0  0  0  0  0  0  0  0  0  0  0
  -30.3153  -17.0776   21.5942 C   0  0  0  0  0  0  0  0  0  0  0  0
  -27.9835  -17.7663   21.1915 C   0  0  0  0  0  0  0  0  0  0  0  0
  -20.8254  -30.0197   23.4685 C   0  0  1  0  0  0  0  0  0  0  0  0
  -22.7015  -27.9489   20.8945 C   0  0  1  0  0  0  0  0  0  0  0  0
  -27.5205  -16.3004   21.1363 C   0  0  2  0  0  0  0  0  0  0  0  0
  -27.8909  -24.5293   19.8576 C   0  0  0  0  0  0  0  0  0  0  0  0
  -27.5371  -20.5937   14.4065 C   0  0  0  0  0  0  0  0  0  0  0  0
  -22.5393  -20.2844   19.7850 C   0  0  0  0  0  0  0  0  0  0  0  0
  -21.5520  -25.0355   24.2932 C   0  0  0  0  0  0  0  0  0  0  0  0
  -21.8121  -22.6026   23.7623 C   0  0  0  0  0  0  0  0  0  0  0  0
  -19.9271  -23.8997   22.7687 C   0  0  0  0  0  0  0  0  0  0  0  0
  -24.3033  -22.8580   17.6077 C   0  0  0  0  0  0  0  0  0  0  0  0
  -28.6089  -20.7710   15.4710 C   0  0  0  0  0  0  0  0  0  0  0  0
  -28.2104  -20.0891   16.7832 C   0  0  0  0  0  0  0  0  0  0  0  0
  -31.3280  -27.0738   21.1091 C   0  0  0  0  0  0  0  0  0  0  0  0
  -30.1225  -27.9758   20.8960 C   0  0  0  0  0  0  0  0  0  1  0  0
  -30.9973  -25.6120   20.8518 C   0  0  0  0  0  0  0  0  0  0  0  0
  -29.3172  -20.1836   17.8631 C   0  0  2  0  0  0  0  0  0  0  0  0
  -22.2797  -24.2923   21.9300 C   0  0  1  0  0  0  0  0  0  0  0  0
  -22.8334  -21.6750   19.2444 C   0  0  2  0  0  0  0  0  0  0  0  0
  -21.4131  -23.9761   23.1817 C   0  0  0  0  0  0  0  0  0  0  0  0
  -25.5666  -16.9799   22.4790 N   0  0  0  0  0  0  0  0  0  0  0  0
  -26.0703  -16.1442   21.5549 N   0  0  0  0  0  0  0  0  0  0  0  0
  -23.0012  -26.5677   21.2772 N   0  0  0  0  0  0  0  0  0  0  0  0
  -29.3916  -17.8684   20.7772 N   0  0  0  0  0  0  0  0  0  0  0  0
  -32.5697  -23.8414   18.3923 N   0  0  0  0  0  0  0  0  0  0  0  0
  -25.5133  -14.3107   20.1626 N   0  0  0  0  0  0  0  0  0  0  0  0
  -22.5390  -13.6433   22.4216 N   0  0  0  0  0  0  0  0  0  0  0  0
  -21.2320  -29.2432   22.3169 N   0  0  0  0  0  0  0  0  0  0  0  0
  -22.1473  -23.3201   20.8504 N   0  0  0  0  0  0  0  0  0  0  0  0
  -28.9527  -19.3518   18.9882 N   0  0  0  0  0  0  0  0  0  0  0  0
  -23.9273  -21.5664   18.2382 N   0  3  0  0  0  0  0  0  0  0  0  0
  -21.9108  -15.0844   20.7521 O   0  0  0  0  0  0  0  0  0  0  0  0
  -23.4345  -28.8385   22.9552 O   0  0  0  0  0  0  0  0  0  0  0  0
  -20.8114  -25.8539   20.9140 O   0  0  0  0  0  0  0  0  0  0  0  0
  -24.3908  -22.7422   20.7520 O   0  0  0  0  0  0  0  0  0  0  0  0
  -31.0990  -18.6796   19.4338 O   0  0  0  0  0  0  0  0  0  0  0  0
  -20.8502  -19.1357   26.1750 O   0  0  0  0  0  0  0  0  0  0  0  0
  -29.0651  -27.5861   21.7714 O   0  0  0  0  0  0  0  0  0  1  0  0
  -30.5601  -25.4453   19.5098 O   0  0  0  0  0  0  0  0  0  0  0  0
  -19.6504  -16.5404   30.8897 F   0  0  0  0  0  0  0  0  0  0  0  0
  -19.6219  -16.6591   26.1579 F   0  0  0  0  0  0  0  0  0  0  0  0
  1  2  1  0  0  0  0
  1  5  2  0  0  0  0
  2  6  2  0  0  0  0
  3  8  2  0  0  0  0
  3 17  1  0  0  0  0
  4  9  1  0  0  0  0
  4 17  2  0  0  0  0
  5 19  1  0  0  0  0
  6 21  1  0  0  0  0
  7 10  2  0  0  0  0
  7 20  1  0  0  0  0
  8 26  1  0  0  0  0
  9 26  2  0  0  0  0
 10 27  1  0  0  0  0
 11 12  2  0  0  0  0
 11 28  1  0  0  0  0
 12 30  1  0  0  0  0
 13 22  1  0  0  0  0
 13 27  2  0  0  0  0
 14 23  1  0  0  0  0
 14 24  2  0  0  0  0
 15 23  2  0  0  0  0
 15 25  1  0  0  0  0
 16 30  2  0  0  0  0
 16 31  1  0  0  0  0
 17 32  1  0  0  0  0
 18 32  1  0  0  0  0
 18 33  2  0  0  0  0
 18 34  1  0  0  0  0
 19 21  2  0  0  0  0
 19 39  1  0  0  0  0
 20 22  2  0  0  0  0
 20 40  1  0  0  0  0
 21 48  1  0  0  0  0
 22 41  1  0  0  0  0
 23 63  1  0  0  0  0
 24 29  1  0  0  0  0
 24 51  1  0  0  0  0
 25 29  2  0  0  0  0
 25 71  1  0  0  0  0
 26 83  1  0  0  0  0
 27 84  1  0  0  0  0
 28 31  2  0  0  0  0
 28 83  1  0  0  0  0
 29 85  1  0  0  0  0
 30 86  1  0  0  0  0
 31 87  1  0  0  0  0
 32 67  2  0  0  0  0
 33 68  1  0  0  0  0
 33 72  1  0  0  0  0
 34 73  1  0  0  0  0
 34 78  2  0  0  0  0
 35 49  1  0  0  0  0
 35 74  1  0  0  0  0
 35 79  2  0  0  0  0
 36 64  1  0  0  0  0
 36 69  1  0  0  0  0
 36 80  2  0  0  0  0
 37 65  1  0  0  0  0
 37 75  1  0  0  0  0
 37 81  2  0  0  0  0
 38 70  1  0  0  0  0
 38 76  1  0  0  0  0
 38 82  2  0  0  0  0
 39 42  1  0  0  0  0
 40 49  1  0  0  0  0
 41 69  1  0  0  0  0
 42 44  1  0  0  0  0
 43 45  1  0  0  0  0
 43 46  1  0  0  0  0
 44 48  1  0  0  0  0
 45 50  1  0  0  0  0
 46 70  1  0  0  0  0
 47 50  1  0  0  0  0
 47 70  1  0  0  0  0
 48 74  1  0  0  0  0
 49 69  1  0  0  0  0
 50 68  1  0  0  0  0
 52 58  1  0  0  0  0
 53 65  1  0  0  0  0
 54 66  1  0  0  0  0
 55 66  1  0  0  0  0
 56 66  1  0  0  0  0
 57 77  1  0  0  0  0
 58 59  1  0  0  0  0
 59 63  1  0  0  0  0
 60 61  1  0  0  0  0
 60 62  1  0  0  0  0
 61 84  1  0  0  0  0
 62 85  1  0  0  0  0
 63 76  1  0  0  0  0
 64 66  1  0  0  0  0
 64 75  1  0  0  0  0
 65 77  1  0  0  0  0
 67 68  1  0  0  0  0
M  CHG  1  77   1
M  ISO  4  38 100  61 101  76 100  84 101
M  END
> <Batch ID>
0101

> <Smiles>
CCCC([100NH:0][100C:0](=O)N1CCCC(n2nc(-c3ccc(Oc4ccc(F)cc4F)cc3)c(C(N)=O)c2N)C1)c1cc(C)c(OCC[101CH2:1][101O:1]c2ccc3c(c2)CN(C(=O)C(NC(=O)C(C)NC)C(C)(C)C)C(C(=O)NC2CCCc4ccccc42)C3)c(N)c1

> <Shape>
0.196

> <Color>
0.099

> <Negative vol penalty>
0.000

$$$$

  -OEChem-04052301003D

 86 95  0     1  0  0  0  0  0999 V2000
  -22.7526   -8.5734   21.9433 C   0  0  0  0  0  0  0  0  0  0  0  0
  -23.9808   -9.1495   22.2515 C   0  0  0  0  0  0  0  0  0  0  0  0
  -22.1990  -29.0550   23.5663 C   0  0  0  0  0  0  0  0  0  0  0  0
  -21.2368  -28.6253   21.3923 C   0  0  0  0  0  0  0  0  0  0  0  0
  -31.9128  -23.5236   20.0060 C   0  0  0  0  0  0  0  0  0  0  0  0
  -21.9842   -9.0888   20.9003 C   0  0  0  0  0  0  0  0  0  0  0  0
  -24.4419  -10.2409   21.5161 C   0  0  0  0  0  0  0  0  0  0  0  0
  -28.3025  -16.2314   22.2407 C   0  0  0  0  0  0  0  0  0  0  0  0
  -30.8392  -24.3905   19.8025 C   0  0  0  0  0  0  0  0  0  0  0  0
  -21.0495  -28.5510   24.1747 C   0  0  0  0  0  0  0  0  0  0  0  0
  -20.0873  -28.1212   22.0007 C   0  0  0  0  0  0  0  0  0  0  0  0
  -29.3867  -16.8905   21.6629 C   0  0  0  0  0  0  0  0  0  0  0  0
  -17.3094  -29.3521   23.4837 C   0  0  0  0  0  0  0  0  0  0  0  0
  -16.0758  -29.7633   22.9792 C   0  0  0  0  0  0  0  0  0  0  0  0
  -32.5786  -23.8070   17.7009 C   0  0  0  0  0  0  0  0  0  0  0  0
  -27.9379  -17.7460   19.9344 C   0  0  0  0  0  0  0  0  0  0  0  0
  -15.5171  -27.4676   22.4742 C   0  0  0  0  0  0  0  0  0  0  0  0
  -22.2926  -29.0922   22.1751 C   0  0  0  0  0  0  0  0  0  0  0  0
  -32.7826  -23.2319   18.9552 C   0  0  0  0  0  0  0  0  0  0  0  0
  -24.0117  -30.9100   21.6770 C   0  0  0  0  0  0  0  0  0  0  0  0
  -22.4317  -10.1930   20.1580 C   0  0  0  0  0  0  0  0  0  0  0  0
  -27.0278  -16.3160   21.6625 C   0  0  0  0  0  0  0  0  0  0  0  0
  -23.6794  -10.7707   20.4613 C   0  0  0  0  0  0  0  0  0  0  0  0
  -26.8386  -17.0892   20.5082 C   0  0  0  0  0  0  0  0  0  0  0  0
  -30.6352  -24.9656   18.5482 C   0  0  0  0  0  0  0  0  0  0  0  0
  -19.9936  -28.0841   23.3919 C   0  0  0  0  0  0  0  0  0  0  0  0
  -29.2051  -17.6456   20.5080 C   0  0  0  0  0  0  0  0  0  0  0  0
  -17.6470  -27.9987   23.4834 C   0  0  0  0  0  0  0  0  0  0  0  0
  -15.1796  -28.8211   22.4745 C   0  0  0  0  0  0  0  0  0  0  0  0
  -31.5049  -24.6739   17.4974 C   0  0  0  0  0  0  0  0  0  0  0  0
  -16.7509  -27.0565   22.9787 C   0  0  0  0  0  0  0  0  0  0  0  0
  -23.4796  -29.6133   21.5460 C   0  0  0  0  0  0  0  0  0  0  0  0
  -25.1351  -30.9016   20.8869 C   0  0  0  0  0  0  0  0  0  0  0  0
  -33.9150  -22.3172   19.1699 C   0  0  0  0  0  0  0  0  0  0  0  0
  -23.5333  -32.0227   22.4444 C   0  0  0  0  0  0  0  0  0  0  0  0
  -24.9926  -14.2240   20.4034 C   0  0  0  0  0  0  0  0  0  0  0  0
  -23.0323  -16.8047   20.2643 C   0  0  0  0  0  0  0  0  0  0  0  0
  -22.7177  -20.2007   20.1419 C   0  0  0  0  0  0  0  0  0  0  0  0
  -28.5816  -26.2448   19.2768 C   0  0  0  0  0  0  0  0  0  0  0  0
  -21.5878  -10.6855   19.0091 C   0  0  0  0  0  0  0  0  0  0  0  0
  -25.8633  -15.6209   22.3130 C   0  0  0  0  0  0  0  0  0  0  0  0
  -25.4863  -17.2285   19.8598 C   0  0  0  0  0  0  0  0  0  0  0  0
  -21.9766  -12.0786   18.5210 C   0  0  0  0  0  0  0  0  0  0  0  0
  -26.2815  -28.2852   16.9811 C   0  0  0  0  0  0  0  0  0  0  0  0
  -23.4899  -12.1854   18.3617 C   0  0  0  0  0  0  0  0  0  0  0  0
  -25.9196  -29.4238   17.9319 C   0  0  0  0  0  0  0  0  0  0  0  0
  -33.9710  -18.8441   20.4095 C   0  0  0  0  0  0  0  0  0  0  0  0
  -27.5916  -27.6080   17.3632 C   0  0  0  0  0  0  0  0  0  0  0  0
  -34.6785  -20.0424   19.7959 C   0  0  0  0  0  0  0  0  0  0  0  0
  -32.3040  -20.4252   19.7539 C   0  0  0  0  0  0  0  0  0  0  0  0
  -26.5398  -27.6200   19.6325 C   0  0  0  0  0  0  0  0  0  0  0  0
  -24.2023  -11.9711   19.7026 C   0  0  1  0  0  0  0  0  0  0  0  0
  -24.7106  -15.3570   21.3491 C   0  0  1  0  0  0  0  0  0  0  0  0
  -32.5708  -18.9216   19.7964 C   0  0  2  0  0  0  0  0  0  0  0  0
  -26.2617  -29.1137   19.4027 C   0  0  2  0  0  0  0  0  0  0  0  0
  -20.9902  -22.0150   19.9954 C   0  0  0  0  0  0  0  0  0  0  0  0
  -22.6494  -16.1973   17.2987 C   0  0  0  0  0  0  0  0  0  0  0  0
  -21.7299  -18.5087   17.0154 C   0  0  0  0  0  0  0  0  0  0  0  0
  -20.5653  -16.8785   18.5017 C   0  0  0  0  0  0  0  0  0  0  0  0
  -23.5434  -21.3565   22.7383 C   0  0  0  0  0  0  0  0  0  0  0  0
  -31.5284  -18.1480   20.5836 C   0  0  0  0  0  0  0  0  0  1  0  0
  -22.7603  -17.8871   19.2477 C   0  0  1  0  0  0  0  0  0  0  0  0
  -21.8382  -21.1597   20.9239 C   0  0  2  0  0  0  0  0  0  0  0  0
  -21.9522  -17.3639   18.0268 C   0  0  0  0  0  0  0  0  0  0  0  0
  -24.2052  -28.8376   20.7362 N   0  0  0  0  0  0  0  0  0  0  0  0
  -25.2047  -29.6492   20.3512 N   0  0  0  0  0  0  0  0  0  0  0  0
  -33.6259  -21.0221   19.5713 N   0  0  0  0  0  0  0  0  0  0  0  0
  -24.3802  -16.5248   20.5299 N   0  0  0  0  0  0  0  0  0  0  0  0
  -27.6143  -27.1390   18.7563 N   0  0  0  0  0  0  0  0  0  0  0  0
  -26.0603  -31.8434   20.6049 N   0  0  0  0  0  0  0  0  0  0  0  0
  -22.6368  -32.9147   21.8404 N   0  0  0  0  0  0  0  0  0  0  0  0
  -29.5430  -25.8456   18.3446 N   0  0  0  0  0  0  0  0  0  0  0  0
  -24.1141  -13.1635   20.5181 N   0  0  0  0  0  0  0  0  0  0  0  0
  -22.1111  -18.9741   19.9725 N   0  0  0  0  0  0  0  0  0  0  0  0
  -22.6753  -22.0639   21.7621 N   0  3  0  0  0  0  0  0  0  0  0  0
  -35.0443  -22.7597   18.9687 O   0  0  0  0  0  0  0  0  0  0  0  0
  -23.9030  -32.2291   23.6251 O   0  0  0  0  0  0  0  0  0  0  0  0
  -25.9364  -14.3064   19.6262 O   0  0  0  0  0  0  0  0  0  0  0  0
  -22.0837  -16.2337   20.8081 O   0  0  0  0  0  0  0  0  0  0  0  0
  -23.8298  -20.5102   19.7202 O   0  0  0  0  0  0  0  0  0  0  0  0
  -28.5592  -25.8797   20.4541 O   0  0  0  0  0  0  0  0  0  0  0  0
  -18.8719  -27.5919   23.9853 O   0  0  0  0  0  0  0  0  0  0  0  0
  -30.2618  -18.2894   19.9417 O   0  0  0  0  0  0  0  0  0  1  0  0
  -13.9943  -29.2159   21.9915 F   0  0  0  0  0  0  0  0  0  0  0  0
  -31.3184  -25.2203   16.2872 F   0  0  0  0  0  0  0  0  0  0  0  0
  -17.0691  -25.7547   22.9768 F   0  0  0  0  0  0  0  0  0  0  0  0
  1  2  1  0  0  0  0
  1  6  2  0  0  0  0
  2  7  2  0  0  0  0
  3 10  2  0  0  0  0
  3 18  1  0  0  0  0
  4 11  1  0  0  0  0
  4 18  2  0  0  0  0
  5  9  2  0  0  0  0
  5 19  1  0  0  0  0
  6 21  1  0  0  0  0
  7 23  1  0  0  0  0
  8 12  2  0  0  0  0
  8 22  1  0  0  0  0
  9 25  1  0  0  0  0
 10 26  1  0  0  0  0
 11 26  2  0  0  0  0
 12 27  1  0  0  0  0
 13 14  2  0  0  0  0
 13 28  1  0  0  0  0
 14 29  1  0  0  0  0
 15 19  2  0  0  0  0
 15 30  1  0  0  0  0
 16 24  1  0  0  0  0
 16 27  2  0  0  0  0
 17 29  2  0  0  0  0
 17 31  1  0  0  0  0
 18 32  1  0  0  0  0
 19 34  1  0  0  0  0
 20 32  1  0  0  0  0
 20 33  2  0  0  0  0
 20 35  1  0  0  0  0
 21 23  2  0  0  0  0
 21 40  1  0  0  0  0
 22 24  2  0  0  0  0
 22 41  1  0  0  0  0
 23 52  1  0  0  0  0
 24 42  1  0  0  0  0
 25 30  2  0  0  0  0
 25 72  1  0  0  0  0
 26 82  1  0  0  0  0
 27 83  1  0  0  0  0
 28 31  2  0  0  0  0
 28 82  1  0  0  0  0
 29 84  1  0  0  0  0
 30 85  1  0  0  0  0
 31 86  1  0  0  0  0
 32 65  2  0  0  0  0
 33 66  1  0  0  0  0
 33 70  1  0  0  0  0
 34 67  1  0  0  0  0
 34 76  2  0  0  0  0
 35 71  1  0  0  0  0
 35 77  2  0  0  0  0
 36 53  1  0  0  0  0
 36 73  1  0  0  0  0
 36 78  2  0  0  0  0
 37 62  1  0  0  0  0
 37 68  1  0  0  0  0
 37 79  2  0  0  0  0
 38 63  1  0  0  0  0
 38 74  1  0  0  0  0
 38 80  2  0  0  0  0
 39 69  1  0  0  0  0
 39 72  1  0  0  0  0
 39 81  2  0  0  0  0
 40 43  1  0  0  0  0
 41 53  1  0  0  0  0
 42 68  1  0  0  0  0
 43 45  1  0  0  0  0
 44 46  1  0  0  0  0
 44 48  1  0  0  0  0
 45 52  1  0  0  0  0
 46 55  1  0  0  0  0
 47 49  1  0  0  0  0
 47 54  1  0  0  0  0
 48 69  1  0  0  0  0
 49 67  1  0  0  0  0
 50 54  1  0  0  0  0
 50 67  1  0  0  0  0
 51 55  1  0  0  0  0
 51 69  1  0  0  0  0
 52 73  1  0  0  0  0
 53 68  1  0  0  0  0
 54 61  1  0  0  0  0
 55 66  1  0  0  0  0
 56 63  1  0  0  0  0
 57 64  1  0  0  0  0
 58 64  1  0  0  0  0
 59 64  1  0  0  0  0
 60 75  1  0  0  0  0
 61 83  1  0  0  0  0
 62 64  1  0  0  0  0
 62 74  1  0  0  0  0
 63 75  1  0  0  0  0
 65 66  1  0  0  0  0
M  CHG  1  75   1
M  ISO  4  39 100  61 101  72 100  83 101
M  END
> <Batch ID>
0101

> <Smiles>
CNC(C)C(=O)NC(C(=O)N1Cc2cc([101O:1][101CH2:1]C3CCN(C(=O)c4ccc([100NH:0][100C:0](=O)N5CCCC(n6nc(-c7ccc(Oc8ccc(F)cc8F)cc7)c(C(N)=O)c6N)C5)c(F)c4)C3)ccc2CC1C(=O)NC1CCCc2ccccc21)C(C)(C)C

> <Shape>
0.251

> <Color>
0.076

> <Negative vol penalty>
0.000

$$$$

  -OEChem-04052301003D

 85 94  0     1  0  0  0  0  0999 V2000
  -20.7116  -26.5066   24.2195 C   0  0  0  0  0  0  0  0  0  0  0  0
  -20.2347  -25.2069   24.3569 C   0  0  0  0  0  0  0  0  0  0  0  0
  -27.8359  -23.5448   20.8892 C   0  0  0  0  0  0  0  0  0  0  0  0
  -28.5926  -23.2672   18.6116 C   0  0  0  0  0  0  0  0  0  0  0  0
  -29.0486  -14.1936   20.3968 C   0  0  0  0  0  0  0  0  0  0  0  0
  -20.9376  -27.0343   22.9489 C   0  0  0  0  0  0  0  0  0  0  0  0
  -19.9825  -24.4346   23.2236 C   0  0  0  0  0  0  0  0  0  0  0  0
  -23.3282  -18.1363   22.2088 C   0  0  0  0  0  0  0  0  0  0  0  0
  -27.8211  -13.6368   20.7558 C   0  0  0  0  0  0  0  0  0  0  0  0
  -27.8703  -24.9303   20.7318 C   0  0  0  0  0  0  0  0  0  0  0  0
  -28.6269  -24.6527   18.4541 C   0  0  0  0  0  0  0  0  0  0  0  0
  -23.7694  -16.8230   22.0458 C   0  0  0  0  0  0  0  0  0  0  0  0
  -25.9433  -27.3259   19.3244 C   0  0  0  0  0  0  0  0  0  0  0  0
  -24.8557  -28.0593   19.7984 C   0  0  0  0  0  0  0  0  0  0  0  0
  -22.6293  -16.6929   19.9171 C   0  0  0  0  0  0  0  0  0  0  0  0
  -27.2062  -13.4888   18.4240 C   0  0  0  0  0  0  0  0  0  0  0  0
  -26.3220  -29.2704   21.2885 C   0  0  0  0  0  0  0  0  0  0  0  0
  -28.1971  -22.7132   19.8291 C   0  0  0  0  0  0  0  0  0  0  0  0
  -29.3549  -14.3981   19.0514 C   0  0  0  0  0  0  0  0  0  0  0  0
  -27.0765  -20.4234   19.7350 C   0  0  0  0  0  0  0  0  0  0  0  0
  -20.6973  -26.2647   21.7998 C   0  0  0  0  0  0  0  0  0  0  0  0
  -22.5477  -18.7388   21.2182 C   0  0  0  0  0  0  0  0  0  0  0  0
  -20.2043  -24.9530   21.9364 C   0  0  0  0  0  0  0  0  0  0  0  0
  -22.1949  -18.0123   20.0691 C   0  0  0  0  0  0  0  0  0  0  0  0
  -26.9000  -13.2844   19.7695 C   0  0  0  0  0  0  0  0  0  0  0  0
  -28.2657  -25.4843   19.5142 C   0  0  0  0  0  0  0  0  0  0  0  0
  -23.4206  -16.1030   20.9028 C   0  0  0  0  0  0  0  0  0  0  0  0
  -27.2203  -27.5646   19.8324 C   0  0  0  0  0  0  0  0  0  0  0  0
  -25.0450  -29.0316   20.7805 C   0  0  0  0  0  0  0  0  0  0  0  0
  -28.4337  -14.0457   18.0650 C   0  0  0  0  0  0  0  0  0  0  0  0
  -27.4096  -28.5369   20.8145 C   0  0  0  0  0  0  0  0  0  0  0  0
  -28.1624  -21.2819   19.9913 C   0  0  0  0  0  0  0  0  0  0  0  0
  -27.5486  -19.1711   20.0436 C   0  0  0  0  0  0  0  0  0  0  0  0
  -30.6359  -14.9795   18.6816 C   0  0  0  0  0  0  0  0  0  0  0  0
  -25.7589  -20.7306   19.2603 C   0  0  0  0  0  0  0  0  0  0  0  0
  -31.6329  -15.3636   19.7071 C   0  0  0  0  0  0  0  0  0  0  0  0
  -20.7214  -21.8076   20.0677 C   0  0  0  0  0  0  0  0  0  0  0  0
  -22.1196  -20.6272   17.6056 C   0  0  0  0  0  0  0  0  0  0  0  0
  -24.1537  -19.2513   15.2378 C   0  0  0  0  0  0  0  0  0  0  0  0
  -20.9117  -26.8946   20.4463 C   0  0  0  0  0  0  0  0  0  0  0  0
  -21.9990  -20.1305   21.3799 C   0  0  0  0  0  0  0  0  0  0  0  0
  -21.3247  -18.6895   19.0457 C   0  0  0  0  0  0  0  0  0  0  0  0
  -20.9750  -25.8815   19.3061 C   0  0  0  0  0  0  0  0  0  0  0  0
  -31.7701  -17.7211   22.4053 C   0  0  0  0  0  0  0  0  0  0  0  0
  -24.1214  -10.9834   20.2236 C   0  0  0  0  0  0  0  0  0  0  0  0
  -19.8380  -24.8717   19.4254 C   0  0  0  0  0  0  0  0  0  0  0  0
  -30.7828  -18.8061   21.9767 C   0  0  0  0  0  0  0  0  0  0  0  0
  -23.7668  -11.9945   21.2994 C   0  0  0  0  0  0  0  0  0  0  0  0
  -24.9793  -11.7910   19.2573 C   0  0  0  0  0  0  0  0  0  0  0  0
  -32.4941  -17.1193   21.2052 C   0  0  0  0  0  0  0  0  0  0  0  0
  -30.5841  -17.6661   19.7214 C   0  0  0  0  0  0  0  0  0  0  0  0
  -19.9422  -24.0753   20.7317 C   0  0  1  0  0  0  0  0  0  0  0  0
  -21.9210  -20.9064   20.0529 C   0  0  1  0  0  0  0  0  0  0  0  0
  -29.8135  -18.2782   20.9042 C   0  0  2  0  0  0  0  0  0  0  0  0
  -25.0401  -12.8467   21.4404 C   0  0  2  0  0  0  0  0  0  0  0  0
  -24.8361  -19.5085   12.8366 C   0  0  0  0  0  0  0  0  0  0  0  0
  -19.4755  -19.3872   16.7252 C   0  0  0  0  0  0  0  0  0  0  0  0
  -20.5577  -18.8017   14.5447 C   0  0  0  0  0  0  0  0  0  0  0  0
  -20.3335  -21.1921   15.2217 C   0  0  0  0  0  0  0  0  0  0  0  0
  -26.9801  -19.7322   15.9717 C   0  0  0  0  0  0  0  0  0  0  0  0
  -24.6681  -14.2835   21.7920 C   0  0  0  0  0  0  0  0  0  1  0  0
  -22.0156  -19.7213   16.4048 C   0  0  1  0  0  0  0  0  0  0  0  0
  -25.1498  -19.8770   14.2783 C   0  0  2  0  0  0  0  0  0  0  0  0
  -20.6067  -19.7665   15.7487 C   0  0  0  0  0  0  0  0  0  0  0  0
  -29.2428  -20.6301   20.4292 N   0  0  0  0  0  0  0  0  0  0  0  0
  -30.9930  -15.1984   17.4450 N   0  0  0  0  0  0  0  0  0  0  0  0
  -28.8382  -19.3487   20.4505 N   0  0  0  0  0  0  0  0  0  0  0  0
  -25.6850  -12.7331   20.1246 N   0  0  3  0  0  0  0  0  0  0  0  0
  -31.5463  -16.6614   20.1913 N   0  0  0  0  0  0  0  0  0  0  0  0
  -21.7718  -20.0768   18.8452 N   0  0  0  0  0  0  0  0  0  0  0  0
  -26.9823  -17.9463   20.0040 N   0  0  0  0  0  0  0  0  0  0  0  0
  -25.4404  -22.0688   18.9922 N   0  0  0  0  0  0  0  0  0  0  0  0
  -20.9592  -23.0518   20.6199 N   0  0  0  0  0  0  0  0  0  0  0  0
  -23.1036  -20.1022   15.5106 N   0  0  0  0  0  0  0  0  0  0  0  0
  -26.5315  -19.4145   14.5916 N   0  3  0  0  0  0  0  0  0  0  0  0
  -24.8846  -19.8464   19.0950 O   0  0  0  0  0  0  0  0  0  0  0  0
  -32.4316  -14.4902   20.0193 O   0  0  0  0  0  0  0  0  0  0  0  0
  -19.6579  -21.4054   19.6108 O   0  0  0  0  0  0  0  0  0  0  0  0
  -22.4933  -21.7933   17.4509 O   0  0  0  0  0  0  0  0  0  0  0  0
  -24.2913  -18.1193   15.6962 O   0  0  0  0  0  0  0  0  0  0  0  0
  -28.2991  -26.8362   19.3602 O   0  0  0  0  0  0  0  0  0  0  0  0
  -23.8585  -14.8227   20.7480 O   0  0  0  0  0  0  0  0  0  1  0  0
  -24.0007  -29.7369   21.2345 F   0  0  0  0  0  0  0  0  0  0  0  0
  -28.7169  -14.2402   16.7692 F   0  0  0  0  0  0  0  0  0  0  0  0
  -28.6341  -28.7716   21.3055 F   0  0  0  0  0  0  0  0  0  0  0  0
  1  2  1  0  0  0  0
  1  6  2  0  0  0  0
  2  7  2  0  0  0  0
  3 10  2  0  0  0  0
  3 18  1  0  0  0  0
  4 11  1  0  0  0  0
  4 18  2  0  0  0  0
  5  9  2  0  0  0  0
  5 19  1  0  0  0  0
  6 21  1  0  0  0  0
  7 23  1  0  0  0  0
  8 12  2  0  0  0  0
  8 22  1  0  0  0  0
  9 25  1  0  0  0  0
 10 26  1  0  0  0  0
 11 26  2  0  0  0  0
 12 27  1  0  0  0  0
 13 14  2  0  0  0  0
 13 28  1  0  0  0  0
 14 29  1  0  0  0  0
 15 24  1  0  0  0  0
 15 27  2  0  0  0  0
 16 25  2  0  0  0  0
 16 30  1  0  0  0  0
 17 29  2  0  0  0  0
 17 31  1  0  0  0  0
 18 32  1  0  0  0  0
 19 30  2  0  0  0  0
 19 34  1  0  0  0  0
 20 32  1  0  0  0  0
 20 33  2  0  0  0  0
 20 35  1  0  0  0  0
 21 23  2  0  0  0  0
 21 40  1  0  0  0  0
 22 24  2  0  0  0  0
 22 41  1  0  0  0  0
 23 52  1  0  0  0  0
 24 42  1  0  0  0  0
 25 68  1  0  0  0  0
 26 81  1  0  0  0  0
 27 82  1  0  0  0  0
 28 31  2  0  0  0  0
 28 81  1  0  0  0  0
 29 83  1  0  0  0  0
 30 84  1  0  0  0  0
 31 85  1  0  0  0  0
 32 65  2  0  0  0  0
 33 67  1  0  0  0  0
 33 71  1  0  0  0  0
 34 36  1  0  0  0  0
 34 66  2  0  0  0  0
 35 72  1  0  0  0  0
 35 76  2  0  0  0  0
 36 69  1  0  0  0  0
 36 77  2  0  0  0  0
 37 53  1  0  0  0  0
 37 73  1  0  0  0  0
 37 78  2  0  0  0  0
 38 62  1  0  0  0  0
 38 70  1  0  0  0  0
 38 79  2  0  0  0  0
 39 63  1  0  0  0  0
 39 74  1  0  0  0  0
 39 80  2  0  0  0  0
 40 43  1  0  0  0  0
 41 53  1  0  0  0  0
 42 70  1  0  0  0  0
 43 46  1  0  0  0  0
 44 47  1  0  0  0  0
 44 50  1  0  0  0  0
 45 48  1  0  0  0  0
 45 49  1  0  0  0  0
 46 52  1  0  0  0  0
 47 54  1  0  0  0  0
 48 55  1  0  0  0  0
 49 68  1  0  0  0  0
 50 69  1  0  0  0  0
 51 54  1  0  0  0  0
 51 69  1  0  0  0  0
 52 73  1  0  0  0  0
 53 70  1  0  0  0  0
 54 67  1  0  0  0  0
 55 61  1  0  0  0  0
 55 68  1  0  0  0  0
 56 63  1  0  0  0  0
 57 64  1  0  0  0  0
 58 64  1  0  0  0  0
 59 64  1  0  0  0  0
 60 75  1  0  0  0  0
 61 82  1  0  0  0  0
 62 64  1  0  0  0  0
 62 74  1  0  0  0  0
 63 75  1  0  0  0  0
 65 67  1  0  0  0  0
M  CHG  1  75   1
M  ISO  4  34 100  36 100  61 101  82 101
M  END
> <Batch ID>
0101

> <Smiles>
CNC(C)C(=O)NC(C(=O)N1Cc2cc([101O:1][101CH2:1]C3CCCN3c3ccc([100C:0](=N)[100C:0](=O)N4CCCC(n5nc(-c6ccc(Oc7ccc(F)cc7F)cc6)c(C(N)=O)c5N)C4)c(F)c3)ccc2CC1C(=O)NC1CCCc2ccccc21)C(C)(C)C

> <Shape>
0.212

> <Color>
0.073

> <Negative vol penalty>
0.000

$$$$

  -OEChem-04052301003D

 85 93  0     1  0  0  0  0  0999 V2000
  -16.7734  -28.7602   24.0373 C   0  0  0  0  0  0  0  0  0  0  0  0
  -17.1766  -28.1621   22.8477 C   0  0  0  0  0  0  0  0  0  0  0  0
  -24.7423  -12.2761   20.8615 C   0  0  0  0  0  0  0  0  0  0  0  0
  -24.2021  -13.1345   18.6687 C   0  0  0  0  0  0  0  0  0  0  0  0
  -17.5567  -29.7587   24.6147 C   0  0  0  0  0  0  0  0  0  0  0  0
  -18.3629  -28.5630   22.2342 C   0  0  0  0  0  0  0  0  0  0  0  0
  -22.2588  -25.0328   19.0933 C   0  0  0  0  0  0  0  0  0  0  0  0
  -29.2213  -22.6616   16.9448 C   0  0  0  0  0  0  0  0  0  0  0  0
  -27.6713  -24.2917   17.8266 C   0  0  0  0  0  0  0  0  0  0  0  0
  -28.7368  -21.7135   17.8459 C   0  0  0  0  0  0  0  0  0  0  0  0
  -27.1868  -23.3436   18.7277 C   0  0  0  0  0  0  0  0  0  0  0  0
  -23.9424  -11.1589   20.6212 C   0  0  0  0  0  0  0  0  0  0  0  0
  -23.4023  -12.0172   18.4284 C   0  0  0  0  0  0  0  0  0  0  0  0
  -22.4339  -24.8140   17.7276 C   0  0  0  0  0  0  0  0  0  0  0  0
  -24.1810   -8.2424   18.9271 C   0  0  0  0  0  0  0  0  0  0  0  0
  -24.6937   -6.9918   19.2718 C   0  0  0  0  0  0  0  0  0  0  0  0
  -24.1899  -26.4676   17.6939 C   0  0  0  0  0  0  0  0  0  0  0  0
  -22.8447   -6.6521   20.7894 C   0  0  0  0  0  0  0  0  0  0  0  0
  -24.8721  -13.2639   19.8852 C   0  0  0  0  0  0  0  0  0  0  0  0
  -27.0696  -14.5591   19.8500 C   0  0  0  0  0  0  0  0  0  0  0  0
  -18.7581  -30.1653   24.0130 C   0  0  0  0  0  0  0  0  0  0  0  0
  -23.0418  -25.9801   19.7685 C   0  0  0  0  0  0  0  0  0  0  0  0
  -19.1623  -29.5688   22.8033 C   0  0  0  0  0  0  0  0  0  0  0  0
  -24.0245  -26.6948   19.0687 C   0  0  0  0  0  0  0  0  0  0  0  0
  -28.6886  -23.9508   16.9352 C   0  0  0  0  0  0  0  0  0  0  0  0
  -27.7196  -22.0544   18.7373 C   0  0  0  0  0  0  0  0  0  0  0  0
  -23.2724  -11.0295   19.4047 C   0  0  0  0  0  0  0  0  0  0  0  0
  -23.3976  -25.5335   17.0271 C   0  0  0  0  0  0  0  0  0  0  0  0
  -23.0002   -8.6979   19.5136 C   0  0  0  0  0  0  0  0  0  0  0  0
  -24.0256   -6.1967   20.2029 C   0  0  0  0  0  0  0  0  0  0  0  0
  -22.3320   -7.9027   20.4447 C   0  0  0  0  0  0  0  0  0  0  0  0
  -25.6977  -14.4184   20.1331 C   0  0  0  0  0  0  0  0  0  0  0  0
  -27.3784  -15.8297   20.2704 C   0  0  0  0  0  0  0  0  0  0  0  0
  -27.9830  -13.6248   19.2598 C   0  0  0  0  0  0  0  0  0  0  0  0
  -22.4395  -28.6690   21.3531 C   0  0  0  0  0  0  0  0  0  0  0  0
  -25.6071  -28.5174   22.0355 C   0  0  0  0  0  0  0  0  0  0  0  0
  -28.1093  -25.4976   15.0499 C   0  0  0  0  0  0  0  0  0  0  0  0
  -28.7045  -27.3713   21.1755 C   0  0  0  0  0  0  0  0  0  0  0  0
  -26.2217  -21.2661   20.6032 C   0  0  0  0  0  0  0  0  0  0  0  0
  -19.5474  -31.2817   24.6496 C   0  0  0  0  0  0  0  0  0  0  0  0
  -22.8588  -26.1852   21.2473 C   0  0  0  0  0  0  0  0  0  0  0  0
  -24.9049  -27.7085   19.7512 C   0  0  0  0  0  0  0  0  0  0  0  0
  -20.9799  -31.3866   24.1326 C   0  0  0  0  0  0  0  0  0  0  0  0
  -24.6994  -19.1337   23.0142 C   0  0  0  0  0  0  0  0  0  0  0  0
  -21.0051  -31.3044   22.6096 C   0  0  0  0  0  0  0  0  0  0  0  0
  -24.9363  -17.7285   22.4563 C   0  0  0  0  0  0  0  0  0  0  0  0
  -24.4246  -20.1460   21.9035 C   0  0  0  0  0  0  0  0  0  0  0  0
  -25.6663  -18.7762   20.2753 C   0  0  0  0  0  0  0  0  0  0  0  0
  -20.4552  -29.9591   22.1205 C   0  0  1  0  0  0  0  0  0  0  0  0
  -23.3608  -27.5430   21.7288 C   0  0  1  0  0  0  0  0  0  0  0  0
  -26.0115  -17.7344   21.3520 C   0  0  2  0  0  0  0  0  0  0  0  0
  -31.1646  -26.9250   21.3904 C   0  0  0  0  0  0  0  0  0  0  0  0
  -25.8486  -31.3601   20.9536 C   0  0  0  0  0  0  0  0  0  0  0  0
  -28.3260  -31.0242   20.8198 C   0  0  0  0  0  0  0  0  0  0  0  0
  -27.1722  -30.9178   23.0289 C   0  0  0  0  0  0  0  0  0  0  0  0
  -28.2356  -24.8387   22.6333 C   0  0  0  0  0  0  0  0  0  0  0  0
  -25.0925  -24.5770   13.9952 C   0  0  0  0  0  0  0  0  0  0  0  0
  -26.4630  -24.7295   13.3492 C   0  0  0  0  0  0  0  0  0  0  0  0
  -24.8811  -25.5264   15.1682 C   0  0  0  0  0  0  0  0  0  1  0  0
  -29.2140  -24.9787   15.9582 C   0  0  1  0  0  0  0  0  0  0  0  0
  -26.8677  -29.0263   21.3791 C   0  0  1  0  0  0  0  0  0  0  0  0
  -29.7874  -26.6872   21.9901 C   0  0  2  0  0  0  0  0  0  0  0  0
  -27.0359  -30.5645   21.5318 C   0  0  0  0  0  0  0  0  0  0  0  0
  -25.1714  -15.5123   20.6904 N   0  0  0  0  0  0  0  0  0  0  0  0
  -26.2180  -16.3523   20.7609 N   0  0  0  0  0  0  0  0  0  0  0  0
  -24.6833  -27.8778   21.1969 N   0  0  0  0  0  0  0  0  0  0  0  0
  -25.4864  -20.0980   20.8960 N   0  0  0  0  0  0  0  0  0  0  0  0
  -28.5266  -16.5396   20.2647 N   0  0  0  0  0  0  0  0  0  0  0  0
  -27.4999  -12.3634   18.8858 N   0  0  0  0  0  0  0  0  0  0  0  0
  -27.2270  -21.0914   19.6526 N   0  0  0  0  0  0  0  0  0  0  0  0
  -21.4478  -28.9184   22.2825 N   0  0  0  0  0  0  0  0  0  0  0  0
  -27.5342  -24.4936   14.2772 N   0  0  0  0  0  0  0  0  0  0  0  0
  -27.9646  -28.2465   21.9422 N   0  0  0  0  0  0  0  0  0  0  0  0
  -29.8894  -26.1314   16.6355 N   0  3  0  0  0  0  0  0  0  0  0  0
  -29.5453  -25.2177   22.0433 N   0  3  0  0  0  0  0  0  0  0  0  0
  -29.1955  -13.8945   19.0847 O   0  0  0  0  0  0  0  0  0  0  0  0
  -22.6163  -29.2681   20.2988 O   0  0  0  0  0  0  0  0  0  0  0  0
  -25.4512  -28.6749   23.2490 O   0  0  0  0  0  0  0  0  0  0  0  0
  -27.7731  -26.6800   15.0275 O   0  0  0  0  0  0  0  0  0  0  0  0
  -28.5345  -27.1540   19.9778 O   0  0  0  0  0  0  0  0  0  0  0  0
  -25.9955  -22.3357   21.1748 O   0  0  0  0  0  0  0  0  0  0  0  0
  -22.4921   -9.9393   19.1697 O   0  0  0  0  0  0  0  0  0  0  0  0
  -23.5702  -25.3223   15.6938 O   0  0  0  0  0  0  0  0  0  1  0  0
  -24.5172   -4.9951   20.5327 F   0  0  0  0  0  0  0  0  0  0  0  0
  -21.1966   -8.3344   21.0106 F   0  0  0  0  0  0  0  0  0  0  0  0
  1  2  1  0  0  0  0
  1  5  2  0  0  0  0
  2  6  2  0  0  0  0
  3 12  2  0  0  0  0
  3 19  1  0  0  0  0
  4 13  1  0  0  0  0
  4 19  2  0  0  0  0
  5 21  1  0  0  0  0
  6 23  1  0  0  0  0
  7 14  2  0  0  0  0
  7 22  1  0  0  0  0
  8 10  2  0  0  0  0
  8 25  1  0  0  0  0
  9 11  1  0  0  0  0
  9 25  2  0  0  0  0
 10 26  1  0  0  0  0
 11 26  2  0  0  0  0
 12 27  1  0  0  0  0
 13 27  2  0  0  0  0
 14 28  1  0  0  0  0
 15 16  2  0  0  0  0
 15 29  1  0  0  0  0
 16 30  1  0  0  0  0
 17 24  1  0  0  0  0
 17 28  2  0  0  0  0
 18 30  2  0  0  0  0
 18 31  1  0  0  0  0
 19 32  1  0  0  0  0
 20 32  1  0  0  0  0
 20 33  2  0  0  0  0
 20 34  1  0  0  0  0
 21 23  2  0  0  0  0
 21 40  1  0  0  0  0
 22 24  2  0  0  0  0
 22 41  1  0  0  0  0
 23 49  1  0  0  0  0
 24 42  1  0  0  0  0
 25 60  1  0  0  0  0
 26 70  1  0  0  0  0
 27 82  1  0  0  0  0
 28 83  1  0  0  0  0
 29 31  2  0  0  0  0
 29 82  1  0  0  0  0
 30 84  1  0  0  0  0
 31 85  1  0  0  0  0
 32 64  2  0  0  0  0
 33 65  1  0  0  0  0
 33 68  1  0  0  0  0
 34 69  1  0  0  0  0
 34 76  2  0  0  0  0
 35 50  1  0  0  0  0
 35 71  1  0  0  0  0
 35 77  2  0  0  0  0
 36 61  1  0  0  0  0
 36 66  1  0  0  0  0
 36 78  2  0  0  0  0
 37 60  1  0  0  0  0
 37 72  1  0  0  0  0
 37 79  2  0  0  0  0
 38 62  1  0  0  0  0
 38 73  1  0  0  0  0
 38 80  2  0  0  0  0
 39 67  1  0  0  0  0
 39 70  1  0  0  0  0
 39 81  2  0  0  0  0
 40 43  1  0  0  0  0
 41 50  1  0  0  0  0
 42 66  1  0  0  0  0
 43 45  1  0  0  0  0
 44 46  1  0  0  0  0
 44 47  1  0  0  0  0
 45 49  1  0  0  0  0
 46 51  1  0  0  0  0
 47 67  1  0  0  0  0
 48 51  1  0  0  0  0
 48 67  1  0  0  0  0
 49 71  1  0  0  0  0
 50 66  1  0  0  0  0
 51 65  1  0  0  0  0
 52 62  1  0  0  0  0
 53 63  1  0  0  0  0
 54 63  1  0  0  0  0
 55 63  1  0  0  0  0
 56 75  1  0  0  0  0
 57 58  1  0  0  0  0
 57 59  1  0  0  0  0
 58 72  1  0  0  0  0
 59 83  1  0  0  0  0
 60 74  1  0  0  0  0
 61 63  1  0  0  0  0
 61 73  1  0  0  0  0
 62 75  1  0  0  0  0
 64 65  1  0  0  0  0
M  CHG  2  74   1  75   1
M  ISO  4  39 100  59 101  70 100  83 101
M  END
> <Batch ID>
0101

> <Smiles>
CNC(C)C(=O)NC(C(=O)N1Cc2cc([101O:1][101CH2:1]CCNC(=O)C(N)c3ccc([100NH:0][100C:0](=O)N4CCCC(n5nc(-c6ccc(Oc7ccc(F)cc7F)cc6)c(C(N)=O)c5N)C4)cc3)ccc2CC1C(=O)NC1CCCc2ccccc21)C(C)(C)C

> <Shape>
0.226

> <Color>
0.064

> <Negative vol penalty>
0.000

$$$$

  -OEChem-04052301003D

 86 95  0     1  0  0  0  0  0999 V2000
  -22.7526   -8.5734   21.9433 C   0  0  0  0  0  0  0  0  0  0  0  0
  -23.9808   -9.1495   22.2515 C   0  0  0  0  0  0  0  0  0  0  0  0
  -22.1990  -29.0550   23.5663 C   0  0  0  0  0  0  0  0  0  0  0  0
  -21.2368  -28.6253   21.3923 C   0  0  0  0  0  0  0  0  0  0  0  0
  -31.9128  -23.5236   20.0060 C   0  0  0  0  0  0  0  0  0  0  0  0
  -21.9842   -9.0888   20.9003 C   0  0  0  0  0  0  0  0  0  0  0  0
  -24.4419  -10.2409   21.5161 C   0  0  0  0  0  0  0  0  0  0  0  0
  -28.3025  -16.2314   22.2407 C   0  0  0  0  0  0  0  0  0  0  0  0
  -30.8392  -24.3905   19.8025 C   0  0  0  0  0  0  0  0  0  0  0  0
  -21.0495  -28.5510   24.1747 C   0  0  0  0  0  0  0  0  0  0  0  0
  -20.0873  -28.1212   22.0007 C   0  0  0  0  0  0  0  0  0  0  0  0
  -29.3867  -16.8905   21.6629 C   0  0  0  0  0  0  0  0  0  0  0  0
  -17.3094  -29.3521   23.4837 C   0  0  0  0  0  0  0  0  0  0  0  0
  -16.0758  -29.7633   22.9792 C   0  0  0  0  0  0  0  0  0  0  0  0
  -32.5786  -23.8070   17.7009 C   0  0  0  0  0  0  0  0  0  0  0  0
  -27.9379  -17.7460   19.9344 C   0  0  0  0  0  0  0  0  0  0  0  0
  -15.5171  -27.4676   22.4742 C   0  0  0  0  0  0  0  0  0  0  0  0
  -22.2926  -29.0922   22.1751 C   0  0  0  0  0  0  0  0  0  0  0  0
  -32.7826  -23.2319   18.9552 C   0  0  0  0  0  0  0  0  0  0  0  0
  -24.0117  -30.9100   21.6770 C   0  0  0  0  0  0  0  0  0  0  0  0
  -22.4317  -10.1930   20.1580 C   0  0  0  0  0  0  0  0  0  0  0  0
  -27.0278  -16.3160   21.6625 C   0  0  0  0  0  0  0  0  0  0  0  0
  -23.6794  -10.7707   20.4613 C   0  0  0  0  0  0  0  0  0  0  0  0
  -26.8386  -17.0892   20.5082 C   0  0  0  0  0  0  0  0  0  0  0  0
  -30.6352  -24.9656   18.5482 C   0  0  0  0  0  0  0  0  0  0  0  0
  -19.9936  -28.0841   23.3919 C   0  0  0  0  0  0  0  0  0  0  0  0
  -29.2051  -17.6456   20.5080 C   0  0  0  0  0  0  0  0  0  0  0  0
  -17.6470  -27.9987   23.4834 C   0  0  0  0  0  0  0  0  0  0  0  0
  -15.1796  -28.8211   22.4745 C   0  0  0  0  0  0  0  0  0  0  0  0
  -31.5049  -24.6739   17.4974 C   0  0  0  0  0  0  0  0  0  0  0  0
  -16.7509  -27.0565   22.9787 C   0  0  0  0  0  0  0  0  0  0  0  0
  -23.4796  -29.6133   21.5460 C   0  0  0  0  0  0  0  0  0  0  0  0
  -25.1351  -30.9016   20.8869 C   0  0  0  0  0  0  0  0  0  0  0  0
  -33.9150  -22.3172   19.1699 C   0  0  0  0  0  0  0  0  0  0  0  0
  -23.5333  -32.0227   22.4444 C   0  0  0  0  0  0  0  0  0  0  0  0
  -24.9926  -14.2240   20.4034 C   0  0  0  0  0  0  0  0  0  0  0  0
  -23.0323  -16.8047   20.2643 C   0  0  0  0  0  0  0  0  0  0  0  0
  -22.7177  -20.2007   20.1419 C   0  0  0  0  0  0  0  0  0  0  0  0
  -28.5816  -26.2448   19.2768 C   0  0  0  0  0  0  0  0  0  0  0  0
  -21.5878  -10.6855   19.0091 C   0  0  0  0  0  0  0  0  0  0  0  0
  -25.8633  -15.6209   22.3130 C   0  0  0  0  0  0  0  0  0  0  0  0
  -25.4863  -17.2285   19.8598 C   0  0  0  0  0  0  0  0  0  0  0  0
  -21.9766  -12.0786   18.5210 C   0  0  0  0  0  0  0  0  0  0  0  0
  -26.2815  -28.2852   16.9811 C   0  0  0  0  0  0  0  0  0  0  0  0
  -23.4899  -12.1854   18.3617 C   0  0  0  0  0  0  0  0  0  0  0  0
  -25.9196  -29.4238   17.9319 C   0  0  0  0  0  0  0  0  0  0  0  0
  -33.9710  -18.8441   20.4095 C   0  0  0  0  0  0  0  0  0  0  0  0
  -27.5916  -27.6080   17.3632 C   0  0  0  0  0  0  0  0  0  0  0  0
  -34.6785  -20.0424   19.7959 C   0  0  0  0  0  0  0  0  0  0  0  0
  -32.3040  -20.4252   19.7539 C   0  0  0  0  0  0  0  0  0  0  0  0
  -26.5398  -27.6200   19.6325 C   0  0  0  0  0  0  0  0  0  0  0  0
  -24.2023  -11.9711   19.7026 C   0  0  1  0  0  0  0  0  0  0  0  0
  -24.7106  -15.3570   21.3491 C   0  0  1  0  0  0  0  0  0  0  0  0
  -32.5708  -18.9216   19.7964 C   0  0  2  0  0  0  0  0  0  0  0  0
  -26.2617  -29.1137   19.4027 C   0  0  2  0  0  0  0  0  0  0  0  0
  -20.9902  -22.0150   19.9954 C   0  0  0  0  0  0  0  0  0  0  0  0
  -22.6494  -16.1973   17.2987 C   0  0  0  0  0  0  0  0  0  0  0  0
  -21.7299  -18.5087   17.0154 C   0  0  0  0  0  0  0  0  0  0  0  0
  -20.5653  -16.8785   18.5017 C   0  0  0  0  0  0  0  0  0  0  0  0
  -23.5434  -21.3565   22.7383 C   0  0  0  0  0  0  0  0  0  0  0  0
  -31.5284  -18.1480   20.5836 C   0  0  0  0  0  0  0  0  0  1  0  0
  -22.7603  -17.8871   19.2477 C   0  0  1  0  0  0  0  0  0  0  0  0
  -21.8382  -21.1597   20.9239 C   0  0  2  0  0  0  0  0  0  0  0  0
  -21.9522  -17.3639   18.0268 C   0  0  0  0  0  0  0  0  0  0  0  0
  -24.2052  -28.8376   20.7362 N   0  0  0  0  0  0  0  0  0  0  0  0
  -25.2047  -29.6492   20.3512 N   0  0  0  0  0  0  0  0  0  0  0  0
  -33.6259  -21.0221   19.5713 N   0  0  0  0  0  0  0  0  0  0  0  0
  -24.3802  -16.5248   20.5299 N   0  0  0  0  0  0  0  0  0  0  0  0
  -27.6143  -27.1390   18.7563 N   0  0  0  0  0  0  0  0  0  0  0  0
  -26.0603  -31.8434   20.6049 N   0  0  0  0  0  0  0  0  0  0  0  0
  -22.6368  -32.9147   21.8404 N   0  0  0  0  0  0  0  0  0  0  0  0
  -29.5430  -25.8456   18.3446 N   0  0  0  0  0  0  0  0  0  0  0  0
  -24.1141  -13.1635   20.5181 N   0  0  0  0  0  0  0  0  0  0  0  0
  -22.1111  -18.9741   19.9725 N   0  0  0  0  0  0  0  0  0  0  0  0
  -22.6753  -22.0639   21.7621 N   0  3  0  0  0  0  0  0  0  0  0  0
  -35.0443  -22.7597   18.9687 O   0  0  0  0  0  0  0  0  0  0  0  0
  -23.9030  -32.2291   23.6251 O   0  0  0  0  0  0  0  0  0  0  0  0
  -25.9364  -14.3064   19.6262 O   0  0  0  0  0  0  0  0  0  0  0  0
  -22.0837  -16.2337   20.8081 O   0  0  0  0  0  0  0  0  0  0  0  0
  -23.8298  -20.5102   19.7202 O   0  0  0  0  0  0  0  0  0  0  0  0
  -28.5592  -25.8797   20.4541 O   0  0  0  0  0  0  0  0  0  0  0  0
  -18.8719  -27.5919   23.9853 O   0  0  0  0  0  0  0  0  0  0  0  0
  -30.2618  -18.2894   19.9417 O   0  0  0  0  0  0  0  0  0  1  0  0
  -13.9943  -29.2159   21.9915 F   0  0  0  0  0  0  0  0  0  0  0  0
  -31.3184  -25.2203   16.2872 F   0  0  0  0  0  0  0  0  0  0  0  0
  -17.0691  -25.7547   22.9768 F   0  0  0  0  0  0  0  0  0  0  0  0
  1  2  1  0  0  0  0
  1  6  2  0  0  0  0
  2  7  2  0  0  0  0
  3 10  2  0  0  0  0
  3 18  1  0  0  0  0
  4 11  1  0  0  0  0
  4 18  2  0  0  0  0
  5  9  2  0  0  0  0
  5 19  1  0  0  0  0
  6 21  1  0  0  0  0
  7 23  1  0  0  0  0
  8 12  2  0  0  0  0
  8 22  1  0  0  0  0
  9 25  1  0  0  0  0
 10 26  1  0  0  0  0
 11 26  2  0  0  0  0
 12 27  1  0  0  0  0
 13 14  2  0  0  0  0
 13 28  1  0  0  0  0
 14 29  1  0  0  0  0
 15 19  2  0  0  0  0
 15 30  1  0  0  0  0
 16 24  1  0  0  0  0
 16 27  2  0  0  0  0
 17 29  2  0  0  0  0
 17 31  1  0  0  0  0
 18 32  1  0  0  0  0
 19 34  1  0  0  0  0
 20 32  1  0  0  0  0
 20 33  2  0  0  0  0
 20 35  1  0  0  0  0
 21 23  2  0  0  0  0
 21 40  1  0  0  0  0
 22 24  2  0  0  0  0
 22 41  1  0  0  0  0
 23 52  1  0  0  0  0
 24 42  1  0  0  0  0
 25 30  2  0  0  0  0
 25 72  1  0  0  0  0
 26 82  1  0  0  0  0
 27 83  1  0  0  0  0
 28 31  2  0  0  0  0
 28 82  1  0  0  0  0
 29 84  1  0  0  0  0
 30 85  1  0  0  0  0
 31 86  1  0  0  0  0
 32 65  2  0  0  0  0
 33 66  1  0  0  0  0
 33 70  1  0  0  0  0
 34 67  1  0  0  0  0
 34 76  2  0  0  0  0
 35 71  1  0  0  0  0
 35 77  2  0  0  0  0
 36 53  1  0  0  0  0
 36 73  1  0  0  0  0
 36 78  2  0  0  0  0
 37 62  1  0  0  0  0
 37 68  1  0  0  0  0
 37 79  2  0  0  0  0
 38 63  1  0  0  0  0
 38 74  1  0  0  0  0
 38 80  2  0  0  0  0
 39 69  1  0  0  0  0
 39 72  1  0  0  0  0
 39 81  2  0  0  0  0
 40 43  1  0  0  0  0
 41 53  1  0  0  0  0
 42 68  1  0  0  0  0
 43 45  1  0  0  0  0
 44 46  1  0  0  0  0
 44 48  1  0  0  0  0
 45 52  1  0  0  0  0
 46 55  1  0  0  0  0
 47 49  1  0  0  0  0
 47 54  1  0  0  0  0
 48 69  1  0  0  0  0
 49 67  1  0  0  0  0
 50 54  1  0  0  0  0
 50 67  1  0  0  0  0
 51 55  1  0  0  0  0
 51 69  1  0  0  0  0
 52 73  1  0  0  0  0
 53 68  1  0  0  0  0
 54 61  1  0  0  0  0
 55 66  1  0  0  0  0
 56 63  1  0  0  0  0
 57 64  1  0  0  0  0
 58 64  1  0  0  0  0
 59 64  1  0  0  0  0
 60 75  1  0  0  0  0
 61 83  1  0  0  0  0
 62 64  1  0  0  0  0
 62 74  1  0  0  0  0
 63 75  1  0  0  0  0
 65 66  1  0  0  0  0
M  CHG  1  75   1
M  ISO  4  39 100  61 101  72 100  83 101
M  END
> <Batch ID>
0101

> <Smiles>
CNC(C)C(=O)NC(C(=O)N1Cc2cc([101O:1][101CH2:1]C3CCN(C(=O)c4ccc([100NH:0][100C:0](=O)N5CCCC(n6nc(-c7ccc(Oc8ccc(F)cc8F)cc7)c(C(N)=O)c6N)C5)c(F)c4)C3)ccc2CC1C(=O)NC1CCCc2ccccc21)C(C)(C)C

> <Shape>
0.251

> <Color>
0.076

> <Negative vol penalty>
0.000

$$$$

  -OEChem-04052301003D

 88 97  0     1  0  0  0  0  0999 V2000
  -18.3186  -24.0728   21.4829 C   0  0  0  0  0  0  0  0  0  0  0  0
  -19.6074  -24.1440   20.9637 C   0  0  0  0  0  0  0  0  0  0  0  0
  -21.2560  -18.5102   21.6795 C   0  0  0  0  0  0  0  0  0  0  0  0
  -20.4589  -16.4869   22.7321 C   0  0  0  0  0  0  0  0  0  0  0  0
  -17.8368  -25.1004   22.2927 C   0  0  0  0  0  0  0  0  0  0  0  0
  -20.4147  -25.2434   21.2533 C   0  0  0  0  0  0  0  0  0  0  0  0
  -25.1416  -23.9111   22.4886 C   0  0  0  0  0  0  0  0  0  0  0  0
  -30.0182  -16.9914   19.3099 C   0  0  0  0  0  0  0  0  0  0  0  0
  -30.1958  -18.3711   19.2067 C   0  0  0  0  0  0  0  0  0  0  0  0
  -20.5909  -19.2720   22.6402 C   0  0  0  0  0  0  0  0  0  0  0  0
  -19.7939  -17.2487   23.6929 C   0  0  0  0  0  0  0  0  0  0  0  0
  -25.9990  -23.5655   21.4450 C   0  0  0  0  0  0  0  0  0  0  0  0
  -21.0823  -20.2135   25.8503 C   0  0  0  0  0  0  0  0  0  0  0  0
  -21.7736  -21.2806   26.4239 C   0  0  0  0  0  0  0  0  0  0  0  0
  -26.9889  -25.7634   21.5383 C   0  0  0  0  0  0  0  0  0  0  0  0
  -29.6219  -17.2200   21.6822 C   0  0  0  0  0  0  0  0  0  0  0  0
  -20.0936  -22.8104   25.6027 C   0  0  0  0  0  0  0  0  0  0  0  0
  -21.1900  -17.1176   21.7254 C   0  0  0  0  0  0  0  0  0  0  0  0
  -21.6743  -16.3542   19.3400 C   0  0  0  0  0  0  0  0  0  0  0  0
  -18.6420  -26.2084   22.6002 C   0  0  0  0  0  0  0  0  0  0  0  0
  -25.1940  -25.1913   23.0586 C   0  0  0  0  0  0  0  0  0  0  0  0
  -19.9427  -26.2875   22.0669 C   0  0  0  0  0  0  0  0  0  0  0  0
  -26.1328  -26.1219   22.5907 C   0  0  0  0  0  0  0  0  0  0  0  0
  -29.7313  -16.4159   20.5477 C   0  0  0  0  0  0  0  0  0  0  0  0
  -30.0864  -19.1752   20.3412 C   0  0  0  0  0  0  0  0  0  0  0  0
  -19.8599  -18.6413   23.6469 C   0  0  0  0  0  0  0  0  0  0  0  0
  -26.9209  -24.4926   20.9678 C   0  0  0  0  0  0  0  0  0  0  0  0
  -19.8966  -20.4449   25.1529 C   0  0  0  0  0  0  0  0  0  0  0  0
  -21.2792  -22.5790   26.3001 C   0  0  0  0  0  0  0  0  0  0  0  0
  -29.7995  -18.5996   21.5790 C   0  0  0  0  0  0  0  0  0  0  0  0
  -19.4023  -21.7433   25.0291 C   0  0  0  0  0  0  0  0  0  0  0  0
  -21.8763  -16.3301   20.7330 C   0  0  0  0  0  0  0  0  0  0  0  0
  -22.5644  -15.4311   18.8480 C   0  0  0  0  0  0  0  0  0  0  0  0
  -30.5392  -23.4445   20.0702 C   0  0  0  0  0  0  0  0  0  0  0  0
  -20.7636  -17.1408   18.5605 C   0  0  0  0  0  0  0  0  0  0  0  0
  -23.1552  -27.6160   23.3190 C   0  0  0  0  0  0  0  0  0  0  0  0
  -25.5055  -28.8856   25.1592 C   0  0  0  0  0  0  0  0  0  0  0  0
  -29.1051  -29.1064   25.0514 C   0  0  0  0  0  0  0  0  0  0  0  0
  -27.7419  -13.2519   20.9206 C   0  0  0  0  0  0  0  0  0  0  0  0
  -18.0608  -27.3171   23.4414 C   0  0  0  0  0  0  0  0  0  0  0  0
  -24.2804  -25.5397   24.2015 C   0  0  0  0  0  0  0  0  0  0  0  0
  -26.2431  -27.5028   23.1821 C   0  0  0  0  0  0  0  0  0  0  0  0
  -31.4647  -22.6086   20.9212 C   0  0  0  0  0  0  0  0  0  0  0  0
  -19.1125  -28.2684   24.0063 C   0  0  0  0  0  0  0  0  0  0  0  0
  -24.8278  -11.3948   20.0628 C   0  0  0  0  0  0  0  0  0  0  0  0
  -20.1046  -28.6730   22.9206 C   0  0  0  0  0  0  0  0  0  0  0  0
  -23.7227  -12.4512   20.0116 C   0  0  0  0  0  0  0  0  0  0  0  0
  -30.7990  -21.3140   21.3699 C   0  0  0  0  0  0  0  0  0  0  0  0
  -25.8375  -11.6875   21.1704 C   0  0  0  0  0  0  0  0  0  0  0  0
  -25.3213  -14.0956   21.0791 C   0  0  0  0  0  0  0  0  0  0  0  0
  -29.9795  -21.2537   18.9794 C   0  0  0  0  0  0  0  0  0  0  0  0
  -20.8575  -27.4520   22.3785 C   0  0  1  0  0  0  0  0  0  0  0  0
  -24.0713  -27.0423   24.3627 C   0  0  1  0  0  0  0  0  0  0  0  0
  -24.3097  -13.8738   19.9415 C   0  0  2  0  0  0  0  0  0  0  0  0
  -29.5262  -22.6996   19.2136 C   0  0  1  0  0  0  0  0  0  0  0  0
  -30.7820  -29.3325   26.9045 C   0  0  0  0  0  0  0  0  0  0  0  0
  -25.2791  -31.8781   24.6081 C   0  0  0  0  0  0  0  0  0  0  0  0
  -27.7431  -32.0677   25.0096 C   0  0  0  0  0  0  0  0  0  0  0  0
  -26.2378  -31.2988   26.8441 C   0  0  0  0  0  0  0  0  0  0  0  0
  -30.5872  -26.7049   24.1597 C   0  0  0  0  0  0  0  0  0  0  0  0
  -29.5413  -14.9409   20.6582 C   0  0  0  0  0  0  0  0  0  0  0  0
  -28.1361  -22.7860   19.8423 C   0  0  0  0  0  0  0  0  0  1  0  0
  -26.7145  -29.7522   24.9017 C   0  0  1  0  0  0  0  0  0  0  0  0
  -30.0877  -28.3752   25.9483 C   0  0  2  0  0  0  0  0  0  0  0  0
  -26.4835  -31.2315   25.3210 C   0  0  0  0  0  0  0  0  0  0  0  0
  -22.8204  -15.4604   21.1022 N   0  0  0  0  0  0  0  0  0  0  0  0
  -23.2196  -14.9294   19.9339 N   0  0  0  0  0  0  0  0  0  0  0  0
  -30.2645  -20.5547   20.2352 N   0  0  3  0  0  0  0  0  0  0  0  0
  -25.3237  -27.7979   24.2935 N   0  0  0  0  0  0  0  0  0  0  0  0
  -26.3573  -13.0514   21.0459 N   0  0  0  0  0  0  0  0  0  0  0  0
  -22.8426  -15.0076   17.5967 N   0  0  0  0  0  0  0  0  0  0  0  0
  -19.4852  -16.6261   18.3058 N   0  0  0  0  0  0  0  0  0  0  0  0
  -21.8958  -27.0475   23.3019 N   0  0  0  0  0  0  0  0  0  0  0  0
  -27.8321  -29.1061   25.5813 N   0  0  0  0  0  0  0  0  0  0  0  0
  -28.1498  -14.5749   20.8011 N   0  0  0  0  0  0  0  0  0  0  0  0
  -31.1283  -27.6926   25.1285 N   0  3  0  0  0  0  0  0  0  0  0  0
  -30.6404  -24.6713   20.0423 O   0  0  0  0  0  0  0  0  0  0  0  0
  -21.0801  -18.2595   18.0895 O   0  0  0  0  0  0  0  0  0  0  0  0
  -23.5605  -28.5093   22.5845 O   0  0  0  0  0  0  0  0  0  0  0  0
  -24.7542  -29.1595   26.0984 O   0  0  0  0  0  0  0  0  0  0  0  0
  -29.4347  -29.6289   23.9889 O   0  0  0  0  0  0  0  0  0  0  0  0
  -28.5540  -12.3206   20.9102 O   0  0  0  0  0  0  0  0  0  0  0  0
  -29.4939  -23.3512   17.9467 O   0  0  0  0  0  0  0  0  0  0  0  0
  -19.2110  -19.3843   24.5846 O   0  0  0  0  0  0  0  0  0  0  0  0
  -27.7585  -24.1580   19.9488 O   0  0  0  0  0  0  0  0  0  1  0  0
  -21.9424  -23.6035   26.8523 F   0  0  0  0  0  0  0  0  0  0  0  0
  -29.6920  -19.3631   22.6758 F   0  0  0  0  0  0  0  0  0  0  0  0
  -18.2631  -21.9716   24.3612 F   0  0  0  0  0  0  0  0  0  0  0  0
  1  2  1  0  0  0  0
  1  5  2  0  0  0  0
  2  6  2  0  0  0  0
  3 10  2  0  0  0  0
  3 18  1  0  0  0  0
  4 11  1  0  0  0  0
  4 18  2  0  0  0  0
  5 20  1  0  0  0  0
  6 22  1  0  0  0  0
  7 12  2  0  0  0  0
  7 21  1  0  0  0  0
  8  9  2  0  0  0  0
  8 24  1  0  0  0  0
  9 25  1  0  0  0  0
 10 26  1  0  0  0  0
 11 26  2  0  0  0  0
 12 27  1  0  0  0  0
 13 14  2  0  0  0  0
 13 28  1  0  0  0  0
 14 29  1  0  0  0  0
 15 23  1  0  0  0  0
 15 27  2  0  0  0  0
 16 24  2  0  0  0  0
 16 30  1  0  0  0  0
 17 29  2  0  0  0  0
 17 31  1  0  0  0  0
 18 32  1  0  0  0  0
 19 32  1  0  0  0  0
 19 33  2  0  0  0  0
 19 35  1  0  0  0  0
 20 22  2  0  0  0  0
 20 40  1  0  0  0  0
 21 23  2  0  0  0  0
 21 41  1  0  0  0  0
 22 52  1  0  0  0  0
 23 42  1  0  0  0  0
 24 61  1  0  0  0  0
 25 30  2  0  0  0  0
 25 68  1  0  0  0  0
 26 84  1  0  0  0  0
 27 85  1  0  0  0  0
 28 31  2  0  0  0  0
 28 84  1  0  0  0  0
 29 86  1  0  0  0  0
 30 87  1  0  0  0  0
 31 88  1  0  0  0  0
 32 66  2  0  0  0  0
 33 67  1  0  0  0  0
 33 71  1  0  0  0  0
 34 43  1  0  0  0  0
 34 55  1  0  0  0  0
 34 77  2  0  0  0  0
 35 72  1  0  0  0  0
 35 78  2  0  0  0  0
 36 53  1  0  0  0  0
 36 73  1  0  0  0  0
 36 79  2  0  0  0  0
 37 63  1  0  0  0  0
 37 69  1  0  0  0  0
 37 80  2  0  0  0  0
 38 64  1  0  0  0  0
 38 74  1  0  0  0  0
 38 81  2  0  0  0  0
 39 70  1  0  0  0  0
 39 75  1  0  0  0  0
 39 82  2  0  0  0  0
 40 44  1  0  0  0  0
 41 53  1  0  0  0  0
 42 69  1  0  0  0  0
 43 48  1  0  0  0  0
 44 46  1  0  0  0  0
 45 47  1  0  0  0  0
 45 49  1  0  0  0  0
 46 52  1  0  0  0  0
 47 54  1  0  0  0  0
 48 68  1  0  0  0  0
 49 70  1  0  0  0  0
 50 54  1  0  0  0  0
 50 70  1  0  0  0  0
 51 55  1  0  0  0  0
 51 68  1  0  0  0  0
 52 73  1  0  0  0  0
 53 69  1  0  0  0  0
 54 67  1  0  0  0  0
 55 62  1  0  0  0  0
 55 83  1  0  0  0  0
 56 64  1  0  0  0  0
 57 65  1  0  0  0  0
 58 65  1  0  0  0  0
 59 65  1  0  0  0  0
 60 76  1  0  0  0  0
 61 75  1  0  0  0  0
 62 85  1  0  0  0  0
 63 65  1  0  0  0  0
 63 74  1  0  0  0  0
 64 76  1  0  0  0  0
 66 67  1  0  0  0  0
M  CHG  1  76   1
M  ISO  4  39 100  62 101  75 100  85 101
M  END
> <Batch ID>
0101

> <Smiles>
CNC(C)C(=O)NC(C(=O)N1Cc2cc([101O:1][101CH2:1]C3(O)CN(c4ccc(C[100NH:0][100C:0](=O)N5CCCC(n6nc(-c7ccc(Oc8ccc(F)cc8F)cc7)c(C(N)=O)c6N)C5)cc4F)CCC3=O)ccc2CC1C(=O)NC1CCCc2ccccc21)C(C)(C)C

> <Shape>
0.214

> <Color>
0.080

> <Negative vol penalty>
0.000

$$$$

  -OEChem-04052301003D

 86 95  0     1  0  0  0  0  0999 V2000
  -13.7582  -18.6065   18.9923 C   0  0  0  0  0  0  0  0  0  0  0  0
  -14.9406  -17.9235   18.7306 C   0  0  0  0  0  0  0  0  0  0  0  0
  -30.8801  -17.0758   22.8968 C   0  0  0  0  0  0  0  0  0  0  0  0
  -28.1642  -27.2144   19.4387 C   0  0  0  0  0  0  0  0  0  0  0  0
  -27.9842  -25.7743   21.3703 C   0  0  0  0  0  0  0  0  0  0  0  0
  -31.1605  -15.8531   22.2869 C   0  0  0  0  0  0  0  0  0  0  0  0
  -13.8046  -19.9132   19.4737 C   0  0  0  0  0  0  0  0  0  0  0  0
  -16.1695  -18.5425   18.9615 C   0  0  0  0  0  0  0  0  0  0  0  0
  -22.2349  -15.3098   20.1126 C   0  0  0  0  0  0  0  0  0  0  0  0
  -30.0002  -17.9722   22.2901 C   0  0  0  0  0  0  0  0  0  0  0  0
  -27.5616  -28.2491   20.1540 C   0  0  0  0  0  0  0  0  0  0  0  0
  -27.3816  -26.8091   22.0856 C   0  0  0  0  0  0  0  0  0  0  0  0
  -23.4816  -14.6935   20.2223 C   0  0  0  0  0  0  0  0  0  0  0  0
  -24.4381  -29.1421   21.0872 C   0  0  0  0  0  0  0  0  0  0  0  0
  -23.4377  -29.8741   20.4478 C   0  0  0  0  0  0  0  0  0  0  0  0
  -29.6814  -16.4232   20.4636 C   0  0  0  0  0  0  0  0  0  0  0  0
  -24.5461  -16.8566   20.4122 C   0  0  0  0  0  0  0  0  0  0  0  0
  -24.7406  -31.8907   20.7176 C   0  0  0  0  0  0  0  0  0  0  0  0
  -28.3754  -25.9769   20.0468 C   0  0  0  0  0  0  0  0  0  0  0  0
  -30.5613  -15.5268   21.0704 C   0  0  0  0  0  0  0  0  0  0  0  0
  -30.2796  -24.9089   18.7274 C   0  0  0  0  0  0  0  0  0  0  0  0
  -15.0351  -20.5522   19.6984 C   0  0  0  0  0  0  0  0  0  0  0  0
  -22.1373  -16.7029   20.1679 C   0  0  0  0  0  0  0  0  0  0  0  0
  -16.2373  -19.8524   19.4697 C   0  0  0  0  0  0  0  0  0  0  0  0
  -23.2986  -17.4790   20.3155 C   0  0  0  0  0  0  0  0  0  0  0  0
  -29.4009  -17.6459   21.0735 C   0  0  0  0  0  0  0  0  0  0  0  0
  -27.1703  -28.0466   21.4775 C   0  0  0  0  0  0  0  0  0  0  0  0
  -24.6343  -15.4650   20.3714 C   0  0  0  0  0  0  0  0  0  0  0  0
  -25.5898  -29.7844   21.5419 C   0  0  0  0  0  0  0  0  0  0  0  0
  -23.5889  -31.2483   20.2630 C   0  0  0  0  0  0  0  0  0  0  0  0
  -25.7411  -31.1587   21.3571 C   0  0  0  0  0  0  0  0  0  0  0  0
  -28.9973  -24.9074   19.3082 C   0  0  0  0  0  0  0  0  0  0  0  0
  -30.3948  -23.6697   18.1463 C   0  0  0  0  0  0  0  0  0  0  0  0
  -30.8574  -14.2393   20.4295 C   0  0  0  0  0  0  0  0  0  0  0  0
  -31.2775  -25.9383   18.7143 C   0  0  0  0  0  0  0  0  0  0  0  0
  -19.9057  -19.7179   20.0921 C   0  0  0  0  0  0  0  0  0  0  0  0
  -22.0347  -20.2389   22.2384 C   0  0  0  0  0  0  0  0  0  0  0  0
  -24.1581  -21.7003   24.7606 C   0  0  0  0  0  0  0  0  0  0  0  0
  -27.8276  -18.3883   19.2515 C   0  0  0  0  0  0  0  0  0  0  0  0
  -15.0272  -21.9647   20.2276 C   0  0  0  0  0  0  0  0  0  0  0  0
  -20.8219  -17.4120   19.9923 C   0  0  0  0  0  0  0  0  0  0  0  0
  -23.1493  -18.9757   20.3351 C   0  0  0  0  0  0  0  0  0  0  0  0
  -16.3554  -22.6849   20.0195 C   0  0  0  0  0  0  0  0  0  0  0  0
  -29.1567  -11.8927   18.3304 C   0  0  0  0  0  0  0  0  0  0  0  0
  -27.7494  -20.1935   16.1835 C   0  0  0  0  0  0  0  0  0  0  0  0
  -17.5023  -21.8104   20.5035 C   0  0  0  0  0  0  0  0  0  0  0  0
  -27.6846  -12.1051   18.6819 C   0  0  0  0  0  0  0  0  0  0  0  0
  -28.1831  -21.6058   16.5828 C   0  0  0  0  0  0  0  0  0  0  0  0
  -30.0573  -12.0740   19.5488 C   0  0  0  0  0  0  0  0  0  0  0  0
  -26.8859  -19.5396   17.2608 C   0  0  0  0  0  0  0  0  0  0  0  0
  -28.4017  -13.5782   20.6001 C   0  0  0  0  0  0  0  0  0  0  0  0
  -27.9048  -20.9475   19.0069 C   0  0  0  0  0  0  0  0  0  0  0  0
  -17.5855  -20.5161   19.6843 C   0  0  1  0  0  0  0  0  0  0  0  0
  -20.7096  -18.6935   20.8376 C   0  0  1  0  0  0  0  0  0  0  0  0
  -27.4657  -13.4496   19.3916 C   0  0  2  0  0  0  0  0  0  0  0  0
  -28.8305  -21.6223   17.9814 C   0  0  2  0  0  0  0  0  0  0  0  0
  -24.1819  -24.0135   25.7331 C   0  0  0  0  0  0  0  0  0  0  0  0
  -24.1370  -20.8017   20.1013 C   0  0  0  0  0  0  0  0  0  0  0  0
  -25.3553  -22.2130   21.7722 C   0  0  0  0  0  0  0  0  0  0  0  0
  -23.0492  -22.8405   21.0576 C   0  0  0  0  0  0  0  0  0  0  0  0
  -23.8974  -20.6675   27.5218 C   0  0  0  0  0  0  0  0  0  0  0  0
  -26.0079  -13.6033   19.8194 C   0  0  0  0  0  0  0  0  0  1  0  0
  -23.3774  -20.8402   22.5685 C   0  0  1  0  0  0  0  0  0  0  0  0
  -23.7211  -22.5764   25.9207 C   0  0  2  0  0  0  0  0  0  0  0  0
  -23.9739  -21.6466   21.3805 C   0  0  0  0  0  0  0  0  0  0  0  0
  -28.3445  -23.7584   19.1138 N   0  0  0  0  0  0  0  0  0  0  0  0
  -29.2201  -23.0264   18.4041 N   0  0  0  0  0  0  0  0  0  0  0  0
  -29.7979  -13.3582   20.1984 N   0  0  0  0  0  0  0  0  0  0  0  0
  -21.9872  -19.3539   21.1544 N   0  0  0  0  0  0  0  0  0  0  0  0
  -27.5650  -19.5884   18.5575 N   0  0  0  0  0  0  0  0  0  0  0  0
  -31.3853  -23.0784   17.4451 N   0  0  0  0  0  0  0  0  0  0  0  0
  -31.2683  -26.8644   17.6624 N   0  0  0  0  0  0  0  0  0  0  0  0
  -28.5069  -18.5565   20.4576 N   0  0  0  0  0  0  0  0  0  0  0  0
  -18.5432  -19.6264   20.3032 N   0  0  0  0  0  0  0  0  0  0  0  0
  -23.1864  -21.6220   23.7854 N   0  0  0  0  0  0  0  0  0  0  0  0
  -24.2890  -22.0638   27.1996 N   0  3  0  0  0  0  0  0  0  0  0  0
  -32.0341  -14.0393   20.1314 O   0  0  0  0  0  0  0  0  0  0  0  0
  -32.1615  -26.0242   19.6001 O   0  0  0  0  0  0  0  0  0  0  0  0
  -20.4785  -20.5332   19.3787 O   0  0  0  0  0  0  0  0  0  0  0  0
  -21.0519  -20.5480   22.9180 O   0  0  0  0  0  0  0  0  0  0  0  0
  -25.2535  -21.1443   24.7215 O   0  0  0  0  0  0  0  0  0  0  0  0
  -27.4999  -17.2898   18.7954 O   0  0  0  0  0  0  0  0  0  0  0  0
  -26.5826  -29.0562   22.1758 O   0  0  0  0  0  0  0  0  0  0  0  0
  -25.8478  -14.8568   20.4824 O   0  0  0  0  0  0  0  0  0  1  0  0
  -22.6287  -31.9509   19.6476 F   0  0  0  0  0  0  0  0  0  0  0  0
  -26.8458  -31.7811   21.7907 F   0  0  0  0  0  0  0  0  0  0  0  0
  1  2  1  0  0  0  0
  1  7  2  0  0  0  0
  2  8  2  0  0  0  0
  3  6  2  0  0  0  0
  3 10  1  0  0  0  0
  4 11  2  0  0  0  0
  4 19  1  0  0  0  0
  5 12  1  0  0  0  0
  5 19  2  0  0  0  0
  6 20  1  0  0  0  0
  7 22  1  0  0  0  0
  8 24  1  0  0  0  0
  9 13  2  0  0  0  0
  9 23  1  0  0  0  0
 10 26  2  0  0  0  0
 11 27  1  0  0  0  0
 12 27  2  0  0  0  0
 13 28  1  0  0  0  0
 14 15  2  0  0  0  0
 14 29  1  0  0  0  0
 15 30  1  0  0  0  0
 16 20  2  0  0  0  0
 16 26  1  0  0  0  0
 17 25  1  0  0  0  0
 17 28  2  0  0  0  0
 18 30  2  0  0  0  0
 18 31  1  0  0  0  0
 19 32  1  0  0  0  0
 20 34  1  0  0  0  0
 21 32  1  0  0  0  0
 21 33  2  0  0  0  0
 21 35  1  0  0  0  0
 22 24  2  0  0  0  0
 22 40  1  0  0  0  0
 23 25  2  0  0  0  0
 23 41  1  0  0  0  0
 24 53  1  0  0  0  0
 25 42  1  0  0  0  0
 26 73  1  0  0  0  0
 27 83  1  0  0  0  0
 28 84  1  0  0  0  0
 29 31  2  0  0  0  0
 29 83  1  0  0  0  0
 30 85  1  0  0  0  0
 31 86  1  0  0  0  0
 32 66  2  0  0  0  0
 33 67  1  0  0  0  0
 33 71  1  0  0  0  0
 34 68  1  0  0  0  0
 34 77  2  0  0  0  0
 35 72  1  0  0  0  0
 35 78  2  0  0  0  0
 36 54  1  0  0  0  0
 36 74  1  0  0  0  0
 36 79  2  0  0  0  0
 37 63  1  0  0  0  0
 37 69  1  0  0  0  0
 37 80  2  0  0  0  0
 38 64  1  0  0  0  0
 38 75  1  0  0  0  0
 38 81  2  0  0  0  0
 39 70  1  0  0  0  0
 39 73  1  0  0  0  0
 39 82  2  0  0  0  0
 40 43  1  0  0  0  0
 41 54  1  0  0  0  0
 42 69  1  0  0  0  0
 43 46  1  0  0  0  0
 44 47  1  0  0  0  0
 44 49  1  0  0  0  0
 45 48  1  0  0  0  0
 45 50  1  0  0  0  0
 46 53  1  0  0  0  0
 47 55  1  0  0  0  0
 48 56  1  0  0  0  0
 49 68  1  0  0  0  0
 50 70  1  0  0  0  0
 51 55  1  0  0  0  0
 51 68  1  0  0  0  0
 52 56  1  0  0  0  0
 52 70  1  0  0  0  0
 53 74  1  0  0  0  0
 54 69  1  0  0  0  0
 55 62  1  0  0  0  0
 56 67  1  0  0  0  0
 57 64  1  0  0  0  0
 58 65  1  0  0  0  0
 59 65  1  0  0  0  0
 60 65  1  0  0  0  0
 61 76  1  0  0  0  0
 62 84  1  0  0  0  0
 63 65  1  0  0  0  0
 63 75  1  0  0  0  0
 64 76  1  0  0  0  0
 66 67  1  0  0  0  0
M  CHG  1  76   1
M  ISO  4  39 100  62 101  73 100  84 101
M  END
> <Batch ID>
0101

> <Smiles>
CNC(C)C(=O)NC(C(=O)N1Cc2cc([101O:1][101CH2:1]C3CCCN(C(=O)c4cccc([100NH:0][100C:0](=O)N5CCCC(n6nc(-c7ccc(Oc8ccc(F)cc8F)cc7)c(C(N)=O)c6N)C5)c4)C3)ccc2CC1C(=O)NC1CCCc2ccccc21)C(C)(C)C

> <Shape>
0.229

> <Color>
0.067

> <Negative vol penalty>
0.000

$$$$

  -OEChem-04052301003D

 87 95  0     1  0  0  0  0  0999 V2000
  -12.8759  -29.6752   14.9691 C   0  0  0  0  0  0  0  0  0  0  0  0
  -13.6596  -28.5258   14.9653 C   0  0  0  0  0  0  0  0  0  0  0  0
  -23.3075   -9.8208   19.8576 C   0  0  0  0  0  0  0  0  0  0  0  0
  -23.8162   -9.8491   22.2192 C   0  0  0  0  0  0  0  0  0  0  0  0
  -13.4385  -30.8999   15.3265 C   0  0  0  0  0  0  0  0  0  0  0  0
  -15.0066  -28.6005   15.3179 C   0  0  0  0  0  0  0  0  0  0  0  0
  -18.2724  -24.3632   18.2988 C   0  0  0  0  0  0  0  0  0  0  0  0
  -22.6145   -8.6214   20.0212 C   0  0  0  0  0  0  0  0  0  0  0  0
  -23.1232   -8.6497   22.3829 C   0  0  0  0  0  0  0  0  0  0  0  0
  -19.1536  -23.3767   17.8582 C   0  0  0  0  0  0  0  0  0  0  0  0
  -19.9052   -7.6483   22.6321 C   0  0  0  0  0  0  0  0  0  0  0  0
  -19.0315   -7.5490   23.7149 C   0  0  0  0  0  0  0  0  0  0  0  0
  -21.0123  -24.8521   18.2914 C   0  0  0  0  0  0  0  0  0  0  0  0
  -26.2891  -19.1450   14.8384 C   0  0  0  0  0  0  0  0  0  0  0  0
  -25.5740  -19.0640   17.1447 C   0  0  0  0  0  0  0  0  0  0  0  0
  -20.3054   -5.6835   24.5717 C   0  0  0  0  0  0  0  0  0  0  0  0
  -23.9084  -10.4347   20.9566 C   0  0  0  0  0  0  0  0  0  0  0  0
  -27.6703  -18.0547   16.4938 C   0  0  0  0  0  0  0  0  0  0  0  0
  -24.1031  -12.9772   20.8851 C   0  0  0  0  0  0  0  0  0  0  0  0
  -14.7907  -30.9880   15.6930 C   0  0  0  0  0  0  0  0  0  0  0  0
  -18.7546  -25.6075   18.7295 C   0  0  0  0  0  0  0  0  0  0  0  0
  -15.5881  -29.8277   15.6793 C   0  0  0  0  0  0  0  0  0  0  0  0
  -20.1353  -25.8518   18.7394 C   0  0  0  0  0  0  0  0  0  0  0  0
  -27.4483  -18.4452   15.1733 C   0  0  0  0  0  0  0  0  0  0  0  0
  -25.3519  -19.4545   15.8242 C   0  0  0  0  0  0  0  0  0  0  0  0
  -22.5223   -8.0359   21.2839 C   0  0  0  0  0  0  0  0  0  0  0  0
  -20.5236  -23.6221   17.8517 C   0  0  0  0  0  0  0  0  0  0  0  0
  -20.9790   -6.7652   22.5191 C   0  0  0  0  0  0  0  0  0  0  0  0
  -26.7332  -18.3641   17.4796 C   0  0  0  0  0  0  0  0  0  0  0  0
  -19.2316   -6.5666   24.6847 C   0  0  0  0  0  0  0  0  0  0  0  0
  -21.1791   -5.7828   23.4889 C   0  0  0  0  0  0  0  0  0  0  0  0
  -24.6249  -11.6733   20.7881 C   0  0  0  0  0  0  0  0  0  0  0  0
  -25.1790  -13.7964   20.6444 C   0  0  0  0  0  0  0  0  0  0  0  0
  -28.9019  -17.3076   16.8569 C   0  0  0  0  0  0  0  0  0  0  0  0
  -22.7655  -13.4093   21.1676 C   0  0  0  0  0  0  0  0  0  0  0  0
  -18.3899  -28.6124   17.7592 C   0  0  0  0  0  0  0  0  0  0  0  0
  -20.0837  -29.2746   20.4452 C   0  0  0  0  0  0  0  0  0  0  0  0
  -23.1441  -20.5543   16.3336 C   0  0  0  0  0  0  0  0  0  0  0  0
  -22.3028  -28.2069   22.8079 C   0  0  0  0  0  0  0  0  0  0  0  0
  -29.7207  -15.1627   17.7802 C   0  0  0  0  0  0  0  0  0  0  0  0
  -15.3658  -32.3419   16.0261 C   0  0  0  0  0  0  0  0  0  0  0  0
  -17.7928  -26.6515   19.2269 C   0  0  0  0  0  0  0  0  0  0  0  0
  -20.7052  -27.1638   19.2109 C   0  0  0  0  0  0  0  0  0  0  0  0
  -16.7088  -32.2722   16.7485 C   0  0  0  0  0  0  0  0  0  0  0  0
  -30.1217  -12.7382   20.3215 C   0  0  0  0  0  0  0  0  0  0  0  0
  -17.6367  -31.2794   16.0556 C   0  0  0  0  0  0  0  0  0  0  0  0
  -28.6845  -12.3557   20.6856 C   0  0  0  0  0  0  0  0  0  0  0  0
  -30.2809  -12.9839   18.8218 C   0  0  0  0  0  0  0  0  0  0  0  0
  -27.8963  -13.5540   18.6055 C   0  0  0  0  0  0  0  0  0  0  0  0
  -17.0471  -29.8640   16.0795 C   0  0  1  0  0  0  0  0  0  0  0  0
  -18.3589  -28.0665   19.1587 C   0  0  1  0  0  0  0  0  0  0  0  0
  -27.6684  -13.3648   20.1140 C   0  0  1  0  0  0  0  0  0  0  0  0
  -28.4346  -18.1286   14.0966 C   0  0  0  0  0  0  0  0  0  0  0  0
  -23.5257  -28.9851   24.8564 C   0  0  0  0  0  0  0  0  0  0  0  0
  -22.0064  -30.8660   18.6900 C   0  0  0  0  0  0  0  0  0  0  0  0
  -23.6608  -30.8055   20.5681 C   0  0  0  0  0  0  0  0  0  0  0  0
  -21.4618  -31.9408   20.8815 C   0  0  0  0  0  0  0  0  0  0  0  0
  -21.0188  -26.1453   24.4992 C   0  0  0  0  0  0  0  0  0  0  0  0
  -27.6224  -18.9128   19.6160 C   0  0  0  0  0  0  0  0  0  0  0  0
  -22.0662  -21.3011   15.5561 C   0  0  0  0  0  0  0  0  0  0  0  0
  -20.9061  -21.7553   16.4289 C   0  0  0  0  0  0  0  0  0  1  0  0
  -21.5496  -29.4162   20.7770 C   0  0  1  0  0  0  0  0  0  0  0  0
  -22.2804  -28.2939   24.3233 C   0  0  2  0  0  0  0  0  0  0  0  0
  -22.1591  -30.7330   20.2184 C   0  0  0  0  0  0  0  0  0  0  0  0
  -25.9307  -11.6601   20.5075 N   0  0  0  0  0  0  0  0  0  0  0  0
  -26.2385  -12.9657   20.4260 N   0  0  0  0  0  0  0  0  0  0  0  0
  -19.7237  -28.1550   19.6819 N   0  0  0  0  0  0  0  0  0  0  0  0
  -29.2893  -13.9574   18.3611 N   0  0  0  0  0  0  0  0  0  0  0  0
  -25.3126  -15.1390   20.6002 N   0  0  0  0  0  0  0  0  0  0  0  0
  -21.7820  -12.4359   21.3903 N   0  0  0  0  0  0  0  0  0  0  0  0
  -24.1763  -20.1651   15.4842 N   0  0  0  0  0  0  0  0  0  0  0  0
  -28.6981  -16.0441   17.4122 N   0  0  0  0  0  0  0  0  0  0  0  0
  -17.2299  -29.2623   17.3830 N   0  0  0  0  0  0  0  0  0  0  0  0
  -21.6557  -29.2760   22.2253 N   0  0  0  0  0  0  0  0  0  0  0  0
  -22.2083  -26.9299   24.9194 N   0  3  0  0  0  0  0  0  0  0  0  0
  -29.9974  -17.8090   16.6196 O   0  0  0  0  0  0  0  0  0  0  0  0
  -22.4483  -14.6223   21.2047 O   0  0  0  0  0  0  0  0  0  0  0  0
  -19.3926  -28.4569   17.0720 O   0  0  0  0  0  0  0  0  0  0  0  0
  -19.2864  -30.1222   20.8546 O   0  0  0  0  0  0  0  0  0  0  0  0
  -23.0578  -20.3537   17.5405 O   0  0  0  0  0  0  0  0  0  0  0  0
  -22.8438  -27.2848   22.2016 O   0  0  0  0  0  0  0  0  0  0  0  0
  -30.9141  -15.4465   17.6364 O   0  0  0  0  0  0  0  0  0  0  0  0
  -21.8460   -6.8656   21.4439 O   0  0  0  0  0  0  0  0  0  0  0  0
  -26.9303  -17.9917   18.7759 O   0  0  0  0  0  0  0  0  0  0  0  0
  -21.3859  -22.6612   17.4216 O   0  0  0  0  0  0  0  0  0  1  0  0
  -18.3934   -6.4723   25.7252 F   0  0  0  0  0  0  0  0  0  0  0  0
  -22.2096   -4.9323   23.3863 F   0  0  0  0  0  0  0  0  0  0  0  0
  1  2  1  0  0  0  0
  1  5  2  0  0  0  0
  2  6  2  0  0  0  0
  3  8  2  0  0  0  0
  3 17  1  0  0  0  0
  4  9  1  0  0  0  0
  4 17  2  0  0  0  0
  5 20  1  0  0  0  0
  6 22  1  0  0  0  0
  7 10  2  0  0  0  0
  7 21  1  0  0  0  0
  8 26  1  0  0  0  0
  9 26  2  0  0  0  0
 10 27  1  0  0  0  0
 11 12  2  0  0  0  0
 11 28  1  0  0  0  0
 12 30  1  0  0  0  0
 13 23  1  0  0  0  0
 13 27  2  0  0  0  0
 14 24  2  0  0  0  0
 14 25  1  0  0  0  0
 15 25  2  0  0  0  0
 15 29  1  0  0  0  0
 16 30  2  0  0  0  0
 16 31  1  0  0  0  0
 17 32  1  0  0  0  0
 18 24  1  0  0  0  0
 18 29  2  0  0  0  0
 18 34  1  0  0  0  0
 19 32  1  0  0  0  0
 19 33  2  0  0  0  0
 19 35  1  0  0  0  0
 20 22  2  0  0  0  0
 20 41  1  0  0  0  0
 21 23  2  0  0  0  0
 21 42  1  0  0  0  0
 22 50  1  0  0  0  0
 23 43  1  0  0  0  0
 24 53  1  0  0  0  0
 25 71  1  0  0  0  0
 26 83  1  0  0  0  0
 27 85  1  0  0  0  0
 28 31  2  0  0  0  0
 28 83  1  0  0  0  0
 29 84  1  0  0  0  0
 30 86  1  0  0  0  0
 31 87  1  0  0  0  0
 32 65  2  0  0  0  0
 33 66  1  0  0  0  0
 33 69  1  0  0  0  0
 34 72  1  0  0  0  0
 34 76  2  0  0  0  0
 35 70  1  0  0  0  0
 35 77  2  0  0  0  0
 36 51  1  0  0  0  0
 36 73  1  0  0  0  0
 36 78  2  0  0  0  0
 37 62  1  0  0  0  0
 37 67  1  0  0  0  0
 37 79  2  0  0  0  0
 38 60  1  0  0  0  0
 38 71  1  0  0  0  0
 38 80  2  0  0  0  0
 39 63  1  0  0  0  0
 39 74  1  0  0  0  0
 39 81  2  0  0  0  0
 40 68  1  0  0  0  0
 40 72  1  0  0  0  0
 40 82  2  0  0  0  0
 41 44  1  0  0  0  0
 42 51  1  0  0  0  0
 43 67  1  0  0  0  0
 44 46  1  0  0  0  0
 45 47  1  0  0  0  0
 45 48  1  0  0  0  0
 46 50  1  0  0  0  0
 47 52  1  0  0  0  0
 48 68  1  0  0  0  0
 49 52  1  0  0  0  0
 49 68  1  0  0  0  0
 50 73  1  0  0  0  0
 51 67  1  0  0  0  0
 52 66  1  0  0  0  0
 54 63  1  0  0  0  0
 55 64  1  0  0  0  0
 56 64  1  0  0  0  0
 57 64  1  0  0  0  0
 58 75  1  0  0  0  0
 59 84  1  0  0  0  0
 60 61  1  0  0  0  0
 61 85  1  0  0  0  0
 62 64  1  0  0  0  0
 62 74  1  0  0  0  0
 63 75  1  0  0  0  0
 65 66  1  0  0  0  0
M  CHG  1  75   1
M  ISO  4  40 100  61 101  72 100  85 101
M  END
> <Batch ID>
0101

> <Smiles>
CNC(C)C(=O)NC(C(=O)N1Cc2cc([101O:1][101CH2:1]CC(=O)Nc3cc(C)c(C(=O)[100NH:0][100C:0](=O)N4CCCC(n5nc(-c6ccc(Oc7ccc(F)cc7F)cc6)c(C(N)=O)c5N)C4)c(OC)c3)ccc2CC1C(=O)NC1CCCc2ccccc21)C(C)(C)C

> <Shape>
0.186

> <Color>
0.182

> <Negative vol penalty>
0.000

$$$$

  -OEChem-04052301003D

 84 92  0     1  0  0  0  0  0999 V2000
  -18.5103  -31.4276   26.1391 C   0  0  0  0  0  0  0  0  0  0  0  0
  -19.7407  -30.8067   26.3289 C   0  0  0  0  0  0  0  0  0  0  0  0
  -28.0533  -17.5055   19.0793 C   0  0  0  0  0  0  0  0  0  0  0  0
  -29.1134  -17.3334   21.2435 C   0  0  0  0  0  0  0  0  0  0  0  0
  -17.7760  -31.1776   24.9806 C   0  0  0  0  0  0  0  0  0  0  0  0
  -20.2370  -29.9346   25.3607 C   0  0  0  0  0  0  0  0  0  0  0  0
  -25.1400  -30.7215   24.3673 C   0  0  0  0  0  0  0  0  0  0  0  0
  -28.1669  -16.1252   18.9138 C   0  0  0  0  0  0  0  0  0  0  0  0
  -29.2269  -15.9531   21.0780 C   0  0  0  0  0  0  0  0  0  0  0  0
  -26.0637  -30.2193   25.2829 C   0  0  0  0  0  0  0  0  0  0  0  0
  -31.2395  -13.7997   19.4218 C   0  0  0  0  0  0  0  0  0  0  0  0
  -32.4577  -13.2055   19.7515 C   0  0  0  0  0  0  0  0  0  0  0  0
  -26.4557  -28.3263   23.8398 C   0  0  0  0  0  0  0  0  0  0  0  0
  -33.7904  -26.5920   23.5297 C   0  0  0  0  0  0  0  0  0  0  0  0
  -32.6792  -24.8221   24.7418 C   0  0  0  0  0  0  0  0  0  0  0  0
  -31.3432  -11.8353   21.4000 C   0  0  0  0  0  0  0  0  0  0  0  0
  -28.5266  -18.1097   20.2441 C   0  0  0  0  0  0  0  0  0  0  0  0
  -27.3370  -20.2370   20.9969 C   0  0  0  0  0  0  0  0  0  0  0  0
  -18.2680  -30.3094   23.9933 C   0  0  0  0  0  0  0  0  0  0  0  0
  -24.8587  -30.0232   23.1843 C   0  0  0  0  0  0  0  0  0  0  0  0
  -19.5080  -29.6717   24.1885 C   0  0  0  0  0  0  0  0  0  0  0  0
  -25.5299  -28.8231   22.9097 C   0  0  0  0  0  0  0  0  0  0  0  0
  -33.5259  -25.2348   23.7131 C   0  0  0  0  0  0  0  0  0  0  0  0
  -33.2081  -27.5365   24.3751 C   0  0  0  0  0  0  0  0  0  0  0  0
  -32.0968  -25.7665   25.5872 C   0  0  0  0  0  0  0  0  0  0  0  0
  -28.7537  -15.3490   19.9132 C   0  0  0  0  0  0  0  0  0  0  0  0
  -26.7196  -29.0201   25.0206 C   0  0  0  0  0  0  0  0  0  0  0  0
  -30.0732  -13.4117   20.0812 C   0  0  0  0  0  0  0  0  0  0  0  0
  -32.3613  -27.1237   25.4038 C   0  0  0  0  0  0  0  0  0  0  0  0
  -32.5095  -12.2233   20.7405 C   0  0  0  0  0  0  0  0  0  0  0  0
  -30.1250  -12.4295   21.0703 C   0  0  0  0  0  0  0  0  0  0  0  0
  -28.4100  -19.5356   20.4153 C   0  0  0  0  0  0  0  0  0  0  0  0
  -27.7083  -21.5572   20.9210 C   0  0  0  0  0  0  0  0  0  0  0  0
  -26.1139  -19.7398   21.5560 C   0  0  0  0  0  0  0  0  0  0  0  0
  -22.2643  -28.6728   21.9395 C   0  0  0  0  0  0  0  0  0  0  0  0
  -24.1988  -28.2364   19.3724 C   0  0  0  0  0  0  0  0  0  0  0  0
  -27.3724  -27.9349   18.1543 C   0  0  0  0  0  0  0  0  0  0  0  0
  -33.0291  -24.2839   20.5970 C   0  0  0  0  0  0  0  0  0  0  0  0
  -17.4165  -30.0336   22.7793 C   0  0  0  0  0  0  0  0  0  0  0  0
  -23.8793  -30.5919   22.1944 C   0  0  0  0  0  0  0  0  0  0  0  0
  -25.2785  -28.0453   21.6447 C   0  0  0  0  0  0  0  0  0  0  0  0
  -18.1854  -29.3864   21.6303 C   0  0  0  0  0  0  0  0  0  0  0  0
  -30.3368  -24.5617   18.2838 C   0  0  0  0  0  0  0  0  0  0  0  0
  -19.0471  -28.2376   22.1448 C   0  0  0  0  0  0  0  0  0  0  0  0
  -29.4409  -23.3684   18.6202 C   0  0  0  0  0  0  0  0  0  0  0  0
  -31.8166  -24.2176   18.4378 C   0  0  0  0  0  0  0  0  0  0  0  0
  -31.2925  -22.4620   20.0861 C   0  0  0  0  0  0  0  0  0  0  0  0
  -20.0914  -28.7384   23.1498 C   0  0  1  0  0  0  0  0  0  0  0  0
  -23.2906  -29.5369   21.2628 C   0  0  1  0  0  0  0  0  0  0  0  0
  -29.7893  -22.7769   19.9994 C   0  0  2  0  0  0  0  0  0  0  0  0
  -33.5036  -28.9849   24.1625 C   0  0  0  0  0  0  0  0  0  0  0  0
  -29.2021  -27.7248   16.4497 C   0  0  0  0  0  0  0  0  0  0  0  0
  -23.4597  -25.2779   19.4759 C   0  0  0  0  0  0  0  0  0  0  0  0
  -25.4211  -24.8076   17.9927 C   0  0  0  0  0  0  0  0  0  0  0  0
  -23.5572  -26.2489   17.1733 C   0  0  0  0  0  0  0  0  0  0  0  0
  -27.6049  -30.8717   17.8717 C   0  0  0  0  0  0  0  0  0  0  0  0
  -34.1507  -24.2258   22.8101 C   0  0  0  0  0  0  0  0  0  0  0  0
  -29.7033  -28.9135   27.0695 C   0  0  0  0  0  0  0  0  0  0  0  0
  -28.3389  -29.4754   26.7018 C   0  0  0  0  0  0  0  0  0  1  0  0
  -30.5312  -28.5788   25.8387 C   0  0  0  0  0  0  0  0  0  0  0  0
  -25.1464  -27.1519   18.9200 C   0  0  1  0  0  0  0  0  0  0  0  0
  -28.0633  -28.5877   16.9707 C   0  0  2  0  0  0  0  0  0  0  0  0
  -24.3996  -25.8850   18.4153 C   0  0  0  0  0  0  0  0  0  0  0  0
  -29.3896  -20.3433   20.0003 N   0  0  0  0  0  0  0  0  0  0  0  0
  -28.9334  -21.5659   20.3215 N   0  0  0  0  0  0  0  0  0  0  0  0
  -24.3075  -28.6393   20.7110 N   0  0  0  0  0  0  0  0  0  0  0  0
  -32.0805  -23.6631   19.7678 N   0  0  0  0  0  0  0  0  0  0  0  0
  -31.2422  -25.3333   26.6248 N   0  0  0  0  0  0  0  0  0  0  0  0
  -27.1032  -22.6998   21.3091 N   0  0  0  0  0  0  0  0  0  0  0  0
  -25.8923  -18.3559   21.5537 N   0  0  0  0  0  0  0  0  0  0  0  0
  -21.1931  -29.3740   22.4595 N   0  0  0  0  0  0  0  0  0  0  0  0
  -26.0232  -27.7638   17.9274 N   0  0  0  0  0  0  0  0  0  0  0  0
  -33.2138  -23.6982   21.8434 N   0  0  0  0  0  0  0  0  0  0  0  0
  -28.6196  -29.9136   17.3624 N   0  3  0  0  0  0  0  0  0  0  0  0
  -25.2361  -20.5013   22.0283 O   0  0  0  0  0  0  0  0  0  0  0  0
  -22.4311  -27.4597   21.9850 O   0  0  0  0  0  0  0  0  0  0  0  0
  -23.3966  -28.7137   18.5660 O   0  0  0  0  0  0  0  0  0  0  0  0
  -27.9706  -27.6059   19.1763 O   0  0  0  0  0  0  0  0  0  0  0  0
  -33.6607  -25.2892   20.2541 O   0  0  0  0  0  0  0  0  0  0  0  0
  -28.8645  -14.0020   19.7522 O   0  0  0  0  0  0  0  0  0  0  0  0
  -27.6213  -28.5273   25.9128 O   0  0  0  0  0  0  0  0  0  1  0  0
  -31.7918  -28.0544   26.2334 O   0  0  0  0  0  0  0  0  0  0  0  0
  -33.6791  -11.6518   21.0560 F   0  0  0  0  0  0  0  0  0  0  0  0
  -29.0077  -12.0518   21.7064 F   0  0  0  0  0  0  0  0  0  0  0  0
  1  2  1  0  0  0  0
  1  5  2  0  0  0  0
  2  6  2  0  0  0  0
  3  8  2  0  0  0  0
  3 17  1  0  0  0  0
  4  9  1  0  0  0  0
  4 17  2  0  0  0  0
  5 19  1  0  0  0  0
  6 21  1  0  0  0  0
  7 10  2  0  0  0  0
  7 20  1  0  0  0  0
  8 26  1  0  0  0  0
  9 26  2  0  0  0  0
 10 27  1  0  0  0  0
 11 12  2  0  0  0  0
 11 28  1  0  0  0  0
 12 30  1  0  0  0  0
 13 22  1  0  0  0  0
 13 27  2  0  0  0  0
 14 23  1  0  0  0  0
 14 24  2  0  0  0  0
 15 23  2  0  0  0  0
 15 25  1  0  0  0  0
 16 30  2  0  0  0  0
 16 31  1  0  0  0  0
 17 32  1  0  0  0  0
 18 32  1  0  0  0  0
 18 33  2  0  0  0  0
 18 34  1  0  0  0  0
 19 21  2  0  0  0  0
 19 39  1  0  0  0  0
 20 22  2  0  0  0  0
 20 40  1  0  0  0  0
 21 48  1  0  0  0  0
 22 41  1  0  0  0  0
 23 57  1  0  0  0  0
 24 29  1  0  0  0  0
 24 51  1  0  0  0  0
 25 29  2  0  0  0  0
 25 68  1  0  0  0  0
 26 80  1  0  0  0  0
 27 81  1  0  0  0  0
 28 31  2  0  0  0  0
 28 80  1  0  0  0  0
 29 82  1  0  0  0  0
 30 83  1  0  0  0  0
 31 84  1  0  0  0  0
 32 64  2  0  0  0  0
 33 65  1  0  0  0  0
 33 69  1  0  0  0  0
 34 70  1  0  0  0  0
 34 75  2  0  0  0  0
 35 49  1  0  0  0  0
 35 71  1  0  0  0  0
 35 76  2  0  0  0  0
 36 61  1  0  0  0  0
 36 66  1  0  0  0  0
 36 77  2  0  0  0  0
 37 62  1  0  0  0  0
 37 72  1  0  0  0  0
 37 78  2  0  0  0  0
 38 67  1  0  0  0  0
 38 73  1  0  0  0  0
 38 79  2  0  0  0  0
 39 42  1  0  0  0  0
 40 49  1  0  0  0  0
 41 66  1  0  0  0  0
 42 44  1  0  0  0  0
 43 45  1  0  0  0  0
 43 46  1  0  0  0  0
 44 48  1  0  0  0  0
 45 50  1  0  0  0  0
 46 67  1  0  0  0  0
 47 50  1  0  0  0  0
 47 67  1  0  0  0  0
 48 71  1  0  0  0  0
 49 66  1  0  0  0  0
 50 65  1  0  0  0  0
 52 62  1  0  0  0  0
 53 63  1  0  0  0  0
 54 63  1  0  0  0  0
 55 63  1  0  0  0  0
 56 74  1  0  0  0  0
 57 73  1  0  0  0  0
 58 59  1  0  0  0  0
 58 60  1  0  0  0  0
 59 81  1  0  0  0  0
 60 82  1  0  0  0  0
 61 63  1  0  0  0  0
 61 72  1  0  0  0  0
 62 74  1  0  0  0  0
 64 65  1  0  0  0  0
M  CHG  1  74   1
M  ISO  4  38 100  59 101  73 100  81 101
M  END
> <Batch ID>
0101

> <Smiles>
CNC(C)C(=O)NC(C(=O)N1Cc2cc([101O:1][101CH2:1]CCOc3c(C)cc(C[100NH:0][100C:0](=O)N4CCCC(n5nc(-c6ccc(Oc7ccc(F)cc7F)cc6)c(C(N)=O)c5N)C4)cc3N)ccc2CC1C(=O)NC1CCCc2ccccc21)C(C)(C)C

> <Shape>
0.227

> <Color>
0.050

> <Negative vol penalty>
0.000

$$$$

  -OEChem-04052301003D

 84 93  0     1  0  0  0  0  0999 V2000
  -30.5240  -24.6703   19.0735 C   0  0  0  0  0  0  0  0  0  0  0  0
  -29.1343  -24.7305   19.0521 C   0  0  0  0  0  0  0  0  0  0  0  0
  -27.7122  -16.0480   21.7738 C   0  0  0  0  0  0  0  0  0  0  0  0
  -25.9472  -16.6976   20.2573 C   0  0  0  0  0  0  0  0  0  0  0  0
  -31.2323  -25.2998   20.0963 C   0  0  0  0  0  0  0  0  0  0  0  0
  -28.4519  -25.4196   20.0542 C   0  0  0  0  0  0  0  0  0  0  0  0
  -23.2617  -28.6130   19.4470 C   0  0  0  0  0  0  0  0  0  0  0  0
  -19.8593  -23.7010   21.7330 C   0  0  0  0  0  0  0  0  0  0  0  0
  -20.0988  -24.9759   23.7712 C   0  0  0  0  0  0  0  0  0  0  0  0
  -20.6136  -22.6685   22.2901 C   0  0  0  0  0  0  0  0  0  0  0  0
  -20.8531  -23.9433   24.3284 C   0  0  0  0  0  0  0  0  0  0  0  0
  -27.6835  -14.7543   21.2532 C   0  0  0  0  0  0  0  0  0  0  0  0
  -25.9186  -15.4039   19.7365 C   0  0  0  0  0  0  0  0  0  0  0  0
  -21.9298  -28.2978   19.7128 C   0  0  0  0  0  0  0  0  0  0  0  0
  -28.8354  -13.1470   18.5104 C   0  0  0  0  0  0  0  0  0  0  0  0
  -30.0561  -12.5387   18.2181 C   0  0  0  0  0  0  0  0  0  0  0  0
  -22.1160  -29.3582   21.8715 C   0  0  0  0  0  0  0  0  0  0  0  0
  -29.5470  -10.7668   19.7796 C   0  0  0  0  0  0  0  0  0  0  0  0
  -26.8440  -17.0197   21.2759 C   0  0  0  0  0  0  0  0  0  0  0  0
  -27.6558  -19.4364   21.3649 C   0  0  0  0  0  0  0  0  0  0  0  0
  -30.5587  -26.0050   21.1060 C   0  0  0  0  0  0  0  0  0  0  0  0
  -24.0351  -29.2948   20.3975 C   0  0  0  0  0  0  0  0  0  0  0  0
  -29.1518  -26.0580   21.0921 C   0  0  0  0  0  0  0  0  0  0  0  0
  -23.4567  -29.6832   21.6143 C   0  0  0  0  0  0  0  0  0  0  0  0
  -19.6020  -24.8548   22.4735 C   0  0  0  0  0  0  0  0  0  0  0  0
  -21.1104  -22.7896   23.5879 C   0  0  0  0  0  0  0  0  0  0  0  0
  -26.7867  -14.4323   20.2345 C   0  0  0  0  0  0  0  0  0  0  0  0
  -21.3577  -28.6678   20.9264 C   0  0  0  0  0  0  0  0  0  0  0  0
  -27.9705  -12.5653   19.4374 C   0  0  0  0  0  0  0  0  0  0  0  0
  -30.4119  -11.3486   18.8527 C   0  0  0  0  0  0  0  0  0  0  0  0
  -28.3263  -11.3752   20.0720 C   0  0  0  0  0  0  0  0  0  0  0  0
  -26.8728  -18.3561   21.8138 C   0  0  0  0  0  0  0  0  0  0  0  0
  -27.3196  -20.4743   22.1994 C   0  0  0  0  0  0  0  0  0  0  0  0
  -18.2646  -25.9316   20.6078 C   0  0  0  0  0  0  0  0  0  0  0  0
  -28.6024  -19.4965   20.2897 C   0  0  0  0  0  0  0  0  0  0  0  0
  -26.6690  -28.6232   22.0453 C   0  0  0  0  0  0  0  0  0  0  0  0
  -26.3881  -31.7095   23.0033 C   0  0  0  0  0  0  0  0  0  0  0  0
  -24.3697  -34.4157   23.5031 C   0  0  0  0  0  0  0  0  0  0  0  0
  -22.4433  -21.7012   25.4277 C   0  0  0  0  0  0  0  0  0  0  0  0
  -31.3651  -26.6296   22.2170 C   0  0  0  0  0  0  0  0  0  0  0  0
  -25.4626  -29.6509   20.0846 C   0  0  0  0  0  0  0  0  0  0  0  0
  -24.2383  -30.4344   22.6599 C   0  0  0  0  0  0  0  0  0  0  0  0
  -17.5220  -27.2375   20.4508 C   0  0  0  0  0  0  0  0  0  0  0  0
  -30.5841  -27.6556   23.0340 C   0  0  0  0  0  0  0  0  0  0  0  0
  -17.3188  -27.7023   21.8805 C   0  0  0  0  0  0  0  0  0  0  0  0
  -25.7713  -21.3541   26.6449 C   0  0  0  0  0  0  0  0  0  0  0  0
  -29.2084  -27.1093   23.4024 C   0  0  0  0  0  0  0  0  0  0  0  0
  -26.5041  -20.6497   25.5009 C   0  0  0  0  0  0  0  0  0  0  0  0
  -24.3366  -20.8509   26.7944 C   0  0  0  0  0  0  0  0  0  0  0  0
  -24.2654  -20.1896   24.4223 C   0  0  0  0  0  0  0  0  0  0  0  0
  -28.3769  -26.8166   22.1476 C   0  0  1  0  0  0  0  0  0  0  0  0
  -26.3049  -29.8950   21.3329 C   0  0  1  0  0  0  0  0  0  0  0  0
  -25.6937  -20.7093   24.1912 C   0  0  2  0  0  0  0  0  0  0  0  0
  -18.5375  -27.1555   22.6155 C   0  0  2  0  0  0  0  0  0  0  0  0
  -24.4194  -36.7841   24.3312 C   0  0  0  0  0  0  0  0  0  0  0  0
  -26.5272  -30.6986   25.8788 C   0  0  0  0  0  0  0  0  0  0  0  0
  -25.6340  -32.9145   26.6274 C   0  0  0  0  0  0  0  0  0  0  0  0
  -27.8267  -32.7907   25.4445 C   0  0  0  0  0  0  0  0  0  0  0  0
  -23.4794  -35.4720   20.8857 C   0  0  0  0  0  0  0  0  0  0  0  0
  -19.7050  -28.1429   22.5540 C   0  0  0  0  0  0  0  0  0  1  0  0
  -25.6927  -32.4165   24.1415 C   0  0  1  0  0  0  0  0  0  0  0  0
  -24.5278  -35.8752   23.1167 C   0  0  2  0  0  0  0  0  0  0  0  0
  -26.4057  -32.1892   25.5044 C   0  0  0  0  0  0  0  0  0  0  0  0
  -26.0976  -18.6777   22.8529 N   0  0  0  0  0  0  0  0  0  0  0  0
  -26.3920  -19.9719   23.0639 N   0  0  0  0  0  0  0  0  0  0  0  0
  -18.8279  -25.9152   21.9015 N   0  0  0  0  0  0  0  0  0  0  0  0
  -25.6321  -30.7539   22.3096 N   0  0  0  0  0  0  0  0  0  0  0  0
  -23.6290  -20.9413   25.5153 N   0  0  0  0  0  0  0  0  0  0  0  0
  -27.7299  -21.7584   22.2707 N   0  0  0  0  0  0  0  0  0  0  0  0
  -28.8279  -18.3388   19.5326 N   0  0  0  0  0  0  0  0  0  0  0  0
  -21.8767  -21.7408   24.1542 N   0  0  0  0  0  0  0  0  0  0  0  0
  -27.8414  -28.0439   21.5986 N   0  0  0  0  0  0  0  0  0  0  0  0
  -25.5876  -33.8176   23.7485 N   0  0  0  0  0  0  0  0  0  0  0  0
  -23.4741  -36.2693   22.1393 N   0  3  0  0  0  0  0  0  0  0  0  0
  -18.3343  -25.1104   19.7048 O   0  0  0  0  0  0  0  0  0  0  0  0
  -29.2417  -20.5412   20.0191 O   0  0  0  0  0  0  0  0  0  0  0  0
  -25.9410  -28.1995   22.9354 O   0  0  0  0  0  0  0  0  0  0  0  0
  -27.5565  -31.9997   22.7349 O   0  0  0  0  0  0  0  0  0  0  0  0
  -23.2751  -33.8626   23.5831 O   0  0  0  0  0  0  0  0  0  0  0  0
  -21.9807  -22.2969   26.4040 O   0  0  0  0  0  0  0  0  0  0  0  0
  -26.7586  -13.1700   19.7260 O   0  0  0  0  0  0  0  0  0  0  0  0
  -20.0581  -28.3608   21.1887 O   0  0  0  0  0  0  0  0  0  1  0  0
  -31.5835  -10.7637   18.5707 F   0  0  0  0  0  0  0  0  0  0  0  0
  -27.4991  -10.8110   20.9626 F   0  0  0  0  0  0  0  0  0  0  0  0
  1  2  1  0  0  0  0
  1  5  2  0  0  0  0
  2  6  2  0  0  0  0
  3 12  2  0  0  0  0
  3 19  1  0  0  0  0
  4 13  1  0  0  0  0
  4 19  2  0  0  0  0
  5 21  1  0  0  0  0
  6 23  1  0  0  0  0
  7 14  2  0  0  0  0
  7 22  1  0  0  0  0
  8 10  2  0  0  0  0
  8 25  1  0  0  0  0
  9 11  1  0  0  0  0
  9 25  2  0  0  0  0
 10 26  1  0  0  0  0
 11 26  2  0  0  0  0
 12 27  1  0  0  0  0
 13 27  2  0  0  0  0
 14 28  1  0  0  0  0
 15 16  2  0  0  0  0
 15 29  1  0  0  0  0
 16 30  1  0  0  0  0
 17 24  1  0  0  0  0
 17 28  2  0  0  0  0
 18 30  2  0  0  0  0
 18 31  1  0  0  0  0
 19 32  1  0  0  0  0
 20 32  1  0  0  0  0
 20 33  2  0  0  0  0
 20 35  1  0  0  0  0
 21 23  2  0  0  0  0
 21 40  1  0  0  0  0
 22 24  2  0  0  0  0
 22 41  1  0  0  0  0
 23 51  1  0  0  0  0
 24 42  1  0  0  0  0
 25 66  1  0  0  0  0
 26 71  1  0  0  0  0
 27 81  1  0  0  0  0
 28 82  1  0  0  0  0
 29 31  2  0  0  0  0
 29 81  1  0  0  0  0
 30 83  1  0  0  0  0
 31 84  1  0  0  0  0
 32 64  2  0  0  0  0
 33 65  1  0  0  0  0
 33 69  1  0  0  0  0
 34 43  1  0  0  0  0
 34 66  1  0  0  0  0
 34 75  2  0  0  0  0
 35 70  1  0  0  0  0
 35 76  2  0  0  0  0
 36 52  1  0  0  0  0
 36 72  1  0  0  0  0
 36 77  2  0  0  0  0
 37 61  1  0  0  0  0
 37 67  1  0  0  0  0
 37 78  2  0  0  0  0
 38 62  1  0  0  0  0
 38 73  1  0  0  0  0
 38 79  2  0  0  0  0
 39 68  1  0  0  0  0
 39 71  1  0  0  0  0
 39 80  2  0  0  0  0
 40 44  1  0  0  0  0
 41 52  1  0  0  0  0
 42 67  1  0  0  0  0
 43 45  1  0  0  0  0
 44 47  1  0  0  0  0
 45 54  1  0  0  0  0
 46 48  1  0  0  0  0
 46 49  1  0  0  0  0
 47 51  1  0  0  0  0
 48 53  1  0  0  0  0
 49 68  1  0  0  0  0
 50 53  1  0  0  0  0
 50 68  1  0  0  0  0
 51 72  1  0  0  0  0
 52 67  1  0  0  0  0
 53 65  1  0  0  0  0
 54 60  1  0  0  0  0
 54 66  1  0  0  0  0
 55 62  1  0  0  0  0
 56 63  1  0  0  0  0
 57 63  1  0  0  0  0
 58 63  1  0  0  0  0
 59 74  1  0  0  0  0
 60 82  1  0  0  0  0
 61 63  1  0  0  0  0
 61 73  1  0  0  0  0
 62 74  1  0  0  0  0
 64 65  1  0  0  0  0
M  CHG  1  74   1
M  ISO  4  39 100  60 101  71 100  82 101
M  END
> <Batch ID>
0101

> <Smiles>
CNC(C)C(=O)NC(C(=O)N1Cc2cc([101O:1][101CH2:1]C3CCC(=O)N3c3ccc([100NH:0][100C:0](=O)N4CCCC(n5nc(-c6ccc(Oc7ccc(F)cc7F)cc6)c(C(N)=O)c5N)C4)cc3)ccc2CC1C(=O)NC1CCCc2ccccc21)C(C)(C)C

> <Shape>
0.300

> <Color>
0.068

> <Negative vol penalty>
0.000

$$$$

  -OEChem-04052301003D

 87 96  0     1  0  0  0  0  0999 V2000
  -35.7170  -29.6341   20.6441 C   0  0  0  0  0  0  0  0  0  0  0  0
  -34.6280  -30.0951   19.9113 C   0  0  0  0  0  0  0  0  0  0  0  0
  -28.3443  -14.1371   21.6214 C   0  0  0  0  0  0  0  0  0  0  0  0
  -27.9095  -14.8024   19.3398 C   0  0  0  0  0  0  0  0  0  0  0  0
  -35.9295  -28.2636   20.7875 C   0  0  0  0  0  0  0  0  0  0  0  0
  -33.7515  -29.1857   19.3205 C   0  0  0  0  0  0  0  0  0  0  0  0
  -26.7355  -29.2014   20.9536 C   0  0  0  0  0  0  0  0  0  0  0  0
  -19.1189  -22.5550   22.0822 C   0  0  0  0  0  0  0  0  0  0  0  0
  -21.0215  -22.8474   23.5422 C   0  0  0  0  0  0  0  0  0  0  0  0
  -19.1378  -23.9176   21.7846 C   0  0  0  0  0  0  0  0  0  0  0  0
  -21.0404  -24.2100   23.2445 C   0  0  0  0  0  0  0  0  0  0  0  0
  -29.7161  -14.2309   21.3873 C   0  0  0  0  0  0  0  0  0  0  0  0
  -29.2813  -14.8962   19.1057 C   0  0  0  0  0  0  0  0  0  0  0  0
  -25.3462  -29.2785   21.0548 C   0  0  0  0  0  0  0  0  0  0  0  0
  -32.0467  -16.6718   21.1804 C   0  0  0  0  0  0  0  0  0  0  0  0
  -32.8261  -17.3143   22.1423 C   0  0  0  0  0  0  0  0  0  0  0  0
  -25.1232  -27.3568   19.6039 C   0  0  0  0  0  0  0  0  0  0  0  0
  -34.1069  -15.2900   22.4566 C   0  0  0  0  0  0  0  0  0  0  0  0
  -27.4409  -14.4228   20.5976 C   0  0  0  0  0  0  0  0  0  0  0  0
  -25.3054  -13.1819   21.2356 C   0  0  0  0  0  0  0  0  0  0  0  0
  -35.0496  -27.3370   20.2062 C   0  0  0  0  0  0  0  0  0  0  0  0
  -27.3249  -28.1911   20.1885 C   0  0  0  0  0  0  0  0  0  0  0  0
  -33.9531  -27.8015   19.4551 C   0  0  0  0  0  0  0  0  0  0  0  0
  -26.5145  -27.2670   19.5088 C   0  0  0  0  0  0  0  0  0  0  0  0
  -20.0607  -22.0199   22.9610 C   0  0  0  0  0  0  0  0  0  0  0  0
  -20.0986  -24.7451   22.3657 C   0  0  0  0  0  0  0  0  0  0  0  0
  -30.1847  -14.6104   20.1294 C   0  0  0  0  0  0  0  0  0  0  0  0
  -24.5421  -28.3586   20.3815 C   0  0  0  0  0  0  0  0  0  0  0  0
  -32.2974  -15.3384   20.8565 C   0  0  0  0  0  0  0  0  0  0  0  0
  -33.8562  -16.6234   22.7804 C   0  0  0  0  0  0  0  0  0  0  0  0
  -33.3275  -14.6475   21.4946 C   0  0  0  0  0  0  0  0  0  0  0  0
  -26.0237  -14.3257   20.8387 C   0  0  0  0  0  0  0  0  0  0  0  0
  -24.0032  -13.6090   21.3276 C   0  0  0  0  0  0  0  0  0  0  0  0
  -18.8867  -26.7826   21.7411 C   0  0  0  0  0  0  0  0  0  0  0  0
  -21.3765  -26.8218   22.0802 C   0  0  0  0  0  0  0  0  0  0  0  0
  -25.7734  -11.8522   21.4977 C   0  0  0  0  0  0  0  0  0  0  0  0
  -30.4931  -26.6061   18.9531 C   0  0  0  0  0  0  0  0  0  0  0  0
  -28.5687  -24.3223   19.6542 C   0  0  0  0  0  0  0  0  0  0  0  0
  -27.1443  -21.3698   20.5982 C   0  0  0  0  0  0  0  0  0  0  0  0
  -21.6743  -18.9335   22.3670 C   0  0  0  0  0  0  0  0  0  0  0  0
  -35.3470  -25.8653   20.3489 C   0  0  0  0  0  0  0  0  0  0  0  0
  -28.8155  -28.1072   20.0014 C   0  0  0  0  0  0  0  0  0  0  0  0
  -27.1916  -26.2182   18.6695 C   0  0  0  0  0  0  0  0  0  0  0  0
  -18.9452  -28.2171   21.2584 C   0  0  0  0  0  0  0  0  0  0  0  0
  -34.1606  -24.9681   20.0059 C   0  0  0  0  0  0  0  0  0  0  0  0
  -20.3256  -28.6736   20.8478 C   0  0  0  0  0  0  0  0  0  0  0  0
  -20.9836  -16.8398   19.4970 C   0  0  0  0  0  0  0  0  0  0  0  0
  -33.5108  -25.4179   18.7011 C   0  0  0  0  0  0  0  0  0  0  0  0
  -22.1429  -15.8438   19.5612 C   0  0  0  0  0  0  0  0  0  0  0  0
  -21.4337  -18.2390   19.9069 C   0  0  0  0  0  0  0  0  0  0  0  0
  -23.2321  -17.3168   21.3172 C   0  0  0  0  0  0  0  0  0  0  0  0
  -32.9660  -26.8464   18.8199 C   0  0  1  0  0  0  0  0  0  0  0  0
  -21.2930  -28.3375   21.9686 C   0  0  2  0  0  0  0  0  0  0  0  0
  -29.3304  -26.6602   19.9001 C   0  0  1  0  0  0  0  0  0  0  0  0
  -22.8363  -15.8787   20.9360 C   0  0  2  0  0  0  0  0  0  0  0  0
  -26.7722  -18.8900   20.6949 C   0  0  0  0  0  0  0  0  0  0  0  0
  -26.9442  -24.8346   17.1239 C   0  0  0  0  0  0  0  0  0  0  0  0
  -26.2172  -22.4398   17.1910 C   0  0  0  0  0  0  0  0  0  0  0  0
  -28.6333  -23.0009   16.9263 C   0  0  0  0  0  0  0  0  0  0  0  0
  -29.1273  -21.0399   22.7703 C   0  0  0  0  0  0  0  0  0  0  0  0
  -20.0403  -20.5630   23.2792 C   0  0  0  0  0  0  0  0  0  0  0  0
  -22.6615  -28.9622   21.7067 C   0  0  0  0  0  0  0  0  0  1  0  0
  -27.5154  -23.3606   19.1652 C   0  0  1  0  0  0  0  0  0  0  0  0
  -27.7531  -20.0241   20.9486 C   0  0  2  0  0  0  0  0  0  0  0  0
  -27.3228  -23.4262   17.6238 C   0  0  0  0  0  0  0  0  0  0  0  0
  -25.2427  -15.3987   20.6887 N   0  0  0  0  0  0  0  0  0  0  0  0
  -24.0200  -14.9310   20.9929 N   0  0  0  0  0  0  0  0  0  0  0  0
  -20.1187  -26.1611   22.0564 N   0  0  0  0  0  0  0  0  0  0  0  0
  -28.3598  -25.6802   19.3839 N   0  0  0  0  0  0  0  0  0  0  0  0
  -22.0686  -18.2058   21.2320 N   0  0  0  0  0  0  0  0  0  0  0  0
  -22.8569  -12.9788   21.6612 N   0  0  0  0  0  0  0  0  0  0  0  0
  -26.1722  -11.5293   22.8020 N   0  0  0  0  0  0  0  0  0  0  0  0
  -31.7156  -26.8514   19.5486 N   0  0  0  0  0  0  0  0  0  0  0  0
  -27.9010  -22.0449   19.6638 N   0  0  0  0  0  0  0  0  0  0  0  0
  -20.5677  -19.7572   22.2005 N   0  0  0  0  0  0  0  0  0  0  0  0
  -28.1469  -19.9921   22.3856 N   0  3  0  0  0  0  0  0  0  0  0  0
  -17.7727  -26.2755   21.9090 O   0  0  0  0  0  0  0  0  0  0  0  0
  -22.4708  -26.2607   22.1647 O   0  0  0  0  0  0  0  0  0  0  0  0
  -25.8515  -10.9812   20.5984 O   0  0  0  0  0  0  0  0  0  0  0  0
  -30.2969  -26.3584   17.7691 O   0  0  0  0  0  0  0  0  0  0  0  0
  -29.5537  -23.8838   20.2549 O   0  0  0  0  0  0  0  0  0  0  0  0
  -26.0999  -21.7794   21.1001 O   0  0  0  0  0  0  0  0  0  0  0  0
  -22.2619  -18.8513   23.4510 O   0  0  0  0  0  0  0  0  0  0  0  0
  -31.5233  -14.7022   19.9007 O   0  0  0  0  0  0  0  0  0  0  0  0
  -23.1867  -28.4368   20.4883 O   0  0  0  0  0  0  0  0  0  1  0  0
  -34.6056  -17.2410   23.7031 F   0  0  0  0  0  0  0  0  0  0  0  0
  -33.5738  -13.3667   21.1869 F   0  0  0  0  0  0  0  0  0  0  0  0
  1  2  1  0  0  0  0
  1  5  2  0  0  0  0
  2  6  2  0  0  0  0
  3 12  2  0  0  0  0
  3 19  1  0  0  0  0
  4 13  1  0  0  0  0
  4 19  2  0  0  0  0
  5 21  1  0  0  0  0
  6 23  1  0  0  0  0
  7 14  2  0  0  0  0
  7 22  1  0  0  0  0
  8 10  2  0  0  0  0
  8 25  1  0  0  0  0
  9 11  1  0  0  0  0
  9 25  2  0  0  0  0
 10 26  1  0  0  0  0
 11 26  2  0  0  0  0
 12 27  1  0  0  0  0
 13 27  2  0  0  0  0
 14 28  1  0  0  0  0
 15 16  2  0  0  0  0
 15 29  1  0  0  0  0
 16 30  1  0  0  0  0
 17 24  1  0  0  0  0
 17 28  2  0  0  0  0
 18 30  2  0  0  0  0
 18 31  1  0  0  0  0
 19 32  1  0  0  0  0
 20 32  1  0  0  0  0
 20 33  2  0  0  0  0
 20 36  1  0  0  0  0
 21 23  2  0  0  0  0
 21 41  1  0  0  0  0
 22 24  2  0  0  0  0
 22 42  1  0  0  0  0
 23 52  1  0  0  0  0
 24 43  1  0  0  0  0
 25 61  1  0  0  0  0
 26 68  1  0  0  0  0
 27 84  1  0  0  0  0
 28 85  1  0  0  0  0
 29 31  2  0  0  0  0
 29 84  1  0  0  0  0
 30 86  1  0  0  0  0
 31 87  1  0  0  0  0
 32 66  2  0  0  0  0
 33 67  1  0  0  0  0
 33 71  1  0  0  0  0
 34 44  1  0  0  0  0
 34 68  1  0  0  0  0
 34 77  2  0  0  0  0
 35 53  1  0  0  0  0
 35 68  1  0  0  0  0
 35 78  2  0  0  0  0
 36 72  1  0  0  0  0
 36 79  2  0  0  0  0
 37 54  1  0  0  0  0
 37 73  1  0  0  0  0
 37 80  2  0  0  0  0
 38 63  1  0  0  0  0
 38 69  1  0  0  0  0
 38 81  2  0  0  0  0
 39 64  1  0  0  0  0
 39 74  1  0  0  0  0
 39 82  2  0  0  0  0
 40 70  1  0  0  0  0
 40 75  1  0  0  0  0
 40 83  2  0  0  0  0
 41 45  1  0  0  0  0
 42 54  1  0  0  0  0
 43 69  1  0  0  0  0
 44 46  1  0  0  0  0
 45 48  1  0  0  0  0
 46 53  1  0  0  0  0
 47 49  1  0  0  0  0
 47 50  1  0  0  0  0
 48 52  1  0  0  0  0
 49 55  1  0  0  0  0
 50 70  1  0  0  0  0
 51 55  1  0  0  0  0
 51 70  1  0  0  0  0
 52 73  1  0  0  0  0
 53 62  1  0  0  0  0
 54 69  1  0  0  0  0
 55 67  1  0  0  0  0
 56 64  1  0  0  0  0
 57 65  1  0  0  0  0
 58 65  1  0  0  0  0
 59 65  1  0  0  0  0
 60 76  1  0  0  0  0
 61 75  1  0  0  0  0
 62 85  1  0  0  0  0
 63 65  1  0  0  0  0
 63 74  1  0  0  0  0
 64 76  1  0  0  0  0
 66 67  1  0  0  0  0
M  CHG  1  76   1
M  ISO  4  40 100  62 101  75 100  85 101
M  END
> <Batch ID>
0101

> <Smiles>
CNC(C)C(=O)NC(C(=O)N1Cc2cc([101O:1][101CH2:1]C3CCC(=O)N(c4ccc(C[100NH:0][100C:0](=O)N5CCCC(n6nc(-c7ccc(Oc8ccc(F)cc8F)cc7)c(C(N)=O)c6N)C5)cc4)C3=O)ccc2CC1C(=O)NC1CCCc2ccccc21)C(C)(C)C

> <Shape>
0.228

> <Color>
0.080

> <Negative vol penalty>
0.000

$$$$

  -OEChem-04052301003D

 87 96  0     1  0  0  0  0  0999 V2000
  -29.6389  -35.7213   24.2944 C   0  0  0  0  0  0  0  0  0  0  0  0
  -29.6784  -34.3696   23.9677 C   0  0  0  0  0  0  0  0  0  0  0  0
  -24.6811   -8.5708   21.3638 C   0  0  0  0  0  0  0  0  0  0  0  0
  -23.1874  -10.4692   21.4071 C   0  0  0  0  0  0  0  0  0  0  0  0
  -28.4255  -36.3216   24.6277 C   0  0  0  0  0  0  0  0  0  0  0  0
  -28.5044  -33.6171   23.9753 C   0  0  0  0  0  0  0  0  0  0  0  0
  -27.0709  -28.9937   20.2235 C   0  0  0  0  0  0  0  0  0  0  0  0
  -23.9182   -7.9480   22.3515 C   0  0  0  0  0  0  0  0  0  0  0  0
  -22.4245   -9.8464   22.3949 C   0  0  0  0  0  0  0  0  0  0  0  0
  -27.1433  -27.6093   20.3709 C   0  0  0  0  0  0  0  0  0  0  0  0
  -21.0131   -6.2282   22.5409 C   0  0  0  0  0  0  0  0  0  0  0  0
  -20.7037   -4.8793   22.3668 C   0  0  0  0  0  0  0  0  0  0  0  0
  -28.2037  -18.5054   21.2031 C   0  0  0  0  0  0  0  0  0  0  0  0
  -24.8204  -27.5630   21.0198 C   0  0  0  0  0  0  0  0  0  0  0  0
  -25.9309  -18.0740   20.5063 C   0  0  0  0  0  0  0  0  0  0  0  0
  -21.8467   -4.3510   24.4288 C   0  0  0  0  0  0  0  0  0  0  0  0
  -24.3158   -9.8315   20.8916 C   0  0  0  0  0  0  0  0  0  0  0  0
  -27.8112  -19.7407   21.7185 C   0  0  0  0  0  0  0  0  0  0  0  0
  -24.9357  -10.3754   18.4776 C   0  0  0  0  0  0  0  0  0  0  0  0
  -27.2346  -35.5783   24.6300 C   0  0  0  0  0  0  0  0  0  0  0  0
  -25.8736  -29.6757   20.4842 C   0  0  0  0  0  0  0  0  0  0  0  0
  -27.2741  -34.2077   24.3102 C   0  0  0  0  0  0  0  0  0  0  0  0
  -24.7347  -28.9558   20.8726 C   0  0  0  0  0  0  0  0  0  0  0  0
  -26.4785  -20.1426   21.6279 C   0  0  0  0  0  0  0  0  0  0  0  0
  -27.2635  -17.6721   20.5969 C   0  0  0  0  0  0  0  0  0  0  0  0
  -25.5384  -19.3092   21.0218 C   0  0  0  0  0  0  0  0  0  0  0  0
  -22.7899   -8.5857   22.8671 C   0  0  0  0  0  0  0  0  0  0  0  0
  -26.0187  -26.8940   20.7719 C   0  0  0  0  0  0  0  0  0  0  0  0
  -21.7394   -6.6385   23.6589 C   0  0  0  0  0  0  0  0  0  0  0  0
  -21.1205   -3.9407   23.3107 C   0  0  0  0  0  0  0  0  0  0  0  0
  -22.1561   -5.6999   24.6029 C   0  0  0  0  0  0  0  0  0  0  0  0
  -25.1038  -10.4756   19.8717 C   0  0  0  0  0  0  0  0  0  0  0  0
  -25.9274  -11.1687   17.9543 C   0  0  0  0  0  0  0  0  0  0  0  0
  -28.8200  -20.5870   22.3442 C   0  0  0  0  0  0  0  0  0  0  0  0
  -23.9695   -9.6319   17.7231 C   0  0  0  0  0  0  0  0  0  0  0  0
  -24.9714  -31.9131   22.5538 C   0  0  0  0  0  0  0  0  0  0  0  0
  -22.2177  -31.8354   20.8411 C   0  0  0  0  0  0  0  0  0  0  0  0
  -20.1379  -30.0857   18.7771 C   0  0  0  0  0  0  0  0  0  0  0  0
  -28.9442  -15.8679   20.0804 C   0  0  0  0  0  0  0  0  0  0  0  0
  -25.9543  -36.2600   25.0430 C   0  0  0  0  0  0  0  0  0  0  0  0
  -25.8048  -31.1662   20.2947 C   0  0  0  0  0  0  0  0  0  0  0  0
  -23.4200  -29.6383   21.1450 C   0  0  0  0  0  0  0  0  0  0  0  0
  -24.6986  -35.4794   24.6632 C   0  0  0  0  0  0  0  0  0  0  0  0
  -30.3253  -12.7958   18.9264 C   0  0  0  0  0  0  0  0  0  0  0  0
  -24.8502  -34.0088   25.0389 C   0  0  0  0  0  0  0  0  0  0  0  0
  -29.1265  -11.8447   18.9052 C   0  0  0  0  0  0  0  0  0  0  0  0
  -25.0551  -22.9846   23.4951 C   0  0  0  0  0  0  0  0  0  0  0  0
  -30.2622  -13.7615   20.1084 C   0  0  0  0  0  0  0  0  0  0  0  0
  -25.6332  -21.5711   23.5079 C   0  0  0  0  0  0  0  0  0  0  0  0
  -26.0825  -22.6066   21.3671 C   0  0  0  0  0  0  0  0  0  0  0  0
  -27.8086  -13.5636   20.2072 C   0  0  0  0  0  0  0  0  0  0  0  0
  -26.0183  -33.3638   24.2831 C   0  0  1  0  0  0  0  0  0  0  0  0
  -24.6733  -31.8172   21.0843 C   0  0  1  0  0  0  0  0  0  0  0  0
  -25.8892  -23.6927   22.4314 C   0  0  1  0  0  0  0  0  0  0  0  0
  -27.7945  -12.6147   18.9977 C   0  0  2  0  0  0  0  0  0  0  0  0
  -17.9434  -30.2710   17.5741 C   0  0  0  0  0  0  0  0  0  0  0  0
  -20.7400  -31.3898   23.4731 C   0  0  0  0  0  0  0  0  0  0  0  0
  -18.7493  -30.6464   22.1492 C   0  0  0  0  0  0  0  0  0  0  0  0
  -19.6131  -32.9732   21.8992 C   0  0  0  0  0  0  0  0  0  0  0  0
  -21.4274  -29.7583   16.1334 C   0  0  0  0  0  0  0  0  0  0  0  0
  -25.2300  -24.9502   21.8925 C   0  0  0  0  0  0  0  0  0  1  0  0
  -20.9309  -31.0501   20.9208 C   0  0  1  0  0  0  0  0  0  0  0  0
  -19.4482  -30.4702   17.4806 C   0  0  2  0  0  0  0  0  0  0  0  0
  -20.0334  -31.5020   22.1074 C   0  0  0  0  0  0  0  0  0  0  0  0
  -26.1222  -11.2697   20.2125 N   0  0  0  0  0  0  0  0  0  0  0  0
  -26.6031  -11.6757   19.0251 N   0  0  0  0  0  0  0  0  0  0  0  0
  -26.0916  -21.3643   22.1365 N   0  0  3  0  0  0  0  0  0  0  0  0
  -23.4049  -31.0977   20.9519 N   0  0  0  0  0  0  0  0  0  0  0  0
  -28.9742  -14.4581   20.1293 N   0  0  0  0  0  0  0  0  0  0  0  0
  -24.1831  -19.6962   20.9171 N   0  0  0  0  0  0  0  0  0  0  0  0
  -26.2786  -11.4748   16.6873 N   0  0  0  0  0  0  0  0  0  0  0  0
  -29.4978  -21.4889   21.5319 N   0  0  0  0  0  0  0  0  0  0  0  0
  -23.0215   -8.8693   18.4189 N   0  0  0  0  0  0  0  0  0  0  0  0
  -27.6626  -16.4175   20.0730 N   0  0  0  0  0  0  0  0  0  0  0  0
  -25.6359  -33.0684   22.9189 N   0  0  0  0  0  0  0  0  0  0  0  0
  -20.2970  -31.1712   19.6124 N   0  0  0  0  0  0  0  0  0  0  0  0
  -19.9630  -29.6410   16.3544 N   0  3  0  0  0  0  0  0  0  0  0  0
  -29.0776  -20.4950   23.5554 O   0  0  0  0  0  0  0  0  0  0  0  0
  -23.9576   -9.6304   16.4688 O   0  0  0  0  0  0  0  0  0  0  0  0
  -24.6229  -31.0068   23.3014 O   0  0  0  0  0  0  0  0  0  0  0  0
  -22.1714  -33.0574   20.6790 O   0  0  0  0  0  0  0  0  0  0  0  0
  -20.4962  -28.9366   19.0257 O   0  0  0  0  0  0  0  0  0  0  0  0
  -29.9788  -16.5373   20.0202 O   0  0  0  0  0  0  0  0  0  0  0  0
  -22.0450   -7.9782   23.8307 O   0  0  0  0  0  0  0  0  0  0  0  0
  -26.0868  -25.5426   20.9171 O   0  0  0  0  0  0  0  0  0  1  0  0
  -20.8220   -2.6456   23.1442 F   0  0  0  0  0  0  0  0  0  0  0  0
  -22.8530   -6.0883   25.6796 F   0  0  0  0  0  0  0  0  0  0  0  0
  1  2  1  0  0  0  0
  1  5  2  0  0  0  0
  2  6  2  0  0  0  0
  3  8  2  0  0  0  0
  3 17  1  0  0  0  0
  4  9  1  0  0  0  0
  4 17  2  0  0  0  0
  5 20  1  0  0  0  0
  6 22  1  0  0  0  0
  7 10  2  0  0  0  0
  7 21  1  0  0  0  0
  8 27  1  0  0  0  0
  9 27  2  0  0  0  0
 10 28  1  0  0  0  0
 11 12  2  0  0  0  0
 11 29  1  0  0  0  0
 12 30  1  0  0  0  0
 13 18  1  0  0  0  0
 13 25  2  0  0  0  0
 14 23  1  0  0  0  0
 14 28  2  0  0  0  0
 15 25  1  0  0  0  0
 15 26  2  0  0  0  0
 16 30  2  0  0  0  0
 16 31  1  0  0  0  0
 17 32  1  0  0  0  0
 18 24  2  0  0  0  0
 18 34  1  0  0  0  0
 19 32  1  0  0  0  0
 19 33  2  0  0  0  0
 19 35  1  0  0  0  0
 20 22  2  0  0  0  0
 20 40  1  0  0  0  0
 21 23  2  0  0  0  0
 21 41  1  0  0  0  0
 22 52  1  0  0  0  0
 23 42  1  0  0  0  0
 24 26  1  0  0  0  0
 24 67  1  0  0  0  0
 25 74  1  0  0  0  0
 26 70  1  0  0  0  0
 27 84  1  0  0  0  0
 28 85  1  0  0  0  0
 29 31  2  0  0  0  0
 29 84  1  0  0  0  0
 30 86  1  0  0  0  0
 31 87  1  0  0  0  0
 32 65  2  0  0  0  0
 33 66  1  0  0  0  0
 33 71  1  0  0  0  0
 34 72  1  0  0  0  0
 34 78  2  0  0  0  0
 35 73  1  0  0  0  0
 35 79  2  0  0  0  0
 36 53  1  0  0  0  0
 36 75  1  0  0  0  0
 36 80  2  0  0  0  0
 37 62  1  0  0  0  0
 37 68  1  0  0  0  0
 37 81  2  0  0  0  0
 38 63  1  0  0  0  0
 38 76  1  0  0  0  0
 38 82  2  0  0  0  0
 39 69  1  0  0  0  0
 39 74  1  0  0  0  0
 39 83  2  0  0  0  0
 40 43  1  0  0  0  0
 41 53  1  0  0  0  0
 42 68  1  0  0  0  0
 43 45  1  0  0  0  0
 44 46  1  0  0  0  0
 44 48  1  0  0  0  0
 45 52  1  0  0  0  0
 46 55  1  0  0  0  0
 47 49  1  0  0  0  0
 47 54  1  0  0  0  0
 48 69  1  0  0  0  0
 49 67  1  0  0  0  0
 50 54  1  0  0  0  0
 50 67  1  0  0  0  0
 51 55  1  0  0  0  0
 51 69  1  0  0  0  0
 52 75  1  0  0  0  0
 53 68  1  0  0  0  0
 54 61  1  0  0  0  0
 55 66  1  0  0  0  0
 56 63  1  0  0  0  0
 57 64  1  0  0  0  0
 58 64  1  0  0  0  0
 59 64  1  0  0  0  0
 60 77  1  0  0  0  0
 61 85  1  0  0  0  0
 62 64  1  0  0  0  0
 62 76  1  0  0  0  0
 63 77  1  0  0  0  0
 65 66  1  0  0  0  0
M  CHG  1  77   1
M  ISO  4  39 100  61 101  74 100  85 101
M  END
> <Batch ID>
0101

> <Smiles>
CNC(C)C(=O)NC(C(=O)N1Cc2cc([101O:1][101CH2:1]C3CCN(c4c(N)cc([100NH:0][100C:0](=O)N5CCCC(n6nc(-c7ccc(Oc8ccc(F)cc8F)cc7)c(C(N)=O)c6N)C5)cc4C(N)=O)C3)ccc2CC1C(=O)NC1CCCc2ccccc21)C(C)(C)C

> <Shape>
0.256

> <Color>
0.095

> <Negative vol penalty>
0.000

$$$$

  -OEChem-04052301003D

 88 97  0     1  0  0  0  0  0999 V2000
  -25.8807  -33.0756   19.2848 C   0  0  0  0  0  0  0  0  0  0  0  0
  -26.7231  -32.0181   19.6123 C   0  0  0  0  0  0  0  0  0  0  0  0
  -22.6788  -10.1656   20.3089 C   0  0  0  0  0  0  0  0  0  0  0  0
  -24.2762   -9.5973   22.0300 C   0  0  0  0  0  0  0  0  0  0  0  0
  -24.6568  -33.2183   19.9371 C   0  0  0  0  0  0  0  0  0  0  0  0
  -26.3425  -31.1030   20.5933 C   0  0  0  0  0  0  0  0  0  0  0  0
  -27.2135  -26.3073   19.2194 C   0  0  0  0  0  0  0  0  0  0  0  0
  -31.7077  -17.6112   21.9666 C   0  0  0  0  0  0  0  0  0  0  0  0
  -32.2107  -18.8865   21.7096 C   0  0  0  0  0  0  0  0  0  0  0  0
  -21.9406   -9.0229   20.6166 C   0  0  0  0  0  0  0  0  0  0  0  0
  -23.5380   -8.4545   22.3378 C   0  0  0  0  0  0  0  0  0  0  0  0
  -28.5265  -25.8475   19.3101 C   0  0  0  0  0  0  0  0  0  0  0  0
  -20.7339   -7.6922   24.0630 C   0  0  0  0  0  0  0  0  0  0  0  0
  -20.5040   -7.4144   25.4104 C   0  0  0  0  0  0  0  0  0  0  0  0
  -27.9962  -24.7637   21.3990 C   0  0  0  0  0  0  0  0  0  0  0  0
  -30.5688  -19.1818   19.9619 C   0  0  0  0  0  0  0  0  0  0  0  0
  -21.6504   -5.3013   25.1702 C   0  0  0  0  0  0  0  0  0  0  0  0
  -23.8466  -10.4529   21.0156 C   0  0  0  0  0  0  0  0  0  0  0  0
  -24.1728  -12.9698   20.7576 C   0  0  0  0  0  0  0  0  0  0  0  0
  -24.2567  -32.2990   20.9197 C   0  0  0  0  0  0  0  0  0  0  0  0
  -26.2832  -26.0075   20.2249 C   0  0  0  0  0  0  0  0  0  0  0  0
  -25.1127  -31.2342   21.2603 C   0  0  0  0  0  0  0  0  0  0  0  0
  -26.6714  -25.2188   21.3174 C   0  0  0  0  0  0  0  0  0  0  0  0
  -30.6353  -17.1211   21.2212 C   0  0  0  0  0  0  0  0  0  0  0  0
  -31.6412  -19.6719   20.7072 C   0  0  0  0  0  0  0  0  0  0  0  0
  -30.0659  -17.9064   20.2189 C   0  0  0  0  0  0  0  0  0  0  0  0
  -22.3702   -8.1673   21.6310 C   0  0  0  0  0  0  0  0  0  0  0  0
  -28.9188  -25.0779   20.4014 C   0  0  0  0  0  0  0  0  0  0  0  0
  -21.4219   -6.7745   23.2691 C   0  0  0  0  0  0  0  0  0  0  0  0
  -20.9623   -6.2189   25.9640 C   0  0  0  0  0  0  0  0  0  0  0  0
  -21.8802   -5.5791   23.8228 C   0  0  0  0  0  0  0  0  0  0  0  0
  -24.6099  -11.6329   20.6978 C   0  0  0  0  0  0  0  0  0  0  0  0
  -25.2628  -13.7055   20.3616 C   0  0  0  0  0  0  0  0  0  0  0  0
  -33.5402  -21.2223   20.6874 C   0  0  0  0  0  0  0  0  0  0  0  0
  -31.2566  -21.9789   19.9608 C   0  0  0  0  0  0  0  0  0  0  0  0
  -22.8956  -13.4992   21.1374 C   0  0  0  0  0  0  0  0  0  0  0  0
  -24.5660  -27.7240   22.2764 C   0  0  0  0  0  0  0  0  0  0  0  0
  -30.7586  -14.7112   20.6355 C   0  0  0  0  0  0  0  0  0  0  0  0
  -23.2471  -24.8451   22.9797 C   0  0  0  0  0  0  0  0  0  0  0  0
  -24.4076  -21.4617   23.4519 C   0  0  0  0  0  0  0  0  0  0  0  0
  -22.9455  -32.5214   21.6310 C   0  0  0  0  0  0  0  0  0  0  0  0
  -24.8637  -26.4886   20.0989 C   0  0  0  0  0  0  0  0  0  0  0  0
  -25.7057  -24.8520   22.4135 C   0  0  0  0  0  0  0  0  0  0  0  0
  -34.0350  -22.6486   20.5647 C   0  0  0  0  0  0  0  0  0  0  0  0
  -22.4506  -31.2951   22.3937 C   0  0  0  0  0  0  0  0  0  0  0  0
  -32.9341  -23.6830   20.5386 C   0  0  0  0  0  0  0  0  0  0  0  0
  -29.6290  -12.2713   18.2668 C   0  0  0  0  0  0  0  0  0  0  0  0
  -23.5835  -30.6812   23.2101 C   0  0  0  0  0  0  0  0  0  0  0  0
  -28.1972  -11.9754   18.7113 C   0  0  0  0  0  0  0  0  0  0  0  0
  -30.5384  -12.5469   19.4601 C   0  0  0  0  0  0  0  0  0  0  0  0
  -28.6191  -13.3450   20.8021 C   0  0  0  0  0  0  0  0  0  0  0  0
  -24.7241  -30.2070   22.3014 C   0  0  1  0  0  0  0  0  0  0  0  0
  -31.9145  -23.2691   19.4927 C   0  0  2  0  0  0  0  0  0  0  0  0
  -24.1342  -26.5548   21.4372 C   0  0  1  0  0  0  0  0  0  0  0  0
  -27.6604  -13.0912   19.6253 C   0  0  2  0  0  0  0  0  0  0  0  0
  -30.2908  -15.3441   22.9864 C   0  0  0  0  0  0  0  0  0  0  0  0
  -23.2254  -19.2716   23.1308 C   0  0  0  0  0  0  0  0  0  0  0  0
  -22.6244  -25.0753   25.9578 C   0  0  0  0  0  0  0  0  0  0  0  0
  -22.9859  -22.6056   26.1532 C   0  0  0  0  0  0  0  0  0  0  0  0
  -21.1556  -23.4857   24.7047 C   0  0  0  0  0  0  0  0  0  0  0  0
  -26.4974  -20.4721   21.6047 C   0  0  0  0  0  0  0  0  0  0  0  0
  -30.8895  -24.3784   19.2686 C   0  0  0  0  0  0  0  0  0  1  0  0
  -30.1164  -15.7518   21.5180 C   0  0  1  0  0  0  0  0  0  0  0  0
  -23.5575  -23.7370   23.9567 C   0  0  1  0  0  0  0  0  0  0  0  0
  -24.1811  -20.2848   22.5202 C   0  0  2  0  0  0  0  0  0  0  0  0
  -22.6013  -23.7427   25.1827 C   0  0  0  0  0  0  0  0  0  0  0  0
  -25.8787  -11.5229   20.2952 N   0  0  0  0  0  0  0  0  0  0  0  0
  -26.2481  -12.7999   20.0984 N   0  0  0  0  0  0  0  0  0  0  0  0
  -32.1648  -20.9969   20.4403 N   0  0  0  0  0  0  0  0  0  0  0  0
  -24.3307  -25.3515   22.2481 N   0  0  0  0  0  0  0  0  0  0  0  0
  -29.9827  -13.5969   20.3156 N   0  0  0  0  0  0  0  0  0  0  0  0
  -28.9803  -17.4255   19.4541 N   0  0  0  0  0  0  0  0  0  0  0  0
  -25.4650  -15.0323   20.2161 N   0  0  0  0  0  0  0  0  0  0  0  0
  -21.8870  -12.6031   21.5171 N   0  0  0  0  0  0  0  0  0  0  0  0
  -24.3786  -28.9515   21.6700 N   0  0  0  0  0  0  0  0  0  0  0  0
  -23.5362  -22.4972   23.1881 N   0  0  0  0  0  0  0  0  0  0  0  0
  -25.4715  -19.5982   22.2298 N   0  3  0  0  0  0  0  0  0  0  0  0
  -34.3750  -20.3394   20.9104 O   0  0  0  0  0  0  0  0  0  0  0  0
  -30.0309  -21.8527   19.9225 O   0  0  0  0  0  0  0  0  0  0  0  0
  -22.6508  -14.7294   21.1243 O   0  0  0  0  0  0  0  0  0  0  0  0
  -25.0332  -27.5272   23.3920 O   0  0  0  0  0  0  0  0  0  0  0  0
  -31.9143  -14.8866   20.2409 O   0  0  0  0  0  0  0  0  0  0  0  0
  -22.0847  -25.2417   22.8644 O   0  0  0  0  0  0  0  0  0  0  0  0
  -25.2689  -21.4609   24.3287 O   0  0  0  0  0  0  0  0  0  0  0  0
  -21.6500   -7.0522   21.9318 O   0  0  0  0  0  0  0  0  0  0  0  0
  -30.2000  -24.6283   20.4928 O   0  0  0  0  0  0  0  0  0  1  0  0
  -20.7428   -5.9530   27.2584 F   0  0  0  0  0  0  0  0  0  0  0  0
  -22.5428   -4.6941   23.0654 F   0  0  0  0  0  0  0  0  0  0  0  0
  1  2  1  0  0  0  0
  1  5  2  0  0  0  0
  2  6  2  0  0  0  0
  3 10  2  0  0  0  0
  3 18  1  0  0  0  0
  4 11  1  0  0  0  0
  4 18  2  0  0  0  0
  5 20  1  0  0  0  0
  6 22  1  0  0  0  0
  7 12  2  0  0  0  0
  7 21  1  0  0  0  0
  8  9  2  0  0  0  0
  8 24  1  0  0  0  0
  9 25  1  0  0  0  0
 10 27  1  0  0  0  0
 11 27  2  0  0  0  0
 12 28  1  0  0  0  0
 13 14  2  0  0  0  0
 13 29  1  0  0  0  0
 14 30  1  0  0  0  0
 15 23  1  0  0  0  0
 15 28  2  0  0  0  0
 16 25  2  0  0  0  0
 16 26  1  0  0  0  0
 17 30  2  0  0  0  0
 17 31  1  0  0  0  0
 18 32  1  0  0  0  0
 19 32  1  0  0  0  0
 19 33  2  0  0  0  0
 19 36  1  0  0  0  0
 20 22  2  0  0  0  0
 20 41  1  0  0  0  0
 21 23  2  0  0  0  0
 21 42  1  0  0  0  0
 22 52  1  0  0  0  0
 23 43  1  0  0  0  0
 24 26  2  0  0  0  0
 24 63  1  0  0  0  0
 25 69  1  0  0  0  0
 26 72  1  0  0  0  0
 27 85  1  0  0  0  0
 28 86  1  0  0  0  0
 29 31  2  0  0  0  0
 29 85  1  0  0  0  0
 30 87  1  0  0  0  0
 31 88  1  0  0  0  0
 32 67  2  0  0  0  0
 33 68  1  0  0  0  0
 33 73  1  0  0  0  0
 34 44  1  0  0  0  0
 34 69  1  0  0  0  0
 34 78  2  0  0  0  0
 35 53  1  0  0  0  0
 35 69  1  0  0  0  0
 35 79  2  0  0  0  0
 36 74  1  0  0  0  0
 36 80  2  0  0  0  0
 37 54  1  0  0  0  0
 37 75  1  0  0  0  0
 37 81  2  0  0  0  0
 38 63  1  0  0  0  0
 38 71  1  0  0  0  0
 38 82  2  0  0  0  0
 39 64  1  0  0  0  0
 39 70  1  0  0  0  0
 39 83  2  0  0  0  0
 40 65  1  0  0  0  0
 40 76  1  0  0  0  0
 40 84  2  0  0  0  0
 41 45  1  0  0  0  0
 42 54  1  0  0  0  0
 43 70  1  0  0  0  0
 44 46  1  0  0  0  0
 45 48  1  0  0  0  0
 46 53  1  0  0  0  0
 47 49  1  0  0  0  0
 47 50  1  0  0  0  0
 48 52  1  0  0  0  0
 49 55  1  0  0  0  0
 50 71  1  0  0  0  0
 51 55  1  0  0  0  0
 51 71  1  0  0  0  0
 52 75  1  0  0  0  0
 53 62  1  0  0  0  0
 54 70  1  0  0  0  0
 55 68  1  0  0  0  0
 56 63  1  0  0  0  0
 57 65  1  0  0  0  0
 58 66  1  0  0  0  0
 59 66  1  0  0  0  0
 60 66  1  0  0  0  0
 61 77  1  0  0  0  0
 62 86  1  0  0  0  0
 64 66  1  0  0  0  0
 64 76  1  0  0  0  0
 65 77  1  0  0  0  0
 67 68  1  0  0  0  0
M  CHG  1  77   1
M  ISO  4  38 100  62 101  63 100  86 101
M  END
> <Batch ID>
0101

> <Smiles>
CNC(C)C(=O)NC(C(=O)N1Cc2cc([101O:1][101CH2:1]C3CCC(=O)N(c4ccc([100CH:0](C)[100C:0](=O)N5CCCC(n6nc(-c7ccc(Oc8ccc(F)cc8F)cc7)c(C(N)=O)c6N)C5)c(N)c4)C3=O)ccc2CC1C(=O)NC1CCCc2ccccc21)C(C)(C)C

> <Shape>
0.290

> <Color>
0.187

> <Negative vol penalty>
0.000

$$$$

  -OEChem-04052301003D

 82 90  0     1  0  0  0  0  0999 V2000
  -16.8928  -26.7750   21.6929 C   0  0  0  0  0  0  0  0  0  0  0  0
  -18.1079  -26.1000   21.7498 C   0  0  0  0  0  0  0  0  0  0  0  0
  -23.4402  -10.5163   22.0295 C   0  0  0  0  0  0  0  0  0  0  0  0
  -23.8356   -9.4276   19.9092 C   0  0  0  0  0  0  0  0  0  0  0  0
  -16.8650  -28.1327   21.3771 C   0  0  0  0  0  0  0  0  0  0  0  0
  -19.2960  -26.7822   21.4899 C   0  0  0  0  0  0  0  0  0  0  0  0
  -24.7439  -25.8205   24.1170 C   0  0  0  0  0  0  0  0  0  0  0  0
  -22.5721   -9.4877   22.3957 C   0  0  0  0  0  0  0  0  0  0  0  0
  -22.9676   -8.3990   20.2755 C   0  0  0  0  0  0  0  0  0  0  0  0
  -25.8699  -25.1077   23.7075 C   0  0  0  0  0  0  0  0  0  0  0  0
  -22.8116   -6.3208   23.5559 C   0  0  0  0  0  0  0  0  0  0  0  0
  -22.9351   -5.7955   24.8421 C   0  0  0  0  0  0  0  0  0  0  0  0
  -27.8436  -20.9300   21.0925 C   0  0  0  0  0  0  0  0  0  0  0  0
  -26.8430  -27.1449   22.8577 C   0  0  0  0  0  0  0  0  0  0  0  0
  -20.6563   -6.4377   25.3234 C   0  0  0  0  0  0  0  0  0  0  0  0
  -24.0719  -10.4863   20.7862 C   0  0  0  0  0  0  0  0  0  0  0  0
  -28.7808  -21.9265   20.6940 C   0  0  0  0  0  0  0  0  0  0  0  0
  -26.3563  -11.6114   20.6335 C   0  0  0  0  0  0  0  0  0  0  0  0
  -18.0541  -28.8342   21.1227 C   0  0  0  0  0  0  0  0  0  0  0  0
  -24.6540  -27.2014   23.8897 C   0  0  0  0  0  0  0  0  0  0  0  0
  -19.2840  -28.1503   21.1691 C   0  0  0  0  0  0  0  0  0  0  0  0
  -25.7158  -27.8734   23.2675 C   0  0  0  0  0  0  0  0  0  0  0  0
  -22.3358   -8.4291   21.5188 C   0  0  0  0  0  0  0  0  0  0  0  0
  -26.9185  -25.7694   23.0752 C   0  0  0  0  0  0  0  0  0  0  0  0
  -21.6104   -6.9047   23.1534 C   0  0  0  0  0  0  0  0  0  0  0  0
  -21.8575   -5.8539   25.7258 C   0  0  0  0  0  0  0  0  0  0  0  0
  -20.5328   -6.9631   24.0371 C   0  0  0  0  0  0  0  0  0  0  0  0
  -24.9683  -11.5488   20.4070 C   0  0  0  0  0  0  0  0  0  0  0  0
  -26.7394  -12.8121   20.0875 C   0  0  0  0  0  0  0  0  0  0  0  0
  -29.6474  -21.4648   19.7279 C   0  0  0  0  0  0  0  0  0  0  0  0
  -28.0295  -19.7447   20.4155 C   0  0  0  0  0  0  0  0  0  0  0  0
  -28.8328  -23.3107   21.2463 C   0  0  0  0  0  0  0  0  0  0  0  0
  -27.2219  -10.6686   21.2796 C   0  0  0  0  0  0  0  0  0  0  0  0
  -22.7001  -29.0787   22.2280 C   0  0  0  0  0  0  0  0  0  0  0  0
  -24.4077  -31.4481   23.6396 C   0  0  0  0  0  0  0  0  0  0  0  0
  -27.3182  -32.4316   25.1257 C   0  0  0  0  0  0  0  0  0  0  0  0
  -25.9211  -18.2816   19.2751 C   0  0  0  0  0  0  0  0  0  0  0  0
  -17.9701  -30.2903   20.7392 C   0  0  0  0  0  0  0  0  0  0  0  0
  -23.4442  -27.9604   24.3614 C   0  0  0  0  0  0  0  0  0  0  0  0
  -25.6773  -29.3582   23.0183 C   0  0  0  0  0  0  0  0  0  0  0  0
  -19.3035  -31.0259   20.8447 C   0  0  0  0  0  0  0  0  0  0  0  0
  -24.2192  -16.0455   17.1319 C   0  0  0  0  0  0  0  0  0  0  0  0
  -20.4179  -30.2059   20.2024 C   0  0  0  0  0  0  0  0  0  0  0  0
  -24.3627  -14.6834   17.8108 C   0  0  0  0  0  0  0  0  0  0  0  0
  -24.0463  -17.1640   18.1557 C   0  0  0  0  0  0  0  0  0  0  0  0
  -25.2527  -15.8669   19.8667 C   0  0  0  0  0  0  0  0  0  0  0  0
  -20.5960  -28.8613   20.9179 C   0  0  1  0  0  0  0  0  0  0  0  0
  -23.2367  -29.2760   23.6175 C   0  0  1  0  0  0  0  0  0  0  0  0
  -25.4728  -14.7086   18.8768 C   0  0  1  0  0  0  0  0  0  0  0  0
  -28.4314  -34.4384   26.1411 C   0  0  0  0  0  0  0  0  0  0  0  0
  -24.9069  -32.5795   20.8502 C   0  0  0  0  0  0  0  0  0  0  0  0
  -26.7511  -33.9680   21.8194 C   0  0  0  0  0  0  0  0  0  0  0  0
  -24.4039  -34.2964   22.5977 C   0  0  0  0  0  0  0  0  0  0  0  0
  -27.5735  -31.1027   27.7578 C   0  0  0  0  0  0  0  0  0  0  0  0
  -27.8274  -23.7098   22.3085 C   0  0  0  0  0  0  0  0  0  1  0  0
  -25.6605  -32.2155   23.2927 C   0  0  1  0  0  0  0  0  0  0  0  0
  -27.5851  -33.2029   26.4057 C   0  0  2  0  0  0  0  0  0  0  0  0
  -25.4308  -33.2365   22.1428 C   0  0  0  0  0  0  0  0  0  0  0  0
  -24.5011  -12.6241   19.7672 N   0  0  0  0  0  0  0  0  0  0  0  0
  -25.6018  -13.3739   19.5870 N   0  0  0  0  0  0  0  0  0  0  0  0
  -24.4702  -30.0552   23.4923 N   0  0  0  0  0  0  0  0  0  0  0  0
  -25.1293  -17.1418   19.1410 N   0  0  0  0  0  0  0  0  0  0  0  0
  -27.9350  -13.4316   19.9916 N   0  0  0  0  0  0  0  0  0  0  0  0
  -30.6558  -22.1540   19.1339 N   0  0  0  0  0  0  0  0  0  0  0  0
  -26.6640   -9.4858   21.7837 N   0  0  0  0  0  0  0  0  0  0  0  0
  -21.3206  -29.0407   22.1577 N   0  0  0  0  0  0  0  0  0  0  0  0
  -26.1309  -32.8134   24.5375 N   0  0  0  0  0  0  0  0  0  0  0  0
  -28.3032  -32.3429   27.3884 N   0  3  0  0  0  0  0  0  0  0  0  0
  -29.6833  -24.0966   20.8348 O   0  0  0  0  0  0  0  0  0  0  0  0
  -28.4509  -10.8765   21.4206 O   0  0  0  0  0  0  0  0  0  0  0  0
  -23.4799  -28.9706   21.2889 O   0  0  0  0  0  0  0  0  0  0  0  0
  -23.4126  -32.0613   24.0338 O   0  0  0  0  0  0  0  0  0  0  0  0
  -28.0879  -31.5787   24.6891 O   0  0  0  0  0  0  0  0  0  0  0  0
  -25.8160  -19.3289   18.6493 O   0  0  0  0  0  0  0  0  0  0  0  0
  -28.1258  -17.1751   19.9723 O   0  0  0  0  0  0  0  0  0  0  0  0
  -26.5623  -18.0734   21.7587 O   0  0  0  0  0  0  0  0  0  0  0  0
  -21.4890   -7.4251   21.8759 O   0  0  0  0  0  0  0  0  0  0  0  0
  -28.0184  -25.0759   22.6739 O   0  0  0  0  0  0  0  0  0  1  0  0
  -21.9758   -5.3479   26.9604 F   0  0  0  0  0  0  0  0  0  0  0  0
  -19.3759   -7.5218   23.6558 F   0  0  0  0  0  0  0  0  0  0  0  0
  -29.3297  -19.8361   19.3050 S   0  0  0  0  0  0  0  0  0  0  0  0
  -27.2085  -18.1822   20.4663 S   0  0  0  0  0  0  0  0  0  0  0  0
  1  2  1  0  0  0  0
  1  5  2  0  0  0  0
  2  6  2  0  0  0  0
  3  8  2  0  0  0  0
  3 16  1  0  0  0  0
  4  9  1  0  0  0  0
  4 16  2  0  0  0  0
  5 19  1  0  0  0  0
  6 21  1  0  0  0  0
  7 10  2  0  0  0  0
  7 20  1  0  0  0  0
  8 23  1  0  0  0  0
  9 23  2  0  0  0  0
 10 24  1  0  0  0  0
 11 12  2  0  0  0  0
 11 25  1  0  0  0  0
 12 26  1  0  0  0  0
 13 17  1  0  0  0  0
 13 31  2  0  0  0  0
 14 22  1  0  0  0  0
 14 24  2  0  0  0  0
 15 26  2  0  0  0  0
 15 27  1  0  0  0  0
 16 28  1  0  0  0  0
 17 30  2  0  0  0  0
 17 32  1  0  0  0  0
 18 28  1  0  0  0  0
 18 29  2  0  0  0  0
 18 33  1  0  0  0  0
 19 21  2  0  0  0  0
 19 38  1  0  0  0  0
 20 22  2  0  0  0  0
 20 39  1  0  0  0  0
 21 47  1  0  0  0  0
 22 40  1  0  0  0  0
 23 77  1  0  0  0  0
 24 78  1  0  0  0  0
 25 27  2  0  0  0  0
 25 77  1  0  0  0  0
 26 79  1  0  0  0  0
 27 80  1  0  0  0  0
 28 59  2  0  0  0  0
 29 60  1  0  0  0  0
 29 63  1  0  0  0  0
 30 64  1  0  0  0  0
 30 81  1  0  0  0  0
 31 81  1  0  0  0  0
 31 82  1  0  0  0  0
 32 55  1  0  0  0  0
 32 69  2  0  0  0  0
 33 65  1  0  0  0  0
 33 70  2  0  0  0  0
 34 48  1  0  0  0  0
 34 66  1  0  0  0  0
 34 71  2  0  0  0  0
 35 56  1  0  0  0  0
 35 61  1  0  0  0  0
 35 72  2  0  0  0  0
 36 57  1  0  0  0  0
 36 67  1  0  0  0  0
 36 73  2  0  0  0  0
 37 62  1  0  0  0  0
 37 74  2  0  0  0  0
 37 82  1  0  0  0  0
 38 41  1  0  0  0  0
 39 48  1  0  0  0  0
 40 61  1  0  0  0  0
 41 43  1  0  0  0  0
 42 44  1  0  0  0  0
 42 45  1  0  0  0  0
 43 47  1  0  0  0  0
 44 49  1  0  0  0  0
 45 62  1  0  0  0  0
 46 49  1  0  0  0  0
 46 62  1  0  0  0  0
 47 66  1  0  0  0  0
 48 61  1  0  0  0  0
 49 60  1  0  0  0  0
 50 57  1  0  0  0  0
 51 58  1  0  0  0  0
 52 58  1  0  0  0  0
 53 58  1  0  0  0  0
 54 68  1  0  0  0  0
 55 78  1  0  0  0  0
 56 58  1  0  0  0  0
 56 67  1  0  0  0  0
 57 68  1  0  0  0  0
 59 60  1  0  0  0  0
 75 82  2  0  0  0  0
 76 82  2  0  0  0  0
M  CHG  1  68   1
M  ISO  4  37 100  55 101  78 101  82 100
M  END
> <Batch ID>
0101

> <Smiles>
CNC(C)C(=O)NC(C(=O)N1Cc2cc([101O:1][101CH2:1]C(=O)c3cc([100S:0](=O)(=O)[100C:0](=O)N4CCCC(n5nc(-c6ccc(Oc7ccc(F)cc7F)cc6)c(C(N)=O)c5N)C4)sc3N)ccc2CC1C(=O)NC1CCCc2ccccc21)C(C)(C)C

> <Shape>
0.276

> <Color>
0.084

> <Negative vol penalty>
0.000

$$$$

  -OEChem-04052301003D

 87 95  0     1  0  0  0  0  0999 V2000
  -23.6165   -7.9172   22.3266 C   0  0  0  0  0  0  0  0  0  0  0  0
  -24.3138   -8.8469   21.5619 C   0  0  0  0  0  0  0  0  0  0  0  0
  -20.6909  -28.4630   22.8968 C   0  0  0  0  0  0  0  0  0  0  0  0
  -20.0652  -26.1758   22.4338 C   0  0  0  0  0  0  0  0  0  0  0  0
  -22.2858   -8.1550   22.6684 C   0  0  0  0  0  0  0  0  0  0  0  0
  -23.6804  -10.0145   21.1375 C   0  0  0  0  0  0  0  0  0  0  0  0
  -26.5658  -14.1284   21.7665 C   0  0  0  0  0  0  0  0  0  0  0  0
  -19.3504  -28.8429   22.8320 C   0  0  0  0  0  0  0  0  0  0  0  0
  -18.7246  -26.5557   22.3692 C   0  0  0  0  0  0  0  0  0  0  0  0
  -27.5771  -14.3458   20.8318 C   0  0  0  0  0  0  0  0  0  0  0  0
  -16.6248  -28.7112   24.8288 C   0  0  0  0  0  0  0  0  0  0  0  0
  -16.1436  -29.5624   25.8234 C   0  0  0  0  0  0  0  0  0  0  0  0
  -26.1782  -15.9533   19.7012 C   0  0  0  0  0  0  0  0  0  0  0  0
  -27.8311  -21.1801   21.1904 C   0  0  0  0  0  0  0  0  0  0  0  0
  -29.1484  -20.0663   19.4989 C   0  0  0  0  0  0  0  0  0  0  0  0
  -15.5754  -31.2036   24.1438 C   0  0  0  0  0  0  0  0  0  0  0  0
  -21.0484  -27.1295   22.6976 C   0  0  0  0  0  0  0  0  0  0  0  0
  -23.1426  -26.3116   23.9030 C   0  0  0  0  0  0  0  0  0  0  0  0
  -21.6388   -9.3306   22.2562 C   0  0  0  0  0  0  0  0  0  0  0  0
  -25.3469  -14.8149   21.6692 C   0  0  0  0  0  0  0  0  0  0  0  0
  -22.3395  -10.2676   21.4730 C   0  0  0  0  0  0  0  0  0  0  0  0
  -25.1540  -15.7447   20.6375 C   0  0  0  0  0  0  0  0  0  0  0  0
  -28.3088  -21.1123   19.8816 C   0  0  0  0  0  0  0  0  0  0  0  0
  -28.1931  -20.2018   22.1165 C   0  0  0  0  0  0  0  0  0  0  0  0
  -29.0327  -19.1557   21.7338 C   0  0  0  0  0  0  0  0  0  0  0  0
  -18.3672  -27.8893   22.5683 C   0  0  0  0  0  0  0  0  0  0  0  0
  -27.3823  -15.2562   19.7972 C   0  0  0  0  0  0  0  0  0  0  0  0
  -16.5815  -29.1061   23.4917 C   0  0  0  0  0  0  0  0  0  0  0  0
  -29.5104  -19.0880   20.4250 C   0  0  0  0  0  0  0  0  0  0  0  0
  -15.6188  -30.8086   25.4809 C   0  0  0  0  0  0  0  0  0  0  0  0
  -16.0567  -30.3523   23.1492 C   0  0  0  0  0  0  0  0  0  0  0  0
  -22.4330  -26.7365   22.7638 C   0  0  0  0  0  0  0  0  0  0  0  0
  -24.4112  -26.0570   23.4421 C   0  0  0  0  0  0  0  0  0  0  0  0
  -22.6950  -26.1606   25.2567 C   0  0  0  0  0  0  0  0  0  0  0  0
  -22.3158  -13.9556   21.2476 C   0  0  0  0  0  0  0  0  0  0  0  0
  -21.7587  -17.1119   21.7470 C   0  0  0  0  0  0  0  0  0  0  0  0
  -22.9444  -20.3111   21.6687 C   0  0  0  0  0  0  0  0  0  0  0  0
  -26.2032  -24.8076   17.7180 C   0  0  0  0  0  0  0  0  0  0  0  0
  -20.1852   -9.5215   22.6103 C   0  0  0  0  0  0  0  0  0  0  0  0
  -24.2761  -14.5889   22.7010 C   0  0  0  0  0  0  0  0  0  0  0  0
  -23.8714  -16.5224   20.5004 C   0  0  0  0  0  0  0  0  0  0  0  0
  -19.6998  -10.9584   22.4372 C   0  0  0  0  0  0  0  0  0  0  0  0
  -27.5089  -27.3697   20.0487 C   0  0  0  0  0  0  0  0  0  0  0  0
  -20.1637  -11.5209   21.0973 C   0  0  0  0  0  0  0  0  0  0  0  0
  -26.3750  -27.5058   21.0634 C   0  0  0  0  0  0  0  0  0  0  0  0
  -26.9951  -26.9389   18.6783 C   0  0  0  0  0  0  0  0  0  0  0  0
  -25.0454  -25.8305   19.7195 C   0  0  0  0  0  0  0  0  0  0  0  0
  -21.6945  -11.5576   21.0147 C   0  0  1  0  0  0  0  0  0  0  0  0
  -22.8821  -14.9635   22.2073 C   0  0  1  0  0  0  0  0  0  0  0  0
  -25.5347  -26.2183   21.1229 C   0  0  2  0  0  0  0  0  0  0  0  0
  -22.9639  -22.7963   22.0164 C   0  0  0  0  0  0  0  0  0  0  0  0
  -20.2121  -17.1270   19.1168 C   0  0  0  0  0  0  0  0  0  0  0  0
  -20.3629  -19.6261   19.1230 C   0  0  0  0  0  0  0  0  0  0  0  0
  -19.1523  -18.4469   20.9578 C   0  0  0  0  0  0  0  0  0  0  0  0
  -25.3805  -22.5794   17.0565 C   0  0  0  0  0  0  0  0  0  0  0  0
  -24.0327  -20.0362   24.4071 C   0  0  0  0  0  0  0  0  0  0  0  0
  -30.6367  -16.2087   18.5270 C   0  0  0  0  0  0  0  0  0  0  0  0
  -26.5632  -22.7964   19.2105 C   0  0  0  0  0  0  0  0  0  0  0  0
  -29.7132  -15.3041   19.3279 C   0  0  0  0  0  0  0  0  0  1  0  0
  -30.2561  -17.6745   18.6638 C   0  0  0  0  0  0  0  0  0  0  0  0
  -27.9237  -22.1582   18.8908 C   0  0  1  0  0  0  0  0  0  0  0  0
  -21.6764  -18.3355   20.8665 C   0  0  1  0  0  0  0  0  0  0  0  0
  -22.8803  -21.4344   22.6879 C   0  0  2  0  0  0  0  0  0  0  0  0
  -20.3745  -18.3679   20.0172 C   0  0  0  0  0  0  0  0  0  0  0  0
  -23.1881  -26.7524   21.6622 N   0  0  0  0  0  0  0  0  0  0  0  0
  -24.3854  -26.3343   22.1070 N   0  0  0  0  0  0  0  0  0  0  0  0
  -22.8522  -16.2616   21.5302 N   0  0  0  0  0  0  0  0  0  0  0  0
  -26.1642  -25.7379   18.7696 N   0  0  0  0  0  0  0  0  0  0  0  0
  -27.6981  -20.2907   23.4370 N   0  0  0  0  0  0  0  0  0  0  0  0
  -29.4036  -18.1593   22.6669 N   0  0  0  0  0  0  0  0  0  0  0  0
  -25.5350  -25.6251   24.0528 N   0  0  0  0  0  0  0  0  0  0  0  0
  -21.3605  -26.4656   25.5572 N   0  0  0  0  0  0  0  0  0  0  0  0
  -22.2145  -12.6791   21.7671 N   0  0  0  0  0  0  0  0  0  0  0  0
  -21.8431  -19.4853   21.7489 N   0  0  0  0  0  0  0  0  0  0  0  0
  -25.9823  -23.4615   18.0463 N   0  0  0  0  0  0  0  0  0  0  0  0
  -24.0059  -21.3186   23.6577 N   0  3  0  0  0  0  0  0  0  0  0  0
  -23.4603  -25.7824   26.1759 O   0  0  0  0  0  0  0  0  0  0  0  0
  -21.9933  -14.3100   20.1197 O   0  0  0  0  0  0  0  0  0  0  0  0
  -20.8888  -16.9216   22.6006 O   0  0  0  0  0  0  0  0  0  0  0  0
  -23.8762  -20.1816   20.8778 O   0  0  0  0  0  0  0  0  0  0  0  0
  -26.4324  -25.1590   16.5535 O   0  0  0  0  0  0  0  0  0  0  0  0
  -28.9276  -23.1821   18.8720 O   0  0  0  0  0  0  0  0  0  0  0  0
  -17.0590  -28.2595   22.5053 O   0  0  0  0  0  0  0  0  0  0  0  0
  -28.3675  -15.4698   18.8831 O   0  0  0  0  0  0  0  0  0  1  0  0
  -30.3353  -18.0683   20.0270 O   0  0  0  0  0  0  0  0  0  0  0  0
  -15.1552  -31.6254   26.4361 F   0  0  0  0  0  0  0  0  0  0  0  0
  -16.0114  -30.7368   21.8663 F   0  0  0  0  0  0  0  0  0  0  0  0
  1  2  1  0  0  0  0
  1  5  2  0  0  0  0
  2  6  2  0  0  0  0
  3  8  2  0  0  0  0
  3 17  1  0  0  0  0
  4  9  1  0  0  0  0
  4 17  2  0  0  0  0
  5 19  1  0  0  0  0
  6 21  1  0  0  0  0
  7 10  2  0  0  0  0
  7 20  1  0  0  0  0
  8 26  1  0  0  0  0
  9 26  2  0  0  0  0
 10 27  1  0  0  0  0
 11 12  2  0  0  0  0
 11 28  1  0  0  0  0
 12 30  1  0  0  0  0
 13 22  1  0  0  0  0
 13 27  2  0  0  0  0
 14 23  1  0  0  0  0
 14 24  2  0  0  0  0
 15 23  2  0  0  0  0
 15 29  1  0  0  0  0
 16 30  2  0  0  0  0
 16 31  1  0  0  0  0
 17 32  1  0  0  0  0
 18 32  1  0  0  0  0
 18 33  2  0  0  0  0
 18 34  1  0  0  0  0
 19 21  2  0  0  0  0
 19 39  1  0  0  0  0
 20 22  2  0  0  0  0
 20 40  1  0  0  0  0
 21 48  1  0  0  0  0
 22 41  1  0  0  0  0
 23 61  1  0  0  0  0
 24 25  1  0  0  0  0
 24 69  1  0  0  0  0
 25 29  2  0  0  0  0
 25 70  1  0  0  0  0
 26 83  1  0  0  0  0
 27 84  1  0  0  0  0
 28 31  2  0  0  0  0
 28 83  1  0  0  0  0
 29 85  1  0  0  0  0
 30 86  1  0  0  0  0
 31 87  1  0  0  0  0
 32 65  2  0  0  0  0
 33 66  1  0  0  0  0
 33 71  1  0  0  0  0
 34 72  1  0  0  0  0
 34 77  2  0  0  0  0
 35 49  1  0  0  0  0
 35 73  1  0  0  0  0
 35 78  2  0  0  0  0
 36 62  1  0  0  0  0
 36 67  1  0  0  0  0
 36 79  2  0  0  0  0
 37 63  1  0  0  0  0
 37 74  1  0  0  0  0
 37 80  2  0  0  0  0
 38 68  1  0  0  0  0
 38 75  1  0  0  0  0
 38 81  2  0  0  0  0
 39 42  1  0  0  0  0
 40 49  1  0  0  0  0
 41 67  1  0  0  0  0
 42 44  1  0  0  0  0
 43 45  1  0  0  0  0
 43 46  1  0  0  0  0
 44 48  1  0  0  0  0
 45 50  1  0  0  0  0
 46 68  1  0  0  0  0
 47 50  1  0  0  0  0
 47 68  1  0  0  0  0
 48 73  1  0  0  0  0
 49 67  1  0  0  0  0
 50 66  1  0  0  0  0
 51 63  1  0  0  0  0
 52 64  1  0  0  0  0
 53 64  1  0  0  0  0
 54 64  1  0  0  0  0
 55 75  1  0  0  0  0
 56 76  1  0  0  0  0
 57 59  1  0  0  0  0
 57 60  1  0  0  0  0
 58 61  1  0  0  0  0
 58 75  1  0  0  0  0
 59 84  1  0  0  0  0
 60 85  1  0  0  0  0
 61 82  1  0  0  0  0
 62 64  1  0  0  0  0
 62 74  1  0  0  0  0
 63 76  1  0  0  0  0
 65 66  1  0  0  0  0
M  CHG  1  76   1
M  ISO  4  38 100  59 101  75 100  84 101
M  END
> <Batch ID>
0101

> <Smiles>
CNC(C)C(=O)NC(C(=O)N1Cc2cc([101O:1][101CH2:1]CCOc3cc(C(O)C[100N:0](C)[100C:0](=O)N4CCCC(n5nc(-c6ccc(Oc7ccc(F)cc7F)cc6)c(C(N)=O)c5N)C4)cc(N)c3N)ccc2CC1C(=O)NC1CCCc2ccccc21)C(C)(C)C

> <Shape>
0.210

> <Color>
0.088

> <Negative vol penalty>
0.000

$$$$

  -OEChem-04052301003D

 86 95  0     1  0  0  0  0  0999 V2000
  -27.7316  -37.4822   22.0981 C   0  0  0  0  0  0  0  0  0  0  0  0
  -28.0466  -36.3114   21.4159 C   0  0  0  0  0  0  0  0  0  0  0  0
  -22.0261  -11.6092   18.7190 C   0  0  0  0  0  0  0  0  0  0  0  0
  -23.4025  -11.6572   16.7340 C   0  0  0  0  0  0  0  0  0  0  0  0
  -30.8036  -19.2817   20.2328 C   0  0  0  0  0  0  0  0  0  0  0  0
  -29.4117  -18.2232   18.5657 C   0  0  0  0  0  0  0  0  0  0  0  0
  -27.1000  -37.4159   23.3394 C   0  0  0  0  0  0  0  0  0  0  0  0
  -27.7311  -35.0736   21.9750 C   0  0  0  0  0  0  0  0  0  0  0  0
  -26.0051  -30.0155   18.9845 C   0  0  0  0  0  0  0  0  0  0  0  0
  -30.1646  -20.4983   19.9938 C   0  0  0  0  0  0  0  0  0  0  0  0
  -28.7727  -19.4398   18.3267 C   0  0  0  0  0  0  0  0  0  0  0  0
  -21.0543  -10.8857   18.0278 C   0  0  0  0  0  0  0  0  0  0  0  0
  -22.4308  -10.9336   16.0427 C   0  0  0  0  0  0  0  0  0  0  0  0
  -26.7057  -28.8802   18.5796 C   0  0  0  0  0  0  0  0  0  0  0  0
  -18.5967  -11.5184   15.7953 C   0  0  0  0  0  0  0  0  0  0  0  0
  -17.2672  -11.9126   15.9453 C   0  0  0  0  0  0  0  0  0  0  0  0
  -25.9813  -27.7299   20.5723 C   0  0  0  0  0  0  0  0  0  0  0  0
  -16.7209   -9.7328   16.8325 C   0  0  0  0  0  0  0  0  0  0  0  0
  -23.2001  -11.9950   18.0721 C   0  0  0  0  0  0  0  0  0  0  0  0
  -30.4272  -18.1441   19.5187 C   0  0  0  0  0  0  0  0  0  0  0  0
  -24.0530  -14.0037   19.3933 C   0  0  0  0  0  0  0  0  0  0  0  0
  -26.7679  -36.1769   23.9096 C   0  0  0  0  0  0  0  0  0  0  0  0
  -25.2951  -30.0202   20.1937 C   0  0  0  0  0  0  0  0  0  0  0  0
  -27.0957  -34.9906   23.2256 C   0  0  0  0  0  0  0  0  0  0  0  0
  -25.2704  -28.8657   20.9891 C   0  0  0  0  0  0  0  0  0  0  0  0
  -29.1491  -20.5774   19.0408 C   0  0  0  0  0  0  0  0  0  0  0  0
  -21.2567  -10.5479   16.6896 C   0  0  0  0  0  0  0  0  0  0  0  0
  -26.6962  -27.7381   19.3749 C   0  0  0  0  0  0  0  0  0  0  0  0
  -18.9883  -10.2313   16.1638 C   0  0  0  0  0  0  0  0  0  0  0  0
  -16.3293  -11.0198   16.4640 C   0  0  0  0  0  0  0  0  0  0  0  0
  -18.0505   -9.3385   16.6824 C   0  0  0  0  0  0  0  0  0  0  0  0
  -24.2041  -12.7430   18.7855 C   0  0  0  0  0  0  0  0  0  0  0  0
  -25.2867  -14.2749   19.9327 C   0  0  0  0  0  0  0  0  0  0  0  0
  -27.2443  -24.3225   18.4058 C   0  0  0  0  0  0  0  0  0  0  0  0
  -26.6755  -25.4732   18.7915 C   0  0  0  0  0  0  0  0  0  1  0  0
  -31.1078  -16.8484   19.7733 C   0  0  0  0  0  0  0  0  0  0  0  0
  -22.9005  -14.8537   19.4641 C   0  0  0  0  0  0  0  0  0  0  0  0
  -25.4763  -31.6859   22.8949 C   0  0  0  0  0  0  0  0  0  0  0  0
  -22.7673  -30.0574   23.6239 C   0  0  0  0  0  0  0  0  0  0  0  0
  -20.8183  -27.3020   23.1177 C   0  0  0  0  0  0  0  0  0  0  0  0
  -30.8178  -14.3948   19.6336 C   0  0  0  0  0  0  0  0  0  0  0  0
  -26.1282  -36.1544   25.2752 C   0  0  0  0  0  0  0  0  0  0  0  0
  -24.5226  -31.2440   20.6033 C   0  0  0  0  0  0  0  0  0  0  0  0
  -24.5069  -28.8125   22.2863 C   0  0  0  0  0  0  0  0  0  0  0  0
  -26.4645  -23.0555   18.1978 C   0  0  0  0  0  0  0  0  0  0  0  0
  -28.7208  -24.1807   18.1667 C   0  0  0  0  0  0  0  0  0  0  0  0
  -25.4905  -34.8128   25.6270 C   0  0  0  0  0  0  0  0  0  0  0  0
  -29.3477  -11.3079   20.5316 C   0  0  0  0  0  0  0  0  0  0  0  0
  -26.4384  -33.6663   25.2896 C   0  0  0  0  0  0  0  0  0  0  0  0
  -27.8632  -11.5095   20.2157 C   0  0  0  0  0  0  0  0  0  0  0  0
  -27.0572  -21.9054   19.0157 C   0  0  0  0  0  0  0  0  0  0  0  0
  -29.2968  -23.0275   18.9906 C   0  0  0  0  0  0  0  0  0  0  0  0
  -30.2451  -11.9867   19.4977 C   0  0  0  0  0  0  0  0  0  0  0  0
  -28.4747  -13.6032   18.9404 C   0  0  0  0  0  0  0  0  0  0  0  0
  -26.7473  -33.6296   23.7880 C   0  0  1  0  0  0  0  0  0  0  0  0
  -24.2559  -31.3078   22.1041 C   0  0  1  0  0  0  0  0  0  0  0  0
  -27.5297  -12.9980   19.9910 C   0  0  1  0  0  0  0  0  0  0  0  0
  -18.6822  -26.2321   23.8856 C   0  0  0  0  0  0  0  0  0  0  0  0
  -24.1348  -29.1883   26.2094 C   0  0  0  0  0  0  0  0  0  0  0  0
  -22.3861  -27.4136   26.4558 C   0  0  0  0  0  0  0  0  0  0  0  0
  -21.7283  -29.8198   26.4634 C   0  0  0  0  0  0  0  0  0  0  0  0
  -19.6505  -27.4123   20.4005 C   0  0  0  0  0  0  0  0  0  0  0  0
  -22.4592  -28.7415   24.2966 C   0  0  1  0  0  0  0  0  0  0  0  0
  -19.3289  -27.1546   22.8640 C   0  0  2  0  0  0  0  0  0  0  0  0
  -22.6932  -28.7921   25.8329 C   0  0  0  0  0  0  0  0  0  0  0  0
  -25.4366  -12.2476   18.9251 N   0  0  0  0  0  0  0  0  0  0  0  0
  -26.0712  -13.2020   19.6268 N   0  0  0  0  0  0  0  0  0  0  0  0
  -28.5075  -21.7990   18.8008 N   0  0  0  0  0  0  0  0  0  0  0  0
  -23.7725  -30.0365   22.6467 N   0  0  0  0  0  0  0  0  0  0  0  0
  -29.8714  -13.3945   19.3509 N   0  0  0  0  0  0  0  0  0  0  0  0
  -25.7661  -15.3240   20.6340 N   0  0  0  0  0  0  0  0  0  0  0  0
  -22.7023  -15.7969   18.4466 N   0  0  0  0  0  0  0  0  0  0  0  0
  -30.3509  -15.7076   19.5045 N   0  0  0  0  0  0  0  0  0  0  0  0
  -25.6408  -33.0481   23.0585 N   0  0  0  0  0  0  0  0  0  0  0  0
  -21.0955  -28.3953   23.9109 N   0  0  0  0  0  0  0  0  0  0  0  0
  -19.0881  -26.5930   21.5048 N   0  3  0  0  0  0  0  0  0  0  0  0
  -32.2747  -16.8508   20.1556 O   0  0  0  0  0  0  0  0  0  0  0  0
  -22.0797  -14.7901   20.4106 O   0  0  0  0  0  0  0  0  0  0  0  0
  -26.2132  -30.8069   23.3260 O   0  0  0  0  0  0  0  0  0  0  0  0
  -22.1343  -31.0652   23.9484 O   0  0  0  0  0  0  0  0  0  0  0  0
  -21.6521  -26.5230   22.6612 O   0  0  0  0  0  0  0  0  0  0  0  0
  -31.9679  -14.1417   20.0058 O   0  0  0  0  0  0  0  0  0  0  0  0
  -20.3088   -9.8416   16.0149 O   0  0  0  0  0  0  0  0  0  0  0  0
  -27.3797  -26.6288   18.9823 O   0  0  0  0  0  0  0  0  0  1  0  0
  -15.0529  -11.3991   16.6095 F   0  0  0  0  0  0  0  0  0  0  0  0
  -18.4210   -8.1011   17.0393 F   0  0  0  0  0  0  0  0  0  0  0  0
  1  2  1  0  0  0  0
  1  7  2  0  0  0  0
  2  8  2  0  0  0  0
  3 12  2  0  0  0  0
  3 19  1  0  0  0  0
  4 13  1  0  0  0  0
  4 19  2  0  0  0  0
  5 10  2  0  0  0  0
  5 20  1  0  0  0  0
  6 11  1  0  0  0  0
  6 20  2  0  0  0  0
  7 22  1  0  0  0  0
  8 24  1  0  0  0  0
  9 14  2  0  0  0  0
  9 23  1  0  0  0  0
 10 26  1  0  0  0  0
 11 26  2  0  0  0  0
 12 27  1  0  0  0  0
 13 27  2  0  0  0  0
 14 28  1  0  0  0  0
 15 16  2  0  0  0  0
 15 29  1  0  0  0  0
 16 30  1  0  0  0  0
 17 25  1  0  0  0  0
 17 28  2  0  0  0  0
 18 30  2  0  0  0  0
 18 31  1  0  0  0  0
 19 32  1  0  0  0  0
 20 36  1  0  0  0  0
 21 32  1  0  0  0  0
 21 33  2  0  0  0  0
 21 37  1  0  0  0  0
 22 24  2  0  0  0  0
 22 42  1  0  0  0  0
 23 25  2  0  0  0  0
 23 43  1  0  0  0  0
 24 55  1  0  0  0  0
 25 44  1  0  0  0  0
 26 68  1  0  0  0  0
 27 83  1  0  0  0  0
 28 84  1  0  0  0  0
 29 31  2  0  0  0  0
 29 83  1  0  0  0  0
 30 85  1  0  0  0  0
 31 86  1  0  0  0  0
 32 66  2  0  0  0  0
 33 67  1  0  0  0  0
 33 71  1  0  0  0  0
 34 35  2  0  0  0  0
 34 45  1  0  0  0  0
 34 46  1  0  0  0  0
 35 84  1  0  0  0  0
 36 73  1  0  0  0  0
 36 77  2  0  0  0  0
 37 72  1  0  0  0  0
 37 78  2  0  0  0  0
 38 56  1  0  0  0  0
 38 74  1  0  0  0  0
 38 79  2  0  0  0  0
 39 63  1  0  0  0  0
 39 69  1  0  0  0  0
 39 80  2  0  0  0  0
 40 64  1  0  0  0  0
 40 75  1  0  0  0  0
 40 81  2  0  0  0  0
 41 70  1  0  0  0  0
 41 73  1  0  0  0  0
 41 82  2  0  0  0  0
 42 47  1  0  0  0  0
 43 56  1  0  0  0  0
 44 69  1  0  0  0  0
 45 51  1  0  0  0  0
 46 52  1  0  0  0  0
 47 49  1  0  0  0  0
 48 50  1  0  0  0  0
 48 53  1  0  0  0  0
 49 55  1  0  0  0  0
 50 57  1  0  0  0  0
 51 68  1  0  0  0  0
 52 68  1  0  0  0  0
 53 70  1  0  0  0  0
 54 57  1  0  0  0  0
 54 70  1  0  0  0  0
 55 74  1  0  0  0  0
 56 69  1  0  0  0  0
 57 67  1  0  0  0  0
 58 64  1  0  0  0  0
 59 65  1  0  0  0  0
 60 65  1  0  0  0  0
 61 65  1  0  0  0  0
 62 76  1  0  0  0  0
 63 65  1  0  0  0  0
 63 75  1  0  0  0  0
 64 76  1  0  0  0  0
 66 67  1  0  0  0  0
M  CHG  1  76   1
M  ISO  4  35 101  41 100  73 100  84 101
M  END
> <Batch ID>
0101

> <Smiles>
CNC(C)C(=O)NC(C(=O)N1Cc2cc([101O:1][101CH:1]=C3CCN(c4ccc(C(=O)[100NH:0][100C:0](=O)N5CCCC(n6nc(-c7ccc(Oc8ccc(F)cc8F)cc7)c(C(N)=O)c6N)C5)cc4)CC3)ccc2CC1C(=O)NC1CCCc2ccccc21)C(C)(C)C

> <Shape>
0.280

> <Color>
0.118

> <Negative vol penalty>
0.000

$$$$

  -OEChem-04052301003D

 84 92  0     1  0  0  0  0  0999 V2000
  -27.3028  -21.5877   15.9001 C   0  0  0  0  0  0  0  0  0  0  0  0
  -28.4446  -22.3462   16.1323 C   0  0  0  0  0  0  0  0  0  0  0  0
  -26.2049  -12.6645   21.0190 C   0  0  0  0  0  0  0  0  0  0  0  0
  -25.7433  -12.9792   18.6685 C   0  0  0  0  0  0  0  0  0  0  0  0
  -26.0987  -22.2214   15.6006 C   0  0  0  0  0  0  0  0  0  0  0  0
  -28.3800  -23.7389   16.0767 C   0  0  0  0  0  0  0  0  0  0  0  0
  -25.9961  -29.7363   20.2725 C   0  0  0  0  0  0  0  0  0  0  0  0
  -25.6934  -11.3689   20.9460 C   0  0  0  0  0  0  0  0  0  0  0  0
  -25.2318  -11.6836   18.5955 C   0  0  0  0  0  0  0  0  0  0  0  0
  -24.9168  -29.8144   21.1515 C   0  0  0  0  0  0  0  0  0  0  0  0
  -24.1776   -8.1034   21.4591 C   0  0  0  0  0  0  0  0  0  0  0  0
  -23.3123   -7.6882   22.4712 C   0  0  0  0  0  0  0  0  0  0  0  0
  -25.4930  -27.6478   22.0420 C   0  0  0  0  0  0  0  0  0  0  0  0
  -22.8320  -25.2344   19.0699 C   0  0  0  0  0  0  0  0  0  0  0  0
  -20.7795  -25.1227   20.9560 C   0  0  0  0  0  0  0  0  0  0  0  0
  -21.7876   -9.4732   21.8999 C   0  0  0  0  0  0  0  0  0  0  0  0
  -26.2298  -13.4697   19.8803 C   0  0  0  0  0  0  0  0  0  0  0  0
  -28.0909  -15.2094   19.7469 C   0  0  0  0  0  0  0  0  0  0  0  0
  -26.0230  -23.6222   15.5292 C   0  0  0  0  0  0  0  0  0  0  0  0
  -26.8270  -28.6067   20.2641 C   0  0  0  0  0  0  0  0  0  0  0  0
  -27.1686  -24.3980   15.7995 C   0  0  0  0  0  0  0  0  0  0  0  0
  -26.5837  -27.5589   21.1637 C   0  0  0  0  0  0  0  0  0  0  0  0
  -22.2643  -24.0068   19.4109 C   0  0  0  0  0  0  0  0  0  0  0  0
  -22.3735  -26.4062   19.6719 C   0  0  0  0  0  0  0  0  0  0  0  0
  -21.2381  -23.9510   20.3540 C   0  0  0  0  0  0  0  0  0  0  0  0
  -25.2069  -10.8784   19.7342 C   0  0  0  0  0  0  0  0  0  0  0  0
  -24.6633  -28.7688   22.0344 C   0  0  0  0  0  0  0  0  0  0  0  0
  -23.8480   -9.2036   20.6674 C   0  0  0  0  0  0  0  0  0  0  0  0
  -21.3473  -26.3503   20.6150 C   0  0  0  0  0  0  0  0  0  0  0  0
  -22.1173   -8.3730   22.6916 C   0  0  0  0  0  0  0  0  0  0  0  0
  -22.6530   -9.8884   20.8878 C   0  0  0  0  0  0  0  0  0  0  0  0
  -26.7576  -14.8083   19.9552 C   0  0  0  0  0  0  0  0  0  0  0  0
  -28.0729  -16.5702   19.9318 C   0  0  0  0  0  0  0  0  0  0  0  0
  -29.2425  -14.4222   19.4158 C   0  0  0  0  0  0  0  0  0  0  0  0
  -27.5660  -26.3816   18.1178 C   0  0  0  0  0  0  0  0  0  0  0  0
  -29.6724  -25.4375   20.3968 C   0  0  0  0  0  0  0  0  0  0  0  0
  -30.5335  -25.3746   23.6985 C   0  0  0  0  0  0  0  0  0  0  0  0
  -23.7711  -20.5669   19.3179 C   0  0  0  0  0  0  0  0  0  0  0  0
  -24.6924  -24.2562   15.2088 C   0  0  0  0  0  0  0  0  0  0  0  0
  -28.0031  -28.5495   19.3282 C   0  0  0  0  0  0  0  0  0  0  0  0
  -27.4578  -26.3332   21.2085 C   0  0  0  0  0  0  0  0  0  0  0  0
  -24.8206  -25.7011   14.7374 C   0  0  0  0  0  0  0  0  0  0  0  0
  -25.7244  -19.9956   22.3106 C   0  0  0  0  0  0  0  0  0  0  0  0
  -25.7056  -26.4839   15.6958 C   0  0  0  0  0  0  0  0  0  0  0  0
  -26.3393  -18.6263   22.0157 C   0  0  0  0  0  0  0  0  0  0  0  0
  -24.2947  -20.0844   21.7849 C   0  0  0  0  0  0  0  0  0  0  0  0
  -24.7662  -18.4135   20.0358 C   0  0  0  0  0  0  0  0  0  0  0  0
  -27.1292  -25.9131   15.7143 C   0  0  1  0  0  0  0  0  0  0  0  0
  -28.4778  -27.1264   19.0514 C   0  0  1  0  0  0  0  0  0  0  0  0
  -26.2195  -18.2681   20.5225 C   0  0  2  0  0  0  0  0  0  0  0  0
  -32.2903  -24.4949   25.2597 C   0  0  0  0  0  0  0  0  0  0  0  0
  -28.4625  -22.6448   20.1807 C   0  0  0  0  0  0  0  0  0  0  0  0
  -29.5569  -22.0779   22.3600 C   0  0  0  0  0  0  0  0  0  0  0  0
  -30.9546  -22.6890   20.3862 C   0  0  0  0  0  0  0  0  0  0  0  0
  -31.2922  -28.1004   24.5665 C   0  0  0  0  0  0  0  0  0  0  0  0
  -22.7746  -22.7674   18.7507 C   0  0  0  0  0  0  0  0  0  0  0  0
  -21.2086  -28.9989   23.0663 C   0  0  0  0  0  0  0  0  0  0  0  0
  -22.4733  -29.5905   22.4639 C   0  0  0  0  0  0  0  0  0  1  0  0
  -20.9926  -27.5574   22.6332 C   0  0  0  0  0  0  0  0  0  0  0  0
  -29.6253  -24.4859   21.5678 C   0  0  1  0  0  0  0  0  0  0  0  0
  -31.8452  -25.6701   24.4032 C   0  0  2  0  0  0  0  0  0  0  0  0
  -29.6320  -22.9965   21.1218 C   0  0  0  0  0  0  0  0  0  0  0  0
  -25.9514  -15.8316   20.2501 N   0  0  0  0  0  0  0  0  0  0  0  0
  -26.7805  -16.8891   20.2285 N   0  0  0  0  0  0  0  0  0  0  0  0
  -28.5916  -26.3216   20.2694 N   0  0  0  0  0  0  0  0  0  0  0  0
  -24.2528  -19.7500   20.3543 N   0  0  0  0  0  0  0  0  0  0  0  0
  -22.9572  -27.6420   19.3174 N   0  0  0  0  0  0  0  0  0  0  0  0
  -20.6516  -22.7170   20.7114 N   0  0  0  0  0  0  0  0  0  0  0  0
  -29.0369  -17.5132   19.8681 N   0  0  0  0  0  0  0  0  0  0  0  0
  -29.0841  -13.0381   19.2623 N   0  0  0  0  0  0  0  0  0  0  0  0
  -27.8763  -26.5424   16.7809 N   0  0  0  0  0  0  0  0  0  0  0  0
  -30.7369  -24.8541   22.4380 N   0  0  0  0  0  0  0  0  0  0  0  0
  -23.2963  -21.8141   19.7047 N   0  0  0  0  0  0  0  0  0  0  0  0
  -31.7032  -26.8651   25.2823 N   0  3  0  0  0  0  0  0  0  0  0  0
  -30.3816  -14.9289   19.2768 O   0  0  0  0  0  0  0  0  0  0  0  0
  -26.6497  -25.7095   18.5765 O   0  0  0  0  0  0  0  0  0  0  0  0
  -30.6362  -25.4027   19.6277 O   0  0  0  0  0  0  0  0  0  0  0  0
  -29.4381  -25.5810   24.2161 O   0  0  0  0  0  0  0  0  0  0  0  0
  -23.7693  -20.2129   18.1339 O   0  0  0  0  0  0  0  0  0  0  0  0
  -24.7079   -9.6141   19.6625 O   0  0  0  0  0  0  0  0  0  0  0  0
  -23.6101  -28.8422   22.8930 O   0  0  0  0  0  0  0  0  0  1  0  0
  -20.8827  -27.4903   21.2178 O   0  0  0  0  0  0  0  0  0  0  0  0
  -21.2856   -7.9732   23.6625 F   0  0  0  0  0  0  0  0  0  0  0  0
  -22.3304  -10.9453   20.1297 F   0  0  0  0  0  0  0  0  0  0  0  0
  1  2  1  0  0  0  0
  1  5  2  0  0  0  0
  2  6  2  0  0  0  0
  3  8  2  0  0  0  0
  3 17  1  0  0  0  0
  4  9  1  0  0  0  0
  4 17  2  0  0  0  0
  5 19  1  0  0  0  0
  6 21  1  0  0  0  0
  7 10  2  0  0  0  0
  7 20  1  0  0  0  0
  8 26  1  0  0  0  0
  9 26  2  0  0  0  0
 10 27  1  0  0  0  0
 11 12  2  0  0  0  0
 11 28  1  0  0  0  0
 12 30  1  0  0  0  0
 13 22  1  0  0  0  0
 13 27  2  0  0  0  0
 14 23  2  0  0  0  0
 14 24  1  0  0  0  0
 15 25  2  0  0  0  0
 15 29  1  0  0  0  0
 16 30  2  0  0  0  0
 16 31  1  0  0  0  0
 17 32  1  0  0  0  0
 18 32  1  0  0  0  0
 18 33  2  0  0  0  0
 18 34  1  0  0  0  0
 19 21  2  0  0  0  0
 19 39  1  0  0  0  0
 20 22  2  0  0  0  0
 20 40  1  0  0  0  0
 21 48  1  0  0  0  0
 22 41  1  0  0  0  0
 23 25  1  0  0  0  0
 23 56  1  0  0  0  0
 24 29  2  0  0  0  0
 24 67  1  0  0  0  0
 25 68  1  0  0  0  0
 26 80  1  0  0  0  0
 27 81  1  0  0  0  0
 28 31  2  0  0  0  0
 28 80  1  0  0  0  0
 29 82  1  0  0  0  0
 30 83  1  0  0  0  0
 31 84  1  0  0  0  0
 32 63  2  0  0  0  0
 33 64  1  0  0  0  0
 33 69  1  0  0  0  0
 34 70  1  0  0  0  0
 34 75  2  0  0  0  0
 35 49  1  0  0  0  0
 35 71  1  0  0  0  0
 35 76  2  0  0  0  0
 36 60  1  0  0  0  0
 36 65  1  0  0  0  0
 36 77  2  0  0  0  0
 37 61  1  0  0  0  0
 37 72  1  0  0  0  0
 37 78  2  0  0  0  0
 38 66  1  0  0  0  0
 38 73  1  0  0  0  0
 38 79  2  0  0  0  0
 39 42  1  0  0  0  0
 40 49  1  0  0  0  0
 41 65  1  0  0  0  0
 42 44  1  0  0  0  0
 43 45  1  0  0  0  0
 43 46  1  0  0  0  0
 44 48  1  0  0  0  0
 45 50  1  0  0  0  0
 46 66  1  0  0  0  0
 47 50  1  0  0  0  0
 47 66  1  0  0  0  0
 48 71  1  0  0  0  0
 49 65  1  0  0  0  0
 50 64  1  0  0  0  0
 51 61  1  0  0  0  0
 52 62  1  0  0  0  0
 53 62  1  0  0  0  0
 54 62  1  0  0  0  0
 55 74  1  0  0  0  0
 56 73  1  0  0  0  0
 57 58  1  0  0  0  0
 57 59  1  0  0  0  0
 58 81  1  0  0  0  0
 59 82  1  0  0  0  0
 60 62  1  0  0  0  0
 60 72  1  0  0  0  0
 61 74  1  0  0  0  0
 63 64  1  0  0  0  0
M  CHG  1  74   1
M  ISO  4  38 100  58 101  73 100  81 101
M  END
> <Batch ID>
0101

> <Smiles>
CNC(C)C(=O)NC(C(=O)N1Cc2cc([101O:1][101CH2:1]CCOc3cc(N)c(C[100NH:0][100C:0](=O)N4CCCC(n5nc(-c6ccc(Oc7ccc(F)cc7F)cc6)c(C(N)=O)c5N)C4)cc3N)ccc2CC1C(=O)NC1CCCc2ccccc21)C(C)(C)C

> <Shape>
0.202

> <Color>
0.068

> <Negative vol penalty>
0.000

$$$$

  -OEChem-04052301003D

 83 91  0     1  0  0  0  0  0999 V2000
  -28.8790  -34.9481   21.4102 C   0  0  0  0  0  0  0  0  0  0  0  0
  -28.7621  -33.7699   20.6798 C   0  0  0  0  0  0  0  0  0  0  0  0
  -23.0331  -16.0664   21.2221 C   0  0  0  0  0  0  0  0  0  0  0  0
  -22.3585  -14.8712   19.2338 C   0  0  0  0  0  0  0  0  0  0  0  0
  -28.4879  -34.9793   22.7481 C   0  0  0  0  0  0  0  0  0  0  0  0
  -28.2551  -32.6217   21.2873 C   0  0  0  0  0  0  0  0  0  0  0  0
  -24.8068  -28.2893   18.6709 C   0  0  0  0  0  0  0  0  0  0  0  0
  -29.1022  -18.1644   21.1371 C   0  0  0  0  0  0  0  0  0  0  0  0
  -28.4893  -19.2938   20.5945 C   0  0  0  0  0  0  0  0  0  0  0  0
  -21.9586  -16.9411   21.0610 C   0  0  0  0  0  0  0  0  0  0  0  0
  -21.2839  -15.7459   19.0726 C   0  0  0  0  0  0  0  0  0  0  0  0
  -25.1160  -27.0377   18.1403 C   0  0  0  0  0  0  0  0  0  0  0  0
  -19.6002  -19.7075   20.9700 C   0  0  0  0  0  0  0  0  0  0  0  0
  -19.8431  -21.0718   21.1287 C   0  0  0  0  0  0  0  0  0  0  0  0
  -24.5030  -26.0058   20.2328 C   0  0  0  0  0  0  0  0  0  0  0  0
  -30.0588  -17.6469   18.9798 C   0  0  0  0  0  0  0  0  0  0  0  0
  -21.4419  -20.9978   19.3188 C   0  0  0  0  0  0  0  0  0  0  0  0
  -23.2331  -15.0315   20.3085 C   0  0  0  0  0  0  0  0  0  0  0  0
  -24.3553  -12.9196   21.1962 C   0  0  0  0  0  0  0  0  0  0  0  0
  -27.9667  -33.8335   23.3696 C   0  0  0  0  0  0  0  0  0  0  0  0
  -24.3529  -28.4099   19.9922 C   0  0  0  0  0  0  0  0  0  0  0  0
  -27.8579  -32.6372   22.6351 C   0  0  0  0  0  0  0  0  0  0  0  0
  -24.1862  -27.2599   20.7770 C   0  0  0  0  0  0  0  0  0  0  0  0
  -29.8870  -17.3410   20.3298 C   0  0  0  0  0  0  0  0  0  0  0  0
  -28.6611  -19.5998   19.2445 C   0  0  0  0  0  0  0  0  0  0  0  0
  -21.0840  -16.7808   19.9863 C   0  0  0  0  0  0  0  0  0  0  0  0
  -24.9669  -25.8960   18.9221 C   0  0  0  0  0  0  0  0  0  0  0  0
  -20.2781  -18.9883   19.9857 C   0  0  0  0  0  0  0  0  0  0  0  0
  -20.7639  -21.7170   20.3032 C   0  0  0  0  0  0  0  0  0  0  0  0
  -29.4458  -18.7763   18.4371 C   0  0  0  0  0  0  0  0  0  0  0  0
  -21.1989  -19.6334   19.1601 C   0  0  0  0  0  0  0  0  0  0  0  0
  -24.3432  -14.1280   20.4741 C   0  0  0  0  0  0  0  0  0  0  0  0
  -25.6350  -12.4434   21.0472 C   0  0  0  0  0  0  0  0  0  0  0  0
  -23.3038  -12.2842   21.9354 C   0  0  0  0  0  0  0  0  0  0  0  0
  -25.4329  -29.8494   22.6124 C   0  0  0  0  0  0  0  0  0  0  0  0
  -22.5828  -28.9009   23.8371 C   0  0  0  0  0  0  0  0  0  0  0  0
  -19.9495  -26.7342   23.7046 C   0  0  0  0  0  0  0  0  0  0  0  0
  -30.7698  -15.0254   20.1067 C   0  0  0  0  0  0  0  0  0  0  0  0
  -27.6014  -33.9030   24.8312 C   0  0  0  0  0  0  0  0  0  0  0  0
  -23.9981  -29.7646   20.5410 C   0  0  0  0  0  0  0  0  0  0  0  0
  -23.6831  -27.3334   22.1947 C   0  0  0  0  0  0  0  0  0  0  0  0
  -26.7243  -32.7432   25.2956 C   0  0  0  0  0  0  0  0  0  0  0  0
  -29.3390  -12.5173   18.0318 C   0  0  0  0  0  0  0  0  0  0  0  0
  -27.2783  -31.4170   24.7847 C   0  0  0  0  0  0  0  0  0  0  0  0
  -27.8817  -12.5380   18.4917 C   0  0  0  0  0  0  0  0  0  0  0  0
  -29.9388  -13.9223   17.9668 C   0  0  0  0  0  0  0  0  0  0  0  0
  -28.3425  -14.7145   19.6841 C   0  0  0  0  0  0  0  0  0  0  0  0
  -27.2893  -31.3776   23.2518 C   0  0  1  0  0  0  0  0  0  0  0  0
  -24.0338  -29.8199   22.0652 C   0  0  1  0  0  0  0  0  0  0  0  0
  -27.7308  -13.3108   19.8139 C   0  0  1  0  0  0  0  0  0  0  0  0
  -17.7907  -26.1844   24.8601 C   0  0  0  0  0  0  0  0  0  0  0  0
  -24.1376  -27.6008   26.1180 C   0  0  0  0  0  0  0  0  0  0  0  0
  -22.0765  -26.2986   26.6878 C   0  0  0  0  0  0  0  0  0  0  0  0
  -22.0526  -28.7895   26.8212 C   0  0  0  0  0  0  0  0  0  0  0  0
  -31.1241  -16.2754   22.2250 C   0  0  0  0  0  0  0  0  0  0  0  0
  -18.3714  -27.2568   21.2561 C   0  0  0  0  0  0  0  0  0  0  0  0
  -26.6541  -22.7209   18.5749 C   0  0  0  0  0  0  0  0  0  0  0  0
  -27.2226  -21.6260   19.4696 C   0  0  0  0  0  0  0  0  0  0  0  0
  -25.7339  -23.6803   19.3203 C   0  0  0  0  0  0  0  0  0  1  0  0
  -22.0840  -27.6699   24.5546 C   0  0  1  0  0  0  0  0  0  0  0  0
  -18.4499  -26.9683   23.7358 C   0  0  2  0  0  0  0  0  0  0  0  0
  -22.5990  -27.5881   26.0194 C   0  0  0  0  0  0  0  0  0  0  0  0
  -25.5217  -14.4026   19.9086 N   0  0  0  0  0  0  0  0  0  0  0  0
  -26.2863  -13.3600   20.2753 N   0  0  0  0  0  0  0  0  0  0  0  0
  -23.3556  -28.6813   22.6881 N   0  0  0  0  0  0  0  0  0  0  0  0
  -29.7350  -14.6350   19.2360 N   0  0  0  0  0  0  0  0  0  0  0  0
  -26.2554  -11.3343   21.5025 N   0  0  0  0  0  0  0  0  0  0  0  0
  -22.0505  -12.9094   21.9858 N   0  0  0  0  0  0  0  0  0  0  0  0
  -28.0502  -20.7222   18.7076 N   0  0  0  0  0  0  0  0  0  0  0  0
  -25.9591  -31.1204   22.7432 N   0  0  0  0  0  0  0  0  0  0  0  0
  -20.6304  -27.6871   24.4324 N   0  0  0  0  0  0  0  0  0  0  0  0
  -30.5210  -16.1717   20.8919 N   0  0  0  0  0  0  0  0  0  0  0  0
  -17.8331  -26.5484   22.4458 N   0  3  0  0  0  0  0  0  0  0  0  0
  -23.4754  -11.2027   22.5472 O   0  0  0  0  0  0  0  0  0  0  0  0
  -25.9929  -28.7970   22.8962 O   0  0  0  0  0  0  0  0  0  0  0  0
  -22.2913  -30.0163   24.2759 O   0  0  0  0  0  0  0  0  0  0  0  0
  -20.4649  -25.7974   23.0985 O   0  0  0  0  0  0  0  0  0  0  0  0
  -31.8241  -14.3845   20.1954 O   0  0  0  0  0  0  0  0  0  0  0  0
  -20.0353  -17.6340   19.8288 O   0  0  0  0  0  0  0  0  0  0  0  0
  -25.2687  -24.6731   18.4069 O   0  0  0  0  0  0  0  0  0  1  0  0
  -20.9960  -23.0275   20.4547 F   0  0  0  0  0  0  0  0  0  0  0  0
  -29.6162  -19.0602   17.1380 F   0  0  0  0  0  0  0  0  0  0  0  0
  -21.8524  -18.9480   18.2120 F   0  0  0  0  0  0  0  0  0  0  0  0
  1  2  1  0  0  0  0
  1  5  2  0  0  0  0
  2  6  2  0  0  0  0
  3 10  2  0  0  0  0
  3 18  1  0  0  0  0
  4 11  1  0  0  0  0
  4 18  2  0  0  0  0
  5 20  1  0  0  0  0
  6 22  1  0  0  0  0
  7 12  2  0  0  0  0
  7 21  1  0  0  0  0
  8  9  2  0  0  0  0
  8 24  1  0  0  0  0
  9 25  1  0  0  0  0
 10 26  1  0  0  0  0
 11 26  2  0  0  0  0
 12 27  1  0  0  0  0
 13 14  2  0  0  0  0
 13 28  1  0  0  0  0
 14 29  1  0  0  0  0
 15 23  1  0  0  0  0
 15 27  2  0  0  0  0
 16 24  2  0  0  0  0
 16 30  1  0  0  0  0
 17 29  2  0  0  0  0
 17 31  1  0  0  0  0
 18 32  1  0  0  0  0
 19 32  1  0  0  0  0
 19 33  2  0  0  0  0
 19 34  1  0  0  0  0
 20 22  2  0  0  0  0
 20 39  1  0  0  0  0
 21 23  2  0  0  0  0
 21 40  1  0  0  0  0
 22 48  1  0  0  0  0
 23 41  1  0  0  0  0
 24 72  1  0  0  0  0
 25 30  2  0  0  0  0
 25 69  1  0  0  0  0
 26 79  1  0  0  0  0
 27 80  1  0  0  0  0
 28 31  2  0  0  0  0
 28 79  1  0  0  0  0
 29 81  1  0  0  0  0
 30 82  1  0  0  0  0
 31 83  1  0  0  0  0
 32 63  2  0  0  0  0
 33 64  1  0  0  0  0
 33 67  1  0  0  0  0
 34 68  1  0  0  0  0
 34 74  2  0  0  0  0
 35 49  1  0  0  0  0
 35 70  1  0  0  0  0
 35 75  2  0  0  0  0
 36 60  1  0  0  0  0
 36 65  1  0  0  0  0
 36 76  2  0  0  0  0
 37 61  1  0  0  0  0
 37 71  1  0  0  0  0
 37 77  2  0  0  0  0
 38 66  1  0  0  0  0
 38 72  1  0  0  0  0
 38 78  2  0  0  0  0
 39 42  1  0  0  0  0
 40 49  1  0  0  0  0
 41 65  1  0  0  0  0
 42 44  1  0  0  0  0
 43 45  1  0  0  0  0
 43 46  1  0  0  0  0
 44 48  1  0  0  0  0
 45 50  1  0  0  0  0
 46 66  1  0  0  0  0
 47 50  1  0  0  0  0
 47 66  1  0  0  0  0
 48 70  1  0  0  0  0
 49 65  1  0  0  0  0
 50 64  1  0  0  0  0
 51 61  1  0  0  0  0
 52 62  1  0  0  0  0
 53 62  1  0  0  0  0
 54 62  1  0  0  0  0
 55 72  1  0  0  0  0
 56 73  1  0  0  0  0
 57 58  1  0  0  0  0
 57 59  1  0  0  0  0
 58 69  1  0  0  0  0
 59 80  1  0  0  0  0
 60 62  1  0  0  0  0
 60 71  1  0  0  0  0
 61 73  1  0  0  0  0
 63 64  1  0  0  0  0
M  CHG  1  73   1
M  ISO  4  38 100  59 101  72 100  80 101
M  END
> <Batch ID>
0101

> <Smiles>
CNC(C)C(=O)NC(C(=O)N1Cc2cc([101O:1][101CH2:1]CCNc3ccc([100N:0](C)[100C:0](=O)N4CCCC(n5nc(-c6ccc(Oc7ccc(F)cc7F)cc6)c(C(N)=O)c5N)C4)cc3F)ccc2CC1C(=O)NC1CCCc2ccccc21)C(C)(C)C

> <Shape>
0.268

> <Color>
0.070

> <Negative vol penalty>
0.000

$$$$

  -OEChem-04052301003D

 83 91  0     1  0  0  0  0  0999 V2000
  -21.3412  -30.5680   14.4984 C   0  0  0  0  0  0  0  0  0  0  0  0
  -22.5384  -30.0804   15.0125 C   0  0  0  0  0  0  0  0  0  0  0  0
  -23.9636   -9.6631   21.9471 C   0  0  0  0  0  0  0  0  0  0  0  0
  -24.6499  -11.0908   23.7714 C   0  0  0  0  0  0  0  0  0  0  0  0
  -31.0768  -19.9703   19.6383 C   0  0  0  0  0  0  0  0  0  0  0  0
  -28.7348  -20.4620   19.9702 C   0  0  0  0  0  0  0  0  0  0  0  0
  -20.7960  -31.7476   15.0035 C   0  0  0  0  0  0  0  0  0  0  0  0
  -23.1918  -30.7729   16.0314 C   0  0  0  0  0  0  0  0  0  0  0  0
  -24.8367  -27.7126   19.7156 C   0  0  0  0  0  0  0  0  0  0  0  0
  -30.7643  -18.6285   19.4205 C   0  0  0  0  0  0  0  0  0  0  0  0
  -28.4222  -19.1202   19.7523 C   0  0  0  0  0  0  0  0  0  0  0  0
  -23.5513   -8.6935   22.8611 C   0  0  0  0  0  0  0  0  0  0  0  0
  -24.2376  -10.1211   24.6854 C   0  0  0  0  0  0  0  0  0  0  0  0
  -26.0028  -26.9893   19.4693 C   0  0  0  0  0  0  0  0  0  0  0  0
  -20.8972   -8.1443   24.8827 C   0  0  0  0  0  0  0  0  0  0  0  0
  -19.6600   -7.5366   24.6692 C   0  0  0  0  0  0  0  0  0  0  0  0
  -27.2642  -28.5985   20.7493 C   0  0  0  0  0  0  0  0  0  0  0  0
  -20.7450   -5.3839   24.5091 C   0  0  0  0  0  0  0  0  0  0  0  0
  -24.5129  -10.8618   22.4023 C   0  0  0  0  0  0  0  0  0  0  0  0
  -30.0621  -20.8870   19.9132 C   0  0  0  0  0  0  0  0  0  0  0  0
  -24.1678  -12.9142   20.9271 C   0  0  0  0  0  0  0  0  0  0  0  0
  -21.4380  -32.4498   16.0356 C   0  0  0  0  0  0  0  0  0  0  0  0
  -24.8773  -28.8922   20.4728 C   0  0  0  0  0  0  0  0  0  0  0  0
  -22.6553  -31.9638   16.5498 C   0  0  0  0  0  0  0  0  0  0  0  0
  -26.0967  -29.3336   21.0060 C   0  0  0  0  0  0  0  0  0  0  0  0
  -29.4370  -18.2034   19.4775 C   0  0  0  0  0  0  0  0  0  0  0  0
  -23.6883   -8.9224   24.2302 C   0  0  0  0  0  0  0  0  0  0  0  0
  -27.2173  -27.4337   19.9838 C   0  0  0  0  0  0  0  0  0  0  0  0
  -22.0584   -7.3718   24.9094 C   0  0  0  0  0  0  0  0  0  0  0  0
  -19.5839   -6.1564   24.4824 C   0  0  0  0  0  0  0  0  0  0  0  0
  -21.9823   -5.9916   24.7226 C   0  0  0  0  0  0  0  0  0  0  0  0
  -24.9395  -11.8637   21.4587 C   0  0  0  0  0  0  0  0  0  0  0  0
  -25.0259  -13.5787   20.0854 C   0  0  0  0  0  0  0  0  0  0  0  0
  -30.3949  -22.3157   20.1453 C   0  0  0  0  0  0  0  0  0  0  0  0
  -22.7978  -13.2587   21.1724 C   0  0  0  0  0  0  0  0  0  0  0  0
  -24.2009  -31.9459   19.9060 C   0  0  0  0  0  0  0  0  0  0  0  0
  -24.7706  -32.2578   23.0841 C   0  0  0  0  0  0  0  0  0  0  0  0
  -29.4908  -24.6091   20.0106 C   0  0  0  0  0  0  0  0  0  0  0  0
  -26.3007  -31.0504   25.8854 C   0  0  0  0  0  0  0  0  0  0  0  0
  -30.0076  -15.8024   18.9715 C   0  0  0  0  0  0  0  0  0  0  0  0
  -20.8346  -33.7456   16.5167 C   0  0  0  0  0  0  0  0  0  0  0  0
  -23.6063  -29.6466   20.7519 C   0  0  0  0  0  0  0  0  0  0  0  0
  -26.1908  -30.5828   21.8421 C   0  0  0  0  0  0  0  0  0  0  0  0
  -21.3970  -34.2198   17.8543 C   0  0  0  0  0  0  0  0  0  0  0  0
  -29.6262  -12.3092   18.3980 C   0  0  0  0  0  0  0  0  0  0  0  0
  -22.9194  -34.1239   17.8575 C   0  0  0  0  0  0  0  0  0  0  0  0
  -28.3094  -11.9683   19.0994 C   0  0  0  0  0  0  0  0  0  0  0  0
  -30.4235  -13.3604   19.1681 C   0  0  0  0  0  0  0  0  0  0  0  0
  -28.3661  -14.2452   20.1946 C   0  0  0  0  0  0  0  0  0  0  0  0
  -23.3811  -32.6734   17.6722 C   0  0  1  0  0  0  0  0  0  0  0  0
  -23.8460  -31.1115   21.1041 C   0  0  1  0  0  0  0  0  0  0  0  0
  -27.4980  -13.2381   19.4227 C   0  0  2  0  0  0  0  0  0  0  0  0
  -26.6127  -31.5414   28.3265 C   0  0  0  0  0  0  0  0  0  0  0  0
  -26.7601  -34.4626   22.3838 C   0  0  0  0  0  0  0  0  0  0  0  0
  -27.7055  -34.2467   24.6920 C   0  0  0  0  0  0  0  0  0  0  0  0
  -25.3306  -34.9426   24.3789 C   0  0  0  0  0  0  0  0  0  0  0  0
  -25.0226  -28.5021   26.6802 C   0  0  0  0  0  0  0  0  0  0  0  0
  -28.2260  -25.3190   19.5757 C   0  0  0  0  0  0  0  0  0  1  0  0
  -25.9887  -32.5434   23.9289 C   0  0  1  0  0  0  0  0  0  0  0  0
  -25.7806  -30.8026   27.2899 C   0  0  2  0  0  0  0  0  0  0  0  0
  -26.4451  -34.0263   23.8286 C   0  0  0  0  0  0  0  0  0  0  0  0
  -26.1916  -11.8570   20.9935 N   0  0  0  0  0  0  0  0  0  0  0  0
  -26.2131  -12.9116   20.1607 N   0  0  0  0  0  0  0  0  0  0  0  0
  -24.9215  -31.2891   22.0818 N   0  0  0  0  0  0  0  0  0  0  0  0
  -29.5921  -14.5362   19.4349 N   0  0  0  0  0  0  0  0  0  0  0  0
  -24.8732  -14.6628   19.2954 N   0  0  0  0  0  0  0  0  0  0  0  0
  -22.0603  -12.4701   22.0660 N   0  0  0  0  0  0  0  0  0  0  0  0
  -29.1206  -16.8401   19.2559 N   0  0  0  0  0  0  0  0  0  0  0  0
  -29.3878  -23.2282   19.8356 N   0  0  0  0  0  0  0  0  0  0  0  0
  -23.2427  -31.9368   18.9103 N   0  0  0  0  0  0  0  0  0  0  0  0
  -25.6575  -32.1104   25.2821 N   0  0  0  0  0  0  0  0  0  0  0  0
  -25.8188  -29.3470   27.6072 N   0  3  0  0  0  0  0  0  0  0  0  0
  -31.4945  -22.6058   20.6087 O   0  0  0  0  0  0  0  0  0  0  0  0
  -22.2394  -14.2270   20.6031 O   0  0  0  0  0  0  0  0  0  0  0  0
  -25.2645  -32.5541   19.8869 O   0  0  0  0  0  0  0  0  0  0  0  0
  -23.7217  -32.8666   23.3099 O   0  0  0  0  0  0  0  0  0  0  0  0
  -30.4679  -25.2051   20.4553 O   0  0  0  0  0  0  0  0  0  0  0  0
  -27.1913  -30.3738   25.3759 O   0  0  0  0  0  0  0  0  0  0  0  0
  -31.0589  -15.9506   18.3431 O   0  0  0  0  0  0  0  0  0  0  0  0
  -23.2858   -7.9765   25.1223 O   0  0  0  0  0  0  0  0  0  0  0  0
  -28.3571  -26.7300   19.7443 O   0  0  0  0  0  0  0  0  0  1  0  0
  -18.3956   -5.5728   24.2788 F   0  0  0  0  0  0  0  0  0  0  0  0
  -23.0942   -5.2441   24.7483 F   0  0  0  0  0  0  0  0  0  0  0  0
  1  2  1  0  0  0  0
  1  7  2  0  0  0  0
  2  8  2  0  0  0  0
  3 12  2  0  0  0  0
  3 19  1  0  0  0  0
  4 13  1  0  0  0  0
  4 19  2  0  0  0  0
  5 10  2  0  0  0  0
  5 20  1  0  0  0  0
  6 11  1  0  0  0  0
  6 20  2  0  0  0  0
  7 22  1  0  0  0  0
  8 24  1  0  0  0  0
  9 14  2  0  0  0  0
  9 23  1  0  0  0  0
 10 26  1  0  0  0  0
 11 26  2  0  0  0  0
 12 27  1  0  0  0  0
 13 27  2  0  0  0  0
 14 28  1  0  0  0  0
 15 16  2  0  0  0  0
 15 29  1  0  0  0  0
 16 30  1  0  0  0  0
 17 25  1  0  0  0  0
 17 28  2  0  0  0  0
 18 30  2  0  0  0  0
 18 31  1  0  0  0  0
 19 32  1  0  0  0  0
 20 34  1  0  0  0  0
 21 32  1  0  0  0  0
 21 33  2  0  0  0  0
 21 35  1  0  0  0  0
 22 24  2  0  0  0  0
 22 41  1  0  0  0  0
 23 25  2  0  0  0  0
 23 42  1  0  0  0  0
 24 50  1  0  0  0  0
 25 43  1  0  0  0  0
 26 68  1  0  0  0  0
 27 80  1  0  0  0  0
 28 81  1  0  0  0  0
 29 31  2  0  0  0  0
 29 80  1  0  0  0  0
 30 82  1  0  0  0  0
 31 83  1  0  0  0  0
 32 62  2  0  0  0  0
 33 63  1  0  0  0  0
 33 66  1  0  0  0  0
 34 69  1  0  0  0  0
 34 73  2  0  0  0  0
 35 67  1  0  0  0  0
 35 74  2  0  0  0  0
 36 51  1  0  0  0  0
 36 70  1  0  0  0  0
 36 75  2  0  0  0  0
 37 59  1  0  0  0  0
 37 64  1  0  0  0  0
 37 76  2  0  0  0  0
 38 58  1  0  0  0  0
 38 69  1  0  0  0  0
 38 77  2  0  0  0  0
 39 60  1  0  0  0  0
 39 71  1  0  0  0  0
 39 78  2  0  0  0  0
 40 65  1  0  0  0  0
 40 68  1  0  0  0  0
 40 79  2  0  0  0  0
 41 44  1  0  0  0  0
 42 51  1  0  0  0  0
 43 64  1  0  0  0  0
 44 46  1  0  0  0  0
 45 47  1  0  0  0  0
 45 48  1  0  0  0  0
 46 50  1  0  0  0  0
 47 52  1  0  0  0  0
 48 65  1  0  0  0  0
 49 52  1  0  0  0  0
 49 65  1  0  0  0  0
 50 70  1  0  0  0  0
 51 64  1  0  0  0  0
 52 63  1  0  0  0  0
 53 60  1  0  0  0  0
 54 61  1  0  0  0  0
 55 61  1  0  0  0  0
 56 61  1  0  0  0  0
 57 72  1  0  0  0  0
 58 81  1  0  0  0  0
 59 61  1  0  0  0  0
 59 71  1  0  0  0  0
 60 72  1  0  0  0  0
 62 63  1  0  0  0  0
M  CHG  1  72   1
M  ISO  4  40 100  58 101  68 100  81 101
M  END
> <Batch ID>
0101

> <Smiles>
CNC(C)C(=O)NC(C(=O)N1Cc2cc([101O:1][101CH2:1]C(=O)NC(=O)c3ccc([100NH:0][100C:0](=O)N4CCCC(n5nc(-c6ccc(Oc7ccc(F)cc7F)cc6)c(C(N)=O)c5N)C4)cc3)ccc2CC1C(=O)NC1CCCc2ccccc21)C(C)(C)C

> <Shape>
0.330

> <Color>
0.168

> <Negative vol penalty>
0.000

$$$$

  -OEChem-04052301003D

 86 95  0     1  0  0  0  0  0999 V2000
  -17.5856  -32.1724   17.5357 C   0  0  0  0  0  0  0  0  0  0  0  0
  -18.5110  -31.1595   17.3055 C   0  0  0  0  0  0  0  0  0  0  0  0
  -24.2271   -9.1836   20.8251 C   0  0  0  0  0  0  0  0  0  0  0  0
  -23.1628  -11.3472   20.6732 C   0  0  0  0  0  0  0  0  0  0  0  0
  -17.9770  -33.3354   18.1978 C   0  0  0  0  0  0  0  0  0  0  0  0
  -19.8287  -31.3093   17.7364 C   0  0  0  0  0  0  0  0  0  0  0  0
  -23.5451  -26.9083   19.8160 C   0  0  0  0  0  0  0  0  0  0  0  0
  -30.1752  -19.0721   15.0032 C   0  0  0  0  0  0  0  0  0  0  0  0
  -29.8428  -17.7480   14.7175 C   0  0  0  0  0  0  0  0  0  0  0  0
  -23.0334   -8.6287   21.2864 C   0  0  0  0  0  0  0  0  0  0  0  0
  -21.9690  -10.7924   21.1344 C   0  0  0  0  0  0  0  0  0  0  0  0
  -24.5561  -26.1680   19.2047 C   0  0  0  0  0  0  0  0  0  0  0  0
  -21.3130   -8.4852   24.1922 C   0  0  0  0  0  0  0  0  0  0  0  0
  -21.3806   -7.6204   25.2845 C   0  0  0  0  0  0  0  0  0  0  0  0
  -26.1984  -27.7102   20.0671 C   0  0  0  0  0  0  0  0  0  0  0  0
  -30.0778  -18.5864   17.3679 C   0  0  0  0  0  0  0  0  0  0  0  0
  -20.4324   -5.8499   23.9415 C   0  0  0  0  0  0  0  0  0  0  0  0
  -24.2918  -10.5429   20.5186 C   0  0  0  0  0  0  0  0  0  0  0  0
  -26.2366  -10.7591   18.8819 C   0  0  0  0  0  0  0  0  0  0  0  0
  -19.2979  -33.4955   18.6455 C   0  0  0  0  0  0  0  0  0  0  0  0
  -23.8527  -28.0632   20.5495 C   0  0  0  0  0  0  0  0  0  0  0  0
  -20.2385  -32.4760   18.4039 C   0  0  0  0  0  0  0  0  0  0  0  0
  -25.1897  -28.4619   20.6888 C   0  0  0  0  0  0  0  0  0  0  0  0
  -30.2927  -19.4914   16.3284 C   0  0  0  0  0  0  0  0  0  0  0  0
  -29.6279  -16.8430   15.7569 C   0  0  0  0  0  0  0  0  0  0  0  0
  -29.7453  -17.2622   17.0822 C   0  0  0  0  0  0  0  0  0  0  0  0
  -21.9043   -9.4331   21.4410 C   0  0  0  0  0  0  0  0  0  0  0  0
  -25.8827  -26.5705   19.3278 C   0  0  0  0  0  0  0  0  0  0  0  0
  -20.8050   -8.0324   22.9745 C   0  0  0  0  0  0  0  0  0  0  0  0
  -20.9403   -6.3027   25.1591 C   0  0  0  0  0  0  0  0  0  0  0  0
  -20.3648   -6.7148   22.8492 C   0  0  0  0  0  0  0  0  0  0  0  0
  -25.5248  -11.1167   20.0426 C   0  0  0  0  0  0  0  0  0  0  0  0
  -27.3284  -11.5924   18.8783 C   0  0  0  0  0  0  0  0  0  0  0  0
  -25.9375   -9.7628   17.8952 C   0  0  0  0  0  0  0  0  0  0  0  0
  -23.1254  -31.1464   20.2881 C   0  0  0  0  0  0  0  0  0  0  0  0
  -24.6578  -31.3493   23.1400 C   0  0  0  0  0  0  0  0  0  0  0  0
  -26.9416  -30.0247   25.3025 C   0  0  0  0  0  0  0  0  0  0  0  0
  -29.6135  -16.6296   19.5171 C   0  0  0  0  0  0  0  0  0  0  0  0
  -19.6856  -34.7903   19.3147 C   0  0  0  0  0  0  0  0  0  0  0  0
  -22.7530  -28.8357   21.2250 C   0  0  0  0  0  0  0  0  0  0  0  0
  -25.5745  -29.6828   21.4824 C   0  0  0  0  0  0  0  0  0  0  0  0
  -21.0095  -34.7126   20.0707 C   0  0  0  0  0  0  0  0  0  0  0  0
  -29.1224  -14.6867   22.4600 C   0  0  0  0  0  0  0  0  0  0  0  0
  -22.0734  -34.0317   19.2155 C   0  0  0  0  0  0  0  0  0  0  0  0
  -28.2012  -13.5553   21.9980 C   0  0  0  0  0  0  0  0  0  0  0  0
  -28.7060  -23.6309   18.4978 C   0  0  0  0  0  0  0  0  0  0  0  0
  -27.3387  -22.8256   16.5403 C   0  0  0  0  0  0  0  0  0  0  0  0
  -28.7831  -16.0096   21.7756 C   0  0  0  0  0  0  0  0  0  0  0  0
  -27.8121  -14.8236   19.8469 C   0  0  0  0  0  0  0  0  0  0  0  0
  -29.9258  -22.9174   17.9313 C   0  0  0  0  0  0  0  0  0  0  0  0
  -28.5654  -22.1165   15.9833 C   0  0  0  0  0  0  0  0  0  0  0  0
  -21.6710  -32.5910   18.8779 C   0  0  1  0  0  0  0  0  0  0  0  0
  -23.1332  -30.2837   21.5183 C   0  0  1  0  0  0  0  0  0  0  0  0
  -27.7211  -24.0382   17.3962 C   0  0  0  0  0  0  0  0  0  0  0  0
  -28.1571  -13.4568   20.4605 C   0  0  2  0  0  0  0  0  0  0  0  0
  -29.2722  -15.4309   15.4213 C   0  0  0  0  0  0  0  0  0  0  0  0
  -28.0066  -30.4345   27.5375 C   0  0  0  0  0  0  0  0  0  0  0  0
  -26.3985  -33.5313   21.9077 C   0  0  0  0  0  0  0  0  0  0  0  0
  -28.0036  -33.2250   23.8046 C   0  0  0  0  0  0  0  0  0  0  0  0
  -25.6699  -33.9809   24.2575 C   0  0  0  0  0  0  0  0  0  0  0  0
  -25.8961  -27.4814   26.3968 C   0  0  0  0  0  0  0  0  0  0  0  0
  -30.6505  -20.9159   16.6348 C   0  0  0  0  0  0  0  0  0  0  0  0
  -26.4782  -24.6927   17.9955 C   0  0  0  0  0  0  0  0  0  1  0  0
  -26.0851  -31.5829   23.5725 C   0  0  1  0  0  0  0  0  0  0  0  0
  -26.8735  -29.7456   26.7931 C   0  0  2  0  0  0  0  0  0  0  0  0
  -26.5322  -33.0581   23.3689 C   0  0  0  0  0  0  0  0  0  0  0  0
  -26.1149  -12.1004   20.7268 N   0  0  0  0  0  0  0  0  0  0  0  0
  -27.2091  -12.3680   19.9938 N   0  0  0  0  0  0  0  0  0  0  0  0
  -24.4629  -30.4085   22.1189 N   0  0  0  0  0  0  0  0  0  0  0  0
  -28.7638  -15.8407   20.3210 N   0  0  0  0  0  0  0  0  0  0  0  0
  -28.3694  -11.7299   18.0298 N   0  0  0  0  0  0  0  0  0  0  0  0
  -25.1609  -10.1309   16.7881 N   0  0  0  0  0  0  0  0  0  0  0  0
  -29.5316  -16.3578   18.1518 N   0  0  0  0  0  0  0  0  0  0  0  0
  -21.9002  -31.7230   20.0131 N   0  0  0  0  0  0  0  0  0  0  0  0
  -26.1753  -31.1161   24.9517 N   0  0  0  0  0  0  0  0  0  0  0  0
  -29.4797  -21.7264   17.1188 N   0  3  0  0  0  0  0  0  0  0  0  0
  -26.9644  -28.2805   27.0504 N   0  3  0  0  0  0  0  0  0  0  0  0
  -26.3331   -8.5771   18.0006 O   0  0  0  0  0  0  0  0  0  0  0  0
  -24.1552  -31.2803   19.6375 O   0  0  0  0  0  0  0  0  0  0  0  0
  -23.7485  -31.9732   23.6929 O   0  0  0  0  0  0  0  0  0  0  0  0
  -27.6108  -29.3450   24.5274 O   0  0  0  0  0  0  0  0  0  0  0  0
  -30.3788  -17.4644   20.0063 O   0  0  0  0  0  0  0  0  0  0  0  0
  -20.7392   -8.8920   21.8908 O   0  0  0  0  0  0  0  0  0  0  0  0
  -26.8715  -25.8501   18.7317 O   0  0  0  0  0  0  0  0  0  1  0  0
  -21.0068   -5.4719   26.2077 F   0  0  0  0  0  0  0  0  0  0  0  0
  -19.8769   -6.2737   21.6816 F   0  0  0  0  0  0  0  0  0  0  0  0
  1  2  1  0  0  0  0
  1  5  2  0  0  0  0
  2  6  2  0  0  0  0
  3 10  2  0  0  0  0
  3 18  1  0  0  0  0
  4 11  1  0  0  0  0
  4 18  2  0  0  0  0
  5 20  1  0  0  0  0
  6 22  1  0  0  0  0
  7 12  2  0  0  0  0
  7 21  1  0  0  0  0
  8  9  2  0  0  0  0
  8 24  1  0  0  0  0
  9 25  1  0  0  0  0
 10 27  1  0  0  0  0
 11 27  2  0  0  0  0
 12 28  1  0  0  0  0
 13 14  2  0  0  0  0
 13 29  1  0  0  0  0
 14 30  1  0  0  0  0
 15 23  1  0  0  0  0
 15 28  2  0  0  0  0
 16 24  2  0  0  0  0
 16 26  1  0  0  0  0
 17 30  2  0  0  0  0
 17 31  1  0  0  0  0
 18 32  1  0  0  0  0
 19 32  1  0  0  0  0
 19 33  2  0  0  0  0
 19 34  1  0  0  0  0
 20 22  2  0  0  0  0
 20 39  1  0  0  0  0
 21 23  2  0  0  0  0
 21 40  1  0  0  0  0
 22 52  1  0  0  0  0
 23 41  1  0  0  0  0
 24 62  1  0  0  0  0
 25 26  2  0  0  0  0
 25 56  1  0  0  0  0
 26 73  1  0  0  0  0
 27 83  1  0  0  0  0
 28 84  1  0  0  0  0
 29 31  2  0  0  0  0
 29 83  1  0  0  0  0
 30 85  1  0  0  0  0
 31 86  1  0  0  0  0
 32 67  2  0  0  0  0
 33 68  1  0  0  0  0
 33 71  1  0  0  0  0
 34 72  1  0  0  0  0
 34 78  2  0  0  0  0
 35 53  1  0  0  0  0
 35 74  1  0  0  0  0
 35 79  2  0  0  0  0
 36 64  1  0  0  0  0
 36 69  1  0  0  0  0
 36 80  2  0  0  0  0
 37 65  1  0  0  0  0
 37 75  1  0  0  0  0
 37 81  2  0  0  0  0
 38 70  1  0  0  0  0
 38 73  1  0  0  0  0
 38 82  2  0  0  0  0
 39 42  1  0  0  0  0
 40 53  1  0  0  0  0
 41 69  1  0  0  0  0
 42 44  1  0  0  0  0
 43 45  1  0  0  0  0
 43 48  1  0  0  0  0
 44 52  1  0  0  0  0
 45 55  1  0  0  0  0
 46 50  1  0  0  0  0
 46 54  1  0  0  0  0
 47 51  1  0  0  0  0
 47 54  1  0  0  0  0
 48 70  1  0  0  0  0
 49 55  1  0  0  0  0
 49 70  1  0  0  0  0
 50 76  1  0  0  0  0
 51 76  1  0  0  0  0
 52 74  1  0  0  0  0
 53 69  1  0  0  0  0
 54 63  1  0  0  0  0
 55 68  1  0  0  0  0
 57 65  1  0  0  0  0
 58 66  1  0  0  0  0
 59 66  1  0  0  0  0
 60 66  1  0  0  0  0
 61 77  1  0  0  0  0
 62 76  1  0  0  0  0
 63 84  1  0  0  0  0
 64 66  1  0  0  0  0
 64 75  1  0  0  0  0
 65 77  1  0  0  0  0
 67 68  1  0  0  0  0
M  CHG  2  76   1  77   1
M  ISO  4  38 100  63 101  73 100  84 101
M  END
> <Batch ID>
0101

> <Smiles>
CNC(C)C(=O)NC(C(=O)N1Cc2cc([101O:1][101CH2:1]C3CCN(Cc4ccc(C)c([100NH:0][100C:0](=O)N5CCCC(n6nc(-c7ccc(Oc8ccc(F)cc8F)cc7)c(C(N)=O)c6N)C5)c4)CC3)ccc2CC1C(=O)NC1CCCc2ccccc21)C(C)(C)C

> <Shape>
0.254

> <Color>
0.069

> <Negative vol penalty>
0.000

$$$$

  -OEChem-04052301003D

 86 95  0     1  0  0  0  0  0999 V2000
  -32.2452  -31.8746   19.9660 C   0  0  0  0  0  0  0  0  0  0  0  0
  -31.4793  -30.7133   19.9846 C   0  0  0  0  0  0  0  0  0  0  0  0
  -23.2803   -9.4354   19.5923 C   0  0  0  0  0  0  0  0  0  0  0  0
  -24.6865   -8.9664   21.5002 C   0  0  0  0  0  0  0  0  0  0  0  0
  -32.0004  -32.8846   20.8955 C   0  0  0  0  0  0  0  0  0  0  0  0
  -30.4688  -30.5610   20.9334 C   0  0  0  0  0  0  0  0  0  0  0  0
  -26.1859  -28.7419   18.9353 C   0  0  0  0  0  0  0  0  0  0  0  0
  -24.8786  -18.7416   17.9581 C   0  0  0  0  0  0  0  0  0  0  0  0
  -25.5570  -17.5286   18.0761 C   0  0  0  0  0  0  0  0  0  0  0  0
  -22.1802   -8.9179   20.2759 C   0  0  0  0  0  0  0  0  0  0  0  0
  -23.5862   -8.4489   22.1839 C   0  0  0  0  0  0  0  0  0  0  0  0
  -26.1365  -27.3734   18.6734 C   0  0  0  0  0  0  0  0  0  0  0  0
  -21.8044   -5.5759   22.2246 C   0  0  0  0  0  0  0  0  0  0  0  0
  -21.9739   -4.3719   22.9082 C   0  0  0  0  0  0  0  0  0  0  0  0
  -24.8935  -27.0342   20.7128 C   0  0  0  0  0  0  0  0  0  0  0  0
  -27.1703  -18.5733   19.5401 C   0  0  0  0  0  0  0  0  0  0  0  0
  -21.3909   -5.4670   24.9814 C   0  0  0  0  0  0  0  0  0  0  0  0
  -24.5335   -9.4596   20.2045 C   0  0  0  0  0  0  0  0  0  0  0  0
  -26.2071   -9.5348   18.2806 C   0  0  0  0  0  0  0  0  0  0  0  0
  -30.9801  -32.7487   21.8500 C   0  0  0  0  0  0  0  0  0  0  0  0
  -25.5980  -29.2663   20.0953 C   0  0  0  0  0  0  0  0  0  0  0  0
  -30.2111  -31.5696   21.8773 C   0  0  0  0  0  0  0  0  0  0  0  0
  -24.9346  -28.4101   20.9858 C   0  0  0  0  0  0  0  0  0  0  0  0
  -25.3461  -19.8705   18.6310 C   0  0  0  0  0  0  0  0  0  0  0  0
  -26.7029  -17.4444   18.8671 C   0  0  0  0  0  0  0  0  0  0  0  0
  -22.3331   -8.4247   21.5717 C   0  0  0  0  0  0  0  0  0  0  0  0
  -25.4927  -26.5190   19.5637 C   0  0  0  0  0  0  0  0  0  0  0  0
  -21.4283   -6.7255   22.9194 C   0  0  0  0  0  0  0  0  0  0  0  0
  -21.7671   -4.3174   24.2866 C   0  0  0  0  0  0  0  0  0  0  0  0
  -26.4919  -19.7863   19.4220 C   0  0  0  0  0  0  0  0  0  0  0  0
  -21.2214   -6.6710   24.2978 C   0  0  0  0  0  0  0  0  0  0  0  0
  -25.6705   -9.9935   19.4986 C   0  0  0  0  0  0  0  0  0  0  0  0
  -27.2704  -10.3696   18.0378 C   0  0  0  0  0  0  0  0  0  0  0  0
  -23.2481  -23.6081   18.2971 C   0  0  0  0  0  0  0  0  0  0  0  0
  -25.7823   -8.4511   17.4435 C   0  0  0  0  0  0  0  0  0  0  0  0
  -26.6739  -30.8278   22.6463 C   0  0  0  0  0  0  0  0  0  0  0  0
  -23.5165  -31.0581   23.3534 C   0  0  0  0  0  0  0  0  0  0  0  0
  -20.6227  -28.9079   23.2120 C   0  0  0  0  0  0  0  0  0  0  0  0
  -28.5435  -15.9569   19.7307 C   0  0  0  0  0  0  0  0  0  0  0  0
  -30.7840  -33.8474   22.8644 C   0  0  0  0  0  0  0  0  0  0  0  0
  -25.6368  -30.7483   20.3498 C   0  0  0  0  0  0  0  0  0  0  0  0
  -24.2700  -28.9256   22.2351 C   0  0  0  0  0  0  0  0  0  0  0  0
  -22.5899  -22.3685   18.8531 C   0  0  0  0  0  0  0  0  0  0  0  0
  -29.4478  -33.7674   23.5983 C   0  0  0  0  0  0  0  0  0  0  0  0
  -30.5201  -13.0531   20.3121 C   0  0  0  0  0  0  0  0  0  0  0  0
  -29.1800  -32.3403   24.0656 C   0  0  0  0  0  0  0  0  0  0  0  0
  -29.5513  -11.8972   20.0527 C   0  0  0  0  0  0  0  0  0  0  0  0
  -23.2197  -21.1039   18.2815 C   0  0  0  0  0  0  0  0  0  0  0  0
  -29.8249  -14.2359   20.9841 C   0  0  0  0  0  0  0  0  0  0  0  0
  -25.3923  -22.3541   18.6022 C   0  0  0  0  0  0  0  0  0  0  0  0
  -27.6517  -13.5641   20.0379 C   0  0  0  0  0  0  0  0  0  0  0  0
  -29.0897  -31.3778   22.8753 C   0  0  1  0  0  0  0  0  0  0  0  0
  -24.6824  -23.4619   17.8128 C   0  0  2  0  0  0  0  0  0  0  0  0
  -25.4499  -31.1070   21.8207 C   0  0  1  0  0  0  0  0  0  0  0  0
  -28.2919  -12.3748   19.3035 C   0  0  2  0  0  0  0  0  0  0  0  0
  -18.1882  -29.4631   22.9628 C   0  0  0  0  0  0  0  0  0  0  0  0
  -23.4781  -30.9535   26.4025 C   0  0  0  0  0  0  0  0  0  0  0  0
  -21.2246  -29.8710   26.2676 C   0  0  0  0  0  0  0  0  0  0  0  0
  -21.5537  -32.1775   25.3764 C   0  0  0  0  0  0  0  0  0  0  0  0
  -20.3465  -27.1560   20.8427 C   0  0  0  0  0  0  0  0  0  0  0  0
  -25.4404  -24.7804   17.9418 C   0  0  0  0  0  0  0  0  0  1  0  0
  -22.5280  -30.2123   24.1191 C   0  0  1  0  0  0  0  0  0  0  0  0
  -19.4548  -29.0181   22.2485 C   0  0  2  0  0  0  0  0  0  0  0  0
  -22.2185  -30.7920   25.5283 C   0  0  0  0  0  0  0  0  0  0  0  0
  -26.3380  -11.0385   19.9950 N   0  0  0  0  0  0  0  0  0  0  0  0
  -27.3050  -11.2433   19.0845 N   0  0  0  0  0  0  0  0  0  0  0  0
  -24.6666  -21.0823   18.5098 N   0  0  3  0  0  0  0  0  0  0  0  0
  -24.3406  -30.3814   22.4430 N   0  0  0  0  0  0  0  0  0  0  0  0
  -28.6436  -14.6360   20.2164 N   0  0  0  0  0  0  0  0  0  0  0  0
  -28.1700  -10.4340   17.0333 N   0  0  0  0  0  0  0  0  0  0  0  0
  -26.3266   -7.1794   17.6692 N   0  0  0  0  0  0  0  0  0  0  0  0
  -27.3918  -16.2120   18.9869 N   0  0  0  0  0  0  0  0  0  0  0  0
  -27.8040  -31.5006   22.2223 N   0  0  0  0  0  0  0  0  0  0  0  0
  -21.3573  -30.0738   23.2597 N   0  0  0  0  0  0  0  0  0  0  0  0
  -19.1915  -27.7019   21.6010 N   0  3  0  0  0  0  0  0  0  0  0  0
  -22.6381  -24.6757   18.2464 O   0  0  0  0  0  0  0  0  0  0  0  0
  -24.9571   -8.6091   16.5121 O   0  0  0  0  0  0  0  0  0  0  0  0
  -26.5983  -30.0601   23.5984 O   0  0  0  0  0  0  0  0  0  0  0  0
  -23.5511  -32.2753   23.5503 O   0  0  0  0  0  0  0  0  0  0  0  0
  -20.8575  -27.8906   23.8605 O   0  0  0  0  0  0  0  0  0  0  0  0
  -29.4282  -16.7922   19.9347 O   0  0  0  0  0  0  0  0  0  0  0  0
  -21.2597   -7.9198   22.2392 O   0  0  0  0  0  0  0  0  0  0  0  0
  -25.4435  -25.1827   19.3109 O   0  0  0  0  0  0  0  0  0  1  0  0
  -21.9283   -3.1609   24.9427 F   0  0  0  0  0  0  0  0  0  0  0  0
  -26.9504  -20.8656   20.0717 F   0  0  0  0  0  0  0  0  0  0  0  0
  -20.8588   -7.7718   24.9705 F   0  0  0  0  0  0  0  0  0  0  0  0
  1  2  1  0  0  0  0
  1  5  2  0  0  0  0
  2  6  2  0  0  0  0
  3 10  2  0  0  0  0
  3 18  1  0  0  0  0
  4 11  1  0  0  0  0
  4 18  2  0  0  0  0
  5 20  1  0  0  0  0
  6 22  1  0  0  0  0
  7 12  2  0  0  0  0
  7 21  1  0  0  0  0
  8  9  2  0  0  0  0
  8 24  1  0  0  0  0
  9 25  1  0  0  0  0
 10 26  1  0  0  0  0
 11 26  2  0  0  0  0
 12 27  1  0  0  0  0
 13 14  2  0  0  0  0
 13 28  1  0  0  0  0
 14 29  1  0  0  0  0
 15 23  1  0  0  0  0
 15 27  2  0  0  0  0
 16 25  2  0  0  0  0
 16 30  1  0  0  0  0
 17 29  2  0  0  0  0
 17 31  1  0  0  0  0
 18 32  1  0  0  0  0
 19 32  1  0  0  0  0
 19 33  2  0  0  0  0
 19 35  1  0  0  0  0
 20 22  2  0  0  0  0
 20 40  1  0  0  0  0
 21 23  2  0  0  0  0
 21 41  1  0  0  0  0
 22 52  1  0  0  0  0
 23 42  1  0  0  0  0
 24 30  2  0  0  0  0
 24 67  1  0  0  0  0
 25 72  1  0  0  0  0
 26 82  1  0  0  0  0
 27 83  1  0  0  0  0
 28 31  2  0  0  0  0
 28 82  1  0  0  0  0
 29 84  1  0  0  0  0
 30 85  1  0  0  0  0
 31 86  1  0  0  0  0
 32 65  2  0  0  0  0
 33 66  1  0  0  0  0
 33 70  1  0  0  0  0
 34 43  1  0  0  0  0
 34 53  1  0  0  0  0
 34 76  2  0  0  0  0
 35 71  1  0  0  0  0
 35 77  2  0  0  0  0
 36 54  1  0  0  0  0
 36 73  1  0  0  0  0
 36 78  2  0  0  0  0
 37 62  1  0  0  0  0
 37 68  1  0  0  0  0
 37 79  2  0  0  0  0
 38 63  1  0  0  0  0
 38 74  1  0  0  0  0
 38 80  2  0  0  0  0
 39 69  1  0  0  0  0
 39 72  1  0  0  0  0
 39 81  2  0  0  0  0
 40 44  1  0  0  0  0
 41 54  1  0  0  0  0
 42 68  1  0  0  0  0
 43 48  1  0  0  0  0
 44 46  1  0  0  0  0
 45 47  1  0  0  0  0
 45 49  1  0  0  0  0
 46 52  1  0  0  0  0
 47 55  1  0  0  0  0
 48 67  1  0  0  0  0
 49 69  1  0  0  0  0
 50 53  1  0  0  0  0
 50 67  1  0  0  0  0
 51 55  1  0  0  0  0
 51 69  1  0  0  0  0
 52 73  1  0  0  0  0
 53 61  1  0  0  0  0
 54 68  1  0  0  0  0
 55 66  1  0  0  0  0
 56 63  1  0  0  0  0
 57 64  1  0  0  0  0
 58 64  1  0  0  0  0
 59 64  1  0  0  0  0
 60 75  1  0  0  0  0
 61 83  1  0  0  0  0
 62 64  1  0  0  0  0
 62 74  1  0  0  0  0
 63 75  1  0  0  0  0
 65 66  1  0  0  0  0
M  CHG  1  75   1
M  ISO  4  39 100  61 101  72 100  83 101
M  END
> <Batch ID>
0101

> <Smiles>
CNC(C)C(=O)NC(C(=O)N1Cc2cc([101O:1][101CH2:1]C3CN(c4ccc([100NH:0][100C:0](=O)N5CCCC(n6nc(-c7ccc(Oc8ccc(F)cc8F)cc7)c(C(N)=O)c6N)C5)cc4F)CCC3=O)ccc2CC1C(=O)NC1CCCc2ccccc21)C(C)(C)C

> <Shape>
0.252

> <Color>
0.110

> <Negative vol penalty>
0.000

$$$$

  -OEChem-04052301003D

 87 96  0     1  0  0  0  0  0999 V2000
  -25.7000  -35.5458   15.5827 C   0  0  0  0  0  0  0  0  0  0  0  0
  -25.8347  -34.1612   15.6002 C   0  0  0  0  0  0  0  0  0  0  0  0
  -24.1494   -9.7260   22.3169 C   0  0  0  0  0  0  0  0  0  0  0  0
  -24.3049  -11.4723   23.9792 C   0  0  0  0  0  0  0  0  0  0  0  0
  -25.9838  -36.2872   16.7289 C   0  0  0  0  0  0  0  0  0  0  0  0
  -26.2544  -33.5174   16.7637 C   0  0  0  0  0  0  0  0  0  0  0  0
  -24.4757  -28.0116   18.7707 C   0  0  0  0  0  0  0  0  0  0  0  0
  -31.5064  -18.6280   20.7170 C   0  0  0  0  0  0  0  0  0  0  0  0
  -31.1816  -19.8214   20.0720 C   0  0  0  0  0  0  0  0  0  0  0  0
  -23.7290   -8.8288   23.2987 C   0  0  0  0  0  0  0  0  0  0  0  0
  -23.8844  -10.5751   24.9610 C   0  0  0  0  0  0  0  0  0  0  0  0
  -25.0592  -26.7483   18.6844 C   0  0  0  0  0  0  0  0  0  0  0  0
  -20.8740   -8.1171   24.9646 C   0  0  0  0  0  0  0  0  0  0  0  0
  -19.7902   -7.2910   24.6667 C   0  0  0  0  0  0  0  0  0  0  0  0
  -26.0064  -27.0423   20.8834 C   0  0  0  0  0  0  0  0  0  0  0  0
  -29.0703  -19.8807   21.2450 C   0  0  0  0  0  0  0  0  0  0  0  0
  -21.1809   -5.3445   25.0049 C   0  0  0  0  0  0  0  0  0  0  0  0
  -24.4374  -11.0477   22.6572 C   0  0  0  0  0  0  0  0  0  0  0  0
  -24.0615  -12.8055   20.8470 C   0  0  0  0  0  0  0  0  0  0  0  0
  -26.3980  -35.6512   17.9098 C   0  0  0  0  0  0  0  0  0  0  0  0
  -24.6625  -28.8055   19.9114 C   0  0  0  0  0  0  0  0  0  0  0  0
  -26.5454  -34.2511   17.9264 C   0  0  0  0  0  0  0  0  0  0  0  0
  -25.4221  -28.3143   20.9827 C   0  0  0  0  0  0  0  0  0  0  0  0
  -30.6131  -18.0609   21.6259 C   0  0  0  0  0  0  0  0  0  0  0  0
  -29.9636  -20.4477   20.3360 C   0  0  0  0  0  0  0  0  0  0  0  0
  -23.5964   -9.2534   24.6207 C   0  0  0  0  0  0  0  0  0  0  0  0
  -25.8271  -26.2646   19.7397 C   0  0  0  0  0  0  0  0  0  0  0  0
  -22.1112   -7.5568   25.2827 C   0  0  0  0  0  0  0  0  0  0  0  0
  -19.9437   -5.9048   24.6869 C   0  0  0  0  0  0  0  0  0  0  0  0
  -29.3951  -18.6873   21.8899 C   0  0  0  0  0  0  0  0  0  0  0  0
  -22.2646   -6.1706   25.3028 C   0  0  0  0  0  0  0  0  0  0  0  0
  -24.8722  -11.9749   21.6435 C   0  0  0  0  0  0  0  0  0  0  0  0
  -24.9475  -13.4873   20.0492 C   0  0  0  0  0  0  0  0  0  0  0  0
  -28.8265  -22.6380   20.2456 C   0  0  0  0  0  0  0  0  0  0  0  0
  -28.4411  -23.7899   19.6783 C   0  0  0  0  0  0  0  0  0  0  0  0
  -28.8565  -24.0143   18.2651 C   0  0  0  0  0  0  0  0  0  0  0  0
  -22.6349  -12.9482   20.8300 C   0  0  0  0  0  0  0  0  0  0  0  0
  -25.9846  -31.6397   20.4797 C   0  0  0  0  0  0  0  0  0  0  0  0
  -24.7975  -31.1604   23.4602 C   0  0  0  0  0  0  0  0  0  0  0  0
  -23.7388  -28.9514   25.8364 C   0  0  0  0  0  0  0  0  0  0  0  0
  -30.7238  -14.9323   20.6798 C   0  0  0  0  0  0  0  0  0  0  0  0
  -26.7388  -36.4990   19.1098 C   0  0  0  0  0  0  0  0  0  0  0  0
  -24.0043  -30.1551   19.9999 C   0  0  0  0  0  0  0  0  0  0  0  0
  -25.6363  -29.1189   22.2377 C   0  0  0  0  0  0  0  0  0  0  0  0
  -29.4868  -22.8555   17.5217 C   0  0  0  0  0  0  0  0  0  0  0  0
  -26.8176  -35.7071   20.4124 C   0  0  0  0  0  0  0  0  0  0  0  0
  -29.2631  -13.0575   18.0287 C   0  0  0  0  0  0  0  0  0  0  0  0
  -27.6316  -34.4324   20.2139 C   0  0  0  0  0  0  0  0  0  0  0  0
  -27.8990  -12.6424   18.5827 C   0  0  0  0  0  0  0  0  0  0  0  0
  -30.3360  -21.9626   18.4225 C   0  0  0  0  0  0  0  0  0  0  0  0
  -30.3380  -13.0524   19.1135 C   0  0  0  0  0  0  0  0  0  0  0  0
  -28.6476  -13.4319   20.8663 C   0  0  0  0  0  0  0  0  0  0  0  0
  -26.9743  -33.5141   19.1765 C   0  0  1  0  0  0  0  0  0  0  0  0
  -24.6859  -31.0881   20.9961 C   0  0  1  0  0  0  0  0  0  0  0  0
  -27.5195  -13.4760   19.8214 C   0  0  2  0  0  0  0  0  0  0  0  0
  -22.8626  -28.8554   28.1859 C   0  0  0  0  0  0  0  0  0  0  0  0
  -27.6093  -31.6755   24.5272 C   0  0  0  0  0  0  0  0  0  0  0  0
  -26.8975  -30.6523   26.6985 C   0  0  0  0  0  0  0  0  0  0  0  0
  -25.7763  -32.7208   25.8696 C   0  0  0  0  0  0  0  0  0  0  0  0
  -21.1972  -27.7129   24.9615 C   0  0  0  0  0  0  0  0  0  0  0  0
  -30.9635  -16.7848   22.3138 C   0  0  0  0  0  0  0  0  0  0  0  0
  -27.6244  -24.8366   20.3611 C   0  0  0  0  0  0  0  0  0  1  0  0
  -25.3113  -30.5152   24.7246 C   0  0  1  0  0  0  0  0  0  0  0  0
  -22.4984  -28.9309   26.7113 C   0  0  2  0  0  0  0  0  0  0  0  0
  -26.3964  -31.3763   25.4307 C   0  0  0  0  0  0  0  0  0  0  0  0
  -26.1734  -12.1144   21.3759 N   0  0  0  0  0  0  0  0  0  0  0  0
  -26.1869  -13.0406   20.4023 N   0  0  0  0  0  0  0  0  0  0  0  0
  -29.6337  -21.6626   19.6795 N   0  0  0  0  0  0  0  0  0  0  0  0
  -24.9774  -30.4350   22.2739 N   0  0  0  0  0  0  0  0  0  0  0  0
  -29.9169  -13.8622   20.2593 N   0  0  0  0  0  0  0  0  0  0  0  0
  -24.7796  -14.4191   19.0870 N   0  0  0  0  0  0  0  0  0  0  0  0
  -21.8751  -12.1718   21.7156 N   0  0  0  0  0  0  0  0  0  0  0  0
  -25.8516  -32.8128   19.7615 N   0  0  0  0  0  0  0  0  0  0  0  0
  -24.1388  -30.2390   25.5475 N   0  0  0  0  0  0  0  0  0  0  0  0
  -30.2484  -15.6523   21.7690 N   0  0  0  0  0  0  0  0  0  0  0  0
  -21.6477  -27.7540   26.3765 N   0  3  0  0  0  0  0  0  0  0  0  0
  -28.6264  -25.0837   17.7036 O   0  0  0  0  0  0  0  0  0  0  0  0
  -22.0502  -13.7287   20.0410 O   0  0  0  0  0  0  0  0  0  0  0  0
  -27.0300  -31.0459   20.7165 O   0  0  0  0  0  0  0  0  0  0  0  0
  -24.2502  -32.2640   23.5238 O   0  0  0  0  0  0  0  0  0  0  0  0
  -24.2991  -27.9277   25.4510 O   0  0  0  0  0  0  0  0  0  0  0  0
  -31.7863  -15.2278   20.1223 O   0  0  0  0  0  0  0  0  0  0  0  0
  -23.1860   -8.3782   25.5790 O   0  0  0  0  0  0  0  0  0  0  0  0
  -26.3982  -25.0322   19.6578 O   0  0  0  0  0  0  0  0  0  1  0  0
  -18.9025   -5.1117   24.4023 F   0  0  0  0  0  0  0  0  0  0  0  0
  -28.5298  -18.1493   22.7609 F   0  0  0  0  0  0  0  0  0  0  0  0
  -23.4505   -5.6266   25.6088 F   0  0  0  0  0  0  0  0  0  0  0  0
  1  2  1  0  0  0  0
  1  5  2  0  0  0  0
  2  6  2  0  0  0  0
  3 10  2  0  0  0  0
  3 18  1  0  0  0  0
  4 11  1  0  0  0  0
  4 18  2  0  0  0  0
  5 20  1  0  0  0  0
  6 22  1  0  0  0  0
  7 12  2  0  0  0  0
  7 21  1  0  0  0  0
  8  9  2  0  0  0  0
  8 24  1  0  0  0  0
  9 25  1  0  0  0  0
 10 26  1  0  0  0  0
 11 26  2  0  0  0  0
 12 27  1  0  0  0  0
 13 14  2  0  0  0  0
 13 28  1  0  0  0  0
 14 29  1  0  0  0  0
 15 23  1  0  0  0  0
 15 27  2  0  0  0  0
 16 25  2  0  0  0  0
 16 30  1  0  0  0  0
 17 29  2  0  0  0  0
 17 31  1  0  0  0  0
 18 32  1  0  0  0  0
 19 32  1  0  0  0  0
 19 33  2  0  0  0  0
 19 37  1  0  0  0  0
 20 22  2  0  0  0  0
 20 42  1  0  0  0  0
 21 23  2  0  0  0  0
 21 43  1  0  0  0  0
 22 53  1  0  0  0  0
 23 44  1  0  0  0  0
 24 30  2  0  0  0  0
 24 61  1  0  0  0  0
 25 68  1  0  0  0  0
 26 83  1  0  0  0  0
 27 84  1  0  0  0  0
 28 31  2  0  0  0  0
 28 83  1  0  0  0  0
 29 85  1  0  0  0  0
 30 86  1  0  0  0  0
 31 87  1  0  0  0  0
 32 66  2  0  0  0  0
 33 67  1  0  0  0  0
 33 71  1  0  0  0  0
 34 35  2  0  0  0  0
 34 68  1  0  0  0  0
 35 36  1  0  0  0  0
 35 62  1  0  0  0  0
 36 45  1  0  0  0  0
 36 77  2  0  0  0  0
 37 72  1  0  0  0  0
 37 78  2  0  0  0  0
 38 54  1  0  0  0  0
 38 73  1  0  0  0  0
 38 79  2  0  0  0  0
 39 63  1  0  0  0  0
 39 69  1  0  0  0  0
 39 80  2  0  0  0  0
 40 64  1  0  0  0  0
 40 74  1  0  0  0  0
 40 81  2  0  0  0  0
 41 70  1  0  0  0  0
 41 75  1  0  0  0  0
 41 82  2  0  0  0  0
 42 46  1  0  0  0  0
 43 54  1  0  0  0  0
 44 69  1  0  0  0  0
 45 50  1  0  0  0  0
 46 48  1  0  0  0  0
 47 49  1  0  0  0  0
 47 51  1  0  0  0  0
 48 53  1  0  0  0  0
 49 55  1  0  0  0  0
 50 68  1  0  0  0  0
 51 70  1  0  0  0  0
 52 55  1  0  0  0  0
 52 70  1  0  0  0  0
 53 73  1  0  0  0  0
 54 69  1  0  0  0  0
 55 67  1  0  0  0  0
 56 64  1  0  0  0  0
 57 65  1  0  0  0  0
 58 65  1  0  0  0  0
 59 65  1  0  0  0  0
 60 76  1  0  0  0  0
 61 75  1  0  0  0  0
 62 84  1  0  0  0  0
 63 65  1  0  0  0  0
 63 74  1  0  0  0  0
 64 76  1  0  0  0  0
 66 67  1  0  0  0  0
M  CHG  1  76   1
M  ISO  4  41 100  62 101  75 100  84 101
M  END
> <Batch ID>
0101

> <Smiles>
CNC(C)C(=O)NC(C(=O)N1Cc2cc([101O:1][101CH2:1]C3=CN(c4ccc(C[100NH:0][100C:0](=O)N5CCCC(n6nc(-c7ccc(Oc8ccc(F)cc8F)cc7)c(C(N)=O)c6N)C5)c(F)c4)CCC3=O)ccc2CC1C(=O)NC1CCCc2ccccc21)C(C)(C)C

> <Shape>
0.306

> <Color>
0.130

> <Negative vol penalty>
0.000

$$$$

  -OEChem-04052301003D

 86 95  0     1  0  0  0  0  0999 V2000
  -21.3426  -12.6833   20.0101 C   0  0  0  0  0  0  0  0  0  0  0  0
  -21.5017  -13.9389   20.5878 C   0  0  0  0  0  0  0  0  0  0  0  0
  -28.1925  -26.2034   18.0567 C   0  0  0  0  0  0  0  0  0  0  0  0
  -29.8780  -27.0148   19.5856 C   0  0  0  0  0  0  0  0  0  0  0  0
  -22.4456  -11.8452   19.8522 C   0  0  0  0  0  0  0  0  0  0  0  0
  -22.7636  -14.3566   21.0088 C   0  0  0  0  0  0  0  0  0  0  0  0
  -23.7898  -19.1225   19.6385 C   0  0  0  0  0  0  0  0  0  0  0  0
  -29.1889  -25.8425   17.1497 C   0  0  0  0  0  0  0  0  0  0  0  0
  -30.8744  -26.6539   18.6787 C   0  0  0  0  0  0  0  0  0  0  0  0
  -23.2090  -20.1411   20.3928 C   0  0  0  0  0  0  0  0  0  0  0  0
  -32.2197  -27.8892   15.8335 C   0  0  0  0  0  0  0  0  0  0  0  0
  -33.2433  -28.8066   15.5964 C   0  0  0  0  0  0  0  0  0  0  0  0
  -25.2836  -20.4299   21.5893 C   0  0  0  0  0  0  0  0  0  0  0  0
  -18.4915  -26.0396   23.1831 C   0  0  0  0  0  0  0  0  0  0  0  0
  -34.8670  -27.1963   16.3759 C   0  0  0  0  0  0  0  0  0  0  0  0
  -28.5370  -26.7896   19.2746 C   0  0  0  0  0  0  0  0  0  0  0  0
  -26.9620  -26.3673   21.2364 C   0  0  0  0  0  0  0  0  0  0  0  0
  -23.7234  -12.2567   20.2627 C   0  0  0  0  0  0  0  0  0  0  0  0
  -25.1209  -18.7420   19.8618 C   0  0  0  0  0  0  0  0  0  0  0  0
  -23.8845  -13.5227   20.8575 C   0  0  0  0  0  0  0  0  0  0  0  0
  -25.8798  -19.4080   20.8348 C   0  0  0  0  0  0  0  0  0  0  0  0
  -18.4529  -27.4446   22.9496 C   0  0  0  0  0  0  0  0  0  0  0  0
  -30.5298  -26.0677   17.4607 C   0  0  0  0  0  0  0  0  0  0  0  0
  -23.9550  -20.7929   21.3704 C   0  0  0  0  0  0  0  0  0  0  0  0
  -32.5197  -26.6254   16.3419 C   0  0  0  0  0  0  0  0  0  0  0  0
  -34.5670  -28.4601   15.8675 C   0  0  0  0  0  0  0  0  0  0  0  0
  -33.8433  -26.2789   16.6131 C   0  0  0  0  0  0  0  0  0  0  0  0
  -27.5082  -27.1631   20.2117 C   0  0  0  0  0  0  0  0  0  0  0  0
  -19.7150  -27.9894   22.8614 C   0  0  0  0  0  0  0  0  0  0  0  0
  -26.0284  -27.1753   21.8381 C   0  0  0  0  0  0  0  0  0  0  0  0
  -19.7818  -25.5639   23.2642 C   0  0  0  0  0  0  0  0  0  0  0  0
  -21.6306  -23.8560   23.5511 C   0  0  0  0  0  0  0  0  0  0  0  0
  -27.2710  -25.0183   21.6110 C   0  0  0  0  0  0  0  0  0  0  0  0
  -20.1158  -29.4006   22.6277 C   0  0  0  0  0  0  0  0  0  0  0  0
  -26.5629  -16.0673   20.7948 C   0  0  0  0  0  0  0  0  0  0  0  0
  -29.2562  -17.7517   20.1383 C   0  0  0  0  0  0  0  0  0  0  0  0
  -30.7556  -20.7975   19.7892 C   0  0  0  0  0  0  0  0  0  0  0  0
  -21.8640  -30.8226   21.6053 C   0  0  0  0  0  0  0  0  0  0  0  0
  -24.8775  -11.2971   20.1146 C   0  0  0  0  0  0  0  0  0  0  0  0
  -25.7409  -17.6596   19.0213 C   0  0  0  0  0  0  0  0  0  0  0  0
  -27.3188  -19.0509   21.0996 C   0  0  0  0  0  0  0  0  0  0  0  0
  -26.2445  -11.9639   20.2449 C   0  0  0  0  0  0  0  0  0  0  0  0
  -25.1345  -32.1337   21.3188 C   0  0  0  0  0  0  0  0  0  0  0  0
  -26.2714  -12.8949   21.4529 C   0  0  0  0  0  0  0  0  0  0  0  0
  -26.0030  -30.8923   21.0971 C   0  0  0  0  0  0  0  0  0  0  0  0
  -20.2683  -22.0071   24.1861 C   0  0  0  0  0  0  0  0  0  0  0  0
  -23.7893  -32.0201   20.6029 C   0  0  0  0  0  0  0  0  0  0  0  0
  -19.3954  -23.0999   23.6025 C   0  0  0  0  0  0  0  0  0  0  0  0
  -23.8976  -29.5622   20.6707 C   0  0  0  0  0  0  0  0  0  0  0  0
  -25.2416  -14.0214   21.3042 C   0  0  1  0  0  0  0  0  0  0  0  0
  -21.6680  -22.3442   23.6877 C   0  0  1  0  0  0  0  0  0  0  0  0
  -26.9482  -17.0050   19.6857 C   0  0  1  0  0  0  0  0  0  0  0  0
  -25.2344  -29.5975   21.4290 C   0  0  1  0  0  0  0  0  0  0  0  0
  -17.1935  -28.2168   22.8187 C   0  0  0  0  0  0  0  0  0  0  0  0
  -32.5591  -22.4568   19.2491 C   0  0  0  0  0  0  0  0  0  0  0  0
  -30.2093  -17.0873   22.9596 C   0  0  0  0  0  0  0  0  0  0  0  0
  -31.9169  -18.9045   22.7357 C   0  0  0  0  0  0  0  0  0  0  0  0
  -31.9793  -16.9406   21.1989 C   0  0  0  0  0  0  0  0  0  0  0  0
  -29.9343  -20.9409   16.9495 C   0  0  0  0  0  0  0  0  0  0  0  0
  -21.9851  -21.7036   22.3432 C   0  0  0  0  0  0  0  0  0  1  0  0
  -30.1588  -18.6731   20.9228 C   0  0  1  0  0  0  0  0  0  0  0  0
  -31.6606  -21.3565   18.7061 C   0  0  2  0  0  0  0  0  0  0  0  0
  -31.0384  -17.9070   21.9508 C   0  0  0  0  0  0  0  0  0  0  0  0
  -26.9666  -28.3831   20.1621 N   0  0  0  0  0  0  0  0  0  0  0  0
  -26.0703  -28.3598   21.1632 N   0  0  0  0  0  0  0  0  0  0  0  0
  -20.2786  -24.2439   23.4845 N   0  0  0  0  0  0  0  0  0  0  0  0
  -27.8782  -17.9817   20.2561 N   0  0  0  0  0  0  0  0  0  0  0  0
  -23.1211  -30.7727   20.9778 N   0  0  0  0  0  0  0  0  0  0  0  0
  -25.1840  -26.9811   22.8732 N   0  0  0  0  0  0  0  0  0  0  0  0
  -28.2563  -24.3329   20.8873 N   0  0  0  0  0  0  0  0  0  0  0  0
  -21.3288  -29.5799   21.9622 N   0  0  0  0  0  0  0  0  0  0  0  0
  -25.7315  -15.0375   20.3975 N   0  0  0  0  0  0  0  0  0  0  0  0
  -30.9181  -19.4364   19.9382 N   0  0  0  0  0  0  0  0  0  0  0  0
  -30.8475  -21.9208   17.5919 N   0  3  0  0  0  0  0  0  0  0  0  0
  -22.6460  -24.5317   23.4607 O   0  0  0  0  0  0  0  0  0  0  0  0
  -26.6790  -24.4322   22.5489 O   0  0  0  0  0  0  0  0  0  0  0  0
  -19.3635  -30.3029   22.9853 O   0  0  0  0  0  0  0  0  0  0  0  0
  -26.9895  -16.2628   21.9268 O   0  0  0  0  0  0  0  0  0  0  0  0
  -29.7557  -16.8654   19.4408 O   0  0  0  0  0  0  0  0  0  0  0  0
  -29.9846  -21.4988   20.4405 O   0  0  0  0  0  0  0  0  0  0  0  0
  -21.2853  -31.8833   21.8605 O   0  0  0  0  0  0  0  0  0  0  0  0
  -31.5024  -25.7155   16.5761 O   0  0  0  0  0  0  0  0  0  0  0  0
  -23.3902  -21.7870   22.1085 O   0  0  0  0  0  0  0  0  0  1  0  0
  -35.5500  -29.3406   15.6383 F   0  0  0  0  0  0  0  0  0  0  0  0
  -34.1379  -25.0659   17.1005 F   0  0  0  0  0  0  0  0  0  0  0  0
  -20.9396  -26.8089   23.0595 S   0  0  0  0  0  0  0  0  0  0  0  0
  1  2  1  0  0  0  0
  1  5  2  0  0  0  0
  2  6  2  0  0  0  0
  3  8  2  0  0  0  0
  3 16  1  0  0  0  0
  4  9  1  0  0  0  0
  4 16  2  0  0  0  0
  5 18  1  0  0  0  0
  6 20  1  0  0  0  0
  7 10  2  0  0  0  0
  7 19  1  0  0  0  0
  8 23  1  0  0  0  0
  9 23  2  0  0  0  0
 10 24  1  0  0  0  0
 11 12  2  0  0  0  0
 11 25  1  0  0  0  0
 12 26  1  0  0  0  0
 13 21  1  0  0  0  0
 13 24  2  0  0  0  0
 14 22  1  0  0  0  0
 14 31  2  0  0  0  0
 15 26  2  0  0  0  0
 15 27  1  0  0  0  0
 16 28  1  0  0  0  0
 17 28  1  0  0  0  0
 17 30  2  0  0  0  0
 17 33  1  0  0  0  0
 18 20  2  0  0  0  0
 18 39  1  0  0  0  0
 19 21  2  0  0  0  0
 19 40  1  0  0  0  0
 20 50  1  0  0  0  0
 21 41  1  0  0  0  0
 22 29  2  0  0  0  0
 22 54  1  0  0  0  0
 23 82  1  0  0  0  0
 24 83  1  0  0  0  0
 25 27  2  0  0  0  0
 25 82  1  0  0  0  0
 26 84  1  0  0  0  0
 27 85  1  0  0  0  0
 28 64  2  0  0  0  0
 29 34  1  0  0  0  0
 29 86  1  0  0  0  0
 30 65  1  0  0  0  0
 30 69  1  0  0  0  0
 31 66  1  0  0  0  0
 31 86  1  0  0  0  0
 32 51  1  0  0  0  0
 32 66  1  0  0  0  0
 32 75  2  0  0  0  0
 33 70  1  0  0  0  0
 33 76  2  0  0  0  0
 34 71  1  0  0  0  0
 34 77  2  0  0  0  0
 35 52  1  0  0  0  0
 35 72  1  0  0  0  0
 35 78  2  0  0  0  0
 36 61  1  0  0  0  0
 36 67  1  0  0  0  0
 36 79  2  0  0  0  0
 37 62  1  0  0  0  0
 37 73  1  0  0  0  0
 37 80  2  0  0  0  0
 38 68  1  0  0  0  0
 38 71  1  0  0  0  0
 38 81  2  0  0  0  0
 39 42  1  0  0  0  0
 40 52  1  0  0  0  0
 41 67  1  0  0  0  0
 42 44  1  0  0  0  0
 43 45  1  0  0  0  0
 43 47  1  0  0  0  0
 44 50  1  0  0  0  0
 45 53  1  0  0  0  0
 46 48  1  0  0  0  0
 46 51  1  0  0  0  0
 47 68  1  0  0  0  0
 48 66  1  0  0  0  0
 49 53  1  0  0  0  0
 49 68  1  0  0  0  0
 50 72  1  0  0  0  0
 51 60  1  0  0  0  0
 52 67  1  0  0  0  0
 53 65  1  0  0  0  0
 55 62  1  0  0  0  0
 56 63  1  0  0  0  0
 57 63  1  0  0  0  0
 58 63  1  0  0  0  0
 59 74  1  0  0  0  0
 60 83  1  0  0  0  0
 61 63  1  0  0  0  0
 61 73  1  0  0  0  0
 62 74  1  0  0  0  0
 64 65  1  0  0  0  0
M  CHG  1  74   1
M  ISO  4  38 100  60 101  71 100  83 101
M  END
> <Batch ID>
0101

> <Smiles>
CNC(C)C(=O)NC(C(=O)N1Cc2cc([101O:1][101CH2:1]C3CCN(c4cc(C)c(C(=O)[100NH:0][100C:0](=O)N5CCCC(n6nc(-c7ccc(Oc8ccc(F)cc8F)cc7)c(C(N)=O)c6N)C5)s4)C3=O)ccc2CC1C(=O)NC1CCCc2ccccc21)C(C)(C)C

> <Shape>
0.239

> <Color>
0.080

> <Negative vol penalty>
0.000

$$$$

  -OEChem-04052301003D

 83 91  0     1  0  0  0  0  0999 V2000
  -32.1606  -34.7740   22.5672 C   0  0  0  0  0  0  0  0  0  0  0  0
  -31.8555  -33.4359   22.3393 C   0  0  0  0  0  0  0  0  0  0  0  0
  -23.9009   -9.7751   22.0253 C   0  0  0  0  0  0  0  0  0  0  0  0
  -24.4879  -11.2427   23.8525 C   0  0  0  0  0  0  0  0  0  0  0  0
  -31.1263  -20.0388   19.8782 C   0  0  0  0  0  0  0  0  0  0  0  0
  -31.3513  -35.5392   23.4060 C   0  0  0  0  0  0  0  0  0  0  0  0
  -30.7416  -32.8620   22.9509 C   0  0  0  0  0  0  0  0  0  0  0  0
  -28.0202  -30.0235   19.7599 C   0  0  0  0  0  0  0  0  0  0  0  0
  -30.8243  -18.6925   19.6736 C   0  0  0  0  0  0  0  0  0  0  0  0
  -23.4406   -8.8247   22.9365 C   0  0  0  0  0  0  0  0  0  0  0  0
  -24.0276  -10.2923   24.7638 C   0  0  0  0  0  0  0  0  0  0  0  0
  -28.5067  -28.7501   19.4673 C   0  0  0  0  0  0  0  0  0  0  0  0
  -20.6823   -8.3149   24.8245 C   0  0  0  0  0  0  0  0  0  0  0  0
  -19.4585   -7.7009   24.5581 C   0  0  0  0  0  0  0  0  0  0  0  0
  -28.7705  -20.5377   20.0736 C   0  0  0  0  0  0  0  0  0  0  0  0
  -26.9549  -27.7999   21.0512 C   0  0  0  0  0  0  0  0  0  0  0  0
  -20.5515   -5.5469   24.5028 C   0  0  0  0  0  0  0  0  0  0  0  0
  -24.4246  -10.9842   22.4833 C   0  0  0  0  0  0  0  0  0  0  0  0
  -30.0994  -20.9614   20.0783 C   0  0  0  0  0  0  0  0  0  0  0  0
  -24.1582  -13.0038   20.9478 C   0  0  0  0  0  0  0  0  0  0  0  0
  -30.2214  -34.9769   24.0206 C   0  0  0  0  0  0  0  0  0  0  0  0
  -27.0033  -30.1960   20.7100 C   0  0  0  0  0  0  0  0  0  0  0  0
  -29.9172  -33.6200   23.7998 C   0  0  0  0  0  0  0  0  0  0  0  0
  -26.4555  -29.0763   21.3522 C   0  0  0  0  0  0  0  0  0  0  0  0
  -29.4954  -18.2688   19.6689 C   0  0  0  0  0  0  0  0  0  0  0  0
  -23.5040   -9.0832   24.3057 C   0  0  0  0  0  0  0  0  0  0  0  0
  -27.9760  -27.6384   20.1151 C   0  0  0  0  0  0  0  0  0  0  0  0
  -21.8406   -7.5450   24.9299 C   0  0  0  0  0  0  0  0  0  0  0  0
  -19.3931   -6.3169   24.3973 C   0  0  0  0  0  0  0  0  0  0  0  0
  -28.4684  -19.1914   19.8689 C   0  0  0  0  0  0  0  0  0  0  0  0
  -21.7752   -6.1610   24.7691 C   0  0  0  0  0  0  0  0  0  0  0  0
  -24.9008  -11.9661   21.5425 C   0  0  0  0  0  0  0  0  0  0  0  0
  -25.0599  -13.6514   20.1391 C   0  0  0  0  0  0  0  0  0  0  0  0
  -29.5508  -24.4822   20.6781 C   0  0  0  0  0  0  0  0  0  0  0  0
  -30.4226  -22.4013   20.2970 C   0  0  0  0  0  0  0  0  0  0  0  0
  -22.7769  -13.3513   21.1119 C   0  0  0  0  0  0  0  0  0  0  0  0
  -26.7684  -31.7108   23.4945 C   0  0  0  0  0  0  0  0  0  0  0  0
  -23.6513  -30.8442   23.2599 C   0  0  0  0  0  0  0  0  0  0  0  0
  -21.3276  -28.7101   21.9587 C   0  0  0  0  0  0  0  0  0  0  0  0
  -30.0933  -15.8584   19.2460 C   0  0  0  0  0  0  0  0  0  0  0  0
  -29.4035  -35.8310   24.9566 C   0  0  0  0  0  0  0  0  0  0  0  0
  -26.4710  -31.5737   20.9948 C   0  0  0  0  0  0  0  0  0  0  0  0
  -25.3486  -29.2058   22.3652 C   0  0  0  0  0  0  0  0  0  0  0  0
  -28.0284  -35.2469   25.2695 C   0  0  0  0  0  0  0  0  0  0  0  0
  -29.7445  -12.3531   18.7283 C   0  0  0  0  0  0  0  0  0  0  0  0
  -28.1430  -33.7644   25.6100 C   0  0  0  0  0  0  0  0  0  0  0  0
  -28.3922  -12.0253   19.3654 C   0  0  0  0  0  0  0  0  0  0  0  0
  -30.4989  -13.4218   19.5172 C   0  0  0  0  0  0  0  0  0  0  0  0
  -28.3892  -14.3253   20.4127 C   0  0  0  0  0  0  0  0  0  0  0  0
  -28.7033  -32.9680   24.4254 C   0  0  1  0  0  0  0  0  0  0  0  0
  -25.7892  -31.6813   22.3553 C   0  0  1  0  0  0  0  0  0  0  0  0
  -27.5640  -13.3005   19.6173 C   0  0  2  0  0  0  0  0  0  0  0  0
  -18.8645  -28.2302   21.9779 C   0  0  0  0  0  0  0  0  0  0  0  0
  -23.9172  -29.6031   26.0346 C   0  0  0  0  0  0  0  0  0  0  0  0
  -21.7938  -28.3496   25.6010 C   0  0  0  0  0  0  0  0  0  0  0  0
  -21.7806  -30.8437   25.6470 C   0  0  0  0  0  0  0  0  0  0  0  0
  -21.0978  -29.1688   19.0440 C   0  0  0  0  0  0  0  0  0  0  0  0
  -28.4036  -25.4276   20.8805 C   0  0  0  0  0  0  0  0  0  1  0  0
  -22.8397  -29.6457   23.6887 C   0  0  1  0  0  0  0  0  0  0  0  0
  -19.9959  -28.9655   21.2763 C   0  0  2  0  0  0  0  0  0  0  0  0
  -22.6050  -29.6079   25.2252 C   0  0  0  0  0  0  0  0  0  0  0  0
  -26.1759  -11.9515   21.1453 N   0  0  0  0  0  0  0  0  0  0  0  0
  -29.3328  -23.2245   20.4840 N   0  0  0  0  0  0  0  0  0  0  0  0
  -26.2416  -12.9879   20.2923 N   0  0  0  0  0  0  0  0  0  0  0  0
  -24.8662  -30.5743   22.6141 N   0  0  0  0  0  0  0  0  0  0  0  0
  -29.6539  -14.6018   19.7136 N   0  0  0  0  0  0  0  0  0  0  0  0
  -24.9493  -14.7180   19.3190 N   0  0  0  0  0  0  0  0  0  0  0  0
  -21.9929  -12.5810   21.9815 N   0  0  0  0  0  0  0  0  0  0  0  0
  -29.1918  -16.9006   19.4601 N   0  0  0  0  0  0  0  0  0  0  0  0
  -27.6750  -32.7517   23.4303 N   0  0  0  0  0  0  0  0  0  0  0  0
  -21.6143  -29.6784   22.8977 N   0  0  0  0  0  0  0  0  0  0  0  0
  -20.0446  -28.5095   19.8583 N   0  3  0  0  0  0  0  0  0  0  0  0
  -31.6004  -22.7489   20.2951 O   0  0  0  0  0  0  0  0  0  0  0  0
  -22.2494  -14.3063   20.4928 O   0  0  0  0  0  0  0  0  0  0  0  0
  -26.7051  -30.8537   24.3680 O   0  0  0  0  0  0  0  0  0  0  0  0
  -23.2198  -31.9780   23.4830 O   0  0  0  0  0  0  0  0  0  0  0  0
  -22.0404  -27.7460   21.6887 O   0  0  0  0  0  0  0  0  0  0  0  0
  -31.1767  -15.9946   18.6718 O   0  0  0  0  0  0  0  0  0  0  0  0
  -23.0547   -8.1561   25.1952 O   0  0  0  0  0  0  0  0  0  0  0  0
  -28.4495  -26.3944   19.8318 O   0  0  0  0  0  0  0  0  0  1  0  0
  -18.2176   -5.7271   24.1430 F   0  0  0  0  0  0  0  0  0  0  0  0
  -27.1872  -18.7958   19.8659 F   0  0  0  0  0  0  0  0  0  0  0  0
  -22.8845   -5.4160   24.8705 F   0  0  0  0  0  0  0  0  0  0  0  0
  1  2  1  0  0  0  0
  1  6  2  0  0  0  0
  2  7  2  0  0  0  0
  3 10  2  0  0  0  0
  3 18  1  0  0  0  0
  4 11  1  0  0  0  0
  4 18  2  0  0  0  0
  5  9  2  0  0  0  0
  5 19  1  0  0  0  0
  6 21  1  0  0  0  0
  7 23  1  0  0  0  0
  8 12  2  0  0  0  0
  8 22  1  0  0  0  0
  9 25  1  0  0  0  0
 10 26  1  0  0  0  0
 11 26  2  0  0  0  0
 12 27  1  0  0  0  0
 13 14  2  0  0  0  0
 13 28  1  0  0  0  0
 14 29  1  0  0  0  0
 15 19  2  0  0  0  0
 15 30  1  0  0  0  0
 16 24  1  0  0  0  0
 16 27  2  0  0  0  0
 17 29  2  0  0  0  0
 17 31  1  0  0  0  0
 18 32  1  0  0  0  0
 19 35  1  0  0  0  0
 20 32  1  0  0  0  0
 20 33  2  0  0  0  0
 20 36  1  0  0  0  0
 21 23  2  0  0  0  0
 21 41  1  0  0  0  0
 22 24  2  0  0  0  0
 22 42  1  0  0  0  0
 23 50  1  0  0  0  0
 24 43  1  0  0  0  0
 25 30  2  0  0  0  0
 25 69  1  0  0  0  0
 26 79  1  0  0  0  0
 27 80  1  0  0  0  0
 28 31  2  0  0  0  0
 28 79  1  0  0  0  0
 29 81  1  0  0  0  0
 30 82  1  0  0  0  0
 31 83  1  0  0  0  0
 32 62  2  0  0  0  0
 33 64  1  0  0  0  0
 33 67  1  0  0  0  0
 34 58  1  0  0  0  0
 34 63  2  0  0  0  0
 35 63  1  0  0  0  0
 35 73  2  0  0  0  0
 36 68  1  0  0  0  0
 36 74  2  0  0  0  0
 37 51  1  0  0  0  0
 37 70  1  0  0  0  0
 37 75  2  0  0  0  0
 38 59  1  0  0  0  0
 38 65  1  0  0  0  0
 38 76  2  0  0  0  0
 39 60  1  0  0  0  0
 39 71  1  0  0  0  0
 39 77  2  0  0  0  0
 40 66  1  0  0  0  0
 40 69  1  0  0  0  0
 40 78  2  0  0  0  0
 41 44  1  0  0  0  0
 42 51  1  0  0  0  0
 43 65  1  0  0  0  0
 44 46  1  0  0  0  0
 45 47  1  0  0  0  0
 45 48  1  0  0  0  0
 46 50  1  0  0  0  0
 47 52  1  0  0  0  0
 48 66  1  0  0  0  0
 49 52  1  0  0  0  0
 49 66  1  0  0  0  0
 50 70  1  0  0  0  0
 51 65  1  0  0  0  0
 52 64  1  0  0  0  0
 53 60  1  0  0  0  0
 54 61  1  0  0  0  0
 55 61  1  0  0  0  0
 56 61  1  0  0  0  0
 57 72  1  0  0  0  0
 58 80  1  0  0  0  0
 59 61  1  0  0  0  0
 59 71  1  0  0  0  0
 60 72  1  0  0  0  0
 62 64  1  0  0  0  0
M  CHG  1  72   1
M  ISO  4  40 100  58 101  69 100  80 101
M  END
> <Batch ID>
0101

> <Smiles>
CNC(C)C(=O)NC(C(=O)N1Cc2cc([101O:1][101CH2:1]C=NC(=O)c3ccc([100NH:0][100C:0](=O)N4CCCC(n5nc(-c6ccc(Oc7ccc(F)cc7F)cc6)c(C(N)=O)c5N)C4)c(F)c3)ccc2CC1C(=O)NC1CCCc2ccccc21)C(C)(C)C

> <Shape>
0.308

> <Color>
0.144

> <Negative vol penalty>
0.000

$$$$

  -OEChem-04052301003D

 84 92  0     1  0  0  0  0  0999 V2000
  -31.4080  -25.2284   11.8032 C   0  0  0  0  0  0  0  0  0  0  0  0
  -30.3100  -24.5032   12.2546 C   0  0  0  0  0  0  0  0  0  0  0  0
  -23.2154   -9.7621   20.0630 C   0  0  0  0  0  0  0  0  0  0  0  0
  -23.6244  -10.0626   22.4251 C   0  0  0  0  0  0  0  0  0  0  0  0
  -27.0438  -17.1172   16.5588 C   0  0  0  0  0  0  0  0  0  0  0  0
  -32.3164  -25.7580   12.7187 C   0  0  0  0  0  0  0  0  0  0  0  0
  -30.1203  -24.3062   13.6220 C   0  0  0  0  0  0  0  0  0  0  0  0
  -25.3222  -25.0740   15.0481 C   0  0  0  0  0  0  0  0  0  0  0  0
  -25.9551  -17.8414   16.0732 C   0  0  0  0  0  0  0  0  0  0  0  0
  -22.4344   -8.6404   20.3410 C   0  0  0  0  0  0  0  0  0  0  0  0
  -22.8433   -8.9409   22.7031 C   0  0  0  0  0  0  0  0  0  0  0  0
  -24.4081  -24.0555   14.7820 C   0  0  0  0  0  0  0  0  0  0  0  0
  -22.9332   -5.3906   21.1248 C   0  0  0  0  0  0  0  0  0  0  0  0
  -23.1322   -4.2533   20.3422 C   0  0  0  0  0  0  0  0  0  0  0  0
  -28.4249  -18.0048   14.7863 C   0  0  0  0  0  0  0  0  0  0  0  0
  -24.5803  -23.3112   17.0701 C   0  0  0  0  0  0  0  0  0  0  0  0
  -20.8281   -4.3464   19.6212 C   0  0  0  0  0  0  0  0  0  0  0  0
  -23.8105  -10.4732   21.1051 C   0  0  0  0  0  0  0  0  0  0  0  0
  -28.2787  -17.1990   15.9154 C   0  0  0  0  0  0  0  0  0  0  0  0
  -24.1843  -12.9678   20.7239 C   0  0  0  0  0  0  0  0  0  0  0  0
  -32.1325  -25.5757   14.0984 C   0  0  0  0  0  0  0  0  0  0  0  0
  -25.8814  -25.2123   16.3267 C   0  0  0  0  0  0  0  0  0  0  0  0
  -31.0278  -24.8328   14.5568 C   0  0  0  0  0  0  0  0  0  0  0  0
  -25.4993  -24.3339   17.3506 C   0  0  0  0  0  0  0  0  0  0  0  0
  -26.1012  -18.6473   14.9441 C   0  0  0  0  0  0  0  0  0  0  0  0
  -22.2483   -8.2298   21.6610 C   0  0  0  0  0  0  0  0  0  0  0  0
  -24.0392  -23.1721   15.7923 C   0  0  0  0  0  0  0  0  0  0  0  0
  -21.6817   -6.0058   21.1557 C   0  0  0  0  0  0  0  0  0  0  0  0
  -22.0796   -3.7312   19.5903 C   0  0  0  0  0  0  0  0  0  0  0  0
  -27.3361  -18.7290   14.3006 C   0  0  0  0  0  0  0  0  0  0  0  0
  -20.6292   -5.4837   20.4039 C   0  0  0  0  0  0  0  0  0  0  0  0
  -24.6179  -11.6318   20.8186 C   0  0  0  0  0  0  0  0  0  0  0  0
  -25.3238  -13.6790   20.4370 C   0  0  0  0  0  0  0  0  0  0  0  0
  -29.4389  -16.4281   16.4318 C   0  0  0  0  0  0  0  0  0  0  0  0
  -22.8693  -13.5168   20.8813 C   0  0  0  0  0  0  0  0  0  0  0  0
  -28.8259  -25.0652   17.5149 C   0  0  0  0  0  0  0  0  0  0  0  0
  -27.3523  -26.0121   20.2451 C   0  0  0  0  0  0  0  0  0  0  0  0
  -24.4782  -26.1806   22.0776 C   0  0  0  0  0  0  0  0  0  0  0  0
  -30.0667  -14.3727   17.6584 C   0  0  0  0  0  0  0  0  0  0  0  0
  -33.1668  -26.1268   15.0477 C   0  0  0  0  0  0  0  0  0  0  0  0
  -26.8458  -26.3326   16.6045 C   0  0  0  0  0  0  0  0  0  0  0  0
  -26.0553  -24.4520   18.7454 C   0  0  0  0  0  0  0  0  0  0  0  0
  -32.6905  -26.1920   16.4966 C   0  0  0  0  0  0  0  0  0  0  0  0
  -30.1902  -12.2760   20.5019 C   0  0  0  0  0  0  0  0  0  0  0  0
  -32.0143  -24.8842   16.8956 C   0  0  0  0  0  0  0  0  0  0  0  0
  -28.7157  -12.0357   20.8376 C   0  0  0  0  0  0  0  0  0  0  0  0
  -30.4294  -12.3154   18.9932 C   0  0  0  0  0  0  0  0  0  0  0  0
  -28.1015  -13.0032   18.5858 C   0  0  0  0  0  0  0  0  0  0  0  0
  -30.7743  -24.6188   16.0333 C   0  0  1  0  0  0  0  0  0  0  0  0
  -27.7426  -26.0640   17.8091 C   0  0  1  0  0  0  0  0  0  0  0  0
  -27.7974  -13.0251   20.0925 C   0  0  1  0  0  0  0  0  0  0  0  0
  -23.5943  -26.9785   24.2866 C   0  0  0  0  0  0  0  0  0  0  0  0
  -28.6403  -23.6142   21.6239 C   0  0  0  0  0  0  0  0  0  0  0  0
  -27.0114  -23.9077   23.5024 C   0  0  0  0  0  0  0  0  0  0  0  0
  -28.6428  -25.7194   22.9741 C   0  0  0  0  0  0  0  0  0  0  0  0
  -22.5945  -28.0569   20.7775 C   0  0  0  0  0  0  0  0  0  0  0  0
  -22.7267  -20.1856   14.2632 C   0  0  0  0  0  0  0  0  0  0  0  0
  -23.7068  -19.3386   15.0657 C   0  0  0  0  0  0  0  0  0  0  0  0
  -23.1199  -21.6571   14.2062 C   0  0  0  0  0  0  0  0  0  1  0  0
  -26.7009  -25.3050   21.4090 C   0  0  1  0  0  0  0  0  0  0  0  0
  -23.8261  -27.3297   22.8252 C   0  0  2  0  0  0  0  0  0  0  0  0
  -27.7397  -24.6329   22.3507 C   0  0  0  0  0  0  0  0  0  0  0  0
  -25.9303  -11.4994   20.6087 N   0  0  0  0  0  0  0  0  0  0  0  0
  -26.3312  -12.7614   20.3792 N   0  0  0  0  0  0  0  0  0  0  0  0
  -26.9996  -25.5598   18.9657 N   0  0  0  0  0  0  0  0  0  0  0  0
  -29.5283  -13.2824   18.3638 N   0  0  0  0  0  0  0  0  0  0  0  0
  -25.5522  -14.9934   20.2310 N   0  0  0  0  0  0  0  0  0  0  0  0
  -21.8119  -12.6449   21.1746 N   0  0  0  0  0  0  0  0  0  0  0  0
  -25.0176  -19.3655   14.4630 N   0  0  0  0  0  0  0  0  0  0  0  0
  -29.1244  -15.2624   17.1307 N   0  0  0  0  0  0  0  0  0  0  0  0
  -29.6644  -25.4330   16.4800 N   0  0  0  0  0  0  0  0  0  0  0  0
  -25.8523  -26.2942   22.0646 N   0  0  0  0  0  0  0  0  0  0  0  0
  -22.5122  -27.6692   22.2092 N   0  3  0  0  0  0  0  0  0  0  0  0
  -30.5757  -16.8241   16.1893 O   0  0  0  0  0  0  0  0  0  0  0  0
  -22.6358  -14.7422   20.7492 O   0  0  0  0  0  0  0  0  0  0  0  0
  -28.8968  -24.0376   18.1788 O   0  0  0  0  0  0  0  0  0  0  0  0
  -28.1394  -26.9366   20.4630 O   0  0  0  0  0  0  0  0  0  0  0  0
  -23.8333  -25.2712   21.5604 O   0  0  0  0  0  0  0  0  0  0  0  0
  -31.2820  -14.5591   17.5408 O   0  0  0  0  0  0  0  0  0  0  0  0
  -21.4860   -7.1354   21.9326 O   0  0  0  0  0  0  0  0  0  0  0  0
  -23.1477  -22.1767   15.5350 O   0  0  0  0  0  0  0  0  0  1  0  0
  -22.2712   -2.6399   18.8376 F   0  0  0  0  0  0  0  0  0  0  0  0
  -27.4879  -19.5002   13.2146 F   0  0  0  0  0  0  0  0  0  0  0  0
  -19.4249   -6.0711   20.4286 F   0  0  0  0  0  0  0  0  0  0  0  0
  1  2  1  0  0  0  0
  1  6  2  0  0  0  0
  2  7  2  0  0  0  0
  3 10  2  0  0  0  0
  3 18  1  0  0  0  0
  4 11  1  0  0  0  0
  4 18  2  0  0  0  0
  5  9  2  0  0  0  0
  5 19  1  0  0  0  0
  6 21  1  0  0  0  0
  7 23  1  0  0  0  0
  8 12  2  0  0  0  0
  8 22  1  0  0  0  0
  9 25  1  0  0  0  0
 10 26  1  0  0  0  0
 11 26  2  0  0  0  0
 12 27  1  0  0  0  0
 13 14  2  0  0  0  0
 13 28  1  0  0  0  0
 14 29  1  0  0  0  0
 15 19  2  0  0  0  0
 15 30  1  0  0  0  0
 16 24  1  0  0  0  0
 16 27  2  0  0  0  0
 17 29  2  0  0  0  0
 17 31  1  0  0  0  0
 18 32  1  0  0  0  0
 19 34  1  0  0  0  0
 20 32  1  0  0  0  0
 20 33  2  0  0  0  0
 20 35  1  0  0  0  0
 21 23  2  0  0  0  0
 21 40  1  0  0  0  0
 22 24  2  0  0  0  0
 22 41  1  0  0  0  0
 23 49  1  0  0  0  0
 24 42  1  0  0  0  0
 25 30  2  0  0  0  0
 25 69  1  0  0  0  0
 26 80  1  0  0  0  0
 27 81  1  0  0  0  0
 28 31  2  0  0  0  0
 28 80  1  0  0  0  0
 29 82  1  0  0  0  0
 30 83  1  0  0  0  0
 31 84  1  0  0  0  0
 32 63  2  0  0  0  0
 33 64  1  0  0  0  0
 33 67  1  0  0  0  0
 34 70  1  0  0  0  0
 34 74  2  0  0  0  0
 35 68  1  0  0  0  0
 35 75  2  0  0  0  0
 36 50  1  0  0  0  0
 36 71  1  0  0  0  0
 36 76  2  0  0  0  0
 37 60  1  0  0  0  0
 37 65  1  0  0  0  0
 37 77  2  0  0  0  0
 38 61  1  0  0  0  0
 38 72  1  0  0  0  0
 38 78  2  0  0  0  0
 39 66  1  0  0  0  0
 39 70  1  0  0  0  0
 39 79  2  0  0  0  0
 40 43  1  0  0  0  0
 41 50  1  0  0  0  0
 42 65  1  0  0  0  0
 43 45  1  0  0  0  0
 44 46  1  0  0  0  0
 44 47  1  0  0  0  0
 45 49  1  0  0  0  0
 46 51  1  0  0  0  0
 47 66  1  0  0  0  0
 48 51  1  0  0  0  0
 48 66  1  0  0  0  0
 49 71  1  0  0  0  0
 50 65  1  0  0  0  0
 51 64  1  0  0  0  0
 52 61  1  0  0  0  0
 53 62  1  0  0  0  0
 54 62  1  0  0  0  0
 55 62  1  0  0  0  0
 56 73  1  0  0  0  0
 57 58  1  0  0  0  0
 57 59  1  0  0  0  0
 58 69  1  0  0  0  0
 59 81  1  0  0  0  0
 60 62  1  0  0  0  0
 60 72  1  0  0  0  0
 61 73  1  0  0  0  0
 63 64  1  0  0  0  0
M  CHG  1  73   1
M  ISO  4  39 100  59 101  70 100  81 101
M  END
> <Batch ID>
0101

> <Smiles>
CNC(C)C(=O)NC(C(=O)N1Cc2cc([101O:1][101CH2:1]CCNc3ccc(C(=O)[100NH:0][100C:0](=O)N4CCCC(n5nc(-c6ccc(Oc7ccc(F)cc7F)cc6)c(C(N)=O)c5N)C4)cc3F)ccc2CC1C(=O)NC1CCCc2ccccc21)C(C)(C)C

> <Shape>
0.166

> <Color>
0.185

> <Negative vol penalty>
0.000

$$$$

  -OEChem-04052301003D

 87 96  0     1  0  0  0  0  0999 V2000
  -16.4084  -29.6063   23.4420 C   0  0  0  0  0  0  0  0  0  0  0  0
  -16.1779  -28.2391   23.3276 C   0  0  0  0  0  0  0  0  0  0  0  0
  -27.7401  -23.6605   21.6458 C   0  0  0  0  0  0  0  0  0  0  0  0
  -28.1816  -22.9733   19.3721 C   0  0  0  0  0  0  0  0  0  0  0  0
  -17.7057  -30.1051   23.3309 C   0  0  0  0  0  0  0  0  0  0  0  0
  -17.2445  -27.3700   23.1010 C   0  0  0  0  0  0  0  0  0  0  0  0
  -19.4412  -20.7183   24.5997 C   0  0  0  0  0  0  0  0  0  0  0  0
  -27.9077  -24.9947   21.2752 C   0  0  0  0  0  0  0  0  0  0  0  0
  -28.3492  -24.3075   19.0014 C   0  0  0  0  0  0  0  0  0  0  0  0
  -19.9121  -19.5705   23.9635 C   0  0  0  0  0  0  0  0  0  0  0  0
  -26.1010  -27.3945   19.7230 C   0  0  0  0  0  0  0  0  0  0  0  0
  -25.1659  -28.3190   20.1884 C   0  0  0  0  0  0  0  0  0  0  0  0
  -22.1203  -20.5370   23.8680 C   0  0  0  0  0  0  0  0  0  0  0  0
  -25.1601  -12.7126   18.5435 C   0  0  0  0  0  0  0  0  0  0  0  0
  -26.9254  -29.5309   21.3164 C   0  0  0  0  0  0  0  0  0  0  0  0
  -27.8771  -22.6497   20.6943 C   0  0  0  0  0  0  0  0  0  0  0  0
  -26.5522  -20.6797   21.6276 C   0  0  0  0  0  0  0  0  0  0  0  0
  -18.7899  -29.2406   23.1124 C   0  0  0  0  0  0  0  0  0  0  0  0
  -20.3053  -21.7902   24.8654 C   0  0  0  0  0  0  0  0  0  0  0  0
  -18.5573  -27.8578   22.9855 C   0  0  0  0  0  0  0  0  0  0  0  0
  -21.6584  -21.6961   24.5099 C   0  0  0  0  0  0  0  0  0  0  0  0
  -25.8087  -13.2300   19.6648 C   0  0  0  0  0  0  0  0  0  0  0  0
  -25.0658  -13.7953   20.7012 C   0  0  0  0  0  0  0  0  0  0  0  0
  -23.6743  -13.8434   20.6162 C   0  0  0  0  0  0  0  0  0  0  0  0
  -23.7686  -12.7607   18.4585 C   0  0  0  0  0  0  0  0  0  0  0  0
  -23.0257  -13.3261   19.4949 C   0  0  0  0  0  0  0  0  0  0  0  0
  -28.2122  -25.3182   19.9530 C   0  0  0  0  0  0  0  0  0  0  0  0
  -21.2513  -19.4809   23.5950 C   0  0  0  0  0  0  0  0  0  0  0  0
  -27.4483  -27.5382   20.0544 C   0  0  0  0  0  0  0  0  0  0  0  0
  -25.5781  -29.3872   20.9850 C   0  0  0  0  0  0  0  0  0  0  0  0
  -27.8605  -28.6064   20.8510 C   0  0  0  0  0  0  0  0  0  0  0  0
  -27.7047  -21.2713   21.0767 C   0  0  0  0  0  0  0  0  0  0  0  0
  -26.8962  -19.3626   21.8103 C   0  0  0  0  0  0  0  0  0  0  0  0
  -25.2840  -21.2681   21.9456 C   0  0  0  0  0  0  0  0  0  0  0  0
  -20.4439  -24.8358   23.9660 C   0  0  0  0  0  0  0  0  0  0  0  0
  -22.8811  -24.9509   26.1036 C   0  0  0  0  0  0  0  0  0  0  0  0
  -25.3061  -23.2771   27.8254 C   0  0  0  0  0  0  0  0  0  0  0  0
  -29.2703  -14.6541   19.9831 C   0  0  0  0  0  0  0  0  0  0  0  0
  -20.1684  -29.8312   22.9521 C   0  0  0  0  0  0  0  0  0  0  0  0
  -19.7876  -23.0104   25.5763 C   0  0  0  0  0  0  0  0  0  0  0  0
  -22.6315  -22.8108   24.7909 C   0  0  0  0  0  0  0  0  0  0  0  0
  -21.2902  -28.8045   23.0857 C   0  0  0  0  0  0  0  0  0  0  0  0
  -31.3926  -17.0637   21.5213 C   0  0  0  0  0  0  0  0  0  0  0  0
  -20.9734  -27.5580   22.2655 C   0  0  0  0  0  0  0  0  0  0  0  0
  -30.5297  -18.3253   21.5823 C   0  0  0  0  0  0  0  0  0  0  0  0
  -21.4706  -14.6268   23.4658 C   0  0  0  0  0  0  0  0  0  0  0  0
  -31.1342  -16.2643   20.2460 C   0  0  0  0  0  0  0  0  0  0  0  0
  -22.4390  -13.6576   22.7909 C   0  0  0  0  0  0  0  0  0  0  0  0
  -22.5717  -15.8167   21.7056 C   0  0  0  0  0  0  0  0  0  0  0  0
  -28.8564  -17.1876   20.0642 C   0  0  0  0  0  0  0  0  0  0  0  0
  -19.6914  -26.8804   22.7644 C   0  0  1  0  0  0  0  0  0  0  0  0
  -20.6431  -24.2503   25.3354 C   0  0  1  0  0  0  0  0  0  0  0  0
  -22.0633  -15.9948   23.1406 C   0  0  1  0  0  0  0  0  0  0  0  0
  -29.0410  -17.9977   21.3588 C   0  0  2  0  0  0  0  0  0  0  0  0
  -25.7678  -14.3498   21.9014 C   0  0  0  0  0  0  0  0  0  0  0  0
  -27.1667  -23.6464   29.4684 C   0  0  0  0  0  0  0  0  0  0  0  0
  -24.6132  -26.1136   23.8770 C   0  0  0  0  0  0  0  0  0  0  0  0
  -26.6299  -25.5738   25.2590 C   0  0  0  0  0  0  0  0  0  0  0  0
  -24.9299  -27.1871   26.1134 C   0  0  0  0  0  0  0  0  0  0  0  0
  -24.0405  -21.5085   29.8327 C   0  0  0  0  0  0  0  0  0  0  0  0
  -27.2995  -13.1670   19.7301 C   0  0  0  0  0  0  0  0  0  0  0  0
  -21.0653  -17.1300   23.2871 C   0  0  0  0  0  0  0  0  0  1  0  0
  -24.3719  -24.7224   26.0385 C   0  0  1  0  0  0  0  0  0  0  0  0
  -25.6968  -23.2983   29.2922 C   0  0  2  0  0  0  0  0  0  0  0  0
  -25.1177  -25.8788   25.3148 C   0  0  0  0  0  0  0  0  0  0  0  0
  -28.7061  -20.4014   20.9199 N   0  0  0  0  0  0  0  0  0  0  0  0
  -28.1838  -19.2498   21.3751 N   0  0  0  0  0  0  0  0  0  0  0  0
  -22.9431  -14.4048   21.6415 N   0  0  3  0  0  0  0  0  0  0  0  0
  -22.0758  -23.9858   25.4824 N   0  0  0  0  0  0  0  0  0  0  0  0
  -29.7042  -15.9854   20.0942 N   0  0  0  0  0  0  0  0  0  0  0  0
  -23.1338  -12.2302   17.3129 N   0  0  0  0  0  0  0  0  0  0  0  0
  -21.6135  -13.3741   19.4062 N   0  0  0  0  0  0  0  0  0  0  0  0
  -26.2199  -18.3015   22.2994 N   0  0  0  0  0  0  0  0  0  0  0  0
  -24.2867  -21.2789   20.9609 N   0  0  0  0  0  0  0  0  0  0  0  0
  -19.9545  -26.1280   23.9723 N   0  0  0  0  0  0  0  0  0  0  0  0
  -24.8104  -24.4953   27.4113 N   0  0  0  0  0  0  0  0  0  0  0  0
  -27.8986  -14.4777   19.8488 N   0  0  0  0  0  0  0  0  0  0  0  0
  -25.4518  -21.9657   29.9128 N   0  3  0  0  0  0  0  0  0  0  0  0
  -25.0478  -21.7842   23.0643 O   0  0  0  0  0  0  0  0  0  0  0  0
  -20.7157  -24.1653   22.9769 O   0  0  0  0  0  0  0  0  0  0  0  0
  -22.4468  -25.9453   26.6903 O   0  0  0  0  0  0  0  0  0  0  0  0
  -25.4318  -22.2808   27.1169 O   0  0  0  0  0  0  0  0  0  0  0  0
  -30.0472  -13.6935   20.0076 O   0  0  0  0  0  0  0  0  0  0  0  0
  -28.3756  -26.6200   19.5909 O   0  0  0  0  0  0  0  0  0  0  0  0
  -21.7134  -18.3620   22.9734 O   0  0  0  0  0  0  0  0  0  1  0  0
  -24.6802  -30.2757   21.4306 F   0  0  0  0  0  0  0  0  0  0  0  0
  -29.1537  -28.7504   21.1717 F   0  0  0  0  0  0  0  0  0  0  0  0
  1  2  1  0  0  0  0
  1  5  2  0  0  0  0
  2  6  2  0  0  0  0
  3  8  2  0  0  0  0
  3 16  1  0  0  0  0
  4  9  1  0  0  0  0
  4 16  2  0  0  0  0
  5 18  1  0  0  0  0
  6 20  1  0  0  0  0
  7 10  2  0  0  0  0
  7 19  1  0  0  0  0
  8 27  1  0  0  0  0
  9 27  2  0  0  0  0
 10 28  1  0  0  0  0
 11 12  2  0  0  0  0
 11 29  1  0  0  0  0
 12 30  1  0  0  0  0
 13 21  1  0  0  0  0
 13 28  2  0  0  0  0
 14 22  1  0  0  0  0
 14 25  2  0  0  0  0
 15 30  2  0  0  0  0
 15 31  1  0  0  0  0
 16 32  1  0  0  0  0
 17 32  1  0  0  0  0
 17 33  2  0  0  0  0
 17 34  1  0  0  0  0
 18 20  2  0  0  0  0
 18 39  1  0  0  0  0
 19 21  2  0  0  0  0
 19 40  1  0  0  0  0
 20 51  1  0  0  0  0
 21 41  1  0  0  0  0
 22 23  2  0  0  0  0
 22 61  1  0  0  0  0
 23 24  1  0  0  0  0
 23 55  1  0  0  0  0
 24 26  2  0  0  0  0
 24 68  1  0  0  0  0
 25 26  1  0  0  0  0
 25 71  1  0  0  0  0
 26 72  1  0  0  0  0
 27 84  1  0  0  0  0
 28 85  1  0  0  0  0
 29 31  2  0  0  0  0
 29 84  1  0  0  0  0
 30 86  1  0  0  0  0
 31 87  1  0  0  0  0
 32 66  2  0  0  0  0
 33 67  1  0  0  0  0
 33 73  1  0  0  0  0
 34 74  1  0  0  0  0
 34 79  2  0  0  0  0
 35 52  1  0  0  0  0
 35 75  1  0  0  0  0
 35 80  2  0  0  0  0
 36 63  1  0  0  0  0
 36 69  1  0  0  0  0
 36 81  2  0  0  0  0
 37 64  1  0  0  0  0
 37 76  1  0  0  0  0
 37 82  2  0  0  0  0
 38 70  1  0  0  0  0
 38 77  1  0  0  0  0
 38 83  2  0  0  0  0
 39 42  1  0  0  0  0
 40 52  1  0  0  0  0
 41 69  1  0  0  0  0
 42 44  1  0  0  0  0
 43 45  1  0  0  0  0
 43 47  1  0  0  0  0
 44 51  1  0  0  0  0
 45 54  1  0  0  0  0
 46 48  1  0  0  0  0
 46 53  1  0  0  0  0
 47 70  1  0  0  0  0
 48 68  1  0  0  0  0
 49 53  1  0  0  0  0
 49 68  1  0  0  0  0
 50 54  1  0  0  0  0
 50 70  1  0  0  0  0
 51 75  1  0  0  0  0
 52 69  1  0  0  0  0
 53 62  1  0  0  0  0
 54 67  1  0  0  0  0
 56 64  1  0  0  0  0
 57 65  1  0  0  0  0
 58 65  1  0  0  0  0
 59 65  1  0  0  0  0
 60 78  1  0  0  0  0
 61 77  1  0  0  0  0
 62 85  1  0  0  0  0
 63 65  1  0  0  0  0
 63 76  1  0  0  0  0
 64 78  1  0  0  0  0
 66 67  1  0  0  0  0
M  CHG  1  78   1
M  ISO  4  38 100  62 101  77 100  85 101
M  END
> <Batch ID>
0101

> <Smiles>
CNC(C)C(=O)NC(C(=O)N1Cc2cc([101O:1][101CH2:1]C3CCN(c4c(C)c(C[100NH:0][100C:0](=O)N5CCCC(n6nc(-c7ccc(Oc8ccc(F)cc8F)cc7)c(C(N)=O)c6N)C5)cc(N)c4N)C3)ccc2CC1C(=O)NC1CCCc2ccccc21)C(C)(C)C

> <Shape>
0.222

> <Color>
0.050

> <Negative vol penalty>
0.000

$$$$

  -OEChem-04052301003D

 88 97  0     1  0  0  0  0  0999 V2000
  -32.1425  -13.7828   21.2673 C   0  0  0  0  0  0  0  0  0  0  0  0
  -31.4708  -15.0005   21.3066 C   0  0  0  0  0  0  0  0  0  0  0  0
  -23.1886  -28.2451   19.8757 C   0  0  0  0  0  0  0  0  0  0  0  0
  -23.2587  -25.9483   19.1295 C   0  0  0  0  0  0  0  0  0  0  0  0
  -31.5161  -12.6596   20.7288 C   0  0  0  0  0  0  0  0  0  0  0  0
  -30.1727  -15.0959   20.8065 C   0  0  0  0  0  0  0  0  0  0  0  0
  -27.0954  -17.6976   23.8735 C   0  0  0  0  0  0  0  0  0  0  0  0
  -29.1556  -24.7290   18.0422 C   0  0  0  0  0  0  0  0  0  0  0  0
  -27.4324  -23.0385   18.1407 C   0  0  0  0  0  0  0  0  0  0  0  0
  -29.1628  -24.6405   16.6502 C   0  0  0  0  0  0  0  0  0  0  0  0
  -27.4396  -22.9500   16.7487 C   0  0  0  0  0  0  0  0  0  0  0  0
  -21.8352  -28.1043   20.1822 C   0  0  0  0  0  0  0  0  0  0  0  0
  -21.9052  -25.8075   19.4361 C   0  0  0  0  0  0  0  0  0  0  0  0
  -27.1990  -19.0877   23.8496 C   0  0  0  0  0  0  0  0  0  0  0  0
  -19.9695  -26.7692   22.6660 C   0  0  0  0  0  0  0  0  0  0  0  0
  -19.5253  -27.2760   23.8873 C   0  0  0  0  0  0  0  0  0  0  0  0
  -25.2613  -19.2015   22.4172 C   0  0  0  0  0  0  0  0  0  0  0  0
  -18.0047  -28.7488   22.7230 C   0  0  0  0  0  0  0  0  0  0  0  0
  -23.9004  -27.1672   19.3493 C   0  0  0  0  0  0  0  0  0  0  0  0
  -26.3408  -27.6464   19.9170 C   0  0  0  0  0  0  0  0  0  0  0  0
  -30.2061  -12.7390   20.2306 C   0  0  0  0  0  0  0  0  0  0  0  0
  -26.0787  -17.0472   23.1593 C   0  0  0  0  0  0  0  0  0  0  0  0
  -29.5287  -13.9730   20.2596 C   0  0  0  0  0  0  0  0  0  0  0  0
  -25.1454  -17.8032   22.4357 C   0  0  0  0  0  0  0  0  0  0  0  0
  -28.2904  -23.9280   18.7875 C   0  0  0  0  0  0  0  0  0  0  0  0
  -28.3048  -23.7510   16.0034 C   0  0  0  0  0  0  0  0  0  0  0  0
  -21.1935  -26.8855   19.9624 C   0  0  0  0  0  0  0  0  0  0  0  0
  -26.2837  -19.8397   23.1190 C   0  0  0  0  0  0  0  0  0  0  0  0
  -19.4314  -27.2523   21.4732 C   0  0  0  0  0  0  0  0  0  0  0  0
  -18.5429  -28.2658   23.9158 C   0  0  0  0  0  0  0  0  0  0  0  0
  -18.4489  -28.2421   21.5017 C   0  0  0  0  0  0  0  0  0  0  0  0
  -25.2984  -27.3122   19.0319 C   0  0  0  0  0  0  0  0  0  0  0  0
  -27.4678  -27.6565   19.1320 C   0  0  0  0  0  0  0  0  0  0  0  0
  -28.6148  -25.2667   20.8154 C   0  0  0  0  0  0  0  0  0  0  0  0
  -27.9546  -22.8465   20.9658 C   0  0  0  0  0  0  0  0  0  0  0  0
  -28.2373  -21.2742   14.4127 C   0  0  0  0  0  0  0  0  0  0  0  0
  -28.0017  -22.4822   13.8959 C   0  0  0  0  0  0  0  0  0  0  0  0
  -26.2946  -27.9228   21.3231 C   0  0  0  0  0  0  0  0  0  0  0  0
  -26.0031  -14.9558   20.7669 C   0  0  0  0  0  0  0  0  0  0  0  0
  -22.8184  -14.9563   21.3829 C   0  0  0  0  0  0  0  0  0  0  0  0
  -20.2904  -17.4047   22.1780 C   0  0  0  0  0  0  0  0  0  0  0  0
  -28.4842  -24.8448   13.7970 C   0  0  0  0  0  0  0  0  0  0  0  0
  -29.5878  -11.5089   19.6150 C   0  0  0  0  0  0  0  0  0  0  0  0
  -25.9646  -15.5485   23.2170 C   0  0  0  0  0  0  0  0  0  0  0  0
  -24.0234  -17.1544   21.6685 C   0  0  0  0  0  0  0  0  0  0  0  0
  -28.7662  -25.3031   22.3221 C   0  0  0  0  0  0  0  0  0  0  0  0
  -28.0736  -11.6069   19.4478 C   0  0  0  0  0  0  0  0  0  0  0  0
  -28.8863  -23.9402   22.9628 C   0  0  0  0  0  0  0  0  0  0  0  0
  -28.9095  -28.4106   14.6402 C   0  0  0  0  0  0  0  0  0  0  0  0
  -27.6898  -12.9515   18.8381 C   0  0  0  0  0  0  0  0  0  0  0  0
  -28.0656  -28.5659   15.9043 C   0  0  0  0  0  0  0  0  0  0  0  0
  -28.3650  -27.3177   13.7252 C   0  0  0  0  0  0  0  0  0  0  0  0
  -27.3519  -26.1545   15.6609 C   0  0  0  0  0  0  0  0  0  0  0  0
  -28.1106  -14.1107   19.7495 C   0  0  1  0  0  0  0  0  0  0  0  0
  -27.7480  -23.0724   22.4568 C   0  0  2  0  0  0  0  0  0  0  0  0
  -25.1982  -14.9618   22.0356 C   0  0  1  0  0  0  0  0  0  0  0  0
  -27.9020  -27.2165   16.6251 C   0  0  2  0  0  0  0  0  0  0  0  0
  -18.1372  -17.1740   23.4460 C   0  0  0  0  0  0  0  0  0  0  0  0
  -21.5779  -14.5314   18.6278 C   0  0  0  0  0  0  0  0  0  0  0  0
  -19.5996  -15.8632   19.3900 C   0  0  0  0  0  0  0  0  0  0  0  0
  -20.1786  -13.7253   20.5375 C   0  0  0  0  0  0  0  0  0  0  0  0
  -21.0341  -19.5624   24.0623 C   0  0  0  0  0  0  0  0  0  0  0  0
  -27.6895  -21.7549   23.2263 C   0  0  0  0  0  0  0  0  0  1  0  0
  -21.6358  -15.7597   20.8981 C   0  0  1  0  0  0  0  0  0  0  0  0
  -19.5972  -17.5939   23.5152 C   0  0  2  0  0  0  0  0  0  0  0  0
  -20.7741  -14.9810   19.8643 C   0  0  0  0  0  0  0  0  0  0  0  0
  -25.7251  -27.1238   17.7803 N   0  0  0  0  0  0  0  0  0  0  0  0
  -27.0482  -27.3404   17.8733 N   0  0  0  0  0  0  0  0  0  0  0  0
  -28.2830  -24.0195   20.2340 N   0  0  0  0  0  0  0  0  0  0  0  0
  -23.9577  -15.6859   21.7508 N   0  0  0  0  0  0  0  0  0  0  0  0
  -28.1795  -26.0586   14.4477 N   0  0  0  0  0  0  0  0  0  0  0  0
  -28.7669  -27.9050   19.4024 N   0  0  0  0  0  0  0  0  0  0  0  0
  -25.0547  -27.8688   21.9743 N   0  0  0  0  0  0  0  0  0  0  0  0
  -27.1858  -14.2464   20.8543 N   0  0  0  0  0  0  0  0  0  0  0  0
  -20.9069  -16.1744   22.0919 N   0  0  0  0  0  0  0  0  0  0  0  0
  -28.3121  -23.6589   14.5578 N   0  0  0  0  0  0  0  0  0  0  0  0
  -19.6558  -19.0237   23.9313 N   0  3  0  0  0  0  0  0  0  0  0  0
  -28.7059  -26.3343   20.2007 O   0  0  0  0  0  0  0  0  0  0  0  0
  -27.8512  -21.7163   20.4847 O   0  0  0  0  0  0  0  0  0  0  0  0
  -27.3199  -28.2254   21.9793 O   0  0  0  0  0  0  0  0  0  0  0  0
  -25.5817  -15.5494   19.7811 O   0  0  0  0  0  0  0  0  0  0  0  0
  -22.7318  -13.7271   21.4401 O   0  0  0  0  0  0  0  0  0  0  0  0
  -20.2824  -18.2611   21.2965 O   0  0  0  0  0  0  0  0  0  0  0  0
  -28.9037  -24.8181   12.6327 O   0  0  0  0  0  0  0  0  0  0  0  0
  -19.8729  -26.7476   20.2616 O   0  0  0  0  0  0  0  0  0  0  0  0
  -26.3829  -21.1967   23.0934 O   0  0  0  0  0  0  0  0  0  1  0  0
  -18.1153  -28.7512   25.0887 F   0  0  0  0  0  0  0  0  0  0  0  0
  -17.9273  -28.7093   20.3591 F   0  0  0  0  0  0  0  0  0  0  0  0
  1  2  1  0  0  0  0
  1  5  2  0  0  0  0
  2  6  2  0  0  0  0
  3 12  2  0  0  0  0
  3 19  1  0  0  0  0
  4 13  1  0  0  0  0
  4 19  2  0  0  0  0
  5 21  1  0  0  0  0
  6 23  1  0  0  0  0
  7 14  2  0  0  0  0
  7 22  1  0  0  0  0
  8 10  2  0  0  0  0
  8 25  1  0  0  0  0
  9 11  1  0  0  0  0
  9 25  2  0  0  0  0
 10 26  1  0  0  0  0
 11 26  2  0  0  0  0
 12 27  1  0  0  0  0
 13 27  2  0  0  0  0
 14 28  1  0  0  0  0
 15 16  2  0  0  0  0
 15 29  1  0  0  0  0
 16 30  1  0  0  0  0
 17 24  1  0  0  0  0
 17 28  2  0  0  0  0
 18 30  2  0  0  0  0
 18 31  1  0  0  0  0
 19 32  1  0  0  0  0
 20 32  1  0  0  0  0
 20 33  2  0  0  0  0
 20 38  1  0  0  0  0
 21 23  2  0  0  0  0
 21 43  1  0  0  0  0
 22 24  2  0  0  0  0
 22 44  1  0  0  0  0
 23 54  1  0  0  0  0
 24 45  1  0  0  0  0
 25 69  1  0  0  0  0
 26 76  1  0  0  0  0
 27 85  1  0  0  0  0
 28 86  1  0  0  0  0
 29 31  2  0  0  0  0
 29 85  1  0  0  0  0
 30 87  1  0  0  0  0
 31 88  1  0  0  0  0
 32 67  2  0  0  0  0
 33 68  1  0  0  0  0
 33 72  1  0  0  0  0
 34 46  1  0  0  0  0
 34 69  1  0  0  0  0
 34 78  2  0  0  0  0
 35 55  1  0  0  0  0
 35 69  1  0  0  0  0
 35 79  2  0  0  0  0
 36 37  2  0  0  0  0
 37 76  1  0  0  0  0
 38 73  1  0  0  0  0
 38 80  2  0  0  0  0
 39 56  1  0  0  0  0
 39 74  1  0  0  0  0
 39 81  2  0  0  0  0
 40 64  1  0  0  0  0
 40 70  1  0  0  0  0
 40 82  2  0  0  0  0
 41 65  1  0  0  0  0
 41 75  1  0  0  0  0
 41 83  2  0  0  0  0
 42 71  1  0  0  0  0
 42 76  1  0  0  0  0
 42 84  2  0  0  0  0
 43 47  1  0  0  0  0
 44 56  1  0  0  0  0
 45 70  1  0  0  0  0
 46 48  1  0  0  0  0
 47 50  1  0  0  0  0
 48 55  1  0  0  0  0
 49 51  1  0  0  0  0
 49 52  1  0  0  0  0
 50 54  1  0  0  0  0
 51 57  1  0  0  0  0
 52 71  1  0  0  0  0
 53 57  1  0  0  0  0
 53 71  1  0  0  0  0
 54 74  1  0  0  0  0
 55 63  1  0  0  0  0
 56 70  1  0  0  0  0
 57 68  1  0  0  0  0
 58 65  1  0  0  0  0
 59 66  1  0  0  0  0
 60 66  1  0  0  0  0
 61 66  1  0  0  0  0
 62 77  1  0  0  0  0
 63 86  1  0  0  0  0
 64 66  1  0  0  0  0
 64 75  1  0  0  0  0
 65 77  1  0  0  0  0
 67 68  1  0  0  0  0
M  CHG  1  77   1
M  ISO  4  42 100  63 101  76 100  86 101
M  END
> <Batch ID>
0101

> <Smiles>
C=C[100N:0](c1ccc(N2C(=O)CCC([101CH2:1][101O:1]c3ccc4c(c3)CN(C(=O)C(NC(=O)C(C)NC)C(C)(C)C)C(C(=O)NC3CCCc5ccccc53)C4)C2=O)cc1)[100C:0](=O)N1CCCC(n2nc(-c3ccc(Oc4ccc(F)cc4F)cc3)c(C(N)=O)c2N)C1

> <Shape>
0.188

> <Color>
0.069

> <Negative vol penalty>
0.000

$$$$

  -OEChem-04052301003D

 87 96  0     1  0  0  0  0  0999 V2000
  -19.1453  -26.5223   17.8806 C   0  0  0  0  0  0  0  0  0  0  0  0
  -20.5333  -26.6010   17.8276 C   0  0  0  0  0  0  0  0  0  0  0  0
  -24.1912  -13.9079   20.0574 C   0  0  0  0  0  0  0  0  0  0  0  0
  -26.2989  -13.9846   21.2359 C   0  0  0  0  0  0  0  0  0  0  0  0
  -28.9758  -24.2825   23.6219 C   0  0  0  0  0  0  0  0  0  0  0  0
  -18.4032  -27.6125   18.3329 C   0  0  0  0  0  0  0  0  0  0  0  0
  -21.1799  -27.7705   18.2258 C   0  0  0  0  0  0  0  0  0  0  0  0
  -25.2024  -26.8620   21.1650 C   0  0  0  0  0  0  0  0  0  0  0  0
  -28.2507  -23.3900   22.8325 C   0  0  0  0  0  0  0  0  0  0  0  0
  -24.2798  -12.5175   19.9894 C   0  0  0  0  0  0  0  0  0  0  0  0
  -26.3875  -12.5942   21.1680 C   0  0  0  0  0  0  0  0  0  0  0  0
  -26.3709  -26.4399   20.5324 C   0  0  0  0  0  0  0  0  0  0  0  0
  -23.7421   -9.8841   22.0410 C   0  0  0  0  0  0  0  0  0  0  0  0
  -22.5988   -9.1460   22.3466 C   0  0  0  0  0  0  0  0  0  0  0  0
  -27.2455  -28.6842   20.6639 C   0  0  0  0  0  0  0  0  0  0  0  0
  -29.4612  -24.1348   20.8787 C   0  0  0  0  0  0  0  0  0  0  0  0
  -22.6290   -8.1817   20.1316 C   0  0  0  0  0  0  0  0  0  0  0  0
  -25.2008  -14.6415   20.6806 C   0  0  0  0  0  0  0  0  0  0  0  0
  -29.9435  -25.1013   23.0398 C   0  0  0  0  0  0  0  0  0  0  0  0
  -24.5126  -16.8432   21.7698 C   0  0  0  0  0  0  0  0  0  0  0  0
  -19.0416  -28.7925   18.7460 C   0  0  0  0  0  0  0  0  0  0  0  0
  -25.0419  -28.2029   21.5427 C   0  0  0  0  0  0  0  0  0  0  0  0
  -20.4455  -28.8780   18.6828 C   0  0  0  0  0  0  0  0  0  0  0  0
  -26.0751  -29.1202   21.3035 C   0  0  0  0  0  0  0  0  0  0  0  0
  -30.1862  -25.0274   21.6682 C   0  0  0  0  0  0  0  0  0  0  0  0
  -28.4934  -23.3161   21.4609 C   0  0  0  0  0  0  0  0  0  0  0  0
  -25.3779  -11.8607   20.5448 C   0  0  0  0  0  0  0  0  0  0  0  0
  -27.3915  -27.3516   20.2792 C   0  0  0  0  0  0  0  0  0  0  0  0
  -24.3290   -9.7711   20.7806 C   0  0  0  0  0  0  0  0  0  0  0  0
  -22.0422   -8.2948   21.3920 C   0  0  0  0  0  0  0  0  0  0  0  0
  -23.7724   -8.9199   19.8259 C   0  0  0  0  0  0  0  0  0  0  0  0
  -25.1102  -16.0778   20.7506 C   0  0  0  0  0  0  0  0  0  0  0  0
  -24.6897  -18.1452   21.3701 C   0  0  0  0  0  0  0  0  0  0  0  0
  -32.5378  -25.8382   21.3921 C   0  0  0  0  0  0  0  0  0  0  0  0
  -30.6830  -26.0232   23.8930 C   0  0  0  0  0  0  0  0  0  0  0  0
  -23.8563  -16.4154   22.9706 C   0  0  0  0  0  0  0  0  0  0  0  0
  -23.0145  -30.5247   20.7665 C   0  0  0  0  0  0  0  0  0  0  0  0
  -24.5717  -32.1369   23.1113 C   0  0  0  0  0  0  0  0  0  0  0  0
  -27.4034  -32.5158   24.9781 C   0  0  0  0  0  0  0  0  0  0  0  0
  -27.8723  -22.2102   19.2843 C   0  0  0  0  0  0  0  0  0  0  0  0
  -18.1945  -29.9614   19.1827 C   0  0  0  0  0  0  0  0  0  0  0  0
  -23.7863  -28.6366   22.2482 C   0  0  0  0  0  0  0  0  0  0  0  0
  -25.9606  -30.5667   21.7073 C   0  0  0  0  0  0  0  0  0  0  0  0
  -33.2773  -26.6252   20.3412 C   0  0  0  0  0  0  0  0  0  0  0  0
  -18.9768  -31.0311   19.9404 C   0  0  0  0  0  0  0  0  0  0  0  0
  -32.2031  -27.4871   19.7130 C   0  0  0  0  0  0  0  0  0  0  0  0
  -26.2675  -20.0494   16.9535 C   0  0  0  0  0  0  0  0  0  0  0  0
  -20.2788  -31.3549   19.2145 C   0  0  0  0  0  0  0  0  0  0  0  0
  -25.7742  -18.8865   17.8174 C   0  0  0  0  0  0  0  0  0  0  0  0
  -27.6203  -20.5757   17.4296 C   0  0  0  0  0  0  0  0  0  0  0  0
  -27.1886  -19.7687   19.7169 C   0  0  0  0  0  0  0  0  0  0  0  0
  -21.1847  -30.1206   19.1296 C   0  0  1  0  0  0  0  0  0  0  0  0
  -23.5194  -30.1337   22.1266 C   0  0  1  0  0  0  0  0  0  0  0  0
  -25.7991  -19.2473   19.3156 C   0  0  2  0  0  0  0  0  0  0  0  0
  -30.9170  -26.6753   19.8709 C   0  0  2  0  0  0  0  0  0  0  0  0
  -28.3925  -33.9440   26.7891 C   0  0  0  0  0  0  0  0  0  0  0  0
  -25.0501  -34.3688   21.0866 C   0  0  0  0  0  0  0  0  0  0  0  0
  -26.8029  -35.2888   22.6194 C   0  0  0  0  0  0  0  0  0  0  0  0
  -24.4304  -35.1546   23.3785 C   0  0  0  0  0  0  0  0  0  0  0  0
  -27.6913  -30.2044   26.8039 C   0  0  0  0  0  0  0  0  0  0  0  0
  -29.7344  -27.6389   19.9891 C   0  0  0  0  0  0  0  0  0  1  0  0
  -25.7866  -33.0312   23.1685 C   0  0  1  0  0  0  0  0  0  0  0  0
  -27.6099  -32.6788   26.4732 C   0  0  2  0  0  0  0  0  0  0  0  0
  -25.5192  -34.4341   22.5538 C   0  0  0  0  0  0  0  0  0  0  0  0
  -25.6280  -16.8308   19.7765 N   0  0  0  0  0  0  0  0  0  0  0  0
  -25.3563  -18.0830   20.1818 N   0  0  0  0  0  0  0  0  0  0  0  0
  -31.1705  -25.8554   21.0510 N   0  0  0  0  0  0  0  0  0  0  0  0
  -24.7110  -30.9435   22.3886 N   0  0  0  0  0  0  0  0  0  0  0  0
  -27.5671  -20.9007   18.8567 N   0  0  0  0  0  0  0  0  0  0  0  0
  -24.3386  -19.3259   21.9226 N   0  0  0  0  0  0  0  0  0  0  0  0
  -30.1572  -27.2977   24.0723 N   0  0  0  0  0  0  0  0  0  0  0  0
  -23.7620  -15.0408   23.2272 N   0  0  0  0  0  0  0  0  0  0  0  0
  -27.7562  -22.4093   20.6596 N   0  0  0  0  0  0  0  0  0  0  0  0
  -21.8442  -29.8896   20.3969 N   0  0  0  0  0  0  0  0  0  0  0  0
  -26.2060  -33.0611   24.5655 N   0  0  0  0  0  0  0  0  0  0  0  0
  -28.3587  -31.5134   27.0228 N   0  3  0  0  0  0  0  0  0  0  0  0
  -33.1116  -25.2370   22.2897 O   0  0  0  0  0  0  0  0  0  0  0  0
  -31.7530  -25.6897   24.4278 O   0  0  0  0  0  0  0  0  0  0  0  0
  -23.3534  -17.2276   23.7836 O   0  0  0  0  0  0  0  0  0  0  0  0
  -23.6395  -31.3431   20.1022 O   0  0  0  0  0  0  0  0  0  0  0  0
  -23.5396  -32.4809   23.6925 O   0  0  0  0  0  0  0  0  0  0  0  0
  -28.2240  -31.9636   24.2487 O   0  0  0  0  0  0  0  0  0  0  0  0
  -28.1852  -23.0972   18.4860 O   0  0  0  0  0  0  0  0  0  0  0  0
  -25.4646  -10.5039   20.4789 O   0  0  0  0  0  0  0  0  0  0  0  0
  -28.5328  -26.9425   19.6613 O   0  0  0  0  0  0  0  0  0  1  0  0
  -20.9451   -7.5849   21.6862 F   0  0  0  0  0  0  0  0  0  0  0  0
  -24.3324   -8.8063   18.6137 F   0  0  0  0  0  0  0  0  0  0  0  0
  1  2  1  0  0  0  0
  1  6  2  0  0  0  0
  2  7  2  0  0  0  0
  3 10  2  0  0  0  0
  3 18  1  0  0  0  0
  4 11  1  0  0  0  0
  4 18  2  0  0  0  0
  5  9  2  0  0  0  0
  5 19  1  0  0  0  0
  6 21  1  0  0  0  0
  7 23  1  0  0  0  0
  8 12  2  0  0  0  0
  8 22  1  0  0  0  0
  9 26  1  0  0  0  0
 10 27  1  0  0  0  0
 11 27  2  0  0  0  0
 12 28  1  0  0  0  0
 13 14  2  0  0  0  0
 13 29  1  0  0  0  0
 14 30  1  0  0  0  0
 15 24  1  0  0  0  0
 15 28  2  0  0  0  0
 16 25  1  0  0  0  0
 16 26  2  0  0  0  0
 17 30  2  0  0  0  0
 17 31  1  0  0  0  0
 18 32  1  0  0  0  0
 19 25  2  0  0  0  0
 19 35  1  0  0  0  0
 20 32  1  0  0  0  0
 20 33  2  0  0  0  0
 20 36  1  0  0  0  0
 21 23  2  0  0  0  0
 21 41  1  0  0  0  0
 22 24  2  0  0  0  0
 22 42  1  0  0  0  0
 23 52  1  0  0  0  0
 24 43  1  0  0  0  0
 25 67  1  0  0  0  0
 26 73  1  0  0  0  0
 27 84  1  0  0  0  0
 28 85  1  0  0  0  0
 29 31  2  0  0  0  0
 29 84  1  0  0  0  0
 30 86  1  0  0  0  0
 31 87  1  0  0  0  0
 32 65  2  0  0  0  0
 33 66  1  0  0  0  0
 33 70  1  0  0  0  0
 34 44  1  0  0  0  0
 34 67  1  0  0  0  0
 34 77  2  0  0  0  0
 35 71  1  0  0  0  0
 35 78  2  0  0  0  0
 36 72  1  0  0  0  0
 36 79  2  0  0  0  0
 37 53  1  0  0  0  0
 37 74  1  0  0  0  0
 37 80  2  0  0  0  0
 38 62  1  0  0  0  0
 38 68  1  0  0  0  0
 38 81  2  0  0  0  0
 39 63  1  0  0  0  0
 39 75  1  0  0  0  0
 39 82  2  0  0  0  0
 40 69  1  0  0  0  0
 40 73  1  0  0  0  0
 40 83  2  0  0  0  0
 41 45  1  0  0  0  0
 42 53  1  0  0  0  0
 43 68  1  0  0  0  0
 44 46  1  0  0  0  0
 45 48  1  0  0  0  0
 46 55  1  0  0  0  0
 47 49  1  0  0  0  0
 47 50  1  0  0  0  0
 48 52  1  0  0  0  0
 49 54  1  0  0  0  0
 50 69  1  0  0  0  0
 51 54  1  0  0  0  0
 51 69  1  0  0  0  0
 52 74  1  0  0  0  0
 53 68  1  0  0  0  0
 54 66  1  0  0  0  0
 55 61  1  0  0  0  0
 55 67  1  0  0  0  0
 56 63  1  0  0  0  0
 57 64  1  0  0  0  0
 58 64  1  0  0  0  0
 59 64  1  0  0  0  0
 60 76  1  0  0  0  0
 61 85  1  0  0  0  0
 62 64  1  0  0  0  0
 62 75  1  0  0  0  0
 63 76  1  0  0  0  0
 65 66  1  0  0  0  0
M  CHG  1  76   1
M  ISO  4  40 100  61 101  73 100  85 101
M  END
> <Batch ID>
0101

> <Smiles>
CNC(C)C(=O)NC(C(=O)N1Cc2cc([101O:1][101CH2:1]C3CCC(=O)N3c3cc([100NH:0][100C:0](=O)N4CCCC(n5nc(-c6ccc(Oc7ccc(F)cc7F)cc6)c(C(N)=O)c5N)C4)ccc3C(N)=O)ccc2CC1C(=O)NC1CCCc2ccccc21)C(C)(C)C

> <Shape>
0.247

> <Color>
0.097

> <Negative vol penalty>
0.000

$$$$

  -OEChem-04052301003D

 87 96  0     1  0  0  0  0  0999 V2000
  -21.8782  -30.9766   14.1897 C   0  0  0  0  0  0  0  0  0  0  0  0
  -22.9934  -30.4121   14.8006 C   0  0  0  0  0  0  0  0  0  0  0  0
  -26.8842   -9.2082   19.7064 C   0  0  0  0  0  0  0  0  0  0  0  0
  -28.3128  -11.1534   19.5948 C   0  0  0  0  0  0  0  0  0  0  0  0
  -21.3488  -32.1715   14.6753 C   0  0  0  0  0  0  0  0  0  0  0  0
  -23.5805  -31.0429   15.8968 C   0  0  0  0  0  0  0  0  0  0  0  0
  -24.7014  -27.8084   19.6287 C   0  0  0  0  0  0  0  0  0  0  0  0
  -27.9246   -8.4162   19.2205 C   0  0  0  0  0  0  0  0  0  0  0  0
  -29.3532  -10.3614   19.1090 C   0  0  0  0  0  0  0  0  0  0  0  0
  -25.8468  -27.0288   19.4730 C   0  0  0  0  0  0  0  0  0  0  0  0
  -31.6338   -8.2048   20.3615 C   0  0  0  0  0  0  0  0  0  0  0  0
  -32.9006   -8.3908   20.9147 C   0  0  0  0  0  0  0  0  0  0  0  0
  -27.0607  -28.5352   20.9139 C   0  0  0  0  0  0  0  0  0  0  0  0
  -28.0863  -20.0905   20.3731 C   0  0  0  0  0  0  0  0  0  0  0  0
  -25.8746  -19.9257   18.6808 C   0  0  0  0  0  0  0  0  0  0  0  0
  -33.7660   -8.9766   18.7364 C   0  0  0  0  0  0  0  0  0  0  0  0
  -27.0783  -10.5768   19.8935 C   0  0  0  0  0  0  0  0  0  0  0  0
  -25.3356  -11.2603   21.6265 C   0  0  0  0  0  0  0  0  0  0  0  0
  -21.9239  -32.8122   15.7840 C   0  0  0  0  0  0  0  0  0  0  0  0
  -24.7301  -28.9652   20.4207 C   0  0  0  0  0  0  0  0  0  0  0  0
  -23.0591  -32.2482   16.3969 C   0  0  0  0  0  0  0  0  0  0  0  0
  -25.9137  -29.3263   21.0801 C   0  0  0  0  0  0  0  0  0  0  0  0
  -27.2418  -18.9821   20.4351 C   0  0  0  0  0  0  0  0  0  0  0  0
  -27.8250  -21.1165   19.4650 C   0  0  0  0  0  0  0  0  0  0  0  0
  -26.1360  -18.8997   19.5890 C   0  0  0  0  0  0  0  0  0  0  0  0
  -26.7191  -21.0341   18.6188 C   0  0  0  0  0  0  0  0  0  0  0  0
  -29.1591   -8.9928   18.9218 C   0  0  0  0  0  0  0  0  0  0  0  0
  -27.0274  -27.3937   20.1133 C   0  0  0  0  0  0  0  0  0  0  0  0
  -31.4330   -8.4046   18.9956 C   0  0  0  0  0  0  0  0  0  0  0  0
  -33.9667   -8.7767   20.1023 C   0  0  0  0  0  0  0  0  0  0  0  0
  -32.4991   -8.7905   18.1831 C   0  0  0  0  0  0  0  0  0  0  0  0
  -26.0039  -11.3955   20.3949 C   0  0  0  0  0  0  0  0  0  0  0  0
  -24.4068  -12.2722   21.6260 C   0  0  0  0  0  0  0  0  0  0  0  0
  -30.3159  -24.5356   19.3264 C   0  0  0  0  0  0  0  0  0  0  0  0
  -25.5365  -10.3056   22.6771 C   0  0  0  0  0  0  0  0  0  0  0  0
  -24.2709  -32.0641   19.8827 C   0  0  0  0  0  0  0  0  0  0  0  0
  -24.5470  -32.2669   23.1083 C   0  0  0  0  0  0  0  0  0  0  0  0
  -26.6340  -30.8162   25.6690 C   0  0  0  0  0  0  0  0  0  0  0  0
  -24.1322  -17.5599   18.8567 C   0  0  0  0  0  0  0  0  0  0  0  0
  -21.3450  -34.1269   16.2437 C   0  0  0  0  0  0  0  0  0  0  0  0
  -23.4790  -29.7807   20.6001 C   0  0  0  0  0  0  0  0  0  0  0  0
  -25.9915  -30.5478   21.9579 C   0  0  0  0  0  0  0  0  0  0  0  0
  -30.2395  -23.6208   18.1262 C   0  0  0  0  0  0  0  0  0  0  0  0
  -21.7997  -34.5369   17.6421 C   0  0  0  0  0  0  0  0  0  0  0  0
  -21.7539  -14.9188   18.6441 C   0  0  0  0  0  0  0  0  0  0  0  0
  -23.3076  -34.3581   17.7870 C   0  0  0  0  0  0  0  0  0  0  0  0
  -22.5111  -13.7046   19.1867 C   0  0  0  0  0  0  0  0  0  0  0  0
  -29.8440  -22.2039   18.5231 C   0  0  0  0  0  0  0  0  0  0  0  0
  -22.6638  -15.8376   17.8308 C   0  0  0  0  0  0  0  0  0  0  0  0
  -28.8232  -23.0247   20.6402 C   0  0  0  0  0  0  0  0  0  0  0  0
  -24.6477  -15.0483   19.0597 C   0  0  0  0  0  0  0  0  0  0  0  0
  -23.7092  -32.8895   17.6036 C   0  0  1  0  0  0  0  0  0  0  0  0
  -29.1573  -24.4801   20.3049 C   0  0  2  0  0  0  0  0  0  0  0  0
  -23.7593  -31.2213   21.0165 C   0  0  1  0  0  0  0  0  0  0  0  0
  -23.7876  -14.1270   19.9401 C   0  0  2  0  0  0  0  0  0  0  0  0
  -27.5461  -17.8976   21.4172 C   0  0  0  0  0  0  0  0  0  0  0  0
  -26.1806  -30.4008   28.1020 C   0  0  0  0  0  0  0  0  0  0  0  0
  -25.8797  -34.9802   23.5223 C   0  0  0  0  0  0  0  0  0  0  0  0
  -26.9550  -34.0591   25.5871 C   0  0  0  0  0  0  0  0  0  0  0  0
  -24.4694  -34.2077   25.4376 C   0  0  0  0  0  0  0  0  0  0  0  0
  -27.2899  -27.9410   25.4196 C   0  0  0  0  0  0  0  0  0  0  0  0
  -27.9596  -25.2378   19.7406 C   0  0  0  0  0  0  0  0  0  1  0  0
  -25.6911  -32.4649   24.0731 C   0  0  1  0  0  0  0  0  0  0  0  0
  -26.2171  -29.7918   26.7089 C   0  0  2  0  0  0  0  0  0  0  0  0
  -25.7526  -33.9153   24.6298 C   0  0  0  0  0  0  0  0  0  0  0  0
  -25.5390  -12.4129   19.6649 N   0  0  0  0  0  0  0  0  0  0  0  0
  -24.5687  -12.9262   20.4402 N   0  0  0  0  0  0  0  0  0  0  0  0
  -28.6841  -22.2187   19.4191 N   0  0  2  0  0  0  0  0  0  0  0  0
  -24.7433  -31.3161   22.0968 N   0  0  0  0  0  0  0  0  0  0  0  0
  -23.8500  -16.1997   18.6096 N   0  0  0  0  0  0  0  0  0  0  0  0
  -26.4366  -22.0618   17.6913 N   0  0  0  0  0  0  0  0  0  0  0  0
  -23.4755  -12.6573   22.5243 N   0  0  0  0  0  0  0  0  0  0  0  0
  -26.5332   -9.3337   22.5151 N   0  0  0  0  0  0  0  0  0  0  0  0
  -25.2675  -17.7811   19.6356 N   0  0  0  0  0  0  0  0  0  0  0  0
  -23.4140  -32.1316   18.8007 N   0  0  0  0  0  0  0  0  0  0  0  0
  -25.5434  -31.4372   25.0980 N   0  0  0  0  0  0  0  0  0  0  0  0
  -27.1721  -28.6478   26.7210 N   0  3  0  0  0  0  0  0  0  0  0  0
  -31.2246  -25.3563   19.4511 O   0  0  0  0  0  0  0  0  0  0  0  0
  -24.8413  -10.3039   23.7213 O   0  0  0  0  0  0  0  0  0  0  0  0
  -25.3616  -32.6138   19.9827 O   0  0  0  0  0  0  0  0  0  0  0  0
  -23.5143  -32.9262   23.2514 O   0  0  0  0  0  0  0  0  0  0  0  0
  -27.8097  -31.0453   25.3937 O   0  0  0  0  0  0  0  0  0  0  0  0
  -23.4039  -18.4611   18.4330 O   0  0  0  0  0  0  0  0  0  0  0  0
  -30.1745   -8.2203   18.4479 O   0  0  0  0  0  0  0  0  0  0  0  0
  -28.1469  -26.6349   19.9625 O   0  0  0  0  0  0  0  0  0  1  0  0
  -35.1828   -8.9568   20.6340 F   0  0  0  0  0  0  0  0  0  0  0  0
  -32.3121   -8.9851   16.8705 F   0  0  0  0  0  0  0  0  0  0  0  0
  1  2  1  0  0  0  0
  1  5  2  0  0  0  0
  2  6  2  0  0  0  0
  3  8  2  0  0  0  0
  3 17  1  0  0  0  0
  4  9  1  0  0  0  0
  4 17  2  0  0  0  0
  5 19  1  0  0  0  0
  6 21  1  0  0  0  0
  7 10  2  0  0  0  0
  7 20  1  0  0  0  0
  8 27  1  0  0  0  0
  9 27  2  0  0  0  0
 10 28  1  0  0  0  0
 11 12  2  0  0  0  0
 11 29  1  0  0  0  0
 12 30  1  0  0  0  0
 13 22  1  0  0  0  0
 13 28  2  0  0  0  0
 14 23  2  0  0  0  0
 14 24  1  0  0  0  0
 15 25  2  0  0  0  0
 15 26  1  0  0  0  0
 16 30  2  0  0  0  0
 16 31  1  0  0  0  0
 17 32  1  0  0  0  0
 18 32  1  0  0  0  0
 18 33  2  0  0  0  0
 18 35  1  0  0  0  0
 19 21  2  0  0  0  0
 19 40  1  0  0  0  0
 20 22  2  0  0  0  0
 20 41  1  0  0  0  0
 21 52  1  0  0  0  0
 22 42  1  0  0  0  0
 23 25  1  0  0  0  0
 23 56  1  0  0  0  0
 24 26  2  0  0  0  0
 24 68  1  0  0  0  0
 25 74  1  0  0  0  0
 26 71  1  0  0  0  0
 27 84  1  0  0  0  0
 28 85  1  0  0  0  0
 29 31  2  0  0  0  0
 29 84  1  0  0  0  0
 30 86  1  0  0  0  0
 31 87  1  0  0  0  0
 32 66  2  0  0  0  0
 33 67  1  0  0  0  0
 33 72  1  0  0  0  0
 34 43  1  0  0  0  0
 34 53  1  0  0  0  0
 34 78  2  0  0  0  0
 35 73  1  0  0  0  0
 35 79  2  0  0  0  0
 36 54  1  0  0  0  0
 36 75  1  0  0  0  0
 36 80  2  0  0  0  0
 37 63  1  0  0  0  0
 37 69  1  0  0  0  0
 37 81  2  0  0  0  0
 38 64  1  0  0  0  0
 38 76  1  0  0  0  0
 38 82  2  0  0  0  0
 39 70  1  0  0  0  0
 39 74  1  0  0  0  0
 39 83  2  0  0  0  0
 40 44  1  0  0  0  0
 41 54  1  0  0  0  0
 42 69  1  0  0  0  0
 43 48  1  0  0  0  0
 44 46  1  0  0  0  0
 45 47  1  0  0  0  0
 45 49  1  0  0  0  0
 46 52  1  0  0  0  0
 47 55  1  0  0  0  0
 48 68  1  0  0  0  0
 49 70  1  0  0  0  0
 50 53  1  0  0  0  0
 50 68  1  0  0  0  0
 51 55  1  0  0  0  0
 51 70  1  0  0  0  0
 52 75  1  0  0  0  0
 53 62  1  0  0  0  0
 54 69  1  0  0  0  0
 55 67  1  0  0  0  0
 57 64  1  0  0  0  0
 58 65  1  0  0  0  0
 59 65  1  0  0  0  0
 60 65  1  0  0  0  0
 61 77  1  0  0  0  0
 62 85  1  0  0  0  0
 63 65  1  0  0  0  0
 63 76  1  0  0  0  0
 64 77  1  0  0  0  0
 66 67  1  0  0  0  0
M  CHG  1  77   1
M  ISO  4  39 100  62 101  74 100  85 101
M  END
> <Batch ID>
0101

> <Smiles>
CNC(C)C(=O)NC(C(=O)N1Cc2cc([101O:1][101CH2:1]C3CN(c4cc(C)c([100NH:0][100C:0](=O)N5CCCC(n6nc(-c7ccc(Oc8ccc(F)cc8F)cc7)c(C(N)=O)c6N)C5)cc4N)CCC3=O)ccc2CC1C(=O)NC1CCCc2ccccc21)C(C)(C)C

> <Shape>
0.236

> <Color>
0.096

> <Negative vol penalty>
0.000

$$$$

  -OEChem-04052301003D

 81 89  0     1  0  0  0  0  0999 V2000
  -20.2839  -34.7522   21.8265 C   0  0  0  0  0  0  0  0  0  0  0  0
  -21.5197  -34.2352   21.4512 C   0  0  0  0  0  0  0  0  0  0  0  0
  -26.0219  -22.7170   17.5877 C   0  0  0  0  0  0  0  0  0  0  0  0
  -26.4309  -12.2361   20.7809 C   0  0  0  0  0  0  0  0  0  0  0  0
  -24.7691  -13.6634   19.7618 C   0  0  0  0  0  0  0  0  0  0  0  0
  -19.4932  -34.0662   22.7474 C   0  0  0  0  0  0  0  0  0  0  0  0
  -21.9660  -33.0322   21.9973 C   0  0  0  0  0  0  0  0  0  0  0  0
  -25.3247  -28.7415   19.2020 C   0  0  0  0  0  0  0  0  0  0  0  0
  -26.2981  -21.6776   18.4758 C   0  0  0  0  0  0  0  0  0  0  0  0
  -26.9659  -23.7216   17.3744 C   0  0  0  0  0  0  0  0  0  0  0  0
  -25.4186  -11.4380   21.3138 C   0  0  0  0  0  0  0  0  0  0  0  0
  -23.7569  -12.8653   20.2947 C   0  0  0  0  0  0  0  0  0  0  0  0
  -26.6900  -28.4597   19.2199 C   0  0  0  0  0  0  0  0  0  0  0  0
  -23.2780   -8.8176   22.6428 C   0  0  0  0  0  0  0  0  0  0  0  0
  -23.4223   -7.4339   22.5422 C   0  0  0  0  0  0  0  0  0  0  0  0
  -26.3184  -26.7974   20.9281 C   0  0  0  0  0  0  0  0  0  0  0  0
  -28.4623  -22.6471   18.9375 C   0  0  0  0  0  0  0  0  0  0  0  0
  -23.4834   -7.6153   20.1338 C   0  0  0  0  0  0  0  0  0  0  0  0
  -26.1061  -13.3488   20.0049 C   0  0  0  0  0  0  0  0  0  0  0  0
  -27.7860  -14.0226   18.2072 C   0  0  0  0  0  0  0  0  0  0  0  0
  -19.9257  -32.8494   23.2978 C   0  0  0  0  0  0  0  0  0  0  0  0
  -24.4460  -28.0598   20.0562 C   0  0  0  0  0  0  0  0  0  0  0  0
  -21.1808  -32.3300   22.9274 C   0  0  0  0  0  0  0  0  0  0  0  0
  -24.9420  -27.0706   20.9172 C   0  0  0  0  0  0  0  0  0  0  0  0
  -27.5183  -21.6426   19.1507 C   0  0  0  0  0  0  0  0  0  0  0  0
  -24.0816  -11.7526   21.0707 C   0  0  0  0  0  0  0  0  0  0  0  0
  -27.1874  -27.4896   20.0851 C   0  0  0  0  0  0  0  0  0  0  0  0
  -28.1861  -23.6866   18.0493 C   0  0  0  0  0  0  0  0  0  0  0  0
  -23.2362   -9.6002   21.4888 C   0  0  0  0  0  0  0  0  0  0  0  0
  -23.5251   -6.8328   21.2877 C   0  0  0  0  0  0  0  0  0  0  0  0
  -23.3389   -8.9990   20.2344 C   0  0  0  0  0  0  0  0  0  0  0  0
  -27.1513  -14.1740   19.4546 C   0  0  0  0  0  0  0  0  0  0  0  0
  -28.6968  -15.0495   18.1585 C   0  0  0  0  0  0  0  0  0  0  0  0
  -27.5714  -13.0414   17.1840 C   0  0  0  0  0  0  0  0  0  0  0  0
  -22.4982  -28.9156   22.4178 C   0  0  0  0  0  0  0  0  0  0  0  0
  -21.6049  -25.7999   22.2876 C   0  0  0  0  0  0  0  0  0  0  0  0
  -22.3957  -22.5927   21.4301 C   0  0  0  0  0  0  0  0  0  0  0  0
  -28.9596  -20.4016   20.8026 C   0  0  0  0  0  0  0  0  0  0  0  0
  -19.0570  -32.1679   24.3253 C   0  0  0  0  0  0  0  0  0  0  0  0
  -22.9723  -28.3566   20.0056 C   0  0  0  0  0  0  0  0  0  0  0  0
  -24.0377  -26.2961   21.8397 C   0  0  0  0  0  0  0  0  0  0  0  0
  -19.4370  -30.7106   24.5741 C   0  0  0  0  0  0  0  0  0  0  0  0
  -31.3884  -17.8059   21.0031 C   0  0  0  0  0  0  0  0  0  0  0  0
  -20.9465  -30.5745   24.7465 C   0  0  0  0  0  0  0  0  0  0  0  0
  -30.6370  -16.5674   20.5095 C   0  0  0  0  0  0  0  0  0  0  0  0
  -30.4866  -18.7272   21.8225 C   0  0  0  0  0  0  0  0  0  0  0  0
  -28.4820  -17.8777   20.6696 C   0  0  0  0  0  0  0  0  0  0  0  0
  -21.6886  -31.0154   23.4790 C   0  0  1  0  0  0  0  0  0  0  0  0
  -22.2394  -27.9635   21.2846 C   0  0  1  0  0  0  0  0  0  0  0  0
  -29.3322  -16.9515   19.7847 C   0  0  2  0  0  0  0  0  0  0  0  0
  -21.4790  -20.2572   21.4801 C   0  0  0  0  0  0  0  0  0  0  0  0
  -22.1896  -25.6371   25.2778 C   0  0  0  0  0  0  0  0  0  0  0  0
  -22.1828  -23.1419   25.0724 C   0  0  0  0  0  0  0  0  0  0  0  0
  -20.1168  -24.4399   24.5534 C   0  0  0  0  0  0  0  0  0  0  0  0
  -22.5022  -22.3636   18.4813 C   0  0  0  0  0  0  0  0  0  0  0  0
  -30.4184  -26.4363   18.8350 C   0  0  0  0  0  0  0  0  0  0  0  0
  -29.2392  -27.3951   18.8863 C   0  0  0  0  0  0  0  0  0  1  0  0
  -29.9755  -24.9845   18.9264 C   0  0  0  0  0  0  0  0  0  0  0  0
  -22.0700  -24.5258   22.9504 C   0  0  1  0  0  0  0  0  0  0  0  0
  -21.6209  -21.5341   20.6663 C   0  0  2  0  0  0  0  0  0  0  0  0
  -21.6573  -24.4520   24.4476 C   0  0  0  0  0  0  0  0  0  0  0  0
  -27.6194  -15.2150   20.1483 N   0  0  0  0  0  0  0  0  0  0  0  0
  -28.5579  -15.7270   19.3340 N   0  0  0  0  0  0  0  0  0  0  0  0
  -22.6055  -26.6270   21.7578 N   0  0  0  0  0  0  0  0  0  0  0  0
  -29.2723  -19.0521   21.0709 N   0  0  0  0  0  0  0  0  0  0  0  0
  -29.5949  -15.4300   17.2252 N   0  0  0  0  0  0  0  0  0  0  0  0
  -26.5968  -12.0569   17.3962 N   0  0  0  0  0  0  0  0  0  0  0  0
  -27.7986  -20.5863   20.0526 N   0  0  0  0  0  0  0  0  0  0  0  0
  -21.6207  -29.9819   22.4683 N   0  0  0  0  0  0  0  0  0  0  0  0
  -21.5571  -23.4305   22.1345 N   0  0  0  0  0  0  0  0  0  0  0  0
  -22.3159  -21.2033   19.3902 N   0  3  0  0  0  0  0  0  0  0  0  0
  -28.2361  -13.0281   16.1202 O   0  0  0  0  0  0  0  0  0  0  0  0
  -23.4244  -28.6981   23.1901 O   0  0  0  0  0  0  0  0  0  0  0  0
  -20.3978  -26.0486   22.2352 O   0  0  0  0  0  0  0  0  0  0  0  0
  -23.6223  -22.6666   21.4073 O   0  0  0  0  0  0  0  0  0  0  0  0
  -29.6841  -21.3240   21.1851 O   0  0  0  0  0  0  0  0  0  0  0  0
  -23.0936  -10.9739   21.5903 O   0  0  0  0  0  0  0  0  0  0  0  0
  -28.5197  -27.2131   20.1052 O   0  0  0  0  0  0  0  0  0  1  0  0
  -29.1137  -24.6737   17.8399 O   0  0  0  0  0  0  0  0  0  0  0  0
  -23.6653   -5.5042   21.1914 F   0  0  0  0  0  0  0  0  0  0  0  0
  -23.3007   -9.7458   19.1223 F   0  0  0  0  0  0  0  0  0  0  0  0
  1  2  1  0  0  0  0
  1  6  2  0  0  0  0
  2  7  2  0  0  0  0
  3  9  1  0  0  0  0
  3 10  2  0  0  0  0
  4 11  2  0  0  0  0
  4 19  1  0  0  0  0
  5 12  1  0  0  0  0
  5 19  2  0  0  0  0
  6 21  1  0  0  0  0
  7 23  1  0  0  0  0
  8 13  2  0  0  0  0
  8 22  1  0  0  0  0
  9 25  2  0  0  0  0
 10 28  1  0  0  0  0
 11 26  1  0  0  0  0
 12 26  2  0  0  0  0
 13 27  1  0  0  0  0
 14 15  2  0  0  0  0
 14 29  1  0  0  0  0
 15 30  1  0  0  0  0
 16 24  1  0  0  0  0
 16 27  2  0  0  0  0
 17 25  1  0  0  0  0
 17 28  2  0  0  0  0
 18 30  2  0  0  0  0
 18 31  1  0  0  0  0
 19 32  1  0  0  0  0
 20 32  1  0  0  0  0
 20 33  2  0  0  0  0
 20 34  1  0  0  0  0
 21 23  2  0  0  0  0
 21 39  1  0  0  0  0
 22 24  2  0  0  0  0
 22 40  1  0  0  0  0
 23 48  1  0  0  0  0
 24 41  1  0  0  0  0
 25 68  1  0  0  0  0
 26 77  1  0  0  0  0
 27 78  1  0  0  0  0
 28 79  1  0  0  0  0
 29 31  2  0  0  0  0
 29 77  1  0  0  0  0
 30 80  1  0  0  0  0
 31 81  1  0  0  0  0
 32 62  2  0  0  0  0
 33 63  1  0  0  0  0
 33 66  1  0  0  0  0
 34 67  1  0  0  0  0
 34 72  2  0  0  0  0
 35 49  1  0  0  0  0
 35 69  1  0  0  0  0
 35 73  2  0  0  0  0
 36 59  1  0  0  0  0
 36 64  1  0  0  0  0
 36 74  2  0  0  0  0
 37 60  1  0  0  0  0
 37 70  1  0  0  0  0
 37 75  2  0  0  0  0
 38 65  1  0  0  0  0
 38 68  1  0  0  0  0
 38 76  2  0  0  0  0
 39 42  1  0  0  0  0
 40 49  1  0  0  0  0
 41 64  1  0  0  0  0
 42 44  1  0  0  0  0
 43 45  1  0  0  0  0
 43 46  1  0  0  0  0
 44 48  1  0  0  0  0
 45 50  1  0  0  0  0
 46 65  1  0  0  0  0
 47 50  1  0  0  0  0
 47 65  1  0  0  0  0
 48 69  1  0  0  0  0
 49 64  1  0  0  0  0
 50 63  1  0  0  0  0
 51 60  1  0  0  0  0
 52 61  1  0  0  0  0
 53 61  1  0  0  0  0
 54 61  1  0  0  0  0
 55 71  1  0  0  0  0
 56 57  1  0  0  0  0
 56 58  1  0  0  0  0
 57 78  1  0  0  0  0
 58 79  1  0  0  0  0
 59 61  1  0  0  0  0
 59 70  1  0  0  0  0
 60 71  1  0  0  0  0
 62 63  1  0  0  0  0
M  CHG  1  71   1
M  ISO  4  38 100  57 101  68 100  78 101
M  END
> <Batch ID>
0101

> <Smiles>
CNC(C)C(=O)NC(C(=O)N1Cc2cc([101O:1][101CH2:1]CCOc3cccc([100NH:0][100C:0](=O)N4CCCC(n5nc(-c6ccc(Oc7ccc(F)cc7F)cc6)c(C(N)=O)c5N)C4)c3)ccc2CC1C(=O)NC1CCCc2ccccc21)C(C)(C)C

> <Shape>
0.241

> <Color>
0.090

> <Negative vol penalty>
0.000

$$$$

  -OEChem-04052301003D

 88 97  0     1  0  0  0  0  0999 V2000
  -23.7432  -29.4109   14.6973 C   0  0  0  0  0  0  0  0  0  0  0  0
  -23.6349  -28.0846   15.1030 C   0  0  0  0  0  0  0  0  0  0  0  0
  -30.9025  -20.6733   20.2050 C   0  0  0  0  0  0  0  0  0  0  0  0
  -28.6264  -19.9119   19.9280 C   0  0  0  0  0  0  0  0  0  0  0  0
  -24.3907  -30.3376   15.5134 C   0  0  0  0  0  0  0  0  0  0  0  0
  -24.1751  -27.6840   16.3245 C   0  0  0  0  0  0  0  0  0  0  0  0
  -21.9346  -23.4357   20.1244 C   0  0  0  0  0  0  0  0  0  0  0  0
  -30.5848  -21.8620   19.5480 C   0  0  0  0  0  0  0  0  0  0  0  0
  -28.3087  -21.1007   19.2711 C   0  0  0  0  0  0  0  0  0  0  0  0
  -22.2566  -22.0944   20.3263 C   0  0  0  0  0  0  0  0  0  0  0  0
  -29.0435  -24.7800   20.2847 C   0  0  0  0  0  0  0  0  0  0  0  0
  -29.5019  -25.9725   20.8445 C   0  0  0  0  0  0  0  0  0  0  0  0
  -24.5637  -13.4238   21.4135 C   0  0  0  0  0  0  0  0  0  0  0  0
  -22.3075  -12.7997   22.0107 C   0  0  0  0  0  0  0  0  0  0  0  0
  -23.6890  -22.7210   22.1634 C   0  0  0  0  0  0  0  0  0  0  0  0
  -30.7412  -26.4443   18.8249 C   0  0  0  0  0  0  0  0  0  0  0  0
  -29.9233  -19.6982   20.3949 C   0  0  0  0  0  0  0  0  0  0  0  0
  -23.3128  -13.7632   21.9289 C   0  0  0  0  0  0  0  0  0  0  0  0
  -30.7341  -18.3271   22.3875 C   0  0  0  0  0  0  0  0  0  0  0  0
  -24.9305  -29.9502   16.7500 C   0  0  0  0  0  0  0  0  0  0  0  0
  -22.4968  -24.4325   20.9348 C   0  0  0  0  0  0  0  0  0  0  0  0
  -24.8315  -28.6061   17.1573 C   0  0  0  0  0  0  0  0  0  0  0  0
  -23.3705  -24.0740   21.9713 C   0  0  0  0  0  0  0  0  0  0  0  0
  -23.8039  -11.1576   21.0614 C   0  0  0  0  0  0  0  0  0  0  0  0
  -29.2879  -22.0757   19.0811 C   0  0  0  0  0  0  0  0  0  0  0  0
  -23.1362  -21.7370   21.3440 C   0  0  0  0  0  0  0  0  0  0  0  0
  -29.4341  -24.4196   18.9950 C   0  0  0  0  0  0  0  0  0  0  0  0
  -24.8092  -12.1210   20.9796 C   0  0  0  0  0  0  0  0  0  0  0  0
  -30.3507  -26.8046   20.1147 C   0  0  0  0  0  0  0  0  0  0  0  0
  -22.5530  -11.4969   21.5770 C   0  0  0  0  0  0  0  0  0  0  0  0
  -30.2829  -25.2517   18.2651 C   0  0  0  0  0  0  0  0  0  0  0  0
  -30.2510  -18.4698   21.0729 C   0  0  0  0  0  0  0  0  0  0  0  0
  -30.8855  -16.9720   22.5524 C   0  0  0  0  0  0  0  0  0  0  0  0
  -23.1590  -18.2894   20.5458 C   0  0  0  0  0  0  0  0  0  0  0  0
  -23.4440  -19.5930   20.4614 C   0  0  0  0  0  0  0  0  0  1  0  0
  -23.0529  -15.1375   22.3850 C   0  0  0  0  0  0  0  0  0  0  0  0
  -31.0203  -19.3298   23.3715 C   0  0  0  0  0  0  0  0  0  0  0  0
  -24.3835  -26.9392   20.4243 C   0  0  0  0  0  0  0  0  0  0  0  0
  -28.2695  -12.2840   19.8522 C   0  0  0  0  0  0  0  0  0  0  0  0
  -23.7969  -27.5269   23.5601 C   0  0  0  0  0  0  0  0  0  0  0  0
  -22.9026  -26.3057   26.6188 C   0  0  0  0  0  0  0  0  0  0  0  0
  -25.6629  -30.9777   17.5763 C   0  0  0  0  0  0  0  0  0  0  0  0
  -22.1185  -25.8725   20.7212 C   0  0  0  0  0  0  0  0  0  0  0  0
  -23.9854  -25.1041   22.8820 C   0  0  0  0  0  0  0  0  0  0  0  0
  -23.1368  -17.3348   19.3905 C   0  0  0  0  0  0  0  0  0  0  0  0
  -22.9306  -17.5446   21.8226 C   0  0  0  0  0  0  0  0  0  0  0  0
  -25.8792  -30.5516   19.0261 C   0  0  0  0  0  0  0  0  0  0  0  0
  -31.7777  -12.9701   20.1014 C   0  0  0  0  0  0  0  0  0  0  0  0
  -26.3967  -29.1181   19.0896 C   0  0  0  0  0  0  0  0  0  0  0  0
  -31.8283  -14.4522   20.4703 C   0  0  0  0  0  0  0  0  0  0  0  0
  -23.5465  -16.0259   20.0456 C   0  0  0  0  0  0  0  0  0  0  0  0
  -30.6132  -12.6676   19.1635 C   0  0  0  0  0  0  0  0  0  0  0  0
  -29.3313  -14.5867   20.0553 C   0  0  0  0  0  0  0  0  0  0  0  0
  -25.3828  -28.1383   18.4867 C   0  0  1  0  0  0  0  0  0  0  0  0
  -23.1496  -26.8499   21.2771 C   0  0  1  0  0  0  0  0  0  0  0  0
  -30.4750  -14.9300   21.0261 C   0  0  2  0  0  0  0  0  0  0  0  0
  -22.5467  -27.0201   28.9979 C   0  0  0  0  0  0  0  0  0  0  0  0
  -26.8176  -27.6450   23.9740 C   0  0  0  0  0  0  0  0  0  0  0  0
  -26.4198  -27.4054   26.4342 C   0  0  0  0  0  0  0  0  0  0  0  0
  -25.5256  -29.3897   25.2154 C   0  0  0  0  0  0  0  0  0  0  0  0
  -20.0566  -25.4963   26.5579 C   0  0  0  0  0  0  0  0  0  0  0  0
  -27.0028  -12.8598   20.4334 C   0  0  0  0  0  0  0  0  0  0  0  0
  -24.4489  -27.1296   24.8624 C   0  0  1  0  0  0  0  0  0  0  0  0
  -21.8942  -26.7942   27.6429 C   0  0  2  0  0  0  0  0  0  0  0  0
  -25.7931  -27.8729   25.1033 C   0  0  0  0  0  0  0  0  0  0  0  0
  -30.1054  -17.2988   20.4472 N   0  0  0  0  0  0  0  0  0  0  0  0
  -30.4993  -16.4074   21.3725 N   0  0  0  0  0  0  0  0  0  0  0  0
  -23.1813  -16.1596   21.4544 N   0  0  0  0  0  0  0  0  0  0  0  0
  -23.5894  -26.4993   22.6291 N   0  0  0  0  0  0  0  0  0  0  0  0
  -29.3492  -13.1568   19.7170 N   0  0  0  0  0  0  0  0  0  0  0  0
  -24.0418   -9.8356   20.6262 N   0  0  0  0  0  0  0  0  0  0  0  0
  -31.3101  -16.2202   23.5902 N   0  0  0  0  0  0  0  0  0  0  0  0
  -29.9969  -19.7184   24.2466 N   0  0  0  0  0  0  0  0  0  0  0  0
  -24.3066  -27.8861   19.4209 N   0  0  0  0  0  0  0  0  0  0  0  0
  -23.4498  -27.3492   25.9027 N   0  0  0  0  0  0  0  0  0  0  0  0
  -20.7996  -25.7966   27.8088 N   0  3  0  0  0  0  0  0  0  0  0  0
  -22.7291  -15.2892   23.5614 O   0  0  0  0  0  0  0  0  0  0  0  0
  -32.1455  -19.8771   23.4611 O   0  0  0  0  0  0  0  0  0  0  0  0
  -25.3354  -26.2044   20.6603 O   0  0  0  0  0  0  0  0  0  0  0  0
  -28.2975  -11.0930   19.5314 O   0  0  0  0  0  0  0  0  0  0  0  0
  -23.4770  -28.7043   23.3785 O   0  0  0  0  0  0  0  0  0  0  0  0
  -23.1801  -25.1174   26.4715 O   0  0  0  0  0  0  0  0  0  0  0  0
  -28.9775  -23.2357   18.4403 O   0  0  0  0  0  0  0  0  0  0  0  0
  -23.4526  -20.4285   21.5429 O   0  0  0  0  0  0  0  0  0  1  0  0
  -26.0382  -11.8105   20.4787 O   0  0  0  0  0  0  0  0  0  0  0  0
  -30.7896  -27.9505   20.6518 F   0  0  0  0  0  0  0  0  0  0  0  0
  -21.5790  -10.5794   21.6601 F   0  0  0  0  0  0  0  0  0  0  0  0
  -30.6605  -24.9113   17.0252 F   0  0  0  0  0  0  0  0  0  0  0  0
  1  2  1  0  0  0  0
  1  5  2  0  0  0  0
  2  6  2  0  0  0  0
  3  8  2  0  0  0  0
  3 17  1  0  0  0  0
  4  9  1  0  0  0  0
  4 17  2  0  0  0  0
  5 20  1  0  0  0  0
  6 22  1  0  0  0  0
  7 10  2  0  0  0  0
  7 21  1  0  0  0  0
  8 25  1  0  0  0  0
  9 25  2  0  0  0  0
 10 26  1  0  0  0  0
 11 12  2  0  0  0  0
 11 27  1  0  0  0  0
 12 29  1  0  0  0  0
 13 18  2  0  0  0  0
 13 28  1  0  0  0  0
 14 18  1  0  0  0  0
 14 30  2  0  0  0  0
 15 23  1  0  0  0  0
 15 26  2  0  0  0  0
 16 29  2  0  0  0  0
 16 31  1  0  0  0  0
 17 32  1  0  0  0  0
 18 36  1  0  0  0  0
 19 32  1  0  0  0  0
 19 33  2  0  0  0  0
 19 37  1  0  0  0  0
 20 22  2  0  0  0  0
 20 42  1  0  0  0  0
 21 23  2  0  0  0  0
 21 43  1  0  0  0  0
 22 54  1  0  0  0  0
 23 44  1  0  0  0  0
 24 28  2  0  0  0  0
 24 30  1  0  0  0  0
 24 71  1  0  0  0  0
 25 83  1  0  0  0  0
 26 84  1  0  0  0  0
 27 31  2  0  0  0  0
 27 83  1  0  0  0  0
 28 85  1  0  0  0  0
 29 86  1  0  0  0  0
 30 87  1  0  0  0  0
 31 88  1  0  0  0  0
 32 66  2  0  0  0  0
 33 67  1  0  0  0  0
 33 72  1  0  0  0  0
 34 35  2  0  0  0  0
 34 45  1  0  0  0  0
 34 46  1  0  0  0  0
 35 84  1  0  0  0  0
 36 68  1  0  0  0  0
 36 77  2  0  0  0  0
 37 73  1  0  0  0  0
 37 78  2  0  0  0  0
 38 55  1  0  0  0  0
 38 74  1  0  0  0  0
 38 79  2  0  0  0  0
 39 62  1  0  0  0  0
 39 70  1  0  0  0  0
 39 80  2  0  0  0  0
 40 63  1  0  0  0  0
 40 69  1  0  0  0  0
 40 81  2  0  0  0  0
 41 64  1  0  0  0  0
 41 75  1  0  0  0  0
 41 82  2  0  0  0  0
 42 47  1  0  0  0  0
 43 55  1  0  0  0  0
 44 69  1  0  0  0  0
 45 51  1  0  0  0  0
 46 68  1  0  0  0  0
 47 49  1  0  0  0  0
 48 50  1  0  0  0  0
 48 52  1  0  0  0  0
 49 54  1  0  0  0  0
 50 56  1  0  0  0  0
 51 68  1  0  0  0  0
 52 70  1  0  0  0  0
 53 56  1  0  0  0  0
 53 70  1  0  0  0  0
 54 74  1  0  0  0  0
 55 69  1  0  0  0  0
 56 67  1  0  0  0  0
 57 64  1  0  0  0  0
 58 65  1  0  0  0  0
 59 65  1  0  0  0  0
 60 65  1  0  0  0  0
 61 76  1  0  0  0  0
 62 85  1  0  0  0  0
 63 65  1  0  0  0  0
 63 75  1  0  0  0  0
 64 76  1  0  0  0  0
 66 67  1  0  0  0  0
M  CHG  1  76   1
M  ISO  4  35 101  39 100  62 100  84 101
M  END
> <Batch ID>
0101

> <Smiles>
CNC(C)C(=O)NC(C(=O)N1Cc2cc([101O:1][101CH:1]=C3CCN(C(=O)c4cc(F)c(N)c(O[100CH2:0][100C:0](=O)N5CCCC(n6nc(-c7ccc(Oc8ccc(F)cc8F)cc7)c(C(N)=O)c6N)C5)c4)C3)ccc2CC1C(=O)NC1CCCc2ccccc21)C(C)(C)C

> <Shape>
0.227

> <Color>
0.063

> <Negative vol penalty>
0.000

$$$$

  -OEChem-04052301003D

 85 93  0     1  0  0  0  0  0999 V2000
  -31.2374  -25.6731   17.9084 C   0  0  0  0  0  0  0  0  0  0  0  0
  -29.8543  -25.5316   17.9598 C   0  0  0  0  0  0  0  0  0  0  0  0
  -27.1518  -19.6201   19.8542 C   0  0  0  0  0  0  0  0  0  0  0  0
  -28.8075  -20.8245   18.5717 C   0  0  0  0  0  0  0  0  0  0  0  0
  -31.9142  -26.2835   18.9635 C   0  0  0  0  0  0  0  0  0  0  0  0
  -29.1474  -25.9995   19.0670 C   0  0  0  0  0  0  0  0  0  0  0  0
  -23.5336  -28.4471   19.0849 C   0  0  0  0  0  0  0  0  0  0  0  0
  -28.0825  -18.6132   20.1102 C   0  0  0  0  0  0  0  0  0  0  0  0
  -29.7383  -19.8177   18.8277 C   0  0  0  0  0  0  0  0  0  0  0  0
  -22.2786  -27.9134   19.3744 C   0  0  0  0  0  0  0  0  0  0  0  0
  -32.4446  -17.3916   18.8419 C   0  0  0  0  0  0  0  0  0  0  0  0
  -33.2223  -16.9412   17.7752 C   0  0  0  0  0  0  0  0  0  0  0  0
  -22.4515  -28.7467   21.6316 C   0  0  0  0  0  0  0  0  0  0  0  0
  -19.2074  -24.0873   17.8841 C   0  0  0  0  0  0  0  0  0  0  0  0
  -20.3822  -22.7045   19.4792 C   0  0  0  0  0  0  0  0  0  0  0  0
  -31.2212  -16.2704   16.5994 C   0  0  0  0  0  0  0  0  0  0  0  0
  -27.5143  -20.7257   19.0849 C   0  0  0  0  0  0  0  0  0  0  0  0
  -26.3129  -22.9184   19.5914 C   0  0  0  0  0  0  0  0  0  0  0  0
  -31.2142  -26.7678   20.0798 C   0  0  0  0  0  0  0  0  0  0  0  0
  -24.2630  -29.1263   20.0714 C   0  0  0  0  0  0  0  0  0  0  0  0
  -29.8157  -26.6158   20.1386 C   0  0  0  0  0  0  0  0  0  0  0  0
  -23.7145  -29.2903   21.3513 C   0  0  0  0  0  0  0  0  0  0  0  0
  -19.4705  -23.1542   16.8813 C   0  0  0  0  0  0  0  0  0  0  0  0
  -19.6632  -23.8625   19.1831 C   0  0  0  0  0  0  0  0  0  0  0  0
  -20.1895  -21.9962   17.1775 C   0  0  0  0  0  0  0  0  0  0  0  0
  -29.3758  -18.7120   19.5970 C   0  0  0  0  0  0  0  0  0  0  0  0
  -21.7386  -28.0606   20.6487 C   0  0  0  0  0  0  0  0  0  0  0  0
  -31.0551  -17.2814   18.7874 C   0  0  0  0  0  0  0  0  0  0  0  0
  -32.6107  -16.3806   16.6540 C   0  0  0  0  0  0  0  0  0  0  0  0
  -20.6453  -21.7713   18.4764 C   0  0  0  0  0  0  0  0  0  0  0  0
  -30.4434  -16.7209   17.6661 C   0  0  0  0  0  0  0  0  0  0  0  0
  -26.5531  -21.7659   18.8196 C   0  0  0  0  0  0  0  0  0  0  0  0
  -25.3134  -23.5792   18.9200 C   0  0  0  0  0  0  0  0  0  0  0  0
  -26.9375  -23.3529   20.8067 C   0  0  0  0  0  0  0  0  0  0  0  0
  -27.0643  -28.6705   21.5027 C   0  0  0  0  0  0  0  0  0  0  0  0
  -26.4160  -31.5589   22.8291 C   0  0  0  0  0  0  0  0  0  0  0  0
  -19.7731  -24.7473   21.5387 C   0  0  0  0  0  0  0  0  0  0  0  0
  -24.0751  -33.8698   23.7381 C   0  0  0  0  0  0  0  0  0  0  0  0
  -21.2049  -21.3135   14.9879 C   0  0  0  0  0  0  0  0  0  0  0  0
  -31.9943  -27.3780   21.2172 C   0  0  0  0  0  0  0  0  0  0  0  0
  -25.6039  -29.7194   19.7355 C   0  0  0  0  0  0  0  0  0  0  0  0
  -24.4483  -30.0286   22.4399 C   0  0  0  0  0  0  0  0  0  0  0  0
  -31.1311  -28.1831   22.1851 C   0  0  0  0  0  0  0  0  0  0  0  0
  -23.4808  -24.1980   14.5489 C   0  0  0  0  0  0  0  0  0  0  0  0
  -29.8715  -27.4045   22.5512 C   0  0  0  0  0  0  0  0  0  0  0  0
  -24.5525  -23.9490   15.6085 C   0  0  0  0  0  0  0  0  0  0  0  0
  -22.8614  -22.8951   14.0526 C   0  0  0  0  0  0  0  0  0  0  0  0
  -23.3811  -21.7934   16.2108 C   0  0  0  0  0  0  0  0  0  0  0  0
  -29.0110  -27.1328   21.3113 C   0  0  1  0  0  0  0  0  0  0  0  0
  -26.4814  -29.9458   20.9628 C   0  0  1  0  0  0  0  0  0  0  0  0
  -23.9920  -23.0929   16.7562 C   0  0  1  0  0  0  0  0  0  0  0  0
  -18.9709  -23.4219   15.4984 C   0  0  0  0  0  0  0  0  0  0  0  0
  -23.8457  -36.1148   24.8356 C   0  0  0  0  0  0  0  0  0  0  0  0
  -26.8776  -30.2703   25.5561 C   0  0  0  0  0  0  0  0  0  0  0  0
  -25.7328  -32.2363   26.6012 C   0  0  0  0  0  0  0  0  0  0  0  0
  -27.8416  -32.5647   25.3099 C   0  0  0  0  0  0  0  0  0  0  0  0
  -19.7461  -19.7521   16.1986 C   0  0  0  0  0  0  0  0  0  0  0  0
  -22.8812  -35.0649   21.3080 C   0  0  0  0  0  0  0  0  0  0  0  0
  -19.2812  -25.9795   22.2896 C   0  0  0  0  0  0  0  0  0  0  0  0
  -20.2825  -27.1247   22.2795 C   0  0  0  0  0  0  0  0  0  1  0  0
  -25.7024  -32.0277   24.0740 C   0  0  1  0  0  0  0  0  0  0  0  0
  -24.0026  -35.3702   23.5189 C   0  0  2  0  0  0  0  0  0  0  0  0
  -26.5254  -31.7591   25.3656 C   0  0  0  0  0  0  0  0  0  0  0  0
  -25.7692  -21.6954   17.7404 N   0  0  0  0  0  0  0  0  0  0  0  0
  -25.0266  -22.8120   17.8295 N   0  0  0  0  0  0  0  0  0  0  0  0
  -25.7586  -30.5848   22.0643 N   0  0  0  0  0  0  0  0  0  0  0  0
  -22.3865  -22.0635   15.1597 N   0  0  0  0  0  0  0  0  0  0  0  0
  -24.6606  -24.7357   19.1621 N   0  0  0  0  0  0  0  0  0  0  0  0
  -27.9470  -22.5545   21.3616 N   0  0  0  0  0  0  0  0  0  0  0  0
  -19.3968  -24.8103   20.1997 N   0  0  0  0  0  0  0  0  0  0  0  0
  -28.2753  -28.3213   20.9363 N   0  0  0  0  0  0  0  0  0  0  0  0
  -25.3777  -33.4328   23.8538 N   0  0  0  0  0  0  0  0  0  0  0  0
  -20.4699  -21.0206   16.1525 N   0  0  0  0  0  0  0  0  0  0  0  0
  -22.8442  -35.7107   22.6454 N   0  3  0  0  0  0  0  0  0  0  0  0
  -26.5988  -24.4093   21.3922 O   0  0  0  0  0  0  0  0  0  0  0  0
  -26.4607  -28.0500   22.3702 O   0  0  0  0  0  0  0  0  0  0  0  0
  -27.5130  -32.0444   22.5418 O   0  0  0  0  0  0  0  0  0  0  0  0
  -20.4080  -23.8558   22.0922 O   0  0  0  0  0  0  0  0  0  0  0  0
  -23.0758  -33.1572   23.8041 O   0  0  0  0  0  0  0  0  0  0  0  0
  -20.8567  -20.8855   13.8806 O   0  0  0  0  0  0  0  0  0  0  0  0
  -30.2843  -17.7298   19.8468 O   0  0  0  0  0  0  0  0  0  0  0  0
  -20.5141  -27.5401   20.9341 O   0  0  0  0  0  0  0  0  0  1  0  0
  -33.3576  -15.9495   15.6291 F   0  0  0  0  0  0  0  0  0  0  0  0
  -21.3375  -20.6621   18.7732 F   0  0  0  0  0  0  0  0  0  0  0  0
  -29.1090  -16.6134   17.6074 F   0  0  0  0  0  0  0  0  0  0  0  0
  1  2  1  0  0  0  0
  1  5  2  0  0  0  0
  2  6  2  0  0  0  0
  3  8  2  0  0  0  0
  3 17  1  0  0  0  0
  4  9  1  0  0  0  0
  4 17  2  0  0  0  0
  5 19  1  0  0  0  0
  6 21  1  0  0  0  0
  7 10  2  0  0  0  0
  7 20  1  0  0  0  0
  8 26  1  0  0  0  0
  9 26  2  0  0  0  0
 10 27  1  0  0  0  0
 11 12  2  0  0  0  0
 11 28  1  0  0  0  0
 12 29  1  0  0  0  0
 13 22  1  0  0  0  0
 13 27  2  0  0  0  0
 14 23  2  0  0  0  0
 14 24  1  0  0  0  0
 15 24  2  0  0  0  0
 15 30  1  0  0  0  0
 16 29  2  0  0  0  0
 16 31  1  0  0  0  0
 17 32  1  0  0  0  0
 18 32  1  0  0  0  0
 18 33  2  0  0  0  0
 18 34  1  0  0  0  0
 19 21  2  0  0  0  0
 19 40  1  0  0  0  0
 20 22  2  0  0  0  0
 20 41  1  0  0  0  0
 21 49  1  0  0  0  0
 22 42  1  0  0  0  0
 23 25  1  0  0  0  0
 23 52  1  0  0  0  0
 24 70  1  0  0  0  0
 25 30  2  0  0  0  0
 25 73  1  0  0  0  0
 26 81  1  0  0  0  0
 27 82  1  0  0  0  0
 28 31  2  0  0  0  0
 28 81  1  0  0  0  0
 29 83  1  0  0  0  0
 30 84  1  0  0  0  0
 31 85  1  0  0  0  0
 32 64  2  0  0  0  0
 33 65  1  0  0  0  0
 33 68  1  0  0  0  0
 34 69  1  0  0  0  0
 34 75  2  0  0  0  0
 35 50  1  0  0  0  0
 35 71  1  0  0  0  0
 35 76  2  0  0  0  0
 36 61  1  0  0  0  0
 36 66  1  0  0  0  0
 36 77  2  0  0  0  0
 37 59  1  0  0  0  0
 37 70  1  0  0  0  0
 37 78  2  0  0  0  0
 38 62  1  0  0  0  0
 38 72  1  0  0  0  0
 38 79  2  0  0  0  0
 39 67  1  0  0  0  0
 39 73  1  0  0  0  0
 39 80  2  0  0  0  0
 40 43  1  0  0  0  0
 41 50  1  0  0  0  0
 42 66  1  0  0  0  0
 43 45  1  0  0  0  0
 44 46  1  0  0  0  0
 44 47  1  0  0  0  0
 45 49  1  0  0  0  0
 46 51  1  0  0  0  0
 47 67  1  0  0  0  0
 48 51  1  0  0  0  0
 48 67  1  0  0  0  0
 49 71  1  0  0  0  0
 50 66  1  0  0  0  0
 51 65  1  0  0  0  0
 53 62  1  0  0  0  0
 54 63  1  0  0  0  0
 55 63  1  0  0  0  0
 56 63  1  0  0  0  0
 57 73  1  0  0  0  0
 58 74  1  0  0  0  0
 59 60  1  0  0  0  0
 60 82  1  0  0  0  0
 61 63  1  0  0  0  0
 61 72  1  0  0  0  0
 62 74  1  0  0  0  0
 64 65  1  0  0  0  0
M  CHG  1  74   1
M  ISO  4  39 100  60 101  73 100  82 101
M  END
> <Batch ID>
0101

> <Smiles>
CNC(C)C(=O)NC(C(=O)N1Cc2cc([101O:1][101CH2:1]CC(=O)Nc3cc(C)c([100N:0](C)[100C:0](=O)N4CCCC(n5nc(-c6ccc(Oc7ccc(F)cc7F)cc6)c(C(N)=O)c5N)C4)c(F)c3)ccc2CC1C(=O)NC1CCCc2ccccc21)C(C)(C)C

> <Shape>
0.231

> <Color>
0.070

> <Negative vol penalty>
0.000

$$$$

  -OEChem-04052301003D

 84 93  0     1  0  0  0  0  0999 V2000
  -16.1970  -29.0933   24.0158 C   0  0  0  0  0  0  0  0  0  0  0  0
  -17.1695  -28.1980   24.4495 C   0  0  0  0  0  0  0  0  0  0  0  0
  -23.4930  -10.2595   21.3020 C   0  0  0  0  0  0  0  0  0  0  0  0
  -24.9074   -8.5019   22.1667 C   0  0  0  0  0  0  0  0  0  0  0  0
  -29.6803  -19.7266   20.9573 C   0  0  0  0  0  0  0  0  0  0  0  0
  -28.1463  -18.0354   21.7474 C   0  0  0  0  0  0  0  0  0  0  0  0
  -16.5265  -30.0864   23.0943 C   0  0  0  0  0  0  0  0  0  0  0  0
  -18.4720  -28.2947   23.9612 C   0  0  0  0  0  0  0  0  0  0  0  0
  -23.6463  -27.1086   27.0150 C   0  0  0  0  0  0  0  0  0  0  0  0
  -29.1375  -20.6407   21.8602 C   0  0  0  0  0  0  0  0  0  0  0  0
  -27.6036  -18.9496   22.6504 C   0  0  0  0  0  0  0  0  0  0  0  0
  -22.4472   -9.3477   21.1592 C   0  0  0  0  0  0  0  0  0  0  0  0
  -23.8615   -7.5901   22.0239 C   0  0  0  0  0  0  0  0  0  0  0  0
  -24.4785  -25.9906   27.0518 C   0  0  0  0  0  0  0  0  0  0  0  0
  -21.0428   -6.7543   23.6903 C   0  0  0  0  0  0  0  0  0  0  0  0
  -20.7995   -5.8786   24.7484 C   0  0  0  0  0  0  0  0  0  0  0  0
  -25.9050  -27.0054   25.3922 C   0  0  0  0  0  0  0  0  0  0  0  0
  -21.2087   -3.9989   23.2868 C   0  0  0  0  0  0  0  0  0  0  0  0
  -24.7231   -9.8366   21.8057 C   0  0  0  0  0  0  0  0  0  0  0  0
  -29.1846  -18.4239   20.9009 C   0  0  0  0  0  0  0  0  0  0  0  0
  -26.0958  -11.5676   23.0813 C   0  0  0  0  0  0  0  0  0  0  0  0
  -17.8360  -30.2013   22.6018 C   0  0  0  0  0  0  0  0  0  0  0  0
  -23.9317  -28.1805   26.1571 C   0  0  0  0  0  0  0  0  0  0  0  0
  -18.8191  -29.2894   23.0312 C   0  0  0  0  0  0  0  0  0  0  0  0
  -25.0763  -28.1370   25.3483 C   0  0  0  0  0  0  0  0  0  0  0  0
  -28.0992  -20.2523   22.7068 C   0  0  0  0  0  0  0  0  0  0  0  0
  -22.6314   -8.0130   21.5202 C   0  0  0  0  0  0  0  0  0  0  0  0
  -25.6065  -25.9376   26.2382 C   0  0  0  0  0  0  0  0  0  0  0  0
  -21.3690   -6.2523   22.4304 C   0  0  0  0  0  0  0  0  0  0  0  0
  -20.8825   -4.5009   24.5467 C   0  0  0  0  0  0  0  0  0  0  0  0
  -21.4520   -4.8746   22.2287 C   0  0  0  0  0  0  0  0  0  0  0  0
  -25.8040  -10.7780   21.9530 C   0  0  0  0  0  0  0  0  0  0  0  0
  -27.2099  -12.2850   22.7195 C   0  0  0  0  0  0  0  0  0  0  0  0
  -29.7581  -17.4581   19.9469 C   0  0  0  0  0  0  0  0  0  0  0  0
  -25.4204  -11.6457   24.3435 C   0  0  0  0  0  0  0  0  0  0  0  0
  -22.4431  -29.5481   23.7041 C   0  0  0  0  0  0  0  0  0  0  0  0
  -24.8809  -31.6776   23.9151 C   0  0  0  0  0  0  0  0  0  0  0  0
  -28.0791  -32.3309   24.9109 C   0  0  0  0  0  0  0  0  0  0  0  0
  -29.9125  -15.3905   18.9506 C   0  0  0  0  0  0  0  0  0  0  0  0
  -18.1335  -31.2614   21.5711 C   0  0  0  0  0  0  0  0  0  0  0  0
  -23.0386  -29.3907   26.1488 C   0  0  0  0  0  0  0  0  0  0  0  0
  -25.4381  -29.2703   24.4246 C   0  0  0  0  0  0  0  0  0  0  0  0
  -19.6248  -31.5301   21.3866 C   0  0  0  0  0  0  0  0  0  0  0  0
  -30.3025  -11.8108   18.7541 C   0  0  0  0  0  0  0  0  0  0  0  0
  -20.3931  -30.2176   21.2687 C   0  0  0  0  0  0  0  0  0  0  0  0
  -29.1673  -11.2891   19.6348 C   0  0  0  0  0  0  0  0  0  0  0  0
  -26.0520  -22.2076   25.0680 C   0  0  0  0  0  0  0  0  0  0  0  0
  -29.8967  -13.0797   18.0106 C   0  0  0  0  0  0  0  0  0  0  0  0
  -26.4761  -20.8448   24.5246 C   0  0  0  0  0  0  0  0  0  0  0  0
  -28.0064  -22.5423   23.7283 C   0  0  0  0  0  0  0  0  0  0  0  0
  -28.2654  -13.6519   19.7883 C   0  0  0  0  0  0  0  0  0  0  0  0
  -20.2489  -29.3775   22.5434 C   0  0  1  0  0  0  0  0  0  0  0  0
  -23.1439  -30.2021   24.8612 C   0  0  1  0  0  0  0  0  0  0  0  0
  -27.3449  -23.0170   25.0270 C   0  0  1  0  0  0  0  0  0  0  0  0
  -28.6494  -12.3892   20.5785 C   0  0  1  0  0  0  0  0  0  0  0  0
  -29.8090  -34.1488   24.9135 C   0  0  0  0  0  0  0  0  0  0  0  0
  -25.4124  -31.1727   20.9533 C   0  0  0  0  0  0  0  0  0  0  0  0
  -27.6592  -32.2377   21.2464 C   0  0  0  0  0  0  0  0  0  0  0  0
  -25.5881  -33.5678   21.6512 C   0  0  0  0  0  0  0  0  0  0  0  0
  -28.1962  -32.3749   27.8678 C   0  0  0  0  0  0  0  0  0  0  0  0
  -27.1137  -24.5174   25.0690 C   0  0  0  0  0  0  0  0  0  1  0  0
  -26.2612  -31.7856   23.3133 C   0  0  1  0  0  0  0  0  0  0  0  0
  -28.6755  -33.4920   25.6859 C   0  0  2  0  0  0  0  0  0  0  0  0
  -26.2227  -32.1686   21.8069 C   0  0  0  0  0  0  0  0  0  0  0  0
  -26.6632  -10.9750   20.9495 N   0  0  0  0  0  0  0  0  0  0  0  0
  -29.3267  -16.2419   19.8678 N   0  0  0  0  0  0  0  0  0  0  0  0
  -27.5058  -11.8967   21.4460 N   0  0  0  0  0  0  0  0  0  0  0  0
  -27.5628  -21.1559   23.5993 N   0  0  3  0  0  0  0  0  0  0  0  0
  -24.5302  -30.4290   24.4478 N   0  0  0  0  0  0  0  0  0  0  0  0
  -29.3790  -14.0886   18.9357 N   0  0  0  0  0  0  0  0  0  0  0  0
  -27.9553  -13.2037   23.3697 N   0  0  0  0  0  0  0  0  0  0  0  0
  -24.2922  -10.8397   24.5486 N   0  0  0  0  0  0  0  0  0  0  0  0
  -21.1096  -29.8912   23.5873 N   0  0  0  0  0  0  0  0  0  0  0  0
  -26.9990  -32.7257   24.1502 N   0  0  0  0  0  0  0  0  0  0  0  0
  -29.2098  -33.0211   26.9950 N   0  3  0  0  0  0  0  0  0  0  0  0
  -25.7961  -12.4196   25.2564 O   0  0  0  0  0  0  0  0  0  0  0  0
  -23.0664  -28.7897   22.9708 O   0  0  0  0  0  0  0  0  0  0  0  0
  -24.1439  -32.6667   23.9190 O   0  0  0  0  0  0  0  0  0  0  0  0
  -28.5289  -31.1887   24.9713 O   0  0  0  0  0  0  0  0  0  0  0  0
  -30.8261  -15.7215   18.1911 O   0  0  0  0  0  0  0  0  0  0  0  0
  -21.6110   -7.1230   21.3812 O   0  0  0  0  0  0  0  0  0  0  0  0
  -26.4201  -24.8473   26.2717 O   0  0  0  0  0  0  0  0  0  1  0  0
  -20.6503   -3.6602   25.5633 F   0  0  0  0  0  0  0  0  0  0  0  0
  -21.7661   -4.3864   21.0209 F   0  0  0  0  0  0  0  0  0  0  0  0
  1  2  1  0  0  0  0
  1  7  2  0  0  0  0
  2  8  2  0  0  0  0
  3 12  2  0  0  0  0
  3 19  1  0  0  0  0
  4 13  1  0  0  0  0
  4 19  2  0  0  0  0
  5 10  2  0  0  0  0
  5 20  1  0  0  0  0
  6 11  1  0  0  0  0
  6 20  2  0  0  0  0
  7 22  1  0  0  0  0
  8 24  1  0  0  0  0
  9 14  2  0  0  0  0
  9 23  1  0  0  0  0
 10 26  1  0  0  0  0
 11 26  2  0  0  0  0
 12 27  1  0  0  0  0
 13 27  2  0  0  0  0
 14 28  1  0  0  0  0
 15 16  2  0  0  0  0
 15 29  1  0  0  0  0
 16 30  1  0  0  0  0
 17 25  1  0  0  0  0
 17 28  2  0  0  0  0
 18 30  2  0  0  0  0
 18 31  1  0  0  0  0
 19 32  1  0  0  0  0
 20 34  1  0  0  0  0
 21 32  1  0  0  0  0
 21 33  2  0  0  0  0
 21 35  1  0  0  0  0
 22 24  2  0  0  0  0
 22 40  1  0  0  0  0
 23 25  2  0  0  0  0
 23 41  1  0  0  0  0
 24 52  1  0  0  0  0
 25 42  1  0  0  0  0
 26 68  1  0  0  0  0
 27 81  1  0  0  0  0
 28 82  1  0  0  0  0
 29 31  2  0  0  0  0
 29 81  1  0  0  0  0
 30 83  1  0  0  0  0
 31 84  1  0  0  0  0
 32 65  2  0  0  0  0
 33 67  1  0  0  0  0
 33 71  1  0  0  0  0
 34 66  2  0  0  0  0
 35 72  1  0  0  0  0
 35 76  2  0  0  0  0
 36 53  1  0  0  0  0
 36 73  1  0  0  0  0
 36 77  2  0  0  0  0
 37 62  1  0  0  0  0
 37 69  1  0  0  0  0
 37 78  2  0  0  0  0
 38 63  1  0  0  0  0
 38 74  1  0  0  0  0
 38 79  2  0  0  0  0
 39 66  1  0  0  0  0
 39 70  1  0  0  0  0
 39 80  2  0  0  0  0
 40 43  1  0  0  0  0
 41 53  1  0  0  0  0
 42 69  1  0  0  0  0
 43 45  1  0  0  0  0
 44 46  1  0  0  0  0
 44 48  1  0  0  0  0
 45 52  1  0  0  0  0
 46 55  1  0  0  0  0
 47 49  1  0  0  0  0
 47 54  1  0  0  0  0
 48 70  1  0  0  0  0
 49 68  1  0  0  0  0
 50 54  1  0  0  0  0
 50 68  1  0  0  0  0
 51 55  1  0  0  0  0
 51 70  1  0  0  0  0
 52 73  1  0  0  0  0
 53 69  1  0  0  0  0
 54 61  1  0  0  0  0
 55 67  1  0  0  0  0
 56 63  1  0  0  0  0
 57 64  1  0  0  0  0
 58 64  1  0  0  0  0
 59 64  1  0  0  0  0
 60 75  1  0  0  0  0
 61 82  1  0  0  0  0
 62 64  1  0  0  0  0
 62 74  1  0  0  0  0
 63 75  1  0  0  0  0
 65 67  1  0  0  0  0
M  CHG  1  75   1
M  ISO  4  39 100  61 101  66 100  82 101
M  END
> <Batch ID>
0101

> <Smiles>
CNC(C)C(=O)NC(C(=O)N1Cc2cc([101O:1][101CH2:1]C3CCN(c4ccc(C=[100N:0][100C:0](=O)N5CCCC(n6nc(-c7ccc(Oc8ccc(F)cc8F)cc7)c(C(N)=O)c6N)C5)cc4)C3)ccc2CC1C(=O)NC1CCCc2ccccc21)C(C)(C)C

> <Shape>
0.266

> <Color>
0.116

> <Negative vol penalty>
0.000

$$$$

  -OEChem-04052301003D

 89 98  0     1  0  0  0  0  0999 V2000
  -28.4350  -32.0265   25.2601 C   0  0  0  0  0  0  0  0  0  0  0  0
  -27.7271  -30.8405   25.0938 C   0  0  0  0  0  0  0  0  0  0  0  0
  -22.7765  -10.0989   20.1739 C   0  0  0  0  0  0  0  0  0  0  0  0
  -24.1371   -9.5862   22.1033 C   0  0  0  0  0  0  0  0  0  0  0  0
  -29.2022  -32.5319   24.2114 C   0  0  0  0  0  0  0  0  0  0  0  0
  -27.7851  -30.1598   23.8782 C   0  0  0  0  0  0  0  0  0  0  0  0
  -27.6642  -24.0935   23.0464 C   0  0  0  0  0  0  0  0  0  0  0  0
  -25.7665  -16.8711   17.5254 C   0  0  0  0  0  0  0  0  0  0  0  0
  -26.7015  -16.1169   16.8166 C   0  0  0  0  0  0  0  0  0  0  0  0
  -22.0211   -8.9485   20.4008 C   0  0  0  0  0  0  0  0  0  0  0  0
  -23.3817   -8.4358   22.3303 C   0  0  0  0  0  0  0  0  0  0  0  0
  -26.6386  -23.2143   22.7017 C   0  0  0  0  0  0  0  0  0  0  0  0
  -19.5250   -7.9743   22.4631 C   0  0  0  0  0  0  0  0  0  0  0  0
  -18.1370   -8.0832   22.3792 C   0  0  0  0  0  0  0  0  0  0  0  0
  -27.3201  -23.3347   20.3908 C   0  0  0  0  0  0  0  0  0  0  0  0
  -27.3385  -17.1107   19.3443 C   0  0  0  0  0  0  0  0  0  0  0  0
  -18.1161   -6.4476   20.6011 C   0  0  0  0  0  0  0  0  0  0  0  0
  -23.8346  -10.4178   21.0251 C   0  0  0  0  0  0  0  0  0  0  0  0
  -24.1543  -12.9355   20.7673 C   0  0  0  0  0  0  0  0  0  0  0  0
  -29.2774  -31.8520   22.9855 C   0  0  0  0  0  0  0  0  0  0  0  0
  -28.5201  -24.6094   22.0626 C   0  0  0  0  0  0  0  0  0  0  0  0
  -28.5530  -30.6573   22.8116 C   0  0  0  0  0  0  0  0  0  0  0  0
  -28.3574  -24.2183   20.7259 C   0  0  0  0  0  0  0  0  0  0  0  0
  -26.0850  -17.3681   18.7893 C   0  0  0  0  0  0  0  0  0  0  0  0
  -27.9550  -15.8595   17.3716 C   0  0  0  0  0  0  0  0  0  0  0  0
  -22.3237   -8.1170   21.4790 C   0  0  0  0  0  0  0  0  0  0  0  0
  -26.4646  -22.8370   21.3734 C   0  0  0  0  0  0  0  0  0  0  0  0
  -20.2086   -7.1021   21.6159 C   0  0  0  0  0  0  0  0  0  0  0  0
  -17.4325   -7.3199   21.4482 C   0  0  0  0  0  0  0  0  0  0  0  0
  -28.2736  -16.3564   18.6355 C   0  0  0  0  0  0  0  0  0  0  0  0
  -19.5041   -6.3387   20.6850 C   0  0  0  0  0  0  0  0  0  0  0  0
  -24.6157  -11.6057   20.7908 C   0  0  0  0  0  0  0  0  0  0  0  0
  -25.2764  -13.6837   20.5073 C   0  0  0  0  0  0  0  0  0  0  0  0
  -23.7427  -17.8750   19.3057 C   0  0  0  0  0  0  0  0  0  0  0  0
  -25.6063  -19.1495   20.4094 C   0  0  0  0  0  0  0  0  0  0  0  0
  -22.8299  -13.4486   20.9630 C   0  0  0  0  0  0  0  0  0  0  0  0
  -29.1813  -27.5186   20.9659 C   0  0  0  0  0  0  0  0  0  0  0  0
  -31.4444  -25.9379   19.2623 C   0  0  0  0  0  0  0  0  0  0  0  0
  -31.6712  -22.8437   17.4206 C   0  0  0  0  0  0  0  0  0  0  0  0
  -29.8911  -14.2691   17.2553 C   0  0  0  0  0  0  0  0  0  0  0  0
  -30.0821  -32.4620   21.8653 C   0  0  0  0  0  0  0  0  0  0  0  0
  -29.6383  -25.5359   22.4545 C   0  0  0  0  0  0  0  0  0  0  0  0
  -29.2621  -24.7279   19.6349 C   0  0  0  0  0  0  0  0  0  0  0  0
  -22.7412  -18.8094   19.9524 C   0  0  0  0  0  0  0  0  0  0  0  0
  -30.3897  -31.4844   20.7339 C   0  0  0  0  0  0  0  0  0  0  0  0
  -23.3392  -20.1037   20.4524 C   0  0  0  0  0  0  0  0  0  0  0  0
  -30.1678  -12.4432   20.4620 C   0  0  0  0  0  0  0  0  0  0  0  0
  -29.1352  -30.7107   20.3410 C   0  0  0  0  0  0  0  0  0  0  0  0
  -28.7144  -12.1002   20.7836 C   0  0  0  0  0  0  0  0  0  0  0  0
  -30.4051  -12.5502   18.9587 C   0  0  0  0  0  0  0  0  0  0  0  0
  -28.0334  -13.1730   18.6003 C   0  0  0  0  0  0  0  0  0  0  0  0
  -28.6105  -29.8770   21.5163 C   0  0  1  0  0  0  0  0  0  0  0  0
  -24.5480  -19.7720   21.3089 C   0  0  2  0  0  0  0  0  0  0  0  0
  -30.1297  -26.4017   21.2985 C   0  0  1  0  0  0  0  0  0  0  0  0
  -27.7594  -13.0993   20.1099 C   0  0  1  0  0  0  0  0  0  0  0  0
  -29.8885  -16.5801   14.9405 C   0  0  0  0  0  0  0  0  0  0  0  0
  -33.6504  -21.3843   16.9201 C   0  0  0  0  0  0  0  0  0  0  0  0
  -31.5927  -27.5272   16.6620 C   0  0  0  0  0  0  0  0  0  0  0  0
  -32.2176  -25.4083   15.4840 C   0  0  0  0  0  0  0  0  0  0  0  0
  -33.6987  -26.3235   17.2705 C   0  0  0  0  0  0  0  0  0  0  0  0
  -30.3605  -20.4644   18.5953 C   0  0  0  0  0  0  0  0  0  0  0  0
  -25.0690  -21.0215   22.0153 C   0  0  0  0  0  0  0  0  0  1  0  0
  -29.0622  -15.3379   15.2054 C   0  0  0  0  0  0  0  0  0  0  0  0
  -31.4915  -25.2692   17.9097 C   0  0  1  0  0  0  0  0  0  0  0  0
  -32.4458  -21.6016   17.8226 C   0  0  2  0  0  0  0  0  0  0  0  0
  -32.2260  -26.1337   16.8465 C   0  0  0  0  0  0  0  0  0  0  0  0
  -25.9285  -11.5113   20.5637 N   0  0  0  0  0  0  0  0  0  0  0  0
  -26.3017  -12.7913   20.3949 N   0  0  0  0  0  0  0  0  0  0  0  0
  -25.1133  -18.1514   19.5264 N   0  0  0  0  0  0  0  0  0  0  0  0
  -30.3368  -25.6364   20.0674 N   0  0  0  0  0  0  0  0  0  0  0  0
  -29.4504  -13.4586   18.3217 N   0  0  0  0  0  0  0  0  0  0  0  0
  -25.4762  -15.0113   20.3660 N   0  0  0  0  0  0  0  0  0  0  0  0
  -21.7931  -12.5413   21.2206 N   0  0  0  0  0  0  0  0  0  0  0  0
  -29.4060  -28.6793   21.6812 N   0  0  0  0  0  0  0  0  0  0  0  0
  -32.0858  -23.9543   18.1249 N   0  0  0  0  0  0  0  0  0  0  0  0
  -28.9197  -15.0787   16.6364 N   0  0  0  0  0  0  0  0  0  0  0  0
  -31.5725  -20.3969   17.7389 N   0  3  0  0  0  0  0  0  0  0  0  0
  -23.3058  -16.8901   18.7015 O   0  0  0  0  0  0  0  0  0  0  0  0
  -26.7781  -19.5276   20.4688 O   0  0  0  0  0  0  0  0  0  0  0  0
  -22.5705  -14.6740   20.8948 O   0  0  0  0  0  0  0  0  0  0  0  0
  -28.3111  -27.3410   20.1216 O   0  0  0  0  0  0  0  0  0  0  0  0
  -32.3603  -26.6941   19.5953 O   0  0  0  0  0  0  0  0  0  0  0  0
  -30.7894  -22.8309   16.5646 O   0  0  0  0  0  0  0  0  0  0  0  0
  -31.0577  -14.2335   16.8452 O   0  0  0  0  0  0  0  0  0  0  0  0
  -21.5866   -6.9945   21.7010 O   0  0  0  0  0  0  0  0  0  0  0  0
  -25.4639  -21.9795   21.0341 O   0  0  0  0  0  0  0  0  0  1  0  0
  -16.0994   -7.4234   21.3689 F   0  0  0  0  0  0  0  0  0  0  0  0
  -29.4748  -16.1139   19.1795 F   0  0  0  0  0  0  0  0  0  0  0  0
  -20.1553   -5.4982   19.8693 F   0  0  0  0  0  0  0  0  0  0  0  0
  1  2  1  0  0  0  0
  1  5  2  0  0  0  0
  2  6  2  0  0  0  0
  3 10  2  0  0  0  0
  3 18  1  0  0  0  0
  4 11  1  0  0  0  0
  4 18  2  0  0  0  0
  5 20  1  0  0  0  0
  6 22  1  0  0  0  0
  7 12  2  0  0  0  0
  7 21  1  0  0  0  0
  8  9  2  0  0  0  0
  8 24  1  0  0  0  0
  9 25  1  0  0  0  0
 10 26  1  0  0  0  0
 11 26  2  0  0  0  0
 12 27  1  0  0  0  0
 13 14  2  0  0  0  0
 13 28  1  0  0  0  0
 14 29  1  0  0  0  0
 15 23  1  0  0  0  0
 15 27  2  0  0  0  0
 16 24  2  0  0  0  0
 16 30  1  0  0  0  0
 17 29  2  0  0  0  0
 17 31  1  0  0  0  0
 18 32  1  0  0  0  0
 19 32  1  0  0  0  0
 19 33  2  0  0  0  0
 19 36  1  0  0  0  0
 20 22  2  0  0  0  0
 20 41  1  0  0  0  0
 21 23  2  0  0  0  0
 21 42  1  0  0  0  0
 22 52  1  0  0  0  0
 23 43  1  0  0  0  0
 24 69  1  0  0  0  0
 25 30  2  0  0  0  0
 25 76  1  0  0  0  0
 26 85  1  0  0  0  0
 27 86  1  0  0  0  0
 28 31  2  0  0  0  0
 28 85  1  0  0  0  0
 29 87  1  0  0  0  0
 30 88  1  0  0  0  0
 31 89  1  0  0  0  0
 32 67  2  0  0  0  0
 33 68  1  0  0  0  0
 33 72  1  0  0  0  0
 34 44  1  0  0  0  0
 34 69  1  0  0  0  0
 34 78  2  0  0  0  0
 35 53  1  0  0  0  0
 35 69  1  0  0  0  0
 35 79  2  0  0  0  0
 36 73  1  0  0  0  0
 36 80  2  0  0  0  0
 37 54  1  0  0  0  0
 37 74  1  0  0  0  0
 37 81  2  0  0  0  0
 38 64  1  0  0  0  0
 38 70  1  0  0  0  0
 38 82  2  0  0  0  0
 39 65  1  0  0  0  0
 39 75  1  0  0  0  0
 39 83  2  0  0  0  0
 40 71  1  0  0  0  0
 40 76  1  0  0  0  0
 40 84  2  0  0  0  0
 41 45  1  0  0  0  0
 42 54  1  0  0  0  0
 43 70  1  0  0  0  0
 44 46  1  0  0  0  0
 45 48  1  0  0  0  0
 46 53  1  0  0  0  0
 47 49  1  0  0  0  0
 47 50  1  0  0  0  0
 48 52  1  0  0  0  0
 49 55  1  0  0  0  0
 50 71  1  0  0  0  0
 51 55  1  0  0  0  0
 51 71  1  0  0  0  0
 52 74  1  0  0  0  0
 53 62  1  0  0  0  0
 54 70  1  0  0  0  0
 55 68  1  0  0  0  0
 56 63  1  0  0  0  0
 57 65  1  0  0  0  0
 58 66  1  0  0  0  0
 59 66  1  0  0  0  0
 60 66  1  0  0  0  0
 61 77  1  0  0  0  0
 62 86  1  0  0  0  0
 63 76  1  0  0  0  0
 64 66  1  0  0  0  0
 64 75  1  0  0  0  0
 65 77  1  0  0  0  0
 67 68  1  0  0  0  0
M  CHG  1  77   1
M  ISO  4  40 100  62 101  76 100  86 101
M  END
> <Batch ID>
0101

> <Smiles>
CC[100N:0](c1ccc(N2C(=O)CCC([101CH2:1][101O:1]c3ccc4c(c3)CN(C(=O)C(NC(=O)C(C)NC)C(C)(C)C)C(C(=O)NC3CCCc5ccccc53)C4)C2=O)cc1F)[100C:0](=O)N1CCCC(n2nc(-c3ccc(Oc4ccc(F)cc4F)cc3)c(C(N)=O)c2N)C1

> <Shape>
0.221

> <Color>
0.188

> <Negative vol penalty>
0.000

$$$$

  -OEChem-04052301003D

 87 96  0     1  0  0  0  0  0999 V2000
  -19.0236  -27.8631   23.6504 C   0  0  0  0  0  0  0  0  0  0  0  0
  -20.0989  -26.9875   23.5387 C   0  0  0  0  0  0  0  0  0  0  0  0
  -23.3559   -9.7769   19.8261 C   0  0  0  0  0  0  0  0  0  0  0  0
  -24.4590   -9.5374   21.9622 C   0  0  0  0  0  0  0  0  0  0  0  0
  -18.6784  -28.6820   22.5761 C   0  0  0  0  0  0  0  0  0  0  0  0
  -20.8289  -26.9294   22.3520 C   0  0  0  0  0  0  0  0  0  0  0  0
  -26.8405  -25.9130   21.7739 C   0  0  0  0  0  0  0  0  0  0  0  0
  -22.8681   -8.4745   19.9320 C   0  0  0  0  0  0  0  0  0  0  0  0
  -23.9711   -8.2349   22.0681 C   0  0  0  0  0  0  0  0  0  0  0  0
  -27.5731  -24.7655   21.4734 C   0  0  0  0  0  0  0  0  0  0  0  0
  -21.0631   -6.7258   22.8965 C   0  0  0  0  0  0  0  0  0  0  0  0
  -20.5202   -6.3362   24.1208 C   0  0  0  0  0  0  0  0  0  0  0  0
  -27.6464  -25.4267   19.1547 C   0  0  0  0  0  0  0  0  0  0  0  0
  -29.9917  -18.7911   21.0058 C   0  0  0  0  0  0  0  0  0  0  0  0
  -29.2367  -20.6479   22.3545 C   0  0  0  0  0  0  0  0  0  0  0  0
  -22.1737   -4.5835   24.2964 C   0  0  0  0  0  0  0  0  0  0  0  0
  -24.1514  -10.3084   20.8412 C   0  0  0  0  0  0  0  0  0  0  0  0
  -24.0360  -12.8335   21.1850 C   0  0  0  0  0  0  0  0  0  0  0  0
  -19.4106  -28.6409   21.3791 C   0  0  0  0  0  0  0  0  0  0  0  0
  -26.4953  -26.8220   20.7634 C   0  0  0  0  0  0  0  0  0  0  0  0
  -20.4923  -27.7476   21.2602 C   0  0  0  0  0  0  0  0  0  0  0  0
  -26.9116  -26.5863   19.4453 C   0  0  0  0  0  0  0  0  0  0  0  0
  -29.9344  -20.1636   21.2480 C   0  0  0  0  0  0  0  0  0  0  0  0
  -29.3513  -17.9030   21.8700 C   0  0  0  0  0  0  0  0  0  0  0  0
  -28.6537  -18.3873   22.9765 C   0  0  0  0  0  0  0  0  0  0  0  0
  -23.1756   -7.7035   21.0529 C   0  0  0  0  0  0  0  0  0  0  0  0
  -27.9737  -24.5208   20.1632 C   0  0  0  0  0  0  0  0  0  0  0  0
  -22.1612   -6.0441   22.3720 C   0  0  0  0  0  0  0  0  0  0  0  0
  -21.0755   -5.2651   24.8208 C   0  0  0  0  0  0  0  0  0  0  0  0
  -28.5963  -19.7598   23.2188 C   0  0  0  0  0  0  0  0  0  0  0  0
  -22.7166   -4.9730   23.0719 C   0  0  0  0  0  0  0  0  0  0  0  0
  -24.6561  -11.6536   20.7322 C   0  0  0  0  0  0  0  0  0  0  0  0
  -24.9130  -13.8344   20.8453 C   0  0  0  0  0  0  0  0  0  0  0  0
  -30.8819  -20.6412   17.8571 C   0  0  0  0  0  0  0  0  0  0  0  0
  -22.7796  -13.0091   21.8530 C   0  0  0  0  0  0  0  0  0  0  0  0
  -23.7606  -27.8864   19.5420 C   0  0  0  0  0  0  0  0  0  0  0  0
  -25.7226  -29.8717   17.8894 C   0  0  0  0  0  0  0  0  0  0  0  0
  -28.8321  -30.4748   16.6189 C   0  0  0  0  0  0  0  0  0  0  0  0
  -30.0794  -15.8890   20.5434 C   0  0  0  0  0  0  0  0  0  0  0  0
  -18.9704  -29.5112   20.2286 C   0  0  0  0  0  0  0  0  0  0  0  0
  -25.7276  -28.0686   21.1084 C   0  0  0  0  0  0  0  0  0  0  0  0
  -26.5841  -27.5412   18.3276 C   0  0  0  0  0  0  0  0  0  0  0  0
  -29.9731  -20.6963   16.6536 C   0  0  0  0  0  0  0  0  0  0  0  0
  -20.0270  -29.6578   19.1367 C   0  0  0  0  0  0  0  0  0  0  0  0
  -28.5743  -20.6794   17.2629 C   0  0  0  0  0  0  0  0  0  0  0  0
  -29.0282  -13.7487   17.8992 C   0  0  0  0  0  0  0  0  0  0  0  0
  -20.6238  -28.2987   18.7854 C   0  0  0  0  0  0  0  0  0  0  0  0
  -27.7461  -13.1099   18.4378 C   0  0  0  0  0  0  0  0  0  0  0  0
  -30.0707  -13.9422   18.9990 C   0  0  0  0  0  0  0  0  0  0  0  0
  -28.3131  -14.0279   20.7231 C   0  0  0  0  0  0  0  0  0  0  0  0
  -21.3239  -27.6734   19.9980 C   0  0  1  0  0  0  0  0  0  0  0  0
  -24.9901  -28.6659   19.9139 C   0  0  1  0  0  0  0  0  0  0  0  0
  -27.2089  -13.8725   19.6647 C   0  0  2  0  0  0  0  0  0  0  0  0
  -28.7479  -21.3432   18.6255 C   0  0  2  0  0  0  0  0  0  0  0  0
  -30.1208  -32.1638   15.2832 C   0  0  0  0  0  0  0  0  0  0  0  0
  -24.3638  -28.8891   15.3403 C   0  0  0  0  0  0  0  0  0  0  0  0
  -26.2732  -29.8484   14.0357 C   0  0  0  0  0  0  0  0  0  0  0  0
  -24.8183  -31.3476   15.3989 C   0  0  0  0  0  0  0  0  0  0  0  0
  -30.7228  -30.9628   18.8429 C   0  0  0  0  0  0  0  0  0  0  0  0
  -30.6232  -21.1201   20.3181 C   0  0  0  0  0  0  0  0  0  0  0  0
  -28.5208  -22.8500   18.5616 C   0  0  0  0  0  0  0  0  0  1  0  0
  -26.4447  -29.8028   16.5654 C   0  0  1  0  0  0  0  0  0  0  0  0
  -29.7232  -31.7025   16.6767 C   0  0  2  0  0  0  0  0  0  0  0  0
  -25.4797  -29.9528   15.3556 C   0  0  0  0  0  0  0  0  0  0  0  0
  -25.8359  -11.8821   20.1492 N   0  0  0  0  0  0  0  0  0  0  0  0
  -25.9641  -13.2173   20.2332 N   0  0  0  0  0  0  0  0  0  0  0  0
  -30.1215  -21.0150   18.9631 N   0  0  0  0  0  0  0  0  0  0  0  0
  -25.8261  -28.7427   18.7142 N   0  0  0  0  0  0  0  0  0  0  0  0
  -29.4918  -14.6757   20.1267 N   0  0  0  0  0  0  0  0  0  0  0  0
  -27.9995  -17.5037   23.8643 N   0  0  0  0  0  0  0  0  0  0  0  0
  -24.8800  -15.1735   21.0133 N   0  0  0  0  0  0  0  0  0  0  0  0
  -22.0035  -11.8743   22.1256 N   0  0  0  0  0  0  0  0  0  0  0  0
  -29.4230  -16.5131   21.6037 N   0  0  0  0  0  0  0  0  0  0  0  0
  -22.6176  -28.2876   20.2069 N   0  0  0  0  0  0  0  0  0  0  0  0
  -27.4955  -30.8133   16.6204 N   0  0  0  0  0  0  0  0  0  0  0  0
  -30.9648  -31.4056   17.4457 N   0  3  0  0  0  0  0  0  0  0  0  0
  -32.0686  -20.3525   17.8178 O   0  0  0  0  0  0  0  0  0  0  0  0
  -22.3500  -14.1404   22.1832 O   0  0  0  0  0  0  0  0  0  0  0  0
  -23.8425  -26.9885   18.7121 O   0  0  0  0  0  0  0  0  0  0  0  0
  -25.0960  -30.8925   18.1840 O   0  0  0  0  0  0  0  0  0  0  0  0
  -29.2774  -29.3302   16.5729 O   0  0  0  0  0  0  0  0  0  0  0  0
  -31.0743  -16.3547   19.9820 O   0  0  0  0  0  0  0  0  0  0  0  0
  -22.6996   -6.4326   21.1567 O   0  0  0  0  0  0  0  0  0  0  0  0
  -28.6884  -23.4012   19.8671 O   0  0  0  0  0  0  0  0  0  1  0  0
  -20.5550   -4.8921   25.9973 F   0  0  0  0  0  0  0  0  0  0  0  0
  -27.9300  -20.2374   24.2796 F   0  0  0  0  0  0  0  0  0  0  0  0
  -23.7724   -4.3151   22.5737 F   0  0  0  0  0  0  0  0  0  0  0  0
  1  2  1  0  0  0  0
  1  5  2  0  0  0  0
  2  6  2  0  0  0  0
  3  8  2  0  0  0  0
  3 17  1  0  0  0  0
  4  9  1  0  0  0  0
  4 17  2  0  0  0  0
  5 19  1  0  0  0  0
  6 21  1  0  0  0  0
  7 10  2  0  0  0  0
  7 20  1  0  0  0  0
  8 26  1  0  0  0  0
  9 26  2  0  0  0  0
 10 27  1  0  0  0  0
 11 12  2  0  0  0  0
 11 28  1  0  0  0  0
 12 29  1  0  0  0  0
 13 22  1  0  0  0  0
 13 27  2  0  0  0  0
 14 23  2  0  0  0  0
 14 24  1  0  0  0  0
 15 23  1  0  0  0  0
 15 30  2  0  0  0  0
 16 29  2  0  0  0  0
 16 31  1  0  0  0  0
 17 32  1  0  0  0  0
 18 32  1  0  0  0  0
 18 33  2  0  0  0  0
 18 35  1  0  0  0  0
 19 21  2  0  0  0  0
 19 40  1  0  0  0  0
 20 22  2  0  0  0  0
 20 41  1  0  0  0  0
 21 51  1  0  0  0  0
 22 42  1  0  0  0  0
 23 60  1  0  0  0  0
 24 25  2  0  0  0  0
 24 73  1  0  0  0  0
 25 30  1  0  0  0  0
 25 70  1  0  0  0  0
 26 83  1  0  0  0  0
 27 84  1  0  0  0  0
 28 31  2  0  0  0  0
 28 83  1  0  0  0  0
 29 85  1  0  0  0  0
 30 86  1  0  0  0  0
 31 87  1  0  0  0  0
 32 65  2  0  0  0  0
 33 66  1  0  0  0  0
 33 71  1  0  0  0  0
 34 43  1  0  0  0  0
 34 67  1  0  0  0  0
 34 77  2  0  0  0  0
 35 72  1  0  0  0  0
 35 78  2  0  0  0  0
 36 52  1  0  0  0  0
 36 74  1  0  0  0  0
 36 79  2  0  0  0  0
 37 62  1  0  0  0  0
 37 68  1  0  0  0  0
 37 80  2  0  0  0  0
 38 63  1  0  0  0  0
 38 75  1  0  0  0  0
 38 81  2  0  0  0  0
 39 69  1  0  0  0  0
 39 73  1  0  0  0  0
 39 82  2  0  0  0  0
 40 44  1  0  0  0  0
 41 52  1  0  0  0  0
 42 68  1  0  0  0  0
 43 45  1  0  0  0  0
 44 47  1  0  0  0  0
 45 54  1  0  0  0  0
 46 48  1  0  0  0  0
 46 49  1  0  0  0  0
 47 51  1  0  0  0  0
 48 53  1  0  0  0  0
 49 69  1  0  0  0  0
 50 53  1  0  0  0  0
 50 69  1  0  0  0  0
 51 74  1  0  0  0  0
 52 68  1  0  0  0  0
 53 66  1  0  0  0  0
 54 61  1  0  0  0  0
 54 67  1  0  0  0  0
 55 63  1  0  0  0  0
 56 64  1  0  0  0  0
 57 64  1  0  0  0  0
 58 64  1  0  0  0  0
 59 76  1  0  0  0  0
 60 67  1  0  0  0  0
 61 84  1  0  0  0  0
 62 64  1  0  0  0  0
 62 75  1  0  0  0  0
 63 76  1  0  0  0  0
 65 66  1  0  0  0  0
M  CHG  1  76   1
M  ISO  4  39 100  61 101  73 100  84 101
M  END
> <Batch ID>
0101

> <Smiles>
CNC(C)C(=O)NC(C(=O)N1Cc2cc([101O:1][101CH2:1]C3CCC(=O)N3Cc3cc(F)c(N)c([100NH:0][100C:0](=O)N4CCCC(n5nc(-c6ccc(Oc7ccc(F)cc7F)cc6)c(C(N)=O)c5N)C4)c3)ccc2CC1C(=O)NC1CCCc2ccccc21)C(C)(C)C

> <Shape>
0.274

> <Color>
0.141

> <Negative vol penalty>
0.000

$$$$

  -OEChem-04052301003D

 83 91  0     1  0  0  0  0  0999 V2000
  -24.1708   -6.7688   23.9148 C   0  0  0  0  0  0  0  0  0  0  0  0
  -25.3453   -7.5093   23.8276 C   0  0  0  0  0  0  0  0  0  0  0  0
  -23.7101  -33.0795   22.1238 C   0  0  0  0  0  0  0  0  0  0  0  0
  -25.6925  -32.3255   23.2807 C   0  0  0  0  0  0  0  0  0  0  0  0
  -23.0925   -7.0737   23.0852 C   0  0  0  0  0  0  0  0  0  0  0  0
  -25.4425   -8.5547   22.9098 C   0  0  0  0  0  0  0  0  0  0  0  0
  -28.4942  -14.9812   22.0708 C   0  0  0  0  0  0  0  0  0  0  0  0
  -23.7283  -34.2621   22.8633 C   0  0  0  0  0  0  0  0  0  0  0  0
  -25.7108  -33.5081   24.0201 C   0  0  0  0  0  0  0  0  0  0  0  0
  -29.2875  -15.6871   21.1674 C   0  0  0  0  0  0  0  0  0  0  0  0
  -26.6588  -36.7187   23.5575 C   0  0  0  0  0  0  0  0  0  0  0  0
  -27.8836  -37.3693   23.7064 C   0  0  0  0  0  0  0  0  0  0  0  0
  -27.3327  -16.1743   19.8406 C   0  0  0  0  0  0  0  0  0  0  0  0
  -28.7089  -22.4529   19.6961 C   0  0  0  0  0  0  0  0  0  0  0  0
  -26.4503  -21.9212   21.2448 C   0  0  0  0  0  0  0  0  0  0  0  0
  -27.7159  -37.1358   26.1053 C   0  0  0  0  0  0  0  0  0  0  0  0
  -24.6921  -32.1112   22.3326 C   0  0  0  0  0  0  0  0  0  0  0  0
  -25.3035  -30.6489   20.3336 C   0  0  0  0  0  0  0  0  0  0  0  0
  -23.1732   -8.1296   22.1636 C   0  0  0  0  0  0  0  0  0  0  0  0
  -27.1134  -14.8571   21.8597 C   0  0  0  0  0  0  0  0  0  0  0  0
  -24.3648   -8.8732   22.0662 C   0  0  0  0  0  0  0  0  0  0  0  0
  -26.5236  -15.4685   20.7441 C   0  0  0  0  0  0  0  0  0  0  0  0
  -27.7184  -23.4242   19.8411 C   0  0  0  0  0  0  0  0  0  0  0  0
  -26.5891  -23.1584   20.6155 C   0  0  0  0  0  0  0  0  0  0  0  0
  -27.4409  -20.9499   21.0997 C   0  0  0  0  0  0  0  0  0  0  0  0
  -24.7287  -34.4764   23.8114 C   0  0  0  0  0  0  0  0  0  0  0  0
  -28.7073  -16.2813   20.0506 C   0  0  0  0  0  0  0  0  0  0  0  0
  -25.9624  -36.2767   24.6825 C   0  0  0  0  0  0  0  0  0  0  0  0
  -28.5702  -21.2157   20.3253 C   0  0  0  0  0  0  0  0  0  0  0  0
  -28.4121  -37.5778   24.9803 C   0  0  0  0  0  0  0  0  0  0  0  0
  -26.4910  -36.4853   25.9564 C   0  0  0  0  0  0  0  0  0  0  0  0
  -24.6735  -30.8891   21.5694 C   0  0  0  0  0  0  0  0  0  0  0  0
  -24.9848  -29.3472   20.0331 C   0  0  0  0  0  0  0  0  0  0  0  0
  -26.1052  -31.5242   19.5294 C   0  0  0  0  0  0  0  0  0  0  0  0
  -25.1279  -12.4222   21.3770 C   0  0  0  0  0  0  0  0  0  0  0  0
  -22.8633  -14.7361   21.5772 C   0  0  0  0  0  0  0  0  0  0  0  0
  -22.0626  -18.0400   21.2774 C   0  0  0  0  0  0  0  0  0  0  0  0
  -24.3942  -24.0113   21.5105 C   0  0  0  0  0  0  0  0  0  0  0  0
  -21.9982   -8.3914   21.2550 C   0  0  0  0  0  0  0  0  0  0  0  0
  -26.2674  -14.1150   22.8576 C   0  0  0  0  0  0  0  0  0  0  0  0
  -25.0429  -15.3819   20.4827 C   0  0  0  0  0  0  0  0  0  0  0  0
  -22.0496   -9.7548   20.5703 C   0  0  0  0  0  0  0  0  0  0  0  0
  -21.6588  -26.1909   22.1772 C   0  0  0  0  0  0  0  0  0  0  0  0
  -23.4386  -10.0107   19.9940 C   0  0  0  0  0  0  0  0  0  0  0  0
  -22.2511  -27.5877   21.9768 C   0  0  0  0  0  0  0  0  0  0  0  0
  -22.6659  -25.2336   22.8121 C   0  0  0  0  0  0  0  0  0  0  0  0
  -24.5526  -26.5451   21.9237 C   0  0  0  0  0  0  0  0  0  0  0  0
  -24.5000  -10.0306   21.1006 C   0  0  1  0  0  0  0  0  0  0  0  0
  -24.9502  -13.6167   22.2711 C   0  0  1  0  0  0  0  0  0  0  0  0
  -23.5965  -27.5272   21.2273 C   0  0  2  0  0  0  0  0  0  0  0  0
  -27.8935  -24.7408   19.1567 C   0  0  0  0  0  0  0  0  0  0  0  0
  -20.1241  -19.6222   21.4673 C   0  0  0  0  0  0  0  0  0  0  0  0
  -21.8042  -13.7574   18.8883 C   0  0  0  0  0  0  0  0  0  0  0  0
  -20.5331  -15.9048   18.6860 C   0  0  0  0  0  0  0  0  0  0  0  0
  -20.0349  -14.3342   20.5590 C   0  0  0  0  0  0  0  0  0  0  0  0
  -23.3724  -19.5676   23.4476 C   0  0  0  0  0  0  0  0  0  0  0  0
  -30.9702  -18.8412   18.8515 C   0  0  0  0  0  0  0  0  0  0  0  0
  -30.6444  -17.6116   19.6848 C   0  0  0  0  0  0  0  0  0  1  0  0
  -29.8262  -19.8429   18.8442 C   0  0  0  0  0  0  0  0  0  0  0  0
  -22.1879  -15.6591   20.5918 C   0  0  1  0  0  0  0  0  0  0  0  0
  -21.2953  -18.9775   22.1921 C   0  0  2  0  0  0  0  0  0  0  0  0
  -21.1682  -14.9141   19.6849 C   0  0  0  0  0  0  0  0  0  0  0  0
  -24.0050  -29.8254   22.0228 N   0  0  0  0  0  0  0  0  0  0  0  0
  -24.2131  -28.9042   21.0667 N   0  0  0  0  0  0  0  0  0  0  0  0
  -24.2590  -14.6400   21.4841 N   0  0  0  0  0  0  0  0  0  0  0  0
  -23.9141  -25.2252   22.0461 N   0  0  0  0  0  0  0  0  0  0  0  0
  -27.2872  -19.7015   21.7409 N   0  0  0  0  0  0  0  0  0  0  0  0
  -25.2922  -28.5497   18.9881 N   0  0  0  0  0  0  0  0  0  0  0  0
  -26.3339  -32.8292   19.9865 N   0  0  0  0  0  0  0  0  0  0  0  0
  -25.5719  -24.1321   20.7737 N   0  0  0  0  0  0  0  0  0  0  0  0
  -24.4650  -11.2905   21.8119 N   0  0  0  0  0  0  0  0  0  0  0  0
  -21.6080  -16.7422   21.3785 N   0  0  0  0  0  0  0  0  0  0  0  0
  -22.1899  -20.0586   22.6942 N   0  3  0  0  0  0  0  0  0  0  0  0
  -26.5904  -31.1650   18.4298 O   0  0  0  0  0  0  0  0  0  0  0  0
  -25.8143  -12.5206   20.3667 O   0  0  0  0  0  0  0  0  0  0  0  0
  -22.1785  -14.1284   22.4038 O   0  0  0  0  0  0  0  0  0  0  0  0
  -22.9718  -18.4215   20.5436 O   0  0  0  0  0  0  0  0  0  0  0  0
  -23.7895  -22.9478   21.6693 O   0  0  0  0  0  0  0  0  0  0  0  0
  -24.7469  -35.6303   24.5330 O   0  0  0  0  0  0  0  0  0  0  0  0
  -29.4795  -16.9704   19.1670 O   0  0  0  0  0  0  0  0  0  1  0  0
  -29.5548  -20.2749   20.1707 O   0  0  0  0  0  0  0  0  0  0  0  0
  -29.5891  -38.2012   25.1230 F   0  0  0  0  0  0  0  0  0  0  0  0
  -25.8273  -36.0619   27.0408 F   0  0  0  0  0  0  0  0  0  0  0  0
  1  2  1  0  0  0  0
  1  5  2  0  0  0  0
  2  6  2  0  0  0  0
  3  8  2  0  0  0  0
  3 17  1  0  0  0  0
  4  9  1  0  0  0  0
  4 17  2  0  0  0  0
  5 19  1  0  0  0  0
  6 21  1  0  0  0  0
  7 10  2  0  0  0  0
  7 20  1  0  0  0  0
  8 26  1  0  0  0  0
  9 26  2  0  0  0  0
 10 27  1  0  0  0  0
 11 12  2  0  0  0  0
 11 28  1  0  0  0  0
 12 30  1  0  0  0  0
 13 22  1  0  0  0  0
 13 27  2  0  0  0  0
 14 23  2  0  0  0  0
 14 29  1  0  0  0  0
 15 24  2  0  0  0  0
 15 25  1  0  0  0  0
 16 30  2  0  0  0  0
 16 31  1  0  0  0  0
 17 32  1  0  0  0  0
 18 32  1  0  0  0  0
 18 33  2  0  0  0  0
 18 34  1  0  0  0  0
 19 21  2  0  0  0  0
 19 39  1  0  0  0  0
 20 22  2  0  0  0  0
 20 40  1  0  0  0  0
 21 48  1  0  0  0  0
 22 41  1  0  0  0  0
 23 24  1  0  0  0  0
 23 51  1  0  0  0  0
 24 70  1  0  0  0  0
 25 29  2  0  0  0  0
 25 67  1  0  0  0  0
 26 79  1  0  0  0  0
 27 80  1  0  0  0  0
 28 31  2  0  0  0  0
 28 79  1  0  0  0  0
 29 81  1  0  0  0  0
 30 82  1  0  0  0  0
 31 83  1  0  0  0  0
 32 63  2  0  0  0  0
 33 64  1  0  0  0  0
 33 68  1  0  0  0  0
 34 69  1  0  0  0  0
 34 74  2  0  0  0  0
 35 49  1  0  0  0  0
 35 71  1  0  0  0  0
 35 75  2  0  0  0  0
 36 60  1  0  0  0  0
 36 65  1  0  0  0  0
 36 76  2  0  0  0  0
 37 61  1  0  0  0  0
 37 72  1  0  0  0  0
 37 77  2  0  0  0  0
 38 66  1  0  0  0  0
 38 70  1  0  0  0  0
 38 78  2  0  0  0  0
 39 42  1  0  0  0  0
 40 49  1  0  0  0  0
 41 65  1  0  0  0  0
 42 44  1  0  0  0  0
 43 45  1  0  0  0  0
 43 46  1  0  0  0  0
 44 48  1  0  0  0  0
 45 50  1  0  0  0  0
 46 66  1  0  0  0  0
 47 50  1  0  0  0  0
 47 66  1  0  0  0  0
 48 71  1  0  0  0  0
 49 65  1  0  0  0  0
 50 64  1  0  0  0  0
 52 61  1  0  0  0  0
 53 62  1  0  0  0  0
 54 62  1  0  0  0  0
 55 62  1  0  0  0  0
 56 73  1  0  0  0  0
 57 58  1  0  0  0  0
 57 59  1  0  0  0  0
 58 80  1  0  0  0  0
 59 81  1  0  0  0  0
 60 62  1  0  0  0  0
 60 72  1  0  0  0  0
 61 73  1  0  0  0  0
 63 64  1  0  0  0  0
M  CHG  1  73   1
M  ISO  4  38 100  58 101  70 100  80 101
M  END
> <Batch ID>
0101

> <Smiles>
CNC(C)C(=O)NC(C(=O)N1Cc2cc([101O:1][101CH2:1]CCOc3cc(C)c([100NH:0][100C:0](=O)N4CCCC(n5nc(-c6ccc(Oc7ccc(F)cc7F)cc6)c(C(N)=O)c5N)C4)cc3N)ccc2CC1C(=O)NC1CCCc2ccccc21)C(C)(C)C

> <Shape>
0.258

> <Color>
0.066

> <Negative vol penalty>
0.000

$$$$

  -OEChem-04052301003D

 87 95  0     1  0  0  0  0  0999 V2000
  -25.8519  -16.5035   13.2925 C   0  0  0  0  0  0  0  0  0  0  0  0
  -26.6932  -15.7731   14.1256 C   0  0  0  0  0  0  0  0  0  0  0  0
  -26.3172  -28.0703   18.9935 C   0  0  0  0  0  0  0  0  0  0  0  0
  -26.1953  -27.1311   21.2162 C   0  0  0  0  0  0  0  0  0  0  0  0
  -24.8522  -17.3048   13.8425 C   0  0  0  0  0  0  0  0  0  0  0  0
  -26.5361  -15.8444   15.5093 C   0  0  0  0  0  0  0  0  0  0  0  0
  -27.4331  -11.3339   19.5536 C   0  0  0  0  0  0  0  0  0  0  0  0
  -25.2348  -28.9005   19.2849 C   0  0  0  0  0  0  0  0  0  0  0  0
  -25.1129  -27.9614   21.5076 C   0  0  0  0  0  0  0  0  0  0  0  0
  -28.5076  -11.0188   20.3842 C   0  0  0  0  0  0  0  0  0  0  0  0
  -24.6136  -31.1929   22.3612 C   0  0  0  0  0  0  0  0  0  0  0  0
  -24.6178  -31.8533   23.5898 C   0  0  0  0  0  0  0  0  0  0  0  0
  -30.0091  -17.4546   23.2237 C   0  0  0  0  0  0  0  0  0  0  0  0
  -29.5956  -18.0063   20.9082 C   0  0  0  0  0  0  0  0  0  0  0  0
  -27.4382  -12.1900   22.2019 C   0  0  0  0  0  0  0  0  0  0  0  0
  -22.5529  -30.7515   24.1892 C   0  0  0  0  0  0  0  0  0  0  0  0
  -26.7974  -27.1856   19.9591 C   0  0  0  0  0  0  0  0  0  0  0  0
  -30.1999  -17.1931   21.8670 C   0  0  0  0  0  0  0  0  0  0  0  0
  -29.2803  -26.6100   19.8530 C   0  0  0  0  0  0  0  0  0  0  0  0
  -24.6765  -17.3785   15.2334 C   0  0  0  0  0  0  0  0  0  0  0  0
  -26.3563  -12.0900   20.0387 C   0  0  0  0  0  0  0  0  0  0  0  0
  -25.5340  -16.6485   16.0785 C   0  0  0  0  0  0  0  0  0  0  0  0
  -26.3501  -12.5112   21.3762 C   0  0  0  0  0  0  0  0  0  0  0  0
  -28.6096  -19.3425   22.6630 C   0  0  0  0  0  0  0  0  0  0  0  0
  -29.2139  -18.5293   23.6218 C   0  0  0  0  0  0  0  0  0  0  0  0
  -28.8005  -19.0810   21.3062 C   0  0  0  0  0  0  0  0  0  0  0  0
  -24.6327  -28.8461   20.5420 C   0  0  0  0  0  0  0  0  0  0  0  0
  -28.5117  -11.4493   21.7078 C   0  0  0  0  0  0  0  0  0  0  0  0
  -23.5790  -30.3117   22.0466 C   0  0  0  0  0  0  0  0  0  0  0  0
  -23.5875  -31.6326   24.5038 C   0  0  0  0  0  0  0  0  0  0  0  0
  -22.5487  -30.0910   22.9606 C   0  0  0  0  0  0  0  0  0  0  0  0
  -27.9150  -26.3273   19.6585 C   0  0  0  0  0  0  0  0  0  0  0  0
  -29.9303  -25.4828   19.4133 C   0  0  0  0  0  0  0  0  0  0  0  0
  -31.0466  -16.0490   21.4429 C   0  0  0  0  0  0  0  0  0  0  0  0
  -29.9051  -27.7862   20.3838 C   0  0  0  0  0  0  0  0  0  0  0  0
  -25.0879  -14.9118   19.3093 C   0  0  0  0  0  0  0  0  0  0  0  0
  -22.8372  -14.0210   21.4687 C   0  0  0  0  0  0  0  0  0  0  0  0
  -31.8895  -13.8363   22.1479 C   0  0  0  0  0  0  0  0  0  0  0  0
  -22.0154  -12.1159   24.1783 C   0  0  0  0  0  0  0  0  0  0  0  0
  -28.2976  -19.7550   18.9315 C   0  0  0  0  0  0  0  0  0  0  0  0
  -23.6125  -18.2952   15.7831 C   0  0  0  0  0  0  0  0  0  0  0  0
  -25.1924  -12.3988   19.1375 C   0  0  0  0  0  0  0  0  0  0  0  0
  -25.2088  -13.3082   21.9513 C   0  0  0  0  0  0  0  0  0  0  0  0
  -23.2713  -18.0239   17.2461 C   0  0  0  0  0  0  0  0  0  0  0  0
  -29.4681  -21.8631   16.3119 C   0  0  0  0  0  0  0  0  0  0  0  0
  -24.5447  -17.8708   18.0717 C   0  0  0  0  0  0  0  0  0  0  0  0
  -29.3326  -23.2725   16.8927 C   0  0  0  0  0  0  0  0  0  0  0  0
  -28.3230  -20.9544   16.7554 C   0  0  0  0  0  0  0  0  0  0  0  0
  -27.9702  -22.3021   18.7872 C   0  0  0  0  0  0  0  0  0  0  0  0
  -25.3790  -16.6804   17.5835 C   0  0  1  0  0  0  0  0  0  0  0  0
  -24.3888  -13.6126   19.5938 C   0  0  1  0  0  0  0  0  0  0  0  0
  -29.1355  -23.2356   18.4209 C   0  0  2  0  0  0  0  0  0  0  0  0
  -27.7575  -20.4969   23.0913 C   0  0  0  0  0  0  0  0  0  0  0  0
  -20.1132  -11.6313   25.7417 C   0  0  0  0  0  0  0  0  0  0  0  0
  -23.3426  -16.6679   22.9001 C   0  0  0  0  0  0  0  0  0  0  0  0
  -22.1638  -15.7312   24.9004 C   0  0  0  0  0  0  0  0  0  0  0  0
  -20.9353  -16.0077   22.7471 C   0  0  0  0  0  0  0  0  0  0  0  0
  -21.9379   -9.2654   23.3861 C   0  0  0  0  0  0  0  0  0  0  0  0
  -31.7519  -12.8757   23.3165 C   0  0  0  0  0  0  0  0  0  0  0  0
  -31.9130  -11.4192   22.8958 C   0  0  0  0  0  0  0  0  0  0  0  0
  -30.8383  -10.9978   21.9043 C   0  0  0  0  0  0  0  0  0  1  0  0
  -22.6659  -14.1770   22.9605 C   0  0  1  0  0  0  0  0  0  0  0  0
  -20.8186  -11.2246   24.4573 C   0  0  2  0  0  0  0  0  0  0  0  0
  -22.2995  -15.6326   23.3659 C   0  0  0  0  0  0  0  0  0  0  0  0
  -27.7086  -25.1156   19.1358 N   0  0  0  0  0  0  0  0  0  0  0  0
  -28.9529  -24.6269   18.9980 N   0  0  0  0  0  0  0  0  0  0  0  0
  -24.0968  -13.5902   21.0285 N   0  0  0  0  0  0  0  0  0  0  0  0
  -28.1988  -20.9662   18.2146 N   0  0  0  0  0  0  0  0  0  0  0  0
  -29.0336  -18.7779   25.0004 N   0  0  0  0  0  0  0  0  0  0  0  0
  -31.2369  -25.1501   19.3452 N   0  0  0  0  0  0  0  0  0  0  0  0
  -29.0891  -28.8515   20.7884 N   0  0  0  0  0  0  0  0  0  0  0  0
  -28.1967  -19.8943   20.3154 N   0  0  0  0  0  0  0  0  0  0  0  0
  -31.1241  -14.9885   22.3441 N   0  0  0  0  0  0  0  0  0  0  0  0
  -24.8131  -15.4369   18.0610 N   0  0  0  0  0  0  0  0  0  0  0  0
  -21.6823  -13.1784   23.3650 N   0  0  0  0  0  0  0  0  0  0  0  0
  -21.2500   -9.8041   24.5876 N   0  3  0  0  0  0  0  0  0  0  0  0
  -31.6364  -16.1082   20.3674 O   0  0  0  0  0  0  0  0  0  0  0  0
  -31.1509  -27.8960   20.4808 O   0  0  0  0  0  0  0  0  0  0  0  0
  -25.8211  -15.4024   20.1599 O   0  0  0  0  0  0  0  0  0  0  0  0
  -21.8862  -14.2654   20.7220 O   0  0  0  0  0  0  0  0  0  0  0  0
  -32.5894  -13.6052   21.1659 O   0  0  0  0  0  0  0  0  0  0  0  0
  -23.1330  -11.8940   24.6390 O   0  0  0  0  0  0  0  0  0  0  0  0
  -28.4869  -18.6772   18.3619 O   0  0  0  0  0  0  0  0  0  0  0  0
  -23.5767  -29.6562   20.8268 O   0  0  0  0  0  0  0  0  0  0  0  0
  -29.5595  -11.1437   22.5205 O   0  0  0  0  0  0  0  0  0  1  0  0
  -23.5925  -32.2658   25.6841 F   0  0  0  0  0  0  0  0  0  0  0  0
  -21.5527  -29.2448   22.6644 F   0  0  0  0  0  0  0  0  0  0  0  0
  1  2  1  0  0  0  0
  1  5  2  0  0  0  0
  2  6  2  0  0  0  0
  3  8  2  0  0  0  0
  3 17  1  0  0  0  0
  4  9  1  0  0  0  0
  4 17  2  0  0  0  0
  5 20  1  0  0  0  0
  6 22  1  0  0  0  0
  7 10  2  0  0  0  0
  7 21  1  0  0  0  0
  8 27  1  0  0  0  0
  9 27  2  0  0  0  0
 10 28  1  0  0  0  0
 11 12  2  0  0  0  0
 11 29  1  0  0  0  0
 12 30  1  0  0  0  0
 13 18  1  0  0  0  0
 13 25  2  0  0  0  0
 14 18  2  0  0  0  0
 14 26  1  0  0  0  0
 15 23  1  0  0  0  0
 15 28  2  0  0  0  0
 16 30  2  0  0  0  0
 16 31  1  0  0  0  0
 17 32  1  0  0  0  0
 18 34  1  0  0  0  0
 19 32  1  0  0  0  0
 19 33  2  0  0  0  0
 19 35  1  0  0  0  0
 20 22  2  0  0  0  0
 20 41  1  0  0  0  0
 21 23  2  0  0  0  0
 21 42  1  0  0  0  0
 22 50  1  0  0  0  0
 23 43  1  0  0  0  0
 24 25  1  0  0  0  0
 24 26  2  0  0  0  0
 24 53  1  0  0  0  0
 25 69  1  0  0  0  0
 26 72  1  0  0  0  0
 27 84  1  0  0  0  0
 28 85  1  0  0  0  0
 29 31  2  0  0  0  0
 29 84  1  0  0  0  0
 30 86  1  0  0  0  0
 31 87  1  0  0  0  0
 32 65  2  0  0  0  0
 33 66  1  0  0  0  0
 33 70  1  0  0  0  0
 34 73  1  0  0  0  0
 34 77  2  0  0  0  0
 35 71  1  0  0  0  0
 35 78  2  0  0  0  0
 36 51  1  0  0  0  0
 36 74  1  0  0  0  0
 36 79  2  0  0  0  0
 37 62  1  0  0  0  0
 37 67  1  0  0  0  0
 37 80  2  0  0  0  0
 38 59  1  0  0  0  0
 38 73  1  0  0  0  0
 38 81  2  0  0  0  0
 39 63  1  0  0  0  0
 39 75  1  0  0  0  0
 39 82  2  0  0  0  0
 40 68  1  0  0  0  0
 40 72  1  0  0  0  0
 40 83  2  0  0  0  0
 41 44  1  0  0  0  0
 42 51  1  0  0  0  0
 43 67  1  0  0  0  0
 44 46  1  0  0  0  0
 45 47  1  0  0  0  0
 45 48  1  0  0  0  0
 46 50  1  0  0  0  0
 47 52  1  0  0  0  0
 48 68  1  0  0  0  0
 49 52  1  0  0  0  0
 49 68  1  0  0  0  0
 50 74  1  0  0  0  0
 51 67  1  0  0  0  0
 52 66  1  0  0  0  0
 54 63  1  0  0  0  0
 55 64  1  0  0  0  0
 56 64  1  0  0  0  0
 57 64  1  0  0  0  0
 58 76  1  0  0  0  0
 59 60  1  0  0  0  0
 60 61  1  0  0  0  0
 61 85  1  0  0  0  0
 62 64  1  0  0  0  0
 62 75  1  0  0  0  0
 63 76  1  0  0  0  0
 65 66  1  0  0  0  0
M  CHG  1  76   1
M  ISO  4  40 100  61 101  72 100  85 101
M  END
> <Batch ID>
0101

> <Smiles>
CNC(C)C(=O)NC(C(=O)N1Cc2cc([101O:1][101CH2:1]CCC(=O)NC(=O)c3cc(N)c(C)c([100NH:0][100C:0](=O)N4CCCC(n5nc(-c6ccc(Oc7ccc(F)cc7F)cc6)c(C(N)=O)c5N)C4)c3)ccc2CC1C(=O)NC1CCCc2ccccc21)C(C)(C)C

> <Shape>
0.246

> <Color>
0.079

> <Negative vol penalty>
0.000

$$$$

  -OEChem-04052301003D

 85 93  0     1  0  0  0  0  0999 V2000
  -25.6387  -28.9939   20.5631 C   0  0  0  0  0  0  0  0  0  0  0  0
  -24.9172  -27.9108   21.0548 C   0  0  0  0  0  0  0  0  0  0  0  0
  -28.4971  -13.4564   21.3239 C   0  0  0  0  0  0  0  0  0  0  0  0
  -28.2187  -13.1787   18.9401 C   0  0  0  0  0  0  0  0  0  0  0  0
  -26.6924  -28.7826   19.6749 C   0  0  0  0  0  0  0  0  0  0  0  0
  -25.2483  -26.6158   20.6576 C   0  0  0  0  0  0  0  0  0  0  0  0
  -24.9162  -21.5268   24.0484 C   0  0  0  0  0  0  0  0  0  0  0  0
  -22.9109  -11.9372   25.3906 C   0  0  0  0  0  0  0  0  0  0  0  0
  -22.5745  -13.2792   25.2136 C   0  0  0  0  0  0  0  0  0  0  0  0
  -29.8668  -13.6468   21.1417 C   0  0  0  0  0  0  0  0  0  0  0  0
  -29.5884  -13.3691   18.7579 C   0  0  0  0  0  0  0  0  0  0  0  0
  -23.9591  -20.5166   24.1326 C   0  0  0  0  0  0  0  0  0  0  0  0
  -32.4220  -11.5552   19.0915 C   0  0  0  0  0  0  0  0  0  0  0  0
  -33.0888  -10.6828   18.2313 C   0  0  0  0  0  0  0  0  0  0  0  0
  -25.2395  -19.1827   22.5832 C   0  0  0  0  0  0  0  0  0  0  0  0
  -21.2599  -11.3061   23.7435 C   0  0  0  0  0  0  0  0  0  0  0  0
  -33.7334  -12.5489   16.8386 C   0  0  0  0  0  0  0  0  0  0  0  0
  -27.6730  -13.2223   20.2230 C   0  0  0  0  0  0  0  0  0  0  0  0
  -25.2549  -14.0126   20.4125 C   0  0  0  0  0  0  0  0  0  0  0  0
  -27.0428  -27.4837   19.2741 C   0  0  0  0  0  0  0  0  0  0  0  0
  -26.0385  -21.3769   23.2212 C   0  0  0  0  0  0  0  0  0  0  0  0
  -26.3068  -26.3871   19.7621 C   0  0  0  0  0  0  0  0  0  0  0  0
  -26.2107  -20.1915   22.4923 C   0  0  0  0  0  0  0  0  0  0  0  0
  -22.2536  -10.9506   24.6555 C   0  0  0  0  0  0  0  0  0  0  0  0
  -21.5808  -13.6347   24.3016 C   0  0  0  0  0  0  0  0  0  0  0  0
  -30.4125  -13.6032   19.8587 C   0  0  0  0  0  0  0  0  0  0  0  0
  -24.1192  -19.3455   23.3977 C   0  0  0  0  0  0  0  0  0  0  0  0
  -32.4108  -12.9244   18.8252 C   0  0  0  0  0  0  0  0  0  0  0  0
  -33.7446  -11.1796   17.1049 C   0  0  0  0  0  0  0  0  0  0  0  0
  -20.9235  -12.6481   23.5665 C   0  0  0  0  0  0  0  0  0  0  0  0
  -33.0666  -13.4212   17.6988 C   0  0  0  0  0  0  0  0  0  0  0  0
  -26.2581  -13.0249   20.4106 C   0  0  0  0  0  0  0  0  0  0  0  0
  -24.0898  -13.3181   20.6287 C   0  0  0  0  0  0  0  0  0  0  0  0
  -25.3662  -15.4309   20.2347 C   0  0  0  0  0  0  0  0  0  0  0  0
  -27.1767  -22.9162   20.6838 C   0  0  0  0  0  0  0  0  0  0  0  0
  -29.6921  -20.9066   21.0793 C   0  0  0  0  0  0  0  0  0  0  0  0
  -21.7924  -16.1002   24.7712 C   0  0  0  0  0  0  0  0  0  0  0  0
  -30.8701  -17.9442   22.2973 C   0  0  0  0  0  0  0  0  0  0  0  0
  -22.4961   -8.5988   23.8179 C   0  0  0  0  0  0  0  0  0  0  0  0
  -28.1592  -27.3084   18.2753 C   0  0  0  0  0  0  0  0  0  0  0  0
  -27.0754  -22.4649   23.1621 C   0  0  0  0  0  0  0  0  0  0  0  0
  -27.4081  -19.9728   21.6053 C   0  0  0  0  0  0  0  0  0  0  0  0
  -28.6862  -25.8780   18.1956 C   0  0  0  0  0  0  0  0  0  0  0  0
  -22.6460   -8.6272   20.1206 C   0  0  0  0  0  0  0  0  0  0  0  0
  -27.5296  -24.8864   18.1194 C   0  0  0  0  0  0  0  0  0  0  0  0
  -23.5706   -9.8072   19.8276 C   0  0  0  0  0  0  0  0  0  0  0  0
  -22.9599   -7.9825   21.4673 C   0  0  0  0  0  0  0  0  0  0  0  0
  -23.8616  -10.1290   22.3162 C   0  0  0  0  0  0  0  0  0  0  0  0
  -26.6515  -24.9655   19.3741 C   0  0  1  0  0  0  0  0  0  0  0  0
  -27.9187  -22.4181   21.8917 C   0  0  1  0  0  0  0  0  0  0  0  0
  -23.5392  -10.8209   20.9833 C   0  0  1  0  0  0  0  0  0  0  0  0
  -21.5156   -8.8401   26.9291 C   0  0  0  0  0  0  0  0  0  0  0  0
  -32.9601  -16.5621   22.4338 C   0  0  0  0  0  0  0  0  0  0  0  0
  -29.3474  -20.1011   18.1566 C   0  0  0  0  0  0  0  0  0  0  0  0
  -30.7798  -18.0988   18.6120 C   0  0  0  0  0  0  0  0  0  0  0  0
  -31.7219  -20.3924   18.8853 C   0  0  0  0  0  0  0  0  0  0  0  0
  -30.8736  -18.0319   25.2555 C   0  0  0  0  0  0  0  0  0  0  0  0
  -21.1366  -17.3871   24.2834 C   0  0  0  0  0  0  0  0  0  0  0  0
  -22.8223   -9.0868   26.2026 C   0  0  0  0  0  0  0  0  0  0  0  0
  -22.0680  -18.5887   24.3337 C   0  0  0  0  0  0  0  0  0  1  0  0
  -30.0502  -19.5297   20.5744 C   0  0  1  0  0  0  0  0  0  0  0  0
  -32.1011  -17.6120   23.1211 C   0  0  2  0  0  0  0  0  0  0  0  0
  -30.4512  -19.5351   19.0722 C   0  0  0  0  0  0  0  0  0  0  0  0
  -25.7728  -11.7966   20.6099 N   0  0  0  0  0  0  0  0  0  0  0  0
  -24.4519  -12.0078   20.7392 N   0  0  0  0  0  0  0  0  0  0  0  0
  -28.3910  -21.0685   21.5761 N   0  0  0  0  0  0  0  0  0  0  0  0
  -22.9858   -8.9689   22.5485 N   0  0  0  0  0  0  0  0  0  0  0  0
  -22.8012  -13.7065   20.7332 N   0  0  0  0  0  0  0  0  0  0  0  0
  -26.6383  -15.9799   20.0229 N   0  0  0  0  0  0  0  0  0  0  0  0
  -21.2413  -14.9971   24.1245 N   0  0  0  0  0  0  0  0  0  0  0  0
  -27.2855  -24.2784   20.4788 N   0  0  0  0  0  0  0  0  0  0  0  0
  -31.0868  -19.0241   21.4678 N   0  0  0  0  0  0  0  0  0  0  0  0
  -22.6009   -9.5626   24.8389 N   0  0  0  0  0  0  0  0  0  0  0  0
  -31.7036  -17.0912   24.4596 N   0  3  0  0  0  0  0  0  0  0  0  0
  -24.3692  -16.1908   20.2792 O   0  0  0  0  0  0  0  0  0  0  0  0
  -26.5529  -22.1231   19.9884 O   0  0  0  0  0  0  0  0  0  0  0  0
  -30.5381  -21.8036   21.0411 O   0  0  0  0  0  0  0  0  0  0  0  0
  -22.6783  -16.0998   25.6194 O   0  0  0  0  0  0  0  0  0  0  0  0
  -29.8223  -17.3070   22.3786 O   0  0  0  0  0  0  0  0  0  0  0  0
  -22.0471   -7.4679   24.0418 O   0  0  0  0  0  0  0  0  0  0  0  0
  -31.7490  -13.7892   19.6806 O   0  0  0  0  0  0  0  0  0  0  0  0
  -23.1861  -18.3581   23.4775 O   0  0  0  0  0  0  0  0  0  1  0  0
  -34.3862  -10.3420   16.2798 F   0  0  0  0  0  0  0  0  0  0  0  0
  -19.9656  -12.9780   22.6882 F   0  0  0  0  0  0  0  0  0  0  0  0
  -33.0603  -14.7357   17.4385 F   0  0  0  0  0  0  0  0  0  0  0  0
  1  2  1  0  0  0  0
  1  5  2  0  0  0  0
  2  6  2  0  0  0  0
  3 10  2  0  0  0  0
  3 18  1  0  0  0  0
  4 11  1  0  0  0  0
  4 18  2  0  0  0  0
  5 20  1  0  0  0  0
  6 22  1  0  0  0  0
  7 12  2  0  0  0  0
  7 21  1  0  0  0  0
  8  9  2  0  0  0  0
  8 24  1  0  0  0  0
  9 25  1  0  0  0  0
 10 26  1  0  0  0  0
 11 26  2  0  0  0  0
 12 27  1  0  0  0  0
 13 14  2  0  0  0  0
 13 28  1  0  0  0  0
 14 29  1  0  0  0  0
 15 23  1  0  0  0  0
 15 27  2  0  0  0  0
 16 24  2  0  0  0  0
 16 30  1  0  0  0  0
 17 29  2  0  0  0  0
 17 31  1  0  0  0  0
 18 32  1  0  0  0  0
 19 32  1  0  0  0  0
 19 33  2  0  0  0  0
 19 34  1  0  0  0  0
 20 22  2  0  0  0  0
 20 40  1  0  0  0  0
 21 23  2  0  0  0  0
 21 41  1  0  0  0  0
 22 49  1  0  0  0  0
 23 42  1  0  0  0  0
 24 73  1  0  0  0  0
 25 30  2  0  0  0  0
 25 70  1  0  0  0  0
 26 81  1  0  0  0  0
 27 82  1  0  0  0  0
 28 31  2  0  0  0  0
 28 81  1  0  0  0  0
 29 83  1  0  0  0  0
 30 84  1  0  0  0  0
 31 85  1  0  0  0  0
 32 64  2  0  0  0  0
 33 65  1  0  0  0  0
 33 68  1  0  0  0  0
 34 69  1  0  0  0  0
 34 75  2  0  0  0  0
 35 50  1  0  0  0  0
 35 71  1  0  0  0  0
 35 76  2  0  0  0  0
 36 61  1  0  0  0  0
 36 66  1  0  0  0  0
 36 77  2  0  0  0  0
 37 58  1  0  0  0  0
 37 70  1  0  0  0  0
 37 78  2  0  0  0  0
 38 62  1  0  0  0  0
 38 72  1  0  0  0  0
 38 79  2  0  0  0  0
 39 67  1  0  0  0  0
 39 73  1  0  0  0  0
 39 80  2  0  0  0  0
 40 43  1  0  0  0  0
 41 50  1  0  0  0  0
 42 66  1  0  0  0  0
 43 45  1  0  0  0  0
 44 46  1  0  0  0  0
 44 47  1  0  0  0  0
 45 49  1  0  0  0  0
 46 51  1  0  0  0  0
 47 67  1  0  0  0  0
 48 51  1  0  0  0  0
 48 67  1  0  0  0  0
 49 71  1  0  0  0  0
 50 66  1  0  0  0  0
 51 65  1  0  0  0  0
 52 59  1  0  0  0  0
 53 62  1  0  0  0  0
 54 63  1  0  0  0  0
 55 63  1  0  0  0  0
 56 63  1  0  0  0  0
 57 74  1  0  0  0  0
 58 60  1  0  0  0  0
 59 73  1  0  0  0  0
 60 82  1  0  0  0  0
 61 63  1  0  0  0  0
 61 72  1  0  0  0  0
 62 74  1  0  0  0  0
 64 65  1  0  0  0  0
M  CHG  1  74   1
M  ISO  4  39 100  60 101  73 100  82 101
M  END
> <Batch ID>
0101

> <Smiles>
CC[100N:0](c1ccc(NC(=O)C[101CH2:1][101O:1]c2ccc3c(c2)CN(C(=O)C(NC(=O)C(C)NC)C(C)(C)C)C(C(=O)NC2CCCc4ccccc42)C3)c(F)c1)[100C:0](=O)N1CCCC(n2nc(-c3ccc(Oc4ccc(F)cc4F)cc3)c(C(N)=O)c2N)C1

> <Shape>
0.210

> <Color>
0.105

> <Negative vol penalty>
0.000

$$$$

  -OEChem-04052301003D

 85 94  0     1  0  0  0  0  0999 V2000
  -26.5036  -38.2104   22.9297 C   0  0  0  0  0  0  0  0  0  0  0  0
  -27.2046  -37.2964   22.1496 C   0  0  0  0  0  0  0  0  0  0  0  0
  -22.6428  -12.0585   18.8165 C   0  0  0  0  0  0  0  0  0  0  0  0
  -23.3461  -10.0357   19.9348 C   0  0  0  0  0  0  0  0  0  0  0  0
  -25.7187  -37.7617   23.9911 C   0  0  0  0  0  0  0  0  0  0  0  0
  -27.1220  -35.9332   22.4312 C   0  0  0  0  0  0  0  0  0  0  0  0
  -27.1902  -29.5477   19.1849 C   0  0  0  0  0  0  0  0  0  0  0  0
  -30.7289  -20.4040   22.1595 C   0  0  0  0  0  0  0  0  0  0  0  0
  -30.5719  -19.0235   22.0370 C   0  0  0  0  0  0  0  0  0  0  0  0
  -21.6637  -11.3393   18.1313 C   0  0  0  0  0  0  0  0  0  0  0  0
  -22.3669   -9.3164   19.2497 C   0  0  0  0  0  0  0  0  0  0  0  0
  -27.8388  -28.3151   19.2464 C   0  0  0  0  0  0  0  0  0  0  0  0
  -18.5881  -10.0876   18.7695 C   0  0  0  0  0  0  0  0  0  0  0  0
  -17.3107  -10.6424   18.6930 C   0  0  0  0  0  0  0  0  0  0  0  0
  -26.3889  -27.6493   21.0558 C   0  0  0  0  0  0  0  0  0  0  0  0
  -29.1681  -20.7424   20.3466 C   0  0  0  0  0  0  0  0  0  0  0  0
  -17.4615  -10.6574   16.2817 C   0  0  0  0  0  0  0  0  0  0  0  0
  -23.4841  -11.4067   19.7183 C   0  0  0  0  0  0  0  0  0  0  0  0
  -24.3642  -12.7915   21.6716 C   0  0  0  0  0  0  0  0  0  0  0  0
  -25.6188  -36.3916   24.2799 C   0  0  0  0  0  0  0  0  0  0  0  0
  -26.1416  -29.8450   20.0672 C   0  0  0  0  0  0  0  0  0  0  0  0
  -26.3362  -35.4659   23.4983 C   0  0  0  0  0  0  0  0  0  0  0  0
  -25.7270  -28.8854   21.0017 C   0  0  0  0  0  0  0  0  0  0  0  0
  -29.0111  -19.3618   20.2241 C   0  0  0  0  0  0  0  0  0  0  0  0
  -30.0269  -21.2635   21.3144 C   0  0  0  0  0  0  0  0  0  0  0  0
  -29.7130  -18.5024   21.0693 C   0  0  0  0  0  0  0  0  0  0  0  0
  -21.5257   -9.9682   18.3479 C   0  0  0  0  0  0  0  0  0  0  0  0
  -27.4401  -27.3668   20.1838 C   0  0  0  0  0  0  0  0  0  0  0  0
  -19.3023   -9.8177   17.6021 C   0  0  0  0  0  0  0  0  0  0  0  0
  -16.7473  -10.9273   17.4491 C   0  0  0  0  0  0  0  0  0  0  0  0
  -18.7390  -10.1025   16.3582 C   0  0  0  0  0  0  0  0  0  0  0  0
  -24.4962  -12.1490   20.4259 C   0  0  0  0  0  0  0  0  0  0  0  0
  -25.5984  -13.3478   21.9034 C   0  0  0  0  0  0  0  0  0  0  0  0
  -29.8527  -24.9146   21.2091 C   0  0  0  0  0  0  0  0  0  0  0  0
  -29.1567  -26.0479   21.0695 C   0  0  0  0  0  0  0  0  0  1  0  0
  -23.2276  -12.8777   22.5413 C   0  0  0  0  0  0  0  0  0  0  0  0
  -25.6642  -32.0253   22.3304 C   0  0  0  0  0  0  0  0  0  0  0  0
  -22.6862  -30.7408   22.3944 C   0  0  0  0  0  0  0  0  0  0  0  0
  -20.6753  -28.0552   21.7694 C   0  0  0  0  0  0  0  0  0  0  0  0
  -29.8858  -16.3886   19.7665 C   0  0  0  0  0  0  0  0  0  0  0  0
  -24.7954  -35.9580   25.4668 C   0  0  0  0  0  0  0  0  0  0  0  0
  -25.4346  -31.1691   19.9703 C   0  0  0  0  0  0  0  0  0  0  0  0
  -24.5933  -29.1477   21.9579 C   0  0  0  0  0  0  0  0  0  0  0  0
  -31.0447  -24.7406   22.0961 C   0  0  0  0  0  0  0  0  0  0  0  0
  -29.4854  -23.5983   20.5926 C   0  0  0  0  0  0  0  0  0  0  0  0
  -24.4639  -34.4679   25.4665 C   0  0  0  0  0  0  0  0  0  0  0  0
  -30.0138  -12.7087   19.5392 C   0  0  0  0  0  0  0  0  0  0  0  0
  -25.7086  -33.6442   25.1516 C   0  0  0  0  0  0  0  0  0  0  0  0
  -28.5625  -12.3015   19.7878 C   0  0  0  0  0  0  0  0  0  0  0  0
  -30.9595  -23.2701   22.4950 C   0  0  0  0  0  0  0  0  0  0  0  0
  -30.1128  -14.0841   18.8863 C   0  0  0  0  0  0  0  0  0  0  0  0
  -27.9477  -14.7505   19.8856 C   0  0  0  0  0  0  0  0  0  0  0  0
  -26.2523  -33.9772   23.7570 C   0  0  1  0  0  0  0  0  0  0  0  0
  -24.7186  -31.5599   21.2594 C   0  0  1  0  0  0  0  0  0  0  0  0
  -27.8162  -13.3875   20.5819 C   0  0  1  0  0  0  0  0  0  0  0  0
  -28.0833  -18.8315   19.1796 C   0  0  0  0  0  0  0  0  0  0  0  0
  -18.2925  -27.2917   21.9602 C   0  0  0  0  0  0  0  0  0  0  0  0
  -23.0529  -30.3552   25.3988 C   0  0  0  0  0  0  0  0  0  0  0  0
  -21.1131  -28.7728   25.3620 C   0  0  0  0  0  0  0  0  0  0  0  0
  -20.7849  -31.1608   24.7196 C   0  0  0  0  0  0  0  0  0  0  0  0
  -29.3033  -16.2987   22.1794 C   0  0  0  0  0  0  0  0  0  0  0  0
  -20.4457  -27.6612   18.8452 C   0  0  0  0  0  0  0  0  0  0  0  0
  -22.0240  -29.6140   23.1498 C   0  0  1  0  0  0  0  0  0  0  0  0
  -19.3354  -27.9424   21.0649 C   0  0  2  0  0  0  0  0  0  0  0  0
  -21.7664  -29.9712   24.6410 C   0  0  0  0  0  0  0  0  0  0  0  0
  -25.7178  -12.2840   19.9030 N   0  0  0  0  0  0  0  0  0  0  0  0
  -26.3647  -13.0178   20.8245 N   0  0  0  0  0  0  0  0  0  0  0  0
  -30.1821  -22.6305   21.4362 N   0  0  3  0  0  0  0  0  0  0  0  0
  -23.9376  -30.4595   21.8282 N   0  0  0  0  0  0  0  0  0  0  0  0
  -29.3574  -15.0886   19.6361 N   0  0  0  0  0  0  0  0  0  0  0  0
  -26.0921  -14.0822   22.9229 N   0  0  0  0  0  0  0  0  0  0  0  0
  -22.0378  -12.2487   22.1502 N   0  0  0  0  0  0  0  0  0  0  0  0
  -25.4563  -33.3297   22.7364 N   0  0  0  0  0  0  0  0  0  0  0  0
  -20.8196  -29.2726   22.4006 N   0  0  0  0  0  0  0  0  0  0  0  0
  -29.5631  -17.0705   20.9597 N   0  0  0  0  0  0  0  0  0  0  0  0
  -19.4685  -27.1238   19.8267 N   0  3  0  0  0  0  0  0  0  0  0  0
  -23.2612  -13.5081   23.6252 O   0  0  0  0  0  0  0  0  0  0  0  0
  -26.5181  -31.2574   22.7578 O   0  0  0  0  0  0  0  0  0  0  0  0
  -22.1110  -31.8283   22.3037 O   0  0  0  0  0  0  0  0  0  0  0  0
  -21.5090  -27.1521   21.7637 O   0  0  0  0  0  0  0  0  0  0  0  0
  -30.6123  -16.8876   18.8988 O   0  0  0  0  0  0  0  0  0  0  0  0
  -20.5702   -9.2661   17.6796 O   0  0  0  0  0  0  0  0  0  0  0  0
  -28.0718  -26.1631   20.2463 O   0  0  0  0  0  0  0  0  0  1  0  0
  -15.5200  -11.4587   17.3758 F   0  0  0  0  0  0  0  0  0  0  0  0
  -19.4198   -9.8444   15.2332 F   0  0  0  0  0  0  0  0  0  0  0  0
  1  2  1  0  0  0  0
  1  5  2  0  0  0  0
  2  6  2  0  0  0  0
  3 10  2  0  0  0  0
  3 18  1  0  0  0  0
  4 11  1  0  0  0  0
  4 18  2  0  0  0  0
  5 20  1  0  0  0  0
  6 22  1  0  0  0  0
  7 12  2  0  0  0  0
  7 21  1  0  0  0  0
  8  9  2  0  0  0  0
  8 25  1  0  0  0  0
  9 26  1  0  0  0  0
 10 27  1  0  0  0  0
 11 27  2  0  0  0  0
 12 28  1  0  0  0  0
 13 14  2  0  0  0  0
 13 29  1  0  0  0  0
 14 30  1  0  0  0  0
 15 23  1  0  0  0  0
 15 28  2  0  0  0  0
 16 24  1  0  0  0  0
 16 25  2  0  0  0  0
 17 30  2  0  0  0  0
 17 31  1  0  0  0  0
 18 32  1  0  0  0  0
 19 32  1  0  0  0  0
 19 33  2  0  0  0  0
 19 36  1  0  0  0  0
 20 22  2  0  0  0  0
 20 41  1  0  0  0  0
 21 23  2  0  0  0  0
 21 42  1  0  0  0  0
 22 53  1  0  0  0  0
 23 43  1  0  0  0  0
 24 26  2  0  0  0  0
 24 56  1  0  0  0  0
 25 68  1  0  0  0  0
 26 75  1  0  0  0  0
 27 82  1  0  0  0  0
 28 83  1  0  0  0  0
 29 31  2  0  0  0  0
 29 82  1  0  0  0  0
 30 84  1  0  0  0  0
 31 85  1  0  0  0  0
 32 66  2  0  0  0  0
 33 67  1  0  0  0  0
 33 71  1  0  0  0  0
 34 35  2  0  0  0  0
 34 44  1  0  0  0  0
 34 45  1  0  0  0  0
 35 83  1  0  0  0  0
 36 72  1  0  0  0  0
 36 77  2  0  0  0  0
 37 54  1  0  0  0  0
 37 73  1  0  0  0  0
 37 78  2  0  0  0  0
 38 63  1  0  0  0  0
 38 69  1  0  0  0  0
 38 79  2  0  0  0  0
 39 64  1  0  0  0  0
 39 74  1  0  0  0  0
 39 80  2  0  0  0  0
 40 70  1  0  0  0  0
 40 75  1  0  0  0  0
 40 81  2  0  0  0  0
 41 46  1  0  0  0  0
 42 54  1  0  0  0  0
 43 69  1  0  0  0  0
 44 50  1  0  0  0  0
 45 68  1  0  0  0  0
 46 48  1  0  0  0  0
 47 49  1  0  0  0  0
 47 51  1  0  0  0  0
 48 53  1  0  0  0  0
 49 55  1  0  0  0  0
 50 68  1  0  0  0  0
 51 70  1  0  0  0  0
 52 55  1  0  0  0  0
 52 70  1  0  0  0  0
 53 73  1  0  0  0  0
 54 69  1  0  0  0  0
 55 67  1  0  0  0  0
 57 64  1  0  0  0  0
 58 65  1  0  0  0  0
 59 65  1  0  0  0  0
 60 65  1  0  0  0  0
 61 75  1  0  0  0  0
 62 76  1  0  0  0  0
 63 65  1  0  0  0  0
 63 74  1  0  0  0  0
 64 76  1  0  0  0  0
 66 67  1  0  0  0  0
M  CHG  1  76   1
M  ISO  4  35 101  40 100  75 100  83 101
M  END
> <Batch ID>
0101

> <Smiles>
CNC(C)C(=O)NC(C(=O)N1Cc2cc([101O:1][101CH:1]=C3CCN(c4ccc([100N:0](C)[100C:0](=O)N5CCCC(n6nc(-c7ccc(Oc8ccc(F)cc8F)cc7)c(C(N)=O)c6N)C5)c(C)c4)C3)ccc2CC1C(=O)NC1CCCc2ccccc21)C(C)(C)C

> <Shape>
0.325

> <Color>
0.111

> <Negative vol penalty>
0.000

$$$$

  -OEChem-04052301003D

 88 96  0     1  0  0  0  0  0999 V2000
  -23.7772  -21.6518   22.8172 C   0  0  0  0  0  0  0  0  0  0  0  0
  -24.7165  -21.1218   23.6959 C   0  0  0  0  0  0  0  0  0  0  0  0
  -28.6734  -18.1009   24.7711 C   0  0  0  0  0  0  0  0  0  0  0  0
  -23.0725   -9.8688   19.9443 C   0  0  0  0  0  0  0  0  0  0  0  0
  -23.8344   -9.8790   22.2370 C   0  0  0  0  0  0  0  0  0  0  0  0
  -24.1957  -22.4203   21.7317 C   0  0  0  0  0  0  0  0  0  0  0  0
  -26.0749  -21.3590   23.4890 C   0  0  0  0  0  0  0  0  0  0  0  0
  -30.3775  -22.1058   27.7827 C   0  0  0  0  0  0  0  0  0  0  0  0
  -29.0682  -17.7076   23.4924 C   0  0  0  0  0  0  0  0  0  0  0  0
  -29.5974  -18.1043   25.8161 C   0  0  0  0  0  0  0  0  0  0  0  0
  -22.3291   -8.7158   20.1965 C   0  0  0  0  0  0  0  0  0  0  0  0
  -23.0910   -8.7261   22.4892 C   0  0  0  0  0  0  0  0  0  0  0  0
  -31.3182  -21.2341   28.3295 C   0  0  0  0  0  0  0  0  0  0  0  0
  -19.3823   -7.9206   21.6514 C   0  0  0  0  0  0  0  0  0  0  0  0
  -18.0750   -7.8735   21.1674 C   0  0  0  0  0  0  0  0  0  0  0  0
  -32.9749  -22.0619   26.7838 C   0  0  0  0  0  0  0  0  0  0  0  0
  -31.3108  -17.3210   24.3037 C   0  0  0  0  0  0  0  0  0  0  0  0
  -18.6339   -5.9287   19.8473 C   0  0  0  0  0  0  0  0  0  0  0  0
  -23.8252  -10.4504   20.9645 C   0  0  0  0  0  0  0  0  0  0  0  0
  -24.1665  -12.9754   20.8407 C   0  0  0  0  0  0  0  0  0  0  0  0
  -25.5593  -22.6751   21.5168 C   0  0  0  0  0  0  0  0  0  0  0  0
  -30.7261  -22.9558   26.7232 C   0  0  0  0  0  0  0  0  0  0  0  0
  -26.5121  -22.1304   22.3988 C   0  0  0  0  0  0  0  0  0  0  0  0
  -32.0375  -22.9453   26.2270 C   0  0  0  0  0  0  0  0  0  0  0  0
  -30.3869  -17.3176   23.2587 C   0  0  0  0  0  0  0  0  0  0  0  0
  -30.9161  -17.7143   25.5824 C   0  0  0  0  0  0  0  0  0  0  0  0
  -22.3383   -8.1445   21.4689 C   0  0  0  0  0  0  0  0  0  0  0  0
  -32.6164  -21.2100   27.8282 C   0  0  0  0  0  0  0  0  0  0  0  0
  -20.3155   -6.9719   21.2334 C   0  0  0  0  0  0  0  0  0  0  0  0
  -17.7008   -6.8775   20.2654 C   0  0  0  0  0  0  0  0  0  0  0  0
  -19.9413   -5.9759   20.3314 C   0  0  0  0  0  0  0  0  0  0  0  0
  -24.5939  -11.6410   20.7044 C   0  0  0  0  0  0  0  0  0  0  0  0
  -25.2582  -13.7246   20.4754 C   0  0  0  0  0  0  0  0  0  0  0  0
  -22.8962  -13.4916   21.2600 C   0  0  0  0  0  0  0  0  0  0  0  0
  -29.7590  -23.3039   23.7154 C   0  0  0  0  0  0  0  0  0  0  0  0
  -31.7342  -25.8760   23.7883 C   0  0  0  0  0  0  0  0  0  0  0  0
  -33.1981  -17.3630   26.5880 C   0  0  0  0  0  0  0  0  0  0  0  0
  -34.4348  -27.4161   25.1962 C   0  0  0  0  0  0  0  0  0  0  0  0
  -30.7419  -14.7450   20.6576 C   0  0  0  0  0  0  0  0  0  0  0  0
  -25.9664  -23.4720   20.3028 C   0  0  0  0  0  0  0  0  0  0  0  0
  -29.7070  -23.9092   26.1622 C   0  0  0  0  0  0  0  0  0  0  0  0
  -32.4678  -23.8522   25.1041 C   0  0  0  0  0  0  0  0  0  0  0  0
  -27.4013  -23.9891   20.3668 C   0  0  0  0  0  0  0  0  0  0  0  0
  -29.6026  -12.3570   18.2751 C   0  0  0  0  0  0  0  0  0  0  0  0
  -28.3487  -22.8808   20.8147 C   0  0  0  0  0  0  0  0  0  0  0  0
  -28.1656  -12.0636   18.7097 C   0  0  0  0  0  0  0  0  0  0  0  0
  -30.5208  -12.5796   19.4749 C   0  0  0  0  0  0  0  0  0  0  0  0
  -28.6201  -13.3122   20.8621 C   0  0  0  0  0  0  0  0  0  0  0  0
  -27.9931  -22.3863   22.2220 C   0  0  1  0  0  0  0  0  0  0  0  0
  -30.0328  -24.3651   24.7433 C   0  0  1  0  0  0  0  0  0  0  0  0
  -27.6449  -13.1358   19.6856 C   0  0  2  0  0  0  0  0  0  0  0  0
  -35.8322  -29.4929   25.0189 C   0  0  0  0  0  0  0  0  0  0  0  0
  -31.0905  -20.2403   19.8369 C   0  0  0  0  0  0  0  0  0  0  0  0
  -32.9023  -19.0217   21.0564 C   0  0  0  0  0  0  0  0  0  0  0  0
  -33.0905  -24.7479   21.2988 C   0  0  0  0  0  0  0  0  0  0  0  0
  -35.0101  -26.2969   21.7277 C   0  0  0  0  0  0  0  0  0  0  0  0
  -32.7409  -27.2240   21.2649 C   0  0  0  0  0  0  0  0  0  0  0  0
  -33.7632  -28.2434   27.9573 C   0  0  0  0  0  0  0  0  0  0  0  0
  -33.8457  -17.5121   27.9577 C   0  0  0  0  0  0  0  0  0  0  0  0
  -35.0032  -18.5046   27.9553 C   0  0  0  0  0  0  0  0  0  0  0  0
  -30.5904  -17.9699   20.7918 C   0  0  0  0  0  0  0  0  0  0  0  0
  -34.5606  -19.8835   27.4877 C   0  0  0  0  0  0  0  0  0  1  0  0
  -30.8084  -16.8973   21.8915 C   0  0  2  0  0  0  0  0  0  0  0  0
  -33.1951  -26.1109   23.4891 C   0  0  1  0  0  0  0  0  0  0  0  0
  -34.6386  -28.8356   25.6941 C   0  0  2  0  0  0  0  0  0  0  0  0
  -31.3956  -19.2723   20.9839 C   0  0  0  0  0  0  0  0  0  0  0  0
  -33.5008  -26.0764   21.9650 C   0  0  0  0  0  0  0  0  0  0  0  0
  -25.8584  -11.5449   20.2852 N   0  0  0  0  0  0  0  0  0  0  0  0
  -26.2349  -12.8283   20.1548 N   0  0  0  0  0  0  0  0  0  0  0  0
  -31.4334  -24.7620   24.5847 N   0  0  0  0  0  0  0  0  0  0  0  0
  -29.9708  -13.6093   20.3599 N   0  0  0  0  0  0  0  0  0  0  0  0
  -25.4682  -15.0560   20.4004 N   0  0  0  0  0  0  0  0  0  0  0  0
  -21.8848  -12.5827   21.5994 N   0  0  0  0  0  0  0  0  0  0  0  0
  -31.8533  -17.7185   26.6427 N   0  0  0  0  0  0  0  0  0  0  0  0
  -28.4688  -23.3193   23.2208 N   0  0  0  0  0  0  0  0  0  0  0  0
  -33.5485  -27.3673   24.1410 N   0  0  0  0  0  0  0  0  0  0  0  0
  -30.1433  -15.6749   21.4989 N   0  0  0  0  0  0  0  0  0  0  0  0
  -34.8703  -28.8398   27.1663 N   0  3  0  0  0  0  0  0  0  0  0  0
  -22.6598  -14.7222   21.3159 O   0  0  0  0  0  0  0  0  0  0  0  0
  -30.6526  -22.5295   23.3937 O   0  0  0  0  0  0  0  0  0  0  0  0
  -30.8916  -26.6565   23.3382 O   0  0  0  0  0  0  0  0  0  0  0  0
  -33.8277  -16.9773   25.6086 O   0  0  0  0  0  0  0  0  0  0  0  0
  -35.0075  -26.4479   25.6911 O   0  0  0  0  0  0  0  0  0  0  0  0
  -31.8774  -14.9201   20.2027 O   0  0  0  0  0  0  0  0  0  0  0  0
  -21.6128   -7.0196   21.7154 O   0  0  0  0  0  0  0  0  0  0  0  0
  -33.5363  -20.3597   28.3597 O   0  0  0  0  0  0  0  0  0  1  0  0
  -16.4449   -6.8314   19.8019 F   0  0  0  0  0  0  0  0  0  0  0  0
  -20.8330   -5.0610   19.9270 F   0  0  0  0  0  0  0  0  0  0  0  0
  1  2  1  0  0  0  0
  1  6  2  0  0  0  0
  2  7  2  0  0  0  0
  3  9  1  0  0  0  0
  3 10  2  0  0  0  0
  4 11  2  0  0  0  0
  4 19  1  0  0  0  0
  5 12  1  0  0  0  0
  5 19  2  0  0  0  0
  6 21  1  0  0  0  0
  7 23  1  0  0  0  0
  8 13  2  0  0  0  0
  8 22  1  0  0  0  0
  9 25  2  0  0  0  0
 10 26  1  0  0  0  0
 11 27  1  0  0  0  0
 12 27  2  0  0  0  0
 13 28  1  0  0  0  0
 14 15  2  0  0  0  0
 14 29  1  0  0  0  0
 15 30  1  0  0  0  0
 16 24  1  0  0  0  0
 16 28  2  0  0  0  0
 17 25  1  0  0  0  0
 17 26  2  0  0  0  0
 18 30  2  0  0  0  0
 18 31  1  0  0  0  0
 19 32  1  0  0  0  0
 20 32  1  0  0  0  0
 20 33  2  0  0  0  0
 20 34  1  0  0  0  0
 21 23  2  0  0  0  0
 21 40  1  0  0  0  0
 22 24  2  0  0  0  0
 22 41  1  0  0  0  0
 23 49  1  0  0  0  0
 24 42  1  0  0  0  0
 25 63  1  0  0  0  0
 26 74  1  0  0  0  0
 27 85  1  0  0  0  0
 28 86  1  0  0  0  0
 29 31  2  0  0  0  0
 29 85  1  0  0  0  0
 30 87  1  0  0  0  0
 31 88  1  0  0  0  0
 32 68  2  0  0  0  0
 33 69  1  0  0  0  0
 33 72  1  0  0  0  0
 34 73  1  0  0  0  0
 34 79  2  0  0  0  0
 35 50  1  0  0  0  0
 35 75  1  0  0  0  0
 35 80  2  0  0  0  0
 36 64  1  0  0  0  0
 36 70  1  0  0  0  0
 36 81  2  0  0  0  0
 37 59  1  0  0  0  0
 37 74  1  0  0  0  0
 37 82  2  0  0  0  0
 38 65  1  0  0  0  0
 38 76  1  0  0  0  0
 38 83  2  0  0  0  0
 39 71  1  0  0  0  0
 39 77  1  0  0  0  0
 39 84  2  0  0  0  0
 40 43  1  0  0  0  0
 41 50  1  0  0  0  0
 42 70  1  0  0  0  0
 43 45  1  0  0  0  0
 44 46  1  0  0  0  0
 44 47  1  0  0  0  0
 45 49  1  0  0  0  0
 46 51  1  0  0  0  0
 47 71  1  0  0  0  0
 48 51  1  0  0  0  0
 48 71  1  0  0  0  0
 49 75  1  0  0  0  0
 50 70  1  0  0  0  0
 51 69  1  0  0  0  0
 52 65  1  0  0  0  0
 53 66  1  0  0  0  0
 54 66  1  0  0  0  0
 55 67  1  0  0  0  0
 56 67  1  0  0  0  0
 57 67  1  0  0  0  0
 58 78  1  0  0  0  0
 59 60  1  0  0  0  0
 60 62  1  0  0  0  0
 61 63  1  0  0  0  0
 61 66  1  0  0  0  0
 62 86  1  0  0  0  0
 63 77  1  0  0  0  0
 64 67  1  0  0  0  0
 64 76  1  0  0  0  0
 65 78  1  0  0  0  0
 68 69  1  0  0  0  0
M  CHG  1  78   1
M  ISO  4  39 100  62 101  77 100  86 101
M  END
> <Batch ID>
0101

> <Smiles>
CNC(C)C(=O)NC(C(=O)N1Cc2cc([101O:1][101CH2:1]CCC(=O)Nc3cccc(C(CC(C)C)[100NH:0][100C:0](=O)N4CCCC(n5nc(-c6ccc(Oc7ccc(F)cc7F)cc6)c(C(N)=O)c5N)C4)c3)ccc2CC1C(=O)NC1CCCc2ccccc21)C(C)(C)C

> <Shape>
0.164

> <Color>
0.187

> <Negative vol penalty>
0.000

$$$$

  -OEChem-04052301003D

 84 92  0     1  0  0  0  0  0999 V2000
  -25.1915  -19.6967   15.3641 C   0  0  0  0  0  0  0  0  0  0  0  0
  -26.1705  -18.7914   15.7578 C   0  0  0  0  0  0  0  0  0  0  0  0
  -24.7411  -30.9444   21.0958 C   0  0  0  0  0  0  0  0  0  0  0  0
  -24.9795  -29.6780   23.1394 C   0  0  0  0  0  0  0  0  0  0  0  0
  -28.1486  -18.6835   20.6269 C   0  0  0  0  0  0  0  0  0  0  0  0
  -23.9408  -19.6756   15.9778 C   0  0  0  0  0  0  0  0  0  0  0  0
  -25.8953  -17.8570   16.7568 C   0  0  0  0  0  0  0  0  0  0  0  0
  -29.3178  -14.4283   17.6139 C   0  0  0  0  0  0  0  0  0  0  0  0
  -27.4114  -19.7661   20.1473 C   0  0  0  0  0  0  0  0  0  0  0  0
  -24.1143  -31.9696   21.8041 C   0  0  0  0  0  0  0  0  0  0  0  0
  -24.3527  -30.7032   23.8478 C   0  0  0  0  0  0  0  0  0  0  0  0
  -30.5292  -14.7132   18.2424 C   0  0  0  0  0  0  0  0  0  0  0  0
  -25.0301  -34.5301   23.8136 C   0  0  0  0  0  0  0  0  0  0  0  0
  -25.4296  -35.8398   23.5480 C   0  0  0  0  0  0  0  0  0  0  0  0
  -29.9655  -20.1717   21.1935 C   0  0  0  0  0  0  0  0  0  0  0  0
  -29.6980  -13.7242   20.2796 C   0  0  0  0  0  0  0  0  0  0  0  0
  -23.1770  -36.3891   22.8687 C   0  0  0  0  0  0  0  0  0  0  0  0
  -25.1736  -29.7985   21.7634 C   0  0  0  0  0  0  0  0  0  0  0  0
  -29.4257  -18.8863   21.1501 C   0  0  0  0  0  0  0  0  0  0  0  0
  -27.1988  -28.5963   20.7832 C   0  0  0  0  0  0  0  0  0  0  0  0
  -23.6551  -18.7483   16.9934 C   0  0  0  0  0  0  0  0  0  0  0  0
  -28.2817  -13.7980   18.3178 C   0  0  0  0  0  0  0  0  0  0  0  0
  -24.6313  -17.8041   17.3716 C   0  0  0  0  0  0  0  0  0  0  0  0
  -28.4753  -13.4302   19.6570 C   0  0  0  0  0  0  0  0  0  0  0  0
  -27.9513  -21.0515   20.1906 C   0  0  0  0  0  0  0  0  0  0  0  0
  -23.9202  -31.8490   23.1801 C   0  0  0  0  0  0  0  0  0  0  0  0
  -30.7184  -14.3638   19.5763 C   0  0  0  0  0  0  0  0  0  0  0  0
  -23.7041  -34.1498   23.6068 C   0  0  0  0  0  0  0  0  0  0  0  0
  -24.5031  -36.7693   23.0756 C   0  0  0  0  0  0  0  0  0  0  0  0
  -29.2284  -21.2543   20.7138 C   0  0  0  0  0  0  0  0  0  0  0  0
  -22.7775  -35.0793   23.1344 C   0  0  0  0  0  0  0  0  0  0  0  0
  -25.8206  -28.7389   21.0322 C   0  0  0  0  0  0  0  0  0  0  0  0
  -27.2978  -27.4366   20.0540 C   0  0  0  0  0  0  0  0  0  0  0  0
  -30.2108  -17.7331   21.6609 C   0  0  0  0  0  0  0  0  0  0  0  0
  -28.2919  -29.4369   21.1761 C   0  0  0  0  0  0  0  0  0  0  0  0
  -25.3136  -14.5942   19.1305 C   0  0  0  0  0  0  0  0  0  0  0  0
  -25.1987  -11.5314   20.1928 C   0  0  0  0  0  0  0  0  0  0  0  0
  -26.8923   -8.7849   21.3043 C   0  0  0  0  0  0  0  0  0  0  0  0
  -25.9194  -22.1179   19.1512 C   0  0  0  0  0  0  0  0  0  0  0  0
  -22.2824  -18.7645   17.6183 C   0  0  0  0  0  0  0  0  0  0  0  0
  -26.9905  -13.4736   17.6178 C   0  0  0  0  0  0  0  0  0  0  0  0
  -27.4017  -12.7335   20.4512 C   0  0  0  0  0  0  0  0  0  0  0  0
  -22.2315  -18.0416   18.9604 C   0  0  0  0  0  0  0  0  0  0  0  0
  -23.7170  -24.6041   17.8684 C   0  0  0  0  0  0  0  0  0  0  0  0
  -22.8792  -16.6705   18.8371 C   0  0  0  0  0  0  0  0  0  0  0  0
  -24.1813  -25.8898   18.5566 C   0  0  0  0  0  0  0  0  0  0  0  0
  -23.8176  -23.3954   18.7972 C   0  0  0  0  0  0  0  0  0  0  0  0
  -25.5974  -24.4838   20.1075 C   0  0  0  0  0  0  0  0  0  0  0  0
  -24.3648  -16.7987   18.4773 C   0  0  1  0  0  0  0  0  0  0  0  0
  -25.8194  -13.2915   18.5784 C   0  0  1  0  0  0  0  0  0  0  0  0
  -25.5757  -25.7177   19.1905 C   0  0  2  0  0  0  0  0  0  0  0  0
  -26.5235   -6.4450   22.1327 C   0  0  0  0  0  0  0  0  0  0  0  0
  -24.2831  -12.6322   22.8872 C   0  0  0  0  0  0  0  0  0  0  0  0
  -24.8457  -10.4153   23.9055 C   0  0  0  0  0  0  0  0  0  0  0  0
  -23.0865  -10.5660   22.1434 C   0  0  0  0  0  0  0  0  0  0  0  0
  -28.4524   -7.6250   19.0728 C   0  0  0  0  0  0  0  0  0  0  0  0
  -33.3903  -16.3804   20.9083 C   0  0  0  0  0  0  0  0  0  0  0  0
  -32.4880  -16.8288   22.0515 C   0  0  0  0  0  0  0  0  0  0  0  0
  -32.6163  -15.7880   19.7365 C   0  0  0  0  0  0  0  0  0  1  0  0
  -25.5152  -10.8394   21.4966 C   0  0  1  0  0  0  0  0  0  0  0  0
  -26.7983   -7.3195   20.9192 C   0  0  2  0  0  0  0  0  0  0  0  0
  -24.4523  -11.1281   22.5940 C   0  0  0  0  0  0  0  0  0  0  0  0
  -25.0960  -27.7490   20.5038 N   0  0  0  0  0  0  0  0  0  0  0  0
  -26.0225  -26.9733   19.9156 N   0  0  0  0  0  0  0  0  0  0  0  0
  -26.1548  -12.4436   19.7242 N   0  0  0  0  0  0  0  0  0  0  0  0
  -25.1670  -23.2937   19.3570 N   0  0  0  0  0  0  0  0  0  0  0  0
  -28.3504  -26.7781   19.5241 N   0  0  0  0  0  0  0  0  0  0  0  0
  -28.0132  -30.5901   21.9223 N   0  0  0  0  0  0  0  0  0  0  0  0
  -27.2001  -22.1491   19.7020 N   0  0  0  0  0  0  0  0  0  0  0  0
  -31.5902  -17.8707   21.6149 N   0  0  0  0  0  0  0  0  0  0  0  0
  -24.8898  -15.4876   18.1653 N   0  0  0  0  0  0  0  0  0  0  0  0
  -25.6773   -9.4247   21.1791 N   0  0  0  0  0  0  0  0  0  0  0  0
  -28.0718   -6.8661   20.2919 N   0  3  0  0  0  0  0  0  0  0  0  0
  -29.6185  -16.7368   22.0670 O   0  0  0  0  0  0  0  0  0  0  0  0
  -29.4788  -29.1819   20.8603 O   0  0  0  0  0  0  0  0  0  0  0  0
  -25.3069  -14.7748   20.3425 O   0  0  0  0  0  0  0  0  0  0  0  0
  -24.1453  -11.2668   19.6079 O   0  0  0  0  0  0  0  0  0  0  0  0
  -27.9380   -9.3086   21.6820 O   0  0  0  0  0  0  0  0  0  0  0  0
  -25.4713  -21.1649   18.5085 O   0  0  0  0  0  0  0  0  0  0  0  0
  -23.3089  -32.8493   23.8717 O   0  0  0  0  0  0  0  0  0  0  0  0
  -31.8997  -14.6413   20.1923 O   0  0  0  0  0  0  0  0  0  1  0  0
  -24.8865  -38.0274   22.8220 F   0  0  0  0  0  0  0  0  0  0  0  0
  -29.7579  -22.4854   20.7601 F   0  0  0  0  0  0  0  0  0  0  0  0
  -21.5020  -34.7202   22.9348 F   0  0  0  0  0  0  0  0  0  0  0  0
  1  2  1  0  0  0  0
  1  6  2  0  0  0  0
  2  7  2  0  0  0  0
  3 10  2  0  0  0  0
  3 18  1  0  0  0  0
  4 11  1  0  0  0  0
  4 18  2  0  0  0  0
  5  9  2  0  0  0  0
  5 19  1  0  0  0  0
  6 21  1  0  0  0  0
  7 23  1  0  0  0  0
  8 12  2  0  0  0  0
  8 22  1  0  0  0  0
  9 25  1  0  0  0  0
 10 26  1  0  0  0  0
 11 26  2  0  0  0  0
 12 27  1  0  0  0  0
 13 14  2  0  0  0  0
 13 28  1  0  0  0  0
 14 29  1  0  0  0  0
 15 19  2  0  0  0  0
 15 30  1  0  0  0  0
 16 24  1  0  0  0  0
 16 27  2  0  0  0  0
 17 29  2  0  0  0  0
 17 31  1  0  0  0  0
 18 32  1  0  0  0  0
 19 34  1  0  0  0  0
 20 32  1  0  0  0  0
 20 33  2  0  0  0  0
 20 35  1  0  0  0  0
 21 23  2  0  0  0  0
 21 40  1  0  0  0  0
 22 24  2  0  0  0  0
 22 41  1  0  0  0  0
 23 49  1  0  0  0  0
 24 42  1  0  0  0  0
 25 30  2  0  0  0  0
 25 69  1  0  0  0  0
 26 80  1  0  0  0  0
 27 81  1  0  0  0  0
 28 31  2  0  0  0  0
 28 80  1  0  0  0  0
 29 82  1  0  0  0  0
 30 83  1  0  0  0  0
 31 84  1  0  0  0  0
 32 63  2  0  0  0  0
 33 64  1  0  0  0  0
 33 67  1  0  0  0  0
 34 70  1  0  0  0  0
 34 74  2  0  0  0  0
 35 68  1  0  0  0  0
 35 75  2  0  0  0  0
 36 50  1  0  0  0  0
 36 71  1  0  0  0  0
 36 76  2  0  0  0  0
 37 60  1  0  0  0  0
 37 65  1  0  0  0  0
 37 77  2  0  0  0  0
 38 61  1  0  0  0  0
 38 72  1  0  0  0  0
 38 78  2  0  0  0  0
 39 66  1  0  0  0  0
 39 69  1  0  0  0  0
 39 79  2  0  0  0  0
 40 43  1  0  0  0  0
 41 50  1  0  0  0  0
 42 65  1  0  0  0  0
 43 45  1  0  0  0  0
 44 46  1  0  0  0  0
 44 47  1  0  0  0  0
 45 49  1  0  0  0  0
 46 51  1  0  0  0  0
 47 66  1  0  0  0  0
 48 51  1  0  0  0  0
 48 66  1  0  0  0  0
 49 71  1  0  0  0  0
 50 65  1  0  0  0  0
 51 64  1  0  0  0  0
 52 61  1  0  0  0  0
 53 62  1  0  0  0  0
 54 62  1  0  0  0  0
 55 62  1  0  0  0  0
 56 73  1  0  0  0  0
 57 58  1  0  0  0  0
 57 59  1  0  0  0  0
 58 70  1  0  0  0  0
 59 81  1  0  0  0  0
 60 62  1  0  0  0  0
 60 72  1  0  0  0  0
 61 73  1  0  0  0  0
 63 64  1  0  0  0  0
M  CHG  1  73   1
M  ISO  4  39 100  59 101  69 100  81 101
M  END
> <Batch ID>
0101

> <Smiles>
CNC(C)C(=O)NC(C(=O)N1Cc2cc([101O:1][101CH2:1]CCNC(=O)c3ccc([100NH:0][100C:0](=O)N4CCCC(n5nc(-c6ccc(Oc7ccc(F)cc7F)cc6)c(C(N)=O)c5N)C4)c(F)c3)ccc2CC1C(=O)NC1CCCc2ccccc21)C(C)(C)C

> <Shape>
0.252

> <Color>
0.079

> <Negative vol penalty>
0.000

$$$$

  -OEChem-04052301003D

 84 92  0     1  0  0  0  0  0999 V2000
  -29.7791  -24.2229   17.4412 C   0  0  0  0  0  0  0  0  0  0  0  0
  -28.5258  -24.7701   17.6917 C   0  0  0  0  0  0  0  0  0  0  0  0
  -24.6599  -12.2538   20.7529 C   0  0  0  0  0  0  0  0  0  0  0  0
  -23.4015  -13.7805   22.1395 C   0  0  0  0  0  0  0  0  0  0  0  0
  -30.8420  -24.5042   18.2970 C   0  0  0  0  0  0  0  0  0  0  0  0
  -28.3378  -25.6083   18.7912 C   0  0  0  0  0  0  0  0  0  0  0  0
  -23.9704  -27.8396   19.1796 C   0  0  0  0  0  0  0  0  0  0  0  0
  -24.3978  -11.2206   21.6525 C   0  0  0  0  0  0  0  0  0  0  0  0
  -23.1392  -12.7472   23.0391 C   0  0  0  0  0  0  0  0  0  0  0  0
  -22.8041  -27.1584   19.5253 C   0  0  0  0  0  0  0  0  0  0  0  0
  -23.7564   -8.0980   23.3998 C   0  0  0  0  0  0  0  0  0  0  0  0
  -23.3638   -6.8662   22.8762 C   0  0  0  0  0  0  0  0  0  0  0  0
  -25.2142  -22.5886   20.6647 C   0  0  0  0  0  0  0  0  0  0  0  0
  -22.9418  -28.0668   21.7557 C   0  0  0  0  0  0  0  0  0  0  0  0
  -22.4734  -22.1588   20.3717 C   0  0  0  0  0  0  0  0  0  0  0  0
  -21.4376   -7.9123   21.8599 C   0  0  0  0  0  0  0  0  0  0  0  0
  -24.1618  -13.5338   20.9964 C   0  0  0  0  0  0  0  0  0  0  0  0
  -24.7390  -21.8130   19.6072 C   0  0  0  0  0  0  0  0  0  0  0  0
  -23.6584  -14.9760   18.9533 C   0  0  0  0  0  0  0  0  0  0  0  0
  -30.6630  -25.3363   19.4144 C   0  0  0  0  0  0  0  0  0  0  0  0
  -24.6383  -28.6322   20.1242 C   0  0  0  0  0  0  0  0  0  0  0  0
  -29.4038  -25.9235   19.6532 C   0  0  0  0  0  0  0  0  0  0  0  0
  -24.1149  -28.7591   21.4188 C   0  0  0  0  0  0  0  0  0  0  0  0
  -23.3686  -21.5981   19.4607 C   0  0  0  0  0  0  0  0  0  0  0  0
  -24.3190  -23.1492   21.5757 C   0  0  0  0  0  0  0  0  0  0  0  0
  -23.6374  -11.4673   22.7956 C   0  0  0  0  0  0  0  0  0  0  0  0
  -22.2912  -27.2696   20.8143 C   0  0  0  0  0  0  0  0  0  0  0  0
  -22.9896   -9.2369   23.1536 C   0  0  0  0  0  0  0  0  0  0  0  0
  -22.9486  -22.9343   21.4292 C   0  0  0  0  0  0  0  0  0  0  0  0
  -22.2044   -6.7734   22.1062 C   0  0  0  0  0  0  0  0  0  0  0  0
  -21.8302   -9.1440   22.3836 C   0  0  0  0  0  0  0  0  0  0  0  0
  -24.4328  -14.6017   20.0678 C   0  0  0  0  0  0  0  0  0  0  0  0
  -24.3374  -16.0360   18.4039 C   0  0  0  0  0  0  0  0  0  0  0  0
  -25.6957  -21.2359   18.6726 C   0  0  0  0  0  0  0  0  0  0  0  0
  -22.4348  -14.4156   18.4589 C   0  0  0  0  0  0  0  0  0  0  0  0
  -27.0651  -20.8697   19.1013 C   0  0  0  0  0  0  0  0  0  0  0  0
  -27.5197  -28.5748   21.4651 C   0  0  0  0  0  0  0  0  0  0  0  0
  -26.5500  -31.3916   22.7488 C   0  0  0  0  0  0  0  0  0  0  0  0
  -23.9628  -33.4091   23.6885 C   0  0  0  0  0  0  0  0  0  0  0  0
  -31.8496  -25.6137   20.3033 C   0  0  0  0  0  0  0  0  0  0  0  0
  -25.8806  -29.3819   19.7278 C   0  0  0  0  0  0  0  0  0  0  0  0
  -24.7829  -29.6135   22.4640 C   0  0  0  0  0  0  0  0  0  0  0  0
  -31.4523  -26.1453   21.6766 C   0  0  0  0  0  0  0  0  0  0  0  0
  -28.9628  -17.8363   19.3342 C   0  0  0  0  0  0  0  0  0  0  0  0
  -30.4654  -27.2930   21.5241 C   0  0  0  0  0  0  0  0  0  0  0  0
  -27.8897  -16.7599   19.4936 C   0  0  0  0  0  0  0  0  0  0  0  0
  -28.5555  -19.1365   20.0198 C   0  0  0  0  0  0  0  0  0  0  0  0
  -26.1543  -18.5930   19.7245 C   0  0  0  0  0  0  0  0  0  0  0  0
  -29.1683  -26.8133   20.8603 C   0  0  1  0  0  0  0  0  0  0  0  0
  -26.7611  -29.7507   20.9178 C   0  0  1  0  0  0  0  0  0  0  0  0
  -26.5179  -17.2736   19.0214 C   0  0  2  0  0  0  0  0  0  0  0  0
  -22.8335  -20.7702   18.3382 C   0  0  0  0  0  0  0  0  0  0  0  0
  -23.4833  -35.6352   24.7431 C   0  0  0  0  0  0  0  0  0  0  0  0
  -27.2608  -30.2454   25.4858 C   0  0  0  0  0  0  0  0  0  0  0  0
  -25.9079  -32.0769   26.5267 C   0  0  0  0  0  0  0  0  0  0  0  0
  -27.9144  -32.6365   25.1544 C   0  0  0  0  0  0  0  0  0  0  0  0
  -22.5478  -34.3774   21.2762 C   0  0  0  0  0  0  0  0  0  0  0  0
  -20.1653  -24.9452   22.6000 C   0  0  0  0  0  0  0  0  0  0  0  0
  -21.0204  -26.1997   22.5162 C   0  0  0  0  0  0  0  0  0  1  0  0
  -20.7637  -23.7946   21.8060 C   0  0  0  0  0  0  0  0  0  0  0  0
  -25.8228  -31.7988   24.0075 C   0  0  1  0  0  0  0  0  0  0  0  0
  -23.6917  -34.8817   23.4386 C   0  0  2  0  0  0  0  0  0  0  0  0
  -26.7147  -31.6717   25.2747 C   0  0  0  0  0  0  0  0  0  0  0  0
  -25.5205  -15.3620   20.2187 N   0  0  0  0  0  0  0  0  0  0  0  0
  -25.4189  -21.0039   17.4191 N   0  0  0  0  0  0  0  0  0  0  0  0
  -25.4346  -16.2246   19.1918 N   0  0  0  0  0  0  0  0  0  0  0  0
  -27.2343  -19.5766   19.5761 N   0  0  0  0  0  0  0  0  0  0  0  0
  -25.9983  -30.3218   22.0298 N   0  0  0  0  0  0  0  0  0  0  0  0
  -24.8135  -23.9326   22.6415 N   0  0  0  0  0  0  0  0  0  0  0  0
  -24.0970  -16.8158   17.3284 N   0  0  0  0  0  0  0  0  0  0  0  0
  -21.8728  -13.3294   19.1434 N   0  0  0  0  0  0  0  0  0  0  0  0
  -28.3473  -27.9613   20.5442 N   0  0  0  0  0  0  0  0  0  0  0  0
  -25.3138  -33.1448   23.7676 N   0  0  0  0  0  0  0  0  0  0  0  0
  -22.4716  -35.0486   22.5994 N   0  3  0  0  0  0  0  0  0  0  0  0
  -21.8656  -14.8544   17.4307 O   0  0  0  0  0  0  0  0  0  0  0  0
  -27.9061  -21.7522   18.9907 O   0  0  0  0  0  0  0  0  0  0  0  0
  -27.3667  -28.2493   22.6365 O   0  0  0  0  0  0  0  0  0  0  0  0
  -27.5659  -32.0049   22.4120 O   0  0  0  0  0  0  0  0  0  0  0  0
  -23.0658  -32.5772   23.8058 O   0  0  0  0  0  0  0  0  0  0  0  0
  -23.3812  -10.4592   23.6735 O   0  0  0  0  0  0  0  0  0  0  0  0
  -21.1533  -26.6053   21.1545 O   0  0  0  0  0  0  0  0  0  1  0  0
  -22.0530  -23.4778   22.3131 O   0  0  0  0  0  0  0  0  0  0  0  0
  -21.8283   -5.5907   21.6021 F   0  0  0  0  0  0  0  0  0  0  0  0
  -21.0901  -10.2349   22.1427 F   0  0  0  0  0  0  0  0  0  0  0  0
  1  2  1  0  0  0  0
  1  5  2  0  0  0  0
  2  6  2  0  0  0  0
  3  8  2  0  0  0  0
  3 17  1  0  0  0  0
  4  9  1  0  0  0  0
  4 17  2  0  0  0  0
  5 20  1  0  0  0  0
  6 22  1  0  0  0  0
  7 10  2  0  0  0  0
  7 21  1  0  0  0  0
  8 26  1  0  0  0  0
  9 26  2  0  0  0  0
 10 27  1  0  0  0  0
 11 12  2  0  0  0  0
 11 28  1  0  0  0  0
 12 30  1  0  0  0  0
 13 18  2  0  0  0  0
 13 25  1  0  0  0  0
 14 23  1  0  0  0  0
 14 27  2  0  0  0  0
 15 24  2  0  0  0  0
 15 29  1  0  0  0  0
 16 30  2  0  0  0  0
 16 31  1  0  0  0  0
 17 32  1  0  0  0  0
 18 24  1  0  0  0  0
 18 34  1  0  0  0  0
 19 32  1  0  0  0  0
 19 33  2  0  0  0  0
 19 35  1  0  0  0  0
 20 22  2  0  0  0  0
 20 40  1  0  0  0  0
 21 23  2  0  0  0  0
 21 41  1  0  0  0  0
 22 49  1  0  0  0  0
 23 42  1  0  0  0  0
 24 52  1  0  0  0  0
 25 29  2  0  0  0  0
 25 69  1  0  0  0  0
 26 80  1  0  0  0  0
 27 81  1  0  0  0  0
 28 31  2  0  0  0  0
 28 80  1  0  0  0  0
 29 82  1  0  0  0  0
 30 83  1  0  0  0  0
 31 84  1  0  0  0  0
 32 64  2  0  0  0  0
 33 66  1  0  0  0  0
 33 70  1  0  0  0  0
 34 36  1  0  0  0  0
 34 65  2  0  0  0  0
 35 71  1  0  0  0  0
 35 75  2  0  0  0  0
 36 67  1  0  0  0  0
 36 76  2  0  0  0  0
 37 50  1  0  0  0  0
 37 72  1  0  0  0  0
 37 77  2  0  0  0  0
 38 61  1  0  0  0  0
 38 68  1  0  0  0  0
 38 78  2  0  0  0  0
 39 62  1  0  0  0  0
 39 73  1  0  0  0  0
 39 79  2  0  0  0  0
 40 43  1  0  0  0  0
 41 50  1  0  0  0  0
 42 68  1  0  0  0  0
 43 45  1  0  0  0  0
 44 46  1  0  0  0  0
 44 47  1  0  0  0  0
 45 49  1  0  0  0  0
 46 51  1  0  0  0  0
 47 67  1  0  0  0  0
 48 51  1  0  0  0  0
 48 67  1  0  0  0  0
 49 72  1  0  0  0  0
 50 68  1  0  0  0  0
 51 66  1  0  0  0  0
 53 62  1  0  0  0  0
 54 63  1  0  0  0  0
 55 63  1  0  0  0  0
 56 63  1  0  0  0  0
 57 74  1  0  0  0  0
 58 59  1  0  0  0  0
 58 60  1  0  0  0  0
 59 81  1  0  0  0  0
 60 82  1  0  0  0  0
 61 63  1  0  0  0  0
 61 73  1  0  0  0  0
 62 74  1  0  0  0  0
 64 66  1  0  0  0  0
M  CHG  1  74   1
M  ISO  4  34 100  36 100  59 101  81 101
M  END
> <Batch ID>
0101

> <Smiles>
CNC(C)C(=O)NC(C(=O)N1Cc2cc([101O:1][101CH2:1]CCOc3cc(C)c([100C:0](=N)[100C:0](=O)N4CCCC(n5nc(-c6ccc(Oc7ccc(F)cc7F)cc6)c(C(N)=O)c5N)C4)cc3N)ccc2CC1C(=O)NC1CCCc2ccccc21)C(C)(C)C

> <Shape>
0.277

> <Color>
0.063

> <Negative vol penalty>
0.000

$$$$

  -OEChem-04052301003D

 88 97  0     1  0  0  0  0  0999 V2000
  -16.8706  -29.6866   23.9305 C   0  0  0  0  0  0  0  0  0  0  0  0
  -17.7952  -29.4312   24.9381 C   0  0  0  0  0  0  0  0  0  0  0  0
  -26.5450  -13.5706   21.1892 C   0  0  0  0  0  0  0  0  0  0  0  0
  -24.1485  -13.8670   21.2674 C   0  0  0  0  0  0  0  0  0  0  0  0
  -26.6215  -22.5811   23.6006 C   0  0  0  0  0  0  0  0  0  0  0  0
  -28.9977  -22.1515   23.6777 C   0  0  0  0  0  0  0  0  0  0  0  0
  -17.1063  -29.2249   22.6362 C   0  0  0  0  0  0  0  0  0  0  0  0
  -18.9557  -28.7129   24.6522 C   0  0  0  0  0  0  0  0  0  0  0  0
  -25.8428  -28.2404   26.5656 C   0  0  0  0  0  0  0  0  0  0  0  0
  -26.5974  -22.6978   24.9903 C   0  0  0  0  0  0  0  0  0  0  0  0
  -28.9737  -22.2683   25.0675 C   0  0  0  0  0  0  0  0  0  0  0  0
  -26.3695  -12.2891   20.6670 C   0  0  0  0  0  0  0  0  0  0  0  0
  -23.9730  -12.5856   20.7452 C   0  0  0  0  0  0  0  0  0  0  0  0
  -26.7812  -27.2997   26.9877 C   0  0  0  0  0  0  0  0  0  0  0  0
  -24.0667   -9.4004   21.8753 C   0  0  0  0  0  0  0  0  0  0  0  0
  -23.1059   -8.5837   22.4714 C   0  0  0  0  0  0  0  0  0  0  0  0
  -27.1208  -26.6199   24.6983 C   0  0  0  0  0  0  0  0  0  0  0  0
  -21.9251   -8.4380   20.3686 C   0  0  0  0  0  0  0  0  0  0  0  0
  -25.4345  -14.3595   21.4894 C   0  0  0  0  0  0  0  0  0  0  0  0
  -27.8216  -22.3079   22.9443 C   0  0  0  0  0  0  0  0  0  0  0  0
  -26.2623  -16.0303   23.2303 C   0  0  0  0  0  0  0  0  0  0  0  0
  -18.2749  -28.5089   22.3322 C   0  0  0  0  0  0  0  0  0  0  0  0
  -25.5277  -28.3705   25.2053 C   0  0  0  0  0  0  0  0  0  0  0  0
  -19.2066  -28.2400   23.3530 C   0  0  0  0  0  0  0  0  0  0  0  0
  -26.1798  -27.5647   24.2612 C   0  0  0  0  0  0  0  0  0  0  0  0
  -27.7735  -22.5414   25.7238 C   0  0  0  0  0  0  0  0  0  0  0  0
  -25.0835  -11.7966   20.4450 C   0  0  0  0  0  0  0  0  0  0  0  0
  -27.4183  -26.4873   26.0543 C   0  0  0  0  0  0  0  0  0  0  0  0
  -23.9567   -9.7360   20.5258 C   0  0  0  0  0  0  0  0  0  0  0  0
  -22.0351   -8.1025   21.7181 C   0  0  0  0  0  0  0  0  0  0  0  0
  -22.8859   -9.2548   19.7725 C   0  0  0  0  0  0  0  0  0  0  0  0
  -25.6151  -15.6832   22.0293 C   0  0  0  0  0  0  0  0  0  0  0  0
  -26.1663  -17.3992   23.2889 C   0  0  0  0  0  0  0  0  0  0  0  0
  -26.8356  -21.9355   29.2743 C   0  0  0  0  0  0  0  0  0  0  0  0
  -27.8466  -22.1862   21.4953 C   0  0  0  0  0  0  0  0  0  0  0  0
  -26.8939  -15.1905   24.2058 C   0  0  0  0  0  0  0  0  0  0  0  0
  -26.5909  -22.3545   20.7285 C   0  0  0  0  0  0  0  0  0  0  0  0
  -22.8920  -27.9995   23.4678 C   0  0  0  0  0  0  0  0  0  0  0  0
  -24.7641  -29.1656   21.0892 C   0  0  0  0  0  0  0  0  0  0  0  0
  -28.1626  -28.7293   19.9590 C   0  0  0  0  0  0  0  0  0  0  0  0
  -18.4635  -27.9892   20.9290 C   0  0  0  0  0  0  0  0  0  0  0  0
  -24.5327  -29.4084   24.7635 C   0  0  0  0  0  0  0  0  0  0  0  0
  -25.8921  -27.6790   22.7872 C   0  0  0  0  0  0  0  0  0  0  0  0
  -27.7728  -22.8453   30.0240 C   0  0  0  0  0  0  0  0  0  0  0  0
  -26.5275  -22.2856   27.8372 C   0  0  0  0  0  0  0  0  0  0  0  0
  -19.8965  -27.5590   20.6262 C   0  0  0  0  0  0  0  0  0  0  0  0
  -29.0183  -23.0804   29.1885 C   0  0  0  0  0  0  0  0  0  0  0  0
  -23.4472  -20.6413   20.5327 C   0  0  0  0  0  0  0  0  0  0  0  0
  -20.4469  -26.7002   21.7604 C   0  0  0  0  0  0  0  0  0  0  0  0
  -23.7935  -19.2172   20.9662 C   0  0  0  0  0  0  0  0  0  0  0  0
  -24.5944  -21.2844   19.7603 C   0  0  0  0  0  0  0  0  0  0  0  0
  -26.2462  -19.8565   20.9356 C   0  0  0  0  0  0  0  0  0  0  0  0
  -20.4891  -27.4856   23.0767 C   0  0  1  0  0  0  0  0  0  0  0  0
  -23.9122  -29.1008   23.4043 C   0  0  1  0  0  0  0  0  0  0  0  0
  -25.1220  -19.1841   21.7426 C   0  0  2  0  0  0  0  0  0  0  0  0
  -28.7031  -23.5778   27.7715 C   0  0  2  0  0  0  0  0  0  0  0  0
  -30.3163  -21.5360   18.8820 C   0  0  0  0  0  0  0  0  0  0  0  0
  -29.6771  -30.2873   18.7034 C   0  0  0  0  0  0  0  0  0  0  0  0
  -23.7267  -27.7142   18.6139 C   0  0  0  0  0  0  0  0  0  0  0  0
  -26.0337  -27.8529   17.6512 C   0  0  0  0  0  0  0  0  0  0  0  0
  -24.7676  -29.9418   18.1574 C   0  0  0  0  0  0  0  0  0  0  0  0
  -30.2686  -28.5369   22.0294 C   0  0  0  0  0  0  0  0  0  0  0  0
  -28.1565  -25.0088   27.7646 C   0  0  0  0  0  0  0  0  0  1  0  0
  -28.9143  -21.8129   19.3847 C   0  0  0  0  0  0  0  0  0  0  0  0
  -25.6898  -28.5590   20.0625 C   0  0  1  0  0  0  0  0  0  0  0  0
  -29.2930  -29.7367   20.0680 C   0  0  2  0  0  0  0  0  0  0  0  0
  -25.0500  -28.5046   18.6464 C   0  0  0  0  0  0  0  0  0  0  0  0
  -25.1428  -16.7458   21.3723 N   0  0  0  0  0  0  0  0  0  0  0  0
  -28.9440  -21.9314   20.8355 N   0  0  0  0  0  0  0  0  0  0  0  0
  -25.4934  -17.7741   22.1634 N   0  0  0  0  0  0  0  0  0  0  0  0
  -27.7494  -22.6588   27.1204 N   0  0  2  0  0  0  0  0  0  0  0  0
  -25.8467  -21.2037   20.5094 N   0  0  0  0  0  0  0  0  0  0  0  0
  -24.9069  -28.7043   22.4055 N   0  0  0  0  0  0  0  0  0  0  0  0
  -26.5926  -18.3067   24.1928 N   0  0  0  0  0  0  0  0  0  0  0  0
  -26.1196  -14.6982   25.2653 N   0  0  0  0  0  0  0  0  0  0  0  0
  -21.6206  -28.3879   23.0908 N   0  0  0  0  0  0  0  0  0  0  0  0
  -26.9303  -29.3241   20.1287 N   0  0  0  0  0  0  0  0  0  0  0  0
  -30.4968  -29.1009   20.6742 N   0  3  0  0  0  0  0  0  0  0  0  0
  -26.2557  -21.0103   29.8437 O   0  0  0  0  0  0  0  0  0  0  0  0
  -28.1126  -14.8990   24.1489 O   0  0  0  0  0  0  0  0  0  0  0  0
  -26.3426  -23.4975   20.3674 O   0  0  0  0  0  0  0  0  0  0  0  0
  -23.2334  -26.8799   23.8306 O   0  0  0  0  0  0  0  0  0  0  0  0
  -23.9494  -30.0224   20.7376 O   0  0  0  0  0  0  0  0  0  0  0  0
  -28.3536  -27.5349   19.7412 O   0  0  0  0  0  0  0  0  0  0  0  0
  -24.9118  -10.5463   19.9353 O   0  0  0  0  0  0  0  0  0  0  0  0
  -28.3342  -25.5679   26.4638 O   0  0  0  0  0  0  0  0  0  1  0  0
  -21.1133   -7.3169   22.2903 F   0  0  0  0  0  0  0  0  0  0  0  0
  -22.7756   -9.5728   18.4754 F   0  0  0  0  0  0  0  0  0  0  0  0
  1  2  1  0  0  0  0
  1  7  2  0  0  0  0
  2  8  2  0  0  0  0
  3 12  2  0  0  0  0
  3 19  1  0  0  0  0
  4 13  1  0  0  0  0
  4 19  2  0  0  0  0
  5 10  2  0  0  0  0
  5 20  1  0  0  0  0
  6 11  1  0  0  0  0
  6 20  2  0  0  0  0
  7 22  1  0  0  0  0
  8 24  1  0  0  0  0
  9 14  2  0  0  0  0
  9 23  1  0  0  0  0
 10 26  1  0  0  0  0
 11 26  2  0  0  0  0
 12 27  1  0  0  0  0
 13 27  2  0  0  0  0
 14 28  1  0  0  0  0
 15 16  2  0  0  0  0
 15 29  1  0  0  0  0
 16 30  1  0  0  0  0
 17 25  1  0  0  0  0
 17 28  2  0  0  0  0
 18 30  2  0  0  0  0
 18 31  1  0  0  0  0
 19 32  1  0  0  0  0
 20 35  1  0  0  0  0
 21 32  1  0  0  0  0
 21 33  2  0  0  0  0
 21 36  1  0  0  0  0
 22 24  2  0  0  0  0
 22 41  1  0  0  0  0
 23 25  2  0  0  0  0
 23 42  1  0  0  0  0
 24 53  1  0  0  0  0
 25 43  1  0  0  0  0
 26 71  1  0  0  0  0
 27 85  1  0  0  0  0
 28 86  1  0  0  0  0
 29 31  2  0  0  0  0
 29 85  1  0  0  0  0
 30 87  1  0  0  0  0
 31 88  1  0  0  0  0
 32 68  2  0  0  0  0
 33 70  1  0  0  0  0
 33 74  1  0  0  0  0
 34 44  1  0  0  0  0
 34 45  1  0  0  0  0
 34 79  2  0  0  0  0
 35 37  1  0  0  0  0
 35 69  2  0  0  0  0
 36 75  1  0  0  0  0
 36 80  2  0  0  0  0
 37 72  1  0  0  0  0
 37 81  2  0  0  0  0
 38 54  1  0  0  0  0
 38 76  1  0  0  0  0
 38 82  2  0  0  0  0
 39 65  1  0  0  0  0
 39 73  1  0  0  0  0
 39 83  2  0  0  0  0
 40 66  1  0  0  0  0
 40 77  1  0  0  0  0
 40 84  2  0  0  0  0
 41 46  1  0  0  0  0
 42 54  1  0  0  0  0
 43 73  1  0  0  0  0
 44 47  1  0  0  0  0
 45 71  1  0  0  0  0
 46 49  1  0  0  0  0
 47 56  1  0  0  0  0
 48 50  1  0  0  0  0
 48 51  1  0  0  0  0
 49 53  1  0  0  0  0
 50 55  1  0  0  0  0
 51 72  1  0  0  0  0
 52 55  1  0  0  0  0
 52 72  1  0  0  0  0
 53 76  1  0  0  0  0
 54 73  1  0  0  0  0
 55 70  1  0  0  0  0
 56 63  1  0  0  0  0
 56 71  1  0  0  0  0
 57 64  1  0  0  0  0
 58 66  1  0  0  0  0
 59 67  1  0  0  0  0
 60 67  1  0  0  0  0
 61 67  1  0  0  0  0
 62 78  1  0  0  0  0
 63 86  1  0  0  0  0
 64 69  1  0  0  0  0
 65 67  1  0  0  0  0
 65 77  1  0  0  0  0
 66 78  1  0  0  0  0
 68 70  1  0  0  0  0
M  CHG  1  78   1
M  ISO  4  35 100  37 100  63 101  86 101
M  END
> <Batch ID>
0101

> <Smiles>
CCN=[100C:0](c1ccc(N2CC(=O)CCC2[101CH2:1][101O:1]c2ccc3c(c2)CN(C(=O)C(NC(=O)C(C)NC)C(C)(C)C)C(C(=O)NC2CCCc4ccccc42)C3)cc1)[100C:0](=O)N1CCCC(n2nc(-c3ccc(Oc4ccc(F)cc4F)cc3)c(C(N)=O)c2N)C1

> <Shape>
0.204

> <Color>
0.077

> <Negative vol penalty>
0.000

$$$$

  -OEChem-04052301003D

 90 99  0     1  0  0  0  0  0999 V2000
  -20.0383  -11.4856   18.7654 C   0  0  0  0  0  0  0  0  0  0  0  0
  -20.4773  -12.6840   18.2118 C   0  0  0  0  0  0  0  0  0  0  0  0
  -20.8920  -26.4502   23.2504 C   0  0  0  0  0  0  0  0  0  0  0  0
  -20.1782  -28.4931   22.1761 C   0  0  0  0  0  0  0  0  0  0  0  0
  -20.6290  -10.9998   19.9311 C   0  0  0  0  0  0  0  0  0  0  0  0
  -21.5067  -13.3979   18.8243 C   0  0  0  0  0  0  0  0  0  0  0  0
  -27.0391  -17.6702   17.2571 C   0  0  0  0  0  0  0  0  0  0  0  0
  -27.8216  -24.9911   22.9236 C   0  0  0  0  0  0  0  0  0  0  0  0
  -27.8528  -25.5943   24.1809 C   0  0  0  0  0  0  0  0  0  0  0  0
  -19.5661  -26.1523   23.5649 C   0  0  0  0  0  0  0  0  0  0  0  0
  -18.8523  -28.1952   22.4906 C   0  0  0  0  0  0  0  0  0  0  0  0
  -27.5710  -18.9128   17.5990 C   0  0  0  0  0  0  0  0  0  0  0  0
  -16.8515  -24.9020   21.9836 C   0  0  0  0  0  0  0  0  0  0  0  0
  -16.4092  -23.5984   21.7591 C   0  0  0  0  0  0  0  0  0  0  0  0
  -28.5707  -17.9369   19.5656 C   0  0  0  0  0  0  0  0  0  0  0  0
  -28.7352  -27.6135   23.1901 C   0  0  0  0  0  0  0  0  0  0  0  0
  -15.8910  -23.3696   24.1077 C   0  0  0  0  0  0  0  0  0  0  0  0
  -21.1980  -27.6207   22.5560 C   0  0  0  0  0  0  0  0  0  0  0  0
  -23.2686  -27.5622   21.0671 C   0  0  0  0  0  0  0  0  0  0  0  0
  -21.6727  -11.7032   20.5529 C   0  0  0  0  0  0  0  0  0  0  0  0
  -27.2602  -16.5521   18.0740 C   0  0  0  0  0  0  0  0  0  0  0  0
  -22.1110  -12.9217   20.0002 C   0  0  0  0  0  0  0  0  0  0  0  0
  -28.0426  -16.6807   19.2305 C   0  0  0  0  0  0  0  0  0  0  0  0
  -28.2472  -25.6989   21.7996 C   0  0  0  0  0  0  0  0  0  0  0  0
  -28.3096  -26.9055   24.3141 C   0  0  0  0  0  0  0  0  0  0  0  0
  -18.5463  -27.0247   23.1849 C   0  0  0  0  0  0  0  0  0  0  0  0
  -28.3346  -19.0469   18.7549 C   0  0  0  0  0  0  0  0  0  0  0  0
  -16.8136  -25.4395   23.2703 C   0  0  0  0  0  0  0  0  0  0  0  0
  -15.9289  -22.8322   22.8211 C   0  0  0  0  0  0  0  0  0  0  0  0
  -28.7040  -27.0101   21.9328 C   0  0  0  0  0  0  0  0  0  0  0  0
  -16.3334  -24.6733   24.3323 C   0  0  0  0  0  0  0  0  0  0  0  0
  -22.5675  -27.9293   22.2313 C   0  0  0  0  0  0  0  0  0  0  0  0
  -24.5235  -28.0928   21.2403 C   0  0  0  0  0  0  0  0  0  0  0  0
  -30.5213  -24.5598   19.7872 C   0  0  0  0  0  0  0  0  0  0  0  0
  -28.9699  -22.7367   20.5775 C   0  0  0  0  0  0  0  0  0  0  0  0
  -22.8251  -26.8091   19.9305 C   0  0  0  0  0  0  0  0  0  0  0  0
  -25.3979  -14.5899   19.7429 C   0  0  0  0  0  0  0  0  0  0  0  0
  -28.1783  -12.9900   20.2249 C   0  0  0  0  0  0  0  0  0  0  0  0
  -31.5875  -13.0790   20.3528 C   0  0  0  0  0  0  0  0  0  0  0  0
  -28.1858  -28.9138   25.8116 C   0  0  0  0  0  0  0  0  0  0  0  0
  -22.2482  -11.1623   21.8377 C   0  0  0  0  0  0  0  0  0  0  0  0
  -26.7018  -15.2131   17.6771 C   0  0  0  0  0  0  0  0  0  0  0  0
  -28.3263  -15.5069   20.1305 C   0  0  0  0  0  0  0  0  0  0  0  0
  -31.6138  -23.5290   19.6296 C   0  0  0  0  0  0  0  0  0  0  0  0
  -23.5870  -11.7899   22.2172 C   0  0  0  0  0  0  0  0  0  0  0  0
  -31.0567  -22.1513   19.3425 C   0  0  0  0  0  0  0  0  0  0  0  0
  -26.4765  -31.6673   24.0255 C   0  0  0  0  0  0  0  0  0  0  0  0
  -23.5253  -13.3072   22.0732 C   0  0  0  0  0  0  0  0  0  0  0  0
  -25.3095  -30.9561   23.3431 C   0  0  0  0  0  0  0  0  0  0  0  0
  -26.8934  -30.9637   25.3135 C   0  0  0  0  0  0  0  0  0  0  0  0
  -26.0484  -28.8039   24.4402 C   0  0  0  0  0  0  0  0  0  0  0  0
  -23.2418  -13.7125   20.6216 C   0  0  1  0  0  0  0  0  0  0  0  0
  -30.1293  -21.7536   20.4799 C   0  0  2  0  0  0  0  0  0  0  0  0
  -26.5608  -14.2520   18.8535 C   0  0  1  0  0  0  0  0  0  0  0  0
  -25.6358  -29.4703   23.1192 C   0  0  1  0  0  0  0  0  0  0  0  0
  -30.3299  -26.6356   26.7664 C   0  0  0  0  0  0  0  0  0  0  0  0
  -33.5803  -11.6235   20.8083 C   0  0  0  0  0  0  0  0  0  0  0  0
  -27.5989  -13.1373   23.2170 C   0  0  0  0  0  0  0  0  0  0  0  0
  -29.9958  -12.5503   23.6393 C   0  0  0  0  0  0  0  0  0  0  0  0
  -28.5130  -10.9436   22.4381 C   0  0  0  0  0  0  0  0  0  0  0  0
  -32.6608  -13.4961   17.6264 C   0  0  0  0  0  0  0  0  0  0  0  0
  -28.2101  -25.0465   20.4479 C   0  0  0  0  0  0  0  0  0  0  0  0
  -29.6270  -20.3240   20.2893 C   0  0  0  0  0  0  0  0  0  1  0  0
  -28.8178  -26.7312   26.7435 C   0  0  0  0  0  0  0  0  0  0  0  0
  -29.2779  -13.0445   21.2578 C   0  0  1  0  0  0  0  0  0  0  0  0
  -32.6423  -12.1725   19.7445 C   0  0  2  0  0  0  0  0  0  0  0  0
  -28.8396  -12.4417   22.6223 C   0  0  0  0  0  0  0  0  0  0  0  0
  -23.3150  -28.6381   23.0815 N   0  0  0  0  0  0  0  0  0  0  0  0
  -24.4989  -28.7207   22.4509 N   0  0  0  0  0  0  0  0  0  0  0  0
  -29.2909  -24.0806   20.2778 N   0  0  0  0  0  0  0  0  0  0  0  0
  -27.7530  -14.2200   19.7031 N   0  0  0  0  0  0  0  0  0  0  0  0
  -27.1426  -29.5377   25.0969 N   0  0  0  0  0  0  0  0  0  0  0  0
  -25.6347  -28.0789   20.4738 N   0  0  0  0  0  0  0  0  0  0  0  0
  -21.5050  -26.3385   19.9146 N   0  0  0  0  0  0  0  0  0  0  0  0
  -24.4416  -13.5956   19.8208 N   0  0  0  0  0  0  0  0  0  0  0  0
  -30.4342  -12.3876   20.6581 N   0  0  0  0  0  0  0  0  0  0  0  0
  -28.3438  -27.5288   25.6146 N   0  0  0  0  0  0  0  0  0  0  0  0
  -33.4537  -12.9209   18.7433 N   0  3  0  0  0  0  0  0  0  0  0  0
  -30.7605  -25.7410   19.5267 O   0  0  0  0  0  0  0  0  0  0  0  0
  -27.8515  -22.3678   20.9436 O   0  0  0  0  0  0  0  0  0  0  0  0
  -23.5820  -26.5467   18.9653 O   0  0  0  0  0  0  0  0  0  0  0  0
  -25.3710  -15.6721   20.3173 O   0  0  0  0  0  0  0  0  0  0  0  0
  -27.7187  -11.8960   19.8881 O   0  0  0  0  0  0  0  0  0  0  0  0
  -31.7698  -14.2797   20.5419 O   0  0  0  0  0  0  0  0  0  0  0  0
  -28.8931  -29.5363   26.6134 O   0  0  0  0  0  0  0  0  0  0  0  0
  -17.2523  -26.7342   23.4915 O   0  0  0  0  0  0  0  0  0  0  0  0
  -28.8544  -20.2586   19.0913 O   0  0  0  0  0  0  0  0  0  1  0  0
  -15.5028  -21.5808   22.6050 F   0  0  0  0  0  0  0  0  0  0  0  0
  -29.1149  -27.6984   20.8586 F   0  0  0  0  0  0  0  0  0  0  0  0
  -16.2935  -25.1846   25.5704 F   0  0  0  0  0  0  0  0  0  0  0  0
  1  2  1  0  0  0  0
  1  5  2  0  0  0  0
  2  6  2  0  0  0  0
  3 10  2  0  0  0  0
  3 18  1  0  0  0  0
  4 11  1  0  0  0  0
  4 18  2  0  0  0  0
  5 20  1  0  0  0  0
  6 22  1  0  0  0  0
  7 12  2  0  0  0  0
  7 21  1  0  0  0  0
  8  9  2  0  0  0  0
  8 24  1  0  0  0  0
  9 25  1  0  0  0  0
 10 26  1  0  0  0  0
 11 26  2  0  0  0  0
 12 27  1  0  0  0  0
 13 14  2  0  0  0  0
 13 28  1  0  0  0  0
 14 29  1  0  0  0  0
 15 23  1  0  0  0  0
 15 27  2  0  0  0  0
 16 25  2  0  0  0  0
 16 30  1  0  0  0  0
 17 29  2  0  0  0  0
 17 31  1  0  0  0  0
 18 32  1  0  0  0  0
 19 32  1  0  0  0  0
 19 33  2  0  0  0  0
 19 36  1  0  0  0  0
 20 22  2  0  0  0  0
 20 41  1  0  0  0  0
 21 23  2  0  0  0  0
 21 42  1  0  0  0  0
 22 52  1  0  0  0  0
 23 43  1  0  0  0  0
 24 30  2  0  0  0  0
 24 62  1  0  0  0  0
 25 77  1  0  0  0  0
 26 86  1  0  0  0  0
 27 87  1  0  0  0  0
 28 31  2  0  0  0  0
 28 86  1  0  0  0  0
 29 88  1  0  0  0  0
 30 89  1  0  0  0  0
 31 90  1  0  0  0  0
 32 68  2  0  0  0  0
 33 69  1  0  0  0  0
 33 73  1  0  0  0  0
 34 44  1  0  0  0  0
 34 70  1  0  0  0  0
 34 79  2  0  0  0  0
 35 53  1  0  0  0  0
 35 70  1  0  0  0  0
 35 80  2  0  0  0  0
 36 74  1  0  0  0  0
 36 81  2  0  0  0  0
 37 54  1  0  0  0  0
 37 75  1  0  0  0  0
 37 82  2  0  0  0  0
 38 65  1  0  0  0  0
 38 71  1  0  0  0  0
 38 83  2  0  0  0  0
 39 66  1  0  0  0  0
 39 76  1  0  0  0  0
 39 84  2  0  0  0  0
 40 72  1  0  0  0  0
 40 77  1  0  0  0  0
 40 85  2  0  0  0  0
 41 45  1  0  0  0  0
 42 54  1  0  0  0  0
 43 71  1  0  0  0  0
 44 46  1  0  0  0  0
 45 48  1  0  0  0  0
 46 53  1  0  0  0  0
 47 49  1  0  0  0  0
 47 50  1  0  0  0  0
 48 52  1  0  0  0  0
 49 55  1  0  0  0  0
 50 72  1  0  0  0  0
 51 55  1  0  0  0  0
 51 72  1  0  0  0  0
 52 75  1  0  0  0  0
 53 63  1  0  0  0  0
 54 71  1  0  0  0  0
 55 69  1  0  0  0  0
 56 64  1  0  0  0  0
 57 66  1  0  0  0  0
 58 67  1  0  0  0  0
 59 67  1  0  0  0  0
 60 67  1  0  0  0  0
 61 78  1  0  0  0  0
 62 70  1  0  0  0  0
 63 87  1  0  0  0  0
 64 77  1  0  0  0  0
 65 67  1  0  0  0  0
 65 76  1  0  0  0  0
 66 78  1  0  0  0  0
 68 69  1  0  0  0  0
M  CHG  1  78   1
M  ISO  4  40 100  63 101  77 100  87 101
M  END
> <Batch ID>
0101

> <Smiles>
CC[100N:0](c1ccc(CN2C(=O)CCC([101CH2:1][101O:1]c3ccc4c(c3)CN(C(=O)C(NC(=O)C(C)NC)C(C)(C)C)C(C(=O)NC3CCCc5ccccc53)C4)C2=O)c(F)c1)[100C:0](=O)N1CCCC(n2nc(-c3ccc(Oc4ccc(F)cc4F)cc3)c(C(N)=O)c2N)C1

> <Shape>
0.266

> <Color>
0.082

> <Negative vol penalty>
0.000

$$$$

  -OEChem-04052301003D

 90 99  0     1  0  0  0  0  0999 V2000
  -17.7249  -24.9996   21.0690 C   0  0  0  0  0  0  0  0  0  0  0  0
  -18.9567  -25.0898   20.4288 C   0  0  0  0  0  0  0  0  0  0  0  0
  -21.8018  -14.1408   20.9095 C   0  0  0  0  0  0  0  0  0  0  0  0
  -22.9247  -15.9220   19.7249 C   0  0  0  0  0  0  0  0  0  0  0  0
  -17.4011  -25.8983   22.0847 C   0  0  0  0  0  0  0  0  0  0  0  0
  -19.8650  -26.0795   20.8030 C   0  0  0  0  0  0  0  0  0  0  0  0
  -24.5857  -24.3073   21.2710 C   0  0  0  0  0  0  0  0  0  0  0  0
  -30.5436  -18.4846   17.4021 C   0  0  0  0  0  0  0  0  0  0  0  0
  -30.1934  -19.7455   16.9192 C   0  0  0  0  0  0  0  0  0  0  0  0
  -20.6069  -14.8583   20.8558 C   0  0  0  0  0  0  0  0  0  0  0  0
  -21.7298  -16.6396   19.6712 C   0  0  0  0  0  0  0  0  0  0  0  0
  -25.3072  -24.0996   20.0962 C   0  0  0  0  0  0  0  0  0  0  0  0
  -19.8896  -18.5732   21.7462 C   0  0  0  0  0  0  0  0  0  0  0  0
  -19.9355  -19.9326   22.0552 C   0  0  0  0  0  0  0  0  0  0  0  0
  -26.4548  -26.1938   20.4378 C   0  0  0  0  0  0  0  0  0  0  0  0
  -30.5637  -20.6884   19.1126 C   0  0  0  0  0  0  0  0  0  0  0  0
  -19.1039  -20.4620   19.8494 C   0  0  0  0  0  0  0  0  0  0  0  0
  -22.9608  -14.6726   20.3441 C   0  0  0  0  0  0  0  0  0  0  0  0
  -24.4462  -12.6556   19.8617 C   0  0  0  0  0  0  0  0  0  0  0  0
  -18.3097  -26.8934   22.4782 C   0  0  0  0  0  0  0  0  0  0  0  0
  -24.7859  -25.4670   22.0335 C   0  0  0  0  0  0  0  0  0  0  0  0
  -19.5524  -26.9931   21.8240 C   0  0  0  0  0  0  0  0  0  0  0  0
  -25.7364  -26.4126   21.6232 C   0  0  0  0  0  0  0  0  0  0  0  0
  -30.9037  -18.3256   18.7403 C   0  0  0  0  0  0  0  0  0  0  0  0
  -30.2035  -20.8473   17.7744 C   0  0  0  0  0  0  0  0  0  0  0  0
  -20.5709  -16.1077   20.2367 C   0  0  0  0  0  0  0  0  0  0  0  0
  -26.2398  -25.0442   19.6780 C   0  0  0  0  0  0  0  0  0  0  0  0
  -19.4508  -18.1581   20.4888 C   0  0  0  0  0  0  0  0  0  0  0  0
  -30.9138  -19.4274   19.5955 C   0  0  0  0  0  0  0  0  0  0  0  0
  -19.5427  -20.8770   21.1068 C   0  0  0  0  0  0  0  0  0  0  0  0
  -19.0580  -19.1026   19.5405 C   0  0  0  0  0  0  0  0  0  0  0  0
  -24.1955  -13.9321   20.3997 C   0  0  0  0  0  0  0  0  0  0  0  0
  -25.7578  -12.4005   20.1798 C   0  0  0  0  0  0  0  0  0  0  0  0
  -31.0189  -23.5295   15.5714 C   0  0  0  0  0  0  0  0  0  0  0  0
  -29.2401  -23.0980   18.1373 C   0  0  0  0  0  0  0  0  0  0  0  0
  -23.5717  -11.7789   19.1389 C   0  0  0  0  0  0  0  0  0  0  0  0
  -22.9606  -27.9165   22.9123 C   0  0  0  0  0  0  0  0  0  0  0  0
  -25.5681  -28.7275   24.6632 C   0  0  0  0  0  0  0  0  0  0  0  0
  -29.1452  -28.7721   24.1941 C   0  0  0  0  0  0  0  0  0  0  0  0
  -30.4366  -15.9513   21.3423 C   0  0  0  0  0  0  0  0  0  0  0  0
  -17.8960  -27.8718   23.5488 C   0  0  0  0  0  0  0  0  0  0  0  0
  -24.0188  -25.6635   23.3124 C   0  0  0  0  0  0  0  0  0  0  0  0
  -26.0032  -27.6646   22.4167 C   0  0  0  0  0  0  0  0  0  0  0  0
  -31.5798  -24.3010   16.7419 C   0  0  0  0  0  0  0  0  0  0  0  0
  -30.0042  -22.4280   15.8385 C   0  0  0  0  0  0  0  0  0  0  0  0
  -19.0640  -28.6558   24.1417 C   0  0  0  0  0  0  0  0  0  0  0  0
  -30.5204  -25.1685   17.4129 C   0  0  0  0  0  0  0  0  0  0  0  0
  -29.0835  -13.4304   23.4615 C   0  0  0  0  0  0  0  0  0  0  0  0
  -19.9681  -29.1863   23.0335 C   0  0  0  0  0  0  0  0  0  0  0  0
  -27.6999  -13.1580   22.8686 C   0  0  0  0  0  0  0  0  0  0  0  0
  -29.4580  -14.9077   23.3647 C   0  0  0  0  0  0  0  0  0  0  0  0
  -27.9784  -15.2110   21.4173 C   0  0  0  0  0  0  0  0  0  0  0  0
  -20.5742  -28.0373   22.2186 C   0  0  1  0  0  0  0  0  0  0  0  0
  -29.1338  -24.5226   17.5760 C   0  0  2  0  0  0  0  0  0  0  0  0
  -23.9340  -27.1256   23.7397 C   0  0  1  0  0  0  0  0  0  0  0  0
  -27.5799  -13.7254   21.4414 C   0  0  2  0  0  0  0  0  0  0  0  0
  -31.0117  -28.5899   25.8615 C   0  0  0  0  0  0  0  0  0  0  0  0
  -25.5002  -31.7779   24.6382 C   0  0  0  0  0  0  0  0  0  0  0  0
  -27.9993  -31.7653   24.7893 C   0  0  0  0  0  0  0  0  0  0  0  0
  -26.6353  -30.7759   26.6287 C   0  0  0  0  0  0  0  0  0  0  0  0
  -30.3561  -26.4826   22.7622 C   0  0  0  0  0  0  0  0  0  0  0  0
  -31.2459  -20.4677   21.7081 C   0  0  0  0  0  0  0  0  0  0  0  0
  -31.2753  -16.9685   19.2397 C   0  0  0  0  0  0  0  0  0  0  0  0
  -28.2556  -25.4050   18.4687 C   0  0  0  0  0  0  0  0  0  1  0  0
  -26.8035  -29.5599   24.4185 C   0  0  1  0  0  0  0  0  0  0  0  0
  -30.1586  -27.8478   24.8444 C   0  0  2  0  0  0  0  0  0  0  0  0
  -26.7213  -30.9563   25.0974 C   0  0  0  0  0  0  0  0  0  0  0  0
  -25.2622  -14.4517   21.0132 N   0  0  0  0  0  0  0  0  0  0  0  0
  -26.1958  -13.4968   20.8627 N   0  0  0  0  0  0  0  0  0  0  0  0
  -29.8405  -22.1512   17.2748 N   0  0  0  0  0  0  0  0  0  0  0  0
  -25.2235  -27.8144   23.6566 N   0  0  0  0  0  0  0  0  0  0  0  0
  -29.3245  -15.3833   21.9855 N   0  0  0  0  0  0  0  0  0  0  0  0
  -26.5675  -11.3474   19.9392 N   0  0  0  0  0  0  0  0  0  0  0  0
  -23.5219  -11.8873   17.7424 N   0  0  0  0  0  0  0  0  0  0  0  0
  -21.6688  -27.4269   22.9423 N   0  0  0  0  0  0  0  0  0  0  0  0
  -27.9351  -28.7491   24.8547 N   0  0  0  0  0  0  0  0  0  0  0  0
  -30.2258  -16.3703   20.0344 N   0  0  0  0  0  0  0  0  0  0  0  0
  -31.0605  -27.2606   23.8136 N   0  3  0  0  0  0  0  0  0  0  0  0
  -31.3419  -23.8130   14.4160 O   0  0  0  0  0  0  0  0  0  0  0  0
  -28.8173  -22.8456   19.2682 O   0  0  0  0  0  0  0  0  0  0  0  0
  -22.8435  -10.9360   19.7157 O   0  0  0  0  0  0  0  0  0  0  0  0
  -23.3523  -28.8992   22.2937 O   0  0  0  0  0  0  0  0  0  0  0  0
  -24.9363  -28.8768   25.7121 O   0  0  0  0  0  0  0  0  0  0  0  0
  -29.4025  -29.4499   23.2016 O   0  0  0  0  0  0  0  0  0  0  0  0
  -31.5373  -16.0708   21.8910 O   0  0  0  0  0  0  0  0  0  0  0  0
  -19.4050  -16.8081   20.1839 O   0  0  0  0  0  0  0  0  0  0  0  0
  -31.2628  -19.2892   20.9053 O   0  0  0  0  0  0  0  0  0  0  0  0
  -26.9449  -24.8442   18.5314 O   0  0  0  0  0  0  0  0  0  1  0  0
  -19.5854  -22.1823   21.4042 F   0  0  0  0  0  0  0  0  0  0  0  0
  -18.6344  -18.7098   18.3312 F   0  0  0  0  0  0  0  0  0  0  0  0
  1  2  1  0  0  0  0
  1  5  2  0  0  0  0
  2  6  2  0  0  0  0
  3 10  2  0  0  0  0
  3 18  1  0  0  0  0
  4 11  1  0  0  0  0
  4 18  2  0  0  0  0
  5 20  1  0  0  0  0
  6 22  1  0  0  0  0
  7 12  2  0  0  0  0
  7 21  1  0  0  0  0
  8  9  2  0  0  0  0
  8 24  1  0  0  0  0
  9 25  1  0  0  0  0
 10 26  1  0  0  0  0
 11 26  2  0  0  0  0
 12 27  1  0  0  0  0
 13 14  2  0  0  0  0
 13 28  1  0  0  0  0
 14 30  1  0  0  0  0
 15 23  1  0  0  0  0
 15 27  2  0  0  0  0
 16 25  2  0  0  0  0
 16 29  1  0  0  0  0
 17 30  2  0  0  0  0
 17 31  1  0  0  0  0
 18 32  1  0  0  0  0
 19 32  1  0  0  0  0
 19 33  2  0  0  0  0
 19 36  1  0  0  0  0
 20 22  2  0  0  0  0
 20 41  1  0  0  0  0
 21 23  2  0  0  0  0
 21 42  1  0  0  0  0
 22 53  1  0  0  0  0
 23 43  1  0  0  0  0
 24 29  2  0  0  0  0
 24 63  1  0  0  0  0
 25 70  1  0  0  0  0
 26 86  1  0  0  0  0
 27 88  1  0  0  0  0
 28 31  2  0  0  0  0
 28 86  1  0  0  0  0
 29 87  1  0  0  0  0
 30 89  1  0  0  0  0
 31 90  1  0  0  0  0
 32 68  2  0  0  0  0
 33 69  1  0  0  0  0
 33 73  1  0  0  0  0
 34 44  1  0  0  0  0
 34 45  1  0  0  0  0
 34 79  2  0  0  0  0
 35 54  1  0  0  0  0
 35 70  1  0  0  0  0
 35 80  2  0  0  0  0
 36 74  1  0  0  0  0
 36 81  2  0  0  0  0
 37 55  1  0  0  0  0
 37 75  1  0  0  0  0
 37 82  2  0  0  0  0
 38 65  1  0  0  0  0
 38 71  1  0  0  0  0
 38 83  2  0  0  0  0
 39 66  1  0  0  0  0
 39 76  1  0  0  0  0
 39 84  2  0  0  0  0
 40 72  1  0  0  0  0
 40 77  1  0  0  0  0
 40 85  2  0  0  0  0
 41 46  1  0  0  0  0
 42 55  1  0  0  0  0
 43 71  1  0  0  0  0
 44 47  1  0  0  0  0
 45 70  1  0  0  0  0
 46 49  1  0  0  0  0
 47 54  1  0  0  0  0
 48 50  1  0  0  0  0
 48 51  1  0  0  0  0
 49 53  1  0  0  0  0
 50 56  1  0  0  0  0
 51 72  1  0  0  0  0
 52 56  1  0  0  0  0
 52 72  1  0  0  0  0
 53 75  1  0  0  0  0
 54 64  1  0  0  0  0
 55 71  1  0  0  0  0
 56 69  1  0  0  0  0
 57 66  1  0  0  0  0
 58 67  1  0  0  0  0
 59 67  1  0  0  0  0
 60 67  1  0  0  0  0
 61 78  1  0  0  0  0
 62 87  1  0  0  0  0
 63 77  1  0  0  0  0
 64 88  1  0  0  0  0
 65 67  1  0  0  0  0
 65 76  1  0  0  0  0
 66 78  1  0  0  0  0
 68 69  1  0  0  0  0
M  CHG  1  78   1
M  ISO  4  40 100  64 101  77 100  88 101
M  END
> <Batch ID>
0101

> <Smiles>
CNC(C)C(=O)NC(C(=O)N1Cc2cc([101O:1][101CH2:1]C3CCC(=O)CN(c4ccc(C[100NH:0][100C:0](=O)N5CCCC(n6nc(-c7ccc(Oc8ccc(F)cc8F)cc7)c(C(N)=O)c6N)C5)c(OC)c4)C3=O)ccc2CC1C(=O)NC1CCCc2ccccc21)C(C)(C)C

> <Shape>
0.227

> <Color>
0.081

> <Negative vol penalty>
0.000

$$$$

  -OEChem-04052301003D

 85 93  0     1  0  0  0  0  0999 V2000
  -31.7894  -32.8907   23.9556 C   0  0  0  0  0  0  0  0  0  0  0  0
  -32.1695  -31.7025   24.5712 C   0  0  0  0  0  0  0  0  0  0  0  0
  -23.0052   -9.9264   20.0234 C   0  0  0  0  0  0  0  0  0  0  0  0
  -23.7041  -10.0502   22.3328 C   0  0  0  0  0  0  0  0  0  0  0  0
  -30.5074  -33.0196   23.4230 C   0  0  0  0  0  0  0  0  0  0  0  0
  -31.2672  -30.6426   24.6555 C   0  0  0  0  0  0  0  0  0  0  0  0
  -32.5709  -24.6659   24.3647 C   0  0  0  0  0  0  0  0  0  0  0  0
  -22.2271   -8.8071   20.3189 C   0  0  0  0  0  0  0  0  0  0  0  0
  -22.9260   -8.9309   22.6283 C   0  0  0  0  0  0  0  0  0  0  0  0
  -32.7425  -23.6942   25.3497 C   0  0  0  0  0  0  0  0  0  0  0  0
  -23.1505   -5.5763   22.2725 C   0  0  0  0  0  0  0  0  0  0  0  0
  -23.7216   -4.5810   23.0654 C   0  0  0  0  0  0  0  0  0  0  0  0
  -30.4424  -23.0202   25.0770 C   0  0  0  0  0  0  0  0  0  0  0  0
  -30.6299  -17.9235   22.3862 C   0  0  0  0  0  0  0  0  0  0  0  0
  -31.9809  -16.0536   23.1042 C   0  0  0  0  0  0  0  0  0  0  0  0
  -21.9804   -4.8929   24.7110 C   0  0  0  0  0  0  0  0  0  0  0  0
  -23.7438  -10.5479   21.0303 C   0  0  0  0  0  0  0  0  0  0  0  0
  -24.1501  -13.0533   20.7739 C   0  0  0  0  0  0  0  0  0  0  0  0
  -29.5922  -31.9574   23.4922 C   0  0  0  0  0  0  0  0  0  0  0  0
  -31.3287  -24.8295   23.7350 C   0  0  0  0  0  0  0  0  0  0  0  0
  -29.9713  -30.7579   24.1245 C   0  0  0  0  0  0  0  0  0  0  0  0
  -30.2584  -23.9929   24.0825 C   0  0  0  0  0  0  0  0  0  0  0  0
  -31.2421  -18.7331   23.3429 C   0  0  0  0  0  0  0  0  0  0  0  0
  -32.5932  -16.8633   24.0608 C   0  0  0  0  0  0  0  0  0  0  0  0
  -30.9992  -16.5837   22.2669 C   0  0  0  0  0  0  0  0  0  0  0  0
  -22.1875   -8.3094   21.6213 C   0  0  0  0  0  0  0  0  0  0  0  0
  -31.6774  -22.8731   25.7080 C   0  0  0  0  0  0  0  0  0  0  0  0
  -21.9944   -6.2300   22.6988 C   0  0  0  0  0  0  0  0  0  0  0  0
  -32.2238  -18.2031   24.1801 C   0  0  0  0  0  0  0  0  0  0  0  0
  -23.1366   -4.2392   24.2847 C   0  0  0  0  0  0  0  0  0  0  0  0
  -21.4093   -5.8882   23.9181 C   0  0  0  0  0  0  0  0  0  0  0  0
  -24.5482  -11.7039   20.7256 C   0  0  0  0  0  0  0  0  0  0  0  0
  -25.2694  -13.7551   20.3984 C   0  0  0  0  0  0  0  0  0  0  0  0
  -29.1880  -15.7465   19.1921 C   0  0  0  0  0  0  0  0  0  0  0  0
  -29.3824  -16.2264   20.4224 C   0  0  0  0  0  0  0  0  0  0  0  0
  -22.8819  -13.6215   21.1268 C   0  0  0  0  0  0  0  0  0  0  0  0
  -29.2106  -27.1909   23.5318 C   0  0  0  0  0  0  0  0  0  0  0  0
  -27.7481  -25.1774   21.4511 C   0  0  0  0  0  0  0  0  0  0  0  0
  -27.2607  -21.9755   20.3754 C   0  0  0  0  0  0  0  0  0  0  0  0
  -30.8677  -14.4339   21.0595 C   0  0  0  0  0  0  0  0  0  0  0  0
  -28.2018  -32.1603   22.9441 C   0  0  0  0  0  0  0  0  0  0  0  0
  -31.1673  -25.8644   22.6555 C   0  0  0  0  0  0  0  0  0  0  0  0
  -28.9101  -24.1145   23.4223 C   0  0  0  0  0  0  0  0  0  0  0  0
  -27.4307  -30.8584   22.7424 C   0  0  0  0  0  0  0  0  0  0  0  0
  -29.6355  -12.1957   18.3989 C   0  0  0  0  0  0  0  0  0  0  0  0
  -27.5651  -29.9627   23.9698 C   0  0  0  0  0  0  0  0  0  0  0  0
  -28.1889  -11.9342   18.8150 C   0  0  0  0  0  0  0  0  0  0  0  0
  -30.5340  -12.4579   19.6040 C   0  0  0  0  0  0  0  0  0  0  0  0
  -28.6009  -13.2894   20.9071 C   0  0  0  0  0  0  0  0  0  0  0  0
  -29.0291  -29.5769   24.2135 C   0  0  1  0  0  0  0  0  0  0  0  0
  -29.7164  -26.2860   22.4441 C   0  0  1  0  0  0  0  0  0  0  0  0
  -27.6616  -13.0676   19.7119 C   0  0  2  0  0  0  0  0  0  0  0  0
  -30.8331  -20.1647   23.4564 C   0  0  0  0  0  0  0  0  0  0  0  0
  -33.6433  -16.2785   24.9468 C   0  0  0  0  0  0  0  0  0  0  0  0
  -25.9798  -20.6405   18.6800 C   0  0  0  0  0  0  0  0  0  0  0  0
  -25.2129  -25.4964   23.1188 C   0  0  0  0  0  0  0  0  0  0  0  0
  -24.2910  -23.4672   21.9784 C   0  0  0  0  0  0  0  0  0  0  0  0
  -24.8423  -25.5024   20.6455 C   0  0  0  0  0  0  0  0  0  0  0  0
  -29.7447  -20.9752   19.1154 C   0  0  0  0  0  0  0  0  0  0  0  0
  -33.0358  -19.9340   27.3290 C   0  0  0  0  0  0  0  0  0  0  0  0
  -33.1445  -21.3581   26.8071 C   0  0  0  0  0  0  0  0  0  1  0  0
  -32.2161  -19.0496   26.4026 C   0  0  0  0  0  0  0  0  0  0  0  0
  -26.7174  -24.0808   21.5701 C   0  0  1  0  0  0  0  0  0  0  0  0
  -27.2812  -21.3658   18.9854 C   0  0  2  0  0  0  0  0  0  0  0  0
  -25.2907  -24.6354   21.8422 C   0  0  0  0  0  0  0  0  0  0  0  0
  -25.8209  -11.5549   20.3489 N   0  0  0  0  0  0  0  0  0  0  0  0
  -26.2323  -12.8199   20.1570 N   0  0  0  0  0  0  0  0  0  0  0  0
  -28.8004  -25.1456   22.3771 N   0  0  0  0  0  0  0  0  0  0  0  0
  -29.9858  -13.5101   20.4608 N   0  0  0  0  0  0  0  0  0  0  0  0
  -25.5140  -15.0749   20.2543 N   0  0  0  0  0  0  0  0  0  0  0  0
  -21.8396  -12.7570   21.4878 N   0  0  0  0  0  0  0  0  0  0  0  0
  -29.4363  -28.5338   23.2968 N   0  0  0  0  0  0  0  0  0  0  0  0
  -26.8267  -23.2841   20.3528 N   0  0  0  0  0  0  0  0  0  0  0  0
  -30.3623  -15.7429   21.2740 N   0  0  0  0  0  0  0  0  0  0  0  0
  -28.4021  -20.3913   18.8637 N   0  3  0  0  0  0  0  0  0  0  0  0
  -22.6743  -14.8585   21.1062 O   0  0  0  0  0  0  0  0  0  0  0  0
  -28.6553  -26.7067   24.5110 O   0  0  0  0  0  0  0  0  0  0  0  0
  -27.6279  -26.0267   20.5646 O   0  0  0  0  0  0  0  0  0  0  0  0
  -27.5926  -21.3521   21.3812 O   0  0  0  0  0  0  0  0  0  0  0  0
  -32.0286  -14.1255   21.3582 O   0  0  0  0  0  0  0  0  0  0  0  0
  -21.4281   -7.2173   21.9101 O   0  0  0  0  0  0  0  0  0  0  0  0
  -31.8420  -21.9244   26.6696 O   0  0  0  0  0  0  0  0  0  1  0  0
  -32.8263  -18.9982   25.1201 O   0  0  0  0  0  0  0  0  0  0  0  0
  -23.6843   -3.2824   25.0453 F   0  0  0  0  0  0  0  0  0  0  0  0
  -20.2979   -6.5119   24.3324 F   0  0  0  0  0  0  0  0  0  0  0  0
  1  2  1  0  0  0  0
  1  5  2  0  0  0  0
  2  6  2  0  0  0  0
  3  8  2  0  0  0  0
  3 17  1  0  0  0  0
  4  9  1  0  0  0  0
  4 17  2  0  0  0  0
  5 19  1  0  0  0  0
  6 21  1  0  0  0  0
  7 10  2  0  0  0  0
  7 20  1  0  0  0  0
  8 26  1  0  0  0  0
  9 26  2  0  0  0  0
 10 27  1  0  0  0  0
 11 12  2  0  0  0  0
 11 28  1  0  0  0  0
 12 30  1  0  0  0  0
 13 22  1  0  0  0  0
 13 27  2  0  0  0  0
 14 23  2  0  0  0  0
 14 25  1  0  0  0  0
 15 24  1  0  0  0  0
 15 25  2  0  0  0  0
 16 30  2  0  0  0  0
 16 31  1  0  0  0  0
 17 32  1  0  0  0  0
 18 32  1  0  0  0  0
 18 33  2  0  0  0  0
 18 36  1  0  0  0  0
 19 21  2  0  0  0  0
 19 41  1  0  0  0  0
 20 22  2  0  0  0  0
 20 42  1  0  0  0  0
 21 50  1  0  0  0  0
 22 43  1  0  0  0  0
 23 29  1  0  0  0  0
 23 53  1  0  0  0  0
 24 29  2  0  0  0  0
 24 54  1  0  0  0  0
 25 74  1  0  0  0  0
 26 81  1  0  0  0  0
 27 82  1  0  0  0  0
 28 31  2  0  0  0  0
 28 81  1  0  0  0  0
 29 83  1  0  0  0  0
 30 84  1  0  0  0  0
 31 85  1  0  0  0  0
 32 66  2  0  0  0  0
 33 67  1  0  0  0  0
 33 70  1  0  0  0  0
 34 35  2  0  0  0  0
 35 74  1  0  0  0  0
 36 71  1  0  0  0  0
 36 76  2  0  0  0  0
 37 51  1  0  0  0  0
 37 72  1  0  0  0  0
 37 77  2  0  0  0  0
 38 63  1  0  0  0  0
 38 68  1  0  0  0  0
 38 78  2  0  0  0  0
 39 64  1  0  0  0  0
 39 73  1  0  0  0  0
 39 79  2  0  0  0  0
 40 69  1  0  0  0  0
 40 74  1  0  0  0  0
 40 80  2  0  0  0  0
 41 44  1  0  0  0  0
 42 51  1  0  0  0  0
 43 68  1  0  0  0  0
 44 46  1  0  0  0  0
 45 47  1  0  0  0  0
 45 48  1  0  0  0  0
 46 50  1  0  0  0  0
 47 52  1  0  0  0  0
 48 69  1  0  0  0  0
 49 52  1  0  0  0  0
 49 69  1  0  0  0  0
 50 72  1  0  0  0  0
 51 68  1  0  0  0  0
 52 67  1  0  0  0  0
 55 64  1  0  0  0  0
 56 65  1  0  0  0  0
 57 65  1  0  0  0  0
 58 65  1  0  0  0  0
 59 75  1  0  0  0  0
 60 61  1  0  0  0  0
 60 62  1  0  0  0  0
 61 82  1  0  0  0  0
 62 83  1  0  0  0  0
 63 65  1  0  0  0  0
 63 73  1  0  0  0  0
 64 75  1  0  0  0  0
 66 67  1  0  0  0  0
M  CHG  1  75   1
M  ISO  4  40 100  61 101  74 100  82 101
M  END
> <Batch ID>
0101

> <Smiles>
C=C[100N:0](c1cc(C)c(OCC[101CH2:1][101O:1]c2ccc3c(c2)CN(C(=O)C(NC(=O)C(C)NC)C(C)(C)C)C(C(=O)NC2CCCc4ccccc42)C3)c(C)c1)[100C:0](=O)N1CCCC(n2nc(-c3ccc(Oc4ccc(F)cc4F)cc3)c(C(N)=O)c2N)C1

> <Shape>
0.229

> <Color>
0.189

> <Negative vol penalty>
0.000

$$$$

  -OEChem-04052301003D

 87 96  0     1  0  0  0  0  0999 V2000
  -21.8782  -30.9766   14.1897 C   0  0  0  0  0  0  0  0  0  0  0  0
  -22.9934  -30.4121   14.8006 C   0  0  0  0  0  0  0  0  0  0  0  0
  -26.8842   -9.2082   19.7064 C   0  0  0  0  0  0  0  0  0  0  0  0
  -28.3128  -11.1534   19.5948 C   0  0  0  0  0  0  0  0  0  0  0  0
  -21.3488  -32.1715   14.6753 C   0  0  0  0  0  0  0  0  0  0  0  0
  -23.5805  -31.0429   15.8968 C   0  0  0  0  0  0  0  0  0  0  0  0
  -24.7014  -27.8084   19.6287 C   0  0  0  0  0  0  0  0  0  0  0  0
  -27.9246   -8.4162   19.2205 C   0  0  0  0  0  0  0  0  0  0  0  0
  -29.3532  -10.3614   19.1090 C   0  0  0  0  0  0  0  0  0  0  0  0
  -25.8468  -27.0288   19.4730 C   0  0  0  0  0  0  0  0  0  0  0  0
  -31.6338   -8.2048   20.3615 C   0  0  0  0  0  0  0  0  0  0  0  0
  -32.9006   -8.3908   20.9147 C   0  0  0  0  0  0  0  0  0  0  0  0
  -27.0607  -28.5352   20.9139 C   0  0  0  0  0  0  0  0  0  0  0  0
  -28.0863  -20.0905   20.3731 C   0  0  0  0  0  0  0  0  0  0  0  0
  -25.8746  -19.9257   18.6808 C   0  0  0  0  0  0  0  0  0  0  0  0
  -33.7660   -8.9766   18.7364 C   0  0  0  0  0  0  0  0  0  0  0  0
  -27.0783  -10.5768   19.8935 C   0  0  0  0  0  0  0  0  0  0  0  0
  -25.3356  -11.2603   21.6265 C   0  0  0  0  0  0  0  0  0  0  0  0
  -21.9239  -32.8122   15.7840 C   0  0  0  0  0  0  0  0  0  0  0  0
  -24.7301  -28.9652   20.4207 C   0  0  0  0  0  0  0  0  0  0  0  0
  -23.0591  -32.2482   16.3969 C   0  0  0  0  0  0  0  0  0  0  0  0
  -25.9137  -29.3263   21.0801 C   0  0  0  0  0  0  0  0  0  0  0  0
  -27.2418  -18.9821   20.4351 C   0  0  0  0  0  0  0  0  0  0  0  0
  -27.8250  -21.1165   19.4650 C   0  0  0  0  0  0  0  0  0  0  0  0
  -26.1360  -18.8997   19.5890 C   0  0  0  0  0  0  0  0  0  0  0  0
  -26.7191  -21.0341   18.6188 C   0  0  0  0  0  0  0  0  0  0  0  0
  -29.1591   -8.9928   18.9218 C   0  0  0  0  0  0  0  0  0  0  0  0
  -27.0274  -27.3937   20.1133 C   0  0  0  0  0  0  0  0  0  0  0  0
  -31.4330   -8.4046   18.9956 C   0  0  0  0  0  0  0  0  0  0  0  0
  -33.9667   -8.7767   20.1023 C   0  0  0  0  0  0  0  0  0  0  0  0
  -32.4991   -8.7905   18.1831 C   0  0  0  0  0  0  0  0  0  0  0  0
  -26.0039  -11.3955   20.3949 C   0  0  0  0  0  0  0  0  0  0  0  0
  -24.4068  -12.2722   21.6260 C   0  0  0  0  0  0  0  0  0  0  0  0
  -30.3159  -24.5356   19.3264 C   0  0  0  0  0  0  0  0  0  0  0  0
  -25.5365  -10.3056   22.6771 C   0  0  0  0  0  0  0  0  0  0  0  0
  -24.2709  -32.0641   19.8827 C   0  0  0  0  0  0  0  0  0  0  0  0
  -24.5470  -32.2669   23.1083 C   0  0  0  0  0  0  0  0  0  0  0  0
  -26.6340  -30.8162   25.6690 C   0  0  0  0  0  0  0  0  0  0  0  0
  -24.1322  -17.5599   18.8567 C   0  0  0  0  0  0  0  0  0  0  0  0
  -21.3450  -34.1269   16.2437 C   0  0  0  0  0  0  0  0  0  0  0  0
  -23.4790  -29.7807   20.6001 C   0  0  0  0  0  0  0  0  0  0  0  0
  -25.9915  -30.5478   21.9579 C   0  0  0  0  0  0  0  0  0  0  0  0
  -30.2395  -23.6208   18.1262 C   0  0  0  0  0  0  0  0  0  0  0  0
  -21.7997  -34.5369   17.6421 C   0  0  0  0  0  0  0  0  0  0  0  0
  -21.7539  -14.9188   18.6441 C   0  0  0  0  0  0  0  0  0  0  0  0
  -23.3076  -34.3581   17.7870 C   0  0  0  0  0  0  0  0  0  0  0  0
  -22.5111  -13.7046   19.1867 C   0  0  0  0  0  0  0  0  0  0  0  0
  -29.8440  -22.2039   18.5231 C   0  0  0  0  0  0  0  0  0  0  0  0
  -22.6638  -15.8376   17.8308 C   0  0  0  0  0  0  0  0  0  0  0  0
  -28.8232  -23.0247   20.6402 C   0  0  0  0  0  0  0  0  0  0  0  0
  -24.6477  -15.0483   19.0597 C   0  0  0  0  0  0  0  0  0  0  0  0
  -23.7092  -32.8895   17.6036 C   0  0  1  0  0  0  0  0  0  0  0  0
  -29.1573  -24.4801   20.3049 C   0  0  2  0  0  0  0  0  0  0  0  0
  -23.7593  -31.2213   21.0165 C   0  0  1  0  0  0  0  0  0  0  0  0
  -23.7876  -14.1270   19.9401 C   0  0  2  0  0  0  0  0  0  0  0  0
  -27.5461  -17.8976   21.4172 C   0  0  0  0  0  0  0  0  0  0  0  0
  -26.1806  -30.4008   28.1020 C   0  0  0  0  0  0  0  0  0  0  0  0
  -25.8797  -34.9802   23.5223 C   0  0  0  0  0  0  0  0  0  0  0  0
  -26.9550  -34.0591   25.5871 C   0  0  0  0  0  0  0  0  0  0  0  0
  -24.4694  -34.2077   25.4376 C   0  0  0  0  0  0  0  0  0  0  0  0
  -27.2899  -27.9410   25.4196 C   0  0  0  0  0  0  0  0  0  0  0  0
  -27.9596  -25.2378   19.7406 C   0  0  0  0  0  0  0  0  0  1  0  0
  -25.6911  -32.4649   24.0731 C   0  0  1  0  0  0  0  0  0  0  0  0
  -26.2171  -29.7918   26.7089 C   0  0  2  0  0  0  0  0  0  0  0  0
  -25.7526  -33.9153   24.6298 C   0  0  0  0  0  0  0  0  0  0  0  0
  -25.5390  -12.4129   19.6649 N   0  0  0  0  0  0  0  0  0  0  0  0
  -24.5687  -12.9262   20.4402 N   0  0  0  0  0  0  0  0  0  0  0  0
  -28.6841  -22.2187   19.4191 N   0  0  2  0  0  0  0  0  0  0  0  0
  -24.7433  -31.3161   22.0968 N   0  0  0  0  0  0  0  0  0  0  0  0
  -23.8500  -16.1997   18.6096 N   0  0  0  0  0  0  0  0  0  0  0  0
  -26.4366  -22.0618   17.6913 N   0  0  0  0  0  0  0  0  0  0  0  0
  -23.4755  -12.6573   22.5243 N   0  0  0  0  0  0  0  0  0  0  0  0
  -26.5332   -9.3337   22.5151 N   0  0  0  0  0  0  0  0  0  0  0  0
  -25.2675  -17.7811   19.6356 N   0  0  0  0  0  0  0  0  0  0  0  0
  -23.4140  -32.1316   18.8007 N   0  0  0  0  0  0  0  0  0  0  0  0
  -25.5434  -31.4372   25.0980 N   0  0  0  0  0  0  0  0  0  0  0  0
  -27.1721  -28.6478   26.7210 N   0  3  0  0  0  0  0  0  0  0  0  0
  -31.2246  -25.3563   19.4511 O   0  0  0  0  0  0  0  0  0  0  0  0
  -24.8413  -10.3039   23.7213 O   0  0  0  0  0  0  0  0  0  0  0  0
  -25.3616  -32.6138   19.9827 O   0  0  0  0  0  0  0  0  0  0  0  0
  -23.5143  -32.9262   23.2514 O   0  0  0  0  0  0  0  0  0  0  0  0
  -27.8097  -31.0453   25.3937 O   0  0  0  0  0  0  0  0  0  0  0  0
  -23.4039  -18.4611   18.4330 O   0  0  0  0  0  0  0  0  0  0  0  0
  -30.1745   -8.2203   18.4479 O   0  0  0  0  0  0  0  0  0  0  0  0
  -28.1469  -26.6349   19.9625 O   0  0  0  0  0  0  0  0  0  1  0  0
  -35.1828   -8.9568   20.6340 F   0  0  0  0  0  0  0  0  0  0  0  0
  -32.3121   -8.9851   16.8705 F   0  0  0  0  0  0  0  0  0  0  0  0
  1  2  1  0  0  0  0
  1  5  2  0  0  0  0
  2  6  2  0  0  0  0
  3  8  2  0  0  0  0
  3 17  1  0  0  0  0
  4  9  1  0  0  0  0
  4 17  2  0  0  0  0
  5 19  1  0  0  0  0
  6 21  1  0  0  0  0
  7 10  2  0  0  0  0
  7 20  1  0  0  0  0
  8 27  1  0  0  0  0
  9 27  2  0  0  0  0
 10 28  1  0  0  0  0
 11 12  2  0  0  0  0
 11 29  1  0  0  0  0
 12 30  1  0  0  0  0
 13 22  1  0  0  0  0
 13 28  2  0  0  0  0
 14 23  2  0  0  0  0
 14 24  1  0  0  0  0
 15 25  2  0  0  0  0
 15 26  1  0  0  0  0
 16 30  2  0  0  0  0
 16 31  1  0  0  0  0
 17 32  1  0  0  0  0
 18 32  1  0  0  0  0
 18 33  2  0  0  0  0
 18 35  1  0  0  0  0
 19 21  2  0  0  0  0
 19 40  1  0  0  0  0
 20 22  2  0  0  0  0
 20 41  1  0  0  0  0
 21 52  1  0  0  0  0
 22 42  1  0  0  0  0
 23 25  1  0  0  0  0
 23 56  1  0  0  0  0
 24 26  2  0  0  0  0
 24 68  1  0  0  0  0
 25 74  1  0  0  0  0
 26 71  1  0  0  0  0
 27 84  1  0  0  0  0
 28 85  1  0  0  0  0
 29 31  2  0  0  0  0
 29 84  1  0  0  0  0
 30 86  1  0  0  0  0
 31 87  1  0  0  0  0
 32 66  2  0  0  0  0
 33 67  1  0  0  0  0
 33 72  1  0  0  0  0
 34 43  1  0  0  0  0
 34 53  1  0  0  0  0
 34 78  2  0  0  0  0
 35 73  1  0  0  0  0
 35 79  2  0  0  0  0
 36 54  1  0  0  0  0
 36 75  1  0  0  0  0
 36 80  2  0  0  0  0
 37 63  1  0  0  0  0
 37 69  1  0  0  0  0
 37 81  2  0  0  0  0
 38 64  1  0  0  0  0
 38 76  1  0  0  0  0
 38 82  2  0  0  0  0
 39 70  1  0  0  0  0
 39 74  1  0  0  0  0
 39 83  2  0  0  0  0
 40 44  1  0  0  0  0
 41 54  1  0  0  0  0
 42 69  1  0  0  0  0
 43 48  1  0  0  0  0
 44 46  1  0  0  0  0
 45 47  1  0  0  0  0
 45 49  1  0  0  0  0
 46 52  1  0  0  0  0
 47 55  1  0  0  0  0
 48 68  1  0  0  0  0
 49 70  1  0  0  0  0
 50 53  1  0  0  0  0
 50 68  1  0  0  0  0
 51 55  1  0  0  0  0
 51 70  1  0  0  0  0
 52 75  1  0  0  0  0
 53 62  1  0  0  0  0
 54 69  1  0  0  0  0
 55 67  1  0  0  0  0
 57 64  1  0  0  0  0
 58 65  1  0  0  0  0
 59 65  1  0  0  0  0
 60 65  1  0  0  0  0
 61 77  1  0  0  0  0
 62 85  1  0  0  0  0
 63 65  1  0  0  0  0
 63 76  1  0  0  0  0
 64 77  1  0  0  0  0
 66 67  1  0  0  0  0
M  CHG  1  77   1
M  ISO  4  39 100  62 101  74 100  85 101
M  END
> <Batch ID>
0101

> <Smiles>
CNC(C)C(=O)NC(C(=O)N1Cc2cc([101O:1][101CH2:1]C3CN(c4cc(C)c([100NH:0][100C:0](=O)N5CCCC(n6nc(-c7ccc(Oc8ccc(F)cc8F)cc7)c(C(N)=O)c6N)C5)cc4N)CCC3=O)ccc2CC1C(=O)NC1CCCc2ccccc21)C(C)(C)C

> <Shape>
0.236

> <Color>
0.096

> <Negative vol penalty>
0.000

$$$$

  -OEChem-04052301003D

 89 98  0     1  0  0  0  0  0999 V2000
  -28.1060  -30.7643   27.1143 C   0  0  0  0  0  0  0  0  0  0  0  0
  -28.4736  -29.7536   26.2319 C   0  0  0  0  0  0  0  0  0  0  0  0
  -25.8568  -13.5523   19.3565 C   0  0  0  0  0  0  0  0  0  0  0  0
  -24.7170  -13.6072   21.4860 C   0  0  0  0  0  0  0  0  0  0  0  0
  -26.7868  -31.2145   27.1463 C   0  0  0  0  0  0  0  0  0  0  0  0
  -27.5219  -29.1915   25.3817 C   0  0  0  0  0  0  0  0  0  0  0  0
  -29.2277  -28.6489   20.6445 C   0  0  0  0  0  0  0  0  0  0  0  0
  -26.6240  -21.4177   22.5588 C   0  0  0  0  0  0  0  0  0  0  0  0
  -25.3757  -21.3887   23.1804 C   0  0  0  0  0  0  0  0  0  0  0  0
  -25.9321  -12.1616   19.4326 C   0  0  0  0  0  0  0  0  0  0  0  0
  -24.7923  -12.2165   21.5622 C   0  0  0  0  0  0  0  0  0  0  0  0
  -30.0774  -27.5725   20.3931 C   0  0  0  0  0  0  0  0  0  0  0  0
  -23.1639   -9.5602   20.2534 C   0  0  0  0  0  0  0  0  0  0  0  0
  -22.0171   -8.8713   20.6481 C   0  0  0  0  0  0  0  0  0  0  0  0
  -28.2240  -26.3319   19.4740 C   0  0  0  0  0  0  0  0  0  0  0  0
  -25.5683  -22.0030   20.4659 C   0  0  0  0  0  0  0  0  0  0  0  0
  -23.2133   -7.9648   22.5415 C   0  0  0  0  0  0  0  0  0  0  0  0
  -25.2493  -14.2752   20.3832 C   0  0  0  0  0  0  0  0  0  0  0  0
  -26.2458  -16.6179   20.2211 C   0  0  0  0  0  0  0  0  0  0  0  0
  -25.8206  -30.6644   26.2893 C   0  0  0  0  0  0  0  0  0  0  0  0
  -27.8653  -28.5706   20.3220 C   0  0  0  0  0  0  0  0  0  0  0  0
  -26.1883  -29.6338   25.4032 C   0  0  0  0  0  0  0  0  0  0  0  0
  -27.3596  -27.4096   19.7199 C   0  0  0  0  0  0  0  0  0  0  0  0
  -26.7203  -21.7249   21.2015 C   0  0  0  0  0  0  0  0  0  0  0  0
  -24.2236  -21.6668   22.4448 C   0  0  0  0  0  0  0  0  0  0  0  0
  -25.3998  -11.4937   20.5354 C   0  0  0  0  0  0  0  0  0  0  0  0
  -29.5750  -26.4127   19.8104 C   0  0  0  0  0  0  0  0  0  0  0  0
  -24.3354   -9.4514   21.0027 C   0  0  0  0  0  0  0  0  0  0  0  0
  -24.3199  -21.9740   21.0876 C   0  0  0  0  0  0  0  0  0  0  0  0
  -22.0417   -8.0736   21.7921 C   0  0  0  0  0  0  0  0  0  0  0  0
  -24.3601   -8.6537   22.1467 C   0  0  0  0  0  0  0  0  0  0  0  0
  -25.1717  -15.7119   20.3054 C   0  0  0  0  0  0  0  0  0  0  0  0
  -25.6492  -17.8540   20.1707 C   0  0  0  0  0  0  0  0  0  0  0  0
  -27.6568  -16.3647   20.1910 C   0  0  0  0  0  0  0  0  0  0  0  0
  -25.1566  -28.7003   21.9802 C   0  0  0  0  0  0  0  0  0  0  0  0
  -23.8046  -28.6413   19.0321 C   0  0  0  0  0  0  0  0  0  0  0  0
  -29.2284  -21.5029   21.1486 C   0  0  0  0  0  0  0  0  0  0  0  0
  -24.0763  -27.7973   15.7366 C   0  0  0  0  0  0  0  0  0  0  0  0
  -21.7440  -21.2892   22.4425 C   0  0  0  0  0  0  0  0  0  0  0  0
  -24.3967  -31.1507   26.3934 C   0  0  0  0  0  0  0  0  0  0  0  0
  -26.9673  -29.7505   20.5750 C   0  0  0  0  0  0  0  0  0  0  0  0
  -25.9088  -27.2828   19.3361 C   0  0  0  0  0  0  0  0  0  0  0  0
  -23.5316  -30.7626   25.1971 C   0  0  0  0  0  0  0  0  0  0  0  0
  -21.9385  -23.9465   25.8014 C   0  0  0  0  0  0  0  0  0  0  0  0
  -21.5088  -22.5924   26.3698 C   0  0  0  0  0  0  0  0  0  0  0  0
  -20.8281  -19.1998   19.5290 C   0  0  0  0  0  0  0  0  0  0  0  0
  -23.7350  -29.2922   24.8457 C   0  0  0  0  0  0  0  0  0  0  0  0
  -21.9205  -18.1321   19.5204 C   0  0  0  0  0  0  0  0  0  0  0  0
  -22.4188  -23.6754   24.3787 C   0  0  0  0  0  0  0  0  0  0  0  0
  -21.7520  -21.5715   25.2620 C   0  0  0  0  0  0  0  0  0  0  0  0
  -20.5598  -19.7242   20.9364 C   0  0  0  0  0  0  0  0  0  0  0  0
  -22.8779  -19.1701   21.6150 C   0  0  0  0  0  0  0  0  0  0  0  0
  -25.1901  -29.0163   24.4480 C   0  0  1  0  0  0  0  0  0  0  0  0
  -25.4938  -29.3687   20.6774 C   0  0  1  0  0  0  0  0  0  0  0  0
  -23.1952  -18.6548   20.2032 C   0  0  1  0  0  0  0  0  0  0  0  0
  -22.8384  -22.2124   24.4092 C   0  0  0  0  0  0  0  0  0  0  0  0
  -22.7934  -27.8387   13.5803 C   0  0  0  0  0  0  0  0  0  0  0  0
  -22.1370  -26.2690   19.9815 C   0  0  0  0  0  0  0  0  0  0  0  0
  -21.6089  -25.7707   17.5855 C   0  0  0  0  0  0  0  0  0  0  0  0
  -20.8877  -27.9344   18.5958 C   0  0  0  0  0  0  0  0  0  0  0  0
  -26.0859  -29.5406   14.4399 C   0  0  0  0  0  0  0  0  0  0  0  0
  -30.3363  -21.6406   20.1135 C   0  0  0  0  0  0  0  0  0  0  0  0
  -30.8912  -23.0584   20.0321 C   0  0  0  0  0  0  0  0  0  0  0  0
  -29.8240  -24.0564   19.6066 C   0  0  0  0  0  0  0  0  0  1  0  0
  -23.3364  -27.5567   18.0922 C   0  0  1  0  0  0  0  0  0  0  0  0
  -23.7810  -28.5786   14.4690 C   0  0  2  0  0  0  0  0  0  0  0  0
  -22.0195  -26.8841   18.5726 C   0  0  0  0  0  0  0  0  0  0  0  0
  -23.9828  -16.3205   20.3088 N   0  0  0  0  0  0  0  0  0  0  0  0
  -24.3063  -17.6223   20.2260 N   0  0  0  0  0  0  0  0  0  0  0  0
  -25.0695  -28.4611   19.6095 N   0  0  0  0  0  0  0  0  0  0  0  0
  -21.7907  -20.1623   21.5963 N   0  0  0  0  0  0  0  0  0  0  0  0
  -26.1476  -19.1057   20.0849 N   0  0  0  0  0  0  0  0  0  0  0  0
  -28.3528  -16.3155   21.4065 N   0  0  0  0  0  0  0  0  0  0  0  0
  -27.9869  -21.7535   20.5709 N   0  0  0  0  0  0  0  0  0  0  0  0
  -25.4383  -29.4665   23.0951 N   0  0  0  0  0  0  0  0  0  0  0  0
  -23.2463  -28.1714   16.7722 N   0  0  0  0  0  0  0  0  0  0  0  0
  -22.9399  -21.6318   23.1018 N   0  0  0  0  0  0  0  0  0  0  0  0
  -25.0344  -28.8020   13.6944 N   0  3  0  0  0  0  0  0  0  0  0  0
  -28.2846  -16.2038   19.1170 O   0  0  0  0  0  0  0  0  0  0  0  0
  -24.6749  -27.5735   21.9742 O   0  0  0  0  0  0  0  0  0  0  0  0
  -23.0780  -29.6161   19.2406 O   0  0  0  0  0  0  0  0  0  0  0  0
  -29.4612  -21.2095   22.3165 O   0  0  0  0  0  0  0  0  0  0  0  0
  -24.9529  -26.9382   15.8005 O   0  0  0  0  0  0  0  0  0  0  0  0
  -20.6955  -21.9151   22.6416 O   0  0  0  0  0  0  0  0  0  0  0  0
  -23.2065  -22.2471   20.3501 O   0  0  0  0  0  0  0  0  0  0  0  0
  -25.4729  -10.1366   20.6099 O   0  0  0  0  0  0  0  0  0  0  0  0
  -30.4021  -25.3604   19.5646 O   0  0  0  0  0  0  0  0  0  1  0  0
  -20.9399   -7.4133   22.1719 F   0  0  0  0  0  0  0  0  0  0  0  0
  -25.4823   -8.5463   22.8712 F   0  0  0  0  0  0  0  0  0  0  0  0
  1  2  1  0  0  0  0
  1  5  2  0  0  0  0
  2  6  2  0  0  0  0
  3 10  2  0  0  0  0
  3 18  1  0  0  0  0
  4 11  1  0  0  0  0
  4 18  2  0  0  0  0
  5 20  1  0  0  0  0
  6 22  1  0  0  0  0
  7 12  2  0  0  0  0
  7 21  1  0  0  0  0
  8  9  2  0  0  0  0
  8 24  1  0  0  0  0
  9 25  1  0  0  0  0
 10 26  1  0  0  0  0
 11 26  2  0  0  0  0
 12 27  1  0  0  0  0
 13 14  2  0  0  0  0
 13 28  1  0  0  0  0
 14 30  1  0  0  0  0
 15 23  1  0  0  0  0
 15 27  2  0  0  0  0
 16 24  2  0  0  0  0
 16 29  1  0  0  0  0
 17 30  2  0  0  0  0
 17 31  1  0  0  0  0
 18 32  1  0  0  0  0
 19 32  1  0  0  0  0
 19 33  2  0  0  0  0
 19 34  1  0  0  0  0
 20 22  2  0  0  0  0
 20 40  1  0  0  0  0
 21 23  2  0  0  0  0
 21 41  1  0  0  0  0
 22 53  1  0  0  0  0
 23 42  1  0  0  0  0
 24 74  1  0  0  0  0
 25 29  2  0  0  0  0
 25 77  1  0  0  0  0
 26 86  1  0  0  0  0
 27 87  1  0  0  0  0
 28 31  2  0  0  0  0
 28 86  1  0  0  0  0
 29 85  1  0  0  0  0
 30 88  1  0  0  0  0
 31 89  1  0  0  0  0
 32 68  2  0  0  0  0
 33 69  1  0  0  0  0
 33 72  1  0  0  0  0
 34 73  1  0  0  0  0
 34 79  2  0  0  0  0
 35 54  1  0  0  0  0
 35 75  1  0  0  0  0
 35 80  2  0  0  0  0
 36 65  1  0  0  0  0
 36 70  1  0  0  0  0
 36 81  2  0  0  0  0
 37 62  1  0  0  0  0
 37 74  1  0  0  0  0
 37 82  2  0  0  0  0
 38 66  1  0  0  0  0
 38 76  1  0  0  0  0
 38 83  2  0  0  0  0
 39 71  1  0  0  0  0
 39 77  1  0  0  0  0
 39 84  2  0  0  0  0
 40 43  1  0  0  0  0
 41 54  1  0  0  0  0
 42 70  1  0  0  0  0
 43 47  1  0  0  0  0
 44 45  1  0  0  0  0
 44 49  1  0  0  0  0
 45 50  1  0  0  0  0
 46 48  1  0  0  0  0
 46 51  1  0  0  0  0
 47 53  1  0  0  0  0
 48 55  1  0  0  0  0
 49 56  1  0  0  0  0
 50 56  1  0  0  0  0
 51 71  1  0  0  0  0
 52 55  1  0  0  0  0
 52 71  1  0  0  0  0
 53 75  1  0  0  0  0
 54 70  1  0  0  0  0
 55 69  1  0  0  0  0
 56 77  1  0  0  0  0
 57 66  1  0  0  0  0
 58 67  1  0  0  0  0
 59 67  1  0  0  0  0
 60 67  1  0  0  0  0
 61 78  1  0  0  0  0
 62 63  1  0  0  0  0
 63 64  1  0  0  0  0
 64 87  1  0  0  0  0
 65 67  1  0  0  0  0
 65 76  1  0  0  0  0
 66 78  1  0  0  0  0
 68 69  1  0  0  0  0
M  CHG  1  78   1
M  ISO  4  39 100  64 101  77 100  87 101
M  END
> <Batch ID>
0101

> <Smiles>
CNC(C)C(=O)NC(C(=O)N1Cc2cc([101O:1][101CH2:1]CCC(=O)Nc3ccc([100N:0](C4CCCC4)[100C:0](=O)N4CCCC(n5nc(-c6ccc(Oc7ccc(F)cc7F)cc6)c(C(N)=O)c5N)C4)c(O)c3)ccc2CC1C(=O)NC1CCCc2ccccc21)C(C)(C)C

> <Shape>
0.224

> <Color>
0.064

> <Negative vol penalty>
0.000

$$$$

  -OEChem-04052301003D

 84 92  0     1  0  0  0  0  0999 V2000
  -29.9752  -25.4571   17.2916 C   0  0  0  0  0  0  0  0  0  0  0  0
  -28.5896  -25.5153   17.4011 C   0  0  0  0  0  0  0  0  0  0  0  0
  -25.8146  -16.1477   20.0297 C   0  0  0  0  0  0  0  0  0  0  0  0
  -24.6093  -15.3379   21.9607 C   0  0  0  0  0  0  0  0  0  0  0  0
  -20.6709  -23.2243   24.7235 C   0  0  0  0  0  0  0  0  0  0  0  0
  -30.7756  -25.8916   18.3473 C   0  0  0  0  0  0  0  0  0  0  0  0
  -28.0035  -26.0070   18.5670 C   0  0  0  0  0  0  0  0  0  0  0  0
  -22.8198  -29.2390   19.0014 C   0  0  0  0  0  0  0  0  0  0  0  0
  -26.2478  -14.8504   19.7560 C   0  0  0  0  0  0  0  0  0  0  0  0
  -25.0424  -14.0405   21.6869 C   0  0  0  0  0  0  0  0  0  0  0  0
  -19.9442  -23.8663   23.7208 C   0  0  0  0  0  0  0  0  0  0  0  0
  -21.5117  -28.8757   19.3188 C   0  0  0  0  0  0  0  0  0  0  0  0
  -27.9646  -11.8048   18.7557 C   0  0  0  0  0  0  0  0  0  0  0  0
  -29.3076  -11.6240   18.4253 C   0  0  0  0  0  0  0  0  0  0  0  0
  -22.7100  -24.1994   23.8702 C   0  0  0  0  0  0  0  0  0  0  0  0
  -21.8941  -29.5242   21.6106 C   0  0  0  0  0  0  0  0  0  0  0  0
  -29.9571  -12.5385   20.5652 C   0  0  0  0  0  0  0  0  0  0  0  0
  -24.9955  -16.3915   21.1321 C   0  0  0  0  0  0  0  0  0  0  0  0
  -22.0538  -23.3909   24.7983 C   0  0  0  0  0  0  0  0  0  0  0  0
  -23.3763  -18.3539   20.9456 C   0  0  0  0  0  0  0  0  0  0  0  0
  -30.1992  -26.3978   19.5229 C   0  0  0  0  0  0  0  0  0  0  0  0
  -23.6796  -29.7382   19.9903 C   0  0  0  0  0  0  0  0  0  0  0  0
  -28.7970  -26.4474   19.6399 C   0  0  0  0  0  0  0  0  0  0  0  0
  -23.2118  -29.8955   21.3027 C   0  0  0  0  0  0  0  0  0  0  0  0
  -25.8617  -13.7968   20.5845 C   0  0  0  0  0  0  0  0  0  0  0  0
  -21.0495  -29.0155   20.6242 C   0  0  0  0  0  0  0  0  0  0  0  0
  -20.6005  -24.6748   22.7927 C   0  0  0  0  0  0  0  0  0  0  0  0
  -27.6178  -12.3526   19.9908 C   0  0  0  0  0  0  0  0  0  0  0  0
  -21.9834  -24.8413   22.8674 C   0  0  0  0  0  0  0  0  0  0  0  0
  -30.3039  -11.9908   19.3301 C   0  0  0  0  0  0  0  0  0  0  0  0
  -28.6140  -12.7193   20.8955 C   0  0  0  0  0  0  0  0  0  0  0  0
  -24.5482  -17.7315   21.4158 C   0  0  0  0  0  0  0  0  0  0  0  0
  -23.4112  -19.6118   21.4960 C   0  0  0  0  0  0  0  0  0  0  0  0
  -22.8110  -22.7232   25.8451 C   0  0  0  0  0  0  0  0  0  0  0  0
  -22.3482  -17.8409   20.0881 C   0  0  0  0  0  0  0  0  0  0  0  0
  -24.2798  -22.8786   25.9530 C   0  0  0  0  0  0  0  0  0  0  0  0
  -26.4359  -28.7861   21.2552 C   0  0  0  0  0  0  0  0  0  0  0  0
  -26.2753  -31.6441   22.7809 C   0  0  0  0  0  0  0  0  0  0  0  0
  -24.3401  -34.2060   23.9378 C   0  0  0  0  0  0  0  0  0  0  0  0
  -31.1049  -26.8116   20.6557 C   0  0  0  0  0  0  0  0  0  0  0  0
  -25.0795  -30.1507   19.6261 C   0  0  0  0  0  0  0  0  0  0  0  0
  -24.0887  -30.4456   22.3967 C   0  0  0  0  0  0  0  0  0  0  0  0
  -30.4089  -27.6680   21.7103 C   0  0  0  0  0  0  0  0  0  0  0  0
  -27.1099  -22.0610   23.9089 C   0  0  0  0  0  0  0  0  0  0  0  0
  -29.0630  -27.0586   22.0897 C   0  0  0  0  0  0  0  0  0  0  0  0
  -26.6104  -20.8870   23.0674 C   0  0  0  0  0  0  0  0  0  0  0  0
  -26.5054  -22.0415   25.3091 C   0  0  0  0  0  0  0  0  0  0  0  0
  -24.5046  -20.8355   24.4776 C   0  0  0  0  0  0  0  0  0  0  0  0
  -28.1241  -26.9974   20.8788 C   0  0  1  0  0  0  0  0  0  0  0  0
  -26.0280  -30.1654   20.8209 C   0  0  1  0  0  0  0  0  0  0  0  0
  -25.0722  -20.8371   23.0475 C   0  0  2  0  0  0  0  0  0  0  0  0
  -24.4891  -36.3832   25.1769 C   0  0  0  0  0  0  0  0  0  0  0  0
  -26.6466  -30.1249   25.4009 C   0  0  0  0  0  0  0  0  0  0  0  0
  -25.8475  -32.1633   26.6153 C   0  0  0  0  0  0  0  0  0  0  0  0
  -27.9299  -32.2658   25.2455 C   0  0  0  0  0  0  0  0  0  0  0  0
  -23.2430  -35.7200   21.6437 C   0  0  0  0  0  0  0  0  0  0  0  0
  -23.1080  -25.0025   20.7781 C   0  0  0  0  0  0  0  0  0  0  0  0
  -18.1951  -26.8385   21.0312 C   0  0  0  0  0  0  0  0  0  0  0  0
  -19.1858  -27.6089   20.1726 C   0  0  0  0  0  0  0  0  0  1  0  0
  -18.8639  -26.2025   22.2397 C   0  0  0  0  0  0  0  0  0  0  0  0
  -25.6881  -32.1286   24.0846 C   0  0  1  0  0  0  0  0  0  0  0  0
  -24.4825  -35.7121   23.8122 C   0  0  2  0  0  0  0  0  0  0  0  0
  -26.5119  -31.6584   25.3166 C   0  0  0  0  0  0  0  0  0  0  0  0
  -25.2746  -18.5283   22.2040 N   0  0  0  0  0  0  0  0  0  0  0  0
  -22.2624  -21.9560   26.7481 N   0  0  0  0  0  0  0  0  0  0  0  0
  -24.5573  -19.6644   22.2333 N   0  0  0  0  0  0  0  0  0  0  0  0
  -25.0473  -21.9574   25.2541 N   0  0  0  0  0  0  0  0  0  0  0  0
  -25.4515  -30.8288   21.9921 N   0  0  0  0  0  0  0  0  0  0  0  0
  -22.5730  -20.6670   21.4162 N   0  0  0  0  0  0  0  0  0  0  0  0
  -22.4686  -16.5283   19.6118 N   0  0  0  0  0  0  0  0  0  0  0  0
  -27.5588  -28.3025   20.6112 N   0  0  0  0  0  0  0  0  0  0  0  0
  -25.5671  -33.5775   23.9643 N   0  0  0  0  0  0  0  0  0  0  0  0
  -23.3542  -36.2746   23.0174 N   0  3  0  0  0  0  0  0  0  0  0  0
  -21.3604  -18.5318   19.7408 O   0  0  0  0  0  0  0  0  0  0  0  0
  -24.6618  -23.8083   26.6516 O   0  0  0  0  0  0  0  0  0  0  0  0
  -25.7813  -28.2042   22.1122 O   0  0  0  0  0  0  0  0  0  0  0  0
  -27.4202  -31.9827   22.4705 O   0  0  0  0  0  0  0  0  0  0  0  0
  -23.2496  -33.6437   24.0094 O   0  0  0  0  0  0  0  0  0  0  0  0
  -26.2839  -12.5307   20.3176 O   0  0  0  0  0  0  0  0  0  0  0  0
  -22.6356  -25.6302   21.9685 O   0  0  0  0  0  0  0  0  0  0  0  0
  -19.7734  -28.6611   20.9368 O   0  0  0  0  0  0  0  0  0  1  0  0
  -19.8752  -25.3002   21.8122 O   0  0  0  0  0  0  0  0  0  0  0  0
  -31.5935  -11.8157   19.0134 F   0  0  0  0  0  0  0  0  0  0  0  0
  -28.2869  -13.2449   22.0841 F   0  0  0  0  0  0  0  0  0  0  0  0
  1  2  1  0  0  0  0
  1  6  2  0  0  0  0
  2  7  2  0  0  0  0
  3  9  2  0  0  0  0
  3 18  1  0  0  0  0
  4 10  1  0  0  0  0
  4 18  2  0  0  0  0
  5 11  2  0  0  0  0
  5 19  1  0  0  0  0
  6 21  1  0  0  0  0
  7 23  1  0  0  0  0
  8 12  2  0  0  0  0
  8 22  1  0  0  0  0
  9 25  1  0  0  0  0
 10 25  2  0  0  0  0
 11 27  1  0  0  0  0
 12 26  1  0  0  0  0
 13 14  2  0  0  0  0
 13 28  1  0  0  0  0
 14 30  1  0  0  0  0
 15 19  2  0  0  0  0
 15 29  1  0  0  0  0
 16 24  1  0  0  0  0
 16 26  2  0  0  0  0
 17 30  2  0  0  0  0
 17 31  1  0  0  0  0
 18 32  1  0  0  0  0
 19 34  1  0  0  0  0
 20 32  1  0  0  0  0
 20 33  2  0  0  0  0
 20 35  1  0  0  0  0
 21 23  2  0  0  0  0
 21 40  1  0  0  0  0
 22 24  2  0  0  0  0
 22 41  1  0  0  0  0
 23 49  1  0  0  0  0
 24 42  1  0  0  0  0
 25 79  1  0  0  0  0
 26 81  1  0  0  0  0
 27 29  2  0  0  0  0
 27 82  1  0  0  0  0
 28 31  2  0  0  0  0
 28 79  1  0  0  0  0
 29 80  1  0  0  0  0
 30 83  1  0  0  0  0
 31 84  1  0  0  0  0
 32 64  2  0  0  0  0
 33 66  1  0  0  0  0
 33 69  1  0  0  0  0
 34 36  1  0  0  0  0
 34 65  2  0  0  0  0
 35 70  1  0  0  0  0
 35 74  2  0  0  0  0
 36 67  1  0  0  0  0
 36 75  2  0  0  0  0
 37 50  1  0  0  0  0
 37 71  1  0  0  0  0
 37 76  2  0  0  0  0
 38 61  1  0  0  0  0
 38 68  1  0  0  0  0
 38 77  2  0  0  0  0
 39 62  1  0  0  0  0
 39 72  1  0  0  0  0
 39 78  2  0  0  0  0
 40 43  1  0  0  0  0
 41 50  1  0  0  0  0
 42 68  1  0  0  0  0
 43 45  1  0  0  0  0
 44 46  1  0  0  0  0
 44 47  1  0  0  0  0
 45 49  1  0  0  0  0
 46 51  1  0  0  0  0
 47 67  1  0  0  0  0
 48 51  1  0  0  0  0
 48 67  1  0  0  0  0
 49 71  1  0  0  0  0
 50 68  1  0  0  0  0
 51 66  1  0  0  0  0
 52 62  1  0  0  0  0
 53 63  1  0  0  0  0
 54 63  1  0  0  0  0
 55 63  1  0  0  0  0
 56 73  1  0  0  0  0
 57 80  1  0  0  0  0
 58 59  1  0  0  0  0
 58 60  1  0  0  0  0
 59 81  1  0  0  0  0
 60 82  1  0  0  0  0
 61 63  1  0  0  0  0
 61 72  1  0  0  0  0
 62 73  1  0  0  0  0
 64 66  1  0  0  0  0
M  CHG  1  73   1
M  ISO  4  34 100  36 100  59 101  81 101
M  END
> <Batch ID>
0101

> <Smiles>
CNC(C)C(=O)NC(C(=O)N1Cc2cc([101O:1][101CH2:1]CCOc3ccc([100C:0](=N)[100C:0](=O)N4CCCC(n5nc(-c6ccc(Oc7ccc(F)cc7F)cc6)c(C(N)=O)c5N)C4)cc3OC)ccc2CC1C(=O)NC1CCCc2ccccc21)C(C)(C)C

> <Shape>
0.293

> <Color>
0.074

> <Negative vol penalty>
0.000

$$$$

  -OEChem-04052301003D

 86 94  0     1  0  0  0  0  0999 V2000
  -22.0308  -21.2597   17.5851 C   0  0  0  0  0  0  0  0  0  0  0  0
  -23.2067  -20.5173   17.6223 C   0  0  0  0  0  0  0  0  0  0  0  0
  -19.8486  -22.7662   21.1981 C   0  0  0  0  0  0  0  0  0  0  0  0
  -17.6115  -22.5013   20.3253 C   0  0  0  0  0  0  0  0  0  0  0  0
  -22.0837  -22.6511   17.6578 C   0  0  0  0  0  0  0  0  0  0  0  0
  -24.4363  -21.1658   17.7312 C   0  0  0  0  0  0  0  0  0  0  0  0
  -27.5384  -18.9549   21.1926 C   0  0  0  0  0  0  0  0  0  0  0  0
  -19.7399  -24.1496   21.0570 C   0  0  0  0  0  0  0  0  0  0  0  0
  -17.5027  -23.8848   20.1842 C   0  0  0  0  0  0  0  0  0  0  0  0
  -28.2099  -17.7879   20.8305 C   0  0  0  0  0  0  0  0  0  0  0  0
  -19.9168  -27.7747   21.2646 C   0  0  0  0  0  0  0  0  0  0  0  0
  -20.3536  -28.5708   22.3233 C   0  0  0  0  0  0  0  0  0  0  0  0
  -24.8279  -12.8197   19.1725 C   0  0  0  0  0  0  0  0  0  0  0  0
  -24.7499  -10.5568   20.0148 C   0  0  0  0  0  0  0  0  0  0  0  0
  -30.1843  -19.0836   20.3395 C   0  0  0  0  0  0  0  0  0  0  0  0
  -22.7095  -11.6738   19.3622 C   0  0  0  0  0  0  0  0  0  0  0  0
  -18.7421  -27.5158   23.7817 C   0  0  0  0  0  0  0  0  0  0  0  0
  -18.7844  -21.9420   20.8322 C   0  0  0  0  0  0  0  0  0  0  0  0
  -25.4821  -11.6931   19.6708 C   0  0  0  0  0  0  0  0  0  0  0  0
  -18.5481  -19.7427   22.1030 C   0  0  0  0  0  0  0  0  0  0  0  0
  -23.3139  -23.3165   17.7774 C   0  0  0  0  0  0  0  0  0  0  0  0
  -28.1823  -20.1987   21.1210 C   0  0  0  0  0  0  0  0  0  0  0  0
  -24.5058  -22.5675   17.8043 C   0  0  0  0  0  0  0  0  0  0  0  0
  -29.5202  -20.2642   20.7058 C   0  0  0  0  0  0  0  0  0  0  0  0
  -18.5669  -24.7089   20.5501 C   0  0  0  0  0  0  0  0  0  0  0  0
  -29.5323  -17.8525   20.4018 C   0  0  0  0  0  0  0  0  0  0  0  0
  -18.8925  -26.8491   21.4644 C   0  0  0  0  0  0  0  0  0  0  0  0
  -23.4416  -12.8101   19.0182 C   0  0  0  0  0  0  0  0  0  0  0  0
  -19.7663  -28.4414   23.5818 C   0  0  0  0  0  0  0  0  0  0  0  0
  -23.3636  -10.5471   19.8605 C   0  0  0  0  0  0  0  0  0  0  0  0
  -18.3052  -26.7197   22.7230 C   0  0  0  0  0  0  0  0  0  0  0  0
  -18.8964  -20.5129   20.9772 C   0  0  0  0  0  0  0  0  0  0  0  0
  -18.8419  -18.4512   21.7397 C   0  0  0  0  0  0  0  0  0  0  0  0
  -26.9581  -11.7031   19.8353 C   0  0  0  0  0  0  0  0  0  0  0  0
  -18.0073  -20.1578   23.3643 C   0  0  0  0  0  0  0  0  0  0  0  0
  -27.7411  -22.9509   19.5474 C   0  0  0  0  0  0  0  0  0  0  0  0
  -30.2763  -23.8672   21.4933 C   0  0  0  0  0  0  0  0  0  0  0  0
  -29.0455  -12.6885   18.9548 C   0  0  0  0  0  0  0  0  0  0  0  0
  -29.6803  -27.1196   20.6527 C   0  0  0  0  0  0  0  0  0  0  0  0
  -22.3831  -14.8486   19.5004 C   0  0  0  0  0  0  0  0  0  0  0  0
  -23.3239  -24.8245   17.8051 C   0  0  0  0  0  0  0  0  0  0  0  0
  -27.4493  -21.4426   21.5452 C   0  0  0  0  0  0  0  0  0  0  0  0
  -30.2565  -21.5735   20.6154 C   0  0  0  0  0  0  0  0  0  0  0  0
  -24.6425  -25.4159   18.2966 C   0  0  0  0  0  0  0  0  0  0  0  0
  -20.0294  -16.4698   17.2493 C   0  0  0  0  0  0  0  0  0  0  0  0
  -25.8222  -24.7301   17.6149 C   0  0  0  0  0  0  0  0  0  0  0  0
  -19.5273  -17.6301   18.1081 C   0  0  0  0  0  0  0  0  0  0  0  0
  -21.4976  -16.1597   17.5271 C   0  0  0  0  0  0  0  0  0  0  0  0
  -21.2898  -17.0534   19.8323 C   0  0  0  0  0  0  0  0  0  0  0  0
  -25.8572  -23.2334   17.9468 C   0  0  1  0  0  0  0  0  0  0  0  0
  -28.0637  -22.7294   20.9980 C   0  0  1  0  0  0  0  0  0  0  0  0
  -19.8037  -17.3727   19.5999 C   0  0  1  0  0  0  0  0  0  0  0  0
  -30.3518  -29.4629   21.2485 C   0  0  0  0  0  0  0  0  0  0  0  0
  -28.5594  -23.7157   24.0102 C   0  0  0  0  0  0  0  0  0  0  0  0
  -28.4853  -26.2182   24.0251 C   0  0  0  0  0  0  0  0  0  0  0  0
  -30.6686  -25.0353   24.2638 C   0  0  0  0  0  0  0  0  0  0  0  0
  -30.7220  -27.6368   17.9312 C   0  0  0  0  0  0  0  0  0  0  0  0
  -29.4847  -13.7017   17.9119 C   0  0  0  0  0  0  0  0  0  0  0  0
  -30.2575  -14.8666   18.5202 C   0  0  0  0  0  0  0  0  0  0  0  0
  -29.4062  -15.6528   19.5065 C   0  0  0  0  0  0  0  0  0  1  0  0
  -29.5086  -25.0550   22.0174 C   0  0  1  0  0  0  0  0  0  0  0  0
  -30.6223  -28.2696   20.3454 C   0  0  2  0  0  0  0  0  0  0  0  0
  -29.2966  -24.9914   23.5564 C   0  0  0  0  0  0  0  0  0  0  0  0
  -19.3750  -19.7723   19.9739 N   0  0  0  0  0  0  0  0  0  0  0  0
  -19.3296  -18.5234   20.4680 N   0  0  0  0  0  0  0  0  0  0  0  0
  -29.5270  -22.7443   21.1195 N   0  0  0  0  0  0  0  0  0  0  0  0
  -21.7322  -15.9631   18.9610 N   0  0  0  0  0  0  0  0  0  0  0  0
  -18.7281  -17.2721   22.3871 N   0  0  0  0  0  0  0  0  0  0  0  0
  -17.7658  -21.5228   23.5711 N   0  0  0  0  0  0  0  0  0  0  0  0
  -27.6550  -12.5560   18.9810 N   0  0  0  0  0  0  0  0  0  0  0  0
  -26.3879  -23.0229   19.2766 N   0  0  0  0  0  0  0  0  0  0  0  0
  -30.2282  -26.2395   21.5618 N   0  0  0  0  0  0  0  0  0  0  0  0
  -30.4624  -28.7060   18.9295 N   0  3  0  0  0  0  0  0  0  0  0  0
  -27.4716  -10.9628   20.6696 O   0  0  0  0  0  0  0  0  0  0  0  0
  -17.7613  -19.3441   24.2868 O   0  0  0  0  0  0  0  0  0  0  0  0
  -28.6524  -23.0508   18.7343 O   0  0  0  0  0  0  0  0  0  0  0  0
  -31.5070  -23.9279   21.4235 O   0  0  0  0  0  0  0  0  0  0  0  0
  -29.8324  -12.0780   19.6729 O   0  0  0  0  0  0  0  0  0  0  0  0
  -28.5680  -27.0146   20.1405 O   0  0  0  0  0  0  0  0  0  0  0  0
  -22.5827  -14.6784   20.7026 O   0  0  0  0  0  0  0  0  0  0  0  0
  -18.4604  -26.0588   20.4125 O   0  0  0  0  0  0  0  0  0  0  0  0
  -22.7861  -13.9398   18.5179 O   0  0  0  0  0  0  0  0  0  0  0  0
  -30.1902  -16.7149   20.0483 O   0  0  0  0  0  0  0  0  0  1  0  0
  -20.1870  -29.2050   24.5988 F   0  0  0  0  0  0  0  0  0  0  0  0
  -22.6603   -9.4562   20.1912 F   0  0  0  0  0  0  0  0  0  0  0  0
  -17.3216  -25.8314   22.9213 F   0  0  0  0  0  0  0  0  0  0  0  0
  1  2  1  0  0  0  0
  1  5  2  0  0  0  0
  2  6  2  0  0  0  0
  3  8  2  0  0  0  0
  3 18  1  0  0  0  0
  4  9  1  0  0  0  0
  4 18  2  0  0  0  0
  5 21  1  0  0  0  0
  6 23  1  0  0  0  0
  7 10  2  0  0  0  0
  7 22  1  0  0  0  0
  8 25  1  0  0  0  0
  9 25  2  0  0  0  0
 10 26  1  0  0  0  0
 11 12  2  0  0  0  0
 11 27  1  0  0  0  0
 12 29  1  0  0  0  0
 13 19  2  0  0  0  0
 13 28  1  0  0  0  0
 14 19  1  0  0  0  0
 14 30  2  0  0  0  0
 15 24  1  0  0  0  0
 15 26  2  0  0  0  0
 16 28  2  0  0  0  0
 16 30  1  0  0  0  0
 17 29  2  0  0  0  0
 17 31  1  0  0  0  0
 18 32  1  0  0  0  0
 19 34  1  0  0  0  0
 20 32  1  0  0  0  0
 20 33  2  0  0  0  0
 20 35  1  0  0  0  0
 21 23  2  0  0  0  0
 21 41  1  0  0  0  0
 22 24  2  0  0  0  0
 22 42  1  0  0  0  0
 23 50  1  0  0  0  0
 24 43  1  0  0  0  0
 25 81  1  0  0  0  0
 26 83  1  0  0  0  0
 27 31  2  0  0  0  0
 27 81  1  0  0  0  0
 28 82  1  0  0  0  0
 29 84  1  0  0  0  0
 30 85  1  0  0  0  0
 31 86  1  0  0  0  0
 32 64  2  0  0  0  0
 33 65  1  0  0  0  0
 33 68  1  0  0  0  0
 34 70  1  0  0  0  0
 34 74  2  0  0  0  0
 35 69  1  0  0  0  0
 35 75  2  0  0  0  0
 36 51  1  0  0  0  0
 36 71  1  0  0  0  0
 36 76  2  0  0  0  0
 37 61  1  0  0  0  0
 37 66  1  0  0  0  0
 37 77  2  0  0  0  0
 38 58  1  0  0  0  0
 38 70  1  0  0  0  0
 38 78  2  0  0  0  0
 39 62  1  0  0  0  0
 39 72  1  0  0  0  0
 39 79  2  0  0  0  0
 40 67  1  0  0  0  0
 40 80  2  0  0  0  0
 40 82  1  0  0  0  0
 41 44  1  0  0  0  0
 42 51  1  0  0  0  0
 43 66  1  0  0  0  0
 44 46  1  0  0  0  0
 45 47  1  0  0  0  0
 45 48  1  0  0  0  0
 46 50  1  0  0  0  0
 47 52  1  0  0  0  0
 48 67  1  0  0  0  0
 49 52  1  0  0  0  0
 49 67  1  0  0  0  0
 50 71  1  0  0  0  0
 51 66  1  0  0  0  0
 52 65  1  0  0  0  0
 53 62  1  0  0  0  0
 54 63  1  0  0  0  0
 55 63  1  0  0  0  0
 56 63  1  0  0  0  0
 57 73  1  0  0  0  0
 58 59  1  0  0  0  0
 59 60  1  0  0  0  0
 60 83  1  0  0  0  0
 61 63  1  0  0  0  0
 61 72  1  0  0  0  0
 62 73  1  0  0  0  0
 64 65  1  0  0  0  0
M  CHG  1  73   1
M  ISO  4  40 100  60 101  82 100  83 101
M  END
> <Batch ID>
0101

> <Smiles>
CNC(C)C(=O)NC(C(=O)N1Cc2cc([101O:1][101CH2:1]CCC(=O)NC(=O)c3cc(F)cc([100O:0][100C:0](=O)N4CCCC(n5nc(-c6ccc(Oc7ccc(F)cc7F)cc6)c(C(N)=O)c5N)C4)c3)ccc2CC1C(=O)NC1CCCc2ccccc21)C(C)(C)C

> <Shape>
0.196

> <Color>
0.081

> <Negative vol penalty>
0.000

$$$$

  -OEChem-04052301003D

 89 98  0     1  0  0  0  0  0999 V2000
  -27.4980  -37.6264   21.2880 C   0  0  0  0  0  0  0  0  0  0  0  0
  -28.0406  -36.3843   20.9746 C   0  0  0  0  0  0  0  0  0  0  0  0
  -25.9912   -9.5443   21.0305 C   0  0  0  0  0  0  0  0  0  0  0  0
  -27.8597  -11.0682   21.1835 C   0  0  0  0  0  0  0  0  0  0  0  0
  -26.4662  -37.7197   22.2210 C   0  0  0  0  0  0  0  0  0  0  0  0
  -27.5524  -35.2349   21.5950 C   0  0  0  0  0  0  0  0  0  0  0  0
  -27.0275  -29.6569   19.1219 C   0  0  0  0  0  0  0  0  0  0  0  0
  -26.8517   -8.4676   21.2446 C   0  0  0  0  0  0  0  0  0  0  0  0
  -28.7202   -9.9915   21.3977 C   0  0  0  0  0  0  0  0  0  0  0  0
  -27.8315  -28.5201   19.1925 C   0  0  0  0  0  0  0  0  0  0  0  0
  -28.4083   -7.0061   23.8664 C   0  0  0  0  0  0  0  0  0  0  0  0
  -28.0065   -6.0255   24.7734 C   0  0  0  0  0  0  0  0  0  0  0  0
  -26.4503  -27.6613   20.9741 C   0  0  0  0  0  0  0  0  0  0  0  0
  -28.6708  -20.5408   20.4778 C   0  0  0  0  0  0  0  0  0  0  0  0
  -28.9881  -21.0102   18.1293 C   0  0  0  0  0  0  0  0  0  0  0  0
  -28.1015   -4.3654   23.0206 C   0  0  0  0  0  0  0  0  0  0  0  0
  -26.4952  -10.8446   20.9999 C   0  0  0  0  0  0  0  0  0  0  0  0
  -24.5067  -12.3375   21.5699 C   0  0  0  0  0  0  0  0  0  0  0  0
  -25.9585  -36.5698   22.8460 C   0  0  0  0  0  0  0  0  0  0  0  0
  -25.9334  -29.8097   19.9857 C   0  0  0  0  0  0  0  0  0  0  0  0
  -26.5137  -35.3131   22.5383 C   0  0  0  0  0  0  0  0  0  0  0  0
  -25.6324  -28.7998   20.9107 C   0  0  0  0  0  0  0  0  0  0  0  0
  -29.1620  -21.3665   19.4666 C   0  0  0  0  0  0  0  0  0  0  0  0
  -28.0057  -19.3589   20.1518 C   0  0  0  0  0  0  0  0  0  0  0  0
  -27.8317  -19.0026   18.8144 C   0  0  0  0  0  0  0  0  0  0  0  0
  -28.2162   -8.6912   21.4282 C   0  0  0  0  0  0  0  0  0  0  0  0
  -27.5447  -27.5234   20.1207 C   0  0  0  0  0  0  0  0  0  0  0  0
  -28.6566   -6.6664   22.5365 C   0  0  0  0  0  0  0  0  0  0  0  0
  -28.3229  -19.8283   17.8032 C   0  0  0  0  0  0  0  0  0  0  0  0
  -27.8531   -4.7052   24.3505 C   0  0  0  0  0  0  0  0  0  0  0  0
  -28.5032   -5.3460   22.1136 C   0  0  0  0  0  0  0  0  0  0  0  0
  -25.6068  -11.9572   20.7782 C   0  0  0  0  0  0  0  0  0  0  0  0
  -23.9971  -13.4464   20.9397 C   0  0  0  0  0  0  0  0  0  0  0  0
  -31.0272  -22.4946   20.5884 C   0  0  0  0  0  0  0  0  0  0  0  0
  -29.2941  -23.8145   19.3356 C   0  0  0  0  0  0  0  0  0  0  0  0
  -23.9914  -11.7416   22.7679 C   0  0  0  0  0  0  0  0  0  0  0  0
  -25.1333  -31.8982   22.2444 C   0  0  0  0  0  0  0  0  0  0  0  0
  -22.3498  -30.2327   22.2521 C   0  0  0  0  0  0  0  0  0  0  0  0
  -20.7214  -27.3085   21.5854 C   0  0  0  0  0  0  0  0  0  0  0  0
  -26.4018  -17.5554   17.3288 C   0  0  0  0  0  0  0  0  0  0  0  0
  -24.8746  -36.7258   23.8831 C   0  0  0  0  0  0  0  0  0  0  0  0
  -25.0601  -31.0296   19.8788 C   0  0  0  0  0  0  0  0  0  0  0  0
  -24.4574  -28.9063   21.8468 C   0  0  0  0  0  0  0  0  0  0  0  0
  -31.6420  -23.7912   21.0734 C   0  0  0  0  0  0  0  0  0  0  0  0
  -24.1596  -35.4193   24.2180 C   0  0  0  0  0  0  0  0  0  0  0  0
  -30.7302  -24.9896   20.9508 C   0  0  0  0  0  0  0  0  0  0  0  0
  -23.6229  -15.4500   16.6062 C   0  0  0  0  0  0  0  0  0  0  0  0
  -25.1708  -34.2989   24.4393 C   0  0  0  0  0  0  0  0  0  0  0  0
  -23.7127  -14.3533   17.6698 C   0  0  0  0  0  0  0  0  0  0  0  0
  -25.0052  -15.8888   16.1259 C   0  0  0  0  0  0  0  0  0  0  0  0
  -26.0263  -15.1853   18.2547 C   0  0  0  0  0  0  0  0  0  0  0  0
  -25.9942  -34.0406   23.1716 C   0  0  1  0  0  0  0  0  0  0  0  0
  -30.1851  -25.0323   19.5345 C   0  0  2  0  0  0  0  0  0  0  0  0
  -24.2763  -31.3171   21.1556 C   0  0  1  0  0  0  0  0  0  0  0  0
  -24.6608  -14.7564   18.8162 C   0  0  2  0  0  0  0  0  0  0  0  0
  -18.4568  -26.2373   21.7317 C   0  0  0  0  0  0  0  0  0  0  0  0
  -22.7111  -29.8854   25.2618 C   0  0  0  0  0  0  0  0  0  0  0  0
  -20.9975  -28.0617   25.1868 C   0  0  0  0  0  0  0  0  0  0  0  0
  -20.3691  -30.3885   24.5435 C   0  0  0  0  0  0  0  0  0  0  0  0
  -20.5971  -26.9006   18.6568 C   0  0  0  0  0  0  0  0  0  0  0  0
  -28.7003  -20.4066   15.5274 C   0  0  0  0  0  0  0  0  0  0  0  0
  -29.4278  -26.3347   19.2860 C   0  0  0  0  0  0  0  0  0  1  0  0
  -21.8285  -29.0252   22.9932 C   0  0  1  0  0  0  0  0  0  0  0  0
  -19.4206  -27.0235   20.8567 C   0  0  2  0  0  0  0  0  0  0  0  0
  -21.4999  -29.3388   24.4802 C   0  0  0  0  0  0  0  0  0  0  0  0
  -25.7862  -12.7593   19.7253 N   0  0  0  0  0  0  0  0  0  0  0  0
  -24.7919  -13.6546   19.8511 N   0  0  0  0  0  0  0  0  0  0  0  0
  -29.8526  -22.5951   19.8049 N   0  0  0  0  0  0  0  0  0  0  0  0
  -23.6371  -30.1210   21.7079 N   0  0  0  0  0  0  0  0  0  0  0  0
  -25.8467  -16.2597   17.2657 N   0  0  0  0  0  0  0  0  0  0  0  0
  -27.5163  -18.5380   21.1929 N   0  0  0  0  0  0  0  0  0  0  0  0
  -22.9512  -14.2539   21.2162 N   0  0  0  0  0  0  0  0  0  0  0  0
  -24.6351  -10.6068   23.2799 N   0  0  0  0  0  0  0  0  0  0  0  0
  -27.1570  -17.8039   18.4745 N   0  0  0  0  0  0  0  0  0  0  0  0
  -25.2226  -33.2769   22.2147 N   0  0  0  0  0  0  0  0  0  0  0  0
  -20.6930  -28.5315   22.2216 N   0  0  0  0  0  0  0  0  0  0  0  0
  -19.6820  -26.2350   19.6194 N   0  3  0  0  0  0  0  0  0  0  0  0
  -31.6295  -21.4440   20.8326 O   0  0  0  0  0  0  0  0  0  0  0  0
  -28.1805  -23.9323   18.8202 O   0  0  0  0  0  0  0  0  0  0  0  0
  -22.9801  -12.1922   23.3575 O   0  0  0  0  0  0  0  0  0  0  0  0
  -25.6725  -31.1512   23.0525 O   0  0  0  0  0  0  0  0  0  0  0  0
  -21.6381  -31.2354   22.1533 O   0  0  0  0  0  0  0  0  0  0  0  0
  -21.6666  -26.5231   21.5929 O   0  0  0  0  0  0  0  0  0  0  0  0
  -26.1982  -18.3923   16.4456 O   0  0  0  0  0  0  0  0  0  0  0  0
  -29.0562   -7.6409   21.6374 O   0  0  0  0  0  0  0  0  0  0  0  0
  -28.1645  -19.5008   16.4894 O   0  0  0  0  0  0  0  0  0  0  0  0
  -28.3282  -26.4131   20.1921 O   0  0  0  0  0  0  0  0  0  1  0  0
  -27.4687   -3.7634   25.2219 F   0  0  0  0  0  0  0  0  0  0  0  0
  -28.7415   -5.0134   20.8375 F   0  0  0  0  0  0  0  0  0  0  0  0
  1  2  1  0  0  0  0
  1  5  2  0  0  0  0
  2  6  2  0  0  0  0
  3  8  2  0  0  0  0
  3 17  1  0  0  0  0
  4  9  1  0  0  0  0
  4 17  2  0  0  0  0
  5 19  1  0  0  0  0
  6 21  1  0  0  0  0
  7 10  2  0  0  0  0
  7 20  1  0  0  0  0
  8 26  1  0  0  0  0
  9 26  2  0  0  0  0
 10 27  1  0  0  0  0
 11 12  2  0  0  0  0
 11 28  1  0  0  0  0
 12 30  1  0  0  0  0
 13 22  1  0  0  0  0
 13 27  2  0  0  0  0
 14 23  1  0  0  0  0
 14 24  2  0  0  0  0
 15 23  2  0  0  0  0
 15 29  1  0  0  0  0
 16 30  2  0  0  0  0
 16 31  1  0  0  0  0
 17 32  1  0  0  0  0
 18 32  1  0  0  0  0
 18 33  2  0  0  0  0
 18 36  1  0  0  0  0
 19 21  2  0  0  0  0
 19 41  1  0  0  0  0
 20 22  2  0  0  0  0
 20 42  1  0  0  0  0
 21 52  1  0  0  0  0
 22 43  1  0  0  0  0
 23 68  1  0  0  0  0
 24 25  1  0  0  0  0
 24 71  1  0  0  0  0
 25 29  2  0  0  0  0
 25 74  1  0  0  0  0
 26 85  1  0  0  0  0
 27 87  1  0  0  0  0
 28 31  2  0  0  0  0
 28 85  1  0  0  0  0
 29 86  1  0  0  0  0
 30 88  1  0  0  0  0
 31 89  1  0  0  0  0
 32 66  2  0  0  0  0
 33 67  1  0  0  0  0
 33 72  1  0  0  0  0
 34 44  1  0  0  0  0
 34 68  1  0  0  0  0
 34 78  2  0  0  0  0
 35 53  1  0  0  0  0
 35 68  1  0  0  0  0
 35 79  2  0  0  0  0
 36 73  1  0  0  0  0
 36 80  2  0  0  0  0
 37 54  1  0  0  0  0
 37 75  1  0  0  0  0
 37 81  2  0  0  0  0
 38 63  1  0  0  0  0
 38 69  1  0  0  0  0
 38 82  2  0  0  0  0
 39 64  1  0  0  0  0
 39 76  1  0  0  0  0
 39 83  2  0  0  0  0
 40 70  1  0  0  0  0
 40 74  1  0  0  0  0
 40 84  2  0  0  0  0
 41 45  1  0  0  0  0
 42 54  1  0  0  0  0
 43 69  1  0  0  0  0
 44 46  1  0  0  0  0
 45 48  1  0  0  0  0
 46 53  1  0  0  0  0
 47 49  1  0  0  0  0
 47 50  1  0  0  0  0
 48 52  1  0  0  0  0
 49 55  1  0  0  0  0
 50 70  1  0  0  0  0
 51 55  1  0  0  0  0
 51 70  1  0  0  0  0
 52 75  1  0  0  0  0
 53 62  1  0  0  0  0
 54 69  1  0  0  0  0
 55 67  1  0  0  0  0
 56 64  1  0  0  0  0
 57 65  1  0  0  0  0
 58 65  1  0  0  0  0
 59 65  1  0  0  0  0
 60 77  1  0  0  0  0
 61 86  1  0  0  0  0
 62 87  1  0  0  0  0
 63 65  1  0  0  0  0
 63 76  1  0  0  0  0
 64 77  1  0  0  0  0
 66 67  1  0  0  0  0
M  CHG  1  77   1
M  ISO  4  40 100  62 101  74 100  87 101
M  END
> <Batch ID>
0101

> <Smiles>
CNC(C)C(=O)NC(C(=O)N1Cc2cc([101O:1][101CH2:1]C3CCC(=O)N(c4cc(N)c([100NH:0][100C:0](=O)N5CCCC(n6nc(-c7ccc(Oc8ccc(F)cc8F)cc7)c(C(N)=O)c6N)C5)c(OC)c4)C3=O)ccc2CC1C(=O)NC1CCCc2ccccc21)C(C)(C)C

> <Shape>
0.270

> <Color>
0.079

> <Negative vol penalty>
0.000

$$$$

  -OEChem-04052301003D

 86 95  0     1  0  0  0  0  0999 V2000
  -30.5603  -35.6155   23.7500 C   0  0  0  0  0  0  0  0  0  0  0  0
  -30.5665  -34.6957   22.7063 C   0  0  0  0  0  0  0  0  0  0  0  0
  -23.2890   -9.4308   19.5888 C   0  0  0  0  0  0  0  0  0  0  0  0
  -24.6878   -8.9691   21.5038 C   0  0  0  0  0  0  0  0  0  0  0  0
  -29.8549  -35.3361   24.9197 C   0  0  0  0  0  0  0  0  0  0  0  0
  -29.8682  -33.4953   22.8322 C   0  0  0  0  0  0  0  0  0  0  0  0
  -26.1890  -28.7418   18.9356 C   0  0  0  0  0  0  0  0  0  0  0  0
  -26.4838  -19.7882   19.4133 C   0  0  0  0  0  0  0  0  0  0  0  0
  -27.1617  -18.5753   19.5351 C   0  0  0  0  0  0  0  0  0  0  0  0
  -22.1870   -8.9124   20.2688 C   0  0  0  0  0  0  0  0  0  0  0  0
  -23.5858   -8.4506   22.1838 C   0  0  0  0  0  0  0  0  0  0  0  0
  -26.1388  -27.3737   18.6719 C   0  0  0  0  0  0  0  0  0  0  0  0
  -21.8101   -5.5737   22.2230 C   0  0  0  0  0  0  0  0  0  0  0  0
  -21.9792   -4.3716   22.9099 C   0  0  0  0  0  0  0  0  0  0  0  0
  -24.8904  -27.0331   20.7077 C   0  0  0  0  0  0  0  0  0  0  0  0
  -24.8764  -18.7422   17.9438 C   0  0  0  0  0  0  0  0  0  0  0  0
  -21.3847   -5.4698   24.9781 C   0  0  0  0  0  0  0  0  0  0  0  0
  -24.5395   -9.4592   20.2064 C   0  0  0  0  0  0  0  0  0  0  0  0
  -26.2212   -9.5339   18.2897 C   0  0  0  0  0  0  0  0  0  0  0  0
  -29.1397  -34.1359   25.0563 C   0  0  0  0  0  0  0  0  0  0  0  0
  -25.5987  -29.2653   20.0949 C   0  0  0  0  0  0  0  0  0  0  0  0
  -29.1537  -33.1990   24.0054 C   0  0  0  0  0  0  0  0  0  0  0  0
  -24.9323  -28.4085   20.9826 C   0  0  0  0  0  0  0  0  0  0  0  0
  -25.3411  -19.8717   18.6176 C   0  0  0  0  0  0  0  0  0  0  0  0
  -26.6970  -17.4458   18.8613 C   0  0  0  0  0  0  0  0  0  0  0  0
  -22.3353   -8.4223   21.5662 C   0  0  0  0  0  0  0  0  0  0  0  0
  -25.4920  -26.5187   19.5594 C   0  0  0  0  0  0  0  0  0  0  0  0
  -21.4284   -6.7240   22.9136 C   0  0  0  0  0  0  0  0  0  0  0  0
  -21.7665   -4.3196   24.2874 C   0  0  0  0  0  0  0  0  0  0  0  0
  -25.5543  -17.5293   18.0656 C   0  0  0  0  0  0  0  0  0  0  0  0
  -21.2157   -6.6720   24.2912 C   0  0  0  0  0  0  0  0  0  0  0  0
  -25.6784   -9.9941   19.5043 C   0  0  0  0  0  0  0  0  0  0  0  0
  -27.2838  -10.3705   18.0497 C   0  0  0  0  0  0  0  0  0  0  0  0
  -23.2476  -23.6118   18.2835 C   0  0  0  0  0  0  0  0  0  0  0  0
  -25.8025   -8.4475   17.4531 C   0  0  0  0  0  0  0  0  0  0  0  0
  -26.6699  -30.8224   22.6505 C   0  0  0  0  0  0  0  0  0  0  0  0
  -23.5110  -31.0548   23.3501 C   0  0  0  0  0  0  0  0  0  0  0  0
  -20.6154  -28.9077   23.1988 C   0  0  0  0  0  0  0  0  0  0  0  0
  -28.5372  -15.9643   19.7361 C   0  0  0  0  0  0  0  0  0  0  0  0
  -28.4309  -33.8573   26.3581 C   0  0  0  0  0  0  0  0  0  0  0  0
  -25.6384  -30.7468   20.3514 C   0  0  0  0  0  0  0  0  0  0  0  0
  -24.2651  -28.9231   22.2310 C   0  0  0  0  0  0  0  0  0  0  0  0
  -22.5868  -22.3721   18.8362 C   0  0  0  0  0  0  0  0  0  0  0  0
  -27.4088  -32.7272   26.2654 C   0  0  0  0  0  0  0  0  0  0  0  0
  -30.5176  -13.0661   20.3324 C   0  0  0  0  0  0  0  0  0  0  0  0
  -28.0031  -31.5287   25.5325 C   0  0  0  0  0  0  0  0  0  0  0  0
  -29.5524  -11.9075   20.0713 C   0  0  0  0  0  0  0  0  0  0  0  0
  -23.2167  -21.1077   18.2645 C   0  0  0  0  0  0  0  0  0  0  0  0
  -29.8168  -14.2488   20.9988 C   0  0  0  0  0  0  0  0  0  0  0  0
  -25.3898  -22.3552   18.5922 C   0  0  0  0  0  0  0  0  0  0  0  0
  -27.6493  -13.5701   20.0446 C   0  0  0  0  0  0  0  0  0  0  0  0
  -28.3879  -31.8967   24.0945 C   0  0  1  0  0  0  0  0  0  0  0  0
  -24.6830  -23.4648   17.8025 C   0  0  2  0  0  0  0  0  0  0  0  0
  -25.4482  -31.1039   21.8223 C   0  0  1  0  0  0  0  0  0  0  0  0
  -28.2953  -12.3807   19.3155 C   0  0  2  0  0  0  0  0  0  0  0  0
  -18.1820  -29.4657   22.9444 C   0  0  0  0  0  0  0  0  0  0  0  0
  -23.4649  -30.9463   26.3991 C   0  0  0  0  0  0  0  0  0  0  0  0
  -21.2107  -29.8662   26.2571 C   0  0  0  0  0  0  0  0  0  0  0  0
  -21.5443  -32.1736   25.3698 C   0  0  0  0  0  0  0  0  0  0  0  0
  -20.3433  -27.1592   20.8266 C   0  0  0  0  0  0  0  0  0  0  0  0
  -25.4420  -24.7824   17.9351 C   0  0  0  0  0  0  0  0  0  1  0  0
  -22.5197  -30.2090   24.1124 C   0  0  1  0  0  0  0  0  0  0  0  0
  -19.4500  -29.0204   22.2326 C   0  0  2  0  0  0  0  0  0  0  0  0
  -22.2074  -30.7872   25.5215 C   0  0  0  0  0  0  0  0  0  0  0  0
  -26.3414  -11.0416   20.0014 N   0  0  0  0  0  0  0  0  0  0  0  0
  -27.3119  -11.2466   19.0947 N   0  0  0  0  0  0  0  0  0  0  0  0
  -24.6630  -21.0843   18.4964 N   0  0  3  0  0  0  0  0  0  0  0  0
  -24.3366  -30.3786   22.4409 N   0  0  0  0  0  0  0  0  0  0  0  0
  -28.6381  -14.6446   20.2250 N   0  0  0  0  0  0  0  0  0  0  0  0
  -28.1875  -10.4348   17.0490 N   0  0  0  0  0  0  0  0  0  0  0  0
  -26.3486   -7.1775   17.6839 N   0  0  0  0  0  0  0  0  0  0  0  0
  -27.3882  -16.2153   18.9868 N   0  0  0  0  0  0  0  0  0  0  0  0
  -27.2118  -31.9420   23.2524 N   0  0  0  0  0  0  0  0  0  0  0  0
  -21.3510  -30.0729   23.2498 N   0  0  0  0  0  0  0  0  0  0  0  0
  -19.1870  -27.7053   21.5827 N   0  3  0  0  0  0  0  0  0  0  0  0
  -22.6388  -24.6801   18.2327 O   0  0  0  0  0  0  0  0  0  0  0  0
  -24.9810   -8.6017   16.5177 O   0  0  0  0  0  0  0  0  0  0  0  0
  -27.0889  -29.6742   22.7383 O   0  0  0  0  0  0  0  0  0  0  0  0
  -23.5463  -32.2718   23.5488 O   0  0  0  0  0  0  0  0  0  0  0  0
  -20.8476  -27.8894   23.8465 O   0  0  0  0  0  0  0  0  0  0  0  0
  -29.4191  -16.8019   19.9422 O   0  0  0  0  0  0  0  0  0  0  0  0
  -21.2601   -7.9165   22.2301 O   0  0  0  0  0  0  0  0  0  0  0  0
  -25.4421  -25.1829   19.3047 O   0  0  0  0  0  0  0  0  0  1  0  0
  -21.9275   -3.1648   24.9467 F   0  0  0  0  0  0  0  0  0  0  0  0
  -25.0991  -16.4501   17.4132 F   0  0  0  0  0  0  0  0  0  0  0  0
  -20.8477   -7.7734   24.9599 F   0  0  0  0  0  0  0  0  0  0  0  0
  1  2  1  0  0  0  0
  1  5  2  0  0  0  0
  2  6  2  0  0  0  0
  3 10  2  0  0  0  0
  3 18  1  0  0  0  0
  4 11  1  0  0  0  0
  4 18  2  0  0  0  0
  5 20  1  0  0  0  0
  6 22  1  0  0  0  0
  7 12  2  0  0  0  0
  7 21  1  0  0  0  0
  8  9  2  0  0  0  0
  8 24  1  0  0  0  0
  9 25  1  0  0  0  0
 10 26  1  0  0  0  0
 11 26  2  0  0  0  0
 12 27  1  0  0  0  0
 13 14  2  0  0  0  0
 13 28  1  0  0  0  0
 14 29  1  0  0  0  0
 15 23  1  0  0  0  0
 15 27  2  0  0  0  0
 16 24  2  0  0  0  0
 16 30  1  0  0  0  0
 17 29  2  0  0  0  0
 17 31  1  0  0  0  0
 18 32  1  0  0  0  0
 19 32  1  0  0  0  0
 19 33  2  0  0  0  0
 19 35  1  0  0  0  0
 20 22  2  0  0  0  0
 20 40  1  0  0  0  0
 21 23  2  0  0  0  0
 21 41  1  0  0  0  0
 22 52  1  0  0  0  0
 23 42  1  0  0  0  0
 24 67  1  0  0  0  0
 25 30  2  0  0  0  0
 25 72  1  0  0  0  0
 26 82  1  0  0  0  0
 27 83  1  0  0  0  0
 28 31  2  0  0  0  0
 28 82  1  0  0  0  0
 29 84  1  0  0  0  0
 30 85  1  0  0  0  0
 31 86  1  0  0  0  0
 32 65  2  0  0  0  0
 33 66  1  0  0  0  0
 33 70  1  0  0  0  0
 34 43  1  0  0  0  0
 34 53  1  0  0  0  0
 34 76  2  0  0  0  0
 35 71  1  0  0  0  0
 35 77  2  0  0  0  0
 36 54  1  0  0  0  0
 36 73  1  0  0  0  0
 36 78  2  0  0  0  0
 37 62  1  0  0  0  0
 37 68  1  0  0  0  0
 37 79  2  0  0  0  0
 38 63  1  0  0  0  0
 38 74  1  0  0  0  0
 38 80  2  0  0  0  0
 39 69  1  0  0  0  0
 39 72  1  0  0  0  0
 39 81  2  0  0  0  0
 40 44  1  0  0  0  0
 41 54  1  0  0  0  0
 42 68  1  0  0  0  0
 43 48  1  0  0  0  0
 44 46  1  0  0  0  0
 45 47  1  0  0  0  0
 45 49  1  0  0  0  0
 46 52  1  0  0  0  0
 47 55  1  0  0  0  0
 48 67  1  0  0  0  0
 49 69  1  0  0  0  0
 50 53  1  0  0  0  0
 50 67  1  0  0  0  0
 51 55  1  0  0  0  0
 51 69  1  0  0  0  0
 52 73  1  0  0  0  0
 53 61  1  0  0  0  0
 54 68  1  0  0  0  0
 55 66  1  0  0  0  0
 56 63  1  0  0  0  0
 57 64  1  0  0  0  0
 58 64  1  0  0  0  0
 59 64  1  0  0  0  0
 60 75  1  0  0  0  0
 61 83  1  0  0  0  0
 62 64  1  0  0  0  0
 62 74  1  0  0  0  0
 63 75  1  0  0  0  0
 65 66  1  0  0  0  0
M  CHG  1  75   1
M  ISO  4  39 100  61 101  72 100  83 101
M  END
> <Batch ID>
0101

> <Smiles>
CNC(C)C(=O)NC(C(=O)N1Cc2cc([101O:1][101CH2:1]C3CN(c4ccc([100NH:0][100C:0](=O)N5CCCC(n6nc(-c7ccc(Oc8ccc(F)cc8F)cc7)c(C(N)=O)c6N)C5)c(F)c4)CCC3=O)ccc2CC1C(=O)NC1CCCc2ccccc21)C(C)(C)C

> <Shape>
0.272

> <Color>
0.110

> <Negative vol penalty>
0.000

$$$$

  -OEChem-04052301003D

 86 95  0     1  0  0  0  0  0999 V2000
  -28.1742  -36.8190   24.8364 C   0  0  0  0  0  0  0  0  0  0  0  0
  -28.6593  -35.6588   24.2414 C   0  0  0  0  0  0  0  0  0  0  0  0
  -24.2833   -9.7773   21.8549 C   0  0  0  0  0  0  0  0  0  0  0  0
  -24.7496  -11.1627   23.7785 C   0  0  0  0  0  0  0  0  0  0  0  0
  -26.9411  -36.8043   25.4869 C   0  0  0  0  0  0  0  0  0  0  0  0
  -27.9120  -34.4828   24.2976 C   0  0  0  0  0  0  0  0  0  0  0  0
  -27.5458  -30.1441   19.9910 C   0  0  0  0  0  0  0  0  0  0  0  0
  -23.9241   -8.7264   22.6988 C   0  0  0  0  0  0  0  0  0  0  0  0
  -24.3904  -10.1119   24.6224 C   0  0  0  0  0  0  0  0  0  0  0  0
  -28.1866  -28.9151   19.8408 C   0  0  0  0  0  0  0  0  0  0  0  0
  -21.2463   -7.8282   24.5577 C   0  0  0  0  0  0  0  0  0  0  0  0
  -20.0828   -7.1214   24.2538 C   0  0  0  0  0  0  0  0  0  0  0  0
  -26.2960  -27.8123   20.8550 C   0  0  0  0  0  0  0  0  0  0  0  0
  -28.1185  -21.0688   20.6478 C   0  0  0  0  0  0  0  0  0  0  0  0
  -30.3177  -19.4402   20.1055 C   0  0  0  0  0  0  0  0  0  0  0  0
  -21.3724   -5.0894   24.0423 C   0  0  0  0  0  0  0  0  0  0  0  0
  -24.6961  -10.9955   22.3947 C   0  0  0  0  0  0  0  0  0  0  0  0
  -24.2247  -13.0831   21.0065 C   0  0  0  0  0  0  0  0  0  0  0  0
  -26.1739  -35.6301   25.5428 C   0  0  0  0  0  0  0  0  0  0  0  0
  -26.2778  -30.2178   20.5852 C   0  0  0  0  0  0  0  0  0  0  0  0
  -26.6681  -34.4521   24.9507 C   0  0  0  0  0  0  0  0  0  0  0  0
  -25.6402  -29.0432   21.0092 C   0  0  0  0  0  0  0  0  0  0  0  0
  -29.4062  -21.6043   20.6740 C   0  0  0  0  0  0  0  0  0  0  0  0
  -30.5058  -20.7900   20.4029 C   0  0  0  0  0  0  0  0  0  0  0  0
  -29.0299  -18.9047   20.0793 C   0  0  0  0  0  0  0  0  0  0  0  0
  -23.9776   -8.8937   24.0826 C   0  0  0  0  0  0  0  0  0  0  0  0
  -27.5630  -27.7492   20.2755 C   0  0  0  0  0  0  0  0  0  0  0  0
  -22.4729   -7.1656   24.6038 C   0  0  0  0  0  0  0  0  0  0  0  0
  -27.9304  -19.7190   20.3504 C   0  0  0  0  0  0  0  0  0  0  0  0
  -20.1459   -5.7520   23.9962 C   0  0  0  0  0  0  0  0  0  0  0  0
  -22.5360   -5.7962   24.3461 C   0  0  0  0  0  0  0  0  0  0  0  0
  -25.0678  -12.0812   21.5234 C   0  0  0  0  0  0  0  0  0  0  0  0
  -25.0529  -13.8678   20.2416 C   0  0  0  0  0  0  0  0  0  0  0  0
  -22.8187  -13.2864   21.2004 C   0  0  0  0  0  0  0  0  0  0  0  0
  -25.0976  -31.6100   23.1876 C   0  0  0  0  0  0  0  0  0  0  0  0
  -22.2702  -30.5618   21.9918 C   0  0  0  0  0  0  0  0  0  0  0  0
  -20.6111  -28.3385   20.0041 C   0  0  0  0  0  0  0  0  0  0  0  0
  -29.8469  -16.5969   19.4852 C   0  0  0  0  0  0  0  0  0  0  0  0
  -24.8686  -35.6510   26.2981 C   0  0  0  0  0  0  0  0  0  0  0  0
  -25.5885  -31.5483   20.7155 C   0  0  0  0  0  0  0  0  0  0  0  0
  -24.2704  -29.0660   21.6350 C   0  0  0  0  0  0  0  0  0  0  0  0
  -23.9669  -34.4587   25.9890 C   0  0  0  0  0  0  0  0  0  0  0  0
  -29.8232  -13.1190   18.7233 C   0  0  0  0  0  0  0  0  0  0  0  0
  -24.7665  -33.1603   26.0282 C   0  0  0  0  0  0  0  0  0  0  0  0
  -28.5145  -12.6214   19.3414 C   0  0  0  0  0  0  0  0  0  0  0  0
  -29.5966  -24.9714   22.1627 C   0  0  0  0  0  0  0  0  0  0  0  0
  -30.4824  -14.1966   19.5824 C   0  0  0  0  0  0  0  0  0  0  0  0
  -29.7580  -23.4612   22.3226 C   0  0  0  0  0  0  0  0  0  0  0  0
  -29.5717  -24.0077   19.9724 C   0  0  0  0  0  0  0  0  0  0  0  0
  -28.3069  -14.8322   20.5481 C   0  0  0  0  0  0  0  0  0  0  0  0
  -25.8754  -33.1631   24.9690 C   0  0  1  0  0  0  0  0  0  0  0  0
  -24.5178  -31.5627   21.8022 C   0  0  1  0  0  0  0  0  0  0  0  0
  -30.0926  -25.2265   20.7424 C   0  0  1  0  0  0  0  0  0  0  0  0
  -27.5731  -13.7921   19.6860 C   0  0  2  0  0  0  0  0  0  0  0  0
  -18.3001  -27.7069   19.2573 C   0  0  0  0  0  0  0  0  0  0  0  0
  -21.7622  -29.2365   24.6929 C   0  0  0  0  0  0  0  0  0  0  0  0
  -19.9663  -27.8714   23.6069 C   0  0  0  0  0  0  0  0  0  0  0  0
  -19.7645  -30.3564   23.6881 C   0  0  0  0  0  0  0  0  0  0  0  0
  -21.2511  -28.8909   17.1679 C   0  0  0  0  0  0  0  0  0  0  0  0
  -26.1560  -18.6920   21.5557 C   0  0  0  0  0  0  0  0  0  0  0  0
  -29.6130  -26.5484   20.1689 C   0  0  0  0  0  0  0  0  0  1  0  0
  -21.4527  -29.3003   22.1304 C   0  0  1  0  0  0  0  0  0  0  0  0
  -19.5371  -28.5364   18.9498 C   0  0  2  0  0  0  0  0  0  0  0  0
  -20.7631  -29.1906   23.5196 C   0  0  0  0  0  0  0  0  0  0  0  0
  -26.3343  -12.2147   21.1209 N   0  0  0  0  0  0  0  0  0  0  0  0
  -26.2932  -13.3097   20.3427 N   0  0  0  0  0  0  0  0  0  0  0  0
  -29.5711  -22.9406   20.9707 N   0  0  3  0  0  0  0  0  0  0  0  0
  -23.6401  -30.3919   21.7463 N   0  0  0  0  0  0  0  0  0  0  0  0
  -29.5325  -15.2749   19.8650 N   0  0  0  0  0  0  0  0  0  0  0  0
  -31.8190  -21.3109   20.4255 N   0  0  0  0  0  0  0  0  0  0  0  0
  -24.8338  -14.9737   19.4991 N   0  0  0  0  0  0  0  0  0  0  0  0
  -22.1199  -12.3868   22.0168 N   0  0  0  0  0  0  0  0  0  0  0  0
  -28.8539  -17.5319   19.7759 N   0  0  0  0  0  0  0  0  0  0  0  0
  -25.3241  -32.8889   23.6593 N   0  0  0  0  0  0  0  0  0  0  0  0
  -20.5285  -29.2868   21.0017 N   0  0  0  0  0  0  0  0  0  0  0  0
  -20.0486  -28.1377   17.6080 N   0  3  0  0  0  0  0  0  0  0  0  0
  -22.1973  -14.2282   20.6523 O   0  0  0  0  0  0  0  0  0  0  0  0
  -25.3214  -30.5637   23.7849 O   0  0  0  0  0  0  0  0  0  0  0  0
  -21.7125  -31.6577   22.0905 O   0  0  0  0  0  0  0  0  0  0  0  0
  -21.4382  -27.4310   19.9502 O   0  0  0  0  0  0  0  0  0  0  0  0
  -30.9064  -16.8745   18.9175 O   0  0  0  0  0  0  0  0  0  0  0  0
  -23.6270   -7.8685   24.9064 O   0  0  0  0  0  0  0  0  0  0  0  0
  -26.6638  -19.2157   20.3305 O   0  0  0  0  0  0  0  0  0  0  0  0
  -28.1865  -26.5483   20.1308 O   0  0  0  0  0  0  0  0  0  1  0  0
  -19.0283   -5.0731   23.7059 F   0  0  0  0  0  0  0  0  0  0  0  0
  -23.7113   -5.1539   24.3901 F   0  0  0  0  0  0  0  0  0  0  0  0
  1  2  1  0  0  0  0
  1  5  2  0  0  0  0
  2  6  2  0  0  0  0
  3  8  2  0  0  0  0
  3 17  1  0  0  0  0
  4  9  1  0  0  0  0
  4 17  2  0  0  0  0
  5 19  1  0  0  0  0
  6 21  1  0  0  0  0
  7 10  2  0  0  0  0
  7 20  1  0  0  0  0
  8 26  1  0  0  0  0
  9 26  2  0  0  0  0
 10 27  1  0  0  0  0
 11 12  2  0  0  0  0
 11 28  1  0  0  0  0
 12 30  1  0  0  0  0
 13 22  1  0  0  0  0
 13 27  2  0  0  0  0
 14 23  1  0  0  0  0
 14 29  2  0  0  0  0
 15 24  1  0  0  0  0
 15 25  2  0  0  0  0
 16 30  2  0  0  0  0
 16 31  1  0  0  0  0
 17 32  1  0  0  0  0
 18 32  1  0  0  0  0
 18 33  2  0  0  0  0
 18 34  1  0  0  0  0
 19 21  2  0  0  0  0
 19 39  1  0  0  0  0
 20 22  2  0  0  0  0
 20 40  1  0  0  0  0
 21 51  1  0  0  0  0
 22 41  1  0  0  0  0
 23 24  2  0  0  0  0
 23 67  1  0  0  0  0
 24 70  1  0  0  0  0
 25 29  1  0  0  0  0
 25 73  1  0  0  0  0
 26 82  1  0  0  0  0
 27 84  1  0  0  0  0
 28 31  2  0  0  0  0
 28 82  1  0  0  0  0
 29 83  1  0  0  0  0
 30 85  1  0  0  0  0
 31 86  1  0  0  0  0
 32 65  2  0  0  0  0
 33 66  1  0  0  0  0
 33 71  1  0  0  0  0
 34 72  1  0  0  0  0
 34 77  2  0  0  0  0
 35 52  1  0  0  0  0
 35 74  1  0  0  0  0
 35 78  2  0  0  0  0
 36 62  1  0  0  0  0
 36 68  1  0  0  0  0
 36 79  2  0  0  0  0
 37 63  1  0  0  0  0
 37 75  1  0  0  0  0
 37 80  2  0  0  0  0
 38 69  1  0  0  0  0
 38 73  1  0  0  0  0
 38 81  2  0  0  0  0
 39 42  1  0  0  0  0
 40 52  1  0  0  0  0
 41 68  1  0  0  0  0
 42 44  1  0  0  0  0
 43 45  1  0  0  0  0
 43 47  1  0  0  0  0
 44 51  1  0  0  0  0
 45 54  1  0  0  0  0
 46 48  1  0  0  0  0
 46 53  1  0  0  0  0
 47 69  1  0  0  0  0
 48 67  1  0  0  0  0
 49 53  1  0  0  0  0
 49 67  1  0  0  0  0
 50 54  1  0  0  0  0
 50 69  1  0  0  0  0
 51 74  1  0  0  0  0
 52 68  1  0  0  0  0
 53 61  1  0  0  0  0
 54 66  1  0  0  0  0
 55 63  1  0  0  0  0
 56 64  1  0  0  0  0
 57 64  1  0  0  0  0
 58 64  1  0  0  0  0
 59 76  1  0  0  0  0
 60 83  1  0  0  0  0
 61 84  1  0  0  0  0
 62 64  1  0  0  0  0
 62 75  1  0  0  0  0
 63 76  1  0  0  0  0
 65 66  1  0  0  0  0
M  CHG  1  76   1
M  ISO  4  38 100  61 101  73 100  84 101
M  END
> <Batch ID>
0101

> <Smiles>
CNC(C)C(=O)NC(C(=O)N1Cc2cc([101O:1][101CH2:1]C3CCN(c4cc(OC)c([100NH:0][100C:0](=O)N5CCCC(n6nc(-c7ccc(Oc8ccc(F)cc8F)cc7)c(C(N)=O)c6N)C5)cc4N)C3)ccc2CC1C(=O)NC1CCCc2ccccc21)C(C)(C)C

> <Shape>
0.364

> <Color>
0.126

> <Negative vol penalty>
0.000

$$$$

  -OEChem-04052301003D

 84 92  0     1  0  0  0  0  0999 V2000
  -30.1643  -10.7853   19.6355 C   0  0  0  0  0  0  0  0  0  0  0  0
  -30.1334  -12.1517   19.3760 C   0  0  0  0  0  0  0  0  0  0  0  0
  -21.0831  -25.6209   18.1588 C   0  0  0  0  0  0  0  0  0  0  0  0
  -22.2391  -24.2993   19.8183 C   0  0  0  0  0  0  0  0  0  0  0  0
  -27.8917  -26.4416   22.5216 C   0  0  0  0  0  0  0  0  0  0  0  0
  -28.9920  -10.1167   19.9858 C   0  0  0  0  0  0  0  0  0  0  0  0
  -28.9298  -12.8501   19.4655 C   0  0  0  0  0  0  0  0  0  0  0  0
  -29.4147  -17.2483   21.9284 C   0  0  0  0  0  0  0  0  0  0  0  0
  -28.5991  -25.3539   22.0099 C   0  0  0  0  0  0  0  0  0  0  0  0
  -20.9521  -24.4916   17.3506 C   0  0  0  0  0  0  0  0  0  0  0  0
  -22.1081  -23.1699   19.0102 C   0  0  0  0  0  0  0  0  0  0  0  0
  -29.9726  -18.3143   21.2241 C   0  0  0  0  0  0  0  0  0  0  0  0
  -23.6170  -21.8741   16.2762 C   0  0  0  0  0  0  0  0  0  0  0  0
  -24.7370  -21.0584   16.1160 C   0  0  0  0  0  0  0  0  0  0  0  0
  -29.2338  -27.9427   21.1865 C   0  0  0  0  0  0  0  0  0  0  0  0
  -27.7644  -19.2023   20.8307 C   0  0  0  0  0  0  0  0  0  0  0  0
  -23.5189  -19.1999   17.0644 C   0  0  0  0  0  0  0  0  0  0  0  0
  -21.7267  -25.5248   19.3926 C   0  0  0  0  0  0  0  0  0  0  0  0
  -28.2090  -27.7361   22.1099 C   0  0  0  0  0  0  0  0  0  0  0  0
  -20.9635  -27.1411   21.2127 C   0  0  0  0  0  0  0  0  0  0  0  0
  -27.7753  -10.8091   20.0891 C   0  0  0  0  0  0  0  0  0  0  0  0
  -28.0244  -17.1453   22.0801 C   0  0  0  0  0  0  0  0  0  0  0  0
  -27.7399  -12.1900   19.8162 C   0  0  0  0  0  0  0  0  0  0  0  0
  -27.1915  -18.1353   21.5396 C   0  0  0  0  0  0  0  0  0  0  0  0
  -29.6239  -25.5605   21.0865 C   0  0  0  0  0  0  0  0  0  0  0  0
  -21.4645  -23.2661   17.7764 C   0  0  0  0  0  0  0  0  0  0  0  0
  -29.1473  -19.2900   20.6726 C   0  0  0  0  0  0  0  0  0  0  0  0
  -22.4480  -21.3528   16.8305 C   0  0  0  0  0  0  0  0  0  0  0  0
  -24.6880  -19.7212   16.5101 C   0  0  0  0  0  0  0  0  0  0  0  0
  -29.9413  -26.8549   20.6748 C   0  0  0  0  0  0  0  0  0  0  0  0
  -22.3989  -20.0157   17.2246 C   0  0  0  0  0  0  0  0  0  0  0  0
  -21.8629  -26.6912   20.2275 C   0  0  0  0  0  0  0  0  0  0  0  0
  -21.5455  -28.2793   21.7148 C   0  0  0  0  0  0  0  0  0  0  0  0
  -27.4714  -28.8701   22.6436 C   0  0  0  0  0  0  0  0  0  0  0  0
  -19.7137  -26.5803   21.6360 C   0  0  0  0  0  0  0  0  0  0  0  0
  -27.2719  -30.1034   21.8484 C   0  0  0  0  0  0  0  0  0  0  0  0
  -25.8219  -15.0316   21.1942 C   0  0  0  0  0  0  0  0  0  0  0  0
  -23.8647  -16.9090   22.9739 C   0  0  0  0  0  0  0  0  0  0  0  0
  -30.1556  -23.1080   20.8707 C   0  0  0  0  0  0  0  0  0  0  0  0
  -23.2394  -19.9779   24.3295 C   0  0  0  0  0  0  0  0  0  0  0  0
  -26.5255  -10.0346   20.4248 C   0  0  0  0  0  0  0  0  0  0  0  0
  -27.4399  -16.0035   22.8656 C   0  0  0  0  0  0  0  0  0  0  0  0
  -25.6940  -18.0817   21.6917 C   0  0  0  0  0  0  0  0  0  0  0  0
  -25.3605  -10.9183   20.8633 C   0  0  0  0  0  0  0  0  0  0  0  0
  -24.4571  -31.8619   20.4916 C   0  0  0  0  0  0  0  0  0  0  0  0
  -25.2045  -12.1043   19.9168 C   0  0  0  0  0  0  0  0  0  0  0  0
  -23.4040  -30.7670   20.3241 C   0  0  0  0  0  0  0  0  0  0  0  0
  -25.8632  -31.3273   20.2402 C   0  0  0  0  0  0  0  0  0  0  0  0
  -25.1674  -29.0472   20.9226 C   0  0  0  0  0  0  0  0  0  0  0  0
  -26.4583  -12.9871   19.9271 C   0  0  1  0  0  0  0  0  0  0  0  0
  -25.9809  -15.7243   22.5181 C   0  0  1  0  0  0  0  0  0  0  0  0
  -23.7367  -29.5430   21.1958 C   0  0  2  0  0  0  0  0  0  0  0  0
  -21.5420  -21.2167   25.7013 C   0  0  0  0  0  0  0  0  0  0  0  0
  -22.0373  -17.0981   20.5378 C   0  0  0  0  0  0  0  0  0  0  0  0
  -20.9094  -19.0524   21.6224 C   0  0  0  0  0  0  0  0  0  0  0  0
  -20.8443  -16.8118   22.7170 C   0  0  0  0  0  0  0  0  0  0  0  0
  -25.2005  -20.5190   26.4789 C   0  0  0  0  0  0  0  0  0  0  0  0
  -31.1424  -22.2469   20.0906 C   0  0  0  0  0  0  0  0  0  0  0  0
  -30.9930  -20.7600   20.3750 C   0  0  0  0  0  0  0  0  0  1  0  0
  -23.0071  -18.1210   22.7009 C   0  0  1  0  0  0  0  0  0  0  0  0
  -22.8216  -20.3952   25.7280 C   0  0  2  0  0  0  0  0  0  0  0  0
  -21.7276  -17.7711   21.8898 C   0  0  0  0  0  0  0  0  0  0  0  0
  -22.9347  -27.4793   20.1093 N   0  0  0  0  0  0  0  0  0  0  0  0
  -26.9409  -28.8827   23.8367 N   0  0  0  0  0  0  0  0  0  0  0  0
  -22.7125  -28.4360   21.0266 N   0  0  0  0  0  0  0  0  0  0  0  0
  -26.1331  -30.1453   21.0563 N   0  0  0  0  0  0  0  0  0  0  0  0
  -25.1699  -16.9423   22.4628 N   0  0  0  0  0  0  0  0  0  0  0  0
  -21.1678  -29.1514   22.6735 N   0  0  0  0  0  0  0  0  0  0  0  0
  -19.2631  -25.4075   21.0149 N   0  0  0  0  0  0  0  0  0  0  0  0
  -30.3402  -24.4548   20.5697 N   0  0  0  0  0  0  0  0  0  0  0  0
  -26.4805  -13.8198   21.1106 N   0  0  0  0  0  0  0  0  0  0  0  0
  -22.7433  -18.7349   23.9978 N   0  0  0  0  0  0  0  0  0  0  0  0
  -23.8918  -21.2128   26.3660 N   0  3  0  0  0  0  0  0  0  0  0  0
  -19.0093  -27.1128   22.5270 O   0  0  0  0  0  0  0  0  0  0  0  0
  -28.1383  -30.9587   21.9754 O   0  0  0  0  0  0  0  0  0  0  0  0
  -25.1501  -15.5571   20.3142 O   0  0  0  0  0  0  0  0  0  0  0  0
  -23.3963  -15.9705   23.6230 O   0  0  0  0  0  0  0  0  0  0  0  0
  -29.3354  -22.6237   21.6434 O   0  0  0  0  0  0  0  0  0  0  0  0
  -23.9331  -20.6856   23.6025 O   0  0  0  0  0  0  0  0  0  0  0  0
  -21.3366  -22.1638   16.9882 O   0  0  0  0  0  0  0  0  0  0  0  0
  -29.6892  -20.3312   19.9841 O   0  0  0  0  0  0  0  0  0  1  0  0
  -25.7631  -18.9375   16.3548 F   0  0  0  0  0  0  0  0  0  0  0  0
  -30.9248  -27.0658   19.7881 F   0  0  0  0  0  0  0  0  0  0  0  0
  -21.2783  -19.5089   17.7567 F   0  0  0  0  0  0  0  0  0  0  0  0
  1  2  1  0  0  0  0
  1  6  2  0  0  0  0
  2  7  2  0  0  0  0
  3 10  2  0  0  0  0
  3 18  1  0  0  0  0
  4 11  1  0  0  0  0
  4 18  2  0  0  0  0
  5  9  2  0  0  0  0
  5 19  1  0  0  0  0
  6 21  1  0  0  0  0
  7 23  1  0  0  0  0
  8 12  2  0  0  0  0
  8 22  1  0  0  0  0
  9 25  1  0  0  0  0
 10 26  1  0  0  0  0
 11 26  2  0  0  0  0
 12 27  1  0  0  0  0
 13 14  2  0  0  0  0
 13 28  1  0  0  0  0
 14 29  1  0  0  0  0
 15 19  2  0  0  0  0
 15 30  1  0  0  0  0
 16 24  1  0  0  0  0
 16 27  2  0  0  0  0
 17 29  2  0  0  0  0
 17 31  1  0  0  0  0
 18 32  1  0  0  0  0
 19 34  1  0  0  0  0
 20 32  1  0  0  0  0
 20 33  2  0  0  0  0
 20 35  1  0  0  0  0
 21 23  2  0  0  0  0
 21 41  1  0  0  0  0
 22 24  2  0  0  0  0
 22 42  1  0  0  0  0
 23 50  1  0  0  0  0
 24 43  1  0  0  0  0
 25 30  2  0  0  0  0
 25 70  1  0  0  0  0
 26 80  1  0  0  0  0
 27 81  1  0  0  0  0
 28 31  2  0  0  0  0
 28 80  1  0  0  0  0
 29 82  1  0  0  0  0
 30 83  1  0  0  0  0
 31 84  1  0  0  0  0
 32 63  2  0  0  0  0
 33 65  1  0  0  0  0
 33 68  1  0  0  0  0
 34 36  1  0  0  0  0
 34 64  2  0  0  0  0
 35 69  1  0  0  0  0
 35 74  2  0  0  0  0
 36 66  1  0  0  0  0
 36 75  2  0  0  0  0
 37 51  1  0  0  0  0
 37 71  1  0  0  0  0
 37 76  2  0  0  0  0
 38 60  1  0  0  0  0
 38 67  1  0  0  0  0
 38 77  2  0  0  0  0
 39 58  1  0  0  0  0
 39 70  1  0  0  0  0
 39 78  2  0  0  0  0
 40 61  1  0  0  0  0
 40 72  1  0  0  0  0
 40 79  2  0  0  0  0
 41 44  1  0  0  0  0
 42 51  1  0  0  0  0
 43 67  1  0  0  0  0
 44 46  1  0  0  0  0
 45 47  1  0  0  0  0
 45 48  1  0  0  0  0
 46 50  1  0  0  0  0
 47 52  1  0  0  0  0
 48 66  1  0  0  0  0
 49 52  1  0  0  0  0
 49 66  1  0  0  0  0
 50 71  1  0  0  0  0
 51 67  1  0  0  0  0
 52 65  1  0  0  0  0
 53 61  1  0  0  0  0
 54 62  1  0  0  0  0
 55 62  1  0  0  0  0
 56 62  1  0  0  0  0
 57 73  1  0  0  0  0
 58 59  1  0  0  0  0
 59 81  1  0  0  0  0
 60 62  1  0  0  0  0
 60 72  1  0  0  0  0
 61 73  1  0  0  0  0
 63 65  1  0  0  0  0
M  CHG  1  73   1
M  ISO  4  34 100  36 100  59 101  81 101
M  END
> <Batch ID>
0101

> <Smiles>
CNC(C)C(=O)NC(C(=O)N1Cc2cc([101O:1][101CH2:1]CC(=O)Nc3ccc([100C:0](=N)[100C:0](=O)N4CCCC(n5nc(-c6ccc(Oc7ccc(F)cc7F)cc6)c(C(N)=O)c5N)C4)cc3F)ccc2CC1C(=O)NC1CCCc2ccccc21)C(C)(C)C

> <Shape>
0.218

> <Color>
0.068

> <Negative vol penalty>
0.000

$$$$

  -OEChem-04052301003D

 86 95  0     1  0  0  0  0  0999 V2000
  -24.6595  -27.5665   12.5376 C   0  0  0  0  0  0  0  0  0  0  0  0
  -25.7192  -27.2535   13.3828 C   0  0  0  0  0  0  0  0  0  0  0  0
  -22.9918  -11.6279   22.5750 C   0  0  0  0  0  0  0  0  0  0  0  0
  -23.6160   -9.8354   21.0802 C   0  0  0  0  0  0  0  0  0  0  0  0
  -23.8264  -28.6440   12.8357 C   0  0  0  0  0  0  0  0  0  0  0  0
  -25.9470  -28.0184   14.5262 C   0  0  0  0  0  0  0  0  0  0  0  0
  -26.9070  -25.1758   18.6059 C   0  0  0  0  0  0  0  0  0  0  0  0
  -32.3538  -18.8526   21.1988 C   0  0  0  0  0  0  0  0  0  0  0  0
  -31.8752  -17.5966   20.8261 C   0  0  0  0  0  0  0  0  0  0  0  0
  -22.1627  -10.7534   23.2775 C   0  0  0  0  0  0  0  0  0  0  0  0
  -22.7870   -8.9608   21.7827 C   0  0  0  0  0  0  0  0  0  0  0  0
  -28.1880  -24.6374   18.7196 C   0  0  0  0  0  0  0  0  0  0  0  0
  -19.0911   -9.3933   22.9039 C   0  0  0  0  0  0  0  0  0  0  0  0
  -17.8149   -9.8429   23.2428 C   0  0  0  0  0  0  0  0  0  0  0  0
  -28.7831  -26.3947   20.2614 C   0  0  0  0  0  0  0  0  0  0  0  0
  -30.1480  -19.7867   20.8836 C   0  0  0  0  0  0  0  0  0  0  0  0
  -18.3259   -9.5293   25.5832 C   0  0  0  0  0  0  0  0  0  0  0  0
  -23.7185  -11.1689   21.4763 C   0  0  0  0  0  0  0  0  0  0  0  0
  -24.1947  -13.2516   20.0824 C   0  0  0  0  0  0  0  0  0  0  0  0
  -24.0382  -29.4166   13.9884 C   0  0  0  0  0  0  0  0  0  0  0  0
  -26.5572  -26.3359   19.3117 C   0  0  0  0  0  0  0  0  0  0  0  0
  -25.1167  -29.1080   14.8394 C   0  0  0  0  0  0  0  0  0  0  0  0
  -27.4962  -26.9444   20.1568 C   0  0  0  0  0  0  0  0  0  0  0  0
  -31.4902  -19.9477   21.2276 C   0  0  0  0  0  0  0  0  0  0  0  0
  -30.5331  -17.4356   20.4820 C   0  0  0  0  0  0  0  0  0  0  0  0
  -22.0603   -9.4199   22.8814 C   0  0  0  0  0  0  0  0  0  0  0  0
  -29.1271  -25.2485   19.5452 C   0  0  0  0  0  0  0  0  0  0  0  0
  -19.9847   -9.0116   23.9047 C   0  0  0  0  0  0  0  0  0  0  0  0
  -17.4323   -9.9109   24.5824 C   0  0  0  0  0  0  0  0  0  0  0  0
  -29.6695  -18.5306   20.5107 C   0  0  0  0  0  0  0  0  0  0  0  0
  -19.6021   -9.0796   25.2444 C   0  0  0  0  0  0  0  0  0  0  0  0
  -24.5746  -12.0719   20.7499 C   0  0  0  0  0  0  0  0  0  0  0  0
  -25.3653  -13.7408   19.5563 C   0  0  0  0  0  0  0  0  0  0  0  0
  -33.0553  -21.3739   22.5186 C   0  0  0  0  0  0  0  0  0  0  0  0
  -22.8993  -13.8518   19.9498 C   0  0  0  0  0  0  0  0  0  0  0  0
  -25.6295  -29.2645   18.4952 C   0  0  0  0  0  0  0  0  0  0  0  0
  -25.2200  -29.6055   21.6950 C   0  0  0  0  0  0  0  0  0  0  0  0
  -26.9990  -28.6717   24.6918 C   0  0  0  0  0  0  0  0  0  0  0  0
  -30.7758  -14.9706   20.0227 C   0  0  0  0  0  0  0  0  0  0  0  0
  -23.1397  -30.6006   14.2440 C   0  0  0  0  0  0  0  0  0  0  0  0
  -25.1630  -26.8889   19.1989 C   0  0  0  0  0  0  0  0  0  0  0  0
  -27.1644  -28.1799   20.9517 C   0  0  0  0  0  0  0  0  0  0  0  0
  -33.7014  -22.7429   22.6176 C   0  0  0  0  0  0  0  0  0  0  0  0
  -23.2226  -31.1310   15.6730 C   0  0  0  0  0  0  0  0  0  0  0  0
  -32.7400  -23.9001   22.4579 C   0  0  0  0  0  0  0  0  0  0  0  0
  -29.9431  -11.6160   19.1680 C   0  0  0  0  0  0  0  0  0  0  0  0
  -24.6782  -31.2617   16.1102 C   0  0  0  0  0  0  0  0  0  0  0  0
  -28.4410  -11.5326   19.4484 C   0  0  0  0  0  0  0  0  0  0  0  0
  -30.6630  -12.4938   20.1901 C   0  0  0  0  0  0  0  0  0  0  0  0
  -31.2009  -22.4256   21.1929 C   0  0  0  0  0  0  0  0  0  0  0  0
  -28.5955  -13.7548   20.6421 C   0  0  0  0  0  0  0  0  0  0  0  0
  -25.3811  -29.8989   16.1022 C   0  0  1  0  0  0  0  0  0  0  0  0
  -25.0750  -28.3672   19.5654 C   0  0  1  0  0  0  0  0  0  0  0  0
  -31.9865  -23.7353   21.1483 C   0  0  1  0  0  0  0  0  0  0  0  0
  -27.8175  -12.9339   19.6007 C   0  0  2  0  0  0  0  0  0  0  0  0
  -26.1626  -28.2398   27.0180 C   0  0  0  0  0  0  0  0  0  0  0  0
  -25.9012  -32.5409   22.1736 C   0  0  0  0  0  0  0  0  0  0  0  0
  -26.7040  -31.9098   24.4595 C   0  0  0  0  0  0  0  0  0  0  0  0
  -24.3150  -31.5537   23.8360 C   0  0  0  0  0  0  0  0  0  0  0  0
  -28.2284  -25.9804   24.7588 C   0  0  0  0  0  0  0  0  0  0  0  0
  -31.0542  -24.9191   20.8994 C   0  0  0  0  0  0  0  0  0  1  0  0
  -26.0920  -30.0545   22.8426 C   0  0  1  0  0  0  0  0  0  0  0  0
  -26.5888  -27.6131   25.6995 C   0  0  2  0  0  0  0  0  0  0  0  0
  -25.7641  -31.5024   23.3048 C   0  0  0  0  0  0  0  0  0  0  0  0
  -25.8843  -11.8262   20.6577 N   0  0  0  0  0  0  0  0  0  0  0  0
  -26.3374  -12.8584   19.9260 N   0  0  0  0  0  0  0  0  0  0  0  0
  -31.9867  -21.2513   21.6138 N   0  0  0  0  0  0  0  0  0  0  0  0
  -25.7900  -28.6863   20.8028 N   0  0  0  0  0  0  0  0  0  0  0  0
  -30.0199  -13.8067   20.2773 N   0  0  0  0  0  0  0  0  0  0  0  0
  -25.6477  -14.8352   18.8181 N   0  0  0  0  0  0  0  0  0  0  0  0
  -22.1020  -13.4856   18.8569 N   0  0  0  0  0  0  0  0  0  0  0  0
  -30.0500  -16.1585   20.1032 N   0  0  0  0  0  0  0  0  0  0  0  0
  -25.0061  -29.1298   17.2694 N   0  0  0  0  0  0  0  0  0  0  0  0
  -25.9442  -29.0461   23.8864 N   0  0  0  0  0  0  0  0  0  0  0  0
  -27.7233  -26.6841   25.9658 N   0  3  0  0  0  0  0  0  0  0  0  0
  -33.5399  -20.4547   23.1841 O   0  0  0  0  0  0  0  0  0  0  0  0
  -22.4685  -14.7003   20.7671 O   0  0  0  0  0  0  0  0  0  0  0  0
  -26.5535  -30.0239   18.7623 O   0  0  0  0  0  0  0  0  0  0  0  0
  -24.0728  -30.0483   21.5979 O   0  0  0  0  0  0  0  0  0  0  0  0
  -28.1400  -29.1241   24.6280 O   0  0  0  0  0  0  0  0  0  0  0  0
  -31.9721  -14.9155   19.7263 O   0  0  0  0  0  0  0  0  0  0  0  0
  -21.2516   -8.5662   23.5667 O   0  0  0  0  0  0  0  0  0  0  0  0
  -30.3784  -24.7254   19.6576 O   0  0  0  0  0  0  0  0  0  1  0  0
  -16.2073  -10.3441   24.9078 F   0  0  0  0  0  0  0  0  0  0  0  0
  -28.3778  -18.3880   20.1806 F   0  0  0  0  0  0  0  0  0  0  0  0
  -20.4566   -8.7155   26.2103 F   0  0  0  0  0  0  0  0  0  0  0  0
  1  2  1  0  0  0  0
  1  5  2  0  0  0  0
  2  6  2  0  0  0  0
  3 10  2  0  0  0  0
  3 18  1  0  0  0  0
  4 11  1  0  0  0  0
  4 18  2  0  0  0  0
  5 20  1  0  0  0  0
  6 22  1  0  0  0  0
  7 12  2  0  0  0  0
  7 21  1  0  0  0  0
  8  9  2  0  0  0  0
  8 24  1  0  0  0  0
  9 25  1  0  0  0  0
 10 26  1  0  0  0  0
 11 26  2  0  0  0  0
 12 27  1  0  0  0  0
 13 14  2  0  0  0  0
 13 28  1  0  0  0  0
 14 29  1  0  0  0  0
 15 23  1  0  0  0  0
 15 27  2  0  0  0  0
 16 24  2  0  0  0  0
 16 30  1  0  0  0  0
 17 29  2  0  0  0  0
 17 31  1  0  0  0  0
 18 32  1  0  0  0  0
 19 32  1  0  0  0  0
 19 33  2  0  0  0  0
 19 35  1  0  0  0  0
 20 22  2  0  0  0  0
 20 40  1  0  0  0  0
 21 23  2  0  0  0  0
 21 41  1  0  0  0  0
 22 52  1  0  0  0  0
 23 42  1  0  0  0  0
 24 67  1  0  0  0  0
 25 30  2  0  0  0  0
 25 72  1  0  0  0  0
 26 82  1  0  0  0  0
 27 83  1  0  0  0  0
 28 31  2  0  0  0  0
 28 82  1  0  0  0  0
 29 84  1  0  0  0  0
 30 85  1  0  0  0  0
 31 86  1  0  0  0  0
 32 65  2  0  0  0  0
 33 66  1  0  0  0  0
 33 70  1  0  0  0  0
 34 43  1  0  0  0  0
 34 67  1  0  0  0  0
 34 76  2  0  0  0  0
 35 71  1  0  0  0  0
 35 77  2  0  0  0  0
 36 53  1  0  0  0  0
 36 73  1  0  0  0  0
 36 78  2  0  0  0  0
 37 62  1  0  0  0  0
 37 68  1  0  0  0  0
 37 79  2  0  0  0  0
 38 63  1  0  0  0  0
 38 74  1  0  0  0  0
 38 80  2  0  0  0  0
 39 69  1  0  0  0  0
 39 72  1  0  0  0  0
 39 81  2  0  0  0  0
 40 44  1  0  0  0  0
 41 53  1  0  0  0  0
 42 68  1  0  0  0  0
 43 45  1  0  0  0  0
 44 47  1  0  0  0  0
 45 54  1  0  0  0  0
 46 48  1  0  0  0  0
 46 49  1  0  0  0  0
 47 52  1  0  0  0  0
 48 55  1  0  0  0  0
 49 69  1  0  0  0  0
 50 54  1  0  0  0  0
 50 67  1  0  0  0  0
 51 55  1  0  0  0  0
 51 69  1  0  0  0  0
 52 73  1  0  0  0  0
 53 68  1  0  0  0  0
 54 61  1  0  0  0  0
 55 66  1  0  0  0  0
 56 63  1  0  0  0  0
 57 64  1  0  0  0  0
 58 64  1  0  0  0  0
 59 64  1  0  0  0  0
 60 75  1  0  0  0  0
 61 83  1  0  0  0  0
 62 64  1  0  0  0  0
 62 74  1  0  0  0  0
 63 75  1  0  0  0  0
 65 66  1  0  0  0  0
M  CHG  1  75   1
M  ISO  4  39 100  61 101  72 100  83 101
M  END
> <Batch ID>
0101

> <Smiles>
CNC(C)C(=O)NC(C(=O)N1Cc2cc([101O:1][101CH2:1]C3CCC(=O)N(c4ccc([100NH:0][100C:0](=O)N5CCCC(n6nc(-c7ccc(Oc8ccc(F)cc8F)cc7)c(C(N)=O)c6N)C5)c(F)c4)C3)ccc2CC1C(=O)NC1CCCc2ccccc21)C(C)(C)C

> <Shape>
0.240

> <Color>
0.117

> <Negative vol penalty>
0.000

$$$$

  -OEChem-04052301003D

 88 97  0     1  0  0  0  0  0999 V2000
  -27.0537  -38.1537   25.8515 C   0  0  0  0  0  0  0  0  0  0  0  0
  -26.8737  -36.9285   26.4834 C   0  0  0  0  0  0  0  0  0  0  0  0
  -22.4902  -10.3926   21.6426 C   0  0  0  0  0  0  0  0  0  0  0  0
  -23.6030   -9.5007   19.6924 C   0  0  0  0  0  0  0  0  0  0  0  0
  -26.5163  -38.3653   24.5836 C   0  0  0  0  0  0  0  0  0  0  0  0
  -26.1665  -35.9105   25.8428 C   0  0  0  0  0  0  0  0  0  0  0  0
  -22.8326  -28.7580   24.8680 C   0  0  0  0  0  0  0  0  0  0  0  0
  -21.3089  -21.9742   18.3362 C   0  0  0  0  0  0  0  0  0  0  0  0
  -21.8868  -20.7581   17.9721 C   0  0  0  0  0  0  0  0  0  0  0  0
  -21.9751   -9.1279   21.9271 C   0  0  0  0  0  0  0  0  0  0  0  0
  -23.0879   -8.2360   19.9769 C   0  0  0  0  0  0  0  0  0  0  0  0
  -21.8772  -28.0680   24.1232 C   0  0  0  0  0  0  0  0  0  0  0  0
  -23.0714   -6.2464   23.3154 C   0  0  0  0  0  0  0  0  0  0  0  0
  -23.1366   -5.8019   24.6360 C   0  0  0  0  0  0  0  0  0  0  0  0
  -22.9786  -28.7514   22.0887 C   0  0  0  0  0  0  0  0  0  0  0  0
  -21.5624  -19.9312   20.2189 C   0  0  0  0  0  0  0  0  0  0  0  0
  -20.7286   -5.6140   24.6917 C   0  0  0  0  0  0  0  0  0  0  0  0
  -23.3041  -10.5790   20.5252 C   0  0  0  0  0  0  0  0  0  0  0  0
  -24.6759  -12.6653   21.0477 C   0  0  0  0  0  0  0  0  0  0  0  0
  -25.7917  -37.3531   23.9330 C   0  0  0  0  0  0  0  0  0  0  0  0
  -23.8637  -29.4601   24.2274 C   0  0  0  0  0  0  0  0  0  0  0  0
  -25.6369  -36.0965   24.5530 C   0  0  0  0  0  0  0  0  0  0  0  0
  -23.9473  -29.4473   22.8277 C   0  0  0  0  0  0  0  0  0  0  0  0
  -20.8579  -22.1689   19.6418 C   0  0  0  0  0  0  0  0  0  0  0  0
  -22.0135  -19.7365   18.9134 C   0  0  0  0  0  0  0  0  0  0  0  0
  -22.2740   -8.0496   21.0943 C   0  0  0  0  0  0  0  0  0  0  0  0
  -21.9484  -28.0670   22.7332 C   0  0  0  0  0  0  0  0  0  0  0  0
  -21.8347   -6.3748   22.6830 C   0  0  0  0  0  0  0  0  0  0  0  0
  -21.9652   -5.4857   25.3241 C   0  0  0  0  0  0  0  0  0  0  0  0
  -20.9846  -21.1474   20.5831 C   0  0  0  0  0  0  0  0  0  0  0  0
  -20.6634   -6.0586   23.3711 C   0  0  0  0  0  0  0  0  0  0  0  0
  -23.8360  -11.8852   20.2305 C   0  0  0  0  0  0  0  0  0  0  0  0
  -24.8957  -13.8098   20.3208 C   0  0  0  0  0  0  0  0  0  0  0  0
  -20.0102  -25.2679   21.5368 C   0  0  0  0  0  0  0  0  0  0  0  0
  -20.7578  -24.2661   21.0133 C   0  0  0  0  0  0  0  0  0  0  0  0
  -18.5965  -25.4219   21.0542 C   0  0  0  0  0  0  0  0  0  0  0  0
  -25.2097  -12.3808   22.3476 C   0  0  0  0  0  0  0  0  0  0  0  0
  -24.7571  -32.5077   24.0952 C   0  0  0  0  0  0  0  0  0  0  0  0
  -27.2760  -31.2930   22.4514 C   0  0  0  0  0  0  0  0  0  0  0  0
  -27.7995  -28.7876   19.9085 C   0  0  0  0  0  0  0  0  0  0  0  0
  -22.5379  -17.9484   17.2345 C   0  0  0  0  0  0  0  0  0  0  0  0
  -25.2384  -37.6333   22.5580 C   0  0  0  0  0  0  0  0  0  0  0  0
  -24.9019  -30.1772   25.0460 C   0  0  0  0  0  0  0  0  0  0  0  0
  -25.0462  -30.1686   22.0924 C   0  0  0  0  0  0  0  0  0  0  0  0
  -18.0358  -24.3771   20.1199 C   0  0  0  0  0  0  0  0  0  0  0  0
  -24.1362  -36.6608   22.1511 C   0  0  0  0  0  0  0  0  0  0  0  0
  -23.8620  -14.9512   15.5151 C   0  0  0  0  0  0  0  0  0  0  0  0
  -24.5897  -35.2293   22.3957 C   0  0  0  0  0  0  0  0  0  0  0  0
  -23.9599  -13.9275   16.6447 C   0  0  0  0  0  0  0  0  0  0  0  0
  -19.1071  -23.8026   19.2096 C   0  0  0  0  0  0  0  0  0  0  0  0
  -22.7532  -15.9684   15.7670 C   0  0  0  0  0  0  0  0  0  0  0  0
  -22.9729  -15.6435   18.2140 C   0  0  0  0  0  0  0  0  0  0  0  0
  -24.8452  -34.9849   23.8883 C   0  0  1  0  0  0  0  0  0  0  0  0
  -25.6117  -31.2848   24.2734 C   0  0  1  0  0  0  0  0  0  0  0  0
  -24.1092  -14.6317   18.0033 C   0  0  1  0  0  0  0  0  0  0  0  0
  -22.2094  -24.1120   21.4243 C   0  0  0  0  0  0  0  0  0  0  0  0
  -29.8171  -27.3899   19.3862 C   0  0  0  0  0  0  0  0  0  0  0  0
  -27.9275  -33.5004   20.4481 C   0  0  0  0  0  0  0  0  0  0  0  0
  -28.7318  -31.7328   18.8678 C   0  0  0  0  0  0  0  0  0  0  0  0
  -29.8668  -32.0475   21.0668 C   0  0  0  0  0  0  0  0  0  0  0  0
  -23.0860  -17.6000   19.6030 C   0  0  0  0  0  0  0  0  0  0  0  0
  -26.2606  -26.2707   20.1441 C   0  0  0  0  0  0  0  0  0  0  0  0
  -20.4330  -26.2387   22.6028 C   0  0  0  0  0  0  0  0  0  1  0  0
  -27.5649  -31.0040   20.9981 C   0  0  1  0  0  0  0  0  0  0  0  0
  -28.4686  -27.4369   20.0877 C   0  0  2  0  0  0  0  0  0  0  0  0
  -28.4963  -32.0703   20.3556 C   0  0  0  0  0  0  0  0  0  0  0  0
  -23.5422  -12.4836   19.0731 N   0  0  0  0  0  0  0  0  0  0  0  0
  -24.2009  -13.6519   19.1578 N   0  0  0  0  0  0  0  0  0  0  0  0
  -20.2720  -23.4077   20.0095 N   0  0  0  0  0  0  0  0  0  0  0  0
  -26.0338  -30.8605   22.9370 N   0  0  0  0  0  0  0  0  0  0  0  0
  -22.8739  -16.5868   17.0883 N   0  0  0  0  0  0  0  0  0  0  0  0
  -25.6136  -14.9257   20.5694 N   0  0  0  0  0  0  0  0  0  0  0  0
  -24.8840  -11.1584   22.9508 N   0  0  0  0  0  0  0  0  0  0  0  0
  -25.4697  -33.6910   24.0547 N   0  0  0  0  0  0  0  0  0  0  0  0
  -28.0908  -29.6440   20.9492 N   0  0  0  0  0  0  0  0  0  0  0  0
  -22.6111  -18.4789   18.5366 N   0  0  0  0  0  0  0  0  0  0  0  0
  -27.6098  -26.3551   19.5282 N   0  3  0  0  0  0  0  0  0  0  0  0
  -17.8911  -26.3479   21.4539 O   0  0  0  0  0  0  0  0  0  0  0  0
  -25.9402  -13.1938   22.9633 O   0  0  0  0  0  0  0  0  0  0  0  0
  -23.5414  -32.3866   24.0001 O   0  0  0  0  0  0  0  0  0  0  0  0
  -28.1241  -31.8747   23.1325 O   0  0  0  0  0  0  0  0  0  0  0  0
  -27.0923  -29.0574   18.9402 O   0  0  0  0  0  0  0  0  0  0  0  0
  -22.1456  -18.6317   16.2806 O   0  0  0  0  0  0  0  0  0  0  0  0
  -21.7717   -6.8154   21.3717 O   0  0  0  0  0  0  0  0  0  0  0  0
  -21.0167  -27.3949   22.0037 O   0  0  0  0  0  0  0  0  0  1  0  0
  -22.0281   -5.0574   26.5917 F   0  0  0  0  0  0  0  0  0  0  0  0
  -20.5557  -21.3247   21.8408 F   0  0  0  0  0  0  0  0  0  0  0  0
  -19.4725   -6.1788   22.7685 F   0  0  0  0  0  0  0  0  0  0  0  0
  1  2  1  0  0  0  0
  1  5  2  0  0  0  0
  2  6  2  0  0  0  0
  3 10  2  0  0  0  0
  3 18  1  0  0  0  0
  4 11  1  0  0  0  0
  4 18  2  0  0  0  0
  5 20  1  0  0  0  0
  6 22  1  0  0  0  0
  7 12  2  0  0  0  0
  7 21  1  0  0  0  0
  8  9  2  0  0  0  0
  8 24  1  0  0  0  0
  9 25  1  0  0  0  0
 10 26  1  0  0  0  0
 11 26  2  0  0  0  0
 12 27  1  0  0  0  0
 13 14  2  0  0  0  0
 13 28  1  0  0  0  0
 14 29  1  0  0  0  0
 15 23  1  0  0  0  0
 15 27  2  0  0  0  0
 16 25  2  0  0  0  0
 16 30  1  0  0  0  0
 17 29  2  0  0  0  0
 17 31  1  0  0  0  0
 18 32  1  0  0  0  0
 19 32  1  0  0  0  0
 19 33  2  0  0  0  0
 19 37  1  0  0  0  0
 20 22  2  0  0  0  0
 20 42  1  0  0  0  0
 21 23  2  0  0  0  0
 21 43  1  0  0  0  0
 22 53  1  0  0  0  0
 23 44  1  0  0  0  0
 24 30  2  0  0  0  0
 24 69  1  0  0  0  0
 25 76  1  0  0  0  0
 26 84  1  0  0  0  0
 27 85  1  0  0  0  0
 28 31  2  0  0  0  0
 28 84  1  0  0  0  0
 29 86  1  0  0  0  0
 30 87  1  0  0  0  0
 31 88  1  0  0  0  0
 32 67  2  0  0  0  0
 33 68  1  0  0  0  0
 33 72  1  0  0  0  0
 34 35  2  0  0  0  0
 34 36  1  0  0  0  0
 34 63  1  0  0  0  0
 35 56  1  0  0  0  0
 35 69  1  0  0  0  0
 36 45  1  0  0  0  0
 36 78  2  0  0  0  0
 37 73  1  0  0  0  0
 37 79  2  0  0  0  0
 38 54  1  0  0  0  0
 38 74  1  0  0  0  0
 38 80  2  0  0  0  0
 39 64  1  0  0  0  0
 39 70  1  0  0  0  0
 39 81  2  0  0  0  0
 40 65  1  0  0  0  0
 40 75  1  0  0  0  0
 40 82  2  0  0  0  0
 41 71  1  0  0  0  0
 41 76  1  0  0  0  0
 41 83  2  0  0  0  0
 42 46  1  0  0  0  0
 43 54  1  0  0  0  0
 44 70  1  0  0  0  0
 45 50  1  0  0  0  0
 46 48  1  0  0  0  0
 47 49  1  0  0  0  0
 47 51  1  0  0  0  0
 48 53  1  0  0  0  0
 49 55  1  0  0  0  0
 50 69  1  0  0  0  0
 51 71  1  0  0  0  0
 52 55  1  0  0  0  0
 52 71  1  0  0  0  0
 53 74  1  0  0  0  0
 54 70  1  0  0  0  0
 55 68  1  0  0  0  0
 57 65  1  0  0  0  0
 58 66  1  0  0  0  0
 59 66  1  0  0  0  0
 60 66  1  0  0  0  0
 61 76  1  0  0  0  0
 62 77  1  0  0  0  0
 63 85  1  0  0  0  0
 64 66  1  0  0  0  0
 64 75  1  0  0  0  0
 65 77  1  0  0  0  0
 67 68  1  0  0  0  0
M  CHG  1  77   1
M  ISO  4  41 100  63 101  76 100  85 101
M  END
> <Batch ID>
0101

> <Smiles>
CNC(C)C(=O)NC(C(=O)N1Cc2cc([101O:1][101CH2:1]C3=C(C)N(c4ccc([100N:0](C)[100C:0](=O)N5CCCC(n6nc(-c7ccc(Oc8ccc(F)cc8F)cc7)c(C(N)=O)c6N)C5)cc4F)CCC3=O)ccc2CC1C(=O)NC1CCCc2ccccc21)C(C)(C)C

> <Shape>
0.257

> <Color>
0.121

> <Negative vol penalty>
0.000

$$$$

  -OEChem-04052301003D

 87 95  0     1  0  0  0  0  0999 V2000
  -32.5095  -35.5453   12.8366 C   0  0  0  0  0  0  0  0  0  0  0  0
  -32.5799  -34.4555   13.6985 C   0  0  0  0  0  0  0  0  0  0  0  0
  -23.1017   -9.7960   19.9253 C   0  0  0  0  0  0  0  0  0  0  0  0
  -23.8915   -9.7947   22.2086 C   0  0  0  0  0  0  0  0  0  0  0  0
  -31.3942  -36.3816   12.8618 C   0  0  0  0  0  0  0  0  0  0  0  0
  -31.5354  -34.2021   14.5870 C   0  0  0  0  0  0  0  0  0  0  0  0
  -29.5172  -28.7214   16.4294 C   0  0  0  0  0  0  0  0  0  0  0  0
  -29.1447  -22.6968   22.4283 C   0  0  0  0  0  0  0  0  0  0  0  0
  -29.0529  -21.5532   23.2215 C   0  0  0  0  0  0  0  0  0  0  0  0
  -22.3947   -8.6186   20.1692 C   0  0  0  0  0  0  0  0  0  0  0  0
  -23.1844   -8.6174   22.4525 C   0  0  0  0  0  0  0  0  0  0  0  0
  -29.7598  -27.9703   17.5786 C   0  0  0  0  0  0  0  0  0  0  0  0
  -19.9888   -7.7187   23.0857 C   0  0  0  0  0  0  0  0  0  0  0  0
  -19.2489   -7.6415   24.2656 C   0  0  0  0  0  0  0  0  0  0  0  0
  -27.7410  -28.8441   18.5686 C   0  0  0  0  0  0  0  0  0  0  0  0
  -30.7985  -21.6054   21.0460 C   0  0  0  0  0  0  0  0  0  0  0  0
  -20.5552   -5.7312   24.9597 C   0  0  0  0  0  0  0  0  0  0  0  0
  -23.8502  -10.3840   20.9450 C   0  0  0  0  0  0  0  0  0  0  0  0
  -24.1177  -12.9194   20.8548 C   0  0  0  0  0  0  0  0  0  0  0  0
  -30.3312  -36.1328   13.7443 C   0  0  0  0  0  0  0  0  0  0  0  0
  -28.3885  -29.5493   16.3452 C   0  0  0  0  0  0  0  0  0  0  0  0
  -30.4055  -35.0367   14.6249 C   0  0  0  0  0  0  0  0  0  0  0  0
  -27.4850  -29.6027   17.4162 C   0  0  0  0  0  0  0  0  0  0  0  0
  -30.7067  -20.4617   21.8392 C   0  0  0  0  0  0  0  0  0  0  0  0
  -30.0175  -22.7230   21.3405 C   0  0  0  0  0  0  0  0  0  0  0  0
  -29.8339  -20.4356   22.9270 C   0  0  0  0  0  0  0  0  0  0  0  0
  -22.4360   -8.0293   21.4328 C   0  0  0  0  0  0  0  0  0  0  0  0
  -28.8732  -28.0337   18.6495 C   0  0  0  0  0  0  0  0  0  0  0  0
  -21.0118   -6.8021   22.8427 C   0  0  0  0  0  0  0  0  0  0  0  0
  -19.5321   -6.6477   25.2026 C   0  0  0  0  0  0  0  0  0  0  0  0
  -21.2950   -5.8084   23.7797 C   0  0  0  0  0  0  0  0  0  0  0  0
  -24.5813  -11.5999   20.6935 C   0  0  0  0  0  0  0  0  0  0  0  0
  -25.1829  -13.7048   20.4877 C   0  0  0  0  0  0  0  0  0  0  0  0
  -22.8386  -13.3927   21.2970 C   0  0  0  0  0  0  0  0  0  0  0  0
  -27.9194  -32.6740   15.9997 C   0  0  0  0  0  0  0  0  0  0  0  0
  -30.6612  -14.8124   20.7149 C   0  0  0  0  0  0  0  0  0  0  0  0
  -24.8070  -31.7873   15.7777 C   0  0  0  0  0  0  0  0  0  0  0  0
  -30.8899  -16.9635   22.0340 C   0  0  0  0  0  0  0  0  0  0  0  0
  -29.4120  -25.0768   20.6874 C   0  0  0  0  0  0  0  0  0  0  0  0
  -22.3924  -29.4847   16.4948 C   0  0  0  0  0  0  0  0  0  0  0  0
  -29.1677  -37.0921   13.7681 C   0  0  0  0  0  0  0  0  0  0  0  0
  -28.1270  -30.3327   15.0882 C   0  0  0  0  0  0  0  0  0  0  0  0
  -26.2479  -30.4604   17.3679 C   0  0  0  0  0  0  0  0  0  0  0  0
  -27.9356  -36.5376   14.4785 C   0  0  0  0  0  0  0  0  0  0  0  0
  -29.5299  -12.5161   18.2075 C   0  0  0  0  0  0  0  0  0  0  0  0
  -28.3281  -35.8954   15.8052 C   0  0  0  0  0  0  0  0  0  0  0  0
  -28.1150  -12.1583   18.6605 C   0  0  0  0  0  0  0  0  0  0  0  0
  -30.4600  -12.7294   19.3976 C   0  0  0  0  0  0  0  0  0  0  0  0
  -28.5551  -13.3903   20.8316 C   0  0  0  0  0  0  0  0  0  0  0  0
  -29.2816  -34.7146   15.5858 C   0  0  1  0  0  0  0  0  0  0  0  0
  -27.2176  -31.5368   15.3128 C   0  0  1  0  0  0  0  0  0  0  0  0
  -27.5757  -13.1964   19.6605 C   0  0  2  0  0  0  0  0  0  0  0  0
  -19.9357  -29.0546   16.2167 C   0  0  0  0  0  0  0  0  0  0  0  0
  -24.2070  -33.7935   17.9969 C   0  0  0  0  0  0  0  0  0  0  0  0
  -21.9971  -32.6637   18.3255 C   0  0  0  0  0  0  0  0  0  0  0  0
  -22.5270  -33.7532   16.1449 C   0  0  0  0  0  0  0  0  0  0  0  0
  -29.8607  -18.2034   20.0722 C   0  0  0  0  0  0  0  0  0  0  0  0
  -22.8827  -27.0265   14.9213 C   0  0  0  0  0  0  0  0  0  0  0  0
  -31.5555  -19.2792   21.5018 C   0  0  0  0  0  0  0  0  0  0  0  0
  -30.0174  -15.7753   21.6805 C   0  0  0  0  0  0  0  0  0  0  0  0
  -29.8084  -26.0695   19.6103 C   0  0  0  0  0  0  0  0  0  1  0  0
  -23.6792  -31.5888   16.7614 C   0  0  1  0  0  0  0  0  0  0  0  0
  -21.3225  -28.8441   15.6291 C   0  0  2  0  0  0  0  0  0  0  0  0
  -23.1268  -32.9350   17.3091 C   0  0  0  0  0  0  0  0  0  0  0  0
  -25.8427  -11.5462   20.2577 N   0  0  0  0  0  0  0  0  0  0  0  0
  -26.1808  -12.8417   20.1420 N   0  0  0  0  0  0  0  0  0  0  0  0
  -26.0394  -31.2125   16.1196 N   0  0  0  0  0  0  0  0  0  0  0  0
  -29.9018  -13.7055   20.3351 N   0  0  0  0  0  0  0  0  0  0  0  0
  -29.7275  -19.2864   23.7407 N   0  0  0  0  0  0  0  0  0  0  0  0
  -25.3540  -15.0427   20.4300 N   0  0  0  0  0  0  0  0  0  0  0  0
  -21.8578  -12.4503   21.6349 N   0  0  0  0  0  0  0  0  0  0  0  0
  -30.1106  -23.8838   20.5366 N   0  0  0  0  0  0  0  0  0  0  0  0
  -28.5490  -33.5502   15.1364 N   0  0  0  0  0  0  0  0  0  0  0  0
  -22.6840  -30.7672   16.0810 N   0  0  0  0  0  0  0  0  0  0  0  0
  -30.7692  -18.1059   21.2220 N   0  0  0  0  0  0  0  0  0  0  0  0
  -21.5637  -27.3785   15.5072 N   0  3  0  0  0  0  0  0  0  0  0  0
  -22.5678  -14.6151   21.3741 O   0  0  0  0  0  0  0  0  0  0  0  0
  -27.8905  -32.7517   17.2223 O   0  0  0  0  0  0  0  0  0  0  0  0
  -31.8038  -15.0404   20.3092 O   0  0  0  0  0  0  0  0  0  0  0  0
  -24.6003  -32.4226   14.7408 O   0  0  0  0  0  0  0  0  0  0  0  0
  -31.6600  -16.9019   22.9963 O   0  0  0  0  0  0  0  0  0  0  0  0
  -28.5800  -25.3566   21.5442 O   0  0  0  0  0  0  0  0  0  0  0  0
  -22.9143  -28.9066   17.4456 O   0  0  0  0  0  0  0  0  0  0  0  0
  -21.7460   -6.8806   21.6712 O   0  0  0  0  0  0  0  0  0  0  0  0
  -29.1080  -27.3021   19.7727 O   0  0  0  0  0  0  0  0  0  1  0  0
  -18.8225   -6.5747   26.3363 F   0  0  0  0  0  0  0  0  0  0  0  0
  -22.2774   -4.9258   23.5524 F   0  0  0  0  0  0  0  0  0  0  0  0
  1  2  1  0  0  0  0
  1  5  2  0  0  0  0
  2  6  2  0  0  0  0
  3 10  2  0  0  0  0
  3 18  1  0  0  0  0
  4 11  1  0  0  0  0
  4 18  2  0  0  0  0
  5 20  1  0  0  0  0
  6 22  1  0  0  0  0
  7 12  2  0  0  0  0
  7 21  1  0  0  0  0
  8  9  2  0  0  0  0
  8 25  1  0  0  0  0
  9 26  1  0  0  0  0
 10 27  1  0  0  0  0
 11 27  2  0  0  0  0
 12 28  1  0  0  0  0
 13 14  2  0  0  0  0
 13 29  1  0  0  0  0
 14 30  1  0  0  0  0
 15 23  1  0  0  0  0
 15 28  2  0  0  0  0
 16 24  1  0  0  0  0
 16 25  2  0  0  0  0
 17 30  2  0  0  0  0
 17 31  1  0  0  0  0
 18 32  1  0  0  0  0
 19 32  1  0  0  0  0
 19 33  2  0  0  0  0
 19 34  1  0  0  0  0
 20 22  2  0  0  0  0
 20 41  1  0  0  0  0
 21 23  2  0  0  0  0
 21 42  1  0  0  0  0
 22 50  1  0  0  0  0
 23 43  1  0  0  0  0
 24 26  2  0  0  0  0
 24 59  1  0  0  0  0
 25 72  1  0  0  0  0
 26 69  1  0  0  0  0
 27 84  1  0  0  0  0
 28 85  1  0  0  0  0
 29 31  2  0  0  0  0
 29 84  1  0  0  0  0
 30 86  1  0  0  0  0
 31 87  1  0  0  0  0
 32 65  2  0  0  0  0
 33 66  1  0  0  0  0
 33 70  1  0  0  0  0
 34 71  1  0  0  0  0
 34 77  2  0  0  0  0
 35 51  1  0  0  0  0
 35 73  1  0  0  0  0
 35 78  2  0  0  0  0
 36 60  1  0  0  0  0
 36 68  1  0  0  0  0
 36 79  2  0  0  0  0
 37 62  1  0  0  0  0
 37 67  1  0  0  0  0
 37 80  2  0  0  0  0
 38 60  1  0  0  0  0
 38 75  1  0  0  0  0
 38 81  2  0  0  0  0
 39 61  1  0  0  0  0
 39 72  1  0  0  0  0
 39 82  2  0  0  0  0
 40 63  1  0  0  0  0
 40 74  1  0  0  0  0
 40 83  2  0  0  0  0
 41 44  1  0  0  0  0
 42 51  1  0  0  0  0
 43 67  1  0  0  0  0
 44 46  1  0  0  0  0
 45 47  1  0  0  0  0
 45 48  1  0  0  0  0
 46 50  1  0  0  0  0
 47 52  1  0  0  0  0
 48 68  1  0  0  0  0
 49 52  1  0  0  0  0
 49 68  1  0  0  0  0
 50 73  1  0  0  0  0
 51 67  1  0  0  0  0
 52 66  1  0  0  0  0
 53 63  1  0  0  0  0
 54 64  1  0  0  0  0
 55 64  1  0  0  0  0
 56 64  1  0  0  0  0
 57 75  1  0  0  0  0
 58 76  1  0  0  0  0
 59 75  1  0  0  0  0
 61 85  1  0  0  0  0
 62 64  1  0  0  0  0
 62 74  1  0  0  0  0
 63 76  1  0  0  0  0
 65 66  1  0  0  0  0
M  CHG  1  76   1
M  ISO  4  36 100  60 100  61 101  85 101
M  END
> <Batch ID>
0101

> <Smiles>
CNC(C)C(=O)NC(C(=O)N1Cc2cc([101O:1][101CH2:1]C(=O)Nc3ccc(N)c(CN(C)C(=O)[100CH2:0][100C:0](=O)N4CCCC(n5nc(-c6ccc(Oc7ccc(F)cc7F)cc6)c(C(N)=O)c5N)C4)c3)ccc2CC1C(=O)NC1CCCc2ccccc21)C(C)(C)C

> <Shape>
0.218

> <Color>
0.186

> <Negative vol penalty>
0.000

$$$$

  -OEChem-04052301003D

 88 97  0     1  0  0  0  0  0999 V2000
  -27.8294  -37.2152   21.9876 C   0  0  0  0  0  0  0  0  0  0  0  0
  -28.0878  -35.8972   22.3502 C   0  0  0  0  0  0  0  0  0  0  0  0
  -24.0434   -9.6679   22.1871 C   0  0  0  0  0  0  0  0  0  0  0  0
  -23.0236  -10.0166   20.0248 C   0  0  0  0  0  0  0  0  0  0  0  0
  -26.5221  -37.6995   22.0093 C   0  0  0  0  0  0  0  0  0  0  0  0
  -27.0391  -35.0629   22.7358 C   0  0  0  0  0  0  0  0  0  0  0  0
  -27.3277  -30.4730   20.6159 C   0  0  0  0  0  0  0  0  0  0  0  0
  -28.2952  -21.5230   22.8976 C   0  0  0  0  0  0  0  0  0  0  0  0
  -27.9573  -22.5897   20.7563 C   0  0  0  0  0  0  0  0  0  0  0  0
  -27.4436  -20.4864   22.5156 C   0  0  0  0  0  0  0  0  0  0  0  0
  -27.1057  -21.5530   20.3743 C   0  0  0  0  0  0  0  0  0  0  0  0
  -23.1987   -8.5806   22.4102 C   0  0  0  0  0  0  0  0  0  0  0  0
  -22.1789   -8.9292   20.2478 C   0  0  0  0  0  0  0  0  0  0  0  0
  -28.2376  -29.5726   21.1683 C   0  0  0  0  0  0  0  0  0  0  0  0
  -23.0137   -5.3368   21.4738 C   0  0  0  0  0  0  0  0  0  0  0  0
  -23.5792   -4.1725   21.9934 C   0  0  0  0  0  0  0  0  0  0  0  0
  -26.4394  -28.4998   22.3661 C   0  0  0  0  0  0  0  0  0  0  0  0
  -22.1240   -4.3236   23.9160 C   0  0  0  0  0  0  0  0  0  0  0  0
  -23.9558  -10.3860   20.9944 C   0  0  0  0  0  0  0  0  0  0  0  0
  -26.2349  -11.4999   20.7251 C   0  0  0  0  0  0  0  0  0  0  0  0
  -25.4557  -36.8680   22.3861 C   0  0  0  0  0  0  0  0  0  0  0  0
  -25.9662  -30.4003   20.9435 C   0  0  0  0  0  0  0  0  0  0  0  0
  -25.7165  -35.5369   22.7639 C   0  0  0  0  0  0  0  0  0  0  0  0
  -25.5139  -29.3988   21.8145 C   0  0  0  0  0  0  0  0  0  0  0  0
  -28.5520  -22.5747   22.0179 C   0  0  0  0  0  0  0  0  0  0  0  0
  -26.8489  -20.5014   21.2539 C   0  0  0  0  0  0  0  0  0  0  0  0
  -22.2665   -8.2112   21.4405 C   0  0  0  0  0  0  0  0  0  0  0  0
  -27.7939  -28.5876   22.0459 C   0  0  0  0  0  0  0  0  0  0  0  0
  -22.0033   -5.9946   22.1753 C   0  0  0  0  0  0  0  0  0  0  0  0
  -23.1344   -3.6659   23.2145 C   0  0  0  0  0  0  0  0  0  0  0  0
  -21.5584   -5.4880   23.3964 C   0  0  0  0  0  0  0  0  0  0  0  0
  -24.8277  -11.5096   20.7637 C   0  0  0  0  0  0  0  0  0  0  0  0
  -26.5807  -12.8056   20.4759 C   0  0  0  0  0  0  0  0  0  0  0  0
  -30.4783  -23.3466   23.3232 C   0  0  0  0  0  0  0  0  0  0  0  0
  -29.1871  -24.9417   21.8726 C   0  0  0  0  0  0  0  0  0  0  0  0
  -27.1479  -10.4081   20.8988 C   0  0  0  0  0  0  0  0  0  0  0  0
  -23.8928  -32.3488   22.3606 C   0  0  0  0  0  0  0  0  0  0  0  0
  -21.7579  -30.0565   21.5178 C   0  0  0  0  0  0  0  0  0  0  0  0
  -21.6415  -26.4506   21.4846 C   0  0  0  0  0  0  0  0  0  0  0  0
  -26.1369  -18.1195   21.3586 C   0  0  0  0  0  0  0  0  0  0  0  0
  -24.0653  -37.4499   22.4396 C   0  0  0  0  0  0  0  0  0  0  0  0
  -24.9935  -31.3623   20.3182 C   0  0  0  0  0  0  0  0  0  0  0  0
  -24.0595  -29.2654   22.1826 C   0  0  0  0  0  0  0  0  0  0  0  0
  -31.2873  -24.5107   23.8567 C   0  0  0  0  0  0  0  0  0  0  0  0
  -22.9649  -36.3936   22.5002 C   0  0  0  0  0  0  0  0  0  0  0  0
  -30.6533  -25.8616   23.6208 C   0  0  0  0  0  0  0  0  0  0  0  0
  -23.7629  -16.7598   19.0874 C   0  0  0  0  0  0  0  0  0  0  0  0
  -23.3066  -35.3255   23.5342 C   0  0  0  0  0  0  0  0  0  0  0  0
  -23.9373  -15.2607   19.3275 C   0  0  0  0  0  0  0  0  0  0  0  0
  -23.8499  -17.5616   20.3864 C   0  0  0  0  0  0  0  0  0  0  0  0
  -25.2518  -15.7999   21.4137 C   0  0  0  0  0  0  0  0  0  0  0  0
  -24.6025  -34.5940   23.1642 C   0  0  1  0  0  0  0  0  0  0  0  0
  -30.2793  -25.9641   22.1529 C   0  0  2  0  0  0  0  0  0  0  0  0
  -23.7066  -31.5180   21.1225 C   0  0  1  0  0  0  0  0  0  0  0  0
  -25.2262  -14.9743   20.1179 C   0  0  1  0  0  0  0  0  0  0  0  0
  -23.6545  -20.2708   21.0410 C   0  0  0  0  0  0  0  0  0  0  0  0
  -20.3258  -24.8739   20.0423 C   0  0  0  0  0  0  0  0  0  0  0  0
  -19.7276  -30.1275   23.7944 C   0  0  0  0  0  0  0  0  0  0  0  0
  -19.3269  -27.6846   23.4201 C   0  0  0  0  0  0  0  0  0  0  0  0
  -18.8166  -29.3223   21.6090 C   0  0  0  0  0  0  0  0  0  0  0  0
  -24.0837  -25.0206   20.6190 C   0  0  0  0  0  0  0  0  0  0  0  0
  -29.8299  -27.3818   21.8075 C   0  0  0  0  0  0  0  0  0  1  0  0
  -24.7451  -19.7634   20.1193 C   0  0  0  0  0  0  0  0  0  0  0  0
  -21.2271  -28.8001   22.1648 C   0  0  1  0  0  0  0  0  0  0  0  0
  -21.6694  -25.5517   20.2617 C   0  0  2  0  0  0  0  0  0  0  0  0
  -19.8007  -28.9933   22.7526 C   0  0  0  0  0  0  0  0  0  0  0  0
  -24.3146  -12.7252   20.5558 N   0  0  0  0  0  0  0  0  0  0  0  0
  -25.4053  -13.4914   20.3843 N   0  0  0  0  0  0  0  0  0  0  0  0
  -29.4365  -23.6522   22.4148 N   0  0  0  0  0  0  0  0  0  0  0  0
  -23.1484  -30.2336   21.5501 N   0  0  0  0  0  0  0  0  0  0  0  0
  -25.0751  -17.2252   21.1252 N   0  0  0  0  0  0  0  0  0  0  0  0
  -27.7723  -13.4225   20.3285 N   0  0  0  0  0  0  0  0  0  0  0  0
  -27.5387   -9.6775   19.7684 N   0  0  0  0  0  0  0  0  0  0  0  0
  -24.3557  -33.6275   22.1157 N   0  0  0  0  0  0  0  0  0  0  0  0
  -21.3204  -27.7506   21.1557 N   0  0  0  0  0  0  0  0  0  0  0  0
  -25.9673  -19.4284   20.8582 N   0  0  0  0  0  0  0  0  0  0  0  0
  -22.7086  -24.4952   20.4190 N   0  3  0  0  0  0  0  0  0  0  0  0
  -30.8277  -22.2061   23.6444 O   0  0  0  0  0  0  0  0  0  0  0  0
  -28.1802  -25.2611   21.2372 O   0  0  0  0  0  0  0  0  0  0  0  0
  -27.5910  -10.0796   22.0255 O   0  0  0  0  0  0  0  0  0  0  0  0
  -23.6342  -31.8658   23.4568 O   0  0  0  0  0  0  0  0  0  0  0  0
  -20.9685  -30.8482   20.9965 O   0  0  0  0  0  0  0  0  0  0  0  0
  -21.8771  -26.0398   22.6188 O   0  0  0  0  0  0  0  0  0  0  0  0
  -27.1469  -17.7826   21.9880 O   0  0  0  0  0  0  0  0  0  0  0  0
  -21.4422   -7.1500   21.6578 O   0  0  0  0  0  0  0  0  0  0  0  0
  -28.6800  -27.7078   22.5870 O   0  0  0  0  0  0  0  0  0  1  0  0
  -23.6765   -2.5469   23.7126 F   0  0  0  0  0  0  0  0  0  0  0  0
  -20.5872   -6.1149   24.0744 F   0  0  0  0  0  0  0  0  0  0  0  0
  1  2  1  0  0  0  0
  1  5  2  0  0  0  0
  2  6  2  0  0  0  0
  3 12  2  0  0  0  0
  3 19  1  0  0  0  0
  4 13  1  0  0  0  0
  4 19  2  0  0  0  0
  5 21  1  0  0  0  0
  6 23  1  0  0  0  0
  7 14  2  0  0  0  0
  7 22  1  0  0  0  0
  8 10  2  0  0  0  0
  8 25  1  0  0  0  0
  9 11  1  0  0  0  0
  9 25  2  0  0  0  0
 10 26  1  0  0  0  0
 11 26  2  0  0  0  0
 12 27  1  0  0  0  0
 13 27  2  0  0  0  0
 14 28  1  0  0  0  0
 15 16  2  0  0  0  0
 15 29  1  0  0  0  0
 16 30  1  0  0  0  0
 17 24  1  0  0  0  0
 17 28  2  0  0  0  0
 18 30  2  0  0  0  0
 18 31  1  0  0  0  0
 19 32  1  0  0  0  0
 20 32  1  0  0  0  0
 20 33  2  0  0  0  0
 20 36  1  0  0  0  0
 21 23  2  0  0  0  0
 21 41  1  0  0  0  0
 22 24  2  0  0  0  0
 22 42  1  0  0  0  0
 23 52  1  0  0  0  0
 24 43  1  0  0  0  0
 25 69  1  0  0  0  0
 26 76  1  0  0  0  0
 27 85  1  0  0  0  0
 28 86  1  0  0  0  0
 29 31  2  0  0  0  0
 29 85  1  0  0  0  0
 30 87  1  0  0  0  0
 31 88  1  0  0  0  0
 32 67  2  0  0  0  0
 33 68  1  0  0  0  0
 33 72  1  0  0  0  0
 34 44  1  0  0  0  0
 34 69  1  0  0  0  0
 34 78  2  0  0  0  0
 35 53  1  0  0  0  0
 35 69  1  0  0  0  0
 35 79  2  0  0  0  0
 36 73  1  0  0  0  0
 36 80  2  0  0  0  0
 37 54  1  0  0  0  0
 37 74  1  0  0  0  0
 37 81  2  0  0  0  0
 38 64  1  0  0  0  0
 38 70  1  0  0  0  0
 38 82  2  0  0  0  0
 39 65  1  0  0  0  0
 39 75  1  0  0  0  0
 39 83  2  0  0  0  0
 40 71  1  0  0  0  0
 40 76  1  0  0  0  0
 40 84  2  0  0  0  0
 41 45  1  0  0  0  0
 42 54  1  0  0  0  0
 43 70  1  0  0  0  0
 44 46  1  0  0  0  0
 45 48  1  0  0  0  0
 46 53  1  0  0  0  0
 47 49  1  0  0  0  0
 47 50  1  0  0  0  0
 48 52  1  0  0  0  0
 49 55  1  0  0  0  0
 50 71  1  0  0  0  0
 51 55  1  0  0  0  0
 51 71  1  0  0  0  0
 52 74  1  0  0  0  0
 53 62  1  0  0  0  0
 54 70  1  0  0  0  0
 55 68  1  0  0  0  0
 56 63  1  0  0  0  0
 57 65  1  0  0  0  0
 58 66  1  0  0  0  0
 59 66  1  0  0  0  0
 60 66  1  0  0  0  0
 61 77  1  0  0  0  0
 62 86  1  0  0  0  0
 63 76  1  0  0  0  0
 64 66  1  0  0  0  0
 64 75  1  0  0  0  0
 65 77  1  0  0  0  0
 67 68  1  0  0  0  0
M  CHG  1  77   1
M  ISO  4  40 100  62 101  76 100  86 101
M  END
> <Batch ID>
0101

> <Smiles>
CC[100N:0](c1ccc(N2C(=O)CCC([101CH2:1][101O:1]c3ccc4c(c3)CN(C(=O)C(NC(=O)C(C)NC)C(C)(C)C)C(C(=O)NC3CCCc5ccccc53)C4)C2=O)cc1)[100C:0](=O)N1CCCC(n2nc(-c3ccc(Oc4ccc(F)cc4F)cc3)c(C(N)=O)c2N)C1

> <Shape>
0.288

> <Color>
0.091

> <Negative vol penalty>
0.000

$$$$

  -OEChem-04052301003D

 84 92  0     1  0  0  0  0  0999 V2000
  -17.5754  -30.1206   19.7749 C   0  0  0  0  0  0  0  0  0  0  0  0
  -18.0400  -29.0727   18.9866 C   0  0  0  0  0  0  0  0  0  0  0  0
  -23.2048   -9.8702   19.8802 C   0  0  0  0  0  0  0  0  0  0  0  0
  -23.9162   -9.7338   22.1851 C   0  0  0  0  0  0  0  0  0  0  0  0
  -17.8510  -30.1387   21.1415 C   0  0  0  0  0  0  0  0  0  0  0  0
  -18.7815  -28.0427   19.5644 C   0  0  0  0  0  0  0  0  0  0  0  0
  -18.7202  -22.1269   17.9818 C   0  0  0  0  0  0  0  0  0  0  0  0
  -22.4950   -8.6787   20.0288 C   0  0  0  0  0  0  0  0  0  0  0  0
  -23.2064   -8.5423   22.3337 C   0  0  0  0  0  0  0  0  0  0  0  0
  -19.5689  -21.3604   17.1842 C   0  0  0  0  0  0  0  0  0  0  0  0
  -19.9949   -7.6000   22.8020 C   0  0  0  0  0  0  0  0  0  0  0  0
  -19.2156   -7.4504   23.9491 C   0  0  0  0  0  0  0  0  0  0  0  0
  -26.6655  -18.4609   17.7621 C   0  0  0  0  0  0  0  0  0  0  0  0
  -20.7546  -20.6334   19.1552 C   0  0  0  0  0  0  0  0  0  0  0  0
  -25.9792  -19.4319   15.2385 C   0  0  0  0  0  0  0  0  0  0  0  0
  -20.5057   -5.5050   24.5720 C   0  0  0  0  0  0  0  0  0  0  0  0
  -23.9155  -10.3977   20.9584 C   0  0  0  0  0  0  0  0  0  0  0  0
  -27.4913  -18.2040   16.6677 C   0  0  0  0  0  0  0  0  0  0  0  0
  -24.1749  -12.9345   21.0293 C   0  0  0  0  0  0  0  0  0  0  0  0
  -18.5880  -29.1035   21.7380 C   0  0  0  0  0  0  0  0  0  0  0  0
  -18.8895  -22.1609   19.3734 C   0  0  0  0  0  0  0  0  0  0  0  0
  -19.0683  -28.0477   20.9400 C   0  0  0  0  0  0  0  0  0  0  0  0
  -19.9051  -21.3990   19.9684 C   0  0  0  0  0  0  0  0  0  0  0  0
  -27.1482  -18.6895   15.4059 C   0  0  0  0  0  0  0  0  0  0  0  0
  -25.4965  -19.2032   17.5947 C   0  0  0  0  0  0  0  0  0  0  0  0
  -22.4957   -8.0147   21.2555 C   0  0  0  0  0  0  0  0  0  0  0  0
  -20.5881  -20.6158   17.7707 C   0  0  0  0  0  0  0  0  0  0  0  0
  -21.0296   -6.7019   22.5398 C   0  0  0  0  0  0  0  0  0  0  0  0
  -25.1534  -19.6888   16.3329 C   0  0  0  0  0  0  0  0  0  0  0  0
  -19.4710   -6.4030   24.8341 C   0  0  0  0  0  0  0  0  0  0  0  0
  -21.2850   -5.6545   23.4248 C   0  0  0  0  0  0  0  0  0  0  0  0
  -24.6494  -11.6282   20.8053 C   0  0  0  0  0  0  0  0  0  0  0  0
  -25.2487  -13.7430   20.7466 C   0  0  0  0  0  0  0  0  0  0  0  0
  -28.7281  -17.4072   16.8735 C   0  0  0  0  0  0  0  0  0  0  0  0
  -22.8794  -13.3775   21.4549 C   0  0  0  0  0  0  0  0  0  0  0  0
  -19.5645  -24.4286   21.4961 C   0  0  0  0  0  0  0  0  0  0  0  0
  -19.0163  -22.0489   23.6312 C   0  0  0  0  0  0  0  0  0  0  0  0
  -18.9108  -18.6984   24.2714 C   0  0  0  0  0  0  0  0  0  0  0  0
  -29.5628  -15.1889   17.5850 C   0  0  0  0  0  0  0  0  0  0  0  0
  -18.9012  -29.1907   23.2108 C   0  0  0  0  0  0  0  0  0  0  0  0
  -17.9488  -22.9717   20.2221 C   0  0  0  0  0  0  0  0  0  0  0  0
  -20.1161  -21.3854   21.4596 C   0  0  0  0  0  0  0  0  0  0  0  0
  -19.3738  -27.8696   23.8122 C   0  0  0  0  0  0  0  0  0  0  0  0
  -30.1132  -12.5963   19.9244 C   0  0  0  0  0  0  0  0  0  0  0  0
  -20.4282  -27.2234   22.9192 C   0  0  0  0  0  0  0  0  0  0  0  0
  -28.7026  -12.2236   20.3889 C   0  0  0  0  0  0  0  0  0  0  0  0
  -30.1491  -12.9350   18.4348 C   0  0  0  0  0  0  0  0  0  0  0  0
  -27.7718  -13.5718   18.4654 C   0  0  0  0  0  0  0  0  0  0  0  0
  -19.8548  -26.8994   21.5344 C   0  0  1  0  0  0  0  0  0  0  0  0
  -18.5354  -23.3371   21.5821 C   0  0  1  0  0  0  0  0  0  0  0  0
  -27.6698  -13.2904   19.9732 C   0  0  1  0  0  0  0  0  0  0  0  0
  -28.0139  -18.4272   14.2170 C   0  0  0  0  0  0  0  0  0  0  0  0
  -18.4679  -17.0589   26.1189 C   0  0  0  0  0  0  0  0  0  0  0  0
  -21.7545  -22.6630   24.8292 C   0  0  0  0  0  0  0  0  0  0  0  0
  -21.6637  -20.4491   25.9949 C   0  0  0  0  0  0  0  0  0  0  0  0
  -19.9612  -22.1983   26.5093 C   0  0  0  0  0  0  0  0  0  0  0  0
  -16.6357  -17.4922   22.8127 C   0  0  0  0  0  0  0  0  0  0  0  0
  -21.6660  -20.3354   15.6694 C   0  0  0  0  0  0  0  0  0  1  0  0
  -23.0516  -19.8941   15.2392 C   0  0  0  0  0  0  0  0  0  0  0  0
  -19.8642  -20.9886   24.2913 C   0  0  1  0  0  0  0  0  0  0  0  0
  -17.8669  -17.8365   24.9584 C   0  0  2  0  0  0  0  0  0  0  0  0
  -20.8084  -21.5763   25.3779 C   0  0  0  0  0  0  0  0  0  0  0  0
  -25.9252  -11.6036   20.4106 N   0  0  0  0  0  0  0  0  0  0  0  0
  -26.2615  -12.9045   20.3843 N   0  0  0  0  0  0  0  0  0  0  0  0
  -19.1745  -22.1992   22.2462 N   0  0  0  0  0  0  0  0  0  0  0  0
  -29.1492  -13.9586   18.1251 N   0  0  0  0  0  0  0  0  0  0  0  0
  -24.6697  -19.4563   18.7111 N   0  0  0  0  0  0  0  0  0  0  0  0
  -25.4158  -15.0823   20.7750 N   0  0  0  0  0  0  0  0  0  0  0  0
  -21.8918  -12.4143   21.7020 N   0  0  0  0  0  0  0  0  0  0  0  0
  -28.5374  -16.1152   17.3644 N   0  0  0  0  0  0  0  0  0  0  0  0
  -19.0411  -25.7040   21.5912 N   0  0  0  0  0  0  0  0  0  0  0  0
  -18.9385  -19.9764   24.7882 N   0  0  0  0  0  0  0  0  0  0  0  0
  -17.2820  -16.8633   23.9933 N   0  3  0  0  0  0  0  0  0  0  0  0
  -29.8127  -17.8980   16.5725 O   0  0  0  0  0  0  0  0  0  0  0  0
  -22.6009  -14.5925   21.5957 O   0  0  0  0  0  0  0  0  0  0  0  0
  -20.7459  -24.1354   21.3553 O   0  0  0  0  0  0  0  0  0  0  0  0
  -18.2370  -22.7142   24.3180 O   0  0  0  0  0  0  0  0  0  0  0  0
  -19.6322  -18.2787   23.3693 O   0  0  0  0  0  0  0  0  0  0  0  0
  -30.7467  -15.4543   17.3548 O   0  0  0  0  0  0  0  0  0  0  0  0
  -21.8030   -6.8522   21.4009 O   0  0  0  0  0  0  0  0  0  0  0  0
  -21.4183  -19.8673   16.9945 O   0  0  0  0  0  0  0  0  0  1  0  0
  -24.0102  -20.4211   16.1484 O   0  0  0  0  0  0  0  0  0  0  0  0
  -18.7235   -6.2604   25.9364 F   0  0  0  0  0  0  0  0  0  0  0  0
  -22.2784   -4.7893   23.1789 F   0  0  0  0  0  0  0  0  0  0  0  0
  1  2  1  0  0  0  0
  1  5  2  0  0  0  0
  2  6  2  0  0  0  0
  3  8  2  0  0  0  0
  3 17  1  0  0  0  0
  4  9  1  0  0  0  0
  4 17  2  0  0  0  0
  5 20  1  0  0  0  0
  6 22  1  0  0  0  0
  7 10  2  0  0  0  0
  7 21  1  0  0  0  0
  8 26  1  0  0  0  0
  9 26  2  0  0  0  0
 10 27  1  0  0  0  0
 11 12  2  0  0  0  0
 11 28  1  0  0  0  0
 12 30  1  0  0  0  0
 13 18  2  0  0  0  0
 13 25  1  0  0  0  0
 14 23  1  0  0  0  0
 14 27  2  0  0  0  0
 15 24  2  0  0  0  0
 15 29  1  0  0  0  0
 16 30  2  0  0  0  0
 16 31  1  0  0  0  0
 17 32  1  0  0  0  0
 18 24  1  0  0  0  0
 18 34  1  0  0  0  0
 19 32  1  0  0  0  0
 19 33  2  0  0  0  0
 19 35  1  0  0  0  0
 20 22  2  0  0  0  0
 20 40  1  0  0  0  0
 21 23  2  0  0  0  0
 21 41  1  0  0  0  0
 22 49  1  0  0  0  0
 23 42  1  0  0  0  0
 24 52  1  0  0  0  0
 25 29  2  0  0  0  0
 25 67  1  0  0  0  0
 26 80  1  0  0  0  0
 27 81  1  0  0  0  0
 28 31  2  0  0  0  0
 28 80  1  0  0  0  0
 29 82  1  0  0  0  0
 30 83  1  0  0  0  0
 31 84  1  0  0  0  0
 32 63  2  0  0  0  0
 33 64  1  0  0  0  0
 33 68  1  0  0  0  0
 34 70  1  0  0  0  0
 34 74  2  0  0  0  0
 35 69  1  0  0  0  0
 35 75  2  0  0  0  0
 36 50  1  0  0  0  0
 36 71  1  0  0  0  0
 36 76  2  0  0  0  0
 37 60  1  0  0  0  0
 37 65  1  0  0  0  0
 37 77  2  0  0  0  0
 38 61  1  0  0  0  0
 38 72  1  0  0  0  0
 38 78  2  0  0  0  0
 39 66  1  0  0  0  0
 39 70  1  0  0  0  0
 39 79  2  0  0  0  0
 40 43  1  0  0  0  0
 41 50  1  0  0  0  0
 42 65  1  0  0  0  0
 43 45  1  0  0  0  0
 44 46  1  0  0  0  0
 44 47  1  0  0  0  0
 45 49  1  0  0  0  0
 46 51  1  0  0  0  0
 47 66  1  0  0  0  0
 48 51  1  0  0  0  0
 48 66  1  0  0  0  0
 49 71  1  0  0  0  0
 50 65  1  0  0  0  0
 51 64  1  0  0  0  0
 53 61  1  0  0  0  0
 54 62  1  0  0  0  0
 55 62  1  0  0  0  0
 56 62  1  0  0  0  0
 57 73  1  0  0  0  0
 58 59  1  0  0  0  0
 58 81  1  0  0  0  0
 59 82  1  0  0  0  0
 60 62  1  0  0  0  0
 60 72  1  0  0  0  0
 61 73  1  0  0  0  0
 63 64  1  0  0  0  0
M  CHG  1  73   1
M  ISO  4  39 100  58 101  70 100  81 101
M  END
> <Batch ID>
0101

> <Smiles>
CNC(C)C(=O)NC(C(=O)N1Cc2cc([101O:1][101CH2:1]COc3cc(C)c(C(=O)[100NH:0][100C:0](=O)N4CCCC(n5nc(-c6ccc(Oc7ccc(F)cc7F)cc6)c(C(N)=O)c5N)C4)cc3N)ccc2CC1C(=O)NC1CCCc2ccccc21)C(C)(C)C

> <Shape>
0.181

> <Color>
0.170

> <Negative vol penalty>
0.000

$$$$

  -OEChem-04052301003D

 88 97  0     1  0  0  0  0  0999 V2000
  -19.0003  -33.6721   24.5853 C   0  0  0  0  0  0  0  0  0  0  0  0
  -20.3268  -33.6825   24.1662 C   0  0  0  0  0  0  0  0  0  0  0  0
  -24.5349   -8.8361   21.1429 C   0  0  0  0  0  0  0  0  0  0  0  0
  -22.7470  -10.4594   21.0712 C   0  0  0  0  0  0  0  0  0  0  0  0
  -18.3550  -32.4593   24.8233 C   0  0  0  0  0  0  0  0  0  0  0  0
  -21.0092  -32.4799   23.9859 C   0  0  0  0  0  0  0  0  0  0  0  0
  -26.0884  -29.5005   19.9065 C   0  0  0  0  0  0  0  0  0  0  0  0
  -29.0346  -21.1628   16.5792 C   0  0  0  0  0  0  0  0  0  0  0  0
  -28.5058  -19.8826   16.4143 C   0  0  0  0  0  0  0  0  0  0  0  0
  -23.6033   -7.8190   21.3507 C   0  0  0  0  0  0  0  0  0  0  0  0
  -21.8152   -9.4423   21.2789 C   0  0  0  0  0  0  0  0  0  0  0  0
  -27.2860  -28.7958   20.0208 C   0  0  0  0  0  0  0  0  0  0  0  0
  -21.7851   -6.5948   23.9236 C   0  0  0  0  0  0  0  0  0  0  0  0
  -22.0673   -5.6500   24.9102 C   0  0  0  0  0  0  0  0  0  0  0  0
  -26.0457  -26.7592   20.3858 C   0  0  0  0  0  0  0  0  0  0  0  0
  -27.1790  -20.1734   18.4124 C   0  0  0  0  0  0  0  0  0  0  0  0
  -22.0062   -3.8969   23.2488 C   0  0  0  0  0  0  0  0  0  0  0  0
  -24.1068  -10.1563   21.0032 C   0  0  0  0  0  0  0  0  0  0  0  0
  -26.1276  -11.5770   21.6401 C   0  0  0  0  0  0  0  0  0  0  0  0
  -19.0270  -31.2410   24.6365 C   0  0  0  0  0  0  0  0  0  0  0  0
  -24.8585  -28.8406   20.0420 C   0  0  0  0  0  0  0  0  0  0  0  0
  -20.3728  -31.2496   24.2229 C   0  0  0  0  0  0  0  0  0  0  0  0
  -24.8339  -27.4574   20.2702 C   0  0  0  0  0  0  0  0  0  0  0  0
  -28.6357  -21.9482   17.6607 C   0  0  0  0  0  0  0  0  0  0  0  0
  -27.5780  -19.3880   17.3309 C   0  0  0  0  0  0  0  0  0  0  0  0
  -22.2434   -8.1221   21.4187 C   0  0  0  0  0  0  0  0  0  0  0  0
  -27.2647  -27.4255   20.2634 C   0  0  0  0  0  0  0  0  0  0  0  0
  -21.6133   -6.1906   22.5996 C   0  0  0  0  0  0  0  0  0  0  0  0
  -22.1779   -4.3011   24.5728 C   0  0  0  0  0  0  0  0  0  0  0  0
  -27.7079  -21.4536   18.5773 C   0  0  0  0  0  0  0  0  0  0  0  0
  -21.7239   -4.8417   22.2623 C   0  0  0  0  0  0  0  0  0  0  0  0
  -25.0688  -11.2074   20.7891 C   0  0  0  0  0  0  0  0  0  0  0  0
  -26.7421  -12.6197   20.9907 C   0  0  0  0  0  0  0  0  0  0  0  0
  -30.1517  -25.8560   18.2484 C   0  0  0  0  0  0  0  0  0  0  0  0
  -26.5205  -11.0270   22.9045 C   0  0  0  0  0  0  0  0  0  0  0  0
  -22.4069  -29.0565   22.0536 C   0  0  0  0  0  0  0  0  0  0  0  0
  -21.0555  -26.9187   20.0224 C   0  0  0  0  0  0  0  0  0  0  0  0
  -22.1029  -23.9747   18.2187 C   0  0  0  0  0  0  0  0  0  0  0  0
  -26.6285  -17.2883   18.2695 C   0  0  0  0  0  0  0  0  0  0  0  0
  -18.3022  -29.9565   24.9518 C   0  0  0  0  0  0  0  0  0  0  0  0
  -23.5754  -29.6104   19.8894 C   0  0  0  0  0  0  0  0  0  0  0  0
  -23.5398  -26.6985   20.4035 C   0  0  0  0  0  0  0  0  0  0  0  0
  -29.4970  -25.5012   16.9337 C   0  0  0  0  0  0  0  0  0  0  0  0
  -18.9818  -28.7166   24.3764 C   0  0  0  0  0  0  0  0  0  0  0  0
  -26.1802  -14.3706   16.2872 C   0  0  0  0  0  0  0  0  0  0  0  0
  -20.4807  -28.7505   24.6572 C   0  0  0  0  0  0  0  0  0  0  0  0
  -25.9252  -13.3117   17.3592 C   0  0  0  0  0  0  0  0  0  0  0  0
  -29.5784  -24.0063   16.6500 C   0  0  0  0  0  0  0  0  0  0  0  0
  -25.5057  -15.7007   16.6245 C   0  0  0  0  0  0  0  0  0  0  0  0
  -29.8989  -23.5106   19.0685 C   0  0  0  0  0  0  0  0  0  0  0  0
  -25.5937  -15.1660   19.0392 C   0  0  0  0  0  0  0  0  0  0  0  0
  -21.1392  -29.9653   23.9922 C   0  0  1  0  0  0  0  0  0  0  0  0
  -29.7997  -24.9908   19.4445 C   0  0  2  0  0  0  0  0  0  0  0  0
  -22.3857  -28.9272   20.5568 C   0  0  1  0  0  0  0  0  0  0  0  0
  -26.3076  -13.8354   18.7548 C   0  0  1  0  0  0  0  0  0  0  0  0
  -25.3353  -18.1918   15.3708 C   0  0  0  0  0  0  0  0  0  0  0  0
  -21.2386  -22.9748   16.0854 C   0  0  0  0  0  0  0  0  0  0  0  0
  -19.3269  -25.2073   21.8645 C   0  0  0  0  0  0  0  0  0  0  0  0
  -19.7010  -23.2804   20.3104 C   0  0  0  0  0  0  0  0  0  0  0  0
  -18.5281  -25.3264   19.4976 C   0  0  0  0  0  0  0  0  0  0  0  0
  -24.7856  -24.0293   16.9702 C   0  0  0  0  0  0  0  0  0  0  0  0
  -28.4189  -25.3665   19.9732 C   0  0  0  0  0  0  0  0  0  1  0  0
  -26.6703  -17.6234   15.8075 C   0  0  0  0  0  0  0  0  0  0  0  0
  -21.0185  -25.4126   19.9248 C   0  0  1  0  0  0  0  0  0  0  0  0
  -22.3068  -23.8522   16.7194 C   0  0  2  0  0  0  0  0  0  0  0  0
  -19.6657  -24.8203   20.4111 C   0  0  0  0  0  0  0  0  0  0  0  0
  -25.0109  -11.9546   19.6835 N   0  0  0  0  0  0  0  0  0  0  0  0
  -26.0411  -12.8042   19.8354 N   0  0  0  0  0  0  0  0  0  0  0  0
  -29.1688  -23.2305   17.8242 N   0  0  2  0  0  0  0  0  0  0  0  0
  -22.3119  -27.4967   20.2528 N   0  0  0  0  0  0  0  0  0  0  0  0
  -25.8680  -16.1397   17.9796 N   0  0  0  0  0  0  0  0  0  0  0  0
  -27.8082  -13.3875   21.3009 N   0  0  0  0  0  0  0  0  0  0  0  0
  -25.9618  -11.5672   24.0708 N   0  0  0  0  0  0  0  0  0  0  0  0
  -21.3192  -29.7303   22.5755 N   0  0  0  0  0  0  0  0  0  0  0  0
  -21.3520  -25.0849   18.5429 N   0  0  0  0  0  0  0  0  0  0  0  0
  -27.0305  -18.0627   17.1600 N   0  0  0  0  0  0  0  0  0  0  0  0
  -23.6405  -23.2557   16.4251 N   0  3  0  0  0  0  0  0  0  0  0  0
  -30.8575  -26.8576   18.3644 O   0  0  0  0  0  0  0  0  0  0  0  0
  -27.3552  -10.0953   22.9982 O   0  0  0  0  0  0  0  0  0  0  0  0
  -23.3401  -28.5790   22.6882 O   0  0  0  0  0  0  0  0  0  0  0  0
  -20.0093  -27.5590   19.8918 O   0  0  0  0  0  0  0  0  0  0  0  0
  -22.5604  -23.1645   19.0216 O   0  0  0  0  0  0  0  0  0  0  0  0
  -26.9046  -17.6115   19.4310 O   0  0  0  0  0  0  0  0  0  0  0  0
  -21.3340   -7.1299   21.6212 O   0  0  0  0  0  0  0  0  0  0  0  0
  -28.4322  -26.7353   20.3761 O   0  0  0  0  0  0  0  0  0  1  0  0
  -22.4504   -3.3941   25.5201 F   0  0  0  0  0  0  0  0  0  0  0  0
  -27.3188  -22.1997   19.6209 F   0  0  0  0  0  0  0  0  0  0  0  0
  -21.5612   -4.4476   20.9918 F   0  0  0  0  0  0  0  0  0  0  0  0
  1  2  1  0  0  0  0
  1  5  2  0  0  0  0
  2  6  2  0  0  0  0
  3 10  2  0  0  0  0
  3 18  1  0  0  0  0
  4 11  1  0  0  0  0
  4 18  2  0  0  0  0
  5 20  1  0  0  0  0
  6 22  1  0  0  0  0
  7 12  2  0  0  0  0
  7 21  1  0  0  0  0
  8  9  2  0  0  0  0
  8 24  1  0  0  0  0
  9 25  1  0  0  0  0
 10 26  1  0  0  0  0
 11 26  2  0  0  0  0
 12 27  1  0  0  0  0
 13 14  2  0  0  0  0
 13 28  1  0  0  0  0
 14 29  1  0  0  0  0
 15 23  1  0  0  0  0
 15 27  2  0  0  0  0
 16 25  2  0  0  0  0
 16 30  1  0  0  0  0
 17 29  2  0  0  0  0
 17 31  1  0  0  0  0
 18 32  1  0  0  0  0
 19 32  1  0  0  0  0
 19 33  2  0  0  0  0
 19 35  1  0  0  0  0
 20 22  2  0  0  0  0
 20 40  1  0  0  0  0
 21 23  2  0  0  0  0
 21 41  1  0  0  0  0
 22 52  1  0  0  0  0
 23 42  1  0  0  0  0
 24 30  2  0  0  0  0
 24 69  1  0  0  0  0
 25 76  1  0  0  0  0
 26 84  1  0  0  0  0
 27 85  1  0  0  0  0
 28 31  2  0  0  0  0
 28 84  1  0  0  0  0
 29 86  1  0  0  0  0
 30 87  1  0  0  0  0
 31 88  1  0  0  0  0
 32 67  2  0  0  0  0
 33 68  1  0  0  0  0
 33 72  1  0  0  0  0
 34 43  1  0  0  0  0
 34 53  1  0  0  0  0
 34 78  2  0  0  0  0
 35 73  1  0  0  0  0
 35 79  2  0  0  0  0
 36 54  1  0  0  0  0
 36 74  1  0  0  0  0
 36 80  2  0  0  0  0
 37 64  1  0  0  0  0
 37 70  1  0  0  0  0
 37 81  2  0  0  0  0
 38 65  1  0  0  0  0
 38 75  1  0  0  0  0
 38 82  2  0  0  0  0
 39 71  1  0  0  0  0
 39 76  1  0  0  0  0
 39 83  2  0  0  0  0
 40 44  1  0  0  0  0
 41 54  1  0  0  0  0
 42 70  1  0  0  0  0
 43 48  1  0  0  0  0
 44 46  1  0  0  0  0
 45 47  1  0  0  0  0
 45 49  1  0  0  0  0
 46 52  1  0  0  0  0
 47 55  1  0  0  0  0
 48 69  1  0  0  0  0
 49 71  1  0  0  0  0
 50 53  1  0  0  0  0
 50 69  1  0  0  0  0
 51 55  1  0  0  0  0
 51 71  1  0  0  0  0
 52 74  1  0  0  0  0
 53 62  1  0  0  0  0
 54 70  1  0  0  0  0
 55 68  1  0  0  0  0
 56 63  1  0  0  0  0
 57 65  1  0  0  0  0
 58 66  1  0  0  0  0
 59 66  1  0  0  0  0
 60 66  1  0  0  0  0
 61 77  1  0  0  0  0
 62 85  1  0  0  0  0
 63 76  1  0  0  0  0
 64 66  1  0  0  0  0
 64 75  1  0  0  0  0
 65 77  1  0  0  0  0
 67 68  1  0  0  0  0
M  CHG  1  77   1
M  ISO  4  39 100  62 101  76 100  85 101
M  END
> <Batch ID>
0101

> <Smiles>
CC[100N:0](c1ccc(N2CCC(=O)C([101CH2:1][101O:1]c3ccc4c(c3)CN(C(=O)C(NC(=O)C(C)NC)C(C)(C)C)C(C(=O)NC3CCCc5ccccc53)C4)C2)c(F)c1)[100C:0](=O)N1CCCC(n2nc(-c3ccc(Oc4ccc(F)cc4F)cc3)c(C(N)=O)c2N)C1

> <Shape>
0.260

> <Color>
0.141

> <Negative vol penalty>
0.000

$$$$

  -OEChem-04052301003D

 86 95  0     1  0  0  0  0  0999 V2000
  -20.3449  -27.3231   13.0424 C   0  0  0  0  0  0  0  0  0  0  0  0
  -21.3113  -26.6435   13.7769 C   0  0  0  0  0  0  0  0  0  0  0  0
  -23.0714   -9.8709   19.9429 C   0  0  0  0  0  0  0  0  0  0  0  0
  -23.8342   -9.8781   22.2354 C   0  0  0  0  0  0  0  0  0  0  0  0
  -19.0010  -26.9744   13.1698 C   0  0  0  0  0  0  0  0  0  0  0  0
  -20.9341  -25.6154   14.6402 C   0  0  0  0  0  0  0  0  0  0  0  0
  -23.9207  -21.5457   14.2365 C   0  0  0  0  0  0  0  0  0  0  0  0
  -29.8858  -18.3019   20.0517 C   0  0  0  0  0  0  0  0  0  0  0  0
  -29.2157  -19.4392   19.6012 C   0  0  0  0  0  0  0  0  0  0  0  0
  -22.3275   -8.7180   20.1941 C   0  0  0  0  0  0  0  0  0  0  0  0
  -23.0902   -8.7253   22.4866 C   0  0  0  0  0  0  0  0  0  0  0  0
  -25.1653  -21.6047   14.8621 C   0  0  0  0  0  0  0  0  0  0  0  0
  -19.3808   -7.9228   21.6493 C   0  0  0  0  0  0  0  0  0  0  0  0
  -18.0733   -7.8769   21.1656 C   0  0  0  0  0  0  0  0  0  0  0  0
  -24.2912  -20.3216   16.7084 C   0  0  0  0  0  0  0  0  0  0  0  0
  -28.9602  -20.1924   21.8825 C   0  0  0  0  0  0  0  0  0  0  0  0
  -18.6307   -5.9333   19.8432 C   0  0  0  0  0  0  0  0  0  0  0  0
  -23.8248  -10.4509   20.9635 C   0  0  0  0  0  0  0  0  0  0  0  0
  -24.1674  -12.9759   20.8425 C   0  0  0  0  0  0  0  0  0  0  0  0
  -18.6081  -25.9351   14.0278 C   0  0  0  0  0  0  0  0  0  0  0  0
  -22.8473  -20.8825   14.8482 C   0  0  0  0  0  0  0  0  0  0  0  0
  -19.5835  -25.2534   14.7802 C   0  0  0  0  0  0  0  0  0  0  0  0
  -23.0348  -20.2535   16.0873 C   0  0  0  0  0  0  0  0  0  0  0  0
  -30.0930  -18.1097   21.4177 C   0  0  0  0  0  0  0  0  0  0  0  0
  -28.7529  -20.3845   20.5165 C   0  0  0  0  0  0  0  0  0  0  0  0
  -22.3368   -8.1453   21.4659 C   0  0  0  0  0  0  0  0  0  0  0  0
  -25.3499  -20.9951   16.0996 C   0  0  0  0  0  0  0  0  0  0  0  0
  -20.3133   -6.9740   21.2298 C   0  0  0  0  0  0  0  0  0  0  0  0
  -17.6982   -6.8821   20.2626 C   0  0  0  0  0  0  0  0  0  0  0  0
  -29.6302  -19.0550   22.3331 C   0  0  0  0  0  0  0  0  0  0  0  0
  -19.9382   -5.9793   20.3268 C   0  0  0  0  0  0  0  0  0  0  0  0
  -24.5940  -11.6414   20.7045 C   0  0  0  0  0  0  0  0  0  0  0  0
  -25.2593  -13.7249   20.4776 C   0  0  0  0  0  0  0  0  0  0  0  0
  -27.5422  -22.5856   20.8602 C   0  0  0  0  0  0  0  0  0  0  0  0
  -22.8976  -13.4923   21.2628 C   0  0  0  0  0  0  0  0  0  0  0  0
  -19.9789  -21.7556   15.9037 C   0  0  0  0  0  0  0  0  0  0  0  0
  -19.6141  -18.5678   16.3800 C   0  0  0  0  0  0  0  0  0  0  0  0
  -21.0793  -15.5293   16.8972 C   0  0  0  0  0  0  0  0  0  0  0  0
  -30.7436  -14.7421   20.6589 C   0  0  0  0  0  0  0  0  0  0  0  0
  -17.1387  -25.6256   14.1678 C   0  0  0  0  0  0  0  0  0  0  0  0
  -21.5184  -20.8049   14.1480 C   0  0  0  0  0  0  0  0  0  0  0  0
  -21.9201  -19.5114   16.7767 C   0  0  0  0  0  0  0  0  0  0  0  0
  -26.9213  -23.6107   19.9409 C   0  0  0  0  0  0  0  0  0  0  0  0
  -16.8604  -24.2749   14.8222 C   0  0  0  0  0  0  0  0  0  0  0  0
  -27.5533  -23.3075   18.5957 C   0  0  0  0  0  0  0  0  0  0  0  0
  -29.6023  -12.3574   18.2741 C   0  0  0  0  0  0  0  0  0  0  0  0
  -17.7253  -24.0959   16.0658 C   0  0  0  0  0  0  0  0  0  0  0  0
  -28.1652  -12.0643   18.7089 C   0  0  0  0  0  0  0  0  0  0  0  0
  -30.5210  -12.5782   19.4738 C   0  0  0  0  0  0  0  0  0  0  0  0
  -28.6212  -13.3103   20.8626 C   0  0  0  0  0  0  0  0  0  0  0  0
  -19.2164  -24.1159   15.7084 C   0  0  1  0  0  0  0  0  0  0  0  0
  -20.3556  -20.5430   15.1002 C   0  0  1  0  0  0  0  0  0  0  0  0
  -27.6455  -13.1357   19.6862 C   0  0  2  0  0  0  0  0  0  0  0  0
  -27.7960  -21.8030   18.6407 C   0  0  2  0  0  0  0  0  0  0  0  0
  -20.5211  -13.1141   17.2880 C   0  0  0  0  0  0  0  0  0  0  0  0
  -18.8552  -19.2125   19.2642 C   0  0  0  0  0  0  0  0  0  0  0  0
  -19.2393  -16.8041   19.8302 C   0  0  0  0  0  0  0  0  0  0  0  0
  -17.4648  -17.4310   18.1929 C   0  0  0  0  0  0  0  0  0  0  0  0
  -22.4842  -14.6856   14.4327 C   0  0  0  0  0  0  0  0  0  0  0  0
  -30.8118  -16.8930   21.8952 C   0  0  0  0  0  0  0  0  0  0  0  0
  -26.5718  -21.0335   18.1395 C   0  0  0  0  0  0  0  0  0  1  0  0
  -19.8945  -17.6181   17.5196 C   0  0  1  0  0  0  0  0  0  0  0  0
  -20.8477  -14.1760   16.2495 C   0  0  2  0  0  0  0  0  0  0  0  0
  -18.8841  -17.7820   18.6899 C   0  0  0  0  0  0  0  0  0  0  0  0
  -25.8583  -11.5451   20.2847 N   0  0  0  0  0  0  0  0  0  0  0  0
  -26.2355  -12.8285   20.1556 N   0  0  0  0  0  0  0  0  0  0  0  0
  -28.0632  -21.5512   20.0541 N   0  0  0  0  0  0  0  0  0  0  0  0
  -20.6377  -19.4691   16.0548 N   0  0  0  0  0  0  0  0  0  0  0  0
  -29.9719  -13.6072   20.3602 N   0  0  0  0  0  0  0  0  0  0  0  0
  -25.4701  -15.0563   20.4040 N   0  0  0  0  0  0  0  0  0  0  0  0
  -21.8858  -12.5835   21.6016 N   0  0  0  0  0  0  0  0  0  0  0  0
  -19.6165  -22.8474   15.1381 N   0  0  0  0  0  0  0  0  0  0  0  0
  -19.9237  -16.2803   16.9382 N   0  0  0  0  0  0  0  0  0  0  0  0
  -30.1459  -15.6714   21.5014 N   0  0  0  0  0  0  0  0  0  0  0  0
  -22.0627  -13.7446   15.5022 N   0  3  0  0  0  0  0  0  0  0  0  0
  -27.5198  -22.7046   22.0767 O   0  0  0  0  0  0  0  0  0  0  0  0
  -22.6618  -14.7230   21.3202 O   0  0  0  0  0  0  0  0  0  0  0  0
  -20.0131  -21.7040   17.1275 O   0  0  0  0  0  0  0  0  0  0  0  0
  -18.5297  -18.5072   15.7953 O   0  0  0  0  0  0  0  0  0  0  0  0
  -22.1749  -15.8831   17.3272 O   0  0  0  0  0  0  0  0  0  0  0  0
  -31.8791  -14.9171   20.2038 O   0  0  0  0  0  0  0  0  0  0  0  0
  -21.6108   -7.0205   21.7114 O   0  0  0  0  0  0  0  0  0  0  0  0
  -26.5635  -21.0517   16.7127 O   0  0  0  0  0  0  0  0  0  1  0  0
  -16.4421   -6.8372   19.7995 F   0  0  0  0  0  0  0  0  0  0  0  0
  -29.8246  -18.8791   23.6475 F   0  0  0  0  0  0  0  0  0  0  0  0
  -20.8293   -5.0643   19.9211 F   0  0  0  0  0  0  0  0  0  0  0  0
  1  2  1  0  0  0  0
  1  5  2  0  0  0  0
  2  6  2  0  0  0  0
  3 10  2  0  0  0  0
  3 18  1  0  0  0  0
  4 11  1  0  0  0  0
  4 18  2  0  0  0  0
  5 20  1  0  0  0  0
  6 22  1  0  0  0  0
  7 12  2  0  0  0  0
  7 21  1  0  0  0  0
  8  9  2  0  0  0  0
  8 24  1  0  0  0  0
  9 25  1  0  0  0  0
 10 26  1  0  0  0  0
 11 26  2  0  0  0  0
 12 27  1  0  0  0  0
 13 14  2  0  0  0  0
 13 28  1  0  0  0  0
 14 29  1  0  0  0  0
 15 23  1  0  0  0  0
 15 27  2  0  0  0  0
 16 25  2  0  0  0  0
 16 30  1  0  0  0  0
 17 29  2  0  0  0  0
 17 31  1  0  0  0  0
 18 32  1  0  0  0  0
 19 32  1  0  0  0  0
 19 33  2  0  0  0  0
 19 35  1  0  0  0  0
 20 22  2  0  0  0  0
 20 40  1  0  0  0  0
 21 23  2  0  0  0  0
 21 41  1  0  0  0  0
 22 51  1  0  0  0  0
 23 42  1  0  0  0  0
 24 30  2  0  0  0  0
 24 60  1  0  0  0  0
 25 67  1  0  0  0  0
 26 82  1  0  0  0  0
 27 83  1  0  0  0  0
 28 31  2  0  0  0  0
 28 82  1  0  0  0  0
 29 84  1  0  0  0  0
 30 85  1  0  0  0  0
 31 86  1  0  0  0  0
 32 65  2  0  0  0  0
 33 66  1  0  0  0  0
 33 70  1  0  0  0  0
 34 43  1  0  0  0  0
 34 67  1  0  0  0  0
 34 76  2  0  0  0  0
 35 71  1  0  0  0  0
 35 77  2  0  0  0  0
 36 52  1  0  0  0  0
 36 72  1  0  0  0  0
 36 78  2  0  0  0  0
 37 62  1  0  0  0  0
 37 68  1  0  0  0  0
 37 79  2  0  0  0  0
 38 63  1  0  0  0  0
 38 73  1  0  0  0  0
 38 80  2  0  0  0  0
 39 69  1  0  0  0  0
 39 74  1  0  0  0  0
 39 81  2  0  0  0  0
 40 44  1  0  0  0  0
 41 52  1  0  0  0  0
 42 68  1  0  0  0  0
 43 45  1  0  0  0  0
 44 47  1  0  0  0  0
 45 54  1  0  0  0  0
 46 48  1  0  0  0  0
 46 49  1  0  0  0  0
 47 51  1  0  0  0  0
 48 53  1  0  0  0  0
 49 69  1  0  0  0  0
 50 53  1  0  0  0  0
 50 69  1  0  0  0  0
 51 72  1  0  0  0  0
 52 68  1  0  0  0  0
 53 66  1  0  0  0  0
 54 61  1  0  0  0  0
 54 67  1  0  0  0  0
 55 63  1  0  0  0  0
 56 64  1  0  0  0  0
 57 64  1  0  0  0  0
 58 64  1  0  0  0  0
 59 75  1  0  0  0  0
 60 74  1  0  0  0  0
 61 83  1  0  0  0  0
 62 64  1  0  0  0  0
 62 73  1  0  0  0  0
 63 75  1  0  0  0  0
 65 66  1  0  0  0  0
M  CHG  1  75   1
M  ISO  4  39 100  61 101  74 100  83 101
M  END
> <Batch ID>
0101

> <Smiles>
CNC(C)C(=O)NC(C(=O)N1Cc2cc([101O:1][101CH2:1]C3CCC(=O)N3c3ccc(C[100NH:0][100C:0](=O)N4CCCC(n5nc(-c6ccc(Oc7ccc(F)cc7F)cc6)c(C(N)=O)c5N)C4)c(F)c3)ccc2CC1C(=O)NC1CCCc2ccccc21)C(C)(C)C

> <Shape>
0.188

> <Color>
0.191

> <Negative vol penalty>
0.000

$$$$

  -OEChem-04052301003D

 85 94  0     1  0  0  0  0  0999 V2000
  -29.9517  -35.2155   24.7302 C   0  0  0  0  0  0  0  0  0  0  0  0
  -29.8367  -34.2653   23.7206 C   0  0  0  0  0  0  0  0  0  0  0  0
  -23.2911  -10.3003   22.2621 C   0  0  0  0  0  0  0  0  0  0  0  0
  -23.5560   -9.5891   19.9684 C   0  0  0  0  0  0  0  0  0  0  0  0
  -30.7988  -34.9818   25.8126 C   0  0  0  0  0  0  0  0  0  0  0  0
  -30.5696  -33.0811   23.7924 C   0  0  0  0  0  0  0  0  0  0  0  0
  -31.4650  -19.3221   19.0952 C   0  0  0  0  0  0  0  0  0  0  0  0
  -29.2615  -19.6289   20.0374 C   0  0  0  0  0  0  0  0  0  0  0  0
  -28.8143  -27.5420   21.8577 C   0  0  0  0  0  0  0  0  0  0  0  0
  -31.6986  -18.2723   19.9834 C   0  0  0  0  0  0  0  0  0  0  0  0
  -29.4951  -18.5791   20.9256 C   0  0  0  0  0  0  0  0  0  0  0  0
  -22.5172   -9.1697   22.5233 C   0  0  0  0  0  0  0  0  0  0  0  0
  -22.7822   -8.4583   20.2297 C   0  0  0  0  0  0  0  0  0  0  0  0
  -29.0819  -26.8278   20.6906 C   0  0  0  0  0  0  0  0  0  0  0  0
  -19.3361   -8.1539   22.0005 C   0  0  0  0  0  0  0  0  0  0  0  0
  -18.1601   -8.3288   22.7299 C   0  0  0  0  0  0  0  0  0  0  0  0
  -30.8706  -25.6668   21.8183 C   0  0  0  0  0  0  0  0  0  0  0  0
  -18.9931   -6.8300   24.4320 C   0  0  0  0  0  0  0  0  0  0  0  0
  -23.8105  -10.5101   20.9846 C   0  0  0  0  0  0  0  0  0  0  0  0
  -24.2178  -13.0243   20.8416 C   0  0  0  0  0  0  0  0  0  0  0  0
  -30.2465  -20.0004   19.1222 C   0  0  0  0  0  0  0  0  0  0  0  0
  -31.5351  -33.7900   25.9026 C   0  0  0  0  0  0  0  0  0  0  0  0
  -29.5813  -27.3315   23.0127 C   0  0  0  0  0  0  0  0  0  0  0  0
  -31.4283  -32.8319   24.8764 C   0  0  0  0  0  0  0  0  0  0  0  0
  -30.6091  -26.3778   22.9995 C   0  0  0  0  0  0  0  0  0  0  0  0
  -30.7137  -17.9008   20.8986 C   0  0  0  0  0  0  0  0  0  0  0  0
  -22.2628   -8.2486   21.5072 C   0  0  0  0  0  0  0  0  0  0  0  0
  -30.1120  -25.8921   20.6700 C   0  0  0  0  0  0  0  0  0  0  0  0
  -20.3406   -7.3170   22.4868 C   0  0  0  0  0  0  0  0  0  0  0  0
  -17.9886   -7.6669   23.9457 C   0  0  0  0  0  0  0  0  0  0  0  0
  -20.1691   -6.6552   23.7025 C   0  0  0  0  0  0  0  0  0  0  0  0
  -24.6095  -11.6782   20.7139 C   0  0  0  0  0  0  0  0  0  0  0  0
  -25.3278  -13.7418   20.4681 C   0  0  0  0  0  0  0  0  0  0  0  0
  -22.9628  -13.5768   21.2605 C   0  0  0  0  0  0  0  0  0  0  0  0
  -31.4954  -29.1384   24.7945 C   0  0  0  0  0  0  0  0  0  0  0  0
  -31.5464  -26.5174   26.7050 C   0  0  0  0  0  0  0  0  0  0  0  0
  -31.7604  -22.9426   26.2661 C   0  0  0  0  0  0  0  0  0  0  0  0
  -30.8370  -14.6184   20.6288 C   0  0  0  0  0  0  0  0  0  0  0  0
  -32.4737  -33.6028   27.0682 C   0  0  0  0  0  0  0  0  0  0  0  0
  -29.2627  -28.0908   24.2714 C   0  0  0  0  0  0  0  0  0  0  0  0
  -31.4486  -26.0999   24.2187 C   0  0  0  0  0  0  0  0  0  0  0  0
  -32.9305  -32.1585   27.2565 C   0  0  0  0  0  0  0  0  0  0  0  0
  -28.5804  -21.9892   16.2312 C   0  0  0  0  0  0  0  0  0  0  0  0
  -29.6287  -12.2443   18.2666 C   0  0  0  0  0  0  0  0  0  0  0  0
  -28.8211  -20.8384   17.2056 C   0  0  0  0  0  0  0  0  0  0  0  0
  -33.3578  -31.5554   25.9222 C   0  0  0  0  0  0  0  0  0  0  0  0
  -28.3668  -23.3118   16.9631 C   0  0  0  0  0  0  0  0  0  0  0  0
  -28.1856  -11.9920   18.7070 C   0  0  0  0  0  0  0  0  0  0  0  0
  -29.7711  -22.4768   18.8928 C   0  0  0  0  0  0  0  0  0  0  0  0
  -30.5557  -12.4512   19.4623 C   0  0  0  0  0  0  0  0  0  0  0  0
  -28.6788  -13.2437   20.8491 C   0  0  0  0  0  0  0  0  0  0  0  0
  -29.9914  -21.1431   18.1559 C   0  0  1  0  0  0  0  0  0  0  0  0
  -32.1881  -31.5243   24.9310 C   0  0  1  0  0  0  0  0  0  0  0  0
  -30.4402  -28.1652   25.2385 C   0  0  1  0  0  0  0  0  0  0  0  0
  -29.5332  -23.6313   17.9075 C   0  0  2  0  0  0  0  0  0  0  0  0
  -27.6961  -13.0846   19.6764 C   0  0  2  0  0  0  0  0  0  0  0  0
  -30.9328  -21.0685   27.7153 C   0  0  0  0  0  0  0  0  0  0  0  0
  -34.3622  -26.5683   27.8791 C   0  0  0  0  0  0  0  0  0  0  0  0
  -34.2836  -24.0686   27.9957 C   0  0  0  0  0  0  0  0  0  0  0  0
  -32.6562  -25.4285   29.3091 C   0  0  0  0  0  0  0  0  0  0  0  0
  -30.2123  -21.7519   24.0424 C   0  0  0  0  0  0  0  0  0  0  0  0
  -30.9636  -16.7770   21.8468 C   0  0  0  0  0  0  0  0  0  0  0  0
  -29.2769  -24.9370   18.6584 C   0  0  0  0  0  0  0  0  0  1  0  0
  -32.4042  -25.2786   26.7979 C   0  0  1  0  0  0  0  0  0  0  0  0
  -30.6518  -21.9310   26.4946 C   0  0  2  0  0  0  0  0  0  0  0  0
  -33.4225  -25.3495   27.9707 C   0  0  0  0  0  0  0  0  0  0  0  0
  -25.8699  -11.5457   20.2921 N   0  0  0  0  0  0  0  0  0  0  0  0
  -26.2797  -12.8178   20.1514 N   0  0  0  0  0  0  0  0  0  0  0  0
  -31.1024  -26.8723   25.4233 N   0  0  0  0  0  0  0  0  0  0  0  0
  -30.0354  -13.5013   20.3413 N   0  0  0  0  0  0  0  0  0  0  0  0
  -25.5727  -15.0666   20.3829 N   0  0  0  0  0  0  0  0  0  0  0  0
  -21.9287  -12.6973   21.6090 N   0  0  0  0  0  0  0  0  0  0  0  0
  -31.2924  -30.4305   25.2405 N   0  0  0  0  0  0  0  0  0  0  0  0
  -31.4837  -24.1493   26.8732 N   0  0  0  0  0  0  0  0  0  0  0  0
  -30.2654  -15.5698   21.4648 N   0  0  0  0  0  0  0  0  0  0  0  0
  -30.5134  -21.0377   25.3098 N   0  3  0  0  0  0  0  0  0  0  0  0
  -22.7590  -14.8136   21.3080 O   0  0  0  0  0  0  0  0  0  0  0  0
  -32.4256  -28.7458   24.1001 O   0  0  0  0  0  0  0  0  0  0  0  0
  -31.2741  -27.1429   27.7328 O   0  0  0  0  0  0  0  0  0  0  0  0
  -32.7723  -22.6867   25.6173 O   0  0  0  0  0  0  0  0  0  0  0  0
  -31.9755  -14.7602   20.1697 O   0  0  0  0  0  0  0  0  0  0  0  0
  -21.5078   -7.1451   21.7618 O   0  0  0  0  0  0  0  0  0  0  0  0
  -30.3757  -25.1941   19.5319 O   0  0  0  0  0  0  0  0  0  1  0  0
  -16.8599   -7.8361   24.6468 F   0  0  0  0  0  0  0  0  0  0  0  0
  -21.1310   -5.8509   24.1754 F   0  0  0  0  0  0  0  0  0  0  0  0
  1  2  1  0  0  0  0
  1  5  2  0  0  0  0
  2  6  2  0  0  0  0
  3 12  2  0  0  0  0
  3 19  1  0  0  0  0
  4 13  1  0  0  0  0
  4 19  2  0  0  0  0
  5 22  1  0  0  0  0
  6 24  1  0  0  0  0
  7 10  2  0  0  0  0
  7 21  1  0  0  0  0
  8 11  1  0  0  0  0
  8 21  2  0  0  0  0
  9 14  2  0  0  0  0
  9 23  1  0  0  0  0
 10 26  1  0  0  0  0
 11 26  2  0  0  0  0
 12 27  1  0  0  0  0
 13 27  2  0  0  0  0
 14 28  1  0  0  0  0
 15 16  2  0  0  0  0
 15 29  1  0  0  0  0
 16 30  1  0  0  0  0
 17 25  1  0  0  0  0
 17 28  2  0  0  0  0
 18 30  2  0  0  0  0
 18 31  1  0  0  0  0
 19 32  1  0  0  0  0
 20 32  1  0  0  0  0
 20 33  2  0  0  0  0
 20 34  1  0  0  0  0
 21 52  1  0  0  0  0
 22 24  2  0  0  0  0
 22 39  1  0  0  0  0
 23 25  2  0  0  0  0
 23 40  1  0  0  0  0
 24 53  1  0  0  0  0
 25 41  1  0  0  0  0
 26 62  1  0  0  0  0
 27 82  1  0  0  0  0
 28 83  1  0  0  0  0
 29 31  2  0  0  0  0
 29 82  1  0  0  0  0
 30 84  1  0  0  0  0
 31 85  1  0  0  0  0
 32 67  2  0  0  0  0
 33 68  1  0  0  0  0
 33 71  1  0  0  0  0
 34 72  1  0  0  0  0
 34 77  2  0  0  0  0
 35 54  1  0  0  0  0
 35 73  1  0  0  0  0
 35 78  2  0  0  0  0
 36 64  1  0  0  0  0
 36 69  1  0  0  0  0
 36 79  2  0  0  0  0
 37 65  1  0  0  0  0
 37 74  1  0  0  0  0
 37 80  2  0  0  0  0
 38 70  1  0  0  0  0
 38 75  1  0  0  0  0
 38 81  2  0  0  0  0
 39 42  1  0  0  0  0
 40 54  1  0  0  0  0
 41 69  1  0  0  0  0
 42 46  1  0  0  0  0
 43 45  1  0  0  0  0
 43 47  1  0  0  0  0
 44 48  1  0  0  0  0
 44 50  1  0  0  0  0
 45 52  1  0  0  0  0
 46 53  1  0  0  0  0
 47 55  1  0  0  0  0
 48 56  1  0  0  0  0
 49 52  1  0  0  0  0
 49 55  1  0  0  0  0
 50 70  1  0  0  0  0
 51 56  1  0  0  0  0
 51 70  1  0  0  0  0
 53 73  1  0  0  0  0
 54 69  1  0  0  0  0
 55 63  1  0  0  0  0
 56 68  1  0  0  0  0
 57 65  1  0  0  0  0
 58 66  1  0  0  0  0
 59 66  1  0  0  0  0
 60 66  1  0  0  0  0
 61 76  1  0  0  0  0
 62 75  1  0  0  0  0
 63 83  1  0  0  0  0
 64 66  1  0  0  0  0
 64 74  1  0  0  0  0
 65 76  1  0  0  0  0
 67 68  1  0  0  0  0
M  CHG  1  76   1
M  ISO  4  38 100  63 101  75 100  83 101
M  END
> <Batch ID>
0101

> <Smiles>
CNC(C)C(=O)NC(C(=O)N1Cc2cc([101O:1][101CH2:1]C3CCCC(c4ccc(C[100NH:0][100C:0](=O)N5CCCC(n6nc(-c7ccc(Oc8ccc(F)cc8F)cc7)c(C(N)=O)c6N)C5)cc4)C3)ccc2CC1C(=O)NC1CCCc2ccccc21)C(C)(C)C

> <Shape>
0.222

> <Color>
0.215

> <Negative vol penalty>
0.000

$$$$

  -OEChem-04052301003D

 85 94  0     1  0  0  0  0  0999 V2000
  -25.9573  -37.9976   22.7515 C   0  0  0  0  0  0  0  0  0  0  0  0
  -26.6976  -37.0944   21.9954 C   0  0  0  0  0  0  0  0  0  0  0  0
  -23.8243  -12.4893   19.7670 C   0  0  0  0  0  0  0  0  0  0  0  0
  -24.8777  -13.6634   21.5970 C   0  0  0  0  0  0  0  0  0  0  0  0
  -26.8433  -20.8798   18.5837 C   0  0  0  0  0  0  0  0  0  0  0  0
  -27.5804  -19.5892   20.4885 C   0  0  0  0  0  0  0  0  0  0  0  0
  -25.1783  -37.5415   23.8141 C   0  0  0  0  0  0  0  0  0  0  0  0
  -26.6602  -35.7347   22.3022 C   0  0  0  0  0  0  0  0  0  0  0  0
  -26.9844  -29.2959   19.1792 C   0  0  0  0  0  0  0  0  0  0  0  0
  -25.5205  -20.5372   18.8634 C   0  0  0  0  0  0  0  0  0  0  0  0
  -26.2575  -19.2466   20.7683 C   0  0  0  0  0  0  0  0  0  0  0  0
  -25.0656  -11.9902   19.3726 C   0  0  0  0  0  0  0  0  0  0  0  0
  -26.1191  -13.1643   21.2026 C   0  0  0  0  0  0  0  0  0  0  0  0
  -27.6752  -28.0883   19.2701 C   0  0  0  0  0  0  0  0  0  0  0  0
  -28.4408  -13.8429   18.8404 C   0  0  0  0  0  0  0  0  0  0  0  0
  -29.5147  -14.7322   18.8030 C   0  0  0  0  0  0  0  0  0  0  0  0
  -26.2319  -27.4058   21.0785 C   0  0  0  0  0  0  0  0  0  0  0  0
  -30.6894  -13.3820   20.4260 C   0  0  0  0  0  0  0  0  0  0  0  0
  -23.7303  -13.3259   20.8792 C   0  0  0  0  0  0  0  0  0  0  0  0
  -27.8733  -20.4058   19.3962 C   0  0  0  0  0  0  0  0  0  0  0  0
  -21.3170  -13.0996   21.6742 C   0  0  0  0  0  0  0  0  0  0  0  0
  -25.1237  -36.1744   24.1280 C   0  0  0  0  0  0  0  0  0  0  0  0
  -25.9173  -29.5725   20.0460 C   0  0  0  0  0  0  0  0  0  0  0  0
  -25.8808  -35.2601   23.3709 C   0  0  0  0  0  0  0  0  0  0  0  0
  -25.5276  -28.6166   20.9949 C   0  0  0  0  0  0  0  0  0  0  0  0
  -25.2275  -19.7206   19.9557 C   0  0  0  0  0  0  0  0  0  0  0  0
  -26.2130  -12.3277   20.0904 C   0  0  0  0  0  0  0  0  0  0  0  0
  -27.3009  -27.1442   20.2217 C   0  0  0  0  0  0  0  0  0  0  0  0
  -28.4911  -12.7231   19.6706 C   0  0  0  0  0  0  0  0  0  0  0  0
  -30.6390  -14.5018   19.5958 C   0  0  0  0  0  0  0  0  0  0  0  0
  -29.6154  -12.4926   20.4634 C   0  0  0  0  0  0  0  0  0  0  0  0
  -22.4484  -13.8423   21.2868 C   0  0  0  0  0  0  0  0  0  0  0  0
  -20.3664  -14.0478   21.9635 C   0  0  0  0  0  0  0  0  0  0  0  0
  -29.2689  -20.7670   19.1011 C   0  0  0  0  0  0  0  0  0  0  0  0
  -21.1410  -11.6795   21.7645 C   0  0  0  0  0  0  0  0  0  0  0  0
  -25.3415  -31.7767   22.2627 C   0  0  0  0  0  0  0  0  0  0  0  0
  -22.4100  -30.3893   22.3240 C   0  0  0  0  0  0  0  0  0  0  0  0
  -20.5009  -27.6231   21.7319 C   0  0  0  0  0  0  0  0  0  0  0  0
  -23.4071  -18.5730   21.2817 C   0  0  0  0  0  0  0  0  0  0  0  0
  -24.3045  -35.7343   25.3154 C   0  0  0  0  0  0  0  0  0  0  0  0
  -25.1653  -30.8688   19.9173 C   0  0  0  0  0  0  0  0  0  0  0  0
  -24.3760  -28.8565   21.9355 C   0  0  0  0  0  0  0  0  0  0  0  0
  -24.0255  -34.2337   25.3405 C   0  0  0  0  0  0  0  0  0  0  0  0
  -19.6433  -18.5750   20.4447 C   0  0  0  0  0  0  0  0  0  0  0  0
  -25.3014  -33.4487   25.0528 C   0  0  0  0  0  0  0  0  0  0  0  0
  -19.5748  -17.0667   20.6478 C   0  0  0  0  0  0  0  0  0  0  0  0
  -30.8469  -24.0807   18.7383 C   0  0  0  0  0  0  0  0  0  0  0  0
  -21.0950  -19.0244   20.3030 C   0  0  0  0  0  0  0  0  0  0  0  0
  -30.9544  -22.5670   18.8393 C   0  0  0  0  0  0  0  0  0  0  0  0
  -28.7225  -23.2381   19.4350 C   0  0  0  0  0  0  0  0  0  0  0  0
  -21.3669  -17.6816   22.3899 C   0  0  0  0  0  0  0  0  0  0  0  0
  -25.8467  -33.7745   23.6571 C   0  0  1  0  0  0  0  0  0  0  0  0
  -24.4234  -31.2582   21.1922 C   0  0  1  0  0  0  0  0  0  0  0  0
  -29.6794  -24.4048   19.6733 C   0  0  2  0  0  0  0  0  0  0  0  0
  -20.3441  -16.6310   21.9109 C   0  0  2  0  0  0  0  0  0  0  0  0
  -18.1445  -26.7798   21.9155 C   0  0  0  0  0  0  0  0  0  0  0  0
  -22.7605  -30.0732   25.3385 C   0  0  0  0  0  0  0  0  0  0  0  0
  -20.8779  -28.4230   25.3141 C   0  0  0  0  0  0  0  0  0  0  0  0
  -20.4724  -30.7854   24.6233 C   0  0  0  0  0  0  0  0  0  0  0  0
  -20.3139  -27.1665   18.8138 C   0  0  0  0  0  0  0  0  0  0  0  0
  -29.0533  -25.7610   19.4022 C   0  0  0  0  0  0  0  0  0  1  0  0
  -21.7803  -29.2542   23.0947 C   0  0  1  0  0  0  0  0  0  0  0  0
  -19.1727  -27.4499   21.0175 C   0  0  2  0  0  0  0  0  0  0  0  0
  -21.4957  -29.6299   24.5763 C   0  0  0  0  0  0  0  0  0  0  0  0
  -22.2377  -15.1607   21.3252 N   0  0  0  0  0  0  0  0  0  0  0  0
  -20.9629  -15.2539   21.7402 N   0  0  0  0  0  0  0  0  0  0  0  0
  -29.5975  -22.1139   19.1069 N   0  0  0  0  0  0  0  0  0  0  0  0
  -23.6760  -30.1417   21.7747 N   0  0  0  0  0  0  0  0  0  0  0  0
  -21.9984  -18.4161   21.2907 N   0  0  0  0  0  0  0  0  0  0  0  0
  -19.0868  -13.9593   22.3845 N   0  0  0  0  0  0  0  0  0  0  0  0
  -21.4421  -11.0448   22.9773 N   0  0  0  0  0  0  0  0  0  0  0  0
  -23.8826  -19.3732   20.2393 N   0  0  0  0  0  0  0  0  0  0  0  0
  -25.0840  -33.0803   22.6418 N   0  0  0  0  0  0  0  0  0  0  0  0
  -20.5962  -28.8565   22.3411 N   0  0  0  0  0  0  0  0  0  0  0  0
  -19.3466  -26.6134   19.7964 N   0  3  0  0  0  0  0  0  0  0  0  0
  -30.0551  -19.8484   18.8786 O   0  0  0  0  0  0  0  0  0  0  0  0
  -20.7446  -10.9916   20.7934 O   0  0  0  0  0  0  0  0  0  0  0  0
  -26.2177  -31.0475   22.7125 O   0  0  0  0  0  0  0  0  0  0  0  0
  -21.7979  -31.4539   22.2073 O   0  0  0  0  0  0  0  0  0  0  0  0
  -21.3658  -26.7501   21.7511 O   0  0  0  0  0  0  0  0  0  0  0  0
  -24.1234  -18.0421   22.1329 O   0  0  0  0  0  0  0  0  0  0  0  0
  -27.4245  -11.8407   19.7060 O   0  0  0  0  0  0  0  0  0  0  0  0
  -27.9738  -25.9650   20.3130 O   0  0  0  0  0  0  0  0  0  1  0  0
  -31.6708  -15.3551   19.5586 F   0  0  0  0  0  0  0  0  0  0  0  0
  -29.6701  -11.4179   21.2620 F   0  0  0  0  0  0  0  0  0  0  0  0
  1  2  1  0  0  0  0
  1  7  2  0  0  0  0
  2  8  2  0  0  0  0
  3 12  2  0  0  0  0
  3 19  1  0  0  0  0
  4 13  1  0  0  0  0
  4 19  2  0  0  0  0
  5 10  2  0  0  0  0
  5 20  1  0  0  0  0
  6 11  1  0  0  0  0
  6 20  2  0  0  0  0
  7 22  1  0  0  0  0
  8 24  1  0  0  0  0
  9 14  2  0  0  0  0
  9 23  1  0  0  0  0
 10 26  1  0  0  0  0
 11 26  2  0  0  0  0
 12 27  1  0  0  0  0
 13 27  2  0  0  0  0
 14 28  1  0  0  0  0
 15 16  2  0  0  0  0
 15 29  1  0  0  0  0
 16 30  1  0  0  0  0
 17 25  1  0  0  0  0
 17 28  2  0  0  0  0
 18 30  2  0  0  0  0
 18 31  1  0  0  0  0
 19 32  1  0  0  0  0
 20 34  1  0  0  0  0
 21 32  1  0  0  0  0
 21 33  2  0  0  0  0
 21 35  1  0  0  0  0
 22 24  2  0  0  0  0
 22 40  1  0  0  0  0
 23 25  2  0  0  0  0
 23 41  1  0  0  0  0
 24 52  1  0  0  0  0
 25 42  1  0  0  0  0
 26 72  1  0  0  0  0
 27 82  1  0  0  0  0
 28 83  1  0  0  0  0
 29 31  2  0  0  0  0
 29 82  1  0  0  0  0
 30 84  1  0  0  0  0
 31 85  1  0  0  0  0
 32 65  2  0  0  0  0
 33 66  1  0  0  0  0
 33 70  1  0  0  0  0
 34 67  1  0  0  0  0
 34 76  2  0  0  0  0
 35 71  1  0  0  0  0
 35 77  2  0  0  0  0
 36 53  1  0  0  0  0
 36 73  1  0  0  0  0
 36 78  2  0  0  0  0
 37 62  1  0  0  0  0
 37 68  1  0  0  0  0
 37 79  2  0  0  0  0
 38 63  1  0  0  0  0
 38 74  1  0  0  0  0
 38 80  2  0  0  0  0
 39 69  1  0  0  0  0
 39 72  1  0  0  0  0
 39 81  2  0  0  0  0
 40 43  1  0  0  0  0
 41 53  1  0  0  0  0
 42 68  1  0  0  0  0
 43 45  1  0  0  0  0
 44 46  1  0  0  0  0
 44 48  1  0  0  0  0
 45 52  1  0  0  0  0
 46 55  1  0  0  0  0
 47 49  1  0  0  0  0
 47 54  1  0  0  0  0
 48 69  1  0  0  0  0
 49 67  1  0  0  0  0
 50 54  1  0  0  0  0
 50 67  1  0  0  0  0
 51 55  1  0  0  0  0
 51 69  1  0  0  0  0
 52 73  1  0  0  0  0
 53 68  1  0  0  0  0
 54 61  1  0  0  0  0
 55 66  1  0  0  0  0
 56 63  1  0  0  0  0
 57 64  1  0  0  0  0
 58 64  1  0  0  0  0
 59 64  1  0  0  0  0
 60 75  1  0  0  0  0
 61 83  1  0  0  0  0
 62 64  1  0  0  0  0
 62 74  1  0  0  0  0
 63 75  1  0  0  0  0
 65 66  1  0  0  0  0
M  CHG  1  75   1
M  ISO  4  39 100  61 101  72 100  83 101
M  END
> <Batch ID>
0101

> <Smiles>
CNC(C)C(=O)NC(C(=O)N1Cc2cc([101O:1][101CH2:1]C3CCN(C(=O)c4ccc([100NH:0][100C:0](=O)N5CCCC(n6nc(-c7ccc(Oc8ccc(F)cc8F)cc7)c(C(N)=O)c6N)C5)cc4)C3)ccc2CC1C(=O)NC1CCCc2ccccc21)C(C)(C)C

> <Shape>
0.323

> <Color>
0.085

> <Negative vol penalty>
0.000

$$$$

  -OEChem-04052301003D

 87 95  0     1  0  0  0  0  0999 V2000
  -41.2482  -14.7009   37.8198 C   0  0  0  0  0  0  0  0  0  0  0  0
  -41.5231  -13.8982   36.7173 C   0  0  0  0  0  0  0  0  0  0  0  0
  -23.0735   -9.8699   19.9416 C   0  0  0  0  0  0  0  0  0  0  0  0
  -23.8316   -9.8780   22.2356 C   0  0  0  0  0  0  0  0  0  0  0  0
  -30.5087  -18.3420   24.0466 C   0  0  0  0  0  0  0  0  0  0  0  0
  -39.9400  -15.1114   38.0729 C   0  0  0  0  0  0  0  0  0  0  0  0
  -40.4898  -13.5046   35.8678 C   0  0  0  0  0  0  0  0  0  0  0  0
  -40.6256  -15.1466   28.8552 C   0  0  0  0  0  0  0  0  0  0  0  0
  -31.8961  -18.3419   24.1896 C   0  0  0  0  0  0  0  0  0  0  0  0
  -22.3284   -8.7176   20.1919 C   0  0  0  0  0  0  0  0  0  0  0  0
  -23.0865   -8.7257   22.4859 C   0  0  0  0  0  0  0  0  0  0  0  0
  -40.6809  -15.2394   27.4643 C   0  0  0  0  0  0  0  0  0  0  0  0
  -19.9408   -5.9795   20.3205 C   0  0  0  0  0  0  0  0  0  0  0  0
  -18.6354   -5.9322   19.8312 C   0  0  0  0  0  0  0  0  0  0  0  0
  -38.5043  -14.1991   27.2976 C   0  0  0  0  0  0  0  0  0  0  0  0
  -32.0664  -16.5886   22.5360 C   0  0  0  0  0  0  0  0  0  0  0  0
  -18.0710   -7.8766   21.1495 C   0  0  0  0  0  0  0  0  0  0  0  0
  -23.8252  -10.4501   20.9634 C   0  0  0  0  0  0  0  0  0  0  0  0
  -29.9000  -17.4654   23.1483 C   0  0  0  0  0  0  0  0  0  0  0  0
  -24.1693  -12.9749   20.8417 C   0  0  0  0  0  0  0  0  0  0  0  0
  -38.8915  -14.7306   37.2206 C   0  0  0  0  0  0  0  0  0  0  0  0
  -39.5013  -14.5930   29.4739 C   0  0  0  0  0  0  0  0  0  0  0  0
  -39.1661  -13.9093   36.1104 C   0  0  0  0  0  0  0  0  0  0  0  0
  -38.4378  -14.1148   28.6909 C   0  0  0  0  0  0  0  0  0  0  0  0
  -32.6750  -17.4652   23.4343 C   0  0  0  0  0  0  0  0  0  0  0  0
  -30.6789  -16.5887   22.3931 C   0  0  0  0  0  0  0  0  0  0  0  0
  -22.3349   -8.1455   21.4640 C   0  0  0  0  0  0  0  0  0  0  0  0
  -39.6230  -14.7666   26.6875 C   0  0  0  0  0  0  0  0  0  0  0  0
  -20.3112   -6.9752   21.2244 C   0  0  0  0  0  0  0  0  0  0  0  0
  -17.7005   -6.8808   20.2457 C   0  0  0  0  0  0  0  0  0  0  0  0
  -19.3763   -7.9238   21.6388 C   0  0  0  0  0  0  0  0  0  0  0  0
  -24.5955  -11.6401   20.7054 C   0  0  0  0  0  0  0  0  0  0  0  0
  -25.2624  -13.7231   20.4787 C   0  0  0  0  0  0  0  0  0  0  0  0
  -28.4480  -17.4903   23.0239 C   0  0  0  0  0  0  0  0  0  0  0  0
  -22.8990  -13.4921   21.2593 C   0  0  0  0  0  0  0  0  0  0  0  0
  -37.7953  -13.6759   32.6871 C   0  0  0  0  0  0  0  0  0  0  0  0
  -36.3740  -16.8539   23.2479 C   0  0  0  0  0  0  0  0  0  0  0  0
  -35.6409  -14.8274   30.8315 C   0  0  0  0  0  0  0  0  0  0  0  0
  -33.6586  -16.5377   28.6447 C   0  0  0  0  0  0  0  0  0  0  0  0
  -30.7294  -14.7640   20.6569 C   0  0  0  0  0  0  0  0  0  0  0  0
  -37.4865  -15.1600   37.5615 C   0  0  0  0  0  0  0  0  0  0  0  0
  -39.4251  -14.4168   30.9662 C   0  0  0  0  0  0  0  0  0  0  0  0
  -37.2635  -13.4955   29.3984 C   0  0  0  0  0  0  0  0  0  0  0  0
  -36.5052  -15.0089   36.4020 C   0  0  0  0  0  0  0  0  0  0  0  0
  -29.6147  -12.3494   18.2896 C   0  0  0  0  0  0  0  0  0  0  0  0
  -36.6686  -13.6450   35.7386 C   0  0  0  0  0  0  0  0  0  0  0  0
  -28.1745  -12.0594   18.7183 C   0  0  0  0  0  0  0  0  0  0  0  0
  -30.5291  -12.5783   19.4918 C   0  0  0  0  0  0  0  0  0  0  0  0
  -28.6217  -13.3055   20.8710 C   0  0  0  0  0  0  0  0  0  0  0  0
  -38.0759  -13.4821   35.1517 C   0  0  1  0  0  0  0  0  0  0  0  0
  -38.0023  -14.6007   31.5238 C   0  0  1  0  0  0  0  0  0  0  0  0
  -27.6496  -13.1322   19.6926 C   0  0  2  0  0  0  0  0  0  0  0  0
  -31.3087  -17.3680   28.3516 C   0  0  0  0  0  0  0  0  0  0  0  0
  -34.7260  -11.9937   30.1706 C   0  0  0  0  0  0  0  0  0  0  0  0
  -32.7422  -12.9819   29.0059 C   0  0  0  0  0  0  0  0  0  0  0  0
  -33.0642  -13.3548   31.4513 C   0  0  0  0  0  0  0  0  0  0  0  0
  -34.5480  -19.3572   28.5118 C   0  0  0  0  0  0  0  0  0  0  0  0
  -37.4166  -16.0021   22.5376 C   0  0  0  0  0  0  0  0  0  0  0  0
  -34.9373  -16.5952   22.8422 C   0  0  0  0  0  0  0  0  0  0  0  0
  -38.6902  -15.7827   23.3480 C   0  0  0  0  0  0  0  0  0  0  0  0
  -38.4428  -15.0067   24.6364 C   0  0  0  0  0  0  0  0  0  1  0  0
  -34.5714  -14.5451   29.8070 C   0  0  1  0  0  0  0  0  0  0  0  0
  -32.7069  -17.7030   28.8470 C   0  0  2  0  0  0  0  0  0  0  0  0
  -33.8024  -13.2262   30.1010 C   0  0  0  0  0  0  0  0  0  0  0  0
  -25.8606  -11.5428   20.2882 N   0  0  0  0  0  0  0  0  0  0  0  0
  -26.2387  -12.8260   20.1591 N   0  0  0  0  0  0  0  0  0  0  0  0
  -36.9117  -14.2949   30.5824 N   0  0  0  0  0  0  0  0  0  0  0  0
  -29.9703  -13.6103   20.3679 N   0  0  0  0  0  0  0  0  0  0  0  0
  -25.4740  -15.0543   20.4049 N   0  0  0  0  0  0  0  0  0  0  0  0
  -27.7153  -16.6533   23.8580 N   0  0  0  0  0  0  0  0  0  0  0  0
  -21.8860  -12.5841   21.5965 N   0  0  0  0  0  0  0  0  0  0  0  0
  -30.0822  -15.6903   21.4741 N   0  0  0  0  0  0  0  0  0  0  0  0
  -34.0550  -17.4637   23.5787 N   0  0  0  0  0  0  0  0  0  0  0  0
  -38.1890  -14.2033   33.9021 N   0  0  0  0  0  0  0  0  0  0  0  0
  -33.7253  -15.7328   29.7623 N   0  0  0  0  0  0  0  0  0  0  0  0
  -33.1926  -18.9026   28.1081 N   0  3  0  0  0  0  0  0  0  0  0  0
  -27.8843  -18.2197   22.1916 O   0  0  0  0  0  0  0  0  0  0  0  0
  -22.6637  -14.7230   21.3155 O   0  0  0  0  0  0  0  0  0  0  0  0
  -37.3125  -12.5656   32.4978 O   0  0  0  0  0  0  0  0  0  0  0  0
  -36.6812  -17.7124   24.0739 O   0  0  0  0  0  0  0  0  0  0  0  0
  -35.3587  -15.4967   31.8293 O   0  0  0  0  0  0  0  0  0  0  0  0
  -34.2777  -16.3572   27.5984 O   0  0  0  0  0  0  0  0  0  0  0  0
  -31.8590  -14.9314   20.1900 O   0  0  0  0  0  0  0  0  0  0  0  0
  -21.6078   -7.0212   21.7086 O   0  0  0  0  0  0  0  0  0  0  0  0
  -39.6815  -14.8644   25.3304 O   0  0  0  0  0  0  0  0  0  1  0  0
  -16.4474   -6.8362   19.7746 F   0  0  0  0  0  0  0  0  0  0  0  0
  -19.7266   -8.8835   22.5061 F   0  0  0  0  0  0  0  0  0  0  0  0
  1  2  1  0  0  0  0
  1  6  2  0  0  0  0
  2  7  2  0  0  0  0
  3 10  2  0  0  0  0
  3 18  1  0  0  0  0
  4 11  1  0  0  0  0
  4 18  2  0  0  0  0
  5  9  2  0  0  0  0
  5 19  1  0  0  0  0
  6 21  1  0  0  0  0
  7 23  1  0  0  0  0
  8 12  2  0  0  0  0
  8 22  1  0  0  0  0
  9 25  1  0  0  0  0
 10 27  1  0  0  0  0
 11 27  2  0  0  0  0
 12 28  1  0  0  0  0
 13 14  2  0  0  0  0
 13 29  1  0  0  0  0
 14 30  1  0  0  0  0
 15 24  1  0  0  0  0
 15 28  2  0  0  0  0
 16 25  2  0  0  0  0
 16 26  1  0  0  0  0
 17 30  2  0  0  0  0
 17 31  1  0  0  0  0
 18 32  1  0  0  0  0
 19 26  2  0  0  0  0
 19 34  1  0  0  0  0
 20 32  1  0  0  0  0
 20 33  2  0  0  0  0
 20 35  1  0  0  0  0
 21 23  2  0  0  0  0
 21 41  1  0  0  0  0
 22 24  2  0  0  0  0
 22 42  1  0  0  0  0
 23 50  1  0  0  0  0
 24 43  1  0  0  0  0
 25 73  1  0  0  0  0
 26 72  1  0  0  0  0
 27 84  1  0  0  0  0
 28 85  1  0  0  0  0
 29 31  2  0  0  0  0
 29 84  1  0  0  0  0
 30 86  1  0  0  0  0
 31 87  1  0  0  0  0
 32 65  2  0  0  0  0
 33 66  1  0  0  0  0
 33 69  1  0  0  0  0
 34 70  1  0  0  0  0
 34 77  2  0  0  0  0
 35 71  1  0  0  0  0
 35 78  2  0  0  0  0
 36 51  1  0  0  0  0
 36 74  1  0  0  0  0
 36 79  2  0  0  0  0
 37 58  1  0  0  0  0
 37 59  1  0  0  0  0
 37 80  2  0  0  0  0
 38 62  1  0  0  0  0
 38 67  1  0  0  0  0
 38 81  2  0  0  0  0
 39 63  1  0  0  0  0
 39 75  1  0  0  0  0
 39 82  2  0  0  0  0
 40 68  1  0  0  0  0
 40 72  1  0  0  0  0
 40 83  2  0  0  0  0
 41 44  1  0  0  0  0
 42 51  1  0  0  0  0
 43 67  1  0  0  0  0
 44 46  1  0  0  0  0
 45 47  1  0  0  0  0
 45 48  1  0  0  0  0
 46 50  1  0  0  0  0
 47 52  1  0  0  0  0
 48 68  1  0  0  0  0
 49 52  1  0  0  0  0
 49 68  1  0  0  0  0
 50 74  1  0  0  0  0
 51 67  1  0  0  0  0
 52 66  1  0  0  0  0
 53 63  1  0  0  0  0
 54 64  1  0  0  0  0
 55 64  1  0  0  0  0
 56 64  1  0  0  0  0
 57 76  1  0  0  0  0
 58 60  1  0  0  0  0
 59 73  1  0  0  0  0
 60 61  1  0  0  0  0
 61 85  1  0  0  0  0
 62 64  1  0  0  0  0
 62 75  1  0  0  0  0
 63 76  1  0  0  0  0
 65 66  1  0  0  0  0
M  CHG  1  76   1
M  ISO  4  40 100  61 101  72 100  85 101
M  END
> <Batch ID>
0101

> <Smiles>
CNC(C)C(=O)NC(C(=O)N1Cc2cc([101O:1][101CH2:1]CCC(=O)CNc3ccc(C(N)=O)c([100NH:0][100C:0](=O)N4CCCC(n5nc(-c6ccc(Oc7ccc(F)cc7F)cc6)c(C(N)=O)c5N)C4)c3)ccc2CC1C(=O)NC1CCCc2ccccc21)C(C)(C)C

> <Shape>
0.148

> <Color>
0.184

> <Negative vol penalty>
0.000

$$$$

  -OEChem-04052301003D

 85 93  0     1  0  0  0  0  0999 V2000
  -31.9421  -25.4899   24.1438 C   0  0  0  0  0  0  0  0  0  0  0  0
  -30.6400  -25.1843   23.7610 C   0  0  0  0  0  0  0  0  0  0  0  0
  -26.1969  -23.3975   18.5418 C   0  0  0  0  0  0  0  0  0  0  0  0
  -27.4281  -25.1329   17.3974 C   0  0  0  0  0  0  0  0  0  0  0  0
  -33.0168  -24.8484   23.5295 C   0  0  0  0  0  0  0  0  0  0  0  0
  -30.4118  -24.2377   22.7629 C   0  0  0  0  0  0  0  0  0  0  0  0
  -26.7051  -21.0031   23.9638 C   0  0  0  0  0  0  0  0  0  0  0  0
  -18.5235  -31.1729   24.2447 C   0  0  0  0  0  0  0  0  0  0  0  0
  -19.7920  -30.9071   23.7290 C   0  0  0  0  0  0  0  0  0  0  0  0
  -27.2260  -22.4936   18.2783 C   0  0  0  0  0  0  0  0  0  0  0  0
  -28.4572  -24.2290   17.1339 C   0  0  0  0  0  0  0  0  0  0  0  0
  -25.3942  -21.4564   23.8235 C   0  0  0  0  0  0  0  0  0  0  0  0
  -29.0753  -21.7257   14.9470 C   0  0  0  0  0  0  0  0  0  0  0  0
  -29.6107  -21.7107   13.6591 C   0  0  0  0  0  0  0  0  0  0  0  0
  -17.7306  -29.0591   23.3843 C   0  0  0  0  0  0  0  0  0  0  0  0
  -25.2237  -20.2929   21.7172 C   0  0  0  0  0  0  0  0  0  0  0  0
  -31.7829  -22.2718   14.5556 C   0  0  0  0  0  0  0  0  0  0  0  0
  -26.2979  -24.7172   18.1013 C   0  0  0  0  0  0  0  0  0  0  0  0
  -18.9990  -28.7933   22.8685 C   0  0  0  0  0  0  0  0  0  0  0  0
  -23.8918  -25.5533   17.9625 C   0  0  0  0  0  0  0  0  0  0  0  0
  -32.8014  -23.8864   22.5301 C   0  0  0  0  0  0  0  0  0  0  0  0
  -27.2899  -20.1989   22.9750 C   0  0  0  0  0  0  0  0  0  0  0  0
  -31.4847  -23.5837   22.1337 C   0  0  0  0  0  0  0  0  0  0  0  0
  -26.5414  -19.8286   21.8486 C   0  0  0  0  0  0  0  0  0  0  0  0
  -17.4928  -30.2489   24.0725 C   0  0  0  0  0  0  0  0  0  0  0  0
  -20.0297  -29.7173   23.0408 C   0  0  0  0  0  0  0  0  0  0  0  0
  -28.3562  -22.9093   17.5744 C   0  0  0  0  0  0  0  0  0  0  0  0
  -24.6542  -21.1037   22.6987 C   0  0  0  0  0  0  0  0  0  0  0  0
  -29.8936  -22.0139   16.0392 C   0  0  0  0  0  0  0  0  0  0  0  0
  -30.9645  -21.9837   13.4634 C   0  0  0  0  0  0  0  0  0  0  0  0
  -31.2474  -22.2869   15.8435 C   0  0  0  0  0  0  0  0  0  0  0  0
  -25.2349  -25.6512   18.3727 C   0  0  0  0  0  0  0  0  0  0  0  0
  -23.2945  -26.6810   18.4704 C   0  0  0  0  0  0  0  0  0  0  0  0
  -23.2421  -24.5340   17.1913 C   0  0  0  0  0  0  0  0  0  0  0  0
  -19.2186  -27.5176   22.1412 C   0  0  0  0  0  0  0  0  0  0  0  0
  -29.7821  -20.4975   21.0248 C   0  0  0  0  0  0  0  0  0  0  0  0
  -29.0633  -17.4260   20.2687 C   0  0  0  0  0  0  0  0  0  0  0  0
  -26.7203  -14.9485   20.1307 C   0  0  0  0  0  0  0  0  0  0  0  0
  -22.4456  -30.2946   22.6206 C   0  0  0  0  0  0  0  0  0  0  0  0
  -33.9963  -23.2538   21.8617 C   0  0  0  0  0  0  0  0  0  0  0  0
  -28.6961  -19.6960   23.1541 C   0  0  0  0  0  0  0  0  0  0  0  0
  -27.1161  -18.9505   20.7682 C   0  0  0  0  0  0  0  0  0  0  0  0
  -33.6564  -21.9905   21.0751 C   0  0  0  0  0  0  0  0  0  0  0  0
  -25.3171  -30.8136   20.5805 C   0  0  0  0  0  0  0  0  0  0  0  0
  -32.4207  -22.2167   20.2099 C   0  0  0  0  0  0  0  0  0  0  0  0
  -25.4412  -29.5088   19.7905 C   0  0  0  0  0  0  0  0  0  0  0  0
  -24.8389  -30.5676   22.0104 C   0  0  0  0  0  0  0  0  0  0  0  0
  -23.7298  -28.4739   21.3355 C   0  0  0  0  0  0  0  0  0  0  0  0
  -31.1958  -22.5445   21.0722 C   0  0  1  0  0  0  0  0  0  0  0  0
  -29.3633  -19.3060   21.8388 C   0  0  1  0  0  0  0  0  0  0  0  0
  -24.1462  -28.6768   19.8695 C   0  0  2  0  0  0  0  0  0  0  0  0
  -26.4205  -12.5575   19.4302 C   0  0  0  0  0  0  0  0  0  0  0  0
  -28.9918  -18.2942   17.3445 C   0  0  0  0  0  0  0  0  0  0  0  0
  -27.7859  -16.1651   16.8143 C   0  0  0  0  0  0  0  0  0  0  0  0
  -30.0966  -16.0877   17.7509 C   0  0  0  0  0  0  0  0  0  0  0  0
  -26.0162  -14.1100   22.8802 C   0  0  0  0  0  0  0  0  0  0  0  0
  -21.9344  -23.4739   22.3670 C   0  0  0  0  0  0  0  0  0  0  0  0
  -21.5711  -24.8328   22.9554 C   0  0  0  0  0  0  0  0  0  0  0  0
  -23.0530  -22.8025   23.1526 C   0  0  0  0  0  0  0  0  0  1  0  0
  -20.4830  -25.5234   22.1455 C   0  0  0  0  0  0  0  0  0  0  0  0
  -28.1735  -16.7560   19.2498 C   0  0  1  0  0  0  0  0  0  0  0  0
  -26.7609  -13.4978   20.5760 C   0  0  2  0  0  0  0  0  0  0  0  0
  -28.7515  -16.8439   17.8091 C   0  0  0  0  0  0  0  0  0  0  0  0
  -25.4770  -26.7542   19.0861 N   0  0  0  0  0  0  0  0  0  0  0  0
  -24.2780  -27.3597   19.1280 N   0  0  0  0  0  0  0  0  0  0  0  0
  -28.4972  -18.4894   20.9860 N   0  0  0  0  0  0  0  0  0  0  0  0
  -23.6059  -29.7774   22.0066 N   0  0  0  0  0  0  0  0  0  0  0  0
  -16.2105  -30.5182   24.5942 N   0  0  0  0  0  0  0  0  0  0  0  0
  -22.0293  -27.1485   18.4141 N   0  0  0  0  0  0  0  0  0  0  0  0
  -23.2111  -24.6690   15.7967 N   0  0  0  0  0  0  0  0  0  0  0  0
  -21.3260  -29.4686   22.5256 N   0  0  0  0  0  0  0  0  0  0  0  0
  -30.6643  -21.3402   21.6737 N   0  0  0  0  0  0  0  0  0  0  0  0
  -27.9612  -15.3936   19.7264 N   0  0  0  0  0  0  0  0  0  0  0  0
  -25.7855  -13.2671   21.6788 N   0  3  0  0  0  0  0  0  0  0  0  0
  -22.6908  -23.5413   17.7244 O   0  0  0  0  0  0  0  0  0  0  0  0
  -18.6037  -27.2071   21.1328 O   0  0  0  0  0  0  0  0  0  0  0  0
  -29.3388  -20.6409   19.8914 O   0  0  0  0  0  0  0  0  0  0  0  0
  -30.2159  -17.0162   20.4275 O   0  0  0  0  0  0  0  0  0  0  0  0
  -25.6901  -15.6187   20.1370 O   0  0  0  0  0  0  0  0  0  0  0  0
  -22.4380  -31.4015   23.1652 O   0  0  0  0  0  0  0  0  0  0  0  0
  -29.3607  -22.0276   17.3173 O   0  0  0  0  0  0  0  0  0  0  0  0
  -23.3747  -21.5454   22.5589 O   0  0  0  0  0  0  0  0  0  1  0  0
  -20.1811  -26.7724   22.7521 O   0  0  0  0  0  0  0  0  0  0  0  0
  -31.4789  -21.9678   12.2267 F   0  0  0  0  0  0  0  0  0  0  0  0
  -32.0388  -22.5632   16.8891 F   0  0  0  0  0  0  0  0  0  0  0  0
  1  2  1  0  0  0  0
  1  5  2  0  0  0  0
  2  6  2  0  0  0  0
  3 10  2  0  0  0  0
  3 18  1  0  0  0  0
  4 11  1  0  0  0  0
  4 18  2  0  0  0  0
  5 21  1  0  0  0  0
  6 23  1  0  0  0  0
  7 12  2  0  0  0  0
  7 22  1  0  0  0  0
  8  9  2  0  0  0  0
  8 25  1  0  0  0  0
  9 26  1  0  0  0  0
 10 27  1  0  0  0  0
 11 27  2  0  0  0  0
 12 28  1  0  0  0  0
 13 14  2  0  0  0  0
 13 29  1  0  0  0  0
 14 30  1  0  0  0  0
 15 19  1  0  0  0  0
 15 25  2  0  0  0  0
 16 24  1  0  0  0  0
 16 28  2  0  0  0  0
 17 30  2  0  0  0  0
 17 31  1  0  0  0  0
 18 32  1  0  0  0  0
 19 26  2  0  0  0  0
 19 35  1  0  0  0  0
 20 32  1  0  0  0  0
 20 33  2  0  0  0  0
 20 34  1  0  0  0  0
 21 23  2  0  0  0  0
 21 40  1  0  0  0  0
 22 24  2  0  0  0  0
 22 41  1  0  0  0  0
 23 49  1  0  0  0  0
 24 42  1  0  0  0  0
 25 68  1  0  0  0  0
 26 71  1  0  0  0  0
 27 81  1  0  0  0  0
 28 82  1  0  0  0  0
 29 31  2  0  0  0  0
 29 81  1  0  0  0  0
 30 84  1  0  0  0  0
 31 85  1  0  0  0  0
 32 64  2  0  0  0  0
 33 65  1  0  0  0  0
 33 69  1  0  0  0  0
 34 70  1  0  0  0  0
 34 75  2  0  0  0  0
 35 76  2  0  0  0  0
 35 83  1  0  0  0  0
 36 50  1  0  0  0  0
 36 72  1  0  0  0  0
 36 77  2  0  0  0  0
 37 61  1  0  0  0  0
 37 66  1  0  0  0  0
 37 78  2  0  0  0  0
 38 62  1  0  0  0  0
 38 73  1  0  0  0  0
 38 79  2  0  0  0  0
 39 67  1  0  0  0  0
 39 71  1  0  0  0  0
 39 80  2  0  0  0  0
 40 43  1  0  0  0  0
 41 50  1  0  0  0  0
 42 66  1  0  0  0  0
 43 45  1  0  0  0  0
 44 46  1  0  0  0  0
 44 47  1  0  0  0  0
 45 49  1  0  0  0  0
 46 51  1  0  0  0  0
 47 67  1  0  0  0  0
 48 51  1  0  0  0  0
 48 67  1  0  0  0  0
 49 72  1  0  0  0  0
 50 66  1  0  0  0  0
 51 65  1  0  0  0  0
 52 62  1  0  0  0  0
 53 63  1  0  0  0  0
 54 63  1  0  0  0  0
 55 63  1  0  0  0  0
 56 74  1  0  0  0  0
 57 58  1  0  0  0  0
 57 59  1  0  0  0  0
 58 60  1  0  0  0  0
 59 82  1  0  0  0  0
 60 83  1  0  0  0  0
 61 63  1  0  0  0  0
 61 73  1  0  0  0  0
 62 74  1  0  0  0  0
 64 65  1  0  0  0  0
M  CHG  1  74   1
M  ISO  4  39 100  59 101  71 100  82 101
M  END
> <Batch ID>
0101

> <Smiles>
CNC(C)C(=O)NC(C(=O)N1Cc2cc([101O:1][101CH2:1]CCCOC(=O)c3cc(N)ccc3[100NH:0][100C:0](=O)N3CCCC(n4nc(-c5ccc(Oc6ccc(F)cc6F)cc5)c(C(N)=O)c4N)C3)ccc2CC1C(=O)NC1CCCc2ccccc21)C(C)(C)C

> <Shape>
0.202

> <Color>
0.082

> <Negative vol penalty>
0.000

$$$$

  -OEChem-04052301003D

 87 96  0     1  0  0  0  0  0999 V2000
  -29.7712  -34.8979   24.1953 C   0  0  0  0  0  0  0  0  0  0  0  0
  -29.6877  -33.5668   23.7998 C   0  0  0  0  0  0  0  0  0  0  0  0
  -23.0299  -10.4398   21.8608 C   0  0  0  0  0  0  0  0  0  0  0  0
  -24.7095   -8.7092   21.7162 C   0  0  0  0  0  0  0  0  0  0  0  0
  -28.6569  -35.5325   24.7426 C   0  0  0  0  0  0  0  0  0  0  0  0
  -28.4901  -32.8690   23.9524 C   0  0  0  0  0  0  0  0  0  0  0  0
  -27.2981  -30.1369   19.8586 C   0  0  0  0  0  0  0  0  0  0  0  0
  -27.2819  -20.1110   19.1342 C   0  0  0  0  0  0  0  0  0  0  0  0
  -27.3802  -18.7672   19.4949 C   0  0  0  0  0  0  0  0  0  0  0  0
  -22.0285   -9.4806   21.7107 C   0  0  0  0  0  0  0  0  0  0  0  0
  -23.7081   -7.7498   21.5662 C   0  0  0  0  0  0  0  0  0  0  0  0
  -27.9710  -28.9288   19.6813 C   0  0  0  0  0  0  0  0  0  0  0  0
  -21.5308   -6.0932   23.5500 C   0  0  0  0  0  0  0  0  0  0  0  0
  -21.6423   -4.9201   24.2961 C   0  0  0  0  0  0  0  0  0  0  0  0
  -26.0667  -27.7446   20.5704 C   0  0  0  0  0  0  0  0  0  0  0  0
  -29.5271  -18.6290   18.3956 C   0  0  0  0  0  0  0  0  0  0  0  0
  -21.6937   -3.6273   22.2557 C   0  0  0  0  0  0  0  0  0  0  0  0
  -24.3705  -10.0542   21.8634 C   0  0  0  0  0  0  0  0  0  0  0  0
  -25.5914  -11.9172   23.1068 C   0  0  0  0  0  0  0  0  0  0  0  0
  -27.4423  -34.8450   24.8932 C   0  0  0  0  0  0  0  0  0  0  0  0
  -26.0065  -30.1588   20.4042 C   0  0  0  0  0  0  0  0  0  0  0  0
  -27.3589  -33.4946   24.5036 C   0  0  0  0  0  0  0  0  0  0  0  0
  -25.3785  -28.9541   20.7512 C   0  0  0  0  0  0  0  0  0  0  0  0
  -28.3063  -20.7138   18.4041 C   0  0  0  0  0  0  0  0  0  0  0  0
  -28.5027  -18.0262   19.1256 C   0  0  0  0  0  0  0  0  0  0  0  0
  -22.3676   -8.1356   21.5635 C   0  0  0  0  0  0  0  0  0  0  0  0
  -27.3564  -27.7326   20.0399 C   0  0  0  0  0  0  0  0  0  0  0  0
  -21.5006   -6.0335   22.1567 C   0  0  0  0  0  0  0  0  0  0  0  0
  -21.7238   -3.6871   23.6490 C   0  0  0  0  0  0  0  0  0  0  0  0
  -29.4289  -19.9729   18.0348 C   0  0  0  0  0  0  0  0  0  0  0  0
  -21.5821   -4.8005   21.5096 C   0  0  0  0  0  0  0  0  0  0  0  0
  -25.4054  -11.0447   22.0178 C   0  0  0  0  0  0  0  0  0  0  0  0
  -26.7021  -12.6524   22.7719 C   0  0  0  0  0  0  0  0  0  0  0  0
  -27.9574  -24.8475   17.2754 C   0  0  0  0  0  0  0  0  0  0  0  0
  -24.8285  -12.0510   24.3134 C   0  0  0  0  0  0  0  0  0  0  0  0
  -24.6952  -31.4110   23.0149 C   0  0  0  0  0  0  0  0  0  0  0  0
  -21.9404  -30.3599   21.6627 C   0  0  0  0  0  0  0  0  0  0  0  0
  -20.8286  -27.4146   19.9002 C   0  0  0  0  0  0  0  0  0  0  0  0
  -29.2977  -15.6799   18.7332 C   0  0  0  0  0  0  0  0  0  0  0  0
  -26.2785  -35.5592   25.5336 C   0  0  0  0  0  0  0  0  0  0  0  0
  -25.2837  -31.4682   20.5641 C   0  0  0  0  0  0  0  0  0  0  0  0
  -23.9851  -28.9218   21.3220 C   0  0  0  0  0  0  0  0  0  0  0  0
  -28.0845  -23.7466   16.2503 C   0  0  0  0  0  0  0  0  0  0  0  0
  -24.9395  -34.8592   25.3153 C   0  0  0  0  0  0  0  0  0  0  0  0
  -30.0814  -12.0790   19.0681 C   0  0  0  0  0  0  0  0  0  0  0  0
  -25.0678  -33.3642   25.5895 C   0  0  0  0  0  0  0  0  0  0  0  0
  -28.9030  -11.5496   19.8834 C   0  0  0  0  0  0  0  0  0  0  0  0
  -28.8360  -22.5477   16.8161 C   0  0  0  0  0  0  0  0  0  0  0  0
  -29.6898  -13.2902   18.2272 C   0  0  0  0  0  0  0  0  0  0  0  0
  -27.4689  -23.0010   18.8926 C   0  0  0  0  0  0  0  0  0  0  0  0
  -27.9015  -13.8684   19.8425 C   0  0  0  0  0  0  0  0  0  0  0  0
  -26.0703  -32.7114   24.6302 C   0  0  1  0  0  0  0  0  0  0  0  0
  -28.0066  -24.4297   18.7370 C   0  0  2  0  0  0  0  0  0  0  0  0
  -24.1713  -31.4131   21.6067 C   0  0  1  0  0  0  0  0  0  0  0  0
  -28.2806  -12.6728   20.7291 C   0  0  1  0  0  0  0  0  0  0  0  0
  -18.9990  -27.1192   18.2082 C   0  0  0  0  0  0  0  0  0  0  0  0
  -20.2315  -29.5954   24.0721 C   0  0  0  0  0  0  0  0  0  0  0  0
  -19.1375  -27.8465   22.6533 C   0  0  0  0  0  0  0  0  0  0  0  0
  -18.9328  -30.2557   22.0394 C   0  0  0  0  0  0  0  0  0  0  0  0
  -27.7397  -16.1512   20.5723 C   0  0  0  0  0  0  0  0  0  0  0  0
  -22.6877  -26.2307   17.9251 C   0  0  0  0  0  0  0  0  0  0  0  0
  -27.2127  -25.3980   19.6098 C   0  0  0  0  0  0  0  0  0  1  0  0
  -21.1458  -29.0773   21.7138 C   0  0  1  0  0  0  0  0  0  0  0  0
  -20.4921  -27.3121   18.4234 C   0  0  2  0  0  0  0  0  0  0  0  0
  -19.8901  -29.1939   22.6232 C   0  0  0  0  0  0  0  0  0  0  0  0
  -26.3242  -11.2093   21.0625 N   0  0  0  0  0  0  0  0  0  0  0  0
  -27.0982  -12.1938   21.5500 N   0  0  0  0  0  0  0  0  0  0  0  0
  -28.2045  -22.0572   18.0436 N   0  0  3  0  0  0  0  0  0  0  0  0
  -23.3222  -30.2285   21.4652 N   0  0  0  0  0  0  0  0  0  0  0  0
  -29.0442  -14.3261   19.0352 N   0  0  0  0  0  0  0  0  0  0  0  0
  -27.3688  -13.6402   23.4062 N   0  0  0  0  0  0  0  0  0  0  0  0
  -23.7175  -11.2166   24.4974 N   0  0  0  0  0  0  0  0  0  0  0  0
  -25.4686  -32.5122   23.3291 N   0  0  0  0  0  0  0  0  0  0  0  0
  -20.8502  -28.7248   20.3293 N   0  0  0  0  0  0  0  0  0  0  0  0
  -28.6042  -16.6365   19.4988 N   0  0  0  0  0  0  0  0  0  0  0  0
  -21.2085  -26.1595   17.8077 N   0  3  0  0  0  0  0  0  0  0  0  0
  -27.8211  -26.0197   16.9265 O   0  0  0  0  0  0  0  0  0  0  0  0
  -25.1135  -12.8970   25.1946 O   0  0  0  0  0  0  0  0  0  0  0  0
  -24.4170  -30.4801   23.7617 O   0  0  0  0  0  0  0  0  0  0  0  0
  -21.3555  -31.4389   21.7861 O   0  0  0  0  0  0  0  0  0  0  0  0
  -21.0465  -26.4306   20.6036 O   0  0  0  0  0  0  0  0  0  0  0  0
  -30.0478  -16.0146   17.8081 O   0  0  0  0  0  0  0  0  0  0  0  0
  -21.3907   -7.1992   21.4173 O   0  0  0  0  0  0  0  0  0  0  0  0
  -28.0112  -26.5520   19.8686 O   0  0  0  0  0  0  0  0  0  1  0  0
  -21.8324   -2.5606   24.3656 F   0  0  0  0  0  0  0  0  0  0  0  0
  -30.4183  -20.5422   17.3319 F   0  0  0  0  0  0  0  0  0  0  0  0
  -21.5549   -4.7368   20.1713 F   0  0  0  0  0  0  0  0  0  0  0  0
  1  2  1  0  0  0  0
  1  5  2  0  0  0  0
  2  6  2  0  0  0  0
  3 10  2  0  0  0  0
  3 18  1  0  0  0  0
  4 11  1  0  0  0  0
  4 18  2  0  0  0  0
  5 20  1  0  0  0  0
  6 22  1  0  0  0  0
  7 12  2  0  0  0  0
  7 21  1  0  0  0  0
  8  9  2  0  0  0  0
  8 24  1  0  0  0  0
  9 25  1  0  0  0  0
 10 26  1  0  0  0  0
 11 26  2  0  0  0  0
 12 27  1  0  0  0  0
 13 14  2  0  0  0  0
 13 28  1  0  0  0  0
 14 29  1  0  0  0  0
 15 23  1  0  0  0  0
 15 27  2  0  0  0  0
 16 25  2  0  0  0  0
 16 30  1  0  0  0  0
 17 29  2  0  0  0  0
 17 31  1  0  0  0  0
 18 32  1  0  0  0  0
 19 32  1  0  0  0  0
 19 33  2  0  0  0  0
 19 35  1  0  0  0  0
 20 22  2  0  0  0  0
 20 40  1  0  0  0  0
 21 23  2  0  0  0  0
 21 41  1  0  0  0  0
 22 52  1  0  0  0  0
 23 42  1  0  0  0  0
 24 30  2  0  0  0  0
 24 68  1  0  0  0  0
 25 75  1  0  0  0  0
 26 83  1  0  0  0  0
 27 84  1  0  0  0  0
 28 31  2  0  0  0  0
 28 83  1  0  0  0  0
 29 85  1  0  0  0  0
 30 86  1  0  0  0  0
 31 87  1  0  0  0  0
 32 66  2  0  0  0  0
 33 67  1  0  0  0  0
 33 71  1  0  0  0  0
 34 43  1  0  0  0  0
 34 53  1  0  0  0  0
 34 77  2  0  0  0  0
 35 72  1  0  0  0  0
 35 78  2  0  0  0  0
 36 54  1  0  0  0  0
 36 73  1  0  0  0  0
 36 79  2  0  0  0  0
 37 63  1  0  0  0  0
 37 69  1  0  0  0  0
 37 80  2  0  0  0  0
 38 64  1  0  0  0  0
 38 74  1  0  0  0  0
 38 81  2  0  0  0  0
 39 70  1  0  0  0  0
 39 75  1  0  0  0  0
 39 82  2  0  0  0  0
 40 44  1  0  0  0  0
 41 54  1  0  0  0  0
 42 69  1  0  0  0  0
 43 48  1  0  0  0  0
 44 46  1  0  0  0  0
 45 47  1  0  0  0  0
 45 49  1  0  0  0  0
 46 52  1  0  0  0  0
 47 55  1  0  0  0  0
 48 68  1  0  0  0  0
 49 70  1  0  0  0  0
 50 53  1  0  0  0  0
 50 68  1  0  0  0  0
 51 55  1  0  0  0  0
 51 70  1  0  0  0  0
 52 73  1  0  0  0  0
 53 62  1  0  0  0  0
 54 69  1  0  0  0  0
 55 67  1  0  0  0  0
 56 64  1  0  0  0  0
 57 65  1  0  0  0  0
 58 65  1  0  0  0  0
 59 65  1  0  0  0  0
 60 75  1  0  0  0  0
 61 76  1  0  0  0  0
 62 84  1  0  0  0  0
 63 65  1  0  0  0  0
 63 74  1  0  0  0  0
 64 76  1  0  0  0  0
 66 67  1  0  0  0  0
M  CHG  1  76   1
M  ISO  4  39 100  62 101  75 100  84 101
M  END
> <Batch ID>
0101

> <Smiles>
CNC(C)C(=O)NC(C(=O)N1Cc2cc([101O:1][101CH2:1]C3CN(c4ccc([100N:0](C)[100C:0](=O)N5CCCC(n6nc(-c7ccc(Oc8ccc(F)cc8F)cc7)c(C(N)=O)c6N)C5)cc4F)CCC3=O)ccc2CC1C(=O)NC1CCCc2ccccc21)C(C)(C)C

> <Shape>
0.322

> <Color>
0.122

> <Negative vol penalty>
0.000

$$$$

  -OEChem-04052301003D

 83 91  0     1  0  0  0  0  0999 V2000
  -17.2966  -29.8593   24.1341 C   0  0  0  0  0  0  0  0  0  0  0  0
  -17.9356  -28.8411   24.8343 C   0  0  0  0  0  0  0  0  0  0  0  0
  -22.9020  -10.0958   19.9866 C   0  0  0  0  0  0  0  0  0  0  0  0
  -23.8316   -9.8946   22.2076 C   0  0  0  0  0  0  0  0  0  0  0  0
  -29.4015  -16.9469   19.9746 C   0  0  0  0  0  0  0  0  0  0  0  0
  -17.3801  -29.9059   22.7431 C   0  0  0  0  0  0  0  0  0  0  0  0
  -18.6576  -27.8682   24.1438 C   0  0  0  0  0  0  0  0  0  0  0  0
  -24.4331  -23.6823   24.8061 C   0  0  0  0  0  0  0  0  0  0  0  0
  -22.1272   -8.9573   20.2077 C   0  0  0  0  0  0  0  0  0  0  0  0
  -23.0567   -8.7560   22.4287 C   0  0  0  0  0  0  0  0  0  0  0  0
  -28.7118  -18.1168   19.6562 C   0  0  0  0  0  0  0  0  0  0  0  0
  -24.8106  -22.3440   24.7053 C   0  0  0  0  0  0  0  0  0  0  0  0
  -23.1530   -5.4784   21.6050 C   0  0  0  0  0  0  0  0  0  0  0  0
  -23.7732   -4.3768   22.1943 C   0  0  0  0  0  0  0  0  0  0  0  0
  -29.1549  -17.4416   22.3265 C   0  0  0  0  0  0  0  0  0  0  0  0
  -24.9517  -22.5706   22.3078 C   0  0  0  0  0  0  0  0  0  0  0  0
  -22.2145   -4.4850   24.0371 C   0  0  0  0  0  0  0  0  0  0  0  0
  -23.7543  -10.5645   20.9865 C   0  0  0  0  0  0  0  0  0  0  0  0
  -29.6230  -16.6093   21.3097 C   0  0  0  0  0  0  0  0  0  0  0  0
  -24.2010  -13.0757   21.0281 C   0  0  0  0  0  0  0  0  0  0  0  0
  -18.1115  -28.9387   22.0359 C   0  0  0  0  0  0  0  0  0  0  0  0
  -24.3013  -24.4733   23.6557 C   0  0  0  0  0  0  0  0  0  0  0  0
  -18.7498  -27.9013   22.7420 C   0  0  0  0  0  0  0  0  0  0  0  0
  -24.5749  -23.9194   22.3969 C   0  0  0  0  0  0  0  0  0  0  0  0
  -22.2045   -8.2874   21.4288 C   0  0  0  0  0  0  0  0  0  0  0  0
  -25.0672  -21.7872   23.4559 C   0  0  0  0  0  0  0  0  0  0  0  0
  -28.2437  -18.9491   20.6729 C   0  0  0  0  0  0  0  0  0  0  0  0
  -22.0635   -6.0834   22.2317 C   0  0  0  0  0  0  0  0  0  0  0  0
  -28.4652  -18.6115   22.0081 C   0  0  0  0  0  0  0  0  0  0  0  0
  -23.3040   -3.8800   23.4103 C   0  0  0  0  0  0  0  0  0  0  0  0
  -21.5943   -5.5866   23.4477 C   0  0  0  0  0  0  0  0  0  0  0  0
  -24.5554  -11.7402   20.7585 C   0  0  0  0  0  0  0  0  0  0  0  0
  -25.2958  -13.8071   20.6370 C   0  0  0  0  0  0  0  0  0  0  0  0
  -30.3402  -15.3884   21.6416 C   0  0  0  0  0  0  0  0  0  0  0  0
  -22.9904  -13.6076   21.5825 C   0  0  0  0  0  0  0  0  0  0  0  0
  -30.8486  -14.4819   20.5866 C   0  0  0  0  0  0  0  0  0  0  0  0
  -21.9052  -26.0372   22.2712 C   0  0  0  0  0  0  0  0  0  0  0  0
  -24.2536  -27.1048   20.3045 C   0  0  0  0  0  0  0  0  0  0  0  0
  -27.3463  -26.6088   18.9495 C   0  0  0  0  0  0  0  0  0  0  0  0
  -18.1338  -29.0036   20.5293 C   0  0  0  0  0  0  0  0  0  0  0  0
  -23.9191  -25.9224   23.7835 C   0  0  0  0  0  0  0  0  0  0  0  0
  -24.4675  -24.7313   21.1329 C   0  0  0  0  0  0  0  0  0  0  0  0
  -19.2301  -28.1486   19.8989 C   0  0  0  0  0  0  0  0  0  0  0  0
  -29.3903  -12.4722   17.9999 C   0  0  0  0  0  0  0  0  0  0  0  0
  -19.2539  -26.7603   20.5307 C   0  0  0  0  0  0  0  0  0  0  0  0
  -27.9864  -12.1804   18.5286 C   0  0  0  0  0  0  0  0  0  0  0  0
  -30.4098  -12.5427   19.1321 C   0  0  0  0  0  0  0  0  0  0  0  0
  -28.6500  -13.2386   20.7344 C   0  0  0  0  0  0  0  0  0  0  0  0
  -19.5632  -26.8419   22.0304 C   0  0  1  0  0  0  0  0  0  0  0  0
  -23.3167  -26.4965   22.5049 C   0  0  1  0  0  0  0  0  0  0  0  0
  -27.5879  -13.1874   19.6223 C   0  0  2  0  0  0  0  0  0  0  0  0
  -28.9817  -27.6336   17.3456 C   0  0  0  0  0  0  0  0  0  0  0  0
  -22.5598  -26.1327   17.9600 C   0  0  0  0  0  0  0  0  0  0  0  0
  -24.5946  -26.3001   16.5109 C   0  0  0  0  0  0  0  0  0  0  0  0
  -23.6689  -28.3450   17.5992 C   0  0  0  0  0  0  0  0  0  0  0  0
  -29.4010  -26.9123   21.0578 C   0  0  0  0  0  0  0  0  0  0  0  0
  -28.3483  -21.2722   20.1750 C   0  0  0  0  0  0  0  0  0  0  0  0
  -26.1591  -19.9233   24.4506 C   0  0  0  0  0  0  0  0  0  1  0  0
  -27.0866  -18.8413   23.9323 C   0  0  0  0  0  0  0  0  0  0  0  0
  -24.8663  -26.6234   19.0115 C   0  0  1  0  0  0  0  0  0  0  0  0
  -28.5396  -27.5346   18.7974 C   0  0  2  0  0  0  0  0  0  0  0  0
  -23.9226  -26.8342   17.7939 C   0  0  0  0  0  0  0  0  0  0  0  0
  -25.7795  -11.6269   20.2365 N   0  0  0  0  0  0  0  0  0  0  0  0
  -30.5848  -15.0117   22.8676 N   0  0  0  0  0  0  0  0  0  0  0  0
  -26.2039  -12.9005   20.1747 N   0  0  0  0  0  0  0  0  0  0  0  0
  -29.9837  -13.4798   20.1695 N   0  0  0  0  0  0  0  0  0  0  0  0
  -24.0845  -26.1419   21.3095 N   0  0  0  0  0  0  0  0  0  0  0  0
  -25.5607  -15.1308   20.6469 N   0  0  0  0  0  0  0  0  0  0  0  0
  -21.9663  -12.7160   21.9295 N   0  0  0  0  0  0  0  0  0  0  0  0
  -20.9777  -27.0611   22.2435 N   0  0  0  0  0  0  0  0  0  0  0  0
  -26.1539  -27.2990   18.8935 N   0  0  0  0  0  0  0  0  0  0  0  0
  -29.6883  -27.0362   19.6055 N   0  3  0  0  0  0  0  0  0  0  0  0
  -22.8156  -14.8385   21.7494 O   0  0  0  0  0  0  0  0  0  0  0  0
  -31.9842  -14.7147   20.1935 O   0  0  0  0  0  0  0  0  0  0  0  0
  -21.6750  -24.8425   22.1253 O   0  0  0  0  0  0  0  0  0  0  0  0
  -23.9432  -28.2929   20.4211 O   0  0  0  0  0  0  0  0  0  0  0  0
  -27.4603  -25.3942   19.0990 O   0  0  0  0  0  0  0  0  0  0  0  0
  -21.4483   -7.1765   21.6450 O   0  0  0  0  0  0  0  0  0  0  0  0
  -27.5714  -20.0889   20.3490 O   0  0  0  0  0  0  0  0  0  0  0  0
  -25.4351  -20.4809   23.3546 O   0  0  0  0  0  0  0  0  0  1  0  0
  -28.0084  -19.4193   23.0160 O   0  0  0  0  0  0  0  0  0  0  0  0
  -23.8988   -2.8212   23.9754 F   0  0  0  0  0  0  0  0  0  0  0  0
  -20.5473   -6.1629   24.0540 F   0  0  0  0  0  0  0  0  0  0  0  0
  1  2  1  0  0  0  0
  1  6  2  0  0  0  0
  2  7  2  0  0  0  0
  3  9  2  0  0  0  0
  3 18  1  0  0  0  0
  4 10  1  0  0  0  0
  4 18  2  0  0  0  0
  5 11  2  0  0  0  0
  5 19  1  0  0  0  0
  6 21  1  0  0  0  0
  7 23  1  0  0  0  0
  8 12  2  0  0  0  0
  8 22  1  0  0  0  0
  9 25  1  0  0  0  0
 10 25  2  0  0  0  0
 11 27  1  0  0  0  0
 12 26  1  0  0  0  0
 13 14  2  0  0  0  0
 13 28  1  0  0  0  0
 14 30  1  0  0  0  0
 15 19  2  0  0  0  0
 15 29  1  0  0  0  0
 16 24  1  0  0  0  0
 16 26  2  0  0  0  0
 17 30  2  0  0  0  0
 17 31  1  0  0  0  0
 18 32  1  0  0  0  0
 19 34  1  0  0  0  0
 20 32  1  0  0  0  0
 20 33  2  0  0  0  0
 20 35  1  0  0  0  0
 21 23  2  0  0  0  0
 21 40  1  0  0  0  0
 22 24  2  0  0  0  0
 22 41  1  0  0  0  0
 23 49  1  0  0  0  0
 24 42  1  0  0  0  0
 25 78  1  0  0  0  0
 26 80  1  0  0  0  0
 27 29  2  0  0  0  0
 27 79  1  0  0  0  0
 28 31  2  0  0  0  0
 28 78  1  0  0  0  0
 29 81  1  0  0  0  0
 30 82  1  0  0  0  0
 31 83  1  0  0  0  0
 32 63  2  0  0  0  0
 33 65  1  0  0  0  0
 33 68  1  0  0  0  0
 34 36  1  0  0  0  0
 34 64  2  0  0  0  0
 35 69  1  0  0  0  0
 35 73  2  0  0  0  0
 36 66  1  0  0  0  0
 36 74  2  0  0  0  0
 37 50  1  0  0  0  0
 37 70  1  0  0  0  0
 37 75  2  0  0  0  0
 38 60  1  0  0  0  0
 38 67  1  0  0  0  0
 38 76  2  0  0  0  0
 39 61  1  0  0  0  0
 39 71  1  0  0  0  0
 39 77  2  0  0  0  0
 40 43  1  0  0  0  0
 41 50  1  0  0  0  0
 42 67  1  0  0  0  0
 43 45  1  0  0  0  0
 44 46  1  0  0  0  0
 44 47  1  0  0  0  0
 45 49  1  0  0  0  0
 46 51  1  0  0  0  0
 47 66  1  0  0  0  0
 48 51  1  0  0  0  0
 48 66  1  0  0  0  0
 49 70  1  0  0  0  0
 50 67  1  0  0  0  0
 51 65  1  0  0  0  0
 52 61  1  0  0  0  0
 53 62  1  0  0  0  0
 54 62  1  0  0  0  0
 55 62  1  0  0  0  0
 56 72  1  0  0  0  0
 57 79  1  0  0  0  0
 58 59  1  0  0  0  0
 58 80  1  0  0  0  0
 59 81  1  0  0  0  0
 60 62  1  0  0  0  0
 60 71  1  0  0  0  0
 61 72  1  0  0  0  0
 63 65  1  0  0  0  0
M  CHG  1  72   1
M  ISO  4  34 100  36 100  58 101  80 101
M  END
> <Batch ID>
0101

> <Smiles>
CNC(C)C(=O)NC(C(=O)N1Cc2cc([101O:1][101CH2:1]COc3cc([100C:0](=N)[100C:0](=O)N4CCCC(n5nc(-c6ccc(Oc7ccc(F)cc7F)cc6)c(C(N)=O)c5N)C4)ccc3OC)ccc2CC1C(=O)NC1CCCc2ccccc21)C(C)(C)C

> <Shape>
0.329

> <Color>
0.205

> <Negative vol penalty>
0.000

$$$$

  -OEChem-04052301003D

 85 94  0     1  0  0  0  0  0999 V2000
  -24.3155  -38.2125   17.6869 C   0  0  0  0  0  0  0  0  0  0  0  0
  -24.5969  -36.9613   17.1478 C   0  0  0  0  0  0  0  0  0  0  0  0
  -24.3671   -8.1977   21.3949 C   0  0  0  0  0  0  0  0  0  0  0  0
  -24.4707   -9.6992   23.2847 C   0  0  0  0  0  0  0  0  0  0  0  0
  -24.6609  -38.4949   19.0078 C   0  0  0  0  0  0  0  0  0  0  0  0
  -25.2248  -35.9920   17.9291 C   0  0  0  0  0  0  0  0  0  0  0  0
  -25.4607  -28.8989   18.9031 C   0  0  0  0  0  0  0  0  0  0  0  0
  -24.0653   -7.1396   22.2521 C   0  0  0  0  0  0  0  0  0  0  0  0
  -24.1687   -8.6411   24.1420 C   0  0  0  0  0  0  0  0  0  0  0  0
  -26.3777  -27.8508   18.9700 C   0  0  0  0  0  0  0  0  0  0  0  0
  -21.3584   -5.9670   23.9047 C   0  0  0  0  0  0  0  0  0  0  0  0
  -20.3275   -5.1046   23.5319 C   0  0  0  0  0  0  0  0  0  0  0  0
  -26.8567  -28.4243   21.2637 C   0  0  0  0  0  0  0  0  0  0  0  0
  -26.8565  -19.8501   20.0032 C   0  0  0  0  0  0  0  0  0  0  0  0
  -29.2762  -18.4877   19.7351 C   0  0  0  0  0  0  0  0  0  0  0  0
  -21.8776   -3.2514   23.5328 C   0  0  0  0  0  0  0  0  0  0  0  0
  -24.5699   -9.4775   21.9112 C   0  0  0  0  0  0  0  0  0  0  0  0
  -23.9723  -11.4356   20.3893 C   0  0  0  0  0  0  0  0  0  0  0  0
  -25.2847  -37.5253   19.8087 C   0  0  0  0  0  0  0  0  0  0  0  0
  -25.2425  -29.7257   20.0145 C   0  0  0  0  0  0  0  0  0  0  0  0
  -25.5801  -36.2620   19.2616 C   0  0  0  0  0  0  0  0  0  0  0  0
  -25.9346  -29.4806   21.2091 C   0  0  0  0  0  0  0  0  0  0  0  0
  -28.0625  -20.5414   20.1176 C   0  0  0  0  0  0  0  0  0  0  0  0
  -26.8603  -18.4775   19.7548 C   0  0  0  0  0  0  0  0  0  0  0  0
  -29.2723  -19.8603   19.9836 C   0  0  0  0  0  0  0  0  0  0  0  0
  -28.0701  -17.7963   19.6207 C   0  0  0  0  0  0  0  0  0  0  0  0
  -23.9660   -7.3613   23.6256 C   0  0  0  0  0  0  0  0  0  0  0  0
  -27.0780  -27.6152   20.1495 C   0  0  0  0  0  0  0  0  0  0  0  0
  -22.6490   -5.4717   24.0915 C   0  0  0  0  0  0  0  0  0  0  0  0
  -20.5870   -3.7468   23.3460 C   0  0  0  0  0  0  0  0  0  0  0  0
  -22.9085   -4.1138   23.9056 C   0  0  0  0  0  0  0  0  0  0  0  0
  -24.8823  -10.5709   21.0263 C   0  0  0  0  0  0  0  0  0  0  0  0
  -24.7634  -12.2938   19.6652 C   0  0  0  0  0  0  0  0  0  0  0  0
  -22.5399  -11.4611   20.4470 C   0  0  0  0  0  0  0  0  0  0  0  0
  -25.6230  -32.8239   20.6145 C   0  0  0  0  0  0  0  0  0  0  0  0
  -24.1723  -32.0616   23.4139 C   0  0  0  0  0  0  0  0  0  0  0  0
  -23.4156  -29.6698   25.7276 C   0  0  0  0  0  0  0  0  0  0  0  0
  -29.2244  -15.5948   19.2118 C   0  0  0  0  0  0  0  0  0  0  0  0
  -25.6818  -37.8926   21.2165 C   0  0  0  0  0  0  0  0  0  0  0  0
  -24.2304  -30.8355   19.9344 C   0  0  0  0  0  0  0  0  0  0  0  0
  -25.7217  -30.3267   22.4368 C   0  0  0  0  0  0  0  0  0  0  0  0
  -26.0066  -36.6853   22.0924 C   0  0  0  0  0  0  0  0  0  0  0  0
  -29.7122  -12.1185   18.6162 C   0  0  0  0  0  0  0  0  0  0  0  0
  -26.9193  -35.7159   21.3482 C   0  0  0  0  0  0  0  0  0  0  0  0
  -28.4242  -11.4771   19.1377 C   0  0  0  0  0  0  0  0  0  0  0  0
  -27.7074  -23.9577   21.4565 C   0  0  0  0  0  0  0  0  0  0  0  0
  -30.1458  -13.3024   19.4787 C   0  0  0  0  0  0  0  0  0  0  0  0
  -28.0334  -22.4859   21.7013 C   0  0  0  0  0  0  0  0  0  0  0  0
  -28.0029  -22.9200   19.3205 C   0  0  0  0  0  0  0  0  0  0  0  0
  -27.8259  -13.6835   20.2152 C   0  0  0  0  0  0  0  0  0  0  0  0
  -26.2379  -35.1760   20.0850 C   0  0  1  0  0  0  0  0  0  0  0  0
  -24.4650  -31.9338   20.9669 C   0  0  1  0  0  0  0  0  0  0  0  0
  -28.2995  -24.2209   20.0750 C   0  0  1  0  0  0  0  0  0  0  0  0
  -27.3142  -12.5269   19.3411 C   0  0  2  0  0  0  0  0  0  0  0  0
  -22.2503  -29.3561   27.9278 C   0  0  0  0  0  0  0  0  0  0  0  0
  -26.5322  -33.3612   24.8463 C   0  0  0  0  0  0  0  0  0  0  0  0
  -25.8073  -32.2024   26.9440 C   0  0  0  0  0  0  0  0  0  0  0  0
  -24.2976  -33.8611   25.8520 C   0  0  0  0  0  0  0  0  0  0  0  0
  -21.4830  -27.7548   24.5628 C   0  0  0  0  0  0  0  0  0  0  0  0
  -27.7203  -25.4516   19.3996 C   0  0  0  0  0  0  0  0  0  1  0  0
  -24.6442  -31.6016   24.7720 C   0  0  1  0  0  0  0  0  0  0  0  0
  -22.1105  -29.3096   26.4142 C   0  0  2  0  0  0  0  0  0  0  0  0
  -25.3260  -32.7417   25.5800 C   0  0  0  0  0  0  0  0  0  0  0  0
  -26.1542  -10.8536   20.7325 N   0  0  0  0  0  0  0  0  0  0  0  0
  -26.0491  -11.9057   19.9030 N   0  0  0  0  0  0  0  0  0  0  0  0
  -28.0373  -21.8977   20.3643 N   0  0  3  0  0  0  0  0  0  0  0  0
  -24.7262  -31.4036   22.3067 N   0  0  0  0  0  0  0  0  0  0  0  0
  -29.0449  -14.2574   19.6241 N   0  0  0  0  0  0  0  0  0  0  0  0
  -25.6267  -17.7972   19.6429 N   0  0  0  0  0  0  0  0  0  0  0  0
  -30.5054  -20.5410   20.0957 N   0  0  0  0  0  0  0  0  0  0  0  0
  -24.4777  -13.3348   18.8546 N   0  0  0  0  0  0  0  0  0  0  0  0
  -21.8861  -10.5076   21.2393 N   0  0  0  0  0  0  0  0  0  0  0  0
  -28.0983  -16.4023   19.3681 N   0  0  0  0  0  0  0  0  0  0  0  0
  -25.2779  -34.1489   20.4283 N   0  0  0  0  0  0  0  0  0  0  0  0
  -23.4823  -31.0147   25.4307 N   0  0  0  0  0  0  0  0  0  0  0  0
  -21.6815  -27.9368   26.0238 N   0  3  0  0  0  0  0  0  0  0  0  0
  -21.8592  -12.2939   19.8016 O   0  0  0  0  0  0  0  0  0  0  0  0
  -26.7468  -32.3444   20.5200 O   0  0  0  0  0  0  0  0  0  0  0  0
  -23.3373  -32.9665   23.3384 O   0  0  0  0  0  0  0  0  0  0  0  0
  -24.2902  -28.8417   25.4828 O   0  0  0  0  0  0  0  0  0  0  0  0
  -30.2894  -15.9876   18.7285 O   0  0  0  0  0  0  0  0  0  0  0  0
  -23.6712   -6.3290   24.4624 O   0  0  0  0  0  0  0  0  0  0  0  0
  -27.9741  -26.5932   20.2173 O   0  0  0  0  0  0  0  0  0  1  0  0
  -19.5966   -2.9184   22.9895 F   0  0  0  0  0  0  0  0  0  0  0  0
  -24.1460   -3.6319   24.0847 F   0  0  0  0  0  0  0  0  0  0  0  0
  1  2  1  0  0  0  0
  1  5  2  0  0  0  0
  2  6  2  0  0  0  0
  3  8  2  0  0  0  0
  3 17  1  0  0  0  0
  4  9  1  0  0  0  0
  4 17  2  0  0  0  0
  5 19  1  0  0  0  0
  6 21  1  0  0  0  0
  7 10  2  0  0  0  0
  7 20  1  0  0  0  0
  8 27  1  0  0  0  0
  9 27  2  0  0  0  0
 10 28  1  0  0  0  0
 11 12  2  0  0  0  0
 11 29  1  0  0  0  0
 12 30  1  0  0  0  0
 13 22  1  0  0  0  0
 13 28  2  0  0  0  0
 14 23  1  0  0  0  0
 14 24  2  0  0  0  0
 15 25  1  0  0  0  0
 15 26  2  0  0  0  0
 16 30  2  0  0  0  0
 16 31  1  0  0  0  0
 17 32  1  0  0  0  0
 18 32  1  0  0  0  0
 18 33  2  0  0  0  0
 18 34  1  0  0  0  0
 19 21  2  0  0  0  0
 19 39  1  0  0  0  0
 20 22  2  0  0  0  0
 20 40  1  0  0  0  0
 21 51  1  0  0  0  0
 22 41  1  0  0  0  0
 23 25  2  0  0  0  0
 23 66  1  0  0  0  0
 24 26  1  0  0  0  0
 24 69  1  0  0  0  0
 25 70  1  0  0  0  0
 26 73  1  0  0  0  0
 27 82  1  0  0  0  0
 28 83  1  0  0  0  0
 29 31  2  0  0  0  0
 29 82  1  0  0  0  0
 30 84  1  0  0  0  0
 31 85  1  0  0  0  0
 32 64  2  0  0  0  0
 33 65  1  0  0  0  0
 33 71  1  0  0  0  0
 34 72  1  0  0  0  0
 34 77  2  0  0  0  0
 35 52  1  0  0  0  0
 35 74  1  0  0  0  0
 35 78  2  0  0  0  0
 36 61  1  0  0  0  0
 36 67  1  0  0  0  0
 36 79  2  0  0  0  0
 37 62  1  0  0  0  0
 37 75  1  0  0  0  0
 37 80  2  0  0  0  0
 38 68  1  0  0  0  0
 38 73  1  0  0  0  0
 38 81  2  0  0  0  0
 39 42  1  0  0  0  0
 40 52  1  0  0  0  0
 41 67  1  0  0  0  0
 42 44  1  0  0  0  0
 43 45  1  0  0  0  0
 43 47  1  0  0  0  0
 44 51  1  0  0  0  0
 45 54  1  0  0  0  0
 46 48  1  0  0  0  0
 46 53  1  0  0  0  0
 47 68  1  0  0  0  0
 48 66  1  0  0  0  0
 49 53  1  0  0  0  0
 49 66  1  0  0  0  0
 50 54  1  0  0  0  0
 50 68  1  0  0  0  0
 51 74  1  0  0  0  0
 52 67  1  0  0  0  0
 53 60  1  0  0  0  0
 54 65  1  0  0  0  0
 55 62  1  0  0  0  0
 56 63  1  0  0  0  0
 57 63  1  0  0  0  0
 58 63  1  0  0  0  0
 59 76  1  0  0  0  0
 60 83  1  0  0  0  0
 61 63  1  0  0  0  0
 61 75  1  0  0  0  0
 62 76  1  0  0  0  0
 64 65  1  0  0  0  0
M  CHG  1  76   1
M  ISO  4  38 100  60 101  73 100  83 101
M  END
> <Batch ID>
0101

> <Smiles>
CNC(C)C(=O)NC(C(=O)N1Cc2cc([101O:1][101CH2:1]C3CCN(c4cc(N)c([100NH:0][100C:0](=O)N5CCCC(n6nc(-c7ccc(Oc8ccc(F)cc8F)cc7)c(C(N)=O)c6N)C5)cc4N)C3)ccc2CC1C(=O)NC1CCCc2ccccc21)C(C)(C)C

> <Shape>
0.287

> <Color>
0.098

> <Negative vol penalty>
0.000

$$$$

  -OEChem-04052301003D

 86 94  0     1  0  0  0  0  0999 V2000
  -28.8415  -11.6886   19.3279 C   0  0  0  0  0  0  0  0  0  0  0  0
  -28.8174  -13.0642   19.1211 C   0  0  0  0  0  0  0  0  0  0  0  0
  -23.9790  -28.6140   23.4131 C   0  0  0  0  0  0  0  0  0  0  0  0
  -22.7450  -27.6124   21.5935 C   0  0  0  0  0  0  0  0  0  0  0  0
  -27.7137  -11.0405   19.8300 C   0  0  0  0  0  0  0  0  0  0  0  0
  -27.6651  -13.7923   19.4153 C   0  0  0  0  0  0  0  0  0  0  0  0
  -28.6625  -18.0796   21.9191 C   0  0  0  0  0  0  0  0  0  0  0  0
  -34.8149  -28.6263   21.5663 C   0  0  0  0  0  0  0  0  0  0  0  0
  -34.3611  -27.3074   21.5560 C   0  0  0  0  0  0  0  0  0  0  0  0
  -22.8104  -28.6745   24.1723 C   0  0  0  0  0  0  0  0  0  0  0  0
  -21.5764  -27.6728   22.3526 C   0  0  0  0  0  0  0  0  0  0  0  0
  -29.1431  -19.1552   21.1736 C   0  0  0  0  0  0  0  0  0  0  0  0
  -19.2850  -30.0037   23.2172 C   0  0  0  0  0  0  0  0  0  0  0  0
  -18.1278  -30.4652   22.5899 C   0  0  0  0  0  0  0  0  0  0  0  0
  -32.7528  -27.8741   19.8444 C   0  0  0  0  0  0  0  0  0  0  0  0
  -26.9318  -20.1189   21.1496 C   0  0  0  0  0  0  0  0  0  0  0  0
  -17.0392  -28.3574   23.0474 C   0  0  0  0  0  0  0  0  0  0  0  0
  -23.9463  -28.0830   22.1237 C   0  0  0  0  0  0  0  0  0  0  0  0
  -33.2066  -29.1930   19.8548 C   0  0  0  0  0  0  0  0  0  0  0  0
  -26.0819  -26.9641   21.2901 C   0  0  0  0  0  0  0  0  0  0  0  0
  -26.5503  -11.7625   20.1396 C   0  0  0  0  0  0  0  0  0  0  0  0
  -27.3084  -18.0100   22.2767 C   0  0  0  0  0  0  0  0  0  0  0  0
  -26.5203  -13.1530   19.9208 C   0  0  0  0  0  0  0  0  0  0  0  0
  -26.4370  -19.0426   21.9018 C   0  0  0  0  0  0  0  0  0  0  0  0
  -34.2376  -29.5691   20.7157 C   0  0  0  0  0  0  0  0  0  0  0  0
  -33.3301  -26.9312   20.6951 C   0  0  0  0  0  0  0  0  0  0  0  0
  -21.6091  -28.2039   23.6421 C   0  0  0  0  0  0  0  0  0  0  0  0
  -28.2772  -20.1737   20.7862 C   0  0  0  0  0  0  0  0  0  0  0  0
  -19.3193  -28.7190   23.7596 C   0  0  0  0  0  0  0  0  0  0  0  0
  -17.0049  -29.6421   22.5050 C   0  0  0  0  0  0  0  0  0  0  0  0
  -18.1964  -27.8959   23.6747 C   0  0  0  0  0  0  0  0  0  0  0  0
  -25.1530  -28.0207   21.3387 C   0  0  0  0  0  0  0  0  0  0  0  0
  -27.0409  -27.3905   20.4040 C   0  0  0  0  0  0  0  0  0  0  0  0
  -32.5747  -30.1765   18.9381 C   0  0  0  0  0  0  0  0  0  0  0  0
  -26.0783  -25.7094   21.9838 C   0  0  0  0  0  0  0  0  0  0  0  0
  -24.9280  -15.9937   21.6666 C   0  0  0  0  0  0  0  0  0  0  0  0
  -23.3254  -17.8571   23.7836 C   0  0  0  0  0  0  0  0  0  0  0  0
  -31.8579  -25.0494   19.8989 C   0  0  0  0  0  0  0  0  0  0  0  0
  -23.0145  -20.8893   25.3185 C   0  0  0  0  0  0  0  0  0  0  0  0
  -30.4303  -31.2829   18.3894 C   0  0  0  0  0  0  0  0  0  0  0  0
  -25.3402  -11.0112   20.6357 C   0  0  0  0  0  0  0  0  0  0  0  0
  -26.8111  -16.8564   23.1039 C   0  0  0  0  0  0  0  0  0  0  0  0
  -24.9786  -19.0253   22.2777 C   0  0  0  0  0  0  0  0  0  0  0  0
  -24.2849  -11.9102   21.2747 C   0  0  0  0  0  0  0  0  0  0  0  0
  -27.0854  -31.3512   17.2474 C   0  0  0  0  0  0  0  0  0  0  0  0
  -24.0277  -13.1348   20.4024 C   0  0  0  0  0  0  0  0  0  0  0  0
  -26.3591  -30.3977   18.2000 C   0  0  0  0  0  0  0  0  0  0  0  0
  -28.1539  -32.1705   17.9700 C   0  0  0  0  0  0  0  0  0  0  0  0
  -28.3906  -30.4376   19.7018 C   0  0  0  0  0  0  0  0  0  0  0  0
  -25.2975  -13.9811   20.2511 C   0  0  1  0  0  0  0  0  0  0  0  0
  -25.3079  -16.6314   22.9730 C   0  0  1  0  0  0  0  0  0  0  0  0
  -27.3530  -29.5399   19.0084 C   0  0  1  0  0  0  0  0  0  0  0  0
  -34.7427  -30.9748   20.7470 C   0  0  0  0  0  0  0  0  0  0  0  0
  -21.5857  -22.1229   26.9721 C   0  0  0  0  0  0  0  0  0  0  0  0
  -21.1589  -18.1886   21.6608 C   0  0  0  0  0  0  0  0  0  0  0  0
  -20.2733  -20.1317   22.9678 C   0  0  0  0  0  0  0  0  0  0  0  0
  -20.2993  -17.8543   23.9854 C   0  0  0  0  0  0  0  0  0  0  0  0
  -25.2943  -21.2941   27.1617 C   0  0  0  0  0  0  0  0  0  0  0  0
  -31.6800  -23.5690   20.2063 C   0  0  0  0  0  0  0  0  0  0  0  0
  -30.2474  -23.0927   19.9928 C   0  0  0  0  0  0  0  0  0  0  0  0
  -30.1049  -21.6015   20.2602 C   0  0  0  0  0  0  0  0  0  1  0  0
  -22.4774  -19.1021   23.6839 C   0  0  1  0  0  0  0  0  0  0  0  0
  -22.8265  -21.2654   26.7772 C   0  0  2  0  0  0  0  0  0  0  0  0
  -21.0793  -18.8188   23.0656 C   0  0  0  0  0  0  0  0  0  0  0  0
  -25.4913  -29.0416   20.5467 N   0  0  0  0  0  0  0  0  0  0  0  0
  -26.6437  -28.6285   19.9921 N   0  0  0  0  0  0  0  0  0  0  0  0
  -24.5390  -17.8729   23.0816 N   0  0  0  0  0  0  0  0  0  0  0  0
  -29.0599  -31.2845   18.7031 N   0  0  0  0  0  0  0  0  0  0  0  0
  -28.1767  -26.8235   19.9450 N   0  0  0  0  0  0  0  0  0  0  0  0
  -25.0177  -25.4317   22.8569 N   0  0  0  0  0  0  0  0  0  0  0  0
  -32.8686  -25.5934   20.6864 N   0  0  0  0  0  0  0  0  0  0  0  0
  -31.2047  -30.3714   19.1157 N   0  0  0  0  0  0  0  0  0  0  0  0
  -25.5257  -14.7678   21.4442 N   0  0  0  0  0  0  0  0  0  0  0  0
  -22.4328  -19.6741   25.0253 N   0  0  0  0  0  0  0  0  0  0  0  0
  -24.0074  -22.0282   27.2718 N   0  3  0  0  0  0  0  0  0  0  0  0
  -33.2763  -30.7746   18.1270 O   0  0  0  0  0  0  0  0  0  0  0  0
  -26.9971  -24.8665   21.8464 O   0  0  0  0  0  0  0  0  0  0  0  0
  -24.1492  -16.5704   20.9167 O   0  0  0  0  0  0  0  0  0  0  0  0
  -22.9291  -16.9084   24.4652 O   0  0  0  0  0  0  0  0  0  0  0  0
  -31.1734  -25.6273   19.0612 O   0  0  0  0  0  0  0  0  0  0  0  0
  -23.6139  -21.6041   24.5183 O   0  0  0  0  0  0  0  0  0  0  0  0
  -30.9166  -32.0031   17.5118 O   0  0  0  0  0  0  0  0  0  0  0  0
  -20.4687  -28.2625   24.3827 O   0  0  0  0  0  0  0  0  0  0  0  0
  -28.7436  -21.2244   20.0580 O   0  0  0  0  0  0  0  0  0  1  0  0
  -15.8932  -30.0860   21.9040 F   0  0  0  0  0  0  0  0  0  0  0  0
  -18.2230  -26.6612   24.1949 F   0  0  0  0  0  0  0  0  0  0  0  0
  1  2  1  0  0  0  0
  1  5  2  0  0  0  0
  2  6  2  0  0  0  0
  3 10  2  0  0  0  0
  3 18  1  0  0  0  0
  4 11  1  0  0  0  0
  4 18  2  0  0  0  0
  5 21  1  0  0  0  0
  6 23  1  0  0  0  0
  7 12  2  0  0  0  0
  7 22  1  0  0  0  0
  8  9  2  0  0  0  0
  8 25  1  0  0  0  0
  9 26  1  0  0  0  0
 10 27  1  0  0  0  0
 11 27  2  0  0  0  0
 12 28  1  0  0  0  0
 13 14  2  0  0  0  0
 13 29  1  0  0  0  0
 14 30  1  0  0  0  0
 15 19  1  0  0  0  0
 15 26  2  0  0  0  0
 16 24  1  0  0  0  0
 16 28  2  0  0  0  0
 17 30  2  0  0  0  0
 17 31  1  0  0  0  0
 18 32  1  0  0  0  0
 19 25  2  0  0  0  0
 19 34  1  0  0  0  0
 20 32  1  0  0  0  0
 20 33  2  0  0  0  0
 20 35  1  0  0  0  0
 21 23  2  0  0  0  0
 21 41  1  0  0  0  0
 22 24  2  0  0  0  0
 22 42  1  0  0  0  0
 23 50  1  0  0  0  0
 24 43  1  0  0  0  0
 25 53  1  0  0  0  0
 26 71  1  0  0  0  0
 27 83  1  0  0  0  0
 28 84  1  0  0  0  0
 29 31  2  0  0  0  0
 29 83  1  0  0  0  0
 30 85  1  0  0  0  0
 31 86  1  0  0  0  0
 32 65  2  0  0  0  0
 33 66  1  0  0  0  0
 33 69  1  0  0  0  0
 34 72  1  0  0  0  0
 34 76  2  0  0  0  0
 35 70  1  0  0  0  0
 35 77  2  0  0  0  0
 36 51  1  0  0  0  0
 36 73  1  0  0  0  0
 36 78  2  0  0  0  0
 37 62  1  0  0  0  0
 37 67  1  0  0  0  0
 37 79  2  0  0  0  0
 38 59  1  0  0  0  0
 38 71  1  0  0  0  0
 38 80  2  0  0  0  0
 39 63  1  0  0  0  0
 39 74  1  0  0  0  0
 39 81  2  0  0  0  0
 40 68  1  0  0  0  0
 40 72  1  0  0  0  0
 40 82  2  0  0  0  0
 41 44  1  0  0  0  0
 42 51  1  0  0  0  0
 43 67  1  0  0  0  0
 44 46  1  0  0  0  0
 45 47  1  0  0  0  0
 45 48  1  0  0  0  0
 46 50  1  0  0  0  0
 47 52  1  0  0  0  0
 48 68  1  0  0  0  0
 49 52  1  0  0  0  0
 49 68  1  0  0  0  0
 50 73  1  0  0  0  0
 51 67  1  0  0  0  0
 52 66  1  0  0  0  0
 54 63  1  0  0  0  0
 55 64  1  0  0  0  0
 56 64  1  0  0  0  0
 57 64  1  0  0  0  0
 58 75  1  0  0  0  0
 59 60  1  0  0  0  0
 60 61  1  0  0  0  0
 61 84  1  0  0  0  0
 62 64  1  0  0  0  0
 62 74  1  0  0  0  0
 63 75  1  0  0  0  0
 65 66  1  0  0  0  0
M  CHG  1  75   1
M  ISO  4  40 100  61 101  72 100  84 101
M  END
> <Batch ID>
0101

> <Smiles>
CNC(C)C(=O)NC(C(=O)N1Cc2cc([101O:1][101CH2:1]CCC(=O)Nc3ccc(C)c(C(=O)[100NH:0][100C:0](=O)N4CCCC(n5nc(-c6ccc(Oc7ccc(F)cc7F)cc6)c(C(N)=O)c5N)C4)c3)ccc2CC1C(=O)NC1CCCc2ccccc21)C(C)(C)C

> <Shape>
0.190

> <Color>
0.092

> <Negative vol penalty>
0.000

$$$$

  -OEChem-04052301003D

 81 89  0     1  0  0  0  0  0999 V2000
  -28.3589  -36.6380   24.3194 C   0  0  0  0  0  0  0  0  0  0  0  0
  -28.7209  -35.3335   23.9991 C   0  0  0  0  0  0  0  0  0  0  0  0
  -24.3024   -9.6632   21.8718 C   0  0  0  0  0  0  0  0  0  0  0  0
  -24.7706  -11.1521   23.7160 C   0  0  0  0  0  0  0  0  0  0  0  0
  -27.7130  -20.9890   20.0414 C   0  0  0  0  0  0  0  0  0  0  0  0
  -27.0402  -36.9292   24.6657 C   0  0  0  0  0  0  0  0  0  0  0  0
  -27.7645  -34.3191   24.0260 C   0  0  0  0  0  0  0  0  0  0  0  0
  -27.4506  -29.4558   20.3171 C   0  0  0  0  0  0  0  0  0  0  0  0
  -27.5764  -19.6203   19.8104 C   0  0  0  0  0  0  0  0  0  0  0  0
  -23.9986   -8.6426   22.7728 C   0  0  0  0  0  0  0  0  0  0  0  0
  -24.4667  -10.1315   24.6171 C   0  0  0  0  0  0  0  0  0  0  0  0
  -27.8579  -28.1314   20.4706 C   0  0  0  0  0  0  0  0  0  0  0  0
  -21.3981   -7.7497   24.7408 C   0  0  0  0  0  0  0  0  0  0  0  0
  -20.2512   -6.9931   24.5006 C   0  0  0  0  0  0  0  0  0  0  0  0
  -25.6231  -27.5291   21.1503 C   0  0  0  0  0  0  0  0  0  0  0  0
  -29.9675  -19.4305   19.5209 C   0  0  0  0  0  0  0  0  0  0  0  0
  -21.6008   -4.9948   24.3503 C   0  0  0  0  0  0  0  0  0  0  0  0
  -24.6884  -10.9179   22.3434 C   0  0  0  0  0  0  0  0  0  0  0  0
  -28.9769  -21.5786   20.0120 C   0  0  0  0  0  0  0  0  0  0  0  0
  -24.1152  -12.9217   20.8724 C   0  0  0  0  0  0  0  0  0  0  0  0
  -26.0650  -35.9197   24.6874 C   0  0  0  0  0  0  0  0  0  0  0  0
  -26.1269  -29.8296   20.5901 C   0  0  0  0  0  0  0  0  0  0  0  0
  -26.4317  -34.5969   24.3742 C   0  0  0  0  0  0  0  0  0  0  0  0
  -25.2009  -28.8585   20.9971 C   0  0  0  0  0  0  0  0  0  0  0  0
  -28.7037  -18.8410   19.5502 C   0  0  0  0  0  0  0  0  0  0  0  0
  -24.0807   -8.8768   24.1454 C   0  0  0  0  0  0  0  0  0  0  0  0
  -26.9449  -27.1683   20.8900 C   0  0  0  0  0  0  0  0  0  0  0  0
  -22.6465   -7.1289   24.7856 C   0  0  0  0  0  0  0  0  0  0  0  0
  -20.3525   -5.6157   24.3054 C   0  0  0  0  0  0  0  0  0  0  0  0
  -30.1041  -20.7993   19.7519 C   0  0  0  0  0  0  0  0  0  0  0  0
  -22.7478   -5.7514   24.5904 C   0  0  0  0  0  0  0  0  0  0  0  0
  -25.0029  -11.9723   21.4132 C   0  0  0  0  0  0  0  0  0  0  0  0
  -24.8982  -13.6949   20.0505 C   0  0  0  0  0  0  0  0  0  0  0  0
  -29.1161  -23.0241   20.2560 C   0  0  0  0  0  0  0  0  0  0  0  0
  -28.2011  -23.9540   19.9407 C   0  0  0  0  0  0  0  0  0  0  0  0
  -22.7085  -13.0896   21.0933 C   0  0  0  0  0  0  0  0  0  0  0  0
  -24.7333  -31.7986   22.6600 C   0  0  0  0  0  0  0  0  0  0  0  0
  -22.0609  -31.0423   20.9841 C   0  0  0  0  0  0  0  0  0  0  0  0
  -20.4434  -28.8242   18.9568 C   0  0  0  0  0  0  0  0  0  0  0  0
  -29.5806  -16.5345   19.0430 C   0  0  0  0  0  0  0  0  0  0  0  0
  -24.6624  -36.2743   25.1138 C   0  0  0  0  0  0  0  0  0  0  0  0
  -25.6967  -31.2575   20.3939 C   0  0  0  0  0  0  0  0  0  0  0  0
  -23.7632  -29.2043   21.2834 C   0  0  0  0  0  0  0  0  0  0  0  0
  -23.6291  -35.2097   24.7546 C   0  0  0  0  0  0  0  0  0  0  0  0
  -29.6516  -13.0253   18.4445 C   0  0  0  0  0  0  0  0  0  0  0  0
  -24.1368  -33.8227   25.1358 C   0  0  0  0  0  0  0  0  0  0  0  0
  -28.3755  -12.5166   19.1190 C   0  0  0  0  0  0  0  0  0  0  0  0
  -30.2962  -14.1625   19.2350 C   0  0  0  0  0  0  0  0  0  0  0  0
  -28.1256  -14.7745   20.2267 C   0  0  0  0  0  0  0  0  0  0  0  0
  -25.4175  -33.4737   24.3679 C   0  0  1  0  0  0  0  0  0  0  0  0
  -24.4504  -31.6214   21.1950 C   0  0  1  0  0  0  0  0  0  0  0  0
  -27.4051  -13.6722   19.4333 C   0  0  2  0  0  0  0  0  0  0  0  0
  -18.2556  -28.4627   17.7819 C   0  0  0  0  0  0  0  0  0  0  0  0
  -20.7657  -30.2735   23.6377 C   0  0  0  0  0  0  0  0  0  0  0  0
  -18.9993  -29.0593   22.3440 C   0  0  0  0  0  0  0  0  0  0  0  0
  -19.2707  -31.5240   22.0707 C   0  0  0  0  0  0  0  0  0  0  0  0
  -21.7430  -28.7974   16.2980 C   0  0  0  0  0  0  0  0  0  0  0  0
  -28.3936  -25.4146   20.1959 C   0  0  0  0  0  0  0  0  0  1  0  0
  -21.0037  -29.9694   21.0849 C   0  0  1  0  0  0  0  0  0  0  0  0
  -19.6661  -29.0196   17.6675 C   0  0  2  0  0  0  0  0  0  0  0  0
  -20.0374  -30.2001   22.2809 C   0  0  0  0  0  0  0  0  0  0  0  0
  -26.2542  -12.1264   20.9719 N   0  0  0  0  0  0  0  0  0  0  0  0
  -26.1582  -13.1815   20.1450 N   0  0  0  0  0  0  0  0  0  0  0  0
  -23.3927  -30.6150   21.0831 N   0  0  0  0  0  0  0  0  0  0  0  0
  -29.3190  -15.2227   19.4919 N   0  0  0  0  0  0  0  0  0  0  0  0
  -24.6249  -14.7570   19.2634 N   0  0  0  0  0  0  0  0  0  0  0  0
  -22.0597  -12.2081   21.9687 N   0  0  0  0  0  0  0  0  0  0  0  0
  -28.5651  -17.4505   19.3157 N   0  0  0  0  0  0  0  0  0  0  0  0
  -25.1023  -33.0834   23.0104 N   0  0  0  0  0  0  0  0  0  0  0  0
  -20.3444  -29.9226   19.7843 N   0  0  0  0  0  0  0  0  0  0  0  0
  -20.3534  -28.3307   16.5388 N   0  3  0  0  0  0  0  0  0  0  0  0
  -22.0433  -13.9844   20.5184 O   0  0  0  0  0  0  0  0  0  0  0  0
  -24.6235  -30.8410   23.4167 O   0  0  0  0  0  0  0  0  0  0  0  0
  -21.7181  -32.2153   20.8165 O   0  0  0  0  0  0  0  0  0  0  0  0
  -21.0722  -27.7982   19.2064 O   0  0  0  0  0  0  0  0  0  0  0  0
  -30.6162  -16.8180   18.4355 O   0  0  0  0  0  0  0  0  0  0  0  0
  -23.7841   -7.8813   25.0249 O   0  0  0  0  0  0  0  0  0  0  0  0
  -27.3401  -25.8749   21.0412 O   0  0  0  0  0  0  0  0  0  1  0  0
  -19.2508   -4.8890   24.0763 F   0  0  0  0  0  0  0  0  0  0  0  0
  -31.3257  -21.3517   19.7199 F   0  0  0  0  0  0  0  0  0  0  0  0
  -23.9442   -5.1493   24.6335 F   0  0  0  0  0  0  0  0  0  0  0  0
  1  2  1  0  0  0  0
  1  6  2  0  0  0  0
  2  7  2  0  0  0  0
  3 10  2  0  0  0  0
  3 18  1  0  0  0  0
  4 11  1  0  0  0  0
  4 18  2  0  0  0  0
  5  9  2  0  0  0  0
  5 19  1  0  0  0  0
  6 21  1  0  0  0  0
  7 23  1  0  0  0  0
  8 12  2  0  0  0  0
  8 22  1  0  0  0  0
  9 25  1  0  0  0  0
 10 26  1  0  0  0  0
 11 26  2  0  0  0  0
 12 27  1  0  0  0  0
 13 14  2  0  0  0  0
 13 28  1  0  0  0  0
 14 29  1  0  0  0  0
 15 24  1  0  0  0  0
 15 27  2  0  0  0  0
 16 25  2  0  0  0  0
 16 30  1  0  0  0  0
 17 29  2  0  0  0  0
 17 31  1  0  0  0  0
 18 32  1  0  0  0  0
 19 30  2  0  0  0  0
 19 34  1  0  0  0  0
 20 32  1  0  0  0  0
 20 33  2  0  0  0  0
 20 36  1  0  0  0  0
 21 23  2  0  0  0  0
 21 41  1  0  0  0  0
 22 24  2  0  0  0  0
 22 42  1  0  0  0  0
 23 50  1  0  0  0  0
 24 43  1  0  0  0  0
 25 68  1  0  0  0  0
 26 77  1  0  0  0  0
 27 78  1  0  0  0  0
 28 31  2  0  0  0  0
 28 77  1  0  0  0  0
 29 79  1  0  0  0  0
 30 80  1  0  0  0  0
 31 81  1  0  0  0  0
 32 62  2  0  0  0  0
 33 63  1  0  0  0  0
 33 66  1  0  0  0  0
 34 35  2  0  0  0  0
 35 58  1  0  0  0  0
 36 67  1  0  0  0  0
 36 72  2  0  0  0  0
 37 51  1  0  0  0  0
 37 69  1  0  0  0  0
 37 73  2  0  0  0  0
 38 59  1  0  0  0  0
 38 64  1  0  0  0  0
 38 74  2  0  0  0  0
 39 60  1  0  0  0  0
 39 70  1  0  0  0  0
 39 75  2  0  0  0  0
 40 65  1  0  0  0  0
 40 68  1  0  0  0  0
 40 76  2  0  0  0  0
 41 44  1  0  0  0  0
 42 51  1  0  0  0  0
 43 64  1  0  0  0  0
 44 46  1  0  0  0  0
 45 47  1  0  0  0  0
 45 48  1  0  0  0  0
 46 50  1  0  0  0  0
 47 52  1  0  0  0  0
 48 65  1  0  0  0  0
 49 52  1  0  0  0  0
 49 65  1  0  0  0  0
 50 69  1  0  0  0  0
 51 64  1  0  0  0  0
 52 63  1  0  0  0  0
 53 60  1  0  0  0  0
 54 61  1  0  0  0  0
 55 61  1  0  0  0  0
 56 61  1  0  0  0  0
 57 71  1  0  0  0  0
 58 78  1  0  0  0  0
 59 61  1  0  0  0  0
 59 70  1  0  0  0  0
 60 71  1  0  0  0  0
 62 63  1  0  0  0  0
M  CHG  1  71   1
M  ISO  4  40 100  58 101  68 100  78 101
M  END
> <Batch ID>
0101

> <Smiles>
CNC(C)C(=O)NC(C(=O)N1Cc2cc([101O:1][101CH2:1]C=Cc3ccc([100NH:0][100C:0](=O)N4CCCC(n5nc(-c6ccc(Oc7ccc(F)cc7F)cc6)c(C(N)=O)c5N)C4)cc3F)ccc2CC1C(=O)NC1CCCc2ccccc21)C(C)(C)C

> <Shape>
0.330

> <Color>
0.108

> <Negative vol penalty>
0.000

$$$$

  -OEChem-04052301003D

 88 97  0     1  0  0  0  0  0999 V2000
  -25.0819  -38.6310   20.6824 C   0  0  0  0  0  0  0  0  0  0  0  0
  -25.8929  -37.6741   21.2841 C   0  0  0  0  0  0  0  0  0  0  0  0
  -25.0951   -7.8348   21.7742 C   0  0  0  0  0  0  0  0  0  0  0  0
  -23.7061   -9.8115   21.7962 C   0  0  0  0  0  0  0  0  0  0  0  0
  -23.6978  -38.4630   20.6717 C   0  0  0  0  0  0  0  0  0  0  0  0
  -25.3202  -36.5490   21.8764 C   0  0  0  0  0  0  0  0  0  0  0  0
  -27.0663  -29.9118   19.6880 C   0  0  0  0  0  0  0  0  0  0  0  0
  -28.3820  -20.5000   18.8465 C   0  0  0  0  0  0  0  0  0  0  0  0
  -28.1982  -19.1997   18.3763 C   0  0  0  0  0  0  0  0  0  0  0  0
  -23.9553   -7.0348   21.6930 C   0  0  0  0  0  0  0  0  0  0  0  0
  -22.5663   -9.0115   21.7150 C   0  0  0  0  0  0  0  0  0  0  0  0
  -27.5056  -28.6059   19.4690 C   0  0  0  0  0  0  0  0  0  0  0  0
  -21.3944   -4.4574   21.8427 C   0  0  0  0  0  0  0  0  0  0  0  0
  -21.3285   -3.3343   22.6673 C   0  0  0  0  0  0  0  0  0  0  0  0
  -25.8751  -27.7806   21.0528 C   0  0  0  0  0  0  0  0  0  0  0  0
  -29.3459  -19.6274   20.8828 C   0  0  0  0  0  0  0  0  0  0  0  0
  -21.5015   -4.7539   24.6146 C   0  0  0  0  0  0  0  0  0  0  0  0
  -24.9705   -9.2231   21.8258 C   0  0  0  0  0  0  0  0  0  0  0  0
  -27.1230  -10.0392   22.9250 C   0  0  0  0  0  0  0  0  0  0  0  0
  -23.1085  -37.3305   21.2557 C   0  0  0  0  0  0  0  0  0  0  0  0
  -26.0182  -30.1557   20.5797 C   0  0  0  0  0  0  0  0  0  0  0  0
  -23.9269  -36.3664   21.8746 C   0  0  0  0  0  0  0  0  0  0  0  0
  -25.4225  -29.0852   21.2668 C   0  0  0  0  0  0  0  0  0  0  0  0
  -29.1620  -18.3271   20.4127 C   0  0  0  0  0  0  0  0  0  0  0  0
  -28.9559  -20.7138   20.0997 C   0  0  0  0  0  0  0  0  0  0  0  0
  -28.5882  -18.1132   19.1594 C   0  0  0  0  0  0  0  0  0  0  0  0
  -22.6910   -7.6231   21.6634 C   0  0  0  0  0  0  0  0  0  0  0  0
  -26.9116  -27.5430   20.1500 C   0  0  0  0  0  0  0  0  0  0  0  0
  -21.5140   -5.7287   22.4040 C   0  0  0  0  0  0  0  0  0  0  0  0
  -21.3820   -3.4826   24.0532 C   0  0  0  0  0  0  0  0  0  0  0  0
  -21.5675   -5.8770   23.7899 C   0  0  0  0  0  0  0  0  0  0  0  0
  -26.1474  -10.0500   21.9102 C   0  0  0  0  0  0  0  0  0  0  0  0
  -28.0256  -11.0017   22.5439 C   0  0  0  0  0  0  0  0  0  0  0  0
  -28.2987  -24.2937   20.9000 C   0  0  0  0  0  0  0  0  0  0  0  0
  -28.0751  -22.9644   20.7715 C   0  0  0  0  0  0  0  0  0  0  0  0
  -30.4885  -22.4689   20.8014 C   0  0  0  0  0  0  0  0  0  0  0  0
  -27.2059   -9.2313   24.1066 C   0  0  0  0  0  0  0  0  0  0  0  0
  -23.7703  -32.6886   22.1944 C   0  0  0  0  0  0  0  0  0  0  0  0
  -22.0330  -30.2481   21.5340 C   0  0  0  0  0  0  0  0  0  0  0  0
  -19.4955  -28.1152   20.7285 C   0  0  0  0  0  0  0  0  0  0  0  0
  -27.5810  -15.8452   19.3407 C   0  0  0  0  0  0  0  0  0  0  0  0
  -21.6047  -37.2159   21.2609 C   0  0  0  0  0  0  0  0  0  0  0  0
  -25.5537  -31.5522   20.8926 C   0  0  0  0  0  0  0  0  0  0  0  0
  -24.3214  -29.3985   22.2427 C   0  0  0  0  0  0  0  0  0  0  0  0
  -29.7006  -24.8328   20.9145 C   0  0  0  0  0  0  0  0  0  0  0  0
  -30.6473  -23.8034   21.4901 C   0  0  0  0  0  0  0  0  0  0  0  0
  -21.1021  -35.8105   21.5811 C   0  0  0  0  0  0  0  0  0  0  0  0
  -29.8044  -13.1532   18.6677 C   0  0  0  0  0  0  0  0  0  0  0  0
  -21.8422  -35.2407   22.7871 C   0  0  0  0  0  0  0  0  0  0  0  0
  -29.1999  -12.0396   19.5221 C   0  0  0  0  0  0  0  0  0  0  0  0
  -28.7287  -14.0096   17.9989 C   0  0  0  0  0  0  0  0  0  0  0  0
  -27.1228  -13.4473   19.7960 C   0  0  0  0  0  0  0  0  0  0  0  0
  -23.3448  -35.1202   22.5058 C   0  0  1  0  0  0  0  0  0  0  0  0
  -24.0396  -31.6399   21.1557 C   0  0  1  0  0  0  0  0  0  0  0  0
  -28.1807  -12.6056   20.5266 C   0  0  1  0  0  0  0  0  0  0  0  0
  -29.5909  -17.1820   21.2716 C   0  0  0  0  0  0  0  0  0  0  0  0
  -26.6760  -22.4022   20.8986 C   0  0  0  0  0  0  0  0  0  0  0  0
  -17.1885  -27.4379   21.4473 C   0  0  0  0  0  0  0  0  0  0  0  0
  -23.2223  -28.6938   23.8736 C   0  0  0  0  0  0  0  0  0  0  0  0
  -21.1198  -27.3366   23.9486 C   0  0  0  0  0  0  0  0  0  0  0  0
  -21.0303  -29.7954   24.3592 C   0  0  0  0  0  0  0  0  0  0  0  0
  -28.8440  -16.4673   17.2929 C   0  0  0  0  0  0  0  0  0  0  0  0
  -18.3248  -28.9182   18.1316 C   0  0  0  0  0  0  0  0  0  0  0  0
  -27.2323  -25.3500   21.0133 C   0  0  0  0  0  0  0  0  0  1  0  0
  -21.4476  -28.9446   22.0152 C   0  0  1  0  0  0  0  0  0  0  0  0
  -18.0066  -28.3455   20.5419 C   0  0  2  0  0  0  0  0  0  0  0  0
  -21.7204  -28.6941   23.5253 C   0  0  0  0  0  0  0  0  0  0  0  0
  -26.4058  -10.9483   20.9561 N   0  0  0  0  0  0  0  0  0  0  0  0
  -27.5540  -11.5110   21.3698 N   0  0  0  0  0  0  0  0  0  0  0  0
  -29.1488  -22.0611   20.5855 N   0  0  0  0  0  0  0  0  0  0  0  0
  -23.4170  -30.4091   21.6722 N   0  0  0  0  0  0  0  0  0  0  0  0
  -27.7570  -14.4933   18.9900 N   0  0  0  0  0  0  0  0  0  0  0  0
  -29.1687  -11.4537   23.1019 N   0  0  0  0  0  0  0  0  0  0  0  0
  -26.6043   -9.7023   25.2816 N   0  0  0  0  0  0  0  0  0  0  0  0
  -23.6133  -33.9618   21.6809 N   0  0  0  0  0  0  0  0  0  0  0  0
  -20.0327  -28.9771   21.6610 N   0  0  0  0  0  0  0  0  0  0  0  0
  -28.3909  -16.7751   18.6537 N   0  0  0  0  0  0  0  0  0  0  0  0
  -17.6141  -28.0778   19.1294 N   0  3  0  0  0  0  0  0  0  0  0  0
  -31.4960  -21.8181   20.5147 O   0  0  0  0  0  0  0  0  0  0  0  0
  -27.8100   -8.1321   24.1242 O   0  0  0  0  0  0  0  0  0  0  0  0
  -23.7076  -32.3673   23.3753 O   0  0  0  0  0  0  0  0  0  0  0  0
  -21.2851  -31.1042   21.0534 O   0  0  0  0  0  0  0  0  0  0  0  0
  -20.1187  -27.2541   20.1116 O   0  0  0  0  0  0  0  0  0  0  0  0
  -26.7466  -16.1970   20.1832 O   0  0  0  0  0  0  0  0  0  0  0  0
  -21.5786   -6.8428   21.5840 O   0  0  0  0  0  0  0  0  0  0  0  0
  -27.3423  -26.2702   19.9282 O   0  0  0  0  0  0  0  0  0  1  0  0
  -21.3171   -2.4041   24.8450 F   0  0  0  0  0  0  0  0  0  0  0  0
  -21.6812   -7.0959   24.3350 F   0  0  0  0  0  0  0  0  0  0  0  0
  1  2  1  0  0  0  0
  1  5  2  0  0  0  0
  2  6  2  0  0  0  0
  3 10  2  0  0  0  0
  3 18  1  0  0  0  0
  4 11  1  0  0  0  0
  4 18  2  0  0  0  0
  5 20  1  0  0  0  0
  6 22  1  0  0  0  0
  7 12  2  0  0  0  0
  7 21  1  0  0  0  0
  8  9  2  0  0  0  0
  8 25  1  0  0  0  0
  9 26  1  0  0  0  0
 10 27  1  0  0  0  0
 11 27  2  0  0  0  0
 12 28  1  0  0  0  0
 13 14  2  0  0  0  0
 13 29  1  0  0  0  0
 14 30  1  0  0  0  0
 15 23  1  0  0  0  0
 15 28  2  0  0  0  0
 16 24  1  0  0  0  0
 16 25  2  0  0  0  0
 17 30  2  0  0  0  0
 17 31  1  0  0  0  0
 18 32  1  0  0  0  0
 19 32  1  0  0  0  0
 19 33  2  0  0  0  0
 19 37  1  0  0  0  0
 20 22  2  0  0  0  0
 20 42  1  0  0  0  0
 21 23  2  0  0  0  0
 21 43  1  0  0  0  0
 22 53  1  0  0  0  0
 23 44  1  0  0  0  0
 24 26  2  0  0  0  0
 24 56  1  0  0  0  0
 25 70  1  0  0  0  0
 26 77  1  0  0  0  0
 27 85  1  0  0  0  0
 28 86  1  0  0  0  0
 29 31  2  0  0  0  0
 29 85  1  0  0  0  0
 30 87  1  0  0  0  0
 31 88  1  0  0  0  0
 32 68  2  0  0  0  0
 33 69  1  0  0  0  0
 33 73  1  0  0  0  0
 34 35  2  0  0  0  0
 34 45  1  0  0  0  0
 34 64  1  0  0  0  0
 35 57  1  0  0  0  0
 35 70  1  0  0  0  0
 36 46  1  0  0  0  0
 36 70  1  0  0  0  0
 36 79  2  0  0  0  0
 37 74  1  0  0  0  0
 37 80  2  0  0  0  0
 38 54  1  0  0  0  0
 38 75  1  0  0  0  0
 38 81  2  0  0  0  0
 39 65  1  0  0  0  0
 39 71  1  0  0  0  0
 39 82  2  0  0  0  0
 40 66  1  0  0  0  0
 40 76  1  0  0  0  0
 40 83  2  0  0  0  0
 41 72  1  0  0  0  0
 41 77  1  0  0  0  0
 41 84  2  0  0  0  0
 42 47  1  0  0  0  0
 43 54  1  0  0  0  0
 44 71  1  0  0  0  0
 45 46  1  0  0  0  0
 47 49  1  0  0  0  0
 48 50  1  0  0  0  0
 48 51  1  0  0  0  0
 49 53  1  0  0  0  0
 50 55  1  0  0  0  0
 51 72  1  0  0  0  0
 52 55  1  0  0  0  0
 52 72  1  0  0  0  0
 53 75  1  0  0  0  0
 54 71  1  0  0  0  0
 55 69  1  0  0  0  0
 58 66  1  0  0  0  0
 59 67  1  0  0  0  0
 60 67  1  0  0  0  0
 61 67  1  0  0  0  0
 62 77  1  0  0  0  0
 63 78  1  0  0  0  0
 64 86  1  0  0  0  0
 65 67  1  0  0  0  0
 65 76  1  0  0  0  0
 66 78  1  0  0  0  0
 68 69  1  0  0  0  0
M  CHG  1  78   1
M  ISO  4  41 100  64 101  77 100  86 101
M  END
> <Batch ID>
0101

> <Smiles>
CNC(C)C(=O)NC(C(=O)N1Cc2cc([101O:1][101CH2:1]C3=C(C)N(c4ccc([100N:0](C)[100C:0](=O)N5CCCC(n6nc(-c7ccc(Oc8ccc(F)cc8F)cc7)c(C(N)=O)c6N)C5)c(C)c4)C(=O)CC3)ccc2CC1C(=O)NC1CCCc2ccccc21)C(C)(C)C

> <Shape>
0.320

> <Color>
0.106

> <Negative vol penalty>
0.000

$$$$

  -OEChem-04052301003D

 85 94  0     1  0  0  0  0  0999 V2000
  -28.6412  -37.5723   21.3379 C   0  0  0  0  0  0  0  0  0  0  0  0
  -29.0195  -36.2784   20.9941 C   0  0  0  0  0  0  0  0  0  0  0  0
  -24.2711   -9.4339   21.4617 C   0  0  0  0  0  0  0  0  0  0  0  0
  -24.8758  -10.6546   23.4570 C   0  0  0  0  0  0  0  0  0  0  0  0
  -27.6686  -37.7763   22.3159 C   0  0  0  0  0  0  0  0  0  0  0  0
  -28.4262  -35.1878   21.6289 C   0  0  0  0  0  0  0  0  0  0  0  0
  -27.1413  -29.7371   19.1500 C   0  0  0  0  0  0  0  0  0  0  0  0
  -23.9622   -8.3172   22.2384 C   0  0  0  0  0  0  0  0  0  0  0  0
  -24.5669   -9.5379   24.2338 C   0  0  0  0  0  0  0  0  0  0  0  0
  -27.8079  -28.5129   19.1789 C   0  0  0  0  0  0  0  0  0  0  0  0
  -21.4095   -7.2720   24.1939 C   0  0  0  0  0  0  0  0  0  0  0  0
  -20.2232   -6.5945   23.9122 C   0  0  0  0  0  0  0  0  0  0  0  0
  -26.4129  -27.8034   21.0146 C   0  0  0  0  0  0  0  0  0  0  0  0
  -27.8888  -19.4664   20.5395 C   0  0  0  0  0  0  0  0  0  0  0  0
  -21.4813   -4.5851   23.4469 C   0  0  0  0  0  0  0  0  0  0  0  0
  -30.2187  -19.2310   20.1239 C   0  0  0  0  0  0  0  0  0  0  0  0
  -24.7280  -10.6026   22.0710 C   0  0  0  0  0  0  0  0  0  0  0  0
  -24.1789  -12.7987   20.8950 C   0  0  0  0  0  0  0  0  0  0  0  0
  -27.0562  -36.6874   22.9561 C   0  0  0  0  0  0  0  0  0  0  0  0
  -26.1110  -30.0082   20.0619 C   0  0  0  0  0  0  0  0  0  0  0  0
  -27.4455  -35.3774   22.6173 C   0  0  0  0  0  0  0  0  0  0  0  0
  -25.7331  -29.0308   20.9935 C   0  0  0  0  0  0  0  0  0  0  0  0
  -28.9517  -18.6701   20.1281 C   0  0  0  0  0  0  0  0  0  0  0  0
  -28.1219  -20.7807   20.9287 C   0  0  0  0  0  0  0  0  0  0  0  0
  -24.1101   -8.3692   23.6244 C   0  0  0  0  0  0  0  0  0  0  0  0
  -27.4457  -27.5470   20.1131 C   0  0  0  0  0  0  0  0  0  0  0  0
  -22.6317   -6.6061   24.1019 C   0  0  0  0  0  0  0  0  0  0  0  0
  -20.2591   -5.2511   23.5388 C   0  0  0  0  0  0  0  0  0  0  0  0
  -22.6676   -5.2626   23.7285 C   0  0  0  0  0  0  0  0  0  0  0  0
  -25.0478  -11.7562   21.2692 C   0  0  0  0  0  0  0  0  0  0  0  0
  -29.4260  -21.2471   20.8889 C   0  0  0  0  0  0  0  0  0  0  0  0
  -24.9591  -13.6428   20.1431 C   0  0  0  0  0  0  0  0  0  0  0  0
  -29.4169  -24.8536   21.4357 C   0  0  0  0  0  0  0  0  0  0  0  0
  -28.7469  -26.0028   21.2934 C   0  0  0  0  0  0  0  0  0  1  0  0
  -22.7906  -12.9873   21.1997 C   0  0  0  0  0  0  0  0  0  0  0  0
  -25.6607  -32.1520   22.3651 C   0  0  0  0  0  0  0  0  0  0  0  0
  -22.7030  -30.8253   22.4858 C   0  0  0  0  0  0  0  0  0  0  0  0
  -20.7139  -28.1203   21.8749 C   0  0  0  0  0  0  0  0  0  0  0  0
  -29.7104  -16.4182   19.2916 C   0  0  0  0  0  0  0  0  0  0  0  0
  -26.0438  -36.9586   24.0406 C   0  0  0  0  0  0  0  0  0  0  0  0
  -25.3839  -31.3234   20.0002 C   0  0  0  0  0  0  0  0  0  0  0  0
  -24.6201  -29.2648   21.9809 C   0  0  0  0  0  0  0  0  0  0  0  0
  -30.1433  -24.4318   22.6730 C   0  0  0  0  0  0  0  0  0  0  0  0
  -25.1947  -35.7418   24.3994 C   0  0  0  0  0  0  0  0  0  0  0  0
  -29.6109  -13.0153   18.2486 C   0  0  0  0  0  0  0  0  0  0  0  0
  -26.0752  -34.5079   24.5697 C   0  0  0  0  0  0  0  0  0  0  0  0
  -28.3434  -12.4702   18.9107 C   0  0  0  0  0  0  0  0  0  0  0  0
  -29.9752  -22.9157   22.6634 C   0  0  0  0  0  0  0  0  0  0  0  0
  -30.3341  -14.0171   19.1471 C   0  0  0  0  0  0  0  0  0  0  0  0
  -28.2332  -14.5737   20.3071 C   0  0  0  0  0  0  0  0  0  0  0  0
  -26.8072  -34.1682   23.2657 C   0  0  1  0  0  0  0  0  0  0  0  0
  -29.4492  -23.7328   20.4284 C   0  0  1  0  0  0  0  0  0  0  0  0
  -24.6950  -31.6874   21.3118 C   0  0  1  0  0  0  0  0  0  0  0  0
  -27.4356  -13.6097   19.4137 C   0  0  2  0  0  0  0  0  0  0  0  0
  -30.6088  -23.9244   19.4523 C   0  0  0  0  0  0  0  0  0  0  0  0
  -18.3472  -27.3212   22.1145 C   0  0  0  0  0  0  0  0  0  0  0  0
  -23.1498  -30.4057   25.4748 C   0  0  0  0  0  0  0  0  0  0  0  0
  -21.2314  -28.7971   25.4649 C   0  0  0  0  0  0  0  0  0  0  0  0
  -20.8547  -31.1884   24.8628 C   0  0  0  0  0  0  0  0  0  0  0  0
  -20.4167  -27.7612   18.9523 C   0  0  0  0  0  0  0  0  0  0  0  0
  -22.0752  -29.6796   23.2423 C   0  0  1  0  0  0  0  0  0  0  0  0
  -19.3585  -27.9980   21.2024 C   0  0  2  0  0  0  0  0  0  0  0  0
  -21.8501  -30.0137   24.7440 C   0  0  0  0  0  0  0  0  0  0  0  0
  -30.4842  -20.5035   20.4950 N   0  0  0  0  0  0  0  0  0  0  0  0
  -26.2852  -11.9207   20.7941 N   0  0  0  0  0  0  0  0  0  0  0  0
  -26.1995  -13.0764   20.1136 N   0  0  0  0  0  0  0  0  0  0  0  0
  -29.6677  -22.5542   21.2768 N   0  0  3  0  0  0  0  0  0  0  0  0
  -23.9436  -30.5689   21.8850 N   0  0  0  0  0  0  0  0  0  0  0  0
  -29.4131  -15.0697   19.5814 N   0  0  0  0  0  0  0  0  0  0  0  0
  -27.0475  -21.5887   21.3458 N   0  0  0  0  0  0  0  0  0  0  0  0
  -24.6983  -14.8067   19.5110 N   0  0  0  0  0  0  0  0  0  0  0  0
  -22.1421  -12.0241   21.9846 N   0  0  0  0  0  0  0  0  0  0  0  0
  -28.7460  -17.3273   19.7251 N   0  0  0  0  0  0  0  0  0  0  0  0
  -25.9106  -33.5108   22.3393 N   0  0  0  0  0  0  0  0  0  0  0  0
  -20.8573  -29.3312   22.5185 N   0  0  0  0  0  0  0  0  0  0  0  0
  -19.4718  -27.1975   19.9504 N   0  3  0  0  0  0  0  0  0  0  0  0
  -22.1403  -13.9721   20.7746 O   0  0  0  0  0  0  0  0  0  0  0  0
  -26.1421  -31.3381   23.1446 O   0  0  0  0  0  0  0  0  0  0  0  0
  -22.1110  -31.9057   22.4239 O   0  0  0  0  0  0  0  0  0  0  0  0
  -21.5594  -27.2291   21.8365 O   0  0  0  0  0  0  0  0  0  0  0  0
  -30.7313  -16.7403   18.6783 O   0  0  0  0  0  0  0  0  0  0  0  0
  -23.8085   -7.2799   24.3827 O   0  0  0  0  0  0  0  0  0  0  0  0
  -28.0952  -26.3515   20.1439 O   0  0  0  0  0  0  0  0  0  1  0  0
  -19.1197   -4.6002   23.2698 F   0  0  0  0  0  0  0  0  0  0  0  0
  -23.8387   -4.6172   23.6396 F   0  0  0  0  0  0  0  0  0  0  0  0
  1  2  1  0  0  0  0
  1  5  2  0  0  0  0
  2  6  2  0  0  0  0
  3  8  2  0  0  0  0
  3 17  1  0  0  0  0
  4  9  1  0  0  0  0
  4 17  2  0  0  0  0
  5 19  1  0  0  0  0
  6 21  1  0  0  0  0
  7 10  2  0  0  0  0
  7 20  1  0  0  0  0
  8 25  1  0  0  0  0
  9 25  2  0  0  0  0
 10 26  1  0  0  0  0
 11 12  2  0  0  0  0
 11 27  1  0  0  0  0
 12 28  1  0  0  0  0
 13 22  1  0  0  0  0
 13 26  2  0  0  0  0
 14 23  2  0  0  0  0
 14 24  1  0  0  0  0
 15 28  2  0  0  0  0
 15 29  1  0  0  0  0
 16 23  1  0  0  0  0
 16 64  2  0  0  0  0
 17 30  1  0  0  0  0
 18 30  1  0  0  0  0
 18 32  2  0  0  0  0
 18 35  1  0  0  0  0
 19 21  2  0  0  0  0
 19 40  1  0  0  0  0
 20 22  2  0  0  0  0
 20 41  1  0  0  0  0
 21 51  1  0  0  0  0
 22 42  1  0  0  0  0
 23 73  1  0  0  0  0
 24 31  2  0  0  0  0
 24 70  1  0  0  0  0
 25 82  1  0  0  0  0
 26 83  1  0  0  0  0
 27 29  2  0  0  0  0
 27 82  1  0  0  0  0
 28 84  1  0  0  0  0
 29 85  1  0  0  0  0
 30 65  2  0  0  0  0
 31 64  1  0  0  0  0
 31 67  1  0  0  0  0
 32 66  1  0  0  0  0
 32 71  1  0  0  0  0
 33 34  2  0  0  0  0
 33 43  1  0  0  0  0
 33 52  1  0  0  0  0
 34 83  1  0  0  0  0
 35 72  1  0  0  0  0
 35 77  2  0  0  0  0
 36 53  1  0  0  0  0
 36 74  1  0  0  0  0
 36 78  2  0  0  0  0
 37 61  1  0  0  0  0
 37 68  1  0  0  0  0
 37 79  2  0  0  0  0
 38 62  1  0  0  0  0
 38 75  1  0  0  0  0
 38 80  2  0  0  0  0
 39 69  1  0  0  0  0
 39 73  1  0  0  0  0
 39 81  2  0  0  0  0
 40 44  1  0  0  0  0
 41 53  1  0  0  0  0
 42 68  1  0  0  0  0
 43 48  1  0  0  0  0
 44 46  1  0  0  0  0
 45 47  1  0  0  0  0
 45 49  1  0  0  0  0
 46 51  1  0  0  0  0
 47 54  1  0  0  0  0
 48 67  1  0  0  0  0
 49 69  1  0  0  0  0
 50 54  1  0  0  0  0
 50 69  1  0  0  0  0
 51 74  1  0  0  0  0
 52 55  1  0  0  0  0
 52 67  1  0  0  0  0
 53 68  1  0  0  0  0
 54 66  1  0  0  0  0
 56 62  1  0  0  0  0
 57 63  1  0  0  0  0
 58 63  1  0  0  0  0
 59 63  1  0  0  0  0
 60 76  1  0  0  0  0
 61 63  1  0  0  0  0
 61 75  1  0  0  0  0
 62 76  1  0  0  0  0
 65 66  1  0  0  0  0
M  CHG  1  76   1
M  ISO  4  34 101  39 100  73 100  83 101
M  END
> <Batch ID>
0101

> <Smiles>
CNC(C)C(=O)NC(C(=O)N1Cc2cc([101O:1][101CH:1]=C3CCN(c4ncc([100NH:0][100C:0](=O)N5CCCC(n6nc(-c7ccc(Oc8ccc(F)cc8F)cc7)c(C(N)=O)c6N)C5)cc4N)C3C)ccc2CC1C(=O)NC1CCCc2ccccc21)C(C)(C)C

> <Shape>
0.368

> <Color>
0.147

> <Negative vol penalty>
0.000

$$$$

  -OEChem-04052301003D

 82 90  0     1  0  0  0  0  0999 V2000
  -17.9932  -16.4399   34.3147 C   0  0  0  0  0  0  0  0  0  0  0  0
  -19.1085  -16.9919   33.6926 C   0  0  0  0  0  0  0  0  0  0  0  0
  -23.0724   -9.8703   19.9431 C   0  0  0  0  0  0  0  0  0  0  0  0
  -23.8351   -9.8783   22.2355 C   0  0  0  0  0  0  0  0  0  0  0  0
  -17.2077  -15.5087   33.6367 C   0  0  0  0  0  0  0  0  0  0  0  0
  -19.4395  -16.6120   32.3924 C   0  0  0  0  0  0  0  0  0  0  0  0
  -21.9198  -20.1407   28.0447 C   0  0  0  0  0  0  0  0  0  0  0  0
  -30.4319  -18.0556   24.0764 C   0  0  0  0  0  0  0  0  0  0  0  0
  -22.3289   -8.7172   20.1944 C   0  0  0  0  0  0  0  0  0  0  0  0
  -23.0916   -8.7252   22.4869 C   0  0  0  0  0  0  0  0  0  0  0  0
  -23.2310  -20.2950   27.5967 C   0  0  0  0  0  0  0  0  0  0  0  0
  -29.6476  -18.8378   24.9241 C   0  0  0  0  0  0  0  0  0  0  0  0
  -19.3826   -7.9209   21.6497 C   0  0  0  0  0  0  0  0  0  0  0  0
  -18.0751   -7.8744   21.1660 C   0  0  0  0  0  0  0  0  0  0  0  0
  -22.8026  -18.7209   25.8196 C   0  0  0  0  0  0  0  0  0  0  0  0
  -28.7249  -18.1910   22.3721 C   0  0  0  0  0  0  0  0  0  0  0  0
  -18.6333   -5.9308   19.8439 C   0  0  0  0  0  0  0  0  0  0  0  0
  -23.8255  -10.4509   20.9636 C   0  0  0  0  0  0  0  0  0  0  0  0
  -24.1670  -12.9760   20.8421 C   0  0  0  0  0  0  0  0  0  0  0  0
  -17.5238  -15.1244   32.3240 C   0  0  0  0  0  0  0  0  0  0  0  0
  -21.0419  -19.2657   27.3890 C   0  0  0  0  0  0  0  0  0  0  0  0
  -18.6582  -15.6737   31.6966 C   0  0  0  0  0  0  0  0  0  0  0  0
  -21.4800  -18.5593   26.2597 C   0  0  0  0  0  0  0  0  0  0  0  0
  -29.9706  -17.7323   22.8003 C   0  0  0  0  0  0  0  0  0  0  0  0
  -27.9405  -18.9732   23.2199 C   0  0  0  0  0  0  0  0  0  0  0  0
  -22.3385   -8.1447   21.4663 C   0  0  0  0  0  0  0  0  0  0  0  0
  -23.6734  -19.5829   26.4857 C   0  0  0  0  0  0  0  0  0  0  0  0
  -28.4019  -19.2965   24.4959 C   0  0  0  0  0  0  0  0  0  0  0  0
  -20.3155   -6.9725   21.2303 C   0  0  0  0  0  0  0  0  0  0  0  0
  -17.7004   -6.8793   20.2632 C   0  0  0  0  0  0  0  0  0  0  0  0
  -19.9409   -5.9774   20.3275 C   0  0  0  0  0  0  0  0  0  0  0  0
  -24.5942  -11.6417   20.7044 C   0  0  0  0  0  0  0  0  0  0  0  0
  -25.2586  -13.7254   20.4772 C   0  0  0  0  0  0  0  0  0  0  0  0
  -22.8969  -13.4919   21.2624 C   0  0  0  0  0  0  0  0  0  0  0  0
  -19.4552  -16.6399   28.2204 C   0  0  0  0  0  0  0  0  0  0  0  0
  -18.1463  -16.9667   25.2704 C   0  0  0  0  0  0  0  0  0  0  0  0
  -18.4187  -18.2016   22.1006 C   0  0  0  0  0  0  0  0  0  0  0  0
  -30.7425  -14.7451   20.6583 C   0  0  0  0  0  0  0  0  0  0  0  0
  -16.6720  -14.0789   31.6487 C   0  0  0  0  0  0  0  0  0  0  0  0
  -19.6227  -19.1307   27.8686 C   0  0  0  0  0  0  0  0  0  0  0  0
  -20.5709  -17.6227   25.5082 C   0  0  0  0  0  0  0  0  0  0  0  0
  -16.8760  -14.0103   30.1374 C   0  0  0  0  0  0  0  0  0  0  0  0
  -29.6022  -12.3595   18.2740 C   0  0  0  0  0  0  0  0  0  0  0  0
  -18.3633  -14.0134   29.7988 C   0  0  0  0  0  0  0  0  0  0  0  0
  -28.1653  -12.0658   18.7088 C   0  0  0  0  0  0  0  0  0  0  0  0
  -30.5207  -12.5809   19.4736 C   0  0  0  0  0  0  0  0  0  0  0  0
  -28.6206  -13.3124   20.8623 C   0  0  0  0  0  0  0  0  0  0  0  0
  -19.0356  -15.3055   30.2781 C   0  0  1  0  0  0  0  0  0  0  0  0
  -18.9669  -17.8236   27.4342 C   0  0  1  0  0  0  0  0  0  0  0  0
  -27.6450  -13.1372   19.6859 C   0  0  2  0  0  0  0  0  0  0  0  0
  -17.2076  -18.2741   19.9039 C   0  0  0  0  0  0  0  0  0  0  0  0
  -18.9813  -14.0845   24.7176 C   0  0  0  0  0  0  0  0  0  0  0  0
  -18.6227  -14.5219   22.2787 C   0  0  0  0  0  0  0  0  0  0  0  0
  -16.7088  -14.6933   23.8693 C   0  0  0  0  0  0  0  0  0  0  0  0
  -18.2173  -21.1533   22.1770 C   0  0  0  0  0  0  0  0  0  0  0  0
  -30.8096  -16.8962   21.8943 C   0  0  0  0  0  0  0  0  0  0  0  0
  -25.9429  -20.0460   27.0250 C   0  0  0  0  0  0  0  0  0  1  0  0
  -27.2757  -19.4733   26.5830 C   0  0  0  0  0  0  0  0  0  0  0  0
  -18.4973  -16.4801   23.8851 C   0  0  1  0  0  0  0  0  0  0  0  0
  -17.4416  -18.9747   21.2333 C   0  0  2  0  0  0  0  0  0  0  0  0
  -18.2205  -14.9610   23.7028 C   0  0  0  0  0  0  0  0  0  0  0  0
  -25.8585  -11.5458   20.2846 N   0  0  0  0  0  0  0  0  0  0  0  0
  -26.2351  -12.8294   20.1553 N   0  0  0  0  0  0  0  0  0  0  0  0
  -19.1942  -17.5200   26.0198 N   0  0  0  0  0  0  0  0  0  0  0  0
  -29.9712  -13.6097   20.3599 N   0  0  0  0  0  0  0  0  0  0  0  0
  -26.6817  -19.4312   22.7735 N   0  0  0  0  0  0  0  0  0  0  0  0
  -25.4688  -15.0569   20.4033 N   0  0  0  0  0  0  0  0  0  0  0  0
  -21.8855  -12.5827   21.6013 N   0  0  0  0  0  0  0  0  0  0  0  0
  -18.7363  -16.3961   29.3750 N   0  0  0  0  0  0  0  0  0  0  0  0
  -17.7690  -17.3361   22.9550 N   0  0  0  0  0  0  0  0  0  0  0  0
  -30.1443  -15.6742   21.5007 N   0  0  0  0  0  0  0  0  0  0  0  0
  -17.9639  -20.3430   20.9579 N   0  3  0  0  0  0  0  0  0  0  0  0
  -22.6606  -14.7225   21.3195 O   0  0  0  0  0  0  0  0  0  0  0  0
  -20.4123  -15.9946   27.8091 O   0  0  0  0  0  0  0  0  0  0  0  0
  -16.9836  -16.8665   25.6700 O   0  0  0  0  0  0  0  0  0  0  0  0
  -19.6366  -18.3479   22.0248 O   0  0  0  0  0  0  0  0  0  0  0  0
  -31.8778  -14.9205   20.2033 O   0  0  0  0  0  0  0  0  0  0  0  0
  -21.6130   -7.0196   21.7120 O   0  0  0  0  0  0  0  0  0  0  0  0
  -24.9529  -19.7311   26.0467 O   0  0  0  0  0  0  0  0  0  1  0  0
  -27.6470  -20.0639   25.3434 O   0  0  0  0  0  0  0  0  0  0  0  0
  -16.4444   -6.8338   19.8000 F   0  0  0  0  0  0  0  0  0  0  0  0
  -20.8324   -5.0628   19.9220 F   0  0  0  0  0  0  0  0  0  0  0  0
  1  2  1  0  0  0  0
  1  5  2  0  0  0  0
  2  6  2  0  0  0  0
  3  9  2  0  0  0  0
  3 18  1  0  0  0  0
  4 10  1  0  0  0  0
  4 18  2  0  0  0  0
  5 20  1  0  0  0  0
  6 22  1  0  0  0  0
  7 11  2  0  0  0  0
  7 21  1  0  0  0  0
  8 12  2  0  0  0  0
  8 24  1  0  0  0  0
  9 26  1  0  0  0  0
 10 26  2  0  0  0  0
 11 27  1  0  0  0  0
 12 28  1  0  0  0  0
 13 14  2  0  0  0  0
 13 29  1  0  0  0  0
 14 30  1  0  0  0  0
 15 23  1  0  0  0  0
 15 27  2  0  0  0  0
 16 24  2  0  0  0  0
 16 25  1  0  0  0  0
 17 30  2  0  0  0  0
 17 31  1  0  0  0  0
 18 32  1  0  0  0  0
 19 32  1  0  0  0  0
 19 33  2  0  0  0  0
 19 34  1  0  0  0  0
 20 22  2  0  0  0  0
 20 39  1  0  0  0  0
 21 23  2  0  0  0  0
 21 40  1  0  0  0  0
 22 48  1  0  0  0  0
 23 41  1  0  0  0  0
 24 56  1  0  0  0  0
 25 28  2  0  0  0  0
 25 66  1  0  0  0  0
 26 78  1  0  0  0  0
 27 79  1  0  0  0  0
 28 80  1  0  0  0  0
 29 31  2  0  0  0  0
 29 78  1  0  0  0  0
 30 81  1  0  0  0  0
 31 82  1  0  0  0  0
 32 62  2  0  0  0  0
 33 63  1  0  0  0  0
 33 67  1  0  0  0  0
 34 68  1  0  0  0  0
 34 73  2  0  0  0  0
 35 49  1  0  0  0  0
 35 69  1  0  0  0  0
 35 74  2  0  0  0  0
 36 59  1  0  0  0  0
 36 64  1  0  0  0  0
 36 75  2  0  0  0  0
 37 60  1  0  0  0  0
 37 70  1  0  0  0  0
 37 76  2  0  0  0  0
 38 65  1  0  0  0  0
 38 71  1  0  0  0  0
 38 77  2  0  0  0  0
 39 42  1  0  0  0  0
 40 49  1  0  0  0  0
 41 64  1  0  0  0  0
 42 44  1  0  0  0  0
 43 45  1  0  0  0  0
 43 46  1  0  0  0  0
 44 48  1  0  0  0  0
 45 50  1  0  0  0  0
 46 65  1  0  0  0  0
 47 50  1  0  0  0  0
 47 65  1  0  0  0  0
 48 69  1  0  0  0  0
 49 64  1  0  0  0  0
 50 63  1  0  0  0  0
 51 60  1  0  0  0  0
 52 61  1  0  0  0  0
 53 61  1  0  0  0  0
 54 61  1  0  0  0  0
 55 72  1  0  0  0  0
 56 71  1  0  0  0  0
 57 58  1  0  0  0  0
 57 79  1  0  0  0  0
 58 80  1  0  0  0  0
 59 61  1  0  0  0  0
 59 70  1  0  0  0  0
 60 72  1  0  0  0  0
 62 63  1  0  0  0  0
M  CHG  1  72   1
M  ISO  4  38 100  57 101  71 100  79 101
M  END
> <Batch ID>
0101

> <Smiles>
CNC(C)C(=O)NC(C(=O)N1Cc2cc([101O:1][101CH2:1]COc3ccc(C[100NH:0][100C:0](=O)N4CCCC(n5nc(-c6ccc(Oc7ccc(F)cc7F)cc6)c(C(N)=O)c5N)C4)cc3N)ccc2CC1C(=O)NC1CCCc2ccccc21)C(C)(C)C

> <Shape>
0.148

> <Color>
0.187

> <Negative vol penalty>
0.000

$$$$

  -OEChem-04052301003D

 88 97  0     1  0  0  0  0  0999 V2000
  -32.4479  -29.6539   15.8850 C   0  0  0  0  0  0  0  0  0  0  0  0
  -31.7482  -28.4664   15.6960 C   0  0  0  0  0  0  0  0  0  0  0  0
  -23.1258  -10.0205   19.8647 C   0  0  0  0  0  0  0  0  0  0  0  0
  -23.7756   -9.9098   22.1890 C   0  0  0  0  0  0  0  0  0  0  0  0
  -32.3691  -30.3213   17.1066 C   0  0  0  0  0  0  0  0  0  0  0  0
  -30.9702  -27.9450   16.7291 C   0  0  0  0  0  0  0  0  0  0  0  0
  -25.6859  -24.8985   16.1808 C   0  0  0  0  0  0  0  0  0  0  0  0
  -27.0863  -16.5755   17.7744 C   0  0  0  0  0  0  0  0  0  0  0  0
  -28.0888  -15.6852   17.3898 C   0  0  0  0  0  0  0  0  0  0  0  0
  -22.3446   -8.8766   20.0286 C   0  0  0  0  0  0  0  0  0  0  0  0
  -22.9944   -8.7659   22.3530 C   0  0  0  0  0  0  0  0  0  0  0  0
  -25.3820  -23.5379   16.1924 C   0  0  0  0  0  0  0  0  0  0  0  0
  -19.3132   -8.0921   21.3045 C   0  0  0  0  0  0  0  0  0  0  0  0
  -18.0302   -8.0994   20.7573 C   0  0  0  0  0  0  0  0  0  0  0  0
  -24.8442  -23.6842   18.5394 C   0  0  0  0  0  0  0  0  0  0  0  0
  -26.5779  -14.6702   15.8010 C   0  0  0  0  0  0  0  0  0  0  0  0
  -18.6075   -6.2017   19.3780 C   0  0  0  0  0  0  0  0  0  0  0  0
  -23.8413  -10.5371   20.9449 C   0  0  0  0  0  0  0  0  0  0  0  0
  -24.2462  -13.0557   20.9526 C   0  0  0  0  0  0  0  0  0  0  0  0
  -31.5821  -29.8128   18.1519 C   0  0  0  0  0  0  0  0  0  0  0  0
  -25.5815  -25.6612   17.3529 C   0  0  0  0  0  0  0  0  0  0  0  0
  -30.8819  -28.6054   17.9663 C   0  0  0  0  0  0  0  0  0  0  0  0
  -25.1448  -25.0549   18.5394 C   0  0  0  0  0  0  0  0  0  0  0  0
  -25.8295  -16.5131   17.1724 C   0  0  0  0  0  0  0  0  0  0  0  0
  -27.8346  -14.7326   16.4031 C   0  0  0  0  0  0  0  0  0  0  0  0
  -22.2789   -8.2493   21.2727 C   0  0  0  0  0  0  0  0  0  0  0  0
  -24.9639  -22.9299   17.3725 C   0  0  0  0  0  0  0  0  0  0  0  0
  -20.2434   -7.1396   20.8883 C   0  0  0  0  0  0  0  0  0  0  0  0
  -17.6773   -7.1542   19.7942 C   0  0  0  0  0  0  0  0  0  0  0  0
  -25.5753  -15.5605   16.1857 C   0  0  0  0  0  0  0  0  0  0  0  0
  -19.8906   -6.1944   19.9252 C   0  0  0  0  0  0  0  0  0  0  0  0
  -24.6489  -11.7184   20.7761 C   0  0  0  0  0  0  0  0  0  0  0  0
  -25.3713  -13.7927   20.6740 C   0  0  0  0  0  0  0  0  0  0  0  0
  -23.9204  -19.5809   18.4540 C   0  0  0  0  0  0  0  0  0  0  0  0
  -22.6963  -19.0558   18.6922 C   0  0  0  0  0  0  0  0  0  0  0  0
  -25.0929  -18.7236   18.0372 C   0  0  0  0  0  0  0  0  0  0  0  0
  -22.9694  -13.5846   21.3343 C   0  0  0  0  0  0  0  0  0  0  0  0
  -27.6213  -27.3215   19.1379 C   0  0  0  0  0  0  0  0  0  0  0  0
  -24.9255  -28.1899   20.7193 C   0  0  0  0  0  0  0  0  0  0  0  0
  -21.6929  -27.4727   21.5454 C   0  0  0  0  0  0  0  0  0  0  0  0
  -29.8852  -13.3678   16.8758 C   0  0  0  0  0  0  0  0  0  0  0  0
  -31.5656  -30.5448   19.4704 C   0  0  0  0  0  0  0  0  0  0  0  0
  -25.8872  -27.1335   17.3175 C   0  0  0  0  0  0  0  0  0  0  0  0
  -24.9968  -25.8337   19.8200 C   0  0  0  0  0  0  0  0  0  0  0  0
  -22.4977  -17.5727   18.4547 C   0  0  0  0  0  0  0  0  0  0  0  0
  -30.4209  -30.1218   20.3876 C   0  0  0  0  0  0  0  0  0  0  0  0
  -30.2201  -12.8897   20.5299 C   0  0  0  0  0  0  0  0  0  0  0  0
  -30.3133  -28.6012   20.4407 C   0  0  0  0  0  0  0  0  0  0  0  0
  -28.7889  -12.5790   20.9640 C   0  0  0  0  0  0  0  0  0  0  0  0
  -23.4020  -17.0570   17.3447 C   0  0  0  0  0  0  0  0  0  0  0  0
  -30.4845  -12.4492   19.0933 C   0  0  0  0  0  0  0  0  0  0  0  0
  -28.0824  -12.7087   18.5421 C   0  0  0  0  0  0  0  0  0  0  0  0
  -30.0076  -28.0210   19.0545 C   0  0  1  0  0  0  0  0  0  0  0  0
  -26.2395  -27.7036   18.6880 C   0  0  1  0  0  0  0  0  0  0  0  0
  -27.7789  -13.1795   19.9723 C   0  0  1  0  0  0  0  0  0  0  0  0
  -19.7602  -28.3513   22.8834 C   0  0  0  0  0  0  0  0  0  0  0  0
  -26.2790  -27.2498   23.2872 C   0  0  0  0  0  0  0  0  0  0  0  0
  -24.0317  -27.2540   24.3908 C   0  0  0  0  0  0  0  0  0  0  0  0
  -24.9895  -29.3813   23.5076 C   0  0  0  0  0  0  0  0  0  0  0  0
  -29.0284  -13.5319   14.5800 C   0  0  0  0  0  0  0  0  0  0  0  0
  -19.9879  -27.7174   19.1388 C   0  0  0  0  0  0  0  0  0  0  0  0
  -24.2449  -21.0441   18.6305 C   0  0  0  0  0  0  0  0  0  1  0  0
  -24.1448  -27.6350   21.8862 C   0  0  1  0  0  0  0  0  0  0  0  0
  -20.4347  -28.3217   21.5208 C   0  0  2  0  0  0  0  0  0  0  0  0
  -24.8658  -27.8647   23.2444 C   0  0  0  0  0  0  0  0  0  0  0  0
  -25.9297  -11.6091   20.4133 N   0  0  0  0  0  0  0  0  0  0  0  0
  -26.3415  -12.8872   20.3595 N   0  0  0  0  0  0  0  0  0  0  0  0
  -24.7948  -17.4350   17.5722 N   0  0  0  0  0  0  0  0  0  0  0  0
  -25.3138  -27.2690   19.7359 N   0  0  0  0  0  0  0  0  0  0  0  0
  -29.4805  -12.9794   18.1695 N   0  0  0  0  0  0  0  0  0  0  0  0
  -25.6154  -15.1204   20.6697 N   0  0  0  0  0  0  0  0  0  0  0  0
  -21.9220  -12.6873   21.5836 N   0  0  0  0  0  0  0  0  0  0  0  0
  -28.6084  -28.1982   18.7299 N   0  0  0  0  0  0  0  0  0  0  0  0
  -22.8150  -28.2299   21.8075 N   0  0  0  0  0  0  0  0  0  0  0  0
  -28.8716  -13.8120   16.0056 N   0  0  0  0  0  0  0  0  0  0  0  0
  -19.4642  -27.7808   20.5276 N   0  3  0  0  0  0  0  0  0  0  0  0
  -21.6245  -19.5956   19.0872 O   0  5  0  0  0  0  0  0  0  0  0  0
  -26.2187  -19.2221   18.0851 O   0  0  0  0  0  0  0  0  0  0  0  0
  -22.7589  -14.8171   21.4349 O   0  0  0  0  0  0  0  0  0  0  0  0
  -27.7799  -26.3072   19.8070 O   0  0  0  0  0  0  0  0  0  0  0  0
  -25.1752  -29.3972   20.6781 O   0  0  0  0  0  0  0  0  0  0  0  0
  -21.6809  -26.2585   21.3553 O   0  0  0  0  0  0  0  0  0  0  0  0
  -31.0608  -13.2731   16.5019 O   0  0  0  0  0  0  0  0  0  0  0  0
  -21.5166   -7.1332   21.4330 O   0  0  0  0  0  0  0  0  0  0  0  0
  -24.6673  -21.6019   17.3868 O   0  0  0  0  0  0  0  0  0  1  0  0
  -16.4447   -7.1604   19.2700 F   0  0  0  0  0  0  0  0  0  0  0  0
  -24.3709  -15.4909   15.6006 F   0  0  0  0  0  0  0  0  0  0  0  0
  -20.7796   -5.2761   19.5223 F   0  0  0  0  0  0  0  0  0  0  0  0
  1  2  1  0  0  0  0
  1  5  2  0  0  0  0
  2  6  2  0  0  0  0
  3 10  2  0  0  0  0
  3 18  1  0  0  0  0
  4 11  1  0  0  0  0
  4 18  2  0  0  0  0
  5 20  1  0  0  0  0
  6 22  1  0  0  0  0
  7 12  2  0  0  0  0
  7 21  1  0  0  0  0
  8  9  2  0  0  0  0
  8 24  1  0  0  0  0
  9 25  1  0  0  0  0
 10 26  1  0  0  0  0
 11 26  2  0  0  0  0
 12 27  1  0  0  0  0
 13 14  2  0  0  0  0
 13 28  1  0  0  0  0
 14 29  1  0  0  0  0
 15 23  1  0  0  0  0
 15 27  2  0  0  0  0
 16 25  2  0  0  0  0
 16 30  1  0  0  0  0
 17 29  2  0  0  0  0
 17 31  1  0  0  0  0
 18 32  1  0  0  0  0
 19 32  1  0  0  0  0
 19 33  2  0  0  0  0
 19 37  1  0  0  0  0
 20 22  2  0  0  0  0
 20 42  1  0  0  0  0
 21 23  2  0  0  0  0
 21 43  1  0  0  0  0
 22 53  1  0  0  0  0
 23 44  1  0  0  0  0
 24 30  2  0  0  0  0
 24 68  1  0  0  0  0
 25 75  1  0  0  0  0
 26 84  1  0  0  0  0
 27 85  1  0  0  0  0
 28 31  2  0  0  0  0
 28 84  1  0  0  0  0
 29 86  1  0  0  0  0
 30 87  1  0  0  0  0
 31 88  1  0  0  0  0
 32 66  2  0  0  0  0
 33 67  1  0  0  0  0
 33 71  1  0  0  0  0
 34 35  2  0  0  0  0
 34 36  1  0  0  0  0
 34 62  1  0  0  0  0
 35 45  1  0  0  0  0
 35 77  1  0  0  0  0
 36 68  1  0  0  0  0
 36 78  2  0  0  0  0
 37 72  1  0  0  0  0
 37 79  2  0  0  0  0
 38 54  1  0  0  0  0
 38 73  1  0  0  0  0
 38 80  2  0  0  0  0
 39 63  1  0  0  0  0
 39 69  1  0  0  0  0
 39 81  2  0  0  0  0
 40 64  1  0  0  0  0
 40 74  1  0  0  0  0
 40 82  2  0  0  0  0
 41 70  1  0  0  0  0
 41 75  1  0  0  0  0
 41 83  2  0  0  0  0
 42 46  1  0  0  0  0
 43 54  1  0  0  0  0
 44 69  1  0  0  0  0
 45 50  1  0  0  0  0
 46 48  1  0  0  0  0
 47 49  1  0  0  0  0
 47 51  1  0  0  0  0
 48 53  1  0  0  0  0
 49 55  1  0  0  0  0
 50 68  1  0  0  0  0
 51 70  1  0  0  0  0
 52 55  1  0  0  0  0
 52 70  1  0  0  0  0
 53 73  1  0  0  0  0
 54 69  1  0  0  0  0
 55 67  1  0  0  0  0
 56 64  1  0  0  0  0
 57 65  1  0  0  0  0
 58 65  1  0  0  0  0
 59 65  1  0  0  0  0
 60 75  1  0  0  0  0
 61 76  1  0  0  0  0
 62 85  1  0  0  0  0
 63 65  1  0  0  0  0
 63 74  1  0  0  0  0
 64 76  1  0  0  0  0
 66 67  1  0  0  0  0
M  CHG  2  76   1  77  -1
M  ISO  4  41 100  62 101  75 100  85 101
M  END
> <Batch ID>
0101

> <Smiles>
CNC(C)C(=O)NC(C(=O)N1Cc2cc([101O:1][101CH2:1]C3C(=O)CCN(c4ccc([100N:0](C)[100C:0](=O)N5CCCC(n6nc(-c7ccc(Oc8ccc(F)cc8F)cc7)c(C(N)=O)c6N)C5)cc4F)C3=O)ccc2CC1C(=O)NC1CCCc2ccccc21)C(C)(C)C

> <Shape>
0.201

> <Color>
0.182

> <Negative vol penalty>
0.000

$$$$

  -OEChem-04052301003D

 85 93  0     1  0  0  0  0  0999 V2000
  -17.4155  -23.7505   24.5068 C   0  0  0  0  0  0  0  0  0  0  0  0
  -18.5103  -22.9449   24.2101 C   0  0  0  0  0  0  0  0  0  0  0  0
  -22.2757  -21.9810   18.8462 C   0  0  0  0  0  0  0  0  0  0  0  0
  -23.9432   -9.7845   22.1076 C   0  0  0  0  0  0  0  0  0  0  0  0
  -22.4076  -10.3617   20.3340 C   0  0  0  0  0  0  0  0  0  0  0  0
  -17.2698  -24.9862   23.8777 C   0  0  0  0  0  0  0  0  0  0  0  0
  -19.4595  -23.3742   23.2832 C   0  0  0  0  0  0  0  0  0  0  0  0
  -26.4733  -22.9742   21.8819 C   0  0  0  0  0  0  0  0  0  0  0  0
  -22.9290  -21.8726   17.6186 C   0  0  0  0  0  0  0  0  0  0  0  0
  -22.4331  -20.9854   19.8104 C   0  0  0  0  0  0  0  0  0  0  0  0
  -23.4314   -8.4871   22.1286 C   0  0  0  0  0  0  0  0  0  0  0  0
  -21.8958   -9.0643   20.3549 C   0  0  0  0  0  0  0  0  0  0  0  0
  -27.3479  -22.6398   20.8490 C   0  0  0  0  0  0  0  0  0  0  0  0
  -20.7114   -6.9026   23.3596 C   0  0  0  0  0  0  0  0  0  0  0  0
  -20.4348   -6.3358   24.6037 C   0  0  0  0  0  0  0  0  0  0  0  0
  -27.0344  -24.8281   19.8833 C   0  0  0  0  0  0  0  0  0  0  0  0
  -23.8972  -19.7729   18.3194 C   0  0  0  0  0  0  0  0  0  0  0  0
  -22.0037   -4.5574   24.1423 C   0  0  0  0  0  0  0  0  0  0  0  0
  -23.4313  -10.7218   21.2104 C   0  0  0  0  0  0  0  0  0  0  0  0
  -25.0331  -12.5406   20.4142 C   0  0  0  0  0  0  0  0  0  0  0  0
  -18.2228  -25.4351   22.9499 C   0  0  0  0  0  0  0  0  0  0  0  0
  -25.8632  -24.2363   21.9175 C   0  0  0  0  0  0  0  0  0  0  0  0
  -19.3258  -24.6165   22.6402 C   0  0  0  0  0  0  0  0  0  0  0  0
  -26.1544  -25.1769   20.9192 C   0  0  0  0  0  0  0  0  0  0  0  0
  -23.7397  -20.7685   17.3552 C   0  0  0  0  0  0  0  0  0  0  0  0
  -23.2439  -19.8814   19.5470 C   0  0  0  0  0  0  0  0  0  0  0  0
  -22.4077   -8.1270   21.2522 C   0  0  0  0  0  0  0  0  0  0  0  0
  -27.6263  -23.5657   19.8479 C   0  0  0  0  0  0  0  0  0  0  0  0
  -21.6341   -6.2967   22.5067 C   0  0  0  0  0  0  0  0  0  0  0  0
  -21.0809   -5.1632   24.9951 C   0  0  0  0  0  0  0  0  0  0  0  0
  -22.2802   -5.1241   22.8981 C   0  0  0  0  0  0  0  0  0  0  0  0
  -23.9592  -12.0623   21.1886 C   0  0  0  0  0  0  0  0  0  0  0  0
  -25.1376  -13.8672   20.7543 C   0  0  0  0  0  0  0  0  0  0  0  0
  -25.9500  -20.6563   16.2335 C   0  0  0  0  0  0  0  0  0  0  0  0
  -25.8620  -11.8476   19.4716 C   0  0  0  0  0  0  0  0  0  0  0  0
  -22.8634  -25.2816   21.8060 C   0  0  0  0  0  0  0  0  0  0  0  0
  -24.2542  -28.1540   22.3869 C   0  0  0  0  0  0  0  0  0  0  0  0
  -27.0456  -30.1096   22.2124 C   0  0  0  0  0  0  0  0  0  0  0  0
  -22.8276  -18.8252   21.7959 C   0  0  0  0  0  0  0  0  0  0  0  0
  -17.9979  -26.7574   22.2603 C   0  0  0  0  0  0  0  0  0  0  0  0
  -24.9428  -24.5910   23.0531 C   0  0  0  0  0  0  0  0  0  0  0  0
  -25.5412  -26.5525   20.9226 C   0  0  0  0  0  0  0  0  0  0  0  0
  -19.2445  -27.3037   21.5690 C   0  0  0  0  0  0  0  0  0  0  0  0
  -22.9453  -16.4940   24.4846 C   0  0  0  0  0  0  0  0  0  0  0  0
  -19.9273  -26.2084   20.7561 C   0  0  0  0  0  0  0  0  0  0  0  0
  -23.3079  -15.1726   23.8031 C   0  0  0  0  0  0  0  0  0  0  0  0
  -22.0167  -17.3429   23.6180 C   0  0  0  0  0  0  0  0  0  0  0  0
  -22.8555  -16.2633   21.5686 C   0  0  0  0  0  0  0  0  0  0  0  0
  -20.3897  -25.0583   21.6588 C   0  0  1  0  0  0  0  0  0  0  0  0
  -23.9794  -25.7231   22.7101 C   0  0  1  0  0  0  0  0  0  0  0  0
  -23.8413  -15.4026   22.3754 C   0  0  2  0  0  0  0  0  0  0  0  0
  -22.5341  -19.3674   14.9432 C   0  0  0  0  0  0  0  0  0  0  0  0
  -27.8647  -32.4243   22.7303 C   0  0  0  0  0  0  0  0  0  0  0  0
  -22.7885  -29.2193   19.9319 C   0  0  0  0  0  0  0  0  0  0  0  0
  -24.3415  -31.1830   19.9432 C   0  0  0  0  0  0  0  0  0  0  0  0
  -22.8265  -30.7822   21.8840 C   0  0  0  0  0  0  0  0  0  0  0  0
  -29.0765  -29.0918   24.1094 C   0  0  0  0  0  0  0  0  0  0  0  0
  -24.0293  -19.3930   15.2389 C   0  0  0  0  0  0  0  0  0  0  0  0
  -28.7396  -22.9259   16.4737 C   0  0  0  0  0  0  0  0  0  0  0  0
  -28.0321  -21.5783   16.4916 C   0  0  0  0  0  0  0  0  0  0  0  0
  -28.2536  -23.8625   17.5732 C   0  0  0  0  0  0  0  0  0  1  0  0
  -24.4506  -20.6509   16.0189 C   0  0  1  0  0  0  0  0  0  0  0  0
  -24.8159  -29.2626   21.5300 C   0  0  1  0  0  0  0  0  0  0  0  0
  -27.7178  -30.9998   23.2420 C   0  0  2  0  0  0  0  0  0  0  0  0
  -23.7034  -30.0853   20.8208 C   0  0  0  0  0  0  0  0  0  0  0  0
  -23.4201  -13.0081   21.9625 N   0  0  0  0  0  0  0  0  0  0  0  0
  -26.5973  -21.7681   16.2729 N   0  0  0  0  0  0  0  0  0  0  0  0
  -24.1583  -14.0940   21.6761 N   0  0  0  0  0  0  0  0  0  0  0  0
  -24.6429  -26.8496   22.0506 N   0  0  0  0  0  0  0  0  0  0  0  0
  -22.5889  -17.5223   22.2819 N   0  0  0  0  0  0  0  0  0  0  0  0
  -25.9708  -14.8501   20.3518 N   0  0  0  0  0  0  0  0  0  0  0  0
  -25.6180  -10.4869   19.2411 N   0  0  0  0  0  0  0  0  0  0  0  0
  -23.4041  -18.8706   20.5270 N   0  0  0  0  0  0  0  0  0  0  0  0
  -21.6041  -25.4211   22.3575 N   0  0  0  0  0  0  0  0  0  0  0  0
  -25.6807  -30.0526   22.3997 N   0  0  0  0  0  0  0  0  0  0  0  0
  -29.0737  -30.4770   23.5725 N   0  3  0  0  0  0  0  0  0  0  0  0
  -26.8021  -12.4143   18.8644 O   0  0  0  0  0  0  0  0  0  0  0  0
  -23.1254  -24.8480   20.6902 O   0  0  0  0  0  0  0  0  0  0  0  0
  -23.5039  -28.4356   23.3247 O   0  0  0  0  0  0  0  0  0  0  0  0
  -27.6685  -29.5263   21.3279 O   0  0  0  0  0  0  0  0  0  0  0  0
  -22.5667  -19.8264   22.4678 O   0  0  0  0  0  0  0  0  0  0  0  0
  -21.9082   -6.8610   21.2722 O   0  0  0  0  0  0  0  0  0  0  0  0
  -28.4791  -23.2417   18.8381 O   0  0  0  0  0  0  0  0  0  1  0  0
  -20.8163   -4.6200   26.1905 F   0  0  0  0  0  0  0  0  0  0  0  0
  -23.1685   -4.5381   22.0837 F   0  0  0  0  0  0  0  0  0  0  0  0
  1  2  1  0  0  0  0
  1  6  2  0  0  0  0
  2  7  2  0  0  0  0
  3  9  2  0  0  0  0
  3 10  1  0  0  0  0
  4 11  2  0  0  0  0
  4 19  1  0  0  0  0
  5 12  1  0  0  0  0
  5 19  2  0  0  0  0
  6 21  1  0  0  0  0
  7 23  1  0  0  0  0
  8 13  2  0  0  0  0
  8 22  1  0  0  0  0
  9 25  1  0  0  0  0
 10 26  2  0  0  0  0
 11 27  1  0  0  0  0
 12 27  2  0  0  0  0
 13 28  1  0  0  0  0
 14 15  2  0  0  0  0
 14 29  1  0  0  0  0
 15 30  1  0  0  0  0
 16 24  1  0  0  0  0
 16 28  2  0  0  0  0
 17 25  2  0  0  0  0
 17 26  1  0  0  0  0
 18 30  2  0  0  0  0
 18 31  1  0  0  0  0
 19 32  1  0  0  0  0
 20 32  1  0  0  0  0
 20 33  2  0  0  0  0
 20 35  1  0  0  0  0
 21 23  2  0  0  0  0
 21 40  1  0  0  0  0
 22 24  2  0  0  0  0
 22 41  1  0  0  0  0
 23 49  1  0  0  0  0
 24 42  1  0  0  0  0
 25 62  1  0  0  0  0
 26 73  1  0  0  0  0
 27 82  1  0  0  0  0
 28 83  1  0  0  0  0
 29 31  2  0  0  0  0
 29 82  1  0  0  0  0
 30 84  1  0  0  0  0
 31 85  1  0  0  0  0
 32 66  2  0  0  0  0
 33 68  1  0  0  0  0
 33 71  1  0  0  0  0
 34 62  1  0  0  0  0
 34 67  2  0  0  0  0
 35 72  1  0  0  0  0
 35 77  2  0  0  0  0
 36 50  1  0  0  0  0
 36 74  1  0  0  0  0
 36 78  2  0  0  0  0
 37 63  1  0  0  0  0
 37 69  1  0  0  0  0
 37 79  2  0  0  0  0
 38 64  1  0  0  0  0
 38 75  1  0  0  0  0
 38 80  2  0  0  0  0
 39 70  1  0  0  0  0
 39 73  1  0  0  0  0
 39 81  2  0  0  0  0
 40 43  1  0  0  0  0
 41 50  1  0  0  0  0
 42 69  1  0  0  0  0
 43 45  1  0  0  0  0
 44 46  1  0  0  0  0
 44 47  1  0  0  0  0
 45 49  1  0  0  0  0
 46 51  1  0  0  0  0
 47 70  1  0  0  0  0
 48 51  1  0  0  0  0
 48 70  1  0  0  0  0
 49 74  1  0  0  0  0
 50 69  1  0  0  0  0
 51 68  1  0  0  0  0
 52 58  1  0  0  0  0
 53 64  1  0  0  0  0
 54 65  1  0  0  0  0
 55 65  1  0  0  0  0
 56 65  1  0  0  0  0
 57 76  1  0  0  0  0
 58 62  1  0  0  0  0
 59 60  1  0  0  0  0
 59 61  1  0  0  0  0
 60 67  1  0  0  0  0
 61 83  1  0  0  0  0
 63 65  1  0  0  0  0
 63 75  1  0  0  0  0
 64 76  1  0  0  0  0
 66 68  1  0  0  0  0
M  CHG  1  76   1
M  ISO  4  39 100  61 101  73 100  83 101
M  END
> <Batch ID>
0101

> <Smiles>
CCC(C=NCC[101CH2:1][101O:1]c1ccc2c(c1)CN(C(=O)C(NC(=O)C(C)NC)C(C)(C)C)C(C(=O)NC1CCCc3ccccc31)C2)c1cccc([100NH:0][100C:0](=O)N2CCCC(n3nc(-c4ccc(Oc5ccc(F)cc5F)cc4)c(C(N)=O)c3N)C2)c1

> <Shape>
0.218

> <Color>
0.113

> <Negative vol penalty>
0.000

$$$$

  -OEChem-04052301003D

 87 96  0     1  0  0  0  0  0999 V2000
  -23.1606  -34.8029   14.6537 C   0  0  0  0  0  0  0  0  0  0  0  0
  -24.0361  -33.7583   14.9322 C   0  0  0  0  0  0  0  0  0  0  0  0
  -24.3304   -9.6269   21.4794 C   0  0  0  0  0  0  0  0  0  0  0  0
  -24.8785  -10.7879   23.5261 C   0  0  0  0  0  0  0  0  0  0  0  0
  -22.7093  -35.6263   15.6843 C   0  0  0  0  0  0  0  0  0  0  0  0
  -24.4617  -33.5371   16.2416 C   0  0  0  0  0  0  0  0  0  0  0  0
  -25.6512  -28.1313   18.8624 C   0  0  0  0  0  0  0  0  0  0  0  0
  -24.0091   -8.4850   22.2132 C   0  0  0  0  0  0  0  0  0  0  0  0
  -24.5571   -9.6460   24.2599 C   0  0  0  0  0  0  0  0  0  0  0  0
  -26.8409  -27.4412   19.0907 C   0  0  0  0  0  0  0  0  0  0  0  0
  -21.4150   -7.3664   24.0714 C   0  0  0  0  0  0  0  0  0  0  0  0
  -20.2401   -6.6919   23.7395 C   0  0  0  0  0  0  0  0  0  0  0  0
  -30.2784  -19.4528   20.5779 C   0  0  0  0  0  0  0  0  0  0  0  0
  -26.9254  -28.3392   21.3280 C   0  0  0  0  0  0  0  0  0  0  0  0
  -28.1140  -21.0109   21.3966 C   0  0  0  0  0  0  0  0  0  0  0  0
  -21.5211   -4.7044   23.2434 C   0  0  0  0  0  0  0  0  0  0  0  0
  -24.7652  -10.7783   22.1358 C   0  0  0  0  0  0  0  0  0  0  0  0
  -30.4866  -20.7607   21.0156 C   0  0  0  0  0  0  0  0  0  0  0  0
  -24.2324  -13.0072   21.0152 C   0  0  0  0  0  0  0  0  0  0  0  0
  -23.1219  -35.4091   17.0084 C   0  0  0  0  0  0  0  0  0  0  0  0
  -25.0945  -28.9406   19.8631 C   0  0  0  0  0  0  0  0  0  0  0  0
  -24.0165  -34.3591   17.2907 C   0  0  0  0  0  0  0  0  0  0  0  0
  -25.7272  -29.0366   21.1107 C   0  0  0  0  0  0  0  0  0  0  0  0
  -29.4045  -21.5398   21.4250 C   0  0  0  0  0  0  0  0  0  0  0  0
  -28.9880  -18.9239   20.5494 C   0  0  0  0  0  0  0  0  0  0  0  0
  -27.9058  -19.7030   20.9588 C   0  0  0  0  0  0  0  0  0  0  0  0
  -24.1223   -8.4946   23.6034 C   0  0  0  0  0  0  0  0  0  0  0  0
  -27.4797  -27.5473   20.3227 C   0  0  0  0  0  0  0  0  0  0  0  0
  -22.6431   -6.7099   23.9892 C   0  0  0  0  0  0  0  0  0  0  0  0
  -20.2931   -5.3610   23.3255 C   0  0  0  0  0  0  0  0  0  0  0  0
  -22.6960   -5.3789   23.5753 C   0  0  0  0  0  0  0  0  0  0  0  0
  -25.0979  -11.9580   21.3783 C   0  0  0  0  0  0  0  0  0  0  0  0
  -25.0259  -13.8782   20.3095 C   0  0  0  0  0  0  0  0  0  0  0  0
  -31.8467  -21.2845   21.0326 C   0  0  0  0  0  0  0  0  0  0  0  0
  -22.8359  -13.1791   21.2911 C   0  0  0  0  0  0  0  0  0  0  0  0
  -24.4371  -32.0386   20.1352 C   0  0  0  0  0  0  0  0  0  0  0  0
  -23.0709  -31.1053   22.9253 C   0  0  0  0  0  0  0  0  0  0  0  0
  -22.9108  -28.8129   25.4484 C   0  0  0  0  0  0  0  0  0  0  0  0
  -29.7804  -16.7031   19.6626 C   0  0  0  0  0  0  0  0  0  0  0  0
  -22.6444  -36.3546   18.0820 C   0  0  0  0  0  0  0  0  0  0  0  0
  -23.7966  -29.6574   19.6101 C   0  0  0  0  0  0  0  0  0  0  0  0
  -25.1600  -29.8762   22.2251 C   0  0  0  0  0  0  0  0  0  0  0  0
  -22.8485  -35.8217   19.4978 C   0  0  0  0  0  0  0  0  0  0  0  0
  -29.7266  -13.3339   18.5125 C   0  0  0  0  0  0  0  0  0  0  0  0
  -24.2542  -35.2509   19.6559 C   0  0  0  0  0  0  0  0  0  0  0  0
  -28.4464  -12.7619   19.1257 C   0  0  0  0  0  0  0  0  0  0  0  0
  -30.0704  -24.6684   23.2574 C   0  0  0  0  0  0  0  0  0  0  0  0
  -30.4215  -14.3109   19.4593 C   0  0  0  0  0  0  0  0  0  0  0  0
  -30.4159  -23.2019   23.0074 C   0  0  0  0  0  0  0  0  0  0  0  0
  -28.9772  -24.0051   21.2347 C   0  0  0  0  0  0  0  0  0  0  0  0
  -28.2894  -14.8204   20.5835 C   0  0  0  0  0  0  0  0  0  0  0  0
  -24.4814  -34.0720   18.7019 C   0  0  1  0  0  0  0  0  0  0  0  0
  -23.5901  -30.8604   20.5253 C   0  0  1  0  0  0  0  0  0  0  0  0
  -29.7225  -25.1869   21.8651 C   0  0  1  0  0  0  0  0  0  0  0  0
  -27.5198  -13.8805   19.6411 C   0  0  2  0  0  0  0  0  0  0  0  0
  -21.7241  -28.3406   27.6085 C   0  0  0  0  0  0  0  0  0  0  0  0
  -24.7797  -33.2122   24.3220 C   0  0  0  0  0  0  0  0  0  0  0  0
  -24.2823  -32.0741   26.4958 C   0  0  0  0  0  0  0  0  0  0  0  0
  -22.4258  -33.0600   25.1527 C   0  0  0  0  0  0  0  0  0  0  0  0
  -21.7765  -26.2855   24.4070 C   0  0  0  0  0  0  0  0  0  0  0  0
  -28.9058  -26.4670   21.8895 C   0  0  0  0  0  0  0  0  0  1  0  0
  -23.5490  -30.9427   24.3480 C   0  0  1  0  0  0  0  0  0  0  0  0
  -21.7315  -28.1175   26.1042 C   0  0  2  0  0  0  0  0  0  0  0  0
  -23.7712  -32.3079   25.0582 C   0  0  0  0  0  0  0  0  0  0  0  0
  -26.3457  -12.1436   20.9395 N   0  0  0  0  0  0  0  0  0  0  0  0
  -26.2700  -13.3195   20.2932 N   0  0  0  0  0  0  0  0  0  0  0  0
  -29.5897  -22.8349   21.8600 N   0  0  3  0  0  0  0  0  0  0  0  0
  -23.8923  -30.5628   21.9269 N   0  0  0  0  0  0  0  0  0  0  0  0
  -29.4839  -15.3448   19.9030 N   0  0  0  0  0  0  0  0  0  0  0  0
  -26.5902  -19.1877   20.9376 N   0  0  0  0  0  0  0  0  0  0  0  0
  -24.7739  -15.0600   19.7074 N   0  0  0  0  0  0  0  0  0  0  0  0
  -32.3050  -21.9249   19.8867 N   0  0  0  0  0  0  0  0  0  0  0  0
  -22.1739  -12.1886   22.0293 N   0  0  0  0  0  0  0  0  0  0  0  0
  -28.8002  -17.5934   20.1000 N   0  0  0  0  0  0  0  0  0  0  0  0
  -23.8424  -32.8781   19.2127 N   0  0  0  0  0  0  0  0  0  0  0  0
  -22.5783  -30.0766   25.0084 N   0  0  0  0  0  0  0  0  0  0  0  0
  -21.7867  -26.6506   25.8470 N   0  3  0  0  0  0  0  0  0  0  0  0
  -32.5774  -21.1498   22.0277 O   0  0  0  0  0  0  0  0  0  0  0  0
  -22.1905  -14.1733   20.8806 O   0  0  0  0  0  0  0  0  0  0  0  0
  -25.5473  -32.1766   20.6353 O   0  0  0  0  0  0  0  0  0  0  0  0
  -22.0043  -31.6857   22.7084 O   0  0  0  0  0  0  0  0  0  0  0  0
  -24.0174  -28.2890   25.3409 O   0  0  0  0  0  0  0  0  0  0  0  0
  -30.8141  -17.0494   19.0852 O   0  0  0  0  0  0  0  0  0  0  0  0
  -23.8086   -7.3806   24.3198 O   0  0  0  0  0  0  0  0  0  0  0  0
  -28.6414  -26.8753   20.5480 O   0  0  0  0  0  0  0  0  0  1  0  0
  -19.1645   -4.7129   23.0083 F   0  0  0  0  0  0  0  0  0  0  0  0
  -23.8727   -4.7426   23.4956 F   0  0  0  0  0  0  0  0  0  0  0  0
  1  2  1  0  0  0  0
  1  5  2  0  0  0  0
  2  6  2  0  0  0  0
  3  8  2  0  0  0  0
  3 17  1  0  0  0  0
  4  9  1  0  0  0  0
  4 17  2  0  0  0  0
  5 20  1  0  0  0  0
  6 22  1  0  0  0  0
  7 10  2  0  0  0  0
  7 21  1  0  0  0  0
  8 27  1  0  0  0  0
  9 27  2  0  0  0  0
 10 28  1  0  0  0  0
 11 12  2  0  0  0  0
 11 29  1  0  0  0  0
 12 30  1  0  0  0  0
 13 18  1  0  0  0  0
 13 25  2  0  0  0  0
 14 23  1  0  0  0  0
 14 28  2  0  0  0  0
 15 24  1  0  0  0  0
 15 26  2  0  0  0  0
 16 30  2  0  0  0  0
 16 31  1  0  0  0  0
 17 32  1  0  0  0  0
 18 24  2  0  0  0  0
 18 34  1  0  0  0  0
 19 32  1  0  0  0  0
 19 33  2  0  0  0  0
 19 35  1  0  0  0  0
 20 22  2  0  0  0  0
 20 40  1  0  0  0  0
 21 23  2  0  0  0  0
 21 41  1  0  0  0  0
 22 52  1  0  0  0  0
 23 42  1  0  0  0  0
 24 67  1  0  0  0  0
 25 26  1  0  0  0  0
 25 74  1  0  0  0  0
 26 70  1  0  0  0  0
 27 84  1  0  0  0  0
 28 85  1  0  0  0  0
 29 31  2  0  0  0  0
 29 84  1  0  0  0  0
 30 86  1  0  0  0  0
 31 87  1  0  0  0  0
 32 65  2  0  0  0  0
 33 66  1  0  0  0  0
 33 71  1  0  0  0  0
 34 72  1  0  0  0  0
 34 78  2  0  0  0  0
 35 73  1  0  0  0  0
 35 79  2  0  0  0  0
 36 53  1  0  0  0  0
 36 75  1  0  0  0  0
 36 80  2  0  0  0  0
 37 62  1  0  0  0  0
 37 68  1  0  0  0  0
 37 81  2  0  0  0  0
 38 63  1  0  0  0  0
 38 76  1  0  0  0  0
 38 82  2  0  0  0  0
 39 69  1  0  0  0  0
 39 74  1  0  0  0  0
 39 83  2  0  0  0  0
 40 43  1  0  0  0  0
 41 53  1  0  0  0  0
 42 68  1  0  0  0  0
 43 45  1  0  0  0  0
 44 46  1  0  0  0  0
 44 48  1  0  0  0  0
 45 52  1  0  0  0  0
 46 55  1  0  0  0  0
 47 49  1  0  0  0  0
 47 54  1  0  0  0  0
 48 69  1  0  0  0  0
 49 67  1  0  0  0  0
 50 54  1  0  0  0  0
 50 67  1  0  0  0  0
 51 55  1  0  0  0  0
 51 69  1  0  0  0  0
 52 75  1  0  0  0  0
 53 68  1  0  0  0  0
 54 61  1  0  0  0  0
 55 66  1  0  0  0  0
 56 63  1  0  0  0  0
 57 64  1  0  0  0  0
 58 64  1  0  0  0  0
 59 64  1  0  0  0  0
 60 77  1  0  0  0  0
 61 85  1  0  0  0  0
 62 64  1  0  0  0  0
 62 76  1  0  0  0  0
 63 77  1  0  0  0  0
 65 66  1  0  0  0  0
M  CHG  1  77   1
M  ISO  4  39 100  61 101  74 100  85 101
M  END
> <Batch ID>
0101

> <Smiles>
CNC(C)C(=O)NC(C(=O)N1Cc2cc([101O:1][101CH2:1]C3CCN(c4cc(N)c([100NH:0][100C:0](=O)N5CCCC(n6nc(-c7ccc(Oc8ccc(F)cc8F)cc7)c(C(N)=O)c6N)C5)cc4C(N)=O)C3)ccc2CC1C(=O)NC1CCCc2ccccc21)C(C)(C)C

> <Shape>
0.273

> <Color>
0.140

> <Negative vol penalty>
0.000

$$$$

  -OEChem-04052301003D

 86 94  0     1  0  0  0  0  0999 V2000
  -24.9777  -18.2882   26.1935 C   0  0  0  0  0  0  0  0  0  0  0  0
  -25.5666  -19.3766   25.5600 C   0  0  0  0  0  0  0  0  0  0  0  0
  -22.8438  -10.9350   19.1571 C   0  0  0  0  0  0  0  0  0  0  0  0
  -23.2894   -9.6831   21.1749 C   0  0  0  0  0  0  0  0  0  0  0  0
  -23.5917  -18.1457   26.1815 C   0  0  0  0  0  0  0  0  0  0  0  0
  -24.7693  -20.3292   24.9246 C   0  0  0  0  0  0  0  0  0  0  0  0
  -27.0275  -24.3507   23.2124 C   0  0  0  0  0  0  0  0  0  0  0  0
  -21.9181   -9.9692   18.7624 C   0  0  0  0  0  0  0  0  0  0  0  0
  -22.3637   -8.7173   20.7802 C   0  0  0  0  0  0  0  0  0  0  0  0
  -27.8586  -24.3296   22.0932 C   0  0  0  0  0  0  0  0  0  0  0  0
  -19.0043   -8.3504   20.7607 C   0  0  0  0  0  0  0  0  0  0  0  0
  -18.1022   -7.8893   21.7195 C   0  0  0  0  0  0  0  0  0  0  0  0
  -28.7922  -19.7755   19.0072 C   0  0  0  0  0  0  0  0  0  0  0  0
  -26.1003  -25.3261   20.7762 C   0  0  0  0  0  0  0  0  0  0  0  0
  -27.0006  -19.7312   21.1452 C   0  0  0  0  0  0  0  0  0  0  0  0
  -18.9498   -5.6445   21.4375 C   0  0  0  0  0  0  0  0  0  0  0  0
  -23.5295  -10.7919   20.3634 C   0  0  0  0  0  0  0  0  0  0  0  0
  -28.8677  -18.7591   19.9594 C   0  0  0  0  0  0  0  0  0  0  0  0
  -24.2377  -12.9410   21.5414 C   0  0  0  0  0  0  0  0  0  0  0  0
  -22.7786  -19.0909   25.5347 C   0  0  0  0  0  0  0  0  0  0  0  0
  -25.7206  -24.8505   23.1191 C   0  0  0  0  0  0  0  0  0  0  0  0
  -23.3673  -20.2158   24.9220 C   0  0  0  0  0  0  0  0  0  0  0  0
  -25.2555  -25.3548   21.8962 C   0  0  0  0  0  0  0  0  0  0  0  0
  -27.9719  -18.7369   21.0284 C   0  0  0  0  0  0  0  0  0  0  0  0
  -21.6780   -8.8604   19.5739 C   0  0  0  0  0  0  0  0  0  0  0  0
  -27.3941  -24.8146   20.8742 C   0  0  0  0  0  0  0  0  0  0  0  0
  -19.8790   -7.4585   20.1402 C   0  0  0  0  0  0  0  0  0  0  0  0
  -27.8210  -20.7699   19.1240 C   0  0  0  0  0  0  0  0  0  0  0  0
  -26.9252  -20.7477   20.1930 C   0  0  0  0  0  0  0  0  0  0  0  0
  -18.0750   -6.5364   22.0579 C   0  0  0  0  0  0  0  0  0  0  0  0
  -19.8518   -6.1056   20.4786 C   0  0  0  0  0  0  0  0  0  0  0  0
  -24.4863  -11.7890   20.7715 C   0  0  0  0  0  0  0  0  0  0  0  0
  -25.4629  -13.5520   21.6508 C   0  0  0  0  0  0  0  0  0  0  0  0
  -29.9128  -17.7146   19.8055 C   0  0  0  0  0  0  0  0  0  0  0  0
  -23.0090  -13.4164   22.1071 C   0  0  0  0  0  0  0  0  0  0  0  0
  -22.8165  -23.6286   23.5393 C   0  0  0  0  0  0  0  0  0  0  0  0
  -21.8835  -26.7036   23.0958 C   0  0  0  0  0  0  0  0  0  0  0  0
  -22.5728  -29.7809   21.7913 C   0  0  0  0  0  0  0  0  0  0  0  0
  -30.2565  -15.2857   19.4797 C   0  0  0  0  0  0  0  0  0  0  0  0
  -21.2836  -18.8919   25.5591 C   0  0  0  0  0  0  0  0  0  0  0  0
  -24.8458  -24.8910   24.3420 C   0  0  0  0  0  0  0  0  0  0  0  0
  -23.8676  -25.9207   21.7482 C   0  0  0  0  0  0  0  0  0  0  0  0
  -20.5582  -19.7032   24.4906 C   0  0  0  0  0  0  0  0  0  0  0  0
  -30.0946  -11.8903   20.4505 C   0  0  0  0  0  0  0  0  0  0  0  0
  -21.0274  -21.1500   24.5288 C   0  0  0  0  0  0  0  0  0  0  0  0
  -28.6012  -11.6548   20.6926 C   0  0  0  0  0  0  0  0  0  0  0  0
  -30.3372  -12.8177   19.2605 C   0  0  0  0  0  0  0  0  0  0  0  0
  -28.1239  -13.8556   19.5469 C   0  0  0  0  0  0  0  0  0  0  0  0
  -22.5220  -21.2483   24.1983 C   0  0  1  0  0  0  0  0  0  0  0  0
  -23.3578  -24.9487   24.0105 C   0  0  1  0  0  0  0  0  0  0  0  0
  -27.8253  -12.9846   20.7778 C   0  0  1  0  0  0  0  0  0  0  0  0
  -21.6029  -32.0835   21.5571 C   0  0  0  0  0  0  0  0  0  0  0  0
  -20.0042  -25.6877   20.9172 C   0  0  0  0  0  0  0  0  0  0  0  0
  -19.7921  -28.0442   20.0986 C   0  0  0  0  0  0  0  0  0  0  0  0
  -19.0282  -27.4510   22.3980 C   0  0  0  0  0  0  0  0  0  0  0  0
  -24.8125  -31.0028   23.2912 C   0  0  0  0  0  0  0  0  0  0  0  0
  -24.7166  -21.4723   19.6899 C   0  0  0  0  0  0  0  0  0  0  0  0
  -28.5103  -23.9588   17.5375 C   0  0  0  0  0  0  0  0  0  0  0  0
  -27.5714  -24.6584   18.5077 C   0  0  0  0  0  0  0  0  0  1  0  0
  -28.9129  -22.5780   18.0312 C   0  0  0  0  0  0  0  0  0  0  0  0
  -21.5052  -27.5442   21.9003 C   0  0  1  0  0  0  0  0  0  0  0  0
  -22.4880  -31.1720   22.3930 C   0  0  2  0  0  0  0  0  0  0  0  0
  -20.1080  -27.1694   21.3306 C   0  0  0  0  0  0  0  0  0  0  0  0
  -25.7688  -11.6728   20.4168 N   0  0  0  0  0  0  0  0  0  0  0  0
  -26.3369  -12.7597   20.9662 N   0  0  0  0  0  0  0  0  0  0  0  0
  -23.0480  -25.9327   22.9712 N   0  0  0  0  0  0  0  0  0  0  0  0
  -29.5753  -14.0573   19.4223 N   0  0  0  0  0  0  0  0  0  0  0  0
  -28.0314  -17.7163   22.0033 N   0  0  0  0  0  0  0  0  0  0  0  0
  -25.8672  -14.6842   22.2649 N   0  0  0  0  0  0  0  0  0  0  0  0
  -21.8433  -12.6667   21.8986 N   0  0  0  0  0  0  0  0  0  0  0  0
  -29.4433  -16.4069   19.6788 N   0  0  0  0  0  0  0  0  0  0  0  0
  -22.9729  -22.5996   24.4482 N   0  0  0  0  0  0  0  0  0  0  0  0
  -21.6239  -28.9348   22.3252 N   0  0  0  0  0  0  0  0  0  0  0  0
  -23.8445  -31.7832   22.4781 N   0  3  0  0  0  0  0  0  0  0  0  0
  -31.0927  -18.0514   19.7594 O   0  0  0  0  0  0  0  0  0  0  0  0
  -22.9436  -14.4831   22.7639 O   0  0  0  0  0  0  0  0  0  0  0  0
  -22.2942  -23.5498   22.4335 O   0  0  0  0  0  0  0  0  0  0  0  0
  -21.1759  -26.7354   24.1057 O   0  0  0  0  0  0  0  0  0  0  0  0
  -23.3959  -29.4763   20.9309 O   0  0  0  0  0  0  0  0  0  0  0  0
  -31.4857  -15.3734   19.3992 O   0  0  0  0  0  0  0  0  0  0  0  0
  -20.7746   -7.9179   19.1891 O   0  0  0  0  0  0  0  0  0  0  0  0
  -25.9737  -21.7145   20.3187 O   0  0  0  0  0  0  0  0  0  0  0  0
  -28.2030  -24.7946   19.7800 O   0  0  0  0  0  0  0  0  0  1  0  0
  -27.7576  -21.7642   18.1828 O   0  0  0  0  0  0  0  0  0  0  0  0
  -17.2097   -6.0941   22.9798 F   0  0  0  0  0  0  0  0  0  0  0  0
  -20.6906   -5.2442   19.8868 F   0  0  0  0  0  0  0  0  0  0  0  0
  1  2  1  0  0  0  0
  1  5  2  0  0  0  0
  2  6  2  0  0  0  0
  3  8  2  0  0  0  0
  3 17  1  0  0  0  0
  4  9  1  0  0  0  0
  4 17  2  0  0  0  0
  5 20  1  0  0  0  0
  6 22  1  0  0  0  0
  7 10  2  0  0  0  0
  7 21  1  0  0  0  0
  8 25  1  0  0  0  0
  9 25  2  0  0  0  0
 10 26  1  0  0  0  0
 11 12  2  0  0  0  0
 11 27  1  0  0  0  0
 12 30  1  0  0  0  0
 13 18  2  0  0  0  0
 13 28  1  0  0  0  0
 14 23  1  0  0  0  0
 14 26  2  0  0  0  0
 15 24  2  0  0  0  0
 15 29  1  0  0  0  0
 16 30  2  0  0  0  0
 16 31  1  0  0  0  0
 17 32  1  0  0  0  0
 18 24  1  0  0  0  0
 18 34  1  0  0  0  0
 19 32  1  0  0  0  0
 19 33  2  0  0  0  0
 19 35  1  0  0  0  0
 20 22  2  0  0  0  0
 20 40  1  0  0  0  0
 21 23  2  0  0  0  0
 21 41  1  0  0  0  0
 22 49  1  0  0  0  0
 23 42  1  0  0  0  0
 24 68  1  0  0  0  0
 25 81  1  0  0  0  0
 26 83  1  0  0  0  0
 27 31  2  0  0  0  0
 27 81  1  0  0  0  0
 28 29  2  0  0  0  0
 28 84  1  0  0  0  0
 29 82  1  0  0  0  0
 30 85  1  0  0  0  0
 31 86  1  0  0  0  0
 32 64  2  0  0  0  0
 33 65  1  0  0  0  0
 33 69  1  0  0  0  0
 34 71  1  0  0  0  0
 34 75  2  0  0  0  0
 35 70  1  0  0  0  0
 35 76  2  0  0  0  0
 36 50  1  0  0  0  0
 36 72  1  0  0  0  0
 36 77  2  0  0  0  0
 37 61  1  0  0  0  0
 37 66  1  0  0  0  0
 37 78  2  0  0  0  0
 38 62  1  0  0  0  0
 38 73  1  0  0  0  0
 38 79  2  0  0  0  0
 39 67  1  0  0  0  0
 39 71  1  0  0  0  0
 39 80  2  0  0  0  0
 40 43  1  0  0  0  0
 41 50  1  0  0  0  0
 42 66  1  0  0  0  0
 43 45  1  0  0  0  0
 44 46  1  0  0  0  0
 44 47  1  0  0  0  0
 45 49  1  0  0  0  0
 46 51  1  0  0  0  0
 47 67  1  0  0  0  0
 48 51  1  0  0  0  0
 48 67  1  0  0  0  0
 49 72  1  0  0  0  0
 50 66  1  0  0  0  0
 51 65  1  0  0  0  0
 52 62  1  0  0  0  0
 53 63  1  0  0  0  0
 54 63  1  0  0  0  0
 55 63  1  0  0  0  0
 56 74  1  0  0  0  0
 57 82  1  0  0  0  0
 58 59  1  0  0  0  0
 58 60  1  0  0  0  0
 59 83  1  0  0  0  0
 60 84  1  0  0  0  0
 61 63  1  0  0  0  0
 61 73  1  0  0  0  0
 62 74  1  0  0  0  0
 64 65  1  0  0  0  0
M  CHG  1  74   1
M  ISO  4  39 100  59 101  71 100  83 101
M  END
> <Batch ID>
0101

> <Smiles>
CNC(C)C(=O)NC(C(=O)N1Cc2cc([101O:1][101CH2:1]CCOc3cc(C(=O)[100NH:0][100C:0](=O)N4CCCC(n5nc(-c6ccc(Oc7ccc(F)cc7F)cc6)c(C(N)=O)c5N)C4)c(N)cc3OC)ccc2CC1C(=O)NC1CCCc2ccccc21)C(C)(C)C

> <Shape>
0.231

> <Color>
0.101

> <Negative vol penalty>
0.000

$$$$

  -OEChem-04052301003D

 86 94  0     1  0  0  0  0  0999 V2000
  -29.9758  -15.2539   25.9786 C   0  0  0  0  0  0  0  0  0  0  0  0
  -30.2392  -16.5779   25.6425 C   0  0  0  0  0  0  0  0  0  0  0  0
  -22.3919  -20.9666   22.2408 C   0  0  0  0  0  0  0  0  0  0  0  0
  -20.7729  -21.3217   23.9986 C   0  0  0  0  0  0  0  0  0  0  0  0
  -29.8051  -14.3017   24.9746 C   0  0  0  0  0  0  0  0  0  0  0  0
  -30.3331  -16.9503   24.3020 C   0  0  0  0  0  0  0  0  0  0  0  0
  -28.5849  -22.2732   21.8287 C   0  0  0  0  0  0  0  0  0  0  0  0
  -22.9550  -19.9200   22.9708 C   0  0  0  0  0  0  0  0  0  0  0  0
  -21.3360  -20.2750   24.7287 C   0  0  0  0  0  0  0  0  0  0  0  0
  -29.2919  -23.4241   21.4833 C   0  0  0  0  0  0  0  0  0  0  0  0
  -22.2639  -16.6717   23.6061 C   0  0  0  0  0  0  0  0  0  0  0  0
  -22.5649  -15.4934   22.9231 C   0  0  0  0  0  0  0  0  0  0  0  0
  -29.4599  -22.6318   19.2110 C   0  0  0  0  0  0  0  0  0  0  0  0
  -27.2385  -28.8087   20.4504 C   0  0  0  0  0  0  0  0  0  0  0  0
  -25.7896  -27.6397   18.9106 C   0  0  0  0  0  0  0  0  0  0  0  0
  -24.8917  -15.7384   23.5257 C   0  0  0  0  0  0  0  0  0  0  0  0
  -21.3008  -21.6675   22.7547 C   0  0  0  0  0  0  0  0  0  0  0  0
  -24.8477  -29.1406   20.5528 C   0  0  0  0  0  0  0  0  0  0  0  0
  -20.1463  -22.6792   20.7172 C   0  0  0  0  0  0  0  0  0  0  0  0
  -29.8874  -14.6645   23.6209 C   0  0  0  0  0  0  0  0  0  0  0  0
  -28.3191  -21.2862   20.8687 C   0  0  0  0  0  0  0  0  0  0  0  0
  -30.1647  -16.0019   23.2789 C   0  0  0  0  0  0  0  0  0  0  0  0
  -28.7471  -21.4705   19.5462 C   0  0  0  0  0  0  0  0  0  0  0  0
  -26.1276  -29.4197   21.0319 C   0  0  0  0  0  0  0  0  0  0  0  0
  -27.0696  -27.9188   19.3897 C   0  0  0  0  0  0  0  0  0  0  0  0
  -22.4271  -19.5742   24.2147 C   0  0  0  0  0  0  0  0  0  0  0  0
  -29.7320  -23.6022   20.1750 C   0  0  0  0  0  0  0  0  0  0  0  0
  -23.2768  -17.3835   24.2489 C   0  0  0  0  0  0  0  0  0  0  0  0
  -23.8788  -15.0267   22.8829 C   0  0  0  0  0  0  0  0  0  0  0  0
  -24.6787  -28.2506   19.4921 C   0  0  0  0  0  0  0  0  0  0  0  0
  -24.5907  -16.9168   24.2087 C   0  0  0  0  0  0  0  0  0  0  0  0
  -20.7190  -22.7492   22.0013 C   0  0  0  0  0  0  0  0  0  0  0  0
  -19.7426  -23.9647   20.4507 C   0  0  0  0  0  0  0  0  0  0  0  0
  -31.4417  -27.2314   17.6852 C   0  0  0  0  0  0  0  0  0  0  0  0
  -23.6499  -29.7796   21.1560 C   0  0  0  0  0  0  0  0  0  0  0  0
  -19.9929  -21.5528   19.8434 C   0  0  0  0  0  0  0  0  0  0  0  0
  -30.4682  -26.6841   18.4305 C   0  0  0  0  0  0  0  0  0  0  0  0
  -29.0959  -18.2230   20.5262 C   0  0  0  0  0  0  0  0  0  0  0  0
  -27.0829  -18.3991   17.9886 C   0  0  0  0  0  0  0  0  0  0  0  0
  -25.5593  -20.3365   15.6282 C   0  0  0  0  0  0  0  0  0  0  0  0
  -21.5389  -29.3011   22.3553 C   0  0  0  0  0  0  0  0  0  0  0  0
  -29.7426  -13.5909   22.5716 C   0  0  0  0  0  0  0  0  0  0  0  0
  -27.5320  -20.0628   21.2511 C   0  0  0  0  0  0  0  0  0  0  0  0
  -28.4698  -20.4502   18.4735 C   0  0  0  0  0  0  0  0  0  0  0  0
  -29.4861  -14.1395   21.1703 C   0  0  0  0  0  0  0  0  0  0  0  0
  -18.2798  -27.9640   22.6515 C   0  0  0  0  0  0  0  0  0  0  0  0
  -30.4471  -15.2828   20.8604 C   0  0  0  0  0  0  0  0  0  0  0  0
  -18.4774  -26.4690   22.3861 C   0  0  0  0  0  0  0  0  0  0  0  0
  -19.4414  -28.5573   23.4476 C   0  0  0  0  0  0  0  0  0  0  0  0
  -20.9692  -26.8112   22.6261 C   0  0  0  0  0  0  0  0  0  0  0  0
  -30.2494  -16.4495   21.8358 C   0  0  1  0  0  0  0  0  0  0  0  0
  -27.7642  -18.8846   20.3102 C   0  0  1  0  0  0  0  0  0  0  0  0
  -19.8602  -26.1823   21.7673 C   0  0  1  0  0  0  0  0  0  0  0  0
  -26.3371  -30.3689   22.1664 C   0  0  0  0  0  0  0  0  0  0  0  0
  -23.9998  -20.1913   13.6676 C   0  0  0  0  0  0  0  0  0  0  0  0
  -29.3446  -17.2759   16.2760 C   0  0  0  0  0  0  0  0  0  0  0  0
  -28.0915  -18.0362   14.2462 C   0  0  0  0  0  0  0  0  0  0  0  0
  -27.0843  -16.3346   15.7669 C   0  0  0  0  0  0  0  0  0  0  0  0
  -23.5658  -22.0900   16.9360 C   0  0  0  0  0  0  0  0  0  0  0  0
  -29.5314  -27.5404   19.2416 C   0  0  0  0  0  0  0  0  0  0  0  0
  -30.2860  -25.1901   18.4935 C   0  0  0  0  0  0  0  0  0  1  0  0
  -27.2338  -18.7415   16.5261 C   0  0  1  0  0  0  0  0  0  0  0  0
  -24.1149  -20.4137   15.1676 C   0  0  2  0  0  0  0  0  0  0  0  0
  -27.9456  -17.6156   15.7242 C   0  0  0  0  0  0  0  0  0  0  0  0
  -20.6843  -23.9817   22.5148 N   0  0  0  0  0  0  0  0  0  0  0  0
  -20.0851  -24.6980   21.5485 N   0  0  0  0  0  0  0  0  0  0  0  0
  -27.7020  -19.2680   18.8983 N   0  0  0  0  0  0  0  0  0  0  0  0
  -20.7132  -28.2500   22.7908 N   0  0  0  0  0  0  0  0  0  0  0  0
  -19.1318  -24.5279   19.3867 N   0  0  0  0  0  0  0  0  0  0  0  0
  -18.8228  -20.7873   19.9394 N   0  0  0  0  0  0  0  0  0  0  0  0
  -28.1735  -27.3114   18.8115 N   0  0  0  0  0  0  0  0  0  0  0  0
  -22.7108  -28.9040   21.7019 N   0  0  0  0  0  0  0  0  0  0  0  0
  -29.0774  -17.2176   21.4740 N   0  0  0  0  0  0  0  0  0  0  0  0
  -25.8960  -19.0652   16.0426 N   0  0  0  0  0  0  0  0  0  0  0  0
  -23.5390  -21.7499   15.4901 N   0  3  0  0  0  0  0  0  0  0  0  0
  -23.5723  -31.0049   21.1768 O   0  0  0  0  0  0  0  0  0  0  0  0
  -20.8748  -21.2248   19.0139 O   0  0  0  0  0  0  0  0  0  0  0  0
  -30.0678  -18.5960   19.8798 O   0  0  0  0  0  0  0  0  0  0  0  0
  -26.4335  -17.4015   18.3123 O   0  0  0  0  0  0  0  0  0  0  0  0
  -26.3145  -21.3061   15.6178 O   0  0  0  0  0  0  0  0  0  0  0  0
  -21.2405  -30.4907   22.5012 O   0  0  0  0  0  0  0  0  0  0  0  0
  -22.9763  -18.5527   24.9272 O   0  0  0  0  0  0  0  0  0  0  0  0
  -30.4229  -24.7244   19.8354 O   0  0  0  0  0  0  0  0  0  1  0  0
  -24.1674  -13.8943   22.2283 F   0  0  0  0  0  0  0  0  0  0  0  0
  -23.4537  -27.9741   19.0226 F   0  0  0  0  0  0  0  0  0  0  0  0
  -25.5678  -17.5956   24.8253 F   0  0  0  0  0  0  0  0  0  0  0  0
  1  2  1  0  0  0  0
  1  5  2  0  0  0  0
  2  6  2  0  0  0  0
  3  8  2  0  0  0  0
  3 17  1  0  0  0  0
  4  9  1  0  0  0  0
  4 17  2  0  0  0  0
  5 20  1  0  0  0  0
  6 22  1  0  0  0  0
  7 10  2  0  0  0  0
  7 21  1  0  0  0  0
  8 26  1  0  0  0  0
  9 26  2  0  0  0  0
 10 27  1  0  0  0  0
 11 12  2  0  0  0  0
 11 28  1  0  0  0  0
 12 29  1  0  0  0  0
 13 23  1  0  0  0  0
 13 27  2  0  0  0  0
 14 24  2  0  0  0  0
 14 25  1  0  0  0  0
 15 25  2  0  0  0  0
 15 30  1  0  0  0  0
 16 29  2  0  0  0  0
 16 31  1  0  0  0  0
 17 32  1  0  0  0  0
 18 24  1  0  0  0  0
 18 30  2  0  0  0  0
 18 35  1  0  0  0  0
 19 32  1  0  0  0  0
 19 33  2  0  0  0  0
 19 36  1  0  0  0  0
 20 22  2  0  0  0  0
 20 42  1  0  0  0  0
 21 23  2  0  0  0  0
 21 43  1  0  0  0  0
 22 51  1  0  0  0  0
 23 44  1  0  0  0  0
 24 54  1  0  0  0  0
 25 71  1  0  0  0  0
 26 82  1  0  0  0  0
 27 83  1  0  0  0  0
 28 31  2  0  0  0  0
 28 82  1  0  0  0  0
 29 84  1  0  0  0  0
 30 85  1  0  0  0  0
 31 86  1  0  0  0  0
 32 65  2  0  0  0  0
 33 66  1  0  0  0  0
 33 69  1  0  0  0  0
 34 37  2  0  0  0  0
 35 72  1  0  0  0  0
 35 76  2  0  0  0  0
 36 70  1  0  0  0  0
 36 77  2  0  0  0  0
 37 60  1  0  0  0  0
 37 61  1  0  0  0  0
 38 52  1  0  0  0  0
 38 73  1  0  0  0  0
 38 78  2  0  0  0  0
 39 62  1  0  0  0  0
 39 67  1  0  0  0  0
 39 79  2  0  0  0  0
 40 63  1  0  0  0  0
 40 74  1  0  0  0  0
 40 80  2  0  0  0  0
 41 68  1  0  0  0  0
 41 72  1  0  0  0  0
 41 81  2  0  0  0  0
 42 45  1  0  0  0  0
 43 52  1  0  0  0  0
 44 67  1  0  0  0  0
 45 47  1  0  0  0  0
 46 48  1  0  0  0  0
 46 49  1  0  0  0  0
 47 51  1  0  0  0  0
 48 53  1  0  0  0  0
 49 68  1  0  0  0  0
 50 53  1  0  0  0  0
 50 68  1  0  0  0  0
 51 73  1  0  0  0  0
 52 67  1  0  0  0  0
 53 66  1  0  0  0  0
 55 63  1  0  0  0  0
 56 64  1  0  0  0  0
 57 64  1  0  0  0  0
 58 64  1  0  0  0  0
 59 75  1  0  0  0  0
 60 71  1  0  0  0  0
 61 83  1  0  0  0  0
 62 64  1  0  0  0  0
 62 74  1  0  0  0  0
 63 75  1  0  0  0  0
 65 66  1  0  0  0  0
M  CHG  1  75   1
M  ISO  4  41 100  61 101  72 100  83 101
M  END
> <Batch ID>
0101

> <Smiles>
C=C(CNc1cc(C)c(C(=O)[100NH:0][100C:0](=O)N2CCCC(n3nc(-c4ccc(Oc5ccc(F)cc5F)cc4)c(C(N)=O)c3N)C2)c(F)c1)[101CH2:1][101O:1]c1ccc2c(c1)CN(C(=O)C(NC(=O)C(C)NC)C(C)(C)C)C(C(=O)NC1CCCc3ccccc31)C2

> <Shape>
0.233

> <Color>
0.052

> <Negative vol penalty>
0.000

$$$$

  -OEChem-04052301003D

 88 97  0     1  0  0  0  0  0999 V2000
  -24.9910  -31.1054   26.5158 C   0  0  0  0  0  0  0  0  0  0  0  0
  -24.4979  -30.4897   25.3711 C   0  0  0  0  0  0  0  0  0  0  0  0
  -23.3061  -14.4935   23.1140 C   0  0  0  0  0  0  0  0  0  0  0  0
  -25.0214  -13.1799   24.1952 C   0  0  0  0  0  0  0  0  0  0  0  0
  -28.1731  -18.6781   17.9245 C   0  0  0  0  0  0  0  0  0  0  0  0
  -25.8959  -32.1587   26.4014 C   0  0  0  0  0  0  0  0  0  0  0  0
  -24.9186  -30.9189   24.1118 C   0  0  0  0  0  0  0  0  0  0  0  0
  -29.5103  -28.5794   18.3412 C   0  0  0  0  0  0  0  0  0  0  0  0
  -28.8371  -19.7410   17.3122 C   0  0  0  0  0  0  0  0  0  0  0  0
  -22.8500  -14.9236   24.3601 C   0  0  0  0  0  0  0  0  0  0  0  0
  -24.5654  -13.6099   25.4413 C   0  0  0  0  0  0  0  0  0  0  0  0
  -30.2463  -27.3953   18.3887 C   0  0  0  0  0  0  0  0  0  0  0  0
  -22.0353  -12.8715   27.5589 C   0  0  0  0  0  0  0  0  0  0  0  0
  -21.8971  -11.9144   28.5641 C   0  0  0  0  0  0  0  0  0  0  0  0
  -28.7952  -20.9665   19.3939 C   0  0  0  0  0  0  0  0  0  0  0  0
  -29.0027  -26.6879   20.3383 C   0  0  0  0  0  0  0  0  0  0  0  0
  -23.4873  -13.1176   29.9283 C   0  0  0  0  0  0  0  0  0  0  0  0
  -24.3918  -13.6216   23.0316 C   0  0  0  0  0  0  0  0  0  0  0  0
  -27.8201  -18.7594   19.2716 C   0  0  0  0  0  0  0  0  0  0  0  0
  -28.1312  -19.9036   20.0062 C   0  0  0  0  0  0  0  0  0  0  0  0
  -24.1366  -12.4604   20.7746 C   0  0  0  0  0  0  0  0  0  0  0  0
  -26.3178  -32.6087   25.1394 C   0  0  0  0  0  0  0  0  0  0  0  0
  -28.5059  -28.8157   19.2840 C   0  0  0  0  0  0  0  0  0  0  0  0
  -25.8496  -31.9646   23.9761 C   0  0  0  0  0  0  0  0  0  0  0  0
  -28.2536  -27.8666   20.2882 C   0  0  0  0  0  0  0  0  0  0  0  0
  -29.1482  -20.8852   18.0468 C   0  0  0  0  0  0  0  0  0  0  0  0
  -23.4796  -14.4818   25.5237 C   0  0  0  0  0  0  0  0  0  0  0  0
  -29.9933  -26.4521   19.3850 C   0  0  0  0  0  0  0  0  0  0  0  0
  -22.8995  -13.9516   27.7384 C   0  0  0  0  0  0  0  0  0  0  0  0
  -22.6231  -12.0375   29.7488 C   0  0  0  0  0  0  0  0  0  0  0  0
  -23.6255  -14.0747   28.9230 C   0  0  0  0  0  0  0  0  0  0  0  0
  -24.8630  -13.1766   21.7447 C   0  0  0  0  0  0  0  0  0  0  0  0
  -25.0249  -12.2830   19.7421 C   0  0  0  0  0  0  0  0  0  0  0  0
  -31.1597  -24.1777   16.1506 C   0  0  0  0  0  0  0  0  0  0  0  0
  -27.1768  -19.0635   22.1035 C   0  0  0  0  0  0  0  0  0  0  0  0
  -27.7774  -20.0223   21.4153 C   0  0  0  0  0  0  0  0  0  0  0  0
  -27.1269  -17.6265   19.8738 C   0  0  0  0  0  0  0  0  0  0  0  0
  -22.7801  -11.9969   20.8040 C   0  0  0  0  0  0  0  0  0  0  0  0
  -26.8019  -16.4166   19.0837 C   0  0  0  0  0  0  0  0  0  0  0  0
  -25.8227  -31.1235   20.5291 C   0  0  0  0  0  0  0  0  0  0  0  0
  -24.7113  -28.2717   20.7349 C   0  0  0  0  0  0  0  0  0  0  0  0
  -23.1607  -28.1334   17.6994 C   0  0  0  0  0  0  0  0  0  0  0  0
  -27.3047  -33.7475   25.0736 C   0  0  0  0  0  0  0  0  0  0  0  0
  -27.7299  -30.1045   19.3080 C   0  0  0  0  0  0  0  0  0  0  0  0
  -27.1871  -28.1788   21.3021 C   0  0  0  0  0  0  0  0  0  0  0  0
  -30.2352  -23.2594   15.3884 C   0  0  0  0  0  0  0  0  0  0  0  0
  -27.3480  -34.4183   23.7046 C   0  0  0  0  0  0  0  0  0  0  0  0
  -29.1502  -14.3508   20.7908 C   0  0  0  0  0  0  0  0  0  0  0  0
  -27.4879  -33.3663   22.6145 C   0  0  0  0  0  0  0  0  0  0  0  0
  -28.8040  -12.9842   20.1840 C   0  0  0  0  0  0  0  0  0  0  0  0
  -30.1877  -21.8733   16.0200 C   0  0  0  0  0  0  0  0  0  0  0  0
  -29.0479  -15.4776   19.7692 C   0  0  0  0  0  0  0  0  0  0  0  0
  -30.1506  -23.1530   18.1988 C   0  0  0  0  0  0  0  0  0  0  0  0
  -27.5009  -14.1600   18.3763 C   0  0  0  0  0  0  0  0  0  0  0  0
  -26.2694  -32.4347   22.5951 C   0  0  1  0  0  0  0  0  0  0  0  0
  -31.3862  -23.8545   17.6194 C   0  0  2  0  0  0  0  0  0  0  0  0
  -26.2673  -29.9201   19.7510 C   0  0  1  0  0  0  0  0  0  0  0  0
  -27.4931  -12.9703   19.3606 C   0  0  2  0  0  0  0  0  0  0  0  0
  -25.1265  -27.5626   16.2479 C   0  0  0  0  0  0  0  0  0  0  0  0
  -22.1072  -30.8005   21.0209 C   0  0  0  0  0  0  0  0  0  0  0  0
  -23.7448  -31.4339   19.2361 C   0  0  0  0  0  0  0  0  0  0  0  0
  -24.5608  -30.7950   21.5052 C   0  0  0  0  0  0  0  0  0  0  0  0
  -22.9024  -29.6877   14.5159 C   0  0  0  0  0  0  0  0  0  0  0  0
  -31.7063  -25.1174   18.4144 C   0  0  0  0  0  0  0  0  0  1  0  0
  -23.6409  -29.0089   19.9704 C   0  0  1  0  0  0  0  0  0  0  0  0
  -23.7130  -28.1223   16.2855 C   0  0  2  0  0  0  0  0  0  0  0  0
  -23.4962  -30.4872   20.4297 C   0  0  0  0  0  0  0  0  0  0  0  0
  -26.1163  -13.4363   21.3628 N   0  0  0  0  0  0  0  0  0  0  0  0
  -26.7554  -17.6004   21.1229 N   0  0  0  0  0  0  0  0  0  0  0  0
  -26.1843  -12.8802   20.1413 N   0  0  0  0  0  0  0  0  0  0  0  0
  -29.8121  -21.9475   17.4340 N   0  0  3  0  0  0  0  0  0  0  0  0
  -27.7618  -15.4160   19.0744 N   0  0  0  0  0  0  0  0  0  0  0  0
  -26.0164  -28.7687   20.6344 N   0  0  0  0  0  0  0  0  0  0  0  0
  -24.9196  -11.6760   18.5410 N   0  0  0  0  0  0  0  0  0  0  0  0
  -22.0070  -12.2649   21.9419 N   0  0  0  0  0  0  0  0  0  0  0  0
  -26.5322  -31.3323   21.6964 N   0  0  0  0  0  0  0  0  0  0  0  0
  -23.9669  -28.8514   18.5571 N   0  0  0  0  0  0  0  0  0  0  0  0
  -23.7400  -29.5046   15.7291 N   0  3  0  0  0  0  0  0  0  0  0  0
  -31.6947  -25.1359   15.5938 O   0  0  0  0  0  0  0  0  0  0  0  0
  -22.2738  -11.3496   19.8563 O   0  0  0  0  0  0  0  0  0  0  0  0
  -25.7123  -16.4261   18.5261 O   0  0  0  0  0  0  0  0  0  0  0  0
  -24.9045  -31.8136   20.1022 O   0  0  0  0  0  0  0  0  0  0  0  0
  -24.4023  -27.2785   21.3993 O   0  0  0  0  0  0  0  0  0  0  0  0
  -22.1164  -27.5652   18.0111 O   0  0  0  0  0  0  0  0  0  0  0  0
  -23.0350  -14.9014   26.7398 O   0  0  0  0  0  0  0  0  0  0  0  0
  -30.7125  -25.2962   19.4228 O   0  0  0  0  0  0  0  0  0  1  0  0
  -22.4891  -11.1191   30.7147 F   0  0  0  0  0  0  0  0  0  0  0  0
  -24.4564  -15.1108   29.1017 F   0  0  0  0  0  0  0  0  0  0  0  0
  1  2  1  0  0  0  0
  1  6  2  0  0  0  0
  2  7  2  0  0  0  0
  3 10  2  0  0  0  0
  3 18  1  0  0  0  0
  4 11  1  0  0  0  0
  4 18  2  0  0  0  0
  5  9  2  0  0  0  0
  5 19  1  0  0  0  0
  6 22  1  0  0  0  0
  7 24  1  0  0  0  0
  8 12  2  0  0  0  0
  8 23  1  0  0  0  0
  9 26  1  0  0  0  0
 10 27  1  0  0  0  0
 11 27  2  0  0  0  0
 12 28  1  0  0  0  0
 13 14  2  0  0  0  0
 13 29  1  0  0  0  0
 14 30  1  0  0  0  0
 15 20  1  0  0  0  0
 15 26  2  0  0  0  0
 16 25  1  0  0  0  0
 16 28  2  0  0  0  0
 17 30  2  0  0  0  0
 17 31  1  0  0  0  0
 18 32  1  0  0  0  0
 19 20  2  0  0  0  0
 19 37  1  0  0  0  0
 20 36  1  0  0  0  0
 21 32  1  0  0  0  0
 21 33  2  0  0  0  0
 21 38  1  0  0  0  0
 22 24  2  0  0  0  0
 22 43  1  0  0  0  0
 23 25  2  0  0  0  0
 23 44  1  0  0  0  0
 24 55  1  0  0  0  0
 25 45  1  0  0  0  0
 26 71  1  0  0  0  0
 27 85  1  0  0  0  0
 28 86  1  0  0  0  0
 29 31  2  0  0  0  0
 29 85  1  0  0  0  0
 30 87  1  0  0  0  0
 31 88  1  0  0  0  0
 32 68  2  0  0  0  0
 33 70  1  0  0  0  0
 33 74  1  0  0  0  0
 34 46  1  0  0  0  0
 34 56  1  0  0  0  0
 34 79  2  0  0  0  0
 35 36  2  0  0  0  0
 37 39  1  0  0  0  0
 37 69  2  0  0  0  0
 38 75  1  0  0  0  0
 38 80  2  0  0  0  0
 39 72  1  0  0  0  0
 39 81  2  0  0  0  0
 40 57  1  0  0  0  0
 40 76  1  0  0  0  0
 40 82  2  0  0  0  0
 41 65  1  0  0  0  0
 41 73  1  0  0  0  0
 41 83  2  0  0  0  0
 42 66  1  0  0  0  0
 42 77  1  0  0  0  0
 42 84  2  0  0  0  0
 43 47  1  0  0  0  0
 44 57  1  0  0  0  0
 45 73  1  0  0  0  0
 46 51  1  0  0  0  0
 47 49  1  0  0  0  0
 48 50  1  0  0  0  0
 48 52  1  0  0  0  0
 49 55  1  0  0  0  0
 50 58  1  0  0  0  0
 51 71  1  0  0  0  0
 52 72  1  0  0  0  0
 53 56  1  0  0  0  0
 53 71  1  0  0  0  0
 54 58  1  0  0  0  0
 54 72  1  0  0  0  0
 55 76  1  0  0  0  0
 56 64  1  0  0  0  0
 57 73  1  0  0  0  0
 58 70  1  0  0  0  0
 59 66  1  0  0  0  0
 60 67  1  0  0  0  0
 61 67  1  0  0  0  0
 62 67  1  0  0  0  0
 63 78  1  0  0  0  0
 64 86  1  0  0  0  0
 65 67  1  0  0  0  0
 65 77  1  0  0  0  0
 66 78  1  0  0  0  0
 68 70  1  0  0  0  0
M  CHG  1  78   1
M  ISO  4  37 100  39 100  64 101  86 101
M  END
> <Batch ID>
0101

> <Smiles>
C=Cc1cc(N2CCC(=O)C([101CH2:1][101O:1]c3ccc4c(c3)CN(C(=O)C(NC(=O)C(C)NC)C(C)(C)C)C(C(=O)NC3CCCc5ccccc53)C4)C2)ccc1[100C:0](=N)[100C:0](=O)N1CCCC(n2nc(-c3ccc(Oc4ccc(F)cc4F)cc3)c(C(N)=O)c2N)C1

> <Shape>
0.270

> <Color>
0.053

> <Negative vol penalty>
0.000

$$$$

  -OEChem-04052301003D

 86 95  0     1  0  0  0  0  0999 V2000
  -28.4437  -37.4380   23.6713 C   0  0  0  0  0  0  0  0  0  0  0  0
  -28.9048  -36.2646   23.0832 C   0  0  0  0  0  0  0  0  0  0  0  0
  -24.9904  -13.6045   19.1491 C   0  0  0  0  0  0  0  0  0  0  0  0
  -25.5566  -15.2648   20.8105 C   0  0  0  0  0  0  0  0  0  0  0  0
  -27.7110  -21.7864   16.5866 C   0  0  0  0  0  0  0  0  0  0  0  0
  -27.3891  -37.3922   24.5822 C   0  0  0  0  0  0  0  0  0  0  0  0
  -28.3124  -35.0444   23.4066 C   0  0  0  0  0  0  0  0  0  0  0  0
  -27.4691  -30.2588   19.6792 C   0  0  0  0  0  0  0  0  0  0  0  0
  -26.3806  -21.3772   16.6761 C   0  0  0  0  0  0  0  0  0  0  0  0
  -26.3139  -13.1643   19.1379 C   0  0  0  0  0  0  0  0  0  0  0  0
  -26.8801  -14.8245   20.7993 C   0  0  0  0  0  0  0  0  0  0  0  0
  -28.1850  -29.0770   19.4935 C   0  0  0  0  0  0  0  0  0  0  0  0
  -28.3082  -11.2188   21.0538 C   0  0  0  0  0  0  0  0  0  0  0  0
  -28.5339   -9.8427   21.0843 C   0  0  0  0  0  0  0  0  0  0  0  0
  -26.6827  -27.9378   20.9984 C   0  0  0  0  0  0  0  0  0  0  0  0
  -26.7621  -20.6329   18.9428 C   0  0  0  0  0  0  0  0  0  0  0  0
  -29.6923   -9.9859   18.9689 C   0  0  0  0  0  0  0  0  0  0  0  0
  -24.6117  -14.6548   19.9853 C   0  0  0  0  0  0  0  0  0  0  0  0
  -28.5671  -21.6188   17.6751 C   0  0  0  0  0  0  0  0  0  0  0  0
  -22.1007  -14.3579   20.3233 C   0  0  0  0  0  0  0  0  0  0  0  0
  -26.7771  -36.1720   24.9096 C   0  0  0  0  0  0  0  0  0  0  0  0
  -26.3594  -30.2917   20.5358 C   0  0  0  0  0  0  0  0  0  0  0  0
  -27.2495  -34.9820   24.3237 C   0  0  0  0  0  0  0  0  0  0  0  0
  -25.9530  -29.1207   21.1913 C   0  0  0  0  0  0  0  0  0  0  0  0
  -25.9061  -20.8005   17.8542 C   0  0  0  0  0  0  0  0  0  0  0  0
  -28.0926  -21.0421   18.8532 C   0  0  0  0  0  0  0  0  0  0  0  0
  -27.2588  -13.7742   19.9630 C   0  0  0  0  0  0  0  0  0  0  0  0
  -27.7936  -27.9169   20.1554 C   0  0  0  0  0  0  0  0  0  0  0  0
  -28.7745  -11.9785   19.9809 C   0  0  0  0  0  0  0  0  0  0  0  0
  -29.2259   -9.2263   20.0418 C   0  0  0  0  0  0  0  0  0  0  0  0
  -29.4665  -11.3621   18.9385 C   0  0  0  0  0  0  0  0  0  0  0  0
  -23.2449  -15.1104   19.9969 C   0  0  0  0  0  0  0  0  0  0  0  0
  -21.0577  -15.2405   20.1829 C   0  0  0  0  0  0  0  0  0  0  0  0
  -29.9646  -22.0614   17.5483 C   0  0  0  0  0  0  0  0  0  0  0  0
  -21.9906  -12.9840   20.7181 C   0  0  0  0  0  0  0  0  0  0  0  0
  -25.6347  -31.8510   23.2092 C   0  0  0  0  0  0  0  0  0  0  0  0
  -22.7384  -30.4560   22.7762 C   0  0  0  0  0  0  0  0  0  0  0  0
  -20.9253  -27.9073   21.4110 C   0  0  0  0  0  0  0  0  0  0  0  0
  -23.9113  -19.7934   19.0356 C   0  0  0  0  0  0  0  0  0  0  0  0
  -25.6715  -36.1666   25.9354 C   0  0  0  0  0  0  0  0  0  0  0  0
  -25.5818  -31.5682   20.7046 C   0  0  0  0  0  0  0  0  0  0  0  0
  -24.7565  -29.0983   22.1058 C   0  0  0  0  0  0  0  0  0  0  0  0
  -24.8516  -34.8790   25.9406 C   0  0  0  0  0  0  0  0  0  0  0  0
  -20.4220  -19.2078   17.5031 C   0  0  0  0  0  0  0  0  0  0  0  0
  -25.7698  -33.6613   25.9086 C   0  0  0  0  0  0  0  0  0  0  0  0
  -20.3974  -17.7851   18.0474 C   0  0  0  0  0  0  0  0  0  0  0  0
  -31.4745  -25.3784   18.1142 C   0  0  0  0  0  0  0  0  0  0  0  0
  -21.8422  -19.7654   17.5439 C   0  0  0  0  0  0  0  0  0  0  0  0
  -31.6149  -23.8903   17.8328 C   0  0  0  0  0  0  0  0  0  0  0  0
  -29.3436  -24.3586   18.4720 C   0  0  0  0  0  0  0  0  0  0  0  0
  -21.7345  -18.9624   19.9052 C   0  0  0  0  0  0  0  0  0  0  0  0
  -26.6164  -33.6421   24.6302 C   0  0  1  0  0  0  0  0  0  0  0  0
  -24.7764  -31.6104   21.9996 C   0  0  1  0  0  0  0  0  0  0  0  0
  -30.2604  -25.4385   19.0440 C   0  0  2  0  0  0  0  0  0  0  0  0
  -20.9003  -17.7285   19.5038 C   0  0  2  0  0  0  0  0  0  0  0  0
  -18.5848  -27.0145   21.2617 C   0  0  0  0  0  0  0  0  0  0  0  0
  -22.9669  -29.3872   25.6250 C   0  0  0  0  0  0  0  0  0  0  0  0
  -21.1283  -27.7733   25.0927 C   0  0  0  0  0  0  0  0  0  0  0  0
  -20.6947  -30.2283   25.0055 C   0  0  0  0  0  0  0  0  0  0  0  0
  -20.8751  -28.2064   18.4671 C   0  0  0  0  0  0  0  0  0  0  0  0
  -29.6132  -26.8108   19.0964 C   0  0  0  0  0  0  0  0  0  1  0  0
  -22.1044  -29.1539   23.2027 C   0  0  1  0  0  0  0  0  0  0  0  0
  -19.6337  -27.9046   20.6134 C   0  0  2  0  0  0  0  0  0  0  0  0
  -21.7473  -29.1363   24.7158 C   0  0  0  0  0  0  0  0  0  0  0  0
  -22.9561  -16.3737   19.6734 N   0  0  0  0  0  0  0  0  0  0  0  0
  -21.6187  -16.4219   19.7957 N   0  0  0  0  0  0  0  0  0  0  0  0
  -30.2594  -23.3665   17.9115 N   0  0  0  0  0  0  0  0  0  0  0  0
  -24.0326  -30.3729   22.2432 N   0  0  0  0  0  0  0  0  0  0  0  0
  -22.5450  -19.4939   18.8065 N   0  0  0  0  0  0  0  0  0  0  0  0
  -28.9436  -20.8620   19.9663 N   0  0  0  0  0  0  0  0  0  0  0  0
  -19.7247  -15.1135   20.3540 N   0  0  0  0  0  0  0  0  0  0  0  0
  -22.0592  -12.6735   22.0831 N   0  0  0  0  0  0  0  0  0  0  0  0
  -24.5536  -20.3848   17.9445 N   0  0  0  0  0  0  0  0  0  0  0  0
  -25.8254  -33.1869   23.5070 N   0  0  0  0  0  0  0  0  0  0  0  0
  -20.9639  -28.9460   22.3171 N   0  0  0  0  0  0  0  0  0  0  0  0
  -19.8805  -27.4089   19.2298 N   0  3  0  0  0  0  0  0  0  0  0  0
  -30.7822  -21.2399   17.1378 O   0  0  0  0  0  0  0  0  0  0  0  0
  -21.8523  -12.0574   19.8840 O   0  0  0  0  0  0  0  0  0  0  0  0
  -26.0890  -30.8955   23.8275 O   0  0  0  0  0  0  0  0  0  0  0  0
  -22.1058  -31.5071   22.9045 O   0  0  0  0  0  0  0  0  0  0  0  0
  -21.8098  -27.0694   21.2493 O   0  0  0  0  0  0  0  0  0  0  0  0
  -24.4566  -19.5464   20.1133 O   0  0  0  0  0  0  0  0  0  0  0  0
  -28.5503  -13.3448   19.9525 O   0  0  0  0  0  0  0  0  0  0  0  0
  -28.4909  -26.7621   19.9765 O   0  0  0  0  0  0  0  0  0  1  0  0
  -29.4440   -7.9050   20.0720 F   0  0  0  0  0  0  0  0  0  0  0  0
  -29.9179  -12.0869   17.9056 F   0  0  0  0  0  0  0  0  0  0  0  0
  1  2  1  0  0  0  0
  1  6  2  0  0  0  0
  2  7  2  0  0  0  0
  3 10  2  0  0  0  0
  3 18  1  0  0  0  0
  4 11  1  0  0  0  0
  4 18  2  0  0  0  0
  5  9  2  0  0  0  0
  5 19  1  0  0  0  0
  6 21  1  0  0  0  0
  7 23  1  0  0  0  0
  8 12  2  0  0  0  0
  8 22  1  0  0  0  0
  9 25  1  0  0  0  0
 10 27  1  0  0  0  0
 11 27  2  0  0  0  0
 12 28  1  0  0  0  0
 13 14  2  0  0  0  0
 13 29  1  0  0  0  0
 14 30  1  0  0  0  0
 15 24  1  0  0  0  0
 15 28  2  0  0  0  0
 16 25  2  0  0  0  0
 16 26  1  0  0  0  0
 17 30  2  0  0  0  0
 17 31  1  0  0  0  0
 18 32  1  0  0  0  0
 19 26  2  0  0  0  0
 19 34  1  0  0  0  0
 20 32  1  0  0  0  0
 20 33  2  0  0  0  0
 20 35  1  0  0  0  0
 21 23  2  0  0  0  0
 21 40  1  0  0  0  0
 22 24  2  0  0  0  0
 22 41  1  0  0  0  0
 23 52  1  0  0  0  0
 24 42  1  0  0  0  0
 25 73  1  0  0  0  0
 26 70  1  0  0  0  0
 27 83  1  0  0  0  0
 28 84  1  0  0  0  0
 29 31  2  0  0  0  0
 29 83  1  0  0  0  0
 30 85  1  0  0  0  0
 31 86  1  0  0  0  0
 32 65  2  0  0  0  0
 33 66  1  0  0  0  0
 33 71  1  0  0  0  0
 34 67  1  0  0  0  0
 34 77  2  0  0  0  0
 35 72  1  0  0  0  0
 35 78  2  0  0  0  0
 36 53  1  0  0  0  0
 36 74  1  0  0  0  0
 36 79  2  0  0  0  0
 37 62  1  0  0  0  0
 37 68  1  0  0  0  0
 37 80  2  0  0  0  0
 38 63  1  0  0  0  0
 38 75  1  0  0  0  0
 38 81  2  0  0  0  0
 39 69  1  0  0  0  0
 39 73  1  0  0  0  0
 39 82  2  0  0  0  0
 40 43  1  0  0  0  0
 41 53  1  0  0  0  0
 42 68  1  0  0  0  0
 43 45  1  0  0  0  0
 44 46  1  0  0  0  0
 44 48  1  0  0  0  0
 45 52  1  0  0  0  0
 46 55  1  0  0  0  0
 47 49  1  0  0  0  0
 47 54  1  0  0  0  0
 48 69  1  0  0  0  0
 49 67  1  0  0  0  0
 50 54  1  0  0  0  0
 50 67  1  0  0  0  0
 51 55  1  0  0  0  0
 51 69  1  0  0  0  0
 52 74  1  0  0  0  0
 53 68  1  0  0  0  0
 54 61  1  0  0  0  0
 55 66  1  0  0  0  0
 56 63  1  0  0  0  0
 57 64  1  0  0  0  0
 58 64  1  0  0  0  0
 59 64  1  0  0  0  0
 60 76  1  0  0  0  0
 61 84  1  0  0  0  0
 62 64  1  0  0  0  0
 62 75  1  0  0  0  0
 63 76  1  0  0  0  0
 65 66  1  0  0  0  0
M  CHG  1  76   1
M  ISO  4  39 100  61 101  73 100  84 101
M  END
> <Batch ID>
0101

> <Smiles>
CNC(C)C(=O)NC(C(=O)N1Cc2cc([101O:1][101CH2:1]C3CCN(C(=O)c4ccc([100NH:0][100C:0](=O)N5CCCC(n6nc(-c7ccc(Oc8ccc(F)cc8F)cc7)c(C(N)=O)c6N)C5)cc4N)C3)ccc2CC1C(=O)NC1CCCc2ccccc21)C(C)(C)C

> <Shape>
0.289

> <Color>
0.085

> <Negative vol penalty>
0.000

$$$$

  -OEChem-04052301003D

 83 91  0     1  0  0  0  0  0999 V2000
  -22.1656  -10.2955   21.1029 C   0  0  0  0  0  0  0  0  0  0  0  0
  -21.6952  -11.5890   21.3054 C   0  0  0  0  0  0  0  0  0  0  0  0
  -29.4590  -27.3777   21.1903 C   0  0  0  0  0  0  0  0  0  0  0  0
  -27.7688  -25.6515   21.1686 C   0  0  0  0  0  0  0  0  0  0  0  0
  -23.5233  -10.0766   20.8738 C   0  0  0  0  0  0  0  0  0  0  0  0
  -22.5826  -12.6643   21.2799 C   0  0  0  0  0  0  0  0  0  0  0  0
  -20.8128  -16.5805   18.6010 C   0  0  0  0  0  0  0  0  0  0  0  0
  -19.0158  -27.1697   21.2082 C   0  0  0  0  0  0  0  0  0  0  0  0
  -18.7954  -25.8236   20.9168 C   0  0  0  0  0  0  0  0  0  0  0  0
  -30.3635  -26.4849   21.7651 C   0  0  0  0  0  0  0  0  0  0  0  0
  -28.6733  -24.7587   21.7434 C   0  0  0  0  0  0  0  0  0  0  0  0
  -19.8586  -17.3917   19.2136 C   0  0  0  0  0  0  0  0  0  0  0  0
  -29.9286  -24.1166   24.8162 C   0  0  0  0  0  0  0  0  0  0  0  0
  -29.4762  -23.3257   25.8723 C   0  0  0  0  0  0  0  0  0  0  0  0
  -21.5750  -19.0033   19.7391 C   0  0  0  0  0  0  0  0  0  0  0  0
  -20.0856  -26.5454   23.2826 C   0  0  0  0  0  0  0  0  0  0  0  0
  -29.9733  -21.3360   24.5952 C   0  0  0  0  0  0  0  0  0  0  0  0
  -28.1616  -26.9611   20.8921 C   0  0  0  0  0  0  0  0  0  0  0  0
  -27.0118  -28.1105   18.9263 C   0  0  0  0  0  0  0  0  0  0  0  0
  -24.4263  -11.1507   20.8358 C   0  0  0  0  0  0  0  0  0  0  0  0
  -22.1593  -16.9701   18.5624 C   0  0  0  0  0  0  0  0  0  0  0  0
  -23.9539  -12.4594   21.0514 C   0  0  0  0  0  0  0  0  0  0  0  0
  -22.5439  -18.1964   19.1231 C   0  0  0  0  0  0  0  0  0  0  0  0
  -19.6609  -27.5307   22.3912 C   0  0  0  0  0  0  0  0  0  0  0  0
  -19.2200  -24.8384   21.8082 C   0  0  0  0  0  0  0  0  0  0  0  0
  -29.9706  -25.1754   22.0416 C   0  0  0  0  0  0  0  0  0  0  0  0
  -20.2401  -18.6019   19.7853 C   0  0  0  0  0  0  0  0  0  0  0  0
  -30.4034  -23.5172   23.6496 C   0  0  0  0  0  0  0  0  0  0  0  0
  -29.4985  -21.9354   25.7618 C   0  0  0  0  0  0  0  0  0  0  0  0
  -19.8651  -25.1993   22.9912 C   0  0  0  0  0  0  0  0  0  0  0  0
  -30.4258  -22.1269   23.5391 C   0  0  0  0  0  0  0  0  0  0  0  0
  -27.2267  -27.8830   20.2988 C   0  0  0  0  0  0  0  0  0  0  0  0
  -26.0305  -29.0706   18.8868 C   0  0  0  0  0  0  0  0  0  0  0  0
  -27.6428  -27.5076   17.7886 C   0  0  0  0  0  0  0  0  0  0  0  0
  -24.8738  -15.7757   19.7064 C   0  0  0  0  0  0  0  0  0  0  0  0
  -26.2017  -18.1978   18.0056 C   0  0  0  0  0  0  0  0  0  0  0  0
  -25.8342  -21.2733   16.5728 C   0  0  0  0  0  0  0  0  0  0  0  0
  -21.7190  -30.6545   22.7278 C   0  0  0  0  0  0  0  0  0  0  0  0
  -25.8921  -10.8600   20.6317 C   0  0  0  0  0  0  0  0  0  0  0  0
  -23.1719  -16.0962   17.8743 C   0  0  0  0  0  0  0  0  0  0  0  0
  -23.9733  -18.6699   19.0904 C   0  0  0  0  0  0  0  0  0  0  0  0
  -26.7095  -12.0908   20.2478 C   0  0  0  0  0  0  0  0  0  0  0  0
  -24.2817  -32.7430   21.4060 C   0  0  0  0  0  0  0  0  0  0  0  0
  -26.3584  -13.2681   21.1520 C   0  0  0  0  0  0  0  0  0  0  0  0
  -25.3077  -31.7548   20.8485 C   0  0  0  0  0  0  0  0  0  0  0  0
  -23.6361  -32.2228   22.6884 C   0  0  0  0  0  0  0  0  0  0  0  0
  -24.0673  -29.8893   22.0233 C   0  0  0  0  0  0  0  0  0  0  0  0
  -24.8815  -13.6543   21.0065 C   0  0  1  0  0  0  0  0  0  0  0  0
  -24.6001  -16.3515   18.3458 C   0  0  1  0  0  0  0  0  0  0  0  0
  -24.7048  -30.3450   20.6996 C   0  0  2  0  0  0  0  0  0  0  0  0
  -27.1065  -23.0114   15.2854 C   0  0  0  0  0  0  0  0  0  0  0  0
  -27.6270  -19.0474   20.5662 C   0  0  0  0  0  0  0  0  0  0  0  0
  -28.0934  -21.2593   19.4899 C   0  0  0  0  0  0  0  0  0  0  0  0
  -29.0314  -19.1704   18.5005 C   0  0  0  0  0  0  0  0  0  0  0  0
  -24.0043  -21.0639   14.2562 C   0  0  0  0  0  0  0  0  0  0  0  0
  -19.8967  -28.9699   22.7027 C   0  0  0  0  0  0  0  0  0  0  0  0
  -18.2024  -21.5230   20.3282 C   0  0  0  0  0  0  0  0  0  0  0  0
  -18.3414  -23.0406   20.3177 C   0  0  0  0  0  0  0  0  0  0  0  0
  -19.5453  -20.8027   20.3593 C   0  0  0  0  0  0  0  0  0  1  0  0
  -26.5553  -19.6371   18.2924 C   0  0  1  0  0  0  0  0  0  0  0  0
  -26.2013  -21.7928   15.1945 C   0  0  2  0  0  0  0  0  0  0  0  0
  -27.8001  -19.7690   19.2147 C   0  0  0  0  0  0  0  0  0  0  0  0
  -26.4449  -28.6381   21.0752 N   0  0  0  0  0  0  0  0  0  0  0  0
  -25.7292  -29.3494   20.1875 N   0  0  0  0  0  0  0  0  0  0  0  0
  -24.9273  -17.7773   18.4118 N   0  0  0  0  0  0  0  0  0  0  0  0
  -23.0825  -30.8828   22.4792 N   0  0  0  0  0  0  0  0  0  0  0  0
  -25.4046  -29.6953   17.8668 N   0  0  0  0  0  0  0  0  0  0  0  0
  -28.6309  -26.5383   18.0083 N   0  0  0  0  0  0  0  0  0  0  0  0
  -18.9997  -23.5013   21.5163 N   0  0  0  0  0  0  0  0  0  0  0  0
  -24.6744  -14.4109   19.7903 N   0  0  0  0  0  0  0  0  0  0  0  0
  -26.7014  -20.2879   16.9949 N   0  0  0  0  0  0  0  0  0  0  0  0
  -21.2745  -29.3582   22.4982 N   0  0  0  0  0  0  0  0  0  0  0  0
  -24.9736  -22.1744   14.4408 N   0  3  0  0  0  0  0  0  0  0  0  0
  -27.3508  -27.8311   16.6124 O   0  0  0  0  0  0  0  0  0  0  0  0
  -25.2402  -16.5148   20.6127 O   0  0  0  0  0  0  0  0  0  0  0  0
  -27.0230  -17.4753   17.4356 O   0  0  0  0  0  0  0  0  0  0  0  0
  -24.8762  -21.7016   17.2127 O   0  0  0  0  0  0  0  0  0  0  0  0
  -20.9533  -31.5415   23.1200 O   0  0  0  0  0  0  0  0  0  0  0  0
  -30.8530  -24.3038   22.6023 O   0  0  0  0  0  0  0  0  0  0  0  0
  -19.3110  -19.3953   20.3844 O   0  0  0  0  0  0  0  0  0  1  0  0
  -29.0654  -21.1760   26.7766 F   0  0  0  0  0  0  0  0  0  0  0  0
  -20.2775  -24.2606   23.8550 F   0  0  0  0  0  0  0  0  0  0  0  0
  -30.8819  -21.5454   22.4212 F   0  0  0  0  0  0  0  0  0  0  0  0
  1  2  1  0  0  0  0
  1  5  2  0  0  0  0
  2  6  2  0  0  0  0
  3 10  2  0  0  0  0
  3 18  1  0  0  0  0
  4 11  1  0  0  0  0
  4 18  2  0  0  0  0
  5 20  1  0  0  0  0
  6 22  1  0  0  0  0
  7 12  2  0  0  0  0
  7 21  1  0  0  0  0
  8  9  2  0  0  0  0
  8 24  1  0  0  0  0
  9 25  1  0  0  0  0
 10 26  1  0  0  0  0
 11 26  2  0  0  0  0
 12 27  1  0  0  0  0
 13 14  2  0  0  0  0
 13 28  1  0  0  0  0
 14 29  1  0  0  0  0
 15 23  1  0  0  0  0
 15 27  2  0  0  0  0
 16 24  2  0  0  0  0
 16 30  1  0  0  0  0
 17 29  2  0  0  0  0
 17 31  1  0  0  0  0
 18 32  1  0  0  0  0
 19 32  1  0  0  0  0
 19 33  2  0  0  0  0
 19 34  1  0  0  0  0
 20 22  2  0  0  0  0
 20 39  1  0  0  0  0
 21 23  2  0  0  0  0
 21 40  1  0  0  0  0
 22 48  1  0  0  0  0
 23 41  1  0  0  0  0
 24 56  1  0  0  0  0
 25 30  2  0  0  0  0
 25 69  1  0  0  0  0
 26 79  1  0  0  0  0
 27 80  1  0  0  0  0
 28 31  2  0  0  0  0
 28 79  1  0  0  0  0
 29 81  1  0  0  0  0
 30 82  1  0  0  0  0
 31 83  1  0  0  0  0
 32 63  2  0  0  0  0
 33 64  1  0  0  0  0
 33 67  1  0  0  0  0
 34 68  1  0  0  0  0
 34 74  2  0  0  0  0
 35 49  1  0  0  0  0
 35 70  1  0  0  0  0
 35 75  2  0  0  0  0
 36 60  1  0  0  0  0
 36 65  1  0  0  0  0
 36 76  2  0  0  0  0
 37 61  1  0  0  0  0
 37 71  1  0  0  0  0
 37 77  2  0  0  0  0
 38 66  1  0  0  0  0
 38 72  1  0  0  0  0
 38 78  2  0  0  0  0
 39 42  1  0  0  0  0
 40 49  1  0  0  0  0
 41 65  1  0  0  0  0
 42 44  1  0  0  0  0
 43 45  1  0  0  0  0
 43 46  1  0  0  0  0
 44 48  1  0  0  0  0
 45 50  1  0  0  0  0
 46 66  1  0  0  0  0
 47 50  1  0  0  0  0
 47 66  1  0  0  0  0
 48 70  1  0  0  0  0
 49 65  1  0  0  0  0
 50 64  1  0  0  0  0
 51 61  1  0  0  0  0
 52 62  1  0  0  0  0
 53 62  1  0  0  0  0
 54 62  1  0  0  0  0
 55 73  1  0  0  0  0
 56 72  1  0  0  0  0
 57 58  1  0  0  0  0
 57 59  1  0  0  0  0
 58 69  1  0  0  0  0
 59 80  1  0  0  0  0
 60 62  1  0  0  0  0
 60 71  1  0  0  0  0
 61 73  1  0  0  0  0
 63 64  1  0  0  0  0
M  CHG  1  73   1
M  ISO  4  38 100  59 101  72 100  80 101
M  END
> <Batch ID>
0101

> <Smiles>
CNC(C)C(=O)NC(C(=O)N1Cc2cc([101O:1][101CH2:1]CCNc3ccc(C[100NH:0][100C:0](=O)N4CCCC(n5nc(-c6ccc(Oc7ccc(F)cc7F)cc6)c(C(N)=O)c5N)C4)cc3F)ccc2CC1C(=O)NC1CCCc2ccccc21)C(C)(C)C

> <Shape>
0.203

> <Color>
0.059

> <Negative vol penalty>
0.000

$$$$

  -OEChem-04052301003D

 84 93  0     1  0  0  0  0  0999 V2000
  -28.4351  -36.6940   20.3673 C   0  0  0  0  0  0  0  0  0  0  0  0
  -28.6688  -35.3995   19.9143 C   0  0  0  0  0  0  0  0  0  0  0  0
  -23.4290   -9.3387   20.4058 C   0  0  0  0  0  0  0  0  0  0  0  0
  -23.0271  -11.1381   21.9672 C   0  0  0  0  0  0  0  0  0  0  0  0
  -27.8765  -36.8998   21.6281 C   0  0  0  0  0  0  0  0  0  0  0  0
  -28.3449  -34.3102   20.7222 C   0  0  0  0  0  0  0  0  0  0  0  0
  -26.2724  -28.8490   18.8820 C   0  0  0  0  0  0  0  0  0  0  0  0
  -30.7745  -19.7330   20.1494 C   0  0  0  0  0  0  0  0  0  0  0  0
  -30.5975  -18.3515   20.0758 C   0  0  0  0  0  0  0  0  0  0  0  0
  -22.5781   -8.5120   21.1395 C   0  0  0  0  0  0  0  0  0  0  0  0
  -22.1762  -10.3114   22.7008 C   0  0  0  0  0  0  0  0  0  0  0  0
  -26.9084  -27.6260   18.6736 C   0  0  0  0  0  0  0  0  0  0  0  0
  -22.7209   -6.6813   23.9771 C   0  0  0  0  0  0  0  0  0  0  0  0
  -23.1486   -5.3793   24.2369 C   0  0  0  0  0  0  0  0  0  0  0  0
  -26.2648  -26.9206   20.8889 C   0  0  0  0  0  0  0  0  0  0  0  0
  -28.6370  -20.0643   19.0731 C   0  0  0  0  0  0  0  0  0  0  0  0
  -21.2226   -4.5125   23.0637 C   0  0  0  0  0  0  0  0  0  0  0  0
  -23.6536  -10.6517   20.8197 C   0  0  0  0  0  0  0  0  0  0  0  0
  -24.1827  -12.3542   18.9952 C   0  0  0  0  0  0  0  0  0  0  0  0
  -27.5367  -35.8122   22.4480 C   0  0  0  0  0  0  0  0  0  0  0  0
  -25.6361  -29.1217   20.1015 C   0  0  0  0  0  0  0  0  0  0  0  0
  -27.7824  -34.5017   21.9957 C   0  0  0  0  0  0  0  0  0  0  0  0
  -25.6192  -28.1469   21.1093 C   0  0  0  0  0  0  0  0  0  0  0  0
  -29.7943  -20.5895   19.6481 C   0  0  0  0  0  0  0  0  0  0  0  0
  -29.4403  -17.8262   19.5008 C   0  0  0  0  0  0  0  0  0  0  0  0
  -28.4600  -18.6827   18.9994 C   0  0  0  0  0  0  0  0  0  0  0  0
  -21.9517   -8.9984   22.2869 C   0  0  0  0  0  0  0  0  0  0  0  0
  -26.9072  -26.6627   19.6781 C   0  0  0  0  0  0  0  0  0  0  0  0
  -21.5440   -6.8989   23.2607 C   0  0  0  0  0  0  0  0  0  0  0  0
  -22.3994   -4.2949   23.7802 C   0  0  0  0  0  0  0  0  0  0  0  0
  -20.7948   -5.8145   22.8040 C   0  0  0  0  0  0  0  0  0  0  0  0
  -24.5329  -11.5059   20.0626 C   0  0  0  0  0  0  0  0  0  0  0  0
  -25.3661  -12.9433   18.6222 C   0  0  0  0  0  0  0  0  0  0  0  0
  -29.5544  -24.2383   19.6708 C   0  0  0  0  0  0  0  0  0  0  0  0
  -28.8457  -25.3620   19.8235 C   0  0  0  0  0  0  0  0  0  1  0  0
  -22.9021  -12.5889   18.3944 C   0  0  0  0  0  0  0  0  0  0  0  0
  -26.0342  -31.2726   22.4077 C   0  0  0  0  0  0  0  0  0  0  0  0
  -23.3192  -29.9418   23.5825 C   0  0  0  0  0  0  0  0  0  0  0  0
  -21.2505  -27.2316   23.7312 C   0  0  0  0  0  0  0  0  0  0  0  0
  -30.1733  -15.4484   19.8942 C   0  0  0  0  0  0  0  0  0  0  0  0
  -26.9788  -36.0855   23.8223 C   0  0  0  0  0  0  0  0  0  0  0  0
  -24.9315  -30.4356   20.3007 C   0  0  0  0  0  0  0  0  0  0  0  0
  -24.9328  -28.3825   22.4290 C   0  0  0  0  0  0  0  0  0  0  0  0
  -30.9962  -24.0743   20.0341 C   0  0  0  0  0  0  0  0  0  0  0  0
  -28.9937  -22.9225   19.2214 C   0  0  0  0  0  0  0  0  0  0  0  0
  -26.3176  -34.8686   24.4644 C   0  0  0  0  0  0  0  0  0  0  0  0
  -30.1341  -11.8886   19.9547 C   0  0  0  0  0  0  0  0  0  0  0  0
  -27.2041  -33.6367   24.3115 C   0  0  0  0  0  0  0  0  0  0  0  0
  -28.6445  -11.5415   19.9004 C   0  0  0  0  0  0  0  0  0  0  0  0
  -31.0851  -22.5988   20.4138 C   0  0  0  0  0  0  0  0  0  0  0  0
  -30.3944  -13.1410   20.7899 C   0  0  0  0  0  0  0  0  0  0  0  0
  -28.1172  -13.9719   20.3502 C   0  0  0  0  0  0  0  0  0  0  0  0
  -27.4217  -33.2937   22.8328 C   0  0  1  0  0  0  0  0  0  0  0  0
  -24.7568  -30.8030   21.7710 C   0  0  1  0  0  0  0  0  0  0  0  0
  -27.7986  -12.7547   19.4666 C   0  0  2  0  0  0  0  0  0  0  0  0
  -19.1285  -26.4298   24.8042 C   0  0  0  0  0  0  0  0  0  0  0  0
  -24.8074  -29.5332   26.2146 C   0  0  0  0  0  0  0  0  0  0  0  0
  -23.0168  -27.9216   26.8963 C   0  0  0  0  0  0  0  0  0  0  0  0
  -22.4433  -30.3102   26.4626 C   0  0  0  0  0  0  0  0  0  0  0  0
  -19.9279  -26.8621   21.1096 C   0  0  0  0  0  0  0  0  0  0  0  0
  -23.0069  -28.7978   24.5166 C   0  0  1  0  0  0  0  0  0  0  0  0
  -19.7445  -27.1050   23.5888 C   0  0  2  0  0  0  0  0  0  0  0  0
  -23.3333  -29.1367   25.9985 C   0  0  0  0  0  0  0  0  0  0  0  0
  -25.8367  -11.5491   20.3492 N   0  0  0  0  0  0  0  0  0  0  0  0
  -26.3162  -12.4316   19.4562 N   0  0  0  0  0  0  0  0  0  0  0  0
  -29.9696  -21.9574   19.7217 N   0  0  3  0  0  0  0  0  0  0  0  0
  -24.2633  -29.6852   22.5781 N   0  0  0  0  0  0  0  0  0  0  0  0
  -29.5617  -14.2499   20.3189 N   0  0  0  0  0  0  0  0  0  0  0  0
  -27.2798  -18.1722   18.4134 N   0  0  0  0  0  0  0  0  0  0  0  0
  -25.6762  -13.8437   17.6654 N   0  0  0  0  0  0  0  0  0  0  0  0
  -21.7907  -11.9008   18.9002 N   0  0  0  0  0  0  0  0  0  0  0  0
  -29.2830  -16.4195   19.4370 N   0  0  0  0  0  0  0  0  0  0  0  0
  -26.2547  -32.6317   22.2905 N   0  0  0  0  0  0  0  0  0  0  0  0
  -21.6116  -28.4450   24.2777 N   0  0  0  0  0  0  0  0  0  0  0  0
  -19.4043  -26.3004   22.3813 N   0  3  0  0  0  0  0  0  0  0  0  0
  -22.7508  -13.3727   17.4269 O   0  0  0  0  0  0  0  0  0  0  0  0
  -26.7649  -30.4622   22.9653 O   0  0  0  0  0  0  0  0  0  0  0  0
  -22.7414  -31.0211   23.7338 O   0  0  0  0  0  0  0  0  0  0  0  0
  -22.0286  -26.3416   23.3951 O   0  0  0  0  0  0  0  0  0  0  0  0
  -31.3985  -15.5919   19.9076 O   0  0  0  0  0  0  0  0  0  0  0  0
  -21.1211   -8.1921   23.0029 O   0  0  0  0  0  0  0  0  0  0  0  0
  -27.5278  -25.4683   19.4776 O   0  0  0  0  0  0  0  0  0  1  0  0
  -22.8111   -3.0447   24.0284 F   0  0  0  0  0  0  0  0  0  0  0  0
  -19.6640   -6.0173   22.1141 F   0  0  0  0  0  0  0  0  0  0  0  0
  1  2  1  0  0  0  0
  1  5  2  0  0  0  0
  2  6  2  0  0  0  0
  3 10  2  0  0  0  0
  3 18  1  0  0  0  0
  4 11  1  0  0  0  0
  4 18  2  0  0  0  0
  5 20  1  0  0  0  0
  6 22  1  0  0  0  0
  7 12  2  0  0  0  0
  7 21  1  0  0  0  0
  8  9  2  0  0  0  0
  8 24  1  0  0  0  0
  9 25  1  0  0  0  0
 10 27  1  0  0  0  0
 11 27  2  0  0  0  0
 12 28  1  0  0  0  0
 13 14  2  0  0  0  0
 13 29  1  0  0  0  0
 14 30  1  0  0  0  0
 15 23  1  0  0  0  0
 15 28  2  0  0  0  0
 16 24  2  0  0  0  0
 16 26  1  0  0  0  0
 17 30  2  0  0  0  0
 17 31  1  0  0  0  0
 18 32  1  0  0  0  0
 19 32  1  0  0  0  0
 19 33  2  0  0  0  0
 19 36  1  0  0  0  0
 20 22  2  0  0  0  0
 20 41  1  0  0  0  0
 21 23  2  0  0  0  0
 21 42  1  0  0  0  0
 22 53  1  0  0  0  0
 23 43  1  0  0  0  0
 24 66  1  0  0  0  0
 25 26  2  0  0  0  0
 25 72  1  0  0  0  0
 26 69  1  0  0  0  0
 27 81  1  0  0  0  0
 28 82  1  0  0  0  0
 29 31  2  0  0  0  0
 29 81  1  0  0  0  0
 30 83  1  0  0  0  0
 31 84  1  0  0  0  0
 32 64  2  0  0  0  0
 33 65  1  0  0  0  0
 33 70  1  0  0  0  0
 34 35  2  0  0  0  0
 34 44  1  0  0  0  0
 34 45  1  0  0  0  0
 35 82  1  0  0  0  0
 36 71  1  0  0  0  0
 36 76  2  0  0  0  0
 37 54  1  0  0  0  0
 37 73  1  0  0  0  0
 37 77  2  0  0  0  0
 38 61  1  0  0  0  0
 38 67  1  0  0  0  0
 38 78  2  0  0  0  0
 39 62  1  0  0  0  0
 39 74  1  0  0  0  0
 39 79  2  0  0  0  0
 40 68  1  0  0  0  0
 40 72  1  0  0  0  0
 40 80  2  0  0  0  0
 41 46  1  0  0  0  0
 42 54  1  0  0  0  0
 43 67  1  0  0  0  0
 44 50  1  0  0  0  0
 45 66  1  0  0  0  0
 46 48  1  0  0  0  0
 47 49  1  0  0  0  0
 47 51  1  0  0  0  0
 48 53  1  0  0  0  0
 49 55  1  0  0  0  0
 50 66  1  0  0  0  0
 51 68  1  0  0  0  0
 52 55  1  0  0  0  0
 52 68  1  0  0  0  0
 53 73  1  0  0  0  0
 54 67  1  0  0  0  0
 55 65  1  0  0  0  0
 56 62  1  0  0  0  0
 57 63  1  0  0  0  0
 58 63  1  0  0  0  0
 59 63  1  0  0  0  0
 60 75  1  0  0  0  0
 61 63  1  0  0  0  0
 61 74  1  0  0  0  0
 62 75  1  0  0  0  0
 64 65  1  0  0  0  0
M  CHG  1  75   1
M  ISO  4  35 101  40 100  72 100  82 101
M  END
> <Batch ID>
0101

> <Smiles>
CNC(C)C(=O)NC(C(=O)N1Cc2cc([101O:1][101CH:1]=C3CCN(c4ccc([100NH:0][100C:0](=O)N5CCCC(n6nc(-c7ccc(Oc8ccc(F)cc8F)cc7)c(C(N)=O)c6N)C5)c(N)c4)C3)ccc2CC1C(=O)NC1CCCc2ccccc21)C(C)(C)C

> <Shape>
0.327

> <Color>
0.098

> <Negative vol penalty>
0.000

$$$$

  -OEChem-04052301003D

 87 96  0     1  0  0  0  0  0999 V2000
  -28.9869  -27.4972   38.1337 C   0  0  0  0  0  0  0  0  0  0  0  0
  -29.1666  -26.8123   36.9362 C   0  0  0  0  0  0  0  0  0  0  0  0
  -22.6456  -10.2124   20.2576 C   0  0  0  0  0  0  0  0  0  0  0  0
  -24.2525   -9.5416   21.9324 C   0  0  0  0  0  0  0  0  0  0  0  0
  -30.0422  -27.6055   39.0385 C   0  0  0  0  0  0  0  0  0  0  0  0
  -30.4020  -26.2363   36.6423 C   0  0  0  0  0  0  0  0  0  0  0  0
  -29.9660  -21.5441   34.7881 C   0  0  0  0  0  0  0  0  0  0  0  0
  -29.0675  -17.7265   23.4783 C   0  0  0  0  0  0  0  0  0  0  0  0
  -28.6746  -18.1504   24.7477 C   0  0  0  0  0  0  0  0  0  0  0  0
  -21.9011   -9.0603   20.5105 C   0  0  0  0  0  0  0  0  0  0  0  0
  -23.5080   -8.3895   22.1853 C   0  0  0  0  0  0  0  0  0  0  0  0
  -29.5979  -21.4203   33.4491 C   0  0  0  0  0  0  0  0  0  0  0  0
  -23.0514   -5.3562   20.7633 C   0  0  0  0  0  0  0  0  0  0  0  0
  -23.7423   -4.1497   20.8753 C   0  0  0  0  0  0  0  0  0  0  0  0
  -31.9054  -21.0427   32.8558 C   0  0  0  0  0  0  0  0  0  0  0  0
  -31.3197  -17.3930   24.2867 C   0  0  0  0  0  0  0  0  0  0  0  0
  -22.9141   -3.8846   23.1294 C   0  0  0  0  0  0  0  0  0  0  0  0
  -23.8214  -10.4531   20.9685 C   0  0  0  0  0  0  0  0  0  0  0  0
  -24.1650  -12.9776   20.8420 C   0  0  0  0  0  0  0  0  0  0  0  0
  -31.2883  -27.0223   38.7599 C   0  0  0  0  0  0  0  0  0  0  0  0
  -31.3103  -21.4288   35.1702 C   0  0  0  0  0  0  0  0  0  0  0  0
  -31.4753  -26.3382   37.5436 C   0  0  0  0  0  0  0  0  0  0  0  0
  -32.2877  -21.1629   34.2006 C   0  0  0  0  0  0  0  0  0  0  0  0
  -30.3901  -17.3478   23.2477 C   0  0  0  0  0  0  0  0  0  0  0  0
  -29.6042  -18.1956   25.7867 C   0  0  0  0  0  0  0  0  0  0  0  0
  -22.3323   -8.1489   21.4743 C   0  0  0  0  0  0  0  0  0  0  0  0
  -30.5680  -21.1724   32.4823 C   0  0  0  0  0  0  0  0  0  0  0  0
  -22.2919   -5.8270   21.8344 C   0  0  0  0  0  0  0  0  0  0  0  0
  -23.6737   -3.4139   22.0583 C   0  0  0  0  0  0  0  0  0  0  0  0
  -30.9268  -17.8169   25.5562 C   0  0  0  0  0  0  0  0  0  0  0  0
  -22.2232   -5.0912   23.0174 C   0  0  0  0  0  0  0  0  0  0  0  0
  -24.5912  -11.6427   20.7074 C   0  0  0  0  0  0  0  0  0  0  0  0
  -25.2575  -13.7254   20.4763 C   0  0  0  0  0  0  0  0  0  0  0  0
  -28.1191  -20.2324   28.5586 C   0  0  0  0  0  0  0  0  0  0  0  0
  -28.9022  -19.8386   29.5763 C   0  0  0  0  0  0  0  0  0  0  0  0
  -22.8951  -13.4954   21.2603 C   0  0  0  0  0  0  0  0  0  0  0  0
  -33.4256  -23.3632   36.5442 C   0  0  0  0  0  0  0  0  0  0  0  0
  -35.2802  -20.7019   36.5374 C   0  0  0  0  0  0  0  0  0  0  0  0
  -36.0018  -18.0009   34.2567 C   0  0  0  0  0  0  0  0  0  0  0  0
  -30.7421  -14.7409   20.6591 C   0  0  0  0  0  0  0  0  0  0  0  0
  -32.4131  -27.2064   39.7476 C   0  0  0  0  0  0  0  0  0  0  0  0
  -31.6877  -21.5384   36.6221 C   0  0  0  0  0  0  0  0  0  0  0  0
  -33.7420  -21.0104   34.5615 C   0  0  0  0  0  0  0  0  0  0  0  0
  -28.1195  -19.5938   27.1983 C   0  0  0  0  0  0  0  0  0  0  0  0
  -29.8297  -18.6627   29.4310 C   0  0  0  0  0  0  0  0  0  0  0  0
  -33.5797  -26.2466   39.5281 C   0  0  0  0  0  0  0  0  0  0  0  0
  -29.6014  -12.3512   18.2789 C   0  0  0  0  0  0  0  0  0  0  0  0
  -33.9588  -26.1962   38.0514 C   0  0  0  0  0  0  0  0  0  0  0  0
  -28.1640  -12.0597   18.7133 C   0  0  0  0  0  0  0  0  0  0  0  0
  -29.4936  -17.7829   28.2251 C   0  0  0  0  0  0  0  0  0  0  0  0
  -30.5194  -12.5744   19.4787 C   0  0  0  0  0  0  0  0  0  0  0  0
  -28.6189  -13.3104   20.8645 C   0  0  0  0  0  0  0  0  0  0  0  0
  -32.7932  -25.6785   37.1999 C   0  0  1  0  0  0  0  0  0  0  0  0
  -33.1512  -21.9142   36.8324 C   0  0  1  0  0  0  0  0  0  0  0  0
  -27.6440  -13.1335   19.6879 C   0  0  2  0  0  0  0  0  0  0  0  0
  -30.6077  -17.9699   20.8131 C   0  0  0  0  0  0  0  0  0  0  0  0
  -36.7398  -15.6438   34.7007 C   0  0  0  0  0  0  0  0  0  0  0  0
  -38.0937  -21.8169   36.1486 C   0  0  0  0  0  0  0  0  0  0  0  0
  -38.6955  -19.6953   34.9634 C   0  0  0  0  0  0  0  0  0  0  0  0
  -37.9962  -19.6295   37.3570 C   0  0  0  0  0  0  0  0  0  0  0  0
  -33.7353  -16.8786   32.7197 C   0  0  0  0  0  0  0  0  0  0  0  0
  -28.9080  -20.5389   30.9014 C   0  0  0  0  0  0  0  0  0  1  0  0
  -30.8102  -16.8945   21.8905 C   0  0  2  0  0  0  0  0  0  0  0  0
  -36.2652  -20.0877   35.5722 C   0  0  1  0  0  0  0  0  0  0  0  0
  -35.5614  -16.5545   34.3927 C   0  0  2  0  0  0  0  0  0  0  0  0
  -37.7409  -20.3233   36.0012 C   0  0  0  0  0  0  0  0  0  0  0  0
  -25.8557  -11.5449   20.2887 N   0  0  0  0  0  0  0  0  0  0  0  0
  -26.2335  -12.8279   20.1569 N   0  0  0  0  0  0  0  0  0  0  0  0
  -29.2084  -18.6204   27.0566 N   0  0  1  0  0  0  0  0  0  0  0  0
  -34.0617  -21.1322   35.9935 N   0  0  0  0  0  0  0  0  0  0  0  0
  -29.9700  -13.6056   20.3624 N   0  0  0  0  0  0  0  0  0  0  0  0
  -25.4688  -15.0565   20.3998 N   0  0  0  0  0  0  0  0  0  0  0  0
  -21.8827  -12.5879   21.6004 N   0  0  0  0  0  0  0  0  0  0  0  0
  -32.6844  -24.2399   37.3133 N   0  0  0  0  0  0  0  0  0  0  0  0
  -35.8954  -18.6816   35.4511 N   0  0  0  0  0  0  0  0  0  0  0  0
  -30.1441  -15.6723   21.4991 N   0  0  0  0  0  0  0  0  0  0  0  0
  -34.9232  -16.0864   33.1299 N   0  3  0  0  0  0  0  0  0  0  0  0
  -22.6598  -14.7264   21.3147 O   0  0  0  0  0  0  0  0  0  0  0  0
  -34.2498  -23.6635   35.6885 O   0  0  0  0  0  0  0  0  0  0  0  0
  -35.5781  -20.7898   37.7312 O   0  0  0  0  0  0  0  0  0  0  0  0
  -36.4038  -18.4780   33.1978 O   0  0  0  0  0  0  0  0  0  0  0  0
  -31.8779  -14.9144   20.2044 O   0  0  0  0  0  0  0  0  0  0  0  0
  -21.6059   -7.0246   21.7215 O   0  0  0  0  0  0  0  0  0  0  0  0
  -30.2114  -21.0517   31.1746 O   0  0  0  0  0  0  0  0  0  1  0  0
  -24.3360   -2.2545   22.1651 F   0  0  0  0  0  0  0  0  0  0  0  0
  -31.8285  -17.8564   26.5475 F   0  0  0  0  0  0  0  0  0  0  0  0
  -21.4943   -5.5377   24.0494 F   0  0  0  0  0  0  0  0  0  0  0  0
  1  2  1  0  0  0  0
  1  5  2  0  0  0  0
  2  6  2  0  0  0  0
  3 10  2  0  0  0  0
  3 18  1  0  0  0  0
  4 11  1  0  0  0  0
  4 18  2  0  0  0  0
  5 20  1  0  0  0  0
  6 22  1  0  0  0  0
  7 12  2  0  0  0  0
  7 21  1  0  0  0  0
  8  9  2  0  0  0  0
  8 24  1  0  0  0  0
  9 25  1  0  0  0  0
 10 26  1  0  0  0  0
 11 26  2  0  0  0  0
 12 27  1  0  0  0  0
 13 14  2  0  0  0  0
 13 28  1  0  0  0  0
 14 29  1  0  0  0  0
 15 23  1  0  0  0  0
 15 27  2  0  0  0  0
 16 24  2  0  0  0  0
 16 30  1  0  0  0  0
 17 29  2  0  0  0  0
 17 31  1  0  0  0  0
 18 32  1  0  0  0  0
 19 32  1  0  0  0  0
 19 33  2  0  0  0  0
 19 36  1  0  0  0  0
 20 22  2  0  0  0  0
 20 41  1  0  0  0  0
 21 23  2  0  0  0  0
 21 42  1  0  0  0  0
 22 53  1  0  0  0  0
 23 43  1  0  0  0  0
 24 63  1  0  0  0  0
 25 30  2  0  0  0  0
 25 69  1  0  0  0  0
 26 83  1  0  0  0  0
 27 84  1  0  0  0  0
 28 31  2  0  0  0  0
 28 83  1  0  0  0  0
 29 85  1  0  0  0  0
 30 86  1  0  0  0  0
 31 87  1  0  0  0  0
 32 67  2  0  0  0  0
 33 68  1  0  0  0  0
 33 72  1  0  0  0  0
 34 35  2  0  0  0  0
 34 44  1  0  0  0  0
 35 45  1  0  0  0  0
 35 62  1  0  0  0  0
 36 73  1  0  0  0  0
 36 78  2  0  0  0  0
 37 54  1  0  0  0  0
 37 74  1  0  0  0  0
 37 79  2  0  0  0  0
 38 64  1  0  0  0  0
 38 70  1  0  0  0  0
 38 80  2  0  0  0  0
 39 65  1  0  0  0  0
 39 75  1  0  0  0  0
 39 81  2  0  0  0  0
 40 71  1  0  0  0  0
 40 76  1  0  0  0  0
 40 82  2  0  0  0  0
 41 46  1  0  0  0  0
 42 54  1  0  0  0  0
 43 70  1  0  0  0  0
 44 69  1  0  0  0  0
 45 50  1  0  0  0  0
 46 48  1  0  0  0  0
 47 49  1  0  0  0  0
 47 51  1  0  0  0  0
 48 53  1  0  0  0  0
 49 55  1  0  0  0  0
 50 69  1  0  0  0  0
 51 71  1  0  0  0  0
 52 55  1  0  0  0  0
 52 71  1  0  0  0  0
 53 74  1  0  0  0  0
 54 70  1  0  0  0  0
 55 68  1  0  0  0  0
 56 63  1  0  0  0  0
 57 65  1  0  0  0  0
 58 66  1  0  0  0  0
 59 66  1  0  0  0  0
 60 66  1  0  0  0  0
 61 77  1  0  0  0  0
 62 84  1  0  0  0  0
 63 76  1  0  0  0  0
 64 66  1  0  0  0  0
 64 75  1  0  0  0  0
 65 77  1  0  0  0  0
 67 68  1  0  0  0  0
M  CHG  1  77   1
M  ISO  4  40 100  62 101  76 100  84 101
M  END
> <Batch ID>
0101

> <Smiles>
CNC(C)C(=O)NC(C(=O)N1Cc2cc([101O:1][101CH2:1]C3=CCN(c4ccc(C(C)[100NH:0][100C:0](=O)N5CCCC(n6nc(-c7ccc(Oc8ccc(F)cc8F)cc7)c(C(N)=O)c6N)C5)cc4F)CC3)ccc2CC1C(=O)NC1CCCc2ccccc21)C(C)(C)C

> <Shape>
0.172

> <Color>
0.196

> <Negative vol penalty>
0.000

$$$$

  -OEChem-04052301003D

 89 98  0     1  0  0  0  0  0999 V2000
  -17.5703  -33.0790   23.7221 C   0  0  0  0  0  0  0  0  0  0  0  0
  -17.9908  -32.4800   22.5390 C   0  0  0  0  0  0  0  0  0  0  0  0
  -23.0318   -7.3532   22.4386 C   0  0  0  0  0  0  0  0  0  0  0  0
  -24.6932   -8.0804   24.0349 C   0  0  0  0  0  0  0  0  0  0  0  0
  -18.4337  -33.9220   24.4205 C   0  0  0  0  0  0  0  0  0  0  0  0
  -19.2747  -32.7246   22.0529 C   0  0  0  0  0  0  0  0  0  0  0  0
  -28.5343  -18.7309   22.2616 C   0  0  0  0  0  0  0  0  0  0  0  0
  -23.8704  -27.3517   20.8606 C   0  0  0  0  0  0  0  0  0  0  0  0
  -23.2395   -6.0293   22.8255 C   0  0  0  0  0  0  0  0  0  0  0  0
  -24.9009   -6.7565   24.4218 C   0  0  0  0  0  0  0  0  0  0  0  0
  -28.3896  -19.9794   21.6567 C   0  0  0  0  0  0  0  0  0  0  0  0
  -24.7191  -26.3642   20.3598 C   0  0  0  0  0  0  0  0  0  0  0  0
  -22.3253   -4.0070   25.3764 C   0  0  0  0  0  0  0  0  0  0  0  0
  -21.2007   -3.2101   25.5905 C   0  0  0  0  0  0  0  0  0  0  0  0
  -30.8350  -18.6428   21.5293 C   0  0  0  0  0  0  0  0  0  0  0  0
  -26.3413  -28.0516   19.7533 C   0  0  0  0  0  0  0  0  0  0  0  0
  -21.9462   -1.6941   23.8634 C   0  0  0  0  0  0  0  0  0  0  0  0
  -23.7587   -8.3788   23.0433 C   0  0  0  0  0  0  0  0  0  0  0  0
  -22.3424  -10.4750   22.7147 C   0  0  0  0  0  0  0  0  0  0  0  0
  -29.7571  -18.0626   22.1979 C   0  0  0  0  0  0  0  0  0  0  0  0
  -19.7322  -34.1694   23.9479 C   0  0  0  0  0  0  0  0  0  0  0  0
  -24.2606  -28.6935   20.8237 C   0  0  0  0  0  0  0  0  0  0  0  0
  -20.1558  -33.5728   22.7450 C   0  0  0  0  0  0  0  0  0  0  0  0
  -25.5008  -29.0437   20.2652 C   0  0  0  0  0  0  0  0  0  0  0  0
  -24.1740   -5.7309   23.8171 C   0  0  0  0  0  0  0  0  0  0  0  0
  -25.9513  -26.7134   19.8072 C   0  0  0  0  0  0  0  0  0  0  0  0
  -29.4675  -20.5596   20.9881 C   0  0  0  0  0  0  0  0  0  0  0  0
  -23.2604   -3.6474   24.4058 C   0  0  0  0  0  0  0  0  0  0  0  0
  -30.6902  -19.8913   20.9244 C   0  0  0  0  0  0  0  0  0  0  0  0
  -21.0112   -2.0536   24.8340 C   0  0  0  0  0  0  0  0  0  0  0  0
  -23.0708   -2.4910   23.6493 C   0  0  0  0  0  0  0  0  0  0  0  0
  -23.5450   -9.7466   22.6437 C   0  0  0  0  0  0  0  0  0  0  0  0
  -22.6623  -11.7151   22.2186 C   0  0  0  0  0  0  0  0  0  0  0  0
  -21.0516  -10.0670   23.1870 C   0  0  0  0  0  0  0  0  0  0  0  0
  -23.3873  -32.2552   21.5307 C   0  0  0  0  0  0  0  0  0  0  0  0
  -26.4740  -31.8394   22.2029 C   0  0  0  0  0  0  0  0  0  0  0  0
  -26.2768  -34.8567   24.1714 C   0  0  0  0  0  0  0  0  0  0  0  0
  -28.1503  -14.3073   21.9348 C   0  0  0  0  0  0  0  0  0  0  0  0
  -20.6132  -35.1254   24.7125 C   0  0  0  0  0  0  0  0  0  0  0  0
  -23.3478  -29.7941   21.2939 C   0  0  0  0  0  0  0  0  0  0  0  0
  -25.8655  -30.5009   20.2159 C   0  0  0  0  0  0  0  0  0  0  0  0
  -22.0874  -35.0364   24.3266 C   0  0  0  0  0  0  0  0  0  0  0  0
  -31.9727  -15.5739   23.5632 C   0  0  0  0  0  0  0  0  0  0  0  0
  -25.6419  -13.8948   19.1907 C   0  0  0  0  0  0  0  0  0  0  0  0
  -30.9870  -16.6663   23.9687 C   0  0  0  0  0  0  0  0  0  0  0  0
  -22.2419  -35.0185   22.8092 C   0  0  0  0  0  0  0  0  0  0  0  0
  -24.7603  -12.7873   19.7658 C   0  0  0  0  0  0  0  0  0  0  0  0
  -31.1511  -14.6356   22.6939 C   0  0  0  0  0  0  0  0  0  0  0  0
  -27.0704  -13.7889   19.7108 C   0  0  0  0  0  0  0  0  0  0  0  0
  -26.2938  -12.6864   21.7839 C   0  0  0  0  0  0  0  0  0  0  0  0
  -29.9150  -16.7095   22.8562 C   0  0  2  0  0  0  0  0  0  0  0  0
  -21.5496  -33.7939   22.1986 C   0  0  1  0  0  0  0  0  0  0  0  0
  -24.0947  -30.9898   21.9180 C   0  0  1  0  0  0  0  0  0  0  0  0
  -24.8356  -12.7658   21.3020 C   0  0  2  0  0  0  0  0  0  0  0  0
  -30.3213  -15.6037   21.8600 C   0  0  2  0  0  0  0  0  0  0  0  0
  -28.0273  -36.0371   25.5279 C   0  0  0  0  0  0  0  0  0  0  0  0
  -25.3512  -30.2165   24.5301 C   0  0  0  0  0  0  0  0  0  0  0  0
  -25.6748  -32.2218   25.9938 C   0  0  0  0  0  0  0  0  0  0  0  0
  -27.6443  -31.1387   24.9118 C   0  0  0  0  0  0  0  0  0  0  0  0
  -29.2879  -14.7443   19.7913 C   0  0  0  0  0  0  0  0  0  0  0  0
  -25.8523  -37.4005   22.7196 C   0  0  0  0  0  0  0  0  0  0  0  0
  -32.9641  -19.6995   20.2545 C   0  0  0  0  0  0  0  0  0  0  0  0
  -28.0511  -23.7629   19.8462 C   0  0  0  0  0  0  0  0  0  0  0  0
  -26.7039  -24.4611   19.9443 C   0  0  0  0  0  0  0  0  0  1  0  0
  -28.0330  -22.3957   20.5117 C   0  0  0  0  0  0  0  0  0  0  0  0
  -26.0357  -32.4815   23.4971 C   0  0  1  0  0  0  0  0  0  0  0  0
  -27.2862  -35.9902   24.2008 C   0  0  2  0  0  0  0  0  0  0  0  0
  -26.1607  -31.5163   24.7096 C   0  0  0  0  0  0  0  0  0  0  0  0
  -24.5536  -10.4641   22.1418 N   0  0  0  0  0  0  0  0  0  0  0  0
  -23.9854  -11.6563   21.8929 N   0  0  0  0  0  0  0  0  0  0  0  0
  -25.4930  -31.1535   21.4762 N   0  0  0  0  0  0  0  0  0  0  0  0
  -27.1113  -13.7403   21.1784 N   0  0  0  0  0  0  0  0  0  0  0  0
  -21.9381  -12.8392   22.0335 N   0  0  0  0  0  0  0  0  0  0  0  0
  -20.8973   -8.7578   23.6630 N   0  0  0  0  0  0  0  0  0  0  0  0
  -22.3605  -32.6098   22.3848 N   0  0  0  0  0  0  0  0  0  0  0  0
  -26.8135  -33.7089   23.6278 N   0  0  0  0  0  0  0  0  0  0  0  0
  -29.1760  -14.9529   21.2279 N   0  0  0  0  0  0  0  0  0  0  0  0
  -26.6019  -37.2985   23.9982 N   0  3  0  0  0  0  0  0  0  0  0  0
  -20.0602  -10.8355   23.1716 O   0  0  0  0  0  0  0  0  0  0  0  0
  -23.7467  -32.8667   20.5315 O   0  0  0  0  0  0  0  0  0  0  0  0
  -27.6533  -31.9373   21.8537 O   0  0  0  0  0  0  0  0  0  0  0  0
  -25.1283  -34.9765   24.5923 O   0  0  0  0  0  0  0  0  0  0  0  0
  -28.1552  -14.2491   23.1711 O   0  0  0  0  0  0  0  0  0  0  0  0
  -24.3768   -4.4392   24.1950 O   0  0  0  0  0  0  0  0  0  0  0  0
  -31.7499  -20.4475   20.2735 O   0  0  0  0  0  0  0  0  0  0  0  0
  -26.7770  -25.7441   19.3239 O   0  0  0  0  0  0  0  0  0  1  0  0
  -29.3122  -21.7868   20.3978 O   0  0  0  0  0  0  0  0  0  0  0  0
  -19.9319   -1.2877   25.0407 F   0  0  0  0  0  0  0  0  0  0  0  0
  -23.9663   -2.1398   22.7162 F   0  0  0  0  0  0  0  0  0  0  0  0
  1  2  1  0  0  0  0
  1  5  2  0  0  0  0
  2  6  2  0  0  0  0
  3  9  2  0  0  0  0
  3 18  1  0  0  0  0
  4 10  1  0  0  0  0
  4 18  2  0  0  0  0
  5 21  1  0  0  0  0
  6 23  1  0  0  0  0
  7 11  2  0  0  0  0
  7 20  1  0  0  0  0
  8 12  2  0  0  0  0
  8 22  1  0  0  0  0
  9 25  1  0  0  0  0
 10 25  2  0  0  0  0
 11 27  1  0  0  0  0
 12 26  1  0  0  0  0
 13 14  2  0  0  0  0
 13 28  1  0  0  0  0
 14 30  1  0  0  0  0
 15 20  2  0  0  0  0
 15 29  1  0  0  0  0
 16 24  1  0  0  0  0
 16 26  2  0  0  0  0
 17 30  2  0  0  0  0
 17 31  1  0  0  0  0
 18 32  1  0  0  0  0
 19 32  1  0  0  0  0
 19 33  2  0  0  0  0
 19 34  1  0  0  0  0
 20 51  1  0  0  0  0
 21 23  2  0  0  0  0
 21 39  1  0  0  0  0
 22 24  2  0  0  0  0
 22 40  1  0  0  0  0
 23 52  1  0  0  0  0
 24 41  1  0  0  0  0
 25 84  1  0  0  0  0
 26 86  1  0  0  0  0
 27 29  2  0  0  0  0
 27 87  1  0  0  0  0
 28 31  2  0  0  0  0
 28 84  1  0  0  0  0
 29 85  1  0  0  0  0
 30 88  1  0  0  0  0
 31 89  1  0  0  0  0
 32 69  2  0  0  0  0
 33 70  1  0  0  0  0
 33 73  1  0  0  0  0
 34 74  1  0  0  0  0
 34 79  2  0  0  0  0
 35 53  1  0  0  0  0
 35 75  1  0  0  0  0
 35 80  2  0  0  0  0
 36 66  1  0  0  0  0
 36 71  1  0  0  0  0
 36 81  2  0  0  0  0
 37 67  1  0  0  0  0
 37 76  1  0  0  0  0
 37 82  2  0  0  0  0
 38 72  1  0  0  0  0
 38 77  1  0  0  0  0
 38 83  2  0  0  0  0
 39 42  1  0  0  0  0
 40 53  1  0  0  0  0
 41 71  1  0  0  0  0
 42 46  1  0  0  0  0
 43 45  1  0  0  0  0
 43 48  1  0  0  0  0
 44 47  1  0  0  0  0
 44 49  1  0  0  0  0
 45 51  1  0  0  0  0
 46 52  1  0  0  0  0
 47 54  1  0  0  0  0
 48 55  1  0  0  0  0
 49 72  1  0  0  0  0
 50 54  1  0  0  0  0
 50 72  1  0  0  0  0
 51 55  1  0  0  0  0
 52 75  1  0  0  0  0
 53 71  1  0  0  0  0
 54 70  1  0  0  0  0
 55 77  1  0  0  0  0
 56 67  1  0  0  0  0
 57 68  1  0  0  0  0
 58 68  1  0  0  0  0
 59 68  1  0  0  0  0
 60 77  1  0  0  0  0
 61 78  1  0  0  0  0
 62 85  1  0  0  0  0
 63 64  1  0  0  0  0
 63 65  1  0  0  0  0
 64 86  1  0  0  0  0
 65 87  1  0  0  0  0
 66 68  1  0  0  0  0
 66 76  1  0  0  0  0
 67 78  1  0  0  0  0
 69 70  1  0  0  0  0
M  CHG  1  78   1
M  ISO  4  38 100  64 101  77 100  86 101
M  END
> <Batch ID>
0101

> <Smiles>
CNC(C)C(=O)NC(C(=O)N1Cc2cc([101O:1][101CH2:1]CCOc3ccc(C4CCCC4[100N:0](C)[100C:0](=O)N4CCCC(n5nc(-c6ccc(Oc7ccc(F)cc7F)cc6)c(C(N)=O)c5N)C4)cc3OC)ccc2CC1C(=O)NC1CCCc2ccccc21)C(C)(C)C

> <Shape>
0.295

> <Color>
0.113

> <Negative vol penalty>
0.000

$$$$

  -OEChem-04052301003D

 90 99  0     1  0  0  0  0  0999 V2000
  -16.0962  -25.5771   21.2071 C   0  0  0  0  0  0  0  0  0  0  0  0
  -17.1466  -24.7649   20.7920 C   0  0  0  0  0  0  0  0  0  0  0  0
  -30.2869  -23.4667   20.6187 C   0  0  0  0  0  0  0  0  0  0  0  0
  -27.8908  -23.1588   20.5891 C   0  0  0  0  0  0  0  0  0  0  0  0
  -16.3564  -26.7198   21.9624 C   0  0  0  0  0  0  0  0  0  0  0  0
  -18.4582  -25.0956   21.1311 C   0  0  0  0  0  0  0  0  0  0  0  0
  -21.1104  -21.1003   22.7583 C   0  0  0  0  0  0  0  0  0  0  0  0
  -30.1146  -24.8309   20.3852 C   0  0  0  0  0  0  0  0  0  0  0  0
  -27.7184  -24.5232   20.3556 C   0  0  0  0  0  0  0  0  0  0  0  0
  -21.5904  -20.2181   21.7914 C   0  0  0  0  0  0  0  0  0  0  0  0
  -27.9288  -26.6482   17.7343 C   0  0  0  0  0  0  0  0  0  0  0  0
  -27.0129  -27.0271   16.7529 C   0  0  0  0  0  0  0  0  0  0  0  0
  -23.7647  -21.2530   21.9353 C   0  0  0  0  0  0  0  0  0  0  0  0
  -24.3972  -12.9690   20.6987 C   0  0  0  0  0  0  0  0  0  0  0  0
  -26.0307  -11.2052   20.9382 C   0  0  0  0  0  0  0  0  0  0  0  0
  -25.7418  -28.2435   18.4088 C   0  0  0  0  0  0  0  0  0  0  0  0
  -29.1751  -22.6306   20.7206 C   0  0  0  0  0  0  0  0  0  0  0  0
  -29.4200  -20.5737   22.2095 C   0  0  0  0  0  0  0  0  0  0  0  0
  -17.6710  -27.0594   22.3191 C   0  0  0  0  0  0  0  0  0  0  0  0
  -21.9524  -22.0742   23.3141 C   0  0  0  0  0  0  0  0  0  0  0  0
  -18.7364  -26.2447   21.8907 C   0  0  0  0  0  0  0  0  0  0  0  0
  -23.2935  -22.1447   22.9110 C   0  0  0  0  0  0  0  0  0  0  0  0
  -24.7050  -11.6373   20.9769 C   0  0  0  0  0  0  0  0  0  0  0  0
  -25.4150  -13.8685   20.3815 C   0  0  0  0  0  0  0  0  0  0  0  0
  -26.7407  -13.4364   20.3428 C   0  0  0  0  0  0  0  0  0  0  0  0
  -28.8304  -25.3592   20.2537 C   0  0  0  0  0  0  0  0  0  0  0  0
  -22.9170  -20.2962   21.3776 C   0  0  0  0  0  0  0  0  0  0  0  0
  -27.7512  -27.0669   19.0530 C   0  0  0  0  0  0  0  0  0  0  0  0
  -25.9194  -27.8247   17.0901 C   0  0  0  0  0  0  0  0  0  0  0  0
  -27.0486  -12.1047   20.6211 C   0  0  0  0  0  0  0  0  0  0  0  0
  -26.6578  -27.8646   19.3902 C   0  0  0  0  0  0  0  0  0  0  0  0
  -29.3525  -21.2210   20.9613 C   0  0  0  0  0  0  0  0  0  0  0  0
  -29.5934  -19.2470   21.8993 C   0  0  0  0  0  0  0  0  0  0  0  0
  -22.2870  -10.9996   21.3800 C   0  0  0  0  0  0  0  0  0  0  0  0
  -28.7075  -14.5610   22.2233 C   0  0  0  0  0  0  0  0  0  0  0  0
  -23.7761  -17.1676   19.8461 C   0  0  0  0  0  0  0  0  0  0  0  0
  -28.8503  -14.6135   20.8972 C   0  0  0  0  0  0  0  0  0  0  0  0
  -23.3410  -18.0975   20.7017 C   0  0  0  0  0  0  0  0  0  1  0  0
  -29.3336  -21.1225   23.5313 C   0  0  0  0  0  0  0  0  0  0  0  0
  -21.9695  -25.2521   23.3789 C   0  0  0  0  0  0  0  0  0  0  0  0
  -24.4798  -24.8093   25.3850 C   0  0  0  0  0  0  0  0  0  0  0  0
  -27.0144  -22.7884   26.4521 C   0  0  0  0  0  0  0  0  0  0  0  0
  -27.8891  -14.8774   18.6992 C   0  0  0  0  0  0  0  0  0  0  0  0
  -17.9070  -28.3301   23.0965 C   0  0  0  0  0  0  0  0  0  0  0  0
  -21.4263  -23.0010   24.3756 C   0  0  0  0  0  0  0  0  0  0  0  0
  -24.2438  -23.1589   23.4914 C   0  0  0  0  0  0  0  0  0  0  0  0
  -21.5979   -9.7402   21.8542 C   0  0  0  0  0  0  0  0  0  0  0  0
  -19.2930  -28.4071   23.7316 C   0  0  0  0  0  0  0  0  0  0  0  0
  -22.5997   -8.6497   21.5314 C   0  0  0  0  0  0  0  0  0  0  0  0
  -30.6719  -16.9888   17.5141 C   0  0  0  0  0  0  0  0  0  0  0  0
  -20.3651  -28.0051   22.7238 C   0  0  0  0  0  0  0  0  0  0  0  0
  -30.5341  -18.2474   18.3690 C   0  0  0  0  0  0  0  0  0  0  0  0
  -23.9365   -9.3448   21.6834 C   0  0  0  0  0  0  0  0  0  0  0  0
  -29.3247  -16.3119   17.2795 C   0  0  0  0  0  0  0  0  0  0  0  0
  -28.4413  -17.2636   19.3866 C   0  0  0  0  0  0  0  0  0  0  0  0
  -20.1705  -26.5566   22.2596 C   0  0  1  0  0  0  0  0  0  0  0  0
  -22.2361  -24.2879   24.5000 C   0  0  1  0  0  0  0  0  0  0  0  0
  -29.7878  -17.9426   19.6795 C   0  0  2  0  0  0  0  0  0  0  0  0
  -28.9231  -22.7149   28.0795 C   0  0  0  0  0  0  0  0  0  0  0  0
  -26.0939  -26.6577   23.5716 C   0  0  0  0  0  0  0  0  0  0  0  0
  -28.1752  -25.8036   24.6704 C   0  0  0  0  0  0  0  0  0  0  0  0
  -26.4621  -27.0154   26.0192 C   0  0  0  0  0  0  0  0  0  0  0  0
  -25.8758  -20.4474   27.8601 C   0  0  0  0  0  0  0  0  0  0  0  0
  -23.7395  -15.7003   20.1303 C   0  0  0  0  0  0  0  0  0  0  0  0
  -25.9732  -24.6692   25.2140 C   0  0  1  0  0  0  0  0  0  0  0  0
  -27.4584  -22.3797   27.8450 C   0  0  2  0  0  0  0  0  0  0  0  0
  -26.6579  -26.0185   24.8563 C   0  0  0  0  0  0  0  0  0  0  0  0
  -29.4733  -20.3753   19.9346 N   0  0  0  0  0  0  0  0  0  0  0  0
  -29.6186  -19.1829   20.5372 N   0  0  0  0  0  0  0  0  0  0  0  0
  -23.6647  -10.7169   21.3010 N   0  0  0  0  0  0  0  0  0  0  0  0
  -23.6803  -24.0470   24.5216 N   0  0  0  0  0  0  0  0  0  0  0  0
  -28.6194  -16.0735   18.5394 N   0  0  0  0  0  0  0  0  0  0  0  0
  -29.7254  -18.1406   22.6615 N   0  0  0  0  0  0  0  0  0  0  0  0
  -29.1549  -22.5056   23.6700 N   0  0  0  0  0  0  0  0  0  0  0  0
  -25.0868  -15.1881   20.1080 N   0  0  0  0  0  0  0  0  0  0  0  0
  -20.6462  -25.6343   23.2684 N   0  0  0  0  0  0  0  0  0  0  0  0
  -26.4686  -24.0546   26.4409 N   0  0  0  0  0  0  0  0  0  0  0  0
  -27.8130  -14.3540   20.0164 N   0  0  0  0  0  0  0  0  0  0  0  0
  -27.2752  -20.9134   28.0377 N   0  3  0  0  0  0  0  0  0  0  0  0
  -21.6845  -12.0450   21.1843 O   0  0  0  0  0  0  0  0  0  0  0  0
  -29.4289  -20.4096   24.5590 O   0  0  0  0  0  0  0  0  0  0  0  0
  -22.8960  -25.6231   22.6679 O   0  0  0  0  0  0  0  0  0  0  0  0
  -24.0390  -25.5618   26.2574 O   0  0  0  0  0  0  0  0  0  0  0  0
  -27.1425  -22.0588   25.4713 O   0  0  0  0  0  0  0  0  0  0  0  0
  -27.3643  -14.3020   17.7370 O   0  0  0  0  0  0  0  0  0  0  0  0
  -28.6618  -26.6905   20.0260 O   0  0  0  0  0  0  0  0  0  0  0  0
  -23.3880  -19.4368   20.4334 O   0  0  0  0  0  0  0  0  0  1  0  0
  -25.0408  -28.1898   16.1473 F   0  0  0  0  0  0  0  0  0  0  0  0
  -28.3190  -11.6775   20.5872 F   0  0  0  0  0  0  0  0  0  0  0  0
  -26.4825  -28.2709   20.6551 F   0  0  0  0  0  0  0  0  0  0  0  0
  1  2  1  0  0  0  0
  1  5  2  0  0  0  0
  2  6  2  0  0  0  0
  3  8  2  0  0  0  0
  3 17  1  0  0  0  0
  4  9  1  0  0  0  0
  4 17  2  0  0  0  0
  5 19  1  0  0  0  0
  6 21  1  0  0  0  0
  7 10  2  0  0  0  0
  7 20  1  0  0  0  0
  8 26  1  0  0  0  0
  9 26  2  0  0  0  0
 10 27  1  0  0  0  0
 11 12  2  0  0  0  0
 11 28  1  0  0  0  0
 12 29  1  0  0  0  0
 13 22  1  0  0  0  0
 13 27  2  0  0  0  0
 14 23  2  0  0  0  0
 14 24  1  0  0  0  0
 15 23  1  0  0  0  0
 15 30  2  0  0  0  0
 16 29  2  0  0  0  0
 16 31  1  0  0  0  0
 17 32  1  0  0  0  0
 18 32  1  0  0  0  0
 18 33  2  0  0  0  0
 18 39  1  0  0  0  0
 19 21  2  0  0  0  0
 19 44  1  0  0  0  0
 20 22  2  0  0  0  0
 20 45  1  0  0  0  0
 21 56  1  0  0  0  0
 22 46  1  0  0  0  0
 23 70  1  0  0  0  0
 24 25  2  0  0  0  0
 24 75  1  0  0  0  0
 25 30  1  0  0  0  0
 25 78  1  0  0  0  0
 26 86  1  0  0  0  0
 27 87  1  0  0  0  0
 28 31  2  0  0  0  0
 28 86  1  0  0  0  0
 29 88  1  0  0  0  0
 30 89  1  0  0  0  0
 31 90  1  0  0  0  0
 32 68  2  0  0  0  0
 33 69  1  0  0  0  0
 33 73  1  0  0  0  0
 34 47  1  0  0  0  0
 34 70  1  0  0  0  0
 34 80  2  0  0  0  0
 35 37  2  0  0  0  0
 36 38  2  0  0  0  0
 36 64  1  0  0  0  0
 37 78  1  0  0  0  0
 38 87  1  0  0  0  0
 39 74  1  0  0  0  0
 39 81  2  0  0  0  0
 40 57  1  0  0  0  0
 40 76  1  0  0  0  0
 40 82  2  0  0  0  0
 41 65  1  0  0  0  0
 41 71  1  0  0  0  0
 41 83  2  0  0  0  0
 42 66  1  0  0  0  0
 42 77  1  0  0  0  0
 42 84  2  0  0  0  0
 43 72  1  0  0  0  0
 43 78  1  0  0  0  0
 43 85  2  0  0  0  0
 44 48  1  0  0  0  0
 45 57  1  0  0  0  0
 46 71  1  0  0  0  0
 47 49  1  0  0  0  0
 48 51  1  0  0  0  0
 49 53  1  0  0  0  0
 50 52  1  0  0  0  0
 50 54  1  0  0  0  0
 51 56  1  0  0  0  0
 52 58  1  0  0  0  0
 53 70  1  0  0  0  0
 54 72  1  0  0  0  0
 55 58  1  0  0  0  0
 55 72  1  0  0  0  0
 56 76  1  0  0  0  0
 57 71  1  0  0  0  0
 58 69  1  0  0  0  0
 59 66  1  0  0  0  0
 60 67  1  0  0  0  0
 61 67  1  0  0  0  0
 62 67  1  0  0  0  0
 63 79  1  0  0  0  0
 64 75  1  0  0  0  0
 65 67  1  0  0  0  0
 65 77  1  0  0  0  0
 66 79  1  0  0  0  0
 68 69  1  0  0  0  0
M  CHG  1  79   1
M  ISO  4  38 101  43 100  78 100  87 101
M  END
> <Batch ID>
0101

> <Smiles>
C=C[100N:0](c1c(F)cc(N2CCCC2=O)cc1NCC=[101CH:1][101O:1]c1ccc2c(c1)CN(C(=O)C(NC(=O)C(C)NC)C(C)(C)C)C(C(=O)NC1CCCc3ccccc31)C2)[100C:0](=O)N1CCCC(n2nc(-c3ccc(Oc4ccc(F)cc4F)cc3)c(C(N)=O)c2N)C1

> <Shape>
0.228

> <Color>
0.096

> <Negative vol penalty>
0.000

$$$$

  -OEChem-04052301003D

 87 96  0     1  0  0  0  0  0999 V2000
  -29.7712  -34.8979   24.1953 C   0  0  0  0  0  0  0  0  0  0  0  0
  -29.6877  -33.5668   23.7998 C   0  0  0  0  0  0  0  0  0  0  0  0
  -23.0299  -10.4398   21.8608 C   0  0  0  0  0  0  0  0  0  0  0  0
  -24.7095   -8.7092   21.7162 C   0  0  0  0  0  0  0  0  0  0  0  0
  -28.6569  -35.5325   24.7426 C   0  0  0  0  0  0  0  0  0  0  0  0
  -28.4901  -32.8690   23.9524 C   0  0  0  0  0  0  0  0  0  0  0  0
  -27.2981  -30.1369   19.8586 C   0  0  0  0  0  0  0  0  0  0  0  0
  -27.2819  -20.1110   19.1342 C   0  0  0  0  0  0  0  0  0  0  0  0
  -27.3802  -18.7672   19.4949 C   0  0  0  0  0  0  0  0  0  0  0  0
  -22.0285   -9.4806   21.7107 C   0  0  0  0  0  0  0  0  0  0  0  0
  -23.7081   -7.7498   21.5662 C   0  0  0  0  0  0  0  0  0  0  0  0
  -27.9710  -28.9288   19.6813 C   0  0  0  0  0  0  0  0  0  0  0  0
  -21.5308   -6.0932   23.5500 C   0  0  0  0  0  0  0  0  0  0  0  0
  -21.6423   -4.9201   24.2961 C   0  0  0  0  0  0  0  0  0  0  0  0
  -26.0667  -27.7446   20.5704 C   0  0  0  0  0  0  0  0  0  0  0  0
  -29.5271  -18.6290   18.3956 C   0  0  0  0  0  0  0  0  0  0  0  0
  -21.6937   -3.6273   22.2557 C   0  0  0  0  0  0  0  0  0  0  0  0
  -24.3705  -10.0542   21.8634 C   0  0  0  0  0  0  0  0  0  0  0  0
  -25.5914  -11.9172   23.1068 C   0  0  0  0  0  0  0  0  0  0  0  0
  -27.4423  -34.8450   24.8932 C   0  0  0  0  0  0  0  0  0  0  0  0
  -26.0065  -30.1588   20.4042 C   0  0  0  0  0  0  0  0  0  0  0  0
  -27.3589  -33.4946   24.5036 C   0  0  0  0  0  0  0  0  0  0  0  0
  -25.3785  -28.9541   20.7512 C   0  0  0  0  0  0  0  0  0  0  0  0
  -28.3063  -20.7138   18.4041 C   0  0  0  0  0  0  0  0  0  0  0  0
  -28.5027  -18.0262   19.1256 C   0  0  0  0  0  0  0  0  0  0  0  0
  -22.3676   -8.1356   21.5635 C   0  0  0  0  0  0  0  0  0  0  0  0
  -27.3564  -27.7326   20.0399 C   0  0  0  0  0  0  0  0  0  0  0  0
  -21.5006   -6.0335   22.1567 C   0  0  0  0  0  0  0  0  0  0  0  0
  -21.7238   -3.6871   23.6490 C   0  0  0  0  0  0  0  0  0  0  0  0
  -29.4289  -19.9729   18.0348 C   0  0  0  0  0  0  0  0  0  0  0  0
  -21.5821   -4.8005   21.5096 C   0  0  0  0  0  0  0  0  0  0  0  0
  -25.4054  -11.0447   22.0178 C   0  0  0  0  0  0  0  0  0  0  0  0
  -26.7021  -12.6524   22.7719 C   0  0  0  0  0  0  0  0  0  0  0  0
  -27.9574  -24.8475   17.2754 C   0  0  0  0  0  0  0  0  0  0  0  0
  -24.8285  -12.0510   24.3134 C   0  0  0  0  0  0  0  0  0  0  0  0
  -24.6952  -31.4110   23.0149 C   0  0  0  0  0  0  0  0  0  0  0  0
  -21.9404  -30.3599   21.6627 C   0  0  0  0  0  0  0  0  0  0  0  0
  -20.8286  -27.4146   19.9002 C   0  0  0  0  0  0  0  0  0  0  0  0
  -29.2977  -15.6799   18.7332 C   0  0  0  0  0  0  0  0  0  0  0  0
  -26.2785  -35.5592   25.5336 C   0  0  0  0  0  0  0  0  0  0  0  0
  -25.2837  -31.4682   20.5641 C   0  0  0  0  0  0  0  0  0  0  0  0
  -23.9851  -28.9218   21.3220 C   0  0  0  0  0  0  0  0  0  0  0  0
  -28.0845  -23.7466   16.2503 C   0  0  0  0  0  0  0  0  0  0  0  0
  -24.9395  -34.8592   25.3153 C   0  0  0  0  0  0  0  0  0  0  0  0
  -30.0814  -12.0790   19.0681 C   0  0  0  0  0  0  0  0  0  0  0  0
  -25.0678  -33.3642   25.5895 C   0  0  0  0  0  0  0  0  0  0  0  0
  -28.9030  -11.5496   19.8834 C   0  0  0  0  0  0  0  0  0  0  0  0
  -28.8360  -22.5477   16.8161 C   0  0  0  0  0  0  0  0  0  0  0  0
  -29.6898  -13.2902   18.2272 C   0  0  0  0  0  0  0  0  0  0  0  0
  -27.4689  -23.0010   18.8926 C   0  0  0  0  0  0  0  0  0  0  0  0
  -27.9015  -13.8684   19.8425 C   0  0  0  0  0  0  0  0  0  0  0  0
  -26.0703  -32.7114   24.6302 C   0  0  1  0  0  0  0  0  0  0  0  0
  -28.0066  -24.4297   18.7370 C   0  0  2  0  0  0  0  0  0  0  0  0
  -24.1713  -31.4131   21.6067 C   0  0  1  0  0  0  0  0  0  0  0  0
  -28.2806  -12.6728   20.7291 C   0  0  1  0  0  0  0  0  0  0  0  0
  -18.9990  -27.1192   18.2082 C   0  0  0  0  0  0  0  0  0  0  0  0
  -20.2315  -29.5954   24.0721 C   0  0  0  0  0  0  0  0  0  0  0  0
  -19.1375  -27.8465   22.6533 C   0  0  0  0  0  0  0  0  0  0  0  0
  -18.9328  -30.2557   22.0394 C   0  0  0  0  0  0  0  0  0  0  0  0
  -27.7397  -16.1512   20.5723 C   0  0  0  0  0  0  0  0  0  0  0  0
  -22.6877  -26.2307   17.9251 C   0  0  0  0  0  0  0  0  0  0  0  0
  -27.2127  -25.3980   19.6098 C   0  0  0  0  0  0  0  0  0  1  0  0
  -21.1458  -29.0773   21.7138 C   0  0  1  0  0  0  0  0  0  0  0  0
  -20.4921  -27.3121   18.4234 C   0  0  2  0  0  0  0  0  0  0  0  0
  -19.8901  -29.1939   22.6232 C   0  0  0  0  0  0  0  0  0  0  0  0
  -26.3242  -11.2093   21.0625 N   0  0  0  0  0  0  0  0  0  0  0  0
  -27.0982  -12.1938   21.5500 N   0  0  0  0  0  0  0  0  0  0  0  0
  -28.2045  -22.0572   18.0436 N   0  0  3  0  0  0  0  0  0  0  0  0
  -23.3222  -30.2285   21.4652 N   0  0  0  0  0  0  0  0  0  0  0  0
  -29.0442  -14.3261   19.0352 N   0  0  0  0  0  0  0  0  0  0  0  0
  -27.3688  -13.6402   23.4062 N   0  0  0  0  0  0  0  0  0  0  0  0
  -23.7175  -11.2166   24.4974 N   0  0  0  0  0  0  0  0  0  0  0  0
  -25.4686  -32.5122   23.3291 N   0  0  0  0  0  0  0  0  0  0  0  0
  -20.8502  -28.7248   20.3293 N   0  0  0  0  0  0  0  0  0  0  0  0
  -28.6042  -16.6365   19.4988 N   0  0  0  0  0  0  0  0  0  0  0  0
  -21.2085  -26.1595   17.8077 N   0  3  0  0  0  0  0  0  0  0  0  0
  -27.8211  -26.0197   16.9265 O   0  0  0  0  0  0  0  0  0  0  0  0
  -25.1135  -12.8970   25.1946 O   0  0  0  0  0  0  0  0  0  0  0  0
  -24.4170  -30.4801   23.7617 O   0  0  0  0  0  0  0  0  0  0  0  0
  -21.3555  -31.4389   21.7861 O   0  0  0  0  0  0  0  0  0  0  0  0
  -21.0465  -26.4306   20.6036 O   0  0  0  0  0  0  0  0  0  0  0  0
  -30.0478  -16.0146   17.8081 O   0  0  0  0  0  0  0  0  0  0  0  0
  -21.3907   -7.1992   21.4173 O   0  0  0  0  0  0  0  0  0  0  0  0
  -28.0112  -26.5520   19.8686 O   0  0  0  0  0  0  0  0  0  1  0  0
  -21.8324   -2.5606   24.3656 F   0  0  0  0  0  0  0  0  0  0  0  0
  -30.4183  -20.5422   17.3319 F   0  0  0  0  0  0  0  0  0  0  0  0
  -21.5549   -4.7368   20.1713 F   0  0  0  0  0  0  0  0  0  0  0  0
  1  2  1  0  0  0  0
  1  5  2  0  0  0  0
  2  6  2  0  0  0  0
  3 10  2  0  0  0  0
  3 18  1  0  0  0  0
  4 11  1  0  0  0  0
  4 18  2  0  0  0  0
  5 20  1  0  0  0  0
  6 22  1  0  0  0  0
  7 12  2  0  0  0  0
  7 21  1  0  0  0  0
  8  9  2  0  0  0  0
  8 24  1  0  0  0  0
  9 25  1  0  0  0  0
 10 26  1  0  0  0  0
 11 26  2  0  0  0  0
 12 27  1  0  0  0  0
 13 14  2  0  0  0  0
 13 28  1  0  0  0  0
 14 29  1  0  0  0  0
 15 23  1  0  0  0  0
 15 27  2  0  0  0  0
 16 25  2  0  0  0  0
 16 30  1  0  0  0  0
 17 29  2  0  0  0  0
 17 31  1  0  0  0  0
 18 32  1  0  0  0  0
 19 32  1  0  0  0  0
 19 33  2  0  0  0  0
 19 35  1  0  0  0  0
 20 22  2  0  0  0  0
 20 40  1  0  0  0  0
 21 23  2  0  0  0  0
 21 41  1  0  0  0  0
 22 52  1  0  0  0  0
 23 42  1  0  0  0  0
 24 30  2  0  0  0  0
 24 68  1  0  0  0  0
 25 75  1  0  0  0  0
 26 83  1  0  0  0  0
 27 84  1  0  0  0  0
 28 31  2  0  0  0  0
 28 83  1  0  0  0  0
 29 85  1  0  0  0  0
 30 86  1  0  0  0  0
 31 87  1  0  0  0  0
 32 66  2  0  0  0  0
 33 67  1  0  0  0  0
 33 71  1  0  0  0  0
 34 43  1  0  0  0  0
 34 53  1  0  0  0  0
 34 77  2  0  0  0  0
 35 72  1  0  0  0  0
 35 78  2  0  0  0  0
 36 54  1  0  0  0  0
 36 73  1  0  0  0  0
 36 79  2  0  0  0  0
 37 63  1  0  0  0  0
 37 69  1  0  0  0  0
 37 80  2  0  0  0  0
 38 64  1  0  0  0  0
 38 74  1  0  0  0  0
 38 81  2  0  0  0  0
 39 70  1  0  0  0  0
 39 75  1  0  0  0  0
 39 82  2  0  0  0  0
 40 44  1  0  0  0  0
 41 54  1  0  0  0  0
 42 69  1  0  0  0  0
 43 48  1  0  0  0  0
 44 46  1  0  0  0  0
 45 47  1  0  0  0  0
 45 49  1  0  0  0  0
 46 52  1  0  0  0  0
 47 55  1  0  0  0  0
 48 68  1  0  0  0  0
 49 70  1  0  0  0  0
 50 53  1  0  0  0  0
 50 68  1  0  0  0  0
 51 55  1  0  0  0  0
 51 70  1  0  0  0  0
 52 73  1  0  0  0  0
 53 62  1  0  0  0  0
 54 69  1  0  0  0  0
 55 67  1  0  0  0  0
 56 64  1  0  0  0  0
 57 65  1  0  0  0  0
 58 65  1  0  0  0  0
 59 65  1  0  0  0  0
 60 75  1  0  0  0  0
 61 76  1  0  0  0  0
 62 84  1  0  0  0  0
 63 65  1  0  0  0  0
 63 74  1  0  0  0  0
 64 76  1  0  0  0  0
 66 67  1  0  0  0  0
M  CHG  1  76   1
M  ISO  4  39 100  62 101  75 100  84 101
M  END
> <Batch ID>
0101

> <Smiles>
CNC(C)C(=O)NC(C(=O)N1Cc2cc([101O:1][101CH2:1]C3CN(c4ccc([100N:0](C)[100C:0](=O)N5CCCC(n6nc(-c7ccc(Oc8ccc(F)cc8F)cc7)c(C(N)=O)c6N)C5)cc4F)CCC3=O)ccc2CC1C(=O)NC1CCCc2ccccc21)C(C)(C)C

> <Shape>
0.322

> <Color>
0.122

> <Negative vol penalty>
0.000

$$$$
