
  -OEChem-04052301023D

 88 97  0     1  0  0  0  0  0999 V2000
  -19.7269  -15.2991   16.7536 C   0  0  0  0  0  0  0  0  0  0  0  0
  -20.6488  -16.3265   16.9264 C   0  0  0  0  0  0  0  0  0  0  0  0
  -27.1203  -25.8598   17.0129 C   0  0  0  0  0  0  0  0  0  0  0  0
  -24.6844  -28.9821   21.1580 C   0  0  0  0  0  0  0  0  0  0  0  0
  -23.3197  -30.6636   20.0870 C   0  0  0  0  0  0  0  0  0  0  0  0
  -19.8345  -14.1329   17.5101 C   0  0  0  0  0  0  0  0  0  0  0  0
  -21.6783  -16.1888   17.8567 C   0  0  0  0  0  0  0  0  0  0  0  0
  -27.3812  -18.3712   17.3870 C   0  0  0  0  0  0  0  0  0  0  0  0
  -27.3616  -25.7994   18.3853 C   0  0  0  0  0  0  0  0  0  0  0  0
  -26.1838  -25.0053   16.4311 C   0  0  0  0  0  0  0  0  0  0  0  0
  -25.5116  -29.9807   21.6718 C   0  0  0  0  0  0  0  0  0  0  0  0
  -24.1469  -31.6623   20.6008 C   0  0  0  0  0  0  0  0  0  0  0  0
  -27.9953  -19.5103   17.9057 C   0  0  0  0  0  0  0  0  0  0  0  0
  -25.4495  -32.1988   24.2230 C   0  0  0  0  0  0  0  0  0  0  0  0
  -25.8244  -32.1041   25.5632 C   0  0  0  0  0  0  0  0  0  0  0  0
  -28.8407  -18.2067   19.7511 C   0  0  0  0  0  0  0  0  0  0  0  0
  -25.7299  -24.0300   18.5944 C   0  0  0  0  0  0  0  0  0  0  0  0
  -28.1478  -32.0130   24.9067 C   0  0  0  0  0  0  0  0  0  0  0  0
  -23.5884  -29.3236   20.3655 C   0  0  0  0  0  0  0  0  0  0  0  0
  -21.5856  -27.7452   20.4373 C   0  0  0  0  0  0  0  0  0  0  0  0
  -20.8716  -13.9769   18.4433 C   0  0  0  0  0  0  0  0  0  0  0  0
  -27.4833  -17.1415   18.0533 C   0  0  0  0  0  0  0  0  0  0  0  0
  -21.7992  -15.0200   18.6274 C   0  0  0  0  0  0  0  0  0  0  0  0
  -28.2291  -17.0530   19.2373 C   0  0  0  0  0  0  0  0  0  0  0  0
  -26.6665  -24.8845   19.1761 C   0  0  0  0  0  0  0  0  0  0  0  0
  -25.4886  -24.0904   17.2219 C   0  0  0  0  0  0  0  0  0  0  0  0
  -25.2429  -31.3208   21.3932 C   0  0  0  0  0  0  0  0  0  0  0  0
  -28.7227  -19.4288   19.0895 C   0  0  0  0  0  0  0  0  0  0  0  0
  -26.4237  -32.2006   23.2246 C   0  0  0  0  0  0  0  0  0  0  0  0
  -27.1736  -32.0112   25.9050 C   0  0  0  0  0  0  0  0  0  0  0  0
  -27.7728  -32.1077   23.5665 C   0  0  0  0  0  0  0  0  0  0  0  0
  -22.7338  -28.2924   19.8340 C   0  0  0  0  0  0  0  0  0  0  0  0
  -21.1376  -26.8095   19.5371 C   0  0  0  0  0  0  0  0  0  0  0  0
  -29.3377  -24.9630   21.0791 C   0  0  0  0  0  0  0  0  0  0  0  0
  -28.1394  -22.7453   21.0460 C   0  0  0  0  0  0  0  0  0  0  0  0
  -20.9783  -28.0550   21.6986 C   0  0  0  0  0  0  0  0  0  0  0  0
  -25.4117  -15.1384   19.3947 C   0  0  0  0  0  0  0  0  0  0  0  0
  -28.0383  -13.2655   19.7344 C   0  0  0  0  0  0  0  0  0  0  0  0
  -31.4368  -13.0557   19.9654 C   0  0  0  0  0  0  0  0  0  0  0  0
  -23.7908  -23.5909   15.4728 C   0  0  0  0  0  0  0  0  0  0  0  0
  -20.9193  -12.7175   19.2717 C   0  0  0  0  0  0  0  0  0  0  0  0
  -26.8373  -15.9164   17.4665 C   0  0  0  0  0  0  0  0  0  0  0  0
  -28.3860  -15.7523   19.9803 C   0  0  0  0  0  0  0  0  0  0  0  0
  -30.6231  -24.2367   21.3973 C   0  0  0  0  0  0  0  0  0  0  0  0
  -22.2593  -12.4974   19.9689 C   0  0  0  0  0  0  0  0  0  0  0  0
  -30.6254  -22.8236   20.8553 C   0  0  0  0  0  0  0  0  0  0  0  0
  -21.0886  -25.8204   14.8641 C   0  0  0  0  0  0  0  0  0  0  0  0
  -22.7293  -13.7838   20.6406 C   0  0  0  0  0  0  0  0  0  0  0  0
  -21.1014  -26.6672   16.1363 C   0  0  0  0  0  0  0  0  0  0  0  0
  -22.5016  -25.4954   14.3785 C   0  0  0  0  0  0  0  0  0  0  0  0
  -23.3762  -25.7196   16.6827 C   0  0  0  0  0  0  0  0  0  0  0  0
  -22.9445  -14.8979   19.6090 C   0  0  1  0  0  0  0  0  0  0  0  0
  -29.4447  -22.0716   21.4491 C   0  0  2  0  0  0  0  0  0  0  0  0
  -26.5774  -14.8249   18.5001 C   0  0  1  0  0  0  0  0  0  0  0  0
  -21.9692  -26.0134   17.2261 C   0  0  1  0  0  0  0  0  0  0  0  0
  -33.2912  -11.3939   20.2767 C   0  0  0  0  0  0  0  0  0  0  0  0
  -27.3596  -13.0679   22.7026 C   0  0  0  0  0  0  0  0  0  0  0  0
  -29.6857  -12.2351   23.1077 C   0  0  0  0  0  0  0  0  0  0  0  0
  -28.1283  -10.9269   21.6635 C   0  0  0  0  0  0  0  0  0  0  0  0
  -24.4715  -21.8101   17.0668 C   0  0  0  0  0  0  0  0  0  0  0  0
  -32.6416  -13.7355   17.3491 C   0  0  0  0  0  0  0  0  0  0  0  0
  -26.9266  -24.8200   20.6534 C   0  0  0  0  0  0  0  0  0  0  0  0
  -29.4674  -20.6072   21.0163 C   0  0  0  0  0  0  0  0  0  1  0  0
  -29.0990  -13.0938   20.7948 C   0  0  1  0  0  0  0  0  0  0  0  0
  -32.4397  -12.1525   19.2706 C   0  0  2  0  0  0  0  0  0  0  0  0
  -28.5638  -12.3560   22.0544 C   0  0  0  0  0  0  0  0  0  0  0  0
  -22.9988  -27.7495   18.6427 N   0  0  0  0  0  0  0  0  0  0  0  0
  -22.0109  -26.8513   18.4903 N   0  0  0  0  0  0  0  0  0  0  0  0
  -28.1900  -24.1554   20.9570 N   0  0  0  0  0  0  0  0  0  0  0  0
  -27.7305  -14.5839   19.3698 N   0  0  0  0  0  0  0  0  0  0  0  0
  -23.3038  -24.9116   15.4629 N   0  0  0  0  0  0  0  0  0  0  0  0
  -20.0859  -25.9632   19.5469 N   0  0  0  0  0  0  0  0  0  0  0  0
  -21.5679  -29.0425   22.4994 N   0  0  0  0  0  0  0  0  0  0  0  0
  -24.1947  -14.7020   18.9069 N   0  0  0  0  0  0  0  0  0  0  0  0
  -30.2223  -12.4277   20.1444 N   0  0  0  0  0  0  0  0  0  0  0  0
  -24.5186  -23.2064   16.6195 N   0  0  0  0  0  0  0  0  0  0  0  0
  -33.3444  -12.9559   18.4004 N   0  3  0  0  0  0  0  0  0  0  0  0
  -29.3437  -26.1923   20.9843 O   0  0  0  0  0  0  0  0  0  0  0  0
  -27.1124  -22.0868   20.8654 O   0  0  0  0  0  0  0  0  0  0  0  0
  -19.9527  -27.4617   22.1107 O   0  0  0  0  0  0  0  0  0  0  0  0
  -25.6024  -15.7310   20.4503 O   0  0  0  0  0  0  0  0  0  0  0  0
  -27.5077  -12.2665   19.2425 O   0  0  0  0  0  0  0  0  0  0  0  0
  -31.7050  -14.2022   20.3177 O   0  0  0  0  0  0  0  0  0  0  0  0
  -23.5703  -22.8075   14.5413 O   0  0  0  0  0  0  0  0  0  0  0  0
  -26.0498  -32.2955   21.8946 O   0  0  0  0  0  0  0  0  0  0  0  0
  -29.3226  -20.5392   19.5983 O   0  0  0  0  0  0  0  0  0  1  0  0
  -27.5336  -31.9218   27.1921 F   0  0  0  0  0  0  0  0  0  0  0  0
  -28.7133  -32.1101   22.6119 F   0  0  0  0  0  0  0  0  0  0  0  0
  1  2  1  0  0  0  0
  1  6  2  0  0  0  0
  2  7  2  0  0  0  0
  3  9  2  0  0  0  0
  3 10  1  0  0  0  0
  4 11  2  0  0  0  0
  4 19  1  0  0  0  0
  5 12  1  0  0  0  0
  5 19  2  0  0  0  0
  6 21  1  0  0  0  0
  7 23  1  0  0  0  0
  8 13  2  0  0  0  0
  8 22  1  0  0  0  0
  9 25  1  0  0  0  0
 10 26  2  0  0  0  0
 11 27  1  0  0  0  0
 12 27  2  0  0  0  0
 13 28  1  0  0  0  0
 14 15  2  0  0  0  0
 14 29  1  0  0  0  0
 15 30  1  0  0  0  0
 16 24  1  0  0  0  0
 16 28  2  0  0  0  0
 17 25  2  0  0  0  0
 17 26  1  0  0  0  0
 18 30  2  0  0  0  0
 18 31  1  0  0  0  0
 19 32  1  0  0  0  0
 20 32  1  0  0  0  0
 20 33  2  0  0  0  0
 20 36  1  0  0  0  0
 21 23  2  0  0  0  0
 21 41  1  0  0  0  0
 22 24  2  0  0  0  0
 22 42  1  0  0  0  0
 23 52  1  0  0  0  0
 24 43  1  0  0  0  0
 25 62  1  0  0  0  0
 26 76  1  0  0  0  0
 27 85  1  0  0  0  0
 28 86  1  0  0  0  0
 29 31  2  0  0  0  0
 29 85  1  0  0  0  0
 30 87  1  0  0  0  0
 31 88  1  0  0  0  0
 32 67  2  0  0  0  0
 33 68  1  0  0  0  0
 33 72  1  0  0  0  0
 34 44  1  0  0  0  0
 34 69  1  0  0  0  0
 34 78  2  0  0  0  0
 35 53  1  0  0  0  0
 35 69  1  0  0  0  0
 35 79  2  0  0  0  0
 36 73  1  0  0  0  0
 36 80  2  0  0  0  0
 37 54  1  0  0  0  0
 37 74  1  0  0  0  0
 37 81  2  0  0  0  0
 38 64  1  0  0  0  0
 38 70  1  0  0  0  0
 38 82  2  0  0  0  0
 39 65  1  0  0  0  0
 39 75  1  0  0  0  0
 39 83  2  0  0  0  0
 40 71  1  0  0  0  0
 40 76  1  0  0  0  0
 40 84  2  0  0  0  0
 41 45  1  0  0  0  0
 42 54  1  0  0  0  0
 43 70  1  0  0  0  0
 44 46  1  0  0  0  0
 45 48  1  0  0  0  0
 46 53  1  0  0  0  0
 47 49  1  0  0  0  0
 47 50  1  0  0  0  0
 48 52  1  0  0  0  0
 49 55  1  0  0  0  0
 50 71  1  0  0  0  0
 51 55  1  0  0  0  0
 51 71  1  0  0  0  0
 52 74  1  0  0  0  0
 53 63  1  0  0  0  0
 54 70  1  0  0  0  0
 55 68  1  0  0  0  0
 56 65  1  0  0  0  0
 57 66  1  0  0  0  0
 58 66  1  0  0  0  0
 59 66  1  0  0  0  0
 60 76  1  0  0  0  0
 61 77  1  0  0  0  0
 62 69  1  0  0  0  0
 63 86  1  0  0  0  0
 64 66  1  0  0  0  0
 64 75  1  0  0  0  0
 65 77  1  0  0  0  0
 67 68  1  0  0  0  0
M  CHG  1  77   1
M  ISO  4  40 100  63 101  76 100  86 101
M  END
> <Batch ID>
0102

> <Smiles>
CNC(C)C(=O)NC(C(=O)N1Cc2cc([101O:1][101CH2:1]C3CCC(=O)N(Cc4cccc([100N:0](C)[100C:0](=O)N5CCCC(n6nc(-c7ccc(Oc8ccc(F)cc8F)cc7)c(C(N)=O)c6N)C5)c4)C3=O)ccc2CC1C(=O)NC1CCCc2ccccc21)C(C)(C)C

> <Shape>
0.249

> <Color>
0.081

> <Negative vol penalty>
0.000

$$$$

  -OEChem-04052301023D

 88 96  0     1  0  0  0  0  0999 V2000
  -27.7177  -36.0794   24.8663 C   0  0  0  0  0  0  0  0  0  0  0  0
  -28.2709  -35.2595   23.8880 C   0  0  0  0  0  0  0  0  0  0  0  0
  -23.5082   -9.8456   19.9966 C   0  0  0  0  0  0  0  0  0  0  0  0
  -24.1427  -10.0804   22.3159 C   0  0  0  0  0  0  0  0  0  0  0  0
  -31.7095  -17.3047   21.9698 C   0  0  0  0  0  0  0  0  0  0  0  0
  -30.5010  -16.8608   24.0143 C   0  0  0  0  0  0  0  0  0  0  0  0
  -26.8314  -35.5466   25.8014 C   0  0  0  0  0  0  0  0  0  0  0  0
  -27.9389  -33.9058   23.8449 C   0  0  0  0  0  0  0  0  0  0  0  0
  -26.9809  -28.5375   19.1995 C   0  0  0  0  0  0  0  0  0  0  0  0
  -30.9223  -18.4350   21.7499 C   0  0  0  0  0  0  0  0  0  0  0  0
  -29.7138  -17.9911   23.7944 C   0  0  0  0  0  0  0  0  0  0  0  0
  -22.9485   -8.5989   20.2758 C   0  0  0  0  0  0  0  0  0  0  0  0
  -23.5830   -8.8336   22.5952 C   0  0  0  0  0  0  0  0  0  0  0  0
  -27.3984  -27.2280   18.9658 C   0  0  0  0  0  0  0  0  0  0  0  0
  -20.4999   -7.5470   23.1046 C   0  0  0  0  0  0  0  0  0  0  0  0
  -19.7024   -7.4368   24.2437 C   0  0  0  0  0  0  0  0  0  0  0  0
  -25.7950  -26.4345   20.5839 C   0  0  0  0  0  0  0  0  0  0  0  0
  -21.2019   -5.7637   25.1319 C   0  0  0  0  0  0  0  0  0  0  0  0
  -24.1054  -10.5863   21.0166 C   0  0  0  0  0  0  0  0  0  0  0  0
  -31.4988  -16.5176   23.1020 C   0  0  0  0  0  0  0  0  0  0  0  0
  -24.0412  -13.1254   20.7780 C   0  0  0  0  0  0  0  0  0  0  0  0
  -26.4808  -34.1878   25.7638 C   0  0  0  0  0  0  0  0  0  0  0  0
  -25.9732  -28.8068   20.1367 C   0  0  0  0  0  0  0  0  0  0  0  0
  -27.0481  -33.3540   24.7812 C   0  0  0  0  0  0  0  0  0  0  0  0
  -25.3647  -27.7480   20.8258 C   0  0  0  0  0  0  0  0  0  0  0  0
  -29.9245  -18.7782   22.6622 C   0  0  0  0  0  0  0  0  0  0  0  0
  -22.9859   -8.0929   21.5752 C   0  0  0  0  0  0  0  0  0  0  0  0
  -26.8075  -26.1765   19.6602 C   0  0  0  0  0  0  0  0  0  0  0  0
  -21.6485   -6.7654   22.9792 C   0  0  0  0  0  0  0  0  0  0  0  0
  -20.0534   -6.5452   25.2573 C   0  0  0  0  0  0  0  0  0  0  0  0
  -21.9995   -5.8738   23.9928 C   0  0  0  0  0  0  0  0  0  0  0  0
  -24.6842  -11.8740   20.7286 C   0  0  0  0  0  0  0  0  0  0  0  0
  -25.0148  -14.0261   20.4214 C   0  0  0  0  0  0  0  0  0  0  0  0
  -32.3199  -15.3393   23.3326 C   0  0  0  0  0  0  0  0  0  0  0  0
  -22.6850  -13.4450   21.1162 C   0  0  0  0  0  0  0  0  0  0  0  0
  -32.0259  -14.0853   22.9170 C   0  0  0  0  0  0  0  0  0  0  0  0
  -32.9816  -12.9928   23.2826 C   0  0  0  0  0  0  0  0  0  0  0  0
  -25.8157  -30.4549   22.8501 C   0  0  0  0  0  0  0  0  0  0  0  0
  -31.0115  -13.7835   20.7269 C   0  0  0  0  0  0  0  0  0  0  0  0
  -22.6568  -29.7478   22.6415 C   0  0  0  0  0  0  0  0  0  0  0  0
  -29.2011  -20.8178   21.3741 C   0  0  0  0  0  0  0  0  0  0  0  0
  -20.2235  -27.6860   21.4270 C   0  0  0  0  0  0  0  0  0  0  0  0
  -25.5552  -33.6473   26.8248 C   0  0  0  0  0  0  0  0  0  0  0  0
  -25.5156  -30.2225   20.3578 C   0  0  0  0  0  0  0  0  0  0  0  0
  -24.2646  -27.9820   21.8276 C   0  0  0  0  0  0  0  0  0  0  0  0
  -24.9651  -32.2822   26.4804 C   0  0  0  0  0  0  0  0  0  0  0  0
  -29.0055  -14.4053   17.8235 C   0  0  0  0  0  0  0  0  0  0  0  0
  -26.0537  -31.3433   25.9704 C   0  0  0  0  0  0  0  0  0  0  0  0
  -27.6179  -13.9141   18.2340 C   0  0  0  0  0  0  0  0  0  0  0  0
  -30.1063  -13.5464   18.4381 C   0  0  0  0  0  0  0  0  0  0  0  0
  -28.6423  -12.9421   20.3390 C   0  0  0  0  0  0  0  0  0  0  0  0
  -26.6933  -31.8859   24.6866 C   0  0  1  0  0  0  0  0  0  0  0  0
  -24.8383  -30.4273   21.7093 C   0  0  1  0  0  0  0  0  0  0  0  0
  -27.5019  -13.8010   19.7644 C   0  0  2  0  0  0  0  0  0  0  0  0
  -17.7381  -27.3408   21.4574 C   0  0  0  0  0  0  0  0  0  0  0  0
  -22.8506  -28.6192   25.4697 C   0  0  0  0  0  0  0  0  0  0  0  0
  -20.6633  -27.4638   25.0836 C   0  0  0  0  0  0  0  0  0  0  0  0
  -20.7847  -29.9546   25.0186 C   0  0  0  0  0  0  0  0  0  0  0  0
  -20.0237  -28.0259   18.4938 C   0  0  0  0  0  0  0  0  0  0  0  0
  -30.7715  -13.6574   22.2103 C   0  0  0  0  0  0  0  0  0  0  0  0
  -28.1575  -21.9162   21.5233 C   0  0  0  0  0  0  0  0  0  0  0  0
  -28.1959  -22.9224   20.3784 C   0  0  0  0  0  0  0  0  0  0  0  0
  -27.1138  -23.9823   20.5249 C   0  0  0  0  0  0  0  0  0  1  0  0
  -21.7809  -28.6151   23.1198 C   0  0  1  0  0  0  0  0  0  0  0  0
  -18.9086  -27.9820   20.7285 C   0  0  2  0  0  0  0  0  0  0  0  0
  -21.5419  -28.6586   24.6555 C   0  0  0  0  0  0  0  0  0  0  0  0
  -25.9671  -11.9674   20.3687 N   0  0  0  0  0  0  0  0  0  0  0  0
  -26.1380  -13.2882   20.1887 N   0  0  0  0  0  0  0  0  0  0  0  0
  -23.8565  -29.3843   22.0133 N   0  0  0  0  0  0  0  0  0  0  0  0
  -29.9479  -13.4453   19.8900 N   0  0  0  0  0  0  0  0  0  0  0  0
  -25.0112  -15.3693   20.2872 N   0  0  0  0  0  0  0  0  0  0  0  0
  -21.8175  -12.3988   21.4587 N   0  0  0  0  0  0  0  0  0  0  0  0
  -34.2590  -13.1655   22.8022 N   0  0  0  0  0  0  0  0  0  0  0  0
  -29.1270  -19.9260   22.4404 N   0  0  0  0  0  0  0  0  0  0  0  0
  -25.8291  -31.6458   23.5509 N   0  0  0  0  0  0  0  0  0  0  0  0
  -20.5604  -28.6783   22.3231 N   0  0  0  0  0  0  0  0  0  0  0  0
  -18.9351  -27.4612   19.3324 N   0  3  0  0  0  0  0  0  0  0  0  0
  -22.2509  -14.6217   21.0989 O   0  0  0  0  0  0  0  0  0  0  0  0
  -32.6113  -12.0061   23.9124 O   0  0  0  0  0  0  0  0  0  0  0  0
  -26.5056  -29.4682   23.0787 O   0  0  0  0  0  0  0  0  0  0  0  0
  -32.1110  -14.1740   20.3260 O   0  0  0  0  0  0  0  0  0  0  0  0
  -22.2867  -30.9120   22.8122 O   0  0  0  0  0  0  0  0  0  0  0  0
  -29.9735  -20.7785   20.4222 O   0  0  0  0  0  0  0  0  0  0  0  0
  -20.8836  -26.6738   21.2031 O   0  0  0  0  0  0  0  0  0  0  0  0
  -22.4396   -6.8765   21.8481 O   0  0  0  0  0  0  0  0  0  0  0  0
  -27.2135  -24.8974   19.4344 O   0  0  0  0  0  0  0  0  0  1  0  0
  -19.2882   -6.4407   26.3517 F   0  0  0  0  0  0  0  0  0  0  0  0
  -23.1023   -5.1212   23.8785 F   0  0  0  0  0  0  0  0  0  0  0  0
  1  2  1  0  0  0  0
  1  7  2  0  0  0  0
  2  8  2  0  0  0  0
  3 12  2  0  0  0  0
  3 19  1  0  0  0  0
  4 13  1  0  0  0  0
  4 19  2  0  0  0  0
  5 10  2  0  0  0  0
  5 20  1  0  0  0  0
  6 11  1  0  0  0  0
  6 20  2  0  0  0  0
  7 22  1  0  0  0  0
  8 24  1  0  0  0  0
  9 14  2  0  0  0  0
  9 23  1  0  0  0  0
 10 26  1  0  0  0  0
 11 26  2  0  0  0  0
 12 27  1  0  0  0  0
 13 27  2  0  0  0  0
 14 28  1  0  0  0  0
 15 16  2  0  0  0  0
 15 29  1  0  0  0  0
 16 30  1  0  0  0  0
 17 25  1  0  0  0  0
 17 28  2  0  0  0  0
 18 30  2  0  0  0  0
 18 31  1  0  0  0  0
 19 32  1  0  0  0  0
 20 34  1  0  0  0  0
 21 32  1  0  0  0  0
 21 33  2  0  0  0  0
 21 35  1  0  0  0  0
 22 24  2  0  0  0  0
 22 43  1  0  0  0  0
 23 25  2  0  0  0  0
 23 44  1  0  0  0  0
 24 52  1  0  0  0  0
 25 45  1  0  0  0  0
 26 74  1  0  0  0  0
 27 85  1  0  0  0  0
 28 86  1  0  0  0  0
 29 31  2  0  0  0  0
 29 85  1  0  0  0  0
 30 87  1  0  0  0  0
 31 88  1  0  0  0  0
 32 67  2  0  0  0  0
 33 68  1  0  0  0  0
 33 71  1  0  0  0  0
 34 36  2  0  0  0  0
 35 72  1  0  0  0  0
 35 78  2  0  0  0  0
 36 37  1  0  0  0  0
 36 60  1  0  0  0  0
 37 73  1  0  0  0  0
 37 79  2  0  0  0  0
 38 53  1  0  0  0  0
 38 75  1  0  0  0  0
 38 80  2  0  0  0  0
 39 60  1  0  0  0  0
 39 70  1  0  0  0  0
 39 81  2  0  0  0  0
 40 64  1  0  0  0  0
 40 69  1  0  0  0  0
 40 82  2  0  0  0  0
 41 61  1  0  0  0  0
 41 74  1  0  0  0  0
 41 83  2  0  0  0  0
 42 65  1  0  0  0  0
 42 76  1  0  0  0  0
 42 84  2  0  0  0  0
 43 46  1  0  0  0  0
 44 53  1  0  0  0  0
 45 69  1  0  0  0  0
 46 48  1  0  0  0  0
 47 49  1  0  0  0  0
 47 50  1  0  0  0  0
 48 52  1  0  0  0  0
 49 54  1  0  0  0  0
 50 70  1  0  0  0  0
 51 54  1  0  0  0  0
 51 70  1  0  0  0  0
 52 75  1  0  0  0  0
 53 69  1  0  0  0  0
 54 68  1  0  0  0  0
 55 65  1  0  0  0  0
 56 66  1  0  0  0  0
 57 66  1  0  0  0  0
 58 66  1  0  0  0  0
 59 77  1  0  0  0  0
 61 62  1  0  0  0  0
 62 63  1  0  0  0  0
 63 86  1  0  0  0  0
 64 66  1  0  0  0  0
 64 76  1  0  0  0  0
 65 77  1  0  0  0  0
 67 68  1  0  0  0  0
M  CHG  1  77   1
M  ISO  4  39 100  60 100  63 101  86 101
M  END
> <Batch ID>
0102

> <Smiles>
CNC(C)C(=O)NC(C(=O)N1Cc2cc([101O:1][101CH2:1]CCC(=O)Nc3ccc(C=C([100CH2:0][100C:0](=O)N4CCCC(n5nc(-c6ccc(Oc7ccc(F)cc7F)cc6)c(C(N)=O)c5N)C4)C(N)=O)cc3)ccc2CC1C(=O)NC1CCCc2ccccc21)C(C)(C)C

> <Shape>
0.376

> <Color>
0.183

> <Negative vol penalty>
0.000

$$$$

  -OEChem-04052301023D

 86 95  0     1  0  0  0  0  0999 V2000
  -27.3391  -34.1515   26.4250 C   0  0  0  0  0  0  0  0  0  0  0  0
  -27.5905  -32.9260   25.8165 C   0  0  0  0  0  0  0  0  0  0  0  0
  -23.1514   -9.7960   21.3007 C   0  0  0  0  0  0  0  0  0  0  0  0
  -23.9389  -10.6452   23.4210 C   0  0  0  0  0  0  0  0  0  0  0  0
  -26.0257  -34.5859   26.5987 C   0  0  0  0  0  0  0  0  0  0  0  0
  -26.5285  -32.1336   25.3823 C   0  0  0  0  0  0  0  0  0  0  0  0
  -27.2981  -30.2173   20.7583 C   0  0  0  0  0  0  0  0  0  0  0  0
  -30.3941  -19.3052   21.9163 C   0  0  0  0  0  0  0  0  0  0  0  0
  -32.5897  -18.3384   21.6308 C   0  0  0  0  0  0  0  0  0  0  0  0
  -29.8160  -18.1438   21.4038 C   0  0  0  0  0  0  0  0  0  0  0  0
  -32.0117  -17.1770   21.1183 C   0  0  0  0  0  0  0  0  0  0  0  0
  -22.4374   -8.7988   21.9652 C   0  0  0  0  0  0  0  0  0  0  0  0
  -23.2249   -9.6481   24.0856 C   0  0  0  0  0  0  0  0  0  0  0  0
  -28.1497  -29.1180   20.6583 C   0  0  0  0  0  0  0  0  0  0  0  0
  -19.5263   -8.5310   23.6642 C   0  0  0  0  0  0  0  0  0  0  0  0
  -18.2150   -8.2899   23.2544 C   0  0  0  0  0  0  0  0  0  0  0  0
  -26.2362  -27.6537   20.5432 C   0  0  0  0  0  0  0  0  0  0  0  0
  -18.8033   -6.0100   22.7131 C   0  0  0  0  0  0  0  0  0  0  0  0
  -23.9022  -10.7191   22.0286 C   0  0  0  0  0  0  0  0  0  0  0  0
  -24.1841  -13.0353   20.9972 C   0  0  0  0  0  0  0  0  0  0  0  0
  -24.9473  -33.8028   26.1576 C   0  0  0  0  0  0  0  0  0  0  0  0
  -25.9068  -30.0418   20.7625 C   0  0  0  0  0  0  0  0  0  0  0  0
  -25.1993  -32.5573   25.5514 C   0  0  0  0  0  0  0  0  0  0  0  0
  -25.3691  -28.7526   20.6408 C   0  0  0  0  0  0  0  0  0  0  0  0
  -31.7809  -19.4026   22.0297 C   0  0  0  0  0  0  0  0  0  0  0  0
  -30.6248  -17.0797   21.0048 C   0  0  0  0  0  0  0  0  0  0  0  0
  -22.4742   -8.7249   23.3577 C   0  0  0  0  0  0  0  0  0  0  0  0
  -27.6189  -27.8357   20.5536 C   0  0  0  0  0  0  0  0  0  0  0  0
  -20.4762   -7.5115   23.5985 C   0  0  0  0  0  0  0  0  0  0  0  0
  -17.8535   -7.0295   22.7789 C   0  0  0  0  0  0  0  0  0  0  0  0
  -20.1146   -6.2510   23.1229 C   0  0  0  0  0  0  0  0  0  0  0  0
  -24.6403  -11.7491   21.3427 C   0  0  0  0  0  0  0  0  0  0  0  0
  -25.2541  -13.6211   20.3661 C   0  0  0  0  0  0  0  0  0  0  0  0
  -29.4594  -23.4827   20.9810 C   0  0  0  0  0  0  0  0  0  0  0  0
  -29.1240  -24.6940   21.4351 C   0  0  0  0  0  0  0  0  0  0  0  0
  -22.9073  -13.6459   21.2264 C   0  0  0  0  0  0  0  0  0  0  0  0
  -23.5758  -30.6471   22.8370 C   0  0  0  0  0  0  0  0  0  0  0  0
  -21.6757  -29.7116   20.3799 C   0  0  0  0  0  0  0  0  0  0  0  0
  -21.3465  -27.9295   17.4881 C   0  0  0  0  0  0  0  0  0  0  0  0
  -30.6964  -14.7524   20.0431 C   0  0  0  0  0  0  0  0  0  0  0  0
  -23.5434  -34.2928   26.4099 C   0  0  0  0  0  0  0  0  0  0  0  0
  -25.0015  -31.2402   20.8442 C   0  0  0  0  0  0  0  0  0  0  0  0
  -23.8824  -28.5122   20.6200 C   0  0  0  0  0  0  0  0  0  0  0  0
  -30.0564  -25.1632   22.5000 C   0  0  0  0  0  0  0  0  0  0  0  0
  -22.4864  -33.5642   25.5839 C   0  0  0  0  0  0  0  0  0  0  0  0
  -29.6092  -11.6266   18.7300 C   0  0  0  0  0  0  0  0  0  0  0  0
  -22.7119  -32.0565   25.6386 C   0  0  0  0  0  0  0  0  0  0  0  0
  -28.1820  -11.4856   19.2642 C   0  0  0  0  0  0  0  0  0  0  0  0
  -30.5334  -12.2903   19.7493 C   0  0  0  0  0  0  0  0  0  0  0  0
  -28.6273  -13.4327   20.8127 C   0  0  0  0  0  0  0  0  0  0  0  0
  -31.1925  -24.1582   22.3951 C   0  0  0  0  0  0  0  0  0  0  0  0
  -24.0747  -31.6806   25.0446 C   0  0  1  0  0  0  0  0  0  0  0  0
  -23.6052  -30.9005   21.3562 C   0  0  1  0  0  0  0  0  0  0  0  0
  -27.6444  -12.8284   19.7966 C   0  0  2  0  0  0  0  0  0  0  0  0
  -19.6635  -27.3250   15.7275 C   0  0  0  0  0  0  0  0  0  0  0  0
  -20.3861  -27.7212   22.2996 C   0  0  0  0  0  0  0  0  0  0  0  0
  -19.4294  -26.5328   20.3144 C   0  0  0  0  0  0  0  0  0  0  0  0
  -18.7824  -28.8961   20.7823 C   0  0  0  0  0  0  0  0  0  0  0  0
  -22.9430  -29.2176   15.3549 C   0  0  0  0  0  0  0  0  0  0  0  0
  -32.4057  -20.6581   22.5837 C   0  0  0  0  0  0  0  0  0  0  0  0
  -27.9756  -25.5258   20.9930 C   0  0  0  0  0  0  0  0  0  1  0  0
  -32.7313  -21.7124   21.5175 C   0  0  0  0  0  0  0  0  0  0  0  0
  -31.5312  -22.2631   20.7532 C   0  0  0  0  0  0  0  0  0  0  0  0
  -21.1029  -28.3954   19.9126 C   0  0  1  0  0  0  0  0  0  0  0  0
  -20.7568  -28.2988   16.1389 C   0  0  2  0  0  0  0  0  0  0  0  0
  -19.9533  -27.8904   20.8295 C   0  0  0  0  0  0  0  0  0  0  0  0
  -25.9019  -11.5300   20.9625 N   0  0  0  0  0  0  0  0  0  0  0  0
  -26.2474  -12.6865   20.3714 N   0  0  0  0  0  0  0  0  0  0  0  0
  -23.0387  -29.7155   20.7089 N   0  0  0  0  0  0  0  0  0  0  0  0
  -29.9615  -13.5590   20.2057 N   0  0  0  0  0  0  0  0  0  0  0  0
  -25.4328  -14.8393   19.8127 N   0  0  0  0  0  0  0  0  0  0  0  0
  -21.9208  -12.9031   21.8894 N   0  0  0  0  0  0  0  0  0  0  0  0
  -30.0379  -15.8997   20.4844 N   0  0  0  0  0  0  0  0  0  0  0  0
  -24.0214  -31.7104   23.5987 N   0  0  0  0  0  0  0  0  0  0  0  0
  -20.7145  -28.5907   18.5200 N   0  0  0  0  0  0  0  0  0  0  0  0
  -30.5919  -22.9648   21.6790 N   0  3  2  0  0  0  0  0  0  0  0  0
  -21.8155  -28.2872   15.0902 N   0  3  0  0  0  0  0  0  0  0  0  0
  -22.6434  -14.8096   20.8397 O   0  0  0  0  0  0  0  0  0  0  0  0
  -23.1768  -29.5674   23.2574 O   0  0  0  0  0  0  0  0  0  0  0  0
  -20.9426  -30.7016   20.4437 O   0  0  0  0  0  0  0  0  0  0  0  0
  -22.2725  -27.1313   17.6144 O   0  0  0  0  0  0  0  0  0  0  0  0
  -31.8155  -14.7598   19.5239 O   0  0  0  0  0  0  0  0  0  0  0  0
  -21.7774   -7.7521   24.0064 O   0  0  0  0  0  0  0  0  0  0  0  0
  -28.4479  -26.7609   20.4566 O   0  0  0  0  0  0  0  0  0  1  0  0
  -16.5938   -6.7977   22.3868 F   0  0  0  0  0  0  0  0  0  0  0  0
  -21.0224   -5.2674   23.0585 F   0  0  0  0  0  0  0  0  0  0  0  0
  1  2  1  0  0  0  0
  1  5  2  0  0  0  0
  2  6  2  0  0  0  0
  3 12  2  0  0  0  0
  3 19  1  0  0  0  0
  4 13  1  0  0  0  0
  4 19  2  0  0  0  0
  5 21  1  0  0  0  0
  6 23  1  0  0  0  0
  7 14  2  0  0  0  0
  7 22  1  0  0  0  0
  8 10  2  0  0  0  0
  8 25  1  0  0  0  0
  9 11  1  0  0  0  0
  9 25  2  0  0  0  0
 10 26  1  0  0  0  0
 11 26  2  0  0  0  0
 12 27  1  0  0  0  0
 13 27  2  0  0  0  0
 14 28  1  0  0  0  0
 15 16  2  0  0  0  0
 15 29  1  0  0  0  0
 16 30  1  0  0  0  0
 17 24  1  0  0  0  0
 17 28  2  0  0  0  0
 18 30  2  0  0  0  0
 18 31  1  0  0  0  0
 19 32  1  0  0  0  0
 20 32  1  0  0  0  0
 20 33  2  0  0  0  0
 20 36  1  0  0  0  0
 21 23  2  0  0  0  0
 21 41  1  0  0  0  0
 22 24  2  0  0  0  0
 22 42  1  0  0  0  0
 23 52  1  0  0  0  0
 24 43  1  0  0  0  0
 25 60  1  0  0  0  0
 26 73  1  0  0  0  0
 27 83  1  0  0  0  0
 28 84  1  0  0  0  0
 29 31  2  0  0  0  0
 29 83  1  0  0  0  0
 30 85  1  0  0  0  0
 31 86  1  0  0  0  0
 32 67  2  0  0  0  0
 33 68  1  0  0  0  0
 33 71  1  0  0  0  0
 34 35  2  0  0  0  0
 34 76  1  0  0  0  0
 35 44  1  0  0  0  0
 35 61  1  0  0  0  0
 36 72  1  0  0  0  0
 36 78  2  0  0  0  0
 37 53  1  0  0  0  0
 37 74  1  0  0  0  0
 37 79  2  0  0  0  0
 38 64  1  0  0  0  0
 38 69  1  0  0  0  0
 38 80  2  0  0  0  0
 39 65  1  0  0  0  0
 39 75  1  0  0  0  0
 39 81  2  0  0  0  0
 40 70  1  0  0  0  0
 40 73  1  0  0  0  0
 40 82  2  0  0  0  0
 41 45  1  0  0  0  0
 42 53  1  0  0  0  0
 43 69  1  0  0  0  0
 44 51  1  0  0  0  0
 45 47  1  0  0  0  0
 46 48  1  0  0  0  0
 46 49  1  0  0  0  0
 47 52  1  0  0  0  0
 48 54  1  0  0  0  0
 49 70  1  0  0  0  0
 50 54  1  0  0  0  0
 50 70  1  0  0  0  0
 51 76  1  0  0  0  0
 52 74  1  0  0  0  0
 53 69  1  0  0  0  0
 54 68  1  0  0  0  0
 55 65  1  0  0  0  0
 56 66  1  0  0  0  0
 57 66  1  0  0  0  0
 58 66  1  0  0  0  0
 59 77  1  0  0  0  0
 60 62  1  0  0  0  0
 61 84  1  0  0  0  0
 62 63  1  0  0  0  0
 63 76  1  0  0  0  0
 64 66  1  0  0  0  0
 64 75  1  0  0  0  0
 65 77  1  0  0  0  0
 67 68  1  0  0  0  0
M  CHG  2  76   1  77   1
M  ISO  4  40 100  61 101  73 100  84 101
M  END
> <Batch ID>
0102

> <Smiles>
CNC(C)C(=O)NC(C(=O)N1Cc2cc([101O:1][101CH2:1]C3=CN(CCCc4ccc([100NH:0][100C:0](=O)N5CCCC(n6nc(-c7ccc(Oc8ccc(F)cc8F)cc7)c(C(N)=O)c6N)C5)cc4)CC3)ccc2CC1C(=O)NC1CCCc2ccccc21)C(C)(C)C

> <Shape>
0.313

> <Color>
0.190

> <Negative vol penalty>
0.000

$$$$

  -OEChem-04052301023D

 86 94  0     1  0  0  0  0  0999 V2000
  -18.8088  -33.1062   20.1325 C   0  0  0  0  0  0  0  0  0  0  0  0
  -20.1475  -32.8472   19.8559 C   0  0  0  0  0  0  0  0  0  0  0  0
  -24.5866   -8.8804   21.6917 C   0  0  0  0  0  0  0  0  0  0  0  0
  -22.6912  -10.1647   20.9202 C   0  0  0  0  0  0  0  0  0  0  0  0
  -18.2244  -32.5898   21.2882 C   0  0  0  0  0  0  0  0  0  0  0  0
  -20.9028  -32.0726   20.7356 C   0  0  0  0  0  0  0  0  0  0  0  0
  -25.3880  -28.1652   19.2793 C   0  0  0  0  0  0  0  0  0  0  0  0
  -30.2636  -21.8486   20.9763 C   0  0  0  0  0  0  0  0  0  0  0  0
  -29.0200  -21.5424   18.9277 C   0  0  0  0  0  0  0  0  0  0  0  0
  -30.4826  -23.1854   20.6435 C   0  0  0  0  0  0  0  0  0  0  0  0
  -29.2390  -22.8792   18.5950 C   0  0  0  0  0  0  0  0  0  0  0  0
  -23.7347   -8.0806   22.4534 C   0  0  0  0  0  0  0  0  0  0  0  0
  -21.8393   -9.3649   21.6819 C   0  0  0  0  0  0  0  0  0  0  0  0
  -26.7768  -28.2877   19.2836 C   0  0  0  0  0  0  0  0  0  0  0  0
  -21.6213   -5.4928   21.9340 C   0  0  0  0  0  0  0  0  0  0  0  0
  -21.8156   -4.1122   21.8888 C   0  0  0  0  0  0  0  0  0  0  0  0
  -26.8531  -27.2757   21.4721 C   0  0  0  0  0  0  0  0  0  0  0  0
  -22.2134   -4.0902   24.2717 C   0  0  0  0  0  0  0  0  0  0  0  0
  -24.0649   -9.9225   20.9251 C   0  0  0  0  0  0  0  0  0  0  0  0
  -25.3436  -10.5377   18.8052 C   0  0  0  0  0  0  0  0  0  0  0  0
  -18.9704  -31.8003   22.1776 C   0  0  0  0  0  0  0  0  0  0  0  0
  -24.7193  -27.6061   20.3777 C   0  0  0  0  0  0  0  0  0  0  0  0
  -20.3281  -31.5462   21.9050 C   0  0  0  0  0  0  0  0  0  0  0  0
  -25.4560  -27.1449   21.4781 C   0  0  0  0  0  0  0  0  0  0  0  0
  -29.5324  -21.0271   20.1183 C   0  0  0  0  0  0  0  0  0  0  0  0
  -29.9703  -23.7007   19.4529 C   0  0  0  0  0  0  0  0  0  0  0  0
  -22.3610   -8.3229   22.4485 C   0  0  0  0  0  0  0  0  0  0  0  0
  -27.5094  -27.8455   20.3813 C   0  0  0  0  0  0  0  0  0  0  0  0
  -21.7232   -6.1720   23.1481 C   0  0  0  0  0  0  0  0  0  0  0  0
  -22.1115   -3.4110   23.0576 C   0  0  0  0  0  0  0  0  0  0  0  0
  -22.0192   -5.4708   24.3169 C   0  0  0  0  0  0  0  0  0  0  0  0
  -24.9445  -10.7493   20.1385 C   0  0  0  0  0  0  0  0  0  0  0  0
  -26.1737  -11.5951   18.5233 C   0  0  0  0  0  0  0  0  0  0  0  0
  -24.9950   -9.4801   17.9021 C   0  0  0  0  0  0  0  0  0  0  0  0
  -22.5623  -28.6565   22.4628 C   0  0  0  0  0  0  0  0  0  0  0  0
  -22.5838  -25.5666   23.4498 C   0  0  0  0  0  0  0  0  0  0  0  0
  -24.2615  -22.6016   23.6528 C   0  0  0  0  0  0  0  0  0  0  0  0
  -26.9438  -16.9391   20.6629 C   0  0  0  0  0  0  0  0  0  0  0  0
  -18.3078  -31.3034   23.4380 C   0  0  0  0  0  0  0  0  0  0  0  0
  -23.2230  -27.4567   20.3462 C   0  0  0  0  0  0  0  0  0  0  0  0
  -24.7875  -26.5187   22.6737 C   0  0  0  0  0  0  0  0  0  0  0  0
  -19.0771  -30.1801   24.1284 C   0  0  0  0  0  0  0  0  0  0  0  0
  -28.6612  -13.8070   21.8205 C   0  0  0  0  0  0  0  0  0  0  0  0
  -20.5602  -30.5255   24.2180 C   0  0  0  0  0  0  0  0  0  0  0  0
  -28.4483  -13.3865   20.3662 C   0  0  0  0  0  0  0  0  0  0  0  0
  -28.2572  -15.2667   22.0571 C   0  0  0  0  0  0  0  0  0  0  0  0
  -26.2297  -14.5779   20.8200 C   0  0  0  0  0  0  0  0  0  0  0  0
  -21.1737  -30.6896   22.8222 C   0  0  1  0  0  0  0  0  0  0  0  0
  -22.6045  -27.3421   21.7361 C   0  0  1  0  0  0  0  0  0  0  0  0
  -26.9992  -13.6309   19.8826 C   0  0  2  0  0  0  0  0  0  0  0  0
  -24.0376  -20.2690   24.5506 C   0  0  0  0  0  0  0  0  0  0  0  0
  -23.1302  -26.6014   26.2677 C   0  0  0  0  0  0  0  0  0  0  0  0
  -23.8294  -24.2842   26.9079 C   0  0  0  0  0  0  0  0  0  0  0  0
  -21.4927  -24.7150   26.1484 C   0  0  0  0  0  0  0  0  0  0  0  0
  -27.7727  -18.1384   22.7347 C   0  0  0  0  0  0  0  0  0  0  0  0
  -24.4876  -21.4155   20.9508 C   0  0  0  0  0  0  0  0  0  0  0  0
  -31.3266  -18.6485   19.7610 C   0  0  0  0  0  0  0  0  0  0  0  0
  -30.9305  -27.3451   19.3352 C   0  0  0  0  0  0  0  0  0  0  0  0
  -30.9278  -25.9506   19.9497 C   0  0  0  0  0  0  0  0  0  0  0  0
  -27.8038  -19.2453   20.5314 C   0  0  0  0  0  0  0  0  0  0  0  0
  -29.5287  -27.9060   19.1266 C   0  0  0  0  0  0  0  0  0  1  0  0
  -29.2981  -19.5977   20.4730 C   0  0  1  0  0  0  0  0  0  0  0  0
  -23.3748  -24.7729   24.4614 C   0  0  1  0  0  0  0  0  0  0  0  0
  -23.8311  -21.1779   23.3490 C   0  0  2  0  0  0  0  0  0  0  0  0
  -22.9695  -25.1069   25.9248 C   0  0  0  0  0  0  0  0  0  0  0  0
  -25.4774  -11.8541   20.6671 N   0  0  0  0  0  0  0  0  0  0  0  0
  -26.2199  -12.3462   19.6608 N   0  0  0  0  0  0  0  0  0  0  0  0
  -23.3220  -26.4005   22.5981 N   0  0  0  0  0  0  0  0  0  0  0  0
  -27.0946  -15.6735   21.2544 N   0  0  0  0  0  0  0  0  0  0  0  0
  -26.8614  -11.9462   17.4160 N   0  0  0  0  0  0  0  0  0  0  0  0
  -24.1303   -8.4738   18.3537 N   0  0  0  0  0  0  0  0  0  0  0  0
  -30.1861  -25.0296   19.1228 N   0  0  0  0  0  0  0  0  0  0  0  0
  -21.4196  -29.3955   22.2228 N   0  0  0  0  0  0  0  0  0  0  0  0
  -23.2072  -23.3693   24.1004 N   0  0  0  0  0  0  0  0  0  0  0  0
  -27.5584  -18.0295   21.2950 N   0  0  0  0  0  0  0  0  0  0  0  0
  -24.6168  -20.6320   22.2063 N   0  3  0  0  0  0  0  0  0  0  0  0
  -25.4503   -9.4200   16.7348 O   0  0  0  0  0  0  0  0  0  0  0  0
  -23.4965  -28.9759   23.1887 O   0  0  0  0  0  0  0  0  0  0  0  0
  -21.3568  -25.4455   23.4119 O   0  0  0  0  0  0  0  0  0  0  0  0
  -25.4180  -22.9925   23.5110 O   0  0  0  0  0  0  0  0  0  0  0  0
  -26.3048  -17.0856   19.6124 O   0  0  0  0  0  0  0  0  0  0  0  0
  -21.5294   -7.5425   23.1914 O   0  0  0  0  0  0  0  0  0  0  0  0
  -28.8650  -27.9644   20.3885 O   0  0  0  0  0  0  0  0  0  1  0  0
  -29.9386  -18.7599   19.5012 O   0  0  0  0  0  0  0  0  0  0  0  0
  -22.2965   -2.0850   23.0144 F   0  0  0  0  0  0  0  0  0  0  0  0
  -22.1172   -6.1177   25.4864 F   0  0  0  0  0  0  0  0  0  0  0  0
  1  2  1  0  0  0  0
  1  5  2  0  0  0  0
  2  6  2  0  0  0  0
  3 12  2  0  0  0  0
  3 19  1  0  0  0  0
  4 13  1  0  0  0  0
  4 19  2  0  0  0  0
  5 21  1  0  0  0  0
  6 23  1  0  0  0  0
  7 14  2  0  0  0  0
  7 22  1  0  0  0  0
  8 10  2  0  0  0  0
  8 25  1  0  0  0  0
  9 11  1  0  0  0  0
  9 25  2  0  0  0  0
 10 26  1  0  0  0  0
 11 26  2  0  0  0  0
 12 27  1  0  0  0  0
 13 27  2  0  0  0  0
 14 28  1  0  0  0  0
 15 16  2  0  0  0  0
 15 29  1  0  0  0  0
 16 30  1  0  0  0  0
 17 24  1  0  0  0  0
 17 28  2  0  0  0  0
 18 30  2  0  0  0  0
 18 31  1  0  0  0  0
 19 32  1  0  0  0  0
 20 32  1  0  0  0  0
 20 33  2  0  0  0  0
 20 34  1  0  0  0  0
 21 23  2  0  0  0  0
 21 39  1  0  0  0  0
 22 24  2  0  0  0  0
 22 40  1  0  0  0  0
 23 48  1  0  0  0  0
 24 41  1  0  0  0  0
 25 62  1  0  0  0  0
 26 72  1  0  0  0  0
 27 82  1  0  0  0  0
 28 83  1  0  0  0  0
 29 31  2  0  0  0  0
 29 82  1  0  0  0  0
 30 85  1  0  0  0  0
 31 86  1  0  0  0  0
 32 66  2  0  0  0  0
 33 67  1  0  0  0  0
 33 70  1  0  0  0  0
 34 71  1  0  0  0  0
 34 77  2  0  0  0  0
 35 49  1  0  0  0  0
 35 73  1  0  0  0  0
 35 78  2  0  0  0  0
 36 63  1  0  0  0  0
 36 68  1  0  0  0  0
 36 79  2  0  0  0  0
 37 64  1  0  0  0  0
 37 74  1  0  0  0  0
 37 80  2  0  0  0  0
 38 69  1  0  0  0  0
 38 75  1  0  0  0  0
 38 81  2  0  0  0  0
 39 42  1  0  0  0  0
 40 49  1  0  0  0  0
 41 68  1  0  0  0  0
 42 44  1  0  0  0  0
 43 45  1  0  0  0  0
 43 46  1  0  0  0  0
 44 48  1  0  0  0  0
 45 50  1  0  0  0  0
 46 69  1  0  0  0  0
 47 50  1  0  0  0  0
 47 69  1  0  0  0  0
 48 73  1  0  0  0  0
 49 68  1  0  0  0  0
 50 67  1  0  0  0  0
 51 64  1  0  0  0  0
 52 65  1  0  0  0  0
 53 65  1  0  0  0  0
 54 65  1  0  0  0  0
 55 75  1  0  0  0  0
 56 76  1  0  0  0  0
 57 84  1  0  0  0  0
 58 59  1  0  0  0  0
 58 61  1  0  0  0  0
 59 72  1  0  0  0  0
 60 62  1  0  0  0  0
 60 75  1  0  0  0  0
 61 83  1  0  0  0  0
 62 84  1  0  0  0  0
 63 65  1  0  0  0  0
 63 74  1  0  0  0  0
 64 76  1  0  0  0  0
 66 67  1  0  0  0  0
M  CHG  1  76   1
M  ISO  4  38 100  61 101  75 100  83 101
M  END
> <Batch ID>
0102

> <Smiles>
CNC(C)C(=O)NC(C(=O)N1Cc2cc([101O:1][101CH2:1]CCNc3ccc(C(C[100N:0](C)[100C:0](=O)N4CCCC(n5nc(-c6ccc(Oc7ccc(F)cc7F)cc6)c(C(N)=O)c5N)C4)OC)cc3)ccc2CC1C(=O)NC1CCCc2ccccc21)C(C)(C)C

> <Shape>
0.271

> <Color>
0.107

> <Negative vol penalty>
0.000

$$$$

  -OEChem-04052301023D

 85 94  0     1  0  0  0  0  0999 V2000
  -32.4906  -24.9727   18.9711 C   0  0  0  0  0  0  0  0  0  0  0  0
  -31.1079  -24.9621   19.1244 C   0  0  0  0  0  0  0  0  0  0  0  0
  -24.7701   -8.8215   21.7351 C   0  0  0  0  0  0  0  0  0  0  0  0
  -23.1163  -10.1667   20.5984 C   0  0  0  0  0  0  0  0  0  0  0  0
  -33.2895  -25.6293   19.9063 C   0  0  0  0  0  0  0  0  0  0  0  0
  -30.5233  -25.6073   20.2137 C   0  0  0  0  0  0  0  0  0  0  0  0
  -26.4833  -28.3636   18.9002 C   0  0  0  0  0  0  0  0  0  0  0  0
  -25.5348  -20.1871   19.5160 C   0  0  0  0  0  0  0  0  0  0  0  0
  -23.9009  -18.9710   18.2167 C   0  0  0  0  0  0  0  0  0  0  0  0
  -26.3118  -19.0333   19.6190 C   0  0  0  0  0  0  0  0  0  0  0  0
  -24.6778  -17.8171   18.3196 C   0  0  0  0  0  0  0  0  0  0  0  0
  -23.7673   -8.2506   22.5187 C   0  0  0  0  0  0  0  0  0  0  0  0
  -22.1134   -9.5959   21.3820 C   0  0  0  0  0  0  0  0  0  0  0  0
  -25.2904  -27.6778   18.6754 C   0  0  0  0  0  0  0  0  0  0  0  0
  -21.4000   -5.8600   22.1815 C   0  0  0  0  0  0  0  0  0  0  0  0
  -21.4255   -4.4770   22.3605 C   0  0  0  0  0  0  0  0  0  0  0  0
  -24.5295  -28.2906   20.8810 C   0  0  0  0  0  0  0  0  0  0  0  0
  -21.6235   -4.7896   24.7480 C   0  0  0  0  0  0  0  0  0  0  0  0
  -24.4447   -9.7796   20.7750 C   0  0  0  0  0  0  0  0  0  0  0  0
  -25.9567   -9.9074   18.7244 C   0  0  0  0  0  0  0  0  0  0  0  0
  -32.7138  -26.2910   21.0023 C   0  0  0  0  0  0  0  0  0  0  0  0
  -26.7131  -29.0099   20.1232 C   0  0  0  0  0  0  0  0  0  0  0  0
  -31.3154  -26.2722   21.1652 C   0  0  0  0  0  0  0  0  0  0  0  0
  -25.7251  -28.9860   21.1179 C   0  0  0  0  0  0  0  0  0  0  0  0
  -24.3293  -20.1560   18.8149 C   0  0  0  0  0  0  0  0  0  0  0  0
  -25.8833  -17.8483   19.0208 C   0  0  0  0  0  0  0  0  0  0  0  0
  -22.4389   -8.6378   22.3422 C   0  0  0  0  0  0  0  0  0  0  0  0
  -24.3145  -27.6388   19.6670 C   0  0  0  0  0  0  0  0  0  0  0  0
  -21.4863   -6.7079   23.2857 C   0  0  0  0  0  0  0  0  0  0  0  0
  -21.5372   -3.9417   23.6437 C   0  0  0  0  0  0  0  0  0  0  0  0
  -21.5980   -6.1727   24.5690 C   0  0  0  0  0  0  0  0  0  0  0  0
  -25.4802  -10.3700   19.9656 C   0  0  0  0  0  0  0  0  0  0  0  0
  -26.9309  -10.8094   18.3727 C   0  0  0  0  0  0  0  0  0  0  0  0
  -25.5546   -8.7645   17.9578 C   0  0  0  0  0  0  0  0  0  0  0  0
  -28.8476  -28.6994   22.4580 C   0  0  0  0  0  0  0  0  0  0  0  0
  -27.3905  -31.3566   23.6149 C   0  0  0  0  0  0  0  0  0  0  0  0
  -24.5956  -33.3118   23.7274 C   0  0  0  0  0  0  0  0  0  0  0  0
  -27.8935  -16.5355   19.7837 C   0  0  0  0  0  0  0  0  0  0  0  0
  -33.6213  -26.9469   22.0127 C   0  0  0  0  0  0  0  0  0  0  0  0
  -27.9941  -29.7679   20.3400 C   0  0  0  0  0  0  0  0  0  0  0  0
  -25.9145  -29.6809   22.4407 C   0  0  0  0  0  0  0  0  0  0  0  0
  -32.8990  -27.9251   22.9357 C   0  0  0  0  0  0  0  0  0  0  0  0
  -30.1268  -13.8109   20.2994 C   0  0  0  0  0  0  0  0  0  0  0  0
  -31.6093  -27.3063   23.4652 C   0  0  0  0  0  0  0  0  0  0  0  0
  -29.2332  -12.5770   20.1534 C   0  0  0  0  0  0  0  0  0  0  0  0
  -21.0151  -24.4764   21.3034 C   0  0  0  0  0  0  0  0  0  0  0  0
  -29.3953  -14.9628   20.9863 C   0  0  0  0  0  0  0  0  0  0  0  0
  -27.2150  -14.0960   20.2352 C   0  0  0  0  0  0  0  0  0  0  0  0
  -20.6899  -23.0974   20.7529 C   0  0  0  0  0  0  0  0  0  0  0  0
  -22.6252  -24.0665   19.6174 C   0  0  0  0  0  0  0  0  0  0  0  0
  -30.6424  -26.9817   22.3200 C   0  0  1  0  0  0  0  0  0  0  0  0
  -28.3343  -29.9568   21.8152 C   0  0  1  0  0  0  0  0  0  0  0  0
  -21.7330  -25.1720   20.1554 C   0  0  2  0  0  0  0  0  0  0  0  0
  -27.8875  -12.9311   19.4906 C   0  0  2  0  0  0  0  0  0  0  0  0
  -23.6927  -35.3984   24.7896 C   0  0  0  0  0  0  0  0  0  0  0  0
  -27.0083  -29.8514   26.2413 C   0  0  0  0  0  0  0  0  0  0  0  0
  -25.3153  -31.5737   26.9014 C   0  0  0  0  0  0  0  0  0  0  0  0
  -27.6839  -32.2454   26.4998 C   0  0  0  0  0  0  0  0  0  0  0  0
  -24.2070  -34.6196   21.1011 C   0  0  0  0  0  0  0  0  0  0  0  0
  -23.4931  -21.3980   18.7042 C   0  0  0  0  0  0  0  0  0  0  0  0
  -22.5074  -26.3980   20.5895 C   0  0  0  0  0  0  0  0  0  1  0  0
  -22.4772  -21.5598   19.8304 C   0  0  0  0  0  0  0  0  0  0  0  0
  -26.2222  -31.6210   24.5336 C   0  0  1  0  0  0  0  0  0  0  0  0
  -24.4089  -34.8114   23.5833 C   0  0  2  0  0  0  0  0  0  0  0  0
  -26.5543  -31.3080   26.0200 C   0  0  0  0  0  0  0  0  0  0  0  0
  -26.1007  -11.4797   20.3750 N   0  0  0  0  0  0  0  0  0  0  0  0
  -26.9772  -11.7218   19.3854 N   0  0  0  0  0  0  0  0  0  0  0  0
  -27.1865  -30.4034   22.6072 N   0  0  0  0  0  0  0  0  0  0  0  0
  -28.1318  -15.2448   20.3014 N   0  0  0  0  0  0  0  0  0  0  0  0
  -27.7440  -10.9032   17.2992 N   0  0  0  0  0  0  0  0  0  0  0  0
  -24.5387   -7.9432   18.4655 N   0  0  0  0  0  0  0  0  0  0  0  0
  -26.6725  -16.6761   19.1249 N   0  0  0  0  0  0  0  0  0  0  0  0
  -29.9819  -28.1845   21.8600 N   0  0  0  0  0  0  0  0  0  0  0  0
  -25.8154  -33.0008   24.2900 N   0  0  0  0  0  0  0  0  0  0  0  0
  -21.7317  -22.8464   19.6782 N   0  3  1  0  0  0  0  0  0  0  0  0
  -23.6072  -35.1189   22.3652 N   0  3  0  0  0  0  0  0  0  0  0  0
  -26.0919   -8.4707   16.8630 O   0  0  0  0  0  0  0  0  0  0  0  0
  -28.2590  -28.2320   23.4259 O   0  0  0  0  0  0  0  0  0  0  0  0
  -28.4429  -31.9783   23.7807 O   0  0  0  0  0  0  0  0  0  0  0  0
  -23.7430  -32.4979   23.3794 O   0  0  0  0  0  0  0  0  0  0  0  0
  -28.7240  -17.4414   19.8912 O   0  0  0  0  0  0  0  0  0  0  0  0
  -21.4601   -8.0808   23.1064 O   0  0  0  0  0  0  0  0  0  0  0  0
  -23.1495  -26.9696   19.4504 O   0  0  0  0  0  0  0  0  0  1  0  0
  -21.5602   -2.6135   23.8156 F   0  0  0  0  0  0  0  0  0  0  0  0
  -21.6801   -6.9822   25.6337 F   0  0  0  0  0  0  0  0  0  0  0  0
  1  2  1  0  0  0  0
  1  5  2  0  0  0  0
  2  6  2  0  0  0  0
  3 12  2  0  0  0  0
  3 19  1  0  0  0  0
  4 13  1  0  0  0  0
  4 19  2  0  0  0  0
  5 21  1  0  0  0  0
  6 23  1  0  0  0  0
  7 14  2  0  0  0  0
  7 22  1  0  0  0  0
  8 10  2  0  0  0  0
  8 25  1  0  0  0  0
  9 11  1  0  0  0  0
  9 25  2  0  0  0  0
 10 26  1  0  0  0  0
 11 26  2  0  0  0  0
 12 27  1  0  0  0  0
 13 27  2  0  0  0  0
 14 28  1  0  0  0  0
 15 16  2  0  0  0  0
 15 29  1  0  0  0  0
 16 30  1  0  0  0  0
 17 24  1  0  0  0  0
 17 28  2  0  0  0  0
 18 30  2  0  0  0  0
 18 31  1  0  0  0  0
 19 32  1  0  0  0  0
 20 32  1  0  0  0  0
 20 33  2  0  0  0  0
 20 34  1  0  0  0  0
 21 23  2  0  0  0  0
 21 39  1  0  0  0  0
 22 24  2  0  0  0  0
 22 40  1  0  0  0  0
 23 51  1  0  0  0  0
 24 41  1  0  0  0  0
 25 60  1  0  0  0  0
 26 72  1  0  0  0  0
 27 82  1  0  0  0  0
 28 83  1  0  0  0  0
 29 31  2  0  0  0  0
 29 82  1  0  0  0  0
 30 84  1  0  0  0  0
 31 85  1  0  0  0  0
 32 66  2  0  0  0  0
 33 67  1  0  0  0  0
 33 70  1  0  0  0  0
 34 71  1  0  0  0  0
 34 77  2  0  0  0  0
 35 52  1  0  0  0  0
 35 73  1  0  0  0  0
 35 78  2  0  0  0  0
 36 63  1  0  0  0  0
 36 68  1  0  0  0  0
 36 79  2  0  0  0  0
 37 64  1  0  0  0  0
 37 74  1  0  0  0  0
 37 80  2  0  0  0  0
 38 69  1  0  0  0  0
 38 72  1  0  0  0  0
 38 81  2  0  0  0  0
 39 42  1  0  0  0  0
 40 52  1  0  0  0  0
 41 68  1  0  0  0  0
 42 44  1  0  0  0  0
 43 45  1  0  0  0  0
 43 47  1  0  0  0  0
 44 51  1  0  0  0  0
 45 54  1  0  0  0  0
 46 49  1  0  0  0  0
 46 53  1  0  0  0  0
 47 69  1  0  0  0  0
 48 54  1  0  0  0  0
 48 69  1  0  0  0  0
 49 75  1  0  0  0  0
 50 53  1  0  0  0  0
 50 75  1  0  0  0  0
 51 73  1  0  0  0  0
 52 68  1  0  0  0  0
 53 61  1  0  0  0  0
 54 67  1  0  0  0  0
 55 64  1  0  0  0  0
 56 65  1  0  0  0  0
 57 65  1  0  0  0  0
 58 65  1  0  0  0  0
 59 76  1  0  0  0  0
 60 62  1  0  0  0  0
 61 83  1  0  0  0  0
 62 75  1  0  0  0  0
 63 65  1  0  0  0  0
 63 74  1  0  0  0  0
 64 76  1  0  0  0  0
 66 67  1  0  0  0  0
M  CHG  2  75   1  76   1
M  ISO  4  38 100  61 101  72 100  83 101
M  END
> <Batch ID>
0102

> <Smiles>
CNC(C)C(=O)NC(C(=O)N1Cc2cc([101O:1][101CH2:1]C3CCN(CCc4ccc([100NH:0][100C:0](=O)N5CCCC(n6nc(-c7ccc(Oc8ccc(F)cc8F)cc7)c(C(N)=O)c6N)C5)cc4)C3)ccc2CC1C(=O)NC1CCCc2ccccc21)C(C)(C)C

> <Shape>
0.274

> <Color>
0.098

> <Negative vol penalty>
0.000

$$$$

  -OEChem-04052301023D

 74 81  0     1  0  0  0  0  0999 V2000
  -28.2370  -24.4861   17.1417 C   0  0  0  0  0  0  0  0  0  0  0  0
  -27.0905  -25.1970   17.4776 C   0  0  0  0  0  0  0  0  0  0  0  0
  -23.9976  -17.2212   19.7044 C   0  0  0  0  0  0  0  0  0  0  0  0
  -21.6114  -17.5982   19.7372 C   0  0  0  0  0  0  0  0  0  0  0  0
  -29.3729  -24.5840   17.9426 C   0  0  0  0  0  0  0  0  0  0  0  0
  -27.0832  -26.0153   18.6078 C   0  0  0  0  0  0  0  0  0  0  0  0
  -23.1087  -28.8301   19.3032 C   0  0  0  0  0  0  0  0  0  0  0  0
  -23.7896  -15.8777   20.0166 C   0  0  0  0  0  0  0  0  0  0  0  0
  -21.4034  -16.2547   20.0494 C   0  0  0  0  0  0  0  0  0  0  0  0
  -21.8764  -28.3102   19.6969 C   0  0  0  0  0  0  0  0  0  0  0  0
  -23.8696  -12.2693   20.4498 C   0  0  0  0  0  0  0  0  0  0  0  0
  -24.5945  -11.3172   19.7332 C   0  0  0  0  0  0  0  0  0  0  0  0
  -22.2606  -29.1131   21.9389 C   0  0  0  0  0  0  0  0  0  0  0  0
  -23.5960  -12.1033   17.6784 C   0  0  0  0  0  0  0  0  0  0  0  0
  -22.9085  -18.0814   19.5647 C   0  0  0  0  0  0  0  0  0  0  0  0
  -23.1955  -20.0430   17.9592 C   0  0  0  0  0  0  0  0  0  0  0  0
  -29.3747  -25.3944   19.0898 C   0  0  0  0  0  0  0  0  0  0  0  0
  -23.9324  -29.4870   20.2287 C   0  0  0  0  0  0  0  0  0  0  0  0
  -28.2273  -26.1461   19.4155 C   0  0  0  0  0  0  0  0  0  0  0  0
  -23.5017  -29.6426   21.5540 C   0  0  0  0  0  0  0  0  0  0  0  0
  -22.4925  -15.3945   20.1891 C   0  0  0  0  0  0  0  0  0  0  0  0
  -21.4534  -28.4491   21.0155 C   0  0  0  0  0  0  0  0  0  0  0  0
  -23.0077  -13.1384   19.7807 C   0  0  0  0  0  0  0  0  0  0  0  0
  -24.4578  -11.2342   18.3475 C   0  0  0  0  0  0  0  0  0  0  0  0
  -22.8709  -13.0554   18.3951 C   0  0  0  0  0  0  0  0  0  0  0  0
  -23.1227  -19.4695   19.2428 C   0  0  0  0  0  0  0  0  0  0  0  0
  -23.4090  -21.3796   18.1920 C   0  0  0  0  0  0  0  0  0  0  0  0
  -23.0803  -19.4229   16.6716 C   0  0  0  0  0  0  0  0  0  0  0  0
  -26.8422  -28.9749   21.4010 C   0  0  0  0  0  0  0  0  0  0  0  0
  -26.3567  -31.8553   22.8116 C   0  0  0  0  0  0  0  0  0  0  0  0
  -24.1398  -34.1868   23.9501 C   0  0  0  0  0  0  0  0  0  0  0  0
  -22.1653  -24.9610   22.8264 C   0  0  0  0  0  0  0  0  0  0  0  0
  -30.6340  -25.4698   19.9166 C   0  0  0  0  0  0  0  0  0  0  0  0
  -25.2470  -30.0656   19.7819 C   0  0  0  0  0  0  0  0  0  0  0  0
  -24.3398  -30.3572   22.5814 C   0  0  0  0  0  0  0  0  0  0  0  0
  -30.3902  -26.0052   21.3238 C   0  0  0  0  0  0  0  0  0  0  0  0
  -25.3644  -24.3589   21.3844 C   0  0  0  0  0  0  0  0  0  0  0  0
  -29.5719  -27.2861   21.2580 C   0  0  0  0  0  0  0  0  0  0  0  0
  -25.1592  -23.0892   20.5562 C   0  0  0  0  0  0  0  0  0  0  0  0
  -24.5549  -24.3253   22.6788 C   0  0  0  0  0  0  0  0  0  0  0  0
  -22.9098  -22.7899   21.6739 C   0  0  0  0  0  0  0  0  0  0  0  0
  -28.1862  -27.0186   20.6570 C   0  0  1  0  0  0  0  0  0  0  0  0
  -26.2328  -30.2646   20.9290 C   0  0  1  0  0  0  0  0  0  0  0  0
  -23.6624  -22.8016   20.3323 C   0  0  2  0  0  0  0  0  0  0  0  0
  -24.0417  -36.4211   25.0884 C   0  0  0  0  0  0  0  0  0  0  0  0
  -27.0386  -30.5268   25.4724 C   0  0  0  0  0  0  0  0  0  0  0  0
  -26.0199  -32.4953   26.6367 C   0  0  0  0  0  0  0  0  0  0  0  0
  -28.0109  -32.8106   25.1672 C   0  0  0  0  0  0  0  0  0  0  0  0
  -22.7535  -35.4283   21.6488 C   0  0  0  0  0  0  0  0  0  0  0  0
  -18.9463  -25.9462   21.6711 C   0  0  0  0  0  0  0  0  0  0  0  0
  -19.7364  -25.4678   22.8817 C   0  0  0  0  0  0  0  0  0  0  0  0
  -19.7817  -26.7851   20.7116 C   0  0  0  0  0  0  0  0  0  1  0  0
  -25.7630  -32.3184   24.1200 C   0  0  1  0  0  0  0  0  0  0  0  0
  -24.0705  -35.6906   23.7549 C   0  0  2  0  0  0  0  0  0  0  0  0
  -26.6930  -32.0226   25.3304 C   0  0  0  0  0  0  0  0  0  0  0  0
  -23.2776  -20.3682   20.2186 N   0  0  0  0  0  0  0  0  0  0  0  0
  -23.4499  -21.5200   19.5480 N   0  0  0  0  0  0  0  0  0  0  0  0
  -25.6199  -30.9000   22.0973 N   0  0  0  0  0  0  0  0  0  0  0  0
  -23.1441  -24.0498   22.3967 N   0  0  0  0  0  0  0  0  0  0  0  0
  -23.5640  -22.4369   17.3670 N   0  0  0  0  0  0  0  0  0  0  0  0
  -22.8617  -18.0397   16.6133 N   0  0  0  0  0  0  0  0  0  0  0  0
  -27.5233  -28.2817   20.4185 N   0  0  0  0  0  0  0  0  0  0  0  0
  -25.4410  -33.7306   23.9450 N   0  0  0  0  0  0  0  0  0  0  0  0
  -20.8535  -24.6272   22.5125 N   0  0  0  0  0  0  0  0  0  0  0  0
  -22.8445  -36.0579   22.9913 N   0  3  0  0  0  0  0  0  0  0  0  0
  -23.1849  -20.0734   15.6042 O   0  0  0  0  0  0  0  0  0  0  0  0
  -26.7060  -28.6345   22.5703 O   0  0  0  0  0  0  0  0  0  0  0  0
  -27.4311  -32.3292   22.4336 O   0  0  0  0  0  0  0  0  0  0  0  0
  -23.1399  -33.4873   24.0965 O   0  0  0  0  0  0  0  0  0  0  0  0
  -22.4405  -25.9981   23.4394 O   0  0  0  0  0  0  0  0  0  0  0  0
  -22.2892  -14.0836   20.4935 O   0  0  0  0  0  0  0  0  0  0  0  0
  -20.2514  -27.9420   21.4025 O   0  0  0  0  0  0  0  0  0  1  0  0
  -25.1552  -10.3209   17.6593 F   0  0  0  0  0  0  0  0  0  0  0  0
  -22.0454  -13.8884   17.7467 F   0  0  0  0  0  0  0  0  0  0  0  0
  1  2  1  0  0  0  0
  1  5  2  0  0  0  0
  2  6  2  0  0  0  0
  3  8  2  0  0  0  0
  3 15  1  0  0  0  0
  4  9  1  0  0  0  0
  4 15  2  0  0  0  0
  5 17  1  0  0  0  0
  6 19  1  0  0  0  0
  7 10  2  0  0  0  0
  7 18  1  0  0  0  0
  8 21  1  0  0  0  0
  9 21  2  0  0  0  0
 10 22  1  0  0  0  0
 11 12  2  0  0  0  0
 11 23  1  0  0  0  0
 12 24  1  0  0  0  0
 13 20  1  0  0  0  0
 13 22  2  0  0  0  0
 14 24  2  0  0  0  0
 14 25  1  0  0  0  0
 15 26  1  0  0  0  0
 16 26  1  0  0  0  0
 16 27  2  0  0  0  0
 16 28  1  0  0  0  0
 17 19  2  0  0  0  0
 17 33  1  0  0  0  0
 18 20  2  0  0  0  0
 18 34  1  0  0  0  0
 19 42  1  0  0  0  0
 20 35  1  0  0  0  0
 21 71  1  0  0  0  0
 22 72  1  0  0  0  0
 23 25  2  0  0  0  0
 23 71  1  0  0  0  0
 24 73  1  0  0  0  0
 25 74  1  0  0  0  0
 26 56  2  0  0  0  0
 27 57  1  0  0  0  0
 27 60  1  0  0  0  0
 28 61  1  0  0  0  0
 28 66  2  0  0  0  0
 29 43  1  0  0  0  0
 29 62  1  0  0  0  0
 29 67  2  0  0  0  0
 30 53  1  0  0  0  0
 30 58  1  0  0  0  0
 30 68  2  0  0  0  0
 31 54  1  0  0  0  0
 31 63  1  0  0  0  0
 31 69  2  0  0  0  0
 32 59  1  0  0  0  0
 32 64  1  0  0  0  0
 32 70  2  0  0  0  0
 33 36  1  0  0  0  0
 34 43  1  0  0  0  0
 35 58  1  0  0  0  0
 36 38  1  0  0  0  0
 37 39  1  0  0  0  0
 37 40  1  0  0  0  0
 38 42  1  0  0  0  0
 39 44  1  0  0  0  0
 40 59  1  0  0  0  0
 41 44  1  0  0  0  0
 41 59  1  0  0  0  0
 42 62  1  0  0  0  0
 43 58  1  0  0  0  0
 44 57  1  0  0  0  0
 45 54  1  0  0  0  0
 46 55  1  0  0  0  0
 47 55  1  0  0  0  0
 48 55  1  0  0  0  0
 49 65  1  0  0  0  0
 50 51  1  0  0  0  0
 50 52  1  0  0  0  0
 51 64  1  0  0  0  0
 52 72  1  0  0  0  0
 53 55  1  0  0  0  0
 53 63  1  0  0  0  0
 54 65  1  0  0  0  0
 56 57  1  0  0  0  0
M  CHG  1  65   1
M  ISO  4  32 100  52 101  64 100  72 101
M  END
> <Batch ID>
0102

> <Smiles>
CNC(C)C(=O)NC(C(=O)N1Cc2cc([101O:1][101CH2:1]CC[100NH:0][100C:0](=O)N3CCCC(n4nc(-c5ccc(Oc6ccc(F)cc6F)cc5)c(C(N)=O)c4N)C3)ccc2CC1C(=O)NC1CCCc2ccccc21)C(C)(C)C

> <Shape>
0.222

> <Color>
0.068

> <Negative vol penalty>
0.000

$$$$

  -OEChem-04052301023D

 86 95  0     1  0  0  0  0  0999 V2000
  -29.2234  -37.1300   21.8036 C   0  0  0  0  0  0  0  0  0  0  0  0
  -29.4874  -35.8433   21.3453 C   0  0  0  0  0  0  0  0  0  0  0  0
  -21.8822  -10.1657   22.2811 C   0  0  0  0  0  0  0  0  0  0  0  0
  -23.9117   -9.9729   20.9845 C   0  0  0  0  0  0  0  0  0  0  0  0
  -28.3064  -37.3269   22.8352 C   0  0  0  0  0  0  0  0  0  0  0  0
  -28.8352  -34.7525   21.9191 C   0  0  0  0  0  0  0  0  0  0  0  0
  -27.0410  -29.6283   19.0855 C   0  0  0  0  0  0  0  0  0  0  0  0
  -27.7722  -20.6510   18.1092 C   0  0  0  0  0  0  0  0  0  0  0  0
  -26.6216  -19.9069   18.3702 C   0  0  0  0  0  0  0  0  0  0  0  0
  -21.6516   -8.7992   22.1234 C   0  0  0  0  0  0  0  0  0  0  0  0
  -23.6811   -8.6063   20.8268 C   0  0  0  0  0  0  0  0  0  0  0  0
  -27.6114  -28.3596   18.9914 C   0  0  0  0  0  0  0  0  0  0  0  0
  -22.7748   -5.9110   23.4761 C   0  0  0  0  0  0  0  0  0  0  0  0
  -22.3875   -5.1848   24.6022 C   0  0  0  0  0  0  0  0  0  0  0  0
  -28.8293  -19.7019   20.0634 C   0  0  0  0  0  0  0  0  0  0  0  0
  -26.2344  -27.6112   20.8252 C   0  0  0  0  0  0  0  0  0  0  0  0
  -20.3306   -4.5665   23.4959 C   0  0  0  0  0  0  0  0  0  0  0  0
  -23.0122  -10.7527   21.7116 C   0  0  0  0  0  0  0  0  0  0  0  0
  -27.6787  -18.9578   20.3244 C   0  0  0  0  0  0  0  0  0  0  0  0
  -23.9712  -12.7916   22.9078 C   0  0  0  0  0  0  0  0  0  0  0  0
  -27.6355  -36.2388   23.4155 C   0  0  0  0  0  0  0  0  0  0  0  0
  -26.0693  -29.9014   20.0589 C   0  0  0  0  0  0  0  0  0  0  0  0
  -27.9094  -34.9348   22.9604 C   0  0  0  0  0  0  0  0  0  0  0  0
  -25.6514  -28.8834   20.9279 C   0  0  0  0  0  0  0  0  0  0  0  0
  -28.8760  -20.5485   18.9558 C   0  0  0  0  0  0  0  0  0  0  0  0
  -26.5749  -19.0603   19.4778 C   0  0  0  0  0  0  0  0  0  0  0  0
  -22.5510   -8.0195   21.3963 C   0  0  0  0  0  0  0  0  0  0  0  0
  -27.2102  -27.3516   19.8632 C   0  0  0  0  0  0  0  0  0  0  0  0
  -21.9401   -5.9651   22.3599 C   0  0  0  0  0  0  0  0  0  0  0  0
  -21.1653   -4.5125   24.6121 C   0  0  0  0  0  0  0  0  0  0  0  0
  -20.7180   -5.2928   22.3698 C   0  0  0  0  0  0  0  0  0  0  0  0
  -23.2507  -12.1644   21.8737 C   0  0  0  0  0  0  0  0  0  0  0  0
  -23.9075  -14.1304   22.6075 C   0  0  0  0  0  0  0  0  0  0  0  0
  -29.7676  -24.8340   19.8798 C   0  0  0  0  0  0  0  0  0  0  0  0
  -27.8014  -18.5181   22.7341 C   0  0  0  0  0  0  0  0  0  0  0  0
  -27.6669  -18.0830   21.4910 C   0  0  0  0  0  0  0  0  0  0  0  0
  -29.1168  -25.9993   19.9459 C   0  0  0  0  0  0  0  0  0  1  0  0
  -24.6384  -12.2156   24.0386 C   0  0  0  0  0  0  0  0  0  0  0  0
  -25.8718  -31.8816   22.5376 C   0  0  0  0  0  0  0  0  0  0  0  0
  -22.8267  -30.7731   22.6826 C   0  0  0  0  0  0  0  0  0  0  0  0
  -20.6128  -28.2810   21.9513 C   0  0  0  0  0  0  0  0  0  0  0  0
  -24.2223  -18.3242   18.9584 C   0  0  0  0  0  0  0  0  0  0  0  0
  -26.6879  -36.4969   24.5601 C   0  0  0  0  0  0  0  0  0  0  0  0
  -25.4445  -31.2678   20.1300 C   0  0  0  0  0  0  0  0  0  0  0  0
  -24.5972  -29.1197   21.9773 C   0  0  0  0  0  0  0  0  0  0  0  0
  -31.2451  -24.6507   20.0599 C   0  0  0  0  0  0  0  0  0  0  0  0
  -29.1418  -23.5152   19.5544 C   0  0  0  0  0  0  0  0  0  0  0  0
  -25.7610  -35.3217   24.8602 C   0  0  0  0  0  0  0  0  0  0  0  0
  -21.1097  -16.6117   19.1962 C   0  0  0  0  0  0  0  0  0  0  0  0
  -26.5489  -34.0161   24.8971 C   0  0  0  0  0  0  0  0  0  0  0  0
  -21.4485  -15.3536   19.9991 C   0  0  0  0  0  0  0  0  0  0  0  0
  -22.2422  -17.0014   18.2479 C   0  0  0  0  0  0  0  0  0  0  0  0
  -23.9005  -15.8768   19.6813 C   0  0  0  0  0  0  0  0  0  0  0  0
  -31.5269  -23.3311   19.3538 C   0  0  0  0  0  0  0  0  0  0  0  0
  -27.2037  -33.7284   23.5406 C   0  0  1  0  0  0  0  0  0  0  0  0
  -24.8349  -31.5758   21.4941 C   0  0  1  0  0  0  0  0  0  0  0  0
  -22.8164  -15.4822   20.6975 C   0  0  2  0  0  0  0  0  0  0  0  0
  -18.2017  -27.6435   22.2301 C   0  0  0  0  0  0  0  0  0  0  0  0
  -23.3499  -30.0836   25.6085 C   0  0  0  0  0  0  0  0  0  0  0  0
  -21.3135  -28.6280   25.5572 C   0  0  0  0  0  0  0  0  0  0  0  0
  -21.1013  -31.0812   25.1577 C   0  0  0  0  0  0  0  0  0  0  0  0
  -20.1808  -28.1800   19.0252 C   0  0  0  0  0  0  0  0  0  0  0  0
  -30.1128  -21.3498   18.6739 C   0  0  0  0  0  0  0  0  0  0  0  0
  -22.1405  -29.6204   23.3750 C   0  0  1  0  0  0  0  0  0  0  0  0
  -19.2280  -28.3140   21.3302 C   0  0  2  0  0  0  0  0  0  0  0  0
  -21.9976  -29.8491   24.9062 C   0  0  0  0  0  0  0  0  0  0  0  0
  -22.7649  -13.0333   20.9832 N   0  0  0  0  0  0  0  0  0  0  0  0
  -23.1808  -14.2202   21.4569 N   0  0  0  0  0  0  0  0  0  0  0  0
  -24.0207  -30.4740   22.0112 N   0  0  0  0  0  0  0  0  0  0  0  0
  -23.5060  -17.1087   18.9802 N   0  0  0  0  0  0  0  0  0  0  0  0
  -24.4028  -15.2277   23.2182 N   0  0  0  0  0  0  0  0  0  0  0  0
  -24.6057  -10.8233   24.1958 N   0  0  0  0  0  0  0  0  0  0  0  0
  -25.3921  -18.3177   19.7173 N   0  0  0  0  0  0  0  0  0  0  0  0
  -26.2252  -33.2157   22.6057 N   0  0  0  0  0  0  0  0  0  0  0  0
  -20.8733  -29.4225   22.6795 N   0  0  0  0  0  0  0  0  0  0  0  0
  -30.2758  -22.5157   19.5911 N   0  3  2  0  0  0  0  0  0  0  0  0
  -19.2326  -27.6101   20.0167 N   0  3  0  0  0  0  0  0  0  0  0  0
  -25.2317  -12.9161   24.8934 O   0  0  0  0  0  0  0  0  0  0  0  0
  -26.3173  -30.9744   23.2307 O   0  0  0  0  0  0  0  0  0  0  0  0
  -22.3183  -31.8960   22.7296 O   0  0  0  0  0  0  0  0  0  0  0  0
  -21.3847  -27.3353   21.8082 O   0  0  0  0  0  0  0  0  0  0  0  0
  -23.8130  -19.3076   18.3360 O   0  0  0  0  0  0  0  0  0  0  0  0
  -22.3264   -6.6859   21.2424 O   0  0  0  0  0  0  0  0  0  0  0  0
  -27.7657  -26.1125   19.7740 O   0  0  0  0  0  0  0  0  0  1  0  0
  -20.7942   -3.8139   25.6930 F   0  0  0  0  0  0  0  0  0  0  0  0
  -19.9123   -5.3401   21.3000 F   0  0  0  0  0  0  0  0  0  0  0  0
  1  2  1  0  0  0  0
  1  5  2  0  0  0  0
  2  6  2  0  0  0  0
  3 10  2  0  0  0  0
  3 18  1  0  0  0  0
  4 11  1  0  0  0  0
  4 18  2  0  0  0  0
  5 21  1  0  0  0  0
  6 23  1  0  0  0  0
  7 12  2  0  0  0  0
  7 22  1  0  0  0  0
  8  9  2  0  0  0  0
  8 25  1  0  0  0  0
  9 26  1  0  0  0  0
 10 27  1  0  0  0  0
 11 27  2  0  0  0  0
 12 28  1  0  0  0  0
 13 14  2  0  0  0  0
 13 29  1  0  0  0  0
 14 30  1  0  0  0  0
 15 19  1  0  0  0  0
 15 25  2  0  0  0  0
 16 24  1  0  0  0  0
 16 28  2  0  0  0  0
 17 30  2  0  0  0  0
 17 31  1  0  0  0  0
 18 32  1  0  0  0  0
 19 26  2  0  0  0  0
 19 36  1  0  0  0  0
 20 32  1  0  0  0  0
 20 33  2  0  0  0  0
 20 38  1  0  0  0  0
 21 23  2  0  0  0  0
 21 43  1  0  0  0  0
 22 24  2  0  0  0  0
 22 44  1  0  0  0  0
 23 55  1  0  0  0  0
 24 45  1  0  0  0  0
 25 63  1  0  0  0  0
 26 73  1  0  0  0  0
 27 83  1  0  0  0  0
 28 84  1  0  0  0  0
 29 31  2  0  0  0  0
 29 83  1  0  0  0  0
 30 85  1  0  0  0  0
 31 86  1  0  0  0  0
 32 67  2  0  0  0  0
 33 68  1  0  0  0  0
 33 71  1  0  0  0  0
 34 37  2  0  0  0  0
 34 46  1  0  0  0  0
 34 47  1  0  0  0  0
 35 36  2  0  0  0  0
 37 84  1  0  0  0  0
 38 72  1  0  0  0  0
 38 78  2  0  0  0  0
 39 56  1  0  0  0  0
 39 74  1  0  0  0  0
 39 79  2  0  0  0  0
 40 64  1  0  0  0  0
 40 69  1  0  0  0  0
 40 80  2  0  0  0  0
 41 65  1  0  0  0  0
 41 75  1  0  0  0  0
 41 81  2  0  0  0  0
 42 70  1  0  0  0  0
 42 73  1  0  0  0  0
 42 82  2  0  0  0  0
 43 48  1  0  0  0  0
 44 56  1  0  0  0  0
 45 69  1  0  0  0  0
 46 54  1  0  0  0  0
 47 76  1  0  0  0  0
 48 50  1  0  0  0  0
 49 51  1  0  0  0  0
 49 52  1  0  0  0  0
 50 55  1  0  0  0  0
 51 57  1  0  0  0  0
 52 70  1  0  0  0  0
 53 57  1  0  0  0  0
 53 70  1  0  0  0  0
 54 76  1  0  0  0  0
 55 74  1  0  0  0  0
 56 69  1  0  0  0  0
 57 68  1  0  0  0  0
 58 65  1  0  0  0  0
 59 66  1  0  0  0  0
 60 66  1  0  0  0  0
 61 66  1  0  0  0  0
 62 77  1  0  0  0  0
 63 76  1  0  0  0  0
 64 66  1  0  0  0  0
 64 75  1  0  0  0  0
 65 77  1  0  0  0  0
 67 68  1  0  0  0  0
M  CHG  2  76   1  77   1
M  ISO  4  37 101  42 100  73 100  84 101
M  END
> <Batch ID>
0102

> <Smiles>
C=Cc1cc(CN2CCC(=[101CH:1][101O:1]c3ccc4c(c3)CN(C(=O)C(NC(=O)C(C)NC)C(C)(C)C)C(C(=O)NC3CCCc5ccccc53)C4)C2)ccc1[100NH:0][100C:0](=O)N1CCCC(n2nc(-c3ccc(Oc4ccc(F)cc4F)cc3)c(C(N)=O)c2N)C1

> <Shape>
0.289

> <Color>
0.095

> <Negative vol penalty>
0.000

$$$$

  -OEChem-04052301023D

 81 89  0     1  0  0  0  0  0999 V2000
  -23.5790  -17.3093   23.3537 C   0  0  0  0  0  0  0  0  0  0  0  0
  -23.9350  -18.4253   23.6177 C   0  0  0  0  0  0  0  0  0  1  0  0
  -22.9501  -29.1207   24.3523 C   0  0  0  0  0  0  0  0  0  0  0  0
  -23.0595  -27.7539   24.5877 C   0  0  0  0  0  0  0  0  0  0  0  0
  -21.7934  -15.7277   22.8691 C   0  0  0  0  0  0  0  0  0  0  0  0
  -29.8457  -23.8575   19.4804 C   0  0  0  0  0  0  0  0  0  0  0  0
  -28.3693  -23.8496   21.3928 C   0  0  0  0  0  0  0  0  0  0  0  0
  -21.9125  -29.6096   23.5597 C   0  0  0  0  0  0  0  0  0  0  0  0
  -22.1305  -26.8753   24.0314 C   0  0  0  0  0  0  0  0  0  0  0  0
  -24.3063  -22.7805   21.9959 C   0  0  0  0  0  0  0  0  0  0  0  0
  -21.3556  -14.4397   22.5610 C   0  0  0  0  0  0  0  0  0  0  0  0
  -29.6059  -25.2198   19.3009 C   0  0  0  0  0  0  0  0  0  0  0  0
  -28.1296  -25.2119   21.2134 C   0  0  0  0  0  0  0  0  0  0  0  0
  -24.7198  -21.7775   22.8716 C   0  0  0  0  0  0  0  0  0  0  0  0
  -26.2426  -27.1654   19.1999 C   0  0  0  0  0  0  0  0  0  0  0  0
  -24.9224  -27.6077   19.2844 C   0  0  0  0  0  0  0  0  0  0  0  0
  -22.7274  -20.5175   22.3598 C   0  0  0  0  0  0  0  0  0  0  0  0
  -23.6405  -13.6552   22.5939 C   0  0  0  0  0  0  0  0  0  0  0  0
  -25.5241  -29.0514   21.1259 C   0  0  0  0  0  0  0  0  0  0  0  0
  -23.1548  -15.9795   23.0395 C   0  0  0  0  0  0  0  0  0  0  0  0
  -29.2273  -23.1723   20.5263 C   0  0  0  0  0  0  0  0  0  0  0  0
  -30.4871  -21.1751   21.4916 C   0  0  0  0  0  0  0  0  0  0  0  0
  -20.9760  -28.7356   22.9855 C   0  0  0  0  0  0  0  0  0  0  0  0
  -23.0929  -22.6643   21.3027 C   0  0  0  0  0  0  0  0  0  0  0  0
  -21.0786  -27.3531   23.2314 C   0  0  0  0  0  0  0  0  0  0  0  0
  -22.3020  -21.5193   21.4739 C   0  0  0  0  0  0  0  0  0  0  0  0
  -24.0783  -14.9433   22.9020 C   0  0  0  0  0  0  0  0  0  0  0  0
  -22.2792  -13.4035   22.4234 C   0  0  0  0  0  0  0  0  0  0  0  0
  -28.7479  -25.8970   20.1674 C   0  0  0  0  0  0  0  0  0  0  0  0
  -23.9289  -20.6471   23.0558 C   0  0  0  0  0  0  0  0  0  0  0  0
  -27.2035  -27.6660   20.0784 C   0  0  0  0  0  0  0  0  0  0  0  0
  -24.5632  -28.5507   20.2473 C   0  0  0  0  0  0  0  0  0  0  0  0
  -26.8442  -28.6090   21.0413 C   0  0  0  0  0  0  0  0  0  0  0  0
  -29.4742  -21.7650   20.7119 C   0  0  0  0  0  0  0  0  0  0  0  0
  -30.2950  -19.8237   21.3387 C   0  0  0  0  0  0  0  0  0  0  0  0
  -31.5101  -21.7934   22.2833 C   0  0  0  0  0  0  0  0  0  0  0  0
  -20.3863  -24.3293   21.2239 C   0  0  0  0  0  0  0  0  0  0  0  0
  -19.6478  -22.2739   18.8255 C   0  0  0  0  0  0  0  0  0  0  0  0
  -20.1534  -19.2362   17.3546 C   0  0  0  0  0  0  0  0  0  0  0  0
  -26.0287  -15.9521   20.7689 C   0  0  0  0  0  0  0  0  0  0  0  0
  -19.8441  -29.3152   22.1746 C   0  0  0  0  0  0  0  0  0  0  0  0
  -22.6740  -23.7427   20.3414 C   0  0  0  0  0  0  0  0  0  0  0  0
  -21.0005  -21.3371   20.7380 C   0  0  0  0  0  0  0  0  0  0  0  0
  -19.1196  -28.2826   21.3149 C   0  0  0  0  0  0  0  0  0  0  0  0
  -28.0104  -16.9852   17.9972 C   0  0  0  0  0  0  0  0  0  0  0  0
  -18.8144  -27.0295   22.1294 C   0  0  0  0  0  0  0  0  0  0  0  0
  -28.6840  -18.2683   18.4871 C   0  0  0  0  0  0  0  0  0  0  0  0
  -26.5854  -16.8567   18.5310 C   0  0  0  0  0  0  0  0  0  0  0  0
  -27.1340  -18.2532   20.4861 C   0  0  0  0  0  0  0  0  0  0  0  0
  -20.1049  -26.3659   22.6252 C   0  0  1  0  0  0  0  0  0  0  0  0
  -21.1714  -23.7572   20.0776 C   0  0  1  0  0  0  0  0  0  0  0  0
  -28.5924  -18.3998   20.0193 C   0  0  2  0  0  0  0  0  0  0  0  0
  -19.3772  -17.8262   15.4293 C   0  0  0  0  0  0  0  0  0  0  0  0
  -17.0739  -21.6349   20.3343 C   0  0  0  0  0  0  0  0  0  0  0  0
  -16.8241  -19.5952   18.9040 C   0  0  0  0  0  0  0  0  0  0  0  0
  -16.8033  -21.8599   17.8583 C   0  0  0  0  0  0  0  0  0  0  0  0
  -22.8632  -19.1601   16.1672 C   0  0  0  0  0  0  0  0  0  0  0  0
  -25.5450  -15.1763   23.0761 C   0  0  0  0  0  0  0  0  0  0  0  0
  -18.9785  -20.9232   18.7431 C   0  0  1  0  0  0  0  0  0  0  0  0
  -20.3989  -18.8457   15.9083 C   0  0  2  0  0  0  0  0  0  0  0  0
  -17.4435  -21.0073   18.9754 C   0  0  0  0  0  0  0  0  0  0  0  0
  -28.6964  -20.8623   20.1083 N   0  0  0  0  0  0  0  0  0  0  0  0
  -29.2207  -19.6914   20.5088 N   0  0  0  0  0  0  0  0  0  0  0  0
  -20.6310  -22.4221   19.8140 N   0  0  0  0  0  0  0  0  0  0  0  0
  -26.5683  -16.9889   19.9898 N   0  0  0  0  0  0  0  0  0  0  0  0
  -21.8357  -12.1012   22.1121 N   0  0  0  0  0  0  0  0  0  0  0  0
  -30.9418  -18.7476   21.8345 N   0  0  0  0  0  0  0  0  0  0  0  0
  -31.5643  -23.1931   22.3300 N   0  0  0  0  0  0  0  0  0  0  0  0
  -20.7358  -25.6247   21.5542 N   0  0  0  0  0  0  0  0  0  0  0  0
  -19.3575  -20.3579   17.4527 N   0  0  0  0  0  0  0  0  0  0  0  0
  -26.0573  -16.1551   22.1432 N   0  0  0  0  0  0  0  0  0  0  0  0
  -21.7589  -18.2561   15.7547 N   0  3  0  0  0  0  0  0  0  0  0  0
  -32.3613  -21.1246   22.9170 O   0  0  0  0  0  0  0  0  0  0  0  0
  -19.5261  -23.6464   21.7674 O   0  0  0  0  0  0  0  0  0  0  0  0
  -19.3157  -23.1625   18.0370 O   0  0  0  0  0  0  0  0  0  0  0  0
  -20.6179  -18.6068   18.3025 O   0  0  0  0  0  0  0  0  0  0  0  0
  -25.5614  -14.9196   20.2765 O   0  0  0  0  0  0  0  0  0  0  0  0
  -24.3299  -19.6670   23.9104 O   0  0  0  0  0  0  0  0  0  1  0  0
  -28.5139  -27.2264   19.9927 O   0  0  0  0  0  0  0  0  0  0  0  0
  -23.2957  -28.9765   20.3274 F   0  0  0  0  0  0  0  0  0  0  0  0
  -27.7632  -29.0944   21.8873 F   0  0  0  0  0  0  0  0  0  0  0  0
  1  2  3  0  0  0  0
  1 20  1  0  0  0  0
  2 78  1  0  0  0  0
  3  4  1  0  0  0  0
  3  8  2  0  0  0  0
  4  9  2  0  0  0  0
  5 11  2  0  0  0  0
  5 20  1  0  0  0  0
  6 12  2  0  0  0  0
  6 21  1  0  0  0  0
  7 13  1  0  0  0  0
  7 21  2  0  0  0  0
  8 23  1  0  0  0  0
  9 25  1  0  0  0  0
 10 14  2  0  0  0  0
 10 24  1  0  0  0  0
 11 28  1  0  0  0  0
 12 29  1  0  0  0  0
 13 29  2  0  0  0  0
 14 30  1  0  0  0  0
 15 16  2  0  0  0  0
 15 31  1  0  0  0  0
 16 32  1  0  0  0  0
 17 26  1  0  0  0  0
 17 30  2  0  0  0  0
 18 27  1  0  0  0  0
 18 28  2  0  0  0  0
 19 32  2  0  0  0  0
 19 33  1  0  0  0  0
 20 27  2  0  0  0  0
 21 34  1  0  0  0  0
 22 34  1  0  0  0  0
 22 35  2  0  0  0  0
 22 36  1  0  0  0  0
 23 25  2  0  0  0  0
 23 41  1  0  0  0  0
 24 26  2  0  0  0  0
 24 42  1  0  0  0  0
 25 50  1  0  0  0  0
 26 43  1  0  0  0  0
 27 58  1  0  0  0  0
 28 66  1  0  0  0  0
 29 79  1  0  0  0  0
 30 78  1  0  0  0  0
 31 33  2  0  0  0  0
 31 79  1  0  0  0  0
 32 80  1  0  0  0  0
 33 81  1  0  0  0  0
 34 62  2  0  0  0  0
 35 63  1  0  0  0  0
 35 67  1  0  0  0  0
 36 68  1  0  0  0  0
 36 73  2  0  0  0  0
 37 51  1  0  0  0  0
 37 69  1  0  0  0  0
 37 74  2  0  0  0  0
 38 59  1  0  0  0  0
 38 64  1  0  0  0  0
 38 75  2  0  0  0  0
 39 60  1  0  0  0  0
 39 70  1  0  0  0  0
 39 76  2  0  0  0  0
 40 65  1  0  0  0  0
 40 71  1  0  0  0  0
 40 77  2  0  0  0  0
 41 44  1  0  0  0  0
 42 51  1  0  0  0  0
 43 64  1  0  0  0  0
 44 46  1  0  0  0  0
 45 47  1  0  0  0  0
 45 48  1  0  0  0  0
 46 50  1  0  0  0  0
 47 52  1  0  0  0  0
 48 65  1  0  0  0  0
 49 52  1  0  0  0  0
 49 65  1  0  0  0  0
 50 69  1  0  0  0  0
 51 64  1  0  0  0  0
 52 63  1  0  0  0  0
 53 60  1  0  0  0  0
 54 61  1  0  0  0  0
 55 61  1  0  0  0  0
 56 61  1  0  0  0  0
 57 72  1  0  0  0  0
 58 71  1  0  0  0  0
 59 61  1  0  0  0  0
 59 70  1  0  0  0  0
 60 72  1  0  0  0  0
 62 63  1  0  0  0  0
M  CHG  1  72   1
M  ISO  4   2 101  40 100  71 100  78 101
M  END
> <Batch ID>
0102

> <Smiles>
CNC(C)C(=O)NC(C(=O)N1Cc2cc([101O:1][101C:1]#Cc3ccc(N)cc3C[100NH:0][100C:0](=O)N3CCCC(n4nc(-c5ccc(Oc6ccc(F)cc6F)cc5)c(C(N)=O)c4N)C3)ccc2CC1C(=O)NC1CCCc2ccccc21)C(C)(C)C

> <Shape>
0.191

> <Color>
0.085

> <Negative vol penalty>
0.000

$$$$

  -OEChem-04052301023D

 86 94  0     1  0  0  0  0  0999 V2000
  -24.2490  -31.2475   18.7528 C   0  0  0  0  0  0  0  0  0  0  0  0
  -23.2113  -30.3373   18.9262 C   0  0  0  0  0  0  0  0  0  0  0  0
  -29.3937  -23.3745   20.7295 C   0  0  0  0  0  0  0  0  0  0  0  0
  -29.3980  -22.8649   18.3678 C   0  0  0  0  0  0  0  0  0  0  0  0
  -25.5457  -30.9056   19.1346 C   0  0  0  0  0  0  0  0  0  0  0  0
  -23.4698  -29.0842   19.4804 C   0  0  0  0  0  0  0  0  0  0  0  0
  -20.4433  -24.0745   23.6107 C   0  0  0  0  0  0  0  0  0  0  0  0
  -29.9522  -24.6241   20.4609 C   0  0  0  0  0  0  0  0  0  0  0  0
  -29.9564  -24.1146   18.0992 C   0  0  0  0  0  0  0  0  0  0  0  0
  -20.1651  -22.7083   23.6179 C   0  0  0  0  0  0  0  0  0  0  0  0
  -33.0038  -25.8846   19.7376 C   0  0  0  0  0  0  0  0  0  0  0  0
  -34.0626  -26.3068   20.5414 C   0  0  0  0  0  0  0  0  0  0  0  0
  -22.4304  -22.2569   24.3135 C   0  0  0  0  0  0  0  0  0  0  0  0
  -24.9287  -13.5565   19.7878 C   0  0  0  0  0  0  0  0  0  0  0  0
  -24.3516  -12.0741   21.6062 C   0  0  0  0  0  0  0  0  0  0  0  0
  -26.4076  -11.7407   20.3819 C   0  0  0  0  0  0  0  0  0  0  0  0
  -32.7717  -28.2284   21.2327 C   0  0  0  0  0  0  0  0  0  0  0  0
  -29.1167  -22.4948   19.6829 C   0  0  0  0  0  0  0  0  0  0  0  0
  -27.1718  -20.8802   20.0269 C   0  0  0  0  0  0  0  0  0  0  0  0
  -25.8185  -29.6512   19.7027 C   0  0  0  0  0  0  0  0  0  0  0  0
  -21.7223  -24.5422   23.9449 C   0  0  0  0  0  0  0  0  0  0  0  0
  -24.7715  -28.7246   19.8689 C   0  0  0  0  0  0  0  0  0  0  0  0
  -22.7215  -23.6296   24.3123 C   0  0  0  0  0  0  0  0  0  0  0  0
  -24.0510  -13.1735   20.8020 C   0  0  0  0  0  0  0  0  0  0  0  0
  -26.1070  -12.8401   19.5777 C   0  0  0  0  0  0  0  0  0  0  0  0
  -30.2335  -24.9942   19.1458 C   0  0  0  0  0  0  0  0  0  0  0  0
  -21.1595  -21.7991   23.9665 C   0  0  0  0  0  0  0  0  0  0  0  0
  -31.8289  -26.6344   19.6812 C   0  0  0  0  0  0  0  0  0  0  0  0
  -33.9466  -27.4786   21.2890 C   0  0  0  0  0  0  0  0  0  0  0  0
  -25.5299  -11.3577   21.3961 C   0  0  0  0  0  0  0  0  0  0  0  0
  -31.7128  -27.8063   20.4288 C   0  0  0  0  0  0  0  0  0  0  0  0
  -28.5403  -21.2036   19.9598 C   0  0  0  0  0  0  0  0  0  0  0  0
  -27.1501  -19.5376   20.3157 C   0  0  0  0  0  0  0  0  0  0  0  0
  -26.0231  -21.7185   19.8444 C   0  0  0  0  0  0  0  0  0  0  0  0
  -23.9877  -26.1649   22.4157 C   0  0  0  0  0  0  0  0  0  0  0  0
  -25.4242  -26.1396   25.3240 C   0  0  0  0  0  0  0  0  0  0  0  0
  -22.0034  -16.0886   21.9988 C   0  0  0  0  0  0  0  0  0  0  0  0
  -25.7672  -24.6454   28.3730 C   0  0  0  0  0  0  0  0  0  0  0  0
  -29.0349  -14.3503   19.4880 C   0  0  0  0  0  0  0  0  0  0  0  0
  -27.2442  -29.3091   20.0563 C   0  0  0  0  0  0  0  0  0  0  0  0
  -21.9988  -26.0206   23.9582 C   0  0  0  0  0  0  0  0  0  0  0  0
  -24.1052  -24.0817   24.6989 C   0  0  0  0  0  0  0  0  0  0  0  0
  -27.3693  -28.1014   20.9815 C   0  0  0  0  0  0  0  0  0  0  0  0
  -30.8671  -16.4150   21.7367 C   0  0  0  0  0  0  0  0  0  0  0  0
  -26.4865  -26.9586   20.4900 C   0  0  0  0  0  0  0  0  0  0  0  0
  -30.3168  -17.8182   21.4759 C   0  0  0  0  0  0  0  0  0  0  0  0
  -30.9486  -15.5930   20.4522 C   0  0  0  0  0  0  0  0  0  0  0  0
  -29.1396  -16.9158   19.4268 C   0  0  0  0  0  0  0  0  0  0  0  0
  -25.0078  -27.3648   20.4894 C   0  0  1  0  0  0  0  0  0  0  0  0
  -23.4812  -26.3526   23.8178 C   0  0  1  0  0  0  0  0  0  0  0  0
  -28.9863  -17.7637   20.7011 C   0  0  2  0  0  0  0  0  0  0  0  0
  -27.0452  -24.8303   30.5248 C   0  0  0  0  0  0  0  0  0  0  0  0
  -27.8901  -24.9731   23.9569 C   0  0  0  0  0  0  0  0  0  0  0  0
  -28.7409  -24.3066   26.2152 C   0  0  0  0  0  0  0  0  0  0  0  0
  -28.3801  -26.7166   25.6816 C   0  0  0  0  0  0  0  0  0  0  0  0
  -23.2910  -25.0429   29.9444 C   0  0  0  0  0  0  0  0  0  0  0  0
  -22.7825  -13.9441   21.0279 C   0  0  0  0  0  0  0  0  0  0  0  0
  -27.0456  -13.2492   18.4933 C   0  0  0  0  0  0  0  0  0  0  0  0
  -22.5307  -17.3353   22.6864 C   0  0  0  0  0  0  0  0  0  0  0  0
  -21.4216  -18.3200   23.0387 C   0  0  0  0  0  0  0  0  0  0  0  0
  -21.9743  -19.5828   23.6835 C   0  0  0  0  0  0  0  0  0  1  0  0
  -26.3791  -25.2127   26.0367 C   0  0  1  0  0  0  0  0  0  0  0  0
  -25.7772  -25.2168   29.7794 C   0  0  2  0  0  0  0  0  0  0  0  0
  -27.8221  -25.2933   25.4635 C   0  0  0  0  0  0  0  0  0  0  0  0
  -29.3306  -20.1513   20.1878 N   0  0  0  0  0  0  0  0  0  0  0  0
  -28.4559  -19.1535   20.4011 N   0  0  0  0  0  0  0  0  0  0  0  0
  -24.3281  -25.5370   24.6905 N   0  0  0  0  0  0  0  0  0  0  0  0
  -29.6542  -15.5799   19.7665 N   0  0  0  0  0  0  0  0  0  0  0  0
  -26.1415  -18.6600   20.5025 N   0  0  0  0  0  0  0  0  0  0  0  0
  -26.2249  -23.0745   19.5530 N   0  0  0  0  0  0  0  0  0  0  0  0
  -24.4710  -27.3208   21.8327 N   0  0  0  0  0  0  0  0  0  0  0  0
  -23.0266  -15.2055   21.6864 N   0  0  0  0  0  0  0  0  0  0  0  0
  -26.2807  -25.5375   27.4556 N   0  0  0  0  0  0  0  0  0  0  0  0
  -27.8074  -14.4279   18.8414 N   0  0  0  0  0  0  0  0  0  0  0  0
  -24.6062  -24.7132   30.5514 N   0  3  0  0  0  0  0  0  0  0  0  0
  -24.8522  -21.2816   19.9533 O   0  0  0  0  0  0  0  0  0  0  0  0
  -23.9447  -25.0534   21.9015 O   0  0  0  0  0  0  0  0  0  0  0  0
  -25.6389  -27.3543   25.3352 O   0  0  0  0  0  0  0  0  0  0  0  0
  -20.8136  -15.9028   21.7581 O   0  0  0  0  0  0  0  0  0  0  0  0
  -25.3494  -23.5188   28.1147 O   0  0  0  0  0  0  0  0  0  0  0  0
  -29.5360  -13.2641   19.7977 O   0  0  0  0  0  0  0  0  0  0  0  0
  -30.7782  -26.2136   18.8833 O   0  0  0  0  0  0  0  0  0  0  0  0
  -20.8909  -20.4651   23.9737 O   0  0  0  0  0  0  0  0  0  1  0  0
  -34.9629  -27.8831   22.0621 F   0  0  0  0  0  0  0  0  0  0  0  0
  -25.8179  -10.3015   22.1677 F   0  0  0  0  0  0  0  0  0  0  0  0
  -30.5861  -28.5301   20.3797 F   0  0  0  0  0  0  0  0  0  0  0  0
  1  2  1  0  0  0  0
  1  5  2  0  0  0  0
  2  6  2  0  0  0  0
  3  8  2  0  0  0  0
  3 18  1  0  0  0  0
  4  9  1  0  0  0  0
  4 18  2  0  0  0  0
  5 20  1  0  0  0  0
  6 22  1  0  0  0  0
  7 10  2  0  0  0  0
  7 21  1  0  0  0  0
  8 26  1  0  0  0  0
  9 26  2  0  0  0  0
 10 27  1  0  0  0  0
 11 12  2  0  0  0  0
 11 28  1  0  0  0  0
 12 29  1  0  0  0  0
 13 23  1  0  0  0  0
 13 27  2  0  0  0  0
 14 24  2  0  0  0  0
 14 25  1  0  0  0  0
 15 24  1  0  0  0  0
 15 30  2  0  0  0  0
 16 25  2  0  0  0  0
 16 30  1  0  0  0  0
 17 29  2  0  0  0  0
 17 31  1  0  0  0  0
 18 32  1  0  0  0  0
 19 32  1  0  0  0  0
 19 33  2  0  0  0  0
 19 34  1  0  0  0  0
 20 22  2  0  0  0  0
 20 40  1  0  0  0  0
 21 23  2  0  0  0  0
 21 41  1  0  0  0  0
 22 49  1  0  0  0  0
 23 42  1  0  0  0  0
 24 57  1  0  0  0  0
 25 58  1  0  0  0  0
 26 82  1  0  0  0  0
 27 83  1  0  0  0  0
 28 31  2  0  0  0  0
 28 82  1  0  0  0  0
 29 84  1  0  0  0  0
 30 85  1  0  0  0  0
 31 86  1  0  0  0  0
 32 65  2  0  0  0  0
 33 66  1  0  0  0  0
 33 69  1  0  0  0  0
 34 70  1  0  0  0  0
 34 76  2  0  0  0  0
 35 50  1  0  0  0  0
 35 71  1  0  0  0  0
 35 77  2  0  0  0  0
 36 62  1  0  0  0  0
 36 67  1  0  0  0  0
 36 78  2  0  0  0  0
 37 59  1  0  0  0  0
 37 72  1  0  0  0  0
 37 79  2  0  0  0  0
 38 63  1  0  0  0  0
 38 73  1  0  0  0  0
 38 80  2  0  0  0  0
 39 68  1  0  0  0  0
 39 74  1  0  0  0  0
 39 81  2  0  0  0  0
 40 43  1  0  0  0  0
 41 50  1  0  0  0  0
 42 67  1  0  0  0  0
 43 45  1  0  0  0  0
 44 46  1  0  0  0  0
 44 47  1  0  0  0  0
 45 49  1  0  0  0  0
 46 51  1  0  0  0  0
 47 68  1  0  0  0  0
 48 51  1  0  0  0  0
 48 68  1  0  0  0  0
 49 71  1  0  0  0  0
 50 67  1  0  0  0  0
 51 66  1  0  0  0  0
 52 63  1  0  0  0  0
 53 64  1  0  0  0  0
 54 64  1  0  0  0  0
 55 64  1  0  0  0  0
 56 75  1  0  0  0  0
 57 72  1  0  0  0  0
 58 74  1  0  0  0  0
 59 60  1  0  0  0  0
 60 61  1  0  0  0  0
 61 83  1  0  0  0  0
 62 64  1  0  0  0  0
 62 73  1  0  0  0  0
 63 75  1  0  0  0  0
 65 66  1  0  0  0  0
M  CHG  1  75   1
M  ISO  4  39 100  61 101  74 100  83 101
M  END
> <Batch ID>
0102

> <Smiles>
CNC(C)C(=O)NC(C(=O)N1Cc2cc([101O:1][101CH2:1]CCC(=O)NCc3cc(F)cc(C[100NH:0][100C:0](=O)N4CCCC(n5nc(-c6ccc(Oc7ccc(F)cc7F)cc6)c(C(N)=O)c5N)C4)c3)ccc2CC1C(=O)NC1CCCc2ccccc21)C(C)(C)C

> <Shape>
0.211

> <Color>
0.060

> <Negative vol penalty>
0.000

$$$$

  -OEChem-04052301023D

 89 98  0     1  0  0  0  0  0999 V2000
  -20.1505   -9.8034   19.7315 C   0  0  0  0  0  0  0  0  0  0  0  0
  -20.1715  -11.0615   20.3249 C   0  0  0  0  0  0  0  0  0  0  0  0
  -24.5895  -29.0178   19.1031 C   0  0  0  0  0  0  0  0  0  0  0  0
  -26.8740  -28.8268   19.8659 C   0  0  0  0  0  0  0  0  0  0  0  0
  -21.2704   -8.9768   19.8127 C   0  0  0  0  0  0  0  0  0  0  0  0
  -21.3121  -11.4934   21.0009 C   0  0  0  0  0  0  0  0  0  0  0  0
  -24.7501  -17.5024   19.0100 C   0  0  0  0  0  0  0  0  0  0  0  0
  -29.7745  -24.4339   17.2206 C   0  0  0  0  0  0  0  0  0  0  0  0
  -30.5929  -25.0172   16.2533 C   0  0  0  0  0  0  0  0  0  0  0  0
  -24.3207  -29.9188   20.1333 C   0  0  0  0  0  0  0  0  0  0  0  0
  -26.6052  -29.7279   20.8962 C   0  0  0  0  0  0  0  0  0  0  0  0
  -25.3411  -18.7522   18.8235 C   0  0  0  0  0  0  0  0  0  0  0  0
  -23.6752  -29.7905   23.4487 C   0  0  0  0  0  0  0  0  0  0  0  0
  -22.4957  -29.6138   24.1719 C   0  0  0  0  0  0  0  0  0  0  0  0
  -26.9697  -18.2499   20.5391 C   0  0  0  0  0  0  0  0  0  0  0  0
  -30.3551  -26.1923   18.7724 C   0  0  0  0  0  0  0  0  0  0  0  0
  -21.7568  -31.8151   23.5047 C   0  0  0  0  0  0  0  0  0  0  0  0
  -25.8661  -28.4717   18.9694 C   0  0  0  0  0  0  0  0  0  0  0  0
  -25.5230  -26.2975   17.6798 C   0  0  0  0  0  0  0  0  0  0  0  0
  -22.4287   -9.4027   20.4817 C   0  0  0  0  0  0  0  0  0  0  0  0
  -25.2767  -16.6144   19.9521 C   0  0  0  0  0  0  0  0  0  0  0  0
  -22.4481  -10.6712   21.0922 C   0  0  0  0  0  0  0  0  0  0  0  0
  -26.3895  -16.9917   20.7216 C   0  0  0  0  0  0  0  0  0  0  0  0
  -31.1735  -26.7756   17.8051 C   0  0  0  0  0  0  0  0  0  0  0  0
  -29.6556  -25.0214   18.4801 C   0  0  0  0  0  0  0  0  0  0  0  0
  -31.2924  -26.1881   16.5456 C   0  0  0  0  0  0  0  0  0  0  0  0
  -25.3286  -30.2739   21.0299 C   0  0  0  0  0  0  0  0  0  0  0  0
  -26.4480  -19.1251   19.5863 C   0  0  0  0  0  0  0  0  0  0  0  0
  -23.8956  -30.9796   22.7535 C   0  0  0  0  0  0  0  0  0  0  0  0
  -21.5365  -30.6261   24.1999 C   0  0  0  0  0  0  0  0  0  0  0  0
  -22.9363  -31.9919   22.7815 C   0  0  0  0  0  0  0  0  0  0  0  0
  -26.1442  -27.5405   17.9056 C   0  0  0  0  0  0  0  0  0  0  0  0
  -26.1380  -25.8057   16.5545 C   0  0  0  0  0  0  0  0  0  0  0  0
  -28.1942  -25.2734   20.4323 C   0  0  0  0  0  0  0  0  0  0  0  0
  -28.6488  -23.0043   19.4522 C   0  0  0  0  0  0  0  0  0  0  0  0
  -24.4829  -25.6459   18.4210 C   0  0  0  0  0  0  0  0  0  0  0  0
  -25.0536  -13.2443   21.5856 C   0  0  0  0  0  0  0  0  0  0  0  0
  -28.0331  -13.8242   21.1423 C   0  0  0  0  0  0  0  0  0  0  0  0
  -31.3938  -13.6301   20.5895 C   0  0  0  0  0  0  0  0  0  0  0  0
  -31.6458  -27.2139   14.2842 C   0  0  0  0  0  0  0  0  0  0  0  0
  -23.5978   -8.4553   20.5837 C   0  0  0  0  0  0  0  0  0  0  0  0
  -24.6349  -15.2822   20.2298 C   0  0  0  0  0  0  0  0  0  0  0  0
  -26.9008  -16.0178   21.7477 C   0  0  0  0  0  0  0  0  0  0  0  0
  -27.4447  -24.6142   21.5716 C   0  0  0  0  0  0  0  0  0  0  0  0
  -24.8999   -9.1368   20.9966 C   0  0  0  0  0  0  0  0  0  0  0  0
  -27.7418  -23.1419   21.7349 C   0  0  0  0  0  0  0  0  0  0  0  0
  -28.3693  -27.2017   12.5645 C   0  0  0  0  0  0  0  0  0  0  0  0
  -24.6621  -10.0700   22.1796 C   0  0  0  0  0  0  0  0  0  0  0  0
  -27.3772  -27.2669   13.7242 C   0  0  0  0  0  0  0  0  0  0  0  0
  -29.6941  -27.8727   12.9141 C   0  0  0  0  0  0  0  0  0  0  0  0
  -29.3316  -27.3987   15.3194 C   0  0  0  0  0  0  0  0  0  0  0  0
  -23.6755  -11.1852   21.8129 C   0  0  1  0  0  0  0  0  0  0  0  0
  -27.5725  -22.4677   20.3852 C   0  0  2  0  0  0  0  0  0  0  0  0
  -25.6536  -14.1830   20.5805 C   0  0  1  0  0  0  0  0  0  0  0  0
  -28.0032  -26.6939   15.0064 C   0  0  1  0  0  0  0  0  0  0  0  0
  -31.9096  -28.0309   18.1447 C   0  0  0  0  0  0  0  0  0  0  0  0
  -34.0977  -25.3079   15.3113 C   0  0  0  0  0  0  0  0  0  0  0  0
  -33.4768  -12.5483   21.4772 C   0  0  0  0  0  0  0  0  0  0  0  0
  -28.0578  -15.7924   23.4725 C   0  0  0  0  0  0  0  0  0  0  0  0
  -30.5061  -15.3399   23.7362 C   0  0  0  0  0  0  0  0  0  0  0  0
  -28.8581  -13.4922   24.0408 C   0  0  0  0  0  0  0  0  0  0  0  0
  -31.8889  -12.2193   18.0354 C   0  0  0  0  0  0  0  0  0  0  0  0
  -27.6507  -20.9494   20.5260 C   0  0  0  0  0  0  0  0  0  1  0  0
  -33.5802  -26.6782   15.6994 C   0  0  0  0  0  0  0  0  0  0  0  0
  -29.3134  -14.3762   21.7164 C   0  0  1  0  0  0  0  0  0  0  0  0
  -32.3304  -12.4401   20.4838 C   0  0  2  0  0  0  0  0  0  0  0  0
  -29.1734  -14.7595   23.2167 C   0  0  0  0  0  0  0  0  0  0  0  0
  -27.0821  -27.8208   16.9969 N   0  0  0  0  0  0  0  0  0  0  0  0
  -27.0548  -26.7470   16.1891 N   0  0  0  0  0  0  0  0  0  0  0  0
  -28.8030  -24.4165   19.4842 N   0  0  0  0  0  0  0  0  0  0  0  0
  -26.9085  -14.6569   21.1886 N   0  0  0  0  0  0  0  0  0  0  0  0
  -30.2482  -27.3598   14.1681 N   0  0  0  0  0  0  0  0  0  0  0  0
  -25.9787  -24.6640   15.8519 N   0  0  0  0  0  0  0  0  0  0  0  0
  -23.9632  -26.2911   19.5515 N   0  0  0  0  0  0  0  0  0  0  0  0
  -24.3351  -12.2050   21.0260 N   0  0  0  0  0  0  0  0  0  0  0  0
  -30.3443  -13.3794   21.4480 N   0  0  0  0  0  0  0  0  0  0  0  0
  -32.1321  -26.7766   15.5310 N   0  0  0  0  0  0  0  0  0  0  0  0
  -32.9045  -12.3530   19.1113 N   0  3  0  0  0  0  0  0  0  0  0  0
  -28.1571  -26.5057   20.3541 O   0  0  0  0  0  0  0  0  0  0  0  0
  -29.3161  -22.2337   18.7592 O   0  0  0  0  0  0  0  0  0  0  0  0
  -24.0393  -24.5173   18.1000 O   0  0  0  0  0  0  0  0  0  0  0  0
  -25.2301  -13.4461   22.7814 O   0  0  0  0  0  0  0  0  0  0  0  0
  -28.0262  -12.6838   20.6703 O   0  0  0  0  0  0  0  0  0  0  0  0
  -31.5770  -14.6786   19.9750 O   0  0  0  0  0  0  0  0  0  0  0  0
  -32.4133  -27.5064   13.3590 O   0  0  0  0  0  0  0  0  0  0  0  0
  -25.0667  -31.1532   22.0352 O   0  0  0  0  0  0  0  0  0  0  0  0
  -27.0229  -20.3449   19.3960 O   0  0  0  0  0  0  0  0  0  1  0  0
  -20.4032  -30.4556   24.8933 F   0  0  0  0  0  0  0  0  0  0  0  0
  -23.1418  -33.1360   22.1146 F   0  0  0  0  0  0  0  0  0  0  0  0
  1  2  1  0  0  0  0
  1  5  2  0  0  0  0
  2  6  2  0  0  0  0
  3 10  2  0  0  0  0
  3 18  1  0  0  0  0
  4 11  1  0  0  0  0
  4 18  2  0  0  0  0
  5 20  1  0  0  0  0
  6 22  1  0  0  0  0
  7 12  2  0  0  0  0
  7 21  1  0  0  0  0
  8  9  2  0  0  0  0
  8 25  1  0  0  0  0
  9 26  1  0  0  0  0
 10 27  1  0  0  0  0
 11 27  2  0  0  0  0
 12 28  1  0  0  0  0
 13 14  2  0  0  0  0
 13 29  1  0  0  0  0
 14 30  1  0  0  0  0
 15 23  1  0  0  0  0
 15 28  2  0  0  0  0
 16 24  1  0  0  0  0
 16 25  2  0  0  0  0
 17 30  2  0  0  0  0
 17 31  1  0  0  0  0
 18 32  1  0  0  0  0
 19 32  1  0  0  0  0
 19 33  2  0  0  0  0
 19 36  1  0  0  0  0
 20 22  2  0  0  0  0
 20 41  1  0  0  0  0
 21 23  2  0  0  0  0
 21 42  1  0  0  0  0
 22 52  1  0  0  0  0
 23 43  1  0  0  0  0
 24 26  2  0  0  0  0
 24 56  1  0  0  0  0
 25 70  1  0  0  0  0
 26 77  1  0  0  0  0
 27 86  1  0  0  0  0
 28 87  1  0  0  0  0
 29 31  2  0  0  0  0
 29 86  1  0  0  0  0
 30 88  1  0  0  0  0
 31 89  1  0  0  0  0
 32 68  2  0  0  0  0
 33 69  1  0  0  0  0
 33 73  1  0  0  0  0
 34 44  1  0  0  0  0
 34 70  1  0  0  0  0
 34 79  2  0  0  0  0
 35 53  1  0  0  0  0
 35 70  1  0  0  0  0
 35 80  2  0  0  0  0
 36 74  1  0  0  0  0
 36 81  2  0  0  0  0
 37 54  1  0  0  0  0
 37 75  1  0  0  0  0
 37 82  2  0  0  0  0
 38 65  1  0  0  0  0
 38 71  1  0  0  0  0
 38 83  2  0  0  0  0
 39 66  1  0  0  0  0
 39 76  1  0  0  0  0
 39 84  2  0  0  0  0
 40 72  1  0  0  0  0
 40 77  1  0  0  0  0
 40 85  2  0  0  0  0
 41 45  1  0  0  0  0
 42 54  1  0  0  0  0
 43 71  1  0  0  0  0
 44 46  1  0  0  0  0
 45 48  1  0  0  0  0
 46 53  1  0  0  0  0
 47 49  1  0  0  0  0
 47 50  1  0  0  0  0
 48 52  1  0  0  0  0
 49 55  1  0  0  0  0
 50 72  1  0  0  0  0
 51 55  1  0  0  0  0
 51 72  1  0  0  0  0
 52 75  1  0  0  0  0
 53 63  1  0  0  0  0
 54 71  1  0  0  0  0
 55 69  1  0  0  0  0
 57 64  1  0  0  0  0
 58 66  1  0  0  0  0
 59 67  1  0  0  0  0
 60 67  1  0  0  0  0
 61 67  1  0  0  0  0
 62 78  1  0  0  0  0
 63 87  1  0  0  0  0
 64 77  1  0  0  0  0
 65 67  1  0  0  0  0
 65 76  1  0  0  0  0
 66 78  1  0  0  0  0
 68 69  1  0  0  0  0
M  CHG  1  78   1
M  ISO  4  40 100  63 101  77 100  87 101
M  END
> <Batch ID>
0102

> <Smiles>
CC[100N:0](c1ccc(N2C(=O)CCC([101CH2:1][101O:1]c3ccc4c(c3)CN(C(=O)C(NC(=O)C(C)NC)C(C)(C)C)C(C(=O)NC3CCCc5ccccc53)C4)C2=O)cc1C)[100C:0](=O)N1CCCC(n2nc(-c3ccc(Oc4ccc(F)cc4F)cc3)c(C(N)=O)c2N)C1

> <Shape>
0.236

> <Color>
0.060

> <Negative vol penalty>
0.000

$$$$

  -OEChem-04052301023D

 85 94  0     1  0  0  0  0  0999 V2000
  -27.7828  -24.2058   17.1585 C   0  0  0  0  0  0  0  0  0  0  0  0
  -26.5997  -24.5028   17.8274 C   0  0  0  0  0  0  0  0  0  0  0  0
  -27.3629  -14.3338   20.6012 C   0  0  0  0  0  0  0  0  0  0  0  0
  -25.2898  -14.4591   19.3669 C   0  0  0  0  0  0  0  0  0  0  0  0
  -28.9993  -24.6713   17.6558 C   0  0  0  0  0  0  0  0  0  0  0  0
  -26.6325  -25.2647   18.9948 C   0  0  0  0  0  0  0  0  0  0  0  0
  -23.0524  -28.8453   19.0791 C   0  0  0  0  0  0  0  0  0  0  0  0
  -27.1564  -12.9702   20.8098 C   0  0  0  0  0  0  0  0  0  0  0  0
  -25.0832  -13.0954   19.5756 C   0  0  0  0  0  0  0  0  0  0  0  0
  -21.7545  -28.4408   19.3882 C   0  0  0  0  0  0  0  0  0  0  0  0
  -23.9959  -11.0940   22.0742 C   0  0  0  0  0  0  0  0  0  0  0  0
  -22.7215  -10.6841   22.4660 C   0  0  0  0  0  0  0  0  0  0  0  0
  -22.0595  -29.2135   21.6529 C   0  0  0  0  0  0  0  0  0  0  0  0
  -18.3673  -21.8314   20.8386 C   0  0  0  0  0  0  0  0  0  0  0  0
  -20.4021  -20.9399   19.8891 C   0  0  0  0  0  0  0  0  0  0  0  0
  -20.4821  -22.2066   21.9449 C   0  0  0  0  0  0  0  0  0  0  0  0
  -22.5536   -9.3122   20.4844 C   0  0  0  0  0  0  0  0  0  0  0  0
  -26.4296  -15.0783   19.8798 C   0  0  0  0  0  0  0  0  0  0  0  0
  -27.3195  -17.0896   18.5874 C   0  0  0  0  0  0  0  0  0  0  0  0
  -29.0461  -25.4474   18.8246 C   0  0  0  0  0  0  0  0  0  0  0  0
  -23.8688  -29.4280   20.0591 C   0  0  0  0  0  0  0  0  0  0  0  0
  -27.8509  -25.7400   19.5090 C   0  0  0  0  0  0  0  0  0  0  0  0
  -23.3665  -29.6269   21.3531 C   0  0  0  0  0  0  0  0  0  0  0  0
  -19.0189  -21.1120   19.8369 C   0  0  0  0  0  0  0  0  0  0  0  0
  -19.0989  -22.3787   21.8926 C   0  0  0  0  0  0  0  0  0  0  0  0
  -21.1337  -21.4872   20.9432 C   0  0  0  0  0  0  0  0  0  0  0  0
  -26.0165  -12.3510   20.2970 C   0  0  0  0  0  0  0  0  0  0  0  0
  -21.2588  -28.6222   20.6760 C   0  0  0  0  0  0  0  0  0  0  0  0
  -24.5491  -10.6131   20.8874 C   0  0  0  0  0  0  0  0  0  0  0  0
  -22.0003   -9.7932   21.6711 C   0  0  0  0  0  0  0  0  0  0  0  0
  -23.8280   -9.7221   20.0926 C   0  0  0  0  0  0  0  0  0  0  0  0
  -26.6421  -16.4870   19.6644 C   0  0  0  0  0  0  0  0  0  0  0  0
  -27.2459  -18.4365   18.8460 C   0  0  0  0  0  0  0  0  0  0  0  0
  -27.9580  -16.4859   17.4545 C   0  0  0  0  0  0  0  0  0  0  0  0
  -26.6353  -28.6581   21.4220 C   0  0  0  0  0  0  0  0  0  0  0  0
  -26.3202  -31.5758   22.8041 C   0  0  0  0  0  0  0  0  0  0  0  0
  -24.2531  -34.1029   23.7978 C   0  0  0  0  0  0  0  0  0  0  0  0
  -23.4133  -21.7897   21.9720 C   0  0  0  0  0  0  0  0  0  0  0  0
  -30.3893  -25.8884   19.3499 C   0  0  0  0  0  0  0  0  0  0  0  0
  -25.2573  -29.8833   19.7027 C   0  0  0  0  0  0  0  0  0  0  0  0
  -24.1955  -30.2661   22.4359 C   0  0  0  0  0  0  0  0  0  0  0  0
  -30.3011  -27.0051   20.3869 C   0  0  0  0  0  0  0  0  0  0  0  0
  -26.9286  -21.5403   22.4793 C   0  0  0  0  0  0  0  0  0  0  0  0
  -29.2251  -26.6896   21.4210 C   0  0  0  0  0  0  0  0  0  0  0  0
  -27.3167  -20.2743   21.7119 C   0  0  0  0  0  0  0  0  0  0  0  0
  -17.9675  -26.6323   23.6901 C   0  0  0  0  0  0  0  0  0  0  0  0
  -25.5647  -21.3995   23.1528 C   0  0  0  0  0  0  0  0  0  0  0  0
  -24.8610  -19.7178   21.4957 C   0  0  0  0  0  0  0  0  0  0  0  0
  -17.2251  -25.3102   23.5851 C   0  0  0  0  0  0  0  0  0  0  0  0
  -19.1211  -25.3818   22.0444 C   0  0  0  0  0  0  0  0  0  0  0  0
  -27.8431  -26.5845   20.7647 C   0  0  1  0  0  0  0  0  0  0  0  0
  -26.1784  -29.9962   20.9136 C   0  0  1  0  0  0  0  0  0  0  0  0
  -18.6320  -26.7914   22.3298 C   0  0  2  0  0  0  0  0  0  0  0  0
  -26.1983  -19.8354   20.7465 C   0  0  2  0  0  0  0  0  0  0  0  0
  -18.2366  -20.5270   18.7099 C   0  0  0  0  0  0  0  0  0  0  0  0
  -24.2825  -36.3409   24.9326 C   0  0  0  0  0  0  0  0  0  0  0  0
  -26.6994  -30.2004   25.5013 C   0  0  0  0  0  0  0  0  0  0  0  0
  -25.7883  -32.2575   26.5998 C   0  0  0  0  0  0  0  0  0  0  0  0
  -27.8933  -32.3855   25.2675 C   0  0  0  0  0  0  0  0  0  0  0  0
  -23.1421  -35.4568   21.4121 C   0  0  0  0  0  0  0  0  0  0  0  0
  -18.3978  -23.1523   22.9701 C   0  0  0  0  0  0  0  0  0  0  0  0
  -19.7460  -27.8162   22.3245 C   0  0  0  0  0  0  0  0  0  1  0  0
  -25.6850  -32.0956   24.0711 C   0  0  1  0  0  0  0  0  0  0  0  0
  -24.3338  -35.6061   23.6021 C   0  0  2  0  0  0  0  0  0  0  0  0
  -26.5013  -31.7209   25.3403 C   0  0  0  0  0  0  0  0  0  0  0  0
  -26.1730  -17.3780   20.5419 N   0  0  0  0  0  0  0  0  0  0  0  0
  -26.5562  -18.5542   20.0167 N   0  0  0  0  0  0  0  0  0  0  0  0
  -25.5490  -30.6887   22.0399 N   0  0  0  0  0  0  0  0  0  0  0  0
  -24.5545  -20.9856   22.1766 N   0  0  0  0  0  0  0  0  0  0  0  0
  -27.7047  -19.5199   18.1840 N   0  0  0  0  0  0  0  0  0  0  0  0
  -27.9405  -15.0888   17.3436 N   0  0  0  0  0  0  0  0  0  0  0  0
  -22.5389  -21.3123   20.9963 N   0  0  0  0  0  0  0  0  0  0  0  0
  -27.3147  -27.9025   20.4855 N   0  0  0  0  0  0  0  0  0  0  0  0
  -25.5049  -33.5305   23.8785 N   0  0  0  0  0  0  0  0  0  0  0  0
  -17.9777  -24.5182   22.5316 N   0  3  1  0  0  0  0  0  0  0  0  0
  -23.2000  -36.0804   22.7593 N   0  3  0  0  0  0  0  0  0  0  0  0
  -28.5414  -17.1642   16.5753 O   0  0  0  0  0  0  0  0  0  0  0  0
  -26.3909  -28.3357   22.5787 O   0  0  0  0  0  0  0  0  0  0  0  0
  -27.4560  -31.9488   22.5000 O   0  0  0  0  0  0  0  0  0  0  0  0
  -23.1863  -33.4976   23.8753 O   0  0  0  0  0  0  0  0  0  0  0  0
  -23.2390  -22.8398   22.5958 O   0  0  0  0  0  0  0  0  0  0  0  0
  -25.8147  -11.0204   20.5002 O   0  0  0  0  0  0  0  0  0  0  0  0
  -19.9926  -28.2277   20.9805 O   0  0  0  0  0  0  0  0  0  1  0  0
  -20.7772   -9.3984   22.0482 F   0  0  0  0  0  0  0  0  0  0  0  0
  -24.3547   -9.2558   18.9520 F   0  0  0  0  0  0  0  0  0  0  0  0
  1  2  1  0  0  0  0
  1  5  2  0  0  0  0
  2  6  2  0  0  0  0
  3  8  2  0  0  0  0
  3 18  1  0  0  0  0
  4  9  1  0  0  0  0
  4 18  2  0  0  0  0
  5 20  1  0  0  0  0
  6 22  1  0  0  0  0
  7 10  2  0  0  0  0
  7 21  1  0  0  0  0
  8 27  1  0  0  0  0
  9 27  2  0  0  0  0
 10 28  1  0  0  0  0
 11 12  2  0  0  0  0
 11 29  1  0  0  0  0
 12 30  1  0  0  0  0
 13 23  1  0  0  0  0
 13 28  2  0  0  0  0
 14 24  2  0  0  0  0
 14 25  1  0  0  0  0
 15 24  1  0  0  0  0
 15 26  2  0  0  0  0
 16 25  2  0  0  0  0
 16 26  1  0  0  0  0
 17 30  2  0  0  0  0
 17 31  1  0  0  0  0
 18 32  1  0  0  0  0
 19 32  1  0  0  0  0
 19 33  2  0  0  0  0
 19 34  1  0  0  0  0
 20 22  2  0  0  0  0
 20 39  1  0  0  0  0
 21 23  2  0  0  0  0
 21 40  1  0  0  0  0
 22 51  1  0  0  0  0
 23 41  1  0  0  0  0
 24 55  1  0  0  0  0
 25 61  1  0  0  0  0
 26 72  1  0  0  0  0
 27 82  1  0  0  0  0
 28 83  1  0  0  0  0
 29 31  2  0  0  0  0
 29 82  1  0  0  0  0
 30 84  1  0  0  0  0
 31 85  1  0  0  0  0
 32 66  2  0  0  0  0
 33 67  1  0  0  0  0
 33 70  1  0  0  0  0
 34 71  1  0  0  0  0
 34 77  2  0  0  0  0
 35 52  1  0  0  0  0
 35 73  1  0  0  0  0
 35 78  2  0  0  0  0
 36 63  1  0  0  0  0
 36 68  1  0  0  0  0
 36 79  2  0  0  0  0
 37 64  1  0  0  0  0
 37 74  1  0  0  0  0
 37 80  2  0  0  0  0
 38 69  1  0  0  0  0
 38 72  1  0  0  0  0
 38 81  2  0  0  0  0
 39 42  1  0  0  0  0
 40 52  1  0  0  0  0
 41 68  1  0  0  0  0
 42 44  1  0  0  0  0
 43 45  1  0  0  0  0
 43 47  1  0  0  0  0
 44 51  1  0  0  0  0
 45 54  1  0  0  0  0
 46 49  1  0  0  0  0
 46 53  1  0  0  0  0
 47 69  1  0  0  0  0
 48 54  1  0  0  0  0
 48 69  1  0  0  0  0
 49 75  1  0  0  0  0
 50 53  1  0  0  0  0
 50 75  1  0  0  0  0
 51 73  1  0  0  0  0
 52 68  1  0  0  0  0
 53 62  1  0  0  0  0
 54 67  1  0  0  0  0
 56 64  1  0  0  0  0
 57 65  1  0  0  0  0
 58 65  1  0  0  0  0
 59 65  1  0  0  0  0
 60 76  1  0  0  0  0
 61 75  1  0  0  0  0
 62 83  1  0  0  0  0
 63 65  1  0  0  0  0
 63 74  1  0  0  0  0
 64 76  1  0  0  0  0
 66 67  1  0  0  0  0
M  CHG  2  75   1  76   1
M  ISO  4  38 100  62 101  72 100  83 101
M  END
> <Batch ID>
0102

> <Smiles>
CNC(C)C(=O)NC(C(=O)N1Cc2cc([101O:1][101CH2:1]C3CCN(Cc4cc(C)cc([100NH:0][100C:0](=O)N5CCCC(n6nc(-c7ccc(Oc8ccc(F)cc8F)cc7)c(C(N)=O)c6N)C5)c4)C3)ccc2CC1C(=O)NC1CCCc2ccccc21)C(C)(C)C

> <Shape>
0.285

> <Color>
0.073

> <Negative vol penalty>
0.000

$$$$

  -OEChem-04052301023D

 85 93  0     1  0  0  0  0  0999 V2000
  -15.4506  -26.4222   23.6221 C   0  0  0  0  0  0  0  0  0  0  0  0
  -16.4243  -25.6507   22.9959 C   0  0  0  0  0  0  0  0  0  0  0  0
  -25.1583  -11.6131   21.1702 C   0  0  0  0  0  0  0  0  0  0  0  0
  -30.3601  -20.8287   19.7279 C   0  0  0  0  0  0  0  0  0  0  0  0
  -28.2173  -20.3840   18.7042 C   0  0  0  0  0  0  0  0  0  0  0  0
  -15.7085  -27.7591   23.9221 C   0  0  0  0  0  0  0  0  0  0  0  0
  -17.6561  -26.2162   22.6683 C   0  0  0  0  0  0  0  0  0  0  0  0
  -21.5532  -23.2150   23.8727 C   0  0  0  0  0  0  0  0  0  0  0  0
  -26.1594  -11.6399   20.1993 C   0  0  0  0  0  0  0  0  0  0  0  0
  -24.5251  -12.7959   21.5520 C   0  0  0  0  0  0  0  0  0  0  0  0
  -30.5388  -21.9211   18.8793 C   0  0  0  0  0  0  0  0  0  0  0  0
  -28.3960  -21.4765   17.8556 C   0  0  0  0  0  0  0  0  0  0  0  0
  -21.8235  -22.1481   23.0169 C   0  0  0  0  0  0  0  0  0  0  0  0
  -31.3975  -25.0433   17.2272 C   0  0  0  0  0  0  0  0  0  0  0  0
  -31.8689  -26.2301   17.7883 C   0  0  0  0  0  0  0  0  0  0  0  0
  -23.5994  -23.4234   21.9977 C   0  0  0  0  0  0  0  0  0  0  0  0
  -25.8942  -14.0323   19.9919 C   0  0  0  0  0  0  0  0  0  0  0  0
  -29.9397  -26.3099   19.2405 C   0  0  0  0  0  0  0  0  0  0  0  0
  -29.1994  -20.0600   19.6404 C   0  0  0  0  0  0  0  0  0  0  0  0
  -28.4074  -18.9311   21.7865 C   0  0  0  0  0  0  0  0  0  0  0  0
  -16.9476  -28.3386   23.6067 C   0  0  0  0  0  0  0  0  0  0  0  0
  -22.2981  -24.4002   23.7900 C   0  0  0  0  0  0  0  0  0  0  0  0
  -17.9303  -27.5625   22.9631 C   0  0  0  0  0  0  0  0  0  0  0  0
  -23.3383  -24.5029   22.8553 C   0  0  0  0  0  0  0  0  0  0  0  0
  -26.5274  -12.8495   19.6102 C   0  0  0  0  0  0  0  0  0  0  0  0
  -24.8931  -14.0055   20.9628 C   0  0  0  0  0  0  0  0  0  0  0  0
  -29.5568  -22.2450   17.9432 C   0  0  0  0  0  0  0  0  0  0  0  0
  -22.8448  -22.2532   22.0772 C   0  0  0  0  0  0  0  0  0  0  0  0
  -30.1971  -24.4898   17.6726 C   0  0  0  0  0  0  0  0  0  0  0  0
  -31.1401  -26.8634   18.7950 C   0  0  0  0  0  0  0  0  0  0  0  0
  -29.4682  -25.1231   18.6793 C   0  0  0  0  0  0  0  0  0  0  0  0
  -29.0144  -18.9311   20.5163 C   0  0  0  0  0  0  0  0  0  0  0  0
  -28.4795  -17.6238   22.2015 C   0  0  0  0  0  0  0  0  0  0  0  0
  -27.8299  -20.0158   22.5251 C   0  0  0  0  0  0  0  0  0  0  0  0
  -21.6192  -27.4349   23.1319 C   0  0  0  0  0  0  0  0  0  0  0  0
  -28.9269  -12.4648   19.1525 C   0  0  0  0  0  0  0  0  0  0  0  0
  -24.7270  -27.8982   23.9377 C   0  0  0  0  0  0  0  0  0  0  0  0
  -24.4897  -16.4897   20.8698 C   0  0  0  0  0  0  0  0  0  0  0  0
  -27.8627  -26.5901   24.2593 C   0  0  0  0  0  0  0  0  0  0  0  0
  -17.1629  -29.8006   23.9080 C   0  0  0  0  0  0  0  0  0  0  0  0
  -22.0117  -25.5320   24.7383 C   0  0  0  0  0  0  0  0  0  0  0  0
  -24.1806  -25.7461   22.7397 C   0  0  0  0  0  0  0  0  0  0  0  0
  -18.6297  -30.2216   23.8658 C   0  0  0  0  0  0  0  0  0  0  0  0
  -31.1201  -13.6729   21.7157 C   0  0  0  0  0  0  0  0  0  0  0  0
  -19.3088  -29.6664   22.6179 C   0  0  0  0  0  0  0  0  0  0  0  0
  -30.7937  -15.1637   21.7942 C   0  0  0  0  0  0  0  0  0  0  0  0
  -31.0143  -13.1527   20.2856 C   0  0  0  0  0  0  0  0  0  0  0  0
  -29.3643  -14.9064   19.7168 C   0  0  0  0  0  0  0  0  0  0  0  0
  -19.2878  -28.1331   22.6143 C   0  0  1  0  0  0  0  0  0  0  0  0
  -22.4958  -26.8827   24.2202 C   0  0  1  0  0  0  0  0  0  0  0  0
  -29.4294  -15.4656   21.1491 C   0  0  2  0  0  0  0  0  0  0  0  0
  -26.0853  -12.4642   16.5561 C   0  0  0  0  0  0  0  0  0  0  0  0
  -30.2043  -27.2223   24.9032 C   0  0  0  0  0  0  0  0  0  0  0  0
  -25.0841  -29.3015   21.2520 C   0  0  0  0  0  0  0  0  0  0  0  0
  -27.5600  -29.0570   21.5323 C   0  0  0  0  0  0  0  0  0  0  0  0
  -26.2485  -30.4069   23.1696 C   0  0  0  0  0  0  0  0  0  0  0  0
  -27.8933  -24.6548   26.4982 C   0  0  0  0  0  0  0  0  0  0  0  0
  -23.5754  -17.4952   21.5559 C   0  0  0  0  0  0  0  0  0  0  0  0
  -27.3153  -12.0034   17.3273 C   0  0  0  0  0  0  0  0  0  0  0  0
  -23.7977  -18.9216   21.0651 C   0  0  0  0  0  0  0  0  0  0  0  0
  -22.8409  -19.9005   21.7298 C   0  0  0  0  0  0  0  0  0  1  0  0
  -27.5977  -12.8776   18.5722 C   0  0  1  0  0  0  0  0  0  0  0  0
  -26.0384  -27.8875   23.1900 C   0  0  1  0  0  0  0  0  0  0  0  0
  -28.8747  -26.6657   25.3882 C   0  0  2  0  0  0  0  0  0  0  0  0
  -26.2158  -29.1404   22.2866 C   0  0  0  0  0  0  0  0  0  0  0  0
  -29.4409  -17.7199   20.1487 N   0  0  0  0  0  0  0  0  0  0  0  0
  -29.1014  -16.9466   21.1941 N   0  0  0  0  0  0  0  0  0  0  0  0
  -23.8576  -26.8277   23.6849 N   0  0  0  0  0  0  0  0  0  0  0  0
  -29.7125  -13.4789   19.7005 N   0  0  0  0  0  0  0  0  0  0  0  0
  -28.0710  -16.9989   23.3263 N   0  0  0  0  0  0  0  0  0  0  0  0
  -27.8394  -21.2946   21.9515 N   0  0  0  0  0  0  0  0  0  0  0  0
  -24.2500  -15.2052   21.3499 N   0  0  0  0  0  0  0  0  0  0  0  0
  -20.3010  -27.6117   23.5065 N   0  0  0  0  0  0  0  0  0  0  0  0
  -27.0812  -27.7245   24.1971 N   0  0  0  0  0  0  0  0  0  0  0  0
  -29.1134  -25.3110   25.9615 N   0  3  0  0  0  0  0  0  0  0  0  0
  -27.3353  -19.8589   23.6672 O   0  0  0  0  0  0  0  0  0  0  0  0
  -22.1034  -27.6836   22.0340 O   0  0  0  0  0  0  0  0  0  0  0  0
  -29.2542  -11.2756   19.1213 O   0  0  0  0  0  0  0  0  0  0  0  0
  -24.4860  -28.8187   24.7228 O   0  0  0  0  0  0  0  0  0  0  0  0
  -25.3059  -16.8267   20.0186 O   0  0  0  0  0  0  0  0  0  0  0  0
  -27.7766  -25.6232   23.5055 O   0  0  0  0  0  0  0  0  0  0  0  0
  -29.7308  -23.3111   17.1151 O   0  0  0  0  0  0  0  0  0  0  0  0
  -23.1102  -21.2136   21.2402 O   0  0  0  0  0  0  0  0  0  1  0  0
  -31.5937  -28.0022   19.3349 F   0  0  0  0  0  0  0  0  0  0  0  0
  -28.3149  -24.5955   19.1122 F   0  0  0  0  0  0  0  0  0  0  0  0
  1  2  1  0  0  0  0
  1  6  2  0  0  0  0
  2  7  2  0  0  0  0
  3  9  2  0  0  0  0
  3 10  1  0  0  0  0
  4 11  2  0  0  0  0
  4 19  1  0  0  0  0
  5 12  1  0  0  0  0
  5 19  2  0  0  0  0
  6 21  1  0  0  0  0
  7 23  1  0  0  0  0
  8 13  2  0  0  0  0
  8 22  1  0  0  0  0
  9 25  1  0  0  0  0
 10 26  2  0  0  0  0
 11 27  1  0  0  0  0
 12 27  2  0  0  0  0
 13 28  1  0  0  0  0
 14 15  2  0  0  0  0
 14 29  1  0  0  0  0
 15 30  1  0  0  0  0
 16 24  1  0  0  0  0
 16 28  2  0  0  0  0
 17 25  2  0  0  0  0
 17 26  1  0  0  0  0
 18 30  2  0  0  0  0
 18 31  1  0  0  0  0
 19 32  1  0  0  0  0
 20 32  1  0  0  0  0
 20 33  2  0  0  0  0
 20 34  1  0  0  0  0
 21 23  2  0  0  0  0
 21 40  1  0  0  0  0
 22 24  2  0  0  0  0
 22 41  1  0  0  0  0
 23 49  1  0  0  0  0
 24 42  1  0  0  0  0
 25 62  1  0  0  0  0
 26 72  1  0  0  0  0
 27 82  1  0  0  0  0
 28 83  1  0  0  0  0
 29 31  2  0  0  0  0
 29 82  1  0  0  0  0
 30 84  1  0  0  0  0
 31 85  1  0  0  0  0
 32 66  2  0  0  0  0
 33 67  1  0  0  0  0
 33 70  1  0  0  0  0
 34 71  1  0  0  0  0
 34 76  2  0  0  0  0
 35 50  1  0  0  0  0
 35 73  1  0  0  0  0
 35 77  2  0  0  0  0
 36 62  1  0  0  0  0
 36 69  1  0  0  0  0
 36 78  2  0  0  0  0
 37 63  1  0  0  0  0
 37 68  1  0  0  0  0
 37 79  2  0  0  0  0
 38 58  1  0  0  0  0
 38 72  1  0  0  0  0
 38 80  2  0  0  0  0
 39 64  1  0  0  0  0
 39 74  1  0  0  0  0
 39 81  2  0  0  0  0
 40 43  1  0  0  0  0
 41 50  1  0  0  0  0
 42 68  1  0  0  0  0
 43 45  1  0  0  0  0
 44 46  1  0  0  0  0
 44 47  1  0  0  0  0
 45 49  1  0  0  0  0
 46 51  1  0  0  0  0
 47 69  1  0  0  0  0
 48 51  1  0  0  0  0
 48 69  1  0  0  0  0
 49 73  1  0  0  0  0
 50 68  1  0  0  0  0
 51 67  1  0  0  0  0
 52 59  1  0  0  0  0
 53 64  1  0  0  0  0
 54 65  1  0  0  0  0
 55 65  1  0  0  0  0
 56 65  1  0  0  0  0
 57 75  1  0  0  0  0
 58 60  1  0  0  0  0
 59 62  1  0  0  0  0
 60 61  1  0  0  0  0
 61 83  1  0  0  0  0
 63 65  1  0  0  0  0
 63 74  1  0  0  0  0
 64 75  1  0  0  0  0
 66 67  1  0  0  0  0
M  CHG  1  75   1
M  ISO  4  36 100  61 101  62 100  83 101
M  END
> <Batch ID>
0102

> <Smiles>
CC[100CH:0](c1cccc(NC(=O)CC[101CH2:1][101O:1]c2ccc3c(c2)CN(C(=O)C(NC(=O)C(C)NC)C(C)(C)C)C(C(=O)NC2CCCc4ccccc42)C3)c1)[100C:0](=O)N1CCCC(n2nc(-c3ccc(Oc4ccc(F)cc4F)cc3)c(C(N)=O)c2N)C1

> <Shape>
0.270

> <Color>
0.042

> <Negative vol penalty>
0.000

$$$$

  -OEChem-04052301023D

 85 93  0     1  0  0  0  0  0999 V2000
  -19.8172  -25.5351   25.1066 C   0  0  0  0  0  0  0  0  0  0  0  0
  -21.0851  -25.7632   24.5838 C   0  0  0  0  0  0  0  0  0  0  0  0
  -23.5499   -9.9969   22.1500 C   0  0  0  0  0  0  0  0  0  0  0  0
  -23.9889   -9.2966   19.8798 C   0  0  0  0  0  0  0  0  0  0  0  0
  -18.7292  -26.2624   24.6285 C   0  0  0  0  0  0  0  0  0  0  0  0
  -21.2675  -26.7268   23.5914 C   0  0  0  0  0  0  0  0  0  0  0  0
  -25.9001  -27.7270   22.2717 C   0  0  0  0  0  0  0  0  0  0  0  0
  -22.6537   -8.9391   22.3031 C   0  0  0  0  0  0  0  0  0  0  0  0
  -23.0928   -8.2387   20.0328 C   0  0  0  0  0  0  0  0  0  0  0  0
  -26.6794  -26.8425   21.5274 C   0  0  0  0  0  0  0  0  0  0  0  0
  -20.5219   -6.2103   23.4096 C   0  0  0  0  0  0  0  0  0  0  0  0
  -20.5957   -5.4628   24.5849 C   0  0  0  0  0  0  0  0  0  0  0  0
  -24.8237  -21.9525   19.5837 C   0  0  0  0  0  0  0  0  0  0  0  0
  -26.3224  -28.1925   19.5603 C   0  0  0  0  0  0  0  0  0  0  0  0
  -23.1298  -23.7032   20.9432 C   0  0  0  0  0  0  0  0  0  0  0  0
  -22.8766   -4.8632   24.0605 C   0  0  0  0  0  0  0  0  0  0  0  0
  -24.2174  -10.1757   20.9384 C   0  0  0  0  0  0  0  0  0  0  0  0
  -24.0237  -21.4813   20.6246 C   0  0  0  0  0  0  0  0  0  0  0  0
  -26.5244  -11.2588   21.0495 C   0  0  0  0  0  0  0  0  0  0  0  0
  -18.8971  -27.2265   23.6209 C   0  0  0  0  0  0  0  0  0  0  0  0
  -25.3161  -28.8469   21.6624 C   0  0  0  0  0  0  0  0  0  0  0  0
  -20.1858  -27.4881   23.1127 C   0  0  0  0  0  0  0  0  0  0  0  0
  -25.5382  -29.0911   20.2997 C   0  0  0  0  0  0  0  0  0  0  0  0
  -23.1767  -22.3566   21.3044 C   0  0  0  0  0  0  0  0  0  0  0  0
  -22.4252   -8.0599   21.2445 C   0  0  0  0  0  0  0  0  0  0  0  0
  -26.8883  -27.0735   20.1709 C   0  0  0  0  0  0  0  0  0  0  0  0
  -21.6255   -6.2842   22.5597 C   0  0  0  0  0  0  0  0  0  0  0  0
  -24.7768  -23.2990   19.2225 C   0  0  0  0  0  0  0  0  0  0  0  0
  -23.9298  -24.1743   19.9023 C   0  0  0  0  0  0  0  0  0  0  0  0
  -21.7730   -4.7893   24.9104 C   0  0  0  0  0  0  0  0  0  0  0  0
  -22.8028   -5.6107   22.8851 C   0  0  0  0  0  0  0  0  0  0  0  0
  -25.1428  -11.2687   20.7795 C   0  0  0  0  0  0  0  0  0  0  0  0
  -26.9442  -12.5290   20.7380 C   0  0  0  0  0  0  0  0  0  0  0  0
  -24.0951  -20.0697   20.9783 C   0  0  0  0  0  0  0  0  0  0  0  0
  -23.8322  -19.0419   20.1457 C   0  0  0  0  0  0  0  0  0  0  0  0
  -27.3542  -10.1965   21.5381 C   0  0  0  0  0  0  0  0  0  0  0  0
  -23.9592  -17.6608   20.6526 C   0  0  0  0  0  0  0  0  0  0  0  0
  -22.3352  -29.8461   21.1936 C   0  0  0  0  0  0  0  0  0  0  0  0
  -23.8170  -32.4980   20.0560 C   0  0  0  0  0  0  0  0  0  0  0  0
  -26.6160  -33.8908   18.6876 C   0  0  0  0  0  0  0  0  0  0  0  0
  -17.6863  -27.9903   23.1458 C   0  0  0  0  0  0  0  0  0  0  0  0
  -24.5000  -29.8060   22.4851 C   0  0  0  0  0  0  0  0  0  0  0  0
  -24.9502  -30.2898   19.6027 C   0  0  0  0  0  0  0  0  0  0  0  0
  -17.9015  -28.6653   21.7951 C   0  0  0  0  0  0  0  0  0  0  0  0
  -25.9249  -16.2321   17.9091 C   0  0  0  0  0  0  0  0  0  0  0  0
  -19.2065  -29.4473   21.8069 C   0  0  0  0  0  0  0  0  0  0  0  0
  -26.0279  -14.7744   18.3497 C   0  0  0  0  0  0  0  0  0  0  0  0
  -24.5911  -16.8586   18.3131 C   0  0  0  0  0  0  0  0  0  0  0  0
  -24.3940  -15.2759   20.2095 C   0  0  0  0  0  0  0  0  0  0  0  0
  -20.4032  -28.5096   22.0111 C   0  0  1  0  0  0  0  0  0  0  0  0
  -23.5302  -30.6351   21.6488 C   0  0  1  0  0  0  0  0  0  0  0  0
  -25.7469  -14.6395   19.8547 C   0  0  1  0  0  0  0  0  0  0  0  0
  -22.3054  -21.8868   22.4247 C   0  0  0  0  0  0  0  0  0  0  0  0
  -27.5137  -36.0722   17.8314 C   0  0  0  0  0  0  0  0  0  0  0  0
  -22.1687  -32.1739   17.5089 C   0  0  0  0  0  0  0  0  0  0  0  0
  -23.7494  -33.7456   16.3691 C   0  0  0  0  0  0  0  0  0  0  0  0
  -22.3959  -34.5315   18.3115 C   0  0  0  0  0  0  0  0  0  0  0  0
  -28.7815  -33.9242   20.7046 C   0  0  0  0  0  0  0  0  0  0  0  0
  -22.9207  -25.8634   18.5665 C   0  0  0  0  0  0  0  0  0  0  0  0
  -27.7008  -24.6801   17.5781 C   0  0  0  0  0  0  0  0  0  0  0  0
  -27.3277  -26.0738   18.0582 C   0  0  0  0  0  0  0  0  0  1  0  0
  -26.9716  -23.5961   18.3563 C   0  0  0  0  0  0  0  0  0  0  0  0
  -24.3233  -32.9434   18.7053 C   0  0  1  0  0  0  0  0  0  0  0  0
  -27.3867  -35.1516   19.0352 C   0  0  2  0  0  0  0  0  0  0  0  0
  -23.1689  -33.3248   17.7361 C   0  0  0  0  0  0  0  0  0  0  0  0
  -24.7135  -12.4513   20.3311 N   0  0  0  0  0  0  0  0  0  0  0  0
  -25.8318  -13.1965   20.3170 N   0  0  0  0  0  0  0  0  0  0  0  0
  -24.3176  -16.6655   19.7451 N   0  0  0  0  0  0  0  0  0  0  0  0
  -24.1546  -31.1949   20.4485 N   0  0  0  0  0  0  0  0  0  0  0  0
  -28.1526  -13.1288   20.7859 N   0  0  0  0  0  0  0  0  0  0  0  0
  -26.7613   -8.9554   21.8071 N   0  0  0  0  0  0  0  0  0  0  0  0
  -21.5934  -29.3030   22.2253 N   0  0  0  0  0  0  0  0  0  0  0  0
  -25.2708  -34.0230   18.9603 N   0  0  0  0  0  0  0  0  0  0  0  0
  -28.7567  -34.8069   19.5099 N   0  3  0  0  0  0  0  0  0  0  0  0
  -28.5819  -10.3484   21.7461 O   0  0  0  0  0  0  0  0  0  0  0  0
  -23.7352  -17.4715   21.8495 O   0  0  0  0  0  0  0  0  0  0  0  0
  -22.1025  -29.7393   19.9953 O   0  0  0  0  0  0  0  0  0  0  0  0
  -23.1527  -33.2799   20.7408 O   0  0  0  0  0  0  0  0  0  0  0  0
  -27.1529  -32.8902   18.2174 O   0  0  0  0  0  0  0  0  0  0  0  0
  -21.5510   -7.0274   21.3936 O   0  0  0  0  0  0  0  0  0  0  0  0
  -23.8752  -25.4914   19.5588 O   0  0  0  0  0  0  0  0  0  0  0  0
  -27.6481  -26.2114   19.4419 O   0  0  0  0  0  0  0  0  0  1  0  0
  -25.5677  -23.7502   18.1980 O   0  0  0  0  0  0  0  0  0  0  0  0
  -21.8442   -4.0728   26.0399 F   0  0  0  0  0  0  0  0  0  0  0  0
  -23.8667   -5.6790   22.0731 F   0  0  0  0  0  0  0  0  0  0  0  0
  1  2  1  0  0  0  0
  1  5  2  0  0  0  0
  2  6  2  0  0  0  0
  3  8  2  0  0  0  0
  3 17  1  0  0  0  0
  4  9  1  0  0  0  0
  4 17  2  0  0  0  0
  5 20  1  0  0  0  0
  6 22  1  0  0  0  0
  7 10  2  0  0  0  0
  7 21  1  0  0  0  0
  8 25  1  0  0  0  0
  9 25  2  0  0  0  0
 10 26  1  0  0  0  0
 11 12  2  0  0  0  0
 11 27  1  0  0  0  0
 12 30  1  0  0  0  0
 13 18  2  0  0  0  0
 13 28  1  0  0  0  0
 14 23  1  0  0  0  0
 14 26  2  0  0  0  0
 15 24  2  0  0  0  0
 15 29  1  0  0  0  0
 16 30  2  0  0  0  0
 16 31  1  0  0  0  0
 17 32  1  0  0  0  0
 18 24  1  0  0  0  0
 18 34  1  0  0  0  0
 19 32  1  0  0  0  0
 19 33  2  0  0  0  0
 19 36  1  0  0  0  0
 20 22  2  0  0  0  0
 20 41  1  0  0  0  0
 21 23  2  0  0  0  0
 21 42  1  0  0  0  0
 22 50  1  0  0  0  0
 23 43  1  0  0  0  0
 24 53  1  0  0  0  0
 25 80  1  0  0  0  0
 26 82  1  0  0  0  0
 27 31  2  0  0  0  0
 27 80  1  0  0  0  0
 28 29  2  0  0  0  0
 28 83  1  0  0  0  0
 29 81  1  0  0  0  0
 30 84  1  0  0  0  0
 31 85  1  0  0  0  0
 32 66  2  0  0  0  0
 33 67  1  0  0  0  0
 33 70  1  0  0  0  0
 34 35  2  0  0  0  0
 35 37  1  0  0  0  0
 36 71  1  0  0  0  0
 36 75  2  0  0  0  0
 37 68  1  0  0  0  0
 37 76  2  0  0  0  0
 38 51  1  0  0  0  0
 38 72  1  0  0  0  0
 38 77  2  0  0  0  0
 39 63  1  0  0  0  0
 39 69  1  0  0  0  0
 39 78  2  0  0  0  0
 40 64  1  0  0  0  0
 40 73  1  0  0  0  0
 40 79  2  0  0  0  0
 41 44  1  0  0  0  0
 42 51  1  0  0  0  0
 43 69  1  0  0  0  0
 44 46  1  0  0  0  0
 45 47  1  0  0  0  0
 45 48  1  0  0  0  0
 46 50  1  0  0  0  0
 47 52  1  0  0  0  0
 48 68  1  0  0  0  0
 49 52  1  0  0  0  0
 49 68  1  0  0  0  0
 50 72  1  0  0  0  0
 51 69  1  0  0  0  0
 52 67  1  0  0  0  0
 54 64  1  0  0  0  0
 55 65  1  0  0  0  0
 56 65  1  0  0  0  0
 57 65  1  0  0  0  0
 58 74  1  0  0  0  0
 59 81  1  0  0  0  0
 60 61  1  0  0  0  0
 60 62  1  0  0  0  0
 61 82  1  0  0  0  0
 62 83  1  0  0  0  0
 63 65  1  0  0  0  0
 63 73  1  0  0  0  0
 64 74  1  0  0  0  0
 66 67  1  0  0  0  0
M  CHG  1  74   1
M  ISO  4  35 100  37 100  61 101  82 101
M  END
> <Batch ID>
0102

> <Smiles>
CNC(C)C(=O)NC(C(=O)N1Cc2cc([101O:1][101CH2:1]CCOc3cc(C=[100CH:0][100C:0](=O)N4CCCC(n5nc(-c6ccc(Oc7ccc(F)cc7F)cc6)c(C(N)=O)c5N)C4)c(C)cc3OC)ccc2CC1C(=O)NC1CCCc2ccccc21)C(C)(C)C

> <Shape>
0.214

> <Color>
0.143

> <Negative vol penalty>
0.000

$$$$

  -OEChem-04052301023D

 85 94  0     1  0  0  0  0  0999 V2000
  -16.6367  -30.3162   23.1380 C   0  0  0  0  0  0  0  0  0  0  0  0
  -17.6575  -30.6485   22.2531 C   0  0  0  0  0  0  0  0  0  0  0  0
  -26.8477  -12.8161   20.0542 C   0  0  0  0  0  0  0  0  0  0  0  0
  -26.8828  -13.7834   22.2678 C   0  0  0  0  0  0  0  0  0  0  0  0
  -16.9337  -29.6418   24.3215 C   0  0  0  0  0  0  0  0  0  0  0  0
  -18.9761  -30.3074   22.5518 C   0  0  0  0  0  0  0  0  0  0  0  0
  -25.0984  -28.3714   19.3759 C   0  0  0  0  0  0  0  0  0  0  0  0
  -32.2245  -23.8827   18.6767 C   0  0  0  0  0  0  0  0  0  0  0  0
  -32.3828  -22.5885   19.1721 C   0  0  0  0  0  0  0  0  0  0  0  0
  -26.3454  -11.6267   20.5819 C   0  0  0  0  0  0  0  0  0  0  0  0
  -26.3804  -12.5940   22.7955 C   0  0  0  0  0  0  0  0  0  0  0  0
  -26.4465  -28.7237   19.3306 C   0  0  0  0  0  0  0  0  0  0  0  0
  -23.3633  -10.4341   21.6393 C   0  0  0  0  0  0  0  0  0  0  0  0
  -22.3012   -9.8258   20.9705 C   0  0  0  0  0  0  0  0  0  0  0  0
  -26.8314  -27.4892   21.3670 C   0  0  0  0  0  0  0  0  0  0  0  0
  -30.1482  -24.0947   19.8937 C   0  0  0  0  0  0  0  0  0  0  0  0
  -23.6482   -7.8495   20.6289 C   0  0  0  0  0  0  0  0  0  0  0  0
  -27.1165  -13.8945   20.8971 C   0  0  0  0  0  0  0  0  0  0  0  0
  -26.8960  -16.2249   19.8832 C   0  0  0  0  0  0  0  0  0  0  0  0
  -18.2555  -29.2838   24.6304 C   0  0  0  0  0  0  0  0  0  0  0  0
  -24.6036  -27.5830   20.4248 C   0  0  0  0  0  0  0  0  0  0  0  0
  -19.2913  -29.6288   23.7413 C   0  0  0  0  0  0  0  0  0  0  0  0
  -25.4771  -27.1261   21.4220 C   0  0  0  0  0  0  0  0  0  0  0  0
  -31.1073  -24.6359   19.0375 C   0  0  0  0  0  0  0  0  0  0  0  0
  -31.4237  -22.0473   20.0282 C   0  0  0  0  0  0  0  0  0  0  0  0
  -26.1117  -11.5156   21.9525 C   0  0  0  0  0  0  0  0  0  0  0  0
  -27.3127  -28.2851   20.3278 C   0  0  0  0  0  0  0  0  0  0  0  0
  -24.5680   -9.7502   21.8029 C   0  0  0  0  0  0  0  0  0  0  0  0
  -22.4436   -8.5335   20.4653 C   0  0  0  0  0  0  0  0  0  0  0  0
  -30.3064  -22.8004   20.3890 C   0  0  0  0  0  0  0  0  0  0  0  0
  -24.7104   -8.4578   21.2977 C   0  0  0  0  0  0  0  0  0  0  0  0
  -27.6360  -15.1232   20.3527 C   0  0  0  0  0  0  0  0  0  0  0  0
  -27.8466  -17.1280   19.4744 C   0  0  0  0  0  0  0  0  0  0  0  0
  -25.4761  -16.4150   19.8222 C   0  0  0  0  0  0  0  0  0  0  0  0
  -22.4508  -28.0046   22.7251 C   0  0  0  0  0  0  0  0  0  0  0  0
  -23.0350  -24.8679   23.3102 C   0  0  0  0  0  0  0  0  0  0  0  0
  -25.1773  -22.2235   23.0566 C   0  0  0  0  0  0  0  0  0  0  0  0
  -32.6371  -19.8527   20.2685 C   0  0  0  0  0  0  0  0  0  0  0  0
  -18.5336  -28.5972   25.9441 C   0  0  0  0  0  0  0  0  0  0  0  0
  -23.1520  -27.1894   20.4448 C   0  0  0  0  0  0  0  0  0  0  0  0
  -24.9999  -26.2608   22.5586 C   0  0  0  0  0  0  0  0  0  0  0  0
  -19.9102  -27.9407   26.0089 C   0  0  0  0  0  0  0  0  0  0  0  0
  -32.8408  -16.5955   18.8449 C   0  0  0  0  0  0  0  0  0  0  0  0
  -32.6768  -28.4673   20.3441 C   0  0  0  0  0  0  0  0  0  0  0  0
  -20.9811  -28.8937   25.4877 C   0  0  0  0  0  0  0  0  0  0  0  0
  -31.4440  -16.0128   19.0716 C   0  0  0  0  0  0  0  0  0  0  0  0
  -31.4697  -29.3337   20.0441 C   0  0  0  0  0  0  0  0  0  0  0  0
  -33.2884  -17.4679   20.0164 C   0  0  0  0  0  0  0  0  0  0  0  0
  -30.9490  -17.9448   20.6237 C   0  0  0  0  0  0  0  0  0  0  0  0
  -32.0919  -27.0757   20.4895 C   0  0  0  0  0  0  0  0  0  0  0  0
  -20.7311  -29.2541   24.0183 C   0  0  1  0  0  0  0  0  0  0  0  0
  -22.6549  -26.8103   21.8364 C   0  0  1  0  0  0  0  0  0  0  0  0
  -30.4282  -17.1114   19.4414 C   0  0  2  0  0  0  0  0  0  0  0  0
  -30.6832  -28.4831   19.0578 C   0  0  2  0  0  0  0  0  0  0  0  0
  -25.3921  -19.7974   23.6610 C   0  0  0  0  0  0  0  0  0  0  0  0
  -23.5961  -25.6419   26.2078 C   0  0  0  0  0  0  0  0  0  0  0  0
  -24.7001  -23.4160   26.5155 C   0  0  0  0  0  0  0  0  0  0  0  0
  -22.2788  -23.5346   25.9273 C   0  0  0  0  0  0  0  0  0  0  0  0
  -25.4090  -21.4174   20.2184 C   0  0  0  0  0  0  0  0  0  0  0  0
  -30.9363  -26.0277   18.5040 C   0  0  0  0  0  0  0  0  0  0  0  0
  -29.2071  -28.8303   18.9975 C   0  0  0  0  0  0  0  0  0  1  0  0
  -24.0096  -24.1051   24.1748 C   0  0  1  0  0  0  0  0  0  0  0  0
  -24.9620  -20.7934   22.5953 C   0  0  2  0  0  0  0  0  0  0  0  0
  -23.6551  -24.1923   25.6861 C   0  0  0  0  0  0  0  0  0  0  0  0
  -28.9550  -15.3074   20.2518 N   0  0  0  0  0  0  0  0  0  0  0  0
  -29.0513  -16.5353   19.7142 N   0  0  0  0  0  0  0  0  0  0  0  0
  -23.5706  -25.9080   22.5374 N   0  0  0  0  0  0  0  0  0  0  0  0
  -32.2790  -18.4884   20.3067 N   0  0  0  0  0  0  0  0  0  0  0  0
  -27.7612  -18.3633   18.9367 N   0  0  0  0  0  0  0  0  0  0  0  0
  -24.6439  -15.3862   20.2841 N   0  0  0  0  0  0  0  0  0  0  0  0
  -31.5868  -20.7320   20.5295 N   0  0  0  0  0  0  0  0  0  0  0  0
  -21.1478  -28.1705   23.1542 N   0  0  0  0  0  0  0  0  0  0  0  0
  -24.0458  -22.7455   23.6470 N   0  0  0  0  0  0  0  0  0  0  0  0
  -30.8730  -27.0662   19.5822 N   0  3  1  0  0  0  0  0  0  0  0  0
  -25.7466  -20.5249   21.3570 N   0  3  0  0  0  0  0  0  0  0  0  0
  -24.9606  -17.4593   19.3562 O   0  0  0  0  0  0  0  0  0  0  0  0
  -23.4052  -28.7216   23.0023 O   0  0  0  0  0  0  0  0  0  0  0  0
  -21.8437  -24.5480   23.3149 O   0  0  0  0  0  0  0  0  0  0  0  0
  -26.2438  -22.8168   22.9115 O   0  0  0  0  0  0  0  0  0  0  0  0
  -33.7844  -20.2150   19.9956 O   0  0  0  0  0  0  0  0  0  0  0  0
  -25.6213  -10.3552   22.4678 O   0  0  0  0  0  0  0  0  0  0  0  0
  -28.6290  -28.6281   20.2863 O   0  0  0  0  0  0  0  0  0  1  0  0
  -21.4230   -7.9488   19.8244 F   0  0  0  0  0  0  0  0  0  0  0  0
  -29.3776  -22.2898   21.2100 F   0  0  0  0  0  0  0  0  0  0  0  0
  -25.8648   -7.7953   21.4528 F   0  0  0  0  0  0  0  0  0  0  0  0
  1  2  1  0  0  0  0
  1  5  2  0  0  0  0
  2  6  2  0  0  0  0
  3 10  2  0  0  0  0
  3 18  1  0  0  0  0
  4 11  1  0  0  0  0
  4 18  2  0  0  0  0
  5 20  1  0  0  0  0
  6 22  1  0  0  0  0
  7 12  2  0  0  0  0
  7 21  1  0  0  0  0
  8  9  2  0  0  0  0
  8 24  1  0  0  0  0
  9 25  1  0  0  0  0
 10 26  1  0  0  0  0
 11 26  2  0  0  0  0
 12 27  1  0  0  0  0
 13 14  2  0  0  0  0
 13 28  1  0  0  0  0
 14 29  1  0  0  0  0
 15 23  1  0  0  0  0
 15 27  2  0  0  0  0
 16 24  2  0  0  0  0
 16 30  1  0  0  0  0
 17 29  2  0  0  0  0
 17 31  1  0  0  0  0
 18 32  1  0  0  0  0
 19 32  1  0  0  0  0
 19 33  2  0  0  0  0
 19 34  1  0  0  0  0
 20 22  2  0  0  0  0
 20 39  1  0  0  0  0
 21 23  2  0  0  0  0
 21 40  1  0  0  0  0
 22 51  1  0  0  0  0
 23 41  1  0  0  0  0
 24 60  1  0  0  0  0
 25 30  2  0  0  0  0
 25 71  1  0  0  0  0
 26 81  1  0  0  0  0
 27 82  1  0  0  0  0
 28 31  2  0  0  0  0
 28 81  1  0  0  0  0
 29 83  1  0  0  0  0
 30 84  1  0  0  0  0
 31 85  1  0  0  0  0
 32 65  2  0  0  0  0
 33 66  1  0  0  0  0
 33 69  1  0  0  0  0
 34 70  1  0  0  0  0
 34 76  2  0  0  0  0
 35 52  1  0  0  0  0
 35 72  1  0  0  0  0
 35 77  2  0  0  0  0
 36 62  1  0  0  0  0
 36 67  1  0  0  0  0
 36 78  2  0  0  0  0
 37 63  1  0  0  0  0
 37 73  1  0  0  0  0
 37 79  2  0  0  0  0
 38 68  1  0  0  0  0
 38 71  1  0  0  0  0
 38 80  2  0  0  0  0
 39 42  1  0  0  0  0
 40 52  1  0  0  0  0
 41 67  1  0  0  0  0
 42 45  1  0  0  0  0
 43 46  1  0  0  0  0
 43 48  1  0  0  0  0
 44 47  1  0  0  0  0
 44 50  1  0  0  0  0
 45 51  1  0  0  0  0
 46 53  1  0  0  0  0
 47 54  1  0  0  0  0
 48 68  1  0  0  0  0
 49 53  1  0  0  0  0
 49 68  1  0  0  0  0
 50 74  1  0  0  0  0
 51 72  1  0  0  0  0
 52 67  1  0  0  0  0
 53 66  1  0  0  0  0
 54 61  1  0  0  0  0
 54 74  1  0  0  0  0
 55 63  1  0  0  0  0
 56 64  1  0  0  0  0
 57 64  1  0  0  0  0
 58 64  1  0  0  0  0
 59 75  1  0  0  0  0
 60 74  1  0  0  0  0
 61 82  1  0  0  0  0
 62 64  1  0  0  0  0
 62 73  1  0  0  0  0
 63 75  1  0  0  0  0
 65 66  1  0  0  0  0
M  CHG  2  74   1  75   1
M  ISO  4  38 100  61 101  71 100  82 101
M  END
> <Batch ID>
0102

> <Smiles>
CNC(C)C(=O)NC(C(=O)N1Cc2cc([101O:1][101CH2:1]C3CCCN3Cc3ccc([100NH:0][100C:0](=O)N4CCCC(n5nc(-c6ccc(Oc7ccc(F)cc7F)cc6)c(C(N)=O)c5N)C4)c(F)c3)ccc2CC1C(=O)NC1CCCc2ccccc21)C(C)(C)C

> <Shape>
0.219

> <Color>
0.078

> <Negative vol penalty>
0.000

$$$$

  -OEChem-04052301023D

 86 94  0     1  0  0  0  0  0999 V2000
  -29.0031  -36.2100   24.9228 C   0  0  0  0  0  0  0  0  0  0  0  0
  -29.1403  -35.6966   23.6371 C   0  0  0  0  0  0  0  0  0  0  0  0
  -24.0862   -9.9738   22.0707 C   0  0  0  0  0  0  0  0  0  0  0  0
  -24.4893  -11.3875   23.9880 C   0  0  0  0  0  0  0  0  0  0  0  0
  -28.5112  -35.4011   25.9464 C   0  0  0  0  0  0  0  0  0  0  0  0
  -28.7868  -34.3735   23.3745 C   0  0  0  0  0  0  0  0  0  0  0  0
  -26.0738  -30.2440   18.1877 C   0  0  0  0  0  0  0  0  0  0  0  0
  -23.6380   -8.9575   22.9144 C   0  0  0  0  0  0  0  0  0  0  0  0
  -24.0410  -10.3712   24.8316 C   0  0  0  0  0  0  0  0  0  0  0  0
  -26.3480  -29.0656   17.4950 C   0  0  0  0  0  0  0  0  0  0  0  0
  -20.8222   -8.2027   24.6275 C   0  0  0  0  0  0  0  0  0  0  0  0
  -19.6530   -7.5316   24.2696 C   0  0  0  0  0  0  0  0  0  0  0  0
  -25.4349  -27.7849   19.3240 C   0  0  0  0  0  0  0  0  0  0  0  0
  -28.0856  -19.7346   20.0854 C   0  0  0  0  0  0  0  0  0  0  0  0
  -30.3291  -19.4027   19.2524 C   0  0  0  0  0  0  0  0  0  0  0  0
  -20.8752   -5.4494   24.1812 C   0  0  0  0  0  0  0  0  0  0  0  0
  -24.5119  -11.1888   22.6075 C   0  0  0  0  0  0  0  0  0  0  0  0
  -24.2033  -13.2580   21.1477 C   0  0  0  0  0  0  0  0  0  0  0  0
  -28.1424  -34.0704   25.6941 C   0  0  0  0  0  0  0  0  0  0  0  0
  -25.4870  -30.2012   19.4606 C   0  0  0  0  0  0  0  0  0  0  0  0
  -28.2908  -33.5457   24.3960 C   0  0  0  0  0  0  0  0  0  0  0  0
  -25.1519  -28.9643   20.0297 C   0  0  0  0  0  0  0  0  0  0  0  0
  -28.1810  -21.0965   19.7997 C   0  0  0  0  0  0  0  0  0  0  0  0
  -29.1597  -18.8877   19.8117 C   0  0  0  0  0  0  0  0  0  0  0  0
  -30.4244  -20.7647   18.9667 C   0  0  0  0  0  0  0  0  0  0  0  0
  -23.6154   -9.1562   24.2948 C   0  0  0  0  0  0  0  0  0  0  0  0
  -26.0312  -27.8357   18.0643 C   0  0  0  0  0  0  0  0  0  0  0  0
  -22.0180   -7.4972   24.7622 C   0  0  0  0  0  0  0  0  0  0  0  0
  -29.3504  -21.6116   19.2403 C   0  0  0  0  0  0  0  0  0  0  0  0
  -19.6794   -6.1550   24.0465 C   0  0  0  0  0  0  0  0  0  0  0  0
  -22.0444   -6.1205   24.5390 C   0  0  0  0  0  0  0  0  0  0  0  0
  -24.9756  -12.2389   21.7366 C   0  0  0  0  0  0  0  0  0  0  0  0
  -25.1045  -13.9932   20.4172 C   0  0  0  0  0  0  0  0  0  0  0  0
  -22.7969  -13.5170   21.2519 C   0  0  0  0  0  0  0  0  0  0  0  0
  -26.3732  -31.1217   22.3712 C   0  0  0  0  0  0  0  0  0  0  0  0
  -23.3443  -30.2548   23.1435 C   0  0  0  0  0  0  0  0  0  0  0  0
  -20.5913  -28.3769   22.4076 C   0  0  0  0  0  0  0  0  0  0  0  0
  -30.0348  -16.5267   19.8916 C   0  0  0  0  0  0  0  0  0  0  0  0
  -27.6601  -33.2205   26.8429 C   0  0  0  0  0  0  0  0  0  0  0  0
  -25.1732  -31.4824   20.1835 C   0  0  0  0  0  0  0  0  0  0  0  0
  -24.5022  -28.8649   21.3849 C   0  0  0  0  0  0  0  0  0  0  0  0
  -26.9556  -31.9407   26.4000 C   0  0  0  0  0  0  0  0  0  0  0  0
  -29.9250  -13.0345   19.2064 C   0  0  0  0  0  0  0  0  0  0  0  0
  -27.7603  -31.2378   25.3113 C   0  0  0  0  0  0  0  0  0  0  0  0
  -28.5640  -12.6000   19.7552 C   0  0  0  0  0  0  0  0  0  0  0  0
  -30.5722  -14.1079   20.0798 C   0  0  0  0  0  0  0  0  0  0  0  0
  -28.3687  -14.8455   20.8982 C   0  0  0  0  0  0  0  0  0  0  0  0
  -27.8947  -32.1228   24.0663 C   0  0  1  0  0  0  0  0  0  0  0  0
  -25.0445  -31.3008   21.6928 C   0  0  1  0  0  0  0  0  0  0  0  0
  -27.6487  -13.8122   20.0165 C   0  0  2  0  0  0  0  0  0  0  0  0
  -26.0775  -23.7457   21.6605 C   0  0  0  0  0  0  0  0  0  0  0  0
  -18.2842  -27.8515   23.2435 C   0  0  0  0  0  0  0  0  0  0  0  0
  -24.5397  -28.4884   25.3254 C   0  0  0  0  0  0  0  0  0  0  0  0
  -22.3394  -27.3032   25.4744 C   0  0  0  0  0  0  0  0  0  0  0  0
  -22.4817  -29.7366   26.0046 C   0  0  0  0  0  0  0  0  0  0  0  0
  -19.3348  -29.4058   19.9334 C   0  0  0  0  0  0  0  0  0  0  0  0
  -27.0207  -21.9871   20.1007 C   0  0  0  0  0  0  0  0  0  0  0  0
  -27.2453  -22.8149   21.3743 C   0  0  0  0  0  0  0  0  0  0  0  0
  -28.0094  -25.2964   16.4017 C   0  0  0  0  0  0  0  0  0  0  0  0
  -28.4664  -24.7801   17.7615 C   0  0  0  0  0  0  0  0  0  0  0  0
  -27.4154  -26.6951   16.5026 C   0  0  0  0  0  0  0  0  0  1  0  0
  -29.0207  -23.3655   17.6684 C   0  0  0  0  0  0  0  0  0  0  0  0
  -22.6815  -28.9780   23.6011 C   0  0  1  0  0  0  0  0  0  0  0  0
  -19.1184  -28.7360   22.3299 C   0  0  2  0  0  0  0  0  0  0  0  0
  -23.0246  -28.6280   25.0766 C   0  0  0  0  0  0  0  0  0  0  0  0
  -26.2680  -12.3164   21.4083 N   0  0  0  0  0  0  0  0  0  0  0  0
  -26.3147  -13.3929   20.6052 N   0  0  0  0  0  0  0  0  0  0  0  0
  -24.2210  -30.1453   22.0549 N   0  0  0  0  0  0  0  0  0  0  0  0
  -29.6487  -15.2266   20.2807 N   0  0  0  0  0  0  0  0  0  0  0  0
  -31.6146  -21.2715   18.4003 N   0  0  0  0  0  0  0  0  0  0  0  0
  -24.9720  -15.0880   19.6386 N   0  0  0  0  0  0  0  0  0  0  0  0
  -22.0172  -12.6635   22.0443 N   0  0  0  0  0  0  0  0  0  0  0  0
  -29.0624  -17.5040   20.1011 N   0  0  0  0  0  0  0  0  0  0  0  0
  -26.6687  -32.1035   23.2976 N   0  0  0  0  0  0  0  0  0  0  0  0
  -21.2552  -29.1430   23.3423 N   0  0  0  0  0  0  0  0  0  0  0  0
  -18.6188  -28.5747   20.9352 N   0  3  0  0  0  0  0  0  0  0  0  0
  -22.2452  -14.4672   20.6467 O   0  0  0  0  0  0  0  0  0  0  0  0
  -27.0774  -30.1630   22.0770 O   0  0  0  0  0  0  0  0  0  0  0  0
  -23.0879  -31.3116   23.7258 O   0  0  0  0  0  0  0  0  0  0  0  0
  -21.1011  -27.5016   21.7116 O   0  0  0  0  0  0  0  0  0  0  0  0
  -31.1360  -16.7517   19.3829 O   0  0  0  0  0  0  0  0  0  0  0  0
  -23.1778   -8.1647   25.1183 O   0  0  0  0  0  0  0  0  0  0  0  0
  -26.2984  -26.6839   17.3905 O   0  0  0  0  0  0  0  0  0  1  0  0
  -29.4410  -22.9505   18.9608 O   0  0  0  0  0  0  0  0  0  0  0  0
  -18.5562   -5.5104   23.7043 F   0  0  0  0  0  0  0  0  0  0  0  0
  -23.1899   -5.4371   24.6680 F   0  0  0  0  0  0  0  0  0  0  0  0
  1  2  1  0  0  0  0
  1  5  2  0  0  0  0
  2  6  2  0  0  0  0
  3  8  2  0  0  0  0
  3 17  1  0  0  0  0
  4  9  1  0  0  0  0
  4 17  2  0  0  0  0
  5 19  1  0  0  0  0
  6 21  1  0  0  0  0
  7 10  2  0  0  0  0
  7 20  1  0  0  0  0
  8 26  1  0  0  0  0
  9 26  2  0  0  0  0
 10 27  1  0  0  0  0
 11 12  2  0  0  0  0
 11 28  1  0  0  0  0
 12 30  1  0  0  0  0
 13 22  1  0  0  0  0
 13 27  2  0  0  0  0
 14 23  1  0  0  0  0
 14 24  2  0  0  0  0
 15 24  1  0  0  0  0
 15 25  2  0  0  0  0
 16 30  2  0  0  0  0
 16 31  1  0  0  0  0
 17 32  1  0  0  0  0
 18 32  1  0  0  0  0
 18 33  2  0  0  0  0
 18 34  1  0  0  0  0
 19 21  2  0  0  0  0
 19 39  1  0  0  0  0
 20 22  2  0  0  0  0
 20 40  1  0  0  0  0
 21 48  1  0  0  0  0
 22 41  1  0  0  0  0
 23 29  2  0  0  0  0
 23 57  1  0  0  0  0
 24 73  1  0  0  0  0
 25 29  1  0  0  0  0
 25 70  1  0  0  0  0
 26 82  1  0  0  0  0
 27 83  1  0  0  0  0
 28 31  2  0  0  0  0
 28 82  1  0  0  0  0
 29 84  1  0  0  0  0
 30 85  1  0  0  0  0
 31 86  1  0  0  0  0
 32 66  2  0  0  0  0
 33 67  1  0  0  0  0
 33 71  1  0  0  0  0
 34 72  1  0  0  0  0
 34 77  2  0  0  0  0
 35 49  1  0  0  0  0
 35 74  1  0  0  0  0
 35 78  2  0  0  0  0
 36 63  1  0  0  0  0
 36 68  1  0  0  0  0
 36 79  2  0  0  0  0
 37 64  1  0  0  0  0
 37 75  1  0  0  0  0
 37 80  2  0  0  0  0
 38 69  1  0  0  0  0
 38 73  1  0  0  0  0
 38 81  2  0  0  0  0
 39 42  1  0  0  0  0
 40 49  1  0  0  0  0
 41 68  1  0  0  0  0
 42 44  1  0  0  0  0
 43 45  1  0  0  0  0
 43 46  1  0  0  0  0
 44 48  1  0  0  0  0
 45 50  1  0  0  0  0
 46 69  1  0  0  0  0
 47 50  1  0  0  0  0
 47 69  1  0  0  0  0
 48 74  1  0  0  0  0
 49 68  1  0  0  0  0
 50 67  1  0  0  0  0
 51 58  1  0  0  0  0
 52 64  1  0  0  0  0
 53 65  1  0  0  0  0
 54 65  1  0  0  0  0
 55 65  1  0  0  0  0
 56 76  1  0  0  0  0
 57 58  1  0  0  0  0
 59 60  1  0  0  0  0
 59 61  1  0  0  0  0
 60 62  1  0  0  0  0
 61 83  1  0  0  0  0
 62 84  1  0  0  0  0
 63 65  1  0  0  0  0
 63 75  1  0  0  0  0
 64 76  1  0  0  0  0
 66 67  1  0  0  0  0
M  CHG  1  76   1
M  ISO  4  38 100  61 101  73 100  83 101
M  END
> <Batch ID>
0102

> <Smiles>
CCCc1cc([100NH:0][100C:0](=O)N2CCCC(n3nc(-c4ccc(Oc5ccc(F)cc5F)cc4)c(C(N)=O)c3N)C2)cc(N)c1OCCC[101CH2:1][101O:1]c1ccc2c(c1)CN(C(=O)C(NC(=O)C(C)NC)C(C)(C)C)C(C(=O)NC1CCCc3ccccc31)C2

> <Shape>
0.328

> <Color>
0.134

> <Negative vol penalty>
0.000

$$$$

  -OEChem-04052301023D

 89 98  0     1  0  0  0  0  0999 V2000
  -30.9284  -31.1410   25.4944 C   0  0  0  0  0  0  0  0  0  0  0  0
  -30.1788  -30.1642   24.8467 C   0  0  0  0  0  0  0  0  0  0  0  0
  -24.5105   -8.9495   21.6267 C   0  0  0  0  0  0  0  0  0  0  0  0
  -22.7652  -10.0246   20.3481 C   0  0  0  0  0  0  0  0  0  0  0  0
  -30.2945  -32.2558   26.0415 C   0  0  0  0  0  0  0  0  0  0  0  0
  -28.7948  -30.3011   24.7468 C   0  0  0  0  0  0  0  0  0  0  0  0
  -27.0649  -29.2186   20.1121 C   0  0  0  0  0  0  0  0  0  0  0  0
  -26.5375  -19.4133   21.0387 C   0  0  0  0  0  0  0  0  0  0  0  0
  -26.2489  -18.5925   22.1289 C   0  0  0  0  0  0  0  0  0  0  0  0
  -23.7124   -7.8135   21.7610 C   0  0  0  0  0  0  0  0  0  0  0  0
  -21.9671   -8.8886   20.4822 C   0  0  0  0  0  0  0  0  0  0  0  0
  -26.9488  -27.8709   19.7745 C   0  0  0  0  0  0  0  0  0  0  0  0
  -21.0947   -6.8184   23.6535 C   0  0  0  0  0  0  0  0  0  0  0  0
  -21.0154   -6.2283   24.9149 C   0  0  0  0  0  0  0  0  0  0  0  0
  -24.5823  -27.9663   20.2329 C   0  0  0  0  0  0  0  0  0  0  0  0
  -25.1872  -21.1693   22.0030 C   0  0  0  0  0  0  0  0  0  0  0  0
  -21.9128   -4.1754   24.0109 C   0  0  0  0  0  0  0  0  0  0  0  0
  -24.0369  -10.0551   20.9203 C   0  0  0  0  0  0  0  0  0  0  0  0
  -26.1297  -11.3108   20.1780 C   0  0  0  0  0  0  0  0  0  0  0  0
  -28.9031  -32.4112   25.9398 C   0  0  0  0  0  0  0  0  0  0  0  0
  -25.9407  -29.9487   20.5237 C   0  0  0  0  0  0  0  0  0  0  0  0
  -28.1415  -31.4183   25.2943 C   0  0  0  0  0  0  0  0  0  0  0  0
  -24.6864  -29.3238   20.5727 C   0  0  0  0  0  0  0  0  0  0  0  0
  -26.0068  -20.7017   20.9757 C   0  0  0  0  0  0  0  0  0  0  0  0
  -25.4293  -19.0601   23.1562 C   0  0  0  0  0  0  0  0  0  0  0  0
  -22.4407   -7.7830   21.1887 C   0  0  0  0  0  0  0  0  0  0  0  0
  -25.7078  -27.2438   19.8376 C   0  0  0  0  0  0  0  0  0  0  0  0
  -21.5829   -6.0870   22.5708 C   0  0  0  0  0  0  0  0  0  0  0  0
  -24.8985  -20.3485   23.0933 C   0  0  0  0  0  0  0  0  0  0  0  0
  -21.4245   -4.9068   25.0936 C   0  0  0  0  0  0  0  0  0  0  0  0
  -21.9920   -4.7655   22.7495 C   0  0  0  0  0  0  0  0  0  0  0  0
  -24.8607  -11.2291   20.7818 C   0  0  0  0  0  0  0  0  0  0  0  0
  -26.4848  -12.6317   20.3023 C   0  0  0  0  0  0  0  0  0  0  0  0
  -26.5450  -20.9292   18.5949 C   0  0  0  0  0  0  0  0  0  0  0  0
  -26.3507  -22.9565   20.0673 C   0  0  0  0  0  0  0  0  0  0  0  0
  -26.9171  -10.2843   19.5598 C   0  0  0  0  0  0  0  0  0  0  0  0
  -25.1083  -31.4746   23.1850 C   0  0  0  0  0  0  0  0  0  0  0  0
  -22.5642  -32.3972   21.3965 C   0  0  0  0  0  0  0  0  0  0  0  0
  -20.0377  -32.7612   19.1313 C   0  0  0  0  0  0  0  0  0  0  0  0
  -25.0935  -16.7950   24.1297 C   0  0  0  0  0  0  0  0  0  0  0  0
  -28.2572  -33.6100   26.5883 C   0  0  0  0  0  0  0  0  0  0  0  0
  -26.0780  -31.4086   20.8588 C   0  0  0  0  0  0  0  0  0  0  0  0
  -23.4452  -30.0685   20.9888 C   0  0  0  0  0  0  0  0  0  0  0  0
  -27.0198  -21.8162   17.4625 C   0  0  0  0  0  0  0  0  0  0  0  0
  -26.8295  -33.8647   26.1119 C   0  0  0  0  0  0  0  0  0  0  0  0
  -27.5064  -23.1757   17.9067 C   0  0  0  0  0  0  0  0  0  0  0  0
  -24.6011  -17.0103   20.6148 C   0  0  0  0  0  0  0  0  0  0  0  0
  -26.0284  -32.5666   26.1079 C   0  0  0  0  0  0  0  0  0  0  0  0
  -24.7264  -15.5446   20.2006 C   0  0  0  0  0  0  0  0  0  0  0  0
  -23.8514  -17.1692   21.9379 C   0  0  0  0  0  0  0  0  0  0  0  0
  -24.5355  -14.8943   22.6320 C   0  0  0  0  0  0  0  0  0  0  0  0
  -26.6409  -31.5434   25.1439 C   0  0  1  0  0  0  0  0  0  0  0  0
  -26.4462  -23.7942   18.8001 C   0  0  2  0  0  0  0  0  0  0  0  0
  -24.9586  -31.9229   21.7588 C   0  0  1  0  0  0  0  0  0  0  0  0
  -25.3350  -14.7004   21.3341 C   0  0  1  0  0  0  0  0  0  0  0  0
  -17.7826  -33.8255   18.8497 C   0  0  0  0  0  0  0  0  0  0  0  0
  -21.3209  -30.2156   23.1299 C   0  0  0  0  0  0  0  0  0  0  0  0
  -19.1124  -30.7267   22.0670 C   0  0  0  0  0  0  0  0  0  0  0  0
  -20.2882  -32.4773   23.3995 C   0  0  0  0  0  0  0  0  0  0  0  0
  -25.1310  -18.7801   25.6241 C   0  0  0  0  0  0  0  0  0  0  0  0
  -20.9774  -34.4276   16.8732 C   0  0  0  0  0  0  0  0  0  0  0  0
  -23.5978  -22.1526   23.9355 C   0  0  0  0  0  0  0  0  0  0  0  0
  -26.7824  -25.2513   19.1087 C   0  0  0  0  0  0  0  0  0  1  0  0
  -21.1887  -31.8374   21.1253 C   0  0  1  0  0  0  0  0  0  0  0  0
  -19.2819  -33.9881   18.6539 C   0  0  2  0  0  0  0  0  0  0  0  0
  -20.5000  -31.3070   22.4145 C   0  0  0  0  0  0  0  0  0  0  0  0
  -24.4381  -12.4046   21.2548 N   0  0  0  0  0  0  0  0  0  0  0  0
  -25.4474  -13.2373   20.9483 N   0  0  0  0  0  0  0  0  0  0  0  0
  -26.3063  -21.5541   19.8423 N   0  0  0  0  0  0  0  0  0  0  0  0
  -23.6320  -31.4924   21.3128 N   0  0  0  0  0  0  0  0  0  0  0  0
  -24.4426  -16.3149   22.9776 N   0  0  0  0  0  0  0  0  0  0  0  0
  -27.5801  -13.3227   19.9212 N   0  0  0  0  0  0  0  0  0  0  0  0
  -26.7525  -10.0511   18.1877 N   0  0  0  0  0  0  0  0  0  0  0  0
  -26.2940  -31.8665   23.7765 N   0  0  0  0  0  0  0  0  0  0  0  0
  -20.4466  -32.8911   20.4417 N   0  0  0  0  0  0  0  0  0  0  0  0
  -25.1389  -18.1980   24.2777 N   0  0  0  0  0  0  0  0  0  0  0  0
  -19.5436  -34.2270   17.2063 N   0  3  0  0  0  0  0  0  0  0  0  0
  -26.3165  -19.7421   18.3407 O   0  0  0  0  0  0  0  0  0  0  0  0
  -26.3340  -23.4978   21.1747 O   0  0  0  0  0  0  0  0  0  0  0  0
  -27.7304   -9.5834   20.2084 O   0  0  0  0  0  0  0  0  0  0  0  0
  -24.2135  -30.8227   23.7105 O   0  0  0  0  0  0  0  0  0  0  0  0
  -22.6875  -33.5947   21.6655 O   0  0  0  0  0  0  0  0  0  0  0  0
  -20.2415  -31.7838   18.4147 O   0  0  0  0  0  0  0  0  0  0  0  0
  -25.5739  -16.0294   24.9742 O   0  0  0  0  0  0  0  0  0  0  0  0
  -21.6617   -6.6745   21.3193 O   0  0  0  0  0  0  0  0  0  0  0  0
  -24.0940  -20.8244   24.0856 O   0  0  0  0  0  0  0  0  0  0  0  0
  -25.5918  -25.9283   19.5093 O   0  0  0  0  0  0  0  0  0  1  0  0
  -21.3498   -4.3408   26.3053 F   0  0  0  0  0  0  0  0  0  0  0  0
  -22.4630   -4.0581   21.7133 F   0  0  0  0  0  0  0  0  0  0  0  0
  1  2  1  0  0  0  0
  1  5  2  0  0  0  0
  2  6  2  0  0  0  0
  3 10  2  0  0  0  0
  3 18  1  0  0  0  0
  4 11  1  0  0  0  0
  4 18  2  0  0  0  0
  5 20  1  0  0  0  0
  6 22  1  0  0  0  0
  7 12  2  0  0  0  0
  7 21  1  0  0  0  0
  8  9  2  0  0  0  0
  8 24  1  0  0  0  0
  9 25  1  0  0  0  0
 10 26  1  0  0  0  0
 11 26  2  0  0  0  0
 12 27  1  0  0  0  0
 13 14  2  0  0  0  0
 13 28  1  0  0  0  0
 14 30  1  0  0  0  0
 15 23  1  0  0  0  0
 15 27  2  0  0  0  0
 16 24  2  0  0  0  0
 16 29  1  0  0  0  0
 17 30  2  0  0  0  0
 17 31  1  0  0  0  0
 18 32  1  0  0  0  0
 19 32  1  0  0  0  0
 19 33  2  0  0  0  0
 19 36  1  0  0  0  0
 20 22  2  0  0  0  0
 20 41  1  0  0  0  0
 21 23  2  0  0  0  0
 21 42  1  0  0  0  0
 22 52  1  0  0  0  0
 23 43  1  0  0  0  0
 24 69  1  0  0  0  0
 25 29  2  0  0  0  0
 25 76  1  0  0  0  0
 26 85  1  0  0  0  0
 27 87  1  0  0  0  0
 28 31  2  0  0  0  0
 28 85  1  0  0  0  0
 29 86  1  0  0  0  0
 30 88  1  0  0  0  0
 31 89  1  0  0  0  0
 32 67  2  0  0  0  0
 33 68  1  0  0  0  0
 33 72  1  0  0  0  0
 34 44  1  0  0  0  0
 34 69  1  0  0  0  0
 34 78  2  0  0  0  0
 35 53  1  0  0  0  0
 35 69  1  0  0  0  0
 35 79  2  0  0  0  0
 36 73  1  0  0  0  0
 36 80  2  0  0  0  0
 37 54  1  0  0  0  0
 37 74  1  0  0  0  0
 37 81  2  0  0  0  0
 38 64  1  0  0  0  0
 38 70  1  0  0  0  0
 38 82  2  0  0  0  0
 39 65  1  0  0  0  0
 39 75  1  0  0  0  0
 39 83  2  0  0  0  0
 40 71  1  0  0  0  0
 40 76  1  0  0  0  0
 40 84  2  0  0  0  0
 41 45  1  0  0  0  0
 42 54  1  0  0  0  0
 43 70  1  0  0  0  0
 44 46  1  0  0  0  0
 45 48  1  0  0  0  0
 46 53  1  0  0  0  0
 47 49  1  0  0  0  0
 47 50  1  0  0  0  0
 48 52  1  0  0  0  0
 49 55  1  0  0  0  0
 50 71  1  0  0  0  0
 51 55  1  0  0  0  0
 51 71  1  0  0  0  0
 52 74  1  0  0  0  0
 53 63  1  0  0  0  0
 54 70  1  0  0  0  0
 55 68  1  0  0  0  0
 56 65  1  0  0  0  0
 57 66  1  0  0  0  0
 58 66  1  0  0  0  0
 59 66  1  0  0  0  0
 60 76  1  0  0  0  0
 61 77  1  0  0  0  0
 62 86  1  0  0  0  0
 63 87  1  0  0  0  0
 64 66  1  0  0  0  0
 64 75  1  0  0  0  0
 65 77  1  0  0  0  0
 67 68  1  0  0  0  0
M  CHG  1  77   1
M  ISO  4  40 100  63 101  76 100  87 101
M  END
> <Batch ID>
0102

> <Smiles>
CNC(C)C(=O)NC(C(=O)N1Cc2cc([101O:1][101CH2:1]C3CCC(=O)N(c4ccc([100N:0](C)[100C:0](=O)N5CCCC(n6nc(-c7ccc(Oc8ccc(F)cc8F)cc7)c(C(N)=O)c6N)C5)c(OC)c4)C3=O)ccc2CC1C(=O)NC1CCCc2ccccc21)C(C)(C)C

> <Shape>
0.257

> <Color>
0.100

> <Negative vol penalty>
0.000

$$$$

  -OEChem-04052301023D

 88 97  0     1  0  0  0  0  0999 V2000
  -21.6876  -12.6311   19.4799 C   0  0  0  0  0  0  0  0  0  0  0  0
  -21.8819  -13.8541   18.8458 C   0  0  0  0  0  0  0  0  0  0  0  0
  -23.0780  -22.9816   21.3985 C   0  0  0  0  0  0  0  0  0  0  0  0
  -21.0692  -23.3277   20.1015 C   0  0  0  0  0  0  0  0  0  0  0  0
  -22.3672  -12.3450   20.6633 C   0  0  0  0  0  0  0  0  0  0  0  0
  -22.7552  -14.7921   19.3953 C   0  0  0  0  0  0  0  0  0  0  0  0
  -27.3410  -19.9485   17.4722 C   0  0  0  0  0  0  0  0  0  0  0  0
  -27.4281  -27.0722   22.7012 C   0  0  0  0  0  0  0  0  0  0  0  0
  -27.3979  -28.7632   20.9758 C   0  0  0  0  0  0  0  0  0  0  0  0
  -26.4918  -27.8023   23.4332 C   0  0  0  0  0  0  0  0  0  0  0  0
  -26.4615  -29.4933   21.7078 C   0  0  0  0  0  0  0  0  0  0  0  0
  -22.5288  -21.8189   21.9389 C   0  0  0  0  0  0  0  0  0  0  0  0
  -20.5200  -22.1649   20.6419 C   0  0  0  0  0  0  0  0  0  0  0  0
  -27.6220  -21.2900   17.7274 C   0  0  0  0  0  0  0  0  0  0  0  0
  -20.7893  -18.8301   20.1654 C   0  0  0  0  0  0  0  0  0  0  0  0
  -20.1515  -17.9496   19.2916 C   0  0  0  0  0  0  0  0  0  0  0  0
  -28.8020  -20.6549   19.7333 C   0  0  0  0  0  0  0  0  0  0  0  0
  -18.0935  -18.2117   20.5298 C   0  0  0  0  0  0  0  0  0  0  0  0
  -22.3482  -23.7361   20.4798 C   0  0  0  0  0  0  0  0  0  0  0  0
  -23.6892  -25.0481   18.7512 C   0  0  0  0  0  0  0  0  0  0  0  0
  -23.2565  -13.2762   21.2224 C   0  0  0  0  0  0  0  0  0  0  0  0
  -27.7797  -18.9493   18.3529 C   0  0  0  0  0  0  0  0  0  0  0  0
  -23.4463  -14.5187   20.5879 C   0  0  0  0  0  0  0  0  0  0  0  0
  -28.5274  -19.3013   19.4856 C   0  0  0  0  0  0  0  0  0  0  0  0
  -27.8812  -27.5527   21.4725 C   0  0  0  0  0  0  0  0  0  0  0  0
  -26.0084  -29.0128   22.9365 C   0  0  0  0  0  0  0  0  0  0  0  0
  -21.2499  -21.4106   21.5607 C   0  0  0  0  0  0  0  0  0  0  0  0
  -28.3502  -21.6436   18.8596 C   0  0  0  0  0  0  0  0  0  0  0  0
  -20.0793  -19.4013   21.2215 C   0  0  0  0  0  0  0  0  0  0  0  0
  -18.8036  -17.6404   19.4738 C   0  0  0  0  0  0  0  0  0  0  0  0
  -18.7314  -19.0921   21.4037 C   0  0  0  0  0  0  0  0  0  0  0  0
  -22.9148  -24.9375   19.9216 C   0  0  0  0  0  0  0  0  0  0  0  0
  -23.9797  -26.3872   18.6570 C   0  0  0  0  0  0  0  0  0  0  0  0
  -29.9971  -24.7304   19.9706 C   0  0  0  0  0  0  0  0  0  0  0  0
  -31.0454  -25.4201   19.4646 C   0  0  0  0  0  0  0  0  0  0  0  0
  -28.9173  -25.3996   20.7890 C   0  0  0  0  0  0  0  0  0  0  0  0
  -24.1084  -24.0312   17.8315 C   0  0  0  0  0  0  0  0  0  0  0  0
  -26.3436  -16.7737   20.1717 C   0  0  0  0  0  0  0  0  0  0  0  0
  -29.3848  -15.7787   20.7042 C   0  0  0  0  0  0  0  0  0  0  0  0
  -32.7117  -16.5364   20.7681 C   0  0  0  0  0  0  0  0  0  0  0  0
  -24.0728  -30.5998   23.0976 C   0  0  0  0  0  0  0  0  0  0  0  0
  -23.9325  -12.9408   22.5282 C   0  0  0  0  0  0  0  0  0  0  0  0
  -27.4912  -17.5047   18.0493 C   0  0  0  0  0  0  0  0  0  0  0  0
  -29.0388  -18.2651   20.4517 C   0  0  0  0  0  0  0  0  0  0  0  0
  -31.0791  -26.9205   19.6720 C   0  0  0  0  0  0  0  0  0  0  0  0
  -25.1250  -13.8396   22.8452 C   0  0  0  0  0  0  0  0  0  0  0  0
  -22.3008  -30.7004   19.8506 C   0  0  0  0  0  0  0  0  0  0  0  0
  -24.7680  -15.3036   22.6085 C   0  0  0  0  0  0  0  0  0  0  0  0
  -22.2514  -29.2285   19.4453 C   0  0  0  0  0  0  0  0  0  0  0  0
  -29.6770  -27.5079   19.7430 C   0  0  0  0  0  0  0  0  0  0  0  0
  -22.3261  -30.8699   21.3666 C   0  0  0  0  0  0  0  0  0  0  0  0
  -23.3856  -28.6447   21.6257 C   0  0  0  0  0  0  0  0  0  0  0  0
  -24.4041  -15.5522   21.1398 C   0  0  1  0  0  0  0  0  0  0  0  0
  -27.5459  -16.6119   19.2851 C   0  0  1  0  0  0  0  0  0  0  0  0
  -23.4002  -28.4460   20.1027 C   0  0  1  0  0  0  0  0  0  0  0  0
  -26.2882  -30.9102   25.4840 C   0  0  0  0  0  0  0  0  0  0  0  0
  -34.9522  -15.5280   21.2787 C   0  0  0  0  0  0  0  0  0  0  0  0
  -28.8018  -16.0020   23.6909 C   0  0  0  0  0  0  0  0  0  0  0  0
  -31.2692  -15.9201   24.1077 C   0  0  0  0  0  0  0  0  0  0  0  0
  -30.1225  -13.9824   23.0339 C   0  0  0  0  0  0  0  0  0  0  0  0
  -33.6703  -16.9785   18.0032 C   0  0  0  0  0  0  0  0  0  0  0  0
  -29.8327  -23.2382   19.8163 C   0  0  0  0  0  0  0  0  0  1  0  0
  -25.2345  -29.8778   25.1373 C   0  0  0  0  0  0  0  0  0  0  0  0
  -30.4575  -16.1119   21.7128 C   0  0  1  0  0  0  0  0  0  0  0  0
  -33.9202  -15.8149   20.1992 C   0  0  2  0  0  0  0  0  0  0  0  0
  -30.1516  -15.5240   23.1193 C   0  0  0  0  0  0  0  0  0  0  0  0
  -22.7254  -26.1127   20.5275 N   0  0  0  0  0  0  0  0  0  0  0  0
  -23.3851  -26.9744   19.7348 N   0  0  0  0  0  0  0  0  0  0  0  0
  -28.8497  -26.7981   20.7156 N   0  0  0  0  0  0  0  0  0  0  0  0
  -28.7254  -16.8666   20.1146 N   0  0  0  0  0  0  0  0  0  0  0  0
  -23.3867  -30.0724   21.9844 N   0  0  0  0  0  0  0  0  0  0  0  0
  -24.6834  -27.1078   17.7581 N   0  0  0  0  0  0  0  0  0  0  0  0
  -23.7220  -22.7068   18.0781 N   0  0  0  0  0  0  0  0  0  0  0  0
  -25.5998  -15.6196   20.3273 N   0  0  0  0  0  0  0  0  0  0  0  0
  -31.7169  -15.6550   21.1352 N   0  0  0  0  0  0  0  0  0  0  0  0
  -25.0401  -29.7681   23.6933 N   0  0  0  0  0  0  0  0  0  0  0  0
  -34.5654  -16.6411   19.1399 N   0  3  0  0  0  0  0  0  0  0  0  0
  -32.0530  -25.0341   18.8074 O   0  5  0  0  0  0  0  0  0  0  0  0
  -28.1431  -24.6800   21.4222 O   0  0  0  0  0  0  0  0  0  0  0  0
  -24.8189  -24.2871   16.8298 O   0  0  0  0  0  0  0  0  0  0  0  0
  -26.1089  -17.8646   20.6783 O   0  0  0  0  0  0  0  0  0  0  0  0
  -29.1457  -14.5969   20.4437 O   0  0  0  0  0  0  0  0  0  0  0  0
  -32.6573  -17.7591   20.8793 O   0  0  0  0  0  0  0  0  0  0  0  0
  -23.8040  -31.7136   23.5644 O   0  0  0  0  0  0  0  0  0  0  0  0
  -20.7137  -20.2759   22.0876 O   0  0  0  0  0  0  0  0  0  0  0  0
  -28.6254  -22.9523   19.1114 O   0  0  0  0  0  0  0  0  0  1  0  0
  -18.1908  -16.7961   18.6337 F   0  0  0  0  0  0  0  0  0  0  0  0
  -18.0437  -19.6387   22.4157 F   0  0  0  0  0  0  0  0  0  0  0  0
  1  2  1  0  0  0  0
  1  5  2  0  0  0  0
  2  6  2  0  0  0  0
  3 12  2  0  0  0  0
  3 19  1  0  0  0  0
  4 13  1  0  0  0  0
  4 19  2  0  0  0  0
  5 21  1  0  0  0  0
  6 23  1  0  0  0  0
  7 14  2  0  0  0  0
  7 22  1  0  0  0  0
  8 10  2  0  0  0  0
  8 25  1  0  0  0  0
  9 11  1  0  0  0  0
  9 25  2  0  0  0  0
 10 26  1  0  0  0  0
 11 26  2  0  0  0  0
 12 27  1  0  0  0  0
 13 27  2  0  0  0  0
 14 28  1  0  0  0  0
 15 16  2  0  0  0  0
 15 29  1  0  0  0  0
 16 30  1  0  0  0  0
 17 24  1  0  0  0  0
 17 28  2  0  0  0  0
 18 30  2  0  0  0  0
 18 31  1  0  0  0  0
 19 32  1  0  0  0  0
 20 32  1  0  0  0  0
 20 33  2  0  0  0  0
 20 37  1  0  0  0  0
 21 23  2  0  0  0  0
 21 42  1  0  0  0  0
 22 24  2  0  0  0  0
 22 43  1  0  0  0  0
 23 53  1  0  0  0  0
 24 44  1  0  0  0  0
 25 69  1  0  0  0  0
 26 76  1  0  0  0  0
 27 85  1  0  0  0  0
 28 86  1  0  0  0  0
 29 31  2  0  0  0  0
 29 85  1  0  0  0  0
 30 87  1  0  0  0  0
 31 88  1  0  0  0  0
 32 67  2  0  0  0  0
 33 68  1  0  0  0  0
 33 72  1  0  0  0  0
 34 35  2  0  0  0  0
 34 36  1  0  0  0  0
 34 62  1  0  0  0  0
 35 45  1  0  0  0  0
 35 78  1  0  0  0  0
 36 69  1  0  0  0  0
 36 79  2  0  0  0  0
 37 73  1  0  0  0  0
 37 80  2  0  0  0  0
 38 54  1  0  0  0  0
 38 74  1  0  0  0  0
 38 81  2  0  0  0  0
 39 64  1  0  0  0  0
 39 70  1  0  0  0  0
 39 82  2  0  0  0  0
 40 65  1  0  0  0  0
 40 75  1  0  0  0  0
 40 83  2  0  0  0  0
 41 71  1  0  0  0  0
 41 76  1  0  0  0  0
 41 84  2  0  0  0  0
 42 46  1  0  0  0  0
 43 54  1  0  0  0  0
 44 70  1  0  0  0  0
 45 50  1  0  0  0  0
 46 48  1  0  0  0  0
 47 49  1  0  0  0  0
 47 51  1  0  0  0  0
 48 53  1  0  0  0  0
 49 55  1  0  0  0  0
 50 69  1  0  0  0  0
 51 71  1  0  0  0  0
 52 55  1  0  0  0  0
 52 71  1  0  0  0  0
 53 74  1  0  0  0  0
 54 70  1  0  0  0  0
 55 68  1  0  0  0  0
 56 63  1  0  0  0  0
 57 65  1  0  0  0  0
 58 66  1  0  0  0  0
 59 66  1  0  0  0  0
 60 66  1  0  0  0  0
 61 77  1  0  0  0  0
 62 86  1  0  0  0  0
 63 76  1  0  0  0  0
 64 66  1  0  0  0  0
 64 75  1  0  0  0  0
 65 77  1  0  0  0  0
 67 68  1  0  0  0  0
M  CHG  2  77   1  78  -1
M  ISO  4  41 100  62 101  76 100  86 101
M  END
> <Batch ID>
0102

> <Smiles>
CC[100N:0](c1ccc(N2CCC(=O)C([101CH2:1][101O:1]c3ccc4c(c3)CN(C(=O)C(NC(=O)C(C)NC)C(C)(C)C)C(C(=O)NC3CCCc5ccccc53)C4)C2=O)cc1)[100C:0](=O)N1CCCC(n2nc(-c3ccc(Oc4ccc(F)cc4F)cc3)c(C(N)=O)c2N)C1

> <Shape>
0.216

> <Color>
0.046

> <Negative vol penalty>
0.000

$$$$

  -OEChem-04052301023D

 84 92  0     1  0  0  0  0  0999 V2000
  -21.2602  -31.5260   27.1209 C   0  0  0  0  0  0  0  0  0  0  0  0
  -22.4108  -30.9615   26.5798 C   0  0  0  0  0  0  0  0  0  0  0  0
  -23.4770  -10.2873   21.3861 C   0  0  0  0  0  0  0  0  0  0  0  0
  -24.8924   -8.4971   22.1791 C   0  0  0  0  0  0  0  0  0  0  0  0
  -20.0121  -31.2096   26.5861 C   0  0  0  0  0  0  0  0  0  0  0  0
  -22.3139  -30.0794   25.5042 C   0  0  0  0  0  0  0  0  0  0  0  0
  -26.2836  -29.4595   20.8822 C   0  0  0  0  0  0  0  0  0  0  0  0
  -30.7500  -19.9272   20.7655 C   0  0  0  0  0  0  0  0  0  0  0  0
  -30.7834  -18.5327   20.7674 C   0  0  0  0  0  0  0  0  0  0  0  0
  -22.4351   -9.3796   21.1964 C   0  0  0  0  0  0  0  0  0  0  0  0
  -23.8504   -7.5893   21.9895 C   0  0  0  0  0  0  0  0  0  0  0  0
  -27.3127  -28.5493   20.6453 C   0  0  0  0  0  0  0  0  0  0  0  0
  -21.0252   -6.6708   23.6004 C   0  0  0  0  0  0  0  0  0  0  0  0
  -20.7789   -5.7477   24.6167 C   0  0  0  0  0  0  0  0  0  0  0  0
  -25.8173  -27.2181   19.2996 C   0  0  0  0  0  0  0  0  0  0  0  0
  -28.5551  -19.8733   19.7571 C   0  0  0  0  0  0  0  0  0  0  0  0
  -21.2026   -3.9368   23.0745 C   0  0  0  0  0  0  0  0  0  0  0  0
  -24.7057   -9.8461   21.8774 C   0  0  0  0  0  0  0  0  0  0  0  0
  -26.0654  -11.5222   23.2372 C   0  0  0  0  0  0  0  0  0  0  0  0
  -19.9005  -30.3307   25.4972 C   0  0  0  0  0  0  0  0  0  0  0  0
  -25.0085  -29.2498   20.3376 C   0  0  0  0  0  0  0  0  0  0  0  0
  -21.0630  -29.7499   24.9552 C   0  0  0  0  0  0  0  0  0  0  0  0
  -24.7744  -28.1285   19.5289 C   0  0  0  0  0  0  0  0  0  0  0  0
  -28.5885  -18.4788   19.7590 C   0  0  0  0  0  0  0  0  0  0  0  0
  -29.6358  -20.5974   20.2604 C   0  0  0  0  0  0  0  0  0  0  0  0
  -29.7027  -17.8085   20.2641 C   0  0  0  0  0  0  0  0  0  0  0  0
  -22.6217   -8.0306   21.4981 C   0  0  0  0  0  0  0  0  0  0  0  0
  -27.0789  -27.4268   19.8563 C   0  0  0  0  0  0  0  0  0  0  0  0
  -21.3601   -6.2269   22.3211 C   0  0  0  0  0  0  0  0  0  0  0  0
  -20.8676   -4.3807   24.3538 C   0  0  0  0  0  0  0  0  0  0  0  0
  -21.4489   -4.8599   22.0582 C   0  0  0  0  0  0  0  0  0  0  0  0
  -25.7826  -10.7831   22.0729 C   0  0  0  0  0  0  0  0  0  0  0  0
  -27.1790  -12.2585   22.9145 C   0  0  0  0  0  0  0  0  0  0  0  0
  -25.3826  -11.5414   24.4978 C   0  0  0  0  0  0  0  0  0  0  0  0
  -22.1027  -28.7911   21.5416 C   0  0  0  0  0  0  0  0  0  0  0  0
  -28.7898  -24.2369   19.9130 C   0  0  0  0  0  0  0  0  0  0  0  0
  -21.2092  -28.9691   18.4284 C   0  0  0  0  0  0  0  0  0  0  0  0
  -22.0718  -28.6374   15.1432 C   0  0  0  0  0  0  0  0  0  0  0  0
  -29.6723  -15.6185   19.0818 C   0  0  0  0  0  0  0  0  0  0  0  0
  -18.5260  -29.9821   24.9835 C   0  0  0  0  0  0  0  0  0  0  0  0
  -23.9163  -30.2550   20.5805 C   0  0  0  0  0  0  0  0  0  0  0  0
  -23.4289  -27.8681   18.9043 C   0  0  0  0  0  0  0  0  0  0  0  0
  -18.5389  -29.3298   23.6035 C   0  0  0  0  0  0  0  0  0  0  0  0
  -30.2931  -11.9843   18.9495 C   0  0  0  0  0  0  0  0  0  0  0  0
  -19.5979  -28.2336   23.5410 C   0  0  0  0  0  0  0  0  0  0  0  0
  -29.1551  -11.4135   19.7940 C   0  0  0  0  0  0  0  0  0  0  0  0
  -29.8934  -13.2894   18.2675 C   0  0  0  0  0  0  0  0  0  0  0  0
  -28.2440  -13.7561   20.0541 C   0  0  0  0  0  0  0  0  0  0  0  0
  -21.0008  -28.8080   23.7724 C   0  0  1  0  0  0  0  0  0  0  0  0
  -22.5177  -29.6735   20.3985 C   0  0  1  0  0  0  0  0  0  0  0  0
  -28.6301  -12.4633   20.7886 C   0  0  1  0  0  0  0  0  0  0  0  0
  -27.4162  -17.7286   19.2150 C   0  0  0  0  0  0  0  0  0  0  0  0
  -21.1179  -28.8123   12.8287 C   0  0  0  0  0  0  0  0  0  0  0  0
  -19.7997  -26.2899   18.8096 C   0  0  0  0  0  0  0  0  0  0  0  0
  -19.6997  -26.0671   16.3179 C   0  0  0  0  0  0  0  0  0  0  0  0
  -18.5244  -27.9552   17.4477 C   0  0  0  0  0  0  0  0  0  0  0  0
  -30.1432  -15.6904   21.5196 C   0  0  0  0  0  0  0  0  0  0  0  0
  -23.9601  -30.7926   14.4024 C   0  0  0  0  0  0  0  0  0  0  0  0
  -28.4963  -22.7597   19.7587 C   0  0  0  0  0  0  0  0  0  0  0  0
  -27.7063  -25.1752   19.4179 C   0  0  0  0  0  0  0  0  0  1  0  0
  -21.0484  -27.9749   17.3038 C   0  0  1  0  0  0  0  0  0  0  0  0
  -21.8460  -29.5431   13.9460 C   0  0  2  0  0  0  0  0  0  0  0  0
  -19.7930  -27.0754   17.4829 C   0  0  0  0  0  0  0  0  0  0  0  0
  -26.6467  -11.0278   21.0843 N   0  0  0  0  0  0  0  0  0  0  0  0
  -27.4835  -11.9289   21.6265 N   0  0  0  0  0  0  0  0  0  0  0  0
  -22.3915  -28.8767   19.1764 N   0  0  0  0  0  0  0  0  0  0  0  0
  -29.3554  -14.2530   19.2285 N   0  0  0  0  0  0  0  0  0  0  0  0
  -27.9177  -13.1494   23.6095 N   0  0  0  0  0  0  0  0  0  0  0  0
  -24.2560  -10.7235   24.6600 N   0  0  0  0  0  0  0  0  0  0  0  0
  -29.6026  -21.9846   20.2591 N   0  0  0  0  0  0  0  0  0  0  0  0
  -21.4816  -29.4649   22.5759 N   0  0  0  0  0  0  0  0  0  0  0  0
  -21.0560  -28.7512   16.0686 N   0  0  0  0  0  0  0  0  0  0  0  0
  -29.7560  -16.3657   20.2766 N   0  0  0  0  0  0  0  0  0  0  0  0
  -23.1489  -30.0346   13.4152 N   0  3  0  0  0  0  0  0  0  0  0  0
  -25.7506  -12.2746   25.4467 O   0  0  0  0  0  0  0  0  0  0  0  0
  -22.3279  -27.5877   21.4886 O   0  0  0  0  0  0  0  0  0  0  0  0
  -29.8349  -24.6596   20.4057 O   0  0  0  0  0  0  0  0  0  0  0  0
  -20.3219  -29.8017   18.6310 O   0  0  0  0  0  0  0  0  0  0  0  0
  -23.0496  -27.8998   15.2453 O   0  0  0  0  0  0  0  0  0  0  0  0
  -29.8921  -16.1218   17.9737 O   0  0  0  0  0  0  0  0  0  0  0  0
  -21.6051   -7.1446   21.3134 O   0  0  0  0  0  0  0  0  0  0  0  0
  -28.0815  -26.5364   19.6240 O   0  0  0  0  0  0  0  0  0  1  0  0
  -20.6326   -3.4944   25.3302 F   0  0  0  0  0  0  0  0  0  0  0  0
  -21.7714   -4.4275   20.8315 F   0  0  0  0  0  0  0  0  0  0  0  0
  1  2  1  0  0  0  0
  1  5  2  0  0  0  0
  2  6  2  0  0  0  0
  3 10  2  0  0  0  0
  3 18  1  0  0  0  0
  4 11  1  0  0  0  0
  4 18  2  0  0  0  0
  5 20  1  0  0  0  0
  6 22  1  0  0  0  0
  7 12  2  0  0  0  0
  7 21  1  0  0  0  0
  8  9  2  0  0  0  0
  8 25  1  0  0  0  0
  9 26  1  0  0  0  0
 10 27  1  0  0  0  0
 11 27  2  0  0  0  0
 12 28  1  0  0  0  0
 13 14  2  0  0  0  0
 13 29  1  0  0  0  0
 14 30  1  0  0  0  0
 15 23  1  0  0  0  0
 15 28  2  0  0  0  0
 16 24  1  0  0  0  0
 16 25  2  0  0  0  0
 17 30  2  0  0  0  0
 17 31  1  0  0  0  0
 18 32  1  0  0  0  0
 19 32  1  0  0  0  0
 19 33  2  0  0  0  0
 19 34  1  0  0  0  0
 20 22  2  0  0  0  0
 20 40  1  0  0  0  0
 21 23  2  0  0  0  0
 21 41  1  0  0  0  0
 22 49  1  0  0  0  0
 23 42  1  0  0  0  0
 24 26  2  0  0  0  0
 24 52  1  0  0  0  0
 25 70  1  0  0  0  0
 26 73  1  0  0  0  0
 27 81  1  0  0  0  0
 28 82  1  0  0  0  0
 29 31  2  0  0  0  0
 29 81  1  0  0  0  0
 30 83  1  0  0  0  0
 31 84  1  0  0  0  0
 32 64  2  0  0  0  0
 33 65  1  0  0  0  0
 33 68  1  0  0  0  0
 34 69  1  0  0  0  0
 34 75  2  0  0  0  0
 35 50  1  0  0  0  0
 35 71  1  0  0  0  0
 35 76  2  0  0  0  0
 36 59  1  0  0  0  0
 36 60  1  0  0  0  0
 36 77  2  0  0  0  0
 37 61  1  0  0  0  0
 37 66  1  0  0  0  0
 37 78  2  0  0  0  0
 38 62  1  0  0  0  0
 38 72  1  0  0  0  0
 38 79  2  0  0  0  0
 39 67  1  0  0  0  0
 39 73  1  0  0  0  0
 39 80  2  0  0  0  0
 40 43  1  0  0  0  0
 41 50  1  0  0  0  0
 42 66  1  0  0  0  0
 43 45  1  0  0  0  0
 44 46  1  0  0  0  0
 44 47  1  0  0  0  0
 45 49  1  0  0  0  0
 46 51  1  0  0  0  0
 47 67  1  0  0  0  0
 48 51  1  0  0  0  0
 48 67  1  0  0  0  0
 49 71  1  0  0  0  0
 50 66  1  0  0  0  0
 51 65  1  0  0  0  0
 53 62  1  0  0  0  0
 54 63  1  0  0  0  0
 55 63  1  0  0  0  0
 56 63  1  0  0  0  0
 57 73  1  0  0  0  0
 58 74  1  0  0  0  0
 59 70  1  0  0  0  0
 60 82  1  0  0  0  0
 61 63  1  0  0  0  0
 61 72  1  0  0  0  0
 62 74  1  0  0  0  0
 64 65  1  0  0  0  0
M  CHG  1  74   1
M  ISO  4  39 100  60 101  73 100  82 101
M  END
> <Batch ID>
0102

> <Smiles>
CNC(C)C(=O)NC(C(=O)N1Cc2cc([101O:1][101CH2:1]C(=O)CNc3ccc([100N:0](C)[100C:0](=O)N4CCCC(n5nc(-c6ccc(Oc7ccc(F)cc7F)cc6)c(C(N)=O)c5N)C4)c(C)c3)ccc2CC1C(=O)NC1CCCc2ccccc21)C(C)(C)C

> <Shape>
0.296

> <Color>
0.129

> <Negative vol penalty>
0.000

$$$$

  -OEChem-04052301023D

 83 91  0     1  0  0  0  0  0999 V2000
  -16.8829  -28.9690   24.2889 C   0  0  0  0  0  0  0  0  0  0  0  0
  -17.5097  -27.9908   23.5236 C   0  0  0  0  0  0  0  0  0  0  0  0
  -24.8495  -14.4363   19.6398 C   0  0  0  0  0  0  0  0  0  0  0  0
  -24.8222  -13.8354   21.9797 C   0  0  0  0  0  0  0  0  0  0  0  0
  -17.3219  -30.2907   24.2241 C   0  0  0  0  0  0  0  0  0  0  0  0
  -18.5752  -28.3340   22.6922 C   0  0  0  0  0  0  0  0  0  0  0  0
  -22.4307  -25.0678   23.0267 C   0  0  0  0  0  0  0  0  0  0  0  0
  -24.9649  -13.0896   19.2953 C   0  0  0  0  0  0  0  0  0  0  0  0
  -24.9375  -12.4887   21.6352 C   0  0  0  0  0  0  0  0  0  0  0  0
  -22.3003  -23.8571   22.3477 C   0  0  0  0  0  0  0  0  0  0  0  0
  -24.8619   -8.8642   21.3607 C   0  0  0  0  0  0  0  0  0  0  0  0
  -24.0366   -7.9525   22.0191 C   0  0  0  0  0  0  0  0  0  0  0  0
  -26.5293  -20.7542   19.1824 C   0  0  0  0  0  0  0  0  0  0  0  0
  -23.6700  -24.7195   20.5591 C   0  0  0  0  0  0  0  0  0  0  0  0
  -26.4177  -18.3437   17.7824 C   0  0  0  0  0  0  0  0  0  0  0  0
  -22.0888   -9.1081   21.1777 C   0  0  0  0  0  0  0  0  0  0  0  0
  -24.7782  -14.8092   20.9820 C   0  0  0  0  0  0  0  0  0  0  0  0
  -25.2981  -20.2410   18.7744 C   0  0  0  0  0  0  0  0  0  0  0  0
  -23.4714  -16.9346   21.5135 C   0  0  0  0  0  0  0  0  0  0  0  0
  -18.3996  -30.6486   23.3987 C   0  0  0  0  0  0  0  0  0  0  0  0
  -23.1740  -26.1190   22.4710 C   0  0  0  0  0  0  0  0  0  0  0  0
  -19.0281  -29.6620   22.6152 C   0  0  0  0  0  0  0  0  0  0  0  0
  -23.8104  -25.9417   21.2342 C   0  0  0  0  0  0  0  0  0  0  0  0
  -27.6489  -18.8570   18.1903 C   0  0  0  0  0  0  0  0  0  0  0  0
  -27.7047  -20.0622   18.8903 C   0  0  0  0  0  0  0  0  0  0  0  0
  -25.2423  -19.0358   18.0745 C   0  0  0  0  0  0  0  0  0  0  0  0
  -25.0089  -12.1158   20.2929 C   0  0  0  0  0  0  0  0  0  0  0  0
  -22.9176  -23.6838   21.1124 C   0  0  0  0  0  0  0  0  0  0  0  0
  -24.3006   -9.8978   20.6108 C   0  0  0  0  0  0  0  0  0  0  0  0
  -22.6501   -8.0745   21.9276 C   0  0  0  0  0  0  0  0  0  0  0  0
  -22.9141  -10.0197   20.5193 C   0  0  0  0  0  0  0  0  0  0  0  0
  -24.6596  -16.2002   21.3386 C   0  0  0  0  0  0  0  0  0  0  0  0
  -23.8946  -18.1988   21.8440 C   0  0  0  0  0  0  0  0  0  0  0  0
  -24.0786  -20.9992   19.1009 C   0  0  0  0  0  0  0  0  0  0  0  0
  -23.9282  -21.8002   20.1631 C   0  0  0  0  0  0  0  0  0  1  0  0
  -22.1070  -16.5118   21.3885 C   0  0  0  0  0  0  0  0  0  0  0  0
  -22.5109  -29.0808   21.5265 C   0  0  0  0  0  0  0  0  0  0  0  0
  -25.7236  -29.2512   21.1122 C   0  0  0  0  0  0  0  0  0  0  0  0
  -28.6670  -27.6090   20.5769 C   0  0  0  0  0  0  0  0  0  0  0  0
  -29.2842  -20.8538   20.6707 C   0  0  0  0  0  0  0  0  0  0  0  0
  -18.8080  -32.0986   23.3261 C   0  0  0  0  0  0  0  0  0  0  0  0
  -23.3272  -27.4095   23.2284 C   0  0  0  0  0  0  0  0  0  0  0  0
  -24.6364  -27.0320   20.6038 C   0  0  0  0  0  0  0  0  0  0  0  0
  -20.1853  -32.3130   22.7037 C   0  0  0  0  0  0  0  0  0  0  0  0
  -27.5150  -20.5418   23.9057 C   0  0  0  0  0  0  0  0  0  0  0  0
  -20.3281  -31.4906   21.4270 C   0  0  0  0  0  0  0  0  0  0  0  0
  -26.5386  -19.3954   23.6492 C   0  0  0  0  0  0  0  0  0  0  0  0
  -28.7727  -20.4164   23.0513 C   0  0  0  0  0  0  0  0  0  0  0  0
  -27.5117  -19.1555   21.3304 C   0  0  0  0  0  0  0  0  0  0  0  0
  -20.2032  -29.9906   21.7201 C   0  0  1  0  0  0  0  0  0  0  0  0
  -23.6818  -28.5908   22.3306 C   0  0  1  0  0  0  0  0  0  0  0  0
  -26.2185  -19.2808   22.1497 C   0  0  1  0  0  0  0  0  0  0  0  0
  -28.8920  -18.0945   17.8640 C   0  0  0  0  0  0  0  0  0  0  0  0
  -29.4118  -22.5601   17.8829 C   0  0  0  0  0  0  0  0  0  0  0  0
  -31.1202  -28.0202   20.2451 C   0  0  0  0  0  0  0  0  0  0  0  0
  -25.1804  -30.1710   18.2541 C   0  0  0  0  0  0  0  0  0  0  0  0
  -27.5675  -29.6507   17.7070 C   0  0  0  0  0  0  0  0  0  0  0  0
  -27.0312  -31.3934   19.4094 C   0  0  0  0  0  0  0  0  0  0  0  0
  -29.3732  -26.0494   22.9910 C   0  0  0  0  0  0  0  0  0  0  0  0
  -29.8525  -21.1723   18.3027 C   0  0  0  0  0  0  0  0  0  0  0  0
  -26.6722  -28.9557   19.9756 C   0  0  1  0  0  0  0  0  0  0  0  0
  -30.0213  -27.7224   21.2533 C   0  0  2  0  0  0  0  0  0  0  0  0
  -26.5957  -30.0226   18.8472 C   0  0  0  0  0  0  0  0  0  0  0  0
  -25.7554  -16.9366   21.5410 N   0  0  0  0  0  0  0  0  0  0  0  0
  -25.2574  -18.1469   21.8465 N   0  0  0  0  0  0  0  0  0  0  0  0
  -24.7511  -28.2775   21.3804 N   0  0  0  0  0  0  0  0  0  0  0  0
  -28.4511  -20.2477   21.6333 N   0  0  0  0  0  0  0  0  0  0  0  0
  -24.0082  -18.4929   17.6493 N   0  0  0  0  0  0  0  0  0  0  0  0
  -23.2301  -19.3387   22.1297 N   0  0  0  0  0  0  0  0  0  0  0  0
  -21.8499  -15.1783   21.0422 N   0  0  0  0  0  0  0  0  0  0  0  0
  -21.4324  -29.4832   22.2910 N   0  0  0  0  0  0  0  0  0  0  0  0
  -27.9949  -28.8129   20.5744 N   0  0  0  0  0  0  0  0  0  0  0  0
  -28.9681  -20.6094   19.3206 N   0  0  0  0  0  0  0  0  0  0  0  0
  -30.3584  -26.4512   21.9542 N   0  3  0  0  0  0  0  0  0  0  0  0
  -21.1448  -17.2976   21.5621 O   0  0  0  0  0  0  0  0  0  0  0  0
  -22.5813  -29.0942   20.3032 O   0  0  0  0  0  0  0  0  0  0  0  0
  -25.8458  -30.3039   21.7436 O   0  0  0  0  0  0  0  0  0  0  0  0
  -28.2489  -26.5583   20.0954 O   0  0  0  0  0  0  0  0  0  0  0  0
  -30.2754  -21.5215   20.9905 O   0  0  0  0  0  0  0  0  0  0  0  0
  -25.1213  -10.8016   19.9571 O   0  0  0  0  0  0  0  0  0  0  0  0
  -22.7913  -22.5033   20.4473 O   0  0  0  0  0  0  0  0  0  1  0  0
  -21.8578   -7.1980   22.5586 F   0  0  0  0  0  0  0  0  0  0  0  0
  -22.3691  -11.0100   19.7994 F   0  0  0  0  0  0  0  0  0  0  0  0
  1  2  1  0  0  0  0
  1  5  2  0  0  0  0
  2  6  2  0  0  0  0
  3  8  2  0  0  0  0
  3 17  1  0  0  0  0
  4  9  1  0  0  0  0
  4 17  2  0  0  0  0
  5 20  1  0  0  0  0
  6 22  1  0  0  0  0
  7 10  2  0  0  0  0
  7 21  1  0  0  0  0
  8 27  1  0  0  0  0
  9 27  2  0  0  0  0
 10 28  1  0  0  0  0
 11 12  2  0  0  0  0
 11 29  1  0  0  0  0
 12 30  1  0  0  0  0
 13 18  2  0  0  0  0
 13 25  1  0  0  0  0
 14 23  1  0  0  0  0
 14 28  2  0  0  0  0
 15 24  1  0  0  0  0
 15 26  2  0  0  0  0
 16 30  2  0  0  0  0
 16 31  1  0  0  0  0
 17 32  1  0  0  0  0
 18 26  1  0  0  0  0
 18 34  1  0  0  0  0
 19 32  1  0  0  0  0
 19 33  2  0  0  0  0
 19 36  1  0  0  0  0
 20 22  2  0  0  0  0
 20 41  1  0  0  0  0
 21 23  2  0  0  0  0
 21 42  1  0  0  0  0
 22 50  1  0  0  0  0
 23 43  1  0  0  0  0
 24 25  2  0  0  0  0
 24 53  1  0  0  0  0
 25 73  1  0  0  0  0
 26 68  1  0  0  0  0
 27 80  1  0  0  0  0
 28 81  1  0  0  0  0
 29 31  2  0  0  0  0
 29 80  1  0  0  0  0
 30 82  1  0  0  0  0
 31 83  1  0  0  0  0
 32 64  2  0  0  0  0
 33 65  1  0  0  0  0
 33 69  1  0  0  0  0
 34 35  2  0  0  0  0
 35 81  1  0  0  0  0
 36 70  1  0  0  0  0
 36 75  2  0  0  0  0
 37 51  1  0  0  0  0
 37 71  1  0  0  0  0
 37 76  2  0  0  0  0
 38 61  1  0  0  0  0
 38 66  1  0  0  0  0
 38 77  2  0  0  0  0
 39 62  1  0  0  0  0
 39 72  1  0  0  0  0
 39 78  2  0  0  0  0
 40 67  1  0  0  0  0
 40 73  1  0  0  0  0
 40 79  2  0  0  0  0
 41 44  1  0  0  0  0
 42 51  1  0  0  0  0
 43 66  1  0  0  0  0
 44 46  1  0  0  0  0
 45 47  1  0  0  0  0
 45 48  1  0  0  0  0
 46 50  1  0  0  0  0
 47 52  1  0  0  0  0
 48 67  1  0  0  0  0
 49 52  1  0  0  0  0
 49 67  1  0  0  0  0
 50 71  1  0  0  0  0
 51 66  1  0  0  0  0
 52 65  1  0  0  0  0
 54 60  1  0  0  0  0
 55 62  1  0  0  0  0
 56 63  1  0  0  0  0
 57 63  1  0  0  0  0
 58 63  1  0  0  0  0
 59 74  1  0  0  0  0
 60 73  1  0  0  0  0
 61 63  1  0  0  0  0
 61 72  1  0  0  0  0
 62 74  1  0  0  0  0
 64 65  1  0  0  0  0
M  CHG  1  74   1
M  ISO  4  35 101  40 100  73 100  81 101
M  END
> <Batch ID>
0102

> <Smiles>
CC[100N:0](c1cc(C=[101CH:1][101O:1]c2ccc3c(c2)CN(C(=O)C(NC(=O)C(C)NC)C(C)(C)C)C(C(=O)NC2CCCc4ccccc42)C3)c(N)cc1C)[100C:0](=O)N1CCCC(n2nc(-c3ccc(Oc4ccc(F)cc4F)cc3)c(C(N)=O)c2N)C1

> <Shape>
0.235

> <Color>
0.088

> <Negative vol penalty>
0.000

$$$$

  -OEChem-04052301023D

 88 97  0     1  0  0  0  0  0999 V2000
  -29.4906  -25.0034   16.7753 C   0  0  0  0  0  0  0  0  0  0  0  0
  -28.2600  -24.9481   17.4217 C   0  0  0  0  0  0  0  0  0  0  0  0
  -30.0666  -17.7896   21.6052 C   0  0  0  0  0  0  0  0  0  0  0  0
  -27.9832  -16.6853   22.1313 C   0  0  0  0  0  0  0  0  0  0  0  0
  -21.9361  -21.9149   25.3513 C   0  0  0  0  0  0  0  0  0  0  0  0
  -30.5422  -25.7232   17.3410 C   0  0  0  0  0  0  0  0  0  0  0  0
  -28.0806  -25.6117   18.6349 C   0  0  0  0  0  0  0  0  0  0  0  0
  -23.7129  -28.1677   18.8238 C   0  0  0  0  0  0  0  0  0  0  0  0
  -21.2369  -22.5630   24.3332 C   0  0  0  0  0  0  0  0  0  0  0  0
  -30.6409  -16.5574   21.2931 C   0  0  0  0  0  0  0  0  0  0  0  0
  -28.5574  -15.4531   21.8191 C   0  0  0  0  0  0  0  0  0  0  0  0
  -22.5539  -27.4309   19.0636 C   0  0  0  0  0  0  0  0  0  0  0  0
  -29.3061  -13.6895   19.0353 C   0  0  0  0  0  0  0  0  0  0  0  0
  -28.5615  -12.8095   18.2499 C   0  0  0  0  0  0  0  0  0  0  0  0
  -22.6170  -28.0974   21.3812 C   0  0  0  0  0  0  0  0  0  0  0  0
  -21.3079  -20.5482   23.0018 C   0  0  0  0  0  0  0  0  0  0  0  0
  -28.6203  -11.1737   20.0269 C   0  0  0  0  0  0  0  0  0  0  0  0
  -28.7377  -17.8536   22.0243 C   0  0  0  0  0  0  0  0  0  0  0  0
  -22.3214  -20.5834   25.1946 C   0  0  0  0  0  0  0  0  0  0  0  0
  -27.9913  -20.2343   21.4929 C   0  0  0  0  0  0  0  0  0  0  0  0
  -30.3727  -26.4039   18.5569 C   0  0  0  0  0  0  0  0  0  0  0  0
  -24.3399  -28.8672   19.8650 C   0  0  0  0  0  0  0  0  0  0  0  0
  -29.1312  -26.3401   19.2181 C   0  0  0  0  0  0  0  0  0  0  0  0
  -23.7824  -28.8444   21.1514 C   0  0  0  0  0  0  0  0  0  0  0  0
  -20.9227  -21.8797   23.1585 C   0  0  0  0  0  0  0  0  0  0  0  0
  -22.0072  -19.9001   24.0199 C   0  0  0  0  0  0  0  0  0  0  0  0
  -29.8864  -15.3891   21.4000 C   0  0  0  0  0  0  0  0  0  0  0  0
  -22.0073  -27.3933   20.3431 C   0  0  0  0  0  0  0  0  0  0  0  0
  -29.7079  -13.3115   20.3165 C   0  0  0  0  0  0  0  0  0  0  0  0
  -28.2186  -11.5516   18.7457 C   0  0  0  0  0  0  0  0  0  0  0  0
  -29.3649  -12.0537   20.8123 C   0  0  0  0  0  0  0  0  0  0  0  0
  -28.1441  -19.1261   22.3474 C   0  0  0  0  0  0  0  0  0  0  0  0
  -27.3758  -21.1849   22.2701 C   0  0  0  0  0  0  0  0  0  0  0  0
  -18.9458  -22.0139   21.7148 C   0  0  0  0  0  0  0  0  0  0  0  0
  -20.7966  -23.7027   21.5188 C   0  0  0  0  0  0  0  0  0  0  0  0
  -23.0506  -19.9348   26.2773 C   0  0  0  0  0  0  0  0  0  0  0  0
  -28.3716  -20.3905   20.1193 C   0  0  0  0  0  0  0  0  0  0  0  0
  -23.9372  -20.7071   27.1777 C   0  0  0  0  0  0  0  0  0  0  0  0
  -27.1883  -28.7222   21.2683 C   0  0  0  0  0  0  0  0  0  0  0  0
  -26.1255  -31.3658   22.8190 C   0  0  0  0  0  0  0  0  0  0  0  0
  -23.0403  -32.4721   24.3271 C   0  0  0  0  0  0  0  0  0  0  0  0
  -31.5526  -27.1298   19.1532 C   0  0  0  0  0  0  0  0  0  0  0  0
  -25.5746  -29.6790   19.5841 C   0  0  0  0  0  0  0  0  0  0  0  0
  -24.4057  -29.5946   22.2991 C   0  0  0  0  0  0  0  0  0  0  0  0
  -18.2789  -22.6266   20.5006 C   0  0  0  0  0  0  0  0  0  0  0  0
  -31.1688  -28.1147   20.2545 C   0  0  0  0  0  0  0  0  0  0  0  0
  -19.1944  -23.4897   19.6642 C   0  0  0  0  0  0  0  0  0  0  0  0
  -26.9435  -22.6250   26.8031 C   0  0  0  0  0  0  0  0  0  0  0  0
  -30.1901  -27.4694   21.2304 C   0  0  0  0  0  0  0  0  0  0  0  0
  -27.5967  -22.0188   25.5614 C   0  0  0  0  0  0  0  0  0  0  0  0
  -26.2030  -21.5685   27.6166 C   0  0  0  0  0  0  0  0  0  0  0  0
  -25.8351  -20.1963   25.5843 C   0  0  0  0  0  0  0  0  0  0  0  0
  -28.8902  -27.0672   20.5233 C   0  0  1  0  0  0  0  0  0  0  0  0
  -19.8853  -24.4825   20.5818 C   0  0  2  0  0  0  0  0  0  0  0  0
  -26.4174  -29.9351   20.8296 C   0  0  1  0  0  0  0  0  0  0  0  0
  -26.5693  -21.2382   24.7225 C   0  0  2  0  0  0  0  0  0  0  0  0
  -22.1401  -34.7860   24.6914 C   0  0  0  0  0  0  0  0  0  0  0  0
  -27.4149  -31.1208   25.5735 C   0  0  0  0  0  0  0  0  0  0  0  0
  -25.4404  -32.3280   26.5283 C   0  0  0  0  0  0  0  0  0  0  0  0
  -26.9093  -33.4647   24.8631 C   0  0  0  0  0  0  0  0  0  0  0  0
  -20.5271  -31.8452   22.8955 C   0  0  0  0  0  0  0  0  0  0  0  0
  -20.6600  -25.5189   19.7712 C   0  0  0  0  0  0  0  0  0  1  0  0
  -25.3590  -31.6215   24.0941 C   0  0  1  0  0  0  0  0  0  0  0  0
  -22.1090  -33.5510   23.8046 C   0  0  2  0  0  0  0  0  0  0  0  0
  -26.2774  -32.1098   25.2498 C   0  0  0  0  0  0  0  0  0  0  0  0
  -27.6645  -19.3505   23.5737 N   0  0  0  0  0  0  0  0  0  0  0  0
  -22.9730  -18.6569   26.5243 N   0  0  0  0  0  0  0  0  0  0  0  0
  -27.2044  -20.6107   23.4953 N   0  0  0  0  0  0  0  0  0  0  0  0
  -20.1960  -22.5539   22.1009 N   0  0  0  0  0  0  0  0  0  0  0  0
  -25.2627  -20.8225   26.7828 N   0  0  0  0  0  0  0  0  0  0  0  0
  -25.6154  -30.3688   21.9755 N   0  0  0  0  0  0  0  0  0  0  0  0
  -22.3896  -18.5520   23.8408 N   0  0  0  0  0  0  0  0  0  0  0  0
  -26.9701  -22.4476   22.0182 N   0  0  0  0  0  0  0  0  0  0  0  0
  -27.4473  -20.0391   19.1261 N   0  0  0  0  0  0  0  0  0  0  0  0
  -28.0514  -28.2271   20.3096 N   0  0  0  0  0  0  0  0  0  0  0  0
  -24.2890  -32.5508   23.7479 N   0  0  0  0  0  0  0  0  0  0  0  0
  -20.7081  -33.0452   23.7522 N   0  3  0  0  0  0  0  0  0  0  0  0
  -18.3249  -21.1462   22.3375 O   0  0  0  0  0  0  0  0  0  0  0  0
  -21.9578  -24.0696   21.7100 O   0  0  0  0  0  0  0  0  0  0  0  0
  -29.5036  -20.8132   19.7827 O   0  0  0  0  0  0  0  0  0  0  0  0
  -23.4028  -21.1633   28.1800 O   0  0  0  0  0  0  0  0  0  0  0  0
  -27.0140  -28.2700   22.3939 O   0  0  0  0  0  0  0  0  0  0  0  0
  -27.1355  -32.0313   22.5767 O   0  0  0  0  0  0  0  0  0  0  0  0
  -22.6956  -31.6447   25.1681 O   0  0  0  0  0  0  0  0  0  0  0  0
  -30.4464  -14.1866   21.0953 O   0  0  0  0  0  0  0  0  0  0  0  0
  -20.8764  -26.6744   20.5800 O   0  0  0  0  0  0  0  0  0  1  0  0
  -27.5022  -10.7073   17.9920 F   0  0  0  0  0  0  0  0  0  0  0  0
  -29.7470  -11.6854   22.0429 F   0  0  0  0  0  0  0  0  0  0  0  0
  1  2  1  0  0  0  0
  1  6  2  0  0  0  0
  2  7  2  0  0  0  0
  3 10  2  0  0  0  0
  3 18  1  0  0  0  0
  4 11  1  0  0  0  0
  4 18  2  0  0  0  0
  5  9  2  0  0  0  0
  5 19  1  0  0  0  0
  6 21  1  0  0  0  0
  7 23  1  0  0  0  0
  8 12  2  0  0  0  0
  8 22  1  0  0  0  0
  9 25  1  0  0  0  0
 10 27  1  0  0  0  0
 11 27  2  0  0  0  0
 12 28  1  0  0  0  0
 13 14  2  0  0  0  0
 13 29  1  0  0  0  0
 14 30  1  0  0  0  0
 15 24  1  0  0  0  0
 15 28  2  0  0  0  0
 16 25  2  0  0  0  0
 16 26  1  0  0  0  0
 17 30  2  0  0  0  0
 17 31  1  0  0  0  0
 18 32  1  0  0  0  0
 19 26  2  0  0  0  0
 19 36  1  0  0  0  0
 20 32  1  0  0  0  0
 20 33  2  0  0  0  0
 20 37  1  0  0  0  0
 21 23  2  0  0  0  0
 21 42  1  0  0  0  0
 22 24  2  0  0  0  0
 22 43  1  0  0  0  0
 23 53  1  0  0  0  0
 24 44  1  0  0  0  0
 25 69  1  0  0  0  0
 26 72  1  0  0  0  0
 27 85  1  0  0  0  0
 28 86  1  0  0  0  0
 29 31  2  0  0  0  0
 29 85  1  0  0  0  0
 30 87  1  0  0  0  0
 31 88  1  0  0  0  0
 32 66  2  0  0  0  0
 33 68  1  0  0  0  0
 33 73  1  0  0  0  0
 34 45  1  0  0  0  0
 34 69  1  0  0  0  0
 34 78  2  0  0  0  0
 35 54  1  0  0  0  0
 35 69  1  0  0  0  0
 35 79  2  0  0  0  0
 36 38  1  0  0  0  0
 36 67  2  0  0  0  0
 37 74  1  0  0  0  0
 37 80  2  0  0  0  0
 38 70  1  0  0  0  0
 38 81  2  0  0  0  0
 39 55  1  0  0  0  0
 39 75  1  0  0  0  0
 39 82  2  0  0  0  0
 40 63  1  0  0  0  0
 40 71  1  0  0  0  0
 40 83  2  0  0  0  0
 41 64  1  0  0  0  0
 41 76  1  0  0  0  0
 41 84  2  0  0  0  0
 42 46  1  0  0  0  0
 43 55  1  0  0  0  0
 44 71  1  0  0  0  0
 45 47  1  0  0  0  0
 46 49  1  0  0  0  0
 47 54  1  0  0  0  0
 48 50  1  0  0  0  0
 48 51  1  0  0  0  0
 49 53  1  0  0  0  0
 50 56  1  0  0  0  0
 51 70  1  0  0  0  0
 52 56  1  0  0  0  0
 52 70  1  0  0  0  0
 53 75  1  0  0  0  0
 54 62  1  0  0  0  0
 55 71  1  0  0  0  0
 56 68  1  0  0  0  0
 57 64  1  0  0  0  0
 58 65  1  0  0  0  0
 59 65  1  0  0  0  0
 60 65  1  0  0  0  0
 61 77  1  0  0  0  0
 62 86  1  0  0  0  0
 63 65  1  0  0  0  0
 63 76  1  0  0  0  0
 64 77  1  0  0  0  0
 66 68  1  0  0  0  0
M  CHG  1  77   1
M  ISO  4  36 100  38 100  62 101  86 101
M  END
> <Batch ID>
0102

> <Smiles>
CNC(C)C(=O)NC(C(=O)N1Cc2cc([101O:1][101CH2:1]C3CCC(=O)N(c4ccc([100C:0](=N)[100C:0](=O)N5CCCC(n6nc(-c7ccc(Oc8ccc(F)cc8F)cc7)c(C(N)=O)c6N)C5)c(N)c4)C3=O)ccc2CC1C(=O)NC1CCCc2ccccc21)C(C)(C)C

> <Shape>
0.248

> <Color>
0.053

> <Negative vol penalty>
0.000

$$$$

  -OEChem-04052301023D

 86 95  0     1  0  0  0  0  0999 V2000
  -29.0912  -11.5153   21.3781 C   0  0  0  0  0  0  0  0  0  0  0  0
  -29.2437  -12.8158   20.9084 C   0  0  0  0  0  0  0  0  0  0  0  0
  -19.6566  -26.7808   21.6836 C   0  0  0  0  0  0  0  0  0  0  0  0
  -20.5609  -28.7085   22.8252 C   0  0  0  0  0  0  0  0  0  0  0  0
  -27.8386  -10.9040   21.3403 C   0  0  0  0  0  0  0  0  0  0  0  0
  -28.1438  -13.5056   20.3996 C   0  0  0  0  0  0  0  0  0  0  0  0
  -27.8811  -18.2684   22.1001 C   0  0  0  0  0  0  0  0  0  0  0  0
  -18.4229  -26.9958   22.2978 C   0  0  0  0  0  0  0  0  0  0  0  0
  -19.3271  -28.9235   23.4394 C   0  0  0  0  0  0  0  0  0  0  0  0
  -28.7310  -19.2029   21.5101 C   0  0  0  0  0  0  0  0  0  0  0  0
  -14.9340  -27.2492   23.2868 C   0  0  0  0  0  0  0  0  0  0  0  0
  -13.7902  -27.1598   22.4934 C   0  0  0  0  0  0  0  0  0  0  0  0
  -26.9083  -19.9845   20.1367 C   0  0  0  0  0  0  0  0  0  0  0  0
  -31.4137  -26.1865   19.2752 C   0  0  0  0  0  0  0  0  0  0  0  0
  -29.8812  -27.7531   18.2584 C   0  0  0  0  0  0  0  0  0  0  0  0
  -31.0790  -26.1690   16.8825 C   0  0  0  0  0  0  0  0  0  0  0  0
  -14.6166  -28.9523   21.1001 C   0  0  0  0  0  0  0  0  0  0  0  0
  -20.7257  -27.6372   21.9473 C   0  0  0  0  0  0  0  0  0  0  0  0
  -22.4405  -27.9382   20.0828 C   0  0  0  0  0  0  0  0  0  0  0  0
  -26.7209  -11.5901   20.8397 C   0  0  0  0  0  0  0  0  0  0  0  0
  -26.5389  -18.1774   21.7044 C   0  0  0  0  0  0  0  0  0  0  0  0
  -26.8754  -12.9025   20.3538 C   0  0  0  0  0  0  0  0  0  0  0  0
  -26.0428  -19.0497   20.7251 C   0  0  0  0  0  0  0  0  0  0  0  0
  -30.5036  -27.2367   19.3948 C   0  0  0  0  0  0  0  0  0  0  0  0
  -31.7015  -25.6527   18.0190 C   0  0  0  0  0  0  0  0  0  0  0  0
  -18.2581  -28.0671   23.1757 C   0  0  0  0  0  0  0  0  0  0  0  0
  -28.2454  -20.0592   20.5262 C   0  0  0  0  0  0  0  0  0  0  0  0
  -15.9190  -28.1902   22.9869 C   0  0  0  0  0  0  0  0  0  0  0  0
  -13.6315  -28.0113   21.4001 C   0  0  0  0  0  0  0  0  0  0  0  0
  -30.1689  -27.2193   17.0022 C   0  0  0  0  0  0  0  0  0  0  0  0
  -15.7603  -29.0417   21.8935 C   0  0  0  0  0  0  0  0  0  0  0  0
  -22.0005  -27.4154   21.3136 C   0  0  0  0  0  0  0  0  0  0  0  0
  -23.7092  -27.4348   19.9297 C   0  0  0  0  0  0  0  0  0  0  0  0
  -21.7629  -28.8018   19.1604 C   0  0  0  0  0  0  0  0  0  0  0  0
  -24.7397  -15.9177   20.3776 C   0  0  0  0  0  0  0  0  0  0  0  0
  -22.3550  -18.0521   20.9063 C   0  0  0  0  0  0  0  0  0  0  0  0
  -21.4285  -21.3018   21.3838 C   0  0  0  0  0  0  0  0  0  0  0  0
  -28.7509  -26.2336   21.9993 C   0  0  0  0  0  0  0  0  0  0  0  0
  -25.3967  -10.8711   20.7754 C   0  0  0  0  0  0  0  0  0  0  0  0
  -25.6283  -17.1819   22.3696 C   0  0  0  0  0  0  0  0  0  0  0  0
  -24.6048  -19.0061   20.2792 C   0  0  0  0  0  0  0  0  0  0  0  0
  -24.2065  -11.8041   20.5670 C   0  0  0  0  0  0  0  0  0  0  0  0
  -26.1612  -23.8455   22.5164 C   0  0  0  0  0  0  0  0  0  0  0  0
  -24.5024  -12.8069   19.4563 C   0  0  0  0  0  0  0  0  0  0  0  0
  -24.8845  -24.6062   22.1542 C   0  0  0  0  0  0  0  0  0  0  0  0
  -32.5251  -20.9887   18.4356 C   0  0  0  0  0  0  0  0  0  0  0  0
  -27.1794  -24.7489   23.2086 C   0  0  0  0  0  0  0  0  0  0  0  0
  -26.2363  -26.7439   22.1112 C   0  0  0  0  0  0  0  0  0  0  0  0
  -32.9899  -22.0490   17.4507 C   0  0  0  0  0  0  0  0  0  0  0  0
  -31.0254  -22.8017   18.6951 C   0  0  0  0  0  0  0  0  0  0  0  0
  -25.7013  -13.6923   19.8174 C   0  0  1  0  0  0  0  0  0  0  0  0
  -24.4080  -16.8304   21.5241 C   0  0  1  0  0  0  0  0  0  0  0  0
  -31.0438  -21.2844   18.6242 C   0  0  2  0  0  0  0  0  0  0  0  0
  -25.2016  -25.8881   21.3607 C   0  0  2  0  0  0  0  0  0  0  0  0
  -19.4048  -22.7397   21.7507 C   0  0  0  0  0  0  0  0  0  0  0  0
  -21.6406  -17.7967   17.9509 C   0  0  0  0  0  0  0  0  0  0  0  0
  -20.2938  -19.8961   18.1666 C   0  0  0  0  0  0  0  0  0  0  0  0
  -19.6757  -17.8778   19.4958 C   0  0  0  0  0  0  0  0  0  0  0  0
  -22.4202  -22.2282   24.0138 C   0  0  0  0  0  0  0  0  0  0  0  0
  -30.1963  -27.8079   20.7378 C   0  0  0  0  0  0  0  0  0  0  0  0
  -32.6805  -24.5231   17.8899 C   0  0  0  0  0  0  0  0  0  0  0  0
  -30.4547  -20.6279   19.8545 C   0  0  0  0  0  0  0  0  0  1  0  0
  -21.7445  -19.1889   20.1227 C   0  0  1  0  0  0  0  0  0  0  0  0
  -20.5219  -21.9497   22.4146 C   0  0  2  0  0  0  0  0  0  0  0  0
  -20.8663  -18.6896   18.9408 C   0  0  0  0  0  0  0  0  0  0  0  0
  -22.9154  -26.6392   21.9006 N   0  0  0  0  0  0  0  0  0  0  0  0
  -23.9428  -26.6705   21.0349 N   0  0  0  0  0  0  0  0  0  0  0  0
  -23.7556  -18.0113   20.9549 N   0  0  0  0  0  0  0  0  0  0  0  0
  -27.4370  -25.9455   22.4038 N   0  0  0  0  0  0  0  0  0  0  0  0
  -24.6365  -27.5757   18.9588 N   0  0  0  0  0  0  0  0  0  0  0  0
  -20.4639  -29.2253   19.4726 N   0  0  0  0  0  0  0  0  0  0  0  0
  -25.3069  -14.7171   20.7601 N   0  0  0  0  0  0  0  0  0  0  0  0
  -21.0304  -20.0146   21.0905 N   0  0  0  0  0  0  0  0  0  0  0  0
  -28.9064  -27.3828   21.2340 N   0  0  0  0  0  0  0  0  0  0  0  0
  -32.0237  -23.2054   17.6316 N   0  3  1  0  0  0  0  0  0  0  0  0
  -21.3027  -22.8773   23.2812 N   0  3  0  0  0  0  0  0  0  0  0  0
  -22.2875  -29.1732   18.0832 O   0  0  0  0  0  0  0  0  0  0  0  0
  -24.4975  -16.2756   19.2309 O   0  0  0  0  0  0  0  0  0  0  0  0
  -21.6162  -17.2346   21.4609 O   0  0  0  0  0  0  0  0  0  0  0  0
  -22.3912  -21.8810   20.8855 O   0  0  0  0  0  0  0  0  0  0  0  0
  -29.7134  -25.5166   22.2936 O   0  0  0  0  0  0  0  0  0  0  0  0
  -17.0543  -28.2773   23.7750 O   0  0  0  0  0  0  0  0  0  0  0  0
  -29.0730  -20.9719   19.9483 O   0  0  0  0  0  0  0  0  0  1  0  0
  -12.5338  -27.9242   20.6374 F   0  0  0  0  0  0  0  0  0  0  0  0
  -29.5719  -27.7159   15.9109 F   0  0  0  0  0  0  0  0  0  0  0  0
  -16.7037  -29.9469   21.5997 F   0  0  0  0  0  0  0  0  0  0  0  0
  1  2  1  0  0  0  0
  1  5  2  0  0  0  0
  2  6  2  0  0  0  0
  3  8  2  0  0  0  0
  3 18  1  0  0  0  0
  4  9  1  0  0  0  0
  4 18  2  0  0  0  0
  5 20  1  0  0  0  0
  6 22  1  0  0  0  0
  7 10  2  0  0  0  0
  7 21  1  0  0  0  0
  8 26  1  0  0  0  0
  9 26  2  0  0  0  0
 10 27  1  0  0  0  0
 11 12  2  0  0  0  0
 11 28  1  0  0  0  0
 12 29  1  0  0  0  0
 13 23  1  0  0  0  0
 13 27  2  0  0  0  0
 14 24  1  0  0  0  0
 14 25  2  0  0  0  0
 15 24  2  0  0  0  0
 15 30  1  0  0  0  0
 16 25  1  0  0  0  0
 16 30  2  0  0  0  0
 17 29  2  0  0  0  0
 17 31  1  0  0  0  0
 18 32  1  0  0  0  0
 19 32  1  0  0  0  0
 19 33  2  0  0  0  0
 19 34  1  0  0  0  0
 20 22  2  0  0  0  0
 20 39  1  0  0  0  0
 21 23  2  0  0  0  0
 21 40  1  0  0  0  0
 22 51  1  0  0  0  0
 23 41  1  0  0  0  0
 24 60  1  0  0  0  0
 25 61  1  0  0  0  0
 26 82  1  0  0  0  0
 27 83  1  0  0  0  0
 28 31  2  0  0  0  0
 28 82  1  0  0  0  0
 29 84  1  0  0  0  0
 30 85  1  0  0  0  0
 31 86  1  0  0  0  0
 32 66  2  0  0  0  0
 33 67  1  0  0  0  0
 33 70  1  0  0  0  0
 34 71  1  0  0  0  0
 34 77  2  0  0  0  0
 35 52  1  0  0  0  0
 35 72  1  0  0  0  0
 35 78  2  0  0  0  0
 36 63  1  0  0  0  0
 36 68  1  0  0  0  0
 36 79  2  0  0  0  0
 37 64  1  0  0  0  0
 37 73  1  0  0  0  0
 37 80  2  0  0  0  0
 38 69  1  0  0  0  0
 38 74  1  0  0  0  0
 38 81  2  0  0  0  0
 39 42  1  0  0  0  0
 40 52  1  0  0  0  0
 41 68  1  0  0  0  0
 42 44  1  0  0  0  0
 43 45  1  0  0  0  0
 43 47  1  0  0  0  0
 44 51  1  0  0  0  0
 45 54  1  0  0  0  0
 46 49  1  0  0  0  0
 46 53  1  0  0  0  0
 47 69  1  0  0  0  0
 48 54  1  0  0  0  0
 48 69  1  0  0  0  0
 49 75  1  0  0  0  0
 50 53  1  0  0  0  0
 50 75  1  0  0  0  0
 51 72  1  0  0  0  0
 52 68  1  0  0  0  0
 53 62  1  0  0  0  0
 54 67  1  0  0  0  0
 55 64  1  0  0  0  0
 56 65  1  0  0  0  0
 57 65  1  0  0  0  0
 58 65  1  0  0  0  0
 59 76  1  0  0  0  0
 60 74  1  0  0  0  0
 61 75  1  0  0  0  0
 62 83  1  0  0  0  0
 63 65  1  0  0  0  0
 63 73  1  0  0  0  0
 64 76  1  0  0  0  0
 66 67  1  0  0  0  0
M  CHG  2  75   1  76   1
M  ISO  4  38 100  62 101  74 100  83 101
M  END
> <Batch ID>
0102

> <Smiles>
CNC(C)C(=O)NC(C(=O)N1Cc2cc([101O:1][101CH2:1]C3CCN(Cc4cc(F)cc(C[100NH:0][100C:0](=O)N5CCCC(n6nc(-c7ccc(Oc8ccc(F)cc8F)cc7)c(C(N)=O)c6N)C5)c4)C3)ccc2CC1C(=O)NC1CCCc2ccccc21)C(C)(C)C

> <Shape>
0.199

> <Color>
0.058

> <Negative vol penalty>
0.000

$$$$

  -OEChem-04052301023D

 86 95  0     1  0  0  0  0  0999 V2000
  -22.1784  -35.8182   22.6293 C   0  0  0  0  0  0  0  0  0  0  0  0
  -23.2698  -35.0445   22.2476 C   0  0  0  0  0  0  0  0  0  0  0  0
  -24.7259  -14.3580   20.8243 C   0  0  0  0  0  0  0  0  0  0  0  0
  -26.1260  -14.0432   18.8808 C   0  0  0  0  0  0  0  0  0  0  0  0
  -21.1535  -35.2509   23.3853 C   0  0  0  0  0  0  0  0  0  0  0  0
  -23.3374  -33.7032   22.6227 C   0  0  0  0  0  0  0  0  0  0  0  0
  -25.7315  -29.0905   19.3827 C   0  0  0  0  0  0  0  0  0  0  0  0
  -24.8295  -12.9987   21.1193 C   0  0  0  0  0  0  0  0  0  0  0  0
  -26.2298  -12.6838   19.1757 C   0  0  0  0  0  0  0  0  0  0  0  0
  -26.9702  -28.4527   19.4330 C   0  0  0  0  0  0  0  0  0  0  0  0
  -23.4547  -10.1048   20.0424 C   0  0  0  0  0  0  0  0  0  0  0  0
  -22.2873   -9.4283   20.3962 C   0  0  0  0  0  0  0  0  0  0  0  0
  -26.0220  -26.7347   20.8360 C   0  0  0  0  0  0  0  0  0  0  0  0
  -27.5487  -23.2431   13.6978 C   0  0  0  0  0  0  0  0  0  0  0  0
  -29.3231  -23.6443   15.2878 C   0  0  0  0  0  0  0  0  0  0  0  0
  -23.2607   -8.8670   22.5350 C   0  0  0  0  0  0  0  0  0  0  0  0
  -25.3741  -14.8803   19.7051 C   0  0  0  0  0  0  0  0  0  0  0  0
  -26.1141  -17.3178   19.8423 C   0  0  0  0  0  0  0  0  0  0  0  0
  -21.2039  -33.8995   23.7617 C   0  0  0  0  0  0  0  0  0  0  0  0
  -24.6295  -28.5600   20.0688 C   0  0  0  0  0  0  0  0  0  0  0  0
  -22.3128  -33.1176   23.3856 C   0  0  0  0  0  0  0  0  0  0  0  0
  -24.7697  -27.3662   20.7907 C   0  0  0  0  0  0  0  0  0  0  0  0
  -26.6371  -23.1195   14.7463 C   0  0  0  0  0  0  0  0  0  0  0  0
  -27.0685  -23.2583   16.0655 C   0  0  0  0  0  0  0  0  0  0  0  0
  -28.4114  -23.5207   16.3363 C   0  0  0  0  0  0  0  0  0  0  0  0
  -28.8917  -23.5054   13.9686 C   0  0  0  0  0  0  0  0  0  0  0  0
  -25.5815  -12.1616   20.2950 C   0  0  0  0  0  0  0  0  0  0  0  0
  -27.1164  -27.2762   20.1621 C   0  0  0  0  0  0  0  0  0  0  0  0
  -24.5251  -10.1624   20.9350 C   0  0  0  0  0  0  0  0  0  0  0  0
  -22.1903   -8.8094   21.6424 C   0  0  0  0  0  0  0  0  0  0  0  0
  -24.4281   -9.5435   22.1813 C   0  0  0  0  0  0  0  0  0  0  0  0
  -25.2669  -16.2843   19.3995 C   0  0  0  0  0  0  0  0  0  0  0  0
  -25.5903  -18.4559   19.2795 C   0  0  0  0  0  0  0  0  0  0  0  0
  -27.2711  -17.2545   20.6866 C   0  0  0  0  0  0  0  0  0  0  0  0
  -22.7505  -29.5774   22.4221 C   0  0  0  0  0  0  0  0  0  0  0  0
  -21.1029  -26.8639   21.7553 C   0  0  0  0  0  0  0  0  0  0  0  0
  -21.1207  -23.7100   20.4517 C   0  0  0  0  0  0  0  0  0  0  0  0
  -23.4278  -21.1739   14.9113 C   0  0  0  0  0  0  0  0  0  0  0  0
  -20.0951  -33.3429   24.6192 C   0  0  0  0  0  0  0  0  0  0  0  0
  -23.2934  -29.2456   19.9826 C   0  0  0  0  0  0  0  0  0  0  0  0
  -23.6128  -26.7448   21.5282 C   0  0  0  0  0  0  0  0  0  0  0  0
  -20.0620  -31.8172   24.6576 C   0  0  0  0  0  0  0  0  0  0  0  0
  -21.1988  -19.2269   16.8906 C   0  0  0  0  0  0  0  0  0  0  0  0
  -21.4621  -31.2586   24.8911 C   0  0  0  0  0  0  0  0  0  0  0  0
  -22.1281  -18.3691   17.7513 C   0  0  0  0  0  0  0  0  0  0  0  0
  -29.6136  -23.1310   19.8000 C   0  0  0  0  0  0  0  0  0  0  0  0
  -21.7614  -19.4334   15.4860 C   0  0  0  0  0  0  0  0  0  0  0  0
  -28.7498  -22.6185   18.6496 C   0  0  0  0  0  0  0  0  0  0  0  0
  -29.5039  -24.8653   18.1515 C   0  0  0  0  0  0  0  0  0  0  0  0
  -24.0643  -19.1107   16.3021 C   0  0  0  0  0  0  0  0  0  0  0  0
  -22.4103  -31.6526   23.7521 C   0  0  1  0  0  0  0  0  0  0  0  0
  -22.3653  -28.8933   21.1410 C   0  0  1  0  0  0  0  0  0  0  0  0
  -29.5478  -24.6520   19.6706 C   0  0  1  0  0  0  0  0  0  0  0  0
  -23.5663  -18.9212   17.7452 C   0  0  2  0  0  0  0  0  0  0  0  0
  -26.0871  -23.1244   17.1873 C   0  0  0  0  0  0  0  0  0  0  0  0
  -19.6340  -21.7222   20.0835 C   0  0  0  0  0  0  0  0  0  0  0  0
  -21.3372  -26.1442   24.7112 C   0  0  0  0  0  0  0  0  0  0  0  0
  -20.7088  -23.7946   24.1173 C   0  0  0  0  0  0  0  0  0  0  0  0
  -19.1054  -25.6579   23.6928 C   0  0  0  0  0  0  0  0  0  0  0  0
  -21.4463  -23.8646   17.5141 C   0  0  0  0  0  0  0  0  0  0  0  0
  -25.2049  -22.8378   14.4291 C   0  0  0  0  0  0  0  0  0  0  0  0
  -28.3167  -25.2331   20.3643 C   0  0  0  0  0  0  0  0  0  1  0  0
  -21.1591  -25.4337   22.2354 C   0  0  1  0  0  0  0  0  0  0  0  0
  -20.1765  -23.0126   19.4891 C   0  0  2  0  0  0  0  0  0  0  0  0
  -20.6001  -25.2701   23.6769 C   0  0  0  0  0  0  0  0  0  0  0  0
  -24.2797  -16.7268   18.6161 N   0  0  0  0  0  0  0  0  0  0  0  0
  -24.5034  -18.0509   18.5622 N   0  0  0  0  0  0  0  0  0  0  0  0
  -28.8568  -23.6613   17.6340 N   0  0  3  0  0  0  0  0  0  0  0  0
  -22.3284  -27.4561   21.4187 N   0  0  0  0  0  0  0  0  0  0  0  0
  -23.1269  -19.9599   15.5506 N   0  0  0  0  0  0  0  0  0  0  0  0
  -29.8133  -23.6306   12.9081 N   0  0  0  0  0  0  0  0  0  0  0  0
  -25.9581  -19.7537   19.3334 N   0  0  0  0  0  0  0  0  0  0  0  0
  -27.6717  -16.0048   21.1786 N   0  0  0  0  0  0  0  0  0  0  0  0
  -22.1760  -30.8229   22.5897 N   0  0  0  0  0  0  0  0  0  0  0  0
  -20.4624  -24.6381   21.2304 N   0  0  0  0  0  0  0  0  0  0  0  0
  -24.7438  -21.6046   15.0269 N   0  0  0  0  0  0  0  0  0  0  0  0
  -20.8820  -22.6843   18.2180 N   0  3  0  0  0  0  0  0  0  0  0  0
  -27.9206  -18.2781   21.0090 O   0  0  0  0  0  0  0  0  0  0  0  0
  -23.5114  -29.0161   23.2017 O   0  0  0  0  0  0  0  0  0  0  0  0
  -20.0111  -27.4323   21.6748 O   0  0  0  0  0  0  0  0  0  0  0  0
  -22.3215  -23.4542   20.5097 O   0  0  0  0  0  0  0  0  0  0  0  0
  -22.5847  -21.8283   14.2885 O   0  0  0  0  0  0  0  0  0  0  0  0
  -25.6831  -10.8351   20.5826 O   0  0  0  0  0  0  0  0  0  0  0  0
  -28.3246  -26.6521   20.2134 O   0  0  0  0  0  0  0  0  0  1  0  0
  -21.0686   -8.1611   21.9826 F   0  0  0  0  0  0  0  0  0  0  0  0
  -25.4527   -9.5965   23.0434 F   0  0  0  0  0  0  0  0  0  0  0  0
  1  2  1  0  0  0  0
  1  5  2  0  0  0  0
  2  6  2  0  0  0  0
  3  8  2  0  0  0  0
  3 17  1  0  0  0  0
  4  9  1  0  0  0  0
  4 17  2  0  0  0  0
  5 19  1  0  0  0  0
  6 21  1  0  0  0  0
  7 10  2  0  0  0  0
  7 20  1  0  0  0  0
  8 27  1  0  0  0  0
  9 27  2  0  0  0  0
 10 28  1  0  0  0  0
 11 12  2  0  0  0  0
 11 29  1  0  0  0  0
 12 30  1  0  0  0  0
 13 22  1  0  0  0  0
 13 28  2  0  0  0  0
 14 23  2  0  0  0  0
 14 26  1  0  0  0  0
 15 25  1  0  0  0  0
 15 26  2  0  0  0  0
 16 30  2  0  0  0  0
 16 31  1  0  0  0  0
 17 32  1  0  0  0  0
 18 32  1  0  0  0  0
 18 33  2  0  0  0  0
 18 34  1  0  0  0  0
 19 21  2  0  0  0  0
 19 39  1  0  0  0  0
 20 22  2  0  0  0  0
 20 40  1  0  0  0  0
 21 51  1  0  0  0  0
 22 41  1  0  0  0  0
 23 24  1  0  0  0  0
 23 61  1  0  0  0  0
 24 25  2  0  0  0  0
 24 55  1  0  0  0  0
 25 68  1  0  0  0  0
 26 71  1  0  0  0  0
 27 83  1  0  0  0  0
 28 84  1  0  0  0  0
 29 31  2  0  0  0  0
 29 83  1  0  0  0  0
 30 85  1  0  0  0  0
 31 86  1  0  0  0  0
 32 66  2  0  0  0  0
 33 67  1  0  0  0  0
 33 72  1  0  0  0  0
 34 73  1  0  0  0  0
 34 78  2  0  0  0  0
 35 52  1  0  0  0  0
 35 74  1  0  0  0  0
 35 79  2  0  0  0  0
 36 63  1  0  0  0  0
 36 69  1  0  0  0  0
 36 80  2  0  0  0  0
 37 64  1  0  0  0  0
 37 75  1  0  0  0  0
 37 81  2  0  0  0  0
 38 70  1  0  0  0  0
 38 76  1  0  0  0  0
 38 82  2  0  0  0  0
 39 42  1  0  0  0  0
 40 52  1  0  0  0  0
 41 69  1  0  0  0  0
 42 44  1  0  0  0  0
 43 45  1  0  0  0  0
 43 47  1  0  0  0  0
 44 51  1  0  0  0  0
 45 54  1  0  0  0  0
 46 48  1  0  0  0  0
 46 53  1  0  0  0  0
 47 70  1  0  0  0  0
 48 68  1  0  0  0  0
 49 53  1  0  0  0  0
 49 68  1  0  0  0  0
 50 54  1  0  0  0  0
 50 70  1  0  0  0  0
 51 74  1  0  0  0  0
 52 69  1  0  0  0  0
 53 62  1  0  0  0  0
 54 67  1  0  0  0  0
 56 64  1  0  0  0  0
 57 65  1  0  0  0  0
 58 65  1  0  0  0  0
 59 65  1  0  0  0  0
 60 77  1  0  0  0  0
 61 76  1  0  0  0  0
 62 84  1  0  0  0  0
 63 65  1  0  0  0  0
 63 75  1  0  0  0  0
 64 77  1  0  0  0  0
 66 67  1  0  0  0  0
M  CHG  1  77   1
M  ISO  4  38 100  62 101  76 100  84 101
M  END
> <Batch ID>
0102

> <Smiles>
CNC(C)C(=O)NC(C(=O)N1Cc2cc([101O:1][101CH2:1]C3CCN(c4cc(N)cc(C[100NH:0][100C:0](=O)N5CCCC(n6nc(-c7ccc(Oc8ccc(F)cc8F)cc7)c(C(N)=O)c6N)C5)c4C)C3)ccc2CC1C(=O)NC1CCCc2ccccc21)C(C)(C)C

> <Shape>
0.198

> <Color>
0.085

> <Negative vol penalty>
0.000

$$$$

  -OEChem-04052301022D

  0  0  0     0  0  0  0  0  0999 V2000
M  END
$$$$

  -OEChem-04052301023D

 87 96  0     1  0  0  0  0  0999 V2000
  -34.3619  -11.6076   18.7000 C   0  0  0  0  0  0  0  0  0  0  0  0
  -33.7741  -12.8413   18.4394 C   0  0  0  0  0  0  0  0  0  0  0  0
  -24.7861  -28.8589   22.1742 C   0  0  0  0  0  0  0  0  0  0  0  0
  -24.5403  -30.4813   20.4009 C   0  0  0  0  0  0  0  0  0  0  0  0
  -33.5981  -10.4434   18.6264 C   0  0  0  0  0  0  0  0  0  0  0  0
  -32.4224  -12.9115   18.1041 C   0  0  0  0  0  0  0  0  0  0  0  0
  -28.4875  -17.3634   19.5882 C   0  0  0  0  0  0  0  0  0  0  0  0
  -26.6440  -22.3119   20.2026 C   0  0  0  0  0  0  0  0  0  0  0  0
  -27.9347  -22.7484   20.5010 C   0  0  0  0  0  0  0  0  0  0  0  0
  -24.3785  -29.8145   23.1050 C   0  0  0  0  0  0  0  0  0  0  0  0
  -24.1325  -31.4368   21.3317 C   0  0  0  0  0  0  0  0  0  0  0  0
  -28.0111  -18.4677   18.8830 C   0  0  0  0  0  0  0  0  0  0  0  0
  -21.4728  -31.1886   24.1546 C   0  0  0  0  0  0  0  0  0  0  0  0
  -20.5402  -30.8001   25.1163 C   0  0  0  0  0  0  0  0  0  0  0  0
  -26.0587  -17.2061   18.2383 C   0  0  0  0  0  0  0  0  0  0  0  0
  -27.0854  -22.6168   17.8469 C   0  0  0  0  0  0  0  0  0  0  0  0
  -22.1200  -31.3348   26.8643 C   0  0  0  0  0  0  0  0  0  0  0  0
  -24.8671  -29.1923   20.8222 C   0  0  0  0  0  0  0  0  0  0  0  0
  -24.4705  -27.3065   19.1507 C   0  0  0  0  0  0  0  0  0  0  0  0
  -32.2341  -10.5003   18.2994 C   0  0  0  0  0  0  0  0  0  0  0  0
  -27.7571  -16.1667   19.6147 C   0  0  0  0  0  0  0  0  0  0  0  0
  -31.6401  -11.7469   18.0248 C   0  0  0  0  0  0  0  0  0  0  0  0
  -26.5268  -16.0889   18.9467 C   0  0  0  0  0  0  0  0  0  0  0  0
  -26.2193  -22.2460   18.8756 C   0  0  0  0  0  0  0  0  0  0  0  0
  -28.8007  -23.1193   19.4724 C   0  0  0  0  0  0  0  0  0  0  0  0
  -24.0517  -31.1034   22.6837 C   0  0  0  0  0  0  0  0  0  0  0  0
  -26.7979  -18.3883   18.2055 C   0  0  0  0  0  0  0  0  0  0  0  0
  -22.7291  -31.6500   24.5477 C   0  0  0  0  0  0  0  0  0  0  0  0
  -20.8638  -30.8733   26.4712 C   0  0  0  0  0  0  0  0  0  0  0  0
  -28.3761  -23.0535   18.1453 C   0  0  0  0  0  0  0  0  0  0  0  0
  -23.0527  -31.7232   25.9025 C   0  0  0  0  0  0  0  0  0  0  0  0
  -25.2887  -28.2058   19.8603 C   0  0  0  0  0  0  0  0  0  0  0  0
  -25.3447  -26.5886   18.3716 C   0  0  0  0  0  0  0  0  0  0  0  0
  -23.7534  -21.9497   19.3859 C   0  0  0  0  0  0  0  0  0  0  0  0
  -23.0476  -27.1353   19.1920 C   0  0  0  0  0  0  0  0  0  0  0  0
  -28.2944  -13.1888   18.6414 C   0  0  0  0  0  0  0  0  0  0  0  0
  -25.4702  -12.6079   20.1277 C   0  0  0  0  0  0  0  0  0  0  0  0
  -22.4852  -13.8206   21.2528 C   0  0  0  0  0  0  0  0  0  0  0  0
  -30.8417  -24.4960   18.9926 C   0  0  0  0  0  0  0  0  0  0  0  0
  -31.4605   -9.2106   18.1859 C   0  0  0  0  0  0  0  0  0  0  0  0
  -28.2719  -14.9930   20.4022 C   0  0  0  0  0  0  0  0  0  0  0  0
  -25.6946  -14.8336   18.9609 C   0  0  0  0  0  0  0  0  0  0  0  0
  -22.5817  -21.3456   18.6487 C   0  0  0  0  0  0  0  0  0  0  0  0
  -29.9465   -9.4061   18.1905 C   0  0  0  0  0  0  0  0  0  0  0  0
  -23.0585  -21.2939   17.2096 C   0  0  0  0  0  0  0  0  0  0  0  0
  -29.9405  -27.2631   16.7070 C   0  0  0  0  0  0  0  0  0  0  0  0
  -29.5511  -10.5342   17.2429 C   0  0  0  0  0  0  0  0  0  0  0  0
  -28.6125  -27.7563   17.2785 C   0  0  0  0  0  0  0  0  0  0  0  0
  -30.8312  -26.6561   17.7868 C   0  0  0  0  0  0  0  0  0  0  0  0
  -28.8385  -26.0545   19.1317 C   0  0  0  0  0  0  0  0  0  0  0  0
  -30.1709  -11.8663   17.6820 C   0  0  1  0  0  0  0  0  0  0  0  0
  -27.6938  -13.6606   19.9354 C   0  0  1  0  0  0  0  0  0  0  0  0
  -27.9066  -26.6337   18.0568 C   0  0  1  0  0  0  0  0  0  0  0  0
  -24.5645  -21.0916   17.3343 C   0  0  2  0  0  0  0  0  0  0  0  0
  -31.4581  -21.5533   20.2811 C   0  0  0  0  0  0  0  0  0  0  0  0
  -20.3690  -13.0984   22.3920 C   0  0  0  0  0  0  0  0  0  0  0  0
  -24.5040  -11.3420   17.5250 C   0  0  0  0  0  0  0  0  0  0  0  0
  -22.1620  -11.5112   18.3935 C   0  0  0  0  0  0  0  0  0  0  0  0
  -23.8378  -10.1078   19.5956 C   0  0  0  0  0  0  0  0  0  0  0  0
  -22.9632  -15.6321   23.5439 C   0  0  0  0  0  0  0  0  0  0  0  0
  -24.9146  -19.6038   17.4108 C   0  0  0  0  0  0  0  0  0  1  0  0
  -30.8789  -22.8484   20.8135 C   0  0  0  0  0  0  0  0  0  0  0  0
  -24.0193  -12.6269   19.7113 C   0  0  1  0  0  0  0  0  0  0  0  0
  -21.7694  -13.6603   22.5819 C   0  0  2  0  0  0  0  0  0  0  0  0
  -23.6471  -11.4202   18.8043 C   0  0  0  0  0  0  0  0  0  0  0  0
  -26.5831  -28.0733   19.5589 N   0  0  0  0  0  0  0  0  0  0  0  0
  -26.5850  -27.0821   18.6513 N   0  0  0  0  0  0  0  0  0  0  0  0
  -24.8940  -21.7984   18.5690 N   0  0  0  0  0  0  0  0  0  0  0  0
  -26.2435  -13.7112   19.7396 N   0  0  0  0  0  0  0  0  0  0  0  0
  -30.1267  -25.6312   18.5587 N   0  0  0  0  0  0  0  0  0  0  0  0
  -25.1657  -25.5896   17.4814 N   0  0  0  0  0  0  0  0  0  0  0  0
  -22.3005  -27.9562   20.0477 N   0  0  0  0  0  0  0  0  0  0  0  0
  -29.4344  -12.4235   18.7963 N   0  0  0  0  0  0  0  0  0  0  0  0
  -23.2422  -12.7105   20.9432 N   0  0  0  0  0  0  0  0  0  0  0  0
  -30.1347  -23.5709   19.7842 N   0  0  0  0  0  0  0  0  0  0  0  0
  -21.6582  -14.9762   23.2724 N   0  3  0  0  0  0  0  0  0  0  0  0
  -23.6397  -22.4333   20.5030 O   0  0  0  0  0  0  0  0  0  0  0  0
  -22.4579  -26.2686   18.5031 O   0  0  0  0  0  0  0  0  0  0  0  0
  -27.7620  -13.4951   17.5810 O   0  0  0  0  0  0  0  0  0  0  0  0
  -25.8999  -11.6529   20.7795 O   0  0  0  0  0  0  0  0  0  0  0  0
  -22.3802  -14.8282   20.5570 O   0  0  0  0  0  0  0  0  0  0  0  0
  -32.0431  -24.3432   18.7396 O   0  0  0  0  0  0  0  0  0  0  0  0
  -23.6536  -32.0360   23.5917 O   0  0  0  0  0  0  0  0  0  0  0  0
  -26.3309  -19.4645   17.5159 O   0  0  0  0  0  0  0  0  0  1  0  0
  -19.9675  -30.5017   27.3947 F   0  0  0  0  0  0  0  0  0  0  0  0
  -29.1994  -23.4089   17.1486 F   0  0  0  0  0  0  0  0  0  0  0  0
  -24.2575  -32.1669   26.2862 F   0  0  0  0  0  0  0  0  0  0  0  0
  1  2  1  0  0  0  0
  1  5  2  0  0  0  0
  2  6  2  0  0  0  0
  3 10  2  0  0  0  0
  3 18  1  0  0  0  0
  4 11  1  0  0  0  0
  4 18  2  0  0  0  0
  5 20  1  0  0  0  0
  6 22  1  0  0  0  0
  7 12  2  0  0  0  0
  7 21  1  0  0  0  0
  8  9  2  0  0  0  0
  8 24  1  0  0  0  0
  9 25  1  0  0  0  0
 10 26  1  0  0  0  0
 11 26  2  0  0  0  0
 12 27  1  0  0  0  0
 13 14  2  0  0  0  0
 13 28  1  0  0  0  0
 14 29  1  0  0  0  0
 15 23  1  0  0  0  0
 15 27  2  0  0  0  0
 16 24  2  0  0  0  0
 16 30  1  0  0  0  0
 17 29  2  0  0  0  0
 17 31  1  0  0  0  0
 18 32  1  0  0  0  0
 19 32  1  0  0  0  0
 19 33  2  0  0  0  0
 19 35  1  0  0  0  0
 20 22  2  0  0  0  0
 20 40  1  0  0  0  0
 21 23  2  0  0  0  0
 21 41  1  0  0  0  0
 22 51  1  0  0  0  0
 23 42  1  0  0  0  0
 24 68  1  0  0  0  0
 25 30  2  0  0  0  0
 25 75  1  0  0  0  0
 26 83  1  0  0  0  0
 27 84  1  0  0  0  0
 28 31  2  0  0  0  0
 28 83  1  0  0  0  0
 29 85  1  0  0  0  0
 30 86  1  0  0  0  0
 31 87  1  0  0  0  0
 32 66  2  0  0  0  0
 33 67  1  0  0  0  0
 33 71  1  0  0  0  0
 34 43  1  0  0  0  0
 34 68  1  0  0  0  0
 34 77  2  0  0  0  0
 35 72  1  0  0  0  0
 35 78  2  0  0  0  0
 36 52  1  0  0  0  0
 36 73  1  0  0  0  0
 36 79  2  0  0  0  0
 37 63  1  0  0  0  0
 37 69  1  0  0  0  0
 37 80  2  0  0  0  0
 38 64  1  0  0  0  0
 38 74  1  0  0  0  0
 38 81  2  0  0  0  0
 39 70  1  0  0  0  0
 39 75  1  0  0  0  0
 39 82  2  0  0  0  0
 40 44  1  0  0  0  0
 41 52  1  0  0  0  0
 42 69  1  0  0  0  0
 43 45  1  0  0  0  0
 44 47  1  0  0  0  0
 45 54  1  0  0  0  0
 46 48  1  0  0  0  0
 46 49  1  0  0  0  0
 47 51  1  0  0  0  0
 48 53  1  0  0  0  0
 49 70  1  0  0  0  0
 50 53  1  0  0  0  0
 50 70  1  0  0  0  0
 51 73  1  0  0  0  0
 52 69  1  0  0  0  0
 53 67  1  0  0  0  0
 54 61  1  0  0  0  0
 54 68  1  0  0  0  0
 55 62  1  0  0  0  0
 56 64  1  0  0  0  0
 57 65  1  0  0  0  0
 58 65  1  0  0  0  0
 59 65  1  0  0  0  0
 60 76  1  0  0  0  0
 61 84  1  0  0  0  0
 62 75  1  0  0  0  0
 63 65  1  0  0  0  0
 63 74  1  0  0  0  0
 64 76  1  0  0  0  0
 66 67  1  0  0  0  0
M  CHG  1  76   1
M  ISO  4  39 100  61 101  75 100  84 101
M  END
> <Batch ID>
0102

> <Smiles>
CC[100N:0](c1ccc(N2C(=O)CCC2[101CH2:1][101O:1]c2ccc3c(c2)CN(C(=O)C(NC(=O)C(C)NC)C(C)(C)C)C(C(=O)NC2CCCc4ccccc42)C3)cc1F)[100C:0](=O)N1CCCC(n2nc(-c3ccc(Oc4ccc(F)cc4F)cc3)c(C(N)=O)c2N)C1

> <Shape>
0.226

> <Color>
0.071

> <Negative vol penalty>
0.000

$$$$

  -OEChem-04052301023D

 86 95  0     1  0  0  0  0  0999 V2000
  -27.0781  -38.0261   25.4968 C   0  0  0  0  0  0  0  0  0  0  0  0
  -27.1675  -36.8738   26.2712 C   0  0  0  0  0  0  0  0  0  0  0  0
  -22.7918  -11.2756   21.5471 C   0  0  0  0  0  0  0  0  0  0  0  0
  -24.3269   -9.4164   21.7024 C   0  0  0  0  0  0  0  0  0  0  0  0
  -26.1816  -38.0800   24.4303 C   0  0  0  0  0  0  0  0  0  0  0  0
  -26.3596  -35.7751   25.9802 C   0  0  0  0  0  0  0  0  0  0  0  0
  -29.2433  -29.3586   24.4299 C   0  0  0  0  0  0  0  0  0  0  0  0
  -28.5161  -19.3135   21.7271 C   0  0  0  0  0  0  0  0  0  0  0  0
  -28.3522  -17.9560   21.4514 C   0  0  0  0  0  0  0  0  0  0  0  0
  -22.0007  -10.7059   22.5446 C   0  0  0  0  0  0  0  0  0  0  0  0
  -23.5358   -8.8467   22.7001 C   0  0  0  0  0  0  0  0  0  0  0  0
  -29.7135  -28.0489   24.3305 C   0  0  0  0  0  0  0  0  0  0  0  0
  -20.6640   -7.0728   22.8930 C   0  0  0  0  0  0  0  0  0  0  0  0
  -20.3923   -5.7076   22.8039 C   0  0  0  0  0  0  0  0  0  0  0  0
  -27.4597  -27.2569   23.9549 C   0  0  0  0  0  0  0  0  0  0  0  0
  -30.7207  -17.7581   21.0177 C   0  0  0  0  0  0  0  0  0  0  0  0
  -21.4577   -5.3558   24.9436 C   0  0  0  0  0  0  0  0  0  0  0  0
  -23.9549  -10.6309   21.1259 C   0  0  0  0  0  0  0  0  0  0  0  0
  -24.3886  -11.5200   18.7745 C   0  0  0  0  0  0  0  0  0  0  0  0
  -25.3692  -36.9780   24.1202 C   0  0  0  0  0  0  0  0  0  0  0  0
  -27.8798  -29.6245   24.2766 C   0  0  0  0  0  0  0  0  0  0  0  0
  -25.4504  -35.8149   24.9095 C   0  0  0  0  0  0  0  0  0  0  0  0
  -26.9845  -28.5682   24.0410 C   0  0  0  0  0  0  0  0  0  0  0  0
  -30.8846  -19.1156   21.2933 C   0  0  0  0  0  0  0  0  0  0  0  0
  -29.7823  -19.8933   21.6480 C   0  0  0  0  0  0  0  0  0  0  0  0
  -29.4545  -17.1783   21.0968 C   0  0  0  0  0  0  0  0  0  0  0  0
  -22.3727   -9.4914   23.1211 C   0  0  0  0  0  0  0  0  0  0  0  0
  -28.8239  -27.0007   24.0938 C   0  0  0  0  0  0  0  0  0  0  0  0
  -21.3327   -7.5795   24.0074 C   0  0  0  0  0  0  0  0  0  0  0  0
  -20.7891   -4.8491   23.8292 C   0  0  0  0  0  0  0  0  0  0  0  0
  -21.7296   -6.7210   25.0327 C   0  0  0  0  0  0  0  0  0  0  0  0
  -24.7722  -11.2187   20.0951 C   0  0  0  0  0  0  0  0  0  0  0  0
  -25.5159  -12.0586   18.2040 C   0  0  0  0  0  0  0  0  0  0  0  0
  -30.1257  -24.0337   22.5407 C   0  0  0  0  0  0  0  0  0  0  0  0
  -29.6542  -25.2694   22.7575 C   0  0  0  0  0  0  0  0  0  1  0  0
  -23.1262  -11.3300   18.1220 C   0  0  0  0  0  0  0  0  0  0  0  0
  -25.1543  -32.2015   24.1961 C   0  0  0  0  0  0  0  0  0  0  0  0
  -24.5469  -30.1920   21.9593 C   0  0  0  0  0  0  0  0  0  0  0  0
  -24.4655  -28.0012   19.3457 C   0  0  0  0  0  0  0  0  0  0  0  0
  -30.2762  -14.8860   20.4513 C   0  0  0  0  0  0  0  0  0  0  0  0
  -24.3815  -37.1003   22.9870 C   0  0  0  0  0  0  0  0  0  0  0  0
  -27.3209  -31.0122   24.4370 C   0  0  0  0  0  0  0  0  0  0  0  0
  -25.5219  -28.8973   23.9173 C   0  0  0  0  0  0  0  0  0  0  0  0
  -30.5241  -23.5388   21.1794 C   0  0  0  0  0  0  0  0  0  0  0  0
  -30.2797  -23.0143   23.6337 C   0  0  0  0  0  0  0  0  0  0  0  0
  -23.8287  -35.7586   22.5133 C   0  0  0  0  0  0  0  0  0  0  0  0
  -30.2940  -11.9130   18.4923 C   0  0  0  0  0  0  0  0  0  0  0  0
  -23.4101  -34.9031   23.7048 C   0  0  0  0  0  0  0  0  0  0  0  0
  -28.8438  -11.4282   18.5558 C   0  0  0  0  0  0  0  0  0  0  0  0
  -29.8004  -22.2344   20.8360 C   0  0  0  0  0  0  0  0  0  0  0  0
  -29.5516  -21.7178   23.2745 C   0  0  0  0  0  0  0  0  0  0  0  0
  -30.7442  -12.5299   19.8154 C   0  0  0  0  0  0  0  0  0  0  0  0
  -28.4209  -13.1054   20.3985 C   0  0  0  0  0  0  0  0  0  0  0  0
  -24.6086  -34.5936   24.6099 C   0  0  1  0  0  0  0  0  0  0  0  0
  -26.1291  -31.2943   23.5047 C   0  0  1  0  0  0  0  0  0  0  0  0
  -27.9016  -12.5350   19.0686 C   0  0  2  0  0  0  0  0  0  0  0  0
  -23.1071  -27.3961   17.3243 C   0  0  0  0  0  0  0  0  0  0  0  0
  -22.4784  -28.8506   23.7554 C   0  0  0  0  0  0  0  0  0  0  0  0
  -21.7334  -27.5102   21.7764 C   0  0  0  0  0  0  0  0  0  0  0  0
  -21.5289  -29.9961   21.7453 C   0  0  0  0  0  0  0  0  0  0  0  0
  -26.7208  -28.5713   17.5160 C   0  0  0  0  0  0  0  0  0  0  0  0
  -32.2516  -19.7115   21.1997 C   0  0  0  0  0  0  0  0  0  0  0  0
  -23.8168  -28.9381   21.5493 C   0  0  1  0  0  0  0  0  0  0  0  0
  -24.2717  -28.2172   17.8556 C   0  0  2  0  0  0  0  0  0  0  0  0
  -22.4165  -28.8230   22.2152 C   0  0  0  0  0  0  0  0  0  0  0  0
  -26.0439  -11.5391   20.3485 N   0  0  0  0  0  0  0  0  0  0  0  0
  -26.4692  -12.0473   19.1793 N   0  0  0  0  0  0  0  0  0  0  0  0
  -29.9282  -21.2579   21.9273 N   0  0  0  0  0  0  0  0  0  0  0  0
  -25.3471  -30.1118   23.1055 N   0  0  0  0  0  0  0  0  0  0  0  0
  -29.8065  -13.5730   20.2366 N   0  0  0  0  0  0  0  0  0  0  0  0
  -25.7749  -12.5359   16.9680 N   0  0  0  0  0  0  0  0  0  0  0  0
  -22.0740  -10.7635   18.8544 N   0  0  0  0  0  0  0  0  0  0  0  0
  -29.2879  -15.7992   20.8174 N   0  0  0  0  0  0  0  0  0  0  0  0
  -25.4227  -33.5468   24.0302 N   0  0  0  0  0  0  0  0  0  0  0  0
  -23.7863  -28.9420   20.0907 N   0  0  0  0  0  0  0  0  0  0  0  0
  -33.0079  -19.6524   22.4797 N   0  3  0  0  0  0  0  0  0  0  0  0
  -25.5016  -27.8251   17.1111 N   0  3  0  0  0  0  0  0  0  0  0  0
  -22.9415  -11.6380   16.9201 O   0  0  0  0  0  0  0  0  0  0  0  0
  -24.2254  -31.7178   24.8325 O   0  0  0  0  0  0  0  0  0  0  0  0
  -24.4087  -31.2176   21.2868 O   0  0  0  0  0  0  0  0  0  0  0  0
  -25.1478  -27.0870   19.8030 O   0  0  0  0  0  0  0  0  0  0  0  0
  -31.4627  -15.1847   20.2937 O   0  0  0  0  0  0  0  0  0  0  0  0
  -21.6011   -8.9353   24.0948 O   0  0  0  0  0  0  0  0  0  0  0  0
  -29.2902  -25.7251   23.9935 O   0  0  0  0  0  0  0  0  0  1  0  0
  -20.5266   -3.5383   23.7442 F   0  0  0  0  0  0  0  0  0  0  0  0
  -22.3712   -7.2022   26.1062 F   0  0  0  0  0  0  0  0  0  0  0  0
  1  2  1  0  0  0  0
  1  5  2  0  0  0  0
  2  6  2  0  0  0  0
  3 10  2  0  0  0  0
  3 18  1  0  0  0  0
  4 11  1  0  0  0  0
  4 18  2  0  0  0  0
  5 20  1  0  0  0  0
  6 22  1  0  0  0  0
  7 12  2  0  0  0  0
  7 21  1  0  0  0  0
  8  9  2  0  0  0  0
  8 25  1  0  0  0  0
  9 26  1  0  0  0  0
 10 27  1  0  0  0  0
 11 27  2  0  0  0  0
 12 28  1  0  0  0  0
 13 14  2  0  0  0  0
 13 29  1  0  0  0  0
 14 30  1  0  0  0  0
 15 23  1  0  0  0  0
 15 28  2  0  0  0  0
 16 24  1  0  0  0  0
 16 26  2  0  0  0  0
 17 30  2  0  0  0  0
 17 31  1  0  0  0  0
 18 32  1  0  0  0  0
 19 32  1  0  0  0  0
 19 33  2  0  0  0  0
 19 36  1  0  0  0  0
 20 22  2  0  0  0  0
 20 41  1  0  0  0  0
 21 23  2  0  0  0  0
 21 42  1  0  0  0  0
 22 54  1  0  0  0  0
 23 43  1  0  0  0  0
 24 25  2  0  0  0  0
 24 62  1  0  0  0  0
 25 68  1  0  0  0  0
 26 73  1  0  0  0  0
 27 83  1  0  0  0  0
 28 84  1  0  0  0  0
 29 31  2  0  0  0  0
 29 83  1  0  0  0  0
 30 85  1  0  0  0  0
 31 86  1  0  0  0  0
 32 66  2  0  0  0  0
 33 67  1  0  0  0  0
 33 71  1  0  0  0  0
 34 35  2  0  0  0  0
 34 44  1  0  0  0  0
 34 45  1  0  0  0  0
 35 84  1  0  0  0  0
 36 72  1  0  0  0  0
 36 78  2  0  0  0  0
 37 55  1  0  0  0  0
 37 74  1  0  0  0  0
 37 79  2  0  0  0  0
 38 63  1  0  0  0  0
 38 69  1  0  0  0  0
 38 80  2  0  0  0  0
 39 64  1  0  0  0  0
 39 75  1  0  0  0  0
 39 81  2  0  0  0  0
 40 70  1  0  0  0  0
 40 73  1  0  0  0  0
 40 82  2  0  0  0  0
 41 46  1  0  0  0  0
 42 55  1  0  0  0  0
 43 69  1  0  0  0  0
 44 50  1  0  0  0  0
 45 51  1  0  0  0  0
 46 48  1  0  0  0  0
 47 49  1  0  0  0  0
 47 52  1  0  0  0  0
 48 54  1  0  0  0  0
 49 56  1  0  0  0  0
 50 68  1  0  0  0  0
 51 68  1  0  0  0  0
 52 70  1  0  0  0  0
 53 56  1  0  0  0  0
 53 70  1  0  0  0  0
 54 74  1  0  0  0  0
 55 69  1  0  0  0  0
 56 67  1  0  0  0  0
 57 64  1  0  0  0  0
 58 65  1  0  0  0  0
 59 65  1  0  0  0  0
 60 65  1  0  0  0  0
 61 77  1  0  0  0  0
 62 76  1  0  0  0  0
 63 65  1  0  0  0  0
 63 75  1  0  0  0  0
 64 77  1  0  0  0  0
 66 67  1  0  0  0  0
M  CHG  2  76   1  77   1
M  ISO  4  35 101  40 100  73 100  84 101
M  END
> <Batch ID>
0102

> <Smiles>
CNC(C)C(=O)NC(C(=O)N1Cc2cc([101O:1][101CH:1]=C3CCN(c4ccc([100NH:0][100C:0](=O)N5CCCC(n6nc(-c7ccc(Oc8ccc(F)cc8F)cc7)c(C(N)=O)c6N)C5)cc4CN)CC3)ccc2CC1C(=O)NC1CCCc2ccccc21)C(C)(C)C

> <Shape>
0.328

> <Color>
0.074

> <Negative vol penalty>
0.000

$$$$

  -OEChem-04052301023D

 86 95  0     1  0  0  0  0  0999 V2000
  -20.3449  -27.3231   13.0424 C   0  0  0  0  0  0  0  0  0  0  0  0
  -21.3113  -26.6435   13.7769 C   0  0  0  0  0  0  0  0  0  0  0  0
  -23.0714   -9.8709   19.9429 C   0  0  0  0  0  0  0  0  0  0  0  0
  -23.8342   -9.8781   22.2354 C   0  0  0  0  0  0  0  0  0  0  0  0
  -19.0010  -26.9744   13.1698 C   0  0  0  0  0  0  0  0  0  0  0  0
  -20.9341  -25.6154   14.6402 C   0  0  0  0  0  0  0  0  0  0  0  0
  -23.9207  -21.5457   14.2365 C   0  0  0  0  0  0  0  0  0  0  0  0
  -29.8858  -18.3019   20.0517 C   0  0  0  0  0  0  0  0  0  0  0  0
  -29.2157  -19.4392   19.6012 C   0  0  0  0  0  0  0  0  0  0  0  0
  -22.3275   -8.7180   20.1941 C   0  0  0  0  0  0  0  0  0  0  0  0
  -23.0902   -8.7253   22.4866 C   0  0  0  0  0  0  0  0  0  0  0  0
  -25.1653  -21.6047   14.8621 C   0  0  0  0  0  0  0  0  0  0  0  0
  -19.3808   -7.9228   21.6493 C   0  0  0  0  0  0  0  0  0  0  0  0
  -18.0733   -7.8769   21.1656 C   0  0  0  0  0  0  0  0  0  0  0  0
  -24.2912  -20.3216   16.7084 C   0  0  0  0  0  0  0  0  0  0  0  0
  -28.9602  -20.1924   21.8825 C   0  0  0  0  0  0  0  0  0  0  0  0
  -18.6307   -5.9333   19.8432 C   0  0  0  0  0  0  0  0  0  0  0  0
  -23.8248  -10.4509   20.9635 C   0  0  0  0  0  0  0  0  0  0  0  0
  -24.1674  -12.9759   20.8425 C   0  0  0  0  0  0  0  0  0  0  0  0
  -18.6081  -25.9351   14.0278 C   0  0  0  0  0  0  0  0  0  0  0  0
  -22.8473  -20.8825   14.8482 C   0  0  0  0  0  0  0  0  0  0  0  0
  -19.5835  -25.2534   14.7802 C   0  0  0  0  0  0  0  0  0  0  0  0
  -23.0348  -20.2535   16.0873 C   0  0  0  0  0  0  0  0  0  0  0  0
  -30.0930  -18.1097   21.4177 C   0  0  0  0  0  0  0  0  0  0  0  0
  -28.7529  -20.3845   20.5165 C   0  0  0  0  0  0  0  0  0  0  0  0
  -22.3368   -8.1453   21.4659 C   0  0  0  0  0  0  0  0  0  0  0  0
  -25.3499  -20.9951   16.0996 C   0  0  0  0  0  0  0  0  0  0  0  0
  -20.3133   -6.9740   21.2298 C   0  0  0  0  0  0  0  0  0  0  0  0
  -17.6982   -6.8821   20.2626 C   0  0  0  0  0  0  0  0  0  0  0  0
  -29.6302  -19.0550   22.3331 C   0  0  0  0  0  0  0  0  0  0  0  0
  -19.9382   -5.9793   20.3268 C   0  0  0  0  0  0  0  0  0  0  0  0
  -24.5940  -11.6414   20.7045 C   0  0  0  0  0  0  0  0  0  0  0  0
  -25.2593  -13.7249   20.4776 C   0  0  0  0  0  0  0  0  0  0  0  0
  -27.5422  -22.5856   20.8602 C   0  0  0  0  0  0  0  0  0  0  0  0
  -22.8976  -13.4923   21.2628 C   0  0  0  0  0  0  0  0  0  0  0  0
  -19.9789  -21.7556   15.9037 C   0  0  0  0  0  0  0  0  0  0  0  0
  -19.6141  -18.5678   16.3800 C   0  0  0  0  0  0  0  0  0  0  0  0
  -21.0793  -15.5293   16.8972 C   0  0  0  0  0  0  0  0  0  0  0  0
  -30.7436  -14.7421   20.6589 C   0  0  0  0  0  0  0  0  0  0  0  0
  -17.1387  -25.6256   14.1678 C   0  0  0  0  0  0  0  0  0  0  0  0
  -21.5184  -20.8049   14.1480 C   0  0  0  0  0  0  0  0  0  0  0  0
  -21.9201  -19.5114   16.7767 C   0  0  0  0  0  0  0  0  0  0  0  0
  -26.9213  -23.6107   19.9409 C   0  0  0  0  0  0  0  0  0  0  0  0
  -16.8604  -24.2749   14.8222 C   0  0  0  0  0  0  0  0  0  0  0  0
  -27.5533  -23.3075   18.5957 C   0  0  0  0  0  0  0  0  0  0  0  0
  -29.6023  -12.3574   18.2741 C   0  0  0  0  0  0  0  0  0  0  0  0
  -17.7253  -24.0959   16.0658 C   0  0  0  0  0  0  0  0  0  0  0  0
  -28.1652  -12.0643   18.7089 C   0  0  0  0  0  0  0  0  0  0  0  0
  -30.5210  -12.5782   19.4738 C   0  0  0  0  0  0  0  0  0  0  0  0
  -28.6212  -13.3103   20.8626 C   0  0  0  0  0  0  0  0  0  0  0  0
  -19.2164  -24.1159   15.7084 C   0  0  1  0  0  0  0  0  0  0  0  0
  -20.3556  -20.5430   15.1002 C   0  0  1  0  0  0  0  0  0  0  0  0
  -27.6455  -13.1357   19.6862 C   0  0  2  0  0  0  0  0  0  0  0  0
  -27.7960  -21.8030   18.6407 C   0  0  2  0  0  0  0  0  0  0  0  0
  -20.5211  -13.1141   17.2880 C   0  0  0  0  0  0  0  0  0  0  0  0
  -18.8552  -19.2125   19.2642 C   0  0  0  0  0  0  0  0  0  0  0  0
  -19.2393  -16.8041   19.8302 C   0  0  0  0  0  0  0  0  0  0  0  0
  -17.4648  -17.4310   18.1929 C   0  0  0  0  0  0  0  0  0  0  0  0
  -22.4842  -14.6856   14.4327 C   0  0  0  0  0  0  0  0  0  0  0  0
  -30.8118  -16.8930   21.8952 C   0  0  0  0  0  0  0  0  0  0  0  0
  -26.5718  -21.0335   18.1395 C   0  0  0  0  0  0  0  0  0  1  0  0
  -19.8945  -17.6181   17.5196 C   0  0  1  0  0  0  0  0  0  0  0  0
  -20.8477  -14.1760   16.2495 C   0  0  2  0  0  0  0  0  0  0  0  0
  -18.8841  -17.7820   18.6899 C   0  0  0  0  0  0  0  0  0  0  0  0
  -25.8583  -11.5451   20.2847 N   0  0  0  0  0  0  0  0  0  0  0  0
  -26.2355  -12.8285   20.1556 N   0  0  0  0  0  0  0  0  0  0  0  0
  -28.0632  -21.5512   20.0541 N   0  0  0  0  0  0  0  0  0  0  0  0
  -20.6377  -19.4691   16.0548 N   0  0  0  0  0  0  0  0  0  0  0  0
  -29.9719  -13.6072   20.3602 N   0  0  0  0  0  0  0  0  0  0  0  0
  -25.4701  -15.0563   20.4040 N   0  0  0  0  0  0  0  0  0  0  0  0
  -21.8858  -12.5835   21.6016 N   0  0  0  0  0  0  0  0  0  0  0  0
  -19.6165  -22.8474   15.1381 N   0  0  0  0  0  0  0  0  0  0  0  0
  -19.9237  -16.2803   16.9382 N   0  0  0  0  0  0  0  0  0  0  0  0
  -30.1459  -15.6714   21.5014 N   0  0  0  0  0  0  0  0  0  0  0  0
  -22.0627  -13.7446   15.5022 N   0  3  0  0  0  0  0  0  0  0  0  0
  -27.5198  -22.7046   22.0767 O   0  0  0  0  0  0  0  0  0  0  0  0
  -22.6618  -14.7230   21.3202 O   0  0  0  0  0  0  0  0  0  0  0  0
  -20.0131  -21.7040   17.1275 O   0  0  0  0  0  0  0  0  0  0  0  0
  -18.5297  -18.5072   15.7953 O   0  0  0  0  0  0  0  0  0  0  0  0
  -22.1749  -15.8831   17.3272 O   0  0  0  0  0  0  0  0  0  0  0  0
  -31.8791  -14.9171   20.2038 O   0  0  0  0  0  0  0  0  0  0  0  0
  -21.6108   -7.0205   21.7114 O   0  0  0  0  0  0  0  0  0  0  0  0
  -26.5635  -21.0517   16.7127 O   0  0  0  0  0  0  0  0  0  1  0  0
  -16.4421   -6.8372   19.7995 F   0  0  0  0  0  0  0  0  0  0  0  0
  -29.8246  -18.8791   23.6475 F   0  0  0  0  0  0  0  0  0  0  0  0
  -20.8293   -5.0643   19.9211 F   0  0  0  0  0  0  0  0  0  0  0  0
  1  2  1  0  0  0  0
  1  5  2  0  0  0  0
  2  6  2  0  0  0  0
  3 10  2  0  0  0  0
  3 18  1  0  0  0  0
  4 11  1  0  0  0  0
  4 18  2  0  0  0  0
  5 20  1  0  0  0  0
  6 22  1  0  0  0  0
  7 12  2  0  0  0  0
  7 21  1  0  0  0  0
  8  9  2  0  0  0  0
  8 24  1  0  0  0  0
  9 25  1  0  0  0  0
 10 26  1  0  0  0  0
 11 26  2  0  0  0  0
 12 27  1  0  0  0  0
 13 14  2  0  0  0  0
 13 28  1  0  0  0  0
 14 29  1  0  0  0  0
 15 23  1  0  0  0  0
 15 27  2  0  0  0  0
 16 25  2  0  0  0  0
 16 30  1  0  0  0  0
 17 29  2  0  0  0  0
 17 31  1  0  0  0  0
 18 32  1  0  0  0  0
 19 32  1  0  0  0  0
 19 33  2  0  0  0  0
 19 35  1  0  0  0  0
 20 22  2  0  0  0  0
 20 40  1  0  0  0  0
 21 23  2  0  0  0  0
 21 41  1  0  0  0  0
 22 51  1  0  0  0  0
 23 42  1  0  0  0  0
 24 30  2  0  0  0  0
 24 60  1  0  0  0  0
 25 67  1  0  0  0  0
 26 82  1  0  0  0  0
 27 83  1  0  0  0  0
 28 31  2  0  0  0  0
 28 82  1  0  0  0  0
 29 84  1  0  0  0  0
 30 85  1  0  0  0  0
 31 86  1  0  0  0  0
 32 65  2  0  0  0  0
 33 66  1  0  0  0  0
 33 70  1  0  0  0  0
 34 43  1  0  0  0  0
 34 67  1  0  0  0  0
 34 76  2  0  0  0  0
 35 71  1  0  0  0  0
 35 77  2  0  0  0  0
 36 52  1  0  0  0  0
 36 72  1  0  0  0  0
 36 78  2  0  0  0  0
 37 62  1  0  0  0  0
 37 68  1  0  0  0  0
 37 79  2  0  0  0  0
 38 63  1  0  0  0  0
 38 73  1  0  0  0  0
 38 80  2  0  0  0  0
 39 69  1  0  0  0  0
 39 74  1  0  0  0  0
 39 81  2  0  0  0  0
 40 44  1  0  0  0  0
 41 52  1  0  0  0  0
 42 68  1  0  0  0  0
 43 45  1  0  0  0  0
 44 47  1  0  0  0  0
 45 54  1  0  0  0  0
 46 48  1  0  0  0  0
 46 49  1  0  0  0  0
 47 51  1  0  0  0  0
 48 53  1  0  0  0  0
 49 69  1  0  0  0  0
 50 53  1  0  0  0  0
 50 69  1  0  0  0  0
 51 72  1  0  0  0  0
 52 68  1  0  0  0  0
 53 66  1  0  0  0  0
 54 61  1  0  0  0  0
 54 67  1  0  0  0  0
 55 63  1  0  0  0  0
 56 64  1  0  0  0  0
 57 64  1  0  0  0  0
 58 64  1  0  0  0  0
 59 75  1  0  0  0  0
 60 74  1  0  0  0  0
 61 83  1  0  0  0  0
 62 64  1  0  0  0  0
 62 73  1  0  0  0  0
 63 75  1  0  0  0  0
 65 66  1  0  0  0  0
M  CHG  1  75   1
M  ISO  4  39 100  61 101  74 100  83 101
M  END
> <Batch ID>
0102

> <Smiles>
CNC(C)C(=O)NC(C(=O)N1Cc2cc([101O:1][101CH2:1]C3CCC(=O)N3c3ccc(C[100NH:0][100C:0](=O)N4CCCC(n5nc(-c6ccc(Oc7ccc(F)cc7F)cc6)c(C(N)=O)c5N)C4)c(F)c3)ccc2CC1C(=O)NC1CCCc2ccccc21)C(C)(C)C

> <Shape>
0.188

> <Color>
0.191

> <Negative vol penalty>
0.000

$$$$

  -OEChem-04052301023D

 86 95  0     1  0  0  0  0  0999 V2000
  -25.8321  -19.2619   27.4161 C   0  0  0  0  0  0  0  0  0  0  0  0
  -25.9695  -20.5987   27.0561 C   0  0  0  0  0  0  0  0  0  0  0  0
  -25.6647  -15.4236   21.6221 C   0  0  0  0  0  0  0  0  0  0  0  0
  -25.1538  -16.1861   19.3872 C   0  0  0  0  0  0  0  0  0  0  0  0
  -24.9577  -18.4373   26.7097 C   0  0  0  0  0  0  0  0  0  0  0  0
  -25.2333  -21.1113   25.9886 C   0  0  0  0  0  0  0  0  0  0  0  0
  -22.9268  -26.7621   25.4839 C   0  0  0  0  0  0  0  0  0  0  0  0
  -27.0632  -26.9766   19.6263 C   0  0  0  0  0  0  0  0  0  0  0  0
  -26.2442  -28.0167   20.0657 C   0  0  0  0  0  0  0  0  0  0  0  0
  -24.4436  -14.7512   21.6719 C   0  0  0  0  0  0  0  0  0  0  0  0
  -23.9327  -15.5136   19.4369 C   0  0  0  0  0  0  0  0  0  0  0  0
  -23.3782  -27.9039   24.8235 C   0  0  0  0  0  0  0  0  0  0  0  0
  -23.1429  -11.8592   20.4982 C   0  0  0  0  0  0  0  0  0  0  0  0
  -23.1401  -10.5566   20.9969 C   0  0  0  0  0  0  0  0  0  0  0  0
  -21.9766  -27.3596   22.9371 C   0  0  0  0  0  0  0  0  0  0  0  0
  -27.8440  -28.5449   21.7973 C   0  0  0  0  0  0  0  0  0  0  0  0
  -21.6171  -11.2301   22.7474 C   0  0  0  0  0  0  0  0  0  0  0  0
  -26.0197  -16.1411   20.4798 C   0  0  0  0  0  0  0  0  0  0  0  0
  -28.5128  -16.3296   19.9733 C   0  0  0  0  0  0  0  0  0  0  0  0
  -24.2031  -18.9424   25.6391 C   0  0  0  0  0  0  0  0  0  0  0  0
  -22.0035  -25.9032   24.8704 C   0  0  0  0  0  0  0  0  0  0  0  0
  -24.3489  -20.2923   25.2663 C   0  0  0  0  0  0  0  0  0  0  0  0
  -21.5131  -26.2089   23.5929 C   0  0  0  0  0  0  0  0  0  0  0  0
  -28.2726  -26.7206   20.2725 C   0  0  0  0  0  0  0  0  0  0  0  0
  -28.6630  -27.5047   21.3580 C   0  0  0  0  0  0  0  0  0  0  0  0
  -26.6346  -28.8009   21.1512 C   0  0  0  0  0  0  0  0  0  0  0  0
  -23.5777  -14.7962   20.5793 C   0  0  0  0  0  0  0  0  0  0  0  0
  -22.9053  -28.2013   23.5487 C   0  0  0  0  0  0  0  0  0  0  0  0
  -22.3829  -12.8473   21.1242 C   0  0  0  0  0  0  0  0  0  0  0  0
  -22.3772  -10.2420   22.1215 C   0  0  0  0  0  0  0  0  0  0  0  0
  -21.6200  -12.5327   22.2487 C   0  0  0  0  0  0  0  0  0  0  0  0
  -27.2807  -16.8364   20.4280 C   0  0  0  0  0  0  0  0  0  0  0  0
  -29.3916  -17.3738   20.1277 C   0  0  0  0  0  0  0  0  0  0  0  0
  -26.0603  -30.7404   22.6800 C   0  0  0  0  0  0  0  0  0  0  0  0
  -28.8343  -15.0311   19.4573 C   0  0  0  0  0  0  0  0  0  0  0  0
  -22.0358  -22.8589   23.9567 C   0  0  0  0  0  0  0  0  0  0  0  0
  -18.9066  -23.4237   23.3152 C   0  0  0  0  0  0  0  0  0  0  0  0
  -16.4624  -25.6902   22.5834 C   0  0  0  0  0  0  0  0  0  0  0  0
  -28.5770  -23.2206   20.2116 C   0  0  0  0  0  0  0  0  0  0  0  0
  -23.3060  -18.0009   24.8752 C   0  0  0  0  0  0  0  0  0  0  0  0
  -21.5062  -24.6897   25.6070 C   0  0  0  0  0  0  0  0  0  0  0  0
  -20.5059  -25.3301   22.8989 C   0  0  0  0  0  0  0  0  0  0  0  0
  -24.9112  -31.7164   22.7710 C   0  0  0  0  0  0  0  0  0  0  0  0
  -22.2830  -18.7141   23.9949 C   0  0  0  0  0  0  0  0  0  0  0  0
  -24.2605  -31.6245   21.4037 C   0  0  0  0  0  0  0  0  0  0  0  0
  -30.1533  -21.2611   22.8141 C   0  0  0  0  0  0  0  0  0  0  0  0
  -22.9504  -19.8306   23.1982 C   0  0  0  0  0  0  0  0  0  0  0  0
  -29.7043  -19.8464   22.4438 C   0  0  0  0  0  0  0  0  0  0  0  0
  -29.0464  -22.2784   22.5535 C   0  0  0  0  0  0  0  0  0  0  0  0
  -28.0738  -20.8628   20.7860 C   0  0  0  0  0  0  0  0  0  0  0  0
  -23.5490  -20.8914   24.1299 C   0  0  1  0  0  0  0  0  0  0  0  0
  -20.9546  -23.6118   24.6790 C   0  0  1  0  0  0  0  0  0  0  0  0
  -29.1567  -19.7908   21.0053 C   0  0  2  0  0  0  0  0  0  0  0  0
  -24.5105  -30.1813   20.9803 C   0  0  2  0  0  0  0  0  0  0  0  0
  -29.9543  -27.2504   22.0638 C   0  0  0  0  0  0  0  0  0  0  0  0
  -14.0097  -25.8476   22.0765 C   0  0  0  0  0  0  0  0  0  0  0  0
  -19.4243  -22.3752   20.4969 C   0  0  0  0  0  0  0  0  0  0  0  0
  -17.2642  -23.4222   19.7857 C   0  0  0  0  0  0  0  0  0  0  0  0
  -17.2664  -21.6203   21.5108 C   0  0  0  0  0  0  0  0  0  0  0  0
  -15.9640  -27.3942   24.9513 C   0  0  0  0  0  0  0  0  0  0  0  0
  -29.1322  -25.6010   19.7844 C   0  0  0  0  0  0  0  0  0  0  0  0
  -23.3926  -29.2615   21.4764 C   0  0  0  0  0  0  0  0  0  1  0  0
  -18.1332  -23.9169   22.1162 C   0  0  1  0  0  0  0  0  0  0  0  0
  -15.0740  -25.8963   23.1617 C   0  0  2  0  0  0  0  0  0  0  0  0
  -18.0425  -22.8494   20.9894 C   0  0  0  0  0  0  0  0  0  0  0  0
  -27.3652  -18.1039   20.8406 N   0  0  0  0  0  0  0  0  0  0  0  0
  -28.6609  -18.4024   20.6458 N   0  0  0  0  0  0  0  0  0  0  0  0
  -25.7951  -29.8701   21.6013 N   0  0  0  0  0  0  0  0  0  0  0  0
  -20.0549  -24.1517   23.6576 N   0  0  0  0  0  0  0  0  0  0  0  0
  -28.5824  -22.1862   21.1620 N   0  0  0  0  0  0  0  0  0  0  0  0
  -30.7103  -17.5033   19.8697 N   0  0  0  0  0  0  0  0  0  0  0  0
  -27.8121  -14.0766   19.3661 N   0  0  0  0  0  0  0  0  0  0  0  0
  -22.5095  -21.7574   24.6436 N   0  0  0  0  0  0  0  0  0  0  0  0
  -16.8396  -24.3644   22.6209 N   0  0  0  0  0  0  0  0  0  0  0  0
  -29.0688  -24.4441   20.6496 N   0  0  0  0  0  0  0  0  0  0  0  0
  -14.9884  -27.2179   23.8449 N   0  3  0  0  0  0  0  0  0  0  0  0
  -26.9953  -30.7612   23.4673 O   0  0  0  0  0  0  0  0  0  0  0  0
  -29.9971  -14.7211   19.1033 O   0  0  0  0  0  0  0  0  0  0  0  0
  -22.4114  -23.2476   22.8569 O   0  0  0  0  0  0  0  0  0  0  0  0
  -18.5028  -22.4333   23.9297 O   0  0  0  0  0  0  0  0  0  0  0  0
  -17.1426  -26.6124   22.1393 O   0  0  0  0  0  0  0  0  0  0  0  0
  -28.1690  -23.0641   19.0557 O   0  0  0  0  0  0  0  0  0  0  0  0
  -22.3862  -14.1399   20.6274 O   0  0  0  0  0  0  0  0  0  0  0  0
  -23.3448  -29.3149   22.9016 O   0  0  0  0  0  0  0  0  0  1  0  0
  -22.3733   -8.9906   22.5993 F   0  0  0  0  0  0  0  0  0  0  0  0
  -20.8870  -13.4775   22.8536 F   0  0  0  0  0  0  0  0  0  0  0  0
  1  2  1  0  0  0  0
  1  5  2  0  0  0  0
  2  6  2  0  0  0  0
  3 10  2  0  0  0  0
  3 18  1  0  0  0  0
  4 11  1  0  0  0  0
  4 18  2  0  0  0  0
  5 20  1  0  0  0  0
  6 22  1  0  0  0  0
  7 12  2  0  0  0  0
  7 21  1  0  0  0  0
  8  9  2  0  0  0  0
  8 24  1  0  0  0  0
  9 26  1  0  0  0  0
 10 27  1  0  0  0  0
 11 27  2  0  0  0  0
 12 28  1  0  0  0  0
 13 14  2  0  0  0  0
 13 29  1  0  0  0  0
 14 30  1  0  0  0  0
 15 23  1  0  0  0  0
 15 28  2  0  0  0  0
 16 25  1  0  0  0  0
 16 26  2  0  0  0  0
 17 30  2  0  0  0  0
 17 31  1  0  0  0  0
 18 32  1  0  0  0  0
 19 32  1  0  0  0  0
 19 33  2  0  0  0  0
 19 35  1  0  0  0  0
 20 22  2  0  0  0  0
 20 40  1  0  0  0  0
 21 23  2  0  0  0  0
 21 41  1  0  0  0  0
 22 51  1  0  0  0  0
 23 42  1  0  0  0  0
 24 25  2  0  0  0  0
 24 61  1  0  0  0  0
 25 55  1  0  0  0  0
 26 68  1  0  0  0  0
 27 83  1  0  0  0  0
 28 84  1  0  0  0  0
 29 31  2  0  0  0  0
 29 83  1  0  0  0  0
 30 85  1  0  0  0  0
 31 86  1  0  0  0  0
 32 66  2  0  0  0  0
 33 67  1  0  0  0  0
 33 71  1  0  0  0  0
 34 43  1  0  0  0  0
 34 68  1  0  0  0  0
 34 77  2  0  0  0  0
 35 72  1  0  0  0  0
 35 78  2  0  0  0  0
 36 52  1  0  0  0  0
 36 73  1  0  0  0  0
 36 79  2  0  0  0  0
 37 63  1  0  0  0  0
 37 69  1  0  0  0  0
 37 80  2  0  0  0  0
 38 64  1  0  0  0  0
 38 74  1  0  0  0  0
 38 81  2  0  0  0  0
 39 70  1  0  0  0  0
 39 75  1  0  0  0  0
 39 82  2  0  0  0  0
 40 44  1  0  0  0  0
 41 52  1  0  0  0  0
 42 69  1  0  0  0  0
 43 45  1  0  0  0  0
 44 47  1  0  0  0  0
 45 54  1  0  0  0  0
 46 48  1  0  0  0  0
 46 49  1  0  0  0  0
 47 51  1  0  0  0  0
 48 53  1  0  0  0  0
 49 70  1  0  0  0  0
 50 53  1  0  0  0  0
 50 70  1  0  0  0  0
 51 73  1  0  0  0  0
 52 69  1  0  0  0  0
 53 67  1  0  0  0  0
 54 62  1  0  0  0  0
 54 68  1  0  0  0  0
 56 64  1  0  0  0  0
 57 65  1  0  0  0  0
 58 65  1  0  0  0  0
 59 65  1  0  0  0  0
 60 76  1  0  0  0  0
 61 75  1  0  0  0  0
 62 84  1  0  0  0  0
 63 65  1  0  0  0  0
 63 74  1  0  0  0  0
 64 76  1  0  0  0  0
 66 67  1  0  0  0  0
M  CHG  1  76   1
M  ISO  4  39 100  62 101  75 100  84 101
M  END
> <Batch ID>
0102

> <Smiles>
CNC(C)C(=O)NC(C(=O)N1Cc2cc([101O:1][101CH2:1]C3CCC(=O)N3c3ccc(C[100NH:0][100C:0](=O)N4CCCC(n5nc(-c6ccc(Oc7ccc(F)cc7F)cc6)c(C(N)=O)c5N)C4)c(C)c3)ccc2CC1C(=O)NC1CCCc2ccccc21)C(C)(C)C

> <Shape>
0.230

> <Color>
0.060

> <Negative vol penalty>
0.000

$$$$

  -OEChem-04052301023D

 84 92  0     1  0  0  0  0  0999 V2000
  -27.9427  -24.5368   16.7427 C   0  0  0  0  0  0  0  0  0  0  0  0
  -26.7892  -24.7222   17.4981 C   0  0  0  0  0  0  0  0  0  0  0  0
  -25.9775  -13.0923   22.2952 C   0  0  0  0  0  0  0  0  0  0  0  0
  -25.3584  -14.4550   20.3986 C   0  0  0  0  0  0  0  0  0  0  0  0
  -29.1516  -25.0820   17.1731 C   0  0  0  0  0  0  0  0  0  0  0  0
  -26.8443  -25.4521   18.6850 C   0  0  0  0  0  0  0  0  0  0  0  0
  -23.0168  -28.7390   19.1236 C   0  0  0  0  0  0  0  0  0  0  0  0
  -25.6731  -24.5888   22.7146 C   0  0  0  0  0  0  0  0  0  0  0  0
  -24.7161  -22.7068   21.5402 C   0  0  0  0  0  0  0  0  0  0  0  0
  -24.3971  -25.1188   22.9052 C   0  0  0  0  0  0  0  0  0  0  0  0
  -23.4400  -23.2368   21.7307 C   0  0  0  0  0  0  0  0  0  0  0  0
  -24.8709  -12.2740   22.0684 C   0  0  0  0  0  0  0  0  0  0  0  0
  -24.2518  -13.6367   20.1718 C   0  0  0  0  0  0  0  0  0  0  0  0
  -21.7777  -28.2262   19.5049 C   0  0  0  0  0  0  0  0  0  0  0  0
  -22.4104   -9.6145   21.7711 C   0  0  0  0  0  0  0  0  0  0  0  0
  -22.6015   -8.2341   21.8307 C   0  0  0  0  0  0  0  0  0  0  0  0
  -22.1781  -28.9581   21.7683 C   0  0  0  0  0  0  0  0  0  0  0  0
  -24.2091   -8.3791   20.0330 C   0  0  0  0  0  0  0  0  0  0  0  0
  -26.2212  -14.1828   21.4603 C   0  0  0  0  0  0  0  0  0  0  0  0
  -28.6581  -14.8760   21.1619 C   0  0  0  0  0  0  0  0  0  0  0  0
  -29.2195  -25.8271   18.3608 C   0  0  0  0  0  0  0  0  0  0  0  0
  -23.8520  -29.3565   20.0656 C   0  0  0  0  0  0  0  0  0  0  0  0
  -28.0555  -26.0067   19.1323 C   0  0  0  0  0  0  0  0  0  0  0  0
  -23.4262  -29.4802   21.3959 C   0  0  0  0  0  0  0  0  0  0  0  0
  -25.8326  -23.3828   22.0321 C   0  0  0  0  0  0  0  0  0  0  0  0
  -23.2805  -24.4429   22.4133 C   0  0  0  0  0  0  0  0  0  0  0  0
  -24.0081  -12.5461   21.0068 C   0  0  0  0  0  0  0  0  0  0  0  0
  -21.3594  -28.3331   20.8280 C   0  0  0  0  0  0  0  0  0  0  0  0
  -23.1186  -10.3773   20.8424 C   0  0  0  0  0  0  0  0  0  0  0  0
  -23.5009   -7.6164   20.9617 C   0  0  0  0  0  0  0  0  0  0  0  0
  -24.0179   -9.7596   19.9734 C   0  0  0  0  0  0  0  0  0  0  0  0
  -27.3639  -15.0288   21.6943 C   0  0  0  0  0  0  0  0  0  0  0  0
  -29.3705  -15.9278   21.6840 C   0  0  0  0  0  0  0  0  0  0  0  0
  -29.1704  -13.8731   20.2746 C   0  0  0  0  0  0  0  0  0  0  0  0
  -26.7561  -28.7678   21.2159 C   0  0  0  0  0  0  0  0  0  0  0  0
  -26.3162  -31.6131   22.7102 C   0  0  0  0  0  0  0  0  0  0  0  0
  -20.7723  -24.4429   22.1861 C   0  0  0  0  0  0  0  0  0  0  0  0
  -24.1363  -33.9432   23.9208 C   0  0  0  0  0  0  0  0  0  0  0  0
  -27.7687  -21.3234   23.7267 C   0  0  0  0  0  0  0  0  0  0  0  0
  -30.5583  -26.3570   18.8098 C   0  0  0  0  0  0  0  0  0  0  0  0
  -25.1741  -29.9283   19.6327 C   0  0  0  0  0  0  0  0  0  0  0  0
  -24.2768  -30.1522   22.4415 C   0  0  0  0  0  0  0  0  0  0  0  0
  -30.4570  -27.4347   19.8862 C   0  0  0  0  0  0  0  0  0  0  0  0
  -29.5459  -18.8021   25.5048 C   0  0  0  0  0  0  0  0  0  0  0  0
  -29.4817  -27.0079   20.9787 C   0  0  0  0  0  0  0  0  0  0  0  0
  -29.3050  -17.5354   24.6818 C   0  0  0  0  0  0  0  0  0  0  0  0
  -28.3155  -19.7064   25.5220 C   0  0  0  0  0  0  0  0  0  0  0  0
  -27.5448  -18.7901   23.3679 C   0  0  0  0  0  0  0  0  0  0  0  0
  -28.0699  -26.8134   20.4126 C   0  0  1  0  0  0  0  0  0  0  0  0
  -26.1651  -30.0795   20.7828 C   0  0  1  0  0  0  0  0  0  0  0  0
  -28.7763  -17.8729   23.2747 C   0  0  2  0  0  0  0  0  0  0  0  0
  -24.0735  -36.1448   25.1235 C   0  0  0  0  0  0  0  0  0  0  0  0
  -26.9833  -30.1982   25.3299 C   0  0  0  0  0  0  0  0  0  0  0  0
  -25.9962  -32.1471   26.5530 C   0  0  0  0  0  0  0  0  0  0  0  0
  -27.9889  -32.4753   25.0886 C   0  0  0  0  0  0  0  0  0  0  0  0
  -22.7642  -35.2710   21.6596 C   0  0  0  0  0  0  0  0  0  0  0  0
  -27.1971  -22.8162   21.8283 C   0  0  0  0  0  0  0  0  0  0  0  0
  -19.6172  -25.3432   22.6020 C   0  0  0  0  0  0  0  0  0  0  0  0
  -18.8118  -25.8528   21.4119 C   0  0  0  0  0  0  0  0  0  0  0  0
  -19.6626  -26.7035   20.4800 C   0  0  0  0  0  0  0  0  0  1  0  0
  -25.7319  -32.0469   24.0329 C   0  0  1  0  0  0  0  0  0  0  0  0
  -24.0889  -35.4529   23.7693 C   0  0  2  0  0  0  0  0  0  0  0  0
  -26.6596  -31.7024   25.2320 C   0  0  0  0  0  0  0  0  0  0  0  0
  -27.2576  -16.0937   22.4935 N   0  0  0  0  0  0  0  0  0  0  0  0
  -28.4940  -16.6195   22.4672 N   0  0  0  0  0  0  0  0  0  0  0  0
  -25.5638  -30.6898   21.9704 N   0  0  0  0  0  0  0  0  0  0  0  0
  -27.8657  -19.9898   24.1570 N   0  0  0  0  0  0  0  0  0  0  0  0
  -30.6550  -16.3191   21.5450 N   0  0  0  0  0  0  0  0  0  0  0  0
  -28.3026  -12.8644   19.8340 N   0  0  0  0  0  0  0  0  0  0  0  0
  -21.9857  -24.9802   22.6067 N   0  0  0  0  0  0  0  0  0  0  0  0
  -27.4249  -28.0933   20.2122 N   0  0  0  0  0  0  0  0  0  0  0  0
  -25.4305  -33.4681   23.8995 N   0  0  0  0  0  0  0  0  0  0  0  0
  -27.3407  -21.5034   22.4171 N   0  0  0  0  0  0  0  0  0  0  0  0
  -22.8671  -35.8601   23.0195 N   0  3  0  0  0  0  0  0  0  0  0  0
  -30.3665  -13.8620   19.8970 O   0  0  0  0  0  0  0  0  0  0  0  0
  -26.6171  -28.3958   22.3752 O   0  0  0  0  0  0  0  0  0  0  0  0
  -27.3967  -32.0817   22.3436 O   0  0  0  0  0  0  0  0  0  0  0  0
  -20.5943  -23.3996   21.5664 O   0  0  0  0  0  0  0  0  0  0  0  0
  -23.1264  -33.2546   24.0492 O   0  0  0  0  0  0  0  0  0  0  0  0
  -28.0484  -22.2824   24.4541 O   0  0  0  0  0  0  0  0  0  0  0  0
  -22.9283  -11.7477   20.7851 O   0  0  0  0  0  0  0  0  0  0  0  0
  -20.1507  -27.8328   21.2030 O   0  0  0  0  0  0  0  0  0  1  0  0
  -23.6855   -6.2910   21.0201 F   0  0  0  0  0  0  0  0  0  0  0  0
  -24.7020  -10.4872   19.0799 F   0  0  0  0  0  0  0  0  0  0  0  0
  1  2  1  0  0  0  0
  1  5  2  0  0  0  0
  2  6  2  0  0  0  0
  3 12  2  0  0  0  0
  3 19  1  0  0  0  0
  4 13  1  0  0  0  0
  4 19  2  0  0  0  0
  5 21  1  0  0  0  0
  6 23  1  0  0  0  0
  7 14  2  0  0  0  0
  7 22  1  0  0  0  0
  8 10  2  0  0  0  0
  8 25  1  0  0  0  0
  9 11  1  0  0  0  0
  9 25  2  0  0  0  0
 10 26  1  0  0  0  0
 11 26  2  0  0  0  0
 12 27  1  0  0  0  0
 13 27  2  0  0  0  0
 14 28  1  0  0  0  0
 15 16  2  0  0  0  0
 15 29  1  0  0  0  0
 16 30  1  0  0  0  0
 17 24  1  0  0  0  0
 17 28  2  0  0  0  0
 18 30  2  0  0  0  0
 18 31  1  0  0  0  0
 19 32  1  0  0  0  0
 20 32  1  0  0  0  0
 20 33  2  0  0  0  0
 20 34  1  0  0  0  0
 21 23  2  0  0  0  0
 21 40  1  0  0  0  0
 22 24  2  0  0  0  0
 22 41  1  0  0  0  0
 23 49  1  0  0  0  0
 24 42  1  0  0  0  0
 25 57  1  0  0  0  0
 26 70  1  0  0  0  0
 27 81  1  0  0  0  0
 28 82  1  0  0  0  0
 29 31  2  0  0  0  0
 29 81  1  0  0  0  0
 30 83  1  0  0  0  0
 31 84  1  0  0  0  0
 32 64  2  0  0  0  0
 33 65  1  0  0  0  0
 33 68  1  0  0  0  0
 34 69  1  0  0  0  0
 34 75  2  0  0  0  0
 35 50  1  0  0  0  0
 35 71  1  0  0  0  0
 35 76  2  0  0  0  0
 36 61  1  0  0  0  0
 36 66  1  0  0  0  0
 36 77  2  0  0  0  0
 37 58  1  0  0  0  0
 37 70  1  0  0  0  0
 37 78  2  0  0  0  0
 38 62  1  0  0  0  0
 38 72  1  0  0  0  0
 38 79  2  0  0  0  0
 39 67  1  0  0  0  0
 39 73  1  0  0  0  0
 39 80  2  0  0  0  0
 40 43  1  0  0  0  0
 41 50  1  0  0  0  0
 42 66  1  0  0  0  0
 43 45  1  0  0  0  0
 44 46  1  0  0  0  0
 44 47  1  0  0  0  0
 45 49  1  0  0  0  0
 46 51  1  0  0  0  0
 47 67  1  0  0  0  0
 48 51  1  0  0  0  0
 48 67  1  0  0  0  0
 49 71  1  0  0  0  0
 50 66  1  0  0  0  0
 51 65  1  0  0  0  0
 52 62  1  0  0  0  0
 53 63  1  0  0  0  0
 54 63  1  0  0  0  0
 55 63  1  0  0  0  0
 56 74  1  0  0  0  0
 57 73  1  0  0  0  0
 58 59  1  0  0  0  0
 59 60  1  0  0  0  0
 60 82  1  0  0  0  0
 61 63  1  0  0  0  0
 61 72  1  0  0  0  0
 62 74  1  0  0  0  0
 64 65  1  0  0  0  0
M  CHG  1  74   1
M  ISO  4  39 100  60 101  73 100  82 101
M  END
> <Batch ID>
0102

> <Smiles>
CNC(C)C(=O)NC(C(=O)N1Cc2cc([101O:1][101CH2:1]CCC(=O)Nc3ccc(C[100NH:0][100C:0](=O)N4CCCC(n5nc(-c6ccc(Oc7ccc(F)cc7F)cc6)c(C(N)=O)c5N)C4)cc3)ccc2CC1C(=O)NC1CCCc2ccccc21)C(C)(C)C

> <Shape>
0.306

> <Color>
0.080

> <Negative vol penalty>
0.000

$$$$

  -OEChem-04052301023D

 83 91  0     1  0  0  0  0  0999 V2000
  -19.4317  -29.3755   16.7301 C   0  0  0  0  0  0  0  0  0  0  0  0
  -20.1395  -28.2979   17.2528 C   0  0  0  0  0  0  0  0  0  0  0  0
  -24.0839   -9.8562   22.6102 C   0  0  0  0  0  0  0  0  0  0  0  0
  -24.2148  -11.7389   24.1187 C   0  0  0  0  0  0  0  0  0  0  0  0
  -19.9257  -30.6707   16.8791 C   0  0  0  0  0  0  0  0  0  0  0  0
  -21.3424  -28.5148   17.9239 C   0  0  0  0  0  0  0  0  0  0  0  0
  -23.5022  -25.3742   22.7175 C   0  0  0  0  0  0  0  0  0  0  0  0
  -31.3966  -18.6289   20.4072 C   0  0  0  0  0  0  0  0  0  0  0  0
  -31.0363  -19.7759   19.7001 C   0  0  0  0  0  0  0  0  0  0  0  0
  -23.6427   -9.0476   23.6577 C   0  0  0  0  0  0  0  0  0  0  0  0
  -23.7735  -10.9303   25.1662 C   0  0  0  0  0  0  0  0  0  0  0  0
  -24.4288  -24.3375   22.8191 C   0  0  0  0  0  0  0  0  0  0  0  0
  -20.7555   -8.4868   25.3257 C   0  0  0  0  0  0  0  0  0  0  0  0
  -19.6747   -7.6400   25.0800 C   0  0  0  0  0  0  0  0  0  0  0  0
  -26.1591  -25.9415   23.3218 C   0  0  0  0  0  0  0  0  0  0  0  0
  -29.3122  -18.7248   21.6250 C   0  0  0  0  0  0  0  0  0  0  0  0
  -21.0525   -5.7275   25.6101 C   0  0  0  0  0  0  0  0  0  0  0  0
  -24.3700  -11.2018   22.8408 C   0  0  0  0  0  0  0  0  0  0  0  0
  -24.0330  -12.7979   20.8795 C   0  0  0  0  0  0  0  0  0  0  0  0
  -21.1304  -30.9045   17.5608 C   0  0  0  0  0  0  0  0  0  0  0  0
  -23.8999  -26.7055   22.9068 C   0  0  0  0  0  0  0  0  0  0  0  0
  -21.8537  -29.8143   18.0810 C   0  0  0  0  0  0  0  0  0  0  0  0
  -25.2350  -26.9930   23.2245 C   0  0  0  0  0  0  0  0  0  0  0  0
  -30.5345  -18.1033   21.3697 C   0  0  0  0  0  0  0  0  0  0  0  0
  -28.9519  -19.8719   20.9179 C   0  0  0  0  0  0  0  0  0  0  0  0
  -29.8139  -20.3974   19.9554 C   0  0  0  0  0  0  0  0  0  0  0  0
  -23.4875   -9.5846   24.9356 C   0  0  0  0  0  0  0  0  0  0  0  0
  -25.7581  -24.6213   23.1184 C   0  0  0  0  0  0  0  0  0  0  0  0
  -21.9849   -7.9539   25.7135 C   0  0  0  0  0  0  0  0  0  0  0  0
  -19.8232   -6.2604   25.2222 C   0  0  0  0  0  0  0  0  0  0  0  0
  -22.1334   -6.5743   25.8558 C   0  0  0  0  0  0  0  0  0  0  0  0
  -24.8264  -12.0375   21.7593 C   0  0  0  0  0  0  0  0  0  0  0  0
  -24.9357  -13.4069   20.0424 C   0  0  0  0  0  0  0  0  0  0  0  0
  -22.6075  -12.9409   20.8238 C   0  0  0  0  0  0  0  0  0  0  0  0
  -23.9348  -29.3158   21.0932 C   0  0  0  0  0  0  0  0  0  0  0  0
  -27.7459  -21.7826   22.0515 C   0  0  0  0  0  0  0  0  0  0  0  0
  -24.8627  -30.7475   23.8521 C   0  0  0  0  0  0  0  0  0  0  0  0
  -26.3129  -30.4469   26.9268 C   0  0  0  0  0  0  0  0  0  0  0  0
  -30.7042  -14.8910   20.6528 C   0  0  0  0  0  0  0  0  0  0  0  0
  -21.6484  -32.3178   17.6555 C   0  0  0  0  0  0  0  0  0  0  0  0
  -22.8827  -27.8101   22.8201 C   0  0  0  0  0  0  0  0  0  0  0  0
  -25.7088  -28.4037   23.4570 C   0  0  0  0  0  0  0  0  0  0  0  0
  -22.7414  -32.4968   18.7061 C   0  0  0  0  0  0  0  0  0  0  0  0
  -29.2860  -12.7974   18.1464 C   0  0  0  0  0  0  0  0  0  0  0  0
  -23.7811  -31.3867   18.5893 C   0  0  0  0  0  0  0  0  0  0  0  0
  -27.9106  -12.4338   18.7088 C   0  0  0  0  0  0  0  0  0  0  0  0
  -30.3409  -12.8838   19.2472 C   0  0  0  0  0  0  0  0  0  0  0  0
  -28.6201  -13.4158   20.9294 C   0  0  0  0  0  0  0  0  0  0  0  0
  -23.1498  -30.0114   18.8369 C   0  0  1  0  0  0  0  0  0  0  0  0
  -23.5034  -29.1722   22.5253 C   0  0  1  0  0  0  0  0  0  0  0  0
  -27.5114  -13.3716   19.8640 C   0  0  2  0  0  0  0  0  0  0  0  0
  -26.9654  -31.7989   28.9376 C   0  0  0  0  0  0  0  0  0  0  0  0
  -27.2524  -31.8673   22.3207 C   0  0  0  0  0  0  0  0  0  0  0  0
  -28.3320  -32.3822   24.5202 C   0  0  0  0  0  0  0  0  0  0  0  0
  -26.1786  -33.4795   23.9025 C   0  0  0  0  0  0  0  0  0  0  0  0
  -24.5355  -28.8808   28.7007 C   0  0  0  0  0  0  0  0  0  0  0  0
  -27.6263  -20.5225   21.2138 C   0  0  0  0  0  0  0  0  0  0  0  0
  -30.9202  -16.8769   22.1255 C   0  0  0  0  0  0  0  0  0  0  0  0
  -26.4354  -22.4518   22.4179 C   0  0  0  0  0  0  0  0  0  1  0  0
  -26.1883  -31.0274   24.5180 C   0  0  1  0  0  0  0  0  0  0  0  0
  -25.8841  -30.9438   28.2956 C   0  0  2  0  0  0  0  0  0  0  0  0
  -26.9796  -32.1626   23.8091 C   0  0  0  0  0  0  0  0  0  0  0  0
  -26.1326  -12.1513   21.5048 N   0  0  0  0  0  0  0  0  0  0  0  0
  -26.1669  -12.9902   20.4554 N   0  0  0  0  0  0  0  0  0  0  0  0
  -24.6778  -29.4496   23.3548 N   0  0  0  0  0  0  0  0  0  0  0  0
  -29.9017  -13.7900   20.3111 N   0  0  0  0  0  0  0  0  0  0  0  0
  -29.4658  -21.5579   19.2298 N   0  0  0  0  0  0  0  0  0  0  0  0
  -24.7885  -14.2527   19.0006 N   0  0  0  0  0  0  0  0  0  0  0  0
  -21.8291  -12.2450   21.7588 N   0  0  0  0  0  0  0  0  0  0  0  0
  -22.9477  -29.7957   20.2537 N   0  0  0  0  0  0  0  0  0  0  0  0
  -25.8921  -31.2921   25.9218 N   0  0  0  0  0  0  0  0  0  0  0  0
  -30.2114  -15.7029   21.6671 N   0  0  0  0  0  0  0  0  0  0  0  0
  -25.5975  -29.7929   29.1980 N   0  3  0  0  0  0  0  0  0  0  0  0
  -22.0398  -13.6516   19.9600 O   0  0  0  0  0  0  0  0  0  0  0  0
  -25.0790  -29.0149   20.7738 O   0  0  0  0  0  0  0  0  0  0  0  0
  -28.8284  -22.2411   22.4146 O   0  0  0  0  0  0  0  0  0  0  0  0
  -24.0195  -31.6451   23.7822 O   0  0  0  0  0  0  0  0  0  0  0  0
  -26.9598  -29.4145   26.7654 O   0  0  0  0  0  0  0  0  0  0  0  0
  -31.7776  -15.1356   20.0917 O   0  0  0  0  0  0  0  0  0  0  0  0
  -23.0568   -8.7960   25.9579 O   0  0  0  0  0  0  0  0  0  0  0  0
  -26.6647  -23.6113   23.2176 O   0  0  0  0  0  0  0  0  0  1  0  0
  -18.7847   -5.4475   24.9877 F   0  0  0  0  0  0  0  0  0  0  0  0
  -23.3116   -6.0566   26.2292 F   0  0  0  0  0  0  0  0  0  0  0  0
  1  2  1  0  0  0  0
  1  5  2  0  0  0  0
  2  6  2  0  0  0  0
  3 10  2  0  0  0  0
  3 18  1  0  0  0  0
  4 11  1  0  0  0  0
  4 18  2  0  0  0  0
  5 20  1  0  0  0  0
  6 22  1  0  0  0  0
  7 12  2  0  0  0  0
  7 21  1  0  0  0  0
  8  9  2  0  0  0  0
  8 24  1  0  0  0  0
  9 26  1  0  0  0  0
 10 27  1  0  0  0  0
 11 27  2  0  0  0  0
 12 28  1  0  0  0  0
 13 14  2  0  0  0  0
 13 29  1  0  0  0  0
 14 30  1  0  0  0  0
 15 23  1  0  0  0  0
 15 28  2  0  0  0  0
 16 24  2  0  0  0  0
 16 25  1  0  0  0  0
 17 30  2  0  0  0  0
 17 31  1  0  0  0  0
 18 32  1  0  0  0  0
 19 32  1  0  0  0  0
 19 33  2  0  0  0  0
 19 34  1  0  0  0  0
 20 22  2  0  0  0  0
 20 40  1  0  0  0  0
 21 23  2  0  0  0  0
 21 41  1  0  0  0  0
 22 49  1  0  0  0  0
 23 42  1  0  0  0  0
 24 58  1  0  0  0  0
 25 26  2  0  0  0  0
 25 57  1  0  0  0  0
 26 67  1  0  0  0  0
 27 80  1  0  0  0  0
 28 81  1  0  0  0  0
 29 31  2  0  0  0  0
 29 80  1  0  0  0  0
 30 82  1  0  0  0  0
 31 83  1  0  0  0  0
 32 63  2  0  0  0  0
 33 64  1  0  0  0  0
 33 68  1  0  0  0  0
 34 69  1  0  0  0  0
 34 74  2  0  0  0  0
 35 50  1  0  0  0  0
 35 70  1  0  0  0  0
 35 75  2  0  0  0  0
 36 57  1  0  0  0  0
 36 59  1  0  0  0  0
 36 76  2  0  0  0  0
 37 60  1  0  0  0  0
 37 65  1  0  0  0  0
 37 77  2  0  0  0  0
 38 61  1  0  0  0  0
 38 71  1  0  0  0  0
 38 78  2  0  0  0  0
 39 66  1  0  0  0  0
 39 72  1  0  0  0  0
 39 79  2  0  0  0  0
 40 43  1  0  0  0  0
 41 50  1  0  0  0  0
 42 65  1  0  0  0  0
 43 45  1  0  0  0  0
 44 46  1  0  0  0  0
 44 47  1  0  0  0  0
 45 49  1  0  0  0  0
 46 51  1  0  0  0  0
 47 66  1  0  0  0  0
 48 51  1  0  0  0  0
 48 66  1  0  0  0  0
 49 70  1  0  0  0  0
 50 65  1  0  0  0  0
 51 64  1  0  0  0  0
 52 61  1  0  0  0  0
 53 62  1  0  0  0  0
 54 62  1  0  0  0  0
 55 62  1  0  0  0  0
 56 73  1  0  0  0  0
 58 72  1  0  0  0  0
 59 81  1  0  0  0  0
 60 62  1  0  0  0  0
 60 71  1  0  0  0  0
 61 73  1  0  0  0  0
 63 64  1  0  0  0  0
M  CHG  1  73   1
M  ISO  4  39 100  59 101  72 100  81 101
M  END
> <Batch ID>
0102

> <Smiles>
CNC(C)C(=O)NC(C(=O)N1Cc2cc([101O:1][101CH2:1]C(=O)Cc3cc(C[100NH:0][100C:0](=O)N4CCCC(n5nc(-c6ccc(Oc7ccc(F)cc7F)cc6)c(C(N)=O)c5N)C4)ccc3N)ccc2CC1C(=O)NC1CCCc2ccccc21)C(C)(C)C

> <Shape>
0.255

> <Color>
0.092

> <Negative vol penalty>
0.000

$$$$

  -OEChem-04052301023D

 86 95  0     1  0  0  0  0  0999 V2000
  -18.1170  -24.6543   23.1276 C   0  0  0  0  0  0  0  0  0  0  0  0
  -19.4866  -24.5155   22.9264 C   0  0  0  0  0  0  0  0  0  0  0  0
  -22.6083  -12.7012   22.1352 C   0  0  0  0  0  0  0  0  0  0  0  0
  -24.0769  -11.1318   23.2386 C   0  0  0  0  0  0  0  0  0  0  0  0
  -17.5036  -25.8879   22.9133 C   0  0  0  0  0  0  0  0  0  0  0  0
  -20.2434  -25.6101   22.5098 C   0  0  0  0  0  0  0  0  0  0  0  0
  -24.5786  -26.0684   25.0867 C   0  0  0  0  0  0  0  0  0  0  0  0
  -30.8679  -19.4154   20.0896 C   0  0  0  0  0  0  0  0  0  0  0  0
  -28.5408  -19.7667   19.5435 C   0  0  0  0  0  0  0  0  0  0  0  0
  -30.6932  -18.0388   19.9488 C   0  0  0  0  0  0  0  0  0  0  0  0
  -28.3661  -18.3900   19.4026 C   0  0  0  0  0  0  0  0  0  0  0  0
  -21.7822  -12.7183   23.2590 C   0  0  0  0  0  0  0  0  0  0  0  0
  -23.2508  -11.1489   24.3624 C   0  0  0  0  0  0  0  0  0  0  0  0
  -25.6245  -25.2185   24.7296 C   0  0  0  0  0  0  0  0  0  0  0  0
  -19.3934  -10.7549   24.6240 C   0  0  0  0  0  0  0  0  0  0  0  0
  -18.0169  -10.6652   24.4170 C   0  0  0  0  0  0  0  0  0  0  0  0
  -26.6274  -27.0004   23.4495 C   0  0  0  0  0  0  0  0  0  0  0  0
  -17.7155  -12.8074   25.4929 C   0  0  0  0  0  0  0  0  0  0  0  0
  -23.7556  -11.9079   22.1250 C   0  0  0  0  0  0  0  0  0  0  0  0
  -24.2574  -11.5039   19.6566 C   0  0  0  0  0  0  0  0  0  0  0  0
  -18.2548  -27.0005   22.5031 C   0  0  0  0  0  0  0  0  0  0  0  0
  -24.5436  -27.3897   24.6183 C   0  0  0  0  0  0  0  0  0  0  0  0
  -19.6392  -26.8594   22.2885 C   0  0  0  0  0  0  0  0  0  0  0  0
  -25.5813  -27.8658   23.8043 C   0  0  0  0  0  0  0  0  0  0  0  0
  -29.7917  -20.2794   19.8871 C   0  0  0  0  0  0  0  0  0  0  0  0
  -29.4423  -17.5261   19.6052 C   0  0  0  0  0  0  0  0  0  0  0  0
  -22.1035  -11.9422   24.3726 C   0  0  0  0  0  0  0  0  0  0  0  0
  -26.6476  -25.6836   23.9085 C   0  0  0  0  0  0  0  0  0  0  0  0
  -19.9309  -11.8708   25.2655 C   0  0  0  0  0  0  0  0  0  0  0  0
  -17.1780  -11.6914   24.8514 C   0  0  0  0  0  0  0  0  0  0  0  0
  -19.0920  -12.8970   25.6999 C   0  0  0  0  0  0  0  0  0  0  0  0
  -24.6090  -11.8893   20.9642 C   0  0  0  0  0  0  0  0  0  0  0  0
  -25.4114  -11.6644   18.9293 C   0  0  0  0  0  0  0  0  0  0  0  0
  -31.3099  -22.2389   22.0566 C   0  0  0  0  0  0  0  0  0  0  0  0
  -23.0001  -11.0422   19.1452 C   0  0  0  0  0  0  0  0  0  0  0  0
  -22.5551  -29.0714   22.7957 C   0  0  0  0  0  0  0  0  0  0  0  0
  -24.5047  -31.5310   23.6153 C   0  0  0  0  0  0  0  0  0  0  0  0
  -27.5829  -32.5608   24.6694 C   0  0  0  0  0  0  0  0  0  0  0  0
  -30.2272  -15.1324   19.6269 C   0  0  0  0  0  0  0  0  0  0  0  0
  -17.5397  -28.3018   22.2386 C   0  0  0  0  0  0  0  0  0  0  0  0
  -23.4222  -28.3018   25.0344 C   0  0  0  0  0  0  0  0  0  0  0  0
  -25.6009  -29.2818   23.2914 C   0  0  0  0  0  0  0  0  0  0  0  0
  -31.3180  -22.5844   23.5329 C   0  0  0  0  0  0  0  0  0  0  0  0
  -18.4749  -29.5056   22.1593 C   0  0  0  0  0  0  0  0  0  0  0  0
  -30.1418  -23.4243   23.9906 C   0  0  0  0  0  0  0  0  0  0  0  0
  -30.1765  -11.5795   19.3995 C   0  0  0  0  0  0  0  0  0  0  0  0
  -19.6797  -29.1886   21.2790 C   0  0  0  0  0  0  0  0  0  0  0  0
  -28.7099  -11.2211   19.6499 C   0  0  0  0  0  0  0  0  0  0  0  0
  -30.6257  -12.7617   20.2564 C   0  0  0  0  0  0  0  0  0  0  0  0
  -28.8288  -22.6774   22.0276 C   0  0  0  0  0  0  0  0  0  0  0  0
  -28.3140  -13.6000   20.4058 C   0  0  0  0  0  0  0  0  0  0  0  0
  -20.4981  -28.0295   21.8607 C   0  0  1  0  0  0  0  0  0  0  0  0
  -23.2213  -29.4753   24.0805 C   0  0  1  0  0  0  0  0  0  0  0  0
  -28.8454  -22.7575   23.5508 C   0  0  2  0  0  0  0  0  0  0  0  0
  -27.7974  -12.4562   19.5177 C   0  0  2  0  0  0  0  0  0  0  0  0
  -28.8871  -34.6348   25.2124 C   0  0  0  0  0  0  0  0  0  0  0  0
  -24.8175  -32.1114   20.6362 C   0  0  0  0  0  0  0  0  0  0  0  0
  -26.8115  -33.5201   21.1911 C   0  0  0  0  0  0  0  0  0  0  0  0
  -24.5627  -34.1421   22.0735 C   0  0  0  0  0  0  0  0  0  0  0  0
  -27.9963  -31.7067   27.4727 C   0  0  0  0  0  0  0  0  0  0  0  0
  -29.9799  -21.7612   20.0388 C   0  0  0  0  0  0  0  0  0  0  0  0
  -27.6297  -23.5234   24.0671 C   0  0  0  0  0  0  0  0  0  1  0  0
  -25.7618  -32.1366   23.0391 C   0  0  1  0  0  0  0  0  0  0  0  0
  -28.0021  -33.5271   25.7625 C   0  0  2  0  0  0  0  0  0  0  0  0
  -25.4873  -32.9502   21.7429 C   0  0  0  0  0  0  0  0  0  0  0  0
  -25.8865  -12.2662   21.0648 N   0  0  0  0  0  0  0  0  0  0  0  0
  -26.3477  -12.1182   19.8112 N   0  0  0  0  0  0  0  0  0  0  0  0
  -30.0642  -22.1597   21.4376 N   0  0  0  0  0  0  0  0  0  0  0  0
  -24.4791  -30.1331   23.7209 N   0  0  0  0  0  0  0  0  0  0  0  0
  -29.7170  -13.8961   20.0764 N   0  0  0  0  0  0  0  0  0  0  0  0
  -25.7065  -11.4602   17.6280 N   0  0  0  0  0  0  0  0  0  0  0  0
  -21.9176  -10.9361   20.0291 N   0  0  0  0  0  0  0  0  0  0  0  0
  -29.2645  -16.1276   19.4618 N   0  0  0  0  0  0  0  0  0  0  0  0
  -21.3129  -28.4902   22.9645 N   0  0  0  0  0  0  0  0  0  0  0  0
  -26.3709  -32.9125   24.1139 N   0  0  0  0  0  0  0  0  0  0  0  0
  -28.7564  -32.8083   26.8280 N   0  3  0  0  0  0  0  0  0  0  0  0
  -32.3780  -21.9696   21.4999 O   0  0  0  0  0  0  0  0  0  0  0  0
  -22.8455  -10.7172   17.9435 O   0  0  0  0  0  0  0  0  0  0  0  0
  -23.1253  -29.2735   21.7300 O   0  0  0  0  0  0  0  0  0  0  0  0
  -23.5824  -32.2714   23.9657 O   0  0  0  0  0  0  0  0  0  0  0  0
  -28.2644  -31.5929   24.3386 O   0  0  0  0  0  0  0  0  0  0  0  0
  -31.4256  -15.2882   19.3788 O   0  0  0  0  0  0  0  0  0  0  0  0
  -21.2978  -11.9588   25.4695 O   0  0  0  0  0  0  0  0  0  0  0  0
  -27.6693  -24.8559   23.5579 O   0  0  0  0  0  0  0  0  0  1  0  0
  -15.8563  -11.6058   24.6512 F   0  0  0  0  0  0  0  0  0  0  0  0
  -19.6027  -13.9721   26.3157 F   0  0  0  0  0  0  0  0  0  0  0  0
  1  2  1  0  0  0  0
  1  5  2  0  0  0  0
  2  6  2  0  0  0  0
  3 12  2  0  0  0  0
  3 19  1  0  0  0  0
  4 13  1  0  0  0  0
  4 19  2  0  0  0  0
  5 21  1  0  0  0  0
  6 23  1  0  0  0  0
  7 14  2  0  0  0  0
  7 22  1  0  0  0  0
  8 10  2  0  0  0  0
  8 25  1  0  0  0  0
  9 11  1  0  0  0  0
  9 25  2  0  0  0  0
 10 26  1  0  0  0  0
 11 26  2  0  0  0  0
 12 27  1  0  0  0  0
 13 27  2  0  0  0  0
 14 28  1  0  0  0  0
 15 16  2  0  0  0  0
 15 29  1  0  0  0  0
 16 30  1  0  0  0  0
 17 24  1  0  0  0  0
 17 28  2  0  0  0  0
 18 30  2  0  0  0  0
 18 31  1  0  0  0  0
 19 32  1  0  0  0  0
 20 32  1  0  0  0  0
 20 33  2  0  0  0  0
 20 35  1  0  0  0  0
 21 23  2  0  0  0  0
 21 40  1  0  0  0  0
 22 24  2  0  0  0  0
 22 41  1  0  0  0  0
 23 52  1  0  0  0  0
 24 42  1  0  0  0  0
 25 61  1  0  0  0  0
 26 73  1  0  0  0  0
 27 83  1  0  0  0  0
 28 84  1  0  0  0  0
 29 31  2  0  0  0  0
 29 83  1  0  0  0  0
 30 85  1  0  0  0  0
 31 86  1  0  0  0  0
 32 66  2  0  0  0  0
 33 67  1  0  0  0  0
 33 71  1  0  0  0  0
 34 43  1  0  0  0  0
 34 68  1  0  0  0  0
 34 77  2  0  0  0  0
 35 72  1  0  0  0  0
 35 78  2  0  0  0  0
 36 53  1  0  0  0  0
 36 74  1  0  0  0  0
 36 79  2  0  0  0  0
 37 63  1  0  0  0  0
 37 69  1  0  0  0  0
 37 80  2  0  0  0  0
 38 64  1  0  0  0  0
 38 75  1  0  0  0  0
 38 81  2  0  0  0  0
 39 70  1  0  0  0  0
 39 73  1  0  0  0  0
 39 82  2  0  0  0  0
 40 44  1  0  0  0  0
 41 53  1  0  0  0  0
 42 69  1  0  0  0  0
 43 45  1  0  0  0  0
 44 47  1  0  0  0  0
 45 54  1  0  0  0  0
 46 48  1  0  0  0  0
 46 49  1  0  0  0  0
 47 52  1  0  0  0  0
 48 55  1  0  0  0  0
 49 70  1  0  0  0  0
 50 54  1  0  0  0  0
 50 68  1  0  0  0  0
 51 55  1  0  0  0  0
 51 70  1  0  0  0  0
 52 74  1  0  0  0  0
 53 69  1  0  0  0  0
 54 62  1  0  0  0  0
 55 67  1  0  0  0  0
 56 64  1  0  0  0  0
 57 65  1  0  0  0  0
 58 65  1  0  0  0  0
 59 65  1  0  0  0  0
 60 76  1  0  0  0  0
 61 68  1  0  0  0  0
 62 84  1  0  0  0  0
 63 65  1  0  0  0  0
 63 75  1  0  0  0  0
 64 76  1  0  0  0  0
 66 67  1  0  0  0  0
M  CHG  1  76   1
M  ISO  4  39 100  62 101  73 100  84 101
M  END
> <Batch ID>
0102

> <Smiles>
CNC(C)C(=O)NC(C(=O)N1Cc2cc([101O:1][101CH2:1]C3CCC(=O)N(Cc4ccc([100NH:0][100C:0](=O)N5CCCC(n6nc(-c7ccc(Oc8ccc(F)cc8F)cc7)c(C(N)=O)c6N)C5)cc4)C3)ccc2CC1C(=O)NC1CCCc2ccccc21)C(C)(C)C

> <Shape>
0.258

> <Color>
0.083

> <Negative vol penalty>
0.000

$$$$

  -OEChem-04052301023D

 86 95  0     1  0  0  0  0  0999 V2000
  -22.7526   -8.5734   21.9433 C   0  0  0  0  0  0  0  0  0  0  0  0
  -23.9808   -9.1495   22.2515 C   0  0  0  0  0  0  0  0  0  0  0  0
  -22.1990  -29.0550   23.5663 C   0  0  0  0  0  0  0  0  0  0  0  0
  -21.2368  -28.6253   21.3923 C   0  0  0  0  0  0  0  0  0  0  0  0
  -31.9128  -23.5236   20.0060 C   0  0  0  0  0  0  0  0  0  0  0  0
  -21.9842   -9.0888   20.9003 C   0  0  0  0  0  0  0  0  0  0  0  0
  -24.4419  -10.2409   21.5161 C   0  0  0  0  0  0  0  0  0  0  0  0
  -28.3025  -16.2314   22.2407 C   0  0  0  0  0  0  0  0  0  0  0  0
  -30.8392  -24.3905   19.8025 C   0  0  0  0  0  0  0  0  0  0  0  0
  -21.0495  -28.5510   24.1747 C   0  0  0  0  0  0  0  0  0  0  0  0
  -20.0873  -28.1212   22.0007 C   0  0  0  0  0  0  0  0  0  0  0  0
  -29.3867  -16.8905   21.6629 C   0  0  0  0  0  0  0  0  0  0  0  0
  -17.3094  -29.3521   23.4837 C   0  0  0  0  0  0  0  0  0  0  0  0
  -16.0758  -29.7633   22.9792 C   0  0  0  0  0  0  0  0  0  0  0  0
  -32.5786  -23.8070   17.7009 C   0  0  0  0  0  0  0  0  0  0  0  0
  -27.9379  -17.7460   19.9344 C   0  0  0  0  0  0  0  0  0  0  0  0
  -15.5171  -27.4676   22.4742 C   0  0  0  0  0  0  0  0  0  0  0  0
  -22.2926  -29.0922   22.1751 C   0  0  0  0  0  0  0  0  0  0  0  0
  -32.7826  -23.2319   18.9552 C   0  0  0  0  0  0  0  0  0  0  0  0
  -24.0117  -30.9100   21.6770 C   0  0  0  0  0  0  0  0  0  0  0  0
  -22.4317  -10.1930   20.1580 C   0  0  0  0  0  0  0  0  0  0  0  0
  -27.0278  -16.3160   21.6625 C   0  0  0  0  0  0  0  0  0  0  0  0
  -23.6794  -10.7707   20.4613 C   0  0  0  0  0  0  0  0  0  0  0  0
  -26.8386  -17.0892   20.5082 C   0  0  0  0  0  0  0  0  0  0  0  0
  -30.6352  -24.9656   18.5482 C   0  0  0  0  0  0  0  0  0  0  0  0
  -19.9936  -28.0841   23.3919 C   0  0  0  0  0  0  0  0  0  0  0  0
  -29.2051  -17.6456   20.5080 C   0  0  0  0  0  0  0  0  0  0  0  0
  -17.6470  -27.9987   23.4834 C   0  0  0  0  0  0  0  0  0  0  0  0
  -15.1796  -28.8211   22.4745 C   0  0  0  0  0  0  0  0  0  0  0  0
  -31.5049  -24.6739   17.4974 C   0  0  0  0  0  0  0  0  0  0  0  0
  -16.7509  -27.0565   22.9787 C   0  0  0  0  0  0  0  0  0  0  0  0
  -23.4796  -29.6133   21.5460 C   0  0  0  0  0  0  0  0  0  0  0  0
  -25.1351  -30.9016   20.8869 C   0  0  0  0  0  0  0  0  0  0  0  0
  -33.9150  -22.3172   19.1699 C   0  0  0  0  0  0  0  0  0  0  0  0
  -23.5333  -32.0227   22.4444 C   0  0  0  0  0  0  0  0  0  0  0  0
  -24.9926  -14.2240   20.4034 C   0  0  0  0  0  0  0  0  0  0  0  0
  -23.0323  -16.8047   20.2643 C   0  0  0  0  0  0  0  0  0  0  0  0
  -22.7177  -20.2007   20.1419 C   0  0  0  0  0  0  0  0  0  0  0  0
  -28.5816  -26.2448   19.2768 C   0  0  0  0  0  0  0  0  0  0  0  0
  -21.5878  -10.6855   19.0091 C   0  0  0  0  0  0  0  0  0  0  0  0
  -25.8633  -15.6209   22.3130 C   0  0  0  0  0  0  0  0  0  0  0  0
  -25.4863  -17.2285   19.8598 C   0  0  0  0  0  0  0  0  0  0  0  0
  -21.9766  -12.0786   18.5210 C   0  0  0  0  0  0  0  0  0  0  0  0
  -26.2815  -28.2852   16.9811 C   0  0  0  0  0  0  0  0  0  0  0  0
  -23.4899  -12.1854   18.3617 C   0  0  0  0  0  0  0  0  0  0  0  0
  -25.9196  -29.4238   17.9319 C   0  0  0  0  0  0  0  0  0  0  0  0
  -33.9710  -18.8441   20.4095 C   0  0  0  0  0  0  0  0  0  0  0  0
  -27.5916  -27.6080   17.3632 C   0  0  0  0  0  0  0  0  0  0  0  0
  -34.6785  -20.0424   19.7959 C   0  0  0  0  0  0  0  0  0  0  0  0
  -32.3040  -20.4252   19.7539 C   0  0  0  0  0  0  0  0  0  0  0  0
  -26.5398  -27.6200   19.6325 C   0  0  0  0  0  0  0  0  0  0  0  0
  -24.2023  -11.9711   19.7026 C   0  0  1  0  0  0  0  0  0  0  0  0
  -24.7106  -15.3570   21.3491 C   0  0  1  0  0  0  0  0  0  0  0  0
  -32.5708  -18.9216   19.7964 C   0  0  2  0  0  0  0  0  0  0  0  0
  -26.2617  -29.1137   19.4027 C   0  0  2  0  0  0  0  0  0  0  0  0
  -20.9902  -22.0150   19.9954 C   0  0  0  0  0  0  0  0  0  0  0  0
  -22.6494  -16.1973   17.2987 C   0  0  0  0  0  0  0  0  0  0  0  0
  -21.7299  -18.5087   17.0154 C   0  0  0  0  0  0  0  0  0  0  0  0
  -20.5653  -16.8785   18.5017 C   0  0  0  0  0  0  0  0  0  0  0  0
  -23.5434  -21.3565   22.7383 C   0  0  0  0  0  0  0  0  0  0  0  0
  -31.5284  -18.1480   20.5836 C   0  0  0  0  0  0  0  0  0  1  0  0
  -22.7603  -17.8871   19.2477 C   0  0  1  0  0  0  0  0  0  0  0  0
  -21.8382  -21.1597   20.9239 C   0  0  2  0  0  0  0  0  0  0  0  0
  -21.9522  -17.3639   18.0268 C   0  0  0  0  0  0  0  0  0  0  0  0
  -24.2052  -28.8376   20.7362 N   0  0  0  0  0  0  0  0  0  0  0  0
  -25.2047  -29.6492   20.3512 N   0  0  0  0  0  0  0  0  0  0  0  0
  -33.6259  -21.0221   19.5713 N   0  0  0  0  0  0  0  0  0  0  0  0
  -24.3802  -16.5248   20.5299 N   0  0  0  0  0  0  0  0  0  0  0  0
  -27.6143  -27.1390   18.7563 N   0  0  0  0  0  0  0  0  0  0  0  0
  -26.0603  -31.8434   20.6049 N   0  0  0  0  0  0  0  0  0  0  0  0
  -22.6368  -32.9147   21.8404 N   0  0  0  0  0  0  0  0  0  0  0  0
  -29.5430  -25.8456   18.3446 N   0  0  0  0  0  0  0  0  0  0  0  0
  -24.1141  -13.1635   20.5181 N   0  0  0  0  0  0  0  0  0  0  0  0
  -22.1111  -18.9741   19.9725 N   0  0  0  0  0  0  0  0  0  0  0  0
  -22.6753  -22.0639   21.7621 N   0  3  0  0  0  0  0  0  0  0  0  0
  -35.0443  -22.7597   18.9687 O   0  0  0  0  0  0  0  0  0  0  0  0
  -23.9030  -32.2291   23.6251 O   0  0  0  0  0  0  0  0  0  0  0  0
  -25.9364  -14.3064   19.6262 O   0  0  0  0  0  0  0  0  0  0  0  0
  -22.0837  -16.2337   20.8081 O   0  0  0  0  0  0  0  0  0  0  0  0
  -23.8298  -20.5102   19.7202 O   0  0  0  0  0  0  0  0  0  0  0  0
  -28.5592  -25.8797   20.4541 O   0  0  0  0  0  0  0  0  0  0  0  0
  -18.8719  -27.5919   23.9853 O   0  0  0  0  0  0  0  0  0  0  0  0
  -30.2618  -18.2894   19.9417 O   0  0  0  0  0  0  0  0  0  1  0  0
  -13.9943  -29.2159   21.9915 F   0  0  0  0  0  0  0  0  0  0  0  0
  -31.3184  -25.2203   16.2872 F   0  0  0  0  0  0  0  0  0  0  0  0
  -17.0691  -25.7547   22.9768 F   0  0  0  0  0  0  0  0  0  0  0  0
  1  2  1  0  0  0  0
  1  6  2  0  0  0  0
  2  7  2  0  0  0  0
  3 10  2  0  0  0  0
  3 18  1  0  0  0  0
  4 11  1  0  0  0  0
  4 18  2  0  0  0  0
  5  9  2  0  0  0  0
  5 19  1  0  0  0  0
  6 21  1  0  0  0  0
  7 23  1  0  0  0  0
  8 12  2  0  0  0  0
  8 22  1  0  0  0  0
  9 25  1  0  0  0  0
 10 26  1  0  0  0  0
 11 26  2  0  0  0  0
 12 27  1  0  0  0  0
 13 14  2  0  0  0  0
 13 28  1  0  0  0  0
 14 29  1  0  0  0  0
 15 19  2  0  0  0  0
 15 30  1  0  0  0  0
 16 24  1  0  0  0  0
 16 27  2  0  0  0  0
 17 29  2  0  0  0  0
 17 31  1  0  0  0  0
 18 32  1  0  0  0  0
 19 34  1  0  0  0  0
 20 32  1  0  0  0  0
 20 33  2  0  0  0  0
 20 35  1  0  0  0  0
 21 23  2  0  0  0  0
 21 40  1  0  0  0  0
 22 24  2  0  0  0  0
 22 41  1  0  0  0  0
 23 52  1  0  0  0  0
 24 42  1  0  0  0  0
 25 30  2  0  0  0  0
 25 72  1  0  0  0  0
 26 82  1  0  0  0  0
 27 83  1  0  0  0  0
 28 31  2  0  0  0  0
 28 82  1  0  0  0  0
 29 84  1  0  0  0  0
 30 85  1  0  0  0  0
 31 86  1  0  0  0  0
 32 65  2  0  0  0  0
 33 66  1  0  0  0  0
 33 70  1  0  0  0  0
 34 67  1  0  0  0  0
 34 76  2  0  0  0  0
 35 71  1  0  0  0  0
 35 77  2  0  0  0  0
 36 53  1  0  0  0  0
 36 73  1  0  0  0  0
 36 78  2  0  0  0  0
 37 62  1  0  0  0  0
 37 68  1  0  0  0  0
 37 79  2  0  0  0  0
 38 63  1  0  0  0  0
 38 74  1  0  0  0  0
 38 80  2  0  0  0  0
 39 69  1  0  0  0  0
 39 72  1  0  0  0  0
 39 81  2  0  0  0  0
 40 43  1  0  0  0  0
 41 53  1  0  0  0  0
 42 68  1  0  0  0  0
 43 45  1  0  0  0  0
 44 46  1  0  0  0  0
 44 48  1  0  0  0  0
 45 52  1  0  0  0  0
 46 55  1  0  0  0  0
 47 49  1  0  0  0  0
 47 54  1  0  0  0  0
 48 69  1  0  0  0  0
 49 67  1  0  0  0  0
 50 54  1  0  0  0  0
 50 67  1  0  0  0  0
 51 55  1  0  0  0  0
 51 69  1  0  0  0  0
 52 73  1  0  0  0  0
 53 68  1  0  0  0  0
 54 61  1  0  0  0  0
 55 66  1  0  0  0  0
 56 63  1  0  0  0  0
 57 64  1  0  0  0  0
 58 64  1  0  0  0  0
 59 64  1  0  0  0  0
 60 75  1  0  0  0  0
 61 83  1  0  0  0  0
 62 64  1  0  0  0  0
 62 74  1  0  0  0  0
 63 75  1  0  0  0  0
 65 66  1  0  0  0  0
M  CHG  1  75   1
M  ISO  4  39 100  61 101  72 100  83 101
M  END
> <Batch ID>
0102

> <Smiles>
CNC(C)C(=O)NC(C(=O)N1Cc2cc([101O:1][101CH2:1]C3CCN(C(=O)c4ccc([100NH:0][100C:0](=O)N5CCCC(n6nc(-c7ccc(Oc8ccc(F)cc8F)cc7)c(C(N)=O)c6N)C5)c(F)c4)C3)ccc2CC1C(=O)NC1CCCc2ccccc21)C(C)(C)C

> <Shape>
0.251

> <Color>
0.076

> <Negative vol penalty>
0.000

$$$$

  -OEChem-04052301023D

 77 84  0     1  0  0  0  0  0999 V2000
  -29.6760  -16.5374   20.9565 C   0  0  0  0  0  0  0  0  0  0  0  0
  -29.0933  -17.4094   21.5409 C   0  0  0  0  0  0  0  0  0  0  0  0
  -33.5547  -26.8912   16.5151 C   0  0  0  0  0  0  0  0  0  0  0  0
  -32.7601  -26.1302   17.3665 C   0  0  0  0  0  0  0  0  0  0  0  0
  -22.6924  -12.1123   18.6607 C   0  0  0  0  0  0  0  0  0  0  0  0
  -23.1086  -10.0299   19.8128 C   0  0  0  0  0  0  0  0  0  0  0  0
  -33.7497  -28.2476   16.7722 C   0  0  0  0  0  0  0  0  0  0  0  0
  -32.1608  -26.7251   18.4762 C   0  0  0  0  0  0  0  0  0  0  0  0
  -27.3137  -25.3663   19.0281 C   0  0  0  0  0  0  0  0  0  0  0  0
  -21.6780  -11.5017   17.9233 C   0  0  0  0  0  0  0  0  0  0  0  0
  -22.0941   -9.4192   19.0755 C   0  0  0  0  0  0  0  0  0  0  0  0
  -27.0633  -24.1089   19.5759 C   0  0  0  0  0  0  0  0  0  0  0  0
  -18.7369  -10.5844   15.9937 C   0  0  0  0  0  0  0  0  0  0  0  0
  -17.5352  -11.2771   15.8463 C   0  0  0  0  0  0  0  0  0  0  0  0
  -26.6349  -25.1338   21.7172 C   0  0  0  0  0  0  0  0  0  0  0  0
  -17.2504  -11.2933   18.2455 C   0  0  0  0  0  0  0  0  0  0  0  0
  -23.4077  -11.3764   19.6054 C   0  0  0  0  0  0  0  0  0  0  0  0
  -24.3293  -12.6656   21.6045 C   0  0  0  0  0  0  0  0  0  0  0  0
  -33.1447  -28.8615   17.8803 C   0  0  0  0  0  0  0  0  0  0  0  0
  -27.2371  -26.5178   19.8247 C   0  0  0  0  0  0  0  0  0  0  0  0
  -32.3489  -28.0906   18.7492 C   0  0  0  0  0  0  0  0  0  0  0  0
  -26.8822  -26.4048   21.1765 C   0  0  0  0  0  0  0  0  0  0  0  0
  -21.3789  -10.1551   18.1307 C   0  0  0  0  0  0  0  0  0  0  0  0
  -26.7267  -23.9922   20.9213 C   0  0  0  0  0  0  0  0  0  0  0  0
  -19.1953  -10.2460   17.2669 C   0  0  0  0  0  0  0  0  0  0  0  0
  -16.7920  -11.6316   16.9722 C   0  0  0  0  0  0  0  0  0  0  0  0
  -18.4521  -10.6005   18.3928 C   0  0  0  0  0  0  0  0  0  0  0  0
  -24.4561  -12.0065   20.3670 C   0  0  0  0  0  0  0  0  0  0  0  0
  -25.6031  -13.0842   21.9026 C   0  0  0  0  0  0  0  0  0  0  0  0
  -30.3793  -15.4876   20.2533 C   0  0  0  0  0  0  0  0  0  0  0  0
  -23.1644  -12.8803   22.4123 C   0  0  0  0  0  0  0  0  0  0  0  0
  -29.2958  -28.7694   20.7166 C   0  0  0  0  0  0  0  0  0  0  0  0
  -26.6486  -30.1315   22.0048 C   0  0  0  0  0  0  0  0  0  0  0  0
  -23.4900  -29.7305   23.2332 C   0  0  0  0  0  0  0  0  0  0  0  0
  -27.4195  -20.6063   21.9387 C   0  0  0  0  0  0  0  0  0  0  0  0
  -33.4230  -30.3202   18.1438 C   0  0  0  0  0  0  0  0  0  0  0  0
  -27.4839  -27.8693   19.2123 C   0  0  0  0  0  0  0  0  0  0  0  0
  -26.7668  -27.6121   22.0696 C   0  0  0  0  0  0  0  0  0  0  0  0
  -32.4486  -30.9575   19.1310 C   0  0  0  0  0  0  0  0  0  0  0  0
  -30.0393  -11.9378   19.7796 C   0  0  0  0  0  0  0  0  0  0  0  0
  -32.2594  -30.0596   20.3495 C   0  0  0  0  0  0  0  0  0  0  0  0
  -28.5394  -11.7018   19.9539 C   0  0  0  0  0  0  0  0  0  0  0  0
  -30.3202  -13.2852   19.1223 C   0  0  0  0  0  0  0  0  0  0  0  0
  -28.2006  -14.2129   20.0152 C   0  0  0  0  0  0  0  0  0  0  0  0
  -31.6618  -28.7052   19.9493 C   0  0  1  0  0  0  0  0  0  0  0  0
  -27.8802  -28.9267   20.2381 C   0  0  1  0  0  0  0  0  0  0  0  0
  -27.8793  -12.8738   20.7016 C   0  0  1  0  0  0  0  0  0  0  0  0
  -21.5922  -31.0217   24.2475 C   0  0  0  0  0  0  0  0  0  0  0  0
  -28.1604  -30.2695   24.6516 C   0  0  0  0  0  0  0  0  0  0  0  0
  -25.9709  -30.6578   25.8020 C   0  0  0  0  0  0  0  0  0  0  0  0
  -26.8022  -32.3006   24.1189 C   0  0  0  0  0  0  0  0  0  0  0  0
  -21.6619  -29.0061   21.0213 C   0  0  0  0  0  0  0  0  0  0  0  0
  -28.3867  -18.4718   22.2569 C   0  0  0  0  0  0  0  0  0  0  0  0
  -27.1740  -21.6567   20.8865 C   0  0  0  0  0  0  0  0  0  1  0  0
  -25.9475  -30.0525   23.3394 C   0  0  1  0  0  0  0  0  0  0  0  0
  -22.2004  -30.4840   22.9615 C   0  0  2  0  0  0  0  0  0  0  0  0
  -26.7242  -30.7970   24.4619 C   0  0  0  0  0  0  0  0  0  0  0  0
  -25.7112  -12.0041   19.9103 N   0  0  0  0  0  0  0  0  0  0  0  0
  -26.3848  -12.6669   20.8658 N   0  0  0  0  0  0  0  0  0  0  0  0
  -29.6503  -14.3718   19.8367 N   0  0  0  0  0  0  0  0  0  0  0  0
  -27.0238  -28.9109   21.4258 N   0  0  0  0  0  0  0  0  0  0  0  0
  -26.1194  -13.7648   22.9478 N   0  0  0  0  0  0  0  0  0  0  0  0
  -21.9352  -12.3838   21.9574 N   0  0  0  0  0  0  0  0  0  0  0  0
  -30.2402  -28.8311   19.7096 N   0  0  0  0  0  0  0  0  0  0  0  0
  -24.5936  -30.5493   23.1192 N   0  0  0  0  0  0  0  0  0  0  0  0
  -21.2043  -29.5876   22.3094 N   0  3  0  0  0  0  0  0  0  0  0  0
  -31.5814  -15.6538   20.0708 O   0  0  0  0  0  0  0  0  0  0  0  0
  -23.2092  -13.5084   23.4971 O   0  0  0  0  0  0  0  0  0  0  0  0
  -29.5152  -28.6058   21.9110 O   0  0  0  0  0  0  0  0  0  0  0  0
  -26.8495  -31.2350   21.4915 O   0  0  0  0  0  0  0  0  0  0  0  0
  -23.5155  -28.5361   23.5215 O   0  0  0  0  0  0  0  0  0  0  0  0
  -27.0741  -20.6956   23.1090 O   0  0  0  0  0  0  0  0  0  0  0  0
  -20.3889   -9.5590   17.4116 O   0  0  0  0  0  0  0  0  0  0  0  0
  -26.4824  -22.7661   21.4586 O   0  0  0  0  0  0  0  0  0  1  0  0
  -28.0818  -19.5553   21.3729 O   0  0  0  0  0  0  0  0  0  0  0  0
  -15.6389  -12.2982   16.8307 F   0  0  0  0  0  0  0  0  0  0  0  0
  -18.8880  -10.2793   19.6186 F   0  0  0  0  0  0  0  0  0  0  0  0
  1  2  3  0  0  0  0
  1 30  1  0  0  0  0
  2 53  1  0  0  0  0
  3  4  1  0  0  0  0
  3  7  2  0  0  0  0
  4  8  2  0  0  0  0
  5 10  2  0  0  0  0
  5 17  1  0  0  0  0
  6 11  1  0  0  0  0
  6 17  2  0  0  0  0
  7 19  1  0  0  0  0
  8 21  1  0  0  0  0
  9 12  2  0  0  0  0
  9 20  1  0  0  0  0
 10 23  1  0  0  0  0
 11 23  2  0  0  0  0
 12 24  1  0  0  0  0
 13 14  2  0  0  0  0
 13 25  1  0  0  0  0
 14 26  1  0  0  0  0
 15 22  1  0  0  0  0
 15 24  2  0  0  0  0
 16 26  2  0  0  0  0
 16 27  1  0  0  0  0
 17 28  1  0  0  0  0
 18 28  1  0  0  0  0
 18 29  2  0  0  0  0
 18 31  1  0  0  0  0
 19 21  2  0  0  0  0
 19 36  1  0  0  0  0
 20 22  2  0  0  0  0
 20 37  1  0  0  0  0
 21 45  1  0  0  0  0
 22 38  1  0  0  0  0
 23 73  1  0  0  0  0
 24 74  1  0  0  0  0
 25 27  2  0  0  0  0
 25 73  1  0  0  0  0
 26 76  1  0  0  0  0
 27 77  1  0  0  0  0
 28 58  2  0  0  0  0
 29 59  1  0  0  0  0
 29 62  1  0  0  0  0
 30 60  1  0  0  0  0
 30 67  2  0  0  0  0
 31 63  1  0  0  0  0
 31 68  2  0  0  0  0
 32 46  1  0  0  0  0
 32 64  1  0  0  0  0
 32 69  2  0  0  0  0
 33 55  1  0  0  0  0
 33 61  1  0  0  0  0
 33 70  2  0  0  0  0
 34 56  1  0  0  0  0
 34 65  1  0  0  0  0
 34 71  2  0  0  0  0
 35 54  1  0  0  0  0
 35 72  2  0  0  0  0
 35 75  1  0  0  0  0
 36 39  1  0  0  0  0
 37 46  1  0  0  0  0
 38 61  1  0  0  0  0
 39 41  1  0  0  0  0
 40 42  1  0  0  0  0
 40 43  1  0  0  0  0
 41 45  1  0  0  0  0
 42 47  1  0  0  0  0
 43 60  1  0  0  0  0
 44 47  1  0  0  0  0
 44 60  1  0  0  0  0
 45 64  1  0  0  0  0
 46 61  1  0  0  0  0
 47 59  1  0  0  0  0
 48 56  1  0  0  0  0
 49 57  1  0  0  0  0
 50 57  1  0  0  0  0
 51 57  1  0  0  0  0
 52 66  1  0  0  0  0
 53 75  1  0  0  0  0
 54 74  1  0  0  0  0
 55 57  1  0  0  0  0
 55 65  1  0  0  0  0
 56 66  1  0  0  0  0
 58 59  1  0  0  0  0
M  CHG  1  66   1
M  ISO  4   1 100  30 100  54 101  74 101
M  END
> <Batch ID>
0102

> <Smiles>
CNC(C)C(=O)NC(C(=O)N1Cc2cc([101O:1][101CH2:1]C(=O)OCC#[100C:0][100C:0](=O)N3CCCC(n4nc(-c5ccc(Oc6ccc(F)cc6F)cc5)c(C(N)=O)c4N)C3)ccc2CC1C(=O)NC1CCCc2ccccc21)C(C)(C)C

> <Shape>
0.227

> <Color>
0.125

> <Negative vol penalty>
0.000

$$$$

  -OEChem-04052301023D

 87 96  0     1  0  0  0  0  0999 V2000
  -25.5541  -37.4879   22.2400 C   0  0  0  0  0  0  0  0  0  0  0  0
  -26.3202  -36.4026   21.8268 C   0  0  0  0  0  0  0  0  0  0  0  0
  -33.4796  -20.6513   22.3562 C   0  0  0  0  0  0  0  0  0  0  0  0
  -24.2126  -13.7201   20.7727 C   0  0  0  0  0  0  0  0  0  0  0  0
  -26.5503  -13.3338   20.3009 C   0  0  0  0  0  0  0  0  0  0  0  0
  -24.5037  -37.2972   23.1367 C   0  0  0  0  0  0  0  0  0  0  0  0
  -26.0368  -35.1260   22.3110 C   0  0  0  0  0  0  0  0  0  0  0  0
  -26.5872  -29.8330   19.2800 C   0  0  0  0  0  0  0  0  0  0  0  0
  -32.6942  -19.7383   21.6526 C   0  0  0  0  0  0  0  0  0  0  0  0
  -33.1617  -22.0092   22.3317 C   0  0  0  0  0  0  0  0  0  0  0  0
  -23.9323  -12.3863   20.4763 C   0  0  0  0  0  0  0  0  0  0  0  0
  -26.2700  -11.9999   20.0045 C   0  0  0  0  0  0  0  0  0  0  0  0
  -27.5831  -28.8574   19.2692 C   0  0  0  0  0  0  0  0  0  0  0  0
  -24.2078   -9.3835   22.0061 C   0  0  0  0  0  0  0  0  0  0  0  0
  -23.3676   -8.6888   22.8762 C   0  0  0  0  0  0  0  0  0  0  0  0
  -26.3453  -27.5842   20.9020 C   0  0  0  0  0  0  0  0  0  0  0  0
  -31.2728  -21.5411   20.8999 C   0  0  0  0  0  0  0  0  0  0  0  0
  -21.8164   -8.2973   21.0657 C   0  0  0  0  0  0  0  0  0  0  0  0
  -25.5216  -14.1939   20.6850 C   0  0  0  0  0  0  0  0  0  0  0  0
  -25.5884  -16.2372   22.2109 C   0  0  0  0  0  0  0  0  0  0  0  0
  -24.2013  -36.0162   23.6247 C   0  0  0  0  0  0  0  0  0  0  0  0
  -25.4662  -29.6965   20.1114 C   0  0  0  0  0  0  0  0  0  0  0  0
  -24.9822  -34.9182   23.2162 C   0  0  0  0  0  0  0  0  0  0  0  0
  -25.3353  -28.5582   20.9196 C   0  0  0  0  0  0  0  0  0  0  0  0
  -31.5908  -20.1832   20.9244 C   0  0  0  0  0  0  0  0  0  0  0  0
  -32.0583  -22.4541   21.6036 C   0  0  0  0  0  0  0  0  0  0  0  0
  -24.9610  -11.5262   20.0922 C   0  0  0  0  0  0  0  0  0  0  0  0
  -27.4637  -27.7342   20.0824 C   0  0  0  0  0  0  0  0  0  0  0  0
  -23.8523   -9.5352   20.6658 C   0  0  0  0  0  0  0  0  0  0  0  0
  -22.1720   -8.1457   22.4060 C   0  0  0  0  0  0  0  0  0  0  0  0
  -22.6566   -8.9920   20.1956 C   0  0  0  0  0  0  0  0  0  0  0  0
  -25.8117  -15.5718   20.9905 C   0  0  0  0  0  0  0  0  0  0  0  0
  -26.0298  -17.5187   21.9890 C   0  0  0  0  0  0  0  0  0  0  0  0
  -30.4392  -24.3114   21.4374 C   0  0  0  0  0  0  0  0  0  0  0  0
  -30.0578  -25.5948   21.3689 C   0  0  0  0  0  0  0  0  0  0  0  0
  -31.1410  -26.6179   21.3660 C   0  0  0  0  0  0  0  0  0  0  0  0
  -25.0318  -15.7411   23.4355 C   0  0  0  0  0  0  0  0  0  0  0  0
  -24.2531  -31.3609   22.5325 C   0  0  0  0  0  0  0  0  0  0  0  0
  -21.8198  -29.2323   22.2670 C   0  0  0  0  0  0  0  0  0  0  0  0
  -20.7651  -26.1496   21.2516 C   0  0  0  0  0  0  0  0  0  0  0  0
  -30.0079  -19.4988   17.7709 C   0  0  0  0  0  0  0  0  0  0  0  0
  -23.0861  -35.8665   24.6291 C   0  0  0  0  0  0  0  0  0  0  0  0
  -24.3876  -30.7447   20.0916 C   0  0  0  0  0  0  0  0  0  0  0  0
  -24.1416  -28.3544   21.8151 C   0  0  0  0  0  0  0  0  0  0  0  0
  -32.5691  -26.1342   21.2273 C   0  0  0  0  0  0  0  0  0  0  0  0
  -22.6143  -34.4255   24.8051 C   0  0  0  0  0  0  0  0  0  0  0  0
  -26.6020  -20.7452   18.5109 C   0  0  0  0  0  0  0  0  0  0  0  0
  -23.8079  -33.4873   24.9538 C   0  0  0  0  0  0  0  0  0  0  0  0
  -25.9785  -19.5777   19.2738 C   0  0  0  0  0  0  0  0  0  0  0  0
  -32.8088  -24.7869   21.9034 C   0  0  0  0  0  0  0  0  0  0  0  0
  -27.6772  -20.2758   17.5355 C   0  0  0  0  0  0  0  0  0  0  0  0
  -28.1184  -18.2808   18.9282 C   0  0  0  0  0  0  0  0  0  0  0  0
  -24.6903  -33.5143   23.6999 C   0  0  1  0  0  0  0  0  0  0  0  0
  -23.5386  -30.7525   21.3591 C   0  0  1  0  0  0  0  0  0  0  0  0
  -27.0636  -18.7242   19.9531 C   0  0  2  0  0  0  0  0  0  0  0  0
  -18.7310  -24.6808   21.2029 C   0  0  0  0  0  0  0  0  0  0  0  0
  -22.1768  -28.6435   25.2395 C   0  0  0  0  0  0  0  0  0  0  0  0
  -20.8258  -26.5603   24.9179 C   0  0  0  0  0  0  0  0  0  0  0  0
  -19.7974  -28.7912   24.4837 C   0  0  0  0  0  0  0  0  0  0  0  0
  -32.4005  -19.3240   18.3405 C   0  0  0  0  0  0  0  0  0  0  0  0
  -20.7771  -26.0336   18.2944 C   0  0  0  0  0  0  0  0  0  0  0  0
  -30.7517  -19.2068   20.1717 C   0  0  0  0  0  0  0  0  0  0  0  0
  -28.6390  -26.0515   21.2837 C   0  0  0  0  0  0  0  0  0  1  0  0
  -21.5121  -27.8804   22.8642 C   0  0  1  0  0  0  0  0  0  0  0  0
  -19.5532  -25.7138   20.4481 C   0  0  2  0  0  0  0  0  0  0  0  0
  -21.1016  -27.9733   24.3610 C   0  0  0  0  0  0  0  0  0  0  0  0
  -26.3528  -16.3651   20.0622 N   0  0  0  0  0  0  0  0  0  0  0  0
  -26.4731  -17.5423   20.6994 N   0  0  0  0  0  0  0  0  0  0  0  0
  -31.7344  -23.8363   21.5791 N   0  0  0  0  0  0  0  0  0  0  0  0
  -23.1169  -29.4103   21.7651 N   0  0  0  0  0  0  0  0  0  0  0  0
  -28.6716  -19.4314   18.1982 N   0  0  0  0  0  0  0  0  0  0  0  0
  -26.0781  -18.6165   22.7732 N   0  0  0  0  0  0  0  0  0  0  0  0
  -25.8988  -15.1881   24.3878 N   0  0  0  0  0  0  0  0  0  0  0  0
  -24.0904  -32.7287   22.6428 N   0  0  0  0  0  0  0  0  0  0  0  0
  -20.5015  -27.2746   22.0040 N   0  0  0  0  0  0  0  0  0  0  0  0
  -31.0000  -19.2543   18.7325 N   0  0  0  0  0  0  0  0  0  0  0  0
  -19.9791  -25.1182   19.1501 N   0  3  0  0  0  0  0  0  0  0  0  0
  -30.8738  -27.8176   21.4019 O   0  0  0  0  0  0  0  0  0  0  0  0
  -23.8001  -15.7719   23.6713 O   0  0  0  0  0  0  0  0  0  0  0  0
  -24.9026  -30.6424   23.2832 O   0  0  0  0  0  0  0  0  0  0  0  0
  -20.9396  -30.0961   22.2402 O   0  0  0  0  0  0  0  0  0  0  0  0
  -21.8373  -25.5496   21.2183 O   0  0  0  0  0  0  0  0  0  0  0  0
  -30.2978  -19.7718   16.5990 O   0  0  0  0  0  0  0  0  0  0  0  0
  -24.6878  -10.2245   19.8031 O   0  0  0  0  0  0  0  0  0  0  0  0
  -28.4348  -26.7809   20.0743 O   0  0  0  0  0  0  0  0  0  1  0  0
  -21.3660   -7.4773   23.2414 F   0  0  0  0  0  0  0  0  0  0  0  0
  -22.3103   -9.1335   18.9088 F   0  0  0  0  0  0  0  0  0  0  0  0
  1  2  1  0  0  0  0
  1  6  2  0  0  0  0
  2  7  2  0  0  0  0
  3  9  1  0  0  0  0
  3 10  2  0  0  0  0
  4 11  2  0  0  0  0
  4 19  1  0  0  0  0
  5 12  1  0  0  0  0
  5 19  2  0  0  0  0
  6 21  1  0  0  0  0
  7 23  1  0  0  0  0
  8 13  2  0  0  0  0
  8 22  1  0  0  0  0
  9 25  2  0  0  0  0
 10 26  1  0  0  0  0
 11 27  1  0  0  0  0
 12 27  2  0  0  0  0
 13 28  1  0  0  0  0
 14 15  2  0  0  0  0
 14 29  1  0  0  0  0
 15 30  1  0  0  0  0
 16 24  1  0  0  0  0
 16 28  2  0  0  0  0
 17 25  1  0  0  0  0
 17 26  2  0  0  0  0
 18 30  2  0  0  0  0
 18 31  1  0  0  0  0
 19 32  1  0  0  0  0
 20 32  1  0  0  0  0
 20 33  2  0  0  0  0
 20 37  1  0  0  0  0
 21 23  2  0  0  0  0
 21 42  1  0  0  0  0
 22 24  2  0  0  0  0
 22 43  1  0  0  0  0
 23 53  1  0  0  0  0
 24 44  1  0  0  0  0
 25 62  1  0  0  0  0
 26 69  1  0  0  0  0
 27 84  1  0  0  0  0
 28 85  1  0  0  0  0
 29 31  2  0  0  0  0
 29 84  1  0  0  0  0
 30 86  1  0  0  0  0
 31 87  1  0  0  0  0
 32 67  2  0  0  0  0
 33 68  1  0  0  0  0
 33 72  1  0  0  0  0
 34 35  2  0  0  0  0
 34 69  1  0  0  0  0
 35 36  1  0  0  0  0
 35 63  1  0  0  0  0
 36 45  1  0  0  0  0
 36 78  2  0  0  0  0
 37 73  1  0  0  0  0
 37 79  2  0  0  0  0
 38 54  1  0  0  0  0
 38 74  1  0  0  0  0
 38 80  2  0  0  0  0
 39 64  1  0  0  0  0
 39 70  1  0  0  0  0
 39 81  2  0  0  0  0
 40 65  1  0  0  0  0
 40 75  1  0  0  0  0
 40 82  2  0  0  0  0
 41 71  1  0  0  0  0
 41 76  1  0  0  0  0
 41 83  2  0  0  0  0
 42 46  1  0  0  0  0
 43 54  1  0  0  0  0
 44 70  1  0  0  0  0
 45 50  1  0  0  0  0
 46 48  1  0  0  0  0
 47 49  1  0  0  0  0
 47 51  1  0  0  0  0
 48 53  1  0  0  0  0
 49 55  1  0  0  0  0
 50 69  1  0  0  0  0
 51 71  1  0  0  0  0
 52 55  1  0  0  0  0
 52 71  1  0  0  0  0
 53 74  1  0  0  0  0
 54 70  1  0  0  0  0
 55 68  1  0  0  0  0
 56 65  1  0  0  0  0
 57 66  1  0  0  0  0
 58 66  1  0  0  0  0
 59 66  1  0  0  0  0
 60 76  1  0  0  0  0
 61 77  1  0  0  0  0
 62 76  1  0  0  0  0
 63 85  1  0  0  0  0
 64 66  1  0  0  0  0
 64 75  1  0  0  0  0
 65 77  1  0  0  0  0
 67 68  1  0  0  0  0
M  CHG  1  77   1
M  ISO  4  41 100  63 101  76 100  85 101
M  END
> <Batch ID>
0102

> <Smiles>
CNC(C)C(=O)NC(C(=O)N1Cc2cc([101O:1][101CH2:1]C3=CN(c4cccc(C[100N:0](C)[100C:0](=O)N5CCCC(n6nc(-c7ccc(Oc8ccc(F)cc8F)cc7)c(C(N)=O)c6N)C5)c4)CCC3=O)ccc2CC1C(=O)NC1CCCc2ccccc21)C(C)(C)C

> <Shape>
0.282

> <Color>
0.080

> <Negative vol penalty>
0.000

$$$$

  -OEChem-04052301023D

 88 97  0     1  0  0  0  0  0999 V2000
  -16.6812  -30.3111   23.8948 C   0  0  0  0  0  0  0  0  0  0  0  0
  -17.7957  -31.0642   23.5433 C   0  0  0  0  0  0  0  0  0  0  0  0
  -23.5085  -13.5806   20.4433 C   0  0  0  0  0  0  0  0  0  0  0  0
  -24.9487  -15.4964   20.1394 C   0  0  0  0  0  0  0  0  0  0  0  0
  -16.7557  -28.9198   23.8915 C   0  0  0  0  0  0  0  0  0  0  0  0
  -18.9814  -30.4264   23.1768 C   0  0  0  0  0  0  0  0  0  0  0  0
  -26.5585  -29.7489   20.8635 C   0  0  0  0  0  0  0  0  0  0  0  0
  -24.7230  -23.7387   21.9477 C   0  0  0  0  0  0  0  0  0  0  0  0
  -26.1161  -23.8067   21.9622 C   0  0  0  0  0  0  0  0  0  0  0  0
  -24.4618  -12.7669   19.8312 C   0  0  0  0  0  0  0  0  0  0  0  0
  -25.9020  -14.6827   19.5273 C   0  0  0  0  0  0  0  0  0  0  0  0
  -27.6348  -28.8637   20.8241 C   0  0  0  0  0  0  0  0  0  0  0  0
  -28.2822  -12.4835   20.4857 C   0  0  0  0  0  0  0  0  0  0  0  0
  -29.6132  -12.6452   20.8703 C   0  0  0  0  0  0  0  0  0  0  0  0
  -26.2656  -27.2606   19.6516 C   0  0  0  0  0  0  0  0  0  0  0  0
  -26.1487  -23.6538   19.5512 C   0  0  0  0  0  0  0  0  0  0  0  0
  -30.2019  -13.2088   18.5959 C   0  0  0  0  0  0  0  0  0  0  0  0
  -23.7519  -14.9454   20.5973 C   0  0  0  0  0  0  0  0  0  0  0  0
  -22.2609  -15.6676   22.5371 C   0  0  0  0  0  0  0  0  0  0  0  0
  -17.9469  -28.2655   23.5367 C   0  0  0  0  0  0  0  0  0  0  0  0
  -25.3223  -29.3918   20.3060 C   0  0  0  0  0  0  0  0  0  0  0  0
  -19.0693  -29.0229   23.1441 C   0  0  0  0  0  0  0  0  0  0  0  0
  -25.1759  -28.1441   19.6830 C   0  0  0  0  0  0  0  0  0  0  0  0
  -24.0427  -23.6281   20.7350 C   0  0  0  0  0  0  0  0  0  0  0  0
  -26.8290  -23.7644   20.7640 C   0  0  0  0  0  0  0  0  0  0  0  0
  -25.6586  -13.3179   19.3732 C   0  0  0  0  0  0  0  0  0  0  0  0
  -27.4877  -27.6181   20.2206 C   0  0  0  0  0  0  0  0  0  0  0  0
  -27.9111  -12.6843   19.1562 C   0  0  0  0  0  0  0  0  0  0  0  0
  -30.5730  -13.0079   19.9254 C   0  0  0  0  0  0  0  0  0  0  0  0
  -24.7556  -23.5857   19.5368 C   0  0  0  0  0  0  0  0  0  0  0  0
  -28.8709  -13.0470   18.2113 C   0  0  0  0  0  0  0  0  0  0  0  0
  -22.7673  -15.7866   21.2290 C   0  0  0  0  0  0  0  0  0  0  0  0
  -21.3598  -16.6979   22.6515 C   0  0  0  0  0  0  0  0  0  0  0  0
  -29.0479  -23.2057   19.7892 C   0  0  0  0  0  0  0  0  0  0  0  0
  -22.5767  -14.7113   23.5576 C   0  0  0  0  0  0  0  0  0  0  0  0
  -22.3805  -28.9929   21.4420 C   0  0  0  0  0  0  0  0  0  0  0  0
  -21.6396  -28.6203   18.3060 C   0  0  0  0  0  0  0  0  0  0  0  0
  -23.0783  -26.9700   15.4382 C   0  0  0  0  0  0  0  0  0  0  0  0
  -20.8323  -21.9798   19.8813 C   0  0  0  0  0  0  0  0  0  0  0  0
  -17.9697  -26.7573   23.5426 C   0  0  0  0  0  0  0  0  0  0  0  0
  -24.1789  -30.3686   20.3331 C   0  0  0  0  0  0  0  0  0  0  0  0
  -23.8756  -27.7207   19.0518 C   0  0  0  0  0  0  0  0  0  0  0  0
  -30.5347  -23.4642   19.9430 C   0  0  0  0  0  0  0  0  0  0  0  0
  -19.3828  -26.1842   23.5722 C   0  0  0  0  0  0  0  0  0  0  0  0
  -30.7703  -24.9451   20.1933 C   0  0  0  0  0  0  0  0  0  0  0  0
  -18.3956  -19.3881   20.0311 C   0  0  0  0  0  0  0  0  0  0  0  0
  -20.2354  -26.8481   22.5013 C   0  0  0  0  0  0  0  0  0  0  0  0
  -19.1940  -18.1605   20.4731 C   0  0  0  0  0  0  0  0  0  0  0  0
  -19.2072  -20.2827   19.0967 C   0  0  0  0  0  0  0  0  0  0  0  0
  -21.3220  -19.4651   20.0626 C   0  0  0  0  0  0  0  0  0  0  0  0
  -28.9558  -24.4416   21.9229 C   0  0  0  0  0  0  0  0  0  0  0  0
  -20.3786  -28.3513   22.7714 C   0  0  1  0  0  0  0  0  0  0  0  0
  -22.8164  -29.6976   20.1885 C   0  0  1  0  0  0  0  0  0  0  0  0
  -20.5648  -18.5613   21.0506 C   0  0  2  0  0  0  0  0  0  0  0  0
  -30.0750  -25.4232   21.4885 C   0  0  1  0  0  0  0  0  0  0  0  0
  -31.1067  -25.5241   22.6272 C   0  0  0  0  0  0  0  0  0  0  0  0
  -22.8754  -27.4809   12.9897 C   0  0  0  0  0  0  0  0  0  0  0  0
  -19.3639  -26.5888   18.3665 C   0  0  0  0  0  0  0  0  0  0  0  0
  -20.1245  -25.7742   16.1246 C   0  0  0  0  0  0  0  0  0  0  0  0
  -19.3377  -28.1260   16.3941 C   0  0  0  0  0  0  0  0  0  0  0  0
  -26.0152  -27.1310   15.1099 C   0  0  0  0  0  0  0  0  0  0  0  0
  -22.5528  -23.5575   20.7238 C   0  0  0  0  0  0  0  0  0  0  0  0
  -29.4783  -26.8234   21.2510 C   0  0  0  0  0  0  0  0  0  1  0  0
  -21.5770  -27.4505   17.3539 C   0  0  1  0  0  0  0  0  0  0  0  0
  -23.7292  -27.6349   14.2388 C   0  0  2  0  0  0  0  0  0  0  0  0
  -20.1186  -26.9851   17.0819 C   0  0  0  0  0  0  0  0  0  0  0  0
  -22.2323  -16.8115   20.5602 N   0  0  0  0  0  0  0  0  0  0  0  0
  -21.3803  -17.3459   21.4516 N   0  0  0  0  0  0  0  0  0  0  0  0
  -28.2650  -23.8325   20.7791 N   0  0  0  0  0  0  0  0  0  0  0  0
  -22.7852  -28.7082   19.1095 N   0  0  0  0  0  0  0  0  0  0  0  0
  -20.4948  -20.6278   19.7042 N   0  0  0  0  0  0  0  0  0  0  0  0
  -20.5598  -17.1036   23.6604 N   0  0  0  0  0  0  0  0  0  0  0  0
  -23.6197  -15.0033   24.4471 N   0  0  0  0  0  0  0  0  0  0  0  0
  -21.0119  -28.9775   21.6319 N   0  0  0  0  0  0  0  0  0  0  0  0
  -22.3071  -27.8577   16.1582 N   0  0  0  0  0  0  0  0  0  0  0  0
  -22.0679  -22.2191   20.4701 N   0  0  0  0  0  0  0  0  0  0  0  0
  -25.0648  -27.0299   13.9726 N   0  3  0  0  0  0  0  0  0  0  0  0
  -28.6464  -22.4615   18.8955 O   0  0  0  0  0  0  0  0  0  0  0  0
  -21.9633  -13.6225   23.6669 O   0  0  0  0  0  0  0  0  0  0  0  0
  -23.2235  -28.4983   22.1813 O   0  0  0  0  0  0  0  0  0  0  0  0
  -20.7097  -29.4304   18.3305 O   0  0  0  0  0  0  0  0  0  0  0  0
  -23.2352  -25.7811   15.7073 O   0  0  0  0  0  0  0  0  0  0  0  0
  -20.0854  -22.9049   19.5448 O   0  0  0  0  0  0  0  0  0  0  0  0
  -26.5891  -12.5241   18.7761 O   0  0  0  0  0  0  0  0  0  0  0  0
  -28.5364  -26.7519   20.1813 O   0  0  0  0  0  0  0  0  0  1  0  0
  -31.8509  -13.1647   20.2952 F   0  0  0  0  0  0  0  0  0  0  0  0
  -24.1108  -23.4797   18.3665 F   0  0  0  0  0  0  0  0  0  0  0  0
  -28.5201  -13.2425   16.9328 F   0  0  0  0  0  0  0  0  0  0  0  0
  1  2  1  0  0  0  0
  1  5  2  0  0  0  0
  2  6  2  0  0  0  0
  3 10  2  0  0  0  0
  3 18  1  0  0  0  0
  4 11  1  0  0  0  0
  4 18  2  0  0  0  0
  5 20  1  0  0  0  0
  6 22  1  0  0  0  0
  7 12  2  0  0  0  0
  7 21  1  0  0  0  0
  8  9  2  0  0  0  0
  8 24  1  0  0  0  0
  9 25  1  0  0  0  0
 10 26  1  0  0  0  0
 11 26  2  0  0  0  0
 12 27  1  0  0  0  0
 13 14  2  0  0  0  0
 13 28  1  0  0  0  0
 14 29  1  0  0  0  0
 15 23  1  0  0  0  0
 15 27  2  0  0  0  0
 16 25  2  0  0  0  0
 16 30  1  0  0  0  0
 17 29  2  0  0  0  0
 17 31  1  0  0  0  0
 18 32  1  0  0  0  0
 19 32  1  0  0  0  0
 19 33  2  0  0  0  0
 19 35  1  0  0  0  0
 20 22  2  0  0  0  0
 20 40  1  0  0  0  0
 21 23  2  0  0  0  0
 21 41  1  0  0  0  0
 22 52  1  0  0  0  0
 23 42  1  0  0  0  0
 24 30  2  0  0  0  0
 24 62  1  0  0  0  0
 25 69  1  0  0  0  0
 26 84  1  0  0  0  0
 27 85  1  0  0  0  0
 28 31  2  0  0  0  0
 28 84  1  0  0  0  0
 29 86  1  0  0  0  0
 30 87  1  0  0  0  0
 31 88  1  0  0  0  0
 32 67  2  0  0  0  0
 33 68  1  0  0  0  0
 33 72  1  0  0  0  0
 34 43  1  0  0  0  0
 34 69  1  0  0  0  0
 34 78  2  0  0  0  0
 35 73  1  0  0  0  0
 35 79  2  0  0  0  0
 36 53  1  0  0  0  0
 36 74  1  0  0  0  0
 36 80  2  0  0  0  0
 37 64  1  0  0  0  0
 37 70  1  0  0  0  0
 37 81  2  0  0  0  0
 38 65  1  0  0  0  0
 38 75  1  0  0  0  0
 38 82  2  0  0  0  0
 39 71  1  0  0  0  0
 39 76  1  0  0  0  0
 39 83  2  0  0  0  0
 40 44  1  0  0  0  0
 41 53  1  0  0  0  0
 42 70  1  0  0  0  0
 43 45  1  0  0  0  0
 44 47  1  0  0  0  0
 45 55  1  0  0  0  0
 46 48  1  0  0  0  0
 46 49  1  0  0  0  0
 47 52  1  0  0  0  0
 48 54  1  0  0  0  0
 49 71  1  0  0  0  0
 50 54  1  0  0  0  0
 50 71  1  0  0  0  0
 51 55  1  0  0  0  0
 51 69  1  0  0  0  0
 52 74  1  0  0  0  0
 53 70  1  0  0  0  0
 54 68  1  0  0  0  0
 55 56  1  0  0  0  0
 55 63  1  0  0  0  0
 57 65  1  0  0  0  0
 58 66  1  0  0  0  0
 59 66  1  0  0  0  0
 60 66  1  0  0  0  0
 61 77  1  0  0  0  0
 62 76  1  0  0  0  0
 63 85  1  0  0  0  0
 64 66  1  0  0  0  0
 64 75  1  0  0  0  0
 65 77  1  0  0  0  0
 67 68  1  0  0  0  0
M  CHG  1  77   1
M  ISO  4  39 100  63 101  76 100  85 101
M  END
> <Batch ID>
0102

> <Smiles>
CNC(C)C(=O)NC(C(=O)N1Cc2cc([101O:1][101CH2:1]C3(C)CCC(=O)N(c4ccc(C[100NH:0][100C:0](=O)N5CCCC(n6nc(-c7ccc(Oc8ccc(F)cc8F)cc7)c(C(N)=O)c6N)C5)c(F)c4)C3)ccc2CC1C(=O)NC1CCCc2ccccc21)C(C)(C)C

> <Shape>
0.239

> <Color>
0.115

> <Negative vol penalty>
0.000

$$$$

  -OEChem-04052301023D

 86 95  0     1  0  0  0  0  0999 V2000
  -26.7532  -34.8231   23.7493 C   0  0  0  0  0  0  0  0  0  0  0  0
  -27.1615  -33.5345   23.4202 C   0  0  0  0  0  0  0  0  0  0  0  0
  -22.5117  -13.4550   18.6438 C   0  0  0  0  0  0  0  0  0  0  0  0
  -23.2020  -11.2561   19.3687 C   0  0  0  0  0  0  0  0  0  0  0  0
  -25.4727  -35.0391   24.2568 C   0  0  0  0  0  0  0  0  0  0  0  0
  -26.2897  -32.4610   23.5995 C   0  0  0  0  0  0  0  0  0  0  0  0
  -26.2542  -29.3050   19.6393 C   0  0  0  0  0  0  0  0  0  0  0  0
  -29.8160  -21.5026   22.9415 C   0  0  0  0  0  0  0  0  0  0  0  0
  -29.5981  -20.1385   22.7482 C   0  0  0  0  0  0  0  0  0  0  0  0
  -21.5308  -12.8806   17.8354 C   0  0  0  0  0  0  0  0  0  0  0  0
  -22.2210  -10.6817   18.5603 C   0  0  0  0  0  0  0  0  0  0  0  0
  -27.3191  -28.4121   19.5271 C   0  0  0  0  0  0  0  0  0  0  0  0
  -18.4474  -11.5488   18.2252 C   0  0  0  0  0  0  0  0  0  0  0  0
  -17.1729  -12.1151   18.2508 C   0  0  0  0  0  0  0  0  0  0  0  0
  -25.9441  -26.6641   20.4614 C   0  0  0  0  0  0  0  0  0  0  0  0
  -29.3002  -21.9145   20.6175 C   0  0  0  0  0  0  0  0  0  0  0  0
  -17.3302  -12.5761   15.8844 C   0  0  0  0  0  0  0  0  0  0  0  0
  -23.3474  -12.6427   19.4104 C   0  0  0  0  0  0  0  0  0  0  0  0
  -24.2291  -13.6365   21.5881 C   0  0  0  0  0  0  0  0  0  0  0  0
  -24.5815  -33.9690   24.4333 C   0  0  0  0  0  0  0  0  0  0  0  0
  -25.0276  -28.8861   20.1744 C   0  0  0  0  0  0  0  0  0  0  0  0
  -24.9966  -32.6628   24.1111 C   0  0  0  0  0  0  0  0  0  0  0  0
  -24.8644  -27.5529   20.5769 C   0  0  0  0  0  0  0  0  0  0  0  0
  -29.0823  -20.5503   20.4240 C   0  0  0  0  0  0  0  0  0  0  0  0
  -29.6670  -22.3906   21.8762 C   0  0  0  0  0  0  0  0  0  0  0  0
  -29.2313  -19.6624   21.4894 C   0  0  0  0  0  0  0  0  0  0  0  0
  -21.3854  -11.4939   17.7937 C   0  0  0  0  0  0  0  0  0  0  0  0
  -27.1651  -27.0922   19.9408 C   0  0  0  0  0  0  0  0  0  0  0  0
  -19.1633  -11.4963   17.0292 C   0  0  0  0  0  0  0  0  0  0  0  0
  -16.6143  -12.6287   17.0804 C   0  0  0  0  0  0  0  0  0  0  0  0
  -18.6047  -12.0099   15.8588 C   0  0  0  0  0  0  0  0  0  0  0  0
  -24.3612  -13.2355   20.2452 C   0  0  0  0  0  0  0  0  0  0  0  0
  -25.4654  -14.1335   21.9212 C   0  0  0  0  0  0  0  0  0  0  0  0
  -30.2585  -24.4124   23.2873 C   0  0  0  0  0  0  0  0  0  0  0  0
  -23.0907  -13.5660   22.4569 C   0  0  0  0  0  0  0  0  0  0  0  0
  -23.2922  -29.6986   22.7105 C   0  0  0  0  0  0  0  0  0  0  0  0
  -21.1298  -27.6704   21.3940 C   0  0  0  0  0  0  0  0  0  0  0  0
  -20.5284  -25.0061   19.3479 C   0  0  0  0  0  0  0  0  0  0  0  0
  -29.7735  -17.4948   20.3926 C   0  0  0  0  0  0  0  0  0  0  0  0
  -23.2240  -34.2456   25.0295 C   0  0  0  0  0  0  0  0  0  0  0  0
  -23.8803  -29.8547   20.2640 C   0  0  0  0  0  0  0  0  0  0  0  0
  -23.5616  -27.0481   21.1393 C   0  0  0  0  0  0  0  0  0  0  0  0
  -30.3964  -25.8921   23.0173 C   0  0  0  0  0  0  0  0  0  0  0  0
  -22.2301  -33.1030   24.8375 C   0  0  0  0  0  0  0  0  0  0  0  0
  -30.5459  -25.9635   21.5094 C   0  0  0  0  0  0  0  0  0  0  0  0
  -29.8839  -13.9202   19.4869 C   0  0  0  0  0  0  0  0  0  0  0  0
  -22.8784  -31.7671   25.1868 C   0  0  0  0  0  0  0  0  0  0  0  0
  -28.4299  -13.4818   19.6532 C   0  0  0  0  0  0  0  0  0  0  0  0
  -29.9914  -15.3924   19.1007 C   0  0  0  0  0  0  0  0  0  0  0  0
  -27.8270  -15.8735   20.2025 C   0  0  0  0  0  0  0  0  0  0  0  0
  -24.0711  -31.4757   24.2680 C   0  0  1  0  0  0  0  0  0  0  0  0
  -22.8365  -29.4503   21.3004 C   0  0  1  0  0  0  0  0  0  0  0  0
  -27.6869  -14.4057   20.6337 C   0  0  1  0  0  0  0  0  0  0  0  0
  -29.7318  -24.7758   21.0084 C   0  0  2  0  0  0  0  0  0  0  0  0
  -28.6883  -20.0682   19.0657 C   0  0  0  0  0  0  0  0  0  0  0  0
  -18.6652  -23.5542   18.5006 C   0  0  0  0  0  0  0  0  0  0  0  0
  -21.0413  -26.2219   24.0781 C   0  0  0  0  0  0  0  0  0  0  0  0
  -19.9477  -24.2900   22.9205 C   0  0  0  0  0  0  0  0  0  0  0  0
  -18.8155  -26.5122   22.9754 C   0  0  0  0  0  0  0  0  0  0  0  0
  -28.1452  -17.5478   22.2675 C   0  0  0  0  0  0  0  0  0  0  0  0
  -21.0379  -25.7909   16.5402 C   0  0  0  0  0  0  0  0  0  0  0  0
  -28.2675  -25.1649   20.7929 C   0  0  0  0  0  0  0  0  0  1  0  0
  -20.8462  -26.1917   21.5038 C   0  0  1  0  0  0  0  0  0  0  0  0
  -19.5079  -24.7938   18.2442 C   0  0  2  0  0  0  0  0  0  0  0  0
  -20.1880  -25.8136   22.8607 C   0  0  0  0  0  0  0  0  0  0  0  0
  -25.5848  -13.4586   19.7584 N   0  0  0  0  0  0  0  0  0  0  0  0
  -26.2329  -14.0053   20.8011 N   0  0  0  0  0  0  0  0  0  0  0  0
  -29.8880  -23.7913   22.0756 N   0  0  0  0  0  0  0  0  0  0  0  0
  -22.4715  -28.0350   21.2126 N   0  0  0  0  0  0  0  0  0  0  0  0
  -29.2390  -16.2444   20.0224 N   0  0  0  0  0  0  0  0  0  0  0  0
  -25.9600  -14.6634   23.0601 N   0  0  0  0  0  0  0  0  0  0  0  0
  -21.8988  -13.0268   21.9538 N   0  0  0  0  0  0  0  0  0  0  0  0
  -23.6123  -31.0167   22.9745 N   0  0  0  0  0  0  0  0  0  0  0  0
  -20.0477  -25.8413   20.3341 N   0  0  0  0  0  0  0  0  0  0  0  0
  -29.0088  -18.2470   21.3104 N   0  0  0  0  0  0  0  0  0  0  0  0
  -20.1921  -24.6335   16.9300 N   0  3  0  0  0  0  0  0  0  0  0  0
  -30.4283  -23.9357   24.4002 O   0  0  0  0  0  0  0  0  0  0  0  0
  -23.1245  -13.9842   23.6390 O   0  0  0  0  0  0  0  0  0  0  0  0
  -23.3477  -28.7638   23.5009 O   0  0  0  0  0  0  0  0  0  0  0  0
  -20.1946  -28.4721   21.4595 O   0  0  0  0  0  0  0  0  0  0  0  0
  -21.6392  -24.4804   19.3381 O   0  0  0  0  0  0  0  0  0  0  0  0
  -30.8616  -17.8931   19.9601 O   0  0  0  0  0  0  0  0  0  0  0  0
  -20.4282  -10.9331   17.0052 O   0  0  0  0  0  0  0  0  0  0  0  0
  -28.2031  -26.2189   19.8330 O   0  0  0  0  0  0  0  0  0  1  0  0
  -15.3898  -13.1710   17.1049 F   0  0  0  0  0  0  0  0  0  0  0  0
  -19.2872  -11.9612   14.7066 F   0  0  0  0  0  0  0  0  0  0  0  0
  1  2  1  0  0  0  0
  1  5  2  0  0  0  0
  2  6  2  0  0  0  0
  3 10  2  0  0  0  0
  3 18  1  0  0  0  0
  4 11  1  0  0  0  0
  4 18  2  0  0  0  0
  5 20  1  0  0  0  0
  6 22  1  0  0  0  0
  7 12  2  0  0  0  0
  7 21  1  0  0  0  0
  8  9  2  0  0  0  0
  8 25  1  0  0  0  0
  9 26  1  0  0  0  0
 10 27  1  0  0  0  0
 11 27  2  0  0  0  0
 12 28  1  0  0  0  0
 13 14  2  0  0  0  0
 13 29  1  0  0  0  0
 14 30  1  0  0  0  0
 15 23  1  0  0  0  0
 15 28  2  0  0  0  0
 16 24  1  0  0  0  0
 16 25  2  0  0  0  0
 17 30  2  0  0  0  0
 17 31  1  0  0  0  0
 18 32  1  0  0  0  0
 19 32  1  0  0  0  0
 19 33  2  0  0  0  0
 19 35  1  0  0  0  0
 20 22  2  0  0  0  0
 20 40  1  0  0  0  0
 21 23  2  0  0  0  0
 21 41  1  0  0  0  0
 22 51  1  0  0  0  0
 23 42  1  0  0  0  0
 24 26  2  0  0  0  0
 24 55  1  0  0  0  0
 25 68  1  0  0  0  0
 26 75  1  0  0  0  0
 27 83  1  0  0  0  0
 28 84  1  0  0  0  0
 29 31  2  0  0  0  0
 29 83  1  0  0  0  0
 30 85  1  0  0  0  0
 31 86  1  0  0  0  0
 32 66  2  0  0  0  0
 33 67  1  0  0  0  0
 33 71  1  0  0  0  0
 34 43  1  0  0  0  0
 34 68  1  0  0  0  0
 34 77  2  0  0  0  0
 35 72  1  0  0  0  0
 35 78  2  0  0  0  0
 36 52  1  0  0  0  0
 36 73  1  0  0  0  0
 36 79  2  0  0  0  0
 37 63  1  0  0  0  0
 37 69  1  0  0  0  0
 37 80  2  0  0  0  0
 38 64  1  0  0  0  0
 38 74  1  0  0  0  0
 38 81  2  0  0  0  0
 39 70  1  0  0  0  0
 39 75  1  0  0  0  0
 39 82  2  0  0  0  0
 40 44  1  0  0  0  0
 41 52  1  0  0  0  0
 42 69  1  0  0  0  0
 43 45  1  0  0  0  0
 44 47  1  0  0  0  0
 45 54  1  0  0  0  0
 46 48  1  0  0  0  0
 46 49  1  0  0  0  0
 47 51  1  0  0  0  0
 48 53  1  0  0  0  0
 49 70  1  0  0  0  0
 50 53  1  0  0  0  0
 50 70  1  0  0  0  0
 51 73  1  0  0  0  0
 52 69  1  0  0  0  0
 53 67  1  0  0  0  0
 54 62  1  0  0  0  0
 54 68  1  0  0  0  0
 56 64  1  0  0  0  0
 57 65  1  0  0  0  0
 58 65  1  0  0  0  0
 59 65  1  0  0  0  0
 60 75  1  0  0  0  0
 61 76  1  0  0  0  0
 62 84  1  0  0  0  0
 63 65  1  0  0  0  0
 63 74  1  0  0  0  0
 64 76  1  0  0  0  0
 66 67  1  0  0  0  0
M  CHG  1  76   1
M  ISO  4  39 100  62 101  75 100  84 101
M  END
> <Batch ID>
0102

> <Smiles>
CNC(C)C(=O)NC(C(=O)N1Cc2cc([101O:1][101CH2:1]C3CCC(=O)N3c3ccc([100N:0](C)[100C:0](=O)N4CCCC(n5nc(-c6ccc(Oc7ccc(F)cc7F)cc6)c(C(N)=O)c5N)C4)c(C)c3)ccc2CC1C(=O)NC1CCCc2ccccc21)C(C)(C)C

> <Shape>
0.260

> <Color>
0.092

> <Negative vol penalty>
0.000

$$$$

  -OEChem-04052301023D

 89 97  0     1  0  0  0  0  0999 V2000
  -30.0089  -35.3919   24.9076 C   0  0  0  0  0  0  0  0  0  0  0  0
  -30.0706  -34.1767   24.2331 C   0  0  0  0  0  0  0  0  0  0  0  0
  -24.6299   -8.3870   21.3644 C   0  0  0  0  0  0  0  0  0  0  0  0
  -23.0011  -10.1436   21.6786 C   0  0  0  0  0  0  0  0  0  0  0  0
  -28.8448  -35.7540   25.5841 C   0  0  0  0  0  0  0  0  0  0  0  0
  -28.9685  -33.3224   24.2356 C   0  0  0  0  0  0  0  0  0  0  0  0
  -27.1462  -29.6506   19.6856 C   0  0  0  0  0  0  0  0  0  0  0  0
  -25.1138  -17.9963   21.5110 C   0  0  0  0  0  0  0  0  0  0  0  0
  -23.9662   -7.6028   22.3078 C   0  0  0  0  0  0  0  0  0  0  0  0
  -22.3374   -9.3593   22.6220 C   0  0  0  0  0  0  0  0  0  0  0  0
  -27.3315  -28.2895   19.4473 C   0  0  0  0  0  0  0  0  0  0  0  0
  -24.6545  -19.1333   22.1757 C   0  0  0  0  0  0  0  0  0  0  0  0
  -21.2124   -5.6444   22.4255 C   0  0  0  0  0  0  0  0  0  0  0  0
  -20.9975   -4.3013   22.1164 C   0  0  0  0  0  0  0  0  0  0  0  0
  -25.1799  -27.8295   20.4364 C   0  0  0  0  0  0  0  0  0  0  0  0
  -27.3790  -18.5335   22.1571 C   0  0  0  0  0  0  0  0  0  0  0  0
  -22.2781   -3.6494   24.0586 C   0  0  0  0  0  0  0  0  0  0  0  0
  -24.1473   -9.6575   21.0498 C   0  0  0  0  0  0  0  0  0  0  0  0
  -24.6037  -10.5044   18.6871 C   0  0  0  0  0  0  0  0  0  0  0  0
  -27.7246  -34.9080   25.5869 C   0  0  0  0  0  0  0  0  0  0  0  0
  -25.9792  -30.1111   20.3120 C   0  0  0  0  0  0  0  0  0  0  0  0
  -27.7888  -33.6730   24.9140 C   0  0  0  0  0  0  0  0  0  0  0  0
  -24.9811  -29.1972   20.6792 C   0  0  0  0  0  0  0  0  0  0  0  0
  -26.9197  -19.6706   22.8218 C   0  0  0  0  0  0  0  0  0  0  0  0
  -26.4761  -17.6964   21.5017 C   0  0  0  0  0  0  0  0  0  0  0  0
  -22.8199   -8.0889   22.9367 C   0  0  0  0  0  0  0  0  0  0  0  0
  -26.3496  -27.3784   19.8253 C   0  0  0  0  0  0  0  0  0  0  0  0
  -25.5574  -19.9704   22.8311 C   0  0  0  0  0  0  0  0  0  0  0  0
  -21.9602   -5.9900   23.5512 C   0  0  0  0  0  0  0  0  0  0  0  0
  -21.5303   -3.3039   22.9329 C   0  0  0  0  0  0  0  0  0  0  0  0
  -22.4930   -4.9926   24.3677 C   0  0  0  0  0  0  0  0  0  0  0  0
  -24.8328  -10.4682   20.0757 C   0  0  0  0  0  0  0  0  0  0  0  0
  -25.5054  -11.4263   18.2143 C   0  0  0  0  0  0  0  0  0  0  0  0
  -27.1368  -25.3038   20.5648 C   0  0  0  0  0  0  0  0  0  1  0  0
  -23.6601   -9.7705   17.8956 C   0  0  0  0  0  0  0  0  0  0  0  0
  -27.3986  -23.9882   20.5202 C   0  0  0  0  0  0  0  0  0  0  0  0
  -28.0765  -23.3668   21.7027 C   0  0  0  0  0  0  0  0  0  0  0  0
  -25.3446  -31.6504   23.0197 C   0  0  0  0  0  0  0  0  0  0  0  0
  -22.3280  -31.7011   21.8282 C   0  0  0  0  0  0  0  0  0  0  0  0
  -20.0104  -30.3039   19.7490 C   0  0  0  0  0  0  0  0  0  0  0  0
  -28.2605  -16.0990   20.7204 C   0  0  0  0  0  0  0  0  0  0  0  0
  -26.5048  -35.3213   26.3718 C   0  0  0  0  0  0  0  0  0  0  0  0
  -25.7827  -31.5852   20.5378 C   0  0  0  0  0  0  0  0  0  0  0  0
  -23.7011  -29.6425   21.3365 C   0  0  0  0  0  0  0  0  0  0  0  0
  -25.2515  -34.5274   26.0124 C   0  0  0  0  0  0  0  0  0  0  0  0
  -29.8107  -13.2890   19.1782 C   0  0  0  0  0  0  0  0  0  0  0  0
  -25.5629  -33.0352   25.9552 C   0  0  0  0  0  0  0  0  0  0  0  0
  -28.6876  -12.2522   19.1015 C   0  0  0  0  0  0  0  0  0  0  0  0
  -29.7336  -14.1146   20.4613 C   0  0  0  0  0  0  0  0  0  0  0  0
  -27.3099  -13.7104   20.6386 C   0  0  0  0  0  0  0  0  0  0  0  0
  -26.6056  -32.7304   24.8729 C   0  0  1  0  0  0  0  0  0  0  0  0
  -24.7817  -31.8914   21.6476 C   0  0  1  0  0  0  0  0  0  0  0  0
  -27.3075  -12.8981   19.3333 C   0  0  2  0  0  0  0  0  0  0  0  0
  -27.7430  -19.2884   25.7416 C   0  0  0  0  0  0  0  0  0  0  0  0
  -17.6213  -30.5419   19.0187 C   0  0  0  0  0  0  0  0  0  0  0  0
  -21.4033  -30.4556   24.4557 C   0  0  0  0  0  0  0  0  0  0  0  0
  -19.2494  -29.8522   23.3310 C   0  0  0  0  0  0  0  0  0  0  0  0
  -19.9033  -32.2480   23.5660 C   0  0  0  0  0  0  0  0  0  0  0  0
  -20.7967  -30.7879   16.9372 C   0  0  0  0  0  0  0  0  0  0  0  0
  -23.6849  -21.3068   23.4341 C   0  0  0  0  0  0  0  0  0  0  0  0
  -28.6703  -19.8436   24.6670 C   0  0  0  0  0  0  0  0  0  0  0  0
  -28.9295  -21.1820   22.5417 C   0  0  0  0  0  0  0  0  0  0  0  0
  -27.9190  -20.5727   23.5316 C   0  0  1  0  0  0  0  0  0  0  0  0
  -21.1309  -30.7849   21.9094 C   0  0  1  0  0  0  0  0  0  0  0  0
  -19.0661  -30.9213   18.7333 C   0  0  2  0  0  0  0  0  0  0  0  0
  -20.4466  -30.8263   23.3049 C   0  0  0  0  0  0  0  0  0  0  0  0
  -25.8040  -11.3008   20.4599 N   0  0  0  0  0  0  0  0  0  0  0  0
  -26.1932  -11.8688   19.3058 N   0  0  0  0  0  0  0  0  0  0  0  0
  -23.5586  -31.0933   21.5416 N   0  0  0  0  0  0  0  0  0  0  0  0
  -28.3993  -14.6991   20.6120 N   0  0  0  0  0  0  0  0  0  0  0  0
  -25.7691  -11.8935   16.9755 N   0  0  0  0  0  0  0  0  0  0  0  0
  -22.8082   -8.8640   18.5413 N   0  0  0  0  0  0  0  0  0  0  0  0
  -26.9423  -16.5412   20.8264 N   0  0  0  0  0  0  0  0  0  0  0  0
  -28.2935  -22.0092   21.5411 N   0  0  0  0  0  0  0  0  0  0  0  0
  -25.9924  -32.7439   23.5621 N   0  0  0  0  0  0  0  0  0  0  0  0
  -20.2557  -31.1579   20.8034 N   0  0  0  0  0  0  0  0  0  0  0  0
  -19.4104  -30.4600   17.3587 N   0  3  0  0  0  0  0  0  0  0  0  0
  -23.5861   -9.9021   16.6503 O   0  0  0  0  0  0  0  0  0  0  0  0
  -28.3912  -24.0192   22.6942 O   0  0  0  0  0  0  0  0  0  0  0  0
  -25.2006  -30.5541   23.5479 O   0  0  0  0  0  0  0  0  0  0  0  0
  -22.1756  -32.9123   22.0052 O   0  0  0  0  0  0  0  0  0  0  0  0
  -20.4802  -29.1753   19.6218 O   0  0  0  0  0  0  0  0  0  0  0  0
  -29.2372  -16.8521   20.6919 O   0  0  0  0  0  0  0  0  0  0  0  0
  -27.0837  -23.1696   19.4578 O   0  0  0  0  0  0  0  0  0  0  0  0
  -22.1719   -7.3239   23.8572 O   0  0  0  0  0  0  0  0  0  0  0  0
  -26.5282  -26.0493   19.5945 O   0  0  0  0  0  0  0  0  0  1  0  0
  -25.0918  -21.0769   23.4756 O   0  0  0  0  0  0  0  0  0  0  0  0
  -21.3226   -2.0142   22.6368 F   0  0  0  0  0  0  0  0  0  0  0  0
  -23.2112   -5.3184   25.4511 F   0  0  0  0  0  0  0  0  0  0  0  0
  1  2  1  0  0  0  0
  1  5  2  0  0  0  0
  2  6  2  0  0  0  0
  3  9  2  0  0  0  0
  3 18  1  0  0  0  0
  4 10  1  0  0  0  0
  4 18  2  0  0  0  0
  5 20  1  0  0  0  0
  6 22  1  0  0  0  0
  7 11  2  0  0  0  0
  7 21  1  0  0  0  0
  8 12  2  0  0  0  0
  8 25  1  0  0  0  0
  9 26  1  0  0  0  0
 10 26  2  0  0  0  0
 11 27  1  0  0  0  0
 12 28  1  0  0  0  0
 13 14  2  0  0  0  0
 13 29  1  0  0  0  0
 14 30  1  0  0  0  0
 15 23  1  0  0  0  0
 15 27  2  0  0  0  0
 16 24  1  0  0  0  0
 16 25  2  0  0  0  0
 17 30  2  0  0  0  0
 17 31  1  0  0  0  0
 18 32  1  0  0  0  0
 19 32  1  0  0  0  0
 19 33  2  0  0  0  0
 19 35  1  0  0  0  0
 20 22  2  0  0  0  0
 20 42  1  0  0  0  0
 21 23  2  0  0  0  0
 21 43  1  0  0  0  0
 22 51  1  0  0  0  0
 23 44  1  0  0  0  0
 24 28  2  0  0  0  0
 24 63  1  0  0  0  0
 25 73  1  0  0  0  0
 26 85  1  0  0  0  0
 27 86  1  0  0  0  0
 28 87  1  0  0  0  0
 29 31  2  0  0  0  0
 29 85  1  0  0  0  0
 30 88  1  0  0  0  0
 31 89  1  0  0  0  0
 32 67  2  0  0  0  0
 33 68  1  0  0  0  0
 33 71  1  0  0  0  0
 34 36  2  0  0  0  0
 34 86  1  0  0  0  0
 35 72  1  0  0  0  0
 35 78  2  0  0  0  0
 36 37  1  0  0  0  0
 36 84  1  0  0  0  0
 37 74  1  0  0  0  0
 37 79  2  0  0  0  0
 38 52  1  0  0  0  0
 38 75  1  0  0  0  0
 38 80  2  0  0  0  0
 39 64  1  0  0  0  0
 39 69  1  0  0  0  0
 39 81  2  0  0  0  0
 40 65  1  0  0  0  0
 40 76  1  0  0  0  0
 40 82  2  0  0  0  0
 41 70  1  0  0  0  0
 41 73  1  0  0  0  0
 41 83  2  0  0  0  0
 42 45  1  0  0  0  0
 43 52  1  0  0  0  0
 44 69  1  0  0  0  0
 45 47  1  0  0  0  0
 46 48  1  0  0  0  0
 46 49  1  0  0  0  0
 47 51  1  0  0  0  0
 48 53  1  0  0  0  0
 49 70  1  0  0  0  0
 50 53  1  0  0  0  0
 50 70  1  0  0  0  0
 51 75  1  0  0  0  0
 52 69  1  0  0  0  0
 53 68  1  0  0  0  0
 54 61  1  0  0  0  0
 55 65  1  0  0  0  0
 56 66  1  0  0  0  0
 57 66  1  0  0  0  0
 58 66  1  0  0  0  0
 59 77  1  0  0  0  0
 60 87  1  0  0  0  0
 61 63  1  0  0  0  0
 62 63  1  0  0  0  0
 62 74  1  0  0  0  0
 64 66  1  0  0  0  0
 64 76  1  0  0  0  0
 65 77  1  0  0  0  0
 67 68  1  0  0  0  0
M  CHG  1  77   1
M  ISO  4  34 101  41 100  73 100  86 101
M  END
> <Batch ID>
0102

> <Smiles>
CCC(CNC(=O)C(=O)[101CH2:1][101O:1]c1ccc2c(c1)CN(C(=O)C(NC(=O)C(C)NC)C(C)(C)C)C(C(=O)NC1CCCc3ccccc31)C2)c1cc([100NH:0][100C:0](=O)N2CCCC(n3nc(-c4ccc(Oc5ccc(F)cc5F)cc4)c(C(N)=O)c3N)C2)ccc1OC

> <Shape>
0.259

> <Color>
0.076

> <Negative vol penalty>
0.000

$$$$

  -OEChem-04052301023D

 85 93  0     1  0  0  0  0  0999 V2000
  -31.9784  -29.5458   15.7464 C   0  0  0  0  0  0  0  0  0  0  0  0
  -31.4707  -28.4804   16.4831 C   0  0  0  0  0  0  0  0  0  0  0  0
  -23.0442   -9.9055   19.9997 C   0  0  0  0  0  0  0  0  0  0  0  0
  -23.6983  -10.0479   22.3211 C   0  0  0  0  0  0  0  0  0  0  0  0
  -31.8355  -30.8496   16.2193 C   0  0  0  0  0  0  0  0  0  0  0  0
  -30.8207  -28.7181   17.6936 C   0  0  0  0  0  0  0  0  0  0  0  0
  -26.5408  -26.0513   18.1571 C   0  0  0  0  0  0  0  0  0  0  0  0
  -22.2790   -8.7747   20.2846 C   0  0  0  0  0  0  0  0  0  0  0  0
  -22.9330   -8.9171   22.6061 C   0  0  0  0  0  0  0  0  0  0  0  0
  -26.6633  -24.7044   18.4957 C   0  0  0  0  0  0  0  0  0  0  0  0
  -23.2183   -5.5654   22.2659 C   0  0  0  0  0  0  0  0  0  0  0  0
  -23.7908   -4.5820   23.0726 C   0  0  0  0  0  0  0  0  0  0  0  0
  -29.0981  -18.8379   20.6392 C   0  0  0  0  0  0  0  0  0  0  0  0
  -26.1421  -25.2398   20.7893 C   0  0  0  0  0  0  0  0  0  0  0  0
  -30.3994  -18.7592   18.1728 C   0  0  0  0  0  0  0  0  0  0  0  0
  -22.0147   -4.8707   24.6848 C   0  0  0  0  0  0  0  0  0  0  0  0
  -23.7539  -10.5422   21.0179 C   0  0  0  0  0  0  0  0  0  0  0  0
  -29.3764  -20.0236   19.9594 C   0  0  0  0  0  0  0  0  0  0  0  0
  -24.1242  -13.0530   20.7604 C   0  0  0  0  0  0  0  0  0  0  0  0
  -31.1749  -31.1042   17.4315 C   0  0  0  0  0  0  0  0  0  0  0  0
  -26.2281  -27.0056   19.1358 C   0  0  0  0  0  0  0  0  0  0  0  0
  -30.6700  -30.0265   18.1838 C   0  0  0  0  0  0  0  0  0  0  0  0
  -26.0136  -26.5978   20.4601 C   0  0  0  0  0  0  0  0  0  0  0  0
  -29.4706  -17.6128   20.0859 C   0  0  0  0  0  0  0  0  0  0  0  0
  -30.1212  -17.5735   18.8527 C   0  0  0  0  0  0  0  0  0  0  0  0
  -30.0270  -19.9843   18.7262 C   0  0  0  0  0  0  0  0  0  0  0  0
  -22.2234   -8.2805   21.5878 C   0  0  0  0  0  0  0  0  0  0  0  0
  -26.4668  -24.2989   19.8125 C   0  0  0  0  0  0  0  0  0  0  0  0
  -22.0441   -6.2016   22.6687 C   0  0  0  0  0  0  0  0  0  0  0  0
  -23.1889   -4.2346   24.2821 C   0  0  0  0  0  0  0  0  0  0  0  0
  -21.4423   -5.8542   23.8781 C   0  0  0  0  0  0  0  0  0  0  0  0
  -24.5450  -11.7100   20.7241 C   0  0  0  0  0  0  0  0  0  0  0  0
  -25.2388  -13.7717   20.4032 C   0  0  0  0  0  0  0  0  0  0  0  0
  -28.9663  -21.3183   20.5793 C   0  0  0  0  0  0  0  0  0  0  0  0
  -22.8408  -13.6017   21.0879 C   0  0  0  0  0  0  0  0  0  0  0  0
  -27.6964  -29.5607   20.3271 C   0  0  0  0  0  0  0  0  0  0  0  0
  -24.8886  -29.9568   21.9024 C   0  0  0  0  0  0  0  0  0  0  0  0
  -22.0378  -28.5478   23.1412 C   0  0  0  0  0  0  0  0  0  0  0  0
  -30.8170  -14.4848   21.2355 C   0  0  0  0  0  0  0  0  0  0  0  0
  -31.0864  -32.5266   17.9252 C   0  0  0  0  0  0  0  0  0  0  0  0
  -26.0733  -28.4510   18.7492 C   0  0  0  0  0  0  0  0  0  0  0  0
  -25.6563  -27.5802   21.5444 C   0  0  0  0  0  0  0  0  0  0  0  0
  -30.0551  -32.7237   19.0332 C   0  0  0  0  0  0  0  0  0  0  0  0
  -29.6684  -12.2792   18.4936 C   0  0  0  0  0  0  0  0  0  0  0  0
  -30.1928  -31.6331   20.0908 C   0  0  0  0  0  0  0  0  0  0  0  0
  -28.2184  -11.9938   18.8810 C   0  0  0  0  0  0  0  0  0  0  0  0
  -30.5372  -12.5602   19.7159 C   0  0  0  0  0  0  0  0  0  0  0  0
  -28.5663  -13.3624   20.9753 C   0  0  0  0  0  0  0  0  0  0  0  0
  -29.9368  -30.2459   19.4893 C   0  0  1  0  0  0  0  0  0  0  0  0
  -26.2572  -29.4067   19.9241 C   0  0  1  0  0  0  0  0  0  0  0  0
  -27.6541  -13.1210   19.7632 C   0  0  2  0  0  0  0  0  0  0  0  0
  -30.5299  -16.2737   18.2409 C   0  0  0  0  0  0  0  0  0  0  0  0
  -19.9504  -29.1174   24.4123 C   0  0  0  0  0  0  0  0  0  0  0  0
  -26.5021  -30.0872   24.4889 C   0  0  0  0  0  0  0  0  0  0  0  0
  -24.3760  -29.6992   25.7528 C   0  0  0  0  0  0  0  0  0  0  0  0
  -24.6313  -31.7404   24.3418 C   0  0  0  0  0  0  0  0  0  0  0  0
  -31.2079  -16.7382   22.1569 C   0  0  0  0  0  0  0  0  0  0  0  0
  -20.3024  -27.7087   20.8955 C   0  0  0  0  0  0  0  0  0  0  0  0
  -29.1623  -16.3562   20.8320 C   0  0  0  0  0  0  0  0  0  0  0  0
  -27.7374  -21.3409   21.4790 C   0  0  0  0  0  0  0  0  0  0  0  0
  -27.0263  -22.6884   21.4706 C   0  0  0  0  0  0  0  0  0  1  0  0
  -24.3304  -29.4919   23.2258 C   0  0  1  0  0  0  0  0  0  0  0  0
  -20.5814  -28.9632   23.0372 C   0  0  2  0  0  0  0  0  0  0  0  0
  -24.9686  -30.2362   24.4325 C   0  0  0  0  0  0  0  0  0  0  0  0
  -25.8267  -11.5806   20.3714 N   0  0  0  0  0  0  0  0  0  0  0  0
  -26.2210  -12.8515   20.1828 N   0  0  0  0  0  0  0  0  0  0  0  0
  -25.5225  -28.9830   21.1177 N   0  0  0  0  0  0  0  0  0  0  0  0
  -29.9557  -13.6051   20.5592 N   0  0  0  0  0  0  0  0  0  0  0  0
  -30.3188  -21.1741   18.0222 N   0  0  0  0  0  0  0  0  0  0  0  0
  -25.4647  -15.0949   20.2591 N   0  0  0  0  0  0  0  0  0  0  0  0
  -21.8061  -12.7214   21.4327 N   0  0  0  0  0  0  0  0  0  0  0  0
  -28.5172  -30.0240   19.3166 N   0  0  0  0  0  0  0  0  0  0  0  0
  -22.8819  -29.6380   23.1318 N   0  0  0  0  0  0  0  0  0  0  0  0
  -30.3471  -15.7860   21.4696 N   0  0  0  0  0  0  0  0  0  0  0  0
  -19.8052  -27.9443   22.2754 N   0  3  0  0  0  0  0  0  0  0  0  0
  -29.6272  -22.3285   20.3491 O   0  0  0  0  0  0  0  0  0  0  0  0
  -22.6135  -14.8350   21.0593 O   0  0  0  0  0  0  0  0  0  0  0  0
  -28.0368  -29.2814   21.4707 O   0  0  0  0  0  0  0  0  0  0  0  0
  -24.7604  -31.1388   21.5737 O   0  0  0  0  0  0  0  0  0  0  0  0
  -22.3911  -27.3737   23.2263 O   0  0  0  0  0  0  0  0  0  0  0  0
  -31.9453  -14.1303   21.6002 O   0  0  0  0  0  0  0  0  0  0  0  0
  -21.4766   -7.1771   21.8663 O   0  0  0  0  0  0  0  0  0  0  0  0
  -26.5865  -22.9849   20.1459 O   0  0  0  0  0  0  0  0  0  1  0  0
  -23.7379   -3.2891   25.0559 F   0  0  0  0  0  0  0  0  0  0  0  0
  -20.3134   -6.4610   24.2698 F   0  0  0  0  0  0  0  0  0  0  0  0
  1  2  1  0  0  0  0
  1  5  2  0  0  0  0
  2  6  2  0  0  0  0
  3  8  2  0  0  0  0
  3 17  1  0  0  0  0
  4  9  1  0  0  0  0
  4 17  2  0  0  0  0
  5 20  1  0  0  0  0
  6 22  1  0  0  0  0
  7 10  2  0  0  0  0
  7 21  1  0  0  0  0
  8 27  1  0  0  0  0
  9 27  2  0  0  0  0
 10 28  1  0  0  0  0
 11 12  2  0  0  0  0
 11 29  1  0  0  0  0
 12 30  1  0  0  0  0
 13 18  1  0  0  0  0
 13 24  2  0  0  0  0
 14 23  1  0  0  0  0
 14 28  2  0  0  0  0
 15 25  2  0  0  0  0
 15 26  1  0  0  0  0
 16 30  2  0  0  0  0
 16 31  1  0  0  0  0
 17 32  1  0  0  0  0
 18 26  2  0  0  0  0
 18 34  1  0  0  0  0
 19 32  1  0  0  0  0
 19 33  2  0  0  0  0
 19 35  1  0  0  0  0
 20 22  2  0  0  0  0
 20 40  1  0  0  0  0
 21 23  2  0  0  0  0
 21 41  1  0  0  0  0
 22 49  1  0  0  0  0
 23 42  1  0  0  0  0
 24 25  1  0  0  0  0
 24 59  1  0  0  0  0
 25 52  1  0  0  0  0
 26 69  1  0  0  0  0
 27 82  1  0  0  0  0
 28 83  1  0  0  0  0
 29 31  2  0  0  0  0
 29 82  1  0  0  0  0
 30 84  1  0  0  0  0
 31 85  1  0  0  0  0
 32 65  2  0  0  0  0
 33 66  1  0  0  0  0
 33 70  1  0  0  0  0
 34 60  1  0  0  0  0
 34 76  2  0  0  0  0
 35 71  1  0  0  0  0
 35 77  2  0  0  0  0
 36 50  1  0  0  0  0
 36 72  1  0  0  0  0
 36 78  2  0  0  0  0
 37 62  1  0  0  0  0
 37 67  1  0  0  0  0
 37 79  2  0  0  0  0
 38 63  1  0  0  0  0
 38 73  1  0  0  0  0
 38 80  2  0  0  0  0
 39 68  1  0  0  0  0
 39 74  1  0  0  0  0
 39 81  2  0  0  0  0
 40 43  1  0  0  0  0
 41 50  1  0  0  0  0
 42 67  1  0  0  0  0
 43 45  1  0  0  0  0
 44 46  1  0  0  0  0
 44 47  1  0  0  0  0
 45 49  1  0  0  0  0
 46 51  1  0  0  0  0
 47 68  1  0  0  0  0
 48 51  1  0  0  0  0
 48 68  1  0  0  0  0
 49 72  1  0  0  0  0
 50 67  1  0  0  0  0
 51 66  1  0  0  0  0
 53 63  1  0  0  0  0
 54 64  1  0  0  0  0
 55 64  1  0  0  0  0
 56 64  1  0  0  0  0
 57 74  1  0  0  0  0
 58 75  1  0  0  0  0
 59 74  1  0  0  0  0
 60 61  1  0  0  0  0
 61 83  1  0  0  0  0
 62 64  1  0  0  0  0
 62 73  1  0  0  0  0
 63 75  1  0  0  0  0
 65 66  1  0  0  0  0
M  CHG  1  75   1
M  ISO  4  39 100  61 101  74 100  83 101
M  END
> <Batch ID>
0102

> <Smiles>
CNC(C)C(=O)NC(C(=O)N1Cc2cc([101O:1][101CH2:1]CC(=O)c3cc(C[100N:0](C)[100C:0](=O)N4CCCC(n5nc(-c6ccc(Oc7ccc(F)cc7F)cc6)c(C(N)=O)c5N)C4)c(C)cc3N)ccc2CC1C(=O)NC1CCCc2ccccc21)C(C)(C)C

> <Shape>
0.366

> <Color>
0.204

> <Negative vol penalty>
0.000

$$$$

  -OEChem-04052301023D

 85 93  0     1  0  0  0  0  0999 V2000
  -27.7737  -24.5919   16.5966 C   0  0  0  0  0  0  0  0  0  0  0  0
  -26.5960  -24.8361   17.2958 C   0  0  0  0  0  0  0  0  0  0  0  0
  -29.0223  -13.8145   21.0890 C   0  0  0  0  0  0  0  0  0  0  0  0
  -28.2977  -15.4510   19.4661 C   0  0  0  0  0  0  0  0  0  0  0  0
  -28.9929  -25.0291   17.1126 C   0  0  0  0  0  0  0  0  0  0  0  0
  -26.6370  -25.5167   18.5122 C   0  0  0  0  0  0  0  0  0  0  0  0
  -23.0409  -29.0635   18.8761 C   0  0  0  0  0  0  0  0  0  0  0  0
  -29.4515  -12.9806   20.0565 C   0  0  0  0  0  0  0  0  0  0  0  0
  -28.7270  -14.6172   18.4336 C   0  0  0  0  0  0  0  0  0  0  0  0
  -21.7481  -28.6317   19.1696 C   0  0  0  0  0  0  0  0  0  0  0  0
  -27.6039  -11.8641   16.8243 C   0  0  0  0  0  0  0  0  0  0  0  0
  -26.7521  -11.6925   15.7332 C   0  0  0  0  0  0  0  0  0  0  0  0
  -22.0724  -29.2496   21.4788 C   0  0  0  0  0  0  0  0  0  0  0  0
  -22.7257  -22.4953   22.9281 C   0  0  0  0  0  0  0  0  0  0  0  0
  -20.7555  -24.2224   23.8865 C   0  0  0  0  0  0  0  0  0  0  0  0
  -28.4487  -12.5920   14.2672 C   0  0  0  0  0  0  0  0  0  0  0  0
  -28.4453  -15.0497   20.7938 C   0  0  0  0  0  0  0  0  0  0  0  0
  -28.7522  -16.9007   22.5221 C   0  0  0  0  0  0  0  0  0  0  0  0
  -29.0478  -25.7238   18.3312 C   0  0  0  0  0  0  0  0  0  0  0  0
  -23.8643  -29.5823   19.8857 C   0  0  0  0  0  0  0  0  0  0  0  0
  -27.8583  -25.9623   19.0457 C   0  0  0  0  0  0  0  0  0  0  0  0
  -23.3743  -29.6896   21.1950 C   0  0  0  0  0  0  0  0  0  0  0  0
  -22.4967  -22.5994   24.3001 C   0  0  0  0  0  0  0  0  0  0  0  0
  -21.5117  -23.4629   24.7793 C   0  0  0  0  0  0  0  0  0  0  0  0
  -20.9845  -24.1184   22.5144 C   0  0  0  0  0  0  0  0  0  0  0  0
  -29.3039  -13.3820   18.7288 C   0  0  0  0  0  0  0  0  0  0  0  0
  -21.2647  -28.7220   20.4716 C   0  0  0  0  0  0  0  0  0  0  0  0
  -28.8781  -12.3997   16.6369 C   0  0  0  0  0  0  0  0  0  0  0  0
  -27.1745  -12.0564   14.4547 C   0  0  0  0  0  0  0  0  0  0  0  0
  -21.9696  -23.2549   22.0353 C   0  0  0  0  0  0  0  0  0  0  0  0
  -29.3006  -12.7636   15.3583 C   0  0  0  0  0  0  0  0  0  0  0  0
  -28.0011  -15.9112   21.8599 C   0  0  0  0  0  0  0  0  0  0  0  0
  -27.8835  -17.4316   23.4441 C   0  0  0  0  0  0  0  0  0  0  0  0
  -30.1135  -17.3040   22.3217 C   0  0  0  0  0  0  0  0  0  0  0  0
  -26.6482  -28.7363   21.1655 C   0  0  0  0  0  0  0  0  0  0  0  0
  -26.3332  -31.5510   22.7469 C   0  0  0  0  0  0  0  0  0  0  0  0
  -24.2642  -33.9930   23.9312 C   0  0  0  0  0  0  0  0  0  0  0  0
  -22.8361  -19.3752   24.8192 C   0  0  0  0  0  0  0  0  0  0  0  0
  -30.3942  -26.1352   18.8722 C   0  0  0  0  0  0  0  0  0  0  0  0
  -25.2470  -30.0685   19.5476 C   0  0  0  0  0  0  0  0  0  0  0  0
  -24.2111  -30.2579   22.3109 C   0  0  0  0  0  0  0  0  0  0  0  0
  -30.3112  -27.1780   19.9840 C   0  0  0  0  0  0  0  0  0  0  0  0
  -23.3249  -15.8514   24.9633 C   0  0  0  0  0  0  0  0  0  0  0  0
  -29.2472  -26.7866   21.0046 C   0  0  0  0  0  0  0  0  0  0  0  0
  -24.6431  -15.6342   24.2183 C   0  0  0  0  0  0  0  0  0  0  0  0
  -22.4980  -16.9698   24.3329 C   0  0  0  0  0  0  0  0  0  0  0  0
  -24.5281  -18.0344   23.4279 C   0  0  0  0  0  0  0  0  0  0  0  0
  -27.8592  -26.7190   20.3562 C   0  0  1  0  0  0  0  0  0  0  0  0
  -26.1798  -30.1035   20.7543 C   0  0  1  0  0  0  0  0  0  0  0  0
  -25.4220  -16.9539   24.0604 C   0  0  2  0  0  0  0  0  0  0  0  0
  -24.5963  -22.4920   25.6936 C   0  0  0  0  0  0  0  0  0  0  0  0
  -24.2944  -36.1484   25.2160 C   0  0  0  0  0  0  0  0  0  0  0  0
  -26.7464  -29.9967   25.3399 C   0  0  0  0  0  0  0  0  0  0  0  0
  -25.8366  -31.9689   26.5853 C   0  0  0  0  0  0  0  0  0  0  0  0
  -27.9274  -32.1991   25.2443 C   0  0  0  0  0  0  0  0  0  0  0  0
  -23.1225  -35.5006   21.6547 C   0  0  0  0  0  0  0  0  0  0  0  0
  -18.5189  -26.4162   20.8237 C   0  0  0  0  0  0  0  0  0  0  0  0
  -19.1946  -25.7901   22.0377 C   0  0  0  0  0  0  0  0  0  0  0  0
  -19.4759  -27.2379   19.9681 C   0  0  0  0  0  0  0  0  0  1  0  0
  -23.3207  -21.7736   25.2336 C   0  0  2  0  0  0  0  0  0  0  0  0
  -25.7084  -31.9795   24.0526 C   0  0  1  0  0  0  0  0  0  0  0  0
  -24.3358  -35.5065   23.8380 C   0  0  2  0  0  0  0  0  0  0  0  0
  -26.5394  -31.5235   25.2851 C   0  0  0  0  0  0  0  0  0  0  0  0
  -26.7515  -15.8169   22.3220 N   0  0  0  0  0  0  0  0  0  0  0  0
  -26.7107  -16.7540   23.2845 N   0  0  0  0  0  0  0  0  0  0  0  0
  -25.5585  -30.7140   21.9314 N   0  0  0  0  0  0  0  0  0  0  0  0
  -23.2940  -18.1937   24.2131 N   0  0  0  0  0  0  0  0  0  0  0  0
  -21.2670  -23.5812   26.1653 N   0  0  0  0  0  0  0  0  0  0  0  0
  -28.0162  -18.4072   24.3676 N   0  0  0  0  0  0  0  0  0  0  0  0
  -30.8641  -16.6542   21.3324 N   0  0  0  0  0  0  0  0  0  0  0  0
  -20.2317  -24.8739   21.6290 N   0  0  0  0  0  0  0  0  0  0  0  0
  -27.3216  -28.0502   20.1730 N   0  0  0  0  0  0  0  0  0  0  0  0
  -25.5195  -33.4232   23.9603 N   0  0  0  0  0  0  0  0  0  0  0  0
  -23.6538  -20.4876   24.6626 N   0  0  0  0  0  0  0  0  0  0  0  0
  -23.1912  -36.0310   23.0407 N   0  3  0  0  0  0  0  0  0  0  0  0
  -30.6533  -18.2023   23.0110 O   0  0  0  0  0  0  0  0  0  0  0  0
  -26.4171  -28.3343   22.2999 O   0  0  0  0  0  0  0  0  0  0  0  0
  -27.4641  -31.9501   22.4579 O   0  0  0  0  0  0  0  0  0  0  0  0
  -23.2012  -33.3780   23.9776 O   0  0  0  0  0  0  0  0  0  0  0  0
  -21.7796  -19.4329   25.4576 O   0  0  0  0  0  0  0  0  0  0  0  0
  -29.7229  -12.5687   17.7211 O   0  0  0  0  0  0  0  0  0  0  0  0
  -20.0035  -28.3007   20.7609 O   0  0  0  0  0  0  0  0  0  1  0  0
  -26.3569  -11.8901   13.4067 F   0  0  0  0  0  0  0  0  0  0  0  0
  -22.1976  -23.1471   20.7186 F   0  0  0  0  0  0  0  0  0  0  0  0
  -30.5240  -13.2776   15.1719 F   0  0  0  0  0  0  0  0  0  0  0  0
  1  2  1  0  0  0  0
  1  5  2  0  0  0  0
  2  6  2  0  0  0  0
  3  8  2  0  0  0  0
  3 17  1  0  0  0  0
  4  9  1  0  0  0  0
  4 17  2  0  0  0  0
  5 19  1  0  0  0  0
  6 21  1  0  0  0  0
  7 10  2  0  0  0  0
  7 20  1  0  0  0  0
  8 26  1  0  0  0  0
  9 26  2  0  0  0  0
 10 27  1  0  0  0  0
 11 12  2  0  0  0  0
 11 28  1  0  0  0  0
 12 29  1  0  0  0  0
 13 22  1  0  0  0  0
 13 27  2  0  0  0  0
 14 23  2  0  0  0  0
 14 30  1  0  0  0  0
 15 24  2  0  0  0  0
 15 25  1  0  0  0  0
 16 29  2  0  0  0  0
 16 31  1  0  0  0  0
 17 32  1  0  0  0  0
 18 32  1  0  0  0  0
 18 33  2  0  0  0  0
 18 34  1  0  0  0  0
 19 21  2  0  0  0  0
 19 39  1  0  0  0  0
 20 22  2  0  0  0  0
 20 40  1  0  0  0  0
 21 48  1  0  0  0  0
 22 41  1  0  0  0  0
 23 24  1  0  0  0  0
 23 60  1  0  0  0  0
 24 68  1  0  0  0  0
 25 30  2  0  0  0  0
 25 71  1  0  0  0  0
 26 81  1  0  0  0  0
 27 82  1  0  0  0  0
 28 31  2  0  0  0  0
 28 81  1  0  0  0  0
 29 83  1  0  0  0  0
 30 84  1  0  0  0  0
 31 85  1  0  0  0  0
 32 64  2  0  0  0  0
 33 65  1  0  0  0  0
 33 69  1  0  0  0  0
 34 70  1  0  0  0  0
 34 76  2  0  0  0  0
 35 49  1  0  0  0  0
 35 72  1  0  0  0  0
 35 77  2  0  0  0  0
 36 61  1  0  0  0  0
 36 66  1  0  0  0  0
 36 78  2  0  0  0  0
 37 62  1  0  0  0  0
 37 73  1  0  0  0  0
 37 79  2  0  0  0  0
 38 67  1  0  0  0  0
 38 74  1  0  0  0  0
 38 80  2  0  0  0  0
 39 42  1  0  0  0  0
 40 49  1  0  0  0  0
 41 66  1  0  0  0  0
 42 44  1  0  0  0  0
 43 45  1  0  0  0  0
 43 46  1  0  0  0  0
 44 48  1  0  0  0  0
 45 50  1  0  0  0  0
 46 67  1  0  0  0  0
 47 50  1  0  0  0  0
 47 67  1  0  0  0  0
 48 72  1  0  0  0  0
 49 66  1  0  0  0  0
 50 65  1  0  0  0  0
 51 60  1  0  0  0  0
 52 62  1  0  0  0  0
 53 63  1  0  0  0  0
 54 63  1  0  0  0  0
 55 63  1  0  0  0  0
 56 75  1  0  0  0  0
 57 58  1  0  0  0  0
 57 59  1  0  0  0  0
 58 71  1  0  0  0  0
 59 82  1  0  0  0  0
 60 74  1  0  0  0  0
 61 63  1  0  0  0  0
 61 73  1  0  0  0  0
 62 75  1  0  0  0  0
 64 65  1  0  0  0  0
M  CHG  1  75   1
M  ISO  4  38 100  59 101  74 100  82 101
M  END
> <Batch ID>
0102

> <Smiles>
CNC(C)C(=O)NC(C(=O)N1Cc2cc([101O:1][101CH2:1]CCNc3cc(N)c(C(C)[100NH:0][100C:0](=O)N4CCCC(n5nc(-c6ccc(Oc7ccc(F)cc7F)cc6)c(C(N)=O)c5N)C4)cc3F)ccc2CC1C(=O)NC1CCCc2ccccc21)C(C)(C)C

> <Shape>
0.251

> <Color>
0.055

> <Negative vol penalty>
0.000

$$$$

  -OEChem-04052301023D

 83 91  0     1  0  0  0  0  0999 V2000
  -28.4171  -36.3413   20.3184 C   0  0  0  0  0  0  0  0  0  0  0  0
  -28.5864  -35.1164   20.9559 C   0  0  0  0  0  0  0  0  0  0  0  0
  -24.2589   -9.7271   21.1426 C   0  0  0  0  0  0  0  0  0  0  0  0
  -24.7739  -10.6198   23.3277 C   0  0  0  0  0  0  0  0  0  0  0  0
  -30.7132  -20.6538   22.1962 C   0  0  0  0  0  0  0  0  0  0  0  0
  -27.1636  -36.9516   20.3051 C   0  0  0  0  0  0  0  0  0  0  0  0
  -27.5024  -34.5016   21.5816 C   0  0  0  0  0  0  0  0  0  0  0  0
  -27.2145  -29.5522   20.5494 C   0  0  0  0  0  0  0  0  0  0  0  0
  -30.5022  -19.4121   21.5968 C   0  0  0  0  0  0  0  0  0  0  0  0
  -23.8819   -8.5174   21.7256 C   0  0  0  0  0  0  0  0  0  0  0  0
  -24.3969   -9.4101   23.9108 C   0  0  0  0  0  0  0  0  0  0  0  0
  -28.0827  -28.7065   21.2385 C   0  0  0  0  0  0  0  0  0  0  0  0
  -21.1990   -7.2705   23.3628 C   0  0  0  0  0  0  0  0  0  0  0  0
  -20.0166   -6.6780   22.9197 C   0  0  0  0  0  0  0  0  0  0  0  0
  -28.3321  -20.9012   22.5219 C   0  0  0  0  0  0  0  0  0  0  0  0
  -26.2984  -28.1178   22.7515 C   0  0  0  0  0  0  0  0  0  0  0  0
  -21.2558   -4.7231   22.2269 C   0  0  0  0  0  0  0  0  0  0  0  0
  -24.7050  -10.7784   21.9436 C   0  0  0  0  0  0  0  0  0  0  0  0
  -29.6281  -21.3983   22.6589 C   0  0  0  0  0  0  0  0  0  0  0  0
  -24.2718  -13.1400   21.0819 C   0  0  0  0  0  0  0  0  0  0  0  0
  -26.0615  -36.3394   20.9226 C   0  0  0  0  0  0  0  0  0  0  0  0
  -25.8825  -29.6956   20.9634 C   0  0  0  0  0  0  0  0  0  0  0  0
  -26.2333  -35.1050   21.5777 C   0  0  0  0  0  0  0  0  0  0  0  0
  -25.4147  -28.9640   22.0643 C   0  0  0  0  0  0  0  0  0  0  0  0
  -29.2061  -18.9150   21.4598 C   0  0  0  0  0  0  0  0  0  0  0  0
  -23.9508   -8.3588   23.1097 C   0  0  0  0  0  0  0  0  0  0  0  0
  -27.6255  -27.9914   22.3415 C   0  0  0  0  0  0  0  0  0  0  0  0
  -22.4099   -6.5893   23.2379 C   0  0  0  0  0  0  0  0  0  0  0  0
  -20.0449   -5.4043   22.3517 C   0  0  0  0  0  0  0  0  0  0  0  0
  -28.1210  -19.6596   21.9224 C   0  0  0  0  0  0  0  0  0  0  0  0
  -22.4382   -5.3156   22.6700 C   0  0  0  0  0  0  0  0  0  0  0  0
  -25.0951  -12.0281   21.3419 C   0  0  0  0  0  0  0  0  0  0  0  0
  -25.1120  -14.0626   20.5079 C   0  0  0  0  0  0  0  0  0  0  0  0
  -28.7828  -23.7436   23.1591 C   0  0  0  0  0  0  0  0  0  0  0  0
  -28.9293  -24.9472   23.7302 C   0  0  0  0  0  0  0  0  0  0  0  0
  -29.8526  -22.7185   23.2960 C   0  0  0  0  0  0  0  0  0  0  0  0
  -22.8727  -13.3227   21.3365 C   0  0  0  0  0  0  0  0  0  0  0  0
  -24.1091  -32.1138   22.0176 C   0  0  0  0  0  0  0  0  0  0  0  0
  -21.7197  -29.9267   21.8443 C   0  0  0  0  0  0  0  0  0  0  0  0
  -20.7937  -26.6420   21.8355 C   0  0  0  0  0  0  0  0  0  0  0  0
  -29.9630  -16.7904   20.3375 C   0  0  0  0  0  0  0  0  0  0  0  0
  -24.7366  -37.0600   20.9228 C   0  0  0  0  0  0  0  0  0  0  0  0
  -24.9516  -30.5914   20.1931 C   0  0  0  0  0  0  0  0  0  0  0  0
  -23.9884  -29.0671   22.5369 C   0  0  0  0  0  0  0  0  0  0  0  0
  -23.5557  -36.1636   21.2862 C   0  0  0  0  0  0  0  0  0  0  0  0
  -29.8504  -13.5843   18.7931 C   0  0  0  0  0  0  0  0  0  0  0  0
  -23.8835  -35.3207   22.5146 C   0  0  0  0  0  0  0  0  0  0  0  0
  -28.5355  -12.9851   19.2971 C   0  0  0  0  0  0  0  0  0  0  0  0
  -30.5421  -14.4198   19.8689 C   0  0  0  0  0  0  0  0  0  0  0  0
  -28.3905  -14.8607   20.9847 C   0  0  0  0  0  0  0  0  0  0  0  0
  -25.0761  -34.3949   22.2462 C   0  0  1  0  0  0  0  0  0  0  0  0
  -23.7518  -31.0540   21.0141 C   0  0  1  0  0  0  0  0  0  0  0  0
  -27.6250  -14.0640   19.9156 C   0  0  2  0  0  0  0  0  0  0  0  0
  -18.7668  -25.1670   21.7189 C   0  0  0  0  0  0  0  0  0  0  0  0
  -21.0797  -30.5802   24.7552 C   0  0  0  0  0  0  0  0  0  0  0  0
  -19.7358  -28.4704   24.8606 C   0  0  0  0  0  0  0  0  0  0  0  0
  -19.0765  -30.2898   23.2864 C   0  0  0  0  0  0  0  0  0  0  0  0
  -21.7218  -25.3679   19.3307 C   0  0  0  0  0  0  0  0  0  0  0  0
  -27.8955  -26.0237   23.6497 C   0  0  0  0  0  0  0  0  0  1  0  0
  -21.1336  -28.9064   22.7901 C   0  0  1  0  0  0  0  0  0  0  0  0
  -19.8636  -25.8601   20.9255 C   0  0  2  0  0  0  0  0  0  0  0  0
  -20.2839  -29.5610   23.9156 C   0  0  0  0  0  0  0  0  0  0  0  0
  -26.3611  -12.2242   20.9639 N   0  0  0  0  0  0  0  0  0  0  0  0
  -26.3395  -13.4701   20.4604 N   0  0  0  0  0  0  0  0  0  0  0  0
  -23.1185  -29.9609   21.7547 N   0  0  0  0  0  0  0  0  0  0  0  0
  -29.6205  -15.4234   20.4058 N   0  0  0  0  0  0  0  0  0  0  0  0
  -24.9131  -15.3146   20.0440 N   0  0  0  0  0  0  0  0  0  0  0  0
  -22.1595  -12.2736   21.9324 N   0  0  0  0  0  0  0  0  0  0  0  0
  -28.9950  -17.6536   20.8498 N   0  0  0  0  0  0  0  0  0  0  0  0
  -24.6619  -33.2516   21.4615 N   0  0  0  0  0  0  0  0  0  0  0  0
  -20.3984  -27.9569   21.9617 N   0  0  0  0  0  0  0  0  0  0  0  0
  -20.6257  -24.8238   20.1730 N   0  3  0  0  0  0  0  0  0  0  0  0
  -30.8828  -22.9211   23.9290 O   0  0  0  0  0  0  0  0  0  0  0  0
  -22.2692  -14.3786   21.0293 O   0  0  0  0  0  0  0  0  0  0  0  0
  -23.8974  -31.9146   23.2080 O   0  0  0  0  0  0  0  0  0  0  0  0
  -20.9640  -30.6612   21.2032 O   0  0  0  0  0  0  0  0  0  0  0  0
  -21.7709  -26.1359   22.3828 O   0  0  0  0  0  0  0  0  0  0  0  0
  -31.0241  -17.1693   19.8351 O   0  0  0  0  0  0  0  0  0  0  0  0
  -23.5828   -7.1786   23.6791 O   0  0  0  0  0  0  0  0  0  0  0  0
  -28.4709  -27.1657   23.0164 O   0  0  0  0  0  0  0  0  0  1  0  0
  -18.9092   -4.8348   21.9277 F   0  0  0  0  0  0  0  0  0  0  0  0
  -26.8706  -19.1922   21.7957 F   0  0  0  0  0  0  0  0  0  0  0  0
  -23.5983   -4.6559   22.5485 F   0  0  0  0  0  0  0  0  0  0  0  0
  1  2  1  0  0  0  0
  1  6  2  0  0  0  0
  2  7  2  0  0  0  0
  3 10  2  0  0  0  0
  3 18  1  0  0  0  0
  4 11  1  0  0  0  0
  4 18  2  0  0  0  0
  5  9  2  0  0  0  0
  5 19  1  0  0  0  0
  6 21  1  0  0  0  0
  7 23  1  0  0  0  0
  8 12  2  0  0  0  0
  8 22  1  0  0  0  0
  9 25  1  0  0  0  0
 10 26  1  0  0  0  0
 11 26  2  0  0  0  0
 12 27  1  0  0  0  0
 13 14  2  0  0  0  0
 13 28  1  0  0  0  0
 14 29  1  0  0  0  0
 15 19  2  0  0  0  0
 15 30  1  0  0  0  0
 16 24  1  0  0  0  0
 16 27  2  0  0  0  0
 17 29  2  0  0  0  0
 17 31  1  0  0  0  0
 18 32  1  0  0  0  0
 19 36  1  0  0  0  0
 20 32  1  0  0  0  0
 20 33  2  0  0  0  0
 20 37  1  0  0  0  0
 21 23  2  0  0  0  0
 21 42  1  0  0  0  0
 22 24  2  0  0  0  0
 22 43  1  0  0  0  0
 23 51  1  0  0  0  0
 24 44  1  0  0  0  0
 25 30  2  0  0  0  0
 25 69  1  0  0  0  0
 26 79  1  0  0  0  0
 27 80  1  0  0  0  0
 28 31  2  0  0  0  0
 28 79  1  0  0  0  0
 29 81  1  0  0  0  0
 30 82  1  0  0  0  0
 31 83  1  0  0  0  0
 32 63  2  0  0  0  0
 33 64  1  0  0  0  0
 33 67  1  0  0  0  0
 34 35  2  0  0  0  0
 34 36  1  0  0  0  0
 35 59  1  0  0  0  0
 36 73  2  0  0  0  0
 37 68  1  0  0  0  0
 37 74  2  0  0  0  0
 38 52  1  0  0  0  0
 38 70  1  0  0  0  0
 38 75  2  0  0  0  0
 39 60  1  0  0  0  0
 39 65  1  0  0  0  0
 39 76  2  0  0  0  0
 40 61  1  0  0  0  0
 40 71  1  0  0  0  0
 40 77  2  0  0  0  0
 41 66  1  0  0  0  0
 41 69  1  0  0  0  0
 41 78  2  0  0  0  0
 42 45  1  0  0  0  0
 43 52  1  0  0  0  0
 44 65  1  0  0  0  0
 45 47  1  0  0  0  0
 46 48  1  0  0  0  0
 46 49  1  0  0  0  0
 47 51  1  0  0  0  0
 48 53  1  0  0  0  0
 49 66  1  0  0  0  0
 50 53  1  0  0  0  0
 50 66  1  0  0  0  0
 51 70  1  0  0  0  0
 52 65  1  0  0  0  0
 53 64  1  0  0  0  0
 54 61  1  0  0  0  0
 55 62  1  0  0  0  0
 56 62  1  0  0  0  0
 57 62  1  0  0  0  0
 58 72  1  0  0  0  0
 59 80  1  0  0  0  0
 60 62  1  0  0  0  0
 60 71  1  0  0  0  0
 61 72  1  0  0  0  0
 63 64  1  0  0  0  0
M  CHG  1  72   1
M  ISO  4  41 100  59 101  69 100  80 101
M  END
> <Batch ID>
0102

> <Smiles>
CNC(C)C(=O)NC(C(=O)N1Cc2cc([101O:1][101CH2:1]C=CC(=O)c3ccc([100NH:0][100C:0](=O)N4CCCC(n5nc(-c6ccc(Oc7ccc(F)cc7F)cc6)c(C(N)=O)c5N)C4)c(F)c3)ccc2CC1C(=O)NC1CCCc2ccccc21)C(C)(C)C

> <Shape>
0.297

> <Color>
0.136

> <Negative vol penalty>
0.000

$$$$

  -OEChem-04052301023D

 84 92  0     1  0  0  0  0  0999 V2000
  -29.1416  -34.8420   25.5154 C   0  0  0  0  0  0  0  0  0  0  0  0
  -29.4382  -33.8345   24.6031 C   0  0  0  0  0  0  0  0  0  0  0  0
  -24.0393  -10.0056   22.5537 C   0  0  0  0  0  0  0  0  0  0  0  0
  -24.4079  -11.7109   24.2249 C   0  0  0  0  0  0  0  0  0  0  0  0
  -28.1034  -34.6692   26.4298 C   0  0  0  0  0  0  0  0  0  0  0  0
  -28.6974  -32.6531   24.6053 C   0  0  0  0  0  0  0  0  0  0  0  0
  -27.1872  -29.2455   19.7460 C   0  0  0  0  0  0  0  0  0  0  0  0
  -29.8566  -18.5423   22.0703 C   0  0  0  0  0  0  0  0  0  0  0  0
  -29.5409  -19.7779   21.5053 C   0  0  0  0  0  0  0  0  0  0  0  0
  -23.6043   -9.1271   23.5460 C   0  0  0  0  0  0  0  0  0  0  0  0
  -23.9728  -10.8325   25.2173 C   0  0  0  0  0  0  0  0  0  0  0  0
  -27.7411  -28.0863   19.2047 C   0  0  0  0  0  0  0  0  0  0  0  0
  -20.7932   -8.6016   25.3500 C   0  0  0  0  0  0  0  0  0  0  0  0
  -19.6376   -7.8617   25.0996 C   0  0  0  0  0  0  0  0  0  0  0  0
  -26.1259  -26.7594   20.4088 C   0  0  0  0  0  0  0  0  0  0  0  0
  -31.8469  -18.4267   20.7057 C   0  0  0  0  0  0  0  0  0  0  0  0
  -20.8961   -5.8138   25.3437 C   0  0  0  0  0  0  0  0  0  0  0  0
  -24.4411  -11.2975   22.8932 C   0  0  0  0  0  0  0  0  0  0  0  0
  -24.1044  -13.1047   21.1245 C   0  0  0  0  0  0  0  0  0  0  0  0
  -27.3432  -33.4891   26.4369 C   0  0  0  0  0  0  0  0  0  0  0  0
  -26.1036  -29.1696   20.6329 C   0  0  0  0  0  0  0  0  0  0  0  0
  -27.6489  -32.4639   25.5216 C   0  0  0  0  0  0  0  0  0  0  0  0
  -25.5584  -27.9194   20.9580 C   0  0  0  0  0  0  0  0  0  0  0  0
  -31.0097  -17.8667   21.6706 C   0  0  0  0  0  0  0  0  0  0  0  0
  -30.3782  -20.3378   20.5404 C   0  0  0  0  0  0  0  0  0  0  0  0
  -23.5711   -9.5406   24.8778 C   0  0  0  0  0  0  0  0  0  0  0  0
  -27.2123  -26.8428   19.5383 C   0  0  0  0  0  0  0  0  0  0  0  0
  -22.0002   -7.9477   25.5971 C   0  0  0  0  0  0  0  0  0  0  0  0
  -19.6890   -6.4677   25.0964 C   0  0  0  0  0  0  0  0  0  0  0  0
  -31.5312  -19.6623   20.1406 C   0  0  0  0  0  0  0  0  0  0  0  0
  -22.0517   -6.5538   25.5940 C   0  0  0  0  0  0  0  0  0  0  0  0
  -24.8911  -12.2052   21.8686 C   0  0  0  0  0  0  0  0  0  0  0  0
  -24.9966  -13.7315   20.2893 C   0  0  0  0  0  0  0  0  0  0  0  0
  -22.6932  -13.3517   21.1831 C   0  0  0  0  0  0  0  0  0  0  0  0
  -25.6260  -29.9903   23.6664 C   0  0  0  0  0  0  0  0  0  0  0  0
  -28.8604  -23.6195   19.5358 C   0  0  0  0  0  0  0  0  0  0  0  0
  -22.5673  -29.1321   23.0101 C   0  0  0  0  0  0  0  0  0  0  0  0
  -20.4197  -27.3072   21.0855 C   0  0  0  0  0  0  0  0  0  0  0  0
  -30.8884  -14.7403   20.6352 C   0  0  0  0  0  0  0  0  0  0  0  0
  -26.2613  -33.3287   27.4754 C   0  0  0  0  0  0  0  0  0  0  0  0
  -25.5004  -30.4311   21.1873 C   0  0  0  0  0  0  0  0  0  0  0  0
  -24.3826  -27.7850   21.8895 C   0  0  0  0  0  0  0  0  0  0  0  0
  -25.2816  -32.1999   27.1650 C   0  0  0  0  0  0  0  0  0  0  0  0
  -29.1600  -13.0169   18.0430 C   0  0  0  0  0  0  0  0  0  0  0  0
  -26.0337  -30.9390   26.7511 C   0  0  0  0  0  0  0  0  0  0  0  0
  -27.7990  -12.6946   18.6624 C   0  0  0  0  0  0  0  0  0  0  0  0
  -30.2855  -12.9171   19.0703 C   0  0  0  0  0  0  0  0  0  0  0  0
  -28.7193  -13.3933   20.9126 C   0  0  0  0  0  0  0  0  0  0  0  0
  -26.8520  -31.1782   25.4765 C   0  0  1  0  0  0  0  0  0  0  0  0
  -24.7263  -30.2043   22.4821 C   0  0  1  0  0  0  0  0  0  0  0  0
  -27.5458  -13.5353   19.9282 C   0  0  2  0  0  0  0  0  0  0  0  0
  -17.9813  -26.7807   20.8127 C   0  0  0  0  0  0  0  0  0  0  0  0
  -22.6968  -27.2864   25.4364 C   0  0  0  0  0  0  0  0  0  0  0  0
  -20.6571  -26.1206   24.5711 C   0  0  0  0  0  0  0  0  0  0  0  0
  -20.5439  -28.5348   25.1890 C   0  0  0  0  0  0  0  0  0  0  0  0
  -20.3658  -28.4254   18.3459 C   0  0  0  0  0  0  0  0  0  0  0  0
  -31.3473  -16.5458   22.2749 C   0  0  0  0  0  0  0  0  0  0  0  0
  -28.8937  -22.3325   20.3325 C   0  0  0  0  0  0  0  0  0  0  0  0
  -27.6738  -24.5249   19.8034 C   0  0  0  0  0  0  0  0  0  1  0  0
  -21.7763  -27.8488   23.0907 C   0  0  1  0  0  0  0  0  0  0  0  0
  -19.1272  -27.6841   20.3843 C   0  0  2  0  0  0  0  0  0  0  0  0
  -21.4419  -27.4498   24.5557 C   0  0  0  0  0  0  0  0  0  0  0  0
  -26.1837  -12.2531   21.5354 N   0  0  0  0  0  0  0  0  0  0  0  0
  -26.2159  -13.1902   20.5727 N   0  0  0  0  0  0  0  0  0  0  0  0
  -23.8319  -29.0470   22.4106 N   0  0  0  0  0  0  0  0  0  0  0  0
  -29.9844  -13.7385   20.2453 N   0  0  0  0  0  0  0  0  0  0  0  0
  -24.8492  -14.6873   19.3475 N   0  0  0  0  0  0  0  0  0  0  0  0
  -21.9243  -12.6199   22.0983 N   0  0  0  0  0  0  0  0  0  0  0  0
  -30.0619  -21.5670   19.9797 N   0  0  0  0  0  0  0  0  0  0  0  0
  -25.9925  -31.1555   24.3124 N   0  0  0  0  0  0  0  0  0  0  0  0
  -20.6056  -28.0369   22.2406 N   0  0  0  0  0  0  0  0  0  0  0  0
  -30.5236  -15.4769   21.7555 N   0  0  0  0  0  0  0  0  0  0  0  0
  -19.2875  -27.5714   18.9069 N   0  3  0  0  0  0  0  0  0  0  0  0
  -22.1283  -14.1845   20.4342 O   0  0  0  0  0  0  0  0  0  0  0  0
  -25.9615  -28.8521   23.9723 O   0  0  0  0  0  0  0  0  0  0  0  0
  -29.7326  -23.9210   18.7221 O   0  0  0  0  0  0  0  0  0  0  0  0
  -22.0782  -30.1730   23.4560 O   0  0  0  0  0  0  0  0  0  0  0  0
  -21.1857  -26.4484   20.6540 O   0  0  0  0  0  0  0  0  0  0  0  0
  -31.9400  -14.9654   20.0266 O   0  0  0  0  0  0  0  0  0  0  0  0
  -23.1464   -8.6837   25.8463 O   0  0  0  0  0  0  0  0  0  0  0  0
  -27.7515  -25.7097   19.0118 O   0  0  0  0  0  0  0  0  0  1  0  0
  -18.5789   -5.7573   24.8575 F   0  0  0  0  0  0  0  0  0  0  0  0
  -32.3431  -20.1913   19.2141 F   0  0  0  0  0  0  0  0  0  0  0  0
  -23.2081   -5.9199   25.8320 F   0  0  0  0  0  0  0  0  0  0  0  0
  1  2  1  0  0  0  0
  1  5  2  0  0  0  0
  2  6  2  0  0  0  0
  3 10  2  0  0  0  0
  3 18  1  0  0  0  0
  4 11  1  0  0  0  0
  4 18  2  0  0  0  0
  5 20  1  0  0  0  0
  6 22  1  0  0  0  0
  7 12  2  0  0  0  0
  7 21  1  0  0  0  0
  8  9  2  0  0  0  0
  8 24  1  0  0  0  0
  9 25  1  0  0  0  0
 10 26  1  0  0  0  0
 11 26  2  0  0  0  0
 12 27  1  0  0  0  0
 13 14  2  0  0  0  0
 13 28  1  0  0  0  0
 14 29  1  0  0  0  0
 15 23  1  0  0  0  0
 15 27  2  0  0  0  0
 16 24  2  0  0  0  0
 16 30  1  0  0  0  0
 17 29  2  0  0  0  0
 17 31  1  0  0  0  0
 18 32  1  0  0  0  0
 19 32  1  0  0  0  0
 19 33  2  0  0  0  0
 19 34  1  0  0  0  0
 20 22  2  0  0  0  0
 20 40  1  0  0  0  0
 21 23  2  0  0  0  0
 21 41  1  0  0  0  0
 22 49  1  0  0  0  0
 23 42  1  0  0  0  0
 24 57  1  0  0  0  0
 25 30  2  0  0  0  0
 25 69  1  0  0  0  0
 26 80  1  0  0  0  0
 27 81  1  0  0  0  0
 28 31  2  0  0  0  0
 28 80  1  0  0  0  0
 29 82  1  0  0  0  0
 30 83  1  0  0  0  0
 31 84  1  0  0  0  0
 32 63  2  0  0  0  0
 33 64  1  0  0  0  0
 33 67  1  0  0  0  0
 34 68  1  0  0  0  0
 34 74  2  0  0  0  0
 35 50  1  0  0  0  0
 35 70  1  0  0  0  0
 35 75  2  0  0  0  0
 36 58  1  0  0  0  0
 36 59  1  0  0  0  0
 36 76  2  0  0  0  0
 37 60  1  0  0  0  0
 37 65  1  0  0  0  0
 37 77  2  0  0  0  0
 38 61  1  0  0  0  0
 38 71  1  0  0  0  0
 38 78  2  0  0  0  0
 39 66  1  0  0  0  0
 39 72  1  0  0  0  0
 39 79  2  0  0  0  0
 40 43  1  0  0  0  0
 41 50  1  0  0  0  0
 42 65  1  0  0  0  0
 43 45  1  0  0  0  0
 44 46  1  0  0  0  0
 44 47  1  0  0  0  0
 45 49  1  0  0  0  0
 46 51  1  0  0  0  0
 47 66  1  0  0  0  0
 48 51  1  0  0  0  0
 48 66  1  0  0  0  0
 49 70  1  0  0  0  0
 50 65  1  0  0  0  0
 51 64  1  0  0  0  0
 52 61  1  0  0  0  0
 53 62  1  0  0  0  0
 54 62  1  0  0  0  0
 55 62  1  0  0  0  0
 56 73  1  0  0  0  0
 57 72  1  0  0  0  0
 58 69  1  0  0  0  0
 59 81  1  0  0  0  0
 60 62  1  0  0  0  0
 60 71  1  0  0  0  0
 61 73  1  0  0  0  0
 63 64  1  0  0  0  0
M  CHG  1  73   1
M  ISO  4  39 100  59 101  72 100  81 101
M  END
> <Batch ID>
0102

> <Smiles>
CNC(C)C(=O)NC(C(=O)N1Cc2cc([101O:1][101CH2:1]C(=O)CNc3ccc(C[100NH:0][100C:0](=O)N4CCCC(n5nc(-c6ccc(Oc7ccc(F)cc7F)cc6)c(C(N)=O)c5N)C4)cc3F)ccc2CC1C(=O)NC1CCCc2ccccc21)C(C)(C)C

> <Shape>
0.332

> <Color>
0.124

> <Negative vol penalty>
0.000

$$$$

  -OEChem-04052301023D

 84 92  0     1  0  0  0  0  0999 V2000
  -26.3638  -39.0572   20.0621 C   0  0  0  0  0  0  0  0  0  0  0  0
  -26.6909  -37.9573   19.2756 C   0  0  0  0  0  0  0  0  0  0  0  0
  -24.5473   -8.2379   21.4282 C   0  0  0  0  0  0  0  0  0  0  0  0
  -23.8581  -10.0474   22.8731 C   0  0  0  0  0  0  0  0  0  0  0  0
  -26.3294  -38.9344   21.4505 C   0  0  0  0  0  0  0  0  0  0  0  0
  -26.9850  -36.7341   19.8771 C   0  0  0  0  0  0  0  0  0  0  0  0
  -26.3671  -29.6820   18.7811 C   0  0  0  0  0  0  0  0  0  0  0  0
  -24.1072   -7.3137   22.3756 C   0  0  0  0  0  0  0  0  0  0  0  0
  -23.4179   -9.1232   23.8205 C   0  0  0  0  0  0  0  0  0  0  0  0
  -27.1391  -28.5210   18.7762 C   0  0  0  0  0  0  0  0  0  0  0  0
  -21.1641   -5.9875   23.3818 C   0  0  0  0  0  0  0  0  0  0  0  0
  -20.4165   -4.9007   22.9286 C   0  0  0  0  0  0  0  0  0  0  0  0
  -26.9709  -28.4062   21.1799 C   0  0  0  0  0  0  0  0  0  0  0  0
  -28.0535  -18.7653   23.1414 C   0  0  0  0  0  0  0  0  0  0  0  0
  -28.7548  -19.0997   20.8538 C   0  0  0  0  0  0  0  0  0  0  0  0
  -22.0844   -3.3881   23.8047 C   0  0  0  0  0  0  0  0  0  0  0  0
  -24.4229   -9.6048   21.6769 C   0  0  0  0  0  0  0  0  0  0  0  0
  -24.1310  -11.1181   19.6441 C   0  0  0  0  0  0  0  0  0  0  0  0
  -26.6138  -37.7066   22.0689 C   0  0  0  0  0  0  0  0  0  0  0  0
  -25.8996  -30.2207   19.9884 C   0  0  0  0  0  0  0  0  0  0  0  0
  -26.9558  -36.5952   21.2752 C   0  0  0  0  0  0  0  0  0  0  0  0
  -26.1910  -29.5727   21.1972 C   0  0  0  0  0  0  0  0  0  0  0  0
  -28.2759  -17.3946   23.0093 C   0  0  0  0  0  0  0  0  0  0  0  0
  -28.2930  -19.6178   22.0637 C   0  0  0  0  0  0  0  0  0  0  0  0
  -28.7378  -16.8765   21.7994 C   0  0  0  0  0  0  0  0  0  0  0  0
  -23.5424   -7.7563   23.5718 C   0  0  0  0  0  0  0  0  0  0  0  0
  -27.4435  -27.8846   19.9759 C   0  0  0  0  0  0  0  0  0  0  0  0
  -22.3719   -5.7747   24.0464 C   0  0  0  0  0  0  0  0  0  0  0  0
  -20.8766   -3.6010   23.1401 C   0  0  0  0  0  0  0  0  0  0  0  0
  -28.9772  -17.7290   20.7216 C   0  0  0  0  0  0  0  0  0  0  0  0
  -22.8320   -4.4750   24.2579 C   0  0  0  0  0  0  0  0  0  0  0  0
  -24.8779  -10.5600   20.6988 C   0  0  0  0  0  0  0  0  0  0  0  0
  -25.0102  -11.9610   19.0092 C   0  0  0  0  0  0  0  0  0  0  0  0
  -22.7647  -10.8946   19.2715 C   0  0  0  0  0  0  0  0  0  0  0  0
  -26.3309  -32.9628   21.5372 C   0  0  0  0  0  0  0  0  0  0  0  0
  -24.0705  -31.7477   23.5212 C   0  0  0  0  0  0  0  0  0  0  0  0
  -22.4853  -28.9933   24.7651 C   0  0  0  0  0  0  0  0  0  0  0  0
  -29.9052  -14.8706   20.8197 C   0  0  0  0  0  0  0  0  0  0  0  0
  -26.6101  -37.6346   23.5754 C   0  0  0  0  0  0  0  0  0  0  0  0
  -25.0456  -31.4588   19.9745 C   0  0  0  0  0  0  0  0  0  0  0  0
  -25.6962  -30.0992   22.5187 C   0  0  0  0  0  0  0  0  0  0  0  0
  -26.5688  -36.2079   24.1168 C   0  0  0  0  0  0  0  0  0  0  0  0
  -29.6851  -12.5339   18.1423 C   0  0  0  0  0  0  0  0  0  0  0  0
  -27.5798  -35.3301   23.3861 C   0  0  0  0  0  0  0  0  0  0  0  0
  -28.3565  -11.8175   18.3947 C   0  0  0  0  0  0  0  0  0  0  0  0
  -30.4094  -12.8616   19.4468 C   0  0  0  0  0  0  0  0  0  0  0  0
  -28.2802  -12.8814   20.6858 C   0  0  0  0  0  0  0  0  0  0  0  0
  -27.2568  -35.2453   21.8894 C   0  0  1  0  0  0  0  0  0  0  0  0
  -25.0541  -32.2056   21.3048 C   0  0  1  0  0  0  0  0  0  0  0  0
  -27.4833  -12.5885   19.4040 C   0  0  2  0  0  0  0  0  0  0  0  0
  -28.0087  -16.5049   24.1798 C   0  0  0  0  0  0  0  0  0  0  0  0
  -20.7073  -28.3145   26.4007 C   0  0  0  0  0  0  0  0  0  0  0  0
  -26.0038  -32.2501   25.8277 C   0  0  0  0  0  0  0  0  0  0  0  0
  -24.6091  -30.7223   27.2378 C   0  0  0  0  0  0  0  0  0  0  0  0
  -23.6196  -32.8210   26.3218 C   0  0  0  0  0  0  0  0  0  0  0  0
  -20.8327  -27.7682   22.6375 C   0  0  0  0  0  0  0  0  0  0  0  0
  -28.0136  -23.3562   21.6120 C   0  0  0  0  0  0  0  0  0  0  0  0
  -28.2792  -24.4026   20.5286 C   0  0  0  0  0  0  0  0  0  0  0  0
  -28.2925  -21.9334   21.1344 C   0  0  0  0  0  0  0  0  0  0  0  0
  -27.9555  -25.8088   21.0175 C   0  0  0  0  0  0  0  0  0  1  0  0
  -24.0875  -30.8874   24.7616 C   0  0  1  0  0  0  0  0  0  0  0  0
  -21.0125  -28.6792   24.9562 C   0  0  2  0  0  0  0  0  0  0  0  0
  -24.5911  -31.6611   26.0127 C   0  0  0  0  0  0  0  0  0  0  0  0
  -26.1348  -11.0103   20.7353 N   0  0  0  0  0  0  0  0  0  0  0  0
  -26.1846  -11.8602   19.6954 N   0  0  0  0  0  0  0  0  0  0  0  0
  -24.8701  -31.3161   22.4534 N   0  0  0  0  0  0  0  0  0  0  0  0
  -29.5223  -13.5957   20.3518 N   0  0  0  0  0  0  0  0  0  0  0  0
  -24.8856  -12.7710   17.9365 N   0  0  0  0  0  0  0  0  0  0  0  0
  -22.0032   -9.9965   20.0317 N   0  0  0  0  0  0  0  0  0  0  0  0
  -28.9674  -15.4865   21.6477 N   0  0  0  0  0  0  0  0  0  0  0  0
  -28.0719  -20.9796   22.1952 N   0  0  0  0  0  0  0  0  0  0  0  0
  -26.1606  -34.3286   21.6601 N   0  0  0  0  0  0  0  0  0  0  0  0
  -22.7415  -30.3416   24.8983 N   0  0  0  0  0  0  0  0  0  0  0  0
  -20.6096  -27.5370   24.0879 N   0  3  0  0  0  0  0  0  0  0  0  0
  -22.2395  -11.4617   18.2835 O   0  0  0  0  0  0  0  0  0  0  0  0
  -27.3919  -32.3530   21.6017 O   0  0  0  0  0  0  0  0  0  0  0  0
  -23.3680  -32.7614   23.4979 O   0  0  0  0  0  0  0  0  0  0  0  0
  -23.3252  -28.1286   24.5256 O   0  0  0  0  0  0  0  0  0  0  0  0
  -30.9736  -15.3901   20.4869 O   0  0  0  0  0  0  0  0  0  0  0  0
  -23.1126   -6.8548   24.4964 O   0  0  0  0  0  0  0  0  0  0  0  0
  -28.1974  -26.7516   19.9740 O   0  0  0  0  0  0  0  0  0  1  0  0
  -20.1578   -2.5573   22.7062 F   0  0  0  0  0  0  0  0  0  0  0  0
  -29.4203  -17.2429   19.5532 F   0  0  0  0  0  0  0  0  0  0  0  0
  -23.9910   -4.2642   24.8967 F   0  0  0  0  0  0  0  0  0  0  0  0
  1  2  1  0  0  0  0
  1  5  2  0  0  0  0
  2  6  2  0  0  0  0
  3  8  2  0  0  0  0
  3 17  1  0  0  0  0
  4  9  1  0  0  0  0
  4 17  2  0  0  0  0
  5 19  1  0  0  0  0
  6 21  1  0  0  0  0
  7 10  2  0  0  0  0
  7 20  1  0  0  0  0
  8 26  1  0  0  0  0
  9 26  2  0  0  0  0
 10 27  1  0  0  0  0
 11 12  2  0  0  0  0
 11 28  1  0  0  0  0
 12 29  1  0  0  0  0
 13 22  1  0  0  0  0
 13 27  2  0  0  0  0
 14 23  2  0  0  0  0
 14 24  1  0  0  0  0
 15 24  2  0  0  0  0
 15 30  1  0  0  0  0
 16 29  2  0  0  0  0
 16 31  1  0  0  0  0
 17 32  1  0  0  0  0
 18 32  1  0  0  0  0
 18 33  2  0  0  0  0
 18 34  1  0  0  0  0
 19 21  2  0  0  0  0
 19 39  1  0  0  0  0
 20 22  2  0  0  0  0
 20 40  1  0  0  0  0
 21 48  1  0  0  0  0
 22 41  1  0  0  0  0
 23 25  1  0  0  0  0
 23 51  1  0  0  0  0
 24 71  1  0  0  0  0
 25 30  2  0  0  0  0
 25 70  1  0  0  0  0
 26 80  1  0  0  0  0
 27 81  1  0  0  0  0
 28 31  2  0  0  0  0
 28 80  1  0  0  0  0
 29 82  1  0  0  0  0
 30 83  1  0  0  0  0
 31 84  1  0  0  0  0
 32 64  2  0  0  0  0
 33 65  1  0  0  0  0
 33 68  1  0  0  0  0
 34 69  1  0  0  0  0
 34 75  2  0  0  0  0
 35 49  1  0  0  0  0
 35 72  1  0  0  0  0
 35 76  2  0  0  0  0
 36 61  1  0  0  0  0
 36 66  1  0  0  0  0
 36 77  2  0  0  0  0
 37 62  1  0  0  0  0
 37 73  1  0  0  0  0
 37 78  2  0  0  0  0
 38 67  1  0  0  0  0
 38 70  1  0  0  0  0
 38 79  2  0  0  0  0
 39 42  1  0  0  0  0
 40 49  1  0  0  0  0
 41 66  1  0  0  0  0
 42 44  1  0  0  0  0
 43 45  1  0  0  0  0
 43 46  1  0  0  0  0
 44 48  1  0  0  0  0
 45 50  1  0  0  0  0
 46 67  1  0  0  0  0
 47 50  1  0  0  0  0
 47 67  1  0  0  0  0
 48 72  1  0  0  0  0
 49 66  1  0  0  0  0
 50 65  1  0  0  0  0
 52 62  1  0  0  0  0
 53 63  1  0  0  0  0
 54 63  1  0  0  0  0
 55 63  1  0  0  0  0
 56 74  1  0  0  0  0
 57 58  1  0  0  0  0
 57 59  1  0  0  0  0
 58 60  1  0  0  0  0
 59 71  1  0  0  0  0
 60 81  1  0  0  0  0
 61 63  1  0  0  0  0
 61 73  1  0  0  0  0
 62 74  1  0  0  0  0
 64 65  1  0  0  0  0
M  CHG  1  74   1
M  ISO  4  38 100  60 101  70 100  81 101
M  END
> <Batch ID>
0102

> <Smiles>
CNC(C)C(=O)NC(C(=O)N1Cc2cc([101O:1][101CH2:1]CCCNc3cc(C)c([100NH:0][100C:0](=O)N4CCCC(n5nc(-c6ccc(Oc7ccc(F)cc7F)cc6)c(C(N)=O)c5N)C4)c(F)c3)ccc2CC1C(=O)NC1CCCc2ccccc21)C(C)(C)C

> <Shape>
0.312

> <Color>
0.103

> <Negative vol penalty>
0.000

$$$$

  -OEChem-04052301023D

 82 91  0     1  0  0  0  0  0999 V2000
  -34.2946  -31.2750   16.5168 C   0  0  0  0  0  0  0  0  0  0  0  0
  -33.9100  -30.1440   17.2298 C   0  0  0  0  0  0  0  0  0  0  0  0
  -22.5802  -10.3082   20.3897 C   0  0  0  0  0  0  0  0  0  0  0  0
  -24.4163   -9.2694   21.5674 C   0  0  0  0  0  0  0  0  0  0  0  0
  -33.9044  -32.5398   16.9547 C   0  0  0  0  0  0  0  0  0  0  0  0
  -33.1358  -30.2773   18.3819 C   0  0  0  0  0  0  0  0  0  0  0  0
  -29.3234  -26.9487   18.5567 C   0  0  0  0  0  0  0  0  0  0  0  0
  -21.8601   -9.1158   20.4605 C   0  0  0  0  0  0  0  0  0  0  0  0
  -23.6961   -8.0769   21.6382 C   0  0  0  0  0  0  0  0  0  0  0  0
  -29.6361  -25.6414   18.9268 C   0  0  0  0  0  0  0  0  0  0  0  0
  -21.1870   -6.7913   23.5016 C   0  0  0  0  0  0  0  0  0  0  0  0
  -21.1714   -6.1169   24.7225 C   0  0  0  0  0  0  0  0  0  0  0  0
  -28.8541  -26.0940   21.1635 C   0  0  0  0  0  0  0  0  0  0  0  0
  -29.7723  -20.5685   19.9780 C   0  0  0  0  0  0  0  0  0  0  0  0
  -22.1821   -4.1906   23.6713 C   0  0  0  0  0  0  0  0  0  0  0  0
  -23.8584  -10.3850   20.9431 C   0  0  0  0  0  0  0  0  0  0  0  0
  -24.2324  -12.8668   21.3999 C   0  0  0  0  0  0  0  0  0  0  0  0
  -33.1170  -32.6881   18.1074 C   0  0  0  0  0  0  0  0  0  0  0  0
  -28.7830  -27.8432   19.4917 C   0  0  0  0  0  0  0  0  0  0  0  0
  -32.7359  -31.5455   18.8364 C   0  0  0  0  0  0  0  0  0  0  0  0
  -28.5331  -27.4113   20.8021 C   0  0  0  0  0  0  0  0  0  0  0  0
  -30.3314  -19.5035   20.7128 C   0  0  0  0  0  0  0  0  0  0  0  0
  -22.4180   -8.0001   21.0848 C   0  0  0  0  0  0  0  0  0  0  0  0
  -29.4041  -25.2147   20.2311 C   0  0  0  0  0  0  0  0  0  0  0  0
  -21.7000   -6.1653   22.3655 C   0  0  0  0  0  0  0  0  0  0  0  0
  -21.6690   -4.8166   24.8073 C   0  0  0  0  0  0  0  0  0  0  0  0
  -22.1976   -4.8650   22.4504 C   0  0  0  0  0  0  0  0  0  0  0  0
  -24.6030  -11.6164   20.8698 C   0  0  0  0  0  0  0  0  0  0  0  0
  -31.4344  -19.8866   21.4213 C   0  0  0  0  0  0  0  0  0  0  0  0
  -30.5019  -21.7306   20.1742 C   0  0  0  0  0  0  0  0  0  0  0  0
  -25.2696  -13.7027   21.0650 C   0  0  0  0  0  0  0  0  0  0  0  0
  -23.0560  -13.2394   22.1298 C   0  0  0  0  0  0  0  0  0  0  0  0
  -29.7168  -30.6089   20.7497 C   0  0  0  0  0  0  0  0  0  0  0  0
  -31.3221  -16.4130   22.3793 C   0  0  0  0  0  0  0  0  0  0  0  0
  -30.7696  -14.6545   20.6996 C   0  0  0  0  0  0  0  0  0  0  0  0
  -26.7657  -30.5471   22.0949 C   0  0  0  0  0  0  0  0  0  0  0  0
  -24.0926  -28.6963   23.1321 C   0  0  0  0  0  0  0  0  0  0  0  0
  -32.7594  -34.0789   18.5682 C   0  0  0  0  0  0  0  0  0  0  0  0
  -28.4263  -29.2421   19.0696 C   0  0  0  0  0  0  0  0  0  0  0  0
  -27.9356  -28.3266   21.8383 C   0  0  0  0  0  0  0  0  0  0  0  0
  -30.0331  -18.0730   20.9179 C   0  0  0  0  0  0  0  0  0  0  0  0
  -32.0448  -18.7993   22.2017 C   0  0  0  0  0  0  0  0  0  0  0  0
  -31.6250  -34.1094   19.5892 C   0  0  0  0  0  0  0  0  0  0  0  0
  -29.1746  -13.0272   17.9341 C   0  0  0  0  0  0  0  0  0  0  0  0
  -31.8536  -33.0604   20.6728 C   0  0  0  0  0  0  0  0  0  0  0  0
  -27.8253  -12.5914   18.5036 C   0  0  0  0  0  0  0  0  0  0  0  0
  -30.2777  -12.9426   18.9845 C   0  0  0  0  0  0  0  0  0  0  0  0
  -28.6366  -13.2724   20.8065 C   0  0  0  0  0  0  0  0  0  0  0  0
  -31.8754  -31.6476   20.0770 C   0  0  1  0  0  0  0  0  0  0  0  0
  -28.3584  -30.2199   20.2386 C   0  0  1  0  0  0  0  0  0  0  0  0
  -27.4885  -13.3721   19.7864 C   0  0  2  0  0  0  0  0  0  0  0  0
  -21.8460  -28.9223   24.2271 C   0  0  0  0  0  0  0  0  0  0  0  0
  -28.1256  -30.9504   24.7963 C   0  0  0  0  0  0  0  0  0  0  0  0
  -25.9973  -30.2253   25.8976 C   0  0  0  0  0  0  0  0  0  0  0  0
  -26.0286  -32.2749   24.4760 C   0  0  0  0  0  0  0  0  0  0  0  0
  -22.7009  -27.5754   20.7730 C   0  0  0  0  0  0  0  0  0  0  0  0
  -30.2637  -23.0920   19.5899 C   0  0  0  0  0  0  0  0  0  1  0  0
  -30.3210  -15.3717   21.9480 C   0  0  0  0  0  0  0  0  0  0  0  0
  -26.1871  -30.0028   23.3786 C   0  0  1  0  0  0  0  0  0  0  0  0
  -22.6010  -28.8677   22.9081 C   0  0  2  0  0  0  0  0  0  0  0  0
  -26.5977  -30.8464   24.6184 C   0  0  0  0  0  0  0  0  0  0  0  0
  -25.7833  -11.6503   20.2454 N   0  0  0  0  0  0  0  0  0  0  0  0
  -26.1633  -12.9322   20.3810 N   0  0  0  0  0  0  0  0  0  0  0  0
  -31.1293  -17.6811   21.8533 N   0  0  0  0  0  0  0  0  0  0  0  0
  -27.6098  -29.6868   21.3786 N   0  0  0  0  0  0  0  0  0  0  0  0
  -29.9102  -13.6780   20.1958 N   0  0  0  0  0  0  0  0  0  0  0  0
  -25.4951  -15.0142   21.2917 N   0  0  0  0  0  0  0  0  0  0  0  0
  -23.0750  -13.1329   23.5272 N   0  0  0  0  0  0  0  0  0  0  0  0
  -30.5290  -31.1958   19.7983 N   0  0  0  0  0  0  0  0  0  0  0  0
  -24.7462  -29.9098   23.1697 N   0  0  0  0  0  0  0  0  0  0  0  0
  -22.0639  -27.7324   22.1059 N   0  3  0  0  0  0  0  0  0  0  0  0
  -22.0130  -13.6388   21.5587 O   0  0  0  0  0  0  0  0  0  0  0  0
  -30.0060  -30.3937   21.9209 O   0  0  0  0  0  0  0  0  0  0  0  0
  -32.2371  -16.1192   23.1501 O   0  0  0  0  0  0  0  0  0  0  0  0
  -31.8505  -14.9567   20.1873 O   0  0  0  0  0  0  0  0  0  0  0  0
  -26.4736  -31.6909   21.7371 O   0  0  0  0  0  0  0  0  0  0  0  0
  -24.6243  -27.5961   23.2645 O   0  0  0  0  0  0  0  0  0  0  0  0
  -21.7154   -6.8364   21.1543 O   0  0  0  0  0  0  0  0  0  0  0  0
  -29.7089  -23.9394   20.5952 O   0  0  0  0  0  0  0  0  0  1  0  0
  -21.6554   -4.1697   25.9802 F   0  0  0  0  0  0  0  0  0  0  0  0
  -22.6928   -4.2589   21.3626 F   0  0  0  0  0  0  0  0  0  0  0  0
  -31.8433  -21.4972   21.2433 S   0  0  0  0  0  0  0  0  0  0  0  0
  1  2  1  0  0  0  0
  1  5  2  0  0  0  0
  2  6  2  0  0  0  0
  3  8  2  0  0  0  0
  3 16  1  0  0  0  0
  4  9  1  0  0  0  0
  4 16  2  0  0  0  0
  5 18  1  0  0  0  0
  6 20  1  0  0  0  0
  7 10  2  0  0  0  0
  7 19  1  0  0  0  0
  8 23  1  0  0  0  0
  9 23  2  0  0  0  0
 10 24  1  0  0  0  0
 11 12  2  0  0  0  0
 11 25  1  0  0  0  0
 12 26  1  0  0  0  0
 13 21  1  0  0  0  0
 13 24  2  0  0  0  0
 14 22  1  0  0  0  0
 14 30  2  0  0  0  0
 15 26  2  0  0  0  0
 15 27  1  0  0  0  0
 16 28  1  0  0  0  0
 17 28  1  0  0  0  0
 17 31  2  0  0  0  0
 17 32  1  0  0  0  0
 18 20  2  0  0  0  0
 18 38  1  0  0  0  0
 19 21  2  0  0  0  0
 19 39  1  0  0  0  0
 20 49  1  0  0  0  0
 21 40  1  0  0  0  0
 22 29  2  0  0  0  0
 22 41  1  0  0  0  0
 23 78  1  0  0  0  0
 24 79  1  0  0  0  0
 25 27  2  0  0  0  0
 25 78  1  0  0  0  0
 26 80  1  0  0  0  0
 27 81  1  0  0  0  0
 28 62  2  0  0  0  0
 29 42  1  0  0  0  0
 29 82  1  0  0  0  0
 30 57  1  0  0  0  0
 30 82  1  0  0  0  0
 31 63  1  0  0  0  0
 31 67  1  0  0  0  0
 32 68  1  0  0  0  0
 32 72  2  0  0  0  0
 33 50  1  0  0  0  0
 33 69  1  0  0  0  0
 33 73  2  0  0  0  0
 34 58  1  0  0  0  0
 34 64  1  0  0  0  0
 34 74  2  0  0  0  0
 35 58  1  0  0  0  0
 35 66  1  0  0  0  0
 35 75  2  0  0  0  0
 36 59  1  0  0  0  0
 36 65  1  0  0  0  0
 36 76  2  0  0  0  0
 37 60  1  0  0  0  0
 37 70  1  0  0  0  0
 37 77  2  0  0  0  0
 38 43  1  0  0  0  0
 39 50  1  0  0  0  0
 40 65  1  0  0  0  0
 41 64  1  0  0  0  0
 42 64  1  0  0  0  0
 43 45  1  0  0  0  0
 44 46  1  0  0  0  0
 44 47  1  0  0  0  0
 45 49  1  0  0  0  0
 46 51  1  0  0  0  0
 47 66  1  0  0  0  0
 48 51  1  0  0  0  0
 48 66  1  0  0  0  0
 49 69  1  0  0  0  0
 50 65  1  0  0  0  0
 51 63  1  0  0  0  0
 52 60  1  0  0  0  0
 53 61  1  0  0  0  0
 54 61  1  0  0  0  0
 55 61  1  0  0  0  0
 56 71  1  0  0  0  0
 57 79  1  0  0  0  0
 59 61  1  0  0  0  0
 59 70  1  0  0  0  0
 60 71  1  0  0  0  0
 62 63  1  0  0  0  0
M  CHG  1  71   1
M  ISO  4  35 100  57 101  58 100  79 101
M  END
> <Batch ID>
0102

> <Smiles>
CNC(C)C(=O)NC(C(=O)N1Cc2cc([101O:1][101CH2:1]c3cc4c(s3)CN(C(=O)[100CH2:0][100C:0](=O)N3CCCC(n5nc(-c6ccc(Oc7ccc(F)cc7F)cc6)c(C(N)=O)c5N)C3)C4)ccc2CC1C(=O)NC1CCCc2ccccc21)C(C)(C)C

> <Shape>
0.351

> <Color>
0.173

> <Negative vol penalty>
0.000

$$$$

  -OEChem-04052301023D

 87 96  0     1  0  0  0  0  0999 V2000
  -28.3406  -12.3431   23.7407 C   0  0  0  0  0  0  0  0  0  0  0  0
  -28.8503  -13.6067   24.0217 C   0  0  0  0  0  0  0  0  0  0  0  0
  -25.0423  -32.0696   24.1409 C   0  0  0  0  0  0  0  0  0  0  0  0
  -24.5736  -32.1437   21.7720 C   0  0  0  0  0  0  0  0  0  0  0  0
  -28.3107  -11.8814   22.4255 C   0  0  0  0  0  0  0  0  0  0  0  0
  -29.3316  -14.4089   22.9877 C   0  0  0  0  0  0  0  0  0  0  0  0
  -26.5258  -20.9244   21.7359 C   0  0  0  0  0  0  0  0  0  0  0  0
  -21.8226  -27.2876   19.8646 C   0  0  0  0  0  0  0  0  0  0  0  0
  -20.4781  -27.6257   19.7108 C   0  0  0  0  0  0  0  0  0  0  0  0
  -25.8503  -33.1998   24.0164 C   0  0  0  0  0  0  0  0  0  0  0  0
  -25.3816  -33.2739   21.6475 C   0  0  0  0  0  0  0  0  0  0  0  0
  -26.1846  -22.2664   21.5662 C   0  0  0  0  0  0  0  0  0  0  0  0
  -28.6861  -33.9667   21.4714 C   0  0  0  0  0  0  0  0  0  0  0  0
  -29.5847  -34.0066   20.4054 C   0  0  0  0  0  0  0  0  0  0  0  0
  -27.6790  -22.4176   19.6709 C   0  0  0  0  0  0  0  0  0  0  0  0
  -22.4661  -29.4006   18.8860 C   0  0  0  0  0  0  0  0  0  0  0  0
  -28.5095  -36.0040   19.5737 C   0  0  0  0  0  0  0  0  0  0  0  0
  -24.4039  -31.5416   23.0187 C   0  0  0  0  0  0  0  0  0  0  0  0
  -23.9557  -29.0989   23.6020 C   0  0  0  0  0  0  0  0  0  0  0  0
  -28.7829  -12.6822   21.3736 C   0  0  0  0  0  0  0  0  0  0  0  0
  -27.4343  -20.3191   20.8632 C   0  0  0  0  0  0  0  0  0  0  0  0
  -29.3092  -13.9569   21.6573 C   0  0  0  0  0  0  0  0  0  0  0  0
  -28.0150  -21.0704   19.8283 C   0  0  0  0  0  0  0  0  0  0  0  0
  -22.8166  -28.1750   19.4523 C   0  0  0  0  0  0  0  0  0  0  0  0
  -20.1276  -28.8513   19.1445 C   0  0  0  0  0  0  0  0  0  0  0  0
  -21.1216  -29.7388   18.7321 C   0  0  0  0  0  0  0  0  0  0  0  0
  -26.0199  -33.8019   22.7697 C   0  0  0  0  0  0  0  0  0  0  0  0
  -26.7600  -23.0112   20.5364 C   0  0  0  0  0  0  0  0  0  0  0  0
  -27.6990  -34.9454   21.5885 C   0  0  0  0  0  0  0  0  0  0  0  0
  -29.4965  -35.0252   19.4565 C   0  0  0  0  0  0  0  0  0  0  0  0
  -27.6108  -35.9640   20.6397 C   0  0  0  0  0  0  0  0  0  0  0  0
  -23.5696  -30.3738   23.1466 C   0  0  0  0  0  0  0  0  0  0  0  0
  -22.8074  -28.3483   23.5354 C   0  0  0  0  0  0  0  0  0  0  0  0
  -26.9538  -27.1262   19.9679 C   0  0  0  0  0  0  0  0  0  0  0  0
  -25.2376  -28.6347   24.0456 C   0  0  0  0  0  0  0  0  0  0  0  0
  -29.2774  -17.2003   19.8874 C   0  0  0  0  0  0  0  0  0  0  0  0
  -28.3837  -18.5581   17.2858 C   0  0  0  0  0  0  0  0  0  0  0  0
  -27.3731  -19.2755   14.1076 C   0  0  0  0  0  0  0  0  0  0  0  0
  -17.8375  -29.2640   20.0805 C   0  0  0  0  0  0  0  0  0  0  0  0
  -28.7737  -12.1213   19.9737 C   0  0  0  0  0  0  0  0  0  0  0  0
  -27.8775  -18.8929   21.0459 C   0  0  0  0  0  0  0  0  0  0  0  0
  -29.0137  -20.3868   18.9348 C   0  0  0  0  0  0  0  0  0  0  0  0
  -26.3504  -28.3453   20.6224 C   0  0  0  0  0  0  0  0  0  0  0  0
  -28.9576  -13.1819   18.8913 C   0  0  0  0  0  0  0  0  0  0  0  0
  -18.0460  -28.7193   23.7347 C   0  0  0  0  0  0  0  0  0  0  0  0
  -30.1056  -14.1193   19.2520 C   0  0  0  0  0  0  0  0  0  0  0  0
  -19.5030  -29.0571   24.0455 C   0  0  0  0  0  0  0  0  0  0  0  0
  -25.1697  -28.8774   19.8191 C   0  0  0  0  0  0  0  0  0  0  0  0
  -17.5310  -29.4928   22.5247 C   0  0  0  0  0  0  0  0  0  0  0  0
  -24.5851  -26.4334   19.5523 C   0  0  0  0  0  0  0  0  0  0  0  0
  -19.8295  -29.6499   21.6116 C   0  0  0  0  0  0  0  0  0  0  0  0
  -29.8177  -14.8665   20.5598 C   0  0  1  0  0  0  0  0  0  0  0  0
  -26.0372  -26.3064   19.0729 C   0  0  2  0  0  0  0  0  0  0  0  0
  -28.1442  -18.1685   19.7143 C   0  0  1  0  0  0  0  0  0  0  0  0
  -20.3842  -28.8532   22.8020 C   0  0  1  0  0  0  0  0  0  0  0  0
  -28.0189  -18.9229   11.7084 C   0  0  0  0  0  0  0  0  0  0  0  0
  -30.5676  -20.6688   17.5673 C   0  0  0  0  0  0  0  0  0  0  0  0
  -30.5083  -20.9596   15.0813 C   0  0  0  0  0  0  0  0  0  0  0  0
  -31.1507  -18.7581   16.0628 C   0  0  0  0  0  0  0  0  0  0  0  0
  -18.1645  -29.1653   17.6484 C   0  0  0  0  0  0  0  0  0  0  0  0
  -24.8617  -17.8224   13.5242 C   0  0  0  0  0  0  0  0  0  0  0  0
  -26.4655  -24.8416   19.0463 C   0  0  0  0  0  0  0  0  0  1  0  0
  -28.7374  -19.5047   16.1668 C   0  0  1  0  0  0  0  0  0  0  0  0
  -27.2058  -18.3968   12.8810 C   0  0  2  0  0  0  0  0  0  0  0  0
  -30.2174  -19.9763   16.2351 C   0  0  0  0  0  0  0  0  0  0  0  0
  -22.2771  -30.4333   22.8150 N   0  0  0  0  0  0  0  0  0  0  0  0
  -21.8411  -29.1864   23.0622 N   0  0  0  0  0  0  0  0  0  0  0  0
  -24.1607  -27.8368   19.6069 N   0  0  3  0  0  0  0  0  0  0  0  0
  -28.5398  -19.0367   18.5923 N   0  0  0  0  0  0  0  0  0  0  0  0
  -18.4120  -29.3378   21.3661 N   0  0  0  0  0  0  0  0  0  0  0  0
  -20.7891  -30.9858   18.1564 N   0  0  0  0  0  0  0  0  0  0  0  0
  -22.5401  -27.0596   23.8358 N   0  0  0  0  0  0  0  0  0  0  0  0
  -26.3099  -29.5372   24.0508 N   0  0  0  0  0  0  0  0  0  0  0  0
  -28.8869  -15.9503   20.3283 N   0  0  0  0  0  0  0  0  0  0  0  0
  -28.3847  -18.8212   14.9271 N   0  0  0  0  0  0  0  0  0  0  0  0
  -18.7306  -29.1783   18.9955 N   0  0  0  0  0  0  0  0  0  0  0  0
  -25.7734  -18.3436   12.4734 N   0  3  0  0  0  0  0  0  0  0  0  0
  -28.1316  -26.8262   20.1609 O   0  0  0  0  0  0  0  0  0  0  0  0
  -25.4304  -27.4502   24.4106 O   0  0  0  0  0  0  0  0  0  0  0  0
  -30.4222  -17.5593   19.6381 O   0  0  0  0  0  0  0  0  0  0  0  0
  -27.9850  -17.4226   17.0119 O   0  0  0  0  0  0  0  0  0  0  0  0
  -26.6785  -20.2678   14.3158 O   0  0  0  0  0  0  0  0  0  0  0  0
  -16.6143  -29.3265   19.9059 O   0  0  0  0  0  0  0  0  0  0  0  0
  -26.8081  -34.9048   22.6479 O   0  0  0  0  0  0  0  0  0  0  0  0
  -26.4191  -24.3196   20.3736 O   0  0  0  0  0  0  0  0  0  1  0  0
  -30.3605  -35.0643   18.4337 F   0  0  0  0  0  0  0  0  0  0  0  0
  -26.6654  -36.9077   20.7476 F   0  0  0  0  0  0  0  0  0  0  0  0
  1  2  1  0  0  0  0
  1  5  2  0  0  0  0
  2  6  2  0  0  0  0
  3 10  2  0  0  0  0
  3 18  1  0  0  0  0
  4 11  1  0  0  0  0
  4 18  2  0  0  0  0
  5 20  1  0  0  0  0
  6 22  1  0  0  0  0
  7 12  2  0  0  0  0
  7 21  1  0  0  0  0
  8  9  2  0  0  0  0
  8 24  1  0  0  0  0
  9 25  1  0  0  0  0
 10 27  1  0  0  0  0
 11 27  2  0  0  0  0
 12 28  1  0  0  0  0
 13 14  2  0  0  0  0
 13 29  1  0  0  0  0
 14 30  1  0  0  0  0
 15 23  1  0  0  0  0
 15 28  2  0  0  0  0
 16 24  2  0  0  0  0
 16 26  1  0  0  0  0
 17 30  2  0  0  0  0
 17 31  1  0  0  0  0
 18 32  1  0  0  0  0
 19 32  1  0  0  0  0
 19 33  2  0  0  0  0
 19 35  1  0  0  0  0
 20 22  2  0  0  0  0
 20 40  1  0  0  0  0
 21 23  2  0  0  0  0
 21 41  1  0  0  0  0
 22 52  1  0  0  0  0
 23 42  1  0  0  0  0
 24 68  1  0  0  0  0
 25 26  2  0  0  0  0
 25 76  1  0  0  0  0
 26 71  1  0  0  0  0
 27 84  1  0  0  0  0
 28 85  1  0  0  0  0
 29 31  2  0  0  0  0
 29 84  1  0  0  0  0
 30 86  1  0  0  0  0
 31 87  1  0  0  0  0
 32 66  2  0  0  0  0
 33 67  1  0  0  0  0
 33 72  1  0  0  0  0
 34 43  1  0  0  0  0
 34 53  1  0  0  0  0
 34 78  2  0  0  0  0
 35 73  1  0  0  0  0
 35 79  2  0  0  0  0
 36 54  1  0  0  0  0
 36 74  1  0  0  0  0
 36 80  2  0  0  0  0
 37 63  1  0  0  0  0
 37 69  1  0  0  0  0
 37 81  2  0  0  0  0
 38 64  1  0  0  0  0
 38 75  1  0  0  0  0
 38 82  2  0  0  0  0
 39 70  1  0  0  0  0
 39 76  1  0  0  0  0
 39 83  2  0  0  0  0
 40 44  1  0  0  0  0
 41 54  1  0  0  0  0
 42 69  1  0  0  0  0
 43 48  1  0  0  0  0
 44 46  1  0  0  0  0
 45 47  1  0  0  0  0
 45 49  1  0  0  0  0
 46 52  1  0  0  0  0
 47 55  1  0  0  0  0
 48 68  1  0  0  0  0
 49 70  1  0  0  0  0
 50 53  1  0  0  0  0
 50 68  1  0  0  0  0
 51 55  1  0  0  0  0
 51 70  1  0  0  0  0
 52 74  1  0  0  0  0
 53 62  1  0  0  0  0
 54 69  1  0  0  0  0
 55 67  1  0  0  0  0
 56 64  1  0  0  0  0
 57 65  1  0  0  0  0
 58 65  1  0  0  0  0
 59 65  1  0  0  0  0
 60 76  1  0  0  0  0
 61 77  1  0  0  0  0
 62 85  1  0  0  0  0
 63 65  1  0  0  0  0
 63 75  1  0  0  0  0
 64 77  1  0  0  0  0
 66 67  1  0  0  0  0
M  CHG  1  77   1
M  ISO  4  39 100  62 101  76 100  85 101
M  END
> <Batch ID>
0102

> <Smiles>
CNC(C)C(=O)NC(C(=O)N1Cc2cc([101O:1][101CH2:1]C3CN(c4ccc([100N:0](C)[100C:0](=O)N5CCCC(n6nc(-c7ccc(Oc8ccc(F)cc8F)cc7)c(C(N)=O)c6N)C5)c(N)c4)CCC3=O)ccc2CC1C(=O)NC1CCCc2ccccc21)C(C)(C)C

> <Shape>
0.225

> <Color>
0.070

> <Negative vol penalty>
0.000

$$$$

  -OEChem-04052301023D

 85 93  0     1  0  0  0  0  0999 V2000
  -27.9092  -20.8169   22.7946 C   0  0  0  0  0  0  0  0  0  0  0  0
  -26.7322  -20.5369   22.1078 C   0  0  0  0  0  0  0  0  0  0  0  0
  -25.3074  -30.0330   23.1829 C   0  0  0  0  0  0  0  0  0  0  0  0
  -26.3982  -31.5219   21.6239 C   0  0  0  0  0  0  0  0  0  0  0  0
  -24.0667  -20.9049   17.0294 C   0  0  0  0  0  0  0  0  0  0  0  0
  -28.9938  -19.9458   22.7006 C   0  0  0  0  0  0  0  0  0  0  0  0
  -26.6396  -19.3862   21.3256 C   0  0  0  0  0  0  0  0  0  0  0  0
  -22.2743  -16.9140   22.0165 C   0  0  0  0  0  0  0  0  0  0  0  0
  -22.6785  -20.8644   16.8992 C   0  0  0  0  0  0  0  0  0  0  0  0
  -25.2624  -31.0568   24.1291 C   0  0  0  0  0  0  0  0  0  0  0  0
  -26.3532  -32.5457   22.5701 C   0  0  0  0  0  0  0  0  0  0  0  0
  -21.1442  -17.4277   21.3817 C   0  0  0  0  0  0  0  0  0  0  0  0
  -24.0726  -34.7381   23.7588 C   0  0  0  0  0  0  0  0  0  0  0  0
  -23.6662  -36.0004   23.3267 C   0  0  0  0  0  0  0  0  0  0  0  0
  -21.3778  -15.7742   19.6409 C   0  0  0  0  0  0  0  0  0  0  0  0
  -22.4488  -22.0899   18.9686 C   0  0  0  0  0  0  0  0  0  0  0  0
  -25.7925  -36.9199   24.0128 C   0  0  0  0  0  0  0  0  0  0  0  0
  -25.8754  -30.2655   21.9302 C   0  0  0  0  0  0  0  0  0  0  0  0
  -24.6459  -21.5377   18.1292 C   0  0  0  0  0  0  0  0  0  0  0  0
  -24.9499  -28.9043   19.9813 C   0  0  0  0  0  0  0  0  0  0  0  0
  -28.9111  -18.7789   21.9247 C   0  0  0  0  0  0  0  0  0  0  0  0
  -22.9721  -15.8316   21.4615 C   0  0  0  0  0  0  0  0  0  0  0  0
  -27.7245  -18.4994   21.2201 C   0  0  0  0  0  0  0  0  0  0  0  0
  -22.5149  -15.2469   20.2719 C   0  0  0  0  0  0  0  0  0  0  0  0
  -21.8696  -21.4570   17.8687 C   0  0  0  0  0  0  0  0  0  0  0  0
  -25.7853  -32.3131   23.8228 C   0  0  0  0  0  0  0  0  0  0  0  0
  -20.6975  -16.8597   20.1922 C   0  0  0  0  0  0  0  0  0  0  0  0
  -25.3390  -34.5665   24.3180 C   0  0  0  0  0  0  0  0  0  0  0  0
  -24.5261  -37.0913   23.4537 C   0  0  0  0  0  0  0  0  0  0  0  0
  -23.8369  -22.1302   19.0988 C   0  0  0  0  0  0  0  0  0  0  0  0
  -26.1989  -35.6574   24.4450 C   0  0  0  0  0  0  0  0  0  0  0  0
  -25.9227  -29.2082   20.9525 C   0  0  0  0  0  0  0  0  0  0  0  0
  -25.4637  -27.8235   19.3073 C   0  0  0  0  0  0  0  0  0  0  0  0
  -26.1248  -21.5778   18.2640 C   0  0  0  0  0  0  0  0  0  0  0  0
  -23.6942  -29.5420   19.7125 C   0  0  0  0  0  0  0  0  0  0  0  0
  -25.9207  -15.3918   20.3589 C   0  0  0  0  0  0  0  0  0  0  0  0
  -24.9537  -12.3044   20.1237 C   0  0  0  0  0  0  0  0  0  0  0  0
  -22.3728  -10.0914   19.8272 C   0  0  0  0  0  0  0  0  0  0  0  0
  -27.9955  -22.8963   19.2052 C   0  0  0  0  0  0  0  0  0  0  0  0
  -30.1260  -17.8919   21.8158 C   0  0  0  0  0  0  0  0  0  0  0  0
  -24.1736  -15.2721   22.1726 C   0  0  0  0  0  0  0  0  0  0  0  0
  -23.2166  -14.0706   19.6456 C   0  0  0  0  0  0  0  0  0  0  0  0
  -29.8178  -16.5017   21.2655 C   0  0  0  0  0  0  0  0  0  0  0  0
  -30.0792  -25.7420   19.4443 C   0  0  0  0  0  0  0  0  0  0  0  0
  -28.9230  -16.6013   20.0342 C   0  0  0  0  0  0  0  0  0  0  0  0
  -29.1045  -26.8768   19.7705 C   0  0  0  0  0  0  0  0  0  0  0  0
  -29.6908  -24.4412   20.1458 C   0  0  0  0  0  0  0  0  0  0  0  0
  -27.3342  -25.1422   20.2618 C   0  0  0  0  0  0  0  0  0  0  0  0
  -27.5769  -17.2485   20.3814 C   0  0  1  0  0  0  0  0  0  0  0  0
  -25.1067  -14.4955   21.2486 C   0  0  1  0  0  0  0  0  0  0  0  0
  -27.6421  -26.4550   19.5236 C   0  0  1  0  0  0  0  0  0  0  0  0
  -21.8970   -7.6361   19.6207 C   0  0  0  0  0  0  0  0  0  0  0  0
  -25.8347  -12.3819   17.2035 C   0  0  0  0  0  0  0  0  0  0  0  0
  -24.4957  -10.3020   16.8169 C   0  0  0  0  0  0  0  0  0  0  0  0
  -26.4133  -10.2702   18.4120 C   0  0  0  0  0  0  0  0  0  0  0  0
  -20.8100  -10.0646   22.3404 C   0  0  0  0  0  0  0  0  0  0  0  0
  -18.3073  -20.7858   18.6495 C   0  0  0  0  0  0  0  0  0  0  0  0
  -18.5948  -19.2894   18.5180 C   0  0  0  0  0  0  0  0  0  0  0  0
  -19.5764  -21.6125   18.8397 C   0  0  0  0  0  0  0  0  0  0  0  0
  -19.3288  -18.7512   19.7398 C   0  0  0  0  0  0  0  0  0  1  0  0
  -24.2845  -11.4720   19.0568 C   0  0  1  0  0  0  0  0  0  0  0  0
  -22.0541   -8.8095   20.5753 C   0  0  2  0  0  0  0  0  0  0  0  0
  -25.2447  -11.1299   17.8828 C   0  0  0  0  0  0  0  0  0  0  0  0
  -26.9747  -28.3867   20.9033 N   0  0  0  0  0  0  0  0  0  0  0  0
  -26.6659  -27.5559   19.8931 N   0  0  0  0  0  0  0  0  0  0  0  0
  -24.3904  -13.5634   20.3754 N   0  0  0  0  0  0  0  0  0  0  0  0
  -28.2957  -24.1068   19.8540 N   0  0  0  0  0  0  0  0  0  0  0  0
  -24.9997  -27.0853   18.2766 N   0  0  0  0  0  0  0  0  0  0  0  0
  -23.3201  -30.6395   20.4999 N   0  0  0  0  0  0  0  0  0  0  0  0
  -20.4903  -21.4171   17.7395 N   0  0  0  0  0  0  0  0  0  0  0  0
  -26.6386  -22.6890   18.9330 N   0  0  0  0  0  0  0  0  0  0  0  0
  -26.7128  -16.2943   21.0426 N   0  0  0  0  0  0  0  0  0  0  0  0
  -23.7319  -10.3052   19.7362 N   0  0  0  0  0  0  0  0  0  0  0  0
  -20.7878   -8.9608   21.3463 N   0  3  0  0  0  0  0  0  0  0  0  0
  -26.7905  -20.6421   17.8291 O   0  0  0  0  0  0  0  0  0  0  0  0
  -22.9193  -29.1401   18.8117 O   0  0  0  0  0  0  0  0  0  0  0  0
  -25.8374  -15.2725   19.1421 O   0  0  0  0  0  0  0  0  0  0  0  0
  -25.9356  -11.8512   20.7170 O   0  0  0  0  0  0  0  0  0  0  0  0
  -21.5031  -10.8274   19.3663 O   0  0  0  0  0  0  0  0  0  0  0  0
  -28.8637  -22.0872   18.8633 O   0  0  0  0  0  0  0  0  0  0  0  0
  -25.7413  -33.3124   24.7458 O   0  0  0  0  0  0  0  0  0  0  0  0
  -19.5952  -17.3596   19.5703 O   0  0  0  0  0  0  0  0  0  1  0  0
  -24.1362  -38.3033   23.0372 F   0  0  0  0  0  0  0  0  0  0  0  0
  -24.3832  -22.7389   20.1610 F   0  0  0  0  0  0  0  0  0  0  0  0
  -27.4171  -35.4986   24.9803 F   0  0  0  0  0  0  0  0  0  0  0  0
  1  2  1  0  0  0  0
  1  6  2  0  0  0  0
  2  7  2  0  0  0  0
  3 10  2  0  0  0  0
  3 18  1  0  0  0  0
  4 11  1  0  0  0  0
  4 18  2  0  0  0  0
  5  9  2  0  0  0  0
  5 19  1  0  0  0  0
  6 21  1  0  0  0  0
  7 23  1  0  0  0  0
  8 12  2  0  0  0  0
  8 22  1  0  0  0  0
  9 25  1  0  0  0  0
 10 26  1  0  0  0  0
 11 26  2  0  0  0  0
 12 27  1  0  0  0  0
 13 14  2  0  0  0  0
 13 28  1  0  0  0  0
 14 29  1  0  0  0  0
 15 24  1  0  0  0  0
 15 27  2  0  0  0  0
 16 25  2  0  0  0  0
 16 30  1  0  0  0  0
 17 29  2  0  0  0  0
 17 31  1  0  0  0  0
 18 32  1  0  0  0  0
 19 30  2  0  0  0  0
 19 34  1  0  0  0  0
 20 32  1  0  0  0  0
 20 33  2  0  0  0  0
 20 35  1  0  0  0  0
 21 23  2  0  0  0  0
 21 40  1  0  0  0  0
 22 24  2  0  0  0  0
 22 41  1  0  0  0  0
 23 49  1  0  0  0  0
 24 42  1  0  0  0  0
 25 70  1  0  0  0  0
 26 81  1  0  0  0  0
 27 82  1  0  0  0  0
 28 31  2  0  0  0  0
 28 81  1  0  0  0  0
 29 83  1  0  0  0  0
 30 84  1  0  0  0  0
 31 85  1  0  0  0  0
 32 64  2  0  0  0  0
 33 65  1  0  0  0  0
 33 68  1  0  0  0  0
 34 71  1  0  0  0  0
 34 75  2  0  0  0  0
 35 69  1  0  0  0  0
 35 76  2  0  0  0  0
 36 50  1  0  0  0  0
 36 72  1  0  0  0  0
 36 77  2  0  0  0  0
 37 61  1  0  0  0  0
 37 66  1  0  0  0  0
 37 78  2  0  0  0  0
 38 62  1  0  0  0  0
 38 73  1  0  0  0  0
 38 79  2  0  0  0  0
 39 67  1  0  0  0  0
 39 71  1  0  0  0  0
 39 80  2  0  0  0  0
 40 43  1  0  0  0  0
 41 50  1  0  0  0  0
 42 66  1  0  0  0  0
 43 45  1  0  0  0  0
 44 46  1  0  0  0  0
 44 47  1  0  0  0  0
 45 49  1  0  0  0  0
 46 51  1  0  0  0  0
 47 67  1  0  0  0  0
 48 51  1  0  0  0  0
 48 67  1  0  0  0  0
 49 72  1  0  0  0  0
 50 66  1  0  0  0  0
 51 65  1  0  0  0  0
 52 62  1  0  0  0  0
 53 63  1  0  0  0  0
 54 63  1  0  0  0  0
 55 63  1  0  0  0  0
 56 74  1  0  0  0  0
 57 58  1  0  0  0  0
 57 59  1  0  0  0  0
 58 60  1  0  0  0  0
 59 70  1  0  0  0  0
 60 82  1  0  0  0  0
 61 63  1  0  0  0  0
 61 73  1  0  0  0  0
 62 74  1  0  0  0  0
 64 65  1  0  0  0  0
M  CHG  1  74   1
M  ISO  4  39 100  60 101  71 100  82 101
M  END
> <Batch ID>
0102

> <Smiles>
CNC(C)C(=O)NC(C(=O)N1Cc2cc([101O:1][101CH2:1]CCCNc3ccc(C(=O)[100NH:0][100C:0](=O)N4CCCC(n5nc(-c6ccc(Oc7ccc(F)cc7F)cc6)c(C(N)=O)c5N)C4)c(F)c3)ccc2CC1C(=O)NC1CCCc2ccccc21)C(C)(C)C

> <Shape>
0.263

> <Color>
0.048

> <Negative vol penalty>
0.000

$$$$

  -OEChem-04052301023D

 88 97  0     1  0  0  0  0  0999 V2000
  -16.9728  -24.5120   25.3026 C   0  0  0  0  0  0  0  0  0  0  0  0
  -16.9171  -23.1241   25.2241 C   0  0  0  0  0  0  0  0  0  0  0  0
  -28.5450  -26.4940   18.8386 C   0  0  0  0  0  0  0  0  0  0  0  0
  -29.0881  -25.2028   20.8070 C   0  0  0  0  0  0  0  0  0  0  0  0
  -28.1050  -12.3456   18.5655 C   0  0  0  0  0  0  0  0  0  0  0  0
  -17.8433  -25.2214   24.4762 C   0  0  0  0  0  0  0  0  0  0  0  0
  -17.7311  -22.4449   24.3183 C   0  0  0  0  0  0  0  0  0  0  0  0
  -21.2992  -16.2806   23.5527 C   0  0  0  0  0  0  0  0  0  0  0  0
  -28.9492  -13.4541   18.5016 C   0  0  0  0  0  0  0  0  0  0  0  0
  -27.9632  -27.4744   19.6422 C   0  0  0  0  0  0  0  0  0  0  0  0
  -28.5063  -26.1833   21.6107 C   0  0  0  0  0  0  0  0  0  0  0  0
  -21.4385  -15.2208   22.6577 C   0  0  0  0  0  0  0  0  0  0  0  0
  -25.0512  -27.9344   21.2954 C   0  0  0  0  0  0  0  0  0  0  0  0
  -23.8150  -28.4455   20.9004 C   0  0  0  0  0  0  0  0  0  0  0  0
  -27.6761  -12.8064   20.8980 C   0  0  0  0  0  0  0  0  0  0  0  0
  -22.9609  -16.5453   21.3358 C   0  0  0  0  0  0  0  0  0  0  0  0
  -24.7756  -30.6577   20.7567 C   0  0  0  0  0  0  0  0  0  0  0  0
  -29.1074  -25.3581   19.4210 C   0  0  0  0  0  0  0  0  0  0  0  0
  -27.4684  -12.0217   19.7636 C   0  0  0  0  0  0  0  0  0  0  0  0
  -30.7921  -24.5023   17.7073 C   0  0  0  0  0  0  0  0  0  0  0  0
  -18.6753  -24.5499   23.5666 C   0  0  0  0  0  0  0  0  0  0  0  0
  -21.9823  -17.4866   23.3398 C   0  0  0  0  0  0  0  0  0  0  0  0
  -18.6125  -23.1461   23.4780 C   0  0  0  0  0  0  0  0  0  0  0  0
  -22.8305  -17.6180   22.2310 C   0  0  0  0  0  0  0  0  0  0  0  0
  -29.1569  -14.2388   19.6360 C   0  0  0  0  0  0  0  0  0  0  0  0
  -27.9439  -27.3191   21.0282 C   0  0  0  0  0  0  0  0  0  0  0  0
  -22.2672  -15.3540   21.5474 C   0  0  0  0  0  0  0  0  0  0  0  0
  -26.1496  -28.7849   21.4212 C   0  0  0  0  0  0  0  0  0  0  0  0
  -28.5204  -13.9149   20.8342 C   0  0  0  0  0  0  0  0  0  0  0  0
  -23.6771  -29.8071   20.6310 C   0  0  0  0  0  0  0  0  0  0  0  0
  -26.0118  -30.1465   21.1518 C   0  0  0  0  0  0  0  0  0  0  0  0
  -29.7080  -24.3446   18.5914 C   0  0  0  0  0  0  0  0  0  0  0  0
  -30.9762  -23.2544   17.1638 C   0  0  0  0  0  0  0  0  0  0  0  0
  -26.5784  -10.8519   19.8309 C   0  0  0  0  0  0  0  0  0  0  0  0
  -31.5638  -25.6721   17.4044 C   0  0  0  0  0  0  0  0  0  0  0  0
  -21.1082  -20.4997   22.8291 C   0  0  0  0  0  0  0  0  0  0  0  0
  -24.2965  -21.0532   23.0546 C   0  0  0  0  0  0  0  0  0  0  0  0
  -27.4740  -19.8363   22.7918 C   0  0  0  0  0  0  0  0  0  0  0  0
  -29.7261  -17.8548   19.1979 C   0  0  0  0  0  0  0  0  0  0  0  0
  -19.5658  -25.3629   22.6606 C   0  0  0  0  0  0  0  0  0  0  0  0
  -21.8421  -18.6109   24.3291 C   0  0  0  0  0  0  0  0  0  0  0  0
  -23.6016  -18.8848   21.9682 C   0  0  0  0  0  0  0  0  0  0  0  0
  -20.6655  -24.5425   21.9914 C   0  0  0  0  0  0  0  0  0  0  0  0
  -28.5824  -19.2583   16.0643 C   0  0  0  0  0  0  0  0  0  0  0  0
  -20.0935  -23.2497   21.4184 C   0  0  0  0  0  0  0  0  0  0  0  0
  -28.8502  -20.7486   16.2828 C   0  0  0  0  0  0  0  0  0  0  0  0
  -23.0458  -10.6015   20.8609 C   0  0  0  0  0  0  0  0  0  0  0  0
  -28.1029  -18.5887   17.3488 C   0  0  0  0  0  0  0  0  0  0  0  0
  -24.2971   -9.9797   20.2602 C   0  0  0  0  0  0  0  0  0  0  0  0
  -24.6088  -12.3583   20.4375 C   0  0  0  0  0  0  0  0  0  0  0  0
  -29.2873  -20.2492   18.7321 C   0  0  0  0  0  0  0  0  0  0  0  0
  -19.4976  -22.3718   22.5255 C   0  0  1  0  0  0  0  0  0  0  0  0
  -22.1845  -19.9744   23.7365 C   0  0  1  0  0  0  0  0  0  0  0  0
  -23.1140  -12.0501   20.3717 C   0  0  2  0  0  0  0  0  0  0  0  0
  -29.7966  -20.9788   17.4758 C   0  0  2  0  0  0  0  0  0  0  0  0
  -29.8749  -20.5363   22.9989 C   0  0  0  0  0  0  0  0  0  0  0  0
  -24.1159  -22.4627   20.3545 C   0  0  0  0  0  0  0  0  0  0  0  0
  -26.6072  -22.2899   20.1761 C   0  0  0  0  0  0  0  0  0  0  0  0
  -25.5795  -23.6036   22.0310 C   0  0  0  0  0  0  0  0  0  0  0  0
  -27.9691  -17.9056   24.9796 C   0  0  0  0  0  0  0  0  0  0  0  0
  -28.0224  -14.2684   23.1327 C   0  0  0  0  0  0  0  0  0  0  0  0
  -30.0636  -15.4218   19.5490 C   0  0  0  0  0  0  0  0  0  0  0  0
  -22.2669  -13.0017   21.1972 C   0  0  0  0  0  0  0  0  0  1  0  0
  -25.4486  -21.0792   22.0795 C   0  0  1  0  0  0  0  0  0  0  0  0
  -28.6730  -19.9424   23.7168 C   0  0  2  0  0  0  0  0  0  0  0  0
  -25.4219  -22.3355   21.1639 C   0  0  0  0  0  0  0  0  0  0  0  0
  -29.2364  -23.0952   18.6113 N   0  0  0  0  0  0  0  0  0  0  0  0
  -30.0279  -22.4563   17.7330 N   0  0  0  0  0  0  0  0  0  0  0  0
  -25.2549  -11.0724   20.1802 N   0  0  0  0  0  0  0  0  0  0  0  0
  -23.4264  -19.9578   22.9609 N   0  0  0  0  0  0  0  0  0  0  0  0
  -29.0573  -18.8304   18.4401 N   0  0  0  0  0  0  0  0  0  0  0  0
  -31.8551  -22.7729   16.2593 N   0  0  0  0  0  0  0  0  0  0  0  0
  -32.7058  -25.9365   18.1727 N   0  0  0  0  0  0  0  0  0  0  0  0
  -20.5484  -21.6906   23.2510 N   0  0  0  0  0  0  0  0  0  0  0  0
  -26.6624  -20.9476   22.8782 N   0  0  0  0  0  0  0  0  0  0  0  0
  -29.4476  -16.5355   18.8626 N   0  0  0  0  0  0  0  0  0  0  0  0
  -29.0511  -18.5958   24.2314 N   0  3  0  0  0  0  0  0  0  0  0  0
  -27.0654   -9.7555   19.5622 O   0  0  0  0  0  0  0  0  0  0  0  0
  -31.2408  -26.4683   16.4906 O   0  0  0  0  0  0  0  0  0  0  0  0
  -20.8089  -19.8719   21.8201 O   0  0  0  0  0  0  0  0  0  0  0  0
  -24.1771  -21.9674   23.8741 O   0  0  0  0  0  0  0  0  0  0  0  0
  -27.2791  -18.8663   22.0626 O   0  0  0  0  0  0  0  0  0  0  0  0
  -30.5176  -18.1386   20.1035 O   0  0  0  0  0  0  0  0  0  0  0  0
  -27.3765  -28.2758   21.8127 O   0  0  0  0  0  0  0  0  0  0  0  0
  -28.7121  -14.6712   21.9511 O   0  0  0  0  0  0  0  0  0  0  0  0
  -22.4046  -14.3214   20.6719 O   0  0  0  0  0  0  0  0  0  1  0  0
  -22.4903  -30.2976   20.2502 F   0  0  0  0  0  0  0  0  0  0  0  0
  -27.0637  -30.9683   21.2697 F   0  0  0  0  0  0  0  0  0  0  0  0
  1  2  1  0  0  0  0
  1  6  2  0  0  0  0
  2  7  2  0  0  0  0
  3 10  2  0  0  0  0
  3 18  1  0  0  0  0
  4 11  1  0  0  0  0
  4 18  2  0  0  0  0
  5  9  2  0  0  0  0
  5 19  1  0  0  0  0
  6 21  1  0  0  0  0
  7 23  1  0  0  0  0
  8 12  2  0  0  0  0
  8 22  1  0  0  0  0
  9 25  1  0  0  0  0
 10 26  1  0  0  0  0
 11 26  2  0  0  0  0
 12 27  1  0  0  0  0
 13 14  2  0  0  0  0
 13 28  1  0  0  0  0
 14 30  1  0  0  0  0
 15 19  2  0  0  0  0
 15 29  1  0  0  0  0
 16 24  1  0  0  0  0
 16 27  2  0  0  0  0
 17 30  2  0  0  0  0
 17 31  1  0  0  0  0
 18 32  1  0  0  0  0
 19 34  1  0  0  0  0
 20 32  1  0  0  0  0
 20 33  2  0  0  0  0
 20 35  1  0  0  0  0
 21 23  2  0  0  0  0
 21 40  1  0  0  0  0
 22 24  2  0  0  0  0
 22 41  1  0  0  0  0
 23 52  1  0  0  0  0
 24 42  1  0  0  0  0
 25 29  2  0  0  0  0
 25 62  1  0  0  0  0
 26 84  1  0  0  0  0
 27 86  1  0  0  0  0
 28 31  2  0  0  0  0
 28 84  1  0  0  0  0
 29 85  1  0  0  0  0
 30 87  1  0  0  0  0
 31 88  1  0  0  0  0
 32 67  2  0  0  0  0
 33 68  1  0  0  0  0
 33 72  1  0  0  0  0
 34 69  1  0  0  0  0
 34 78  2  0  0  0  0
 35 73  1  0  0  0  0
 35 79  2  0  0  0  0
 36 53  1  0  0  0  0
 36 74  1  0  0  0  0
 36 80  2  0  0  0  0
 37 64  1  0  0  0  0
 37 70  1  0  0  0  0
 37 81  2  0  0  0  0
 38 65  1  0  0  0  0
 38 75  1  0  0  0  0
 38 82  2  0  0  0  0
 39 71  1  0  0  0  0
 39 76  1  0  0  0  0
 39 83  2  0  0  0  0
 40 43  1  0  0  0  0
 41 53  1  0  0  0  0
 42 70  1  0  0  0  0
 43 45  1  0  0  0  0
 44 46  1  0  0  0  0
 44 48  1  0  0  0  0
 45 52  1  0  0  0  0
 46 55  1  0  0  0  0
 47 49  1  0  0  0  0
 47 54  1  0  0  0  0
 48 71  1  0  0  0  0
 49 69  1  0  0  0  0
 50 54  1  0  0  0  0
 50 69  1  0  0  0  0
 51 55  1  0  0  0  0
 51 71  1  0  0  0  0
 52 74  1  0  0  0  0
 53 70  1  0  0  0  0
 54 63  1  0  0  0  0
 55 68  1  0  0  0  0
 56 65  1  0  0  0  0
 57 66  1  0  0  0  0
 58 66  1  0  0  0  0
 59 66  1  0  0  0  0
 60 77  1  0  0  0  0
 61 85  1  0  0  0  0
 62 76  1  0  0  0  0
 63 86  1  0  0  0  0
 64 66  1  0  0  0  0
 64 75  1  0  0  0  0
 65 77  1  0  0  0  0
 67 68  1  0  0  0  0
M  CHG  1  77   1
M  ISO  4  39 100  63 101  76 100  86 101
M  END
> <Batch ID>
0102

> <Smiles>
CNC(C)C(=O)NC(C(=O)N1Cc2cc([101O:1][101CH2:1]C3CCN(C(=O)c4ccc(C[100NH:0][100C:0](=O)N5CCCC(n6nc(-c7ccc(Oc8ccc(F)cc8F)cc7)c(C(N)=O)c6N)C5)c(OC)c4)C3)ccc2CC1C(=O)NC1CCCc2ccccc21)C(C)(C)C

> <Shape>
0.215

> <Color>
0.069

> <Negative vol penalty>
0.000

$$$$

  -OEChem-04052301023D

 85 93  0     1  0  0  0  0  0999 V2000
  -27.1870  -37.8983   22.2456 C   0  0  0  0  0  0  0  0  0  0  0  0
  -27.7382  -36.9080   21.4388 C   0  0  0  0  0  0  0  0  0  0  0  0
  -23.0753  -10.0631   23.1488 C   0  0  0  0  0  0  0  0  0  0  0  0
  -23.9159  -10.0952   20.8840 C   0  0  0  0  0  0  0  0  0  0  0  0
  -26.4967  -37.5472   23.4049 C   0  0  0  0  0  0  0  0  0  0  0  0
  -27.6002  -35.5660   21.7915 C   0  0  0  0  0  0  0  0  0  0  0  0
  -26.9030  -29.0665   18.8611 C   0  0  0  0  0  0  0  0  0  0  0  0
  -28.6103  -22.9240   18.3361 C   0  0  0  0  0  0  0  0  0  0  0  0
  -29.0387  -21.6087   18.5145 C   0  0  0  0  0  0  0  0  0  0  0  0
  -22.3741   -8.8895   22.8719 C   0  0  0  0  0  0  0  0  0  0  0  0
  -23.2148   -8.9216   20.6071 C   0  0  0  0  0  0  0  0  0  0  0  0
  -27.4743  -27.7957   18.9108 C   0  0  0  0  0  0  0  0  0  0  0  0
  -23.0522   -5.5882   22.5988 C   0  0  0  0  0  0  0  0  0  0  0  0
  -23.1153   -4.5586   23.5376 C   0  0  0  0  0  0  0  0  0  0  0  0
  -26.1929  -27.3036   20.8944 C   0  0  0  0  0  0  0  0  0  0  0  0
  -30.4291  -22.3119   20.3609 C   0  0  0  0  0  0  0  0  0  0  0  0
  -20.7162   -4.6558   23.8056 C   0  0  0  0  0  0  0  0  0  0  0  0
  -23.8461  -10.6660   22.1548 C   0  0  0  0  0  0  0  0  0  0  0  0
  -25.8855  -11.9881   22.9297 C   0  0  0  0  0  0  0  0  0  0  0  0
  -26.3419  -36.1998   23.7670 C   0  0  0  0  0  0  0  0  0  0  0  0
  -25.9789  -29.4700   19.8357 C   0  0  0  0  0  0  0  0  0  0  0  0
  -26.9084  -35.1966   22.9575 C   0  0  0  0  0  0  0  0  0  0  0  0
  -25.6093  -28.5791   20.8535 C   0  0  0  0  0  0  0  0  0  0  0  0
  -29.0914  -23.9334   19.1701 C   0  0  0  0  0  0  0  0  0  0  0  0
  -30.0007  -23.6273   20.1824 C   0  0  0  0  0  0  0  0  0  0  0  0
  -29.9481  -21.3026   19.5269 C   0  0  0  0  0  0  0  0  0  0  0  0
  -22.4439   -8.3187   21.6011 C   0  0  0  0  0  0  0  0  0  0  0  0
  -27.1215  -26.9151   19.9291 C   0  0  0  0  0  0  0  0  0  0  0  0
  -21.8211   -6.1518   22.2634 C   0  0  0  0  0  0  0  0  0  0  0  0
  -21.9473   -4.0923   24.1410 C   0  0  0  0  0  0  0  0  0  0  0  0
  -20.6531   -5.6856   22.8668 C   0  0  0  0  0  0  0  0  0  0  0  0
  -24.5702  -11.8786   22.4401 C   0  0  0  0  0  0  0  0  0  0  0  0
  -26.1035  -13.3406   23.0289 C   0  0  0  0  0  0  0  0  0  0  0  0
  -26.8263  -10.9594   23.2648 C   0  0  0  0  0  0  0  0  0  0  0  0
  -25.8936  -31.7664   22.0318 C   0  0  0  0  0  0  0  0  0  0  0  0
  -25.7086  -18.4629   20.8164 C   0  0  0  0  0  0  0  0  0  0  0  0
  -22.8649  -30.6928   22.4750 C   0  0  0  0  0  0  0  0  0  0  0  0
  -29.4736  -18.9030   20.0089 C   0  0  0  0  0  0  0  0  0  0  0  0
  -20.6302  -28.1286   22.1963 C   0  0  0  0  0  0  0  0  0  0  0  0
  -25.6282  -35.8714   25.0544 C   0  0  0  0  0  0  0  0  0  0  0  0
  -25.3515  -30.8345   19.7528 C   0  0  0  0  0  0  0  0  0  0  0  0
  -24.6068  -28.9565   21.9122 C   0  0  0  0  0  0  0  0  0  0  0  0
  -25.2042  -34.4087   25.1598 C   0  0  0  0  0  0  0  0  0  0  0  0
  -22.9053  -17.2339   22.6795 C   0  0  0  0  0  0  0  0  0  0  0  0
  -26.3516  -33.4897   24.7526 C   0  0  0  0  0  0  0  0  0  0  0  0
  -23.1816  -15.7356   22.7972 C   0  0  0  0  0  0  0  0  0  0  0  0
  -23.3889  -17.7875   21.3428 C   0  0  0  0  0  0  0  0  0  0  0  0
  -25.1089  -16.0169   21.1750 C   0  0  0  0  0  0  0  0  0  0  0  0
  -26.7586  -33.7287   23.2936 C   0  0  1  0  0  0  0  0  0  0  0  0
  -24.8082  -31.3246   21.0914 C   0  0  1  0  0  0  0  0  0  0  0  0
  -24.6635  -15.4236   22.5233 C   0  0  2  0  0  0  0  0  0  0  0  0
  -30.5277  -24.6912   21.0886 C   0  0  0  0  0  0  0  0  0  0  0  0
  -32.0857  -19.3914   18.0363 C   0  0  0  0  0  0  0  0  0  0  0  0
  -18.2389  -27.5386   22.6771 C   0  0  0  0  0  0  0  0  0  0  0  0
  -23.5347  -30.4030   25.4376 C   0  0  0  0  0  0  0  0  0  0  0  0
  -21.5055  -28.9573   25.6835 C   0  0  0  0  0  0  0  0  0  0  0  0
  -21.2617  -31.3346   24.9682 C   0  0  0  0  0  0  0  0  0  0  0  0
  -20.0554  -27.6349   19.3354 C   0  0  0  0  0  0  0  0  0  0  0  0
  -28.6166  -25.3409   18.9583 C   0  0  0  0  0  0  0  0  0  1  0  0
  -27.1384  -18.0391   20.5927 C   0  0  0  0  0  0  0  0  0  0  0  0
  -28.0103  -19.2532   20.2837 C   0  0  0  0  0  0  0  0  0  0  0  0
  -31.8196  -19.6720   19.4762 C   0  0  0  0  0  0  0  0  0  0  0  0
  -22.2193  -29.6451   23.3493 C   0  0  1  0  0  0  0  0  0  0  0  0
  -19.2164  -28.0800   21.6455 C   0  0  2  0  0  0  0  0  0  0  0  0
  -22.1507  -30.0783   24.8410 C   0  0  0  0  0  0  0  0  0  0  0  0
  -23.9930  -13.0668   22.2422 N   0  0  0  0  0  0  0  0  0  0  0  0
  -24.9502  -13.9358   22.6094 N   0  0  0  0  0  0  0  0  0  0  0  0
  -24.0259  -30.3039   21.7918 N   0  0  0  0  0  0  0  0  0  0  0  0
  -24.7944  -17.4509   21.1097 N   0  0  0  0  0  0  0  0  0  0  0  0
  -27.1671  -14.0669   23.4333 N   0  0  0  0  0  0  0  0  0  0  0  0
  -26.4396   -9.6219   23.1030 N   0  0  0  0  0  0  0  0  0  0  0  0
  -25.8154  -33.0972   22.3958 N   0  0  0  0  0  0  0  0  0  0  0  0
  -20.9205  -29.3574   22.7503 N   0  0  0  0  0  0  0  0  0  0  0  0
  -30.3754  -19.9867   19.7069 N   0  0  0  0  0  0  0  0  0  0  0  0
  -19.1599  -27.2054   20.4402 N   0  3  0  0  0  0  0  0  0  0  0  0
  -27.9699  -11.2182   23.7104 O   0  0  0  0  0  0  0  0  0  0  0  0
  -26.7387  -30.9594   22.4009 O   0  0  0  0  0  0  0  0  0  0  0  0
  -25.4154  -19.6586   20.7353 O   0  0  0  0  0  0  0  0  0  0  0  0
  -22.3539  -31.8126   22.3953 O   0  0  0  0  0  0  0  0  0  0  0  0
  -29.8398  -17.7277   20.0856 O   0  0  0  0  0  0  0  0  0  0  0  0
  -21.3988  -27.1710   22.1439 O   0  0  0  0  0  0  0  0  0  0  0  0
  -21.7600   -7.1734   21.3306 O   0  0  0  0  0  0  0  0  0  0  0  0
  -27.6781  -25.6744   19.9803 O   0  0  0  0  0  0  0  0  0  1  0  0
  -22.0079   -3.1025   25.0413 F   0  0  0  0  0  0  0  0  0  0  0  0
  -19.4673   -6.2222   22.5477 F   0  0  0  0  0  0  0  0  0  0  0  0
  1  2  1  0  0  0  0
  1  5  2  0  0  0  0
  2  6  2  0  0  0  0
  3 10  2  0  0  0  0
  3 18  1  0  0  0  0
  4 11  1  0  0  0  0
  4 18  2  0  0  0  0
  5 20  1  0  0  0  0
  6 22  1  0  0  0  0
  7 12  2  0  0  0  0
  7 21  1  0  0  0  0
  8  9  2  0  0  0  0
  8 24  1  0  0  0  0
  9 26  1  0  0  0  0
 10 27  1  0  0  0  0
 11 27  2  0  0  0  0
 12 28  1  0  0  0  0
 13 14  2  0  0  0  0
 13 29  1  0  0  0  0
 14 30  1  0  0  0  0
 15 23  1  0  0  0  0
 15 28  2  0  0  0  0
 16 25  1  0  0  0  0
 16 26  2  0  0  0  0
 17 30  2  0  0  0  0
 17 31  1  0  0  0  0
 18 32  1  0  0  0  0
 19 32  1  0  0  0  0
 19 33  2  0  0  0  0
 19 34  1  0  0  0  0
 20 22  2  0  0  0  0
 20 40  1  0  0  0  0
 21 23  2  0  0  0  0
 21 41  1  0  0  0  0
 22 49  1  0  0  0  0
 23 42  1  0  0  0  0
 24 25  2  0  0  0  0
 24 59  1  0  0  0  0
 25 52  1  0  0  0  0
 26 74  1  0  0  0  0
 27 82  1  0  0  0  0
 28 83  1  0  0  0  0
 29 31  2  0  0  0  0
 29 82  1  0  0  0  0
 30 84  1  0  0  0  0
 31 85  1  0  0  0  0
 32 66  2  0  0  0  0
 33 67  1  0  0  0  0
 33 70  1  0  0  0  0
 34 71  1  0  0  0  0
 34 76  2  0  0  0  0
 35 50  1  0  0  0  0
 35 72  1  0  0  0  0
 35 77  2  0  0  0  0
 36 60  1  0  0  0  0
 36 69  1  0  0  0  0
 36 78  2  0  0  0  0
 37 63  1  0  0  0  0
 37 68  1  0  0  0  0
 37 79  2  0  0  0  0
 38 61  1  0  0  0  0
 38 74  1  0  0  0  0
 38 80  2  0  0  0  0
 39 64  1  0  0  0  0
 39 73  1  0  0  0  0
 39 81  2  0  0  0  0
 40 43  1  0  0  0  0
 41 50  1  0  0  0  0
 42 68  1  0  0  0  0
 43 45  1  0  0  0  0
 44 46  1  0  0  0  0
 44 47  1  0  0  0  0
 45 49  1  0  0  0  0
 46 51  1  0  0  0  0
 47 69  1  0  0  0  0
 48 51  1  0  0  0  0
 48 69  1  0  0  0  0
 49 72  1  0  0  0  0
 50 68  1  0  0  0  0
 51 67  1  0  0  0  0
 53 62  1  0  0  0  0
 54 64  1  0  0  0  0
 55 65  1  0  0  0  0
 56 65  1  0  0  0  0
 57 65  1  0  0  0  0
 58 75  1  0  0  0  0
 59 83  1  0  0  0  0
 60 61  1  0  0  0  0
 62 74  1  0  0  0  0
 63 65  1  0  0  0  0
 63 73  1  0  0  0  0
 64 75  1  0  0  0  0
 66 67  1  0  0  0  0
M  CHG  1  75   1
M  ISO  4  36 100  59 101  60 100  83 101
M  END
> <Batch ID>
0102

> <Smiles>
CCN(C(=O)C[100CH2:0][100C:0](=O)N1CCCC(n2nc(-c3ccc(Oc4ccc(F)cc4F)cc3)c(C(N)=O)c2N)C1)c1ccc([101CH2:1][101O:1]c2ccc3c(c2)CN(C(=O)C(NC(=O)C(C)NC)C(C)(C)C)C(C(=O)NC2CCCc4ccccc42)C3)c(C)c1

> <Shape>
0.304

> <Color>
0.115

> <Negative vol penalty>
0.000

$$$$

  -OEChem-04052301023D

 83 91  0     1  0  0  0  0  0999 V2000
  -26.6130  -20.2538   25.9187 C   0  0  0  0  0  0  0  0  0  0  0  0
  -27.2872  -21.1103   25.0544 C   0  0  0  0  0  0  0  0  0  0  0  0
  -25.4123  -14.0033   21.5884 C   0  0  0  0  0  0  0  0  0  0  0  0
  -26.0054  -14.1583   19.2515 C   0  0  0  0  0  0  0  0  0  0  0  0
  -25.2324  -20.3687   26.0758 C   0  0  0  0  0  0  0  0  0  0  0  0
  -26.5810  -22.0817   24.3457 C   0  0  0  0  0  0  0  0  0  0  0  0
  -28.8811  -26.5928   24.4143 C   0  0  0  0  0  0  0  0  0  0  0  0
  -27.9774  -24.4352   17.3049 C   0  0  0  0  0  0  0  0  0  0  0  0
  -25.3145  -12.6168   21.4717 C   0  0  0  0  0  0  0  0  0  0  0  0
  -25.9077  -12.7718   19.1348 C   0  0  0  0  0  0  0  0  0  0  0  0
  -29.9667  -26.7670   23.5571 C   0  0  0  0  0  0  0  0  0  0  0  0
  -29.2959  -24.6493   17.7066 C   0  0  0  0  0  0  0  0  0  0  0  0
  -24.5578   -9.0674   21.7008 C   0  0  0  0  0  0  0  0  0  0  0  0
  -23.4548   -8.4422   22.2824 C   0  0  0  0  0  0  0  0  0  0  0  0
  -28.5410  -27.9312   21.9979 C   0  0  0  0  0  0  0  0  0  0  0  0
  -27.3255  -24.1240   19.6104 C   0  0  0  0  0  0  0  0  0  0  0  0
  -21.9785   -9.7399   20.8776 C   0  0  0  0  0  0  0  0  0  0  0  0
  -25.7577  -14.7741   20.4783 C   0  0  0  0  0  0  0  0  0  0  0  0
  -27.0025  -16.9528   20.9378 C   0  0  0  0  0  0  0  0  0  0  0  0
  -24.5103  -21.3482   25.3760 C   0  0  0  0  0  0  0  0  0  0  0  0
  -27.6127  -27.0777   24.0641 C   0  0  0  0  0  0  0  0  0  0  0  0
  -25.1893  -22.2089   24.4926 C   0  0  0  0  0  0  0  0  0  0  0  0
  -27.4415  -27.7641   22.8535 C   0  0  0  0  0  0  0  0  0  0  0  0
  -26.9922  -24.1726   18.2568 C   0  0  0  0  0  0  0  0  0  0  0  0
  -25.5623  -12.0010   20.2449 C   0  0  0  0  0  0  0  0  0  0  0  0
  -29.7962  -27.4338   22.3474 C   0  0  0  0  0  0  0  0  0  0  0  0
  -29.6292  -24.6007   19.0602 C   0  0  0  0  0  0  0  0  0  0  0  0
  -24.3711  -10.0289   20.7076 C   0  0  0  0  0  0  0  0  0  0  0  0
  -28.6440  -24.3380   20.0121 C   0  0  0  0  0  0  0  0  0  0  0  0
  -22.1652   -8.7785   21.8708 C   0  0  0  0  0  0  0  0  0  0  0  0
  -23.0815  -10.3651   20.2960 C   0  0  0  0  0  0  0  0  0  0  0  0
  -25.8583  -16.2064   20.5981 C   0  0  0  0  0  0  0  0  0  0  0  0
  -26.5792  -18.2593   20.9162 C   0  0  0  0  0  0  0  0  0  0  0  0
  -28.3295  -16.5052   21.2454 C   0  0  0  0  0  0  0  0  0  0  0  0
  -24.7729  -25.7525   23.5322 C   0  0  0  0  0  0  0  0  0  0  0  0
  -23.8032  -28.8416   23.3335 C   0  0  0  0  0  0  0  0  0  0  0  0
  -24.6172  -32.1007   22.7313 C   0  0  0  0  0  0  0  0  0  0  0  0
  -23.7467  -22.4179   18.5021 C   0  0  0  0  0  0  0  0  0  0  0  0
  -23.0123  -21.4033   25.5426 C   0  0  0  0  0  0  0  0  0  0  0  0
  -26.4576  -26.9050   25.0119 C   0  0  0  0  0  0  0  0  0  0  0  0
  -26.1047  -28.3216   22.4402 C   0  0  0  0  0  0  0  0  0  0  0  0
  -22.3909  -22.7035   25.0393 C   0  0  0  0  0  0  0  0  0  0  0  0
  -21.9204  -20.2059   20.6112 C   0  0  0  0  0  0  0  0  0  0  0  0
  -22.9465  -23.0639   23.6651 C   0  0  0  0  0  0  0  0  0  0  0  0
  -22.8738  -19.0277   20.8185 C   0  0  0  0  0  0  0  0  0  0  0  0
  -22.0271  -20.7765   19.1988 C   0  0  0  0  0  0  0  0  0  0  0  0
  -24.3459  -19.9684   18.9891 C   0  0  0  0  0  0  0  0  0  0  0  0
  -24.4618  -23.2915   23.7251 C   0  0  1  0  0  0  0  0  0  0  0  0
  -25.1001  -26.9889   24.3209 C   0  0  1  0  0  0  0  0  0  0  0  0
  -24.3148  -19.3949   20.4161 C   0  0  2  0  0  0  0  0  0  0  0  0
  -23.6044  -34.3933   22.6059 C   0  0  0  0  0  0  0  0  0  0  0  0
  -22.5951  -28.1567   20.6166 C   0  0  0  0  0  0  0  0  0  0  0  0
  -22.4582  -30.6102   20.1369 C   0  0  0  0  0  0  0  0  0  0  0  0
  -21.1765  -29.6407   22.0449 C   0  0  0  0  0  0  0  0  0  0  0  0
  -26.3322  -33.1048   24.9243 C   0  0  0  0  0  0  0  0  0  0  0  0
  -25.5820  -23.9463   17.8276 C   0  0  0  0  0  0  0  0  0  0  0  0
  -32.5099  -26.4802   20.1612 C   0  0  0  0  0  0  0  0  0  0  0  0
  -31.8728  -26.6059   21.5362 C   0  0  0  0  0  0  0  0  0  1  0  0
  -31.4997  -26.0687   19.1017 C   0  0  0  0  0  0  0  0  0  0  0  0
  -23.6893  -29.8570   22.2222 C   0  0  1  0  0  0  0  0  0  0  0  0
  -24.3025  -33.3750   23.4939 C   0  0  2  0  0  0  0  0  0  0  0  0
  -22.5047  -29.5541   21.2618 C   0  0  0  0  0  0  0  0  0  0  0  0
  -24.7883  -16.9748   20.3770 N   0  0  0  0  0  0  0  0  0  0  0  0
  -25.2585  -18.2176   20.5783 N   0  0  0  0  0  0  0  0  0  0  0  0
  -25.0046  -28.1218   23.3980 N   0  0  0  0  0  0  0  0  0  0  0  0
  -23.4186  -21.1055   18.8802 N   0  0  0  0  0  0  0  0  0  0  0  0
  -27.2116  -19.4281   21.1535 N   0  0  0  0  0  0  0  0  0  0  0  0
  -28.5926  -15.1288   21.2217 N   0  0  0  0  0  0  0  0  0  0  0  0
  -24.7556  -24.5935   24.2844 N   0  0  0  0  0  0  0  0  0  0  0  0
  -23.6157  -31.1629   22.8684 N   0  0  0  0  0  0  0  0  0  0  0  0
  -25.0887  -22.6460   18.2235 N   0  0  0  0  0  0  0  0  0  0  0  0
  -25.5559  -33.9886   24.0170 N   0  3  0  0  0  0  0  0  0  0  0  0
  -29.2503  -17.3012   21.5488 O   0  0  0  0  0  0  0  0  0  0  0  0
  -24.5510  -25.8436   22.3305 O   0  0  0  0  0  0  0  0  0  0  0  0
  -22.8637  -28.6977   24.1198 O   0  0  0  0  0  0  0  0  0  0  0  0
  -25.6466  -31.9535   22.0762 O   0  0  0  0  0  0  0  0  0  0  0  0
  -22.9067  -23.3209   18.4241 O   0  0  0  0  0  0  0  0  0  0  0  0
  -28.9575  -24.2872   21.3369 O   0  0  0  0  0  0  0  0  0  0  0  0
  -25.4672  -10.6481   20.1307 O   0  0  0  0  0  0  0  0  0  0  0  0
  -30.8541  -27.6047   21.5086 O   0  0  0  0  0  0  0  0  0  1  0  0
  -30.9284  -24.8126   19.4419 O   0  0  0  0  0  0  0  0  0  0  0  0
  -21.1062   -8.1769   22.4283 F   0  0  0  0  0  0  0  0  0  0  0  0
  -22.8959  -11.2872   19.3415 F   0  0  0  0  0  0  0  0  0  0  0  0
  1  2  1  0  0  0  0
  1  5  2  0  0  0  0
  2  6  2  0  0  0  0
  3  9  2  0  0  0  0
  3 18  1  0  0  0  0
  4 10  1  0  0  0  0
  4 18  2  0  0  0  0
  5 20  1  0  0  0  0
  6 22  1  0  0  0  0
  7 11  2  0  0  0  0
  7 21  1  0  0  0  0
  8 12  2  0  0  0  0
  8 24  1  0  0  0  0
  9 25  1  0  0  0  0
 10 25  2  0  0  0  0
 11 26  1  0  0  0  0
 12 27  1  0  0  0  0
 13 14  2  0  0  0  0
 13 28  1  0  0  0  0
 14 30  1  0  0  0  0
 15 23  1  0  0  0  0
 15 26  2  0  0  0  0
 16 24  2  0  0  0  0
 16 29  1  0  0  0  0
 17 30  2  0  0  0  0
 17 31  1  0  0  0  0
 18 32  1  0  0  0  0
 19 32  1  0  0  0  0
 19 33  2  0  0  0  0
 19 34  1  0  0  0  0
 20 22  2  0  0  0  0
 20 39  1  0  0  0  0
 21 23  2  0  0  0  0
 21 40  1  0  0  0  0
 22 48  1  0  0  0  0
 23 41  1  0  0  0  0
 24 56  1  0  0  0  0
 25 79  1  0  0  0  0
 26 80  1  0  0  0  0
 27 29  2  0  0  0  0
 27 81  1  0  0  0  0
 28 31  2  0  0  0  0
 28 79  1  0  0  0  0
 29 78  1  0  0  0  0
 30 82  1  0  0  0  0
 31 83  1  0  0  0  0
 32 63  2  0  0  0  0
 33 64  1  0  0  0  0
 33 67  1  0  0  0  0
 34 68  1  0  0  0  0
 34 73  2  0  0  0  0
 35 49  1  0  0  0  0
 35 69  1  0  0  0  0
 35 74  2  0  0  0  0
 36 60  1  0  0  0  0
 36 65  1  0  0  0  0
 36 75  2  0  0  0  0
 37 61  1  0  0  0  0
 37 70  1  0  0  0  0
 37 76  2  0  0  0  0
 38 66  1  0  0  0  0
 38 71  1  0  0  0  0
 38 77  2  0  0  0  0
 39 42  1  0  0  0  0
 40 49  1  0  0  0  0
 41 65  1  0  0  0  0
 42 44  1  0  0  0  0
 43 45  1  0  0  0  0
 43 46  1  0  0  0  0
 44 48  1  0  0  0  0
 45 50  1  0  0  0  0
 46 66  1  0  0  0  0
 47 50  1  0  0  0  0
 47 66  1  0  0  0  0
 48 69  1  0  0  0  0
 49 65  1  0  0  0  0
 50 64  1  0  0  0  0
 51 61  1  0  0  0  0
 52 62  1  0  0  0  0
 53 62  1  0  0  0  0
 54 62  1  0  0  0  0
 55 72  1  0  0  0  0
 56 71  1  0  0  0  0
 57 58  1  0  0  0  0
 57 59  1  0  0  0  0
 58 80  1  0  0  0  0
 59 81  1  0  0  0  0
 60 62  1  0  0  0  0
 60 70  1  0  0  0  0
 61 72  1  0  0  0  0
 63 64  1  0  0  0  0
M  CHG  1  72   1
M  ISO  4  38 100  58 101  71 100  80 101
M  END
> <Batch ID>
0102

> <Smiles>
CNC(C)C(=O)NC(C(=O)N1Cc2cc([101O:1][101CH2:1]CCOc3ccc(C[100NH:0][100C:0](=O)N4CCCC(n5nc(-c6ccc(Oc7ccc(F)cc7F)cc6)c(C(N)=O)c5N)C4)cc3O)ccc2CC1C(=O)NC1CCCc2ccccc21)C(C)(C)C

> <Shape>
0.200

> <Color>
0.070

> <Negative vol penalty>
0.000

$$$$

  -OEChem-04052301023D

 87 95  0     1  0  0  0  0  0999 V2000
  -19.1086  -24.0982   24.1502 C   0  0  0  0  0  0  0  0  0  0  0  0
  -20.4815  -24.2063   24.3475 C   0  0  0  0  0  0  0  0  0  0  0  0
  -27.1225  -17.3086   20.1119 C   0  0  0  0  0  0  0  0  0  0  0  0
  -29.3433  -16.5901   19.4883 C   0  0  0  0  0  0  0  0  0  0  0  0
  -18.4295  -25.0806   23.4307 C   0  0  0  0  0  0  0  0  0  0  0  0
  -21.1762  -25.2964   23.8244 C   0  0  0  0  0  0  0  0  0  0  0  0
  -24.4438  -27.2899   27.1401 C   0  0  0  0  0  0  0  0  0  0  0  0
  -28.4339  -25.0897   20.8748 C   0  0  0  0  0  0  0  0  0  0  0  0
  -28.7715  -24.7921   22.1950 C   0  0  0  0  0  0  0  0  0  0  0  0
  -26.6289  -16.0374   19.8188 C   0  0  0  0  0  0  0  0  0  0  0  0
  -28.8497  -15.3188   19.1953 C   0  0  0  0  0  0  0  0  0  0  0  0
  -25.6515  -26.6186   27.3260 C   0  0  0  0  0  0  0  0  0  0  0  0
  -24.8471  -12.8778   19.5786 C   0  0  0  0  0  0  0  0  0  0  0  0
  -23.9646  -12.2987   20.4904 C   0  0  0  0  0  0  0  0  0  0  0  0
  -26.7455  -28.1942   25.8633 C   0  0  0  0  0  0  0  0  0  0  0  0
  -26.2064  -24.2331   21.2513 C   0  0  0  0  0  0  0  0  0  0  0  0
  -25.6608  -12.4165   22.2069 C   0  0  0  0  0  0  0  0  0  0  0  0
  -28.4797  -17.5850   19.9466 C   0  0  0  0  0  0  0  0  0  0  0  0
  -29.4851  -19.3542   21.4851 C   0  0  0  0  0  0  0  0  0  0  0  0
  -19.1146  -26.1882   22.9069 C   0  0  0  0  0  0  0  0  0  0  0  0
  -24.3755  -28.4139   26.3043 C   0  0  0  0  0  0  0  0  0  0  0  0
  -20.5058  -26.2938   23.0962 C   0  0  0  0  0  0  0  0  0  0  0  0
  -25.5363  -28.8795   25.6704 C   0  0  0  0  0  0  0  0  0  0  0  0
  -27.1513  -24.8102   20.4029 C   0  0  0  0  0  0  0  0  0  0  0  0
  -27.8266  -24.2150   23.0434 C   0  0  0  0  0  0  0  0  0  0  0  0
  -27.4925  -15.0425   19.3605 C   0  0  0  0  0  0  0  0  0  0  0  0
  -26.8020  -27.0690   26.6853 C   0  0  0  0  0  0  0  0  0  0  0  0
  -26.1365  -13.2262   19.9809 C   0  0  0  0  0  0  0  0  0  0  0  0
  -26.5441  -23.9354   22.5716 C   0  0  0  0  0  0  0  0  0  0  0  0
  -24.3714  -12.0681   21.8045 C   0  0  0  0  0  0  0  0  0  0  0  0
  -26.5433  -12.9956   21.2950 C   0  0  0  0  0  0  0  0  0  0  0  0
  -28.9901  -18.8981   20.2486 C   0  0  0  0  0  0  0  0  0  0  0  0
  -29.8427  -20.6595   21.2514 C   0  0  0  0  0  0  0  0  0  0  0  0
  -29.6104  -18.6598   22.7332 C   0  0  0  0  0  0  0  0  0  0  0  0
  -22.8175  -29.1270   23.6271 C   0  0  0  0  0  0  0  0  0  0  0  0
  -24.0898  -32.0680   24.1310 C   0  0  0  0  0  0  0  0  0  0  0  0
  -26.5482  -33.9551   25.5600 C   0  0  0  0  0  0  0  0  0  0  0  0
  -27.7325  -25.1137   17.9819 C   0  0  0  0  0  0  0  0  0  0  0  0
  -18.3453  -27.2004   22.0956 C   0  0  0  0  0  0  0  0  0  0  0  0
  -23.0707  -29.1427   26.1354 C   0  0  0  0  0  0  0  0  0  0  0  0
  -25.5204  -30.0934   24.7790 C   0  0  0  0  0  0  0  0  0  0  0  0
  -19.0935  -28.5158   21.8950 C   0  0  0  0  0  0  0  0  0  0  0  0
  -30.9055  -23.3534   17.2563 C   0  0  0  0  0  0  0  0  0  0  0  0
  -20.5370  -28.2508   21.4791 C   0  0  0  0  0  0  0  0  0  0  0  0
  -30.7384  -22.0312   18.0028 C   0  0  0  0  0  0  0  0  0  0  0  0
  -29.5630  -23.9279   16.8143 C   0  0  0  0  0  0  0  0  0  0  0  0
  -28.4202  -22.7693   18.6833 C   0  0  0  0  0  0  0  0  0  0  0  0
  -21.2904  -27.4740   22.5656 C   0  0  1  0  0  0  0  0  0  0  0  0
  -23.0101  -29.9706   24.8554 C   0  0  1  0  0  0  0  0  0  0  0  0
  -29.7555  -22.1903   19.1745 C   0  0  1  0  0  0  0  0  0  0  0  0
  -24.1072  -19.9635   23.8717 C   0  0  0  0  0  0  0  0  0  0  0  0
  -25.4761  -27.1958   19.1102 C   0  0  0  0  0  0  0  0  0  0  0  0
  -27.3441  -36.3263   25.7639 C   0  0  0  0  0  0  0  0  0  0  0  0
  -25.1980  -31.9378   21.2911 C   0  0  0  0  0  0  0  0  0  0  0  0
  -26.7304  -33.8290   21.8770 C   0  0  0  0  0  0  0  0  0  0  0  0
  -24.2591  -34.1620   21.9436 C   0  0  0  0  0  0  0  0  0  0  0  0
  -26.2151  -33.9364   28.5006 C   0  0  0  0  0  0  0  0  0  0  0  0
  -24.6696  -21.3292   24.2228 C   0  0  0  0  0  0  0  0  0  0  0  0
  -29.1606  -24.3491   26.5464 C   0  0  0  0  0  0  0  0  0  0  0  0
  -25.4913  -25.7157   18.7858 C   0  0  0  0  0  0  0  0  0  0  0  0
  -29.2902  -24.5325   25.0391 C   0  0  0  0  0  0  0  0  0  0  0  0
  -25.0769  -22.1094   22.9823 C   0  0  0  0  0  0  0  0  0  0  0  0
  -27.9151  -25.0132   27.1217 C   0  0  0  0  0  0  0  0  0  1  0  0
  -25.3698  -32.7618   23.7319 C   0  0  1  0  0  0  0  0  0  0  0  0
  -26.4901  -35.2301   26.3819 C   0  0  2  0  0  0  0  0  0  0  0  0
  -25.3896  -33.1486   22.2261 C   0  0  0  0  0  0  0  0  0  0  0  0
  -29.0282  -19.8375   19.2999 N   0  0  0  0  0  0  0  0  0  0  0  0
  -29.5513  -20.8969   19.9404 N   0  0  0  0  0  0  0  0  0  0  0  0
  -24.2192  -30.7682   24.6404 N   0  0  0  0  0  0  0  0  0  0  0  0
  -28.6177  -24.0174   17.9283 N   0  0  0  0  0  0  0  0  0  0  0  0
  -30.3748  -21.6160   22.0416 N   0  0  0  0  0  0  0  0  0  0  0  0
  -29.1954  -17.3227   22.7986 N   0  0  0  0  0  0  0  0  0  0  0  0
  -28.1758  -23.9245   24.3530 N   0  0  0  0  0  0  0  0  0  0  0  0
  -21.6700  -28.3575   23.6473 N   0  0  0  0  0  0  0  0  0  0  0  0
  -25.5219  -33.8925   24.6413 N   0  0  0  0  0  0  0  0  0  0  0  0
  -26.8017  -25.1206   19.0383 N   0  0  0  0  0  0  0  0  0  0  0  0
  -26.9801  -34.9768   27.7663 N   0  3  0  0  0  0  0  0  0  0  0  0
  -30.0614  -19.2138   23.7644 O   0  0  0  0  0  0  0  0  0  0  0  0
  -23.6478  -29.1720   22.7269 O   0  0  0  0  0  0  0  0  0  0  0  0
  -23.0154  -32.6603   24.0025 O   0  0  0  0  0  0  0  0  0  0  0  0
  -27.4192  -33.1020   25.7147 O   0  0  0  0  0  0  0  0  0  0  0  0
  -27.7331  -25.9982   17.1169 O   0  0  0  0  0  0  0  0  0  0  0  0
  -27.0112  -13.8018   19.0747 O   0  0  0  0  0  0  0  0  0  0  0  0
  -27.9820  -26.4152   26.8645 O   0  0  0  0  0  0  0  0  0  1  0  0
  -25.6073  -23.3705   23.3844 O   0  0  0  0  0  0  0  0  0  0  0  0
  -23.5233  -11.5134   22.6805 F   0  0  0  0  0  0  0  0  0  0  0  0
  -27.7804  -13.3293   21.6877 F   0  0  0  0  0  0  0  0  0  0  0  0
  1  2  1  0  0  0  0
  1  5  2  0  0  0  0
  2  6  2  0  0  0  0
  3 10  2  0  0  0  0
  3 18  1  0  0  0  0
  4 11  1  0  0  0  0
  4 18  2  0  0  0  0
  5 20  1  0  0  0  0
  6 22  1  0  0  0  0
  7 12  2  0  0  0  0
  7 21  1  0  0  0  0
  8  9  2  0  0  0  0
  8 24  1  0  0  0  0
  9 25  1  0  0  0  0
 10 26  1  0  0  0  0
 11 26  2  0  0  0  0
 12 27  1  0  0  0  0
 13 14  2  0  0  0  0
 13 28  1  0  0  0  0
 14 30  1  0  0  0  0
 15 23  1  0  0  0  0
 15 27  2  0  0  0  0
 16 24  2  0  0  0  0
 16 29  1  0  0  0  0
 17 30  2  0  0  0  0
 17 31  1  0  0  0  0
 18 32  1  0  0  0  0
 19 32  1  0  0  0  0
 19 33  2  0  0  0  0
 19 34  1  0  0  0  0
 20 22  2  0  0  0  0
 20 39  1  0  0  0  0
 21 23  2  0  0  0  0
 21 40  1  0  0  0  0
 22 48  1  0  0  0  0
 23 41  1  0  0  0  0
 24 76  1  0  0  0  0
 25 29  2  0  0  0  0
 25 73  1  0  0  0  0
 26 83  1  0  0  0  0
 27 84  1  0  0  0  0
 28 31  2  0  0  0  0
 28 83  1  0  0  0  0
 29 85  1  0  0  0  0
 30 86  1  0  0  0  0
 31 87  1  0  0  0  0
 32 67  2  0  0  0  0
 33 68  1  0  0  0  0
 33 71  1  0  0  0  0
 34 72  1  0  0  0  0
 34 78  2  0  0  0  0
 35 49  1  0  0  0  0
 35 74  1  0  0  0  0
 35 79  2  0  0  0  0
 36 64  1  0  0  0  0
 36 69  1  0  0  0  0
 36 80  2  0  0  0  0
 37 65  1  0  0  0  0
 37 75  1  0  0  0  0
 37 81  2  0  0  0  0
 38 70  1  0  0  0  0
 38 76  1  0  0  0  0
 38 82  2  0  0  0  0
 39 42  1  0  0  0  0
 40 49  1  0  0  0  0
 41 69  1  0  0  0  0
 42 44  1  0  0  0  0
 43 45  1  0  0  0  0
 43 46  1  0  0  0  0
 44 48  1  0  0  0  0
 45 50  1  0  0  0  0
 46 70  1  0  0  0  0
 47 50  1  0  0  0  0
 47 70  1  0  0  0  0
 48 74  1  0  0  0  0
 49 69  1  0  0  0  0
 50 68  1  0  0  0  0
 51 58  1  0  0  0  0
 52 60  1  0  0  0  0
 53 65  1  0  0  0  0
 54 66  1  0  0  0  0
 55 66  1  0  0  0  0
 56 66  1  0  0  0  0
 57 77  1  0  0  0  0
 58 62  1  0  0  0  0
 59 61  1  0  0  0  0
 59 63  1  0  0  0  0
 60 76  1  0  0  0  0
 61 73  1  0  0  0  0
 62 85  1  0  0  0  0
 63 84  1  0  0  0  0
 64 66  1  0  0  0  0
 64 75  1  0  0  0  0
 65 77  1  0  0  0  0
 67 68  1  0  0  0  0
M  CHG  1  77   1
M  ISO  4  38 100  63 101  76 100  84 101
M  END
> <Batch ID>
0102

> <Smiles>
CCCOc1cc([100N:0](CC)[100C:0](=O)N2CCCC(n3nc(-c4ccc(Oc5ccc(F)cc5F)cc4)c(C(N)=O)c3N)C2)ccc1NCC[101CH2:1][101O:1]c1ccc2c(c1)CN(C(=O)C(NC(=O)C(C)NC)C(C)(C)C)C(C(=O)NC1CCCc3ccccc31)C2

> <Shape>
0.244

> <Color>
0.080

> <Negative vol penalty>
0.000

$$$$

  -OEChem-04052301023D

 86 95  0     1  0  0  0  0  0999 V2000
  -23.2991  -33.4494   24.3014 C   0  0  0  0  0  0  0  0  0  0  0  0
  -24.1661  -32.3939   24.0373 C   0  0  0  0  0  0  0  0  0  0  0  0
  -23.2255  -10.2206   21.9299 C   0  0  0  0  0  0  0  0  0  0  0  0
  -24.7974  -10.8861   23.6397 C   0  0  0  0  0  0  0  0  0  0  0  0
  -21.9258  -33.2202   24.3756 C   0  0  0  0  0  0  0  0  0  0  0  0
  -23.6602  -31.1083   23.8482 C   0  0  0  0  0  0  0  0  0  0  0  0
  -25.7663  -28.7547   19.8896 C   0  0  0  0  0  0  0  0  0  0  0  0
  -30.7365  -20.2358   18.6770 C   0  0  0  0  0  0  0  0  0  0  0  0
  -30.5525  -18.8802   18.9493 C   0  0  0  0  0  0  0  0  0  0  0  0
  -22.7289   -9.2267   22.7732 C   0  0  0  0  0  0  0  0  0  0  0  0
  -24.3008   -9.8921   24.4831 C   0  0  0  0  0  0  0  0  0  0  0  0
  -27.0404  -28.2189   20.0716 C   0  0  0  0  0  0  0  0  0  0  0  0
  -23.6364   -6.1289   23.7757 C   0  0  0  0  0  0  0  0  0  0  0  0
  -23.4245   -4.8630   23.2296 C   0  0  0  0  0  0  0  0  0  0  0  0
  -26.0698  -26.0326   20.3837 C   0  0  0  0  0  0  0  0  0  0  0  0
  -28.3598  -19.3576   19.8443 C   0  0  0  0  0  0  0  0  0  0  0  0
  -21.0805   -5.0109   23.7962 C   0  0  0  0  0  0  0  0  0  0  0  0
  -24.2598  -11.0503   22.3632 C   0  0  0  0  0  0  0  0  0  0  0  0
  -24.0599  -13.1553   20.9361 C   0  0  0  0  0  0  0  0  0  0  0  0
  -21.4021  -31.9329   24.1777 C   0  0  0  0  0  0  0  0  0  0  0  0
  -24.6317  -27.9341   19.9643 C   0  0  0  0  0  0  0  0  0  0  0  0
  -22.2788  -30.8614   23.9211 C   0  0  0  0  0  0  0  0  0  0  0  0
  -24.7826  -26.5601   20.1998 C   0  0  0  0  0  0  0  0  0  0  0  0
  -28.5438  -20.7132   19.5721 C   0  0  0  0  0  0  0  0  0  0  0  0
  -29.7321  -21.1523   18.9884 C   0  0  0  0  0  0  0  0  0  0  0  0
  -29.3642  -18.4411   19.5329 C   0  0  0  0  0  0  0  0  0  0  0  0
  -23.2666   -9.0625   24.0498 C   0  0  0  0  0  0  0  0  0  0  0  0
  -27.1922  -26.8581   20.3215 C   0  0  0  0  0  0  0  0  0  0  0  0
  -22.5703   -6.8358   24.3320 C   0  0  0  0  0  0  0  0  0  0  0  0
  -22.1466   -4.3040   23.2398 C   0  0  0  0  0  0  0  0  0  0  0  0
  -21.2924   -6.2768   24.3423 C   0  0  0  0  0  0  0  0  0  0  0  0
  -24.7735  -12.0768   21.4923 C   0  0  0  0  0  0  0  0  0  0  0  0
  -24.9915  -13.8352   20.1902 C   0  0  0  0  0  0  0  0  0  0  0  0
  -30.2394  -25.2850   18.2281 C   0  0  0  0  0  0  0  0  0  0  0  0
  -22.6785  -13.5108   21.0808 C   0  0  0  0  0  0  0  0  0  0  0  0
  -22.0699  -27.8139   21.8422 C   0  0  0  0  0  0  0  0  0  0  0  0
  -21.1305  -25.5141   19.7563 C   0  0  0  0  0  0  0  0  0  0  0  0
  -22.6615  -22.7409   18.0293 C   0  0  0  0  0  0  0  0  0  0  0  0
  -30.0727  -16.0238   19.5621 C   0  0  0  0  0  0  0  0  0  0  0  0
  -19.9145  -31.7254   24.3144 C   0  0  0  0  0  0  0  0  0  0  0  0
  -23.2660  -28.5229   19.7392 C   0  0  0  0  0  0  0  0  0  0  0  0
  -23.5979  -25.6326   20.2694 C   0  0  0  0  0  0  0  0  0  0  0  0
  -29.7276  -24.3830   17.1292 C   0  0  0  0  0  0  0  0  0  0  0  0
  -19.4280  -30.4015   23.7307 C   0  0  0  0  0  0  0  0  0  0  0  0
  -29.6995  -12.5573   18.8399 C   0  0  0  0  0  0  0  0  0  0  0  0
  -20.3291  -29.2562   24.1813 C   0  0  0  0  0  0  0  0  0  0  0  0
  -28.3260  -12.2120   19.4199 C   0  0  0  0  0  0  0  0  0  0  0  0
  -30.1766  -22.9409   17.3302 C   0  0  0  0  0  0  0  0  0  0  0  0
  -30.4431  -13.5709   19.7080 C   0  0  0  0  0  0  0  0  0  0  0  0
  -30.5389  -23.3365   19.7613 C   0  0  0  0  0  0  0  0  0  0  0  0
  -28.3190  -14.4502   20.5935 C   0  0  0  0  0  0  0  0  0  0  0  0
  -21.7662  -29.4571   23.6857 C   0  0  1  0  0  0  0  0  0  0  0  0
  -30.0735  -24.7904   19.6533 C   0  0  2  0  0  0  0  0  0  0  0  0
  -22.1461  -27.6841   20.3472 C   0  0  1  0  0  0  0  0  0  0  0  0
  -27.5053  -13.4818   19.7195 C   0  0  2  0  0  0  0  0  0  0  0  0
  -27.4524  -21.6735   19.9170 C   0  0  0  0  0  0  0  0  0  0  0  0
  -22.0554  -21.6346   15.8599 C   0  0  0  0  0  0  0  0  0  0  0  0
  -19.5542  -23.5826   21.5155 C   0  0  0  0  0  0  0  0  0  0  0  0
  -20.2680  -21.7255   19.9957 C   0  0  0  0  0  0  0  0  0  0  0  0
  -18.8736  -23.5942   19.1090 C   0  0  0  0  0  0  0  0  0  0  0  0
  -25.3747  -23.1598   16.9239 C   0  0  0  0  0  0  0  0  0  0  0  0
  -28.6285  -24.9749   20.1059 C   0  0  0  0  0  0  0  0  0  1  0  0
  -21.3031  -24.0171   19.6665 C   0  0  1  0  0  0  0  0  0  0  0  0
  -22.9596  -22.6483   16.5437 C   0  0  2  0  0  0  0  0  0  0  0  0
  -20.0191  -23.2463   20.0845 C   0  0  0  0  0  0  0  0  0  0  0  0
  -26.0592  -12.0679   21.1305 N   0  0  0  0  0  0  0  0  0  0  0  0
  -26.1608  -13.1491   20.3389 N   0  0  0  0  0  0  0  0  0  0  0  0
  -29.9339  -22.5075   18.7093 N   0  0  2  0  0  0  0  0  0  0  0  0
  -22.2830  -26.2571   20.0489 N   0  0  0  0  0  0  0  0  0  0  0  0
  -29.6062  -14.7489   19.9464 N   0  0  0  0  0  0  0  0  0  0  0  0
  -24.9162  -14.9470   19.4282 N   0  0  0  0  0  0  0  0  0  0  0  0
  -21.8614  -12.7035   21.8839 N   0  0  0  0  0  0  0  0  0  0  0  0
  -29.1773  -17.0639   19.8089 N   0  0  0  0  0  0  0  0  0  0  0  0
  -21.8714  -29.1076   22.2852 N   0  0  0  0  0  0  0  0  0  0  0  0
  -21.7510  -23.7387   18.3063 N   0  0  0  0  0  0  0  0  0  0  0  0
  -24.3755  -22.2384   16.3241 N   0  3  0  0  0  0  0  0  0  0  0  0
  -30.6779  -26.4087   17.9841 O   0  0  0  0  0  0  0  0  0  0  0  0
  -22.1796  -14.5054   20.5016 O   0  0  0  0  0  0  0  0  0  0  0  0
  -22.1813  -26.8140   22.5419 O   0  0  0  0  0  0  0  0  0  0  0  0
  -20.0156  -26.0068   19.5665 O   0  0  0  0  0  0  0  0  0  0  0  0
  -23.1812  -21.9995   18.8604 O   0  0  0  0  0  0  0  0  0  0  0  0
  -31.1735  -16.1778   19.0268 O   0  0  0  0  0  0  0  0  0  0  0  0
  -22.7821   -8.0929   24.8731 O   0  0  0  0  0  0  0  0  0  0  0  0
  -28.4347  -26.3326   20.5001 O   0  0  0  0  0  0  0  0  0  1  0  0
  -21.9431   -3.0890   22.7141 F   0  0  0  0  0  0  0  0  0  0  0  0
  -20.2641   -6.9516   24.8743 F   0  0  0  0  0  0  0  0  0  0  0  0
  1  2  1  0  0  0  0
  1  5  2  0  0  0  0
  2  6  2  0  0  0  0
  3 10  2  0  0  0  0
  3 18  1  0  0  0  0
  4 11  1  0  0  0  0
  4 18  2  0  0  0  0
  5 20  1  0  0  0  0
  6 22  1  0  0  0  0
  7 12  2  0  0  0  0
  7 21  1  0  0  0  0
  8  9  2  0  0  0  0
  8 25  1  0  0  0  0
  9 26  1  0  0  0  0
 10 27  1  0  0  0  0
 11 27  2  0  0  0  0
 12 28  1  0  0  0  0
 13 14  2  0  0  0  0
 13 29  1  0  0  0  0
 14 30  1  0  0  0  0
 15 23  1  0  0  0  0
 15 28  2  0  0  0  0
 16 24  1  0  0  0  0
 16 26  2  0  0  0  0
 17 30  2  0  0  0  0
 17 31  1  0  0  0  0
 18 32  1  0  0  0  0
 19 32  1  0  0  0  0
 19 33  2  0  0  0  0
 19 35  1  0  0  0  0
 20 22  2  0  0  0  0
 20 40  1  0  0  0  0
 21 23  2  0  0  0  0
 21 41  1  0  0  0  0
 22 52  1  0  0  0  0
 23 42  1  0  0  0  0
 24 25  2  0  0  0  0
 24 56  1  0  0  0  0
 25 68  1  0  0  0  0
 26 73  1  0  0  0  0
 27 83  1  0  0  0  0
 28 84  1  0  0  0  0
 29 31  2  0  0  0  0
 29 83  1  0  0  0  0
 30 85  1  0  0  0  0
 31 86  1  0  0  0  0
 32 66  2  0  0  0  0
 33 67  1  0  0  0  0
 33 71  1  0  0  0  0
 34 43  1  0  0  0  0
 34 53  1  0  0  0  0
 34 77  2  0  0  0  0
 35 72  1  0  0  0  0
 35 78  2  0  0  0  0
 36 54  1  0  0  0  0
 36 74  1  0  0  0  0
 36 79  2  0  0  0  0
 37 63  1  0  0  0  0
 37 69  1  0  0  0  0
 37 80  2  0  0  0  0
 38 64  1  0  0  0  0
 38 75  1  0  0  0  0
 38 81  2  0  0  0  0
 39 70  1  0  0  0  0
 39 73  1  0  0  0  0
 39 82  2  0  0  0  0
 40 44  1  0  0  0  0
 41 54  1  0  0  0  0
 42 69  1  0  0  0  0
 43 48  1  0  0  0  0
 44 46  1  0  0  0  0
 45 47  1  0  0  0  0
 45 49  1  0  0  0  0
 46 52  1  0  0  0  0
 47 55  1  0  0  0  0
 48 68  1  0  0  0  0
 49 70  1  0  0  0  0
 50 53  1  0  0  0  0
 50 68  1  0  0  0  0
 51 55  1  0  0  0  0
 51 70  1  0  0  0  0
 52 74  1  0  0  0  0
 53 62  1  0  0  0  0
 54 69  1  0  0  0  0
 55 67  1  0  0  0  0
 57 64  1  0  0  0  0
 58 65  1  0  0  0  0
 59 65  1  0  0  0  0
 60 65  1  0  0  0  0
 61 76  1  0  0  0  0
 62 84  1  0  0  0  0
 63 65  1  0  0  0  0
 63 75  1  0  0  0  0
 64 76  1  0  0  0  0
 66 67  1  0  0  0  0
M  CHG  1  76   1
M  ISO  4  39 100  62 101  73 100  84 101
M  END
> <Batch ID>
0102

> <Smiles>
CNC(C)C(=O)NC(C(=O)N1Cc2cc([101O:1][101CH2:1]C3CN(c4ccc([100NH:0][100C:0](=O)N5CCCC(n6nc(-c7ccc(Oc8ccc(F)cc8F)cc7)c(C(N)=O)c6N)C5)cc4C)CCC3=O)ccc2CC1C(=O)NC1CCCc2ccccc21)C(C)(C)C

> <Shape>
0.307

> <Color>
0.144

> <Negative vol penalty>
0.000

$$$$

  -OEChem-04052301023D

 87 96  0     1  0  0  0  0  0999 V2000
  -32.8554  -30.4325   18.3569 C   0  0  0  0  0  0  0  0  0  0  0  0
  -32.4420  -29.3690   19.1528 C   0  0  0  0  0  0  0  0  0  0  0  0
  -23.2882   -9.8002   19.9097 C   0  0  0  0  0  0  0  0  0  0  0  0
  -23.7355   -9.9384   22.2799 C   0  0  0  0  0  0  0  0  0  0  0  0
  -32.6341  -30.3989   16.9807 C   0  0  0  0  0  0  0  0  0  0  0  0
  -31.8060  -28.2718   18.5731 C   0  0  0  0  0  0  0  0  0  0  0  0
  -33.5694  -23.8578   20.3201 C   0  0  0  0  0  0  0  0  0  0  0  0
  -30.6187  -15.0988   24.9234 C   0  0  0  0  0  0  0  0  0  0  0  0
  -32.7215  -15.4016   23.7730 C   0  0  0  0  0  0  0  0  0  0  0  0
  -30.6227  -16.4458   25.2854 C   0  0  0  0  0  0  0  0  0  0  0  0
  -32.7256  -16.7487   24.1350 C   0  0  0  0  0  0  0  0  0  0  0  0
  -22.5620   -8.6271   20.1151 C   0  0  0  0  0  0  0  0  0  0  0  0
  -23.0093   -8.7653   22.4853 C   0  0  0  0  0  0  0  0  0  0  0  0
  -33.1222  -23.4451   21.5745 C   0  0  0  0  0  0  0  0  0  0  0  0
  -19.4793   -7.7643   21.2038 C   0  0  0  0  0  0  0  0  0  0  0  0
  -18.2513   -7.6400   20.5541 C   0  0  0  0  0  0  0  0  0  0  0  0
  -31.5344  -21.9693   20.5163 C   0  0  0  0  0  0  0  0  0  0  0  0
  -19.0552   -5.6688   19.4117 C   0  0  0  0  0  0  0  0  0  0  0  0
  -23.8750  -10.4558   20.9921 C   0  0  0  0  0  0  0  0  0  0  0  0
  -24.1337  -12.9861   20.7966 C   0  0  0  0  0  0  0  0  0  0  0  0
  -32.0037  -29.2964   16.3826 C   0  0  0  0  0  0  0  0  0  0  0  0
  -32.9940  -23.3365   19.1524 C   0  0  0  0  0  0  0  0  0  0  0  0
  -31.5749  -28.2240   17.1879 C   0  0  0  0  0  0  0  0  0  0  0  0
  -31.9779  -22.3750   19.2483 C   0  0  0  0  0  0  0  0  0  0  0  0
  -31.6681  -14.5767   24.1672 C   0  0  0  0  0  0  0  0  0  0  0  0
  -31.6762  -17.2708   24.8913 C   0  0  0  0  0  0  0  0  0  0  0  0
  -22.4225   -8.1097   21.4029 C   0  0  0  0  0  0  0  0  0  0  0  0
  -32.1026  -22.5029   21.6728 C   0  0  0  0  0  0  0  0  0  0  0  0
  -20.4954   -6.8409   20.9574 C   0  0  0  0  0  0  0  0  0  0  0  0
  -18.0392   -6.5923   19.6581 C   0  0  0  0  0  0  0  0  0  0  0  0
  -20.2833   -5.7931   20.0613 C   0  0  0  0  0  0  0  0  0  0  0  0
  -24.6258  -11.6672   20.7804 C   0  0  0  0  0  0  0  0  0  0  0  0
  -25.2353  -13.7667   20.5441 C   0  0  0  0  0  0  0  0  0  0  0  0
  -32.2503  -21.0602   24.9836 C   0  0  0  0  0  0  0  0  0  0  0  0
  -31.9611  -21.3448   26.2744 C   0  0  0  0  0  0  0  0  0  0  0  0
  -32.2878  -19.6415   24.4646 C   0  0  0  0  0  0  0  0  0  0  0  0
  -22.8002  -13.4629   21.0200 C   0  0  0  0  0  0  0  0  0  0  0  0
  -31.3824  -24.5659   16.7040 C   0  0  0  0  0  0  0  0  0  0  0  0
  -31.6353  -21.5531   15.5287 C   0  0  0  0  0  0  0  0  0  0  0  0
  -31.3586  -18.1933   16.8141 C   0  0  0  0  0  0  0  0  0  0  0  0
  -31.1054  -12.9251   21.3713 C   0  0  0  0  0  0  0  0  0  0  0  0
  -31.7439  -29.3265   14.8972 C   0  0  0  0  0  0  0  0  0  0  0  0
  -33.5060  -23.7721   17.8069 C   0  0  0  0  0  0  0  0  0  0  0  0
  -31.3410  -21.7696   18.0251 C   0  0  0  0  0  0  0  0  0  0  0  0
  -31.5923  -20.1974   27.1925 C   0  0  0  0  0  0  0  0  0  0  0  0
  -31.3992  -27.9596   14.3114 C   0  0  0  0  0  0  0  0  0  0  0  0
  -29.4607  -13.6672   18.3020 C   0  0  0  0  0  0  0  0  0  0  0  0
  -30.3631  -27.2527   15.1794 C   0  0  0  0  0  0  0  0  0  0  0  0
  -27.9907  -13.3578   18.5906 C   0  0  0  0  0  0  0  0  0  0  0  0
  -30.9046  -19.0716   26.4339 C   0  0  0  0  0  0  0  0  0  0  0  0
  -30.3933  -12.6874   19.0106 C   0  0  0  0  0  0  0  0  0  0  0  0
  -28.7043  -12.2554   20.7526 C   0  0  0  0  0  0  0  0  0  0  0  0
  -30.9039  -27.0051   16.5928 C   0  0  1  0  0  0  0  0  0  0  0  0
  -32.4953  -23.5566   16.6846 C   0  0  1  0  0  0  0  0  0  0  0  0
  -27.7269  -13.2510   20.1046 C   0  0  2  0  0  0  0  0  0  0  0  0
  -32.4058  -16.0534   16.0256 C   0  0  0  0  0  0  0  0  0  0  0  0
  -29.0394  -21.1972   13.9653 C   0  0  0  0  0  0  0  0  0  0  0  0
  -29.1379  -18.7519   14.4940 C   0  0  0  0  0  0  0  0  0  0  0  0
  -30.9503  -19.8084   13.1444 C   0  0  0  0  0  0  0  0  0  0  0  0
  -32.5385  -17.6550   19.4743 C   0  0  0  0  0  0  0  0  0  0  0  0
  -31.6637  -13.1364   23.7802 C   0  0  0  0  0  0  0  0  0  0  0  0
  -32.6117  -22.1111   23.9626 C   0  0  0  0  0  0  0  0  0  1  0  0
  -30.8041  -20.2964   15.6208 C   0  0  1  0  0  0  0  0  0  0  0  0
  -32.4903  -17.2023   17.0184 C   0  0  2  0  0  0  0  0  0  0  0  0
  -29.9830  -20.0328   14.3270 C   0  0  0  0  0  0  0  0  0  0  0  0
  -25.9378  -11.6094   20.5367 N   0  0  0  0  0  0  0  0  0  0  0  0
  -26.2795  -12.9016   20.3974 N   0  0  0  0  0  0  0  0  0  0  0  0
  -31.6805  -18.6638   25.2652 N   0  0  0  0  0  0  0  0  0  0  0  0
  -31.8717  -22.2325   16.7322 N   0  0  0  0  0  0  0  0  0  0  0  0
  -30.0919  -12.6343   20.4432 N   0  0  0  0  0  0  0  0  0  0  0  0
  -25.4028  -15.1018   20.4353 N   0  0  0  0  0  0  0  0  0  0  0  0
  -21.7876  -12.5254   21.2650 N   0  0  0  0  0  0  0  0  0  0  0  0
  -31.8090  -25.8759   16.5970 N   0  0  0  0  0  0  0  0  0  0  0  0
  -31.7261  -19.2219   15.9726 N   0  0  0  0  0  0  0  0  0  0  0  0
  -30.7338  -12.8579   22.7085 N   0  0  0  0  0  0  0  0  0  0  0  0
  -32.4414  -16.6372   18.3965 N   0  3  0  0  0  0  0  0  0  0  0  0
  -31.9278  -22.4453   26.8941 O   0  5  0  0  0  0  0  0  0  0  0  0
  -32.7996  -19.4435   23.3615 O   0  0  0  0  0  0  0  0  0  0  0  0
  -22.5119  -14.6833   20.9866 O   0  0  0  0  0  0  0  0  0  0  0  0
  -30.2224  -24.1844   16.8068 O   0  0  0  0  0  0  0  0  0  0  0  0
  -32.0653  -21.9147   14.4305 O   0  0  0  0  0  0  0  0  0  0  0  0
  -30.2574  -18.0655   17.3447 O   0  0  0  0  0  0  0  0  0  0  0  0
  -32.2548  -13.2277   21.0332 O   0  0  0  0  0  0  0  0  0  0  0  0
  -21.7137   -6.9652   21.6037 O   0  0  0  0  0  0  0  0  0  0  0  0
  -31.6639  -22.0988   22.8959 O   0  0  0  0  0  0  0  0  0  1  0  0
  -16.8594   -6.4721   19.0355 F   0  0  0  0  0  0  0  0  0  0  0  0
  -21.2552   -4.9023   19.8214 F   0  0  0  0  0  0  0  0  0  0  0  0
  1  2  1  0  0  0  0
  1  5  2  0  0  0  0
  2  6  2  0  0  0  0
  3 12  2  0  0  0  0
  3 19  1  0  0  0  0
  4 13  1  0  0  0  0
  4 19  2  0  0  0  0
  5 21  1  0  0  0  0
  6 23  1  0  0  0  0
  7 14  2  0  0  0  0
  7 22  1  0  0  0  0
  8 10  2  0  0  0  0
  8 25  1  0  0  0  0
  9 11  1  0  0  0  0
  9 25  2  0  0  0  0
 10 26  1  0  0  0  0
 11 26  2  0  0  0  0
 12 27  1  0  0  0  0
 13 27  2  0  0  0  0
 14 28  1  0  0  0  0
 15 16  2  0  0  0  0
 15 29  1  0  0  0  0
 16 30  1  0  0  0  0
 17 24  1  0  0  0  0
 17 28  2  0  0  0  0
 18 30  2  0  0  0  0
 18 31  1  0  0  0  0
 19 32  1  0  0  0  0
 20 32  1  0  0  0  0
 20 33  2  0  0  0  0
 20 37  1  0  0  0  0
 21 23  2  0  0  0  0
 21 42  1  0  0  0  0
 22 24  2  0  0  0  0
 22 43  1  0  0  0  0
 23 53  1  0  0  0  0
 24 44  1  0  0  0  0
 25 61  1  0  0  0  0
 26 68  1  0  0  0  0
 27 84  1  0  0  0  0
 28 85  1  0  0  0  0
 29 31  2  0  0  0  0
 29 84  1  0  0  0  0
 30 86  1  0  0  0  0
 31 87  1  0  0  0  0
 32 66  2  0  0  0  0
 33 67  1  0  0  0  0
 33 71  1  0  0  0  0
 34 35  2  0  0  0  0
 34 36  1  0  0  0  0
 34 62  1  0  0  0  0
 35 45  1  0  0  0  0
 35 77  1  0  0  0  0
 36 68  1  0  0  0  0
 36 78  2  0  0  0  0
 37 72  1  0  0  0  0
 37 79  2  0  0  0  0
 38 54  1  0  0  0  0
 38 73  1  0  0  0  0
 38 80  2  0  0  0  0
 39 63  1  0  0  0  0
 39 69  1  0  0  0  0
 39 81  2  0  0  0  0
 40 64  1  0  0  0  0
 40 74  1  0  0  0  0
 40 82  2  0  0  0  0
 41 70  1  0  0  0  0
 41 75  1  0  0  0  0
 41 83  2  0  0  0  0
 42 46  1  0  0  0  0
 43 54  1  0  0  0  0
 44 69  1  0  0  0  0
 45 50  1  0  0  0  0
 46 48  1  0  0  0  0
 47 49  1  0  0  0  0
 47 51  1  0  0  0  0
 48 53  1  0  0  0  0
 49 55  1  0  0  0  0
 50 68  1  0  0  0  0
 51 70  1  0  0  0  0
 52 55  1  0  0  0  0
 52 70  1  0  0  0  0
 53 73  1  0  0  0  0
 54 69  1  0  0  0  0
 55 67  1  0  0  0  0
 56 64  1  0  0  0  0
 57 65  1  0  0  0  0
 58 65  1  0  0  0  0
 59 65  1  0  0  0  0
 60 76  1  0  0  0  0
 61 75  1  0  0  0  0
 62 85  1  0  0  0  0
 63 65  1  0  0  0  0
 63 74  1  0  0  0  0
 64 76  1  0  0  0  0
 66 67  1  0  0  0  0
M  CHG  2  76   1  77  -1
M  ISO  4  41 100  62 101  75 100  85 101
M  END
> <Batch ID>
0102

> <Smiles>
CNC(C)C(=O)NC(C(=O)N1Cc2cc([101O:1][101CH2:1]C3C(=O)CCN(c4ccc(C[100NH:0][100C:0](=O)N5CCCC(n6nc(-c7ccc(Oc8ccc(F)cc8F)cc7)c(C(N)=O)c6N)C5)cc4)C3=O)ccc2CC1C(=O)NC1CCCc2ccccc21)C(C)(C)C

> <Shape>
0.140

> <Color>
0.174

> <Negative vol penalty>
0.000

$$$$

  -OEChem-04052301023D

 90 99  0     1  0  0  0  0  0999 V2000
  -23.6087  -25.7311   13.3830 C   0  0  0  0  0  0  0  0  0  0  0  0
  -23.4082  -26.1397   14.6976 C   0  0  0  0  0  0  0  0  0  0  0  0
  -25.6575  -12.9082   21.6889 C   0  0  0  0  0  0  0  0  0  0  0  0
  -26.1450  -13.0147   19.3250 C   0  0  0  0  0  0  0  0  0  0  0  0
  -21.6643  -24.5562   23.8847 C   0  0  0  0  0  0  0  0  0  0  0  0
  -24.6039  -24.8004   13.0876 C   0  0  0  0  0  0  0  0  0  0  0  0
  -24.2022  -25.6170   15.7178 C   0  0  0  0  0  0  0  0  0  0  0  0
  -25.8263  -29.1766   18.9329 C   0  0  0  0  0  0  0  0  0  0  0  0
  -21.0502  -25.8037   23.7739 C   0  0  0  0  0  0  0  0  0  0  0  0
  -25.2113  -11.5954   21.5378 C   0  0  0  0  0  0  0  0  0  0  0  0
  -25.6989  -11.7018   19.1739 C   0  0  0  0  0  0  0  0  0  0  0  0
  -24.9180  -29.6366   19.8853 C   0  0  0  0  0  0  0  0  0  0  0  0
  -23.6073   -8.3363   21.7094 C   0  0  0  0  0  0  0  0  0  0  0  0
  -22.4160   -7.9780   22.3402 C   0  0  0  0  0  0  0  0  0  0  0  0
  -22.3038  -24.6643   21.5574 C   0  0  0  0  0  0  0  0  0  0  0  0
  -25.9348  -28.2038   21.5383 C   0  0  0  0  0  0  0  0  0  0  0  0
  -21.2369   -9.6606   21.0692 C   0  0  0  0  0  0  0  0  0  0  0  0
  -26.1243  -13.6179   20.5825 C   0  0  0  0  0  0  0  0  0  0  0  0
  -22.2912  -23.9865   22.7764 C   0  0  0  0  0  0  0  0  0  0  0  0
  -27.8954  -15.3993   21.0271 C   0  0  0  0  0  0  0  0  0  0  0  0
  -25.4169  -24.2733   14.1034 C   0  0  0  0  0  0  0  0  0  0  0  0
  -26.7904  -28.2170   19.2739 C   0  0  0  0  0  0  0  0  0  0  0  0
  -25.2084  -24.6774   15.4359 C   0  0  0  0  0  0  0  0  0  0  0  0
  -26.8559  -27.7352   20.5890 C   0  0  0  0  0  0  0  0  0  0  0  0
  -21.0628  -26.4814   22.5548 C   0  0  0  0  0  0  0  0  0  0  0  0
  -25.2320  -10.9921   20.2803 C   0  0  0  0  0  0  0  0  0  0  0  0
  -24.9703  -29.1481   21.1875 C   0  0  0  0  0  0  0  0  0  0  0  0
  -23.6135   -9.3569   20.7585 C   0  0  0  0  0  0  0  0  0  0  0  0
  -21.6896  -25.9117   21.4465 C   0  0  0  0  0  0  0  0  0  0  0  0
  -21.2308   -8.6401   22.0201 C   0  0  0  0  0  0  0  0  0  0  0  0
  -22.4282  -10.0190   20.4384 C   0  0  0  0  0  0  0  0  0  0  0  0
  -26.5849  -14.9744   20.7379 C   0  0  0  0  0  0  0  0  0  0  0  0
  -27.8104  -16.7695   21.0704 C   0  0  0  0  0  0  0  0  0  0  0  0
  -22.5471  -21.6278   22.1422 C   0  0  0  0  0  0  0  0  0  0  0  0
  -22.9308  -22.6856   22.8917 C   0  0  0  0  0  0  0  0  0  0  0  0
  -29.0834  -14.6247   21.2378 C   0  0  0  0  0  0  0  0  0  0  0  0
  -23.1957  -20.3073   22.2706 C   0  0  0  0  0  0  0  0  0  0  0  0
  -27.4401  -25.2541   18.3237 C   0  0  0  0  0  0  0  0  0  0  0  0
  -30.0241  -25.6195   20.2503 C   0  0  0  0  0  0  0  0  0  0  0  0
  -31.4526  -27.2093   22.9109 C   0  0  0  0  0  0  0  0  0  0  0  0
  -26.4486  -23.2343   13.7418 C   0  0  0  0  0  0  0  0  0  0  0  0
  -27.7801  -27.7509   18.2416 C   0  0  0  0  0  0  0  0  0  0  0  0
  -27.8847  -26.7194   21.0111 C   0  0  0  0  0  0  0  0  0  0  0  0
  -27.4950  -23.0102   14.8304 C   0  0  0  0  0  0  0  0  0  0  0  0
  -25.3289  -20.4353   19.2932 C   0  0  0  0  0  0  0  0  0  0  0  0
  -26.8255  -22.8731   16.1942 C   0  0  0  0  0  0  0  0  0  0  0  0
  -25.9774  -19.0542   19.3370 C   0  0  0  0  0  0  0  0  0  0  0  0
  -21.7049  -31.2483   22.9906 C   0  0  0  0  0  0  0  0  0  0  0  0
  -22.1568  -30.4183   24.1769 C   0  0  0  0  0  0  0  0  0  0  0  0
  -23.8939  -20.4100   19.8174 C   0  0  0  0  0  0  0  0  0  0  0  0
  -24.4169  -18.4393   21.2256 C   0  0  0  0  0  0  0  0  0  0  0  0
  -26.0657  -24.1519   16.5668 C   0  0  1  0  0  0  0  0  0  0  0  0
  -28.3903  -26.3918   18.5699 C   0  0  1  0  0  0  0  0  0  0  0  0
  -25.8770  -18.4502   20.7467 C   0  0  1  0  0  0  0  0  0  0  0  0
  -20.7172  -30.3283   22.2913 C   0  0  1  0  0  0  0  0  0  0  0  0
  -22.3066  -29.0040   23.6226 C   0  0  2  0  0  0  0  0  0  0  0  0
  -19.8576  -32.0294   20.6804 C   0  0  0  0  0  0  0  0  0  0  0  0
  -33.5607  -27.2676   24.2710 C   0  0  0  0  0  0  0  0  0  0  0  0
  -29.1919  -23.0373   21.6465 C   0  0  0  0  0  0  0  0  0  0  0  0
  -30.7199  -23.6472   23.5337 C   0  0  0  0  0  0  0  0  0  0  0  0
  -31.6509  -23.2638   21.2514 C   0  0  0  0  0  0  0  0  0  0  0  0
  -31.9689  -30.0361   22.2029 C   0  0  0  0  0  0  0  0  0  0  0  0
  -22.3741  -25.9066   19.1690 C   0  0  0  0  0  0  0  0  0  0  0  0
  -20.3971  -27.8222   22.4538 C   0  0  0  0  0  0  0  0  0  0  0  0
  -20.4917  -30.6840   20.8330 C   0  0  0  0  0  0  0  0  0  0  0  0
  -23.7220  -28.6871   23.1586 C   0  0  0  0  0  0  0  0  0  1  0  0
  -30.3153  -25.3611   21.7089 C   0  0  1  0  0  0  0  0  0  0  0  0
  -32.8143  -27.8575   23.0846 C   0  0  2  0  0  0  0  0  0  0  0  0
  -30.4487  -23.8450   22.0270 C   0  0  0  0  0  0  0  0  0  0  0  0
  -25.7299  -15.9922   20.6069 N   0  0  0  0  0  0  0  0  0  0  0  0
  -26.5049  -17.0702   20.8148 N   0  0  0  0  0  0  0  0  0  0  0  0
  -23.8157  -19.7750   21.1415 N   0  0  0  0  0  0  0  0  0  0  0  0
  -28.8264  -26.2898   19.9640 N   0  0  0  0  0  0  0  0  0  0  0  0
  -28.7258  -17.7343   21.3019 N   0  0  0  0  0  0  0  0  0  0  0  0
  -28.9937  -13.2284   21.1571 N   0  0  0  0  0  0  0  0  0  0  0  0
  -26.9859  -25.1723   17.0213 N   0  0  0  0  0  0  0  0  0  0  0  0
  -31.5010  -26.1465   22.0339 N   0  0  0  0  0  0  0  0  0  0  0  0
  -21.3721  -28.9605   22.4114 N   0  3  1  0  0  0  0  0  0  0  0  0
  -32.6657  -29.3239   23.3048 N   0  3  0  0  0  0  0  0  0  0  0  0
  -30.1884  -15.1544   21.5062 O   0  0  0  0  0  0  0  0  0  0  0  0
  -23.1445  -19.7532   23.3701 O   0  0  0  0  0  0  0  0  0  0  0  0
  -27.1423  -24.5052   19.2468 O   0  0  0  0  0  0  0  0  0  0  0  0
  -30.8331  -25.2470   19.3969 O   0  0  0  0  0  0  0  0  0  0  0  0
  -30.4474  -27.6039   23.4977 O   0  0  0  0  0  0  0  0  0  0  0  0
  -23.9514  -22.5586   23.8283 O   0  0  0  0  0  0  0  0  0  0  0  0
  -24.7969   -9.7110   20.1325 O   0  0  0  0  0  0  0  0  0  0  0  0
  -21.7117  -26.5612   20.2491 O   0  0  0  0  0  0  0  0  0  0  0  0
  -24.0845  -29.5949   22.1190 O   0  0  0  0  0  0  0  0  0  1  0  0
  -20.0866   -8.2948   22.6249 F   0  0  0  0  0  0  0  0  0  0  0  0
  -22.4276  -10.9995   19.5249 F   0  0  0  0  0  0  0  0  0  0  0  0
  1  2  1  0  0  0  0
  1  6  2  0  0  0  0
  2  7  2  0  0  0  0
  3 10  2  0  0  0  0
  3 18  1  0  0  0  0
  4 11  1  0  0  0  0
  4 18  2  0  0  0  0
  5  9  2  0  0  0  0
  5 19  1  0  0  0  0
  6 21  1  0  0  0  0
  7 23  1  0  0  0  0
  8 12  2  0  0  0  0
  8 22  1  0  0  0  0
  9 25  1  0  0  0  0
 10 26  1  0  0  0  0
 11 26  2  0  0  0  0
 12 27  1  0  0  0  0
 13 14  2  0  0  0  0
 13 28  1  0  0  0  0
 14 30  1  0  0  0  0
 15 19  2  0  0  0  0
 15 29  1  0  0  0  0
 16 24  1  0  0  0  0
 16 27  2  0  0  0  0
 17 30  2  0  0  0  0
 17 31  1  0  0  0  0
 18 32  1  0  0  0  0
 19 35  1  0  0  0  0
 20 32  1  0  0  0  0
 20 33  2  0  0  0  0
 20 36  1  0  0  0  0
 21 23  2  0  0  0  0
 21 41  1  0  0  0  0
 22 24  2  0  0  0  0
 22 42  1  0  0  0  0
 23 52  1  0  0  0  0
 24 43  1  0  0  0  0
 25 29  2  0  0  0  0
 25 64  1  0  0  0  0
 26 86  1  0  0  0  0
 27 88  1  0  0  0  0
 28 31  2  0  0  0  0
 28 86  1  0  0  0  0
 29 87  1  0  0  0  0
 30 89  1  0  0  0  0
 31 90  1  0  0  0  0
 32 70  2  0  0  0  0
 33 71  1  0  0  0  0
 33 74  1  0  0  0  0
 34 35  2  0  0  0  0
 34 37  1  0  0  0  0
 35 85  1  0  0  0  0
 36 75  1  0  0  0  0
 36 80  2  0  0  0  0
 37 72  1  0  0  0  0
 37 81  2  0  0  0  0
 38 53  1  0  0  0  0
 38 76  1  0  0  0  0
 38 82  2  0  0  0  0
 39 67  1  0  0  0  0
 39 73  1  0  0  0  0
 39 83  2  0  0  0  0
 40 68  1  0  0  0  0
 40 77  1  0  0  0  0
 40 84  2  0  0  0  0
 41 44  1  0  0  0  0
 42 53  1  0  0  0  0
 43 73  1  0  0  0  0
 44 46  1  0  0  0  0
 45 47  1  0  0  0  0
 45 50  1  0  0  0  0
 46 52  1  0  0  0  0
 47 54  1  0  0  0  0
 48 49  1  0  0  0  0
 48 55  1  0  0  0  0
 49 56  1  0  0  0  0
 50 72  1  0  0  0  0
 51 54  1  0  0  0  0
 51 72  1  0  0  0  0
 52 76  1  0  0  0  0
 53 73  1  0  0  0  0
 54 71  1  0  0  0  0
 55 65  1  0  0  0  0
 55 78  1  0  0  0  0
 56 66  1  0  0  0  0
 56 78  1  0  0  0  0
 57 65  1  0  0  0  0
 58 68  1  0  0  0  0
 59 69  1  0  0  0  0
 60 69  1  0  0  0  0
 61 69  1  0  0  0  0
 62 79  1  0  0  0  0
 63 87  1  0  0  0  0
 64 78  1  0  0  0  0
 66 88  1  0  0  0  0
 67 69  1  0  0  0  0
 67 77  1  0  0  0  0
 68 79  1  0  0  0  0
 70 71  1  0  0  0  0
M  CHG  2  78   1  79   1
M  ISO  4  34 100  37 100  66 101  88 101
M  END
> <Batch ID>
0102

> <Smiles>
CCC1CCC([101CH2:1][101O:1]c2ccc3c(c2)CN(C(=O)C(NC(=O)C(C)NC)C(C)(C)C)C(C(=O)NC2CCCc4ccccc42)C3)N1Cc1ccc(C(=O)[100CH2:0][100C:0](=O)N2CCCC(n3nc(-c4ccc(Oc5ccc(F)cc5F)cc4)c(C(N)=O)c3N)C2)cc1OC

> <Shape>
0.205

> <Color>
0.082

> <Negative vol penalty>
0.000

$$$$

  -OEChem-04052301023D

 89 98  0     1  0  0  0  0  0999 V2000
  -17.9848  -24.7216   21.3985 C   0  0  0  0  0  0  0  0  0  0  0  0
  -19.2888  -24.7164   20.9138 C   0  0  0  0  0  0  0  0  0  0  0  0
  -22.8490  -16.4144   20.2606 C   0  0  0  0  0  0  0  0  0  0  0  0
  -23.2829  -14.8479   22.0480 C   0  0  0  0  0  0  0  0  0  0  0  0
  -17.5464  -25.7706   22.2055 C   0  0  0  0  0  0  0  0  0  0  0  0
  -20.1549  -25.7610   21.2351 C   0  0  0  0  0  0  0  0  0  0  0  0
  -24.7553  -24.1262   22.5801 C   0  0  0  0  0  0  0  0  0  0  0  0
  -30.8060  -18.5486   16.7766 C   0  0  0  0  0  0  0  0  0  0  0  0
  -30.4503  -19.8968   16.7409 C   0  0  0  0  0  0  0  0  0  0  0  0
  -22.0101  -17.1435   21.1032 C   0  0  0  0  0  0  0  0  0  0  0  0
  -22.4440  -15.5771   22.8907 C   0  0  0  0  0  0  0  0  0  0  0  0
  -25.6171  -23.7362   21.5558 C   0  0  0  0  0  0  0  0  0  0  0  0
  -22.3378  -19.3962   23.6034 C   0  0  0  0  0  0  0  0  0  0  0  0
  -22.4724  -20.7845   23.6091 C   0  0  0  0  0  0  0  0  0  0  0  0
  -26.7388  -25.8672   21.6965 C   0  0  0  0  0  0  0  0  0  0  0  0
  -31.0039  -20.1049   19.0834 C   0  0  0  0  0  0  0  0  0  0  0  0
  -20.1743  -21.0102   22.8985 C   0  0  0  0  0  0  0  0  0  0  0  0
  -23.4854  -15.2665   20.7330 C   0  0  0  0  0  0  0  0  0  0  0  0
  -24.0054  -13.8934   18.6468 C   0  0  0  0  0  0  0  0  0  0  0  0
  -18.4105  -26.8236   22.5448 C   0  0  0  0  0  0  0  0  0  0  0  0
  -24.8720  -25.3958   23.1638 C   0  0  0  0  0  0  0  0  0  0  0  0
  -19.7273  -26.8257   22.0464 C   0  0  0  0  0  0  0  0  0  0  0  0
  -25.8789  -26.2699   22.7297 C   0  0  0  0  0  0  0  0  0  0  0  0
  -31.2606  -17.9784   17.9658 C   0  0  0  0  0  0  0  0  0  0  0  0
  -30.5493  -20.6750   17.8943 C   0  0  0  0  0  0  0  0  0  0  0  0
  -31.3596  -18.7566   19.1191 C   0  0  0  0  0  0  0  0  0  0  0  0
  -21.8076  -16.7250   22.4183 C   0  0  0  0  0  0  0  0  0  0  0  0
  -26.6072  -24.6078   21.1119 C   0  0  0  0  0  0  0  0  0  0  0  0
  -21.1215  -18.8148   23.2452 C   0  0  0  0  0  0  0  0  0  0  0  0
  -21.3907  -21.5915   23.2566 C   0  0  0  0  0  0  0  0  0  0  0  0
  -20.0397  -19.6219   22.8928 C   0  0  0  0  0  0  0  0  0  0  0  0
  -24.3517  -14.5125   19.8628 C   0  0  0  0  0  0  0  0  0  0  0  0
  -25.1719  -13.3125   18.2128 C   0  0  0  0  0  0  0  0  0  0  0  0
  -31.2617  -23.9132   16.5832 C   0  0  0  0  0  0  0  0  0  0  0  0
  -29.6679  -22.6976   19.0156 C   0  0  0  0  0  0  0  0  0  0  0  0
  -22.7423  -13.8477   17.9700 C   0  0  0  0  0  0  0  0  0  0  0  0
  -22.9817  -27.9408   23.3948 C   0  0  0  0  0  0  0  0  0  0  0  0
  -25.3566  -29.0462   25.3080 C   0  0  0  0  0  0  0  0  0  0  0  0
  -28.9645  -29.0427   25.2963 C   0  0  0  0  0  0  0  0  0  0  0  0
  -30.9489  -14.5078   19.2366 C   0  0  0  0  0  0  0  0  0  0  0  0
  -17.8771  -27.9595   23.3813 C   0  0  0  0  0  0  0  0  0  0  0  0
  -23.9517  -25.7912   24.2859 C   0  0  0  0  0  0  0  0  0  0  0  0
  -26.0591  -27.6362   23.3373 C   0  0  0  0  0  0  0  0  0  0  0  0
  -31.9253  -24.2798   17.8889 C   0  0  0  0  0  0  0  0  0  0  0  0
  -30.2442  -22.7823   16.5706 C   0  0  0  0  0  0  0  0  0  0  0  0
  -18.9705  -28.8387   23.9829 C   0  0  0  0  0  0  0  0  0  0  0  0
  -30.9388  -24.8923   18.8773 C   0  0  0  0  0  0  0  0  0  0  0  0
  -29.2564  -11.4365   19.8524 C   0  0  0  0  0  0  0  0  0  0  0  0
  -20.0144  -29.1894   22.9274 C   0  0  0  0  0  0  0  0  0  0  0  0
  -27.7762  -11.8207   19.8151 C   0  0  0  0  0  0  0  0  0  0  0  0
  -30.1094  -12.5366   20.4801 C   0  0  0  0  0  0  0  0  0  0  0  0
  -28.4643  -14.2548   19.8357 C   0  0  0  0  0  0  0  0  0  0  0  0
  -20.7041  -27.9283   22.3932 C   0  0  1  0  0  0  0  0  0  0  0  0
  -29.5534  -24.2262   18.9374 C   0  0  2  0  0  0  0  0  0  0  0  0
  -23.8322  -27.3025   24.4563 C   0  0  1  0  0  0  0  0  0  0  0  0
  -27.5712  -13.2000   19.1603 C   0  0  2  0  0  0  0  0  0  0  0  0
  -30.6023  -29.1485   27.1946 C   0  0  0  0  0  0  0  0  0  0  0  0
  -25.3314  -32.0514   24.7806 C   0  0  0  0  0  0  0  0  0  0  0  0
  -27.7908  -32.0835   25.2481 C   0  0  0  0  0  0  0  0  0  0  0  0
  -26.1923  -31.3950   27.0351 C   0  0  0  0  0  0  0  0  0  0  0  0
  -30.3177  -26.5608   24.4200 C   0  0  0  0  0  0  0  0  0  0  0  0
  -31.6350  -16.5321   17.9754 C   0  0  0  0  0  0  0  0  0  0  0  0
  -28.7643  -24.7837   20.1262 C   0  0  0  0  0  0  0  0  0  1  0  0
  -26.6235  -29.8377   25.0906 C   0  0  1  0  0  0  0  0  0  0  0  0
  -29.8755  -28.2444   26.2113 C   0  0  2  0  0  0  0  0  0  0  0  0
  -26.4739  -31.3250   25.5183 C   0  0  0  0  0  0  0  0  0  0  0  0
  -25.6375  -14.3407   20.1810 N   0  0  0  0  0  0  0  0  0  0  0  0
  -26.1093  -13.6071   19.1587 N   0  0  0  0  0  0  0  0  0  0  0  0
  -30.1807  -22.0694   17.8567 N   0  0  0  0  0  0  0  0  0  0  0  0
  -25.1306  -27.9790   24.4272 N   0  0  0  0  0  0  0  0  0  0  0  0
  -29.8692  -13.8183   19.8126 N   0  0  0  0  0  0  0  0  0  0  0  0
  -31.8170  -18.1953   20.3318 N   0  0  0  0  0  0  0  0  0  0  0  0
  -25.4769  -12.5835   17.1184 N   0  0  0  0  0  0  0  0  0  0  0  0
  -21.8654  -12.7941   18.2621 N   0  0  0  0  0  0  0  0  0  0  0  0
  -21.6903  -27.4523   23.3393 N   0  0  0  0  0  0  0  0  0  0  0  0
  -27.6803  -29.1175   25.7927 N   0  0  0  0  0  0  0  0  0  0  0  0
  -30.6331  -15.7115   18.6184 N   0  0  0  0  0  0  0  0  0  0  0  0
  -30.8931  -27.5048   25.4122 N   0  3  0  0  0  0  0  0  0  0  0  0
  -31.5049  -24.5446   15.5528 O   0  0  0  0  0  0  0  0  0  0  0  0
  -29.3240  -22.1032   20.0402 O   0  0  0  0  0  0  0  0  0  0  0  0
  -22.4080  -14.7064   17.1188 O   0  0  0  0  0  0  0  0  0  0  0  0
  -23.4611  -28.8131   22.6800 O   0  0  0  0  0  0  0  0  0  0  0  0
  -24.5990  -29.3587   26.2300 O   0  0  0  0  0  0  0  0  0  0  0  0
  -29.3541  -29.5523   24.2479 O   0  0  0  0  0  0  0  0  0  0  0  0
  -32.1077  -14.0796   19.2660 O   0  0  0  0  0  0  0  0  0  0  0  0
  -20.9892  -17.4364   23.2409 O   0  0  0  0  0  0  0  0  0  0  0  0
  -27.4492  -24.2300   20.1119 O   0  0  0  0  0  0  0  0  0  1  0  0
  -21.5196  -22.9248   23.2636 F   0  0  0  0  0  0  0  0  0  0  0  0
  -18.8684  -19.0692   22.5490 F   0  0  0  0  0  0  0  0  0  0  0  0
  1  2  1  0  0  0  0
  1  5  2  0  0  0  0
  2  6  2  0  0  0  0
  3 10  2  0  0  0  0
  3 18  1  0  0  0  0
  4 11  1  0  0  0  0
  4 18  2  0  0  0  0
  5 20  1  0  0  0  0
  6 22  1  0  0  0  0
  7 12  2  0  0  0  0
  7 21  1  0  0  0  0
  8  9  2  0  0  0  0
  8 24  1  0  0  0  0
  9 25  1  0  0  0  0
 10 27  1  0  0  0  0
 11 27  2  0  0  0  0
 12 28  1  0  0  0  0
 13 14  2  0  0  0  0
 13 29  1  0  0  0  0
 14 30  1  0  0  0  0
 15 23  1  0  0  0  0
 15 28  2  0  0  0  0
 16 25  2  0  0  0  0
 16 26  1  0  0  0  0
 17 30  2  0  0  0  0
 17 31  1  0  0  0  0
 18 32  1  0  0  0  0
 19 32  1  0  0  0  0
 19 33  2  0  0  0  0
 19 36  1  0  0  0  0
 20 22  2  0  0  0  0
 20 41  1  0  0  0  0
 21 23  2  0  0  0  0
 21 42  1  0  0  0  0
 22 53  1  0  0  0  0
 23 43  1  0  0  0  0
 24 26  2  0  0  0  0
 24 62  1  0  0  0  0
 25 69  1  0  0  0  0
 26 72  1  0  0  0  0
 27 86  1  0  0  0  0
 28 87  1  0  0  0  0
 29 31  2  0  0  0  0
 29 86  1  0  0  0  0
 30 88  1  0  0  0  0
 31 89  1  0  0  0  0
 32 67  2  0  0  0  0
 33 68  1  0  0  0  0
 33 73  1  0  0  0  0
 34 44  1  0  0  0  0
 34 45  1  0  0  0  0
 34 79  2  0  0  0  0
 35 54  1  0  0  0  0
 35 69  1  0  0  0  0
 35 80  2  0  0  0  0
 36 74  1  0  0  0  0
 36 81  2  0  0  0  0
 37 55  1  0  0  0  0
 37 75  1  0  0  0  0
 37 82  2  0  0  0  0
 38 64  1  0  0  0  0
 38 70  1  0  0  0  0
 38 83  2  0  0  0  0
 39 65  1  0  0  0  0
 39 76  1  0  0  0  0
 39 84  2  0  0  0  0
 40 71  1  0  0  0  0
 40 77  1  0  0  0  0
 40 85  2  0  0  0  0
 41 46  1  0  0  0  0
 42 55  1  0  0  0  0
 43 70  1  0  0  0  0
 44 47  1  0  0  0  0
 45 69  1  0  0  0  0
 46 49  1  0  0  0  0
 47 54  1  0  0  0  0
 48 50  1  0  0  0  0
 48 51  1  0  0  0  0
 49 53  1  0  0  0  0
 50 56  1  0  0  0  0
 51 71  1  0  0  0  0
 52 56  1  0  0  0  0
 52 71  1  0  0  0  0
 53 75  1  0  0  0  0
 54 63  1  0  0  0  0
 55 70  1  0  0  0  0
 56 68  1  0  0  0  0
 57 65  1  0  0  0  0
 58 66  1  0  0  0  0
 59 66  1  0  0  0  0
 60 66  1  0  0  0  0
 61 78  1  0  0  0  0
 62 77  1  0  0  0  0
 63 87  1  0  0  0  0
 64 66  1  0  0  0  0
 64 76  1  0  0  0  0
 65 78  1  0  0  0  0
 67 68  1  0  0  0  0
M  CHG  1  78   1
M  ISO  4  40 100  63 101  77 100  87 101
M  END
> <Batch ID>
0102

> <Smiles>
CNC(C)C(=O)NC(C(=O)N1Cc2cc([101O:1][101CH2:1]C3CCC(=O)CN(c4ccc(C[100NH:0][100C:0](=O)N5CCCC(n6nc(-c7ccc(Oc8ccc(F)cc8F)cc7)c(C(N)=O)c6N)C5)c(N)c4)C3=O)ccc2CC1C(=O)NC1CCCc2ccccc21)C(C)(C)C

> <Shape>
0.211

> <Color>
0.079

> <Negative vol penalty>
0.000

$$$$

  -OEChem-04052301023D

 84 92  0     1  0  0  0  0  0999 V2000
  -22.4211  -35.4899   15.8255 C   0  0  0  0  0  0  0  0  0  0  0  0
  -23.2108  -34.3445   15.8185 C   0  0  0  0  0  0  0  0  0  0  0  0
  -23.4810  -16.6893   19.5173 C   0  0  0  0  0  0  0  0  0  0  0  0
  -24.4885  -16.0636   21.6222 C   0  0  0  0  0  0  0  0  0  0  0  0
  -22.3921  -36.3084   16.9538 C   0  0  0  0  0  0  0  0  0  0  0  0
  -23.9728  -34.0176   16.9396 C   0  0  0  0  0  0  0  0  0  0  0  0
  -25.2355  -28.3984   19.0219 C   0  0  0  0  0  0  0  0  0  0  0  0
  -22.6629  -15.5610   19.5735 C   0  0  0  0  0  0  0  0  0  0  0  0
  -23.6704  -14.9353   21.6784 C   0  0  0  0  0  0  0  0  0  0  0  0
  -26.3502  -27.5733   18.8781 C   0  0  0  0  0  0  0  0  0  0  0  0
  -23.5790  -11.8527   20.2925 C   0  0  0  0  0  0  0  0  0  0  0  0
  -24.1699  -10.6410   20.6505 C   0  0  0  0  0  0  0  0  0  0  0  0
  -31.6089  -20.2761   21.9396 C   0  0  0  0  0  0  0  0  0  0  0  0
  -31.5735  -18.3633   23.4150 C   0  0  0  0  0  0  0  0  0  0  0  0
  -27.1924  -28.3516   21.0004 C   0  0  0  0  0  0  0  0  0  0  0  0
  -31.4817  -20.5971   24.3309 C   0  0  0  0  0  0  0  0  0  0  0  0
  -22.6933  -10.4842   22.5564 C   0  0  0  0  0  0  0  0  0  0  0  0
  -24.3939  -16.9406   20.5416 C   0  0  0  0  0  0  0  0  0  0  0  0
  -31.6278  -18.8939   22.1262 C   0  0  0  0  0  0  0  0  0  0  0  0
  -24.9597  -19.3857   20.9986 C   0  0  0  0  0  0  0  0  0  0  0  0
  -23.1467  -35.9862   18.0928 C   0  0  0  0  0  0  0  0  0  0  0  0
  -25.0961  -29.2158   20.1527 C   0  0  0  0  0  0  0  0  0  0  0  0
  -23.9550  -34.8333   18.0838 C   0  0  0  0  0  0  0  0  0  0  0  0
  -26.0738  -29.1842   21.1573 C   0  0  0  0  0  0  0  0  0  0  0  0
  -22.7576  -14.6840   20.6540 C   0  0  0  0  0  0  0  0  0  0  0  0
  -27.3302  -27.5520   19.8661 C   0  0  0  0  0  0  0  0  0  0  0  0
  -22.5453  -12.3802   21.0665 C   0  0  0  0  0  0  0  0  0  0  0  0
  -31.5359  -21.1277   23.0420 C   0  0  0  0  0  0  0  0  0  0  0  0
  -23.7270   -9.9567   21.7825 C   0  0  0  0  0  0  0  0  0  0  0  0
  -31.5005  -19.2149   24.5174 C   0  0  0  0  0  0  0  0  0  0  0  0
  -22.1025  -11.6959   22.1984 C   0  0  0  0  0  0  0  0  0  0  0  0
  -25.2396  -18.1057   20.4839 C   0  0  0  0  0  0  0  0  0  0  0  0
  -26.0712  -20.1309   20.6891 C   0  0  0  0  0  0  0  0  0  0  0  0
  -31.7040  -18.0058   20.9769 C   0  0  0  0  0  0  0  0  0  0  0  0
  -23.7988  -19.8588   21.6945 C   0  0  0  0  0  0  0  0  0  0  0  0
  -31.7630  -18.5360   19.5954 C   0  0  0  0  0  0  0  0  0  0  0  0
  -24.9162  -32.3507   20.6461 C   0  0  0  0  0  0  0  0  0  0  0  0
  -24.3292  -31.4421   23.7043 C   0  0  0  0  0  0  0  0  0  0  0  0
  -24.6485  -29.0654   26.1325 C   0  0  0  0  0  0  0  0  0  0  0  0
  -23.1198  -36.9269   19.2714 C   0  0  0  0  0  0  0  0  0  0  0  0
  -23.8747  -30.0802   20.3054 C   0  0  0  0  0  0  0  0  0  0  0  0
  -25.9613  -30.0275   22.4002 C   0  0  0  0  0  0  0  0  0  0  0  0
  -23.6664  -36.3095   20.5561 C   0  0  0  0  0  0  0  0  0  0  0  0
  -29.5972  -20.4627   17.4850 C   0  0  0  0  0  0  0  0  0  0  0  0
  -24.9793  -35.5828   20.2826 C   0  0  0  0  0  0  0  0  0  0  0  0
  -28.2050  -20.1615   18.0390 C   0  0  0  0  0  0  0  0  0  0  0  0
  -30.5159  -19.2502   17.5945 C   0  0  0  0  0  0  0  0  0  0  0  0
  -29.2371  -18.4001   19.5415 C   0  0  0  0  0  0  0  0  0  0  0  0
  -24.7764  -34.4319   19.2897 C   0  0  1  0  0  0  0  0  0  0  0  0
  -24.0887  -31.2545   21.2555 C   0  0  1  0  0  0  0  0  0  0  0  0
  -28.2889  -19.6100   19.4733 C   0  0  2  0  0  0  0  0  0  0  0  0
  -24.1011  -28.6245   28.5415 C   0  0  0  0  0  0  0  0  0  0  0  0
  -26.6078  -33.2837   24.5566 C   0  0  0  0  0  0  0  0  0  0  0  0
  -26.6402  -32.1062   26.7658 C   0  0  0  0  0  0  0  0  0  0  0  0
  -24.6005  -33.3492   26.0468 C   0  0  0  0  0  0  0  0  0  0  0  0
  -22.9699  -26.7274   25.4435 C   0  0  0  0  0  0  0  0  0  0  0  0
  -29.6757  -24.9057   20.6544 C   0  0  0  0  0  0  0  0  0  0  0  0
  -30.3102  -24.3266   21.9141 C   0  0  0  0  0  0  0  0  0  0  0  0
  -29.0162  -26.2514   20.9254 C   0  0  0  0  0  0  0  0  0  1  0  0
  -30.9322  -22.9620   21.6539 C   0  0  0  0  0  0  0  0  0  0  0  0
  -25.1812  -31.1624   24.9187 C   0  0  1  0  0  0  0  0  0  0  0  0
  -23.6405  -28.4723   27.1002 C   0  0  2  0  0  0  0  0  0  0  0  0
  -25.7608  -32.4608   25.5478 C   0  0  0  0  0  0  0  0  0  0  0  0
  -26.4351  -18.0380   19.8921 N   0  0  0  0  0  0  0  0  0  0  0  0
  -31.7276  -16.7042   21.0775 N   0  0  0  0  0  0  0  0  0  0  0  0
  -26.9162  -19.2849   20.0330 N   0  0  0  0  0  0  0  0  0  0  0  0
  -30.5444  -18.7302   18.9601 N   0  0  0  0  0  0  0  0  0  0  0  0
  -24.7517  -30.8608   22.5003 N   0  0  0  0  0  0  0  0  0  0  0  0
  -26.3983  -21.4207   20.9167 N   0  0  0  0  0  0  0  0  0  0  0  0
  -22.7486  -18.9610   21.9295 N   0  0  0  0  0  0  0  0  0  0  0  0
  -24.1799  -33.2920   19.9523 N   0  0  0  0  0  0  0  0  0  0  0  0
  -24.3524  -30.3769   25.8267 N   0  0  0  0  0  0  0  0  0  0  0  0
  -23.4450  -27.0217   26.8200 N   0  3  0  0  0  0  0  0  0  0  0  0
  -23.6890  -21.0470   22.0815 O   0  0  0  0  0  0  0  0  0  0  0  0
  -32.8870  -18.7469   19.1590 O   0  0  0  0  0  0  0  0  0  0  0  0
  -26.1324  -32.3440   20.7957 O   0  0  0  0  0  0  0  0  0  0  0  0
  -23.3218  -32.1443   23.8210 O   0  0  0  0  0  0  0  0  0  0  0  0
  -25.6053  -28.4301   25.6948 O   0  0  0  0  0  0  0  0  0  0  0  0
  -21.9592  -13.5830   20.7093 O   0  0  0  0  0  0  0  0  0  0  0  0
  -28.4195  -26.7481   19.7280 O   0  0  0  0  0  0  0  0  0  1  0  0
  -31.5168  -22.4860   22.8584 O   0  0  0  0  0  0  0  0  0  0  0  0
  -24.2935   -8.7923   22.1253 F   0  0  0  0  0  0  0  0  0  0  0  0
  -31.4488  -18.7055   25.7551 F   0  0  0  0  0  0  0  0  0  0  0  0
  -21.1091  -12.1971   22.9452 F   0  0  0  0  0  0  0  0  0  0  0  0
  1  2  1  0  0  0  0
  1  5  2  0  0  0  0
  2  6  2  0  0  0  0
  3  8  2  0  0  0  0
  3 18  1  0  0  0  0
  4  9  1  0  0  0  0
  4 18  2  0  0  0  0
  5 21  1  0  0  0  0
  6 23  1  0  0  0  0
  7 10  2  0  0  0  0
  7 22  1  0  0  0  0
  8 25  1  0  0  0  0
  9 25  2  0  0  0  0
 10 26  1  0  0  0  0
 11 12  2  0  0  0  0
 11 27  1  0  0  0  0
 12 29  1  0  0  0  0
 13 19  1  0  0  0  0
 13 28  2  0  0  0  0
 14 19  2  0  0  0  0
 14 30  1  0  0  0  0
 15 24  1  0  0  0  0
 15 26  2  0  0  0  0
 16 28  1  0  0  0  0
 16 30  2  0  0  0  0
 17 29  2  0  0  0  0
 17 31  1  0  0  0  0
 18 32  1  0  0  0  0
 19 34  1  0  0  0  0
 20 32  1  0  0  0  0
 20 33  2  0  0  0  0
 20 35  1  0  0  0  0
 21 23  2  0  0  0  0
 21 40  1  0  0  0  0
 22 24  2  0  0  0  0
 22 41  1  0  0  0  0
 23 49  1  0  0  0  0
 24 42  1  0  0  0  0
 25 79  1  0  0  0  0
 26 80  1  0  0  0  0
 27 31  2  0  0  0  0
 27 79  1  0  0  0  0
 28 81  1  0  0  0  0
 29 82  1  0  0  0  0
 30 83  1  0  0  0  0
 31 84  1  0  0  0  0
 32 64  2  0  0  0  0
 33 66  1  0  0  0  0
 33 69  1  0  0  0  0
 34 36  1  0  0  0  0
 34 65  2  0  0  0  0
 35 70  1  0  0  0  0
 35 74  2  0  0  0  0
 36 67  1  0  0  0  0
 36 75  2  0  0  0  0
 37 50  1  0  0  0  0
 37 71  1  0  0  0  0
 37 76  2  0  0  0  0
 38 61  1  0  0  0  0
 38 68  1  0  0  0  0
 38 77  2  0  0  0  0
 39 62  1  0  0  0  0
 39 72  1  0  0  0  0
 39 78  2  0  0  0  0
 40 43  1  0  0  0  0
 41 50  1  0  0  0  0
 42 68  1  0  0  0  0
 43 45  1  0  0  0  0
 44 46  1  0  0  0  0
 44 47  1  0  0  0  0
 45 49  1  0  0  0  0
 46 51  1  0  0  0  0
 47 67  1  0  0  0  0
 48 51  1  0  0  0  0
 48 67  1  0  0  0  0
 49 71  1  0  0  0  0
 50 68  1  0  0  0  0
 51 66  1  0  0  0  0
 52 62  1  0  0  0  0
 53 63  1  0  0  0  0
 54 63  1  0  0  0  0
 55 63  1  0  0  0  0
 56 73  1  0  0  0  0
 57 58  1  0  0  0  0
 57 59  1  0  0  0  0
 58 60  1  0  0  0  0
 59 80  1  0  0  0  0
 60 81  1  0  0  0  0
 61 63  1  0  0  0  0
 61 72  1  0  0  0  0
 62 73  1  0  0  0  0
 64 66  1  0  0  0  0
M  CHG  1  73   1
M  ISO  4  34 100  36 100  59 101  80 101
M  END
> <Batch ID>
0102

> <Smiles>
CNC(C)C(=O)NC(C(=O)N1Cc2cc([101O:1][101CH2:1]CCCOc3cc(F)cc([100C:0](=N)[100C:0](=O)N4CCCC(n5nc(-c6ccc(Oc7ccc(F)cc7F)cc6)c(C(N)=O)c5N)C4)c3)ccc2CC1C(=O)NC1CCCc2ccccc21)C(C)(C)C

> <Shape>
0.209

> <Color>
0.080

> <Negative vol penalty>
0.000

$$$$

  -OEChem-04052301023D

 82 90  0     1  0  0  0  0  0999 V2000
  -27.4023  -33.7351   26.5938 C   0  0  0  0  0  0  0  0  0  0  0  0
  -27.7199  -32.6140   25.8337 C   0  0  0  0  0  0  0  0  0  0  0  0
  -30.6614  -21.6211   22.4935 C   0  0  0  0  0  0  0  0  0  0  0  0
  -23.4400  -13.8567   20.5693 C   0  0  0  0  0  0  0  0  0  0  0  0
  -25.2972  -14.2156   22.0723 C   0  0  0  0  0  0  0  0  0  0  0  0
  -26.0773  -33.9810   26.9513 C   0  0  0  0  0  0  0  0  0  0  0  0
  -26.7126  -31.7375   25.4315 C   0  0  0  0  0  0  0  0  0  0  0  0
  -27.1463  -30.3775   20.5728 C   0  0  0  0  0  0  0  0  0  0  0  0
  -31.3422  -22.4404   21.5931 C   0  0  0  0  0  0  0  0  0  0  0  0
  -29.3311  -21.2762   22.2542 C   0  0  0  0  0  0  0  0  0  0  0  0
  -23.8470  -12.5358   20.3818 C   0  0  0  0  0  0  0  0  0  0  0  0
  -25.7042  -12.8947   21.8849 C   0  0  0  0  0  0  0  0  0  0  0  0
  -28.1014  -29.4095   20.2654 C   0  0  0  0  0  0  0  0  0  0  0  0
  -23.6421   -9.6047   22.0551 C   0  0  0  0  0  0  0  0  0  0  0  0
  -22.6632   -8.6122   22.1004 C   0  0  0  0  0  0  0  0  0  0  0  0
  -26.3697  -27.7315   20.1965 C   0  0  0  0  0  0  0  0  0  0  0  0
  -29.3626  -22.5703   20.2143 C   0  0  0  0  0  0  0  0  0  0  0  0
  -23.2088   -7.9708   19.8358 C   0  0  0  0  0  0  0  0  0  0  0  0
  -24.1651  -14.6966   21.4146 C   0  0  0  0  0  0  0  0  0  0  0  0
  -22.8590  -16.5473   22.5879 C   0  0  0  0  0  0  0  0  0  0  0  0
  -25.0521  -33.1123   26.5452 C   0  0  0  0  0  0  0  0  0  0  0  0
  -25.7949  -30.0272   20.7054 C   0  0  0  0  0  0  0  0  0  0  0  0
  -25.3728  -31.9714   25.7851 C   0  0  0  0  0  0  0  0  0  0  0  0
  -25.3991  -28.6974   20.5031 C   0  0  0  0  0  0  0  0  0  0  0  0
  -30.6928  -22.9151   20.4535 C   0  0  0  0  0  0  0  0  0  0  0  0
  -28.6817  -21.7508   21.1146 C   0  0  0  0  0  0  0  0  0  0  0  0
  -24.9790  -12.0548   21.0396 C   0  0  0  0  0  0  0  0  0  0  0  0
  -27.7136  -28.0857   20.0800 C   0  0  0  0  0  0  0  0  0  0  0  0
  -24.4043   -9.7805   20.9002 C   0  0  0  0  0  0  0  0  0  0  0  0
  -22.4465   -7.7952   20.9908 C   0  0  0  0  0  0  0  0  0  0  0  0
  -24.1877   -8.9635   19.7905 C   0  0  0  0  0  0  0  0  0  0  0  0
  -23.7455  -16.0614   21.6082 C   0  0  0  0  0  0  0  0  0  0  0  0
  -22.7914  -17.8984   22.3500 C   0  0  0  0  0  0  0  0  0  0  0  0
  -22.1592  -15.8406   23.6206 C   0  0  0  0  0  0  0  0  0  0  0  0
  -23.6713  -30.1341   23.0681 C   0  0  0  0  0  0  0  0  0  0  0  0
  -21.6149  -29.2001   20.7397 C   0  0  0  0  0  0  0  0  0  0  0  0
  -21.1541  -27.6703   17.7241 C   0  0  0  0  0  0  0  0  0  0  0  0
  -26.5392  -21.7850   19.7900 C   0  0  0  0  0  0  0  0  0  0  0  0
  -23.6407  -33.3942   26.9960 C   0  0  0  0  0  0  0  0  0  0  0  0
  -24.7733  -31.0880   21.0110 C   0  0  0  0  0  0  0  0  0  0  0  0
  -23.9581  -28.2733   20.6142 C   0  0  0  0  0  0  0  0  0  0  0  0
  -22.5848  -32.6182   26.2130 C   0  0  0  0  0  0  0  0  0  0  0  0
  -23.1843  -21.1021   18.8123 C   0  0  0  0  0  0  0  0  0  0  0  0
  -22.9877  -31.1530   26.0808 C   0  0  0  0  0  0  0  0  0  0  0  0
  -22.8648  -19.7793   19.5124 C   0  0  0  0  0  0  0  0  0  0  0  0
  -24.6323  -21.1521   18.3277 C   0  0  0  0  0  0  0  0  0  0  0  0
  -25.3212  -19.5350   20.0539 C   0  0  0  0  0  0  0  0  0  0  0  0
  -24.3050  -31.0106   25.3088 C   0  0  1  0  0  0  0  0  0  0  0  0
  -23.4960  -30.5272   21.6285 C   0  0  1  0  0  0  0  0  0  0  0  0
  -23.8924  -19.4637   20.6169 C   0  0  2  0  0  0  0  0  0  0  0  0
  -19.3560  -27.0252   16.0968 C   0  0  0  0  0  0  0  0  0  0  0  0
  -20.7999  -26.8906   22.5596 C   0  0  0  0  0  0  0  0  0  0  0  0
  -19.7590  -25.7823   20.5706 C   0  0  0  0  0  0  0  0  0  0  0  0
  -18.9032  -27.9898   21.3561 C   0  0  0  0  0  0  0  0  0  0  0  0
  -22.3277  -29.3453   15.5849 C   0  0  0  0  0  0  0  0  0  0  0  0
  -30.6376  -25.9962   20.5302 C   0  0  0  0  0  0  0  0  0  0  0  0
  -30.7664  -25.1720   19.2410 C   0  0  0  0  0  0  0  0  0  0  0  0
  -29.9628  -27.3412   20.2863 C   0  0  0  0  0  0  0  0  0  1  0  0
  -31.4318  -23.8038   19.4772 C   0  0  2  0  0  0  0  0  0  0  0  0
  -21.1468  -27.8716   20.1967 C   0  0  1  0  0  0  0  0  0  0  0  0
  -20.3703  -28.0869   16.4926 C   0  0  2  0  0  0  0  0  0  0  0  0
  -20.1797  -27.1409   21.1705 C   0  0  0  0  0  0  0  0  0  0  0  0
  -24.2078  -17.0253   20.8075 N   0  0  0  0  0  0  0  0  0  0  0  0
  -23.6095  -18.1305   21.2837 N   0  0  0  0  0  0  0  0  0  0  0  0
  -22.9976  -29.3460   20.9210 N   0  0  0  0  0  0  0  0  0  0  0  0
  -25.5489  -20.8472   19.4285 N   0  0  0  0  0  0  0  0  0  0  0  0
  -22.1126  -18.8986   22.9511 N   0  0  0  0  0  0  0  0  0  0  0  0
  -22.3423  -14.4550   23.7241 N   0  0  0  0  0  0  0  0  0  0  0  0
  -27.3306  -21.3998   20.8716 N   0  0  0  0  0  0  0  0  0  0  0  0
  -24.0780  -31.1691   23.8884 N   0  0  0  0  0  0  0  0  0  0  0  0
  -20.5765  -28.1460   18.8822 N   0  0  0  0  0  0  0  0  0  0  0  0
  -31.5970  -23.1431   18.1412 N   0  3  0  0  0  0  0  0  0  0  0  0
  -21.2919  -28.3084   15.3425 N   0  3  0  0  0  0  0  0  0  0  0  0
  -21.3814  -16.4183   24.4175 O   0  0  0  0  0  0  0  0  0  0  0  0
  -23.4522  -28.9778   23.4096 O   0  0  0  0  0  0  0  0  0  0  0  0
  -20.7851  -30.0786   20.9870 O   0  0  0  0  0  0  0  0  0  0  0  0
  -22.1745  -26.9878   17.6648 O   0  0  0  0  0  0  0  0  0  0  0  0
  -26.6575  -22.8631   19.2020 O   0  0  0  0  0  0  0  0  0  0  0  0
  -25.3764  -10.7658   20.8571 O   0  0  0  0  0  0  0  0  0  0  0  0
  -28.6439  -27.1388   19.7806 O   0  0  0  0  0  0  0  0  0  1  0  0
  -21.5075   -6.8410   21.0349 F   0  0  0  0  0  0  0  0  0  0  0  0
  -24.9176   -9.1267   18.6786 F   0  0  0  0  0  0  0  0  0  0  0  0
  1  2  1  0  0  0  0
  1  6  2  0  0  0  0
  2  7  2  0  0  0  0
  3  9  2  0  0  0  0
  3 10  1  0  0  0  0
  4 11  2  0  0  0  0
  4 19  1  0  0  0  0
  5 12  1  0  0  0  0
  5 19  2  0  0  0  0
  6 21  1  0  0  0  0
  7 23  1  0  0  0  0
  8 13  2  0  0  0  0
  8 22  1  0  0  0  0
  9 25  1  0  0  0  0
 10 26  2  0  0  0  0
 11 27  1  0  0  0  0
 12 27  2  0  0  0  0
 13 28  1  0  0  0  0
 14 15  2  0  0  0  0
 14 29  1  0  0  0  0
 15 30  1  0  0  0  0
 16 24  1  0  0  0  0
 16 28  2  0  0  0  0
 17 25  2  0  0  0  0
 17 26  1  0  0  0  0
 18 30  2  0  0  0  0
 18 31  1  0  0  0  0
 19 32  1  0  0  0  0
 20 32  1  0  0  0  0
 20 33  2  0  0  0  0
 20 34  1  0  0  0  0
 21 23  2  0  0  0  0
 21 39  1  0  0  0  0
 22 24  2  0  0  0  0
 22 40  1  0  0  0  0
 23 48  1  0  0  0  0
 24 41  1  0  0  0  0
 25 59  1  0  0  0  0
 26 69  1  0  0  0  0
 27 79  1  0  0  0  0
 28 80  1  0  0  0  0
 29 31  2  0  0  0  0
 29 79  1  0  0  0  0
 30 81  1  0  0  0  0
 31 82  1  0  0  0  0
 32 63  2  0  0  0  0
 33 64  1  0  0  0  0
 33 67  1  0  0  0  0
 34 68  1  0  0  0  0
 34 74  2  0  0  0  0
 35 49  1  0  0  0  0
 35 70  1  0  0  0  0
 35 75  2  0  0  0  0
 36 60  1  0  0  0  0
 36 65  1  0  0  0  0
 36 76  2  0  0  0  0
 37 61  1  0  0  0  0
 37 71  1  0  0  0  0
 37 77  2  0  0  0  0
 38 66  1  0  0  0  0
 38 69  1  0  0  0  0
 38 78  2  0  0  0  0
 39 42  1  0  0  0  0
 40 49  1  0  0  0  0
 41 65  1  0  0  0  0
 42 44  1  0  0  0  0
 43 45  1  0  0  0  0
 43 46  1  0  0  0  0
 44 48  1  0  0  0  0
 45 50  1  0  0  0  0
 46 66  1  0  0  0  0
 47 50  1  0  0  0  0
 47 66  1  0  0  0  0
 48 70  1  0  0  0  0
 49 65  1  0  0  0  0
 50 64  1  0  0  0  0
 51 61  1  0  0  0  0
 52 62  1  0  0  0  0
 53 62  1  0  0  0  0
 54 62  1  0  0  0  0
 55 73  1  0  0  0  0
 56 57  1  0  0  0  0
 56 58  1  0  0  0  0
 57 59  1  0  0  0  0
 58 80  1  0  0  0  0
 59 72  1  0  0  0  0
 60 62  1  0  0  0  0
 60 71  1  0  0  0  0
 61 73  1  0  0  0  0
 63 64  1  0  0  0  0
M  CHG  2  72   1  73   1
M  ISO  4  38 100  58 101  69 100  80 101
M  END
> <Batch ID>
0102

> <Smiles>
CNC(C)C(=O)NC(C(=O)N1Cc2cc([101O:1][101CH2:1]CCC(N)c3cccc([100NH:0][100C:0](=O)N4CCCC(n5nc(-c6ccc(Oc7ccc(F)cc7F)cc6)c(C(N)=O)c5N)C4)c3)ccc2CC1C(=O)NC1CCCc2ccccc21)C(C)(C)C

> <Shape>
0.259

> <Color>
0.078

> <Negative vol penalty>
0.000

$$$$

  -OEChem-04052301023D

 87 96  0     1  0  0  0  0  0999 V2000
  -20.6571  -14.4054   18.4703 C   0  0  0  0  0  0  0  0  0  0  0  0
  -21.4718  -15.5330   18.4643 C   0  0  0  0  0  0  0  0  0  0  0  0
  -25.3842  -26.7909   21.1145 C   0  0  0  0  0  0  0  0  0  0  0  0
  -26.0695  -29.0804   20.7599 C   0  0  0  0  0  0  0  0  0  0  0  0
  -20.9480  -13.3412   19.3228 C   0  0  0  0  0  0  0  0  0  0  0  0
  -22.5773  -15.5976   19.3117 C   0  0  0  0  0  0  0  0  0  0  0  0
  -26.7169  -17.3438   16.9752 C   0  0  0  0  0  0  0  0  0  0  0  0
  -29.0510  -22.9007   18.6526 C   0  0  0  0  0  0  0  0  0  0  0  0
  -30.3077  -22.8840   19.2577 C   0  0  0  0  0  0  0  0  0  0  0  0
  -24.4085  -27.2221   22.0132 C   0  0  0  0  0  0  0  0  0  0  0  0
  -25.0937  -29.5116   21.6585 C   0  0  0  0  0  0  0  0  0  0  0  0
  -26.8007  -18.7207   16.7728 C   0  0  0  0  0  0  0  0  0  0  0  0
  -21.3224  -28.5962   21.8694 C   0  0  0  0  0  0  0  0  0  0  0  0
  -20.0479  -28.0405   21.7584 C   0  0  0  0  0  0  0  0  0  0  0  0
  -28.2541  -18.9078   18.6890 C   0  0  0  0  0  0  0  0  0  0  0  0
  -28.0055  -23.0228   20.8272 C   0  0  0  0  0  0  0  0  0  0  0  0
  -20.2206  -27.1936   24.0145 C   0  0  0  0  0  0  0  0  0  0  0  0
  -26.2148  -27.7200   20.4879 C   0  0  0  0  0  0  0  0  0  0  0  0
  -27.0825  -27.1022   18.1699 C   0  0  0  0  0  0  0  0  0  0  0  0
  -22.0631  -13.3887   20.1741 C   0  0  0  0  0  0  0  0  0  0  0  0
  -27.3934  -16.7391   18.0443 C   0  0  0  0  0  0  0  0  0  0  0  0
  -22.8826  -14.5336   20.1774 C   0  0  0  0  0  0  0  0  0  0  0  0
  -28.1793  -17.5228   18.9013 C   0  0  0  0  0  0  0  0  0  0  0  0
  -29.2621  -23.0060   21.4323 C   0  0  0  0  0  0  0  0  0  0  0  0
  -27.8999  -22.9702   19.4373 C   0  0  0  0  0  0  0  0  0  0  0  0
  -30.4132  -22.9366   20.6475 C   0  0  0  0  0  0  0  0  0  0  0  0
  -24.2632  -28.5824   22.2852 C   0  0  0  0  0  0  0  0  0  0  0  0
  -27.5671  -19.5033   17.6314 C   0  0  0  0  0  0  0  0  0  0  0  0
  -22.0461  -28.4506   23.0529 C   0  0  0  0  0  0  0  0  0  0  0  0
  -19.4970  -27.3392   22.8309 C   0  0  0  0  0  0  0  0  0  0  0  0
  -21.4952  -27.7493   24.1255 C   0  0  0  0  0  0  0  0  0  0  0  0
  -27.2233  -27.2752   19.5599 C   0  0  0  0  0  0  0  0  0  0  0  0
  -28.3167  -26.6688   17.7511 C   0  0  0  0  0  0  0  0  0  0  0  0
  -25.3662  -23.0581   19.4789 C   0  0  0  0  0  0  0  0  0  0  0  0
  -25.9384  -27.3143   17.3322 C   0  0  0  0  0  0  0  0  0  0  0  0
  -26.5081  -15.0955   20.6169 C   0  0  0  0  0  0  0  0  0  0  0  0
  -29.7068  -14.7055   20.9889 C   0  0  0  0  0  0  0  0  0  0  0  0
  -32.8584  -15.8491   20.3513 C   0  0  0  0  0  0  0  0  0  0  0  0
  -32.7015  -23.8999   21.0039 C   0  0  0  0  0  0  0  0  0  0  0  0
  -22.3102  -12.2336   21.1120 C   0  0  0  0  0  0  0  0  0  0  0  0
  -27.3143  -15.2490   18.2332 C   0  0  0  0  0  0  0  0  0  0  0  0
  -28.9413  -16.9194   20.0518 C   0  0  0  0  0  0  0  0  0  0  0  0
  -24.2869  -23.0744   18.4224 C   0  0  0  0  0  0  0  0  0  0  0  0
  -23.7149  -12.2238   21.7094 C   0  0  0  0  0  0  0  0  0  0  0  0
  -25.0286  -23.4902   17.1662 C   0  0  0  0  0  0  0  0  0  0  0  0
  -32.9631  -26.8972   18.8497 C   0  0  0  0  0  0  0  0  0  0  0  0
  -24.0909  -13.6140   22.2122 C   0  0  0  0  0  0  0  0  0  0  0  0
  -31.5129  -27.3650   18.7416 C   0  0  0  0  0  0  0  0  0  0  0  0
  -33.2262  -26.1665   20.1629 C   0  0  0  0  0  0  0  0  0  0  0  0
  -30.8468  -25.4861   20.2933 C   0  0  0  0  0  0  0  0  0  0  0  0
  -24.1050  -14.6307   21.0642 C   0  0  1  0  0  0  0  0  0  0  0  0
  -27.6304  -14.8099   19.6596 C   0  0  1  0  0  0  0  0  0  0  0  0
  -30.5461  -26.1897   18.9614 C   0  0  1  0  0  0  0  0  0  0  0  0
  -26.4292  -22.9226   17.3682 C   0  0  2  0  0  0  0  0  0  0  0  0
  -29.3458  -23.0655   22.9230 C   0  0  0  0  0  0  0  0  0  0  0  0
  -32.5906  -20.6308   20.9803 C   0  0  0  0  0  0  0  0  0  0  0  0
  -35.2708  -15.3406   20.8196 C   0  0  0  0  0  0  0  0  0  0  0  0
  -29.3838  -15.7936   23.8211 C   0  0  0  0  0  0  0  0  0  0  0  0
  -31.8603  -16.1542   23.8903 C   0  0  0  0  0  0  0  0  0  0  0  0
  -30.9443  -13.8495   23.6221 C   0  0  0  0  0  0  0  0  0  0  0  0
  -33.4642  -15.5034   17.4751 C   0  0  0  0  0  0  0  0  0  0  0  0
  -26.5222  -21.4885   16.8420 C   0  0  0  0  0  0  0  0  0  1  0  0
  -32.1386  -21.7043   21.9496 C   0  0  0  0  0  0  0  0  0  0  0  0
  -30.8031  -15.4721   21.6884 C   0  0  1  0  0  0  0  0  0  0  0  0
  -34.1075  -15.1393   19.8609 C   0  0  2  0  0  0  0  0  0  0  0  0
  -30.7321  -15.3293   23.2351 C   0  0  0  0  0  0  0  0  0  0  0  0
  -28.4501  -26.9759   19.9951 N   0  0  0  0  0  0  0  0  0  0  0  0
  -29.0914  -26.6105   18.8721 N   0  0  0  0  0  0  0  0  0  0  0  0
  -26.6100  -22.9902   18.8157 N   0  0  0  0  0  0  0  0  0  0  0  0
  -28.8271  -15.4589   20.1987 N   0  0  0  0  0  0  0  0  0  0  0  0
  -32.2611  -25.0890   20.3874 N   0  0  0  0  0  0  0  0  0  0  0  0
  -28.8040  -26.3357   16.5371 N   0  0  0  0  0  0  0  0  0  0  0  0
  -24.7497  -27.7612   17.9253 N   0  0  0  0  0  0  0  0  0  0  0  0
  -25.3127  -14.4900   20.2793 N   0  0  0  0  0  0  0  0  0  0  0  0
  -32.0587  -15.0146   21.1031 N   0  0  0  0  0  0  0  0  0  0  0  0
  -31.7221  -22.9199   21.2538 N   0  0  0  0  0  0  0  0  0  0  0  0
  -34.5065  -15.6585   18.5222 N   0  3  0  0  0  0  0  0  0  0  0  0
  -25.1073  -23.0728   20.6736 O   0  0  0  0  0  0  0  0  0  0  0  0
  -25.9646  -27.0979   16.0969 O   0  0  0  0  0  0  0  0  0  0  0  0
  -26.7119  -15.8110   21.5907 O   0  0  0  0  0  0  0  0  0  0  0  0
  -29.6380  -13.4822   21.1323 O   0  0  0  0  0  0  0  0  0  0  0  0
  -32.6181  -17.0271   20.0962 O   0  0  0  0  0  0  0  0  0  0  0  0
  -33.8763  -23.7430   21.3587 O   0  0  0  0  0  0  0  0  0  0  0  0
  -23.3110  -29.0036   23.1619 O   0  0  0  0  0  0  0  0  0  0  0  0
  -27.6501  -20.8476   17.4365 O   0  0  0  0  0  0  0  0  0  1  0  0
  -18.2724  -26.8069   22.7247 F   0  0  0  0  0  0  0  0  0  0  0  0
  -22.1852  -27.6071   25.2655 F   0  0  0  0  0  0  0  0  0  0  0  0
  1  2  1  0  0  0  0
  1  5  2  0  0  0  0
  2  6  2  0  0  0  0
  3 10  2  0  0  0  0
  3 18  1  0  0  0  0
  4 11  1  0  0  0  0
  4 18  2  0  0  0  0
  5 20  1  0  0  0  0
  6 22  1  0  0  0  0
  7 12  2  0  0  0  0
  7 21  1  0  0  0  0
  8  9  2  0  0  0  0
  8 25  1  0  0  0  0
  9 26  1  0  0  0  0
 10 27  1  0  0  0  0
 11 27  2  0  0  0  0
 12 28  1  0  0  0  0
 13 14  2  0  0  0  0
 13 29  1  0  0  0  0
 14 30  1  0  0  0  0
 15 23  1  0  0  0  0
 15 28  2  0  0  0  0
 16 24  1  0  0  0  0
 16 25  2  0  0  0  0
 17 30  2  0  0  0  0
 17 31  1  0  0  0  0
 18 32  1  0  0  0  0
 19 32  1  0  0  0  0
 19 33  2  0  0  0  0
 19 35  1  0  0  0  0
 20 22  2  0  0  0  0
 20 40  1  0  0  0  0
 21 23  2  0  0  0  0
 21 41  1  0  0  0  0
 22 51  1  0  0  0  0
 23 42  1  0  0  0  0
 24 26  2  0  0  0  0
 24 55  1  0  0  0  0
 25 69  1  0  0  0  0
 26 76  1  0  0  0  0
 27 84  1  0  0  0  0
 28 85  1  0  0  0  0
 29 31  2  0  0  0  0
 29 84  1  0  0  0  0
 30 86  1  0  0  0  0
 31 87  1  0  0  0  0
 32 67  2  0  0  0  0
 33 68  1  0  0  0  0
 33 72  1  0  0  0  0
 34 43  1  0  0  0  0
 34 69  1  0  0  0  0
 34 78  2  0  0  0  0
 35 73  1  0  0  0  0
 35 79  2  0  0  0  0
 36 52  1  0  0  0  0
 36 74  1  0  0  0  0
 36 80  2  0  0  0  0
 37 64  1  0  0  0  0
 37 70  1  0  0  0  0
 37 81  2  0  0  0  0
 38 65  1  0  0  0  0
 38 75  1  0  0  0  0
 38 82  2  0  0  0  0
 39 71  1  0  0  0  0
 39 76  1  0  0  0  0
 39 83  2  0  0  0  0
 40 44  1  0  0  0  0
 41 52  1  0  0  0  0
 42 70  1  0  0  0  0
 43 45  1  0  0  0  0
 44 47  1  0  0  0  0
 45 54  1  0  0  0  0
 46 48  1  0  0  0  0
 46 49  1  0  0  0  0
 47 51  1  0  0  0  0
 48 53  1  0  0  0  0
 49 71  1  0  0  0  0
 50 53  1  0  0  0  0
 50 71  1  0  0  0  0
 51 74  1  0  0  0  0
 52 70  1  0  0  0  0
 53 68  1  0  0  0  0
 54 62  1  0  0  0  0
 54 69  1  0  0  0  0
 56 63  1  0  0  0  0
 57 65  1  0  0  0  0
 58 66  1  0  0  0  0
 59 66  1  0  0  0  0
 60 66  1  0  0  0  0
 61 77  1  0  0  0  0
 62 85  1  0  0  0  0
 63 76  1  0  0  0  0
 64 66  1  0  0  0  0
 64 75  1  0  0  0  0
 65 77  1  0  0  0  0
 67 68  1  0  0  0  0
M  CHG  1  77   1
M  ISO  4  39 100  62 101  76 100  85 101
M  END
> <Batch ID>
0102

> <Smiles>
CC[100N:0](c1ccc(N2C(=O)CCC2[101CH2:1][101O:1]c2ccc3c(c2)CN(C(=O)C(NC(=O)C(C)NC)C(C)(C)C)C(C(=O)NC2CCCc4ccccc42)C3)cc1C)[100C:0](=O)N1CCCC(n2nc(-c3ccc(Oc4ccc(F)cc4F)cc3)c(C(N)=O)c2N)C1

> <Shape>
0.223

> <Color>
0.053

> <Negative vol penalty>
0.000

$$$$

  -OEChem-04052301023D

 86 94  0     1  0  0  0  0  0999 V2000
  -16.9243  -30.6308   23.1208 C   0  0  0  0  0  0  0  0  0  0  0  0
  -18.2388  -30.9464   23.4491 C   0  0  0  0  0  0  0  0  0  0  0  0
  -22.1092  -14.9562   20.8898 C   0  0  0  0  0  0  0  0  0  0  0  0
  -23.5324  -16.9027   20.7373 C   0  0  0  0  0  0  0  0  0  0  0  0
  -31.3941  -22.5150   17.8093 C   0  0  0  0  0  0  0  0  0  0  0  0
  -16.5230  -29.2969   23.0607 C   0  0  0  0  0  0  0  0  0  0  0  0
  -19.1526  -29.9282   23.7187 C   0  0  0  0  0  0  0  0  0  0  0  0
  -25.1904  -29.2443   19.8498 C   0  0  0  0  0  0  0  0  0  0  0  0
  -21.1892  -15.6877   21.6408 C   0  0  0  0  0  0  0  0  0  0  0  0
  -22.6123  -17.6342   21.4883 C   0  0  0  0  0  0  0  0  0  0  0  0
  -31.7009  -21.2222   18.2335 C   0  0  0  0  0  0  0  0  0  0  0  0
  -26.4676  -29.1747   19.2929 C   0  0  0  0  0  0  0  0  0  0  0  0
  -19.6613  -19.1982   20.9729 C   0  0  0  0  0  0  0  0  0  0  0  0
  -19.3409  -20.4818   20.5310 C   0  0  0  0  0  0  0  0  0  0  0  0
  -29.0433  -22.0652   18.1389 C   0  0  0  0  0  0  0  0  0  0  0  0
  -26.9384  -27.1914   20.5941 C   0  0  0  0  0  0  0  0  0  0  0  0
  -20.1477  -21.4006   22.6147 C   0  0  0  0  0  0  0  0  0  0  0  0
  -23.2809  -15.5637   20.4380 C   0  0  0  0  0  0  0  0  0  0  0  0
  -30.0652  -22.9366   17.7621 C   0  0  0  0  0  0  0  0  0  0  0  0
  -24.0092  -14.1781   18.4238 C   0  0  0  0  0  0  0  0  0  0  0  0
  -17.4347  -28.2615   23.3201 C   0  0  0  0  0  0  0  0  0  0  0  0
  -24.7764  -28.2777   20.7704 C   0  0  0  0  0  0  0  0  0  0  0  0
  -18.7628  -28.5792   23.6633 C   0  0  0  0  0  0  0  0  0  0  0  0
  -25.6558  -27.2488   21.1458 C   0  0  0  0  0  0  0  0  0  0  0  0
  -21.4407  -17.0267   21.9401 C   0  0  0  0  0  0  0  0  0  0  0  0
  -27.3395  -28.1509   19.6644 C   0  0  0  0  0  0  0  0  0  0  0  0
  -20.2248  -19.0157   22.2358 C   0  0  0  0  0  0  0  0  0  0  0  0
  -30.6790  -20.3508   18.6103 C   0  0  0  0  0  0  0  0  0  0  0  0
  -19.5841  -21.5830   21.3518 C   0  0  0  0  0  0  0  0  0  0  0  0
  -29.3502  -20.7723   18.5631 C   0  0  0  0  0  0  0  0  0  0  0  0
  -20.4680  -20.1169   23.0566 C   0  0  0  0  0  0  0  0  0  0  0  0
  -24.2319  -14.8084   19.6627 C   0  0  0  0  0  0  0  0  0  0  0  0
  -25.2155  -13.6011   18.1103 C   0  0  0  0  0  0  0  0  0  0  0  0
  -29.7365  -24.3200   17.3078 C   0  0  0  0  0  0  0  0  0  0  0  0
  -22.8183  -14.1195   17.6274 C   0  0  0  0  0  0  0  0  0  0  0  0
  -22.0360  -27.0015   22.9926 C   0  0  0  0  0  0  0  0  0  0  0  0
  -30.8393  -14.8976   19.7849 C   0  0  0  0  0  0  0  0  0  0  0  0
  -23.3500  -24.5492   21.7003 C   0  0  0  0  0  0  0  0  0  0  0  0
  -24.3638  -22.5164   19.5225 C   0  0  0  0  0  0  0  0  0  0  0  0
  -16.9426  -26.8362   23.2892 C   0  0  0  0  0  0  0  0  0  0  0  0
  -23.4318  -28.3484   21.4419 C   0  0  0  0  0  0  0  0  0  0  0  0
  -25.1798  -26.2508   22.1658 C   0  0  0  0  0  0  0  0  0  0  0  0
  -18.0664  -25.8052   23.2221 C   0  0  0  0  0  0  0  0  0  0  0  0
  -29.1346  -11.7649   20.1320 C   0  0  0  0  0  0  0  0  0  0  0  0
  -19.1568  -26.1373   24.2357 C   0  0  0  0  0  0  0  0  0  0  0  0
  -27.6618  -12.1374   19.9668 C   0  0  0  0  0  0  0  0  0  0  0  0
  -29.9123  -12.8658   20.8464 C   0  0  0  0  0  0  0  0  0  0  0  0
  -28.3272  -14.5824   20.0326 C   0  0  0  0  0  0  0  0  0  0  0  0
  -19.7896  -27.5021   23.9381 C   0  0  1  0  0  0  0  0  0  0  0  0
  -22.8191  -26.9627   21.7133 C   0  0  1  0  0  0  0  0  0  0  0  0
  -27.5117  -13.5105   19.2881 C   0  0  2  0  0  0  0  0  0  0  0  0
  -24.9082  -20.2247   18.6572 C   0  0  0  0  0  0  0  0  0  0  0  0
  -24.9182  -24.0617   24.2707 C   0  0  0  0  0  0  0  0  0  0  0  0
  -25.6412  -21.8580   23.3277 C   0  0  0  0  0  0  0  0  0  0  0  0
  -23.2210  -22.3049   23.7345 C   0  0  0  0  0  0  0  0  0  0  0  0
  -22.4673  -22.7909   17.2670 C   0  0  0  0  0  0  0  0  0  0  0  0
  -30.7466  -25.4299   17.5566 C   0  0  0  0  0  0  0  0  0  0  0  0
  -30.5674  -16.2165   19.1063 C   0  0  0  0  0  0  0  0  0  0  0  0
  -30.0759  -26.7874   17.7563 C   0  0  0  0  0  0  0  0  0  0  0  0
  -31.8839  -16.8861   18.7400 C   0  0  0  0  0  0  0  0  0  0  0  0
  -29.1650  -26.7905   18.9754 C   0  0  0  0  0  0  0  0  0  1  0  0
  -31.6631  -18.2473   18.0977 C   0  0  0  0  0  0  0  0  0  0  0  0
  -24.3898  -23.4635   21.8153 C   0  0  1  0  0  0  0  0  0  0  0  0
  -23.8587  -21.3227   18.7323 C   0  0  2  0  0  0  0  0  0  0  0  0
  -24.5478  -22.9462   23.2730 C   0  0  0  0  0  0  0  0  0  0  0  0
  -25.4814  -14.6470   20.1061 N   0  0  0  0  0  0  0  0  0  0  0  0
  -26.0547  -13.9086   19.1406 N   0  0  0  0  0  0  0  0  0  0  0  0
  -23.7884  -25.8666   21.8814 N   0  0  0  0  0  0  0  0  0  0  0  0
  -29.7259  -14.1582   20.1844 N   0  0  0  0  0  0  0  0  0  0  0  0
  -25.6297  -12.8656   17.0567 N   0  0  0  0  0  0  0  0  0  0  0  0
  -22.6039  -15.1216   16.6714 N   0  0  0  0  0  0  0  0  0  0  0  0
  -20.7214  -27.3974   22.8357 N   0  0  0  0  0  0  0  0  0  0  0  0
  -24.0126  -22.4335   20.8533 N   0  0  0  0  0  0  0  0  0  0  0  0
  -23.5068  -21.7323   17.3433 N   0  3  0  0  0  0  0  0  0  0  0  0
  -28.6634  -24.5279   16.7462 O   0  0  0  0  0  0  0  0  0  0  0  0
  -21.9615  -13.2146   17.7711 O   0  0  0  0  0  0  0  0  0  0  0  0
  -22.5827  -26.6937   24.0452 O   0  0  0  0  0  0  0  0  0  0  0  0
  -32.0070  -14.5357   19.9515 O   0  0  0  0  0  0  0  0  0  0  0  0
  -22.1791  -24.2402   21.4620 O   0  0  0  0  0  0  0  0  0  0  0  0
  -25.0087  -23.4291   19.0111 O   0  0  0  0  0  0  0  0  0  0  0  0
  -20.5431  -17.7408   22.6727 O   0  0  0  0  0  0  0  0  0  0  0  0
  -28.5833  -28.0863   19.1135 O   0  0  0  0  0  0  0  0  0  1  0  0
  -30.9788  -19.0893   19.0242 O   0  0  0  0  0  0  0  0  0  0  0  0
  -19.2778  -22.8157   20.9267 F   0  0  0  0  0  0  0  0  0  0  0  0
  -28.3635  -19.9403   18.9242 F   0  0  0  0  0  0  0  0  0  0  0  0
  -21.0103  -19.9480   24.2704 F   0  0  0  0  0  0  0  0  0  0  0  0
  1  2  1  0  0  0  0
  1  6  2  0  0  0  0
  2  7  2  0  0  0  0
  3  9  2  0  0  0  0
  3 18  1  0  0  0  0
  4 10  1  0  0  0  0
  4 18  2  0  0  0  0
  5 11  2  0  0  0  0
  5 19  1  0  0  0  0
  6 21  1  0  0  0  0
  7 23  1  0  0  0  0
  8 12  2  0  0  0  0
  8 22  1  0  0  0  0
  9 25  1  0  0  0  0
 10 25  2  0  0  0  0
 11 28  1  0  0  0  0
 12 26  1  0  0  0  0
 13 14  2  0  0  0  0
 13 27  1  0  0  0  0
 14 29  1  0  0  0  0
 15 19  2  0  0  0  0
 15 30  1  0  0  0  0
 16 24  1  0  0  0  0
 16 26  2  0  0  0  0
 17 29  2  0  0  0  0
 17 31  1  0  0  0  0
 18 32  1  0  0  0  0
 19 34  1  0  0  0  0
 20 32  1  0  0  0  0
 20 33  2  0  0  0  0
 20 35  1  0  0  0  0
 21 23  2  0  0  0  0
 21 40  1  0  0  0  0
 22 24  2  0  0  0  0
 22 41  1  0  0  0  0
 23 49  1  0  0  0  0
 24 42  1  0  0  0  0
 25 81  1  0  0  0  0
 26 82  1  0  0  0  0
 27 31  2  0  0  0  0
 27 81  1  0  0  0  0
 28 30  2  0  0  0  0
 28 83  1  0  0  0  0
 29 84  1  0  0  0  0
 30 85  1  0  0  0  0
 31 86  1  0  0  0  0
 32 66  2  0  0  0  0
 33 67  1  0  0  0  0
 33 70  1  0  0  0  0
 34 57  1  0  0  0  0
 34 75  2  0  0  0  0
 35 71  1  0  0  0  0
 35 76  2  0  0  0  0
 36 50  1  0  0  0  0
 36 72  1  0  0  0  0
 36 77  2  0  0  0  0
 37 58  1  0  0  0  0
 37 69  1  0  0  0  0
 37 78  2  0  0  0  0
 38 63  1  0  0  0  0
 38 68  1  0  0  0  0
 38 79  2  0  0  0  0
 39 64  1  0  0  0  0
 39 73  1  0  0  0  0
 39 80  2  0  0  0  0
 40 43  1  0  0  0  0
 41 50  1  0  0  0  0
 42 68  1  0  0  0  0
 43 45  1  0  0  0  0
 44 46  1  0  0  0  0
 44 47  1  0  0  0  0
 45 49  1  0  0  0  0
 46 51  1  0  0  0  0
 47 69  1  0  0  0  0
 48 51  1  0  0  0  0
 48 69  1  0  0  0  0
 49 72  1  0  0  0  0
 50 68  1  0  0  0  0
 51 67  1  0  0  0  0
 52 64  1  0  0  0  0
 53 65  1  0  0  0  0
 54 65  1  0  0  0  0
 55 65  1  0  0  0  0
 56 74  1  0  0  0  0
 57 59  1  0  0  0  0
 58 60  1  0  0  0  0
 59 61  1  0  0  0  0
 60 62  1  0  0  0  0
 61 82  1  0  0  0  0
 62 83  1  0  0  0  0
 63 65  1  0  0  0  0
 63 73  1  0  0  0  0
 64 74  1  0  0  0  0
 66 67  1  0  0  0  0
M  CHG  1  74   1
M  ISO  4  37 100  58 100  61 101  82 101
M  END
> <Batch ID>
0102

> <Smiles>
CNC(C)C(=O)NC(C(=O)N1Cc2cc([101O:1][101CH2:1]CCC(=O)c3ccc(OCC[100CH2:0][100C:0](=O)N4CCCC(n5nc(-c6ccc(Oc7ccc(F)cc7F)cc6)c(C(N)=O)c5N)C4)c(F)c3)ccc2CC1C(=O)NC1CCCc2ccccc21)C(C)(C)C

> <Shape>
0.195

> <Color>
0.087

> <Negative vol penalty>
0.000

$$$$

  -OEChem-04052301023D

 86 94  0     1  0  0  0  0  0999 V2000
  -34.2257  -27.0643   18.1278 C   0  0  0  0  0  0  0  0  0  0  0  0
  -33.1033  -26.6339   17.4275 C   0  0  0  0  0  0  0  0  0  0  0  0
  -26.8212  -12.3076   21.8185 C   0  0  0  0  0  0  0  0  0  0  0  0
  -26.0667  -13.9796   20.2462 C   0  0  0  0  0  0  0  0  0  0  0  0
  -27.2378  -21.9235   19.1285 C   0  0  0  0  0  0  0  0  0  0  0  0
  -34.2508  -26.9840   19.5195 C   0  0  0  0  0  0  0  0  0  0  0  0
  -32.0057  -26.1218   18.1186 C   0  0  0  0  0  0  0  0  0  0  0  0
  -26.0996  -26.7299   16.6174 C   0  0  0  0  0  0  0  0  0  0  0  0
  -27.9573  -21.7468   20.3103 C   0  0  0  0  0  0  0  0  0  0  0  0
  -25.5340  -11.7725   21.8672 C   0  0  0  0  0  0  0  0  0  0  0  0
  -24.7795  -13.4444   20.2948 C   0  0  0  0  0  0  0  0  0  0  0  0
  -25.2071  -25.8845   15.9597 C   0  0  0  0  0  0  0  0  0  0  0  0
  -23.6011   -9.7559   19.9619 C   0  0  0  0  0  0  0  0  0  0  0  0
  -23.4724   -8.3690   19.8883 C   0  0  0  0  0  0  0  0  0  0  0  0
  -29.3073  -22.0736   17.8909 C   0  0  0  0  0  0  0  0  0  0  0  0
  -24.3964  -25.0933   18.0896 C   0  0  0  0  0  0  0  0  0  0  0  0
  -22.4001   -8.3536   22.0533 C   0  0  0  0  0  0  0  0  0  0  0  0
  -27.0875  -13.4112   21.0080 C   0  0  0  0  0  0  0  0  0  0  0  0
  -27.9128  -22.0869   17.9187 C   0  0  0  0  0  0  0  0  0  0  0  0
  -29.4547  -13.6053   20.0772 C   0  0  0  0  0  0  0  0  0  0  0  0
  -33.1492  -26.4797   20.2285 C   0  0  0  0  0  0  0  0  0  0  0  0
  -26.1549  -26.7554   18.0184 C   0  0  0  0  0  0  0  0  0  0  0  0
  -32.0167  -26.0335   19.5210 C   0  0  0  0  0  0  0  0  0  0  0  0
  -25.2887  -25.9418   18.7626 C   0  0  0  0  0  0  0  0  0  0  0  0
  -29.3518  -21.7334   20.2824 C   0  0  0  0  0  0  0  0  0  0  0  0
  -24.5131  -12.3409   21.1053 C   0  0  0  0  0  0  0  0  0  0  0  0
  -24.3573  -25.0639   16.6958 C   0  0  0  0  0  0  0  0  0  0  0  0
  -23.1293  -10.4417   21.0812 C   0  0  0  0  0  0  0  0  0  0  0  0
  -22.8720   -7.6678   20.9340 C   0  0  0  0  0  0  0  0  0  0  0  0
  -30.0268  -21.8969   19.0727 C   0  0  0  0  0  0  0  0  0  0  0  0
  -22.5288   -9.7406   22.1269 C   0  0  0  0  0  0  0  0  0  0  0  0
  -28.4168  -13.9648   20.9578 C   0  0  0  0  0  0  0  0  0  0  0  0
  -30.5043  -14.4160   20.4344 C   0  0  0  0  0  0  0  0  0  0  0  0
  -27.1464  -22.2749   16.6600 C   0  0  0  0  0  0  0  0  0  0  0  0
  -29.4687  -12.6262   19.0300 C   0  0  0  0  0  0  0  0  0  0  0  0
  -28.3828  -26.0966   20.1876 C   0  0  0  0  0  0  0  0  0  0  0  0
  -26.1594  -27.2455   22.2513 C   0  0  0  0  0  0  0  0  0  0  0  0
  -22.8710  -27.8759   22.9113 C   0  0  0  0  0  0  0  0  0  0  0  0
  -30.7991  -19.7555   23.1278 C   0  0  0  0  0  0  0  0  0  0  0  0
  -33.2414  -26.3685   21.7298 C   0  0  0  0  0  0  0  0  0  0  0  0
  -27.1046  -27.6925   18.7129 C   0  0  0  0  0  0  0  0  0  0  0  0
  -25.2946  -25.9467   20.2687 C   0  0  0  0  0  0  0  0  0  0  0  0
  -31.8902  -26.1616   22.4093 C   0  0  0  0  0  0  0  0  0  0  0  0
  -32.3363  -16.7285   24.2009 C   0  0  0  0  0  0  0  0  0  0  0  0
  -31.0878  -25.0852   21.6852 C   0  0  0  0  0  0  0  0  0  0  0  0
  -31.5997  -15.6446   23.4120 C   0  0  0  0  0  0  0  0  0  0  0  0
  -31.4000  -17.8636   24.6098 C   0  0  0  0  0  0  0  0  0  0  0  0
  -29.9028  -17.3849   22.7116 C   0  0  0  0  0  0  0  0  0  0  0  0
  -30.7967  -25.4950   20.2365 C   0  0  1  0  0  0  0  0  0  0  0  0
  -27.4343  -27.2608   20.1385 C   0  0  1  0  0  0  0  0  0  0  0  0
  -30.8173  -16.2459   22.2290 C   0  0  2  0  0  0  0  0  0  0  0  0
  -21.3591  -28.7845   24.6962 C   0  0  0  0  0  0  0  0  0  0  0  0
  -21.6447  -23.0299   17.0058 C   0  0  0  0  0  0  0  0  0  0  0  0
  -26.4570  -24.6470   23.8226 C   0  0  0  0  0  0  0  0  0  0  0  0
  -24.3098  -25.1889   24.9906 C   0  0  0  0  0  0  0  0  0  0  0  0
  -26.2764  -26.7043   25.2332 C   0  0  0  0  0  0  0  0  0  0  0  0
  -21.9194  -30.0604   21.1558 C   0  0  0  0  0  0  0  0  0  0  0  0
  -30.1190  -21.5440   21.5474 C   0  0  0  0  0  0  0  0  0  0  0  0
  -23.5364  -21.8186   15.8510 C   0  0  0  0  0  0  0  0  0  0  0  0
  -25.0175  -21.7994   15.4778 C   0  0  0  0  0  0  0  0  0  0  0  0
  -25.0208  -26.6446   23.0396 C   0  0  1  0  0  0  0  0  0  0  0  0
  -22.1706  -29.1095   23.4518 C   0  0  2  0  0  0  0  0  0  0  0  0
  -23.1403  -23.0208   16.7175 C   0  0  1  0  0  0  0  0  0  1  0  0
  -25.5170  -25.7944   24.2431 C   0  0  0  0  0  0  0  0  0  0  0  0
  -28.7747  -14.9287   21.8103 N   0  0  0  0  0  0  0  0  0  0  0  0
  -30.0491  -15.1818   21.4672 N   0  0  0  0  0  0  0  0  0  0  0  0
  -26.2455  -26.8755   20.9016 N   0  0  0  0  0  0  0  0  0  0  0  0
  -30.6897  -18.3908   23.4421 N   0  0  0  0  0  0  0  0  0  0  0  0
  -31.7629  -14.5414   19.9626 N   0  0  0  0  0  0  0  0  0  0  0  0
  -28.3051  -11.8806   18.7967 N   0  0  0  0  0  0  0  0  0  0  0  0
  -25.8707  -21.7225   16.6310 N   0  0  0  0  0  0  0  0  0  0  0  0
  -29.7167  -26.4574   20.1907 N   0  0  0  0  0  0  0  0  0  0  0  0
  -24.1505  -27.7550   23.4108 N   0  0  0  0  0  0  0  0  0  0  0  0
  -30.0994  -20.1714   22.0017 N   0  0  0  0  0  0  0  0  0  0  0  0
  -21.2502  -29.6744   22.4248 N   0  3  0  0  0  0  0  0  0  0  0  0
  -27.6683  -22.8744   15.7236 O   0  0  0  0  0  0  0  0  0  0  0  0
  -30.4883  -12.4070   18.3328 O   0  0  0  0  0  0  0  0  0  0  0  0
  -27.9375  -24.9554   20.2218 O   0  0  0  0  0  0  0  0  0  0  0  0
  -26.9394  -28.0204   22.8105 O   0  0  0  0  0  0  0  0  0  0  0  0
  -22.3352  -27.0955   22.1275 O   0  0  0  0  0  0  0  0  0  0  0  0
  -31.4750  -20.5437   23.7978 O   0  0  0  0  0  0  0  0  0  0  0  0
  -23.2570  -11.8188   21.1523 O   0  0  0  0  0  0  0  0  0  0  0  0
  -23.4857  -24.2373   16.0564 O   0  0  0  0  0  0  0  0  0  1  0  0
  -22.7471   -6.3361   20.8626 F   0  0  0  0  0  0  0  0  0  0  0  0
  -31.3665  -21.8835   19.0361 F   0  0  0  0  0  0  0  0  0  0  0  0
  -22.0726  -10.3941   23.2042 F   0  0  0  0  0  0  0  0  0  0  0  0
  1  2  1  0  0  0  0
  1  6  2  0  0  0  0
  2  7  2  0  0  0  0
  3 10  2  0  0  0  0
  3 18  1  0  0  0  0
  4 11  1  0  0  0  0
  4 18  2  0  0  0  0
  5  9  2  0  0  0  0
  5 19  1  0  0  0  0
  6 21  1  0  0  0  0
  7 23  1  0  0  0  0
  8 12  2  0  0  0  0
  8 22  1  0  0  0  0
  9 25  1  0  0  0  0
 10 26  1  0  0  0  0
 11 26  2  0  0  0  0
 12 27  1  0  0  0  0
 13 14  2  0  0  0  0
 13 28  1  0  0  0  0
 14 29  1  0  0  0  0
 15 19  2  0  0  0  0
 15 30  1  0  0  0  0
 16 24  1  0  0  0  0
 16 27  2  0  0  0  0
 17 29  2  0  0  0  0
 17 31  1  0  0  0  0
 18 32  1  0  0  0  0
 19 34  1  0  0  0  0
 20 32  1  0  0  0  0
 20 33  2  0  0  0  0
 20 35  1  0  0  0  0
 21 23  2  0  0  0  0
 21 40  1  0  0  0  0
 22 24  2  0  0  0  0
 22 41  1  0  0  0  0
 23 49  1  0  0  0  0
 24 42  1  0  0  0  0
 25 30  2  0  0  0  0
 25 58  1  0  0  0  0
 26 82  1  0  0  0  0
 27 83  1  0  0  0  0
 28 31  2  0  0  0  0
 28 82  1  0  0  0  0
 29 84  1  0  0  0  0
 30 85  1  0  0  0  0
 31 86  1  0  0  0  0
 32 65  2  0  0  0  0
 33 66  1  0  0  0  0
 33 69  1  0  0  0  0
 34 71  1  0  0  0  0
 34 76  2  0  0  0  0
 35 70  1  0  0  0  0
 35 77  2  0  0  0  0
 36 50  1  0  0  0  0
 36 72  1  0  0  0  0
 36 78  2  0  0  0  0
 37 61  1  0  0  0  0
 37 67  1  0  0  0  0
 37 79  2  0  0  0  0
 38 62  1  0  0  0  0
 38 73  1  0  0  0  0
 38 80  2  0  0  0  0
 39 68  1  0  0  0  0
 39 74  1  0  0  0  0
 39 81  2  0  0  0  0
 40 43  1  0  0  0  0
 41 50  1  0  0  0  0
 42 67  1  0  0  0  0
 43 45  1  0  0  0  0
 44 46  1  0  0  0  0
 44 47  1  0  0  0  0
 45 49  1  0  0  0  0
 46 51  1  0  0  0  0
 47 68  1  0  0  0  0
 48 51  1  0  0  0  0
 48 68  1  0  0  0  0
 49 72  1  0  0  0  0
 50 67  1  0  0  0  0
 51 66  1  0  0  0  0
 52 62  1  0  0  0  0
 53 63  1  0  0  0  0
 54 64  1  0  0  0  0
 55 64  1  0  0  0  0
 56 64  1  0  0  0  0
 57 75  1  0  0  0  0
 58 74  1  0  0  0  0
 59 60  1  0  0  0  0
 59 63  1  0  0  0  0
 60 71  1  0  0  0  0
 61 64  1  0  0  0  0
 61 73  1  0  0  0  0
 62 75  1  0  0  0  0
 63 83  1  0  0  0  0
 65 66  1  0  0  0  0
M  CHG  1  75   1
M  ISO  4  39 100  63 101  74 100  83 101
M  END
> <Batch ID>
0102

> <Smiles>
CNC(C)C(=O)NC(C(=O)N1Cc2cc([101O:1][101CH:1](C)CCNC(=O)c3ccc(C[100NH:0][100C:0](=O)N4CCCC(n5nc(-c6ccc(Oc7ccc(F)cc7F)cc6)c(C(N)=O)c5N)C4)c(F)c3)ccc2CC1C(=O)NC1CCCc2ccccc21)C(C)(C)C

> <Shape>
0.234

> <Color>
0.066

> <Negative vol penalty>
0.000

$$$$

  -OEChem-04052301023D

 87 95  0     1  0  0  0  0  0999 V2000
  -31.2170  -34.2376   24.8229 C   0  0  0  0  0  0  0  0  0  0  0  0
  -31.2051  -33.0854   24.0434 C   0  0  0  0  0  0  0  0  0  0  0  0
  -24.4515  -17.8480   17.3491 C   0  0  0  0  0  0  0  0  0  0  0  0
  -23.8040  -15.8745   16.1151 C   0  0  0  0  0  0  0  0  0  0  0  0
  -30.1923  -34.4682   25.7398 C   0  0  0  0  0  0  0  0  0  0  0  0
  -30.1688  -32.1625   24.1812 C   0  0  0  0  0  0  0  0  0  0  0  0
  -27.6715  -28.7436   19.7563 C   0  0  0  0  0  0  0  0  0  0  0  0
  -27.9592  -17.3597   22.9413 C   0  0  0  0  0  0  0  0  0  0  0  0
  -23.9463  -18.6525   16.3277 C   0  0  0  0  0  0  0  0  0  0  0  0
  -23.2987  -16.6789   15.0937 C   0  0  0  0  0  0  0  0  0  0  0  0
  -27.8736  -27.4204   19.3664 C   0  0  0  0  0  0  0  0  0  0  0  0
  -28.5032  -16.0804   23.0555 C   0  0  0  0  0  0  0  0  0  0  0  0
  -23.1506  -21.2215   13.8801 C   0  0  0  0  0  0  0  0  0  0  0  0
  -23.9276  -22.3000   13.4576 C   0  0  0  0  0  0  0  0  0  0  0  0
  -25.9843  -26.7437   20.7049 C   0  0  0  0  0  0  0  0  0  0  0  0
  -29.4496  -17.8290   21.0986 C   0  0  0  0  0  0  0  0  0  0  0  0
  -25.7024  -20.7804   12.8425 C   0  0  0  0  0  0  0  0  0  0  0  0
  -24.3804  -16.4590   17.2428 C   0  0  0  0  0  0  0  0  0  0  0  0
  -24.2092  -15.1494   19.4253 C   0  0  0  0  0  0  0  0  0  0  0  0
  -29.1379  -33.5525   25.8820 C   0  0  0  0  0  0  0  0  0  0  0  0
  -26.6291  -29.0758   20.6335 C   0  0  0  0  0  0  0  0  0  0  0  0
  -29.1298  -32.3805   25.1018 C   0  0  0  0  0  0  0  0  0  0  0  0
  -25.7694  -28.0722   21.1023 C   0  0  0  0  0  0  0  0  0  0  0  0
  -28.4324  -18.2340   21.9628 C   0  0  0  0  0  0  0  0  0  0  0  0
  -29.9936  -16.5497   21.2127 C   0  0  0  0  0  0  0  0  0  0  0  0
  -23.3699  -18.0680   15.2000 C   0  0  0  0  0  0  0  0  0  0  0  0
  -27.0317  -26.4198   19.8429 C   0  0  0  0  0  0  0  0  0  0  0  0
  -29.5204  -15.6754   22.1912 C   0  0  0  0  0  0  0  0  0  0  0  0
  -23.6495  -19.9224   13.7840 C   0  0  0  0  0  0  0  0  0  0  0  0
  -25.2035  -22.0795   12.9387 C   0  0  0  0  0  0  0  0  0  0  0  0
  -24.9254  -19.7019   13.2652 C   0  0  0  0  0  0  0  0  0  0  0  0
  -24.9026  -15.6275   18.2972 C   0  0  0  0  0  0  0  0  0  0  0  0
  -25.1410  -14.4120   20.1140 C   0  0  0  0  0  0  0  0  0  0  0  0
  -22.8448  -15.3537   19.8156 C   0  0  0  0  0  0  0  0  0  0  0  0
  -26.4641  -30.3544   23.5390 C   0  0  0  0  0  0  0  0  0  0  0  0
  -23.2733  -30.2982   22.9578 C   0  0  0  0  0  0  0  0  0  0  0  0
  -28.2306  -20.5249   20.9364 C   0  0  0  0  0  0  0  0  0  0  0  0
  -20.6642  -28.9169   21.2457 C   0  0  0  0  0  0  0  0  0  0  0  0
  -31.2459  -14.8131   19.9061 C   0  0  0  0  0  0  0  0  0  0  0  0
  -28.0775  -33.8218   26.9200 C   0  0  0  0  0  0  0  0  0  0  0  0
  -26.4080  -30.5116   21.0234 C   0  0  0  0  0  0  0  0  0  0  0  0
  -24.6233  -28.3793   22.0300 C   0  0  0  0  0  0  0  0  0  0  0  0
  -26.8189  -32.9772   26.7384 C   0  0  0  0  0  0  0  0  0  0  0  0
  -29.1089  -11.8215   19.4868 C   0  0  0  0  0  0  0  0  0  0  0  0
  -27.1866  -31.5179   26.4896 C   0  0  0  0  0  0  0  0  0  0  0  0
  -27.7465  -12.4227   19.1465 C   0  0  0  0  0  0  0  0  0  0  0  0
  -30.2543  -12.7215   19.0333 C   0  0  0  0  0  0  0  0  0  0  0  0
  -28.7988  -14.7179   19.2253 C   0  0  0  0  0  0  0  0  0  0  0  0
  -28.0099  -31.3678   25.2046 C   0  0  1  0  0  0  0  0  0  0  0  0
  -25.6310  -30.6637   22.3274 C   0  0  1  0  0  0  0  0  0  0  0  0
  -27.6276  -13.8492   19.7080 C   0  0  1  0  0  0  0  0  0  0  0  0
  -33.1152  -17.1967   21.1406 C   0  0  0  0  0  0  0  0  0  0  0  0
  -18.1693  -29.0526   21.0116 C   0  0  0  0  0  0  0  0  0  0  0  0
  -22.9467  -28.7936   25.5920 C   0  0  0  0  0  0  0  0  0  0  0  0
  -20.6463  -28.1386   24.8523 C   0  0  0  0  0  0  0  0  0  0  0  0
  -21.2138  -30.5468   25.1702 C   0  0  0  0  0  0  0  0  0  0  0  0
  -20.8568  -29.6692   18.3898 C   0  0  0  0  0  0  0  0  0  0  0  0
  -29.4926  -13.5974   23.3475 C   0  0  0  0  0  0  0  0  0  0  0  0
  -27.3882  -21.7735   21.1581 C   0  0  0  0  0  0  0  0  0  0  0  0
  -27.7321  -22.8947   20.1837 C   0  0  0  0  0  0  0  0  0  0  0  0
  -32.1018  -17.1125   20.0171 C   0  0  0  0  0  0  0  0  0  0  0  0
  -26.8456  -24.1137   20.3935 C   0  0  0  0  0  0  0  0  0  1  0  0
  -22.1626  -29.3014   23.1851 C   0  0  1  0  0  0  0  0  0  0  0  0
  -19.5090  -29.5478   20.4892 C   0  0  2  0  0  0  0  0  0  0  0  0
  -21.7650  -29.1887   24.6840 C   0  0  0  0  0  0  0  0  0  0  0  0
  -26.1767  -15.2275   18.2674 N   0  0  0  0  0  0  0  0  0  0  0  0
  -26.2912  -14.4904   19.3853 N   0  0  0  0  0  0  0  0  0  0  0  0
  -24.4521  -29.7972   22.3874 N   0  0  0  0  0  0  0  0  0  0  0  0
  -30.0963  -14.0909   19.5256 N   0  0  0  0  0  0  0  0  0  0  0  0
  -25.0805  -13.7107   21.2660 N   0  0  0  0  0  0  0  0  0  0  0  0
  -22.0248  -16.1380   18.9929 N   0  0  0  0  0  0  0  0  0  0  0  0
  -27.8809  -19.5322   21.8474 N   0  0  0  0  0  0  0  0  0  0  0  0
  -27.1509  -31.4427   24.0424 N   0  0  0  0  0  0  0  0  0  0  0  0
  -21.0694  -29.7006   22.3053 N   0  0  0  0  0  0  0  0  0  0  0  0
  -31.0463  -16.1462   20.3129 N   0  0  0  0  0  0  0  0  0  0  0  0
  -19.5986  -29.2186   19.0385 N   0  3  0  0  0  0  0  0  0  0  0  0
  -22.3714  -14.8689   20.8712 O   0  0  0  0  0  0  0  0  0  0  0  0
  -26.4814  -29.2131   23.9850 O   0  0  0  0  0  0  0  0  0  0  0  0
  -23.0988  -31.4793   23.2681 O   0  0  0  0  0  0  0  0  0  0  0  0
  -29.0853  -20.4634   20.0589 O   0  0  0  0  0  0  0  0  0  0  0  0
  -21.1552  -27.8352   20.9305 O   0  0  0  0  0  0  0  0  0  0  0  0
  -32.3797  -14.3231   19.8356 O   0  0  0  0  0  0  0  0  0  0  0  0
  -22.8766  -18.8526   14.2033 O   0  0  0  0  0  0  0  0  0  0  0  0
  -30.0382  -14.4210   22.3194 O   0  0  0  0  0  0  0  0  0  0  0  0
  -27.2272  -25.1273   19.4645 O   0  0  0  0  0  0  0  0  0  1  0  0
  -25.9489  -23.1152   12.5315 F   0  0  0  0  0  0  0  0  0  0  0  0
  -25.4096  -18.4560   13.1693 F   0  0  0  0  0  0  0  0  0  0  0  0
  1  2  1  0  0  0  0
  1  5  2  0  0  0  0
  2  6  2  0  0  0  0
  3  9  2  0  0  0  0
  3 18  1  0  0  0  0
  4 10  1  0  0  0  0
  4 18  2  0  0  0  0
  5 20  1  0  0  0  0
  6 22  1  0  0  0  0
  7 11  2  0  0  0  0
  7 21  1  0  0  0  0
  8 12  2  0  0  0  0
  8 24  1  0  0  0  0
  9 26  1  0  0  0  0
 10 26  2  0  0  0  0
 11 27  1  0  0  0  0
 12 28  1  0  0  0  0
 13 14  2  0  0  0  0
 13 29  1  0  0  0  0
 14 30  1  0  0  0  0
 15 23  1  0  0  0  0
 15 27  2  0  0  0  0
 16 24  2  0  0  0  0
 16 25  1  0  0  0  0
 17 30  2  0  0  0  0
 17 31  1  0  0  0  0
 18 32  1  0  0  0  0
 19 32  1  0  0  0  0
 19 33  2  0  0  0  0
 19 34  1  0  0  0  0
 20 22  2  0  0  0  0
 20 40  1  0  0  0  0
 21 23  2  0  0  0  0
 21 41  1  0  0  0  0
 22 49  1  0  0  0  0
 23 42  1  0  0  0  0
 24 72  1  0  0  0  0
 25 28  2  0  0  0  0
 25 75  1  0  0  0  0
 26 83  1  0  0  0  0
 27 85  1  0  0  0  0
 28 84  1  0  0  0  0
 29 31  2  0  0  0  0
 29 83  1  0  0  0  0
 30 86  1  0  0  0  0
 31 87  1  0  0  0  0
 32 66  2  0  0  0  0
 33 67  1  0  0  0  0
 33 70  1  0  0  0  0
 34 71  1  0  0  0  0
 34 77  2  0  0  0  0
 35 50  1  0  0  0  0
 35 73  1  0  0  0  0
 35 78  2  0  0  0  0
 36 63  1  0  0  0  0
 36 68  1  0  0  0  0
 36 79  2  0  0  0  0
 37 59  1  0  0  0  0
 37 72  1  0  0  0  0
 37 80  2  0  0  0  0
 38 64  1  0  0  0  0
 38 74  1  0  0  0  0
 38 81  2  0  0  0  0
 39 69  1  0  0  0  0
 39 75  1  0  0  0  0
 39 82  2  0  0  0  0
 40 43  1  0  0  0  0
 41 50  1  0  0  0  0
 42 68  1  0  0  0  0
 43 45  1  0  0  0  0
 44 46  1  0  0  0  0
 44 47  1  0  0  0  0
 45 49  1  0  0  0  0
 46 51  1  0  0  0  0
 47 69  1  0  0  0  0
 48 51  1  0  0  0  0
 48 69  1  0  0  0  0
 49 73  1  0  0  0  0
 50 68  1  0  0  0  0
 51 67  1  0  0  0  0
 52 61  1  0  0  0  0
 53 64  1  0  0  0  0
 54 65  1  0  0  0  0
 55 65  1  0  0  0  0
 56 65  1  0  0  0  0
 57 76  1  0  0  0  0
 58 84  1  0  0  0  0
 59 60  1  0  0  0  0
 60 62  1  0  0  0  0
 61 75  1  0  0  0  0
 62 85  1  0  0  0  0
 63 65  1  0  0  0  0
 63 74  1  0  0  0  0
 64 76  1  0  0  0  0
 66 67  1  0  0  0  0
M  CHG  1  76   1
M  ISO  4  39 100  62 101  75 100  85 101
M  END
> <Batch ID>
0102

> <Smiles>
CC[100N:0](c1cc(NC(=O)CC[101CH2:1][101O:1]c2ccc3c(c2)CN(C(=O)C(NC(=O)C(C)NC)C(C)(C)C)C(C(=O)NC2CCCc4ccccc42)C3)ccc1OC)[100C:0](=O)N1CCCC(n2nc(-c3ccc(Oc4ccc(F)cc4F)cc3)c(C(N)=O)c2N)C1

> <Shape>
0.243

> <Color>
0.100

> <Negative vol penalty>
0.000

$$$$

  -OEChem-04052301023D

 87 96  0     1  0  0  0  0  0999 V2000
  -15.9820  -27.1384   21.6910 C   0  0  0  0  0  0  0  0  0  0  0  0
  -17.1497  -26.9795   20.9517 C   0  0  0  0  0  0  0  0  0  0  0  0
  -22.9217  -10.5184   21.6912 C   0  0  0  0  0  0  0  0  0  0  0  0
  -24.6729   -8.8546   21.7385 C   0  0  0  0  0  0  0  0  0  0  0  0
  -15.9450  -28.0482   22.7469 C   0  0  0  0  0  0  0  0  0  0  0  0
  -18.2810  -27.7313   21.2672 C   0  0  0  0  0  0  0  0  0  0  0  0
  -22.5130  -24.9504   21.3051 C   0  0  0  0  0  0  0  0  0  0  0  0
  -29.0768  -19.9981   17.3657 C   0  0  0  0  0  0  0  0  0  0  0  0
  -26.8862  -20.1275   18.3765 C   0  0  0  0  0  0  0  0  0  0  0  0
  -29.2148  -18.6908   17.8321 C   0  0  0  0  0  0  0  0  0  0  0  0
  -27.0241  -18.8202   18.8428 C   0  0  0  0  0  0  0  0  0  0  0  0
  -21.9655   -9.5089   21.5810 C   0  0  0  0  0  0  0  0  0  0  0  0
  -23.7167   -7.8450   21.6283 C   0  0  0  0  0  0  0  0  0  0  0  0
  -23.0773  -24.6328   20.0704 C   0  0  0  0  0  0  0  0  0  0  0  0
  -21.5335   -6.2521   23.6573 C   0  0  0  0  0  0  0  0  0  0  0  0
  -21.6633   -5.1444   24.4951 C   0  0  0  0  0  0  0  0  0  0  0  0
  -24.6835  -26.4102   20.3540 C   0  0  0  0  0  0  0  0  0  0  0  0
  -21.8429   -3.7045   22.5633 C   0  0  0  0  0  0  0  0  0  0  0  0
  -24.2754  -10.1912   21.7699 C   0  0  0  0  0  0  0  0  0  0  0  0
  -25.3737  -12.1930   22.9076 C   0  0  0  0  0  0  0  0  0  0  0  0
  -17.0793  -28.8045   23.0816 C   0  0  0  0  0  0  0  0  0  0  0  0
  -23.0237  -26.0091   22.0698 C   0  0  0  0  0  0  0  0  0  0  0  0
  -18.2588  -28.6531   22.3276 C   0  0  0  0  0  0  0  0  0  0  0  0
  -24.1255  -26.7375   21.5992 C   0  0  0  0  0  0  0  0  0  0  0  0
  -27.9125  -20.7165   17.6380 C   0  0  0  0  0  0  0  0  0  0  0  0
  -28.1885  -18.1018   18.5706 C   0  0  0  0  0  0  0  0  0  0  0  0
  -22.3630   -8.1722   21.5495 C   0  0  0  0  0  0  0  0  0  0  0  0
  -24.1608  -25.3646   19.5933 C   0  0  0  0  0  0  0  0  0  0  0  0
  -21.5583   -6.0860   22.2726 C   0  0  0  0  0  0  0  0  0  0  0  0
  -21.8180   -3.8707   23.9481 C   0  0  0  0  0  0  0  0  0  0  0  0
  -21.7130   -4.8123   21.7256 C   0  0  0  0  0  0  0  0  0  0  0  0
  -25.2637  -11.2336   21.8832 C   0  0  0  0  0  0  0  0  0  0  0  0
  -26.4662  -12.9473   22.5556 C   0  0  0  0  0  0  0  0  0  0  0  0
  -28.4315  -22.4176   15.9507 C   0  0  0  0  0  0  0  0  0  0  0  0
  -26.9830  -22.9702   17.9285 C   0  0  0  0  0  0  0  0  0  0  0  0
  -24.5612  -12.3850   24.0731 C   0  0  0  0  0  0  0  0  0  0  0  0
  -21.8607  -28.7654   23.1441 C   0  0  0  0  0  0  0  0  0  0  0  0
  -24.7107  -28.9195   24.6855 C   0  0  0  0  0  0  0  0  0  0  0  0
  -28.1613  -28.1953   23.9196 C   0  0  0  0  0  0  0  0  0  0  0  0
  -29.0901  -15.7684   18.3878 C   0  0  0  0  0  0  0  0  0  0  0  0
  -16.9771  -29.8097   24.2012 C   0  0  0  0  0  0  0  0  0  0  0  0
  -22.4208  -26.3219   23.4118 C   0  0  0  0  0  0  0  0  0  0  0  0
  -24.7240  -27.8704   22.3910 C   0  0  0  0  0  0  0  0  0  0  0  0
  -28.4111  -23.8774   15.5472 C   0  0  0  0  0  0  0  0  0  0  0  0
  -18.3322  -30.2959   24.7089 C   0  0  0  0  0  0  0  0  0  0  0  0
  -27.9907  -24.8169   16.6532 C   0  0  0  0  0  0  0  0  0  0  0  0
  -30.0029  -12.2396   19.0260 C   0  0  0  0  0  0  0  0  0  0  0  0
  -19.2428  -30.6555   23.5391 C   0  0  0  0  0  0  0  0  0  0  0  0
  -28.8165  -11.7238   19.8384 C   0  0  0  0  0  0  0  0  0  0  0  0
  -29.5955  -13.3661   18.0813 C   0  0  0  0  0  0  0  0  0  0  0  0
  -27.7260  -13.9883   19.5844 C   0  0  0  0  0  0  0  0  0  0  0  0
  -19.5140  -29.4324   22.6549 C   0  0  1  0  0  0  0  0  0  0  0  0
  -26.6934  -24.3017   17.2504 C   0  0  2  0  0  0  0  0  0  0  0  0
  -22.6956  -27.7502   23.8721 C   0  0  1  0  0  0  0  0  0  0  0  0
  -28.1185  -12.8802   20.5731 C   0  0  1  0  0  0  0  0  0  0  0  0
  -30.0643  -27.5466   25.4213 C   0  0  0  0  0  0  0  0  0  0  0  0
  -25.3191  -31.9092   24.7236 C   0  0  0  0  0  0  0  0  0  0  0  0
  -27.7571  -31.3430   24.6647 C   0  0  0  0  0  0  0  0  0  0  0  0
  -26.3545  -30.6100   26.5930 C   0  0  0  0  0  0  0  0  0  0  0  0
  -27.4464  -16.3108   20.1301 C   0  0  0  0  0  0  0  0  0  0  0  0
  -28.7198  -25.7501   22.3487 C   0  0  0  0  0  0  0  0  0  0  0  0
  -26.1066  -25.3185   18.2266 C   0  0  0  0  0  0  0  0  0  1  0  0
  -26.0771  -29.4689   24.3540 C   0  0  1  0  0  0  0  0  0  0  0  0
  -28.9918  -27.0478   24.4654 C   0  0  2  0  0  0  0  0  0  0  0  0
  -26.3594  -30.8233   25.0635 C   0  0  0  0  0  0  0  0  0  0  0  0
  -26.2106  -11.3644   20.9503 N   0  0  0  0  0  0  0  0  0  0  0  0
  -26.9260  -12.4149   21.3871 N   0  0  0  0  0  0  0  0  0  0  0  0
  -27.7691  -22.0752   17.1538 N   0  0  0  0  0  0  0  0  0  0  0  0
  -24.0953  -28.1419   23.6943 N   0  0  0  0  0  0  0  0  0  0  0  0
  -28.8793  -14.4318   18.7842 N   0  0  0  0  0  0  0  0  0  0  0  0
  -27.0688  -14.0075   23.1346 N   0  0  0  0  0  0  0  0  0  0  0  0
  -23.4780  -11.5205   24.2823 N   0  0  0  0  0  0  0  0  0  0  0  0
  -20.4988  -28.5704   23.2729 N   0  0  0  0  0  0  0  0  0  0  0  0
  -27.0311  -28.4140   24.6787 N   0  0  0  0  0  0  0  0  0  0  0  0
  -28.3308  -16.7498   19.0530 N   0  0  0  0  0  0  0  0  0  0  0  0
  -29.6585  -26.3154   23.3519 N   0  3  0  0  0  0  0  0  0  0  0  0
  -28.9469  -21.6107   15.1700 O   0  0  0  0  0  0  0  0  0  0  0  0
  -26.5618  -22.7427   19.0645 O   0  0  0  0  0  0  0  0  0  0  0  0
  -24.7790  -13.3065   24.8959 O   0  0  0  0  0  0  0  0  0  0  0  0
  -22.4114  -29.6603   22.5134 O   0  0  0  0  0  0  0  0  0  0  0  0
  -24.2109  -29.1650   25.7862 O   0  0  0  0  0  0  0  0  0  0  0  0
  -28.4847  -28.8361   22.9220 O   0  0  0  0  0  0  0  0  0  0  0  0
  -29.8607  -16.0638   17.4661 O   0  0  0  0  0  0  0  0  0  0  0  0
  -21.4302   -7.1868   21.4422 O   0  0  0  0  0  0  0  0  0  0  0  0
  -24.7130  -25.0570   18.3882 O   0  0  0  0  0  0  0  0  0  1  0  0
  -21.9441   -2.8072   24.7527 F   0  0  0  0  0  0  0  0  0  0  0  0
  -21.7388   -4.6466   20.3960 F   0  0  0  0  0  0  0  0  0  0  0  0
  1  2  1  0  0  0  0
  1  5  2  0  0  0  0
  2  6  2  0  0  0  0
  3 12  2  0  0  0  0
  3 19  1  0  0  0  0
  4 13  1  0  0  0  0
  4 19  2  0  0  0  0
  5 21  1  0  0  0  0
  6 23  1  0  0  0  0
  7 14  2  0  0  0  0
  7 22  1  0  0  0  0
  8 10  2  0  0  0  0
  8 25  1  0  0  0  0
  9 11  1  0  0  0  0
  9 25  2  0  0  0  0
 10 26  1  0  0  0  0
 11 26  2  0  0  0  0
 12 27  1  0  0  0  0
 13 27  2  0  0  0  0
 14 28  1  0  0  0  0
 15 16  2  0  0  0  0
 15 29  1  0  0  0  0
 16 30  1  0  0  0  0
 17 24  1  0  0  0  0
 17 28  2  0  0  0  0
 18 30  2  0  0  0  0
 18 31  1  0  0  0  0
 19 32  1  0  0  0  0
 20 32  1  0  0  0  0
 20 33  2  0  0  0  0
 20 36  1  0  0  0  0
 21 23  2  0  0  0  0
 21 41  1  0  0  0  0
 22 24  2  0  0  0  0
 22 42  1  0  0  0  0
 23 52  1  0  0  0  0
 24 43  1  0  0  0  0
 25 68  1  0  0  0  0
 26 75  1  0  0  0  0
 27 84  1  0  0  0  0
 28 85  1  0  0  0  0
 29 31  2  0  0  0  0
 29 84  1  0  0  0  0
 30 86  1  0  0  0  0
 31 87  1  0  0  0  0
 32 66  2  0  0  0  0
 33 67  1  0  0  0  0
 33 71  1  0  0  0  0
 34 44  1  0  0  0  0
 34 68  1  0  0  0  0
 34 77  2  0  0  0  0
 35 53  1  0  0  0  0
 35 68  1  0  0  0  0
 35 78  2  0  0  0  0
 36 72  1  0  0  0  0
 36 79  2  0  0  0  0
 37 54  1  0  0  0  0
 37 73  1  0  0  0  0
 37 80  2  0  0  0  0
 38 63  1  0  0  0  0
 38 69  1  0  0  0  0
 38 81  2  0  0  0  0
 39 64  1  0  0  0  0
 39 74  1  0  0  0  0
 39 82  2  0  0  0  0
 40 70  1  0  0  0  0
 40 75  1  0  0  0  0
 40 83  2  0  0  0  0
 41 45  1  0  0  0  0
 42 54  1  0  0  0  0
 43 69  1  0  0  0  0
 44 46  1  0  0  0  0
 45 48  1  0  0  0  0
 46 53  1  0  0  0  0
 47 49  1  0  0  0  0
 47 50  1  0  0  0  0
 48 52  1  0  0  0  0
 49 55  1  0  0  0  0
 50 70  1  0  0  0  0
 51 55  1  0  0  0  0
 51 70  1  0  0  0  0
 52 73  1  0  0  0  0
 53 62  1  0  0  0  0
 54 69  1  0  0  0  0
 55 67  1  0  0  0  0
 56 64  1  0  0  0  0
 57 65  1  0  0  0  0
 58 65  1  0  0  0  0
 59 65  1  0  0  0  0
 60 75  1  0  0  0  0
 61 76  1  0  0  0  0
 62 85  1  0  0  0  0
 63 65  1  0  0  0  0
 63 74  1  0  0  0  0
 64 76  1  0  0  0  0
 66 67  1  0  0  0  0
M  CHG  1  76   1
M  ISO  4  40 100  62 101  75 100  85 101
M  END
> <Batch ID>
0102

> <Smiles>
CNC(C)C(=O)NC(C(=O)N1Cc2cc([101O:1][101CH2:1]C3CCC(=O)N(c4ccc([100N:0](C)[100C:0](=O)N5CCCC(n6nc(-c7ccc(Oc8ccc(F)cc8F)cc7)c(C(N)=O)c6N)C5)cc4)C3=O)ccc2CC1C(=O)NC1CCCc2ccccc21)C(C)(C)C

> <Shape>
0.269

> <Color>
0.118

> <Negative vol penalty>
0.000

$$$$

  -OEChem-04052301023D

 86 95  0     1  0  0  0  0  0999 V2000
  -28.5052  -37.6235   23.3081 C   0  0  0  0  0  0  0  0  0  0  0  0
  -28.9732  -36.4516   23.8937 C   0  0  0  0  0  0  0  0  0  0  0  0
  -22.9820  -10.4688   20.2756 C   0  0  0  0  0  0  0  0  0  0  0  0
  -24.5330   -9.5829   21.9025 C   0  0  0  0  0  0  0  0  0  0  0  0
  -27.1334  -37.8490   23.2022 C   0  0  0  0  0  0  0  0  0  0  0  0
  -28.0696  -35.5048   24.3748 C   0  0  0  0  0  0  0  0  0  0  0  0
  -28.0854  -28.7527   21.8648 C   0  0  0  0  0  0  0  0  0  0  0  0
  -29.2079  -18.4054   21.1655 C   0  0  0  0  0  0  0  0  0  0  0  0
  -29.9113  -17.2252   20.9246 C   0  0  0  0  0  0  0  0  0  0  0  0
  -21.9631   -9.6885   20.8221 C   0  0  0  0  0  0  0  0  0  0  0  0
  -23.5141   -8.8026   22.4490 C   0  0  0  0  0  0  0  0  0  0  0  0
  -28.1640  -27.3877   21.5876 C   0  0  0  0  0  0  0  0  0  0  0  0
  -21.9297   -5.9066   21.7186 C   0  0  0  0  0  0  0  0  0  0  0  0
  -22.2200   -4.5741   22.0114 C   0  0  0  0  0  0  0  0  0  0  0  0
  -26.2531  -26.9775   23.0117 C   0  0  0  0  0  0  0  0  0  0  0  0
  -30.8806  -19.0738   22.7755 C   0  0  0  0  0  0  0  0  0  0  0  0
  -21.6985   -4.9715   24.3367 C   0  0  0  0  0  0  0  0  0  0  0  0
  -24.2670  -10.4160   20.8158 C   0  0  0  0  0  0  0  0  0  0  0  0
  -25.8076  -11.1797   18.9314 C   0  0  0  0  0  0  0  0  0  0  0  0
  -26.2125  -36.9001   23.6735 C   0  0  0  0  0  0  0  0  0  0  0  0
  -27.0796  -29.2377   22.7054 C   0  0  0  0  0  0  0  0  0  0  0  0
  -26.6842  -35.7184   24.2763 C   0  0  0  0  0  0  0  0  0  0  0  0
  -26.1617  -28.3453   23.2831 C   0  0  0  0  0  0  0  0  0  0  0  0
  -29.6926  -19.3297   22.0909 C   0  0  0  0  0  0  0  0  0  0  0  0
  -31.0993  -16.9693   21.6092 C   0  0  0  0  0  0  0  0  0  0  0  0
  -22.2292   -8.8554   21.9088 C   0  0  0  0  0  0  0  0  0  0  0  0
  -27.2503  -26.5024   22.1598 C   0  0  0  0  0  0  0  0  0  0  0  0
  -21.5238   -6.7716   22.7348 C   0  0  0  0  0  0  0  0  0  0  0  0
  -22.1044   -4.1065   23.3205 C   0  0  0  0  0  0  0  0  0  0  0  0
  -31.5840  -17.8936   22.5347 C   0  0  0  0  0  0  0  0  0  0  0  0
  -21.4082   -6.3040   24.0439 C   0  0  0  0  0  0  0  0  0  0  0  0
  -25.3200  -11.2214   20.2514 C   0  0  0  0  0  0  0  0  0  0  0  0
  -26.7968  -12.1320   18.9006 C   0  0  0  0  0  0  0  0  0  0  0  0
  -27.6253  -22.9806   22.7655 C   0  0  0  0  0  0  0  0  0  0  0  0
  -27.5309  -24.3083   22.9216 C   0  0  0  0  0  0  0  0  0  1  0  0
  -25.4025  -10.3539   17.8315 C   0  0  0  0  0  0  0  0  0  0  0  0
  -25.4981  -32.2196   24.3435 C   0  0  0  0  0  0  0  0  0  0  0  0
  -23.2126  -30.3938   23.4196 C   0  0  0  0  0  0  0  0  0  0  0  0
  -20.9912  -28.3150   21.8766 C   0  0  0  0  0  0  0  0  0  0  0  0
  -31.1562  -14.5647   20.9723 C   0  0  0  0  0  0  0  0  0  0  0  0
  -24.7393  -37.2094   23.5798 C   0  0  0  0  0  0  0  0  0  0  0  0
  -26.9945  -30.6923   23.0806 C   0  0  0  0  0  0  0  0  0  0  0  0
  -25.1178  -28.9078   24.2087 C   0  0  0  0  0  0  0  0  0  0  0  0
  -27.8462  -22.0370   23.9133 C   0  0  0  0  0  0  0  0  0  0  0  0
  -27.5431  -22.3076   21.4247 C   0  0  0  0  0  0  0  0  0  0  0  0
  -23.8465  -35.9868   23.7758 C   0  0  0  0  0  0  0  0  0  0  0  0
  -28.0382  -15.7125   22.2388 C   0  0  0  0  0  0  0  0  0  0  0  0
  -24.3067  -35.1779   24.9844 C   0  0  0  0  0  0  0  0  0  0  0  0
  -27.0873  -14.6289   21.7317 C   0  0  0  0  0  0  0  0  0  0  0  0
  -29.0605  -21.1399   23.6607 C   0  0  0  0  0  0  0  0  0  0  0  0
  -28.7631  -21.4153   21.1886 C   0  0  0  0  0  0  0  0  0  0  0  0
  -29.3743  -15.1307   22.7018 C   0  0  0  0  0  0  0  0  0  0  0  0
  -29.0929  -13.1986   21.1813 C   0  0  0  0  0  0  0  0  0  0  0  0
  -25.7352  -34.6562   24.7877 C   0  0  1  0  0  0  0  0  0  0  0  0
  -25.5475  -31.1866   23.2564 C   0  0  1  0  0  0  0  0  0  0  0  0
  -27.7629  -13.7608   20.6555 C   0  0  1  0  0  0  0  0  0  0  0  0
  -18.5314  -27.9896   21.5015 C   0  0  0  0  0  0  0  0  0  0  0  0
  -22.9190  -29.3539   26.2721 C   0  0  0  0  0  0  0  0  0  0  0  0
  -20.8123  -28.2035   25.5602 C   0  0  0  0  0  0  0  0  0  0  0  0
  -20.9743  -30.6900   25.4430 C   0  0  0  0  0  0  0  0  0  0  0  0
  -33.2881  -15.8061   21.2711 C   0  0  0  0  0  0  0  0  0  0  0  0
  -21.2877  -28.5647   18.9425 C   0  0  0  0  0  0  0  0  0  0  0  0
  -22.2562  -29.2846   23.7777 C   0  0  1  0  0  0  0  0  0  0  0  0
  -19.8151  -28.5989   20.9597 C   0  0  2  0  0  0  0  0  0  0  0  0
  -21.7650  -29.3777   25.2499 C   0  0  0  0  0  0  0  0  0  0  0  0
  -25.9478  -12.1283   21.0046 N   0  0  0  0  0  0  0  0  0  0  0  0
  -26.8401  -12.6653   20.1552 N   0  0  0  0  0  0  0  0  0  0  0  0
  -28.9865  -20.5150   22.3322 N   0  0  0  0  0  0  0  0  0  0  0  0
  -24.5727  -30.1558   23.6520 N   0  0  0  0  0  0  0  0  0  0  0  0
  -29.9609  -14.2779   21.6583 N   0  0  0  0  0  0  0  0  0  0  0  0
  -27.6252  -12.5569   17.9230 N   0  0  0  0  0  0  0  0  0  0  0  0
  -26.0418   -9.1197   17.6517 N   0  0  0  0  0  0  0  0  0  0  0  0
  -25.7372  -33.5084   23.9062 N   0  0  0  0  0  0  0  0  0  0  0  0
  -21.1865  -29.3322   22.7867 N   0  0  0  0  0  0  0  0  0  0  0  0
  -31.8249  -15.7463   21.3579 N   0  0  0  0  0  0  0  0  0  0  0  0
  -20.0674  -28.0347   19.6037 N   0  3  0  0  0  0  0  0  0  0  0  0
  -24.5118  -10.7076   17.0222 O   0  0  0  0  0  0  0  0  0  0  0  0
  -25.2592  -31.8742   25.4948 O   0  0  0  0  0  0  0  0  0  0  0  0
  -22.7681  -31.4459   22.9518 O   0  0  0  0  0  0  0  0  0  0  0  0
  -21.6666  -27.2913   21.7960 O   0  0  0  0  0  0  0  0  0  0  0  0
  -31.6052  -13.8101   20.1011 O   0  0  0  0  0  0  0  0  0  0  0  0
  -21.2351   -8.0940   22.4424 O   0  0  0  0  0  0  0  0  0  0  0  0
  -27.3300  -25.1716   21.8814 O   0  0  0  0  0  0  0  0  0  1  0  0
  -22.3817   -2.8265   23.6012 F   0  0  0  0  0  0  0  0  0  0  0  0
  -32.7245  -17.6577   23.1987 F   0  0  0  0  0  0  0  0  0  0  0  0
  -21.0175   -7.1300   25.0242 F   0  0  0  0  0  0  0  0  0  0  0  0
  1  2  1  0  0  0  0
  1  5  2  0  0  0  0
  2  6  2  0  0  0  0
  3 10  2  0  0  0  0
  3 18  1  0  0  0  0
  4 11  1  0  0  0  0
  4 18  2  0  0  0  0
  5 20  1  0  0  0  0
  6 22  1  0  0  0  0
  7 12  2  0  0  0  0
  7 21  1  0  0  0  0
  8  9  2  0  0  0  0
  8 24  1  0  0  0  0
  9 25  1  0  0  0  0
 10 26  1  0  0  0  0
 11 26  2  0  0  0  0
 12 27  1  0  0  0  0
 13 14  2  0  0  0  0
 13 28  1  0  0  0  0
 14 29  1  0  0  0  0
 15 23  1  0  0  0  0
 15 27  2  0  0  0  0
 16 24  2  0  0  0  0
 16 30  1  0  0  0  0
 17 29  2  0  0  0  0
 17 31  1  0  0  0  0
 18 32  1  0  0  0  0
 19 32  1  0  0  0  0
 19 33  2  0  0  0  0
 19 36  1  0  0  0  0
 20 22  2  0  0  0  0
 20 41  1  0  0  0  0
 21 23  2  0  0  0  0
 21 42  1  0  0  0  0
 22 54  1  0  0  0  0
 23 43  1  0  0  0  0
 24 68  1  0  0  0  0
 25 30  2  0  0  0  0
 25 75  1  0  0  0  0
 26 82  1  0  0  0  0
 27 83  1  0  0  0  0
 28 31  2  0  0  0  0
 28 82  1  0  0  0  0
 29 84  1  0  0  0  0
 30 85  1  0  0  0  0
 31 86  1  0  0  0  0
 32 66  2  0  0  0  0
 33 67  1  0  0  0  0
 33 71  1  0  0  0  0
 34 35  2  0  0  0  0
 34 44  1  0  0  0  0
 34 45  1  0  0  0  0
 35 83  1  0  0  0  0
 36 72  1  0  0  0  0
 36 77  2  0  0  0  0
 37 55  1  0  0  0  0
 37 73  1  0  0  0  0
 37 78  2  0  0  0  0
 38 63  1  0  0  0  0
 38 69  1  0  0  0  0
 38 79  2  0  0  0  0
 39 64  1  0  0  0  0
 39 74  1  0  0  0  0
 39 80  2  0  0  0  0
 40 70  1  0  0  0  0
 40 75  1  0  0  0  0
 40 81  2  0  0  0  0
 41 46  1  0  0  0  0
 42 55  1  0  0  0  0
 43 69  1  0  0  0  0
 44 50  1  0  0  0  0
 45 51  1  0  0  0  0
 46 48  1  0  0  0  0
 47 49  1  0  0  0  0
 47 52  1  0  0  0  0
 48 54  1  0  0  0  0
 49 56  1  0  0  0  0
 50 68  1  0  0  0  0
 51 68  1  0  0  0  0
 52 70  1  0  0  0  0
 53 56  1  0  0  0  0
 53 70  1  0  0  0  0
 54 73  1  0  0  0  0
 55 69  1  0  0  0  0
 56 67  1  0  0  0  0
 57 64  1  0  0  0  0
 58 65  1  0  0  0  0
 59 65  1  0  0  0  0
 60 65  1  0  0  0  0
 61 75  1  0  0  0  0
 62 76  1  0  0  0  0
 63 65  1  0  0  0  0
 63 74  1  0  0  0  0
 64 76  1  0  0  0  0
 66 67  1  0  0  0  0
M  CHG  1  76   1
M  ISO  4  35 101  40 100  75 100  83 101
M  END
> <Batch ID>
0102

> <Smiles>
CNC(C)C(=O)NC(C(=O)N1Cc2cc([101O:1][101CH:1]=C3CCN(c4ccc([100N:0](C)[100C:0](=O)N5CCCC(n6nc(-c7ccc(Oc8ccc(F)cc8F)cc7)c(C(N)=O)c6N)C5)c(F)c4)CC3)ccc2CC1C(=O)NC1CCCc2ccccc21)C(C)(C)C

> <Shape>
0.339

> <Color>
0.092

> <Negative vol penalty>
0.000

$$$$

  -OEChem-04052301023D

 88 97  0     1  0  0  0  0  0999 V2000
  -22.1789  -32.4270   26.0622 C   0  0  0  0  0  0  0  0  0  0  0  0
  -23.1963  -32.5485   25.1211 C   0  0  0  0  0  0  0  0  0  0  0  0
  -22.6460  -10.3130   20.2699 C   0  0  0  0  0  0  0  0  0  0  0  0
  -24.2477   -9.6354   21.9470 C   0  0  0  0  0  0  0  0  0  0  0  0
  -22.3579  -31.6120   27.1792 C   0  0  0  0  0  0  0  0  0  0  0  0
  -24.3937  -31.8560   25.2971 C   0  0  0  0  0  0  0  0  0  0  0  0
  -26.7235  -27.1616   20.3548 C   0  0  0  0  0  0  0  0  0  0  0  0
  -31.7357  -18.3206   19.9530 C   0  0  0  0  0  0  0  0  0  0  0  0
  -31.5621  -19.3424   19.0195 C   0  0  0  0  0  0  0  0  0  0  0  0
  -21.8859   -9.1741   20.5357 C   0  0  0  0  0  0  0  0  0  0  0  0
  -23.4875   -8.4965   22.2128 C   0  0  0  0  0  0  0  0  0  0  0  0
  -27.3411  -26.4054   19.3584 C   0  0  0  0  0  0  0  0  0  0  0  0
  -19.6744   -8.1460   22.8778 C   0  0  0  0  0  0  0  0  0  0  0  0
  -18.2941   -8.3027   23.0034 C   0  0  0  0  0  0  0  0  0  0  0  0
  -29.1876  -25.9326   20.8468 C   0  0  0  0  0  0  0  0  0  0  0  0
  -29.3173  -19.7063   19.8352 C   0  0  0  0  0  0  0  0  0  0  0  0
  -17.9537   -6.7865   21.1534 C   0  0  0  0  0  0  0  0  0  0  0  0
  -23.8270  -10.5436   20.9755 C   0  0  0  0  0  0  0  0  0  0  0  0
  -24.2062  -13.0618   20.8239 C   0  0  0  0  0  0  0  0  0  0  0  0
  -23.5545  -30.9016   27.3641 C   0  0  0  0  0  0  0  0  0  0  0  0
  -27.3290  -27.2936   21.6076 C   0  0  0  0  0  0  0  0  0  0  0  0
  -24.5894  -31.0318   26.4184 C   0  0  0  0  0  0  0  0  0  0  0  0
  -28.5676  -26.6785   21.8528 C   0  0  0  0  0  0  0  0  0  0  0  0
  -30.7001  -17.9916   20.8276 C   0  0  0  0  0  0  0  0  0  0  0  0
  -29.4909  -18.6844   20.7687 C   0  0  0  0  0  0  0  0  0  0  0  0
  -30.3530  -20.0352   18.9606 C   0  0  0  0  0  0  0  0  0  0  0  0
  -22.3066   -8.2659   21.5072 C   0  0  0  0  0  0  0  0  0  0  0  0
  -28.5702  -25.7926   19.6038 C   0  0  0  0  0  0  0  0  0  0  0  0
  -20.1944   -7.3096   21.8899 C   0  0  0  0  0  0  0  0  0  0  0  0
  -17.4337   -7.6229   22.1412 C   0  0  0  0  0  0  0  0  0  0  0  0
  -19.3340   -6.6299   21.0277 C   0  0  0  0  0  0  0  0  0  0  0  0
  -24.6130  -11.7197   20.7010 C   0  0  0  0  0  0  0  0  0  0  0  0
  -25.3082  -13.7903   20.4482 C   0  0  0  0  0  0  0  0  0  0  0  0
  -30.8823  -21.0024   16.7710 C   0  0  0  0  0  0  0  0  0  0  0  0
  -29.3055  -22.1680   18.3429 C   0  0  0  0  0  0  0  0  0  0  0  0
  -22.9449  -13.6016   21.2404 C   0  0  0  0  0  0  0  0  0  0  0  0
  -27.1418  -28.7250   25.0706 C   0  0  0  0  0  0  0  0  0  0  0  0
  -28.2528  -25.8785   25.3418 C   0  0  0  0  0  0  0  0  0  0  0  0
  -29.1066  -22.7477   26.3936 C   0  0  0  0  0  0  0  0  0  0  0  0
  -30.8072  -14.7293   20.6074 C   0  0  0  0  0  0  0  0  0  0  0  0
  -23.7197  -30.0701   28.6115 C   0  0  0  0  0  0  0  0  0  0  0  0
  -26.7296  -28.1493   22.6904 C   0  0  0  0  0  0  0  0  0  0  0  0
  -29.1985  -26.8766   23.2040 C   0  0  0  0  0  0  0  0  0  0  0  0
  -30.8157  -22.1974   15.8426 C   0  0  0  0  0  0  0  0  0  0  0  0
  -24.8758  -29.0763   28.5323 C   0  0  0  0  0  0  0  0  0  0  0  0
  -30.2934  -23.4562   16.4944 C   0  0  0  0  0  0  0  0  0  0  0  0
  -29.6263  -12.3334   18.2533 C   0  0  0  0  0  0  0  0  0  0  0  0
  -26.1270  -29.7555   27.9844 C   0  0  0  0  0  0  0  0  0  0  0  0
  -28.1861  -12.0665   18.6941 C   0  0  0  0  0  0  0  0  0  0  0  0
  -30.5505  -12.5550   19.4486 C   0  0  0  0  0  0  0  0  0  0  0  0
  -28.6644  -13.3312   20.8320 C   0  0  0  0  0  0  0  0  0  0  0  0
  -25.8933  -30.2772   26.5615 C   0  0  1  0  0  0  0  0  0  0  0  0
  -28.9912  -23.1236   17.2006 C   0  0  2  0  0  0  0  0  0  0  0  0
  -26.9702  -27.5901   24.1041 C   0  0  1  0  0  0  0  0  0  0  0  0
  -27.6840  -13.1570   19.6595 C   0  0  2  0  0  0  0  0  0  0  0  0
  -28.3689  -18.3510   21.6964 C   0  0  0  0  0  0  0  0  0  0  0  0
  -30.2269  -21.5437   28.2891 C   0  0  0  0  0  0  0  0  0  0  0  0
  -30.9747  -26.7776   24.2993 C   0  0  0  0  0  0  0  0  0  0  0  0
  -32.0051  -24.8696   25.5507 C   0  0  0  0  0  0  0  0  0  0  0  0
  -30.7968  -26.6650   26.7914 C   0  0  0  0  0  0  0  0  0  0  0  0
  -26.6517  -21.2214   27.0281 C   0  0  0  0  0  0  0  0  0  0  0  0
  -30.9092  -16.8934   21.8180 C   0  0  0  0  0  0  0  0  0  0  0  0
  -28.3062  -24.3944   17.6978 C   0  0  0  0  0  0  0  0  0  1  0  0
  -29.4758  -25.0003   25.4219 C   0  0  1  0  0  0  0  0  0  0  0  0
  -28.9064  -22.0417   27.7225 C   0  0  2  0  0  0  0  0  0  0  0  0
  -30.7927  -25.8235   25.4966 C   0  0  0  0  0  0  0  0  0  0  0  0
  -25.8749  -11.5998   20.2801 N   0  0  0  0  0  0  0  0  0  0  0  0
  -26.2705  -12.8760   20.1350 N   0  0  0  0  0  0  0  0  0  0  0  0
  -30.1728  -21.0984   17.9921 N   0  0  0  0  0  0  0  0  0  0  0  0
  -28.1775  -26.7605   24.2570 N   0  0  0  0  0  0  0  0  0  0  0  0
  -30.0183  -13.6022   20.3237 N   0  0  0  0  0  0  0  0  0  0  0  0
  -25.5383  -15.1175   20.3584 N   0  0  0  0  0  0  0  0  0  0  0  0
  -22.7479  -13.8647   22.6028 N   0  0  0  0  0  0  0  0  0  0  0  0
  -25.9568  -29.1904   25.6079 N   0  0  0  0  0  0  0  0  0  0  0  0
  -29.2638  -24.1078   26.5564 N   0  0  0  0  0  0  0  0  0  0  0  0
  -30.2247  -15.6771   21.4400 N   0  0  0  0  0  0  0  0  0  0  0  0
  -27.9959  -20.8736   27.5564 N   0  3  0  0  0  0  0  0  0  0  0  0
  -31.4757  -19.9949   16.3726 O   0  0  0  0  0  0  0  0  0  0  0  0
  -28.8349  -22.3601   19.4659 O   0  0  0  0  0  0  0  0  0  0  0  0
  -22.0141  -13.8281   20.4305 O   0  0  0  0  0  0  0  0  0  0  0  0
  -28.2663  -29.1473   25.3131 O   0  0  0  0  0  0  0  0  0  0  0  0
  -27.3889  -25.7910   26.2189 O   0  0  0  0  0  0  0  0  0  0  0  0
  -29.1257  -22.1517   25.3189 O   0  0  0  0  0  0  0  0  0  0  0  0
  -31.9441  -14.8822   20.1483 O   0  0  0  0  0  0  0  0  0  0  0  0
  -21.5650   -7.1545   21.7670 O   0  0  0  0  0  0  0  0  0  0  0  0
  -29.1655  -25.0521   18.6281 O   0  0  0  0  0  0  0  0  0  1  0  0
  -16.1082   -7.7723   22.2630 F   0  0  0  0  0  0  0  0  0  0  0  0
  -19.8276   -5.8241   20.0775 F   0  0  0  0  0  0  0  0  0  0  0  0
  1  2  1  0  0  0  0
  1  5  2  0  0  0  0
  2  6  2  0  0  0  0
  3 10  2  0  0  0  0
  3 18  1  0  0  0  0
  4 11  1  0  0  0  0
  4 18  2  0  0  0  0
  5 20  1  0  0  0  0
  6 22  1  0  0  0  0
  7 12  2  0  0  0  0
  7 21  1  0  0  0  0
  8  9  2  0  0  0  0
  8 24  1  0  0  0  0
  9 26  1  0  0  0  0
 10 27  1  0  0  0  0
 11 27  2  0  0  0  0
 12 28  1  0  0  0  0
 13 14  2  0  0  0  0
 13 29  1  0  0  0  0
 14 30  1  0  0  0  0
 15 23  1  0  0  0  0
 15 28  2  0  0  0  0
 16 25  1  0  0  0  0
 16 26  2  0  0  0  0
 17 30  2  0  0  0  0
 17 31  1  0  0  0  0
 18 32  1  0  0  0  0
 19 32  1  0  0  0  0
 19 33  2  0  0  0  0
 19 36  1  0  0  0  0
 20 22  2  0  0  0  0
 20 41  1  0  0  0  0
 21 23  2  0  0  0  0
 21 42  1  0  0  0  0
 22 52  1  0  0  0  0
 23 43  1  0  0  0  0
 24 25  2  0  0  0  0
 24 62  1  0  0  0  0
 25 56  1  0  0  0  0
 26 69  1  0  0  0  0
 27 85  1  0  0  0  0
 28 86  1  0  0  0  0
 29 31  2  0  0  0  0
 29 85  1  0  0  0  0
 30 87  1  0  0  0  0
 31 88  1  0  0  0  0
 32 67  2  0  0  0  0
 33 68  1  0  0  0  0
 33 72  1  0  0  0  0
 34 44  1  0  0  0  0
 34 69  1  0  0  0  0
 34 78  2  0  0  0  0
 35 53  1  0  0  0  0
 35 69  1  0  0  0  0
 35 79  2  0  0  0  0
 36 73  1  0  0  0  0
 36 80  2  0  0  0  0
 37 54  1  0  0  0  0
 37 74  1  0  0  0  0
 37 81  2  0  0  0  0
 38 64  1  0  0  0  0
 38 70  1  0  0  0  0
 38 82  2  0  0  0  0
 39 65  1  0  0  0  0
 39 75  1  0  0  0  0
 39 83  2  0  0  0  0
 40 71  1  0  0  0  0
 40 76  1  0  0  0  0
 40 84  2  0  0  0  0
 41 45  1  0  0  0  0
 42 54  1  0  0  0  0
 43 70  1  0  0  0  0
 44 46  1  0  0  0  0
 45 48  1  0  0  0  0
 46 53  1  0  0  0  0
 47 49  1  0  0  0  0
 47 50  1  0  0  0  0
 48 52  1  0  0  0  0
 49 55  1  0  0  0  0
 50 71  1  0  0  0  0
 51 55  1  0  0  0  0
 51 71  1  0  0  0  0
 52 74  1  0  0  0  0
 53 63  1  0  0  0  0
 54 70  1  0  0  0  0
 55 68  1  0  0  0  0
 57 65  1  0  0  0  0
 58 66  1  0  0  0  0
 59 66  1  0  0  0  0
 60 66  1  0  0  0  0
 61 77  1  0  0  0  0
 62 76  1  0  0  0  0
 63 86  1  0  0  0  0
 64 66  1  0  0  0  0
 64 75  1  0  0  0  0
 65 77  1  0  0  0  0
 67 68  1  0  0  0  0
M  CHG  1  77   1
M  ISO  4  40 100  63 101  76 100  86 101
M  END
> <Batch ID>
0102

> <Smiles>
CNC(C)C(=O)NC(C(=O)N1Cc2cc([101O:1][101CH2:1]C3CCC(=O)N(c4ccc(C[100NH:0][100C:0](=O)N5CCCC(n6nc(-c7ccc(Oc8ccc(F)cc8F)cc7)c(C(N)=O)c6N)C5)c(C)c4)C3=O)ccc2CC1C(=O)NC1CCCc2ccccc21)C(C)(C)C

> <Shape>
0.257

> <Color>
0.179

> <Negative vol penalty>
0.000

$$$$

  -OEChem-04052301023D

 84 92  0     1  0  0  0  0  0999 V2000
  -22.6176  -34.0080   22.0471 C   0  0  0  0  0  0  0  0  0  0  0  0
  -23.6275  -33.0515   22.0208 C   0  0  0  0  0  0  0  0  0  0  0  0
  -24.6360  -10.0895   21.9645 C   0  0  0  0  0  0  0  0  0  0  0  0
  -24.7603  -11.4579   23.9517 C   0  0  0  0  0  0  0  0  0  0  0  0
  -21.3530  -33.6717   22.5284 C   0  0  0  0  0  0  0  0  0  0  0  0
  -23.3737  -31.7585   22.4769 C   0  0  0  0  0  0  0  0  0  0  0  0
  -25.2328  -28.2070   19.3825 C   0  0  0  0  0  0  0  0  0  0  0  0
  -24.3278   -8.9781   22.7490 C   0  0  0  0  0  0  0  0  0  0  0  0
  -24.4520  -10.3465   24.7362 C   0  0  0  0  0  0  0  0  0  0  0  0
  -26.6023  -27.9551   19.4524 C   0  0  0  0  0  0  0  0  0  0  0  0
  -21.6166   -7.7197   24.3298 C   0  0  0  0  0  0  0  0  0  0  0  0
  -20.5765   -6.8938   23.9036 C   0  0  0  0  0  0  0  0  0  0  0  0
  -26.1693  -26.0138   20.8174 C   0  0  0  0  0  0  0  0  0  0  0  0
  -29.2718  -21.7886   19.0229 C   0  0  0  0  0  0  0  0  0  0  0  0
  -29.0449  -20.7351   21.5962 C   0  0  0  0  0  0  0  0  0  0  0  0
  -22.1096   -5.0312   23.7715 C   0  0  0  0  0  0  0  0  0  0  0  0
  -24.8524  -11.3294   22.5658 C   0  0  0  0  0  0  0  0  0  0  0  0
  -24.2669  -13.3918   21.1834 C   0  0  0  0  0  0  0  0  0  0  0  0
  -21.0808  -32.3713   22.9816 C   0  0  0  0  0  0  0  0  0  0  0  0
  -24.3205  -27.3690   20.0397 C   0  0  0  0  0  0  0  0  0  0  0  0
  -22.1046  -31.4049   22.9660 C   0  0  0  0  0  0  0  0  0  0  0  0
  -24.7887  -26.2558   20.7521 C   0  0  0  0  0  0  0  0  0  0  0  0
  -28.9229  -20.4498   19.2002 C   0  0  0  0  0  0  0  0  0  0  0  0
  -28.8095  -19.9230   20.4867 C   0  0  0  0  0  0  0  0  0  0  0  0
  -29.5074  -22.6007   20.1323 C   0  0  0  0  0  0  0  0  0  0  0  0
  -24.2357   -9.1066   24.1348 C   0  0  0  0  0  0  0  0  0  0  0  0
  -27.0709  -26.8600   20.1723 C   0  0  0  0  0  0  0  0  0  0  0  0
  -22.9033   -7.2014   24.4767 C   0  0  0  0  0  0  0  0  0  0  0  0
  -20.8230   -5.5495   23.6245 C   0  0  0  0  0  0  0  0  0  0  0  0
  -29.3939  -22.0740   21.4189 C   0  0  0  0  0  0  0  0  0  0  0  0
  -23.1498   -5.8571   24.1977 C   0  0  0  0  0  0  0  0  0  0  0  0
  -25.1714  -12.4776   21.7560 C   0  0  0  0  0  0  0  0  0  0  0  0
  -25.0630  -14.2902   20.5160 C   0  0  0  0  0  0  0  0  0  0  0  0
  -22.8350  -13.4258   21.2489 C   0  0  0  0  0  0  0  0  0  0  0  0
  -22.1869  -27.7603   22.3631 C   0  0  0  0  0  0  0  0  0  0  0  0
  -29.5938  -17.5691   20.4123 C   0  0  0  0  0  0  0  0  0  0  0  0
  -21.4093  -24.6967   21.6338 C   0  0  0  0  0  0  0  0  0  0  0  0
  -30.0165  -24.6412   18.7463 C   0  0  0  0  0  0  0  0  0  0  0  0
  -22.3640  -21.7046   20.2986 C   0  0  0  0  0  0  0  0  0  0  0  0
  -19.7118  -32.0677   23.5370 C   0  0  0  0  0  0  0  0  0  0  0  0
  -22.8447  -27.6391   19.9323 C   0  0  0  0  0  0  0  0  0  0  0  0
  -23.8493  -25.3140   21.4586 C   0  0  0  0  0  0  0  0  0  0  0  0
  -19.4190  -30.5741   23.6528 C   0  0  0  0  0  0  0  0  0  0  0  0
  -29.9895  -14.1510   19.4121 C   0  0  0  0  0  0  0  0  0  0  0  0
  -20.5991  -29.8465   24.2890 C   0  0  0  0  0  0  0  0  0  0  0  0
  -28.7108  -13.4803   19.9124 C   0  0  0  0  0  0  0  0  0  0  0  0
  -30.4520  -15.2506   20.3630 C   0  0  0  0  0  0  0  0  0  0  0  0
  -28.1336  -15.6189   21.1445 C   0  0  0  0  0  0  0  0  0  0  0  0
  -21.8611  -29.9849   23.4290 C   0  0  1  0  0  0  0  0  0  0  0  0
  -22.0389  -27.0145   21.0672 C   0  0  1  0  0  0  0  0  0  0  0  0
  -27.6149  -14.5225   20.1972 C   0  0  2  0  0  0  0  0  0  0  0  0
  -28.6759  -19.5993   17.9975 C   0  0  0  0  0  0  0  0  0  0  0  0
  -21.5245  -19.3773   19.8788 C   0  0  0  0  0  0  0  0  0  0  0  0
  -21.7913  -24.0289   24.5865 C   0  0  0  0  0  0  0  0  0  0  0  0
  -21.8821  -21.6078   23.9554 C   0  0  0  0  0  0  0  0  0  0  0  0
  -19.8146  -22.9327   23.5163 C   0  0  0  0  0  0  0  0  0  0  0  0
  -22.6813  -21.9937   17.3704 C   0  0  0  0  0  0  0  0  0  0  0  0
  -28.4374  -18.4927   20.7016 C   0  0  0  0  0  0  0  0  0  0  0  0
  -30.4035  -26.0933   19.0025 C   0  0  0  0  0  0  0  0  0  0  0  0
  -29.2025  -27.0182   19.1297 C   0  0  0  0  0  0  0  0  0  1  0  0
  -21.8698  -23.3368   22.1003 C   0  0  1  0  0  0  0  0  0  0  0  0
  -21.6795  -20.7788   19.3092 C   0  0  2  0  0  0  0  0  0  0  0  0
  -21.3575  -22.9952   23.5280 C   0  0  0  0  0  0  0  0  0  0  0  0
  -26.4447  -12.7685   21.4767 N   0  0  0  0  0  0  0  0  0  0  0  0
  -26.3460  -13.8755   20.7211 N   0  0  0  0  0  0  0  0  0  0  0  0
  -22.4159  -25.6240   21.3293 N   0  0  0  0  0  0  0  0  0  0  0  0
  -29.3760  -16.2078   20.6258 N   0  0  0  0  0  0  0  0  0  0  0  0
  -24.7838  -15.3865   19.7794 N   0  0  0  0  0  0  0  0  0  0  0  0
  -22.1756  -12.4264   21.9774 N   0  0  0  0  0  0  0  0  0  0  0  0
  -29.8609  -23.9588   19.9499 N   0  0  0  0  0  0  0  0  0  0  0  0
  -21.8021  -29.0858   22.2965 N   0  0  0  0  0  0  0  0  0  0  0  0
  -21.4513  -22.3895   21.0728 N   0  0  0  0  0  0  0  0  0  0  0  0
  -22.4716  -20.6895   18.0501 N   0  3  0  0  0  0  0  0  0  0  0  0
  -22.1595  -14.3067   20.6648 O   0  0  0  0  0  0  0  0  0  0  0  0
  -22.6169  -27.1761   23.3507 O   0  0  0  0  0  0  0  0  0  0  0  0
  -30.6572  -18.0448   20.0060 O   0  0  0  0  0  0  0  0  0  0  0  0
  -20.2011  -24.9254   21.5362 O   0  0  0  0  0  0  0  0  0  0  0  0
  -29.8769  -24.1930   17.6132 O   0  0  0  0  0  0  0  0  0  0  0  0
  -23.5861  -21.8070   20.3794 O   0  0  0  0  0  0  0  0  0  0  0  0
  -23.9347   -8.0224   24.9007 O   0  0  0  0  0  0  0  0  0  0  0  0
  -28.4072  -26.6122   20.2427 O   0  0  0  0  0  0  0  0  0  1  0  0
  -19.8238   -4.7561   23.2168 F   0  0  0  0  0  0  0  0  0  0  0  0
  -29.6176  -22.8453   22.4925 F   0  0  0  0  0  0  0  0  0  0  0  0
  -24.3835   -5.3532   24.3382 F   0  0  0  0  0  0  0  0  0  0  0  0
  1  2  1  0  0  0  0
  1  5  2  0  0  0  0
  2  6  2  0  0  0  0
  3  8  2  0  0  0  0
  3 17  1  0  0  0  0
  4  9  1  0  0  0  0
  4 17  2  0  0  0  0
  5 19  1  0  0  0  0
  6 21  1  0  0  0  0
  7 10  2  0  0  0  0
  7 20  1  0  0  0  0
  8 26  1  0  0  0  0
  9 26  2  0  0  0  0
 10 27  1  0  0  0  0
 11 12  2  0  0  0  0
 11 28  1  0  0  0  0
 12 29  1  0  0  0  0
 13 22  1  0  0  0  0
 13 27  2  0  0  0  0
 14 23  2  0  0  0  0
 14 25  1  0  0  0  0
 15 24  2  0  0  0  0
 15 30  1  0  0  0  0
 16 29  2  0  0  0  0
 16 31  1  0  0  0  0
 17 32  1  0  0  0  0
 18 32  1  0  0  0  0
 18 33  2  0  0  0  0
 18 34  1  0  0  0  0
 19 21  2  0  0  0  0
 19 40  1  0  0  0  0
 20 22  2  0  0  0  0
 20 41  1  0  0  0  0
 21 49  1  0  0  0  0
 22 42  1  0  0  0  0
 23 24  1  0  0  0  0
 23 52  1  0  0  0  0
 24 58  1  0  0  0  0
 25 30  2  0  0  0  0
 25 70  1  0  0  0  0
 26 80  1  0  0  0  0
 27 81  1  0  0  0  0
 28 31  2  0  0  0  0
 28 80  1  0  0  0  0
 29 82  1  0  0  0  0
 30 83  1  0  0  0  0
 31 84  1  0  0  0  0
 32 64  2  0  0  0  0
 33 65  1  0  0  0  0
 33 68  1  0  0  0  0
 34 69  1  0  0  0  0
 34 74  2  0  0  0  0
 35 50  1  0  0  0  0
 35 71  1  0  0  0  0
 35 75  2  0  0  0  0
 36 58  1  0  0  0  0
 36 67  1  0  0  0  0
 36 76  2  0  0  0  0
 37 61  1  0  0  0  0
 37 66  1  0  0  0  0
 37 77  2  0  0  0  0
 38 59  1  0  0  0  0
 38 70  1  0  0  0  0
 38 78  2  0  0  0  0
 39 62  1  0  0  0  0
 39 72  1  0  0  0  0
 39 79  2  0  0  0  0
 40 43  1  0  0  0  0
 41 50  1  0  0  0  0
 42 66  1  0  0  0  0
 43 45  1  0  0  0  0
 44 46  1  0  0  0  0
 44 47  1  0  0  0  0
 45 49  1  0  0  0  0
 46 51  1  0  0  0  0
 47 67  1  0  0  0  0
 48 51  1  0  0  0  0
 48 67  1  0  0  0  0
 49 71  1  0  0  0  0
 50 66  1  0  0  0  0
 51 65  1  0  0  0  0
 53 62  1  0  0  0  0
 54 63  1  0  0  0  0
 55 63  1  0  0  0  0
 56 63  1  0  0  0  0
 57 73  1  0  0  0  0
 59 60  1  0  0  0  0
 60 81  1  0  0  0  0
 61 63  1  0  0  0  0
 61 72  1  0  0  0  0
 62 73  1  0  0  0  0
 64 65  1  0  0  0  0
M  CHG  1  73   1
M  ISO  4  36 100  58 100  60 101  81 101
M  END
> <Batch ID>
0102

> <Smiles>
CNC(C)C(=O)NC(C(=O)N1Cc2cc([101O:1][101CH2:1]CC(=O)Nc3cc(C)c([100CH2:0][100C:0](=O)N4CCCC(n5nc(-c6ccc(Oc7ccc(F)cc7F)cc6)c(C(N)=O)c5N)C4)cc3F)ccc2CC1C(=O)NC1CCCc2ccccc21)C(C)(C)C

> <Shape>
0.275

> <Color>
0.128

> <Negative vol penalty>
0.000

$$$$

  -OEChem-04052301023D

 88 96  0     1  0  0  0  0  0999 V2000
  -32.5118  -13.9331   20.7918 C   0  0  0  0  0  0  0  0  0  0  0  0
  -31.7700  -15.0849   21.0336 C   0  0  0  0  0  0  0  0  0  0  0  0
  -27.0454  -25.0575   20.8282 C   0  0  0  0  0  0  0  0  0  0  0  0
  -27.8937  -25.6948   18.6577 C   0  0  0  0  0  0  0  0  0  0  0  0
  -31.9087  -12.8310   20.1870 C   0  0  0  0  0  0  0  0  0  0  0  0
  -30.4248  -15.1357   20.6696 C   0  0  0  0  0  0  0  0  0  0  0  0
  -25.9213  -18.0574   23.6171 C   0  0  0  0  0  0  0  0  0  0  0  0
  -21.5238  -28.6566   25.0591 C   0  0  0  0  0  0  0  0  0  0  0  0
  -21.7020  -29.7515   24.2135 C   0  0  0  0  0  0  0  0  0  0  0  0
  -27.6762  -23.8190   20.7111 C   0  0  0  0  0  0  0  0  0  0  0  0
  -28.5245  -24.4562   18.5406 C   0  0  0  0  0  0  0  0  0  0  0  0
  -25.3121  -19.2941   23.4093 C   0  0  0  0  0  0  0  0  0  0  0  0
  -30.7982  -22.5701   21.0660 C   0  0  0  0  0  0  0  0  0  0  0  0
  -31.5025  -22.0942   22.1719 C   0  0  0  0  0  0  0  0  0  0  0  0
  -23.5503  -18.2108   22.1676 C   0  0  0  0  0  0  0  0  0  0  0  0
  -19.9687  -28.9086   22.7568 C   0  0  0  0  0  0  0  0  0  0  0  0
  -30.0691  -20.1509   22.2484 C   0  0  0  0  0  0  0  0  0  0  0  0
  -27.1542  -25.9955   19.8015 C   0  0  0  0  0  0  0  0  0  0  0  0
  -27.0375  -28.4528   20.4764 C   0  0  0  0  0  0  0  0  0  0  0  0
  -30.5531  -12.8649   19.8243 C   0  0  0  0  0  0  0  0  0  0  0  0
  -25.3544  -16.8874   23.0916 C   0  0  0  0  0  0  0  0  0  0  0  0
  -29.8034  -14.0336   20.0582 C   0  0  0  0  0  0  0  0  0  0  0  0
  -24.1529  -16.9602   22.3724 C   0  0  0  0  0  0  0  0  0  0  0  0
  -20.5681  -27.6877   24.7535 C   0  0  0  0  0  0  0  0  0  0  0  0
  -20.9245  -29.8775   23.0624 C   0  0  0  0  0  0  0  0  0  0  0  0
  -28.4157  -23.5183   19.5673 C   0  0  0  0  0  0  0  0  0  0  0  0
  -24.1280  -19.3713   22.6820 C   0  0  0  0  0  0  0  0  0  0  0  0
  -29.7293  -21.8365   20.5513 C   0  0  0  0  0  0  0  0  0  0  0  0
  -19.7905  -27.8137   23.6024 C   0  0  0  0  0  0  0  0  0  0  0  0
  -31.1380  -20.8846   22.7631 C   0  0  0  0  0  0  0  0  0  0  0  0
  -29.3647  -20.6269   21.1425 C   0  0  0  0  0  0  0  0  0  0  0  0
  -26.5024  -27.2748   19.9216 C   0  0  0  0  0  0  0  0  0  0  0  0
  -26.0304  -29.3785   20.3536 C   0  0  0  0  0  0  0  0  0  0  0  0
  -28.3296  -28.6891   21.0512 C   0  0  0  0  0  0  0  0  0  0  0  0
  -26.2901  -14.6857   20.9986 C   0  0  0  0  0  0  0  0  0  0  0  0
  -23.5496  -13.2113   21.9141 C   0  0  0  0  0  0  0  0  0  0  0  0
  -21.4187  -24.5031   24.5979 C   0  0  0  0  0  0  0  0  0  0  0  0
  -20.4180  -13.4830   23.2430 C   0  0  0  0  0  0  0  0  0  0  0  0
  -20.8666  -30.9114   20.7998 C   0  0  0  0  0  0  0  0  0  0  0  0
  -29.9572  -11.6659   19.1301 C   0  0  0  0  0  0  0  0  0  0  0  0
  -26.0098  -15.5579   23.3473 C   0  0  0  0  0  0  0  0  0  0  0  0
  -23.4930  -15.7312   21.8044 C   0  0  0  0  0  0  0  0  0  0  0  0
  -28.4307  -11.6667   19.1156 C   0  0  0  0  0  0  0  0  0  0  0  0
  -21.6841  -29.2083   17.7875 C   0  0  0  0  0  0  0  0  0  0  0  0
  -27.9015  -13.0368   18.7037 C   0  0  0  0  0  0  0  0  0  0  0  0
  -23.0603  -28.6365   18.1261 C   0  0  0  0  0  0  0  0  0  0  0  0
  -20.7263  -29.1379   18.9773 C   0  0  0  0  0  0  0  0  0  0  0  0
  -22.6342  -29.1848   20.5528 C   0  0  0  0  0  0  0  0  0  0  0  0
  -28.3355  -14.1183   19.7003 C   0  0  1  0  0  0  0  0  0  0  0  0
  -25.6176  -14.4925   22.3283 C   0  0  1  0  0  0  0  0  0  0  0  0
  -23.6356  -29.2950   19.3924 C   0  0  1  0  0  0  0  0  0  0  0  0
  -18.4020  -12.1097   23.8319 C   0  0  0  0  0  0  0  0  0  0  0  0
  -22.7891  -13.0666   18.9627 C   0  0  0  0  0  0  0  0  0  0  0  0
  -20.4351  -12.5830   19.6648 C   0  0  0  0  0  0  0  0  0  0  0  0
  -22.2667  -11.0040   20.2769 C   0  0  0  0  0  0  0  0  0  0  0  0
  -21.3195  -32.3324   22.7875 C   0  0  0  0  0  0  0  0  0  0  0  0
  -22.5969  -25.7302   26.4392 C   0  0  0  0  0  0  0  0  0  0  0  0
  -20.6266  -14.1942   26.1082 C   0  0  0  0  0  0  0  0  0  0  0  0
  -18.1029  -27.0835   22.0941 C   0  0  0  0  0  0  0  0  0  0  0  0
  -20.3902  -26.5158   25.6751 C   0  0  0  0  0  0  0  0  0  0  0  0
  -22.6204  -23.5675   24.5719 C   0  0  0  0  0  0  0  0  0  0  0  0
  -22.4843  -22.4655   23.5233 C   0  0  0  0  0  0  0  0  0  0  0  0
  -23.7158  -21.5722   23.4834 C   0  0  0  0  0  0  0  0  0  1  0  0
  -22.1138  -13.2391   21.4488 C   0  0  1  0  0  0  0  0  0  0  0  0
  -19.7140  -12.6939   24.3320 C   0  0  2  0  0  0  0  0  0  0  0  0
  -21.9144  -12.4967   20.0972 C   0  0  0  0  0  0  0  0  0  0  0  0
  -25.2522  -27.4349   19.4794 N   0  0  0  0  0  0  0  0  0  0  0  0
  -24.9934  -28.7242   19.7564 N   0  0  0  0  0  0  0  0  0  0  0  0
  -24.1756  -14.4554   22.0760 N   0  0  0  0  0  0  0  0  0  0  0  0
  -21.3339  -29.7416   20.1717 N   0  0  0  0  0  0  0  0  0  0  0  0
  -25.9394  -30.6803   20.6995 N   0  0  0  0  0  0  0  0  0  0  0  0
  -29.2442  -27.6281   21.0980 N   0  0  0  0  0  0  0  0  0  0  0  0
  -27.5191  -14.0626   20.8940 N   0  0  0  0  0  0  0  0  0  0  0  0
  -21.3180  -12.7033   22.5479 N   0  0  0  0  0  0  0  0  0  0  0  0
  -21.1097  -31.0107   22.1867 N   0  0  0  0  0  0  0  0  0  0  0  0
  -21.4659  -25.5423   25.5335 N   0  0  0  0  0  0  0  0  0  0  0  0
  -19.4225  -13.5710   25.5011 N   0  3  0  0  0  0  0  0  0  0  0  0
  -28.6573  -29.8035   21.5247 O   0  0  0  0  0  0  0  0  0  0  0  0
  -25.7346  -15.3495   20.1313 O   0  0  0  0  0  0  0  0  0  0  0  0
  -24.0935  -12.1259   22.1330 O   0  0  0  0  0  0  0  0  0  0  0  0
  -20.4730  -24.3281   23.8250 O   0  0  0  0  0  0  0  0  0  0  0  0
  -20.1896  -14.6713   23.0278 O   0  0  0  0  0  0  0  0  0  0  0  0
  -20.2993  -31.8097   20.1663 O   0  0  0  0  0  0  0  0  0  0  0  0
  -29.0316  -22.3099   19.4528 O   0  0  0  0  0  0  0  0  0  0  0  0
  -18.8529  -26.8759   23.2892 O   0  0  0  0  0  0  0  0  0  0  0  0
  -23.5316  -20.5772   22.4772 O   0  0  0  0  0  0  0  0  0  1  0  0
  -31.8154  -20.4269   23.8241 F   0  0  0  0  0  0  0  0  0  0  0  0
  -28.3395  -19.9170   20.6518 F   0  0  0  0  0  0  0  0  0  0  0  0
  1  2  1  0  0  0  0
  1  5  2  0  0  0  0
  2  6  2  0  0  0  0
  3 10  2  0  0  0  0
  3 18  1  0  0  0  0
  4 11  1  0  0  0  0
  4 18  2  0  0  0  0
  5 20  1  0  0  0  0
  6 22  1  0  0  0  0
  7 12  2  0  0  0  0
  7 21  1  0  0  0  0
  8  9  2  0  0  0  0
  8 24  1  0  0  0  0
  9 25  1  0  0  0  0
 10 26  1  0  0  0  0
 11 26  2  0  0  0  0
 12 27  1  0  0  0  0
 13 14  2  0  0  0  0
 13 28  1  0  0  0  0
 14 30  1  0  0  0  0
 15 23  1  0  0  0  0
 15 27  2  0  0  0  0
 16 25  2  0  0  0  0
 16 29  1  0  0  0  0
 17 30  2  0  0  0  0
 17 31  1  0  0  0  0
 18 32  1  0  0  0  0
 19 32  1  0  0  0  0
 19 33  2  0  0  0  0
 19 34  1  0  0  0  0
 20 22  2  0  0  0  0
 20 40  1  0  0  0  0
 21 23  2  0  0  0  0
 21 41  1  0  0  0  0
 22 49  1  0  0  0  0
 23 42  1  0  0  0  0
 24 29  2  0  0  0  0
 24 60  1  0  0  0  0
 25 75  1  0  0  0  0
 26 84  1  0  0  0  0
 27 86  1  0  0  0  0
 28 31  2  0  0  0  0
 28 84  1  0  0  0  0
 29 85  1  0  0  0  0
 30 87  1  0  0  0  0
 31 88  1  0  0  0  0
 32 67  2  0  0  0  0
 33 68  1  0  0  0  0
 33 71  1  0  0  0  0
 34 72  1  0  0  0  0
 34 78  2  0  0  0  0
 35 50  1  0  0  0  0
 35 73  1  0  0  0  0
 35 79  2  0  0  0  0
 36 64  1  0  0  0  0
 36 69  1  0  0  0  0
 36 80  2  0  0  0  0
 37 61  1  0  0  0  0
 37 76  1  0  0  0  0
 37 81  2  0  0  0  0
 38 65  1  0  0  0  0
 38 74  1  0  0  0  0
 38 82  2  0  0  0  0
 39 70  1  0  0  0  0
 39 75  1  0  0  0  0
 39 83  2  0  0  0  0
 40 43  1  0  0  0  0
 41 50  1  0  0  0  0
 42 69  1  0  0  0  0
 43 45  1  0  0  0  0
 44 46  1  0  0  0  0
 44 47  1  0  0  0  0
 45 49  1  0  0  0  0
 46 51  1  0  0  0  0
 47 70  1  0  0  0  0
 48 51  1  0  0  0  0
 48 70  1  0  0  0  0
 49 73  1  0  0  0  0
 50 69  1  0  0  0  0
 51 68  1  0  0  0  0
 52 65  1  0  0  0  0
 53 66  1  0  0  0  0
 54 66  1  0  0  0  0
 55 66  1  0  0  0  0
 56 75  1  0  0  0  0
 57 76  1  0  0  0  0
 58 77  1  0  0  0  0
 59 85  1  0  0  0  0
 60 76  1  0  0  0  0
 61 62  1  0  0  0  0
 62 63  1  0  0  0  0
 63 86  1  0  0  0  0
 64 66  1  0  0  0  0
 64 74  1  0  0  0  0
 65 77  1  0  0  0  0
 67 68  1  0  0  0  0
M  CHG  1  77   1
M  ISO  4  39 100  63 101  75 100  86 101
M  END
> <Batch ID>
0102

> <Smiles>
CNC(C)C(=O)NC(C(=O)N1Cc2cc([101O:1][101CH2:1]CCC(=O)N(C)Cc3ccc([100N:0](C)[100C:0](=O)N4CCCC(n5nc(-c6ccc(Oc7ccc(F)cc7F)cc6)c(C(N)=O)c5N)C4)cc3OC)ccc2CC1C(=O)NC1CCCc2ccccc21)C(C)(C)C

> <Shape>
0.252

> <Color>
0.070

> <Negative vol penalty>
0.000

$$$$

  -OEChem-04052301023D

 86 95  0     1  0  0  0  0  0999 V2000
  -22.7526   -8.5734   21.9433 C   0  0  0  0  0  0  0  0  0  0  0  0
  -23.9808   -9.1495   22.2515 C   0  0  0  0  0  0  0  0  0  0  0  0
  -22.1990  -29.0550   23.5663 C   0  0  0  0  0  0  0  0  0  0  0  0
  -21.2368  -28.6253   21.3923 C   0  0  0  0  0  0  0  0  0  0  0  0
  -31.9128  -23.5236   20.0060 C   0  0  0  0  0  0  0  0  0  0  0  0
  -21.9842   -9.0888   20.9003 C   0  0  0  0  0  0  0  0  0  0  0  0
  -24.4419  -10.2409   21.5161 C   0  0  0  0  0  0  0  0  0  0  0  0
  -28.3025  -16.2314   22.2407 C   0  0  0  0  0  0  0  0  0  0  0  0
  -30.8392  -24.3905   19.8025 C   0  0  0  0  0  0  0  0  0  0  0  0
  -21.0495  -28.5510   24.1747 C   0  0  0  0  0  0  0  0  0  0  0  0
  -20.0873  -28.1212   22.0007 C   0  0  0  0  0  0  0  0  0  0  0  0
  -29.3867  -16.8905   21.6629 C   0  0  0  0  0  0  0  0  0  0  0  0
  -17.3094  -29.3521   23.4837 C   0  0  0  0  0  0  0  0  0  0  0  0
  -16.0758  -29.7633   22.9792 C   0  0  0  0  0  0  0  0  0  0  0  0
  -32.5786  -23.8070   17.7009 C   0  0  0  0  0  0  0  0  0  0  0  0
  -27.9379  -17.7460   19.9344 C   0  0  0  0  0  0  0  0  0  0  0  0
  -15.5171  -27.4676   22.4742 C   0  0  0  0  0  0  0  0  0  0  0  0
  -22.2926  -29.0922   22.1751 C   0  0  0  0  0  0  0  0  0  0  0  0
  -32.7826  -23.2319   18.9552 C   0  0  0  0  0  0  0  0  0  0  0  0
  -24.0117  -30.9100   21.6770 C   0  0  0  0  0  0  0  0  0  0  0  0
  -22.4317  -10.1930   20.1580 C   0  0  0  0  0  0  0  0  0  0  0  0
  -27.0278  -16.3160   21.6625 C   0  0  0  0  0  0  0  0  0  0  0  0
  -23.6794  -10.7707   20.4613 C   0  0  0  0  0  0  0  0  0  0  0  0
  -26.8386  -17.0892   20.5082 C   0  0  0  0  0  0  0  0  0  0  0  0
  -30.6352  -24.9656   18.5482 C   0  0  0  0  0  0  0  0  0  0  0  0
  -19.9936  -28.0841   23.3919 C   0  0  0  0  0  0  0  0  0  0  0  0
  -29.2051  -17.6456   20.5080 C   0  0  0  0  0  0  0  0  0  0  0  0
  -17.6470  -27.9987   23.4834 C   0  0  0  0  0  0  0  0  0  0  0  0
  -15.1796  -28.8211   22.4745 C   0  0  0  0  0  0  0  0  0  0  0  0
  -31.5049  -24.6739   17.4974 C   0  0  0  0  0  0  0  0  0  0  0  0
  -16.7509  -27.0565   22.9787 C   0  0  0  0  0  0  0  0  0  0  0  0
  -23.4796  -29.6133   21.5460 C   0  0  0  0  0  0  0  0  0  0  0  0
  -25.1351  -30.9016   20.8869 C   0  0  0  0  0  0  0  0  0  0  0  0
  -33.9150  -22.3172   19.1699 C   0  0  0  0  0  0  0  0  0  0  0  0
  -23.5333  -32.0227   22.4444 C   0  0  0  0  0  0  0  0  0  0  0  0
  -24.9926  -14.2240   20.4034 C   0  0  0  0  0  0  0  0  0  0  0  0
  -23.0323  -16.8047   20.2643 C   0  0  0  0  0  0  0  0  0  0  0  0
  -22.7177  -20.2007   20.1419 C   0  0  0  0  0  0  0  0  0  0  0  0
  -28.5816  -26.2448   19.2768 C   0  0  0  0  0  0  0  0  0  0  0  0
  -21.5878  -10.6855   19.0091 C   0  0  0  0  0  0  0  0  0  0  0  0
  -25.8633  -15.6209   22.3130 C   0  0  0  0  0  0  0  0  0  0  0  0
  -25.4863  -17.2285   19.8598 C   0  0  0  0  0  0  0  0  0  0  0  0
  -21.9766  -12.0786   18.5210 C   0  0  0  0  0  0  0  0  0  0  0  0
  -26.2815  -28.2852   16.9811 C   0  0  0  0  0  0  0  0  0  0  0  0
  -23.4899  -12.1854   18.3617 C   0  0  0  0  0  0  0  0  0  0  0  0
  -25.9196  -29.4238   17.9319 C   0  0  0  0  0  0  0  0  0  0  0  0
  -33.9710  -18.8441   20.4095 C   0  0  0  0  0  0  0  0  0  0  0  0
  -27.5916  -27.6080   17.3632 C   0  0  0  0  0  0  0  0  0  0  0  0
  -34.6785  -20.0424   19.7959 C   0  0  0  0  0  0  0  0  0  0  0  0
  -32.3040  -20.4252   19.7539 C   0  0  0  0  0  0  0  0  0  0  0  0
  -26.5398  -27.6200   19.6325 C   0  0  0  0  0  0  0  0  0  0  0  0
  -24.2023  -11.9711   19.7026 C   0  0  1  0  0  0  0  0  0  0  0  0
  -24.7106  -15.3570   21.3491 C   0  0  1  0  0  0  0  0  0  0  0  0
  -32.5708  -18.9216   19.7964 C   0  0  2  0  0  0  0  0  0  0  0  0
  -26.2617  -29.1137   19.4027 C   0  0  2  0  0  0  0  0  0  0  0  0
  -20.9902  -22.0150   19.9954 C   0  0  0  0  0  0  0  0  0  0  0  0
  -22.6494  -16.1973   17.2987 C   0  0  0  0  0  0  0  0  0  0  0  0
  -21.7299  -18.5087   17.0154 C   0  0  0  0  0  0  0  0  0  0  0  0
  -20.5653  -16.8785   18.5017 C   0  0  0  0  0  0  0  0  0  0  0  0
  -23.5434  -21.3565   22.7383 C   0  0  0  0  0  0  0  0  0  0  0  0
  -31.5284  -18.1480   20.5836 C   0  0  0  0  0  0  0  0  0  1  0  0
  -22.7603  -17.8871   19.2477 C   0  0  1  0  0  0  0  0  0  0  0  0
  -21.8382  -21.1597   20.9239 C   0  0  2  0  0  0  0  0  0  0  0  0
  -21.9522  -17.3639   18.0268 C   0  0  0  0  0  0  0  0  0  0  0  0
  -24.2052  -28.8376   20.7362 N   0  0  0  0  0  0  0  0  0  0  0  0
  -25.2047  -29.6492   20.3512 N   0  0  0  0  0  0  0  0  0  0  0  0
  -33.6259  -21.0221   19.5713 N   0  0  0  0  0  0  0  0  0  0  0  0
  -24.3802  -16.5248   20.5299 N   0  0  0  0  0  0  0  0  0  0  0  0
  -27.6143  -27.1390   18.7563 N   0  0  0  0  0  0  0  0  0  0  0  0
  -26.0603  -31.8434   20.6049 N   0  0  0  0  0  0  0  0  0  0  0  0
  -22.6368  -32.9147   21.8404 N   0  0  0  0  0  0  0  0  0  0  0  0
  -29.5430  -25.8456   18.3446 N   0  0  0  0  0  0  0  0  0  0  0  0
  -24.1141  -13.1635   20.5181 N   0  0  0  0  0  0  0  0  0  0  0  0
  -22.1111  -18.9741   19.9725 N   0  0  0  0  0  0  0  0  0  0  0  0
  -22.6753  -22.0639   21.7621 N   0  3  0  0  0  0  0  0  0  0  0  0
  -35.0443  -22.7597   18.9687 O   0  0  0  0  0  0  0  0  0  0  0  0
  -23.9030  -32.2291   23.6251 O   0  0  0  0  0  0  0  0  0  0  0  0
  -25.9364  -14.3064   19.6262 O   0  0  0  0  0  0  0  0  0  0  0  0
  -22.0837  -16.2337   20.8081 O   0  0  0  0  0  0  0  0  0  0  0  0
  -23.8298  -20.5102   19.7202 O   0  0  0  0  0  0  0  0  0  0  0  0
  -28.5592  -25.8797   20.4541 O   0  0  0  0  0  0  0  0  0  0  0  0
  -18.8719  -27.5919   23.9853 O   0  0  0  0  0  0  0  0  0  0  0  0
  -30.2618  -18.2894   19.9417 O   0  0  0  0  0  0  0  0  0  1  0  0
  -13.9943  -29.2159   21.9915 F   0  0  0  0  0  0  0  0  0  0  0  0
  -31.3184  -25.2203   16.2872 F   0  0  0  0  0  0  0  0  0  0  0  0
  -17.0691  -25.7547   22.9768 F   0  0  0  0  0  0  0  0  0  0  0  0
  1  2  1  0  0  0  0
  1  6  2  0  0  0  0
  2  7  2  0  0  0  0
  3 10  2  0  0  0  0
  3 18  1  0  0  0  0
  4 11  1  0  0  0  0
  4 18  2  0  0  0  0
  5  9  2  0  0  0  0
  5 19  1  0  0  0  0
  6 21  1  0  0  0  0
  7 23  1  0  0  0  0
  8 12  2  0  0  0  0
  8 22  1  0  0  0  0
  9 25  1  0  0  0  0
 10 26  1  0  0  0  0
 11 26  2  0  0  0  0
 12 27  1  0  0  0  0
 13 14  2  0  0  0  0
 13 28  1  0  0  0  0
 14 29  1  0  0  0  0
 15 19  2  0  0  0  0
 15 30  1  0  0  0  0
 16 24  1  0  0  0  0
 16 27  2  0  0  0  0
 17 29  2  0  0  0  0
 17 31  1  0  0  0  0
 18 32  1  0  0  0  0
 19 34  1  0  0  0  0
 20 32  1  0  0  0  0
 20 33  2  0  0  0  0
 20 35  1  0  0  0  0
 21 23  2  0  0  0  0
 21 40  1  0  0  0  0
 22 24  2  0  0  0  0
 22 41  1  0  0  0  0
 23 52  1  0  0  0  0
 24 42  1  0  0  0  0
 25 30  2  0  0  0  0
 25 72  1  0  0  0  0
 26 82  1  0  0  0  0
 27 83  1  0  0  0  0
 28 31  2  0  0  0  0
 28 82  1  0  0  0  0
 29 84  1  0  0  0  0
 30 85  1  0  0  0  0
 31 86  1  0  0  0  0
 32 65  2  0  0  0  0
 33 66  1  0  0  0  0
 33 70  1  0  0  0  0
 34 67  1  0  0  0  0
 34 76  2  0  0  0  0
 35 71  1  0  0  0  0
 35 77  2  0  0  0  0
 36 53  1  0  0  0  0
 36 73  1  0  0  0  0
 36 78  2  0  0  0  0
 37 62  1  0  0  0  0
 37 68  1  0  0  0  0
 37 79  2  0  0  0  0
 38 63  1  0  0  0  0
 38 74  1  0  0  0  0
 38 80  2  0  0  0  0
 39 69  1  0  0  0  0
 39 72  1  0  0  0  0
 39 81  2  0  0  0  0
 40 43  1  0  0  0  0
 41 53  1  0  0  0  0
 42 68  1  0  0  0  0
 43 45  1  0  0  0  0
 44 46  1  0  0  0  0
 44 48  1  0  0  0  0
 45 52  1  0  0  0  0
 46 55  1  0  0  0  0
 47 49  1  0  0  0  0
 47 54  1  0  0  0  0
 48 69  1  0  0  0  0
 49 67  1  0  0  0  0
 50 54  1  0  0  0  0
 50 67  1  0  0  0  0
 51 55  1  0  0  0  0
 51 69  1  0  0  0  0
 52 73  1  0  0  0  0
 53 68  1  0  0  0  0
 54 61  1  0  0  0  0
 55 66  1  0  0  0  0
 56 63  1  0  0  0  0
 57 64  1  0  0  0  0
 58 64  1  0  0  0  0
 59 64  1  0  0  0  0
 60 75  1  0  0  0  0
 61 83  1  0  0  0  0
 62 64  1  0  0  0  0
 62 74  1  0  0  0  0
 63 75  1  0  0  0  0
 65 66  1  0  0  0  0
M  CHG  1  75   1
M  ISO  4  39 100  61 101  72 100  83 101
M  END
> <Batch ID>
0102

> <Smiles>
CNC(C)C(=O)NC(C(=O)N1Cc2cc([101O:1][101CH2:1]C3CCN(C(=O)c4ccc([100NH:0][100C:0](=O)N5CCCC(n6nc(-c7ccc(Oc8ccc(F)cc8F)cc7)c(C(N)=O)c6N)C5)c(F)c4)C3)ccc2CC1C(=O)NC1CCCc2ccccc21)C(C)(C)C

> <Shape>
0.251

> <Color>
0.076

> <Negative vol penalty>
0.000

$$$$

  -OEChem-04052301023D

 87 96  0     1  0  0  0  0  0999 V2000
  -27.1490  -23.0609   16.0289 C   0  0  0  0  0  0  0  0  0  0  0  0
  -26.1942  -23.6979   16.8152 C   0  0  0  0  0  0  0  0  0  0  0  0
  -27.4723  -14.2509   18.9681 C   0  0  0  0  0  0  0  0  0  0  0  0
  -25.5250  -15.0953   20.1223 C   0  0  0  0  0  0  0  0  0  0  0  0
  -28.4605  -22.9415   16.4868 C   0  0  0  0  0  0  0  0  0  0  0  0
  -26.5502  -24.2149   18.0603 C   0  0  0  0  0  0  0  0  0  0  0  0
  -24.6818  -28.8562   18.8428 C   0  0  0  0  0  0  0  0  0  0  0  0
  -21.6126  -23.9104   21.4786 C   0  0  0  0  0  0  0  0  0  0  0  0
  -21.0145  -25.0880   19.4556 C   0  0  0  0  0  0  0  0  0  0  0  0
  -22.4382  -23.0621   20.7408 C   0  0  0  0  0  0  0  0  0  0  0  0
  -21.8402  -24.2397   18.7177 C   0  0  0  0  0  0  0  0  0  0  0  0
  -27.2025  -12.9701   19.4498 C   0  0  0  0  0  0  0  0  0  0  0  0
  -25.2551  -13.8144   20.6040 C   0  0  0  0  0  0  0  0  0  0  0  0
  -23.3365  -28.9497   19.1967 C   0  0  0  0  0  0  0  0  0  0  0  0
  -23.8786  -10.9560   19.4397 C   0  0  0  0  0  0  0  0  0  0  0  0
  -22.5604  -10.5048   19.3737 C   0  0  0  0  0  0  0  0  0  0  0  0
  -23.9696  -29.2167   21.5091 C   0  0  0  0  0  0  0  0  0  0  0  0
  -22.5280  -10.2480   21.7758 C   0  0  0  0  0  0  0  0  0  0  0  0
  -26.6336  -15.3136   19.3044 C   0  0  0  0  0  0  0  0  0  0  0  0
  -28.0722  -17.4025   19.0316 C   0  0  0  0  0  0  0  0  0  0  0  0
  -28.8350  -23.4659   17.7340 C   0  0  0  0  0  0  0  0  0  0  0  0
  -25.6824  -28.9315   19.8224 C   0  0  0  0  0  0  0  0  0  0  0  0
  -27.8677  -24.1013   18.5359 C   0  0  0  0  0  0  0  0  0  0  0  0
  -25.3270  -29.1264   21.1647 C   0  0  0  0  0  0  0  0  0  0  0  0
  -20.9007  -24.9233   20.8360 C   0  0  0  0  0  0  0  0  0  0  0  0
  -22.5520  -23.2268   19.3604 C   0  0  0  0  0  0  0  0  0  0  0  0
  -26.0939  -12.7517   20.2677 C   0  0  0  0  0  0  0  0  0  0  0  0
  -22.9801  -29.1271   20.5304 C   0  0  0  0  0  0  0  0  0  0  0  0
  -24.5216  -11.0531   20.6738 C   0  0  0  0  0  0  0  0  0  0  0  0
  -21.8851  -10.1509   20.5417 C   0  0  0  0  0  0  0  0  0  0  0  0
  -23.8463  -10.6991   21.8418 C   0  0  0  0  0  0  0  0  0  0  0  0
  -26.9122  -16.6371   18.8076 C   0  0  0  0  0  0  0  0  0  0  0  0
  -27.8475  -18.5739   18.3505 C   0  0  0  0  0  0  0  0  0  0  0  0
  -19.4073  -25.3675   22.7746 C   0  0  0  0  0  0  0  0  0  0  0  0
  -29.2478  -17.0832   19.7877 C   0  0  0  0  0  0  0  0  0  0  0  0
  -27.9463  -26.9626   20.8724 C   0  0  0  0  0  0  0  0  0  0  0  0
  -28.8404  -29.5476   22.6162 C   0  0  0  0  0  0  0  0  0  0  0  0
  -27.1983  -32.1407   24.5126 C   0  0  0  0  0  0  0  0  0  0  0  0
  -23.1589  -22.0084   17.2536 C   0  0  0  0  0  0  0  0  0  0  0  0
  -30.2537  -23.2709   18.2070 C   0  0  0  0  0  0  0  0  0  0  0  0
  -27.1300  -28.8556   19.4211 C   0  0  0  0  0  0  0  0  0  0  0  0
  -26.3636  -29.2338   22.2520 C   0  0  0  0  0  0  0  0  0  0  0  0
  -18.6196  -26.4637   23.4666 C   0  0  0  0  0  0  0  0  0  0  0  0
  -30.6363  -24.1764   19.3749 C   0  0  0  0  0  0  0  0  0  0  0  0
  -19.4650  -27.7249   23.5459 C   0  0  0  0  0  0  0  0  0  0  0  0
  -24.8780  -19.9893   14.6727 C   0  0  0  0  0  0  0  0  0  0  0  0
  -29.5450  -24.1627   20.4407 C   0  0  0  0  0  0  0  0  0  0  0  0
  -25.6162  -18.9385   15.5000 C   0  0  0  0  0  0  0  0  0  0  0  0
  -23.6085  -20.4695   15.3695 C   0  0  0  0  0  0  0  0  0  0  0  0
  -24.5858  -19.9306   17.5822 C   0  0  0  0  0  0  0  0  0  0  0  0
  -19.7127  -27.1274   21.0722 C   0  0  0  0  0  0  0  0  0  0  0  0
  -28.2209  -24.6969   19.8814 C   0  0  1  0  0  0  0  0  0  0  0  0
  -28.0456  -28.4300   20.5647 C   0  0  1  0  0  0  0  0  0  0  0  0
  -25.8896  -19.4603   16.9203 C   0  0  1  0  0  0  0  0  0  0  0  0
  -19.8531  -28.2416   22.1417 C   0  0  1  0  0  0  0  0  0  0  0  0
  -18.9390  -29.4164   21.7475 C   0  0  0  0  0  0  0  0  0  0  0  0
  -27.9291  -34.4805   25.0499 C   0  0  0  0  0  0  0  0  0  0  0  0
  -29.9170  -28.3109   25.1894 C   0  0  0  0  0  0  0  0  0  0  0  0
  -29.1701  -30.3666   26.4077 C   0  0  0  0  0  0  0  0  0  0  0  0
  -30.8953  -30.5394   24.6142 C   0  0  0  0  0  0  0  0  0  0  0  0
  -24.4188  -21.5823   19.3182 C   0  0  0  0  0  0  0  0  0  0  0  0
  -24.7253  -33.2990   23.3718 C   0  0  0  0  0  0  0  0  0  0  0  0
  -21.3066  -28.7507   22.1777 C   0  0  0  0  0  0  0  0  0  1  0  0
  -28.4893  -30.0902   23.9805 C   0  0  1  0  0  0  0  0  0  0  0  0
  -27.0830  -33.6070   24.1368 C   0  0  2  0  0  0  0  0  0  0  0  0
  -29.5994  -29.8114   25.0328 C   0  0  0  0  0  0  0  0  0  0  0  0
  -26.0169  -17.2691   18.0440 N   0  0  0  0  0  0  0  0  0  0  0  0
  -26.6145  -18.4441   17.7823 N   0  0  0  0  0  0  0  0  0  0  0  0
  -20.0493  -25.7975   21.5963 N   0  0  0  0  0  0  0  0  0  0  0  0
  -27.7653  -29.1474   21.8101 N   0  0  0  0  0  0  0  0  0  0  0  0
  -23.8743  -20.9068   16.7409 N   0  0  0  0  0  0  0  0  0  0  0  0
  -28.5864  -19.6920   18.1883 N   0  0  0  0  0  0  0  0  0  0  0  0
  -29.3145  -15.8364   20.4243 N   0  0  0  0  0  0  0  0  0  0  0  0
  -28.2515  -26.1417   19.8035 N   0  0  0  0  0  0  0  0  0  0  0  0
  -28.1868  -31.5049   23.7916 N   0  0  0  0  0  0  0  0  0  0  0  0
  -23.4058  -22.3497   18.5970 N   0  0  0  0  0  0  0  0  0  0  0  0
  -25.6659  -34.0573   24.2363 N   0  3  0  0  0  0  0  0  0  0  0  0
  -19.3905  -24.2239   23.2280 O   0  0  0  0  0  0  0  0  0  0  0  0
  -30.2036  -17.8865   19.9092 O   0  0  0  0  0  0  0  0  0  0  0  0
  -27.6185  -26.6019   21.9967 O   0  0  0  0  0  0  0  0  0  0  0  0
  -30.0245  -29.4878   22.2755 O   0  0  0  0  0  0  0  0  0  0  0  0
  -26.4855  -31.6132   25.3636 O   0  0  0  0  0  0  0  0  0  0  0  0
  -22.3163  -22.6128   16.5788 O   0  0  0  0  0  0  0  0  0  0  0  0
  -25.8301  -11.5019   20.7377 O   0  0  0  0  0  0  0  0  0  0  0  0
  -21.6678  -29.2180   20.8786 O   0  0  0  0  0  0  0  0  0  1  0  0
  -20.6187   -9.7191   20.4783 F   0  0  0  0  0  0  0  0  0  0  0  0
  -24.4583  -10.7914   23.0304 F   0  0  0  0  0  0  0  0  0  0  0  0
  1  2  1  0  0  0  0
  1  5  2  0  0  0  0
  2  6  2  0  0  0  0
  3 12  2  0  0  0  0
  3 19  1  0  0  0  0
  4 13  1  0  0  0  0
  4 19  2  0  0  0  0
  5 21  1  0  0  0  0
  6 23  1  0  0  0  0
  7 14  2  0  0  0  0
  7 22  1  0  0  0  0
  8 10  2  0  0  0  0
  8 25  1  0  0  0  0
  9 11  1  0  0  0  0
  9 25  2  0  0  0  0
 10 26  1  0  0  0  0
 11 26  2  0  0  0  0
 12 27  1  0  0  0  0
 13 27  2  0  0  0  0
 14 28  1  0  0  0  0
 15 16  2  0  0  0  0
 15 29  1  0  0  0  0
 16 30  1  0  0  0  0
 17 24  1  0  0  0  0
 17 28  2  0  0  0  0
 18 30  2  0  0  0  0
 18 31  1  0  0  0  0
 19 32  1  0  0  0  0
 20 32  1  0  0  0  0
 20 33  2  0  0  0  0
 20 35  1  0  0  0  0
 21 23  2  0  0  0  0
 21 40  1  0  0  0  0
 22 24  2  0  0  0  0
 22 41  1  0  0  0  0
 23 52  1  0  0  0  0
 24 42  1  0  0  0  0
 25 69  1  0  0  0  0
 26 76  1  0  0  0  0
 27 84  1  0  0  0  0
 28 85  1  0  0  0  0
 29 31  2  0  0  0  0
 29 84  1  0  0  0  0
 30 86  1  0  0  0  0
 31 87  1  0  0  0  0
 32 67  2  0  0  0  0
 33 68  1  0  0  0  0
 33 72  1  0  0  0  0
 34 43  1  0  0  0  0
 34 69  1  0  0  0  0
 34 78  2  0  0  0  0
 35 73  1  0  0  0  0
 35 79  2  0  0  0  0
 36 53  1  0  0  0  0
 36 74  1  0  0  0  0
 36 80  2  0  0  0  0
 37 64  1  0  0  0  0
 37 70  1  0  0  0  0
 37 81  2  0  0  0  0
 38 65  1  0  0  0  0
 38 75  1  0  0  0  0
 38 82  2  0  0  0  0
 39 71  1  0  0  0  0
 39 76  1  0  0  0  0
 39 83  2  0  0  0  0
 40 44  1  0  0  0  0
 41 53  1  0  0  0  0
 42 70  1  0  0  0  0
 43 45  1  0  0  0  0
 44 47  1  0  0  0  0
 45 55  1  0  0  0  0
 46 48  1  0  0  0  0
 46 49  1  0  0  0  0
 47 52  1  0  0  0  0
 48 54  1  0  0  0  0
 49 71  1  0  0  0  0
 50 54  1  0  0  0  0
 50 71  1  0  0  0  0
 51 55  1  0  0  0  0
 51 69  1  0  0  0  0
 52 74  1  0  0  0  0
 53 70  1  0  0  0  0
 54 68  1  0  0  0  0
 55 56  1  0  0  0  0
 55 63  1  0  0  0  0
 57 65  1  0  0  0  0
 58 66  1  0  0  0  0
 59 66  1  0  0  0  0
 60 66  1  0  0  0  0
 61 76  1  0  0  0  0
 62 77  1  0  0  0  0
 63 85  1  0  0  0  0
 64 66  1  0  0  0  0
 64 75  1  0  0  0  0
 65 77  1  0  0  0  0
 67 68  1  0  0  0  0
M  CHG  1  77   1
M  ISO  4  39 100  63 101  76 100  85 101
M  END
> <Batch ID>
0102

> <Smiles>
CNC(C)C(=O)NC(C(=O)N1Cc2cc([101O:1][101CH2:1]C3(C)CCC(=O)N(c4ccc([100N:0](C)[100C:0](=O)N5CCCC(n6nc(-c7ccc(Oc8ccc(F)cc8F)cc7)c(C(N)=O)c6N)C5)cc4)C3)ccc2CC1C(=O)NC1CCCc2ccccc21)C(C)(C)C

> <Shape>
0.271

> <Color>
0.075

> <Negative vol penalty>
0.000

$$$$

  -OEChem-04052301023D

 83 91  0     1  0  0  0  0  0999 V2000
  -16.5234  -29.1684   22.9956 C   0  0  0  0  0  0  0  0  0  0  0  0
  -17.2286  -29.9397   22.0774 C   0  0  0  0  0  0  0  0  0  0  0  0
  -25.6027  -18.8751   21.9413 C   0  0  0  0  0  0  0  0  0  0  0  0
  -25.3375  -18.1791   19.6429 C   0  0  0  0  0  0  0  0  0  0  0  0
  -17.1644  -28.6831   24.1347 C   0  0  0  0  0  0  0  0  0  0  0  0
  -18.5751  -30.2271   22.2983 C   0  0  0  0  0  0  0  0  0  0  0  0
  -24.7053  -31.3167   18.7558 C   0  0  0  0  0  0  0  0  0  0  0  0
  -25.1112  -17.6426   22.3713 C   0  0  0  0  0  0  0  0  0  0  0  0
  -24.8460  -16.9465   20.0729 C   0  0  0  0  0  0  0  0  0  0  0  0
  -25.7446  -32.2411   18.6606 C   0  0  0  0  0  0  0  0  0  0  0  0
  -23.8599  -13.4821   20.5667 C   0  0  0  0  0  0  0  0  0  0  0  0
  -24.3457  -12.3349   19.9396 C   0  0  0  0  0  0  0  0  0  0  0  0
  -29.2044  -27.4037   16.0025 C   0  0  0  0  0  0  0  0  0  0  0  0
  -29.8022  -28.5799   16.5403 C   0  0  0  0  0  0  0  0  0  0  0  0
  -26.7685  -31.2830   20.6235 C   0  0  0  0  0  0  0  0  0  0  0  0
  -26.5866  -12.8975   20.6463 C   0  0  0  0  0  0  0  0  0  0  0  0
  -25.7159  -19.1434   20.5771 C   0  0  0  0  0  0  0  0  0  0  0  0
  -27.5653  -20.7541   19.8750 C   0  0  0  0  0  0  0  0  0  0  0  0
  -18.5219  -28.9566   24.3649 C   0  0  0  0  0  0  0  0  0  0  0  0
  -24.6841  -30.3739   19.7936 C   0  0  0  0  0  0  0  0  0  0  0  0
  -19.2345  -29.7461   23.4422 C   0  0  0  0  0  0  0  0  0  0  0  0
  -25.7291  -30.3460   20.7281 C   0  0  0  0  0  0  0  0  0  0  0  0
  -24.7329  -16.6783   21.4371 C   0  0  0  0  0  0  0  0  0  0  0  0
  -26.7749  -32.2262   19.5962 C   0  0  0  0  0  0  0  0  0  0  0  0
  -24.7374  -14.3372   21.2336 C   0  0  0  0  0  0  0  0  0  0  0  0
  -25.7090  -12.0425   19.9794 C   0  0  0  0  0  0  0  0  0  0  0  0
  -26.1007  -14.0448   21.2733 C   0  0  0  0  0  0  0  0  0  0  0  0
  -26.2230  -20.4166   20.1323 C   0  0  0  0  0  0  0  0  0  0  0  0
  -27.9422  -27.6452   15.5064 C   0  0  0  0  0  0  0  0  0  0  0  0
  -27.5192  -22.0691   19.4812 C   0  0  0  0  0  0  0  0  0  0  0  0
  -28.9741  -29.6758   16.4346 C   0  0  0  0  0  0  0  0  0  0  0  0
  -28.7479  -19.9507   19.9823 C   0  0  0  0  0  0  0  0  0  0  0  0
  -22.7179  -29.7415   22.2098 C   0  0  0  0  0  0  0  0  0  0  0  0
  -24.6871  -27.1992   22.6360 C   0  0  0  0  0  0  0  0  0  0  0  0
  -30.2811  -31.5737   17.4506 C   0  0  0  0  0  0  0  0  0  0  0  0
  -28.2389  -26.5734   22.5350 C   0  0  0  0  0  0  0  0  0  0  0  0
  -25.2013  -26.1783   16.5001 C   0  0  0  0  0  0  0  0  0  0  0  0
  -19.1595  -28.4498   25.6342 C   0  0  0  0  0  0  0  0  0  0  0  0
  -23.5697  -29.3663   19.8668 C   0  0  0  0  0  0  0  0  0  0  0  0
  -25.7636  -29.3411   21.8495 C   0  0  0  0  0  0  0  0  0  0  0  0
  -20.6853  -28.4857   25.6059 C   0  0  0  0  0  0  0  0  0  0  0  0
  -23.7424  -25.4292   19.6603 C   0  0  0  0  0  0  0  0  0  0  0  0
  -21.1779  -29.8278   25.0739 C   0  0  0  0  0  0  0  0  0  0  0  0
  -24.3635  -24.0838   20.0402 C   0  0  0  0  0  0  0  0  0  0  0  0
  -23.4810  -25.5262   18.1588 C   0  0  0  0  0  0  0  0  0  0  0  0
  -25.2733  -23.9018   17.6869 C   0  0  0  0  0  0  0  0  0  0  0  0
  -20.7027  -30.0586   23.6343 C   0  0  1  0  0  0  0  0  0  0  0  0
  -23.3831  -28.7822   21.2637 C   0  0  1  0  0  0  0  0  0  0  0  0
  -25.6069  -23.7784   19.1835 C   0  0  2  0  0  0  0  0  0  0  0  0
  -29.5113  -24.4699   22.0314 C   0  0  0  0  0  0  0  0  0  0  0  0
  -24.6784  -26.8137   25.6627 C   0  0  0  0  0  0  0  0  0  0  0  0
  -27.0145  -25.9304   25.4869 C   0  0  0  0  0  0  0  0  0  0  0  0
  -25.1430  -24.7376   24.3480 C   0  0  0  0  0  0  0  0  0  0  0  0
  -29.7893  -27.8883   20.3841 C   0  0  0  0  0  0  0  0  0  0  0  0
  -27.0038  -26.6930   14.8736 C   0  0  0  0  0  0  0  0  0  0  0  0
  -30.0695  -33.0595   17.7059 C   0  0  0  0  0  0  0  0  0  0  0  0
  -30.1502  -33.4186   19.1856 C   0  0  0  0  0  0  0  0  0  0  0  0
  -29.0673  -32.7188   19.9939 C   0  0  0  0  0  0  0  0  0  1  0  0
  -25.9517  -26.9462   23.4206 C   0  0  1  0  0  0  0  0  0  0  0  0
  -28.9936  -25.7883   21.4775 C   0  0  2  0  0  0  0  0  0  0  0  0
  -25.6905  -26.1329   24.7197 C   0  0  0  0  0  0  0  0  0  0  0  0
  -25.3854  -21.4351   19.9200 N   0  0  0  0  0  0  0  0  0  0  0  0
  -26.2035  -22.4255   19.5252 N   0  0  0  0  0  0  0  0  0  0  0  0
  -24.6482  -28.3807   21.8821 N   0  0  0  0  0  0  0  0  0  0  0  0
  -24.7000  -25.2269   17.4037 N   0  0  0  0  0  0  0  0  0  0  0  0
  -28.4763  -22.9437   19.1051 N   0  0  0  0  0  0  0  0  0  0  0  0
  -28.6159  -18.6198   20.4013 N   0  0  0  0  0  0  0  0  0  0  0  0
  -29.1633  -31.0207   16.8322 N   0  0  0  0  0  0  0  0  0  0  0  0
  -21.5089  -29.2938   22.7072 N   0  0  0  0  0  0  0  0  0  0  0  0
  -26.8856  -26.3122   22.4963 N   0  0  0  0  0  0  0  0  0  0  0  0
  -26.3640  -25.8176   15.8302 N   0  0  0  0  0  0  0  0  0  0  0  0
  -30.1554  -26.5766   20.9777 N   0  3  0  0  0  0  0  0  0  0  0  0
  -29.8899  -20.4045   19.7302 O   0  0  0  0  0  0  0  0  0  0  0  0
  -23.2620  -30.8081   22.4704 O   0  0  0  0  0  0  0  0  0  0  0  0
  -23.7703  -26.3752   22.6843 O   0  0  0  0  0  0  0  0  0  0  0  0
  -31.3167  -30.9991   17.7696 O   0  0  0  0  0  0  0  0  0  0  0  0
  -28.7948  -27.3390   23.3195 O   0  0  0  0  0  0  0  0  0  0  0  0
  -24.6563  -27.2707   16.3087 O   0  0  0  0  0  0  0  0  0  0  0  0
  -24.2534  -15.4754   21.8564 O   0  0  0  0  0  0  0  0  0  0  0  0
  -27.7902  -33.1278   19.5060 O   0  0  0  0  0  0  0  0  0  1  0  0
  -26.1752  -10.9399   19.3784 F   0  0  0  0  0  0  0  0  0  0  0  0
  -26.9484  -14.8618   21.9134 F   0  0  0  0  0  0  0  0  0  0  0  0
  -27.4827  -29.2846   15.6897 S   0  0  0  0  0  0  0  0  0  0  0  0
  1  2  1  0  0  0  0
  1  5  2  0  0  0  0
  2  6  2  0  0  0  0
  3  8  2  0  0  0  0
  3 17  1  0  0  0  0
  4  9  1  0  0  0  0
  4 17  2  0  0  0  0
  5 19  1  0  0  0  0
  6 21  1  0  0  0  0
  7 10  2  0  0  0  0
  7 20  1  0  0  0  0
  8 23  1  0  0  0  0
  9 23  2  0  0  0  0
 10 24  1  0  0  0  0
 11 12  2  0  0  0  0
 11 25  1  0  0  0  0
 12 26  1  0  0  0  0
 13 14  1  0  0  0  0
 13 29  2  0  0  0  0
 14 31  2  0  0  0  0
 15 22  1  0  0  0  0
 15 24  2  0  0  0  0
 16 26  2  0  0  0  0
 16 27  1  0  0  0  0
 17 28  1  0  0  0  0
 18 28  1  0  0  0  0
 18 30  2  0  0  0  0
 18 32  1  0  0  0  0
 19 21  2  0  0  0  0
 19 38  1  0  0  0  0
 20 22  2  0  0  0  0
 20 39  1  0  0  0  0
 21 47  1  0  0  0  0
 22 40  1  0  0  0  0
 23 79  1  0  0  0  0
 24 80  1  0  0  0  0
 25 27  2  0  0  0  0
 25 79  1  0  0  0  0
 26 81  1  0  0  0  0
 27 82  1  0  0  0  0
 28 62  2  0  0  0  0
 29 55  1  0  0  0  0
 29 83  1  0  0  0  0
 30 63  1  0  0  0  0
 30 66  1  0  0  0  0
 31 68  1  0  0  0  0
 31 83  1  0  0  0  0
 32 67  1  0  0  0  0
 32 73  2  0  0  0  0
 33 48  1  0  0  0  0
 33 69  1  0  0  0  0
 33 74  2  0  0  0  0
 34 59  1  0  0  0  0
 34 64  1  0  0  0  0
 34 75  2  0  0  0  0
 35 56  1  0  0  0  0
 35 68  1  0  0  0  0
 35 76  2  0  0  0  0
 36 60  1  0  0  0  0
 36 70  1  0  0  0  0
 36 77  2  0  0  0  0
 37 65  1  0  0  0  0
 37 71  1  0  0  0  0
 37 78  2  0  0  0  0
 38 41  1  0  0  0  0
 39 48  1  0  0  0  0
 40 64  1  0  0  0  0
 41 43  1  0  0  0  0
 42 44  1  0  0  0  0
 42 45  1  0  0  0  0
 43 47  1  0  0  0  0
 44 49  1  0  0  0  0
 45 65  1  0  0  0  0
 46 49  1  0  0  0  0
 46 65  1  0  0  0  0
 47 69  1  0  0  0  0
 48 64  1  0  0  0  0
 49 63  1  0  0  0  0
 50 60  1  0  0  0  0
 51 61  1  0  0  0  0
 52 61  1  0  0  0  0
 53 61  1  0  0  0  0
 54 72  1  0  0  0  0
 55 71  1  0  0  0  0
 56 57  1  0  0  0  0
 57 58  1  0  0  0  0
 58 80  1  0  0  0  0
 59 61  1  0  0  0  0
 59 70  1  0  0  0  0
 60 72  1  0  0  0  0
 62 63  1  0  0  0  0
M  CHG  1  72   1
M  ISO  4  37 100  58 101  71 100  80 101
M  END
> <Batch ID>
0102

> <Smiles>
CNC(C)C(=O)NC(C(=O)N1Cc2cc([101O:1][101CH2:1]CCC(=O)Nc3ccc(C[100NH:0][100C:0](=O)N4CCCC(n5nc(-c6ccc(Oc7ccc(F)cc7F)cc6)c(C(N)=O)c5N)C4)s3)ccc2CC1C(=O)NC1CCCc2ccccc21)C(C)(C)C

> <Shape>
0.173

> <Color>
0.092

> <Negative vol penalty>
0.000

$$$$

  -OEChem-04052301023D

 88 97  0     1  0  0  0  0  0999 V2000
  -26.1967  -33.0624   13.5623 C   0  0  0  0  0  0  0  0  0  0  0  0
  -26.7317  -32.0516   14.3545 C   0  0  0  0  0  0  0  0  0  0  0  0
  -24.0721  -12.1051   24.0635 C   0  0  0  0  0  0  0  0  0  0  0  0
  -24.6580  -14.4467   24.1669 C   0  0  0  0  0  0  0  0  0  0  0  0
  -25.8752  -34.2948   14.1297 C   0  0  0  0  0  0  0  0  0  0  0  0
  -26.9466  -32.2730   15.7144 C   0  0  0  0  0  0  0  0  0  0  0  0
  -25.3401  -28.3506   18.6342 C   0  0  0  0  0  0  0  0  0  0  0  0
  -30.9953  -20.3717   19.0816 C   0  0  0  0  0  0  0  0  0  0  0  0
  -30.6777  -19.0156   19.0057 C   0  0  0  0  0  0  0  0  0  0  0  0
  -23.6951  -12.1401   25.4060 C   0  0  0  0  0  0  0  0  0  0  0  0
  -24.2809  -14.4817   25.5094 C   0  0  0  0  0  0  0  0  0  0  0  0
  -26.1417  -27.2127   18.7144 C   0  0  0  0  0  0  0  0  0  0  0  0
  -22.2388  -11.7022   28.7079 C   0  0  0  0  0  0  0  0  0  0  0  0
  -21.0389  -11.0847   29.0608 C   0  0  0  0  0  0  0  0  0  0  0  0
  -27.0439  -28.0031   20.8071 C   0  0  0  0  0  0  0  0  0  0  0  0
  -28.6585  -20.9018   19.3901 C   0  0  0  0  0  0  0  0  0  0  0  0
  -19.8399  -12.5657   27.5755 C   0  0  0  0  0  0  0  0  0  0  0  0
  -24.5536  -13.2584   23.4440 C   0  0  0  0  0  0  0  0  0  0  0  0
  -24.1327  -12.8957   20.9542 C   0  0  0  0  0  0  0  0  0  0  0  0
  -26.0772  -34.5281   15.4992 C   0  0  0  0  0  0  0  0  0  0  0  0
  -25.3918  -29.3304   19.6363 C   0  0  0  0  0  0  0  0  0  0  0  0
  -26.6287  -33.5101   16.3003 C   0  0  0  0  0  0  0  0  0  0  0  0
  -26.2384  -29.1501   20.7396 C   0  0  0  0  0  0  0  0  0  0  0  0
  -29.9857  -21.3148   19.2739 C   0  0  0  0  0  0  0  0  0  0  0  0
  -29.3505  -18.6026   19.1219 C   0  0  0  0  0  0  0  0  0  0  0  0
  -23.7995  -13.3284   26.1289 C   0  0  0  0  0  0  0  0  0  0  0  0
  -26.9953  -27.0399   19.7998 C   0  0  0  0  0  0  0  0  0  0  0  0
  -22.2393  -12.7515   27.7888 C   0  0  0  0  0  0  0  0  0  0  0  0
  -28.3408  -19.5457   19.3141 C   0  0  0  0  0  0  0  0  0  0  0  0
  -19.8395  -11.5164   28.4946 C   0  0  0  0  0  0  0  0  0  0  0  0
  -21.0398  -13.1832   27.2226 C   0  0  0  0  0  0  0  0  0  0  0  0
  -24.9438  -13.2227   22.0574 C   0  0  0  0  0  0  0  0  0  0  0  0
  -24.9671  -13.0088   19.8691 C   0  0  0  0  0  0  0  0  0  0  0  0
  -31.3199  -24.4396   17.9560 C   0  0  0  0  0  0  0  0  0  0  0  0
  -29.5497  -23.6252   20.1177 C   0  0  0  0  0  0  0  0  0  0  0  0
  -22.7488  -12.5231   20.9139 C   0  0  0  0  0  0  0  0  0  0  0  0
  -26.1261  -32.4415   19.8015 C   0  0  0  0  0  0  0  0  0  0  0  0
  -25.0820  -31.9889   22.9254 C   0  0  0  0  0  0  0  0  0  0  0  0
  -24.9936  -35.3750   23.3330 C   0  0  0  0  0  0  0  0  0  0  0  0
  -29.9365  -16.1674   18.8525 C   0  0  0  0  0  0  0  0  0  0  0  0
  -25.7584  -35.8922   16.0579 C   0  0  0  0  0  0  0  0  0  0  0  0
  -24.4963  -30.5363   19.5460 C   0  0  0  0  0  0  0  0  0  0  0  0
  -26.3276  -30.1701   21.8425 C   0  0  0  0  0  0  0  0  0  0  0  0
  -30.2366  -25.3560   18.4731 C   0  0  0  0  0  0  0  0  0  0  0  0
  -31.5695  -23.1730   18.7416 C   0  0  0  0  0  0  0  0  0  0  0  0
  -25.6675  -35.9204   17.5815 C   0  0  0  0  0  0  0  0  0  0  0  0
  -29.5793  -12.6315   18.6363 C   0  0  0  0  0  0  0  0  0  0  0  0
  -26.8485  -35.1795   18.2004 C   0  0  0  0  0  0  0  0  0  0  0  0
  -28.2730  -12.3527   19.3834 C   0  0  0  0  0  0  0  0  0  0  0  0
  -30.3755  -13.7606   19.2880 C   0  0  0  0  0  0  0  0  0  0  0  0
  -28.3217  -14.7283   20.2442 C   0  0  0  0  0  0  0  0  0  0  0  0
  -26.8533  -33.7036   17.7843 C   0  0  1  0  0  0  0  0  0  0  0  0
  -30.0247  -25.0740   19.9628 C   0  0  1  0  0  0  0  0  0  0  0  0
  -24.9626  -31.7085   20.4068 C   0  0  1  0  0  0  0  0  0  0  0  0
  -27.4541  -13.6424   19.5872 C   0  0  2  0  0  0  0  0  0  0  0  0
  -24.2298  -37.1465   24.9379 C   0  0  0  0  0  0  0  0  0  0  0  0
  -22.1990  -31.5534   22.0286 C   0  0  0  0  0  0  0  0  0  0  0  0
  -21.6657  -33.8516   22.8665 C   0  0  0  0  0  0  0  0  0  0  0  0
  -22.4658  -32.1017   24.4540 C   0  0  0  0  0  0  0  0  0  0  0  0
  -27.7484  -36.3914   23.7030 C   0  0  0  0  0  0  0  0  0  0  0  0
  -26.5596  -18.8769   20.7409 C   0  0  0  0  0  0  0  0  0  0  0  0
  -29.0272  -26.0640   20.5583 C   0  0  0  0  0  0  0  0  0  1  0  0
  -24.0940  -33.1227   22.8112 C   0  0  1  0  0  0  0  0  0  0  0  0
  -25.3859  -36.2595   24.5028 C   0  0  2  0  0  0  0  0  0  0  0  0
  -22.6265  -32.6534   23.0206 C   0  0  0  0  0  0  0  0  0  0  0  0
  -26.1972  -13.5210   21.7054 N   0  0  0  0  0  0  0  0  0  0  0  0
  -26.1800  -13.3818   20.3689 N   0  0  0  0  0  0  0  0  0  0  0  0
  -30.3139  -22.7152   19.3515 N   0  0  0  0  0  0  0  0  0  0  0  0
  -25.3749  -31.2841   21.7508 N   0  0  0  0  0  0  0  0  0  0  0  0
  -29.5368  -14.9509   19.4451 N   0  0  0  0  0  0  0  0  0  0  0  0
  -24.7742  -12.8245   18.5457 N   0  0  0  0  0  0  0  0  0  0  0  0
  -22.0396  -12.4557   22.1209 N   0  0  0  0  0  0  0  0  0  0  0  0
  -29.0435  -17.2217   19.0416 N   0  0  0  0  0  0  0  0  0  0  0  0
  -25.8726  -32.9605   18.5462 N   0  0  0  0  0  0  0  0  0  0  0  0
  -24.5348  -34.1448   23.7543 N   0  0  0  0  0  0  0  0  0  0  0  0
  -26.5339  -37.1332   24.1294 N   0  3  0  0  0  0  0  0  0  0  0  0
  -32.0342  -24.7623   17.0078 O   0  0  0  0  0  0  0  0  0  0  0  0
  -28.5624  -23.3577   20.8005 O   0  0  0  0  0  0  0  0  0  0  0  0
  -22.1628  -12.2419   19.8411 O   0  0  0  0  0  0  0  0  0  0  0  0
  -27.1757  -32.5309   20.4277 O   0  0  0  0  0  0  0  0  0  0  0  0
  -25.5761  -31.7282   24.0259 O   0  0  0  0  0  0  0  0  0  0  0  0
  -25.0817  -35.7403   22.1629 O   0  0  0  0  0  0  0  0  0  0  0  0
  -30.9797  -16.2597   18.2004 O   0  0  0  0  0  0  0  0  0  0  0  0
  -23.4314  -13.3630   27.4389 O   0  0  0  0  0  0  0  0  0  0  0  0
  -27.0373  -19.1636   19.4284 O   0  0  0  0  0  0  0  0  0  0  0  0
  -27.7784  -25.9299   19.8809 O   0  0  0  0  0  0  0  0  0  1  0  0
  -18.6875  -10.9223   28.8325 F   0  0  0  0  0  0  0  0  0  0  0  0
  -21.0341  -14.1900   26.3382 F   0  0  0  0  0  0  0  0  0  0  0  0
  1  2  1  0  0  0  0
  1  5  2  0  0  0  0
  2  6  2  0  0  0  0
  3 10  2  0  0  0  0
  3 18  1  0  0  0  0
  4 11  1  0  0  0  0
  4 18  2  0  0  0  0
  5 20  1  0  0  0  0
  6 22  1  0  0  0  0
  7 12  2  0  0  0  0
  7 21  1  0  0  0  0
  8  9  2  0  0  0  0
  8 24  1  0  0  0  0
  9 25  1  0  0  0  0
 10 26  1  0  0  0  0
 11 26  2  0  0  0  0
 12 27  1  0  0  0  0
 13 14  2  0  0  0  0
 13 28  1  0  0  0  0
 14 30  1  0  0  0  0
 15 23  1  0  0  0  0
 15 27  2  0  0  0  0
 16 24  2  0  0  0  0
 16 29  1  0  0  0  0
 17 30  2  0  0  0  0
 17 31  1  0  0  0  0
 18 32  1  0  0  0  0
 19 32  1  0  0  0  0
 19 33  2  0  0  0  0
 19 36  1  0  0  0  0
 20 22  2  0  0  0  0
 20 41  1  0  0  0  0
 21 23  2  0  0  0  0
 21 42  1  0  0  0  0
 22 52  1  0  0  0  0
 23 43  1  0  0  0  0
 24 68  1  0  0  0  0
 25 29  2  0  0  0  0
 25 73  1  0  0  0  0
 26 84  1  0  0  0  0
 27 86  1  0  0  0  0
 28 31  2  0  0  0  0
 28 84  1  0  0  0  0
 29 85  1  0  0  0  0
 30 87  1  0  0  0  0
 31 88  1  0  0  0  0
 32 66  2  0  0  0  0
 33 67  1  0  0  0  0
 33 71  1  0  0  0  0
 34 44  1  0  0  0  0
 34 45  1  0  0  0  0
 34 77  2  0  0  0  0
 35 53  1  0  0  0  0
 35 68  1  0  0  0  0
 35 78  2  0  0  0  0
 36 72  1  0  0  0  0
 36 79  2  0  0  0  0
 37 54  1  0  0  0  0
 37 74  1  0  0  0  0
 37 80  2  0  0  0  0
 38 63  1  0  0  0  0
 38 69  1  0  0  0  0
 38 81  2  0  0  0  0
 39 64  1  0  0  0  0
 39 75  1  0  0  0  0
 39 82  2  0  0  0  0
 40 70  1  0  0  0  0
 40 73  1  0  0  0  0
 40 83  2  0  0  0  0
 41 46  1  0  0  0  0
 42 54  1  0  0  0  0
 43 69  1  0  0  0  0
 44 53  1  0  0  0  0
 45 68  1  0  0  0  0
 46 48  1  0  0  0  0
 47 49  1  0  0  0  0
 47 50  1  0  0  0  0
 48 52  1  0  0  0  0
 49 55  1  0  0  0  0
 50 70  1  0  0  0  0
 51 55  1  0  0  0  0
 51 70  1  0  0  0  0
 52 74  1  0  0  0  0
 53 62  1  0  0  0  0
 54 69  1  0  0  0  0
 55 67  1  0  0  0  0
 56 64  1  0  0  0  0
 57 65  1  0  0  0  0
 58 65  1  0  0  0  0
 59 65  1  0  0  0  0
 60 76  1  0  0  0  0
 61 85  1  0  0  0  0
 62 86  1  0  0  0  0
 63 65  1  0  0  0  0
 63 75  1  0  0  0  0
 64 76  1  0  0  0  0
 66 67  1  0  0  0  0
M  CHG  1  76   1
M  ISO  4  40 100  62 101  73 100  86 101
M  END
> <Batch ID>
0102

> <Smiles>
CNC(C)C(=O)NC(C(=O)N1Cc2cc([101O:1][101CH2:1]C3CC(=O)CN(c4ccc([100NH:0][100C:0](=O)N5CCCC(n6nc(-c7ccc(Oc8ccc(F)cc8F)cc7)c(C(N)=O)c6N)C5)c(OC)c4)C3=O)ccc2CC1C(=O)NC1CCCc2ccccc21)C(C)(C)C

> <Shape>
0.268

> <Color>
0.111

> <Negative vol penalty>
0.000

$$$$

  -OEChem-04052301023D

 85 94  0     1  0  0  0  0  0999 V2000
  -17.8578  -32.4988   23.7302 C   0  0  0  0  0  0  0  0  0  0  0  0
  -19.0678  -32.7555   23.0934 C   0  0  0  0  0  0  0  0  0  0  0  0
  -28.5924  -22.2768   15.9968 C   0  0  0  0  0  0  0  0  0  0  0  0
  -25.3182  -13.6259   21.8844 C   0  0  0  0  0  0  0  0  0  0  0  0
  -25.5681  -14.1139   19.5314 C   0  0  0  0  0  0  0  0  0  0  0  0
  -17.6902  -31.3212   24.4575 C   0  0  0  0  0  0  0  0  0  0  0  0
  -20.1113  -31.8351   23.1845 C   0  0  0  0  0  0  0  0  0  0  0  0
  -25.6276  -29.2579   19.4102 C   0  0  0  0  0  0  0  0  0  0  0  0
  -29.2618  -23.4674   16.2796 C   0  0  0  0  0  0  0  0  0  0  0  0
  -27.8635  -21.6321   16.9961 C   0  0  0  0  0  0  0  0  0  0  0  0
  -24.3439  -12.6741   21.5835 C   0  0  0  0  0  0  0  0  0  0  0  0
  -24.5939  -13.1621   19.2305 C   0  0  0  0  0  0  0  0  0  0  0  0
  -27.0000  -29.0387   19.5215 C   0  0  0  0  0  0  0  0  0  0  0  0
  -24.2382   -9.4896   20.4517 C   0  0  0  0  0  0  0  0  0  0  0  0
  -24.3147   -8.2566   21.0993 C   0  0  0  0  0  0  0  0  0  0  0  0
  -26.5696  -27.0014   20.7395 C   0  0  0  0  0  0  0  0  0  0  0  0
  -28.4735  -23.3686   18.5613 C   0  0  0  0  0  0  0  0  0  0  0  0
  -22.1271   -8.6236   22.0568 C   0  0  0  0  0  0  0  0  0  0  0  0
  -25.9302  -14.3458   20.8584 C   0  0  0  0  0  0  0  0  0  0  0  0
  -28.3247  -15.1219   21.2728 C   0  0  0  0  0  0  0  0  0  0  0  0
  -18.7290  -30.3814   24.5495 C   0  0  0  0  0  0  0  0  0  0  0  0
  -24.7146  -28.3547   19.9732 C   0  0  0  0  0  0  0  0  0  0  0  0
  -19.9579  -30.6444   23.9148 C   0  0  0  0  0  0  0  0  0  0  0  0
  -25.1861  -27.2102   20.6318 C   0  0  0  0  0  0  0  0  0  0  0  0
  -29.2024  -24.0133   17.5618 C   0  0  0  0  0  0  0  0  0  0  0  0
  -27.8041  -22.1780   18.2784 C   0  0  0  0  0  0  0  0  0  0  0  0
  -23.9818  -12.4422   20.2566 C   0  0  0  0  0  0  0  0  0  0  0  0
  -27.4712  -27.9118   20.1887 C   0  0  0  0  0  0  0  0  0  0  0  0
  -23.1061  -10.2898   20.6068 C   0  0  0  0  0  0  0  0  0  0  0  0
  -23.2592   -7.8236   21.9018 C   0  0  0  0  0  0  0  0  0  0  0  0
  -22.0506   -9.8567   21.4093 C   0  0  0  0  0  0  0  0  0  0  0  0
  -26.9363  -15.3296   21.1686 C   0  0  0  0  0  0  0  0  0  0  0  0
  -28.8347  -16.3590   21.5827 C   0  0  0  0  0  0  0  0  0  0  0  0
  -29.0855  -13.9183   21.1044 C   0  0  0  0  0  0  0  0  0  0  0  0
  -22.4784  -28.5362   22.2250 C   0  0  0  0  0  0  0  0  0  0  0  0
  -21.8212  -25.5071   21.2684 C   0  0  0  0  0  0  0  0  0  0  0  0
  -22.9164  -22.6353   19.7852 C   0  0  0  0  0  0  0  0  0  0  0  0
  -26.9014  -21.9299   20.6172 C   0  0  0  0  0  0  0  0  0  0  0  0
  -18.5170  -29.1447   25.3864 C   0  0  0  0  0  0  0  0  0  0  0  0
  -23.2370  -28.5918   19.8213 C   0  0  0  0  0  0  0  0  0  0  0  0
  -24.2471  -26.1995   21.2361 C   0  0  0  0  0  0  0  0  0  0  0  0
  -19.5447  -28.0472   25.1226 C   0  0  0  0  0  0  0  0  0  0  0  0
  -27.6574  -20.4544   23.7681 C   0  0  0  0  0  0  0  0  0  0  0  0
  -33.2558  -25.0029   19.4598 C   0  0  0  0  0  0  0  0  0  0  0  0
  -20.9540  -28.6305   25.0971 C   0  0  0  0  0  0  0  0  0  0  0  0
  -27.6906  -18.9542   23.4673 C   0  0  0  0  0  0  0  0  0  0  0  0
  -32.8651  -26.4604   19.6165 C   0  0  0  0  0  0  0  0  0  0  0  0
  -26.5763  -21.1708   22.9609 C   0  0  0  0  0  0  0  0  0  0  0  0
  -26.6606  -19.4389   21.2109 C   0  0  0  0  0  0  0  0  0  0  0  0
  -32.2281  -24.4872   18.4773 C   0  0  0  0  0  0  0  0  0  0  0  0
  -21.1051  -29.6589   23.9698 C   0  0  1  0  0  0  0  0  0  0  0  0
  -22.4048  -27.8730   20.8787 C   0  0  1  0  0  0  0  0  0  0  0  0
  -27.7769  -18.6850   21.9521 C   0  0  2  0  0  0  0  0  0  0  0  0
  -31.3366  -26.4581   19.6243 C   0  0  2  0  0  0  0  0  0  0  0  0
  -22.1634  -20.3188   19.1818 C   0  0  0  0  0  0  0  0  0  0  0  0
  -22.1033  -24.6582   24.1855 C   0  0  0  0  0  0  0  0  0  0  0  0
  -22.2905  -22.2868   23.4047 C   0  0  0  0  0  0  0  0  0  0  0  0
  -20.2044  -23.5819   22.9648 C   0  0  0  0  0  0  0  0  0  0  0  0
  -23.3430  -23.1236   16.8975 C   0  0  0  0  0  0  0  0  0  0  0  0
  -29.9226  -25.2939   17.8655 C   0  0  0  0  0  0  0  0  0  0  0  0
  -30.7432  -26.4754   21.0257 C   0  0  0  0  0  0  0  0  0  0  0  0
  -29.2231  -26.5207   20.9960 C   0  0  0  0  0  0  0  0  0  1  0  0
  -22.3023  -24.1324   21.6656 C   0  0  1  0  0  0  0  0  0  0  0  0
  -22.2999  -21.7582   18.7104 C   0  0  2  0  0  0  0  0  0  0  0  0
  -21.7431  -23.6847   23.0455 C   0  0  0  0  0  0  0  0  0  0  0  0
  -26.5864  -16.5987   21.3941 N   0  0  0  0  0  0  0  0  0  0  0  0
  -27.7624  -17.1996   21.6433 N   0  0  0  0  0  0  0  0  0  0  0  0
  -22.8116  -26.4789   21.0667 N   0  0  0  0  0  0  0  0  0  0  0  0
  -26.7235  -20.8728   21.5346 N   0  0  0  0  0  0  0  0  0  0  0  0
  -30.0912  -16.7988   21.8067 N   0  0  0  0  0  0  0  0  0  0  0  0
  -28.4035  -12.7356   20.7874 N   0  0  0  0  0  0  0  0  0  0  0  0
  -27.0630  -21.5232   19.2932 N   0  0  0  0  0  0  0  0  0  0  0  0
  -21.2615  -28.9921   22.6949 N   0  0  0  0  0  0  0  0  0  0  0  0
  -21.9536  -23.2435   20.5626 N   0  0  0  0  0  0  0  0  0  0  0  0
  -30.9504  -25.1472   18.9424 N   0  3  1  0  0  0  0  0  0  0  0  0
  -23.1445  -21.7726   17.4826 N   0  3  0  0  0  0  0  0  0  0  0  0
  -30.3314  -13.8891   21.2474 O   0  0  0  0  0  0  0  0  0  0  0  0
  -23.5590  -28.6263   22.7958 O   0  0  0  0  0  0  0  0  0  0  0  0
  -20.6117  -25.7094   21.1348 O   0  0  0  0  0  0  0  0  0  0  0  0
  -24.1308  -22.7648   19.9238 O   0  0  0  0  0  0  0  0  0  0  0  0
  -26.9371  -23.1076   20.9830 O   0  0  0  0  0  0  0  0  0  0  0  0
  -23.0313  -11.5133   19.9626 O   0  0  0  0  0  0  0  0  0  0  0  0
  -28.8102  -27.6957   20.2993 O   0  0  0  0  0  0  0  0  0  1  0  0
  -23.3322   -6.6387   22.5223 F   0  0  0  0  0  0  0  0  0  0  0  0
  -20.9600  -10.6205   21.5611 F   0  0  0  0  0  0  0  0  0  0  0  0
  1  2  1  0  0  0  0
  1  6  2  0  0  0  0
  2  7  2  0  0  0  0
  3  9  2  0  0  0  0
  3 10  1  0  0  0  0
  4 11  2  0  0  0  0
  4 19  1  0  0  0  0
  5 12  1  0  0  0  0
  5 19  2  0  0  0  0
  6 21  1  0  0  0  0
  7 23  1  0  0  0  0
  8 13  2  0  0  0  0
  8 22  1  0  0  0  0
  9 25  1  0  0  0  0
 10 26  2  0  0  0  0
 11 27  1  0  0  0  0
 12 27  2  0  0  0  0
 13 28  1  0  0  0  0
 14 15  2  0  0  0  0
 14 29  1  0  0  0  0
 15 30  1  0  0  0  0
 16 24  1  0  0  0  0
 16 28  2  0  0  0  0
 17 25  2  0  0  0  0
 17 26  1  0  0  0  0
 18 30  2  0  0  0  0
 18 31  1  0  0  0  0
 19 32  1  0  0  0  0
 20 32  1  0  0  0  0
 20 33  2  0  0  0  0
 20 34  1  0  0  0  0
 21 23  2  0  0  0  0
 21 39  1  0  0  0  0
 22 24  2  0  0  0  0
 22 40  1  0  0  0  0
 23 51  1  0  0  0  0
 24 41  1  0  0  0  0
 25 60  1  0  0  0  0
 26 72  1  0  0  0  0
 27 82  1  0  0  0  0
 28 83  1  0  0  0  0
 29 31  2  0  0  0  0
 29 82  1  0  0  0  0
 30 84  1  0  0  0  0
 31 85  1  0  0  0  0
 32 66  2  0  0  0  0
 33 67  1  0  0  0  0
 33 70  1  0  0  0  0
 34 71  1  0  0  0  0
 34 77  2  0  0  0  0
 35 52  1  0  0  0  0
 35 73  1  0  0  0  0
 35 78  2  0  0  0  0
 36 63  1  0  0  0  0
 36 68  1  0  0  0  0
 36 79  2  0  0  0  0
 37 64  1  0  0  0  0
 37 74  1  0  0  0  0
 37 80  2  0  0  0  0
 38 69  1  0  0  0  0
 38 72  1  0  0  0  0
 38 81  2  0  0  0  0
 39 42  1  0  0  0  0
 40 52  1  0  0  0  0
 41 68  1  0  0  0  0
 42 45  1  0  0  0  0
 43 46  1  0  0  0  0
 43 48  1  0  0  0  0
 44 47  1  0  0  0  0
 44 50  1  0  0  0  0
 45 51  1  0  0  0  0
 46 53  1  0  0  0  0
 47 54  1  0  0  0  0
 48 69  1  0  0  0  0
 49 53  1  0  0  0  0
 49 69  1  0  0  0  0
 50 75  1  0  0  0  0
 51 73  1  0  0  0  0
 52 68  1  0  0  0  0
 53 67  1  0  0  0  0
 54 61  1  0  0  0  0
 54 75  1  0  0  0  0
 55 64  1  0  0  0  0
 56 65  1  0  0  0  0
 57 65  1  0  0  0  0
 58 65  1  0  0  0  0
 59 76  1  0  0  0  0
 60 75  1  0  0  0  0
 61 62  1  0  0  0  0
 62 83  1  0  0  0  0
 63 65  1  0  0  0  0
 63 74  1  0  0  0  0
 64 76  1  0  0  0  0
 66 67  1  0  0  0  0
M  CHG  2  75   1  76   1
M  ISO  4  38 100  62 101  72 100  83 101
M  END
> <Batch ID>
0102

> <Smiles>
CNC(C)C(=O)NC(C(=O)N1Cc2cc([101O:1][101CH2:1]CC3CCCN3Cc3cccc([100NH:0][100C:0](=O)N4CCCC(n5nc(-c6ccc(Oc7ccc(F)cc7F)cc6)c(C(N)=O)c5N)C4)c3)ccc2CC1C(=O)NC1CCCc2ccccc21)C(C)(C)C

> <Shape>
0.249

> <Color>
0.082

> <Negative vol penalty>
0.000

$$$$

  -OEChem-04052301023D

 88 97  0     1  0  0  0  0  0999 V2000
  -32.0866  -12.8950   17.6467 C   0  0  0  0  0  0  0  0  0  0  0  0
  -31.4587  -14.0468   17.1834 C   0  0  0  0  0  0  0  0  0  0  0  0
  -25.0434  -31.7675   24.3102 C   0  0  0  0  0  0  0  0  0  0  0  0
  -24.9680  -31.3201   21.9372 C   0  0  0  0  0  0  0  0  0  0  0  0
  -31.4663  -12.1053   18.6139 C   0  0  0  0  0  0  0  0  0  0  0  0
  -30.2095  -14.4088   17.6861 C   0  0  0  0  0  0  0  0  0  0  0  0
  -29.2147  -20.7685   20.9198 C   0  0  0  0  0  0  0  0  0  0  0  0
  -23.4904  -25.7440   20.7401 C   0  0  0  0  0  0  0  0  0  0  0  0
  -22.1512  -25.7576   20.3502 C   0  0  0  0  0  0  0  0  0  0  0  0
  -25.6451  -33.0005   24.0587 C   0  0  0  0  0  0  0  0  0  0  0  0
  -25.5697  -32.5531   21.6856 C   0  0  0  0  0  0  0  0  0  0  0  0
  -28.8941  -22.0519   21.3628 C   0  0  0  0  0  0  0  0  0  0  0  0
  -28.7262  -34.1570   23.2881 C   0  0  0  0  0  0  0  0  0  0  0  0
  -29.8210  -34.5155   24.0745 C   0  0  0  0  0  0  0  0  0  0  0  0
  -26.6200  -21.3483   21.7887 C   0  0  0  0  0  0  0  0  0  0  0  0
  -23.8907  -27.7375   19.4352 C   0  0  0  0  0  0  0  0  0  0  0  0
  -28.6266  -36.4682   24.8472 C   0  0  0  0  0  0  0  0  0  0  0  0
  -24.7049  -30.9272   23.2495 C   0  0  0  0  0  0  0  0  0  0  0  0
  -24.6113  -28.5883   24.2634 C   0  0  0  0  0  0  0  0  0  0  0  0
  -30.2132  -12.4630   19.1358 C   0  0  0  0  0  0  0  0  0  0  0  0
  -28.2420  -19.7649   20.9240 C   0  0  0  0  0  0  0  0  0  0  0  0
  -29.5712  -13.6224   18.6602 C   0  0  0  0  0  0  0  0  0  0  0  0
  -26.9386  -20.0577   21.3578 C   0  0  0  0  0  0  0  0  0  0  0  0
  -22.5515  -27.7511   19.0453 C   0  0  0  0  0  0  0  0  0  0  0  0
  -24.3601  -26.7340   20.2827 C   0  0  0  0  0  0  0  0  0  0  0  0
  -21.6818  -26.7611   19.5028 C   0  0  0  0  0  0  0  0  0  0  0  0
  -25.9082  -33.3933   22.7464 C   0  0  0  0  0  0  0  0  0  0  0  0
  -27.5999  -22.3411   21.7959 C   0  0  0  0  0  0  0  0  0  0  0  0
  -27.5816  -34.9542   23.2812 C   0  0  0  0  0  0  0  0  0  0  0  0
  -29.7712  -35.6711   24.8540 C   0  0  0  0  0  0  0  0  0  0  0  0
  -27.5317  -36.1098   24.0608 C   0  0  0  0  0  0  0  0  0  0  0  0
  -24.0839  -29.6532   23.5087 C   0  0  0  0  0  0  0  0  0  0  0  0
  -23.6433  -27.6155   24.2077 C   0  0  0  0  0  0  0  0  0  0  0  0
  -26.7042  -27.2563   19.7903 C   0  0  0  0  0  0  0  0  0  0  0  0
  -26.0550  -26.1796   21.9648 C   0  0  0  0  0  0  0  0  0  0  0  0
  -25.8642  -28.4874   24.9532 C   0  0  0  0  0  0  0  0  0  0  0  0
  -27.4020  -16.1778   20.2150 C   0  0  0  0  0  0  0  0  0  0  0  0
  -25.9912  -16.9222   22.8353 C   0  0  0  0  0  0  0  0  0  0  0  0
  -24.5331  -16.9325   25.9193 C   0  0  0  0  0  0  0  0  0  0  0  0
  -19.2319  -26.8479   20.0334 C   0  0  0  0  0  0  0  0  0  0  0  0
  -29.5606  -11.5525   20.1456 C   0  0  0  0  0  0  0  0  0  0  0  0
  -28.5264  -18.3844   20.3978 C   0  0  0  0  0  0  0  0  0  0  0  0
  -25.9156  -18.9557   21.3123 C   0  0  0  0  0  0  0  0  0  0  0  0
  -28.1270  -27.3960   20.2920 C   0  0  0  0  0  0  0  0  0  0  0  0
  -28.4058  -12.2072   20.8993 C   0  0  0  0  0  0  0  0  0  0  0  0
  -28.2797  -27.2189   21.7838 C   0  0  0  0  0  0  0  0  0  0  0  0
  -18.9264  -27.0170   23.7173 C   0  0  0  0  0  0  0  0  0  0  0  0
  -27.4820  -12.9382   19.9303 C   0  0  0  0  0  0  0  0  0  0  0  0
  -20.2273  -27.7003   24.1347 C   0  0  0  0  0  0  0  0  0  0  0  0
  -18.4887  -27.4387   22.3179 C   0  0  0  0  0  0  0  0  0  0  0  0
  -20.8408  -27.9058   21.6928 C   0  0  0  0  0  0  0  0  0  0  0  0
  -28.2271  -14.0616   19.1992 C   0  0  1  0  0  0  0  0  0  0  0  0
  -27.5291  -25.9878   22.2576 C   0  0  2  0  0  0  0  0  0  0  0  0
  -27.7743  -17.2803   21.1623 C   0  0  1  0  0  0  0  0  0  0  0  0
  -21.3243  -27.4665   23.0830 C   0  0  1  0  0  0  0  0  0  0  0  0
  -22.0752  -28.8391   18.1385 C   0  0  0  0  0  0  0  0  0  0  0  0
  -22.7324  -15.8000   27.2506 C   0  0  0  0  0  0  0  0  0  0  0  0
  -23.8750  -18.5078   21.3149 C   0  0  0  0  0  0  0  0  0  0  0  0
  -22.3046  -18.1055   23.2228 C   0  0  0  0  0  0  0  0  0  0  0  0
  -23.1992  -16.1768   21.9181 C   0  0  0  0  0  0  0  0  0  0  0  0
  -19.9695  -26.3887   17.7364 C   0  0  0  0  0  0  0  0  0  0  0  0
  -26.4737  -15.9498   27.9262 C   0  0  0  0  0  0  0  0  0  0  0  0
  -28.0248  -24.6771   21.6548 C   0  0  0  0  0  0  0  0  0  1  0  0
  -24.7318  -17.4234   23.4957 C   0  0  1  0  0  0  0  0  0  0  0  0
  -24.2083  -15.8062   26.8840 C   0  0  2  0  0  0  0  0  0  0  0  0
  -23.5528  -17.5660   22.4922 C   0  0  0  0  0  0  0  0  0  0  0  0
  -22.8747  -29.3826   23.0100 N   0  0  0  0  0  0  0  0  0  0  0  0
  -22.6344  -28.1364   23.4522 N   0  0  0  0  0  0  0  0  0  0  0  0
  -25.7512  -26.7212   20.6903 N   0  0  0  0  0  0  0  0  0  0  0  0
  -26.5101  -17.6983   21.7918 N   0  0  0  0  0  0  0  0  0  0  0  0
  -19.5629  -27.2669   21.3385 N   0  0  0  0  0  0  0  0  0  0  0  0
  -23.5653  -26.3738   24.7317 N   0  0  0  0  0  0  0  0  0  0  0  0
  -26.7414  -29.5795   24.9082 N   0  0  0  0  0  0  0  0  0  0  0  0
  -28.3793  -15.2127   20.0630 N   0  0  0  0  0  0  0  0  0  0  0  0
  -24.4646  -16.5162   24.6066 N   0  0  0  0  0  0  0  0  0  0  0  0
  -20.2931  -26.7584   19.1125 N   0  0  0  0  0  0  0  0  0  0  0  0
  -25.0031  -15.9515   28.1363 N   0  3  0  0  0  0  0  0  0  0  0  0
  -26.4810  -27.5409   18.6088 O   0  0  0  0  0  0  0  0  0  0  0  0
  -25.2321  -25.8815   22.8342 O   0  0  0  0  0  0  0  0  0  0  0  0
  -26.2030  -27.4531   25.5769 O   0  0  0  0  0  0  0  0  0  0  0  0
  -26.3081  -16.1991   19.6631 O   0  0  0  0  0  0  0  0  0  0  0  0
  -26.4999  -15.8685   23.2281 O   0  0  0  0  0  0  0  0  0  0  0  0
  -24.8155  -18.0688   26.2929 O   0  0  0  0  0  0  0  0  0  0  0  0
  -18.0634  -26.6225   19.6952 O   0  0  0  0  0  0  0  0  0  0  0  0
  -26.4951  -34.5965   22.5005 O   0  0  0  0  0  0  0  0  0  0  0  0
  -27.2949  -23.5949   22.2313 O   0  0  0  0  0  0  0  0  0  1  0  0
  -30.8221  -36.0144   25.6104 F   0  0  0  0  0  0  0  0  0  0  0  0
  -26.4344  -36.8790   24.0592 F   0  0  0  0  0  0  0  0  0  0  0  0
  1  2  1  0  0  0  0
  1  5  2  0  0  0  0
  2  6  2  0  0  0  0
  3 10  2  0  0  0  0
  3 18  1  0  0  0  0
  4 11  1  0  0  0  0
  4 18  2  0  0  0  0
  5 20  1  0  0  0  0
  6 22  1  0  0  0  0
  7 12  2  0  0  0  0
  7 21  1  0  0  0  0
  8  9  2  0  0  0  0
  8 25  1  0  0  0  0
  9 26  1  0  0  0  0
 10 27  1  0  0  0  0
 11 27  2  0  0  0  0
 12 28  1  0  0  0  0
 13 14  2  0  0  0  0
 13 29  1  0  0  0  0
 14 30  1  0  0  0  0
 15 23  1  0  0  0  0
 15 28  2  0  0  0  0
 16 24  1  0  0  0  0
 16 25  2  0  0  0  0
 17 30  2  0  0  0  0
 17 31  1  0  0  0  0
 18 32  1  0  0  0  0
 19 32  1  0  0  0  0
 19 33  2  0  0  0  0
 19 36  1  0  0  0  0
 20 22  2  0  0  0  0
 20 41  1  0  0  0  0
 21 23  2  0  0  0  0
 21 42  1  0  0  0  0
 22 52  1  0  0  0  0
 23 43  1  0  0  0  0
 24 26  2  0  0  0  0
 24 56  1  0  0  0  0
 25 69  1  0  0  0  0
 26 76  1  0  0  0  0
 27 85  1  0  0  0  0
 28 86  1  0  0  0  0
 29 31  2  0  0  0  0
 29 85  1  0  0  0  0
 30 87  1  0  0  0  0
 31 88  1  0  0  0  0
 32 67  2  0  0  0  0
 33 68  1  0  0  0  0
 33 72  1  0  0  0  0
 34 44  1  0  0  0  0
 34 69  1  0  0  0  0
 34 78  2  0  0  0  0
 35 53  1  0  0  0  0
 35 69  1  0  0  0  0
 35 79  2  0  0  0  0
 36 73  1  0  0  0  0
 36 80  2  0  0  0  0
 37 54  1  0  0  0  0
 37 74  1  0  0  0  0
 37 81  2  0  0  0  0
 38 64  1  0  0  0  0
 38 70  1  0  0  0  0
 38 82  2  0  0  0  0
 39 65  1  0  0  0  0
 39 75  1  0  0  0  0
 39 83  2  0  0  0  0
 40 71  1  0  0  0  0
 40 76  1  0  0  0  0
 40 84  2  0  0  0  0
 41 45  1  0  0  0  0
 42 54  1  0  0  0  0
 43 70  1  0  0  0  0
 44 46  1  0  0  0  0
 45 48  1  0  0  0  0
 46 53  1  0  0  0  0
 47 49  1  0  0  0  0
 47 50  1  0  0  0  0
 48 52  1  0  0  0  0
 49 55  1  0  0  0  0
 50 71  1  0  0  0  0
 51 55  1  0  0  0  0
 51 71  1  0  0  0  0
 52 74  1  0  0  0  0
 53 63  1  0  0  0  0
 54 70  1  0  0  0  0
 55 68  1  0  0  0  0
 57 65  1  0  0  0  0
 58 66  1  0  0  0  0
 59 66  1  0  0  0  0
 60 66  1  0  0  0  0
 61 76  1  0  0  0  0
 62 77  1  0  0  0  0
 63 86  1  0  0  0  0
 64 66  1  0  0  0  0
 64 75  1  0  0  0  0
 65 77  1  0  0  0  0
 67 68  1  0  0  0  0
M  CHG  1  77   1
M  ISO  4  40 100  63 101  76 100  86 101
M  END
> <Batch ID>
0102

> <Smiles>
CNC(C)C(=O)NC(C(=O)N1Cc2cc([101O:1][101CH2:1]C3CCC(=O)N(c4ccc([100N:0](C)[100C:0](=O)N5CCCC(n6nc(-c7ccc(Oc8ccc(F)cc8F)cc7)c(C(N)=O)c6N)C5)c(C)c4)C3=O)ccc2CC1C(=O)NC1CCCc2ccccc21)C(C)(C)C

> <Shape>
0.233

> <Color>
0.060

> <Negative vol penalty>
0.000

$$$$

  -OEChem-04052301023D

 87 95  0     1  0  0  0  0  0999 V2000
  -25.5367  -29.2090   17.3385 C   0  0  0  0  0  0  0  0  0  0  0  0
  -26.1519  -28.1233   16.7256 C   0  0  0  0  0  0  0  0  0  0  0  0
  -23.3482   -9.8091   19.8387 C   0  0  0  0  0  0  0  0  0  0  0  0
  -23.7620   -9.8844   22.2178 C   0  0  0  0  0  0  0  0  0  0  0  0
  -25.9471  -29.6129   18.6072 C   0  0  0  0  0  0  0  0  0  0  0  0
  -27.1695  -27.4338   17.3860 C   0  0  0  0  0  0  0  0  0  0  0  0
  -30.6992  -22.8333   15.5140 C   0  0  0  0  0  0  0  0  0  0  0  0
  -22.6489   -8.6128   19.9982 C   0  0  0  0  0  0  0  0  0  0  0  0
  -23.0626   -8.6881   22.3773 C   0  0  0  0  0  0  0  0  0  0  0  0
  -31.9375  -22.6728   14.8939 C   0  0  0  0  0  0  0  0  0  0  0  0
  -19.8370   -7.6901   22.5173 C   0  0  0  0  0  0  0  0  0  0  0  0
  -18.9206   -7.6118   23.5660 C   0  0  0  0  0  0  0  0  0  0  0  0
  -33.7935  -16.7870   17.8597 C   0  0  0  0  0  0  0  0  0  0  0  0
  -32.9686  -22.3481   17.0504 C   0  0  0  0  0  0  0  0  0  0  0  0
  -35.4029  -17.9306   16.4671 C   0  0  0  0  0  0  0  0  0  0  0  0
  -20.1588   -5.7643   24.5099 C   0  0  0  0  0  0  0  0  0  0  0  0
  -23.9048  -10.4449   20.9485 C   0  0  0  0  0  0  0  0  0  0  0  0
  -32.7910  -17.0672   16.9312 C   0  0  0  0  0  0  0  0  0  0  0  0
  -24.1028  -12.9856   20.8345 C   0  0  0  0  0  0  0  0  0  0  0  0
  -26.9788  -28.9353   19.2776 C   0  0  0  0  0  0  0  0  0  0  0  0
  -30.5879  -22.7632   16.9101 C   0  0  0  0  0  0  0  0  0  0  0  0
  -27.5815  -27.8114   18.6769 C   0  0  0  0  0  0  0  0  0  0  0  0
  -31.7273  -22.5056   17.6856 C   0  0  0  0  0  0  0  0  0  0  0  0
  -33.0944  -17.7790   15.7706 C   0  0  0  0  0  0  0  0  0  0  0  0
  -22.5061   -8.0523   21.2675 C   0  0  0  0  0  0  0  0  0  0  0  0
  -33.0729  -22.4330   15.6622 C   0  0  0  0  0  0  0  0  0  0  0  0
  -20.9142   -6.8055   22.4649 C   0  0  0  0  0  0  0  0  0  0  0  0
  -35.0995  -17.2188   17.6277 C   0  0  0  0  0  0  0  0  0  0  0  0
  -34.4004  -18.2107   15.5386 C   0  0  0  0  0  0  0  0  0  0  0  0
  -19.0816   -6.6489   24.5623 C   0  0  0  0  0  0  0  0  0  0  0  0
  -21.0751   -5.8426   23.4611 C   0  0  0  0  0  0  0  0  0  0  0  0
  -24.6278  -11.6803   20.7843 C   0  0  0  0  0  0  0  0  0  0  0  0
  -25.1877  -13.8004   20.6208 C   0  0  0  0  0  0  0  0  0  0  0  0
  -31.4370  -16.6020   17.2031 C   0  0  0  0  0  0  0  0  0  0  0  0
  -31.0765  -15.3163   17.3914 C   0  0  0  0  0  0  0  0  0  0  0  0
  -22.7551  -13.4225   21.0546 C   0  0  0  0  0  0  0  0  0  0  0  0
  -29.6600  -15.0046   17.6689 C   0  0  0  0  0  0  0  0  0  0  0  0
  -29.6848  -24.7827   19.1926 C   0  0  0  0  0  0  0  0  0  0  0  0
  -30.0201  -22.1746   21.0921 C   0  0  0  0  0  0  0  0  0  0  0  0
  -31.4671  -19.1255   21.5979 C   0  0  0  0  0  0  0  0  0  0  0  0
  -27.3780  -29.4102   20.6525 C   0  0  0  0  0  0  0  0  0  0  0  0
  -29.2405  -22.9120   17.5620 C   0  0  0  0  0  0  0  0  0  0  0  0
  -31.6580  -22.4009   19.1865 C   0  0  0  0  0  0  0  0  0  0  0  0
  -28.7508  -28.9025   21.0815 C   0  0  0  0  0  0  0  0  0  0  0  0
  -30.1253  -12.7783   20.5427 C   0  0  0  0  0  0  0  0  0  0  0  0
  -28.8441  -27.4011   20.8541 C   0  0  0  0  0  0  0  0  0  0  0  0
  -28.6842  -12.3661   20.8311 C   0  0  0  0  0  0  0  0  0  0  0  0
  -30.3743  -12.9793   19.0486 C   0  0  0  0  0  0  0  0  0  0  0  0
  -27.9820  -13.5218   18.6977 C   0  0  0  0  0  0  0  0  0  0  0  0
  -28.7113  -27.0652   19.3633 C   0  0  1  0  0  0  0  0  0  0  0  0
  -29.3281  -23.3327   19.0258 C   0  0  1  0  0  0  0  0  0  0  0  0
  -27.6969  -13.3599   20.1990 C   0  0  1  0  0  0  0  0  0  0  0  0
  -32.0317  -18.0898   14.7633 C   0  0  0  0  0  0  0  0  0  0  0  0
  -38.8371  -18.8413   20.2357 C   0  0  0  0  0  0  0  0  0  0  0  0
  -31.9252  -16.9203   22.7044 C   0  0  0  0  0  0  0  0  0  0  0  0
  -31.8501  -23.8550   22.8634 C   0  0  0  0  0  0  0  0  0  0  0  0
  -32.6607  -21.7341   23.9184 C   0  0  0  0  0  0  0  0  0  0  0  0
  -30.2590  -22.3809   24.1085 C   0  0  0  0  0  0  0  0  0  0  0  0
  -29.3076  -17.7848   20.0820 C   0  0  0  0  0  0  0  0  0  0  0  0
  -37.6975  -17.8555   20.0512 C   0  0  0  0  0  0  0  0  0  0  0  0
  -35.5868  -20.9708   13.5049 C   0  0  0  0  0  0  0  0  0  0  0  0
  -37.1506  -17.8819   18.6322 C   0  0  0  0  0  0  0  0  0  0  0  0
  -34.2867  -21.7223   13.7446 C   0  0  0  0  0  0  0  0  0  1  0  0
  -35.7865  -19.8454   14.5079 C   0  0  0  0  0  0  0  0  0  0  0  0
  -31.1518  -21.5692   21.8868 C   0  0  1  0  0  0  0  0  0  0  0  0
  -30.8817  -17.7905   22.0214 C   0  0  2  0  0  0  0  0  0  0  0  0
  -31.4823  -22.3886   23.1661 C   0  0  0  0  0  0  0  0  0  0  0  0
  -25.9438  -11.6622   20.5565 N   0  0  0  0  0  0  0  0  0  0  0  0
  -26.2548  -12.9662   20.4615 N   0  0  0  0  0  0  0  0  0  0  0  0
  -29.3819  -13.8878   18.4549 N   0  0  0  0  0  0  0  0  0  0  0  0
  -30.3190  -22.5599   19.7776 N   0  0  0  0  0  0  0  0  0  0  0  0
  -25.3233  -15.1420   20.5555 N   0  0  0  0  0  0  0  0  0  0  0  0
  -21.7632  -12.4532   21.2571 N   0  0  0  0  0  0  0  0  0  0  0  0
  -28.5947  -25.6317   19.2110 N   0  0  0  0  0  0  0  0  0  0  0  0
  -30.7737  -20.1841   22.1455 N   0  0  0  0  0  0  0  0  0  0  0  0
  -30.3592  -17.0545   20.8355 N   0  3  0  0  0  0  0  0  0  0  0  0
  -22.4369  -14.6359   21.0549 O   0  0  0  0  0  0  0  0  0  0  0  0
  -28.8079  -15.7506   17.1829 O   0  0  0  0  0  0  0  0  0  0  0  0
  -30.8618  -25.1071   19.2985 O   0  0  0  0  0  0  0  0  0  0  0  0
  -28.9097  -22.2945   21.6159 O   0  0  0  0  0  0  0  0  0  0  0  0
  -32.4443  -19.2198   20.8584 O   0  0  0  0  0  0  0  0  0  0  0  0
  -21.8236   -6.8851   21.4235 O   0  0  0  0  0  0  0  0  0  0  0  0
  -34.2829  -22.2766   15.0595 O   0  0  0  0  0  0  0  0  0  1  0  0
  -36.0780  -16.9463   18.5338 O   0  0  0  0  0  0  0  0  0  0  0  0
  -34.7190  -18.9128   14.4054 O   0  0  0  0  0  0  0  0  0  0  0  0
  -18.2024   -6.5747   25.5702 F   0  0  0  0  0  0  0  0  0  0  0  0
  -22.1087   -4.9908   23.4168 F   0  0  0  0  0  0  0  0  0  0  0  0
  1  2  1  0  0  0  0
  1  5  2  0  0  0  0
  2  6  2  0  0  0  0
  3  8  2  0  0  0  0
  3 17  1  0  0  0  0
  4  9  1  0  0  0  0
  4 17  2  0  0  0  0
  5 20  1  0  0  0  0
  6 22  1  0  0  0  0
  7 10  2  0  0  0  0
  7 21  1  0  0  0  0
  8 25  1  0  0  0  0
  9 25  2  0  0  0  0
 10 26  1  0  0  0  0
 11 12  2  0  0  0  0
 11 27  1  0  0  0  0
 12 30  1  0  0  0  0
 13 18  2  0  0  0  0
 13 28  1  0  0  0  0
 14 23  1  0  0  0  0
 14 26  2  0  0  0  0
 15 28  2  0  0  0  0
 15 29  1  0  0  0  0
 16 30  2  0  0  0  0
 16 31  1  0  0  0  0
 17 32  1  0  0  0  0
 18 24  1  0  0  0  0
 18 34  1  0  0  0  0
 19 32  1  0  0  0  0
 19 33  2  0  0  0  0
 19 36  1  0  0  0  0
 20 22  2  0  0  0  0
 20 41  1  0  0  0  0
 21 23  2  0  0  0  0
 21 42  1  0  0  0  0
 22 50  1  0  0  0  0
 23 43  1  0  0  0  0
 24 29  2  0  0  0  0
 24 53  1  0  0  0  0
 25 82  1  0  0  0  0
 26 83  1  0  0  0  0
 27 31  2  0  0  0  0
 27 82  1  0  0  0  0
 28 84  1  0  0  0  0
 29 85  1  0  0  0  0
 30 86  1  0  0  0  0
 31 87  1  0  0  0  0
 32 68  2  0  0  0  0
 33 69  1  0  0  0  0
 33 72  1  0  0  0  0
 34 35  2  0  0  0  0
 35 37  1  0  0  0  0
 36 73  1  0  0  0  0
 36 77  2  0  0  0  0
 37 70  1  0  0  0  0
 37 78  2  0  0  0  0
 38 51  1  0  0  0  0
 38 74  1  0  0  0  0
 38 79  2  0  0  0  0
 39 65  1  0  0  0  0
 39 71  1  0  0  0  0
 39 80  2  0  0  0  0
 40 66  1  0  0  0  0
 40 75  1  0  0  0  0
 40 81  2  0  0  0  0
 41 44  1  0  0  0  0
 42 51  1  0  0  0  0
 43 71  1  0  0  0  0
 44 46  1  0  0  0  0
 45 47  1  0  0  0  0
 45 48  1  0  0  0  0
 46 50  1  0  0  0  0
 47 52  1  0  0  0  0
 48 70  1  0  0  0  0
 49 52  1  0  0  0  0
 49 70  1  0  0  0  0
 50 74  1  0  0  0  0
 51 71  1  0  0  0  0
 52 69  1  0  0  0  0
 54 60  1  0  0  0  0
 55 66  1  0  0  0  0
 56 67  1  0  0  0  0
 57 67  1  0  0  0  0
 58 67  1  0  0  0  0
 59 76  1  0  0  0  0
 60 62  1  0  0  0  0
 61 63  1  0  0  0  0
 61 64  1  0  0  0  0
 62 84  1  0  0  0  0
 63 83  1  0  0  0  0
 64 85  1  0  0  0  0
 65 67  1  0  0  0  0
 65 75  1  0  0  0  0
 66 76  1  0  0  0  0
 68 69  1  0  0  0  0
M  CHG  1  76   1
M  ISO  4  35 100  37 100  63 101  83 101
M  END
> <Batch ID>
0102

> <Smiles>
CCCOc1cc(C=[100CH:0][100C:0](=O)N2CCCC(n3nc(-c4ccc(Oc5ccc(F)cc5F)cc4)c(C(N)=O)c3N)C2)c(C)c(OCC[101CH2:1][101O:1]c2ccc3c(c2)CN(C(=O)C(NC(=O)C(C)NC)C(C)(C)C)C(C(=O)NC2CCCc4ccccc42)C3)c1

> <Shape>
0.242

> <Color>
0.192

> <Negative vol penalty>
0.000

$$$$

  -OEChem-04052301023D

 90 99  0     1  0  0  0  0  0999 V2000
  -23.3871  -17.5745   22.4727 C   0  0  0  0  0  0  0  0  0  0  0  0
  -24.4393  -18.4414   22.1958 C   0  0  0  0  0  0  0  0  0  0  0  0
  -25.9605  -12.0753   20.4240 C   0  0  0  0  0  0  0  0  0  0  0  0
  -24.2495  -13.6933   19.8840 C   0  0  0  0  0  0  0  0  0  0  0  0
  -22.0812  -17.9385   22.1470 C   0  0  0  0  0  0  0  0  0  0  0  0
  -24.1862  -19.6726   21.5920 C   0  0  0  0  0  0  0  0  0  0  0  0
  -27.1591  -24.9357   22.5758 C   0  0  0  0  0  0  0  0  0  0  0  0
  -25.0327  -11.3404   21.1619 C   0  0  0  0  0  0  0  0  0  0  0  0
  -23.3216  -12.9583   20.6219 C   0  0  0  0  0  0  0  0  0  0  0  0
  -28.1791  -25.5814   21.8783 C   0  0  0  0  0  0  0  0  0  0  0  0
  -23.0285   -8.8475   22.8893 C   0  0  0  0  0  0  0  0  0  0  0  0
  -23.0100   -7.4639   22.7139 C   0  0  0  0  0  0  0  0  0  0  0  0
  -26.5369  -26.9326   20.7395 C   0  0  0  0  0  0  0  0  0  0  0  0
  -28.8664  -23.0508   17.8965 C   0  0  0  0  0  0  0  0  0  0  0  0
  -28.2477  -23.1250   15.5623 C   0  0  0  0  0  0  0  0  0  0  0  0
  -26.9347  -21.8255   17.1193 C   0  0  0  0  0  0  0  0  0  0  0  0
  -22.5109   -7.7678   20.3696 C   0  0  0  0  0  0  0  0  0  0  0  0
  -25.5690  -13.2519   19.7851 C   0  0  0  0  0  0  0  0  0  0  0  0
  -26.8275  -13.8730   17.6549 C   0  0  0  0  0  0  0  0  0  0  0  0
  -21.8110  -19.1788   21.5477 C   0  0  0  0  0  0  0  0  0  0  0  0
  -25.8174  -25.2766   22.3520 C   0  0  0  0  0  0  0  0  0  0  0  0
  -22.8757  -20.0530   21.2567 C   0  0  0  0  0  0  0  0  0  0  0  0
  -25.5019  -26.2915   21.4373 C   0  0  0  0  0  0  0  0  0  0  0  0
  -29.0979  -23.5087   16.5995 C   0  0  0  0  0  0  0  0  0  0  0  0
  -27.7848  -22.2092   18.1564 C   0  0  0  0  0  0  0  0  0  0  0  0
  -23.7132  -11.7819   21.2608 C   0  0  0  0  0  0  0  0  0  0  0  0
  -27.8680  -26.5779   20.9579 C   0  0  0  0  0  0  0  0  0  0  0  0
  -22.7880   -9.6913   21.8049 C   0  0  0  0  0  0  0  0  0  0  0  0
  -27.1661  -22.2834   15.8222 C   0  0  0  0  0  0  0  0  0  0  0  0
  -22.7513   -6.9240   21.4540 C   0  0  0  0  0  0  0  0  0  0  0  0
  -22.5293   -9.1515   20.5451 C   0  0  0  0  0  0  0  0  0  0  0  0
  -26.5271  -14.0118   19.0232 C   0  0  0  0  0  0  0  0  0  0  0  0
  -27.7952  -14.8186   17.4181 C   0  0  0  0  0  0  0  0  0  0  0  0
  -30.3659  -26.2666   18.0293 C   0  0  0  0  0  0  0  0  0  0  0  0
  -26.2806  -12.9702   16.6846 C   0  0  0  0  0  0  0  0  0  0  0  0
  -23.2591  -23.7280   21.2747 C   0  0  0  0  0  0  0  0  0  0  0  0
  -21.7370  -26.4754   22.0853 C   0  0  0  0  0  0  0  0  0  0  0  0
  -21.9299  -29.8347   22.6557 C   0  0  0  0  0  0  0  0  0  0  0  0
  -29.2056  -19.9737   20.1174 C   0  0  0  0  0  0  0  0  0  0  0  0
  -20.3883  -19.5084   21.1708 C   0  0  0  0  0  0  0  0  0  0  0  0
  -24.7304  -24.5893   23.1319 C   0  0  0  0  0  0  0  0  0  0  0  0
  -24.0786  -26.7088   21.1755 C   0  0  0  0  0  0  0  0  0  0  0  0
  -20.1641  -20.9890   20.8744 C   0  0  0  0  0  0  0  0  0  0  0  0
  -31.3427  -17.1734   19.6000 C   0  0  0  0  0  0  0  0  0  0  0  0
  -21.2620  -21.5225   19.9597 C   0  0  0  0  0  0  0  0  0  0  0  0
  -30.3780  -16.0331   19.2701 C   0  0  0  0  0  0  0  0  0  0  0  0
  -29.5420  -28.0374   16.6552 C   0  0  0  0  0  0  0  0  0  0  0  0
  -30.7606  -18.1198   20.6477 C   0  0  0  0  0  0  0  0  0  0  0  0
  -29.2716  -26.7066   15.9791 C   0  0  0  0  0  0  0  0  0  0  0  0
  -28.4622  -17.5185   19.9924 C   0  0  0  0  0  0  0  0  0  0  0  0
  -22.6387  -21.4077   20.6251 C   0  0  1  0  0  0  0  0  0  0  0  0
  -29.8121  -27.6761   18.1196 C   0  0  1  0  0  0  0  0  0  0  0  0
  -23.3684  -24.6599   22.4483 C   0  0  1  0  0  0  0  0  0  0  0  0
  -28.9821  -16.5691   18.8995 C   0  0  2  0  0  0  0  0  0  0  0  0
  -26.7080  -20.5981   11.3106 C   0  0  0  0  0  0  0  0  0  0  0  0
  -20.5125  -31.8139   23.2647 C   0  0  0  0  0  0  0  0  0  0  0  0
  -20.6266  -26.5514   19.2443 C   0  0  0  0  0  0  0  0  0  0  0  0
  -20.0344  -28.9556   19.6146 C   0  0  0  0  0  0  0  0  0  0  0  0
  -18.9860  -27.1836   21.0229 C   0  0  0  0  0  0  0  0  0  0  0  0
  -23.4708  -30.3218   25.1351 C   0  0  0  0  0  0  0  0  0  0  0  0
  -30.2626  -24.4141   16.3205 C   0  0  0  0  0  0  0  0  0  0  0  0
  -27.5372  -21.7188   19.5428 C   0  0  0  0  0  0  0  0  0  0  0  0
  -28.5485  -27.6889   18.9683 C   0  0  0  0  0  0  0  0  0  1  0  0
  -26.1460  -20.7638   12.7111 C   0  0  0  0  0  0  0  0  0  0  0  0
  -26.9061  -21.8151   13.5051 C   0  0  0  0  0  0  0  0  0  0  0  0
  -21.4194  -27.7706   21.3776 C   0  0  1  0  0  0  0  0  0  0  0  0
  -21.4009  -30.6961   23.7882 C   0  0  2  0  0  0  0  0  0  0  0  0
  -20.2934  -27.6063   20.3181 C   0  0  0  0  0  0  0  0  0  0  0  0
  -27.2459  -14.9699   19.6143 N   0  0  0  0  0  0  0  0  0  0  0  0
  -28.0076  -15.4417   18.6126 N   0  0  0  0  0  0  0  0  0  0  0  0
  -30.0196  -25.7653   16.7773 N   0  0  0  0  0  0  0  0  0  0  0  0
  -23.0509  -26.0027   21.9583 N   0  0  0  0  0  0  0  0  0  0  0  0
  -29.4372  -18.5933   20.2350 N   0  0  0  0  0  0  0  0  0  0  0  0
  -28.4767  -15.1694   16.3069 N   0  0  0  0  0  0  0  0  0  0  0  0
  -25.2944  -12.0637   17.0966 N   0  0  0  0  0  0  0  0  0  0  0  0
  -22.8173  -22.4603   21.6021 N   0  0  0  0  0  0  0  0  0  0  0  0
  -21.1196  -28.7437   22.4224 N   0  0  0  0  0  0  0  0  0  0  0  0
  -27.9262  -20.3369   19.7150 N   0  0  0  0  0  0  0  0  0  0  0  0
  -22.5298  -31.3080   24.5444 N   0  3  0  0  0  0  0  0  0  0  0  0
  -30.9589  -25.6936   18.9320 O   0  0  0  0  0  0  0  0  0  0  0  0
  -26.6672  -12.9563   15.4913 O   0  0  0  0  0  0  0  0  0  0  0  0
  -23.5524  -24.1298   20.1548 O   0  0  0  0  0  0  0  0  0  0  0  0
  -20.8538  -25.9079   22.7331 O   0  0  0  0  0  0  0  0  0  0  0  0
  -22.9571  -30.1047   22.0372 O   0  0  0  0  0  0  0  0  0  0  0  0
  -30.0762  -20.8197   20.3484 O   0  0  0  0  0  0  0  0  0  0  0  0
  -22.8075  -11.0648   21.9806 O   0  0  0  0  0  0  0  0  0  0  0  0
  -28.8616  -27.2093   20.2753 O   0  0  0  0  0  0  0  0  0  1  0  0
  -26.3368  -21.9085   14.8100 O   0  0  0  0  0  0  0  0  0  0  0  0
  -22.7351   -5.5953   21.2853 F   0  0  0  0  0  0  0  0  0  0  0  0
  -22.2987   -9.9571   19.4993 F   0  0  0  0  0  0  0  0  0  0  0  0
  1  2  1  0  0  0  0
  1  5  2  0  0  0  0
  2  6  2  0  0  0  0
  3  8  2  0  0  0  0
  3 18  1  0  0  0  0
  4  9  1  0  0  0  0
  4 18  2  0  0  0  0
  5 20  1  0  0  0  0
  6 22  1  0  0  0  0
  7 10  2  0  0  0  0
  7 21  1  0  0  0  0
  8 26  1  0  0  0  0
  9 26  2  0  0  0  0
 10 27  1  0  0  0  0
 11 12  2  0  0  0  0
 11 28  1  0  0  0  0
 12 30  1  0  0  0  0
 13 23  1  0  0  0  0
 13 27  2  0  0  0  0
 14 24  2  0  0  0  0
 14 25  1  0  0  0  0
 15 24  1  0  0  0  0
 15 29  2  0  0  0  0
 16 25  2  0  0  0  0
 16 29  1  0  0  0  0
 17 30  2  0  0  0  0
 17 31  1  0  0  0  0
 18 32  1  0  0  0  0
 19 32  1  0  0  0  0
 19 33  2  0  0  0  0
 19 35  1  0  0  0  0
 20 22  2  0  0  0  0
 20 40  1  0  0  0  0
 21 23  2  0  0  0  0
 21 41  1  0  0  0  0
 22 51  1  0  0  0  0
 23 42  1  0  0  0  0
 24 61  1  0  0  0  0
 25 62  1  0  0  0  0
 26 86  1  0  0  0  0
 27 87  1  0  0  0  0
 28 31  2  0  0  0  0
 28 86  1  0  0  0  0
 29 88  1  0  0  0  0
 30 89  1  0  0  0  0
 31 90  1  0  0  0  0
 32 69  2  0  0  0  0
 33 70  1  0  0  0  0
 33 74  1  0  0  0  0
 34 52  1  0  0  0  0
 34 71  1  0  0  0  0
 34 80  2  0  0  0  0
 35 75  1  0  0  0  0
 35 81  2  0  0  0  0
 36 53  1  0  0  0  0
 36 76  1  0  0  0  0
 36 82  2  0  0  0  0
 37 66  1  0  0  0  0
 37 72  1  0  0  0  0
 37 83  2  0  0  0  0
 38 67  1  0  0  0  0
 38 77  1  0  0  0  0
 38 84  2  0  0  0  0
 39 73  1  0  0  0  0
 39 78  1  0  0  0  0
 39 85  2  0  0  0  0
 40 43  1  0  0  0  0
 41 53  1  0  0  0  0
 42 72  1  0  0  0  0
 43 45  1  0  0  0  0
 44 46  1  0  0  0  0
 44 48  1  0  0  0  0
 45 51  1  0  0  0  0
 46 54  1  0  0  0  0
 47 49  1  0  0  0  0
 47 52  1  0  0  0  0
 48 73  1  0  0  0  0
 49 71  1  0  0  0  0
 50 54  1  0  0  0  0
 50 73  1  0  0  0  0
 51 76  1  0  0  0  0
 52 63  1  0  0  0  0
 53 72  1  0  0  0  0
 54 70  1  0  0  0  0
 55 64  1  0  0  0  0
 56 67  1  0  0  0  0
 57 68  1  0  0  0  0
 58 68  1  0  0  0  0
 59 68  1  0  0  0  0
 60 79  1  0  0  0  0
 61 71  1  0  0  0  0
 62 78  1  0  0  0  0
 63 87  1  0  0  0  0
 64 65  1  0  0  0  0
 65 88  1  0  0  0  0
 66 68  1  0  0  0  0
 66 77  1  0  0  0  0
 67 79  1  0  0  0  0
 69 70  1  0  0  0  0
M  CHG  1  79   1
M  ISO  4  39 100  63 101  78 100  87 101
M  END
> <Batch ID>
0102

> <Smiles>
CCCOc1cc(C[100NH:0][100C:0](=O)N2CCCC(n3nc(-c4ccc(Oc5ccc(F)cc5F)cc4)c(C(N)=O)c3N)C2)cc(CN2CCC([101CH2:1][101O:1]c3ccc4c(c3)CN(C(=O)C(NC(=O)C(C)NC)C(C)(C)C)C(C(=O)NC3CCCc5ccccc53)C4)C2=O)c1

> <Shape>
0.217

> <Color>
0.061

> <Negative vol penalty>
0.000

$$$$

  -OEChem-04052301023D

 87 96  0     1  0  0  0  0  0999 V2000
  -31.3491  -33.7829   17.0277 C   0  0  0  0  0  0  0  0  0  0  0  0
  -31.4648  -32.7385   17.9394 C   0  0  0  0  0  0  0  0  0  0  0  0
  -23.2199   -9.6675   20.0472 C   0  0  0  0  0  0  0  0  0  0  0  0
  -23.8490   -9.9283   22.3652 C   0  0  0  0  0  0  0  0  0  0  0  0
  -30.2365  -34.6222   17.0684 C   0  0  0  0  0  0  0  0  0  0  0  0
  -30.4684  -32.5334   18.8932 C   0  0  0  0  0  0  0  0  0  0  0  0
  -29.1836  -27.6557   19.3428 C   0  0  0  0  0  0  0  0  0  0  0  0
  -22.5271   -8.4998   20.3666 C   0  0  0  0  0  0  0  0  0  0  0  0
  -23.1562   -8.7606   22.6846 C   0  0  0  0  0  0  0  0  0  0  0  0
  -30.0421  -26.8359   20.0740 C   0  0  0  0  0  0  0  0  0  0  0  0
  -19.9477   -7.8306   23.1956 C   0  0  0  0  0  0  0  0  0  0  0  0
  -19.1298   -7.8525   24.3252 C   0  0  0  0  0  0  0  0  0  0  0  0
  -28.5778  -27.0150   21.9826 C   0  0  0  0  0  0  0  0  0  0  0  0
  -30.6501  -18.9781   23.4412 C   0  0  0  0  0  0  0  0  0  0  0  0
  -30.9771  -19.5238   21.1105 C   0  0  0  0  0  0  0  0  0  0  0  0
  -20.4319   -6.0673   25.3025 C   0  0  0  0  0  0  0  0  0  0  0  0
  -23.8809  -10.3818   21.0465 C   0  0  0  0  0  0  0  0  0  0  0  0
  -24.0908  -12.9014   20.7070 C   0  0  0  0  0  0  0  0  0  0  0  0
  -29.2213  -34.4214   18.0169 C   0  0  0  0  0  0  0  0  0  0  0  0
  -28.0193  -28.1710   19.9304 C   0  0  0  0  0  0  0  0  0  0  0  0
  -29.3418  -33.3717   18.9474 C   0  0  0  0  0  0  0  0  0  0  0  0
  -27.7048  -27.8390   21.2559 C   0  0  0  0  0  0  0  0  0  0  0  0
  -30.2479  -17.6913   23.0836 C   0  0  0  0  0  0  0  0  0  0  0  0
  -30.5749  -18.2370   20.7528 C   0  0  0  0  0  0  0  0  0  0  0  0
  -31.0147  -19.8944   22.4547 C   0  0  0  0  0  0  0  0  0  0  0  0
  -30.2103  -17.3207   21.7394 C   0  0  0  0  0  0  0  0  0  0  0  0
  -22.4953   -8.0463   21.6853 C   0  0  0  0  0  0  0  0  0  0  0  0
  -29.7408  -26.5178   21.3950 C   0  0  0  0  0  0  0  0  0  0  0  0
  -21.0076   -6.9270   23.1192 C   0  0  0  0  0  0  0  0  0  0  0  0
  -19.3719   -6.9709   25.3787 C   0  0  0  0  0  0  0  0  0  0  0  0
  -21.2497   -6.0453   24.1727 C   0  0  0  0  0  0  0  0  0  0  0  0
  -24.5971  -11.5879   20.7171 C   0  0  0  0  0  0  0  0  0  0  0  0
  -25.1591  -13.6782   20.3305 C   0  0  0  0  0  0  0  0  0  0  0  0
  -31.2297  -22.3138   22.0087 C   0  0  0  0  0  0  0  0  0  0  0  0
  -31.6184  -23.5713   22.2632 C   0  0  0  0  0  0  0  0  0  0  0  0
  -32.4098  -23.7909   23.5064 C   0  0  0  0  0  0  0  0  0  0  0  0
  -22.7727  -13.3768   21.0107 C   0  0  0  0  0  0  0  0  0  0  0  0
  -26.9317  -31.0886   20.5697 C   0  0  0  0  0  0  0  0  0  0  0  0
  -24.2534  -29.4770   21.4370 C   0  0  0  0  0  0  0  0  0  0  0  0
  -22.8475  -26.5562   22.5043 C   0  0  0  0  0  0  0  0  0  0  0  0
  -30.5420  -15.0583   20.6822 C   0  0  0  0  0  0  0  0  0  0  0  0
  -28.0604  -35.3836   18.0524 C   0  0  0  0  0  0  0  0  0  0  0  0
  -27.0899  -29.0322   19.1198 C   0  0  0  0  0  0  0  0  0  0  0  0
  -26.4569  -28.3501   21.9267 C   0  0  0  0  0  0  0  0  0  0  0  0
  -32.8894  -22.5702   24.2632 C   0  0  0  0  0  0  0  0  0  0  0  0
  -26.8673  -34.8692   18.8538 C   0  0  0  0  0  0  0  0  0  0  0  0
  -29.6947  -12.3770   18.4981 C   0  0  0  0  0  0  0  0  0  0  0  0
  -27.3290  -34.2947   20.1893 C   0  0  0  0  0  0  0  0  0  0  0  0
  -28.2513  -12.0407   18.8799 C   0  0  0  0  0  0  0  0  0  0  0  0
  -31.9080  -21.4032   24.1926 C   0  0  0  0  0  0  0  0  0  0  0  0
  -30.5274  -12.7682   19.7177 C   0  0  0  0  0  0  0  0  0  0  0  0
  -28.5097  -13.5008   20.9265 C   0  0  0  0  0  0  0  0  0  0  0  0
  -28.2699  -33.1019   19.9810 C   0  0  1  0  0  0  0  0  0  0  0  0
  -26.1950  -29.9194   19.9796 C   0  0  1  0  0  0  0  0  0  0  0  0
  -27.6150  -13.1636   19.7225 C   0  0  2  0  0  0  0  0  0  0  0  0
  -29.8628  -16.7325   24.1633 C   0  0  0  0  0  0  0  0  0  0  0  0
  -30.5439  -17.8694   19.3044 C   0  0  0  0  0  0  0  0  0  0  0  0
  -20.6419  -25.5570   23.1631 C   0  0  0  0  0  0  0  0  0  0  0  0
  -24.4002  -30.9268   24.1178 C   0  0  0  0  0  0  0  0  0  0  0  0
  -22.8022  -29.2350   25.0411 C   0  0  0  0  0  0  0  0  0  0  0  0
  -22.0961  -30.7224   23.1671 C   0  0  0  0  0  0  0  0  0  0  0  0
  -22.9727  -24.5546   20.3279 C   0  0  0  0  0  0  0  0  0  0  0  0
  -31.3223  -24.7417   21.3849 C   0  0  0  0  0  0  0  0  0  1  0  0
  -23.7448  -28.8593   22.7171 C   0  0  1  0  0  0  0  0  0  0  0  0
  -21.6249  -25.7934   22.0271 C   0  0  2  0  0  0  0  0  0  0  0  0
  -23.2854  -29.9277   23.7490 C   0  0  0  0  0  0  0  0  0  0  0  0
  -25.8867  -11.5297   20.3742 N   0  0  0  0  0  0  0  0  0  0  0  0
  -26.1997  -12.8163   20.1449 N   0  0  0  0  0  0  0  0  0  0  0  0
  -31.4243  -21.2044   22.8179 N   0  0  0  0  0  0  0  0  0  0  0  0
  -25.5831  -29.1936   21.0945 N   0  0  0  0  0  0  0  0  0  0  0  0
  -29.8650  -13.8395   20.4648 N   0  0  0  0  0  0  0  0  0  0  0  0
  -25.3004  -15.0077   20.1433 N   0  0  0  0  0  0  0  0  0  0  0  0
  -21.7946  -12.4436   21.3804 N   0  0  0  0  0  0  0  0  0  0  0  0
  -29.8005  -16.0139   21.3762 N   0  0  0  0  0  0  0  0  0  0  0  0
  -27.5150  -31.9179   19.6308 N   0  0  0  0  0  0  0  0  0  0  0  0
  -22.7017  -27.9161   22.3289 N   0  0  0  0  0  0  0  0  0  0  0  0
  -22.0248  -24.4709   21.4687 N   0  3  0  0  0  0  0  0  0  0  0  0
  -32.7222  -24.9258   23.8616 O   0  0  0  0  0  0  0  0  0  0  0  0
  -22.4670  -14.5913   20.9401 O   0  0  0  0  0  0  0  0  0  0  0  0
  -26.9669  -31.2288   21.7865 O   0  0  0  0  0  0  0  0  0  0  0  0
  -23.4965  -30.1792   20.7620 O   0  0  0  0  0  0  0  0  0  0  0  0
  -23.8318  -26.0015   22.9879 O   0  0  0  0  0  0  0  0  0  0  0  0
  -31.6845  -15.2505   20.2585 O   0  0  0  0  0  0  0  0  0  0  0  0
  -21.8192   -6.9070   21.9973 O   0  0  0  0  0  0  0  0  0  0  0  0
  -30.5774  -25.7184   22.1112 O   0  0  0  0  0  0  0  0  0  1  0  0
  -18.5874   -6.9930   26.4642 F   0  0  0  0  0  0  0  0  0  0  0  0
  -22.2672   -5.1758   24.1057 F   0  0  0  0  0  0  0  0  0  0  0  0
  1  2  1  0  0  0  0
  1  5  2  0  0  0  0
  2  6  2  0  0  0  0
  3  8  2  0  0  0  0
  3 17  1  0  0  0  0
  4  9  1  0  0  0  0
  4 17  2  0  0  0  0
  5 19  1  0  0  0  0
  6 21  1  0  0  0  0
  7 10  2  0  0  0  0
  7 20  1  0  0  0  0
  8 27  1  0  0  0  0
  9 27  2  0  0  0  0
 10 28  1  0  0  0  0
 11 12  2  0  0  0  0
 11 29  1  0  0  0  0
 12 30  1  0  0  0  0
 13 22  1  0  0  0  0
 13 28  2  0  0  0  0
 14 23  2  0  0  0  0
 14 25  1  0  0  0  0
 15 24  1  0  0  0  0
 15 25  2  0  0  0  0
 16 30  2  0  0  0  0
 16 31  1  0  0  0  0
 17 32  1  0  0  0  0
 18 32  1  0  0  0  0
 18 33  2  0  0  0  0
 18 37  1  0  0  0  0
 19 21  2  0  0  0  0
 19 42  1  0  0  0  0
 20 22  2  0  0  0  0
 20 43  1  0  0  0  0
 21 53  1  0  0  0  0
 22 44  1  0  0  0  0
 23 26  1  0  0  0  0
 23 56  1  0  0  0  0
 24 26  2  0  0  0  0
 24 57  1  0  0  0  0
 25 69  1  0  0  0  0
 26 74  1  0  0  0  0
 27 84  1  0  0  0  0
 28 85  1  0  0  0  0
 29 31  2  0  0  0  0
 29 84  1  0  0  0  0
 30 86  1  0  0  0  0
 31 87  1  0  0  0  0
 32 67  2  0  0  0  0
 33 68  1  0  0  0  0
 33 72  1  0  0  0  0
 34 35  2  0  0  0  0
 34 69  1  0  0  0  0
 35 36  1  0  0  0  0
 35 63  1  0  0  0  0
 36 45  1  0  0  0  0
 36 78  2  0  0  0  0
 37 73  1  0  0  0  0
 37 79  2  0  0  0  0
 38 54  1  0  0  0  0
 38 75  1  0  0  0  0
 38 80  2  0  0  0  0
 39 64  1  0  0  0  0
 39 70  1  0  0  0  0
 39 81  2  0  0  0  0
 40 65  1  0  0  0  0
 40 76  1  0  0  0  0
 40 82  2  0  0  0  0
 41 71  1  0  0  0  0
 41 74  1  0  0  0  0
 41 83  2  0  0  0  0
 42 46  1  0  0  0  0
 43 54  1  0  0  0  0
 44 70  1  0  0  0  0
 45 50  1  0  0  0  0
 46 48  1  0  0  0  0
 47 49  1  0  0  0  0
 47 51  1  0  0  0  0
 48 53  1  0  0  0  0
 49 55  1  0  0  0  0
 50 69  1  0  0  0  0
 51 71  1  0  0  0  0
 52 55  1  0  0  0  0
 52 71  1  0  0  0  0
 53 75  1  0  0  0  0
 54 70  1  0  0  0  0
 55 68  1  0  0  0  0
 58 65  1  0  0  0  0
 59 66  1  0  0  0  0
 60 66  1  0  0  0  0
 61 66  1  0  0  0  0
 62 77  1  0  0  0  0
 63 85  1  0  0  0  0
 64 66  1  0  0  0  0
 64 76  1  0  0  0  0
 65 77  1  0  0  0  0
 67 68  1  0  0  0  0
M  CHG  1  77   1
M  ISO  4  41 100  63 101  74 100  85 101
M  END
> <Batch ID>
0102

> <Smiles>
CNC(C)C(=O)NC(C(=O)N1Cc2cc([101O:1][101CH2:1]C3=CN(c4cc(C)c([100NH:0][100C:0](=O)N5CCCC(n6nc(-c7ccc(Oc8ccc(F)cc8F)cc7)c(C(N)=O)c6N)C5)c(C)c4)CCC3=O)ccc2CC1C(=O)NC1CCCc2ccccc21)C(C)(C)C

> <Shape>
0.292

> <Color>
0.187

> <Negative vol penalty>
0.000

$$$$

  -OEChem-04052301023D

 87 95  0     1  0  0  0  0  0999 V2000
  -25.1186  -22.8191   23.8189 C   0  0  0  0  0  0  0  0  0  0  0  0
  -25.9968  -23.8928   23.7250 C   0  0  0  0  0  0  0  0  0  0  0  0
  -23.6139  -13.5377   22.3483 C   0  0  0  0  0  0  0  0  0  0  0  0
  -24.6309  -12.3122   20.5315 C   0  0  0  0  0  0  0  0  0  0  0  0
  -23.7941  -22.9695   23.4136 C   0  0  0  0  0  0  0  0  0  0  0  0
  -25.5480  -25.1205   23.2370 C   0  0  0  0  0  0  0  0  0  0  0  0
  -28.6811  -28.9053   23.4868 C   0  0  0  0  0  0  0  0  0  0  0  0
  -22.5460  -12.6404   22.3559 C   0  0  0  0  0  0  0  0  0  0  0  0
  -23.5631  -11.4149   20.5391 C   0  0  0  0  0  0  0  0  0  0  0  0
  -29.8020  -29.0114   22.6645 C   0  0  0  0  0  0  0  0  0  0  0  0
  -21.2821   -8.5922   20.3197 C   0  0  0  0  0  0  0  0  0  0  0  0
  -21.5771   -7.2312   20.2410 C   0  0  0  0  0  0  0  0  0  0  0  0
  -28.7249  -25.0981   20.1496 C   0  0  0  0  0  0  0  0  0  0  0  0
  -28.6547  -30.6553   21.3227 C   0  0  0  0  0  0  0  0  0  0  0  0
  -31.0704  -25.3401   18.6586 C   0  0  0  0  0  0  0  0  0  0  0  0
  -22.8545   -7.3899   22.2856 C   0  0  0  0  0  0  0  0  0  0  0  0
  -24.6564  -13.3737   21.4361 C   0  0  0  0  0  0  0  0  0  0  0  0
  -29.5599  -23.9940   19.9791 C   0  0  0  0  0  0  0  0  0  0  0  0
  -26.9564  -14.2044   22.1621 C   0  0  0  0  0  0  0  0  0  0  0  0
  -23.3328  -24.1964   22.9088 C   0  0  0  0  0  0  0  0  0  0  0  0
  -27.5327  -29.6667   23.2263 C   0  0  0  0  0  0  0  0  0  0  0  0
  -24.2089  -25.2991   22.8452 C   0  0  0  0  0  0  0  0  0  0  0  0
  -27.5215  -30.5589   22.1447 C   0  0  0  0  0  0  0  0  0  0  0  0
  -30.7327  -24.1149   19.2337 C   0  0  0  0  0  0  0  0  0  0  0  0
  -22.5206  -11.5790   21.4513 C   0  0  0  0  0  0  0  0  0  0  0  0
  -29.7879  -29.8843   21.5806 C   0  0  0  0  0  0  0  0  0  0  0  0
  -21.7733   -9.3521   21.3813 C   0  0  0  0  0  0  0  0  0  0  0  0
  -29.0626  -26.3233   19.5745 C   0  0  0  0  0  0  0  0  0  0  0  0
  -30.2353  -26.4443   18.8291 C   0  0  0  0  0  0  0  0  0  0  0  0
  -22.3633   -6.6300   21.2239 C   0  0  0  0  0  0  0  0  0  0  0  0
  -22.5595   -8.7509   22.3643 C   0  0  0  0  0  0  0  0  0  0  0  0
  -25.7595  -14.3006   21.4274 C   0  0  0  0  0  0  0  0  0  0  0  0
  -27.6691  -15.3230   21.8054 C   0  0  0  0  0  0  0  0  0  0  0  0
  -29.1800  -22.7279   20.5921 C   0  0  0  0  0  0  0  0  0  0  0  0
  -28.0558  -22.0347   20.3192 C   0  0  0  0  0  0  0  0  0  0  0  0
  -27.3858  -13.1942   23.0845 C   0  0  0  0  0  0  0  0  0  0  0  0
  -27.8163  -20.7568   21.0194 C   0  0  0  0  0  0  0  0  0  0  0  0
  -24.5126  -28.9937   22.4983 C   0  0  0  0  0  0  0  0  0  0  0  0
  -24.1315  -32.1998   22.8107 C   0  0  0  0  0  0  0  0  0  0  0  0
  -25.5447  -35.3055   22.7447 C   0  0  0  0  0  0  0  0  0  0  0  0
  -21.8874  -24.3060   22.4917 C   0  0  0  0  0  0  0  0  0  0  0  0
  -26.3415  -29.5604   24.1385 C   0  0  0  0  0  0  0  0  0  0  0  0
  -26.3208  -31.4135   21.8340 C   0  0  0  0  0  0  0  0  0  0  0  0
  -21.6202  -25.5000   21.5811 C   0  0  0  0  0  0  0  0  0  0  0  0
  -26.9126  -18.6917   18.1297 C   0  0  0  0  0  0  0  0  0  0  0  0
  -22.2255  -26.7590   22.1837 C   0  0  0  0  0  0  0  0  0  0  0  0
  -26.5840  -17.3646   18.8084 C   0  0  0  0  0  0  0  0  0  0  0  0
  -26.5242  -19.8887   18.9962 C   0  0  0  0  0  0  0  0  0  0  0  0
  -26.7823  -18.5201   21.0458 C   0  0  0  0  0  0  0  0  0  0  0  0
  -23.7508  -26.6351   22.2890 C   0  0  1  0  0  0  0  0  0  0  0  0
  -25.0406  -30.0045   23.4766 C   0  0  1  0  0  0  0  0  0  0  0  0
  -27.2079  -17.3017   20.2116 C   0  0  1  0  0  0  0  0  0  0  0  0
  -31.6512  -22.9530   19.0303 C   0  0  0  0  0  0  0  0  0  0  0  0
  -24.9776  -28.5881   18.3210 C   0  0  0  0  0  0  0  0  0  0  0  0
  -24.9732  -37.7357   22.9998 C   0  0  0  0  0  0  0  0  0  0  0  0
  -22.8886  -32.1975   20.0241 C   0  0  0  0  0  0  0  0  0  0  0  0
  -23.2165  -34.6786   19.9519 C   0  0  0  0  0  0  0  0  0  0  0  0
  -21.7301  -33.6686   21.6819 C   0  0  0  0  0  0  0  0  0  0  0  0
  -27.3577  -35.6078   25.0643 C   0  0  0  0  0  0  0  0  0  0  0  0
  -26.4053  -28.6409   18.8345 C   0  0  0  0  0  0  0  0  0  0  0  0
  -31.7469  -29.7294   18.5392 C   0  0  0  0  0  0  0  0  0  0  0  0
  -26.9028  -27.2696   19.2653 C   0  0  0  0  0  0  0  0  0  0  0  0
  -30.6500  -30.3243   19.4082 C   0  0  0  0  0  0  0  0  0  1  0  0
  -31.8138  -28.2155   18.6647 C   0  0  0  0  0  0  0  0  0  0  0  0
  -24.2344  -33.3844   21.8806 C   0  0  1  0  0  0  0  0  0  0  0  0
  -25.4496  -36.4762   23.7065 C   0  0  2  0  0  0  0  0  0  0  0  0
  -23.0395  -33.4649   20.8891 C   0  0  0  0  0  0  0  0  0  0  0  0
  -25.7108  -15.3941   20.6619 N   0  0  0  0  0  0  0  0  0  0  0  0
  -26.8860  -15.9952   20.9137 N   0  0  0  0  0  0  0  0  0  0  0  0
  -27.0846  -19.7766   20.3513 N   0  0  0  0  0  0  0  0  0  0  0  0
  -25.1784  -31.2691   22.7514 N   0  0  0  0  0  0  0  0  0  0  0  0
  -28.8829  -15.7874   22.1706 N   0  0  0  0  0  0  0  0  0  0  0  0
  -26.5308  -12.1126   23.3364 N   0  0  0  0  0  0  0  0  0  0  0  0
  -24.2636  -27.7521   23.0514 N   0  0  0  0  0  0  0  0  0  0  0  0
  -24.3850  -34.5598   22.7315 N   0  0  0  0  0  0  0  0  0  0  0  0
  -26.7803  -36.7545   24.3169 N   0  3  0  0  0  0  0  0  0  0  0  0
  -28.4878  -13.2574   23.6804 O   0  0  0  0  0  0  0  0  0  0  0  0
  -28.2753  -20.6369   22.1568 O   0  0  0  0  0  0  0  0  0  0  0  0
  -24.3423  -29.3167   21.3285 O   0  0  0  0  0  0  0  0  0  0  0  0
  -23.1616  -32.1075   23.5673 O   0  0  0  0  0  0  0  0  0  0  0  0
  -26.5462  -35.0777   22.0696 O   0  0  0  0  0  0  0  0  0  0  0  0
  -21.4789  -10.7030   21.4585 O   0  0  0  0  0  0  0  0  0  0  0  0
  -30.8804  -29.9893   20.7761 O   0  0  0  0  0  0  0  0  0  1  0  0
  -28.2390  -27.3946   19.7479 O   0  0  0  0  0  0  0  0  0  0  0  0
  -30.5779  -27.6428   18.2591 O   0  0  0  0  0  0  0  0  0  0  0  0
  -22.6453   -5.3227   21.1490 F   0  0  0  0  0  0  0  0  0  0  0  0
  -23.0333   -9.4755   23.3872 F   0  0  0  0  0  0  0  0  0  0  0  0
  1  2  1  0  0  0  0
  1  5  2  0  0  0  0
  2  6  2  0  0  0  0
  3  8  2  0  0  0  0
  3 17  1  0  0  0  0
  4  9  1  0  0  0  0
  4 17  2  0  0  0  0
  5 20  1  0  0  0  0
  6 22  1  0  0  0  0
  7 10  2  0  0  0  0
  7 21  1  0  0  0  0
  8 25  1  0  0  0  0
  9 25  2  0  0  0  0
 10 26  1  0  0  0  0
 11 12  2  0  0  0  0
 11 27  1  0  0  0  0
 12 30  1  0  0  0  0
 13 18  2  0  0  0  0
 13 28  1  0  0  0  0
 14 23  1  0  0  0  0
 14 26  2  0  0  0  0
 15 24  2  0  0  0  0
 15 29  1  0  0  0  0
 16 30  2  0  0  0  0
 16 31  1  0  0  0  0
 17 32  1  0  0  0  0
 18 24  1  0  0  0  0
 18 34  1  0  0  0  0
 19 32  1  0  0  0  0
 19 33  2  0  0  0  0
 19 36  1  0  0  0  0
 20 22  2  0  0  0  0
 20 41  1  0  0  0  0
 21 23  2  0  0  0  0
 21 42  1  0  0  0  0
 22 50  1  0  0  0  0
 23 43  1  0  0  0  0
 24 53  1  0  0  0  0
 25 82  1  0  0  0  0
 26 83  1  0  0  0  0
 27 31  2  0  0  0  0
 27 82  1  0  0  0  0
 28 29  2  0  0  0  0
 28 84  1  0  0  0  0
 29 85  1  0  0  0  0
 30 86  1  0  0  0  0
 31 87  1  0  0  0  0
 32 68  2  0  0  0  0
 33 69  1  0  0  0  0
 33 72  1  0  0  0  0
 34 35  2  0  0  0  0
 35 37  1  0  0  0  0
 36 73  1  0  0  0  0
 36 77  2  0  0  0  0
 37 70  1  0  0  0  0
 37 78  2  0  0  0  0
 38 51  1  0  0  0  0
 38 74  1  0  0  0  0
 38 79  2  0  0  0  0
 39 65  1  0  0  0  0
 39 71  1  0  0  0  0
 39 80  2  0  0  0  0
 40 66  1  0  0  0  0
 40 75  1  0  0  0  0
 40 81  2  0  0  0  0
 41 44  1  0  0  0  0
 42 51  1  0  0  0  0
 43 71  1  0  0  0  0
 44 46  1  0  0  0  0
 45 47  1  0  0  0  0
 45 48  1  0  0  0  0
 46 50  1  0  0  0  0
 47 52  1  0  0  0  0
 48 70  1  0  0  0  0
 49 52  1  0  0  0  0
 49 70  1  0  0  0  0
 50 74  1  0  0  0  0
 51 71  1  0  0  0  0
 52 69  1  0  0  0  0
 54 60  1  0  0  0  0
 55 66  1  0  0  0  0
 56 67  1  0  0  0  0
 57 67  1  0  0  0  0
 58 67  1  0  0  0  0
 59 76  1  0  0  0  0
 60 62  1  0  0  0  0
 61 63  1  0  0  0  0
 61 64  1  0  0  0  0
 62 84  1  0  0  0  0
 63 83  1  0  0  0  0
 64 85  1  0  0  0  0
 65 67  1  0  0  0  0
 65 75  1  0  0  0  0
 66 76  1  0  0  0  0
 68 69  1  0  0  0  0
M  CHG  1  76   1
M  ISO  4  35 100  37 100  63 101  83 101
M  END
> <Batch ID>
0102

> <Smiles>
CCCOc1cc(C=[100CH:0][100C:0](=O)N2CCCC(n3nc(-c4ccc(Oc5ccc(F)cc5F)cc4)c(C(N)=O)c3N)C2)c(C)cc1OCC[101CH2:1][101O:1]c1ccc2c(c1)CN(C(=O)C(NC(=O)C(C)NC)C(C)(C)C)C(C(=O)NC1CCCc3ccccc31)C2

> <Shape>
0.266

> <Color>
0.083

> <Negative vol penalty>
0.000

$$$$

  -OEChem-04052301023D

 86 94  0     1  0  0  0  0  0999 V2000
  -29.1057  -27.2168   12.7668 C   0  0  0  0  0  0  0  0  0  0  0  0
  -28.5857  -26.3142   13.6890 C   0  0  0  0  0  0  0  0  0  0  0  0
  -23.2404   -9.7167   19.9782 C   0  0  0  0  0  0  0  0  0  0  0  0
  -24.0263   -9.8536   22.2587 C   0  0  0  0  0  0  0  0  0  0  0  0
  -29.8771  -28.2924   13.2047 C   0  0  0  0  0  0  0  0  0  0  0  0
  -28.8379  -26.4860   15.0496 C   0  0  0  0  0  0  0  0  0  0  0  0
  -25.0568  -25.1838   19.6878 C   0  0  0  0  0  0  0  0  0  0  0  0
  -22.6131   -8.5049   20.2671 C   0  0  0  0  0  0  0  0  0  0  0  0
  -23.3989   -8.6418   22.5476 C   0  0  0  0  0  0  0  0  0  0  0  0
  -24.9681  -24.0891   20.5466 C   0  0  0  0  0  0  0  0  0  0  0  0
  -20.2696   -7.5568   23.2190 C   0  0  0  0  0  0  0  0  0  0  0  0
  -19.5354   -7.4748   24.4021 C   0  0  0  0  0  0  0  0  0  0  0  0
  -26.2778  -25.2776   22.1872 C   0  0  0  0  0  0  0  0  0  0  0  0
  -29.5551  -20.1950   20.5780 C   0  0  0  0  0  0  0  0  0  0  0  0
  -28.2796  -18.7792   22.6154 C   0  0  0  0  0  0  0  0  0  0  0  0
  -20.9652   -5.6830   25.1652 C   0  0  0  0  0  0  0  0  0  0  0  0
  -23.9471  -10.3911   20.9740 C   0  0  0  0  0  0  0  0  0  0  0  0
  -24.0454  -12.9334   20.7885 C   0  0  0  0  0  0  0  0  0  0  0  0
  -30.1309  -28.4830   14.5722 C   0  0  0  0  0  0  0  0  0  0  0  0
  -25.7671  -26.3314   20.0685 C   0  0  0  0  0  0  0  0  0  0  0  0
  -29.6146  -27.5645   15.5061 C   0  0  0  0  0  0  0  0  0  0  0  0
  -26.3718  -26.3865   21.3324 C   0  0  0  0  0  0  0  0  0  0  0  0
  -29.4465  -18.8066   20.5001 C   0  0  0  0  0  0  0  0  0  0  0  0
  -28.8087  -18.0987   21.5187 C   0  0  0  0  0  0  0  0  0  0  0  0
  -22.6923   -7.9674   21.5518 C   0  0  0  0  0  0  0  0  0  0  0  0
  -25.5810  -24.1348   21.7953 C   0  0  0  0  0  0  0  0  0  0  0  0
  -21.3516   -6.7019   23.0089 C   0  0  0  0  0  0  0  0  0  0  0  0
  -29.0261  -20.8756   21.6747 C   0  0  0  0  0  0  0  0  0  0  0  0
  -28.3883  -20.1676   22.6933 C   0  0  0  0  0  0  0  0  0  0  0  0
  -19.8832   -6.5380   25.3752 C   0  0  0  0  0  0  0  0  0  0  0  0
  -21.6994   -5.7650   23.9820 C   0  0  0  0  0  0  0  0  0  0  0  0
  -24.5959  -11.6426   20.6760 C   0  0  0  0  0  0  0  0  0  0  0  0
  -25.0564  -13.7737   20.3905 C   0  0  0  0  0  0  0  0  0  0  0  0
  -22.7372  -13.3368   21.2146 C   0  0  0  0  0  0  0  0  0  0  0  0
  -28.3209  -27.8612   18.9545 C   0  0  0  0  0  0  0  0  0  0  0  0
  -27.5343  -30.0290   21.2357 C   0  0  0  0  0  0  0  0  0  0  0  0
  -25.9643  -30.6803   24.1951 C   0  0  0  0  0  0  0  0  0  0  0  0
  -30.5767  -15.0303   20.9044 C   0  0  0  0  0  0  0  0  0  0  0  0
  -31.0098  -29.6338   14.9939 C   0  0  0  0  0  0  0  0  0  0  0  0
  -25.8309  -27.5140   19.1413 C   0  0  0  0  0  0  0  0  0  0  0  0
  -27.1290  -27.6028   21.7968 C   0  0  0  0  0  0  0  0  0  0  0  0
  -30.9180  -29.9564   16.4832 C   0  0  0  0  0  0  0  0  0  0  0  0
  -29.4801  -12.8044   18.1576 C   0  0  0  0  0  0  0  0  0  0  0  0
  -31.0074  -28.6793   17.3125 C   0  0  0  0  0  0  0  0  0  0  0  0
  -28.0945  -12.3596   18.6224 C   0  0  0  0  0  0  0  0  0  0  0  0
  -30.3939  -13.1352   19.3338 C   0  0  0  0  0  0  0  0  0  0  0  0
  -28.4383  -13.6911   20.7412 C   0  0  0  0  0  0  0  0  0  0  0  0
  -29.8454  -27.7311   16.9924 C   0  0  1  0  0  0  0  0  0  0  0  0
  -27.0143  -28.4336   19.4264 C   0  0  1  0  0  0  0  0  0  0  0  0
  -27.4782  -13.3949   19.5793 C   0  0  2  0  0  0  0  0  0  0  0  0
  -30.0194  -18.1000   19.3159 C   0  0  0  0  0  0  0  0  0  0  0  0
  -25.5265  -32.5366   25.8260 C   0  0  0  0  0  0  0  0  0  0  0  0
  -30.3942  -29.7899   22.2719 C   0  0  0  0  0  0  0  0  0  0  0  0
  -29.6429  -30.8853   24.3941 C   0  0  0  0  0  0  0  0  0  0  0  0
  -29.4903  -32.1214   22.2327 C   0  0  0  0  0  0  0  0  0  0  0  0
  -30.6691  -16.4624   22.9094 C   0  0  0  0  0  0  0  0  0  0  0  0
  -23.0359  -30.4778   23.8173 C   0  0  0  0  0  0  0  0  0  0  0  0
  -29.8046  -22.8789   20.6567 C   0  0  0  0  0  0  0  0  0  0  0  0
  -28.6807  -16.6122   21.4569 C   0  0  0  0  0  0  0  0  0  0  0  0
  -25.9302  -21.9146   24.7101 C   0  0  0  0  0  0  0  0  0  0  0  0
  -26.1483  -23.1826   23.8995 C   0  0  0  0  0  0  0  0  0  1  0  0
  -26.4670  -20.6838   23.9964 C   0  0  0  0  0  0  0  0  0  0  0  0
  -27.8839  -30.2238   22.6914 C   0  0  1  0  0  0  0  0  0  0  0  0
  -25.0108  -31.7873   24.6072 C   0  0  2  0  0  0  0  0  0  0  0  0
  -29.3403  -30.7313   22.8883 C   0  0  0  0  0  0  0  0  0  0  0  0
  -25.8585  -11.6567   20.2406 N   0  0  0  0  0  0  0  0  0  0  0  0
  -26.1098  -12.9666   20.0758 N   0  0  0  0  0  0  0  0  0  0  0  0
  -27.1684  -28.7311   20.8518 N   0  0  0  0  0  0  0  0  0  0  0  0
  -29.7663  -14.0881   20.2499 N   0  0  0  0  0  0  0  0  0  0  0  0
  -25.1381  -15.1169   20.2825 N   0  0  0  0  0  0  0  0  0  0  0  0
  -21.8210  -12.3446   21.5891 N   0  0  0  0  0  0  0  0  0  0  0  0
  -28.6340  -28.1775   17.6463 N   0  0  0  0  0  0  0  0  0  0  0  0
  -26.8631  -31.1091   23.2414 N   0  0  0  0  0  0  0  0  0  0  0  0
  -29.9379  -15.9346   21.7662 N   0  0  0  0  0  0  0  0  0  0  0  0
  -23.6714  -31.2220   24.9351 N   0  3  0  0  0  0  0  0  0  0  0  0
  -22.3857  -14.5405   21.2463 O   0  0  0  0  0  0  0  0  0  0  0  0
  -28.9959  -27.1840   19.7210 O   0  0  0  0  0  0  0  0  0  0  0  0
  -27.5771  -30.9944   20.4691 O   0  0  0  0  0  0  0  0  0  0  0  0
  -25.9189  -29.5494   24.6742 O   0  0  0  0  0  0  0  0  0  0  0  0
  -31.8002  -15.0675   20.7210 O   0  0  0  0  0  0  0  0  0  0  0  0
  -22.0800   -6.7851   21.8341 O   0  0  0  0  0  0  0  0  0  0  0  0
  -29.1384  -22.2316   21.7390 O   0  0  0  0  0  0  0  0  0  0  0  0
  -25.4965  -23.0674   22.6353 O   0  0  0  0  0  0  0  0  0  1  0  0
  -27.8638  -20.8250   23.7757 O   0  0  0  0  0  0  0  0  0  0  0  0
  -19.1789   -6.4604   26.5120 F   0  0  0  0  0  0  0  0  0  0  0  0
  -22.7385   -4.9418   23.7864 F   0  0  0  0  0  0  0  0  0  0  0  0
  1  2  1  0  0  0  0
  1  5  2  0  0  0  0
  2  6  2  0  0  0  0
  3  8  2  0  0  0  0
  3 17  1  0  0  0  0
  4  9  1  0  0  0  0
  4 17  2  0  0  0  0
  5 19  1  0  0  0  0
  6 21  1  0  0  0  0
  7 10  2  0  0  0  0
  7 20  1  0  0  0  0
  8 25  1  0  0  0  0
  9 25  2  0  0  0  0
 10 26  1  0  0  0  0
 11 12  2  0  0  0  0
 11 27  1  0  0  0  0
 12 30  1  0  0  0  0
 13 22  1  0  0  0  0
 13 26  2  0  0  0  0
 14 23  2  0  0  0  0
 14 28  1  0  0  0  0
 15 24  2  0  0  0  0
 15 29  1  0  0  0  0
 16 30  2  0  0  0  0
 16 31  1  0  0  0  0
 17 32  1  0  0  0  0
 18 32  1  0  0  0  0
 18 33  2  0  0  0  0
 18 34  1  0  0  0  0
 19 21  2  0  0  0  0
 19 39  1  0  0  0  0
 20 22  2  0  0  0  0
 20 40  1  0  0  0  0
 21 48  1  0  0  0  0
 22 41  1  0  0  0  0
 23 24  1  0  0  0  0
 23 51  1  0  0  0  0
 24 59  1  0  0  0  0
 25 81  1  0  0  0  0
 26 83  1  0  0  0  0
 27 31  2  0  0  0  0
 27 81  1  0  0  0  0
 28 29  2  0  0  0  0
 28 82  1  0  0  0  0
 29 84  1  0  0  0  0
 30 85  1  0  0  0  0
 31 86  1  0  0  0  0
 32 66  2  0  0  0  0
 33 67  1  0  0  0  0
 33 70  1  0  0  0  0
 34 71  1  0  0  0  0
 34 76  2  0  0  0  0
 35 49  1  0  0  0  0
 35 72  1  0  0  0  0
 35 77  2  0  0  0  0
 36 63  1  0  0  0  0
 36 68  1  0  0  0  0
 36 78  2  0  0  0  0
 37 64  1  0  0  0  0
 37 73  1  0  0  0  0
 37 79  2  0  0  0  0
 38 69  1  0  0  0  0
 38 74  1  0  0  0  0
 38 80  2  0  0  0  0
 39 42  1  0  0  0  0
 40 49  1  0  0  0  0
 41 68  1  0  0  0  0
 42 44  1  0  0  0  0
 43 45  1  0  0  0  0
 43 46  1  0  0  0  0
 44 48  1  0  0  0  0
 45 50  1  0  0  0  0
 46 69  1  0  0  0  0
 47 50  1  0  0  0  0
 47 69  1  0  0  0  0
 48 72  1  0  0  0  0
 49 68  1  0  0  0  0
 50 67  1  0  0  0  0
 52 64  1  0  0  0  0
 53 65  1  0  0  0  0
 54 65  1  0  0  0  0
 55 65  1  0  0  0  0
 56 74  1  0  0  0  0
 57 75  1  0  0  0  0
 58 82  1  0  0  0  0
 59 74  1  0  0  0  0
 60 61  1  0  0  0  0
 60 62  1  0  0  0  0
 61 83  1  0  0  0  0
 62 84  1  0  0  0  0
 63 65  1  0  0  0  0
 63 73  1  0  0  0  0
 64 75  1  0  0  0  0
 66 67  1  0  0  0  0
M  CHG  1  75   1
M  ISO  4  38 100  61 101  74 100  83 101
M  END
> <Batch ID>
0102

> <Smiles>
CNC(C)C(=O)NC(C(=O)N1Cc2cc([101O:1][101CH2:1]CCOc3cc(C[100N:0](C)[100C:0](=O)N4CCCC(n5nc(-c6ccc(Oc7ccc(F)cc7F)cc6)c(C(N)=O)c5N)C4)c(C)cc3OC)ccc2CC1C(=O)NC1CCCc2ccccc21)C(C)(C)C

> <Shape>
0.309

> <Color>
0.195

> <Negative vol penalty>
0.000

$$$$

  -OEChem-04052301023D

 87 96  0     1  0  0  0  0  0999 V2000
  -13.6948  -20.8948   24.0829 C   0  0  0  0  0  0  0  0  0  0  0  0
  -14.1160  -22.2195   24.1394 C   0  0  0  0  0  0  0  0  0  0  0  0
  -26.4099  -15.5529   21.3477 C   0  0  0  0  0  0  0  0  0  0  0  0
  -26.5539  -15.9342   18.9663 C   0  0  0  0  0  0  0  0  0  0  0  0
  -14.6340  -19.8645   24.1035 C   0  0  0  0  0  0  0  0  0  0  0  0
  -15.4765  -22.5147   24.2176 C   0  0  0  0  0  0  0  0  0  0  0  0
  -20.2489  -27.4392   22.1464 C   0  0  0  0  0  0  0  0  0  0  0  0
  -27.3694  -28.7798   19.1714 C   0  0  0  0  0  0  0  0  0  0  0  0
  -27.8668  -27.5361   18.7825 C   0  0  0  0  0  0  0  0  0  0  0  0
  -25.2817  -14.7565   21.1520 C   0  0  0  0  0  0  0  0  0  0  0  0
  -25.4257  -15.1377   18.7706 C   0  0  0  0  0  0  0  0  0  0  0  0
  -21.2499  -28.2562   22.6701 C   0  0  0  0  0  0  0  0  0  0  0  0
  -24.6051  -11.5985   20.1509 C   0  0  0  0  0  0  0  0  0  0  0  0
  -24.5405  -10.3860   20.8373 C   0  0  0  0  0  0  0  0  0  0  0  0
  -22.7858  -26.3967   22.6189 C   0  0  0  0  0  0  0  0  0  0  0  0
  -29.2215  -29.0426   20.7003 C   0  0  0  0  0  0  0  0  0  0  0  0
  -22.5131  -11.1135   21.9317 C   0  0  0  0  0  0  0  0  0  0  0  0
  -27.0460  -16.1418   20.2549 C   0  0  0  0  0  0  0  0  0  0  0  0
  -29.5554  -16.5471   20.4706 C   0  0  0  0  0  0  0  0  0  0  0  0
  -16.0072  -20.1474   24.1723 C   0  0  0  0  0  0  0  0  0  0  0  0
  -20.5062  -26.0898   21.8647 C   0  0  0  0  0  0  0  0  0  0  0  0
  -16.4349  -21.4871   24.2405 C   0  0  0  0  0  0  0  0  0  0  0  0
  -21.7871  -25.5654   22.0892 C   0  0  0  0  0  0  0  0  0  0  0  0
  -28.0467  -29.5331   20.1303 C   0  0  0  0  0  0  0  0  0  0  0  0
  -29.0415  -27.0455   19.3526 C   0  0  0  0  0  0  0  0  0  0  0  0
  -24.7896  -14.5489   19.8634 C   0  0  0  0  0  0  0  0  0  0  0  0
  -22.5178  -27.7342   22.9092 C   0  0  0  0  0  0  0  0  0  0  0  0
  -23.6237  -12.5686   20.3549 C   0  0  0  0  0  0  0  0  0  0  0  0
  -29.7189  -27.7988   20.3115 C   0  0  0  0  0  0  0  0  0  0  0  0
  -23.4945  -10.1434   21.7277 C   0  0  0  0  0  0  0  0  0  0  0  0
  -22.5777  -12.3260   21.2453 C   0  0  0  0  0  0  0  0  0  0  0  0
  -28.2112  -16.9651   20.4565 C   0  0  0  0  0  0  0  0  0  0  0  0
  -30.2705  -17.6976   20.6972 C   0  0  0  0  0  0  0  0  0  0  0  0
  -30.1082  -15.2359   20.2945 C   0  0  0  0  0  0  0  0  0  0  0  0
  -19.3593  -23.3197   22.9206 C   0  0  0  0  0  0  0  0  0  0  0  0
  -21.2407  -22.0940   20.5796 C   0  0  0  0  0  0  0  0  0  0  0  0
  -24.2740  -21.9621   18.6304 C   0  0  0  0  0  0  0  0  0  0  0  0
  -29.0658  -23.3650   19.5637 C   0  0  0  0  0  0  0  0  0  0  0  0
  -16.9826  -18.9990   24.2396 C   0  0  0  0  0  0  0  0  0  0  0  0
  -19.4231  -25.2286   21.2750 C   0  0  0  0  0  0  0  0  0  0  0  0
  -22.1202  -24.1285   21.7849 C   0  0  0  0  0  0  0  0  0  0  0  0
  -18.4241  -19.4061   23.9457 C   0  0  0  0  0  0  0  0  0  0  0  0
  -29.9045  -21.9811   22.8008 C   0  0  0  0  0  0  0  0  0  0  0  0
  -18.7903  -20.6692   24.7186 C   0  0  0  0  0  0  0  0  0  0  0  0
  -29.6891  -20.4862   22.5576 C   0  0  0  0  0  0  0  0  0  0  0  0
  -24.9005  -31.9603   22.7407 C   0  0  0  0  0  0  0  0  0  0  0  0
  -28.8621  -22.8169   22.0639 C   0  0  0  0  0  0  0  0  0  0  0  0
  -28.5760  -21.0670   20.3523 C   0  0  0  0  0  0  0  0  0  0  0  0
  -26.3544  -32.1983   22.3668 C   0  0  0  0  0  0  0  0  0  0  0  0
  -25.7223  -29.8645   22.0090 C   0  0  0  0  0  0  0  0  0  0  0  0
  -17.9032  -21.8482   24.3009 C   0  0  1  0  0  0  0  0  0  0  0  0
  -19.6518  -23.7383   21.5075 C   0  0  1  0  0  0  0  0  0  0  0  0
  -24.8464  -30.4789   23.0872 C   0  0  2  0  0  0  0  0  0  0  0  0
  -29.6119  -20.1689   21.0524 C   0  0  2  0  0  0  0  0  0  0  0  0
  -24.9012  -20.5064   16.6849 C   0  0  0  0  0  0  0  0  0  0  0  0
  -22.4949  -20.2958   22.7017 C   0  0  0  0  0  0  0  0  0  0  0  0
  -24.3780  -19.8517   21.1127 C   0  0  0  0  0  0  0  0  0  0  0  0
  -22.0543  -19.1731   20.5108 C   0  0  0  0  0  0  0  0  0  0  0  0
  -24.8999  -24.3031   16.9314 C   0  0  0  0  0  0  0  0  0  0  0  0
  -31.4950  -28.1700   21.8489 C   0  0  0  0  0  0  0  0  0  0  0  0
  -29.5583  -25.7117   18.9254 C   0  0  0  0  0  0  0  0  0  0  0  0
  -27.5117  -30.8712   20.5476 C   0  0  0  0  0  0  0  0  0  0  0  0
  -23.4405  -29.9181   23.0976 C   0  0  0  0  0  0  0  0  0  1  0  0
  -22.6730  -21.6244   20.4951 C   0  0  1  0  0  0  0  0  0  0  0  0
  -24.3796  -21.8674   17.1190 C   0  0  2  0  0  0  0  0  0  0  0  0
  -22.8935  -20.2629   21.2127 C   0  0  0  0  0  0  0  0  0  0  0  0
  -28.0776  -18.2787   20.6582 N   0  0  0  0  0  0  0  0  0  0  0  0
  -29.3471  -18.6960   20.8013 N   0  0  0  0  0  0  0  0  0  0  0  0
  -21.0259  -23.3250   21.2154 N   0  0  0  0  0  0  0  0  0  0  0  0
  -28.8526  -22.4797   20.6334 N   0  0  0  0  0  0  0  0  0  0  0  0
  -31.5927  -17.9426   20.8157 N   0  0  0  0  0  0  0  0  0  0  0  0
  -29.2314  -14.1656   20.0709 N   0  0  0  0  0  0  0  0  0  0  0  0
  -18.3447  -22.3884   23.0329 N   0  0  0  0  0  0  0  0  0  0  0  0
  -23.0166  -21.6151   19.0773 N   0  0  0  0  0  0  0  0  0  0  0  0
  -29.3142  -24.6862   19.9152 N   0  0  0  0  0  0  0  0  0  0  0  0
  -26.8660  -30.8493   21.8956 N   0  3  1  0  0  0  0  0  0  0  0  0
  -25.3046  -22.9132   16.5979 N   0  3  0  0  0  0  0  0  0  0  0  0
  -31.3421  -15.0172   20.3507 O   0  0  0  0  0  0  0  0  0  0  0  0
  -20.0074  -23.8045   23.8407 O   0  0  0  0  0  0  0  0  0  0  0  0
  -20.3463  -21.3977   20.0928 O   0  0  0  0  0  0  0  0  0  0  0  0
  -25.2141  -22.3057   19.3436 O   0  0  0  0  0  0  0  0  0  0  0  0
  -29.0419  -23.0037   18.3822 O   0  0  0  0  0  0  0  0  0  0  0  0
  -23.6888  -13.7716   19.6721 O   0  0  0  0  0  0  0  0  0  0  0  0
  -30.8682  -27.3350   20.8774 O   0  0  0  0  0  0  0  0  0  0  0  0
  -23.4965  -28.5293   23.4209 O   0  0  0  0  0  0  0  0  0  1  0  0
  -23.4318   -8.9784   22.3856 F   0  0  0  0  0  0  0  0  0  0  0  0
  -21.6314  -13.2537   21.4445 F   0  0  0  0  0  0  0  0  0  0  0  0
  1  2  1  0  0  0  0
  1  5  2  0  0  0  0
  2  6  2  0  0  0  0
  3 10  2  0  0  0  0
  3 18  1  0  0  0  0
  4 11  1  0  0  0  0
  4 18  2  0  0  0  0
  5 20  1  0  0  0  0
  6 22  1  0  0  0  0
  7 12  2  0  0  0  0
  7 21  1  0  0  0  0
  8  9  2  0  0  0  0
  8 24  1  0  0  0  0
  9 25  1  0  0  0  0
 10 26  1  0  0  0  0
 11 26  2  0  0  0  0
 12 27  1  0  0  0  0
 13 14  2  0  0  0  0
 13 28  1  0  0  0  0
 14 30  1  0  0  0  0
 15 23  1  0  0  0  0
 15 27  2  0  0  0  0
 16 24  2  0  0  0  0
 16 29  1  0  0  0  0
 17 30  2  0  0  0  0
 17 31  1  0  0  0  0
 18 32  1  0  0  0  0
 19 32  1  0  0  0  0
 19 33  2  0  0  0  0
 19 34  1  0  0  0  0
 20 22  2  0  0  0  0
 20 39  1  0  0  0  0
 21 23  2  0  0  0  0
 21 40  1  0  0  0  0
 22 51  1  0  0  0  0
 23 41  1  0  0  0  0
 24 62  1  0  0  0  0
 25 29  2  0  0  0  0
 25 61  1  0  0  0  0
 26 83  1  0  0  0  0
 27 85  1  0  0  0  0
 28 31  2  0  0  0  0
 28 83  1  0  0  0  0
 29 84  1  0  0  0  0
 30 86  1  0  0  0  0
 31 87  1  0  0  0  0
 32 67  2  0  0  0  0
 33 68  1  0  0  0  0
 33 71  1  0  0  0  0
 34 72  1  0  0  0  0
 34 78  2  0  0  0  0
 35 52  1  0  0  0  0
 35 73  1  0  0  0  0
 35 79  2  0  0  0  0
 36 64  1  0  0  0  0
 36 69  1  0  0  0  0
 36 80  2  0  0  0  0
 37 65  1  0  0  0  0
 37 74  1  0  0  0  0
 37 81  2  0  0  0  0
 38 70  1  0  0  0  0
 38 75  1  0  0  0  0
 38 82  2  0  0  0  0
 39 42  1  0  0  0  0
 40 52  1  0  0  0  0
 41 69  1  0  0  0  0
 42 44  1  0  0  0  0
 43 45  1  0  0  0  0
 43 47  1  0  0  0  0
 44 51  1  0  0  0  0
 45 54  1  0  0  0  0
 46 49  1  0  0  0  0
 46 53  1  0  0  0  0
 47 70  1  0  0  0  0
 48 54  1  0  0  0  0
 48 70  1  0  0  0  0
 49 76  1  0  0  0  0
 50 53  1  0  0  0  0
 50 76  1  0  0  0  0
 51 73  1  0  0  0  0
 52 69  1  0  0  0  0
 53 63  1  0  0  0  0
 54 68  1  0  0  0  0
 55 65  1  0  0  0  0
 56 66  1  0  0  0  0
 57 66  1  0  0  0  0
 58 66  1  0  0  0  0
 59 77  1  0  0  0  0
 60 84  1  0  0  0  0
 61 75  1  0  0  0  0
 62 76  1  0  0  0  0
 63 85  1  0  0  0  0
 64 66  1  0  0  0  0
 64 74  1  0  0  0  0
 65 77  1  0  0  0  0
 67 68  1  0  0  0  0
M  CHG  2  76   1  77   1
M  ISO  4  38 100  63 101  75 100  85 101
M  END
> <Batch ID>
0102

> <Smiles>
CNC(C)C(=O)NC(C(=O)N1Cc2cc([101O:1][101CH2:1]C3CCN(Cc4ccc(C[100NH:0][100C:0](=O)N5CCCC(n6nc(-c7ccc(Oc8ccc(F)cc8F)cc7)c(C(N)=O)c6N)C5)c(OC)c4)C3)ccc2CC1C(=O)NC1CCCc2ccccc21)C(C)(C)C

> <Shape>
0.244

> <Color>
0.046

> <Negative vol penalty>
0.000

$$$$

  -OEChem-04052301023D

 89 98  0     1  0  0  0  0  0999 V2000
  -28.3457  -33.5395   24.7288 C   0  0  0  0  0  0  0  0  0  0  0  0
  -28.3775  -32.2126   24.3120 C   0  0  0  0  0  0  0  0  0  0  0  0
  -24.0652   -9.3678   19.9247 C   0  0  0  0  0  0  0  0  0  0  0  0
  -23.1936  -10.3368   21.9590 C   0  0  0  0  0  0  0  0  0  0  0  0
  -27.1349  -34.1244   25.0973 C   0  0  0  0  0  0  0  0  0  0  0  0
  -27.1986  -31.4694   24.2645 C   0  0  0  0  0  0  0  0  0  0  0  0
  -26.7798  -28.7609   20.0062 C   0  0  0  0  0  0  0  0  0  0  0  0
  -26.3330  -19.6205   18.7789 C   0  0  0  0  0  0  0  0  0  0  0  0
  -25.6500  -19.1299   19.8918 C   0  0  0  0  0  0  0  0  0  0  0  0
  -23.2715   -8.2380   20.1227 C   0  0  0  0  0  0  0  0  0  0  0  0
  -22.3999   -9.2070   22.1571 C   0  0  0  0  0  0  0  0  0  0  0  0
  -27.5183  -27.5810   19.9269 C   0  0  0  0  0  0  0  0  0  0  0  0
  -20.4129   -6.4240   23.3886 C   0  0  0  0  0  0  0  0  0  0  0  0
  -20.3727   -5.8766   24.6709 C   0  0  0  0  0  0  0  0  0  0  0  0
  -25.5436  -26.3144   20.4885 C   0  0  0  0  0  0  0  0  0  0  0  0
  -24.0295  -20.9095   19.6819 C   0  0  0  0  0  0  0  0  0  0  0  0
  -22.7582   -5.5031   24.5862 C   0  0  0  0  0  0  0  0  0  0  0  0
  -24.0263  -10.4172   20.8429 C   0  0  0  0  0  0  0  0  0  0  0  0
  -26.2506  -11.6319   20.5525 C   0  0  0  0  0  0  0  0  0  0  0  0
  -25.9391  -33.3909   25.0451 C   0  0  0  0  0  0  0  0  0  0  0  0
  -25.4179  -28.7272   20.3385 C   0  0  0  0  0  0  0  0  0  0  0  0
  -25.9708  -32.0446   24.6339 C   0  0  0  0  0  0  0  0  0  0  0  0
  -24.7895  -27.4950   20.5689 C   0  0  0  0  0  0  0  0  0  0  0  0
  -25.8643  -20.7558   18.1176 C   0  0  0  0  0  0  0  0  0  0  0  0
  -24.4983  -19.7743   20.3433 C   0  0  0  0  0  0  0  0  0  0  0  0
  -22.4388   -8.1576   21.2389 C   0  0  0  0  0  0  0  0  0  0  0  0
  -26.9009  -26.3577   20.1709 C   0  0  0  0  0  0  0  0  0  0  0  0
  -21.6257   -6.5109   22.7050 C   0  0  0  0  0  0  0  0  0  0  0  0
  -24.7125  -21.4002   18.5691 C   0  0  0  0  0  0  0  0  0  0  0  0
  -21.5453   -5.4162   25.2697 C   0  0  0  0  0  0  0  0  0  0  0  0
  -22.7983   -6.0506   23.3038 C   0  0  0  0  0  0  0  0  0  0  0  0
  -24.8463  -11.5843   20.6391 C   0  0  0  0  0  0  0  0  0  0  0  0
  -26.5377  -12.9608   20.3573 C   0  0  0  0  0  0  0  0  0  0  0  0
  -29.0608  -21.5146   16.8033 C   0  0  0  0  0  0  0  0  0  0  0  0
  -27.2098  -10.5699   20.6404 C   0  0  0  0  0  0  0  0  0  0  0  0
  -23.6603  -29.8894   22.7184 C   0  0  0  0  0  0  0  0  0  0  0  0
  -21.1985  -28.7603   20.9331 C   0  0  0  0  0  0  0  0  0  0  0  0
  -20.1134  -26.5737   18.5482 C   0  0  0  0  0  0  0  0  0  0  0  0
  -23.7991  -17.8907   21.8111 C   0  0  0  0  0  0  0  0  0  0  0  0
  -24.6615  -34.0520   25.4983 C   0  0  0  0  0  0  0  0  0  0  0  0
  -24.6291  -30.0067   20.3938 C   0  0  0  0  0  0  0  0  0  0  0  0
  -23.3252  -27.4031   20.9094 C   0  0  0  0  0  0  0  0  0  0  0  0
  -30.3016  -22.2309   17.2996 C   0  0  0  0  0  0  0  0  0  0  0  0
  -23.4024  -33.3074   25.0620 C   0  0  0  0  0  0  0  0  0  0  0  0
  -30.0785  -23.6764   17.6983 C   0  0  0  0  0  0  0  0  0  0  0  0
  -24.7052  -16.9623   18.5005 C   0  0  0  0  0  0  0  0  0  0  0  0
  -23.5427  -31.8138   25.3385 C   0  0  0  0  0  0  0  0  0  0  0  0
  -24.9723  -15.4668   18.6671 C   0  0  0  0  0  0  0  0  0  0  0  0
  -23.5031  -17.4244   19.3248 C   0  0  0  0  0  0  0  0  0  0  0  0
  -27.6609  -23.2318   18.0035 C   0  0  0  0  0  0  0  0  0  0  0  0
  -23.8524  -15.5708   20.9268 C   0  0  0  0  0  0  0  0  0  0  0  0
  -24.7095  -31.2132   24.5453 C   0  0  1  0  0  0  0  0  0  0  0  0
  -23.3678  -29.8947   21.2446 C   0  0  1  0  0  0  0  0  0  0  0  0
  -28.9217  -23.7537   18.6856 C   0  0  2  0  0  0  0  0  0  0  0  0
  -25.0905  -15.0893   20.1542 C   0  0  1  0  0  0  0  0  0  0  0  0
  -18.0410  -25.8610   17.3256 C   0  0  0  0  0  0  0  0  0  0  0  0
  -20.2608  -27.2459   23.4105 C   0  0  0  0  0  0  0  0  0  0  0  0
  -18.8079  -25.8517   21.9228 C   0  0  0  0  0  0  0  0  0  0  0  0
  -18.4284  -28.3119   22.0837 C   0  0  0  0  0  0  0  0  0  0  0  0
  -23.2674  -20.2260   22.4737 C   0  0  0  0  0  0  0  0  0  0  0  0
  -21.2584  -27.3335   15.9270 C   0  0  0  0  0  0  0  0  0  0  0  0
  -23.0584  -23.1056   18.4633 C   0  0  0  0  0  0  0  0  0  0  0  0
  -26.6124  -21.2698   16.9217 C   0  0  0  0  0  0  0  0  0  0  0  0
  -28.7174  -25.1825   19.1834 C   0  0  0  0  0  0  0  0  0  1  0  0
  -20.4559  -27.4490   20.8440 C   0  0  1  0  0  0  0  0  0  0  0  0
  -19.2560  -26.7755   17.3118 C   0  0  2  0  0  0  0  0  0  0  0  0
  -19.5163  -27.2161   22.0608 C   0  0  0  0  0  0  0  0  0  0  0  0
  -24.2806  -12.7873   20.5098 N   0  0  0  0  0  0  0  0  0  0  0  0
  -25.3348  -13.6034   20.3400 N   0  0  0  0  0  0  0  0  0  0  0  0
  -27.8380  -21.9602   17.3007 N   0  0  0  0  0  0  0  0  0  0  0  0
  -22.5982  -28.6824   20.9577 N   0  0  0  0  0  0  0  0  0  0  0  0
  -23.6414  -17.0066   20.7271 N   0  0  0  0  0  0  0  0  0  0  0  0
  -27.6992  -13.6307   20.2006 N   0  0  0  0  0  0  0  0  0  0  0  0
  -27.7265  -10.2389   21.9005 N   0  0  0  0  0  0  0  0  0  0  0  0
  -24.3309  -31.0128   23.1629 N   0  0  0  0  0  0  0  0  0  0  0  0
  -19.7737  -27.4530   19.5544 N   0  0  0  0  0  0  0  0  0  0  0  0
  -23.7919  -19.2666   21.4959 N   0  0  0  0  0  0  0  0  0  0  0  0
  -20.0460  -26.4889   16.0811 N   0  3  0  0  0  0  0  0  0  0  0  0
  -29.1915  -20.5380   16.0601 O   0  0  0  0  0  0  0  0  0  0  0  0
  -27.6095   -9.9443   19.6293 O   0  0  0  0  0  0  0  0  0  0  0  0
  -23.3027  -28.9372   23.4019 O   0  0  0  0  0  0  0  0  0  0  0  0
  -20.5604  -29.8152   20.9721 O   0  0  0  0  0  0  0  0  0  0  0  0
  -20.9938  -25.7188   18.6159 O   0  0  0  0  0  0  0  0  0  0  0  0
  -23.9111  -17.4837   22.9737 O   0  0  0  0  0  0  0  0  0  0  0  0
  -21.6640   -7.0554   21.4323 O   0  0  0  0  0  0  0  0  0  0  0  0
  -24.2416  -22.5103   17.9347 O   0  0  0  0  0  0  0  0  0  0  0  0
  -27.6195  -25.2046   20.0948 O   0  0  0  0  0  0  0  0  0  1  0  0
  -21.5068   -4.8919   26.5017 F   0  0  0  0  0  0  0  0  0  0  0  0
  -23.9666   -6.1325   22.6526 F   0  0  0  0  0  0  0  0  0  0  0  0
  1  2  1  0  0  0  0
  1  5  2  0  0  0  0
  2  6  2  0  0  0  0
  3 10  2  0  0  0  0
  3 18  1  0  0  0  0
  4 11  1  0  0  0  0
  4 18  2  0  0  0  0
  5 20  1  0  0  0  0
  6 22  1  0  0  0  0
  7 12  2  0  0  0  0
  7 21  1  0  0  0  0
  8  9  2  0  0  0  0
  8 24  1  0  0  0  0
  9 25  1  0  0  0  0
 10 26  1  0  0  0  0
 11 26  2  0  0  0  0
 12 27  1  0  0  0  0
 13 14  2  0  0  0  0
 13 28  1  0  0  0  0
 14 30  1  0  0  0  0
 15 23  1  0  0  0  0
 15 27  2  0  0  0  0
 16 25  2  0  0  0  0
 16 29  1  0  0  0  0
 17 30  2  0  0  0  0
 17 31  1  0  0  0  0
 18 32  1  0  0  0  0
 19 32  1  0  0  0  0
 19 33  2  0  0  0  0
 19 35  1  0  0  0  0
 20 22  2  0  0  0  0
 20 40  1  0  0  0  0
 21 23  2  0  0  0  0
 21 41  1  0  0  0  0
 22 52  1  0  0  0  0
 23 42  1  0  0  0  0
 24 29  2  0  0  0  0
 24 63  1  0  0  0  0
 25 77  1  0  0  0  0
 26 85  1  0  0  0  0
 27 87  1  0  0  0  0
 28 31  2  0  0  0  0
 28 85  1  0  0  0  0
 29 86  1  0  0  0  0
 30 88  1  0  0  0  0
 31 89  1  0  0  0  0
 32 68  2  0  0  0  0
 33 69  1  0  0  0  0
 33 73  1  0  0  0  0
 34 43  1  0  0  0  0
 34 70  1  0  0  0  0
 34 79  2  0  0  0  0
 35 74  1  0  0  0  0
 35 80  2  0  0  0  0
 36 53  1  0  0  0  0
 36 75  1  0  0  0  0
 36 81  2  0  0  0  0
 37 65  1  0  0  0  0
 37 71  1  0  0  0  0
 37 82  2  0  0  0  0
 38 66  1  0  0  0  0
 38 76  1  0  0  0  0
 38 83  2  0  0  0  0
 39 72  1  0  0  0  0
 39 77  1  0  0  0  0
 39 84  2  0  0  0  0
 40 44  1  0  0  0  0
 41 53  1  0  0  0  0
 42 71  1  0  0  0  0
 43 45  1  0  0  0  0
 44 47  1  0  0  0  0
 45 54  1  0  0  0  0
 46 48  1  0  0  0  0
 46 49  1  0  0  0  0
 47 52  1  0  0  0  0
 48 55  1  0  0  0  0
 49 72  1  0  0  0  0
 50 54  1  0  0  0  0
 50 70  1  0  0  0  0
 51 55  1  0  0  0  0
 51 72  1  0  0  0  0
 52 75  1  0  0  0  0
 53 71  1  0  0  0  0
 54 64  1  0  0  0  0
 55 69  1  0  0  0  0
 56 66  1  0  0  0  0
 57 67  1  0  0  0  0
 58 67  1  0  0  0  0
 59 67  1  0  0  0  0
 60 77  1  0  0  0  0
 61 78  1  0  0  0  0
 62 86  1  0  0  0  0
 63 70  1  0  0  0  0
 64 87  1  0  0  0  0
 65 67  1  0  0  0  0
 65 76  1  0  0  0  0
 66 78  1  0  0  0  0
 68 69  1  0  0  0  0
M  CHG  1  78   1
M  ISO  4  39 100  64 101  77 100  87 101
M  END
> <Batch ID>
0102

> <Smiles>
CNC(C)C(=O)NC(C(=O)N1Cc2cc([101O:1][101CH2:1]C3CCC(=O)N(Cc4ccc([100N:0](C)[100C:0](=O)N5CCCC(n6nc(-c7ccc(Oc8ccc(F)cc8F)cc7)c(C(N)=O)c6N)C5)cc4OC)C3)ccc2CC1C(=O)NC1CCCc2ccccc21)C(C)(C)C

> <Shape>
0.282

> <Color>
0.099

> <Negative vol penalty>
0.000

$$$$

  -OEChem-04052301023D

 85 93  0     1  0  0  0  0  0999 V2000
  -27.3636  -16.4519   25.9844 C   0  0  0  0  0  0  0  0  0  0  0  0
  -28.3752  -17.2976   25.5408 C   0  0  0  0  0  0  0  0  0  0  0  0
  -23.0668   -9.8714   19.9532 C   0  0  0  0  0  0  0  0  0  0  0  0
  -23.8544   -9.8810   22.2372 C   0  0  0  0  0  0  0  0  0  0  0  0
  -26.0522  -16.6502   25.5544 C   0  0  0  0  0  0  0  0  0  0  0  0
  -28.0762  -18.3416   24.6660 C   0  0  0  0  0  0  0  0  0  0  0  0
  -30.3176  -22.6860   25.9876 C   0  0  0  0  0  0  0  0  0  0  0  0
  -22.3290   -8.7164   20.2125 C   0  0  0  0  0  0  0  0  0  0  0  0
  -23.1165   -8.7260   22.4965 C   0  0  0  0  0  0  0  0  0  0  0  0
  -31.6701  -22.8244   25.6788 C   0  0  0  0  0  0  0  0  0  0  0  0
  -19.9526   -5.9700   20.3704 C   0  0  0  0  0  0  0  0  0  0  0  0
  -18.6412   -5.9185   19.8980 C   0  0  0  0  0  0  0  0  0  0  0  0
  -31.0875  -24.1428   23.7445 C   0  0  0  0  0  0  0  0  0  0  0  0
  -32.2717  -18.8164   21.4371 C   0  0  0  0  0  0  0  0  0  0  0  0
  -32.5981  -17.7786   23.5942 C   0  0  0  0  0  0  0  0  0  0  0  0
  -18.0871   -7.8603   21.2244 C   0  0  0  0  0  0  0  0  0  0  0  0
  -23.8295  -10.4537   20.9656 C   0  0  0  0  0  0  0  0  0  0  0  0
  -24.1634  -12.9797   20.8408 C   0  0  0  0  0  0  0  0  0  0  0  0
  -25.7353  -17.7029   24.6815 C   0  0  0  0  0  0  0  0  0  0  0  0
  -29.3377  -23.2669   25.1697 C   0  0  0  0  0  0  0  0  0  0  0  0
  -26.7595  -18.5533   24.2229 C   0  0  0  0  0  0  0  0  0  0  0  0
  -29.7233  -24.0126   24.0465 C   0  0  0  0  0  0  0  0  0  0  0  0
  -31.3764  -17.8060   21.0864 C   0  0  0  0  0  0  0  0  0  0  0  0
  -31.0919  -16.7819   21.9896 C   0  0  0  0  0  0  0  0  0  0  0  0
  -32.8826  -18.8027   22.6910 C   0  0  0  0  0  0  0  0  0  0  0  0
  -22.3538   -8.1437   21.4841 C   0  0  0  0  0  0  0  0  0  0  0  0
  -32.0551  -23.5504   24.5556 C   0  0  0  0  0  0  0  0  0  0  0  0
  -20.3312   -6.9666   21.2700 C   0  0  0  0  0  0  0  0  0  0  0  0
  -17.7085   -6.8636   20.3249 C   0  0  0  0  0  0  0  0  0  0  0  0
  -31.7027  -16.7682   23.2436 C   0  0  0  0  0  0  0  0  0  0  0  0
  -19.3985   -7.9117   21.6969 C   0  0  0  0  0  0  0  0  0  0  0  0
  -24.5924  -11.6465   20.6983 C   0  0  0  0  0  0  0  0  0  0  0  0
  -25.2491  -13.7319   20.4642 C   0  0  0  0  0  0  0  0  0  0  0  0
  -22.8968  -13.4924   21.2750 C   0  0  0  0  0  0  0  0  0  0  0  0
  -26.9366  -22.1533   23.4095 C   0  0  0  0  0  0  0  0  0  0  0  0
  -30.7543  -14.6987   20.6826 C   0  0  0  0  0  0  0  0  0  0  0  0
  -26.2719  -25.3047   23.0236 C   0  0  0  0  0  0  0  0  0  0  0  0
  -34.1865  -20.9169   22.2756 C   0  0  0  0  0  0  0  0  0  0  0  0
  -27.3995  -28.5258   23.0325 C   0  0  0  0  0  0  0  0  0  0  0  0
  -24.3112  -17.8488   24.2069 C   0  0  0  0  0  0  0  0  0  0  0  0
  -27.8841  -23.1310   25.5314 C   0  0  0  0  0  0  0  0  0  0  0  0
  -28.7113  -24.6729   23.1475 C   0  0  0  0  0  0  0  0  0  0  0  0
  -24.0158  -19.2066   23.5750 C   0  0  0  0  0  0  0  0  0  0  0  0
  -29.5653  -12.3984   18.2057 C   0  0  0  0  0  0  0  0  0  0  0  0
  -25.1149  -19.5865   22.5879 C   0  0  0  0  0  0  0  0  0  0  0  0
  -28.1412  -12.0841   18.6619 C   0  0  0  0  0  0  0  0  0  0  0  0
  -30.4998  -12.6038   19.3939 C   0  0  0  0  0  0  0  0  0  0  0  0
  -28.6116  -13.3340   20.8163 C   0  0  0  0  0  0  0  0  0  0  0  0
  -26.4707  -19.7119   23.2932 C   0  0  1  0  0  0  0  0  0  0  0  0
  -26.9509  -23.3319   24.3413 C   0  0  1  0  0  0  0  0  0  0  0  0
  -27.6284  -13.1496   19.6469 C   0  0  2  0  0  0  0  0  0  0  0  0
  -30.7340  -17.8419   19.7385 C   0  0  0  0  0  0  0  0  0  0  0  0
  -26.6313  -30.8829   22.6431 C   0  0  0  0  0  0  0  0  0  0  0  0
  -26.2985  -24.8133   20.0124 C   0  0  0  0  0  0  0  0  0  0  0  0
  -26.4798  -27.2882   19.6804 C   0  0  0  0  0  0  0  0  0  0  0  0
  -24.4724  -26.3264   20.8064 C   0  0  0  0  0  0  0  0  0  0  0  0
  -28.0665  -29.3240   25.8032 C   0  0  0  0  0  0  0  0  0  0  0  0
  -30.1352  -15.6914   21.6340 C   0  0  0  0  0  0  0  0  0  0  0  0
  -35.1809  -21.7796   23.0402 C   0  0  0  0  0  0  0  0  0  0  0  0
  -35.1053  -23.2511   22.6479 C   0  0  0  0  0  0  0  0  0  0  0  0
  -33.7125  -23.8219   22.8718 C   0  0  0  0  0  0  0  0  0  1  0  0
  -26.6811  -26.3705   22.0359 C   0  0  1  0  0  0  0  0  0  0  0  0
  -26.8453  -29.7852   23.6737 C   0  0  2  0  0  0  0  0  0  0  0  0
  -26.0022  -26.1857   20.6494 C   0  0  0  0  0  0  0  0  0  0  0  0
  -25.8523  -11.5538   20.2647 N   0  0  0  0  0  0  0  0  0  0  0  0
  -26.2243  -12.8383   20.1315 N   0  0  0  0  0  0  0  0  0  0  0  0
  -27.3021  -24.5058   23.5396 N   0  0  0  0  0  0  0  0  0  0  0  0
  -29.9665  -13.6070   20.3172 N   0  0  0  0  0  0  0  0  0  0  0  0
  -25.4552  -15.0638   20.3883 N   0  0  0  0  0  0  0  0  0  0  0  0
  -21.8913  -12.5807   21.6247 N   0  0  0  0  0  0  0  0  0  0  0  0
  -33.7909  -19.8279   23.0471 N   0  0  0  0  0  0  0  0  0  0  0  0
  -26.5545  -20.9677   24.0077 N   0  0  0  0  0  0  0  0  0  0  0  0
  -26.3957  -27.6506   22.6750 N   0  0  0  0  0  0  0  0  0  0  0  0
  -27.7843  -30.2934   24.7134 N   0  3  0  0  0  0  0  0  0  0  0  0
  -22.6580  -14.7224   21.3348 O   0  0  0  0  0  0  0  0  0  0  0  0
  -27.2478  -22.3083   22.2344 O   0  0  0  0  0  0  0  0  0  0  0  0
  -31.9029  -14.8911   20.2751 O   0  0  0  0  0  0  0  0  0  0  0  0
  -25.0829  -25.1900   23.3316 O   0  0  0  0  0  0  0  0  0  0  0  0
  -33.8227  -21.1955   21.1379 O   0  0  0  0  0  0  0  0  0  0  0  0
  -28.6022  -28.3389   22.8621 O   0  0  0  0  0  0  0  0  0  0  0  0
  -21.6338   -7.0168   21.7375 O   0  0  0  0  0  0  0  0  0  0  0  0
  -33.3746  -23.6864   24.2515 O   0  0  0  0  0  0  0  0  0  1  0  0
  -16.4496   -6.8150   19.8700 F   0  0  0  0  0  0  0  0  0  0  0  0
  -31.4342  -15.7899   24.1199 F   0  0  0  0  0  0  0  0  0  0  0  0
  -19.7566   -8.8722   22.5601 F   0  0  0  0  0  0  0  0  0  0  0  0
  1  2  1  0  0  0  0
  1  5  2  0  0  0  0
  2  6  2  0  0  0  0
  3  8  2  0  0  0  0
  3 17  1  0  0  0  0
  4  9  1  0  0  0  0
  4 17  2  0  0  0  0
  5 19  1  0  0  0  0
  6 21  1  0  0  0  0
  7 10  2  0  0  0  0
  7 20  1  0  0  0  0
  8 26  1  0  0  0  0
  9 26  2  0  0  0  0
 10 27  1  0  0  0  0
 11 12  2  0  0  0  0
 11 28  1  0  0  0  0
 12 29  1  0  0  0  0
 13 22  1  0  0  0  0
 13 27  2  0  0  0  0
 14 23  2  0  0  0  0
 14 25  1  0  0  0  0
 15 25  2  0  0  0  0
 15 30  1  0  0  0  0
 16 29  2  0  0  0  0
 16 31  1  0  0  0  0
 17 32  1  0  0  0  0
 18 32  1  0  0  0  0
 18 33  2  0  0  0  0
 18 34  1  0  0  0  0
 19 21  2  0  0  0  0
 19 40  1  0  0  0  0
 20 22  2  0  0  0  0
 20 41  1  0  0  0  0
 21 49  1  0  0  0  0
 22 42  1  0  0  0  0
 23 24  1  0  0  0  0
 23 52  1  0  0  0  0
 24 30  2  0  0  0  0
 24 58  1  0  0  0  0
 25 71  1  0  0  0  0
 26 81  1  0  0  0  0
 27 82  1  0  0  0  0
 28 31  2  0  0  0  0
 28 81  1  0  0  0  0
 29 83  1  0  0  0  0
 30 84  1  0  0  0  0
 31 85  1  0  0  0  0
 32 65  2  0  0  0  0
 33 66  1  0  0  0  0
 33 69  1  0  0  0  0
 34 70  1  0  0  0  0
 34 75  2  0  0  0  0
 35 50  1  0  0  0  0
 35 72  1  0  0  0  0
 35 76  2  0  0  0  0
 36 58  1  0  0  0  0
 36 68  1  0  0  0  0
 36 77  2  0  0  0  0
 37 62  1  0  0  0  0
 37 67  1  0  0  0  0
 37 78  2  0  0  0  0
 38 59  1  0  0  0  0
 38 71  1  0  0  0  0
 38 79  2  0  0  0  0
 39 63  1  0  0  0  0
 39 73  1  0  0  0  0
 39 80  2  0  0  0  0
 40 43  1  0  0  0  0
 41 50  1  0  0  0  0
 42 67  1  0  0  0  0
 43 45  1  0  0  0  0
 44 46  1  0  0  0  0
 44 47  1  0  0  0  0
 45 49  1  0  0  0  0
 46 51  1  0  0  0  0
 47 68  1  0  0  0  0
 48 51  1  0  0  0  0
 48 68  1  0  0  0  0
 49 72  1  0  0  0  0
 50 67  1  0  0  0  0
 51 66  1  0  0  0  0
 53 63  1  0  0  0  0
 54 64  1  0  0  0  0
 55 64  1  0  0  0  0
 56 64  1  0  0  0  0
 57 74  1  0  0  0  0
 59 60  1  0  0  0  0
 60 61  1  0  0  0  0
 61 82  1  0  0  0  0
 62 64  1  0  0  0  0
 62 73  1  0  0  0  0
 63 74  1  0  0  0  0
 65 66  1  0  0  0  0
M  CHG  1  74   1
M  ISO  4  36 100  58 100  61 101  82 101
M  END
> <Batch ID>
0102

> <Smiles>
CNC(C)C(=O)NC(C(=O)N1Cc2cc([101O:1][101CH2:1]CCC(=O)Nc3cc(C)c([100CH2:0][100C:0](=O)N4CCCC(n5nc(-c6ccc(Oc7ccc(F)cc7F)cc6)c(C(N)=O)c5N)C4)c(F)c3)ccc2CC1C(=O)NC1CCCc2ccccc21)C(C)(C)C

> <Shape>
0.192

> <Color>
0.195

> <Negative vol penalty>
0.000

$$$$

  -OEChem-04052301023D

 87 96  0     1  0  0  0  0  0999 V2000
  -18.6134  -33.8757   22.9887 C   0  0  0  0  0  0  0  0  0  0  0  0
  -19.8341  -33.8184   22.3237 C   0  0  0  0  0  0  0  0  0  0  0  0
  -22.7559   -9.7346   21.4718 C   0  0  0  0  0  0  0  0  0  0  0  0
  -24.0760  -10.6390   23.2819 C   0  0  0  0  0  0  0  0  0  0  0  0
  -18.2679  -32.8757   23.8967 C   0  0  0  0  0  0  0  0  0  0  0  0
  -20.7105  -32.7615   22.5673 C   0  0  0  0  0  0  0  0  0  0  0  0
  -25.6271  -28.7162   19.2842 C   0  0  0  0  0  0  0  0  0  0  0  0
  -22.2428   -8.7633   22.3314 C   0  0  0  0  0  0  0  0  0  0  0  0
  -23.5628   -9.6677   24.1415 C   0  0  0  0  0  0  0  0  0  0  0  0
  -26.9455  -28.2887   19.4353 C   0  0  0  0  0  0  0  0  0  0  0  0
  -23.2568   -5.8239   23.6565 C   0  0  0  0  0  0  0  0  0  0  0  0
  -23.1996   -4.5110   23.1892 C   0  0  0  0  0  0  0  0  0  0  0  0
  -28.9384  -21.1718   18.1921 C   0  0  0  0  0  0  0  0  0  0  0  0
  -26.2084  -26.5760   20.9658 C   0  0  0  0  0  0  0  0  0  0  0  0
  -28.8557  -20.3771   20.8649 C   0  0  0  0  0  0  0  0  0  0  0  0
  -20.8027   -4.5073   23.4930 C   0  0  0  0  0  0  0  0  0  0  0  0
  -23.6726  -10.6725   21.9471 C   0  0  0  0  0  0  0  0  0  0  0  0
  -29.9709  -21.5305   19.0586 C   0  0  0  0  0  0  0  0  0  0  0  0
  -24.9415  -11.4624   19.8799 C   0  0  0  0  0  0  0  0  0  0  0  0
  -19.1363  -31.8009   24.1443 C   0  0  0  0  0  0  0  0  0  0  0  0
  -24.5890  -28.0827   19.9824 C   0  0  0  0  0  0  0  0  0  0  0  0
  -20.3768  -31.7468   23.4804 C   0  0  0  0  0  0  0  0  0  0  0  0
  -24.8774  -26.9958   20.8199 C   0  0  0  0  0  0  0  0  0  0  0  0
  -27.8644  -20.4158   18.6620 C   0  0  0  0  0  0  0  0  0  0  0  0
  -29.9296  -21.1331   20.3950 C   0  0  0  0  0  0  0  0  0  0  0  0
  -22.6461   -8.7299   23.6662 C   0  0  0  0  0  0  0  0  0  0  0  0
  -27.2367  -27.2203   20.2784 C   0  0  0  0  0  0  0  0  0  0  0  0
  -22.0870   -6.4786   24.0422 C   0  0  0  0  0  0  0  0  0  0  0  0
  -27.8231  -20.0185   19.9984 C   0  0  0  0  0  0  0  0  0  0  0  0
  -21.9725   -3.8527   23.1073 C   0  0  0  0  0  0  0  0  0  0  0  0
  -20.8600   -5.8203   23.9604 C   0  0  0  0  0  0  0  0  0  0  0  0
  -24.2035  -11.6757   21.0596 C   0  0  0  0  0  0  0  0  0  0  0  0
  -25.2080  -12.7247   19.4086 C   0  0  0  0  0  0  0  0  0  0  0  0
  -31.0906  -22.3300   18.5368 C   0  0  0  0  0  0  0  0  0  0  0  0
  -25.3496  -10.2332   19.2649 C   0  0  0  0  0  0  0  0  0  0  0  0
  -22.4682  -28.9991   22.1655 C   0  0  0  0  0  0  0  0  0  0  0  0
  -21.2904  -26.0111   21.7102 C   0  0  0  0  0  0  0  0  0  0  0  0
  -21.8539  -22.7950   20.7171 C   0  0  0  0  0  0  0  0  0  0  0  0
  -26.9374  -17.8804   20.3891 C   0  0  0  0  0  0  0  0  0  0  0  0
  -18.7397  -30.7685   25.1697 C   0  0  0  0  0  0  0  0  0  0  0  0
  -23.1689  -28.5388   19.7879 C   0  0  0  0  0  0  0  0  0  0  0  0
  -23.7966  -26.2688   21.5762 C   0  0  0  0  0  0  0  0  0  0  0  0
  -19.5626  -29.4851   25.0918 C   0  0  0  0  0  0  0  0  0  0  0  0
  -23.3823  -17.2239   20.7954 C   0  0  0  0  0  0  0  0  0  0  0  0
  -21.0486  -29.8098   24.9779 C   0  0  0  0  0  0  0  0  0  0  0  0
  -23.3519  -15.6965   20.8422 C   0  0  0  0  0  0  0  0  0  0  0  0
  -31.4453  -25.9832   18.1757 C   0  0  0  0  0  0  0  0  0  0  0  0
  -24.6435  -17.7810   21.4496 C   0  0  0  0  0  0  0  0  0  0  0  0
  -32.0377  -24.5836   18.1200 C   0  0  0  0  0  0  0  0  0  0  0  0
  -29.8836  -24.4836   19.1860 C   0  0  0  0  0  0  0  0  0  0  0  0
  -25.8828  -15.6968   20.9238 C   0  0  0  0  0  0  0  0  0  0  0  0
  -21.3436  -30.6033   23.6993 C   0  0  1  0  0  0  0  0  0  0  0  0
  -22.2529  -28.1504   20.9444 C   0  0  1  0  0  0  0  0  0  0  0  0
  -30.4568  -25.8912   19.3405 C   0  0  2  0  0  0  0  0  0  0  0  0
  -24.6387  -15.1003   20.2449 C   0  0  1  0  0  0  0  0  0  0  0  0
  -26.7665  -20.0426   17.7213 C   0  0  0  0  0  0  0  0  0  0  0  0
  -31.0213  -21.5057   21.3444 C   0  0  0  0  0  0  0  0  0  0  0  0
  -20.7093  -20.5730   20.4943 C   0  0  0  0  0  0  0  0  0  0  0  0
  -21.4944  -25.6063   24.7276 C   0  0  0  0  0  0  0  0  0  0  0  0
  -21.2632  -23.1432   24.3425 C   0  0  0  0  0  0  0  0  0  0  0  0
  -19.4139  -24.6849   23.6897 C   0  0  0  0  0  0  0  0  0  0  0  0
  -22.2886  -22.7341   17.7903 C   0  0  0  0  0  0  0  0  0  0  0  0
  -29.3972  -26.9780   19.3144 C   0  0  0  0  0  0  0  0  0  1  0  0
  -21.5434  -24.6567   22.3272 C   0  0  1  0  0  0  0  0  0  0  0  0
  -21.0741  -21.8739   19.7963 C   0  0  2  0  0  0  0  0  0  0  0  0
  -20.9496  -24.5375   23.7591 C   0  0  0  0  0  0  0  0  0  0  0  0
  -24.0135  -12.9715   21.3217 N   0  0  0  0  0  0  0  0  0  0  0  0
  -24.6360  -13.5839   20.3002 N   0  0  0  0  0  0  0  0  0  0  0  0
  -30.9768  -23.7103   18.5993 N   0  0  0  0  0  0  0  0  0  0  0  0
  -22.4246  -26.7562   21.3578 N   0  0  0  0  0  0  0  0  0  0  0  0
  -25.8468  -17.1599   20.8872 N   0  0  0  0  0  0  0  0  0  0  0  0
  -25.8735  -13.1725   18.3228 N   0  0  0  0  0  0  0  0  0  0  0  0
  -26.5858   -9.6822   19.6288 N   0  0  0  0  0  0  0  0  0  0  0  0
  -21.3562  -29.7237   22.5502 N   0  0  0  0  0  0  0  0  0  0  0  0
  -21.0250  -23.6742   21.3815 N   0  0  0  0  0  0  0  0  0  0  0  0
  -21.8802  -21.5478   18.5860 N   0  3  0  0  0  0  0  0  0  0  0  0
  -32.0595  -21.7200   18.0885 O   0  0  0  0  0  0  0  0  0  0  0  0
  -24.6463   -9.6495   18.4057 O   0  0  0  0  0  0  0  0  0  0  0  0
  -23.5616  -28.9956   22.7187 O   0  0  0  0  0  0  0  0  0  0  0  0
  -20.1291  -26.3909   21.5405 O   0  0  0  0  0  0  0  0  0  0  0  0
  -23.0756  -22.7378   20.8380 O   0  0  0  0  0  0  0  0  0  0  0  0
  -27.9496  -17.3647   19.9160 O   0  0  0  0  0  0  0  0  0  0  0  0
  -22.1454   -7.7824   24.5053 O   0  0  0  0  0  0  0  0  0  0  0  0
  -26.7527  -19.2624   20.4868 O   0  0  0  0  0  0  0  0  0  0  0  0
  -28.5227  -26.8014   20.4282 O   0  0  0  0  0  0  0  0  0  1  0  0
  -21.9175   -2.5924   22.6570 F   0  0  0  0  0  0  0  0  0  0  0  0
  -19.7326   -6.4445   24.3283 F   0  0  0  0  0  0  0  0  0  0  0  0
  1  2  1  0  0  0  0
  1  5  2  0  0  0  0
  2  6  2  0  0  0  0
  3  8  2  0  0  0  0
  3 17  1  0  0  0  0
  4  9  1  0  0  0  0
  4 17  2  0  0  0  0
  5 20  1  0  0  0  0
  6 22  1  0  0  0  0
  7 10  2  0  0  0  0
  7 21  1  0  0  0  0
  8 26  1  0  0  0  0
  9 26  2  0  0  0  0
 10 27  1  0  0  0  0
 11 12  2  0  0  0  0
 11 28  1  0  0  0  0
 12 30  1  0  0  0  0
 13 18  1  0  0  0  0
 13 24  2  0  0  0  0
 14 23  1  0  0  0  0
 14 27  2  0  0  0  0
 15 25  1  0  0  0  0
 15 29  2  0  0  0  0
 16 30  2  0  0  0  0
 16 31  1  0  0  0  0
 17 32  1  0  0  0  0
 18 25  2  0  0  0  0
 18 34  1  0  0  0  0
 19 32  1  0  0  0  0
 19 33  2  0  0  0  0
 19 35  1  0  0  0  0
 20 22  2  0  0  0  0
 20 40  1  0  0  0  0
 21 23  2  0  0  0  0
 21 41  1  0  0  0  0
 22 52  1  0  0  0  0
 23 42  1  0  0  0  0
 24 29  1  0  0  0  0
 24 56  1  0  0  0  0
 25 57  1  0  0  0  0
 26 83  1  0  0  0  0
 27 85  1  0  0  0  0
 28 31  2  0  0  0  0
 28 83  1  0  0  0  0
 29 84  1  0  0  0  0
 30 86  1  0  0  0  0
 31 87  1  0  0  0  0
 32 67  2  0  0  0  0
 33 68  1  0  0  0  0
 33 72  1  0  0  0  0
 34 69  1  0  0  0  0
 34 77  2  0  0  0  0
 35 73  1  0  0  0  0
 35 78  2  0  0  0  0
 36 53  1  0  0  0  0
 36 74  1  0  0  0  0
 36 79  2  0  0  0  0
 37 64  1  0  0  0  0
 37 70  1  0  0  0  0
 37 80  2  0  0  0  0
 38 65  1  0  0  0  0
 38 75  1  0  0  0  0
 38 81  2  0  0  0  0
 39 71  1  0  0  0  0
 39 82  2  0  0  0  0
 39 84  1  0  0  0  0
 40 43  1  0  0  0  0
 41 53  1  0  0  0  0
 42 70  1  0  0  0  0
 43 45  1  0  0  0  0
 44 46  1  0  0  0  0
 44 48  1  0  0  0  0
 45 52  1  0  0  0  0
 46 55  1  0  0  0  0
 47 49  1  0  0  0  0
 47 54  1  0  0  0  0
 48 71  1  0  0  0  0
 49 69  1  0  0  0  0
 50 54  1  0  0  0  0
 50 69  1  0  0  0  0
 51 55  1  0  0  0  0
 51 71  1  0  0  0  0
 52 74  1  0  0  0  0
 53 70  1  0  0  0  0
 54 63  1  0  0  0  0
 55 68  1  0  0  0  0
 58 65  1  0  0  0  0
 59 66  1  0  0  0  0
 60 66  1  0  0  0  0
 61 66  1  0  0  0  0
 62 76  1  0  0  0  0
 63 85  1  0  0  0  0
 64 66  1  0  0  0  0
 64 75  1  0  0  0  0
 65 76  1  0  0  0  0
 67 68  1  0  0  0  0
M  CHG  1  76   1
M  ISO  4  39 100  63 101  84 100  85 101
M  END
> <Batch ID>
0102

> <Smiles>
CNC(C)C(=O)NC(C(=O)N1Cc2cc([101O:1][101CH2:1]C3CCN(C(=O)c4cc(C)c([100O:0][100C:0](=O)N5CCCC(n6nc(-c7ccc(Oc8ccc(F)cc8F)cc7)c(C(N)=O)c6N)C5)cc4C)C3)ccc2CC1C(=O)NC1CCCc2ccccc21)C(C)(C)C

> <Shape>
0.247

> <Color>
0.090

> <Negative vol penalty>
0.000

$$$$

  -OEChem-04052301023D

 88 97  0     1  0  0  0  0  0999 V2000
  -18.7400   -9.6554   20.2732 C   0  0  0  0  0  0  0  0  0  0  0  0
  -19.5538  -10.2423   21.2369 C   0  0  0  0  0  0  0  0  0  0  0  0
  -29.4091  -18.6593   29.0703 C   0  0  0  0  0  0  0  0  0  0  0  0
  -26.3532  -28.0661   18.9535 C   0  0  0  0  0  0  0  0  0  0  0  0
  -26.1719  -27.5431   21.3052 C   0  0  0  0  0  0  0  0  0  0  0  0
  -28.1657  -18.3771   29.6358 C   0  0  0  0  0  0  0  0  0  0  0  0
  -19.3127   -8.9856   19.1928 C   0  0  0  0  0  0  0  0  0  0  0  0
  -20.9409  -10.1587   21.1213 C   0  0  0  0  0  0  0  0  0  0  0  0
  -23.2374  -14.5757   22.0495 C   0  0  0  0  0  0  0  0  0  0  0  0
  -29.4842  -19.3386   27.8542 C   0  0  0  0  0  0  0  0  0  0  0  0
  -25.2642  -28.9309   19.0618 C   0  0  0  0  0  0  0  0  0  0  0  0
  -25.0829  -28.4079   21.4136 C   0  0  0  0  0  0  0  0  0  0  0  0
  -23.3785  -14.9517   23.3846 C   0  0  0  0  0  0  0  0  0  0  0  0
  -24.5638  -31.7384   21.6564 C   0  0  0  0  0  0  0  0  0  0  0  0
  -24.5360  -32.6098   22.7452 C   0  0  0  0  0  0  0  0  0  0  0  0
  -27.0725  -19.4534   27.7694 C   0  0  0  0  0  0  0  0  0  0  0  0
  -25.6675  -14.1912   23.3505 C   0  0  0  0  0  0  0  0  0  0  0  0
  -22.4551  -31.6260   23.4795 C   0  0  0  0  0  0  0  0  0  0  0  0
  -26.8070  -27.3721   20.0752 C   0  0  0  0  0  0  0  0  0  0  0  0
  -26.9974  -18.7742   28.9854 C   0  0  0  0  0  0  0  0  0  0  0  0
  -29.2404  -26.8046   19.5611 C   0  0  0  0  0  0  0  0  0  0  0  0
  -20.7076   -8.9020   19.0588 C   0  0  0  0  0  0  0  0  0  0  0  0
  -24.3088  -13.9935   21.3569 C   0  0  0  0  0  0  0  0  0  0  0  0
  -21.5328   -9.4859   20.0388 C   0  0  0  0  0  0  0  0  0  0  0  0
  -25.5382  -13.8110   22.0059 C   0  0  0  0  0  0  0  0  0  0  0  0
  -28.3159  -19.7356   27.2038 C   0  0  0  0  0  0  0  0  0  0  0  0
  -24.6291  -29.1019   20.2919 C   0  0  0  0  0  0  0  0  0  0  0  0
  -24.5928  -14.7569   24.0361 C   0  0  0  0  0  0  0  0  0  0  0  0
  -23.5372  -30.8108   21.4791 C   0  0  0  0  0  0  0  0  0  0  0  0
  -23.4817  -32.5536   23.6568 C   0  0  0  0  0  0  0  0  0  0  0  0
  -22.4829  -30.7546   22.3907 C   0  0  0  0  0  0  0  0  0  0  0  0
  -27.9316  -26.4782   19.9637 C   0  0  0  0  0  0  0  0  0  0  0  0
  -29.9251  -25.6155   19.6222 C   0  0  0  0  0  0  0  0  0  0  0  0
  -25.6864  -18.4759   29.5833 C   0  0  0  0  0  0  0  0  0  0  0  0
  -29.7884  -28.0696   19.1672 C   0  0  0  0  0  0  0  0  0  0  0  0
  -24.8123  -11.1862   19.9537 C   0  0  0  0  0  0  0  0  0  0  0  0
  -28.9871  -20.6041   22.8029 C   0  0  0  0  0  0  0  0  0  0  0  0
  -27.5766  -12.5948   19.0069 C   0  0  0  0  0  0  0  0  0  0  0  0
  -29.5394  -20.7855   25.2704 C   0  0  0  0  0  0  0  0  0  0  0  0
  -29.9423  -14.9927   19.5553 C   0  0  0  0  0  0  0  0  0  0  0  0
  -21.2803   -8.1268   17.8988 C   0  0  0  0  0  0  0  0  0  0  0  0
  -24.1485  -13.6179   19.9093 C   0  0  0  0  0  0  0  0  0  0  0  0
  -26.7253  -13.2088   21.3012 C   0  0  0  0  0  0  0  0  0  0  0  0
  -22.7605   -8.4058   17.6512 C   0  0  0  0  0  0  0  0  0  0  0  0
  -29.2897  -20.8962   19.2444 C   0  0  0  0  0  0  0  0  0  0  0  0
  -23.5386   -8.3617   18.9625 C   0  0  0  0  0  0  0  0  0  0  0  0
  -29.0664  -22.3857   18.9863 C   0  0  0  0  0  0  0  0  0  0  0  0
  -22.7924  -16.6589   28.1955 C   0  0  0  0  0  0  0  0  0  0  0  0
  -28.4321  -20.3955   20.4024 C   0  0  0  0  0  0  0  0  0  0  0  0
  -23.4970  -17.3325   29.3630 C   0  0  0  0  0  0  0  0  0  0  0  0
  -25.0580  -17.0622   27.5528 C   0  0  0  0  0  0  0  0  0  0  0  0
  -28.3943  -22.6524   21.4157 C   0  0  0  0  0  0  0  0  0  0  0  0
  -23.0418   -9.4380   19.9352 C   0  0  1  0  0  0  0  0  0  0  0  0
  -25.1496  -12.5616   19.4517 C   0  0  1  0  0  0  0  0  0  0  0  0
  -23.9473  -16.0218   27.4193 C   0  0  2  0  0  0  0  0  0  0  0  0
  -29.2646  -23.2057   20.2734 C   0  0  2  0  0  0  0  0  0  0  0  0
  -31.9677  -16.4083   19.1185 C   0  0  0  0  0  0  0  0  0  0  0  0
  -29.0552  -10.2054   20.1961 C   0  0  0  0  0  0  0  0  0  0  0  0
  -31.1622  -11.5550   20.1101 C   0  0  0  0  0  0  0  0  0  0  0  0
  -29.9518  -10.9997   18.0008 C   0  0  0  0  0  0  0  0  0  0  0  0
  -28.3682  -16.9775   18.0250 C   0  0  0  0  0  0  0  0  0  0  0  0
  -29.1793  -21.5127   23.9910 C   0  0  0  0  0  0  0  0  0  0  0  0
  -23.5951  -15.6998   25.9781 C   0  0  0  0  0  0  0  0  0  1  0  0
  -28.9682  -12.7112   19.5804 C   0  0  1  0  0  0  0  0  0  0  0  0
  -30.5884  -16.0020   18.6235 C   0  0  2  0  0  0  0  0  0  0  0  0
  -29.7616  -11.3774   19.4860 C   0  0  0  0  0  0  0  0  0  0  0  0
  -27.7907  -25.1831   20.2586 N   0  0  0  0  0  0  0  0  0  0  0  0
  -29.0199  -24.6853   20.0410 N   0  0  0  0  0  0  0  0  0  0  0  0
  -24.8105  -17.6911   28.8491 N   0  0  0  0  0  0  0  0  0  0  0  0
  -26.5168  -12.8521   19.8881 N   0  0  0  0  0  0  0  0  0  0  0  0
  -28.6322  -21.2140   21.5996 N   0  0  0  0  0  0  0  0  0  0  0  0
  -31.2071  -25.2853   19.3578 N   0  0  0  0  0  0  0  0  0  0  0  0
  -30.3457  -28.8931   20.1549 N   0  0  0  0  0  0  0  0  0  0  0  0
  -28.3913  -20.4153   25.9876 N   0  0  0  0  0  0  0  0  0  0  0  0
  -23.5655  -10.7352   19.5642 N   0  0  0  0  0  0  0  0  0  0  0  0
  -29.6003  -13.8324   18.8935 N   0  0  0  0  0  0  0  0  0  0  0  0
  -29.7457  -17.2270   18.5223 N   0  3  0  0  0  0  0  0  0  0  0  0
  -25.4578  -18.9345   30.7009 O   0  0  0  0  0  0  0  0  0  0  0  0
  -29.7691  -28.4654   17.9770 O   0  0  0  0  0  0  0  0  0  0  0  0
  -25.6237  -10.5785   20.6421 O   0  0  0  0  0  0  0  0  0  0  0  0
  -29.1507  -19.3891   22.9416 O   0  0  0  0  0  0  0  0  0  0  0  0
  -27.4353  -12.2939   17.8190 O   0  0  0  0  0  0  0  0  0  0  0  0
  -30.7060  -20.5762   25.5869 O   0  0  0  0  0  0  0  0  0  0  0  0
  -29.7625  -15.2102   20.7515 O   0  0  0  0  0  0  0  0  0  0  0  0
  -23.5666  -29.9459   20.3980 O   0  0  0  0  0  0  0  0  0  0  0  0
  -24.7331  -15.1224   25.3394 O   0  0  0  0  0  0  0  0  0  1  0  0
  -23.4560  -33.3894   24.7032 F   0  0  0  0  0  0  0  0  0  0  0  0
  -21.4944  -29.8648   22.2262 F   0  0  0  0  0  0  0  0  0  0  0  0
  1  2  1  0  0  0  0
  1  7  2  0  0  0  0
  2  8  2  0  0  0  0
  3  6  2  0  0  0  0
  3 10  1  0  0  0  0
  4 11  2  0  0  0  0
  4 19  1  0  0  0  0
  5 12  1  0  0  0  0
  5 19  2  0  0  0  0
  6 20  1  0  0  0  0
  7 22  1  0  0  0  0
  8 24  1  0  0  0  0
  9 13  2  0  0  0  0
  9 23  1  0  0  0  0
 10 26  2  0  0  0  0
 11 27  1  0  0  0  0
 12 27  2  0  0  0  0
 13 28  1  0  0  0  0
 14 15  2  0  0  0  0
 14 29  1  0  0  0  0
 15 30  1  0  0  0  0
 16 20  2  0  0  0  0
 16 26  1  0  0  0  0
 17 25  1  0  0  0  0
 17 28  2  0  0  0  0
 18 30  2  0  0  0  0
 18 31  1  0  0  0  0
 19 32  1  0  0  0  0
 20 34  1  0  0  0  0
 21 32  1  0  0  0  0
 21 33  2  0  0  0  0
 21 35  1  0  0  0  0
 22 24  2  0  0  0  0
 22 41  1  0  0  0  0
 23 25  2  0  0  0  0
 23 42  1  0  0  0  0
 24 53  1  0  0  0  0
 25 43  1  0  0  0  0
 26 74  1  0  0  0  0
 27 85  1  0  0  0  0
 28 86  1  0  0  0  0
 29 31  2  0  0  0  0
 29 85  1  0  0  0  0
 30 87  1  0  0  0  0
 31 88  1  0  0  0  0
 32 67  2  0  0  0  0
 33 68  1  0  0  0  0
 33 72  1  0  0  0  0
 34 69  1  0  0  0  0
 34 78  2  0  0  0  0
 35 73  1  0  0  0  0
 35 79  2  0  0  0  0
 36 54  1  0  0  0  0
 36 75  1  0  0  0  0
 36 80  2  0  0  0  0
 37 62  1  0  0  0  0
 37 71  1  0  0  0  0
 37 81  2  0  0  0  0
 38 64  1  0  0  0  0
 38 70  1  0  0  0  0
 38 82  2  0  0  0  0
 39 62  1  0  0  0  0
 39 74  1  0  0  0  0
 39 83  2  0  0  0  0
 40 65  1  0  0  0  0
 40 76  1  0  0  0  0
 40 84  2  0  0  0  0
 41 44  1  0  0  0  0
 42 54  1  0  0  0  0
 43 70  1  0  0  0  0
 44 46  1  0  0  0  0
 45 47  1  0  0  0  0
 45 49  1  0  0  0  0
 46 53  1  0  0  0  0
 47 56  1  0  0  0  0
 48 50  1  0  0  0  0
 48 55  1  0  0  0  0
 49 71  1  0  0  0  0
 50 69  1  0  0  0  0
 51 55  1  0  0  0  0
 51 69  1  0  0  0  0
 52 56  1  0  0  0  0
 52 71  1  0  0  0  0
 53 75  1  0  0  0  0
 54 70  1  0  0  0  0
 55 63  1  0  0  0  0
 56 68  1  0  0  0  0
 57 65  1  0  0  0  0
 58 66  1  0  0  0  0
 59 66  1  0  0  0  0
 60 66  1  0  0  0  0
 61 77  1  0  0  0  0
 63 86  1  0  0  0  0
 64 66  1  0  0  0  0
 64 76  1  0  0  0  0
 65 77  1  0  0  0  0
 67 68  1  0  0  0  0
M  CHG  1  77   1
M  ISO  4  37 100  62 100  63 101  86 101
M  END
> <Batch ID>
0102

> <Smiles>
CNC(C)C(=O)NC(C(=O)N1Cc2cc([101O:1][101CH2:1]C3CCN(C(=O)c4cccc(NC(=O)[100CH2:0][100C:0](=O)N5CCCC(n6nc(-c7ccc(Oc8ccc(F)cc8F)cc7)c(C(N)=O)c6N)C5)c4)C3)ccc2CC1C(=O)NC1CCCc2ccccc21)C(C)(C)C

> <Shape>
0.244

> <Color>
0.048

> <Negative vol penalty>
0.000

$$$$

  -OEChem-04052301023D

 86 94  0     1  0  0  0  0  0999 V2000
  -28.7540  -31.2480   26.6915 C   0  0  0  0  0  0  0  0  0  0  0  0
  -28.6472  -29.9921   26.1027 C   0  0  0  0  0  0  0  0  0  0  0  0
  -26.4343  -14.0350   19.9969 C   0  0  0  0  0  0  0  0  0  0  0  0
  -26.0341  -13.3715   22.2853 C   0  0  0  0  0  0  0  0  0  0  0  0
  -27.7007  -32.1559   26.5904 C   0  0  0  0  0  0  0  0  0  0  0  0
  -27.4865  -29.6430   25.4133 C   0  0  0  0  0  0  0  0  0  0  0  0
  -28.4611  -27.3671   20.9957 C   0  0  0  0  0  0  0  0  0  0  0  0
  -26.0619  -12.7628   19.5629 C   0  0  0  0  0  0  0  0  0  0  0  0
  -25.6616  -12.0992   21.8513 C   0  0  0  0  0  0  0  0  0  0  0  0
  -28.8306  -26.0235   21.0395 C   0  0  0  0  0  0  0  0  0  0  0  0
  -22.9425  -10.6339   20.4804 C   0  0  0  0  0  0  0  0  0  0  0  0
  -21.7949  -10.0706   21.0383 C   0  0  0  0  0  0  0  0  0  0  0  0
  -30.3686  -19.2713   20.0552 C   0  0  0  0  0  0  0  0  0  0  0  0
  -26.5794  -25.3913   20.4462 C   0  0  0  0  0  0  0  0  0  0  0  0
  -29.4666  -17.1507   18.4828 C   0  0  0  0  0  0  0  0  0  0  0  0
  -23.1088   -8.2248   21.8773 C   0  0  0  0  0  0  0  0  0  0  0  0
  -26.4205  -14.3393   21.3582 C   0  0  0  0  0  0  0  0  0  0  0  0
  -29.0652  -19.2765   19.5586 C   0  0  0  0  0  0  0  0  0  0  0  0
  -25.9677  -16.7704   21.9848 C   0  0  0  0  0  0  0  0  0  0  0  0
  -26.5304  -31.8213   25.8912 C   0  0  0  0  0  0  0  0  0  0  0  0
  -27.1431  -27.7331   20.6869 C   0  0  0  0  0  0  0  0  0  0  0  0
  -26.4160  -30.5468   25.3039 C   0  0  0  0  0  0  0  0  0  0  0  0
  -26.1964  -26.7403   20.3966 C   0  0  0  0  0  0  0  0  0  0  0  0
  -31.2211  -18.2059   19.7655 C   0  0  0  0  0  0  0  0  0  0  0  0
  -28.6142  -18.2162   18.7724 C   0  0  0  0  0  0  0  0  0  0  0  0
  -25.6755  -11.7949   20.4901 C   0  0  0  0  0  0  0  0  0  0  0  0
  -27.8890  -25.0352   20.7676 C   0  0  0  0  0  0  0  0  0  0  0  0
  -24.1732   -9.9926   20.6208 C   0  0  0  0  0  0  0  0  0  0  0  0
  -30.7701  -17.1456   18.9793 C   0  0  0  0  0  0  0  0  0  0  0  0
  -21.8780   -8.8661   21.7368 C   0  0  0  0  0  0  0  0  0  0  0  0
  -24.2564   -8.7881   21.3193 C   0  0  0  0  0  0  0  0  0  0  0  0
  -26.8056  -15.6531   21.8072 C   0  0  0  0  0  0  0  0  0  0  0  0
  -26.8090  -17.7646   22.4211 C   0  0  0  0  0  0  0  0  0  0  0  0
  -28.1949  -20.4187   19.8843 C   0  0  0  0  0  0  0  0  0  0  0  0
  -28.4542  -21.7004   19.5820 C   0  0  0  0  0  0  0  0  0  0  0  0
  -24.5553  -16.8980   21.7743 C   0  0  0  0  0  0  0  0  0  0  0  0
  -24.8244  -29.2727   22.2222 C   0  0  0  0  0  0  0  0  0  0  0  0
  -23.2985  -29.0162   19.3713 C   0  0  0  0  0  0  0  0  0  0  0  0
  -22.9577  -27.3611   16.4062 C   0  0  0  0  0  0  0  0  0  0  0  0
  -32.8633  -18.2554   21.6607 C   0  0  0  0  0  0  0  0  0  0  0  0
  -25.3996  -32.8184   25.8492 C   0  0  0  0  0  0  0  0  0  0  0  0
  -26.7670  -29.1878   20.6175 C   0  0  0  0  0  0  0  0  0  0  0  0
  -24.7734  -27.0815   20.0400 C   0  0  0  0  0  0  0  0  0  0  0  0
  -24.3534  -32.5083   24.7817 C   0  0  0  0  0  0  0  0  0  0  0  0
  -30.9003  -18.4688   24.7903 C   0  0  0  0  0  0  0  0  0  0  0  0
  -23.9711  -31.0321   24.8219 C   0  0  0  0  0  0  0  0  0  0  0  0
  -29.5859  -17.7877   24.4134 C   0  0  0  0  0  0  0  0  0  0  0  0
  -32.0732  -17.9231   23.9814 C   0  0  0  0  0  0  0  0  0  0  0  0
  -30.5473  -17.3167   22.1253 C   0  0  0  0  0  0  0  0  0  0  0  0
  -25.1829  -30.1401   24.5266 C   0  0  1  0  0  0  0  0  0  0  0  0
  -25.2710  -29.4274   20.7959 C   0  0  1  0  0  0  0  0  0  0  0  0
  -29.3437  -17.8773   22.8977 C   0  0  1  0  0  0  0  0  0  0  0  0
  -34.9324  -20.1877   17.9984 C   0  0  0  0  0  0  0  0  0  0  0  0
  -21.6004  -27.3600   14.2955 C   0  0  0  0  0  0  0  0  0  0  0  0
  -20.9633  -27.7549   20.8765 C   0  0  0  0  0  0  0  0  0  0  0  0
  -20.0859  -26.9284   18.6821 C   0  0  0  0  0  0  0  0  0  0  0  0
  -20.3002  -29.3793   19.0943 C   0  0  0  0  0  0  0  0  0  0  0  0
  -25.3486  -27.8471   14.7310 C   0  0  0  0  0  0  0  0  0  0  0  0
  -31.5783  -14.9935   19.5884 C   0  0  0  0  0  0  0  0  0  0  0  0
  -27.5449  -22.8299   19.9466 C   0  0  0  0  0  0  0  0  0  1  0  0
  -33.8112  -19.9312   18.9958 C   0  0  0  0  0  0  0  0  0  0  0  0
  -33.6610  -18.4558   19.3466 C   0  0  0  0  0  0  0  0  0  0  0  0
  -22.3857  -27.9958   18.7353 C   0  0  1  0  0  0  0  0  0  0  0  0
  -22.8630  -27.8640   14.9770 C   0  0  2  0  0  0  0  0  0  0  0  0
  -20.9600  -28.0078   19.3556 C   0  0  0  0  0  0  0  0  0  0  0  0
  -28.0813  -15.9126   22.1060 N   0  0  0  0  0  0  0  0  0  0  0  0
  -28.0513  -17.2043   22.4758 N   0  0  0  0  0  0  0  0  0  0  0  0
  -24.4530  -28.5176   19.9913 N   0  0  0  0  0  0  0  0  0  0  0  0
  -31.8041  -17.9592   22.5430 N   0  0  0  0  0  0  0  0  0  0  0  0
  -27.2987  -18.1957   18.2557 N   0  0  0  0  0  0  0  0  0  0  0  0
  -26.5999  -19.0546   22.7593 N   0  0  0  0  0  0  0  0  0  0  0  0
  -23.8429  -15.7781   21.3242 N   0  0  0  0  0  0  0  0  0  0  0  0
  -25.4625  -30.1213   23.1067 N   0  0  0  0  0  0  0  0  0  0  0  0
  -22.4153  -28.2595   17.3007 N   0  0  0  0  0  0  0  0  0  0  0  0
  -32.5668  -18.2160   20.2850 N   0  0  0  0  0  0  0  0  0  0  0  0
  -24.0395  -27.4031   14.1868 N   0  3  0  0  0  0  0  0  0  0  0  0
  -23.9457  -17.9779   21.9636 O   0  0  0  0  0  0  0  0  0  0  0  0
  -23.9636  -28.4458   22.4995 O   0  0  0  0  0  0  0  0  0  0  0  0
  -23.0019  -30.2121   19.3136 O   0  0  0  0  0  0  0  0  0  0  0  0
  -23.4589  -26.2779   16.6994 O   0  0  0  0  0  0  0  0  0  0  0  0
  -34.0090  -18.4848   22.0674 O   0  0  0  0  0  0  0  0  0  0  0  0
  -25.3118  -10.5535   20.0669 O   0  0  0  0  0  0  0  0  0  0  0  0
  -31.5885  -16.0961   18.6845 O   0  0  0  0  0  0  0  0  0  0  0  0
  -28.2468  -23.7230   20.8103 O   0  0  0  0  0  0  0  0  0  1  0  0
  -20.7761   -8.3261   22.2739 F   0  0  0  0  0  0  0  0  0  0  0  0
  -25.4361   -8.1679   21.4585 F   0  0  0  0  0  0  0  0  0  0  0  0
  1  2  1  0  0  0  0
  1  5  2  0  0  0  0
  2  6  2  0  0  0  0
  3  8  2  0  0  0  0
  3 17  1  0  0  0  0
  4  9  1  0  0  0  0
  4 17  2  0  0  0  0
  5 20  1  0  0  0  0
  6 22  1  0  0  0  0
  7 10  2  0  0  0  0
  7 21  1  0  0  0  0
  8 26  1  0  0  0  0
  9 26  2  0  0  0  0
 10 27  1  0  0  0  0
 11 12  2  0  0  0  0
 11 28  1  0  0  0  0
 12 30  1  0  0  0  0
 13 18  2  0  0  0  0
 13 24  1  0  0  0  0
 14 23  1  0  0  0  0
 14 27  2  0  0  0  0
 15 25  2  0  0  0  0
 15 29  1  0  0  0  0
 16 30  2  0  0  0  0
 16 31  1  0  0  0  0
 17 32  1  0  0  0  0
 18 25  1  0  0  0  0
 18 34  1  0  0  0  0
 19 32  1  0  0  0  0
 19 33  2  0  0  0  0
 19 36  1  0  0  0  0
 20 22  2  0  0  0  0
 20 41  1  0  0  0  0
 21 23  2  0  0  0  0
 21 42  1  0  0  0  0
 22 50  1  0  0  0  0
 23 43  1  0  0  0  0
 24 29  2  0  0  0  0
 24 75  1  0  0  0  0
 25 70  1  0  0  0  0
 26 82  1  0  0  0  0
 27 84  1  0  0  0  0
 28 31  2  0  0  0  0
 28 82  1  0  0  0  0
 29 83  1  0  0  0  0
 30 85  1  0  0  0  0
 31 86  1  0  0  0  0
 32 66  2  0  0  0  0
 33 67  1  0  0  0  0
 33 71  1  0  0  0  0
 34 35  2  0  0  0  0
 35 60  1  0  0  0  0
 36 72  1  0  0  0  0
 36 77  2  0  0  0  0
 37 51  1  0  0  0  0
 37 73  1  0  0  0  0
 37 78  2  0  0  0  0
 38 63  1  0  0  0  0
 38 68  1  0  0  0  0
 38 79  2  0  0  0  0
 39 64  1  0  0  0  0
 39 74  1  0  0  0  0
 39 80  2  0  0  0  0
 40 69  1  0  0  0  0
 40 75  1  0  0  0  0
 40 81  2  0  0  0  0
 41 44  1  0  0  0  0
 42 51  1  0  0  0  0
 43 68  1  0  0  0  0
 44 46  1  0  0  0  0
 45 47  1  0  0  0  0
 45 48  1  0  0  0  0
 46 50  1  0  0  0  0
 47 52  1  0  0  0  0
 48 69  1  0  0  0  0
 49 52  1  0  0  0  0
 49 69  1  0  0  0  0
 50 73  1  0  0  0  0
 51 68  1  0  0  0  0
 52 67  1  0  0  0  0
 53 61  1  0  0  0  0
 54 64  1  0  0  0  0
 55 65  1  0  0  0  0
 56 65  1  0  0  0  0
 57 65  1  0  0  0  0
 58 76  1  0  0  0  0
 59 83  1  0  0  0  0
 60 84  1  0  0  0  0
 61 62  1  0  0  0  0
 62 75  1  0  0  0  0
 63 65  1  0  0  0  0
 63 74  1  0  0  0  0
 64 76  1  0  0  0  0
 66 67  1  0  0  0  0
M  CHG  1  76   1
M  ISO  4  40 100  60 101  75 100  84 101
M  END
> <Batch ID>
0102

> <Smiles>
CCC[100N:0](c1cc(C=C[101CH2:1][101O:1]c2ccc3c(c2)CN(C(=O)C(NC(=O)C(C)NC)C(C)(C)C)C(C(=O)NC2CCCc4ccccc42)C3)c(N)cc1OC)[100C:0](=O)N1CCCC(n2nc(-c3ccc(Oc4ccc(F)cc4F)cc3)c(C(N)=O)c2N)C1

> <Shape>
0.255

> <Color>
0.051

> <Negative vol penalty>
0.000

$$$$

  -OEChem-04052301023D

 85 93  0     1  0  0  0  0  0999 V2000
  -30.3907  -35.6711   24.4397 C   0  0  0  0  0  0  0  0  0  0  0  0
  -30.0839  -34.5488   23.6769 C   0  0  0  0  0  0  0  0  0  0  0  0
  -23.2100  -10.4062   21.0069 C   0  0  0  0  0  0  0  0  0  0  0  0
  -24.7101   -8.9449   22.2115 C   0  0  0  0  0  0  0  0  0  0  0  0
  -29.5695  -36.0330   25.5068 C   0  0  0  0  0  0  0  0  0  0  0  0
  -28.9563  -33.7871   23.9814 C   0  0  0  0  0  0  0  0  0  0  0  0
  -25.3100  -30.8633   20.0240 C   0  0  0  0  0  0  0  0  0  0  0  0
  -22.3185   -9.3477   20.8329 C   0  0  0  0  0  0  0  0  0  0  0  0
  -23.8187   -7.8863   22.0375 C   0  0  0  0  0  0  0  0  0  0  0  0
  -25.2481  -29.5327   19.6126 C   0  0  0  0  0  0  0  0  0  0  0  0
  -20.9336   -6.8076   23.4279 C   0  0  0  0  0  0  0  0  0  0  0  0
  -20.6657   -5.9997   24.5330 C   0  0  0  0  0  0  0  0  0  0  0  0
  -23.5139  -29.1173   21.2371 C   0  0  0  0  0  0  0  0  0  0  0  0
  -27.2818  -20.3022   18.5883 C   0  0  0  0  0  0  0  0  0  0  0  0
  -29.4971  -19.4220   20.0376 C   0  0  0  0  0  0  0  0  0  0  0  0
  -21.5046   -4.0786   23.3318 C   0  0  0  0  0  0  0  0  0  0  0  0
  -24.4058  -10.2049   21.6961 C   0  0  0  0  0  0  0  0  0  0  0  0
  -25.3620  -12.2138   22.9441 C   0  0  0  0  0  0  0  0  0  0  0  0
  -28.4259  -35.2809   25.8185 C   0  0  0  0  0  0  0  0  0  0  0  0
  -24.4805  -31.3291   21.0543 C   0  0  0  0  0  0  0  0  0  0  0  0
  -28.1198  -34.1386   25.0545 C   0  0  0  0  0  0  0  0  0  0  0  0
  -23.5653  -30.4549   21.6580 C   0  0  0  0  0  0  0  0  0  0  0  0
  -27.4798  -18.9377   18.7994 C   0  0  0  0  0  0  0  0  0  0  0  0
  -28.5874  -18.4976   19.5240 C   0  0  0  0  0  0  0  0  0  0  0  0
  -22.6228   -8.0877   21.3482 C   0  0  0  0  0  0  0  0  0  0  0  0
  -24.3520  -28.6587   20.2211 C   0  0  0  0  0  0  0  0  0  0  0  0
  -21.4869   -6.2510   22.2748 C   0  0  0  0  0  0  0  0  0  0  0  0
  -28.1915  -21.2266   19.1018 C   0  0  0  0  0  0  0  0  0  0  0  0
  -20.9512   -4.6352   24.4849 C   0  0  0  0  0  0  0  0  0  0  0  0
  -29.2992  -20.7865   19.8265 C   0  0  0  0  0  0  0  0  0  0  0  0
  -21.7724   -4.8865   22.2267 C   0  0  0  0  0  0  0  0  0  0  0  0
  -25.3274  -11.2978   21.8757 C   0  0  0  0  0  0  0  0  0  0  0  0
  -26.4128  -13.0472   22.6481 C   0  0  0  0  0  0  0  0  0  0  0  0
  -24.5196  -12.3033   24.1009 C   0  0  0  0  0  0  0  0  0  0  0  0
  -24.9687  -32.5608   23.9436 C   0  0  0  0  0  0  0  0  0  0  0  0
  -21.7540  -32.9895   23.8769 C   0  0  0  0  0  0  0  0  0  0  0  0
  -18.7308  -32.0438   22.6069 C   0  0  0  0  0  0  0  0  0  0  0  0
  -28.9768  -16.1889   18.6794 C   0  0  0  0  0  0  0  0  0  0  0  0
  -27.5947  -35.6841   27.0107 C   0  0  0  0  0  0  0  0  0  0  0  0
  -24.5406  -32.7739   21.4683 C   0  0  0  0  0  0  0  0  0  0  0  0
  -22.6388  -30.9103   22.7547 C   0  0  0  0  0  0  0  0  0  0  0  0
  -26.2114  -35.0390   27.0349 C   0  0  0  0  0  0  0  0  0  0  0  0
  -30.0388  -12.6878   19.1528 C   0  0  0  0  0  0  0  0  0  0  0  0
  -26.3131  -33.5464   26.7370 C   0  0  0  0  0  0  0  0  0  0  0  0
  -28.8746  -12.0815   19.9344 C   0  0  0  0  0  0  0  0  0  0  0  0
  -29.5809  -13.8259   18.2456 C   0  0  0  0  0  0  0  0  0  0  0  0
  -27.6639  -14.2912   19.7420 C   0  0  0  0  0  0  0  0  0  0  0  0
  -26.8916  -33.3012   25.3382 C   0  0  1  0  0  0  0  0  0  0  0  0
  -24.0106  -33.0139   22.8785 C   0  0  1  0  0  0  0  0  0  0  0  0
  -28.1000  -13.1701   20.6973 C   0  0  1  0  0  0  0  0  0  0  0  0
  -26.4893  -17.9701   18.2376 C   0  0  0  0  0  0  0  0  0  0  0  0
  -16.2789  -32.5523   22.7715 C   0  0  0  0  0  0  0  0  0  0  0  0
  -21.6258  -31.4985   26.5360 C   0  0  0  0  0  0  0  0  0  0  0  0
  -19.1658  -31.2062   26.1739 C   0  0  0  0  0  0  0  0  0  0  0  0
  -20.1298  -33.4971   26.3874 C   0  0  0  0  0  0  0  0  0  0  0  0
  -29.1059  -16.6412   21.1183 C   0  0  0  0  0  0  0  0  0  0  0  0
  -18.5808  -32.8151   19.7536 C   0  0  0  0  0  0  0  0  0  0  0  0
  -25.4928  -25.2780   19.5924 C   0  0  0  0  0  0  0  0  0  0  0  0
  -26.7704  -24.6156   19.0889 C   0  0  0  0  0  0  0  0  0  0  0  0
  -25.4916  -26.7762   19.3190 C   0  0  0  0  0  0  0  0  0  1  0  0
  -26.7914  -23.1257   19.4000 C   0  0  0  0  0  0  0  0  0  0  0  0
  -20.5567  -32.1640   24.2820 C   0  0  1  0  0  0  0  0  0  0  0  0
  -17.5782  -32.8536   22.0409 C   0  0  2  0  0  0  0  0  0  0  0  0
  -20.3882  -32.0821   25.8255 C   0  0  0  0  0  0  0  0  0  0  0  0
  -26.2804  -11.5276   20.9685 N   0  0  0  0  0  0  0  0  0  0  0  0
  -26.9237  -12.5975   21.4661 N   0  0  0  0  0  0  0  0  0  0  0  0
  -22.7398  -32.3306   23.1286 N   0  0  0  0  0  0  0  0  0  0  0  0
  -28.8084  -14.8238   18.9866 N   0  0  0  0  0  0  0  0  0  0  0  0
  -26.9405  -14.1135   23.2860 N   0  0  0  0  0  0  0  0  0  0  0  0
  -23.4871  -11.3672   24.2496 N   0  0  0  0  0  0  0  0  0  0  0  0
  -25.8810  -33.5253   24.3269 N   0  0  0  0  0  0  0  0  0  0  0  0
  -19.4106  -32.7379   23.5854 N   0  0  0  0  0  0  0  0  0  0  0  0
  -28.8104  -17.0896   19.7536 N   0  0  0  0  0  0  0  0  0  0  0  0
  -17.3876  -32.5433   20.5958 N   0  3  0  0  0  0  0  0  0  0  0  0
  -24.6674  -13.1972   24.9684 O   0  0  0  0  0  0  0  0  0  0  0  0
  -24.8854  -31.4211   24.3860 O   0  0  0  0  0  0  0  0  0  0  0  0
  -21.8090  -34.1770   24.2060 O   0  0  0  0  0  0  0  0  0  0  0  0
  -18.9988  -30.9077   22.2224 O   0  0  0  0  0  0  0  0  0  0  0  0
  -29.2810  -16.5691   17.5424 O   0  0  0  0  0  0  0  0  0  0  0  0
  -21.7530   -7.0546   21.1788 O   0  0  0  0  0  0  0  0  0  0  0  0
  -24.2900  -27.3592   19.8219 O   0  0  0  0  0  0  0  0  0  1  0  0
  -27.9960  -22.5673   18.8938 O   0  0  0  0  0  0  0  0  0  0  0  0
  -20.6953   -3.8597   25.5467 F   0  0  0  0  0  0  0  0  0  0  0  0
  -30.1766  -21.6698   20.3223 F   0  0  0  0  0  0  0  0  0  0  0  0
  -22.3052   -4.3463   21.1221 F   0  0  0  0  0  0  0  0  0  0  0  0
  1  2  1  0  0  0  0
  1  5  2  0  0  0  0
  2  6  2  0  0  0  0
  3  8  2  0  0  0  0
  3 17  1  0  0  0  0
  4  9  1  0  0  0  0
  4 17  2  0  0  0  0
  5 19  1  0  0  0  0
  6 21  1  0  0  0  0
  7 10  2  0  0  0  0
  7 20  1  0  0  0  0
  8 25  1  0  0  0  0
  9 25  2  0  0  0  0
 10 26  1  0  0  0  0
 11 12  2  0  0  0  0
 11 27  1  0  0  0  0
 12 29  1  0  0  0  0
 13 22  1  0  0  0  0
 13 26  2  0  0  0  0
 14 23  2  0  0  0  0
 14 28  1  0  0  0  0
 15 24  2  0  0  0  0
 15 30  1  0  0  0  0
 16 29  2  0  0  0  0
 16 31  1  0  0  0  0
 17 32  1  0  0  0  0
 18 32  1  0  0  0  0
 18 33  2  0  0  0  0
 18 34  1  0  0  0  0
 19 21  2  0  0  0  0
 19 39  1  0  0  0  0
 20 22  2  0  0  0  0
 20 40  1  0  0  0  0
 21 48  1  0  0  0  0
 22 41  1  0  0  0  0
 23 24  1  0  0  0  0
 23 51  1  0  0  0  0
 24 73  1  0  0  0  0
 25 80  1  0  0  0  0
 26 81  1  0  0  0  0
 27 31  2  0  0  0  0
 27 80  1  0  0  0  0
 28 30  2  0  0  0  0
 28 82  1  0  0  0  0
 29 83  1  0  0  0  0
 30 84  1  0  0  0  0
 31 85  1  0  0  0  0
 32 65  2  0  0  0  0
 33 66  1  0  0  0  0
 33 69  1  0  0  0  0
 34 70  1  0  0  0  0
 34 75  2  0  0  0  0
 35 49  1  0  0  0  0
 35 71  1  0  0  0  0
 35 76  2  0  0  0  0
 36 62  1  0  0  0  0
 36 67  1  0  0  0  0
 36 77  2  0  0  0  0
 37 63  1  0  0  0  0
 37 72  1  0  0  0  0
 37 78  2  0  0  0  0
 38 68  1  0  0  0  0
 38 73  1  0  0  0  0
 38 79  2  0  0  0  0
 39 42  1  0  0  0  0
 40 49  1  0  0  0  0
 41 67  1  0  0  0  0
 42 44  1  0  0  0  0
 43 45  1  0  0  0  0
 43 46  1  0  0  0  0
 44 48  1  0  0  0  0
 45 50  1  0  0  0  0
 46 68  1  0  0  0  0
 47 50  1  0  0  0  0
 47 68  1  0  0  0  0
 48 71  1  0  0  0  0
 49 67  1  0  0  0  0
 50 66  1  0  0  0  0
 52 63  1  0  0  0  0
 53 64  1  0  0  0  0
 54 64  1  0  0  0  0
 55 64  1  0  0  0  0
 56 73  1  0  0  0  0
 57 74  1  0  0  0  0
 58 59  1  0  0  0  0
 58 60  1  0  0  0  0
 59 61  1  0  0  0  0
 60 81  1  0  0  0  0
 61 82  1  0  0  0  0
 62 64  1  0  0  0  0
 62 72  1  0  0  0  0
 63 74  1  0  0  0  0
 65 66  1  0  0  0  0
M  CHG  1  74   1
M  ISO  4  38 100  60 101  73 100  81 101
M  END
> <Batch ID>
0102

> <Smiles>
CNC(C)C(=O)NC(C(=O)N1Cc2cc([101O:1][101CH2:1]CCCOc3cc(C)c([100N:0](C)[100C:0](=O)N4CCCC(n5nc(-c6ccc(Oc7ccc(F)cc7F)cc6)c(C(N)=O)c5N)C4)cc3F)ccc2CC1C(=O)NC1CCCc2ccccc21)C(C)(C)C

> <Shape>
0.282

> <Color>
0.120

> <Negative vol penalty>
0.000

$$$$

  -OEChem-04052301023D

 83 91  0     1  0  0  0  0  0999 V2000
  -19.7907  -30.6960   21.6457 C   0  0  0  0  0  0  0  0  0  0  0  0
  -21.1362  -30.3441   21.6829 C   0  0  0  0  0  0  0  0  0  0  0  0
  -26.2069  -12.8177   21.4148 C   0  0  0  0  0  0  0  0  0  0  0  0
  -25.0038  -14.1542   19.8013 C   0  0  0  0  0  0  0  0  0  0  0  0
  -18.8129  -29.7361   21.9033 C   0  0  0  0  0  0  0  0  0  0  0  0
  -21.5046  -29.0322   21.9788 C   0  0  0  0  0  0  0  0  0  0  0  0
  -25.1131  -27.2831   18.8862 C   0  0  0  0  0  0  0  0  0  0  0  0
  -25.0626  -12.0506   21.6327 C   0  0  0  0  0  0  0  0  0  0  0  0
  -23.8595  -13.3869   20.0191 C   0  0  0  0  0  0  0  0  0  0  0  0
  -26.4206  -27.6987   19.1342 C   0  0  0  0  0  0  0  0  0  0  0  0
  -22.5607   -9.5122   22.3484 C   0  0  0  0  0  0  0  0  0  0  0  0
  -22.7090   -8.1262   22.3989 C   0  0  0  0  0  0  0  0  0  0  0  0
  -26.8703  -25.6029   20.2409 C   0  0  0  0  0  0  0  0  0  0  0  0
  -29.6732  -22.2337   16.6335 C   0  0  0  0  0  0  0  0  0  0  0  0
  -29.2403  -24.5809   16.2599 C   0  0  0  0  0  0  0  0  0  0  0  0
  -30.9806  -23.9025   17.7923 C   0  0  0  0  0  0  0  0  0  0  0  0
  -23.5747   -8.1366   20.1434 C   0  0  0  0  0  0  0  0  0  0  0  0
  -26.1776  -13.8696   20.4991 C   0  0  0  0  0  0  0  0  0  0  0  0
  -28.3720  -14.4289   19.3248 C   0  0  0  0  0  0  0  0  0  0  0  0
  -19.1693  -28.4096   22.1931 C   0  0  0  0  0  0  0  0  0  0  0  0
  -24.6704  -26.0266   19.3240 C   0  0  0  0  0  0  0  0  0  0  0  0
  -20.5307  -28.0540   22.2419 C   0  0  0  0  0  0  0  0  0  0  0  0
  -25.5575  -25.1728   19.9949 C   0  0  0  0  0  0  0  0  0  0  0  0
  -28.9488  -23.2422   15.9982 C   0  0  0  0  0  0  0  0  0  0  0  0
  -30.6890  -22.5638   17.5306 C   0  0  0  0  0  0  0  0  0  0  0  0
  -23.8889  -12.3351   20.9348 C   0  0  0  0  0  0  0  0  0  0  0  0
  -27.2986  -26.8597   19.8141 C   0  0  0  0  0  0  0  0  0  0  0  0
  -22.9193  -10.2104   21.1953 C   0  0  0  0  0  0  0  0  0  0  0  0
  -30.2562  -24.9111   17.1569 C   0  0  0  0  0  0  0  0  0  0  0  0
  -23.2161   -7.4384   21.2965 C   0  0  0  0  0  0  0  0  0  0  0  0
  -23.4263   -9.5226   20.0928 C   0  0  0  0  0  0  0  0  0  0  0  0
  -27.3592  -14.6629   20.2741 C   0  0  0  0  0  0  0  0  0  0  0  0
  -29.2624  -15.4579   19.5119 C   0  0  0  0  0  0  0  0  0  0  0  0
  -28.4969  -13.3756   18.3600 C   0  0  0  0  0  0  0  0  0  0  0  0
  -22.4251  -25.0144   21.3334 C   0  0  0  0  0  0  0  0  0  0  0  0
  -23.3002  -22.0938   20.2258 C   0  0  0  0  0  0  0  0  0  0  0  0
  -25.6992  -20.1420   18.7830 C   0  0  0  0  0  0  0  0  0  0  0  0
  -30.3407  -20.8710   20.3368 C   0  0  0  0  0  0  0  0  0  0  0  0
  -18.0784  -27.4179   22.5113 C   0  0  0  0  0  0  0  0  0  0  0  0
  -23.2648  -25.5824   19.0251 C   0  0  0  0  0  0  0  0  0  0  0  0
  -25.1375  -23.8059   20.4680 C   0  0  0  0  0  0  0  0  0  0  0  0
  -18.5396  -25.9641   22.4483 C   0  0  0  0  0  0  0  0  0  0  0  0
  -29.5871  -18.8998   23.2044 C   0  0  0  0  0  0  0  0  0  0  0  0
  -19.8650  -25.7922   23.1836 C   0  0  0  0  0  0  0  0  0  0  0  0
  -29.0184  -17.6058   22.6196 C   0  0  0  0  0  0  0  0  0  0  0  0
  -29.1697  -20.1200   22.3865 C   0  0  0  0  0  0  0  0  0  0  0  0
  -28.9068  -18.7403   20.3614 C   0  0  0  0  0  0  0  0  0  0  0  0
  -20.9693  -26.6355   22.5348 C   0  0  1  0  0  0  0  0  0  0  0  0
  -22.7701  -24.4901   19.9682 C   0  0  1  0  0  0  0  0  0  0  0  0
  -29.3467  -17.4764   21.1200 C   0  0  2  0  0  0  0  0  0  0  0  0
  -27.8624  -22.8884   15.0398 C   0  0  0  0  0  0  0  0  0  0  0  0
  -26.7248  -18.1043   17.7374 C   0  0  0  0  0  0  0  0  0  0  0  0
  -23.7036  -21.2516   23.1306 C   0  0  0  0  0  0  0  0  0  0  0  0
  -25.0132  -19.2839   22.3053 C   0  0  0  0  0  0  0  0  0  0  0  0
  -22.6088  -19.5277   21.6870 C   0  0  0  0  0  0  0  0  0  0  0  0
  -24.7988  -20.9346   16.0775 C   0  0  0  0  0  0  0  0  0  0  0  0
  -31.4634  -21.4859   18.2106 C   0  0  0  0  0  0  0  0  0  0  0  0
  -30.6721  -27.9554   19.0858 C   0  0  0  0  0  0  0  0  0  0  0  0
  -29.1652  -28.1572   19.1153 C   0  0  0  0  0  0  0  0  0  1  0  0
  -31.0481  -26.5315   18.7071 C   0  0  0  0  0  0  0  0  0  0  0  0
  -24.3215  -21.0587   20.6312 C   0  0  1  0  0  0  0  0  0  0  0  0
  -25.6387  -19.1627   17.6246 C   0  0  2  0  0  0  0  0  0  0  0  0
  -23.9194  -20.3069   21.9315 C   0  0  0  0  0  0  0  0  0  0  0  0
  -27.5843  -15.7547   21.0098 N   0  0  0  0  0  0  0  0  0  0  0  0
  -28.7488  -16.2159   20.5228 N   0  0  0  0  0  0  0  0  0  0  0  0
  -23.7512  -23.4196   20.1573 N   0  0  0  0  0  0  0  0  0  0  0  0
  -29.5105  -19.9341   20.9740 N   0  0  0  0  0  0  0  0  0  0  0  0
  -30.4266  -15.7791   18.9089 N   0  0  0  0  0  0  0  0  0  0  0  0
  -27.4923  -12.4000   18.3021 N   0  0  0  0  0  0  0  0  0  0  0  0
  -21.4520  -25.9955   21.3299 N   0  0  0  0  0  0  0  0  0  0  0  0
  -24.5061  -20.1917   19.4725 N   0  0  0  0  0  0  0  0  0  0  0  0
  -30.6193  -20.6165   18.9995 N   0  0  0  0  0  0  0  0  0  0  0  0
  -25.8142  -19.8801   16.3302 N   0  3  0  0  0  0  0  0  0  0  0  0
  -29.4787  -13.2927   17.5837 O   0  0  0  0  0  0  0  0  0  0  0  0
  -22.9983  -24.5614   22.3172 O   0  0  0  0  0  0  0  0  0  0  0  0
  -22.1466  -21.7382   19.9722 O   0  0  0  0  0  0  0  0  0  0  0  0
  -26.7054  -20.7945   19.0517 O   0  0  0  0  0  0  0  0  0  0  0  0
  -30.8038  -21.8582   20.9181 O   0  0  0  0  0  0  0  0  0  0  0  0
  -22.7721  -11.5865   21.1469 O   0  0  0  0  0  0  0  0  0  0  0  0
  -28.5752  -27.2631   20.0581 O   0  0  0  0  0  0  0  0  0  1  0  0
  -30.5423  -26.2266   17.4144 O   0  0  0  0  0  0  0  0  0  0  0  0
  -23.3600   -6.1076   21.3457 F   0  0  0  0  0  0  0  0  0  0  0  0
  -23.7737  -10.1881   18.9827 F   0  0  0  0  0  0  0  0  0  0  0  0
  1  2  1  0  0  0  0
  1  5  2  0  0  0  0
  2  6  2  0  0  0  0
  3  8  2  0  0  0  0
  3 18  1  0  0  0  0
  4  9  1  0  0  0  0
  4 18  2  0  0  0  0
  5 20  1  0  0  0  0
  6 22  1  0  0  0  0
  7 10  2  0  0  0  0
  7 21  1  0  0  0  0
  8 26  1  0  0  0  0
  9 26  2  0  0  0  0
 10 27  1  0  0  0  0
 11 12  2  0  0  0  0
 11 28  1  0  0  0  0
 12 30  1  0  0  0  0
 13 23  1  0  0  0  0
 13 27  2  0  0  0  0
 14 24  1  0  0  0  0
 14 25  2  0  0  0  0
 15 24  2  0  0  0  0
 15 29  1  0  0  0  0
 16 25  1  0  0  0  0
 16 29  2  0  0  0  0
 17 30  2  0  0  0  0
 17 31  1  0  0  0  0
 18 32  1  0  0  0  0
 19 32  1  0  0  0  0
 19 33  2  0  0  0  0
 19 34  1  0  0  0  0
 20 22  2  0  0  0  0
 20 39  1  0  0  0  0
 21 23  2  0  0  0  0
 21 40  1  0  0  0  0
 22 48  1  0  0  0  0
 23 41  1  0  0  0  0
 24 51  1  0  0  0  0
 25 57  1  0  0  0  0
 26 79  1  0  0  0  0
 27 80  1  0  0  0  0
 28 31  2  0  0  0  0
 28 79  1  0  0  0  0
 29 81  1  0  0  0  0
 30 82  1  0  0  0  0
 31 83  1  0  0  0  0
 32 64  2  0  0  0  0
 33 65  1  0  0  0  0
 33 68  1  0  0  0  0
 34 69  1  0  0  0  0
 34 74  2  0  0  0  0
 35 49  1  0  0  0  0
 35 70  1  0  0  0  0
 35 75  2  0  0  0  0
 36 61  1  0  0  0  0
 36 66  1  0  0  0  0
 36 76  2  0  0  0  0
 37 62  1  0  0  0  0
 37 71  1  0  0  0  0
 37 77  2  0  0  0  0
 38 67  1  0  0  0  0
 38 72  1  0  0  0  0
 38 78  2  0  0  0  0
 39 42  1  0  0  0  0
 40 49  1  0  0  0  0
 41 66  1  0  0  0  0
 42 44  1  0  0  0  0
 43 45  1  0  0  0  0
 43 46  1  0  0  0  0
 44 48  1  0  0  0  0
 45 50  1  0  0  0  0
 46 67  1  0  0  0  0
 47 50  1  0  0  0  0
 47 67  1  0  0  0  0
 48 70  1  0  0  0  0
 49 66  1  0  0  0  0
 50 65  1  0  0  0  0
 52 62  1  0  0  0  0
 53 63  1  0  0  0  0
 54 63  1  0  0  0  0
 55 63  1  0  0  0  0
 56 73  1  0  0  0  0
 57 72  1  0  0  0  0
 58 59  1  0  0  0  0
 58 60  1  0  0  0  0
 59 80  1  0  0  0  0
 60 81  1  0  0  0  0
 61 63  1  0  0  0  0
 61 71  1  0  0  0  0
 62 73  1  0  0  0  0
 64 65  1  0  0  0  0
M  CHG  1  73   1
M  ISO  4  38 100  59 101  72 100  80 101
M  END
> <Batch ID>
0102

> <Smiles>
CNC(C)C(=O)NC(C(=O)N1Cc2cc([101O:1][101CH2:1]CCOc3cc(C)cc(C[100NH:0][100C:0](=O)N4CCCC(n5nc(-c6ccc(Oc7ccc(F)cc7F)cc6)c(C(N)=O)c5N)C4)c3)ccc2CC1C(=O)NC1CCCc2ccccc21)C(C)(C)C

> <Shape>
0.254

> <Color>
0.060

> <Negative vol penalty>
0.000

$$$$

  -OEChem-04052301023D

 86 94  0     1  0  0  0  0  0999 V2000
  -29.6697  -34.0182   24.7190 C   0  0  0  0  0  0  0  0  0  0  0  0
  -29.3624  -32.6956   24.4162 C   0  0  0  0  0  0  0  0  0  0  0  0
  -22.7207  -16.1114   22.2245 C   0  0  0  0  0  0  0  0  0  0  0  0
  -23.0092  -16.6598   19.8893 C   0  0  0  0  0  0  0  0  0  0  0  0
  -28.6458  -34.9488   24.8910 C   0  0  0  0  0  0  0  0  0  0  0  0
  -28.0308  -32.3026   24.2865 C   0  0  0  0  0  0  0  0  0  0  0  0
  -27.2598  -29.3590   20.2385 C   0  0  0  0  0  0  0  0  0  0  0  0
  -28.1981  -18.8665   18.3116 C   0  0  0  0  0  0  0  0  0  0  0  0
  -29.0006  -17.7516   18.0698 C   0  0  0  0  0  0  0  0  0  0  0  0
  -21.7435  -17.1004   22.3361 C   0  0  0  0  0  0  0  0  0  0  0  0
  -22.0319  -17.6488   20.0009 C   0  0  0  0  0  0  0  0  0  0  0  0
  -27.6371  -28.0209   20.3431 C   0  0  0  0  0  0  0  0  0  0  0  0
  -21.6286  -20.4638   22.6498 C   0  0  0  0  0  0  0  0  0  0  0  0
  -21.6859  -21.3084   23.7584 C   0  0  0  0  0  0  0  0  0  0  0  0
  -25.3406  -27.4125   20.7620 C   0  0  0  0  0  0  0  0  0  0  0  0
  -29.0817  -19.0159   20.5553 C   0  0  0  0  0  0  0  0  0  0  0  0
  -19.4869  -20.5705   24.4344 C   0  0  0  0  0  0  0  0  0  0  0  0
  -23.3537  -15.8912   21.0011 C   0  0  0  0  0  0  0  0  0  0  0  0
  -24.1705  -13.5181   20.5438 C   0  0  0  0  0  0  0  0  0  0  0  0
  -27.3013  -34.5691   24.7538 C   0  0  0  0  0  0  0  0  0  0  0  0
  -25.9195  -29.7358   20.4059 C   0  0  0  0  0  0  0  0  0  0  0  0
  -26.9879  -33.2286   24.4582 C   0  0  0  0  0  0  0  0  0  0  0  0
  -24.9486  -28.7557   20.6565 C   0  0  0  0  0  0  0  0  0  0  0  0
  -28.2387  -19.4987   19.5544 C   0  0  0  0  0  0  0  0  0  0  0  0
  -29.8436  -17.2687   19.0708 C   0  0  0  0  0  0  0  0  0  0  0  0
  -21.3990  -17.8691   21.2243 C   0  0  0  0  0  0  0  0  0  0  0  0
  -26.6779  -27.0478   20.6078 C   0  0  0  0  0  0  0  0  0  0  0  0
  -20.5004  -19.6726   22.4334 C   0  0  0  0  0  0  0  0  0  0  0  0
  -20.6151  -21.3617   24.6507 C   0  0  0  0  0  0  0  0  0  0  0  0
  -29.8842  -17.9009   20.3135 C   0  0  0  0  0  0  0  0  0  0  0  0
  -19.4296  -19.7259   23.3257 C   0  0  0  0  0  0  0  0  0  0  0  0
  -24.3637  -14.8701   20.8853 C   0  0  0  0  0  0  0  0  0  0  0  0
  -25.4311  -12.9736   20.5707 C   0  0  0  0  0  0  0  0  0  0  0  0
  -31.9210  -14.7512   17.2952 C   0  0  0  0  0  0  0  0  0  0  0  0
  -31.1534  -15.8129   17.5508 C   0  0  0  0  0  0  0  0  0  0  0  0
  -22.9597  -12.8172   20.2300 C   0  0  0  0  0  0  0  0  0  0  0  0
  -24.3499  -31.5895   22.4563 C   0  0  0  0  0  0  0  0  0  0  0  0
  -26.7526  -23.5084   19.8154 C   0  0  0  0  0  0  0  0  0  0  0  0
  -21.8468  -30.9867   20.4832 C   0  0  0  0  0  0  0  0  0  0  0  0
  -20.4132  -28.9308   18.1670 C   0  0  0  0  0  0  0  0  0  0  0  0
  -30.8757  -15.1703   19.8606 C   0  0  0  0  0  0  0  0  0  0  0  0
  -26.2275  -35.6001   24.9955 C   0  0  0  0  0  0  0  0  0  0  0  0
  -25.5247  -31.1802   20.2635 C   0  0  0  0  0  0  0  0  0  0  0  0
  -23.4933  -29.1057   20.8243 C   0  0  0  0  0  0  0  0  0  0  0  0
  -24.8552  -35.1847   24.4716 C   0  0  0  0  0  0  0  0  0  0  0  0
  -29.6911  -13.4711   22.6710 C   0  0  0  0  0  0  0  0  0  0  0  0
  -24.5394  -33.7497   24.8812 C   0  0  0  0  0  0  0  0  0  0  0  0
  -28.1716  -13.5069   22.5105 C   0  0  0  0  0  0  0  0  0  0  0  0
  -30.3171  -14.7956   22.2495 C   0  0  0  0  0  0  0  0  0  0  0  0
  -28.4601  -15.2455   20.6769 C   0  0  0  0  0  0  0  0  0  0  0  0
  -25.5565  -32.7692   24.2848 C   0  0  1  0  0  0  0  0  0  0  0  0
  -24.2098  -31.5120   20.9623 C   0  0  1  0  0  0  0  0  0  0  0  0
  -27.7766  -13.9243   21.0830 C   0  0  2  0  0  0  0  0  0  0  0  0
  -18.3473  -28.6815   16.7644 C   0  0  0  0  0  0  0  0  0  0  0  0
  -20.2908  -30.0693   22.9424 C   0  0  0  0  0  0  0  0  0  0  0  0
  -18.6474  -28.9702   21.4064 C   0  0  0  0  0  0  0  0  0  0  0  0
  -18.9686  -31.4425   21.3237 C   0  0  0  0  0  0  0  0  0  0  0  0
  -21.9662  -29.0545   15.6507 C   0  0  0  0  0  0  0  0  0  0  0  0
  -25.8182  -22.3846   19.3900 C   0  0  0  0  0  0  0  0  0  0  0  0
  -26.0759  -24.7638   20.3302 C   0  0  0  0  0  0  0  0  0  1  0  0
  -26.5420  -21.1727   18.8164 C   0  0  0  0  0  0  0  0  0  0  0  0
  -20.7742  -29.9269   20.4102 C   0  0  1  0  0  0  0  0  0  0  0  0
  -19.7676  -29.2217   16.8242 C   0  0  2  0  0  0  0  0  0  0  0  0
  -19.6979  -30.0955   21.5195 C   0  0  0  0  0  0  0  0  0  0  0  0
  -25.6461  -15.1663   21.1128 N   0  0  0  0  0  0  0  0  0  0  0  0
  -26.2701  -13.9928   20.9138 N   0  0  0  0  0  0  0  0  0  0  0  0
  -23.1581  -30.5323   20.6824 N   0  0  0  0  0  0  0  0  0  0  0  0
  -29.9141  -15.1593   20.8906 N   0  0  0  0  0  0  0  0  0  0  0  0
  -25.8928  -11.7273   20.3343 N   0  0  0  0  0  0  0  0  0  0  0  0
  -21.7520  -13.5282   20.2487 N   0  0  0  0  0  0  0  0  0  0  0  0
  -27.4421  -20.6064   19.7942 N   0  0  0  0  0  0  0  0  0  0  0  0
  -25.2673  -32.5287   22.8873 N   0  0  0  0  0  0  0  0  0  0  0  0
  -20.2447  -29.9749   19.0516 N   0  0  0  0  0  0  0  0  0  0  0  0
  -30.6754  -16.1105   18.8166 N   0  0  0  0  0  0  0  0  0  0  0  0
  -20.5550  -28.5960   15.7245 N   0  3  0  0  0  0  0  0  0  0  0  0
  -22.9471  -11.5927   19.9578 O   0  0  0  0  0  0  0  0  0  0  0  0
  -23.6746  -30.8529   23.1655 O   0  0  0  0  0  0  0  0  0  0  0  0
  -27.9768  -23.4186   19.7382 O   0  0  0  0  0  0  0  0  0  0  0  0
  -21.5336  -32.1735   20.3607 O   0  0  0  0  0  0  0  0  0  0  0  0
  -21.0044  -27.8806   18.4083 O   0  0  0  0  0  0  0  0  0  0  0  0
  -31.8555  -14.4140   19.8765 O   0  0  0  0  0  0  0  0  0  0  0  0
  -20.4453  -18.8340   21.3328 O   0  0  0  0  0  0  0  0  0  0  0  0
  -27.0435  -25.7410   20.7110 O   0  0  0  0  0  0  0  0  0  1  0  0
  -20.6710  -22.1716   25.7161 F   0  0  0  0  0  0  0  0  0  0  0  0
  -30.6905  -17.4451   21.2829 F   0  0  0  0  0  0  0  0  0  0  0  0
  -18.3435  -18.9673   23.1237 F   0  0  0  0  0  0  0  0  0  0  0  0
  1  2  1  0  0  0  0
  1  5  2  0  0  0  0
  2  6  2  0  0  0  0
  3 10  2  0  0  0  0
  3 18  1  0  0  0  0
  4 11  1  0  0  0  0
  4 18  2  0  0  0  0
  5 20  1  0  0  0  0
  6 22  1  0  0  0  0
  7 12  2  0  0  0  0
  7 21  1  0  0  0  0
  8  9  2  0  0  0  0
  8 24  1  0  0  0  0
  9 25  1  0  0  0  0
 10 26  1  0  0  0  0
 11 26  2  0  0  0  0
 12 27  1  0  0  0  0
 13 14  2  0  0  0  0
 13 28  1  0  0  0  0
 14 29  1  0  0  0  0
 15 23  1  0  0  0  0
 15 27  2  0  0  0  0
 16 24  2  0  0  0  0
 16 30  1  0  0  0  0
 17 29  2  0  0  0  0
 17 31  1  0  0  0  0
 18 32  1  0  0  0  0
 19 32  1  0  0  0  0
 19 33  2  0  0  0  0
 19 36  1  0  0  0  0
 20 22  2  0  0  0  0
 20 42  1  0  0  0  0
 21 23  2  0  0  0  0
 21 43  1  0  0  0  0
 22 51  1  0  0  0  0
 23 44  1  0  0  0  0
 24 71  1  0  0  0  0
 25 30  2  0  0  0  0
 25 74  1  0  0  0  0
 26 82  1  0  0  0  0
 27 83  1  0  0  0  0
 28 31  2  0  0  0  0
 28 82  1  0  0  0  0
 29 84  1  0  0  0  0
 30 85  1  0  0  0  0
 31 86  1  0  0  0  0
 32 65  2  0  0  0  0
 33 66  1  0  0  0  0
 33 69  1  0  0  0  0
 34 35  2  0  0  0  0
 35 74  1  0  0  0  0
 36 70  1  0  0  0  0
 36 76  2  0  0  0  0
 37 52  1  0  0  0  0
 37 72  1  0  0  0  0
 37 77  2  0  0  0  0
 38 59  1  0  0  0  0
 38 60  1  0  0  0  0
 38 78  2  0  0  0  0
 39 62  1  0  0  0  0
 39 67  1  0  0  0  0
 39 79  2  0  0  0  0
 40 63  1  0  0  0  0
 40 73  1  0  0  0  0
 40 80  2  0  0  0  0
 41 68  1  0  0  0  0
 41 74  1  0  0  0  0
 41 81  2  0  0  0  0
 42 45  1  0  0  0  0
 43 52  1  0  0  0  0
 44 67  1  0  0  0  0
 45 47  1  0  0  0  0
 46 48  1  0  0  0  0
 46 49  1  0  0  0  0
 47 51  1  0  0  0  0
 48 53  1  0  0  0  0
 49 68  1  0  0  0  0
 50 53  1  0  0  0  0
 50 68  1  0  0  0  0
 51 72  1  0  0  0  0
 52 67  1  0  0  0  0
 53 66  1  0  0  0  0
 54 63  1  0  0  0  0
 55 64  1  0  0  0  0
 56 64  1  0  0  0  0
 57 64  1  0  0  0  0
 58 75  1  0  0  0  0
 59 61  1  0  0  0  0
 60 83  1  0  0  0  0
 61 71  1  0  0  0  0
 62 64  1  0  0  0  0
 62 73  1  0  0  0  0
 63 75  1  0  0  0  0
 65 66  1  0  0  0  0
M  CHG  1  75   1
M  ISO  4  41 100  60 101  74 100  83 101
M  END
> <Batch ID>
0102

> <Smiles>
C=C[100N:0](c1ccc(NCCC(=O)[101CH2:1][101O:1]c2ccc3c(c2)CN(C(=O)C(NC(=O)C(C)NC)C(C)(C)C)C(C(=O)NC2CCCc4ccccc42)C3)cc1F)[100C:0](=O)N1CCCC(n2nc(-c3ccc(Oc4ccc(F)cc4F)cc3)c(C(N)=O)c2N)C1

> <Shape>
0.252

> <Color>
0.090

> <Negative vol penalty>
0.000

$$$$

  -OEChem-04052301023D

 85 93  0     1  0  0  0  0  0999 V2000
  -29.7793  -36.4238   20.8943 C   0  0  0  0  0  0  0  0  0  0  0  0
  -29.8624  -35.0949   20.4910 C   0  0  0  0  0  0  0  0  0  0  0  0
  -23.1144  -15.2440   23.7700 C   0  0  0  0  0  0  0  0  0  0  0  0
  -23.1750  -16.1791   21.5432 C   0  0  0  0  0  0  0  0  0  0  0  0
  -29.0109  -36.7669   22.0060 C   0  0  0  0  0  0  0  0  0  0  0  0
  -29.1780  -34.1082   21.1999 C   0  0  0  0  0  0  0  0  0  0  0  0
  -26.5797  -29.0594   18.9056 C   0  0  0  0  0  0  0  0  0  0  0  0
  -22.1975  -16.2219   24.1557 C   0  0  0  0  0  0  0  0  0  0  0  0
  -22.2581  -17.1570   21.9288 C   0  0  0  0  0  0  0  0  0  0  0  0
  -27.0094  -27.7353   18.8289 C   0  0  0  0  0  0  0  0  0  0  0  0
  -22.2975  -20.0730   23.6395 C   0  0  0  0  0  0  0  0  0  0  0  0
  -22.5522  -21.3887   23.2527 C   0  0  0  0  0  0  0  0  0  0  0  0
  -30.8718  -17.7242   19.9333 C   0  0  0  0  0  0  0  0  0  0  0  0
  -25.7872  -27.2281   20.8459 C   0  0  0  0  0  0  0  0  0  0  0  0
  -28.7179  -18.7279   18.4718 C   0  0  0  0  0  0  0  0  0  0  0  0
  -20.4641  -21.4357   22.0381 C   0  0  0  0  0  0  0  0  0  0  0  0
  -23.6032  -15.2227   22.4638 C   0  0  0  0  0  0  0  0  0  0  0  0
  -30.0286  -16.8515   19.2455 C   0  0  0  0  0  0  0  0  0  0  0  0
  -24.2650  -12.9451   21.5244 C   0  0  0  0  0  0  0  0  0  0  0  0
  -28.3091  -35.7852   22.7231 C   0  0  0  0  0  0  0  0  0  0  0  0
  -25.7579  -29.4810   19.9608 C   0  0  0  0  0  0  0  0  0  0  0  0
  -28.4007  -34.4384   22.3230 C   0  0  0  0  0  0  0  0  0  0  0  0
  -25.3463  -28.5574   20.9323 C   0  0  0  0  0  0  0  0  0  0  0  0
  -28.9516  -17.3534   18.5147 C   0  0  0  0  0  0  0  0  0  0  0  0
  -21.7694  -17.1783   23.2351 C   0  0  0  0  0  0  0  0  0  0  0  0
  -26.6156  -26.8201   19.8007 C   0  0  0  0  0  0  0  0  0  0  0  0
  -21.1262  -19.4385   23.2255 C   0  0  0  0  0  0  0  0  0  0  0  0
  -29.5612  -19.6005   19.1596 C   0  0  0  0  0  0  0  0  0  0  0  0
  -21.6355  -22.0701   22.4520 C   0  0  0  0  0  0  0  0  0  0  0  0
  -30.6381  -19.0987   19.8904 C   0  0  0  0  0  0  0  0  0  0  0  0
  -20.2095  -20.1199   22.4249 C   0  0  0  0  0  0  0  0  0  0  0  0
  -24.5508  -14.2132   22.0649 C   0  0  0  0  0  0  0  0  0  0  0  0
  -25.4970  -12.3744   21.3175 C   0  0  0  0  0  0  0  0  0  0  0  0
  -30.2945  -15.4207   19.3094 C   0  0  0  0  0  0  0  0  0  0  0  0
  -22.9990  -12.3374   21.2353 C   0  0  0  0  0  0  0  0  0  0  0  0
  -30.9319  -14.8091   20.4981 C   0  0  0  0  0  0  0  0  0  0  0  0
  -26.0411  -31.5949   22.3177 C   0  0  0  0  0  0  0  0  0  0  0  0
  -22.9400  -30.8165   22.8649 C   0  0  0  0  0  0  0  0  0  0  0  0
  -20.4250  -28.5329   22.5379 C   0  0  0  0  0  0  0  0  0  0  0  0
  -27.5295  -36.1981   23.9464 C   0  0  0  0  0  0  0  0  0  0  0  0
  -25.2811  -30.9065   20.0146 C   0  0  0  0  0  0  0  0  0  0  0  0
  -24.4482  -28.9549   22.0742 C   0  0  0  0  0  0  0  0  0  0  0  0
  -26.5337  -35.1421   24.4192 C   0  0  0  0  0  0  0  0  0  0  0  0
  -29.9751  -12.4017   22.9772 C   0  0  0  0  0  0  0  0  0  0  0  0
  -27.1901  -33.7655   24.4508 C   0  0  0  0  0  0  0  0  0  0  0  0
  -28.4506  -12.5068   23.0015 C   0  0  0  0  0  0  0  0  0  0  0  0
  -30.6237  -13.7547   22.7031 C   0  0  0  0  0  0  0  0  0  0  0  0
  -28.6135  -14.5193   21.4689 C   0  0  0  0  0  0  0  0  0  0  0  0
  -27.6529  -33.3427   23.0513 C   0  0  1  0  0  0  0  0  0  0  0  0
  -24.8659  -31.3453   21.4154 C   0  0  1  0  0  0  0  0  0  0  0  0
  -27.9221  -13.1670   21.7156 C   0  0  2  0  0  0  0  0  0  0  0  0
  -28.0325  -16.4407   17.7703 C   0  0  0  0  0  0  0  0  0  0  0  0
  -18.0118  -28.1635   23.1188 C   0  0  0  0  0  0  0  0  0  0  0  0
  -23.7280  -30.2268   25.7530 C   0  0  0  0  0  0  0  0  0  0  0  0
  -21.5676  -28.9891   26.0164 C   0  0  0  0  0  0  0  0  0  0  0  0
  -21.5500  -31.4275   25.4903 C   0  0  0  0  0  0  0  0  0  0  0  0
  -19.6504  -28.3280   19.6889 C   0  0  0  0  0  0  0  0  0  0  0  0
  -26.3635  -23.2161   19.5294 C   0  0  0  0  0  0  0  0  0  0  0  0
  -27.7925  -22.7024   19.6670 C   0  0  0  0  0  0  0  0  0  0  0  0
  -26.1660  -24.5323   20.2697 C   0  0  0  0  0  0  0  0  0  1  0  0
  -27.9795  -21.3657   18.9635 C   0  0  0  0  0  0  0  0  0  0  0  0
  -22.2296  -29.7779   23.6989 C   0  0  1  0  0  0  0  0  0  0  0  0
  -18.9876  -28.6774   22.0716 C   0  0  2  0  0  0  0  0  0  0  0  0
  -22.2873  -30.0980   25.2193 C   0  0  0  0  0  0  0  0  0  0  0  0
  -25.8616  -14.4354   22.1934 N   0  0  0  0  0  0  0  0  0  0  0  0
  -29.9945  -14.5947   18.3455 N   0  0  0  0  0  0  0  0  0  0  0  0
  -26.4103  -13.2992   21.7308 N   0  0  0  0  0  0  0  0  0  0  0  0
  -30.0739  -14.3697   21.4966 N   0  0  0  0  0  0  0  0  0  0  0  0
  -24.0137  -30.3615   22.0865 N   0  0  0  0  0  0  0  0  0  0  0  0
  -25.8774  -11.1768   20.8241 N   0  0  0  0  0  0  0  0  0  0  0  0
  -21.8315  -13.0629   21.5090 N   0  0  0  0  0  0  0  0  0  0  0  0
  -26.5278  -32.8870   22.2632 N   0  0  0  0  0  0  0  0  0  0  0  0
  -20.8774  -29.6770   23.1604 N   0  0  0  0  0  0  0  0  0  0  0  0
  -18.7721  -27.9106   20.8120 N   0  3  0  0  0  0  0  0  0  0  0  0
  -22.9054  -11.1787   20.7639 O   0  0  0  0  0  0  0  0  0  0  0  0
  -32.1546  -14.7567   20.4726 O   0  0  0  0  0  0  0  0  0  0  0  0
  -26.4734  -30.6831   23.0130 O   0  0  0  0  0  0  0  0  0  0  0  0
  -22.5519  -31.9869   22.8972 O   0  0  0  0  0  0  0  0  0  0  0  0
  -21.0797  -27.5063   22.3702 O   0  0  0  0  0  0  0  0  0  0  0  0
  -20.8745  -18.1325   23.6110 O   0  0  0  0  0  0  0  0  0  0  0  0
  -27.0342  -25.5272   19.7285 O   0  0  0  0  0  0  0  0  0  1  0  0
  -29.3300  -20.9509   19.1159 O   0  0  0  0  0  0  0  0  0  0  0  0
  -21.8794  -23.3341   22.0820 F   0  0  0  0  0  0  0  0  0  0  0  0
  -31.4507  -19.9319   20.5548 F   0  0  0  0  0  0  0  0  0  0  0  0
  -19.0820  -19.5161   22.0251 F   0  0  0  0  0  0  0  0  0  0  0  0
  1  2  1  0  0  0  0
  1  5  2  0  0  0  0
  2  6  2  0  0  0  0
  3  8  2  0  0  0  0
  3 17  1  0  0  0  0
  4  9  1  0  0  0  0
  4 17  2  0  0  0  0
  5 20  1  0  0  0  0
  6 22  1  0  0  0  0
  7 10  2  0  0  0  0
  7 21  1  0  0  0  0
  8 25  1  0  0  0  0
  9 25  2  0  0  0  0
 10 26  1  0  0  0  0
 11 12  2  0  0  0  0
 11 27  1  0  0  0  0
 12 29  1  0  0  0  0
 13 18  2  0  0  0  0
 13 30  1  0  0  0  0
 14 23  1  0  0  0  0
 14 26  2  0  0  0  0
 15 24  2  0  0  0  0
 15 28  1  0  0  0  0
 16 29  2  0  0  0  0
 16 31  1  0  0  0  0
 17 32  1  0  0  0  0
 18 24  1  0  0  0  0
 18 34  1  0  0  0  0
 19 32  1  0  0  0  0
 19 33  2  0  0  0  0
 19 35  1  0  0  0  0
 20 22  2  0  0  0  0
 20 40  1  0  0  0  0
 21 23  2  0  0  0  0
 21 41  1  0  0  0  0
 22 49  1  0  0  0  0
 23 42  1  0  0  0  0
 24 52  1  0  0  0  0
 25 80  1  0  0  0  0
 26 81  1  0  0  0  0
 27 31  2  0  0  0  0
 27 80  1  0  0  0  0
 28 30  2  0  0  0  0
 28 82  1  0  0  0  0
 29 83  1  0  0  0  0
 30 84  1  0  0  0  0
 31 85  1  0  0  0  0
 32 65  2  0  0  0  0
 33 67  1  0  0  0  0
 33 70  1  0  0  0  0
 34 36  1  0  0  0  0
 34 66  2  0  0  0  0
 35 71  1  0  0  0  0
 35 75  2  0  0  0  0
 36 68  1  0  0  0  0
 36 76  2  0  0  0  0
 37 50  1  0  0  0  0
 37 72  1  0  0  0  0
 37 77  2  0  0  0  0
 38 62  1  0  0  0  0
 38 69  1  0  0  0  0
 38 78  2  0  0  0  0
 39 63  1  0  0  0  0
 39 73  1  0  0  0  0
 39 79  2  0  0  0  0
 40 43  1  0  0  0  0
 41 50  1  0  0  0  0
 42 69  1  0  0  0  0
 43 45  1  0  0  0  0
 44 46  1  0  0  0  0
 44 47  1  0  0  0  0
 45 49  1  0  0  0  0
 46 51  1  0  0  0  0
 47 68  1  0  0  0  0
 48 51  1  0  0  0  0
 48 68  1  0  0  0  0
 49 72  1  0  0  0  0
 50 69  1  0  0  0  0
 51 67  1  0  0  0  0
 53 63  1  0  0  0  0
 54 64  1  0  0  0  0
 55 64  1  0  0  0  0
 56 64  1  0  0  0  0
 57 74  1  0  0  0  0
 58 59  1  0  0  0  0
 58 60  1  0  0  0  0
 59 61  1  0  0  0  0
 60 81  1  0  0  0  0
 61 82  1  0  0  0  0
 62 64  1  0  0  0  0
 62 73  1  0  0  0  0
 63 74  1  0  0  0  0
 65 67  1  0  0  0  0
M  CHG  1  74   1
M  ISO  4  34 100  36 100  60 101  81 101
M  END
> <Batch ID>
0102

> <Smiles>
CNC(C)C(=O)NC(C(=O)N1Cc2cc([101O:1][101CH2:1]CCCOc3cc(C)c([100C:0](=N)[100C:0](=O)N4CCCC(n5nc(-c6ccc(Oc7ccc(F)cc7F)cc6)c(C(N)=O)c5N)C4)cc3F)ccc2CC1C(=O)NC1CCCc2ccccc21)C(C)(C)C

> <Shape>
0.243

> <Color>
0.101

> <Negative vol penalty>
0.000

$$$$

  -OEChem-04052301023D

 85 93  0     1  0  0  0  0  0999 V2000
  -27.8055  -21.1432   27.1718 C   0  0  0  0  0  0  0  0  0  0  0  0
  -28.3847  -21.8452   26.1196 C   0  0  0  0  0  0  0  0  0  0  0  0
  -28.1420  -23.3281   19.7613 C   0  0  0  0  0  0  0  0  0  0  0  0
  -26.0236  -13.7138   21.5182 C   0  0  0  0  0  0  0  0  0  0  0  0
  -25.6680  -15.5968   20.0468 C   0  0  0  0  0  0  0  0  0  0  0  0
  -26.4207  -20.9922   27.2290 C   0  0  0  0  0  0  0  0  0  0  0  0
  -27.5794  -22.3959   25.1234 C   0  0  0  0  0  0  0  0  0  0  0  0
  -28.5349  -27.6304   22.0914 C   0  0  0  0  0  0  0  0  0  0  0  0
  -28.8576  -23.4562   18.5709 C   0  0  0  0  0  0  0  0  0  0  0  0
  -28.7943  -22.9279   20.9275 C   0  0  0  0  0  0  0  0  0  0  0  0
  -24.6635  -13.4100   21.4581 C   0  0  0  0  0  0  0  0  0  0  0  0
  -24.3080  -15.2930   19.9867 C   0  0  0  0  0  0  0  0  0  0  0  0
  -29.0817  -27.9019   20.8380 C   0  0  0  0  0  0  0  0  0  0  0  0
  -21.3460  -11.9247   21.4036 C   0  0  0  0  0  0  0  0  0  0  0  0
  -20.9873  -10.5897   21.2174 C   0  0  0  0  0  0  0  0  0  0  0  0
  -26.8637  -27.9709   19.8921 C   0  0  0  0  0  0  0  0  0  0  0  0
  -30.8777  -22.7837   19.7128 C   0  0  0  0  0  0  0  0  0  0  0  0
  -22.1819  -10.5615   19.1176 C   0  0  0  0  0  0  0  0  0  0  0  0
  -26.5258  -14.8072   20.8126 C   0  0  0  0  0  0  0  0  0  0  0  0
  -28.9463  -14.6482   20.0228 C   0  0  0  0  0  0  0  0  0  0  0  0
  -25.5972  -21.5496   26.2380 C   0  0  0  0  0  0  0  0  0  0  0  0
  -27.1467  -27.5160   22.2527 C   0  0  0  0  0  0  0  0  0  0  0  0
  -26.1823  -22.2511   25.1666 C   0  0  0  0  0  0  0  0  0  0  0  0
  -26.3017  -27.7003   21.1491 C   0  0  0  0  0  0  0  0  0  0  0  0
  -30.2254  -23.1840   18.5466 C   0  0  0  0  0  0  0  0  0  0  0  0
  -30.1621  -22.6556   20.9032 C   0  0  0  0  0  0  0  0  0  0  0  0
  -23.8057  -14.1996   20.6924 C   0  0  0  0  0  0  0  0  0  0  0  0
  -28.2462  -28.0694   19.7375 C   0  0  0  0  0  0  0  0  0  0  0  0
  -22.1226  -12.5782   20.4467 C   0  0  0  0  0  0  0  0  0  0  0  0
  -21.4053   -9.9081   20.0744 C   0  0  0  0  0  0  0  0  0  0  0  0
  -22.5406  -11.8966   19.3037 C   0  0  0  0  0  0  0  0  0  0  0  0
  -27.9305  -15.1218   20.8747 C   0  0  0  0  0  0  0  0  0  0  0  0
  -30.0936  -15.2361   20.4965 C   0  0  0  0  0  0  0  0  0  0  0  0
  -28.8603  -13.7566   18.9032 C   0  0  0  0  0  0  0  0  0  0  0  0
  -25.1789  -25.1950   23.1717 C   0  0  0  0  0  0  0  0  0  0  0  0
  -22.9484  -27.5426   22.9819 C   0  0  0  0  0  0  0  0  0  0  0  0
  -31.8558  -25.6413   17.0766 C   0  0  0  0  0  0  0  0  0  0  0  0
  -22.0000  -30.5368   21.6469 C   0  0  0  0  0  0  0  0  0  0  0  0
  -31.1214  -20.2420   23.6166 C   0  0  0  0  0  0  0  0  0  0  0  0
  -24.1088  -21.3197   26.3173 C   0  0  0  0  0  0  0  0  0  0  0  0
  -26.5711  -27.2492   23.6165 C   0  0  0  0  0  0  0  0  0  0  0  0
  -24.8035  -27.6077   21.2731 C   0  0  0  0  0  0  0  0  0  0  0  0
  -23.2996  -22.2543   25.4217 C   0  0  0  0  0  0  0  0  0  0  0  0
  -32.0474  -16.9259   24.5237 C   0  0  0  0  0  0  0  0  0  0  0  0
  -23.9145  -22.3225   24.0274 C   0  0  0  0  0  0  0  0  0  0  0  0
  -31.1889  -16.0448   23.6145 C   0  0  0  0  0  0  0  0  0  0  0  0
  -31.2942  -18.1762   24.9727 C   0  0  0  0  0  0  0  0  0  0  0  0
  -29.8624  -18.0994   22.9682 C   0  0  0  0  0  0  0  0  0  0  0  0
  -25.3404  -22.8843   24.0801 C   0  0  1  0  0  0  0  0  0  0  0  0
  -25.1713  -26.6447   23.5665 C   0  0  1  0  0  0  0  0  0  0  0  0
  -30.5982  -16.8542   22.4444 C   0  0  2  0  0  0  0  0  0  0  0  0
  -20.1070  -32.1843   21.6510 C   0  0  0  0  0  0  0  0  0  0  0  0
  -21.3395  -25.6947   21.1634 C   0  0  0  0  0  0  0  0  0  0  0  0
  -19.9905  -27.6812   20.4548 C   0  0  0  0  0  0  0  0  0  0  0  0
  -19.9767  -26.9532   22.8407 C   0  0  0  0  0  0  0  0  0  0  0  0
  -23.7189  -32.6853   22.7370 C   0  0  0  0  0  0  0  0  0  0  0  0
  -30.9952  -23.3235   17.2651 C   0  0  0  0  0  0  0  0  0  0  0  0
  -30.8594  -22.2270   22.1502 C   0  0  0  0  0  0  0  0  0  0  0  0
  -31.5577  -26.9601   16.3859 C   0  0  0  0  0  0  0  0  0  0  0  0
  -30.1848  -27.5126   16.7517 C   0  0  0  0  0  0  0  0  0  0  0  0
  -30.0756  -27.8079   18.2406 C   0  0  0  0  0  0  0  0  0  1  0  0
  -22.0399  -28.0690   21.8971 C   0  0  1  0  0  0  0  0  0  0  0  0
  -21.4309  -31.7901   22.2872 C   0  0  2  0  0  0  0  0  0  0  0  0
  -20.8649  -27.0994   21.5859 C   0  0  0  0  0  0  0  0  0  0  0  0
  -28.3920  -15.9469   21.8182 N   0  0  0  0  0  0  0  0  0  0  0  0
  -29.7104  -15.9962   21.5621 N   0  0  0  0  0  0  0  0  0  0  0  0
  -24.2892  -27.3388   22.6262 N   0  0  0  0  0  0  0  0  0  0  0  0
  -30.7608  -18.8991   23.8156 N   0  0  0  0  0  0  0  0  0  0  0  0
  -31.3829  -15.1717   20.1014 N   0  0  0  0  0  0  0  0  0  0  0  0
  -27.6040  -13.2441   18.5522 N   0  0  0  0  0  0  0  0  0  0  0  0
  -25.3114  -24.3228   24.2353 N   0  0  0  0  0  0  0  0  0  0  0  0
  -30.9289  -24.6661   16.7385 N   0  0  0  0  0  0  0  0  0  0  0  0
  -21.6199  -29.3986   22.3261 N   0  0  0  0  0  0  0  0  0  0  0  0
  -30.5767  -20.8509   22.4926 N   0  0  0  0  0  0  0  0  0  0  0  0
  -22.3823  -32.9271   22.1353 N   0  3  0  0  0  0  0  0  0  0  0  0
  -29.8702  -13.4113   18.2441 O   0  0  0  0  0  0  0  0  0  0  0  0
  -25.0709  -24.8902   21.9897 O   0  0  0  0  0  0  0  0  0  0  0  0
  -22.4870  -27.3272   24.1054 O   0  0  0  0  0  0  0  0  0  0  0  0
  -32.8060  -25.4776   17.8371 O   0  0  0  0  0  0  0  0  0  0  0  0
  -22.7077  -30.5645   20.6425 O   0  0  0  0  0  0  0  0  0  0  0  0
  -31.8773  -20.8515   24.3809 O   0  0  0  0  0  0  0  0  0  0  0  0
  -22.4786  -13.9034   20.6333 O   0  0  0  0  0  0  0  0  0  0  0  0
  -28.7773  -28.3339   18.5128 O   0  0  0  0  0  0  0  0  0  1  0  0
  -21.0620   -8.6256   19.8966 F   0  0  0  0  0  0  0  0  0  0  0  0
  -23.2878  -12.5187   18.3816 F   0  0  0  0  0  0  0  0  0  0  0  0
  1  2  1  0  0  0  0
  1  6  2  0  0  0  0
  2  7  2  0  0  0  0
  3  9  2  0  0  0  0
  3 10  1  0  0  0  0
  4 11  2  0  0  0  0
  4 19  1  0  0  0  0
  5 12  1  0  0  0  0
  5 19  2  0  0  0  0
  6 21  1  0  0  0  0
  7 23  1  0  0  0  0
  8 13  2  0  0  0  0
  8 22  1  0  0  0  0
  9 25  1  0  0  0  0
 10 26  2  0  0  0  0
 11 27  1  0  0  0  0
 12 27  2  0  0  0  0
 13 28  1  0  0  0  0
 14 15  2  0  0  0  0
 14 29  1  0  0  0  0
 15 30  1  0  0  0  0
 16 24  1  0  0  0  0
 16 28  2  0  0  0  0
 17 25  2  0  0  0  0
 17 26  1  0  0  0  0
 18 30  2  0  0  0  0
 18 31  1  0  0  0  0
 19 32  1  0  0  0  0
 20 32  1  0  0  0  0
 20 33  2  0  0  0  0
 20 34  1  0  0  0  0
 21 23  2  0  0  0  0
 21 40  1  0  0  0  0
 22 24  2  0  0  0  0
 22 41  1  0  0  0  0
 23 49  1  0  0  0  0
 24 42  1  0  0  0  0
 25 57  1  0  0  0  0
 26 58  1  0  0  0  0
 27 82  1  0  0  0  0
 28 83  1  0  0  0  0
 29 31  2  0  0  0  0
 29 82  1  0  0  0  0
 30 84  1  0  0  0  0
 31 85  1  0  0  0  0
 32 65  2  0  0  0  0
 33 66  1  0  0  0  0
 33 69  1  0  0  0  0
 34 70  1  0  0  0  0
 34 76  2  0  0  0  0
 35 50  1  0  0  0  0
 35 71  1  0  0  0  0
 35 77  2  0  0  0  0
 36 62  1  0  0  0  0
 36 67  1  0  0  0  0
 36 78  2  0  0  0  0
 37 59  1  0  0  0  0
 37 72  1  0  0  0  0
 37 79  2  0  0  0  0
 38 63  1  0  0  0  0
 38 73  1  0  0  0  0
 38 80  2  0  0  0  0
 39 68  1  0  0  0  0
 39 74  1  0  0  0  0
 39 81  2  0  0  0  0
 40 43  1  0  0  0  0
 41 50  1  0  0  0  0
 42 67  1  0  0  0  0
 43 45  1  0  0  0  0
 44 46  1  0  0  0  0
 44 47  1  0  0  0  0
 45 49  1  0  0  0  0
 46 51  1  0  0  0  0
 47 68  1  0  0  0  0
 48 51  1  0  0  0  0
 48 68  1  0  0  0  0
 49 71  1  0  0  0  0
 50 67  1  0  0  0  0
 51 66  1  0  0  0  0
 52 63  1  0  0  0  0
 53 64  1  0  0  0  0
 54 64  1  0  0  0  0
 55 64  1  0  0  0  0
 56 75  1  0  0  0  0
 57 72  1  0  0  0  0
 58 74  1  0  0  0  0
 59 60  1  0  0  0  0
 60 61  1  0  0  0  0
 61 83  1  0  0  0  0
 62 64  1  0  0  0  0
 62 73  1  0  0  0  0
 63 75  1  0  0  0  0
 65 66  1  0  0  0  0
M  CHG  1  75   1
M  ISO  4  39 100  61 101  74 100  83 101
M  END
> <Batch ID>
0102

> <Smiles>
CNC(C)C(=O)NC(C(=O)N1Cc2cc([101O:1][101CH2:1]CCC(=O)NCc3cccc(C[100NH:0][100C:0](=O)N4CCCC(n5nc(-c6ccc(Oc7ccc(F)cc7F)cc6)c(C(N)=O)c5N)C4)c3)ccc2CC1C(=O)NC1CCCc2ccccc21)C(C)(C)C

> <Shape>
0.230

> <Color>
0.044

> <Negative vol penalty>
0.000

$$$$

  -OEChem-04052301023D

 85 93  0     1  0  0  0  0  0999 V2000
  -36.7690  -34.2376   21.2440 C   0  0  0  0  0  0  0  0  0  0  0  0
  -36.0971  -33.1460   20.7033 C   0  0  0  0  0  0  0  0  0  0  0  0
  -23.1173   -9.9310   19.8241 C   0  0  0  0  0  0  0  0  0  0  0  0
  -23.9967   -9.6845   22.0609 C   0  0  0  0  0  0  0  0  0  0  0  0
  -30.4494  -18.3524   20.4398 C   0  0  0  0  0  0  0  0  0  0  0  0
  -36.3734  -34.7580   22.4755 C   0  0  0  0  0  0  0  0  0  0  0  0
  -35.0297  -32.5736   21.3943 C   0  0  0  0  0  0  0  0  0  0  0  0
  -29.9876  -30.0817   18.9708 C   0  0  0  0  0  0  0  0  0  0  0  0
  -30.3667  -19.5987   19.8191 C   0  0  0  0  0  0  0  0  0  0  0  0
  -22.4367   -8.7209   19.9584 C   0  0  0  0  0  0  0  0  0  0  0  0
  -23.3160   -8.4744   22.1952 C   0  0  0  0  0  0  0  0  0  0  0  0
  -29.6278  -28.7608   18.7072 C   0  0  0  0  0  0  0  0  0  0  0  0
  -20.1605   -7.4519   22.8417 C   0  0  0  0  0  0  0  0  0  0  0  0
  -19.4690   -7.2277   24.0321 C   0  0  0  0  0  0  0  0  0  0  0  0
  -28.4432  -28.6707   20.8066 C   0  0  0  0  0  0  0  0  0  0  0  0
  -31.0372  -20.6690   21.8787 C   0  0  0  0  0  0  0  0  0  0  0  0
  -20.8277   -5.2749   24.4535 C   0  0  0  0  0  0  0  0  0  0  0  0
  -23.8974  -10.4128   20.8753 C   0  0  0  0  0  0  0  0  0  0  0  0
  -30.8260  -18.2643   21.7800 C   0  0  0  0  0  0  0  0  0  0  0  0
  -24.1264  -12.9464   21.0654 C   0  0  0  0  0  0  0  0  0  0  0  0
  -35.2945  -34.1977   23.1774 C   0  0  0  0  0  0  0  0  0  0  0  0
  -29.5863  -30.7046   20.1614 C   0  0  0  0  0  0  0  0  0  0  0  0
  -34.6201  -33.0862   22.6369 C   0  0  0  0  0  0  0  0  0  0  0  0
  -28.7970  -30.0005   21.0818 C   0  0  0  0  0  0  0  0  0  0  0  0
  -30.6606  -20.7571   20.5385 C   0  0  0  0  0  0  0  0  0  0  0  0
  -22.5360   -7.9926   21.1439 C   0  0  0  0  0  0  0  0  0  0  0  0
  -28.8580  -28.0542   19.6264 C   0  0  0  0  0  0  0  0  0  0  0  0
  -21.1856   -6.5876   22.4571 C   0  0  0  0  0  0  0  0  0  0  0  0
  -19.8026   -6.1392   24.8380 C   0  0  0  0  0  0  0  0  0  0  0  0
  -31.1199  -19.4226   22.4995 C   0  0  0  0  0  0  0  0  0  0  0  0
  -21.5192   -5.4991   23.2631 C   0  0  0  0  0  0  0  0  0  0  0  0
  -24.6012  -11.6624   20.7371 C   0  0  0  0  0  0  0  0  0  0  0  0
  -25.1654  -13.7876   20.7505 C   0  0  0  0  0  0  0  0  0  0  0  0
  -30.9104  -16.9625   22.4234 C   0  0  0  0  0  0  0  0  0  0  0  0
  -22.8594  -13.3431   21.6067 C   0  0  0  0  0  0  0  0  0  0  0  0
  -31.1020  -31.9570   22.6590 C   0  0  0  0  0  0  0  0  0  0  0  0
  -30.6327  -14.9612   20.8959 C   0  0  0  0  0  0  0  0  0  0  0  0
  -28.1098  -32.8589   23.5284 C   0  0  0  0  0  0  0  0  0  0  0  0
  -24.7456  -32.3291   23.3092 C   0  0  0  0  0  0  0  0  0  0  0  0
  -34.9336  -34.7651   24.5274 C   0  0  0  0  0  0  0  0  0  0  0  0
  -29.9602  -32.1387   20.4186 C   0  0  0  0  0  0  0  0  0  0  0  0
  -28.3236  -30.6301   22.3655 C   0  0  0  0  0  0  0  0  0  0  0  0
  -33.5539  -34.3356   25.0196 C   0  0  0  0  0  0  0  0  0  0  0  0
  -29.4346  -12.9446   18.1870 C   0  0  0  0  0  0  0  0  0  0  0  0
  -33.3621  -32.8345   24.8278 C   0  0  0  0  0  0  0  0  0  0  0  0
  -28.0438  -12.5121   18.6493 C   0  0  0  0  0  0  0  0  0  0  0  0
  -30.4081  -13.0381   19.3578 C   0  0  0  0  0  0  0  0  0  0  0  0
  -28.5525  -13.4972   20.9287 C   0  0  0  0  0  0  0  0  0  0  0  0
  -33.4418  -32.4532   23.3446 C   0  0  1  0  0  0  0  0  0  0  0  0
  -29.9291  -32.5080   21.8985 C   0  0  1  0  0  0  0  0  0  0  0  0
  -27.5303  -13.4199   19.7809 C   0  0  2  0  0  0  0  0  0  0  0  0
  -22.5539  -33.2044   24.1622 C   0  0  0  0  0  0  0  0  0  0  0  0
  -28.6175  -31.5047   26.2151 C   0  0  0  0  0  0  0  0  0  0  0  0
  -26.1503  -31.5703   26.6355 C   0  0  0  0  0  0  0  0  0  0  0  0
  -27.4239  -33.6975   26.3611 C   0  0  0  0  0  0  0  0  0  0  0  0
  -23.8217  -33.0065   20.5803 C   0  0  0  0  0  0  0  0  0  0  0  0
  -30.0145  -15.7964   21.9888 C   0  0  0  0  0  0  0  0  0  0  0  0
  -30.2601  -23.6540   18.1499 C   0  0  0  0  0  0  0  0  0  0  0  0
  -29.2955  -24.5192   18.9623 C   0  0  0  0  0  0  0  0  0  0  0  0
  -30.1980  -22.1799   18.5417 C   0  0  0  0  0  0  0  0  0  0  0  0
  -29.4056  -25.9899   18.5800 C   0  0  0  0  0  0  0  0  0  1  0  0
  -26.9997  -32.2375   24.3411 C   0  0  1  0  0  0  0  0  0  0  0  0
  -23.5907  -33.2803   23.0523 C   0  0  2  0  0  0  0  0  0  0  0  0
  -27.3082  -32.2397   25.8650 C   0  0  0  0  0  0  0  0  0  0  0  0
  -25.8450  -11.6814   20.2507 N   0  0  0  0  0  0  0  0  0  0  0  0
  -31.7626  -16.7309   23.3961 N   0  0  0  0  0  0  0  0  0  0  0  0
  -26.1605  -12.9876   20.2710 N   0  0  0  0  0  0  0  0  0  0  0  0
  -28.7204  -32.0324   22.5744 N   0  0  0  0  0  0  0  0  0  0  0  0
  -29.8741  -13.8911   20.4211 N   0  0  0  0  0  0  0  0  0  0  0  0
  -25.3157  -15.1262   20.8396 N   0  0  0  0  0  0  0  0  0  0  0  0
  -21.9057  -12.3508   21.8716 N   0  0  0  0  0  0  0  0  0  0  0  0
  -30.5786  -21.9955   19.9220 N   0  0  0  0  0  0  0  0  0  0  0  0
  -32.2061  -32.7879   22.6697 N   0  0  0  0  0  0  0  0  0  0  0  0
  -25.7796  -32.9499   23.9775 N   0  0  0  0  0  0  0  0  0  0  0  0
  -22.9232  -32.9480   21.7620 N   0  3  0  0  0  0  0  0  0  0  0  0
  -22.5752  -14.5437   21.8331 O   0  0  0  0  0  0  0  0  0  0  0  0
  -31.0115  -30.8600   23.1974 O   0  0  0  0  0  0  0  0  0  0  0  0
  -31.7552  -15.2544   20.4761 O   0  0  0  0  0  0  0  0  0  0  0  0
  -28.4189  -34.0364   23.7275 O   0  0  0  0  0  0  0  0  0  0  0  0
  -24.7303  -31.1521   22.9558 O   0  0  0  0  0  0  0  0  0  0  0  0
  -21.8717   -6.8119   21.2753 O   0  0  0  0  0  0  0  0  0  0  0  0
  -28.5060  -26.7645   19.3719 O   0  0  0  0  0  0  0  0  0  1  0  0
  -19.1395   -5.9249   25.9820 F   0  0  0  0  0  0  0  0  0  0  0  0
  -31.4804  -19.3495   23.7886 F   0  0  0  0  0  0  0  0  0  0  0  0
  -22.5038   -4.6660   22.8995 F   0  0  0  0  0  0  0  0  0  0  0  0
  1  2  1  0  0  0  0
  1  6  2  0  0  0  0
  2  7  2  0  0  0  0
  3 10  2  0  0  0  0
  3 18  1  0  0  0  0
  4 11  1  0  0  0  0
  4 18  2  0  0  0  0
  5  9  2  0  0  0  0
  5 19  1  0  0  0  0
  6 21  1  0  0  0  0
  7 23  1  0  0  0  0
  8 12  2  0  0  0  0
  8 22  1  0  0  0  0
  9 25  1  0  0  0  0
 10 26  1  0  0  0  0
 11 26  2  0  0  0  0
 12 27  1  0  0  0  0
 13 14  2  0  0  0  0
 13 28  1  0  0  0  0
 14 29  1  0  0  0  0
 15 24  1  0  0  0  0
 15 27  2  0  0  0  0
 16 25  2  0  0  0  0
 16 30  1  0  0  0  0
 17 29  2  0  0  0  0
 17 31  1  0  0  0  0
 18 32  1  0  0  0  0
 19 30  2  0  0  0  0
 19 34  1  0  0  0  0
 20 32  1  0  0  0  0
 20 33  2  0  0  0  0
 20 35  1  0  0  0  0
 21 23  2  0  0  0  0
 21 40  1  0  0  0  0
 22 24  2  0  0  0  0
 22 41  1  0  0  0  0
 23 49  1  0  0  0  0
 24 42  1  0  0  0  0
 25 72  1  0  0  0  0
 26 81  1  0  0  0  0
 27 82  1  0  0  0  0
 28 31  2  0  0  0  0
 28 81  1  0  0  0  0
 29 83  1  0  0  0  0
 30 84  1  0  0  0  0
 31 85  1  0  0  0  0
 32 65  2  0  0  0  0
 33 67  1  0  0  0  0
 33 70  1  0  0  0  0
 34 57  1  0  0  0  0
 34 66  2  0  0  0  0
 35 71  1  0  0  0  0
 35 76  2  0  0  0  0
 36 50  1  0  0  0  0
 36 73  1  0  0  0  0
 36 77  2  0  0  0  0
 37 57  1  0  0  0  0
 37 69  1  0  0  0  0
 37 78  2  0  0  0  0
 38 62  1  0  0  0  0
 38 68  1  0  0  0  0
 38 79  2  0  0  0  0
 39 63  1  0  0  0  0
 39 74  1  0  0  0  0
 39 80  2  0  0  0  0
 40 43  1  0  0  0  0
 41 50  1  0  0  0  0
 42 68  1  0  0  0  0
 43 45  1  0  0  0  0
 44 46  1  0  0  0  0
 44 47  1  0  0  0  0
 45 49  1  0  0  0  0
 46 51  1  0  0  0  0
 47 69  1  0  0  0  0
 48 51  1  0  0  0  0
 48 69  1  0  0  0  0
 49 73  1  0  0  0  0
 50 68  1  0  0  0  0
 51 67  1  0  0  0  0
 52 63  1  0  0  0  0
 53 64  1  0  0  0  0
 54 64  1  0  0  0  0
 55 64  1  0  0  0  0
 56 75  1  0  0  0  0
 58 59  1  0  0  0  0
 58 60  1  0  0  0  0
 59 61  1  0  0  0  0
 60 72  1  0  0  0  0
 61 82  1  0  0  0  0
 62 64  1  0  0  0  0
 62 74  1  0  0  0  0
 63 75  1  0  0  0  0
 65 67  1  0  0  0  0
M  CHG  1  75   1
M  ISO  4  37 100  57 100  61 101  82 101
M  END
> <Batch ID>
0102

> <Smiles>
CNC(C)C(=O)NC(C(=O)N1Cc2cc([101O:1][101CH2:1]CCCNc3ccc(C(=N)[100CH2:0][100C:0](=O)N4CCCC(n5nc(-c6ccc(Oc7ccc(F)cc7F)cc6)c(C(N)=O)c5N)C4)c(F)c3)ccc2CC1C(=O)NC1CCCc2ccccc21)C(C)(C)C

> <Shape>
0.308

> <Color>
0.195

> <Negative vol penalty>
0.000

$$$$

  -OEChem-04052301023D

 84 92  0     1  0  0  0  0  0999 V2000
  -29.3003  -29.4703   27.0256 C   0  0  0  0  0  0  0  0  0  0  0  0
  -28.9586  -28.7139   25.9091 C   0  0  0  0  0  0  0  0  0  0  0  0
  -24.5875   -8.2338   20.5690 C   0  0  0  0  0  0  0  0  0  0  0  0
  -23.3395  -10.2863   20.8275 C   0  0  0  0  0  0  0  0  0  0  0  0
  -28.3178  -30.1859   27.7086 C   0  0  0  0  0  0  0  0  0  0  0  0
  -27.6339  -28.6718   25.4756 C   0  0  0  0  0  0  0  0  0  0  0  0
  -27.2153  -29.1905   20.4556 C   0  0  0  0  0  0  0  0  0  0  0  0
  -23.4745   -7.5044   20.9872 C   0  0  0  0  0  0  0  0  0  0  0  0
  -22.2265   -9.5570   21.2457 C   0  0  0  0  0  0  0  0  0  0  0  0
  -27.4990  -28.0714   19.6740 C   0  0  0  0  0  0  0  0  0  0  0  0
  -21.9530   -6.7374   23.9063 C   0  0  0  0  0  0  0  0  0  0  0  0
  -22.1591   -5.7181   24.8359 C   0  0  0  0  0  0  0  0  0  0  0  0
  -25.1369  -27.6337   19.4541 C   0  0  0  0  0  0  0  0  0  0  0  0
  -30.5416  -18.1105   20.6270 C   0  0  0  0  0  0  0  0  0  0  0  0
  -29.5045  -18.8776   18.1534 C   0  0  0  0  0  0  0  0  0  0  0  0
  -21.2812   -4.1071   23.2639 C   0  0  0  0  0  0  0  0  0  0  0  0
  -24.5200   -9.6248   20.4892 C   0  0  0  0  0  0  0  0  0  0  0  0
  -25.9996  -10.7458   18.7394 C   0  0  0  0  0  0  0  0  0  0  0  0
  -26.9820  -30.1603   27.2776 C   0  0  0  0  0  0  0  0  0  0  0  0
  -25.8883  -29.5339   20.7519 C   0  0  0  0  0  0  0  0  0  0  0  0
  -26.6324  -29.3867   26.1543 C   0  0  0  0  0  0  0  0  0  0  0  0
  -24.8390  -28.7591   20.2376 C   0  0  0  0  0  0  0  0  0  0  0  0
  -30.6220  -19.4422   20.2198 C   0  0  0  0  0  0  0  0  0  0  0  0
  -29.9427  -17.1624   19.7975 C   0  0  0  0  0  0  0  0  0  0  0  0
  -22.2940   -8.1660   21.3255 C   0  0  0  0  0  0  0  0  0  0  0  0
  -26.4599  -27.2911   19.1755 C   0  0  0  0  0  0  0  0  0  0  0  0
  -21.4110   -6.4416   22.6555 C   0  0  0  0  0  0  0  0  0  0  0  0
  -30.1035  -19.8257   18.9830 C   0  0  0  0  0  0  0  0  0  0  0  0
  -21.8232   -4.4029   24.5147 C   0  0  0  0  0  0  0  0  0  0  0  0
  -29.4242  -17.5460   18.5607 C   0  0  0  0  0  0  0  0  0  0  0  0
  -21.0751   -5.1264   22.3344 C   0  0  0  0  0  0  0  0  0  0  0  0
  -25.6695  -10.3789   20.0578 C   0  0  0  0  0  0  0  0  0  0  0  0
  -27.1749  -11.4459   18.8618 C   0  0  0  0  0  0  0  0  0  0  0  0
  -25.3058  -10.4778   17.5136 C   0  0  0  0  0  0  0  0  0  0  0  0
  -24.1801  -29.7912   23.4202 C   0  0  0  0  0  0  0  0  0  0  0  0
  -21.9170  -30.9369   21.3983 C   0  0  0  0  0  0  0  0  0  0  0  0
  -20.6734  -31.0806   18.2235 C   0  0  0  0  0  0  0  0  0  0  0  0
  -30.3271  -15.2643   21.4087 C   0  0  0  0  0  0  0  0  0  0  0  0
  -25.9470  -30.9123   28.0762 C   0  0  0  0  0  0  0  0  0  0  0  0
  -25.5981  -30.7595   21.5742 C   0  0  0  0  0  0  0  0  0  0  0  0
  -23.3966  -29.0966   20.5098 C   0  0  0  0  0  0  0  0  0  0  0  0
  -24.6307  -31.1147   27.3300 C   0  0  0  0  0  0  0  0  0  0  0  0
  -30.2853  -11.9946   22.8173 C   0  0  0  0  0  0  0  0  0  0  0  0
  -24.1839  -29.8125   26.6731 C   0  0  0  0  0  0  0  0  0  0  0  0
  -29.1079  -11.3129   22.1165 C   0  0  0  0  0  0  0  0  0  0  0  0
  -30.0024  -13.4696   23.0965 C   0  0  0  0  0  0  0  0  0  0  0  0
  -28.4000  -13.5705   21.2279 C   0  0  0  0  0  0  0  0  0  0  0  0
  -25.2106  -29.3358   25.6386 C   0  0  1  0  0  0  0  0  0  0  0  0
  -24.2264  -30.7208   22.2407 C   0  0  1  0  0  0  0  0  0  0  0  0
  -28.6635  -12.0993   20.8676 C   0  0  2  0  0  0  0  0  0  0  0  0
  -31.2672  -20.4441   21.1193 C   0  0  0  0  0  0  0  0  0  0  0  0
  -18.7911  -32.0657   16.8879 C   0  0  0  0  0  0  0  0  0  0  0  0
  -20.0119  -28.8489   22.5476 C   0  0  0  0  0  0  0  0  0  0  0  0
  -18.5162  -29.2299   20.5763 C   0  0  0  0  0  0  0  0  0  0  0  0
  -18.9863  -31.0971   22.1623 C   0  0  0  0  0  0  0  0  0  0  0  0
  -22.5374  -32.6109   16.5082 C   0  0  0  0  0  0  0  0  0  0  0  0
  -27.8168  -24.0414   18.3249 C   0  0  0  0  0  0  0  0  0  0  0  0
  -29.1017  -23.2697   18.6045 C   0  0  0  0  0  0  0  0  0  0  0  0
  -27.9616  -25.5175   18.6707 C   0  0  0  0  0  0  0  0  0  1  0  0
  -28.9444  -21.7867   18.2997 C   0  0  0  0  0  0  0  0  0  0  0  0
  -20.8034  -30.3253   20.5829 C   0  0  1  0  0  0  0  0  0  0  0  0
  -20.2210  -32.2523   17.3709 C   0  0  2  0  0  0  0  0  0  0  0  0
  -19.6066  -29.8676   21.4636 C   0  0  0  0  0  0  0  0  0  0  0  0
  -26.5630  -10.8101   20.9520 N   0  0  0  0  0  0  0  0  0  0  0  0
  -27.4661  -11.4552   20.1942 N   0  0  0  0  0  0  0  0  0  0  0  0
  -23.1643  -30.3010   21.3241 N   0  0  0  0  0  0  0  0  0  0  0  0
  -29.5911  -14.1513   21.8672 N   0  0  0  0  0  0  0  0  0  0  0  0
  -27.9773  -12.0484   17.9587 N   0  0  0  0  0  0  0  0  0  0  0  0
  -24.1126   -9.7446   17.5677 N   0  0  0  0  0  0  0  0  0  0  0  0
  -29.8620  -15.8101   20.2127 N   0  0  0  0  0  0  0  0  0  0  0  0
  -25.0877  -30.0995   24.4155 N   0  0  0  0  0  0  0  0  0  0  0  0
  -20.4541  -31.3105   19.5652 N   0  0  0  0  0  0  0  0  0  0  0  0
  -21.1044  -32.3976   16.1795 N   0  3  0  0  0  0  0  0  0  0  0  0
  -25.7400  -10.8626   16.4014 O   0  0  0  0  0  0  0  0  0  0  0  0
  -23.3793  -28.8636   23.4274 O   0  0  0  0  0  0  0  0  0  0  0  0
  -21.6903  -31.9461   22.0705 O   0  0  0  0  0  0  0  0  0  0  0  0
  -21.1681  -30.0616   17.7466 O   0  0  0  0  0  0  0  0  0  0  0  0
  -31.3148  -15.6844   22.0169 O   0  0  0  0  0  0  0  0  0  0  0  0
  -21.2077   -7.4545   21.7334 O   0  0  0  0  0  0  0  0  0  0  0  0
  -26.7340  -26.1979   18.4129 O   0  0  0  0  0  0  0  0  0  1  0  0
  -30.1757  -21.1295   18.5659 O   0  0  0  0  0  0  0  0  0  0  0  0
  -22.0225   -3.4240   25.4069 F   0  0  0  0  0  0  0  0  0  0  0  0
  -28.8486  -16.6425   17.7545 F   0  0  0  0  0  0  0  0  0  0  0  0
  -20.5551   -4.8359   21.1339 F   0  0  0  0  0  0  0  0  0  0  0  0
  1  2  1  0  0  0  0
  1  5  2  0  0  0  0
  2  6  2  0  0  0  0
  3  8  2  0  0  0  0
  3 17  1  0  0  0  0
  4  9  1  0  0  0  0
  4 17  2  0  0  0  0
  5 19  1  0  0  0  0
  6 21  1  0  0  0  0
  7 10  2  0  0  0  0
  7 20  1  0  0  0  0
  8 25  1  0  0  0  0
  9 25  2  0  0  0  0
 10 26  1  0  0  0  0
 11 12  2  0  0  0  0
 11 27  1  0  0  0  0
 12 29  1  0  0  0  0
 13 22  1  0  0  0  0
 13 26  2  0  0  0  0
 14 23  1  0  0  0  0
 14 24  2  0  0  0  0
 15 28  1  0  0  0  0
 15 30  2  0  0  0  0
 16 29  2  0  0  0  0
 16 31  1  0  0  0  0
 17 32  1  0  0  0  0
 18 32  1  0  0  0  0
 18 33  2  0  0  0  0
 18 34  1  0  0  0  0
 19 21  2  0  0  0  0
 19 39  1  0  0  0  0
 20 22  2  0  0  0  0
 20 40  1  0  0  0  0
 21 48  1  0  0  0  0
 22 41  1  0  0  0  0
 23 28  2  0  0  0  0
 23 51  1  0  0  0  0
 24 30  1  0  0  0  0
 24 70  1  0  0  0  0
 25 79  1  0  0  0  0
 26 80  1  0  0  0  0
 27 31  2  0  0  0  0
 27 79  1  0  0  0  0
 28 81  1  0  0  0  0
 29 82  1  0  0  0  0
 30 83  1  0  0  0  0
 31 84  1  0  0  0  0
 32 64  2  0  0  0  0
 33 65  1  0  0  0  0
 33 68  1  0  0  0  0
 34 69  1  0  0  0  0
 34 74  2  0  0  0  0
 35 49  1  0  0  0  0
 35 71  1  0  0  0  0
 35 75  2  0  0  0  0
 36 61  1  0  0  0  0
 36 66  1  0  0  0  0
 36 76  2  0  0  0  0
 37 62  1  0  0  0  0
 37 72  1  0  0  0  0
 37 77  2  0  0  0  0
 38 67  1  0  0  0  0
 38 70  1  0  0  0  0
 38 78  2  0  0  0  0
 39 42  1  0  0  0  0
 40 49  1  0  0  0  0
 41 66  1  0  0  0  0
 42 44  1  0  0  0  0
 43 45  1  0  0  0  0
 43 46  1  0  0  0  0
 44 48  1  0  0  0  0
 45 50  1  0  0  0  0
 46 67  1  0  0  0  0
 47 50  1  0  0  0  0
 47 67  1  0  0  0  0
 48 71  1  0  0  0  0
 49 66  1  0  0  0  0
 50 65  1  0  0  0  0
 52 62  1  0  0  0  0
 53 63  1  0  0  0  0
 54 63  1  0  0  0  0
 55 63  1  0  0  0  0
 56 73  1  0  0  0  0
 57 58  1  0  0  0  0
 57 59  1  0  0  0  0
 58 60  1  0  0  0  0
 59 80  1  0  0  0  0
 60 81  1  0  0  0  0
 61 63  1  0  0  0  0
 61 72  1  0  0  0  0
 62 73  1  0  0  0  0
 64 65  1  0  0  0  0
M  CHG  1  73   1
M  ISO  4  38 100  59 101  70 100  80 101
M  END
> <Batch ID>
0102

> <Smiles>
CNC(C)C(=O)NC(C(=O)N1Cc2cc([101O:1][101CH2:1]CCCOc3cc(F)c([100NH:0][100C:0](=O)N4CCCC(n5nc(-c6ccc(Oc7ccc(F)cc7F)cc6)c(C(N)=O)c5N)C4)cc3C)ccc2CC1C(=O)NC1CCCc2ccccc21)C(C)(C)C

> <Shape>
0.286

> <Color>
0.109

> <Negative vol penalty>
0.000

$$$$

  -OEChem-04052301023D

 85 93  0     1  0  0  0  0  0999 V2000
  -19.9859  -10.1304   22.6757 C   0  0  0  0  0  0  0  0  0  0  0  0
  -20.7690  -11.0276   23.3949 C   0  0  0  0  0  0  0  0  0  0  0  0
  -22.4450  -27.8096   19.4669 C   0  0  0  0  0  0  0  0  0  0  0  0
  -22.9591  -27.6702   21.8235 C   0  0  0  0  0  0  0  0  0  0  0  0
  -20.5453   -9.4059   21.6241 C   0  0  0  0  0  0  0  0  0  0  0  0
  -22.1124  -11.2000   23.0635 C   0  0  0  0  0  0  0  0  0  0  0  0
  -23.4737  -16.0762   22.9447 C   0  0  0  0  0  0  0  0  0  0  0  0
  -21.0855  -27.6945   19.7567 C   0  0  0  0  0  0  0  0  0  0  0  0
  -21.5995  -27.5551   22.1132 C   0  0  0  0  0  0  0  0  0  0  0  0
  -23.7027  -16.7033   24.1686 C   0  0  0  0  0  0  0  0  0  0  0  0
  -18.9250  -29.6060   22.3611 C   0  0  0  0  0  0  0  0  0  0  0  0
  -18.4207  -30.3724   23.4117 C   0  0  0  0  0  0  0  0  0  0  0  0
  -27.2995  -23.6547   23.5400 C   0  0  0  0  0  0  0  0  0  0  0  0
  -26.0784  -16.4153   23.8650 C   0  0  0  0  0  0  0  0  0  0  0  0
  -27.6196  -20.9105   23.9269 C   0  0  0  0  0  0  0  0  0  0  0  0
  -17.7352  -28.3564   24.5533 C   0  0  0  0  0  0  0  0  0  0  0  0
  -23.3819  -27.7974   20.5003 C   0  0  0  0  0  0  0  0  0  0  0  0
  -28.3907  -22.9935   22.9763 C   0  0  0  0  0  0  0  0  0  0  0  0
  -25.5387  -29.1019   20.1079 C   0  0  0  0  0  0  0  0  0  0  0  0
  -21.8938   -9.5766   21.2733 C   0  0  0  0  0  0  0  0  0  0  0  0
  -24.5467  -15.6034   22.1755 C   0  0  0  0  0  0  0  0  0  0  0  0
  -22.6908  -10.4761   22.0069 C   0  0  0  0  0  0  0  0  0  0  0  0
  -25.8605  -15.7849   22.6304 C   0  0  0  0  0  0  0  0  0  0  0  0
  -28.5507  -21.6214   23.1697 C   0  0  0  0  0  0  0  0  0  0  0  0
  -20.6627  -27.5673   21.0798 C   0  0  0  0  0  0  0  0  0  0  0  0
  -25.0050  -16.8704   24.6303 C   0  0  0  0  0  0  0  0  0  0  0  0
  -18.8343  -28.2148   22.4064 C   0  0  0  0  0  0  0  0  0  0  0  0
  -26.3685  -22.9438   24.2973 C   0  0  0  0  0  0  0  0  0  0  0  0
  -26.5285  -21.5717   24.4907 C   0  0  0  0  0  0  0  0  0  0  0  0
  -17.8259  -29.7477   24.5078 C   0  0  0  0  0  0  0  0  0  0  0  0
  -18.2394  -27.5900   23.5025 C   0  0  0  0  0  0  0  0  0  0  0  0
  -24.7865  -27.9156   20.2016 C   0  0  0  0  0  0  0  0  0  0  0  0
  -26.8103  -28.6792   19.8064 C   0  0  0  0  0  0  0  0  0  0  0  0
  -29.3489  -23.7603   22.1913 C   0  0  0  0  0  0  0  0  0  0  0  0
  -25.1251  -30.4641   20.2783 C   0  0  0  0  0  0  0  0  0  0  0  0
  -29.6048  -23.4443   20.7673 C   0  0  0  0  0  0  0  0  0  0  0  0
  -25.4708  -12.7470   21.1311 C   0  0  0  0  0  0  0  0  0  0  0  0
  -27.7043  -14.4824   19.5430 C   0  0  0  0  0  0  0  0  0  0  0  0
  -29.5303  -17.3582   19.3357 C   0  0  0  0  0  0  0  0  0  0  0  0
  -22.4662   -8.7364   20.1593 C   0  0  0  0  0  0  0  0  0  0  0  0
  -24.2843  -14.9530   20.8449 C   0  0  0  0  0  0  0  0  0  0  0  0
  -27.0481  -15.3134   21.8330 C   0  0  0  0  0  0  0  0  0  0  0  0
  -23.8018   -9.2534   19.6309 C   0  0  0  0  0  0  0  0  0  0  0  0
  -29.1772  -25.1427   17.6385 C   0  0  0  0  0  0  0  0  0  0  0  0
  -24.7362   -9.5968   20.7867 C   0  0  0  0  0  0  0  0  0  0  0  0
  -28.0439  -26.1278   17.9235 C   0  0  0  0  0  0  0  0  0  0  0  0
  -28.9945  -23.8421   18.4140 C   0  0  0  0  0  0  0  0  0  0  0  0
  -27.7157  -25.0219   20.1807 C   0  0  0  0  0  0  0  0  0  0  0  0
  -24.1457  -10.7091   21.6617 C   0  0  1  0  0  0  0  0  0  0  0  0
  -25.4255  -14.0507   20.3855 C   0  0  1  0  0  0  0  0  0  0  0  0
  -27.8803  -26.3585   19.4363 C   0  0  2  0  0  0  0  0  0  0  0  0
  -29.7103  -20.8888   22.5775 C   0  0  0  0  0  0  0  0  0  0  0  0
  -31.3016  -18.4713   17.9498 C   0  0  0  0  0  0  0  0  0  0  0  0
  -29.8197  -12.6809   20.8039 C   0  0  0  0  0  0  0  0  0  0  0  0
  -31.5446  -14.3824   20.1732 C   0  0  0  0  0  0  0  0  0  0  0  0
  -30.2203  -13.2344   18.3981 C   0  0  0  0  0  0  0  0  0  0  0  0
  -27.7386  -19.6102   18.6452 C   0  0  0  0  0  0  0  0  0  0  0  0
  -25.2174  -25.0031   24.5972 C   0  0  0  0  0  0  0  0  0  0  0  0
  -24.9746  -19.5048   27.1144 C   0  0  0  0  0  0  0  0  0  0  0  0
  -24.2875  -18.4690   26.2384 C   0  0  0  0  0  0  0  0  0  1  0  0
  -26.1165  -20.1975   26.3874 C   0  0  0  0  0  0  0  0  0  0  0  0
  -29.0986  -14.9708   19.8537 C   0  0  1  0  0  0  0  0  0  0  0  0
  -29.8078  -18.2935   18.1727 C   0  0  2  0  0  0  0  0  0  0  0  0
  -30.1485  -13.8244   19.8234 C   0  0  0  0  0  0  0  0  0  0  0  0
  -25.5190  -26.8215   19.9776 N   0  0  0  0  0  0  0  0  0  0  0  0
  -30.0329  -24.7592   22.6768 N   0  0  0  0  0  0  0  0  0  0  0  0
  -26.7449  -27.3185   19.7400 N   0  0  0  0  0  0  0  0  0  0  0  0
  -28.8059  -24.0991   19.8403 N   0  0  0  0  0  0  0  0  0  0  0  0
  -26.7395  -14.6777   20.5414 N   0  0  0  0  0  0  0  0  0  0  0  0
  -27.9668  -29.3424   19.5941 N   0  0  0  0  0  0  0  0  0  0  0  0
  -23.7820  -30.7210   20.5857 N   0  0  0  0  0  0  0  0  0  0  0  0
  -24.3150  -11.9973   21.0243 N   0  0  0  0  0  0  0  0  0  0  0  0
  -29.3701  -16.0546   18.9157 N   0  0  0  0  0  0  0  0  0  0  0  0
  -29.2085  -19.6333   18.4311 N   0  3  0  0  0  0  0  0  0  0  0  0
  -25.9193  -31.4259   20.1452 O   0  0  0  0  0  0  0  0  0  0  0  0
  -30.4985  -22.6341   20.5592 O   0  0  0  0  0  0  0  0  0  0  0  0
  -26.4803  -12.4431   21.7558 O   0  0  0  0  0  0  0  0  0  0  0  0
  -27.4780  -13.9538   18.4516 O   0  0  0  0  0  0  0  0  0  0  0  0
  -29.4661  -17.7446   20.5006 O   0  0  0  0  0  0  0  0  0  0  0  0
  -19.3361  -27.4552   21.3629 O   0  0  0  0  0  0  0  0  0  0  0  0
  -25.3071  -23.6010   24.8426 O   0  0  0  0  0  0  0  0  0  0  0  0
  -25.2312  -17.4816   25.8249 O   0  0  0  0  0  0  0  0  0  1  0  0
  -25.6207  -20.8627   25.2336 O   0  0  0  0  0  0  0  0  0  0  0  0
  -17.3430  -30.4837   25.5174 F   0  0  0  0  0  0  0  0  0  0  0  0
  -18.1505  -26.2538   23.5523 F   0  0  0  0  0  0  0  0  0  0  0  0
  1  2  1  0  0  0  0
  1  5  2  0  0  0  0
  2  6  2  0  0  0  0
  3  8  2  0  0  0  0
  3 17  1  0  0  0  0
  4  9  1  0  0  0  0
  4 17  2  0  0  0  0
  5 20  1  0  0  0  0
  6 22  1  0  0  0  0
  7 10  2  0  0  0  0
  7 21  1  0  0  0  0
  8 25  1  0  0  0  0
  9 25  2  0  0  0  0
 10 26  1  0  0  0  0
 11 12  2  0  0  0  0
 11 27  1  0  0  0  0
 12 30  1  0  0  0  0
 13 18  2  0  0  0  0
 13 28  1  0  0  0  0
 14 23  1  0  0  0  0
 14 26  2  0  0  0  0
 15 24  2  0  0  0  0
 15 29  1  0  0  0  0
 16 30  2  0  0  0  0
 16 31  1  0  0  0  0
 17 32  1  0  0  0  0
 18 24  1  0  0  0  0
 18 34  1  0  0  0  0
 19 32  1  0  0  0  0
 19 33  2  0  0  0  0
 19 35  1  0  0  0  0
 20 22  2  0  0  0  0
 20 40  1  0  0  0  0
 21 23  2  0  0  0  0
 21 41  1  0  0  0  0
 22 49  1  0  0  0  0
 23 42  1  0  0  0  0
 24 52  1  0  0  0  0
 25 80  1  0  0  0  0
 26 82  1  0  0  0  0
 27 31  2  0  0  0  0
 27 80  1  0  0  0  0
 28 29  2  0  0  0  0
 28 81  1  0  0  0  0
 29 83  1  0  0  0  0
 30 84  1  0  0  0  0
 31 85  1  0  0  0  0
 32 65  2  0  0  0  0
 33 67  1  0  0  0  0
 33 70  1  0  0  0  0
 34 36  1  0  0  0  0
 34 66  2  0  0  0  0
 35 71  1  0  0  0  0
 35 75  2  0  0  0  0
 36 68  1  0  0  0  0
 36 76  2  0  0  0  0
 37 50  1  0  0  0  0
 37 72  1  0  0  0  0
 37 77  2  0  0  0  0
 38 62  1  0  0  0  0
 38 69  1  0  0  0  0
 38 78  2  0  0  0  0
 39 63  1  0  0  0  0
 39 73  1  0  0  0  0
 39 79  2  0  0  0  0
 40 43  1  0  0  0  0
 41 50  1  0  0  0  0
 42 69  1  0  0  0  0
 43 45  1  0  0  0  0
 44 46  1  0  0  0  0
 44 47  1  0  0  0  0
 45 49  1  0  0  0  0
 46 51  1  0  0  0  0
 47 68  1  0  0  0  0
 48 51  1  0  0  0  0
 48 68  1  0  0  0  0
 49 72  1  0  0  0  0
 50 69  1  0  0  0  0
 51 67  1  0  0  0  0
 53 63  1  0  0  0  0
 54 64  1  0  0  0  0
 55 64  1  0  0  0  0
 56 64  1  0  0  0  0
 57 74  1  0  0  0  0
 58 81  1  0  0  0  0
 59 60  1  0  0  0  0
 59 61  1  0  0  0  0
 60 82  1  0  0  0  0
 61 83  1  0  0  0  0
 62 64  1  0  0  0  0
 62 73  1  0  0  0  0
 63 74  1  0  0  0  0
 65 67  1  0  0  0  0
M  CHG  1  74   1
M  ISO  4  34 100  36 100  60 101  82 101
M  END
> <Batch ID>
0102

> <Smiles>
CNC(C)C(=O)NC(C(=O)N1Cc2cc([101O:1][101CH2:1]CCOc3cc(C)c([100C:0](=N)[100C:0](=O)N4CCCC(n5nc(-c6ccc(Oc7ccc(F)cc7F)cc6)c(C(N)=O)c5N)C4)cc3OC)ccc2CC1C(=O)NC1CCCc2ccccc21)C(C)(C)C

> <Shape>
0.271

> <Color>
0.050

> <Negative vol penalty>
0.000

$$$$

  -OEChem-04052301023D

 85 93  0     1  0  0  0  0  0999 V2000
  -25.8804  -23.0320   21.9051 C   0  0  0  0  0  0  0  0  0  0  0  0
  -25.7378  -22.2803   20.7443 C   0  0  0  0  0  0  0  0  0  0  0  0
  -26.9139  -28.5223   19.2611 C   0  0  0  0  0  0  0  0  0  0  0  0
  -26.0015  -27.4709   21.2358 C   0  0  0  0  0  0  0  0  0  0  0  0
  -26.2779  -22.4122   23.0879 C   0  0  0  0  0  0  0  0  0  0  0  0
  -25.9811  -20.9066   20.7686 C   0  0  0  0  0  0  0  0  0  0  0  0
  -26.6144  -15.0200   16.7242 C   0  0  0  0  0  0  0  0  0  0  0  0
  -32.3169  -16.7588   19.8204 C   0  0  0  0  0  0  0  0  0  0  0  0
  -32.1496  -15.4967   19.2506 C   0  0  0  0  0  0  0  0  0  0  0  0
  -25.7014  -29.1790   19.0506 C   0  0  0  0  0  0  0  0  0  0  0  0
  -24.7891  -28.1277   21.0253 C   0  0  0  0  0  0  0  0  0  0  0  0
  -27.4654  -13.9778   16.3590 C   0  0  0  0  0  0  0  0  0  0  0  0
  -22.0771  -27.7751   19.0375 C   0  0  0  0  0  0  0  0  0  0  0  0
  -20.9053  -27.0295   19.1662 C   0  0  0  0  0  0  0  0  0  0  0  0
  -26.9805  -12.8603   18.4412 C   0  0  0  0  0  0  0  0  0  0  0  0
  -30.2737  -15.0837   20.7161 C   0  0  0  0  0  0  0  0  0  0  0  0
  -20.1640  -28.4997   20.9343 C   0  0  0  0  0  0  0  0  0  0  0  0
  -27.0639  -27.6682   20.3537 C   0  0  0  0  0  0  0  0  0  0  0  0
  -29.4131  -27.4494   21.3237 C   0  0  0  0  0  0  0  0  0  0  0  0
  -26.5380  -21.0323   23.1229 C   0  0  0  0  0  0  0  0  0  0  0  0
  -25.9474  -14.9954   17.9575 C   0  0  0  0  0  0  0  0  0  0  0  0
  -26.3600  -20.2584   21.9581 C   0  0  0  0  0  0  0  0  0  0  0  0
  -26.1196  -13.9022   18.8186 C   0  0  0  0  0  0  0  0  0  0  0  0
  -31.4627  -17.1834   20.8381 C   0  0  0  0  0  0  0  0  0  0  0  0
  -31.1280  -14.6592   19.6984 C   0  0  0  0  0  0  0  0  0  0  0  0
  -24.6391  -28.9818   19.9327 C   0  0  0  0  0  0  0  0  0  0  0  0
  -27.6508  -12.8991   17.2188 C   0  0  0  0  0  0  0  0  0  0  0  0
  -22.2924  -28.8830   19.8572 C   0  0  0  0  0  0  0  0  0  0  0  0
  -19.9487  -27.3918   20.1145 C   0  0  0  0  0  0  0  0  0  0  0  0
  -30.4411  -16.3458   21.2859 C   0  0  0  0  0  0  0  0  0  0  0  0
  -21.3359  -29.2453   20.8056 C   0  0  0  0  0  0  0  0  0  0  0  0
  -28.3159  -26.9891   20.5714 C   0  0  0  0  0  0  0  0  0  0  0  0
  -30.3452  -26.4458   21.2210 C   0  0  0  0  0  0  0  0  0  0  0  0
  -29.5753  -28.6746   22.0504 C   0  0  0  0  0  0  0  0  0  0  0  0
  -25.9553  -16.8359   20.5490 C   0  0  0  0  0  0  0  0  0  0  0  0
  -23.5440  -14.8732   21.4741 C   0  0  0  0  0  0  0  0  0  0  0  0
  -31.7157  -12.7978   18.1070 C   0  0  0  0  0  0  0  0  0  0  0  0
  -22.0169  -11.8332   21.2029 C   0  0  0  0  0  0  0  0  0  0  0  0
  -30.6081  -20.7604   21.0828 C   0  0  0  0  0  0  0  0  0  0  0  0
  -26.9580  -20.4115   24.4319 C   0  0  0  0  0  0  0  0  0  0  0  0
  -25.0122  -16.1146   18.3250 C   0  0  0  0  0  0  0  0  0  0  0  0
  -25.4110  -13.8182   20.1449 C   0  0  0  0  0  0  0  0  0  0  0  0
  -27.6178  -19.0474   24.2583 C   0  0  0  0  0  0  0  0  0  0  0  0
  -31.1103  -22.7085   18.0744 C   0  0  0  0  0  0  0  0  0  0  0  0
  -26.7622  -18.1667   23.3600 C   0  0  0  0  0  0  0  0  0  0  0  0
  -30.5424  -24.0659   18.4928 C   0  0  0  0  0  0  0  0  0  0  0  0
  -30.2938  -21.5622   18.6639 C   0  0  0  0  0  0  0  0  0  0  0  0
  -29.5876  -22.9593   20.5673 C   0  0  0  0  0  0  0  0  0  0  0  0
  -26.6487  -18.7682   21.9535 C   0  0  1  0  0  0  0  0  0  0  0  0
  -24.7829  -16.2323   19.8287 C   0  0  1  0  0  0  0  0  0  0  0  0
  -30.3828  -24.1594   20.0218 C   0  0  2  0  0  0  0  0  0  0  0  0
  -20.0891  -10.5091   22.1125 C   0  0  0  0  0  0  0  0  0  0  0  0
  -25.1016  -14.3804   24.0512 C   0  0  0  0  0  0  0  0  0  0  0  0
  -23.6472  -12.3852   24.4665 C   0  0  0  0  0  0  0  0  0  0  0  0
  -22.6360  -14.6632   24.3602 C   0  0  0  0  0  0  0  0  0  0  0  0
  -20.7669  -11.5984   18.5306 C   0  0  0  0  0  0  0  0  0  0  0  0
  -31.6438  -18.5346   21.4434 C   0  0  0  0  0  0  0  0  0  0  0  0
  -31.1957  -11.4038   17.7842 C   0  0  0  0  0  0  0  0  0  0  0  0
  -30.7398  -11.2678   16.3356 C   0  0  0  0  0  0  0  0  0  0  0  0
  -29.5839  -12.2058   16.0195 C   0  0  0  0  0  0  0  0  0  1  0  0
  -23.4569  -13.5710   22.2329 C   0  0  1  0  0  0  0  0  0  0  0  0
  -20.5598  -11.4511   21.0154 C   0  0  2  0  0  0  0  0  0  0  0  0
  -23.7254  -13.7521   23.7536 C   0  0  0  0  0  0  0  0  0  0  0  0
  -28.5296  -25.7866   20.0305 N   0  0  0  0  0  0  0  0  0  0  0  0
  -29.7720  -25.4830   20.4434 N   0  0  0  0  0  0  0  0  0  0  0  0
  -24.5120  -14.9401   20.4620 N   0  0  0  0  0  0  0  0  0  0  0  0
  -30.1956  -21.7004   20.1238 N   0  0  0  0  0  0  0  0  0  0  0  0
  -31.5909  -26.3018   21.7207 N   0  0  0  0  0  0  0  0  0  0  0  0
  -28.5189  -29.5956   22.0518 N   0  0  0  0  0  0  0  0  0  0  0  0
  -30.9594  -13.3779   19.1216 N   0  0  0  0  0  0  0  0  0  0  0  0
  -25.6671  -18.0211   21.1984 N   0  0  0  0  0  0  0  0  0  0  0  0
  -22.1499  -13.0031   21.9204 N   0  0  0  0  0  0  0  0  0  0  0  0
  -31.1673  -19.5920   20.5799 N   0  0  0  0  0  0  0  0  0  0  0  0
  -20.3664  -10.7758   19.7010 N   0  3  0  0  0  0  0  0  0  0  0  0
  -30.6323  -28.9520   22.6665 O   0  0  0  0  0  0  0  0  0  0  0  0
  -27.0406  -16.2677   20.5192 O   0  0  0  0  0  0  0  0  0  0  0  0
  -22.7766  -15.7944   21.7638 O   0  0  0  0  0  0  0  0  0  0  0  0
  -32.6736  -13.2879   17.5185 O   0  0  0  0  0  0  0  0  0  0  0  0
  -22.9445  -11.1592   20.7605 O   0  0  0  0  0  0  0  0  0  0  0  0
  -30.4917  -20.9505   22.2983 O   0  0  0  0  0  0  0  0  0  0  0  0
  -23.4559  -29.6226   19.7277 O   0  0  0  0  0  0  0  0  0  0  0  0
  -28.4813  -11.8808   16.8650 O   0  0  0  0  0  0  0  0  0  1  0  0
  -18.8228  -26.6766   20.2369 F   0  0  0  0  0  0  0  0  0  0  0  0
  -29.6152  -16.7450   22.2632 F   0  0  0  0  0  0  0  0  0  0  0  0
  -21.5366  -30.3093   21.5952 F   0  0  0  0  0  0  0  0  0  0  0  0
  1  2  1  0  0  0  0
  1  5  2  0  0  0  0
  2  6  2  0  0  0  0
  3 10  2  0  0  0  0
  3 18  1  0  0  0  0
  4 11  1  0  0  0  0
  4 18  2  0  0  0  0
  5 20  1  0  0  0  0
  6 22  1  0  0  0  0
  7 12  2  0  0  0  0
  7 21  1  0  0  0  0
  8  9  2  0  0  0  0
  8 24  1  0  0  0  0
  9 25  1  0  0  0  0
 10 26  1  0  0  0  0
 11 26  2  0  0  0  0
 12 27  1  0  0  0  0
 13 14  2  0  0  0  0
 13 28  1  0  0  0  0
 14 29  1  0  0  0  0
 15 23  1  0  0  0  0
 15 27  2  0  0  0  0
 16 25  2  0  0  0  0
 16 30  1  0  0  0  0
 17 29  2  0  0  0  0
 17 31  1  0  0  0  0
 18 32  1  0  0  0  0
 19 32  1  0  0  0  0
 19 33  2  0  0  0  0
 19 34  1  0  0  0  0
 20 22  2  0  0  0  0
 20 40  1  0  0  0  0
 21 23  2  0  0  0  0
 21 41  1  0  0  0  0
 22 49  1  0  0  0  0
 23 42  1  0  0  0  0
 24 30  2  0  0  0  0
 24 57  1  0  0  0  0
 25 70  1  0  0  0  0
 26 81  1  0  0  0  0
 27 82  1  0  0  0  0
 28 31  2  0  0  0  0
 28 81  1  0  0  0  0
 29 83  1  0  0  0  0
 30 84  1  0  0  0  0
 31 85  1  0  0  0  0
 32 64  2  0  0  0  0
 33 65  1  0  0  0  0
 33 68  1  0  0  0  0
 34 69  1  0  0  0  0
 34 75  2  0  0  0  0
 35 50  1  0  0  0  0
 35 71  1  0  0  0  0
 35 76  2  0  0  0  0
 36 61  1  0  0  0  0
 36 66  1  0  0  0  0
 36 77  2  0  0  0  0
 37 58  1  0  0  0  0
 37 70  1  0  0  0  0
 37 78  2  0  0  0  0
 38 62  1  0  0  0  0
 38 72  1  0  0  0  0
 38 79  2  0  0  0  0
 39 67  1  0  0  0  0
 39 73  1  0  0  0  0
 39 80  2  0  0  0  0
 40 43  1  0  0  0  0
 41 50  1  0  0  0  0
 42 66  1  0  0  0  0
 43 45  1  0  0  0  0
 44 46  1  0  0  0  0
 44 47  1  0  0  0  0
 45 49  1  0  0  0  0
 46 51  1  0  0  0  0
 47 67  1  0  0  0  0
 48 51  1  0  0  0  0
 48 67  1  0  0  0  0
 49 71  1  0  0  0  0
 50 66  1  0  0  0  0
 51 65  1  0  0  0  0
 52 62  1  0  0  0  0
 53 63  1  0  0  0  0
 54 63  1  0  0  0  0
 55 63  1  0  0  0  0
 56 74  1  0  0  0  0
 57 73  1  0  0  0  0
 58 59  1  0  0  0  0
 59 60  1  0  0  0  0
 60 82  1  0  0  0  0
 61 63  1  0  0  0  0
 61 72  1  0  0  0  0
 62 74  1  0  0  0  0
 64 65  1  0  0  0  0
M  CHG  1  74   1
M  ISO  4  39 100  60 101  73 100  82 101
M  END
> <Batch ID>
0102

> <Smiles>
CNC(C)C(=O)NC(C(=O)N1Cc2cc([101O:1][101CH2:1]CCC(=O)Nc3ccc(C[100NH:0][100C:0](=O)N4CCCC(n5nc(-c6ccc(Oc7ccc(F)cc7F)cc6)c(C(N)=O)c5N)C4)c(F)c3)ccc2CC1C(=O)NC1CCCc2ccccc21)C(C)(C)C

> <Shape>
0.225

> <Color>
0.044

> <Negative vol penalty>
0.000

$$$$

  -OEChem-04052301023D

 82 90  0     1  0  0  0  0  0999 V2000
  -28.4353  -32.7061   28.2182 C   0  0  0  0  0  0  0  0  0  0  0  0
  -28.3458  -31.6820   27.2809 C   0  0  0  0  0  0  0  0  0  0  0  0
  -24.6068   -8.6828   21.4336 C   0  0  0  0  0  0  0  0  0  0  0  0
  -23.1647  -10.6099   21.2236 C   0  0  0  0  0  0  0  0  0  0  0  0
  -27.3849  -33.6115   28.3622 C   0  0  0  0  0  0  0  0  0  0  0  0
  -27.2053  -31.5621   26.4876 C   0  0  0  0  0  0  0  0  0  0  0  0
  -28.3058  -30.6897   21.6222 C   0  0  0  0  0  0  0  0  0  0  0  0
  -26.1556  -18.0367   19.7879 C   0  0  0  0  0  0  0  0  0  0  0  0
  -28.3999  -18.4803   20.5646 C   0  0  0  0  0  0  0  0  0  0  0  0
  -23.7770   -8.1705   22.4309 C   0  0  0  0  0  0  0  0  0  0  0  0
  -22.3349  -10.0975   22.2208 C   0  0  0  0  0  0  0  0  0  0  0  0
  -28.6745  -29.3905   21.2758 C   0  0  0  0  0  0  0  0  0  0  0  0
  -25.7701  -19.3223   20.1677 C   0  0  0  0  0  0  0  0  0  0  0  0
  -28.0144  -19.7659   20.9444 C   0  0  0  0  0  0  0  0  0  0  0  0
  -20.8206   -6.5402   22.6173 C   0  0  0  0  0  0  0  0  0  0  0  0
  -20.4844   -5.1882   22.5496 C   0  0  0  0  0  0  0  0  0  0  0  0
  -26.4414  -28.9805   20.4607 C   0  0  0  0  0  0  0  0  0  0  0  0
  -21.5037   -4.8265   24.7100 C   0  0  0  0  0  0  0  0  0  0  0  0
  -24.3007   -9.9026   20.8300 C   0  0  0  0  0  0  0  0  0  0  0  0
  -25.0599  -10.2084   18.4139 C   0  0  0  0  0  0  0  0  0  0  0  0
  -26.2350  -33.5084   27.5636 C   0  0  0  0  0  0  0  0  0  0  0  0
  -26.9969  -31.1413   21.4000 C   0  0  0  0  0  0  0  0  0  0  0  0
  -26.1379  -32.4662   26.6220 C   0  0  0  0  0  0  0  0  0  0  0  0
  -26.0593  -30.2867   20.8028 C   0  0  0  0  0  0  0  0  0  0  0  0
  -27.4705  -17.6157   19.9865 C   0  0  0  0  0  0  0  0  0  0  0  0
  -22.6410   -8.8778   22.8245 C   0  0  0  0  0  0  0  0  0  0  0  0
  -26.6994  -20.1869   20.7459 C   0  0  0  0  0  0  0  0  0  0  0  0
  -27.7415  -28.5347   20.6976 C   0  0  0  0  0  0  0  0  0  0  0  0
  -21.4985   -7.0354   23.7313 C   0  0  0  0  0  0  0  0  0  0  0  0
  -20.8259   -4.3313   23.5960 C   0  0  0  0  0  0  0  0  0  0  0  0
  -21.8400   -6.1786   24.7777 C   0  0  0  0  0  0  0  0  0  0  0  0
  -25.1578  -10.4326   19.8002 C   0  0  0  0  0  0  0  0  0  0  0  0
  -26.0985  -10.9280   17.8755 C   0  0  0  0  0  0  0  0  0  0  0  0
  -24.1145   -9.4203   17.6785 C   0  0  0  0  0  0  0  0  0  0  0  0
  -24.6350  -32.1752   23.2590 C   0  0  0  0  0  0  0  0  0  0  0  0
  -23.1907  -32.7871   20.4197 C   0  0  0  0  0  0  0  0  0  0  0  0
  -22.9348  -32.0878   17.0892 C   0  0  0  0  0  0  0  0  0  0  0  0
  -29.1265  -15.7349   19.7276 C   0  0  0  0  0  0  0  0  0  0  0  0
  -25.1055  -34.4823   27.7882 C   0  0  0  0  0  0  0  0  0  0  0  0
  -26.6224  -32.5541   21.7548 C   0  0  0  0  0  0  0  0  0  0  0  0
  -24.6469  -30.7295   20.5247 C   0  0  0  0  0  0  0  0  0  0  0  0
  -24.0901  -34.5107   26.6487 C   0  0  0  0  0  0  0  0  0  0  0  0
  -30.4822  -12.5399   18.9334 C   0  0  0  0  0  0  0  0  0  0  0  0
  -23.7074  -33.0920   26.2391 C   0  0  0  0  0  0  0  0  0  0  0  0
  -29.2609  -11.6176   18.9334 C   0  0  0  0  0  0  0  0  0  0  0  0
  -30.3839  -13.6113   20.0179 C   0  0  0  0  0  0  0  0  0  0  0  0
  -27.9240  -13.4777   20.0009 C   0  0  0  0  0  0  0  0  0  0  0  0
  -24.9276  -32.3180   25.7258 C   0  0  1  0  0  0  0  0  0  0  0  0
  -25.1217  -32.7420   21.9554 C   0  0  1  0  0  0  0  0  0  0  0  0
  -27.9472  -12.4222   18.8833 C   0  0  2  0  0  0  0  0  0  0  0  0
  -21.6379  -32.7230   15.0369 C   0  0  0  0  0  0  0  0  0  0  0  0
  -20.8142  -31.1552   21.4192 C   0  0  0  0  0  0  0  0  0  0  0  0
  -19.9998  -31.0231   19.0554 C   0  0  0  0  0  0  0  0  0  0  0  0
  -20.2013  -33.2399   20.1813 C   0  0  0  0  0  0  0  0  0  0  0  0
  -25.3721  -33.0292   15.6991 C   0  0  0  0  0  0  0  0  0  0  0  0
  -26.6764  -23.8123   20.7993 C   0  0  0  0  0  0  0  0  0  0  0  0
  -27.7164  -24.9244   20.7195 C   0  0  0  0  0  0  0  0  0  0  0  0
  -27.3204  -22.4594   21.0714 C   0  0  0  0  0  0  0  0  0  0  0  0
  -27.0778  -26.2698   20.4050 C   0  0  0  0  0  0  0  0  0  1  0  0
  -22.2967  -32.0084   19.4852 C   0  0  1  0  0  0  0  0  0  0  0  0
  -22.8805  -32.9923   15.8712 C   0  0  2  0  0  0  0  0  0  0  0  0
  -20.8540  -31.8474   20.0422 C   0  0  0  0  0  0  0  0  0  0  0  0
  -26.1782  -11.2319   20.1225 N   0  0  0  0  0  0  0  0  0  0  0  0
  -26.7310  -11.5163   18.9310 N   0  0  0  0  0  0  0  0  0  0  0  0
  -24.3273  -32.1181   20.8953 N   0  0  0  0  0  0  0  0  0  0  0  0
  -29.1157  -14.3353   19.9056 N   0  0  0  0  0  0  0  0  0  0  0  0
  -26.5234  -11.1086   16.6069 N   0  0  0  0  0  0  0  0  0  0  0  0
  -23.1114   -8.7460   18.3881 N   0  0  0  0  0  0  0  0  0  0  0  0
  -27.8623  -16.3097   19.6008 N   0  0  0  0  0  0  0  0  0  0  0  0
  -25.2473  -32.7184   24.3723 N   0  0  0  0  0  0  0  0  0  0  0  0
  -22.3669  -32.6850   18.1946 N   0  0  0  0  0  0  0  0  0  0  0  0
  -24.0791  -32.7769   15.0123 N   0  3  0  0  0  0  0  0  0  0  0  0
  -24.1679   -9.3037   16.4307 O   0  0  0  0  0  0  0  0  0  0  0  0
  -23.7670  -31.3102   23.2552 O   0  0  0  0  0  0  0  0  0  0  0  0
  -22.8953  -33.9488   20.7110 O   0  0  0  0  0  0  0  0  0  0  0  0
  -23.4280  -30.9624   17.0617 O   0  0  0  0  0  0  0  0  0  0  0  0
  -30.1805  -16.3728   19.6632 O   0  0  0  0  0  0  0  0  0  0  0  0
  -21.8309   -8.3781   23.7974 O   0  0  0  0  0  0  0  0  0  0  0  0
  -26.3207  -21.4501   21.1190 O   0  0  0  0  0  0  0  0  0  0  0  0
  -28.0986  -27.2660   20.3592 O   0  0  0  0  0  0  0  0  0  1  0  0
  -20.5016   -3.0333   23.5315 F   0  0  0  0  0  0  0  0  0  0  0  0
  -22.4902   -6.6487   25.8510 F   0  0  0  0  0  0  0  0  0  0  0  0
  1  2  1  0  0  0  0
  1  5  2  0  0  0  0
  2  6  2  0  0  0  0
  3 10  2  0  0  0  0
  3 19  1  0  0  0  0
  4 11  1  0  0  0  0
  4 19  2  0  0  0  0
  5 21  1  0  0  0  0
  6 23  1  0  0  0  0
  7 12  2  0  0  0  0
  7 22  1  0  0  0  0
  8 13  2  0  0  0  0
  8 25  1  0  0  0  0
  9 14  1  0  0  0  0
  9 25  2  0  0  0  0
 10 26  1  0  0  0  0
 11 26  2  0  0  0  0
 12 28  1  0  0  0  0
 13 27  1  0  0  0  0
 14 27  2  0  0  0  0
 15 16  2  0  0  0  0
 15 29  1  0  0  0  0
 16 30  1  0  0  0  0
 17 24  1  0  0  0  0
 17 28  2  0  0  0  0
 18 30  2  0  0  0  0
 18 31  1  0  0  0  0
 19 32  1  0  0  0  0
 20 32  1  0  0  0  0
 20 33  2  0  0  0  0
 20 34  1  0  0  0  0
 21 23  2  0  0  0  0
 21 39  1  0  0  0  0
 22 24  2  0  0  0  0
 22 40  1  0  0  0  0
 23 48  1  0  0  0  0
 24 41  1  0  0  0  0
 25 69  1  0  0  0  0
 26 78  1  0  0  0  0
 27 79  1  0  0  0  0
 28 80  1  0  0  0  0
 29 31  2  0  0  0  0
 29 78  1  0  0  0  0
 30 81  1  0  0  0  0
 31 82  1  0  0  0  0
 32 63  2  0  0  0  0
 33 64  1  0  0  0  0
 33 67  1  0  0  0  0
 34 68  1  0  0  0  0
 34 73  2  0  0  0  0
 35 49  1  0  0  0  0
 35 70  1  0  0  0  0
 35 74  2  0  0  0  0
 36 60  1  0  0  0  0
 36 65  1  0  0  0  0
 36 75  2  0  0  0  0
 37 61  1  0  0  0  0
 37 71  1  0  0  0  0
 37 76  2  0  0  0  0
 38 66  1  0  0  0  0
 38 69  1  0  0  0  0
 38 77  2  0  0  0  0
 39 42  1  0  0  0  0
 40 49  1  0  0  0  0
 41 65  1  0  0  0  0
 42 44  1  0  0  0  0
 43 45  1  0  0  0  0
 43 46  1  0  0  0  0
 44 48  1  0  0  0  0
 45 50  1  0  0  0  0
 46 66  1  0  0  0  0
 47 50  1  0  0  0  0
 47 66  1  0  0  0  0
 48 70  1  0  0  0  0
 49 65  1  0  0  0  0
 50 64  1  0  0  0  0
 51 61  1  0  0  0  0
 52 62  1  0  0  0  0
 53 62  1  0  0  0  0
 54 62  1  0  0  0  0
 55 72  1  0  0  0  0
 56 57  1  0  0  0  0
 56 58  1  0  0  0  0
 57 59  1  0  0  0  0
 58 79  1  0  0  0  0
 59 80  1  0  0  0  0
 60 62  1  0  0  0  0
 60 71  1  0  0  0  0
 61 72  1  0  0  0  0
 63 64  1  0  0  0  0
M  CHG  1  72   1
M  ISO  4  38 100  59 101  69 100  80 101
M  END
> <Batch ID>
0102

> <Smiles>
CNC(C)C(=O)NC(C(=O)N1Cc2cc([101O:1][101CH2:1]CCCOc3ccc([100NH:0][100C:0](=O)N4CCCC(n5nc(-c6ccc(Oc7ccc(F)cc7F)cc6)c(C(N)=O)c5N)C4)cc3)ccc2CC1C(=O)NC1CCCc2ccccc21)C(C)(C)C

> <Shape>
0.243

> <Color>
0.082

> <Negative vol penalty>
0.000

$$$$

  -OEChem-04052301023D

 88 97  0     1  0  0  0  0  0999 V2000
  -30.6204  -37.5591   16.4062 C   0  0  0  0  0  0  0  0  0  0  0  0
  -30.7457  -36.1748   16.4636 C   0  0  0  0  0  0  0  0  0  0  0  0
  -22.5423   -9.9473   20.6951 C   0  0  0  0  0  0  0  0  0  0  0  0
  -24.4827   -8.7117   21.4334 C   0  0  0  0  0  0  0  0  0  0  0  0
  -28.4844  -19.8599   22.7109 C   0  0  0  0  0  0  0  0  0  0  0  0
  -30.1511  -38.2620   17.5151 C   0  0  0  0  0  0  0  0  0  0  0  0
  -30.4027  -35.4926   17.6304 C   0  0  0  0  0  0  0  0  0  0  0  0
  -27.8885  -29.9230   18.0348 C   0  0  0  0  0  0  0  0  0  0  0  0
  -28.3915  -18.5464   22.2508 C   0  0  0  0  0  0  0  0  0  0  0  0
  -21.7372   -9.1927   21.5483 C   0  0  0  0  0  0  0  0  0  0  0  0
  -23.6776   -7.9571   22.2867 C   0  0  0  0  0  0  0  0  0  0  0  0
  -28.4335  -28.6633   18.2795 C   0  0  0  0  0  0  0  0  0  0  0  0
  -21.5498   -5.3415   22.0384 C   0  0  0  0  0  0  0  0  0  0  0  0
  -21.7472   -3.9609   22.0631 C   0  0  0  0  0  0  0  0  0  0  0  0
  -30.8535  -19.8583   22.2370 C   0  0  0  0  0  0  0  0  0  0  0  0
  -27.8790  -28.8841   20.6168 C   0  0  0  0  0  0  0  0  0  0  0  0
  -22.2779   -4.0790   24.4172 C   0  0  0  0  0  0  0  0  0  0  0  0
  -23.9151   -9.7068   20.6376 C   0  0  0  0  0  0  0  0  0  0  0  0
  -29.7155  -20.5158   22.7039 C   0  0  0  0  0  0  0  0  0  0  0  0
  -24.6443  -10.5828   18.3555 C   0  0  0  0  0  0  0  0  0  0  0  0
  -29.7931  -37.5872   18.6928 C   0  0  0  0  0  0  0  0  0  0  0  0
  -27.3435  -30.6786   19.0828 C   0  0  0  0  0  0  0  0  0  0  0  0
  -29.9295  -36.1873   18.7566 C   0  0  0  0  0  0  0  0  0  0  0  0
  -27.3253  -30.1520   20.3823 C   0  0  0  0  0  0  0  0  0  0  0  0
  -29.5295  -17.8888   21.7838 C   0  0  0  0  0  0  0  0  0  0  0  0
  -22.3048   -8.1977   22.3441 C   0  0  0  0  0  0  0  0  0  0  0  0
  -28.4315  -28.1449   19.5712 C   0  0  0  0  0  0  0  0  0  0  0  0
  -21.7165   -6.0909   23.2030 C   0  0  0  0  0  0  0  0  0  0  0  0
  -22.1112   -3.3297   23.2525 C   0  0  0  0  0  0  0  0  0  0  0  0
  -30.7606  -18.5447   21.7769 C   0  0  0  0  0  0  0  0  0  0  0  0
  -22.0806   -5.4596   24.3924 C   0  0  0  0  0  0  0  0  0  0  0  0
  -24.7472  -10.4855   19.7561 C   0  0  0  0  0  0  0  0  0  0  0  0
  -25.6564  -11.4388   17.9954 C   0  0  0  0  0  0  0  0  0  0  0  0
  -29.8134  -21.9014   23.1895 C   0  0  0  0  0  0  0  0  0  0  0  0
  -23.7167   -9.9557   17.4599 C   0  0  0  0  0  0  0  0  0  0  0  0
  -28.0105  -33.4924   20.4023 C   0  0  0  0  0  0  0  0  0  0  0  0
  -25.2918  -32.9141   22.0746 C   0  0  0  0  0  0  0  0  0  0  0  0
  -23.0704  -30.6273   23.2922 C   0  0  0  0  0  0  0  0  0  0  0  0
  -28.2892  -15.7521   21.2543 C   0  0  0  0  0  0  0  0  0  0  0  0
  -29.3355  -38.3946   19.8816 C   0  0  0  0  0  0  0  0  0  0  0  0
  -26.7353  -32.0244   18.7977 C   0  0  0  0  0  0  0  0  0  0  0  0
  -26.7340  -30.9146   21.5387 C   0  0  0  0  0  0  0  0  0  0  0  0
  -28.6387  -37.5598   20.9531 C   0  0  0  0  0  0  0  0  0  0  0  0
  -29.8890  -12.4583   20.1074 C   0  0  0  0  0  0  0  0  0  0  0  0
  -29.4360  -36.2925   21.2448 C   0  0  0  0  0  0  0  0  0  0  0  0
  -28.8060  -11.9712   19.1475 C   0  0  0  0  0  0  0  0  0  0  0  0
  -28.8028  -24.0493   20.3477 C   0  0  0  0  0  0  0  0  0  0  0  0
  -29.8457  -13.9677   20.3089 C   0  0  0  0  0  0  0  0  0  0  0  0
  -29.3468  -22.7198   20.8385 C   0  0  0  0  0  0  0  0  0  0  0  0
  -27.4080  -13.5108   20.6326 C   0  0  0  0  0  0  0  0  0  0  0  0
  -29.5441  -35.4091   19.9960 C   0  0  1  0  0  0  0  0  0  0  0  0
  -26.6709  -32.9238   20.0283 C   0  0  1  0  0  0  0  0  0  0  0  0
  -29.5517  -25.0587   21.2181 C   0  0  2  0  0  0  0  0  0  0  0  0
  -27.4685  -12.7185   19.3173 C   0  0  2  0  0  0  0  0  0  0  0  0
  -29.6003  -24.3661   22.6135 C   0  0  0  0  0  0  0  0  0  0  0  0
  -28.3654  -24.6716   23.4791 C   0  0  0  0  0  0  0  0  0  0  0  0
  -30.8728  -24.8035   23.3558 C   0  0  0  0  0  0  0  0  0  0  0  0
  -20.9695  -30.4532   24.6536 C   0  0  0  0  0  0  0  0  0  0  0  0
  -26.9044  -33.3937   24.6201 C   0  0  0  0  0  0  0  0  0  0  0  0
  -25.0601  -32.2988   25.9116 C   0  0  0  0  0  0  0  0  0  0  0  0
  -24.6121  -34.3936   24.6334 C   0  0  0  0  0  0  0  0  0  0  0  0
  -21.5748  -29.4184   21.0426 C   0  0  0  0  0  0  0  0  0  0  0  0
  -28.9279  -26.4463   21.1600 C   0  0  0  0  0  0  0  0  0  1  0  0
  -24.9644  -32.2273   23.3785 C   0  0  1  0  0  0  0  0  0  0  0  0
  -21.5536  -30.5776   23.2550 C   0  0  2  0  0  0  0  0  0  0  0  0
  -25.3982  -33.0646   24.6147 C   0  0  0  0  0  0  0  0  0  0  0  0
  -25.7460  -11.2208   20.2520 N   0  0  0  0  0  0  0  0  0  0  0  0
  -26.2799  -11.7882   19.1570 N   0  0  0  0  0  0  0  0  0  0  0  0
  -29.6281  -22.9231   22.2607 N   0  0  0  0  0  0  0  0  0  0  0  0
  -26.1571  -32.2286   21.2102 N   0  0  0  0  0  0  0  0  0  0  0  0
  -28.5260  -14.4557   20.7351 N   0  0  0  0  0  0  0  0  0  0  0  0
  -26.0649  -11.9190   16.8018 N   0  0  0  0  0  0  0  0  0  0  0  0
  -24.0503   -8.7062   16.9198 N   0  0  0  0  0  0  0  0  0  0  0  0
  -29.4319  -16.5539   21.3175 N   0  0  0  0  0  0  0  0  0  0  0  0
  -28.3081  -34.6887   19.7779 N   0  0  0  0  0  0  0  0  0  0  0  0
  -23.5381  -31.9238   23.3330 N   0  0  0  0  0  0  0  0  0  0  0  0
  -21.0932  -29.4124   22.4480 N   0  3  0  0  0  0  0  0  0  0  0  0
  -30.0503  -22.0459   24.3867 O   0  0  0  0  0  0  0  0  0  0  0  0
  -22.6318  -10.4951   17.1351 O   0  0  0  0  0  0  0  0  0  0  0  0
  -28.7209  -32.8912   21.1995 O   0  0  0  0  0  0  0  0  0  0  0  0
  -24.7924  -34.0150   21.8290 O   0  0  0  0  0  0  0  0  0  0  0  0
  -23.7702  -29.6170   23.2895 O   0  0  0  0  0  0  0  0  0  0  0  0
  -27.1628  -16.1161   21.5988 O   0  0  0  0  0  0  0  0  0  0  0  0
  -21.5195   -7.4613   23.1770 O   0  0  0  0  0  0  0  0  0  0  0  0
  -28.9634  -26.9159   19.8129 O   0  0  0  0  0  0  0  0  0  1  0  0
  -22.2992   -2.0037   23.2765 F   0  0  0  0  0  0  0  0  0  0  0  0
  -31.8614  -17.9225   21.3309 F   0  0  0  0  0  0  0  0  0  0  0  0
  -22.2411   -6.1741   25.5147 F   0  0  0  0  0  0  0  0  0  0  0  0
  1  2  1  0  0  0  0
  1  6  2  0  0  0  0
  2  7  2  0  0  0  0
  3 10  2  0  0  0  0
  3 18  1  0  0  0  0
  4 11  1  0  0  0  0
  4 18  2  0  0  0  0
  5  9  2  0  0  0  0
  5 19  1  0  0  0  0
  6 21  1  0  0  0  0
  7 23  1  0  0  0  0
  8 12  2  0  0  0  0
  8 22  1  0  0  0  0
  9 25  1  0  0  0  0
 10 26  1  0  0  0  0
 11 26  2  0  0  0  0
 12 27  1  0  0  0  0
 13 14  2  0  0  0  0
 13 28  1  0  0  0  0
 14 29  1  0  0  0  0
 15 19  2  0  0  0  0
 15 30  1  0  0  0  0
 16 24  1  0  0  0  0
 16 27  2  0  0  0  0
 17 29  2  0  0  0  0
 17 31  1  0  0  0  0
 18 32  1  0  0  0  0
 19 34  1  0  0  0  0
 20 32  1  0  0  0  0
 20 33  2  0  0  0  0
 20 35  1  0  0  0  0
 21 23  2  0  0  0  0
 21 40  1  0  0  0  0
 22 24  2  0  0  0  0
 22 41  1  0  0  0  0
 23 51  1  0  0  0  0
 24 42  1  0  0  0  0
 25 30  2  0  0  0  0
 25 74  1  0  0  0  0
 26 84  1  0  0  0  0
 27 85  1  0  0  0  0
 28 31  2  0  0  0  0
 28 84  1  0  0  0  0
 29 86  1  0  0  0  0
 30 87  1  0  0  0  0
 31 88  1  0  0  0  0
 32 67  2  0  0  0  0
 33 68  1  0  0  0  0
 33 72  1  0  0  0  0
 34 69  1  0  0  0  0
 34 78  2  0  0  0  0
 35 73  1  0  0  0  0
 35 79  2  0  0  0  0
 36 52  1  0  0  0  0
 36 75  1  0  0  0  0
 36 80  2  0  0  0  0
 37 64  1  0  0  0  0
 37 70  1  0  0  0  0
 37 81  2  0  0  0  0
 38 65  1  0  0  0  0
 38 76  1  0  0  0  0
 38 82  2  0  0  0  0
 39 71  1  0  0  0  0
 39 74  1  0  0  0  0
 39 83  2  0  0  0  0
 40 43  1  0  0  0  0
 41 52  1  0  0  0  0
 42 70  1  0  0  0  0
 43 45  1  0  0  0  0
 44 46  1  0  0  0  0
 44 48  1  0  0  0  0
 45 51  1  0  0  0  0
 46 54  1  0  0  0  0
 47 49  1  0  0  0  0
 47 53  1  0  0  0  0
 48 71  1  0  0  0  0
 49 69  1  0  0  0  0
 50 54  1  0  0  0  0
 50 71  1  0  0  0  0
 51 75  1  0  0  0  0
 52 70  1  0  0  0  0
 53 55  1  0  0  0  0
 53 63  1  0  0  0  0
 54 68  1  0  0  0  0
 55 56  1  0  0  0  0
 55 57  1  0  0  0  0
 55 69  1  0  0  0  0
 58 65  1  0  0  0  0
 59 66  1  0  0  0  0
 60 66  1  0  0  0  0
 61 66  1  0  0  0  0
 62 77  1  0  0  0  0
 63 85  1  0  0  0  0
 64 66  1  0  0  0  0
 64 76  1  0  0  0  0
 65 77  1  0  0  0  0
 67 68  1  0  0  0  0
M  CHG  1  77   1
M  ISO  4  39 100  63 101  74 100  85 101
M  END
> <Batch ID>
0102

> <Smiles>
CNC(C)C(=O)NC(C(=O)N1Cc2cc([101O:1][101CH2:1]C3CCN(C(=O)c4ccc([100NH:0][100C:0](=O)N5CCCC(n6nc(-c7ccc(Oc8ccc(F)cc8F)cc7)c(C(N)=O)c6N)C5)c(F)c4)C3(C)C)ccc2CC1C(=O)NC1CCCc2ccccc21)C(C)(C)C

> <Shape>
0.263

> <Color>
0.094

> <Negative vol penalty>
0.000

$$$$

  -OEChem-04052301023D

 88 97  0     1  0  0  0  0  0999 V2000
  -14.9428  -27.7394   24.8147 C   0  0  0  0  0  0  0  0  0  0  0  0
  -15.4313  -26.6949   24.0362 C   0  0  0  0  0  0  0  0  0  0  0  0
  -26.8091  -12.4565   20.4930 C   0  0  0  0  0  0  0  0  0  0  0  0
  -25.4462  -14.4240   20.1641 C   0  0  0  0  0  0  0  0  0  0  0  0
  -15.6246  -28.9549   24.8553 C   0  0  0  0  0  0  0  0  0  0  0  0
  -16.6012  -26.8658   23.2971 C   0  0  0  0  0  0  0  0  0  0  0  0
  -22.3003  -22.5833   24.3322 C   0  0  0  0  0  0  0  0  0  0  0  0
  -25.6946  -11.6475   20.2720 C   0  0  0  0  0  0  0  0  0  0  0  0
  -24.3316  -13.6150   19.9431 C   0  0  0  0  0  0  0  0  0  0  0  0
  -23.3574  -21.6729   24.3231 C   0  0  0  0  0  0  0  0  0  0  0  0
  -22.9866  -10.6102   22.0085 C   0  0  0  0  0  0  0  0  0  0  0  0
  -22.7799   -9.5408   22.8798 C   0  0  0  0  0  0  0  0  0  0  0  0
  -24.5253  -23.0289   22.6967 C   0  0  0  0  0  0  0  0  0  0  0  0
  -26.1121  -18.8505   20.6618 C   0  0  0  0  0  0  0  0  0  0  0  0
  -28.2351  -19.3846   21.6838 C   0  0  0  0  0  0  0  0  0  0  0  0
  -22.9248   -8.0007   21.0240 C   0  0  0  0  0  0  0  0  0  0  0  0
  -26.6849  -13.8448   20.4391 C   0  0  0  0  0  0  0  0  0  0  0  0
  -28.6290  -14.7364   21.8296 C   0  0  0  0  0  0  0  0  0  0  0  0
  -16.8087  -29.1375   24.1239 C   0  0  0  0  0  0  0  0  0  0  0  0
  -22.3587  -23.7291   23.5341 C   0  0  0  0  0  0  0  0  0  0  0  0
  -17.2987  -28.0853   23.3269 C   0  0  0  0  0  0  0  0  0  0  0  0
  -23.4750  -23.9506   22.7109 C   0  0  0  0  0  0  0  0  0  0  0  0
  -26.5302  -19.4557   19.4767 C   0  0  0  0  0  0  0  0  0  0  0  0
  -26.9645  -18.8150   21.7654 C   0  0  0  0  0  0  0  0  0  0  0  0
  -27.8008  -20.0253   19.3951 C   0  0  0  0  0  0  0  0  0  0  0  0
  -24.4558  -12.2267   19.9971 C   0  0  0  0  0  0  0  0  0  0  0  0
  -24.4670  -21.8951   23.5072 C   0  0  0  0  0  0  0  0  0  0  0  0
  -23.1623  -10.3749   20.6448 C   0  0  0  0  0  0  0  0  0  0  0  0
  -22.7491   -8.2360   22.3876 C   0  0  0  0  0  0  0  0  0  0  0  0
  -28.6533  -19.9898   20.4987 C   0  0  0  0  0  0  0  0  0  0  0  0
  -23.1314   -9.0701   20.1526 C   0  0  0  0  0  0  0  0  0  0  0  0
  -27.8358  -14.6811   20.6679 C   0  0  0  0  0  0  0  0  0  0  0  0
  -29.5874  -15.6785   21.5463 C   0  0  0  0  0  0  0  0  0  0  0  0
  -25.8344  -16.9049   25.3708 C   0  0  0  0  0  0  0  0  0  0  0  0
  -28.5100  -14.0019   23.0551 C   0  0  0  0  0  0  0  0  0  0  0  0
  -20.6831  -26.9008   22.4347 C   0  0  0  0  0  0  0  0  0  0  0  0
  -23.6649  -27.5385   22.7705 C   0  0  0  0  0  0  0  0  0  0  0  0
  -26.6886  -29.0151   23.3310 C   0  0  0  0  0  0  0  0  0  0  0  0
  -29.3819  -20.2309   17.4588 C   0  0  0  0  0  0  0  0  0  0  0  0
  -17.4851  -30.4850   24.1621 C   0  0  0  0  0  0  0  0  0  0  0  0
  -21.2159  -24.7054   23.4658 C   0  0  0  0  0  0  0  0  0  0  0  0
  -23.4790  -25.1793   21.8430 C   0  0  0  0  0  0  0  0  0  0  0  0
  -25.7717  -16.1451   24.0716 C   0  0  0  0  0  0  0  0  0  0  0  0
  -26.8027  -18.0611   25.4106 C   0  0  0  0  0  0  0  0  0  0  0  0
  -18.9208  -30.4608   23.6440 C   0  0  0  0  0  0  0  0  0  0  0  0
  -31.9845  -17.6386   17.9049 C   0  0  0  0  0  0  0  0  0  0  0  0
  -19.0025  -29.6842   22.3337 C   0  0  0  0  0  0  0  0  0  0  0  0
  -31.2517  -16.5540   18.6923 C   0  0  0  0  0  0  0  0  0  0  0  0
  -25.5923  -17.0917   22.8926 C   0  0  0  0  0  0  0  0  0  0  0  0
  -31.0317  -18.4398   17.0229 C   0  0  0  0  0  0  0  0  0  0  0  0
  -29.1522  -17.9529   18.5629 C   0  0  0  0  0  0  0  0  0  0  0  0
  -18.5781  -28.2239   22.5305 C   0  0  1  0  0  0  0  0  0  0  0  0
  -21.6771  -26.1624   23.2822 C   0  0  1  0  0  0  0  0  0  0  0  0
  -30.0841  -17.1580   19.4898 C   0  0  1  0  0  0  0  0  0  0  0  0
  -26.6197  -18.9889   24.2067 C   0  0  2  0  0  0  0  0  0  0  0  0
  -25.5951  -19.4809   18.3114 C   0  0  0  0  0  0  0  0  0  0  0  0
  -28.0918  -30.9663   22.6090 C   0  0  0  0  0  0  0  0  0  0  0  0
  -24.3281  -26.0935   20.1674 C   0  0  0  0  0  0  0  0  0  0  0  0
  -26.3605  -27.5413   19.9644 C   0  0  0  0  0  0  0  0  0  0  0  0
  -24.0897  -28.5738   19.9528 C   0  0  0  0  0  0  0  0  0  0  0  0
  -27.6588  -21.9438   17.8172 C   0  0  0  0  0  0  0  0  0  0  0  0
  -26.7398  -30.1398   26.0680 C   0  0  0  0  0  0  0  0  0  0  0  0
  -25.3746  -19.8701   24.3633 C   0  0  0  0  0  0  0  0  0  1  0  0
  -25.0177  -27.6442   22.1131 C   0  0  1  0  0  0  0  0  0  0  0  0
  -27.0686  -30.4576   23.6125 C   0  0  2  0  0  0  0  0  0  0  0  0
  -24.9449  -27.4472   20.5726 C   0  0  0  0  0  0  0  0  0  0  0  0
  -28.2540  -15.5212   19.7175 N   0  0  0  0  0  0  0  0  0  0  0  0
  -29.3203  -16.1135   20.2816 N   0  0  0  0  0  0  0  0  0  0  0  0
  -26.5444  -18.2075   22.9549 N   0  0  2  0  0  0  0  0  0  0  0  0
  -22.9728  -26.3329   22.6031 N   0  0  0  0  0  0  0  0  0  0  0  0
  -29.8938  -18.9579   17.7839 N   0  0  0  0  0  0  0  0  0  0  0  0
  -30.6242  -16.1691   22.2583 N   0  0  0  0  0  0  0  0  0  0  0  0
  -27.4678  -13.0730   23.1789 N   0  0  0  0  0  0  0  0  0  0  0  0
  -19.6447  -27.4666   23.1496 N   0  0  0  0  0  0  0  0  0  0  0  0
  -25.5726  -28.9289   22.5256 N   0  0  0  0  0  0  0  0  0  0  0  0
  -28.2487  -20.6565   18.1778 N   0  0  0  0  0  0  0  0  0  0  0  0
  -27.6485  -30.5831   24.9796 N   0  3  0  0  0  0  0  0  0  0  0  0
  -25.2126  -16.5427   26.3674 O   0  0  0  0  0  0  0  0  0  0  0  0
  -29.2945  -14.1763   24.0183 O   0  0  0  0  0  0  0  0  0  0  0  0
  -20.8460  -26.9553   21.2214 O   0  0  0  0  0  0  0  0  0  0  0  0
  -23.2288  -28.4991   23.4110 O   0  0  0  0  0  0  0  0  0  0  0  0
  -27.3208  -28.0604   23.7775 O   0  0  0  0  0  0  0  0  0  0  0  0
  -29.8662  -20.9188   16.5518 O   0  0  0  0  0  0  0  0  0  0  0  0
  -23.3681  -11.4376   19.7811 O   0  0  0  0  0  0  0  0  0  0  0  0
  -25.4974  -21.0047   23.5066 O   0  0  0  0  0  0  0  0  0  1  0  0
  -22.5522   -7.2091   23.2247 F   0  0  0  0  0  0  0  0  0  0  0  0
  -29.8766  -20.5348   20.4329 F   0  0  0  0  0  0  0  0  0  0  0  0
  -23.3007   -8.8377   18.8437 F   0  0  0  0  0  0  0  0  0  0  0  0
  1  2  1  0  0  0  0
  1  5  2  0  0  0  0
  2  6  2  0  0  0  0
  3  8  2  0  0  0  0
  3 17  1  0  0  0  0
  4  9  1  0  0  0  0
  4 17  2  0  0  0  0
  5 19  1  0  0  0  0
  6 21  1  0  0  0  0
  7 10  2  0  0  0  0
  7 20  1  0  0  0  0
  8 26  1  0  0  0  0
  9 26  2  0  0  0  0
 10 27  1  0  0  0  0
 11 12  2  0  0  0  0
 11 28  1  0  0  0  0
 12 29  1  0  0  0  0
 13 22  1  0  0  0  0
 13 27  2  0  0  0  0
 14 23  2  0  0  0  0
 14 24  1  0  0  0  0
 15 24  2  0  0  0  0
 15 30  1  0  0  0  0
 16 29  2  0  0  0  0
 16 31  1  0  0  0  0
 17 32  1  0  0  0  0
 18 32  1  0  0  0  0
 18 33  2  0  0  0  0
 18 35  1  0  0  0  0
 19 21  2  0  0  0  0
 19 40  1  0  0  0  0
 20 22  2  0  0  0  0
 20 41  1  0  0  0  0
 21 52  1  0  0  0  0
 22 42  1  0  0  0  0
 23 25  1  0  0  0  0
 23 56  1  0  0  0  0
 24 69  1  0  0  0  0
 25 30  2  0  0  0  0
 25 76  1  0  0  0  0
 26 84  1  0  0  0  0
 27 85  1  0  0  0  0
 28 31  2  0  0  0  0
 28 84  1  0  0  0  0
 29 86  1  0  0  0  0
 30 87  1  0  0  0  0
 31 88  1  0  0  0  0
 32 67  2  0  0  0  0
 33 68  1  0  0  0  0
 33 72  1  0  0  0  0
 34 43  1  0  0  0  0
 34 44  1  0  0  0  0
 34 78  2  0  0  0  0
 35 73  1  0  0  0  0
 35 79  2  0  0  0  0
 36 53  1  0  0  0  0
 36 74  1  0  0  0  0
 36 80  2  0  0  0  0
 37 64  1  0  0  0  0
 37 70  1  0  0  0  0
 37 81  2  0  0  0  0
 38 65  1  0  0  0  0
 38 75  1  0  0  0  0
 38 82  2  0  0  0  0
 39 71  1  0  0  0  0
 39 76  1  0  0  0  0
 39 83  2  0  0  0  0
 40 45  1  0  0  0  0
 41 53  1  0  0  0  0
 42 70  1  0  0  0  0
 43 49  1  0  0  0  0
 44 55  1  0  0  0  0
 45 47  1  0  0  0  0
 46 48  1  0  0  0  0
 46 50  1  0  0  0  0
 47 52  1  0  0  0  0
 48 54  1  0  0  0  0
 49 69  1  0  0  0  0
 50 71  1  0  0  0  0
 51 54  1  0  0  0  0
 51 71  1  0  0  0  0
 52 74  1  0  0  0  0
 53 70  1  0  0  0  0
 54 68  1  0  0  0  0
 55 63  1  0  0  0  0
 55 69  1  0  0  0  0
 57 65  1  0  0  0  0
 58 66  1  0  0  0  0
 59 66  1  0  0  0  0
 60 66  1  0  0  0  0
 61 76  1  0  0  0  0
 62 77  1  0  0  0  0
 63 85  1  0  0  0  0
 64 66  1  0  0  0  0
 64 75  1  0  0  0  0
 65 77  1  0  0  0  0
 67 68  1  0  0  0  0
M  CHG  1  77   1
M  ISO  4  39 100  63 101  76 100  85 101
M  END
> <Batch ID>
0102

> <Smiles>
CNC(C)C(=O)NC(C(=O)N1Cc2cc([101O:1][101CH2:1]C3CC(=O)CCN3c3cc(C)c([100N:0](C)[100C:0](=O)N4CCCC(n5nc(-c6ccc(Oc7ccc(F)cc7F)cc6)c(C(N)=O)c5N)C4)c(F)c3)ccc2CC1C(=O)NC1CCCc2ccccc21)C(C)(C)C

> <Shape>
0.247

> <Color>
0.064

> <Negative vol penalty>
0.000

$$$$

  -OEChem-04052301023D

 84 92  0     1  0  0  0  0  0999 V2000
  -30.4142  -34.8003   18.7375 C   0  0  0  0  0  0  0  0  0  0  0  0
  -31.1535  -33.6855   19.1197 C   0  0  0  0  0  0  0  0  0  0  0  0
  -23.0672   -9.8708   19.9503 C   0  0  0  0  0  0  0  0  0  0  0  0
  -23.8593   -9.8734   22.2327 C   0  0  0  0  0  0  0  0  0  0  0  0
  -29.0407  -34.8391   18.9741 C   0  0  0  0  0  0  0  0  0  0  0  0
  -30.5199  -32.6092   19.7397 C   0  0  0  0  0  0  0  0  0  0  0  0
  -31.9150  -26.6758   19.1447 C   0  0  0  0  0  0  0  0  0  0  0  0
  -32.5409  -16.5051   24.4512 C   0  0  0  0  0  0  0  0  0  0  0  0
  -33.0875  -17.7047   23.9956 C   0  0  0  0  0  0  0  0  0  0  0  0
  -22.3301   -8.7149   20.2074 C   0  0  0  0  0  0  0  0  0  0  0  0
  -23.1222   -8.7175   22.4899 C   0  0  0  0  0  0  0  0  0  0  0  0
  -32.6601  -25.8034   19.9368 C   0  0  0  0  0  0  0  0  0  0  0  0
  -19.9051   -7.9091   23.1357 C   0  0  0  0  0  0  0  0  0  0  0  0
  -19.1648   -7.8638   24.3170 C   0  0  0  0  0  0  0  0  0  0  0  0
  -30.6301  -25.0337   20.9883 C   0  0  0  0  0  0  0  0  0  0  0  0
  -31.7120  -17.5785   22.0133 C   0  0  0  0  0  0  0  0  0  0  0  0
  -20.4218   -5.9277   25.0304 C   0  0  0  0  0  0  0  0  0  0  0  0
  -23.8319  -10.4501   20.9629 C   0  0  0  0  0  0  0  0  0  0  0  0
  -24.1651  -12.9765   20.8453 C   0  0  0  0  0  0  0  0  0  0  0  0
  -28.3883  -33.7586   19.5886 C   0  0  0  0  0  0  0  0  0  0  0  0
  -30.5204  -26.7416   19.2763 C   0  0  0  0  0  0  0  0  0  0  0  0
  -29.1366  -32.6341   19.9860 C   0  0  0  0  0  0  0  0  0  0  0  0
  -29.8693  -25.9059   20.1949 C   0  0  0  0  0  0  0  0  0  0  0  0
  -31.5799  -15.8421   23.6879 C   0  0  0  0  0  0  0  0  0  0  0  0
  -31.1654  -16.3788   22.4690 C   0  0  0  0  0  0  0  0  0  0  0  0
  -32.6730  -18.2415   22.7766 C   0  0  0  0  0  0  0  0  0  0  0  0
  -22.3575   -8.1383   21.4772 C   0  0  0  0  0  0  0  0  0  0  0  0
  -32.0180  -24.9843   20.8608 C   0  0  0  0  0  0  0  0  0  0  0  0
  -20.9036   -6.9637   22.9016 C   0  0  0  0  0  0  0  0  0  0  0  0
  -19.4232   -6.8732   25.2644 C   0  0  0  0  0  0  0  0  0  0  0  0
  -21.1620   -5.9730   23.8490 C   0  0  0  0  0  0  0  0  0  0  0  0
  -24.5940  -11.6438   20.6977 C   0  0  0  0  0  0  0  0  0  0  0  0
  -25.2499  -13.7300   20.4687 C   0  0  0  0  0  0  0  0  0  0  0  0
  -32.6018  -20.5170   22.6816 C   0  0  0  0  0  0  0  0  0  0  0  0
  -22.8992  -13.4876   21.2835 C   0  0  0  0  0  0  0  0  0  0  0  0
  -33.1300  -21.8388   22.2273 C   0  0  0  0  0  0  0  0  0  0  0  0
  -28.4503  -29.0055   20.1089 C   0  0  0  0  0  0  0  0  0  0  0  0
  -30.7554  -14.6970   20.6790 C   0  0  0  0  0  0  0  0  0  0  0  0
  -26.2593  -26.7657   19.2690 C   0  0  0  0  0  0  0  0  0  0  0  0
  -25.5167  -23.4655   18.8172 C   0  0  0  0  0  0  0  0  0  0  0  0
  -26.9098  -33.8661   19.8663 C   0  0  0  0  0  0  0  0  0  0  0  0
  -29.7285  -27.6687   18.3956 C   0  0  0  0  0  0  0  0  0  0  0  0
  -28.3724  -25.9238   20.3605 C   0  0  0  0  0  0  0  0  0  0  0  0
  -26.2519  -32.5272   20.1897 C   0  0  0  0  0  0  0  0  0  0  0  0
  -29.5618  -12.4042   18.1975 C   0  0  0  0  0  0  0  0  0  0  0  0
  -27.0897  -31.7511   21.2009 C   0  0  0  0  0  0  0  0  0  0  0  0
  -28.1386  -12.0882   18.6556 C   0  0  0  0  0  0  0  0  0  0  0  0
  -30.4986  -12.6060   19.3844 C   0  0  0  0  0  0  0  0  0  0  0  0
  -28.6132  -13.3316   20.8129 C   0  0  0  0  0  0  0  0  0  0  0  0
  -28.4812  -31.4364   20.6387 C   0  0  1  0  0  0  0  0  0  0  0  0
  -28.3626  -28.0226   18.9758 C   0  0  1  0  0  0  0  0  0  0  0  0
  -27.6276  -13.1507   19.6448 C   0  0  2  0  0  0  0  0  0  0  0  0
  -31.0088  -14.5593   24.1967 C   0  0  0  0  0  0  0  0  0  0  0  0
  -23.6332  -21.9418   18.1629 C   0  0  0  0  0  0  0  0  0  0  0  0
  -24.9943  -27.1526   22.0185 C   0  0  0  0  0  0  0  0  0  0  0  0
  -23.7624  -24.9998   21.6777 C   0  0  0  0  0  0  0  0  0  0  0  0
  -23.3586  -26.9227   20.1407 C   0  0  0  0  0  0  0  0  0  0  0  0
  -27.0085  -22.4357   16.4779 C   0  0  0  0  0  0  0  0  0  0  0  0
  -32.1044  -22.9236   22.0450 C   0  0  0  0  0  0  0  0  0  1  0  0
  -30.1380  -15.6867   21.6347 C   0  0  2  0  0  0  0  0  0  0  0  0
  -25.5390  -25.6518   19.9895 C   0  0  1  0  0  0  0  0  0  0  0  0
  -24.8365  -22.7334   17.6746 C   0  0  2  0  0  0  0  0  0  0  0  0
  -24.4420  -26.1825   20.9551 C   0  0  0  0  0  0  0  0  0  0  0  0
  -25.8531  -11.5526   20.2614 N   0  0  0  0  0  0  0  0  0  0  0  0
  -33.2238  -19.4498   22.3177 N   0  0  0  0  0  0  0  0  0  0  0  0
  -26.2246  -12.8376   20.1314 N   0  0  0  0  0  0  0  0  0  0  0  0
  -27.6426  -26.8518   19.4809 N   0  0  0  0  0  0  0  0  0  0  0  0
  -29.9670  -13.6063   20.3118 N   0  0  0  0  0  0  0  0  0  0  0  0
  -25.4557  -15.0622   20.3965 N   0  0  0  0  0  0  0  0  0  0  0  0
  -21.8947  -12.5747   21.6325 N   0  0  0  0  0  0  0  0  0  0  0  0
  -28.4125  -30.3281   19.7105 N   0  0  0  0  0  0  0  0  0  0  0  0
  -25.0401  -24.7520   18.9551 N   0  0  0  0  0  0  0  0  0  0  0  0
  -29.2604  -16.6206   20.8576 N   0  3  0  0  0  0  0  0  0  0  0  0
  -25.7885  -21.7885   17.0252 N   0  3  0  0  0  0  0  0  0  0  0  0
  -22.6604  -14.7174   21.3477 O   0  0  0  0  0  0  0  0  0  0  0  0
  -34.3330  -21.9508   22.0520 O   0  0  0  0  0  0  0  0  0  0  0  0
  -28.5437  -28.5943   21.2595 O   0  0  0  0  0  0  0  0  0  0  0  0
  -31.9031  -14.8909   20.2698 O   0  0  0  0  0  0  0  0  0  0  0  0
  -25.6193  -27.5269   18.5391 O   0  0  0  0  0  0  0  0  0  0  0  0
  -26.3815  -22.9468   19.5198 O   0  0  0  0  0  0  0  0  0  0  0  0
  -21.6382   -7.0105   21.7286 O   0  0  0  0  0  0  0  0  0  0  0  0
  -32.7430  -24.1323   21.6357 O   0  0  0  0  0  0  0  0  0  1  0  0
  -18.7133   -6.8307   26.3995 F   0  0  0  0  0  0  0  0  0  0  0  0
  -22.1209   -5.0628   23.6302 F   0  0  0  0  0  0  0  0  0  0  0  0
  1  2  1  0  0  0  0
  1  5  2  0  0  0  0
  2  6  2  0  0  0  0
  3 10  2  0  0  0  0
  3 18  1  0  0  0  0
  4 11  1  0  0  0  0
  4 18  2  0  0  0  0
  5 20  1  0  0  0  0
  6 22  1  0  0  0  0
  7 12  2  0  0  0  0
  7 21  1  0  0  0  0
  8  9  2  0  0  0  0
  8 24  1  0  0  0  0
  9 26  1  0  0  0  0
 10 27  1  0  0  0  0
 11 27  2  0  0  0  0
 12 28  1  0  0  0  0
 13 14  2  0  0  0  0
 13 29  1  0  0  0  0
 14 30  1  0  0  0  0
 15 23  1  0  0  0  0
 15 28  2  0  0  0  0
 16 25  1  0  0  0  0
 16 26  2  0  0  0  0
 17 30  2  0  0  0  0
 17 31  1  0  0  0  0
 18 32  1  0  0  0  0
 19 32  1  0  0  0  0
 19 33  2  0  0  0  0
 19 35  1  0  0  0  0
 20 22  2  0  0  0  0
 20 41  1  0  0  0  0
 21 23  2  0  0  0  0
 21 42  1  0  0  0  0
 22 50  1  0  0  0  0
 23 43  1  0  0  0  0
 24 25  2  0  0  0  0
 24 53  1  0  0  0  0
 25 60  1  0  0  0  0
 26 65  1  0  0  0  0
 27 81  1  0  0  0  0
 28 82  1  0  0  0  0
 29 31  2  0  0  0  0
 29 81  1  0  0  0  0
 30 83  1  0  0  0  0
 31 84  1  0  0  0  0
 32 64  2  0  0  0  0
 33 66  1  0  0  0  0
 33 69  1  0  0  0  0
 34 36  1  0  0  0  0
 34 65  2  0  0  0  0
 35 70  1  0  0  0  0
 35 75  2  0  0  0  0
 36 59  1  0  0  0  0
 36 76  2  0  0  0  0
 37 51  1  0  0  0  0
 37 71  1  0  0  0  0
 37 77  2  0  0  0  0
 38 60  1  0  0  0  0
 38 68  1  0  0  0  0
 38 78  2  0  0  0  0
 39 61  1  0  0  0  0
 39 67  1  0  0  0  0
 39 79  2  0  0  0  0
 40 62  1  0  0  0  0
 40 72  1  0  0  0  0
 40 80  2  0  0  0  0
 41 44  1  0  0  0  0
 42 51  1  0  0  0  0
 43 67  1  0  0  0  0
 44 46  1  0  0  0  0
 45 47  1  0  0  0  0
 45 48  1  0  0  0  0
 46 50  1  0  0  0  0
 47 52  1  0  0  0  0
 48 68  1  0  0  0  0
 49 52  1  0  0  0  0
 49 68  1  0  0  0  0
 50 71  1  0  0  0  0
 51 67  1  0  0  0  0
 52 66  1  0  0  0  0
 54 62  1  0  0  0  0
 55 63  1  0  0  0  0
 56 63  1  0  0  0  0
 57 63  1  0  0  0  0
 58 74  1  0  0  0  0
 59 82  1  0  0  0  0
 60 73  1  0  0  0  0
 61 63  1  0  0  0  0
 61 72  1  0  0  0  0
 62 74  1  0  0  0  0
 64 66  1  0  0  0  0
M  CHG  2  73   1  74   1
M  ISO  4  38 100  59 101  60 100  82 101
M  END
> <Batch ID>
0102

> <Smiles>
CNC(C)C(=O)NC(C(=O)N1Cc2cc([101O:1][101CH2:1]C(=O)CNc3ccc(C)c([100C:0](=N)[100C:0](=O)N4CCCC(n5nc(-c6ccc(Oc7ccc(F)cc7F)cc6)c(C(N)=O)c5N)C4)c3)ccc2CC1C(=O)NC1CCCc2ccccc21)C(C)(C)C

> <Shape>
0.251

> <Color>
0.187

> <Negative vol penalty>
0.000

$$$$

  -OEChem-04052301023D

 86 94  0     1  0  0  0  0  0999 V2000
  -28.9952  -11.9116   23.0184 C   0  0  0  0  0  0  0  0  0  0  0  0
  -28.9416  -13.2788   23.2697 C   0  0  0  0  0  0  0  0  0  0  0  0
  -31.0258  -21.2765   20.1318 C   0  0  0  0  0  0  0  0  0  0  0  0
  -28.6508  -20.9633   20.4455 C   0  0  0  0  0  0  0  0  0  0  0  0
  -28.4094  -11.3926   21.8644 C   0  0  0  0  0  0  0  0  0  0  0  0
  -28.3032  -14.1281   22.3667 C   0  0  0  0  0  0  0  0  0  0  0  0
  -24.4683  -20.1747   22.1441 C   0  0  0  0  0  0  0  0  0  0  0  0
  -31.1830  -19.9024   19.9503 C   0  0  0  0  0  0  0  0  0  0  0  0
  -28.8080  -19.5893   20.2640 C   0  0  0  0  0  0  0  0  0  0  0  0
  -24.4460  -21.4130   21.5039 C   0  0  0  0  0  0  0  0  0  0  0  0
  -32.1570  -16.5188   19.0462 C   0  0  0  0  0  0  0  0  0  0  0  0
  -32.9633  -16.0921   17.9911 C   0  0  0  0  0  0  0  0  0  0  0  0
  -23.4004  -20.3945   19.5833 C   0  0  0  0  0  0  0  0  0  0  0  0
  -23.9753  -29.3860   22.0893 C   0  0  0  0  0  0  0  0  0  0  0  0
  -25.5656  -31.0182   21.2870 C   0  0  0  0  0  0  0  0  0  0  0  0
  -23.6562  -30.4241   19.9312 C   0  0  0  0  0  0  0  0  0  0  0  0
  -31.5083  -17.2169   16.4243 C   0  0  0  0  0  0  0  0  0  0  0  0
  -29.7597  -21.8069   20.3795 C   0  0  0  0  0  0  0  0  0  0  0  0
  -29.3383  -24.1910   19.5756 C   0  0  0  0  0  0  0  0  0  0  0  0
  -27.7550  -12.2348   20.9516 C   0  0  0  0  0  0  0  0  0  0  0  0
  -23.9659  -19.0330   21.5033 C   0  0  0  0  0  0  0  0  0  0  0  0
  -27.7093  -13.6202   21.1988 C   0  0  0  0  0  0  0  0  0  0  0  0
  -23.4151  -19.1434   20.2186 C   0  0  0  0  0  0  0  0  0  0  0  0
  -25.1419  -30.1280   22.2738 C   0  0  0  0  0  0  0  0  0  0  0  0
  -23.2324  -29.5340   20.9180 C   0  0  0  0  0  0  0  0  0  0  0  0
  -30.0741  -19.0588   20.0164 C   0  0  0  0  0  0  0  0  0  0  0  0
  -23.9147  -21.5225   20.2222 C   0  0  0  0  0  0  0  0  0  0  0  0
  -31.0262  -17.2945   18.7904 C   0  0  0  0  0  0  0  0  0  0  0  0
  -32.6390  -16.4412   16.6801 C   0  0  0  0  0  0  0  0  0  0  0  0
  -24.8228  -31.1662   20.1156 C   0  0  0  0  0  0  0  0  0  0  0  0
  -30.7019  -17.6436   17.4795 C   0  0  0  0  0  0  0  0  0  0  0  0
  -29.5967  -23.2261   20.5676 C   0  0  0  0  0  0  0  0  0  0  0  0
  -29.2713  -25.3791   20.2614 C   0  0  0  0  0  0  0  0  0  0  0  0
  -29.1733  -24.0278   18.1607 C   0  0  0  0  0  0  0  0  0  0  0  0
  -25.2044  -16.2609   20.5624 C   0  0  0  0  0  0  0  0  0  0  0  0
  -22.1151  -15.5643   19.8601 C   0  0  0  0  0  0  0  0  0  0  0  0
  -18.9895  -16.7030   19.0977 C   0  0  0  0  0  0  0  0  0  0  0  0
  -27.5098  -28.3922   24.6162 C   0  0  0  0  0  0  0  0  0  0  0  0
  -27.1778  -11.6338   19.6946 C   0  0  0  0  0  0  0  0  0  0  0  0
  -23.9729  -17.7095   22.2180 C   0  0  0  0  0  0  0  0  0  0  0  0
  -22.8446  -17.9518   19.4953 C   0  0  0  0  0  0  0  0  0  0  0  0
  -26.1947  -12.5539   18.9753 C   0  0  0  0  0  0  0  0  0  0  0  0
  -30.4920  -26.4943   25.0419 C   0  0  0  0  0  0  0  0  0  0  0  0
  -26.7650  -13.9645   18.8674 C   0  0  0  0  0  0  0  0  0  0  0  0
  -30.5001  -25.5508   23.8379 C   0  0  0  0  0  0  0  0  0  0  0  0
  -29.0771  -26.7264   25.5675 C   0  0  0  0  0  0  0  0  0  0  0  0
  -28.1157  -26.2409   23.3508 C   0  0  0  0  0  0  0  0  0  0  0  0
  -27.0042  -14.5706   20.2555 C   0  0  1  0  0  0  0  0  0  0  0  0
  -23.9031  -16.5174   21.2686 C   0  0  1  0  0  0  0  0  0  0  0  0
  -29.5149  -26.0205   22.7507 C   0  0  2  0  0  0  0  0  0  0  0  0
  -16.6801  -15.8947   18.5404 C   0  0  0  0  0  0  0  0  0  0  0  0
  -23.0472  -14.8502   17.0439 C   0  0  0  0  0  0  0  0  0  0  0  0
  -20.6611  -14.9782   16.2968 C   0  0  0  0  0  0  0  0  0  0  0  0
  -21.3426  -13.2928   18.0049 C   0  0  0  0  0  0  0  0  0  0  0  0
  -17.8252  -18.0353   21.4701 C   0  0  0  0  0  0  0  0  0  0  0  0
  -25.9358  -29.9715   23.5264 C   0  0  0  0  0  0  0  0  0  0  0  0
  -23.0722  -24.9835   19.6395 C   0  0  0  0  0  0  0  0  0  0  0  0
  -23.7834  -23.8889   20.4202 C   0  0  0  0  0  0  0  0  0  1  0  0
  -22.9081  -26.2459   20.4677 C   0  0  0  0  0  0  0  0  0  0  0  0
  -21.2293  -15.7348   18.6496 C   0  0  1  0  0  0  0  0  0  0  0  0
  -17.6226  -16.3386   19.6483 C   0  0  2  0  0  0  0  0  0  0  0  0
  -21.5825  -14.7363   17.5114 C   0  0  0  0  0  0  0  0  0  0  0  0
  -29.6879  -23.7555   21.7905 N   0  0  0  0  0  0  0  0  0  0  0  0
  -29.4858  -25.0659   21.5714 N   0  0  0  0  0  0  0  0  0  0  0  0
  -22.8801  -16.6784   20.2334 N   0  0  0  0  0  0  0  0  0  0  0  0
  -28.1934  -27.1718   24.4875 N   0  0  0  0  0  0  0  0  0  0  0  0
  -29.0507  -26.6508   19.8657 N   0  0  0  0  0  0  0  0  0  0  0  0
  -29.2728  -22.7383   17.6207 N   0  0  0  0  0  0  0  0  0  0  0  0
  -22.0295  -28.7681   20.7275 N   0  0  0  0  0  0  0  0  0  0  0  0
  -25.7560  -15.0228   20.8315 N   0  0  0  0  0  0  0  0  0  0  0  0
  -19.8559  -15.6308   19.1309 N   0  0  0  0  0  0  0  0  0  0  0  0
  -26.6979  -28.7428   23.5444 N   0  0  0  0  0  0  0  0  0  0  0  0
  -17.0146  -17.5092   20.3417 N   0  3  0  0  0  0  0  0  0  0  0  0
  -28.9608  -24.9990   17.3957 O   0  0  0  0  0  0  0  0  0  0  0  0
  -25.6725  -17.1218   19.8267 O   0  0  0  0  0  0  0  0  0  0  0  0
  -22.1224  -14.4847   20.4568 O   0  0  0  0  0  0  0  0  0  0  0  0
  -19.2604  -17.8254   18.6766 O   0  0  0  0  0  0  0  0  0  0  0  0
  -27.6194  -29.1182   25.6100 O   0  0  0  0  0  0  0  0  0  0  0  0
  -20.6939  -27.0486   19.3631 O   0  0  0  0  0  0  0  0  0  0  0  0
  -22.8786  -27.8739   18.4191 O   0  0  0  0  0  0  0  0  0  0  0  0
  -30.2272  -17.7180   19.8391 O   0  0  0  0  0  0  0  0  0  0  0  0
  -23.8923  -22.7299   19.5948 O   0  0  0  0  0  0  0  0  0  1  0  0
  -33.4142  -16.0326   15.6671 F   0  0  0  0  0  0  0  0  0  0  0  0
  -25.2297  -32.0210   19.1680 F   0  0  0  0  0  0  0  0  0  0  0  0
  -29.6176  -18.3897   17.2276 F   0  0  0  0  0  0  0  0  0  0  0  0
  -22.0619  -27.5028   19.5634 S   0  0  0  0  0  0  0  0  0  0  0  0
  1  2  1  0  0  0  0
  1  5  2  0  0  0  0
  2  6  2  0  0  0  0
  3  8  2  0  0  0  0
  3 18  1  0  0  0  0
  4  9  1  0  0  0  0
  4 18  2  0  0  0  0
  5 20  1  0  0  0  0
  6 22  1  0  0  0  0
  7 10  2  0  0  0  0
  7 21  1  0  0  0  0
  8 26  1  0  0  0  0
  9 26  2  0  0  0  0
 10 27  1  0  0  0  0
 11 12  2  0  0  0  0
 11 28  1  0  0  0  0
 12 29  1  0  0  0  0
 13 23  1  0  0  0  0
 13 27  2  0  0  0  0
 14 24  1  0  0  0  0
 14 25  2  0  0  0  0
 15 24  2  0  0  0  0
 15 30  1  0  0  0  0
 16 25  1  0  0  0  0
 16 30  2  0  0  0  0
 17 29  2  0  0  0  0
 17 31  1  0  0  0  0
 18 32  1  0  0  0  0
 19 32  1  0  0  0  0
 19 33  2  0  0  0  0
 19 34  1  0  0  0  0
 20 22  2  0  0  0  0
 20 39  1  0  0  0  0
 21 23  2  0  0  0  0
 21 40  1  0  0  0  0
 22 48  1  0  0  0  0
 23 41  1  0  0  0  0
 24 56  1  0  0  0  0
 25 69  1  0  0  0  0
 26 81  1  0  0  0  0
 27 82  1  0  0  0  0
 28 31  2  0  0  0  0
 28 81  1  0  0  0  0
 29 83  1  0  0  0  0
 30 84  1  0  0  0  0
 31 85  1  0  0  0  0
 32 63  2  0  0  0  0
 33 64  1  0  0  0  0
 33 67  1  0  0  0  0
 34 68  1  0  0  0  0
 34 74  2  0  0  0  0
 35 49  1  0  0  0  0
 35 70  1  0  0  0  0
 35 75  2  0  0  0  0
 36 60  1  0  0  0  0
 36 65  1  0  0  0  0
 36 76  2  0  0  0  0
 37 61  1  0  0  0  0
 37 71  1  0  0  0  0
 37 77  2  0  0  0  0
 38 66  1  0  0  0  0
 38 72  1  0  0  0  0
 38 78  2  0  0  0  0
 39 42  1  0  0  0  0
 40 49  1  0  0  0  0
 41 65  1  0  0  0  0
 42 44  1  0  0  0  0
 43 45  1  0  0  0  0
 43 46  1  0  0  0  0
 44 48  1  0  0  0  0
 45 50  1  0  0  0  0
 46 66  1  0  0  0  0
 47 50  1  0  0  0  0
 47 66  1  0  0  0  0
 48 70  1  0  0  0  0
 49 65  1  0  0  0  0
 50 64  1  0  0  0  0
 51 61  1  0  0  0  0
 52 62  1  0  0  0  0
 53 62  1  0  0  0  0
 54 62  1  0  0  0  0
 55 73  1  0  0  0  0
 56 72  1  0  0  0  0
 57 58  1  0  0  0  0
 57 59  1  0  0  0  0
 58 82  1  0  0  0  0
 59 86  1  0  0  0  0
 60 62  1  0  0  0  0
 60 71  1  0  0  0  0
 61 73  1  0  0  0  0
 63 64  1  0  0  0  0
 69 86  1  0  0  0  0
 79 86  2  0  0  0  0
 80 86  2  0  0  0  0
M  CHG  1  73   1
M  ISO  4  38 100  58 101  72 100  82 101
M  END
> <Batch ID>
0102

> <Smiles>
CNC(C)C(=O)NC(C(=O)N1Cc2cc([101O:1][101CH2:1]CCS(=O)(=O)Nc3cc(F)cc(C[100NH:0][100C:0](=O)N4CCCC(n5nc(-c6ccc(Oc7ccc(F)cc7F)cc6)c(C(N)=O)c5N)C4)c3)ccc2CC1C(=O)NC1CCCc2ccccc21)C(C)(C)C

> <Shape>
0.180

> <Color>
0.078

> <Negative vol penalty>
0.000

$$$$

  -OEChem-04052301023D

 85 94  0     1  0  0  0  0  0999 V2000
  -16.9095  -30.1199   23.4254 C   0  0  0  0  0  0  0  0  0  0  0  0
  -18.1706  -30.6702   23.2201 C   0  0  0  0  0  0  0  0  0  0  0  0
  -24.4097  -13.7881   19.4795 C   0  0  0  0  0  0  0  0  0  0  0  0
  -23.1117  -15.0804   21.0551 C   0  0  0  0  0  0  0  0  0  0  0  0
  -16.7577  -28.7358   23.4985 C   0  0  0  0  0  0  0  0  0  0  0  0
  -19.2809  -29.8368   23.0888 C   0  0  0  0  0  0  0  0  0  0  0  0
  -25.5844  -29.4253   19.7106 C   0  0  0  0  0  0  0  0  0  0  0  0
  -28.1275  -24.0173   23.2807 C   0  0  0  0  0  0  0  0  0  0  0  0
  -28.5482  -25.3253   23.5210 C   0  0  0  0  0  0  0  0  0  0  0  0
  -23.5873  -12.6847   19.7071 C   0  0  0  0  0  0  0  0  0  0  0  0
  -22.2893  -13.9770   21.2826 C   0  0  0  0  0  0  0  0  0  0  0  0
  -26.9364  -29.2120   19.9755 C   0  0  0  0  0  0  0  0  0  0  0  0
  -23.2307  -10.2882   22.0638 C   0  0  0  0  0  0  0  0  0  0  0  0
  -23.8453   -9.0497   22.2475 C   0  0  0  0  0  0  0  0  0  0  0  0
  -26.5424  -26.8329   20.0395 C   0  0  0  0  0  0  0  0  0  0  0  0
  -30.1849  -25.1231   21.7553 C   0  0  0  0  0  0  0  0  0  0  0  0
  -22.6647   -8.1791   20.3277 C   0  0  0  0  0  0  0  0  0  0  0  0
  -24.1719  -14.9859   20.1536 C   0  0  0  0  0  0  0  0  0  0  0  0
  -24.8463  -17.1318   18.9503 C   0  0  0  0  0  0  0  0  0  0  0  0
  -17.8652  -27.8847   23.3584 C   0  0  0  0  0  0  0  0  0  0  0  0
  -24.6977  -28.3428   19.6188 C   0  0  0  0  0  0  0  0  0  0  0  0
  -19.1439  -28.4401   23.1614 C   0  0  0  0  0  0  0  0  0  0  0  0
  -25.1800  -27.0350   19.7708 C   0  0  0  0  0  0  0  0  0  0  0  0
  -28.7355  -23.2621   22.2778 C   0  0  0  0  0  0  0  0  0  0  0  0
  -29.7641  -23.8151   21.5151 C   0  0  0  0  0  0  0  0  0  0  0  0
  -29.5769  -25.8782   22.7583 C   0  0  0  0  0  0  0  0  0  0  0  0
  -22.5271  -12.7791   20.6085 C   0  0  0  0  0  0  0  0  0  0  0  0
  -27.4151  -27.9159   20.1429 C   0  0  0  0  0  0  0  0  0  0  0  0
  -22.3330  -10.4723   21.0121 C   0  0  0  0  0  0  0  0  0  0  0  0
  -23.5624   -7.9951   21.3794 C   0  0  0  0  0  0  0  0  0  0  0  0
  -22.0501   -9.4177   20.1441 C   0  0  0  0  0  0  0  0  0  0  0  0
  -25.0215  -16.1259   19.9194 C   0  0  0  0  0  0  0  0  0  0  0  0
  -25.9126  -17.9774   19.1364 C   0  0  0  0  0  0  0  0  0  0  0  0
  -29.9722  -27.8955   24.2425 C   0  0  0  0  0  0  0  0  0  0  0  0
  -23.8122  -17.2880   17.9695 C   0  0  0  0  0  0  0  0  0  0  0  0
  -22.1211  -27.4109   21.2302 C   0  0  0  0  0  0  0  0  0  0  0  0
  -29.2399  -20.8522   22.5938 C   0  0  0  0  0  0  0  0  0  0  0  0
  -21.9652  -25.1512   18.9082 C   0  0  0  0  0  0  0  0  0  0  0  0
  -23.5955  -23.3156   16.5377 C   0  0  0  0  0  0  0  0  0  0  0  0
  -17.6586  -26.3967   23.4918 C   0  0  0  0  0  0  0  0  0  0  0  0
  -23.2470  -28.5880   19.3060 C   0  0  0  0  0  0  0  0  0  0  0  0
  -24.2731  -25.8375   19.6618 C   0  0  0  0  0  0  0  0  0  0  0  0
  -30.5430  -29.2771   24.0265 C   0  0  0  0  0  0  0  0  0  0  0  0
  -18.8301  -25.5697   22.9684 C   0  0  0  0  0  0  0  0  0  0  0  0
  -31.3175  -29.1404   22.7294 C   0  0  0  0  0  0  0  0  0  0  0  0
  -30.1046  -17.4442   21.9025 C   0  0  0  0  0  0  0  0  0  0  0  0
  -20.1519  -26.1321   23.4817 C   0  0  0  0  0  0  0  0  0  0  0  0
  -28.8349  -16.8723   21.2732 C   0  0  0  0  0  0  0  0  0  0  0  0
  -29.7788  -18.4706   22.9830 C   0  0  0  0  0  0  0  0  0  0  0  0
  -27.6282  -19.0151   21.8874 C   0  0  0  0  0  0  0  0  0  0  0  0
  -20.3687  -27.5682   22.9895 C   0  0  1  0  0  0  0  0  0  0  0  0
  -22.3394  -27.4427   19.7439 C   0  0  1  0  0  0  0  0  0  0  0  0
  -27.9129  -17.9967   20.7693 C   0  0  2  0  0  0  0  0  0  0  0  0
  -30.5382  -28.0855   21.9520 C   0  0  2  0  0  0  0  0  0  0  0  0
  -30.4283  -23.0262   20.4347 C   0  0  0  0  0  0  0  0  0  0  0  0
  -23.2099  -21.5224   14.8251 C   0  0  0  0  0  0  0  0  0  0  0  0
  -21.8645  -23.0581   21.1260 C   0  0  0  0  0  0  0  0  0  0  0  0
  -22.4357  -21.3204   19.4165 C   0  0  0  0  0  0  0  0  0  0  0  0
  -20.3180  -22.6224   19.2095 C   0  0  0  0  0  0  0  0  0  0  0  0
  -24.4262  -25.0921   14.3211 C   0  0  0  0  0  0  0  0  0  0  0  0
  -28.2684  -21.8637   22.0396 C   0  0  0  0  0  0  0  0  0  0  0  0
  -29.4270  -28.7269   21.1178 C   0  0  0  0  0  0  0  0  0  1  0  0
  -22.5245  -23.7603   18.7307 C   0  0  1  0  0  0  0  0  0  0  0  0
  -23.2612  -23.0196   15.0868 C   0  0  2  0  0  0  0  0  0  0  0  0
  -21.8027  -22.7128   19.6247 C   0  0  0  0  0  0  0  0  0  0  0  0
  -26.1132  -16.3134   20.6657 N   0  0  0  0  0  0  0  0  0  0  0  0
  -26.6337  -17.4469   20.1654 N   0  0  0  0  0  0  0  0  0  0  0  0
  -30.0079  -27.2217   23.0032 N   0  0  0  0  0  0  0  0  0  0  0  0
  -22.8618  -26.1294   19.3609 N   0  0  0  0  0  0  0  0  0  0  0  0
  -28.8830  -19.5093   22.4712 N   0  0  0  0  0  0  0  0  0  0  0  0
  -26.2944  -19.1153   18.5186 N   0  0  0  0  0  0  0  0  0  0  0  0
  -22.7922  -16.3283   17.9154 N   0  0  0  0  0  0  0  0  0  0  0  0
  -20.8015  -27.5692   21.6085 N   0  0  0  0  0  0  0  0  0  0  0  0
  -22.4587  -23.4731   17.3019 N   0  0  0  0  0  0  0  0  0  0  0  0
  -24.2861  -23.6193   14.1863 N   0  3  0  0  0  0  0  0  0  0  0  0
  -29.5505  -27.5286   25.3299 O   0  0  0  0  0  0  0  0  0  0  0  0
  -23.8021  -18.2413   17.1542 O   0  0  0  0  0  0  0  0  0  0  0  0
  -23.0787  -27.2528   21.9783 O   0  0  0  0  0  0  0  0  0  0  0  0
  -30.2857  -21.2458   23.1170 O   0  0  0  0  0  0  0  0  0  0  0  0
  -20.7783  -25.3635   18.6477 O   0  0  0  0  0  0  0  0  0  0  0  0
  -24.7497  -23.3952   16.9524 O   0  0  0  0  0  0  0  0  0  0  0  0
  -21.7242  -11.7027   20.8306 O   0  0  0  0  0  0  0  0  0  0  0  0
  -28.7343  -27.7049   20.4022 O   0  0  0  0  0  0  0  0  0  1  0  0
  -24.1539   -6.8062   21.5550 F   0  0  0  0  0  0  0  0  0  0  0  0
  -21.1894   -9.5888   19.1312 F   0  0  0  0  0  0  0  0  0  0  0  0
  1  2  1  0  0  0  0
  1  5  2  0  0  0  0
  2  6  2  0  0  0  0
  3 10  2  0  0  0  0
  3 18  1  0  0  0  0
  4 11  1  0  0  0  0
  4 18  2  0  0  0  0
  5 20  1  0  0  0  0
  6 22  1  0  0  0  0
  7 12  2  0  0  0  0
  7 21  1  0  0  0  0
  8  9  2  0  0  0  0
  8 24  1  0  0  0  0
  9 26  1  0  0  0  0
 10 27  1  0  0  0  0
 11 27  2  0  0  0  0
 12 28  1  0  0  0  0
 13 14  2  0  0  0  0
 13 29  1  0  0  0  0
 14 30  1  0  0  0  0
 15 23  1  0  0  0  0
 15 28  2  0  0  0  0
 16 25  1  0  0  0  0
 16 26  2  0  0  0  0
 17 30  2  0  0  0  0
 17 31  1  0  0  0  0
 18 32  1  0  0  0  0
 19 32  1  0  0  0  0
 19 33  2  0  0  0  0
 19 35  1  0  0  0  0
 20 22  2  0  0  0  0
 20 40  1  0  0  0  0
 21 23  2  0  0  0  0
 21 41  1  0  0  0  0
 22 51  1  0  0  0  0
 23 42  1  0  0  0  0
 24 25  2  0  0  0  0
 24 61  1  0  0  0  0
 25 55  1  0  0  0  0
 26 68  1  0  0  0  0
 27 82  1  0  0  0  0
 28 83  1  0  0  0  0
 29 31  2  0  0  0  0
 29 82  1  0  0  0  0
 30 84  1  0  0  0  0
 31 85  1  0  0  0  0
 32 66  2  0  0  0  0
 33 67  1  0  0  0  0
 33 71  1  0  0  0  0
 34 43  1  0  0  0  0
 34 68  1  0  0  0  0
 34 76  2  0  0  0  0
 35 72  1  0  0  0  0
 35 77  2  0  0  0  0
 36 52  1  0  0  0  0
 36 73  1  0  0  0  0
 36 78  2  0  0  0  0
 37 61  1  0  0  0  0
 37 70  1  0  0  0  0
 37 79  2  0  0  0  0
 38 63  1  0  0  0  0
 38 69  1  0  0  0  0
 38 80  2  0  0  0  0
 39 64  1  0  0  0  0
 39 74  1  0  0  0  0
 39 81  2  0  0  0  0
 40 44  1  0  0  0  0
 41 52  1  0  0  0  0
 42 69  1  0  0  0  0
 43 45  1  0  0  0  0
 44 47  1  0  0  0  0
 45 54  1  0  0  0  0
 46 48  1  0  0  0  0
 46 49  1  0  0  0  0
 47 51  1  0  0  0  0
 48 53  1  0  0  0  0
 49 70  1  0  0  0  0
 50 53  1  0  0  0  0
 50 70  1  0  0  0  0
 51 73  1  0  0  0  0
 52 69  1  0  0  0  0
 53 67  1  0  0  0  0
 54 62  1  0  0  0  0
 54 68  1  0  0  0  0
 56 64  1  0  0  0  0
 57 65  1  0  0  0  0
 58 65  1  0  0  0  0
 59 65  1  0  0  0  0
 60 75  1  0  0  0  0
 62 83  1  0  0  0  0
 63 65  1  0  0  0  0
 63 74  1  0  0  0  0
 64 75  1  0  0  0  0
 66 67  1  0  0  0  0
M  CHG  1  75   1
M  ISO  4  37 100  61 100  62 101  83 101
M  END
> <Batch ID>
0102

> <Smiles>
CNC(C)C(=O)NC(C(=O)N1Cc2cc([101O:1][101CH2:1]C3CCC(=O)N3c3ccc([100CH2:0][100C:0](=O)N4CCCC(n5nc(-c6ccc(Oc7ccc(F)cc7F)cc6)c(C(N)=O)c5N)C4)c(C)c3)ccc2CC1C(=O)NC1CCCc2ccccc21)C(C)(C)C

> <Shape>
0.221

> <Color>
0.072

> <Negative vol penalty>
0.000

$$$$

  -OEChem-04052301023D

 85 94  0     1  0  0  0  0  0999 V2000
  -27.3965  -35.4258   15.5611 C   0  0  0  0  0  0  0  0  0  0  0  0
  -27.5204  -34.0401   15.5508 C   0  0  0  0  0  0  0  0  0  0  0  0
  -22.9952  -10.0728   19.9071 C   0  0  0  0  0  0  0  0  0  0  0  0
  -23.9630   -9.7518   22.0974 C   0  0  0  0  0  0  0  0  0  0  0  0
  -27.4539  -36.1206   16.7685 C   0  0  0  0  0  0  0  0  0  0  0  0
  -27.7029  -33.3486   16.7478 C   0  0  0  0  0  0  0  0  0  0  0  0
  -25.5477  -27.7915   18.1546 C   0  0  0  0  0  0  0  0  0  0  0  0
  -31.6369  -18.4465   20.4328 C   0  0  0  0  0  0  0  0  0  0  0  0
  -31.3816  -19.5977   19.6878 C   0  0  0  0  0  0  0  0  0  0  0  0
  -22.2611   -8.8966   20.0590 C   0  0  0  0  0  0  0  0  0  0  0  0
  -23.2288   -8.5756   22.2494 C   0  0  0  0  0  0  0  0  0  0  0  0
  -26.1325  -26.5260   18.1347 C   0  0  0  0  0  0  0  0  0  0  0  0
  -20.0588   -7.7033   23.0306 C   0  0  0  0  0  0  0  0  0  0  0  0
  -19.4123   -7.4975   24.2493 C   0  0  0  0  0  0  0  0  0  0  0  0
  -26.6337  -26.7272   20.4858 C   0  0  0  0  0  0  0  0  0  0  0  0
  -29.2180  -19.8012   20.7435 C   0  0  0  0  0  0  0  0  0  0  0  0
  -20.6884   -5.4735   24.5844 C   0  0  0  0  0  0  0  0  0  0  0  0
  -23.8462  -10.5005   20.9262 C   0  0  0  0  0  0  0  0  0  0  0  0
  -24.2116  -13.0166   21.1345 C   0  0  0  0  0  0  0  0  0  0  0  0
  -27.6275  -35.4364   17.9819 C   0  0  0  0  0  0  0  0  0  0  0  0
  -25.5113  -28.5401   19.3398 C   0  0  0  0  0  0  0  0  0  0  0  0
  -27.7640  -34.0351   17.9724 C   0  0  0  0  0  0  0  0  0  0  0  0
  -26.0456  -28.0008   20.5187 C   0  0  0  0  0  0  0  0  0  0  0  0
  -30.6827  -17.9725   21.3331 C   0  0  0  0  0  0  0  0  0  0  0  0
  -29.4733  -18.6499   21.4885 C   0  0  0  0  0  0  0  0  0  0  0  0
  -30.1722  -20.2751   19.8431 C   0  0  0  0  0  0  0  0  0  0  0  0
  -22.3779   -8.1480   21.2302 C   0  0  0  0  0  0  0  0  0  0  0  0
  -26.6781  -25.9948   19.2997 C   0  0  0  0  0  0  0  0  0  0  0  0
  -21.0200   -6.7941   22.5887 C   0  0  0  0  0  0  0  0  0  0  0  0
  -19.7271   -6.3827   25.0263 C   0  0  0  0  0  0  0  0  0  0  0  0
  -21.3348   -5.6793   23.3657 C   0  0  0  0  0  0  0  0  0  0  0  0
  -24.6052  -11.7151   20.7696 C   0  0  0  0  0  0  0  0  0  0  0  0
  -25.2762  -13.8091   20.7812 C   0  0  0  0  0  0  0  0  0  0  0  0
  -28.9541  -23.3849   18.3543 C   0  0  0  0  0  0  0  0  0  0  0  0
  -28.3157  -24.5559   18.4521 C   0  0  0  0  0  0  0  0  0  1  0  0
  -22.9925  -13.4686   21.7389 C   0  0  0  0  0  0  0  0  0  0  0  0
  -26.7069  -31.3364   20.2643 C   0  0  0  0  0  0  0  0  0  0  0  0
  -24.9597  -30.7590   22.9357 C   0  0  0  0  0  0  0  0  0  0  0  0
  -23.4502  -28.4745   24.9726 C   0  0  0  0  0  0  0  0  0  0  0  0
  -30.7680  -14.7853   20.6007 C   0  0  0  0  0  0  0  0  0  0  0  0
  -27.7307  -36.2349   19.2572 C   0  0  0  0  0  0  0  0  0  0  0  0
  -24.8531  -29.8925   19.3508 C   0  0  0  0  0  0  0  0  0  0  0  0
  -26.0137  -28.7556   21.8217 C   0  0  0  0  0  0  0  0  0  0  0  0
  -30.1231  -23.1142   17.4611 C   0  0  0  0  0  0  0  0  0  0  0  0
  -28.6817  -22.1832   19.2081 C   0  0  0  0  0  0  0  0  0  0  0  0
  -27.5511  -35.3941   20.5186 C   0  0  0  0  0  0  0  0  0  0  0  0
  -29.3816  -12.7668   18.0161 C   0  0  0  0  0  0  0  0  0  0  0  0
  -28.3838  -34.1188   20.4331 C   0  0  0  0  0  0  0  0  0  0  0  0
  -27.9861  -12.4157   18.5349 C   0  0  0  0  0  0  0  0  0  0  0  0
  -30.9032  -22.0548   18.2344 C   0  0  0  0  0  0  0  0  0  0  0  0
  -30.4085  -12.8131   19.1455 C   0  0  0  0  0  0  0  0  0  0  0  0
  -28.6530  -13.3408   20.7928 C   0  0  0  0  0  0  0  0  0  0  0  0
  -27.9383  -33.2472   19.2527 C   0  0  1  0  0  0  0  0  0  0  0  0
  -25.3305  -30.7801   20.4961 C   0  0  1  0  0  0  0  0  0  0  0  0
  -27.5722  -13.3370   19.6982 C   0  0  2  0  0  0  0  0  0  0  0  0
  -28.4362  -18.1604   22.4453 C   0  0  0  0  0  0  0  0  0  0  0  0
  -22.1322  -28.3003   27.1010 C   0  0  0  0  0  0  0  0  0  0  0  0
  -27.5112  -31.2030   24.5491 C   0  0  0  0  0  0  0  0  0  0  0  0
  -26.3860  -30.1071   26.4987 C   0  0  0  0  0  0  0  0  0  0  0  0
  -25.4552  -32.2173   25.5483 C   0  0  0  0  0  0  0  0  0  0  0  0
  -21.1238  -27.2975   23.5720 C   0  0  0  0  0  0  0  0  0  0  0  0
  -30.9782  -16.7373   22.1187 C   0  0  0  0  0  0  0  0  0  0  0  0
  -25.2148  -30.0613   24.2499 C   0  0  1  0  0  0  0  0  0  0  0  0
  -22.0629  -28.4348   25.5878 C   0  0  2  0  0  0  0  0  0  0  0  0
  -26.1443  -30.8835   25.1867 C   0  0  0  0  0  0  0  0  0  0  0  0
  -25.8247  -11.6787   20.2260 N   0  0  0  0  0  0  0  0  0  0  0  0
  -26.2065  -12.9670   20.2466 N   0  0  0  0  0  0  0  0  0  0  0  0
  -29.9203  -21.4155   19.1059 N   0  0  3  0  0  0  0  0  0  0  0  0
  -25.3650  -30.0766   21.7799 N   0  0  0  0  0  0  0  0  0  0  0  0
  -29.9565  -13.7053   20.2158 N   0  0  0  0  0  0  0  0  0  0  0  0
  -25.4980  -15.1371   20.8786 N   0  0  0  0  0  0  0  0  0  0  0  0
  -22.0031  -12.5217   22.0365 N   0  0  0  0  0  0  0  0  0  0  0  0
  -26.7206  -32.5369   19.5801 N   0  0  0  0  0  0  0  0  0  0  0  0
  -23.9033  -29.7674   24.8173 N   0  0  0  0  0  0  0  0  0  0  0  0
  -30.2623  -15.5851   21.6182 N   0  0  0  0  0  0  0  0  0  0  0  0
  -21.2898  -27.2807   25.0482 N   0  3  0  0  0  0  0  0  0  0  0  0
  -22.7802  -14.6787   21.9921 O   0  0  0  0  0  0  0  0  0  0  0  0
  -27.6840  -30.7227   20.6770 O   0  0  0  0  0  0  0  0  0  0  0  0
  -24.4143  -31.8654   22.9342 O   0  0  0  0  0  0  0  0  0  0  0  0
  -24.0714  -27.4597   24.6643 O   0  0  0  0  0  0  0  0  0  0  0  0
  -31.8598  -15.0225   20.0728 O   0  0  0  0  0  0  0  0  0  0  0  0
  -21.6615   -7.0003   21.3789 O   0  0  0  0  0  0  0  0  0  0  0  0
  -27.2500  -24.7601   19.2829 O   0  0  0  0  0  0  0  0  0  1  0  0
  -19.1074   -6.1860   26.1973 F   0  0  0  0  0  0  0  0  0  0  0  0
  -22.2583   -4.8031   22.9470 F   0  0  0  0  0  0  0  0  0  0  0  0
  1  2  1  0  0  0  0
  1  5  2  0  0  0  0
  2  6  2  0  0  0  0
  3 10  2  0  0  0  0
  3 18  1  0  0  0  0
  4 11  1  0  0  0  0
  4 18  2  0  0  0  0
  5 20  1  0  0  0  0
  6 22  1  0  0  0  0
  7 12  2  0  0  0  0
  7 21  1  0  0  0  0
  8  9  2  0  0  0  0
  8 24  1  0  0  0  0
  9 26  1  0  0  0  0
 10 27  1  0  0  0  0
 11 27  2  0  0  0  0
 12 28  1  0  0  0  0
 13 14  2  0  0  0  0
 13 29  1  0  0  0  0
 14 30  1  0  0  0  0
 15 23  1  0  0  0  0
 15 28  2  0  0  0  0
 16 25  1  0  0  0  0
 16 26  2  0  0  0  0
 17 30  2  0  0  0  0
 17 31  1  0  0  0  0
 18 32  1  0  0  0  0
 19 32  1  0  0  0  0
 19 33  2  0  0  0  0
 19 36  1  0  0  0  0
 20 22  2  0  0  0  0
 20 41  1  0  0  0  0
 21 23  2  0  0  0  0
 21 42  1  0  0  0  0
 22 53  1  0  0  0  0
 23 43  1  0  0  0  0
 24 25  2  0  0  0  0
 24 62  1  0  0  0  0
 25 56  1  0  0  0  0
 26 68  1  0  0  0  0
 27 82  1  0  0  0  0
 28 83  1  0  0  0  0
 29 31  2  0  0  0  0
 29 82  1  0  0  0  0
 30 84  1  0  0  0  0
 31 85  1  0  0  0  0
 32 66  2  0  0  0  0
 33 67  1  0  0  0  0
 33 71  1  0  0  0  0
 34 35  2  0  0  0  0
 34 44  1  0  0  0  0
 34 45  1  0  0  0  0
 35 83  1  0  0  0  0
 36 72  1  0  0  0  0
 36 77  2  0  0  0  0
 37 54  1  0  0  0  0
 37 73  1  0  0  0  0
 37 78  2  0  0  0  0
 38 63  1  0  0  0  0
 38 69  1  0  0  0  0
 38 79  2  0  0  0  0
 39 64  1  0  0  0  0
 39 74  1  0  0  0  0
 39 80  2  0  0  0  0
 40 70  1  0  0  0  0
 40 75  1  0  0  0  0
 40 81  2  0  0  0  0
 41 46  1  0  0  0  0
 42 54  1  0  0  0  0
 43 69  1  0  0  0  0
 44 50  1  0  0  0  0
 45 68  1  0  0  0  0
 46 48  1  0  0  0  0
 47 49  1  0  0  0  0
 47 51  1  0  0  0  0
 48 53  1  0  0  0  0
 49 55  1  0  0  0  0
 50 68  1  0  0  0  0
 51 70  1  0  0  0  0
 52 55  1  0  0  0  0
 52 70  1  0  0  0  0
 53 73  1  0  0  0  0
 54 69  1  0  0  0  0
 55 67  1  0  0  0  0
 57 64  1  0  0  0  0
 58 65  1  0  0  0  0
 59 65  1  0  0  0  0
 60 65  1  0  0  0  0
 61 76  1  0  0  0  0
 62 75  1  0  0  0  0
 63 65  1  0  0  0  0
 63 74  1  0  0  0  0
 64 76  1  0  0  0  0
 66 67  1  0  0  0  0
M  CHG  1  76   1
M  ISO  4  35 101  40 100  75 100  83 101
M  END
> <Batch ID>
0102

> <Smiles>
CNC(C)C(=O)NC(C(=O)N1Cc2cc([101O:1][101CH:1]=C3CCN(c4ccc(C[100NH:0][100C:0](=O)N5CCCC(n6nc(-c7ccc(Oc8ccc(F)cc8F)cc7)c(C(N)=O)c6N)C5)c(C)c4)C3)ccc2CC1C(=O)NC1CCCc2ccccc21)C(C)(C)C

> <Shape>
0.350

> <Color>
0.221

> <Negative vol penalty>
0.000

$$$$

  -OEChem-04052301023D

 87 95  0     1  0  0  0  0  0999 V2000
  -39.6166  -26.3469   22.5913 C   0  0  0  0  0  0  0  0  0  0  0  0
  -39.1202  -25.0623   22.3941 C   0  0  0  0  0  0  0  0  0  0  0  0
  -23.2796   -9.7758   19.9987 C   0  0  0  0  0  0  0  0  0  0  0  0
  -23.7521   -9.9990   22.3575 C   0  0  0  0  0  0  0  0  0  0  0  0
  -38.7429  -27.3935   22.8831 C   0  0  0  0  0  0  0  0  0  0  0  0
  -37.7497  -24.8234   22.4898 C   0  0  0  0  0  0  0  0  0  0  0  0
  -36.0208  -21.8988   18.7345 C   0  0  0  0  0  0  0  0  0  0  0  0
  -22.5529   -8.6130   20.2543 C   0  0  0  0  0  0  0  0  0  0  0  0
  -23.0253   -8.8362   22.6131 C   0  0  0  0  0  0  0  0  0  0  0  0
  -36.2592  -20.5287   18.8331 C   0  0  0  0  0  0  0  0  0  0  0  0
  -19.7785   -7.9409   22.8916 C   0  0  0  0  0  0  0  0  0  0  0  0
  -18.8858   -7.9589   23.9632 C   0  0  0  0  0  0  0  0  0  0  0  0
  -33.0515  -13.8673   25.9856 C   0  0  0  0  0  0  0  0  0  0  0  0
  -30.9292  -13.2285   25.0241 C   0  0  0  0  0  0  0  0  0  0  0  0
  -34.0060  -20.2000   19.6296 C   0  0  0  0  0  0  0  0  0  0  0  0
  -32.8381  -13.6087   23.5929 C   0  0  0  0  0  0  0  0  0  0  0  0
  -20.0967   -6.1449   25.0025 C   0  0  0  0  0  0  0  0  0  0  0  0
  -23.8793  -10.4688   21.0503 C   0  0  0  0  0  0  0  0  0  0  0  0
  -31.7077  -13.5277   26.1421 C   0  0  0  0  0  0  0  0  0  0  0  0
  -24.1419  -12.9896   20.7601 C   0  0  0  0  0  0  0  0  0  0  0  0
  -37.3600  -27.1691   22.9729 C   0  0  0  0  0  0  0  0  0  0  0  0
  -34.7746  -22.4320   19.0936 C   0  0  0  0  0  0  0  0  0  0  0  0
  -36.8568  -25.8677   22.7844 C   0  0  0  0  0  0  0  0  0  0  0  0
  -33.7535  -21.5769   19.5321 C   0  0  0  0  0  0  0  0  0  0  0  0
  -33.6167  -13.9079   24.7109 C   0  0  0  0  0  0  0  0  0  0  0  0
  -31.4943  -13.2690   23.7495 C   0  0  0  0  0  0  0  0  0  0  0  0
  -22.4256   -8.1433   21.5615 C   0  0  0  0  0  0  0  0  0  0  0  0
  -35.2527  -19.6794   19.2834 C   0  0  0  0  0  0  0  0  0  0  0  0
  -20.8303   -7.0249   22.8754 C   0  0  0  0  0  0  0  0  0  0  0  0
  -19.0448   -7.0609   25.0186 C   0  0  0  0  0  0  0  0  0  0  0  0
  -20.9894   -6.1269   23.9309 C   0  0  0  0  0  0  0  0  0  0  0  0
  -24.6307  -11.6697   20.7869 C   0  0  0  0  0  0  0  0  0  0  0  0
  -25.2426  -13.7574   20.4678 C   0  0  0  0  0  0  0  0  0  0  0  0
  -31.4962  -14.2719   28.4695 C   0  0  0  0  0  0  0  0  0  0  0  0
  -31.1177  -13.4859   27.4710 C   0  0  0  0  0  0  0  0  0  0  0  0
  -22.8119  -13.4779   20.9798 C   0  0  0  0  0  0  0  0  0  0  0  0
  -33.7678  -24.5007   21.2869 C   0  0  0  0  0  0  0  0  0  0  0  0
  -30.9305  -24.1478   19.7547 C   0  0  0  0  0  0  0  0  0  0  0  0
  -35.9232  -15.4238   22.4906 C   0  0  0  0  0  0  0  0  0  0  0  0
  -28.9265  -22.2203   17.7759 C   0  0  0  0  0  0  0  0  0  0  0  0
  -31.1086  -12.9597   21.2793 C   0  0  0  0  0  0  0  0  0  0  0  0
  -36.4595  -28.3228   23.3373 C   0  0  0  0  0  0  0  0  0  0  0  0
  -34.5247  -23.9089   18.9561 C   0  0  0  0  0  0  0  0  0  0  0  0
  -32.3916  -22.0969   19.9107 C   0  0  0  0  0  0  0  0  0  0  0  0
  -34.9837  -28.0575   23.0511 C   0  0  0  0  0  0  0  0  0  0  0  0
  -29.4487  -13.5584   18.1868 C   0  0  0  0  0  0  0  0  0  0  0  0
  -34.5802  -26.6783   23.5629 C   0  0  0  0  0  0  0  0  0  0  0  0
  -27.9795  -13.2680   18.5018 C   0  0  0  0  0  0  0  0  0  0  0  0
  -30.3864  -12.6070   18.9279 C   0  0  0  0  0  0  0  0  0  0  0  0
  -28.7082  -12.2445   20.6946 C   0  0  0  0  0  0  0  0  0  0  0  0
  -35.3740  -25.5734   22.8554 C   0  0  1  0  0  0  0  0  0  0  0  0
  -33.3832  -24.4064   19.8375 C   0  0  1  0  0  0  0  0  0  0  0  0
  -27.7280  -13.2192   20.0216 C   0  0  2  0  0  0  0  0  0  0  0  0
  -26.6484  -22.1807   16.7242 C   0  0  0  0  0  0  0  0  0  0  0  0
  -29.6952  -23.4724   22.4617 C   0  0  0  0  0  0  0  0  0  0  0  0
  -27.7160  -22.5369   21.2469 C   0  0  0  0  0  0  0  0  0  0  0  0
  -28.2919  -24.9529   21.0149 C   0  0  0  0  0  0  0  0  0  0  0  0
  -34.6277  -16.6791   24.2313 C   0  0  0  0  0  0  0  0  0  0  0  0
  -30.0618  -22.1067   15.0451 C   0  0  0  0  0  0  0  0  0  0  0  0
  -35.0629  -14.2740   24.5418 C   0  0  0  0  0  0  0  0  0  0  0  0
  -36.0141  -16.7424   21.7336 C   0  0  0  0  0  0  0  0  0  0  0  0
  -36.7837  -16.6142   20.4207 C   0  0  0  0  0  0  0  0  0  0  0  0
  -36.8211  -17.9318   19.6599 C   0  0  0  0  0  0  0  0  0  1  0  0
  -29.7492  -23.2180   19.8930 C   0  0  1  0  0  0  0  0  0  0  0  0
  -28.1111  -22.5538   16.5396 C   0  0  2  0  0  0  0  0  0  0  0  0
  -28.8893  -23.5352   21.1489 C   0  0  0  0  0  0  0  0  0  0  0  0
  -25.9399  -11.5994   20.5318 N   0  0  0  0  0  0  0  0  0  0  0  0
  -26.2831  -12.8847   20.3419 N   0  0  0  0  0  0  0  0  0  0  0  0
  -32.1983  -23.5491   19.7650 N   0  0  0  0  0  0  0  0  0  0  0  0
  -30.0925  -12.6164   20.3626 N   0  0  0  0  0  0  0  0  0  0  0  0
  -25.4122  -15.0872   20.3088 N   0  0  0  0  0  0  0  0  0  0  0  0
  -21.7998  -12.5527   21.2693 N   0  0  0  0  0  0  0  0  0  0  0  0
  -30.7033  -12.9661   22.6136 N   0  0  0  0  0  0  0  0  0  0  0  0
  -34.8406  -25.3368   21.5310 N   0  0  0  0  0  0  0  0  0  0  0  0
  -29.0182  -23.2966   18.6329 N   0  0  0  0  0  0  0  0  0  0  0  0
  -35.2321  -15.4567   23.7066 N   0  0  0  0  0  0  0  0  0  0  0  0
  -28.6386  -21.8165   15.3568 N   0  3  0  0  0  0  0  0  0  0  0  0
  -22.5261  -14.6970   20.9050 O   0  0  0  0  0  0  0  0  0  0  0  0
  -33.1369  -23.8634   22.1221 O   0  0  0  0  0  0  0  0  0  0  0  0
  -30.7353  -25.3599   19.6346 O   0  0  0  0  0  0  0  0  0  0  0  0
  -36.4401  -14.4019   22.0312 O   0  0  0  0  0  0  0  0  0  0  0  0
  -29.4286  -21.1144   17.9644 O   0  0  0  0  0  0  0  0  0  0  0  0
  -32.2468  -13.2547   20.9059 O   0  0  0  0  0  0  0  0  0  0  0  0
  -21.7163   -7.0088   21.8112 O   0  0  0  0  0  0  0  0  0  0  0  0
  -35.4830  -18.3418   19.3813 O   0  0  0  0  0  0  0  0  0  1  0  0
  -18.1884   -7.0793   26.0483 F   0  0  0  0  0  0  0  0  0  0  0  0
  -21.9987   -5.2453   23.9215 F   0  0  0  0  0  0  0  0  0  0  0  0
  1  2  1  0  0  0  0
  1  5  2  0  0  0  0
  2  6  2  0  0  0  0
  3  8  2  0  0  0  0
  3 18  1  0  0  0  0
  4  9  1  0  0  0  0
  4 18  2  0  0  0  0
  5 21  1  0  0  0  0
  6 23  1  0  0  0  0
  7 10  2  0  0  0  0
  7 22  1  0  0  0  0
  8 27  1  0  0  0  0
  9 27  2  0  0  0  0
 10 28  1  0  0  0  0
 11 12  2  0  0  0  0
 11 29  1  0  0  0  0
 12 30  1  0  0  0  0
 13 19  1  0  0  0  0
 13 25  2  0  0  0  0
 14 19  2  0  0  0  0
 14 26  1  0  0  0  0
 15 24  1  0  0  0  0
 15 28  2  0  0  0  0
 16 25  1  0  0  0  0
 16 26  2  0  0  0  0
 17 30  2  0  0  0  0
 17 31  1  0  0  0  0
 18 32  1  0  0  0  0
 19 35  1  0  0  0  0
 20 32  1  0  0  0  0
 20 33  2  0  0  0  0
 20 36  1  0  0  0  0
 21 23  2  0  0  0  0
 21 42  1  0  0  0  0
 22 24  2  0  0  0  0
 22 43  1  0  0  0  0
 23 51  1  0  0  0  0
 24 44  1  0  0  0  0
 25 60  1  0  0  0  0
 26 73  1  0  0  0  0
 27 84  1  0  0  0  0
 28 85  1  0  0  0  0
 29 31  2  0  0  0  0
 29 84  1  0  0  0  0
 30 86  1  0  0  0  0
 31 87  1  0  0  0  0
 32 67  2  0  0  0  0
 33 68  1  0  0  0  0
 33 71  1  0  0  0  0
 34 35  2  0  0  0  0
 36 72  1  0  0  0  0
 36 78  2  0  0  0  0
 37 52  1  0  0  0  0
 37 74  1  0  0  0  0
 37 79  2  0  0  0  0
 38 64  1  0  0  0  0
 38 69  1  0  0  0  0
 38 80  2  0  0  0  0
 39 61  1  0  0  0  0
 39 76  1  0  0  0  0
 39 81  2  0  0  0  0
 40 65  1  0  0  0  0
 40 75  1  0  0  0  0
 40 82  2  0  0  0  0
 41 70  1  0  0  0  0
 41 73  1  0  0  0  0
 41 83  2  0  0  0  0
 42 45  1  0  0  0  0
 43 52  1  0  0  0  0
 44 69  1  0  0  0  0
 45 47  1  0  0  0  0
 46 48  1  0  0  0  0
 46 49  1  0  0  0  0
 47 51  1  0  0  0  0
 48 53  1  0  0  0  0
 49 70  1  0  0  0  0
 50 53  1  0  0  0  0
 50 70  1  0  0  0  0
 51 74  1  0  0  0  0
 52 69  1  0  0  0  0
 53 68  1  0  0  0  0
 54 65  1  0  0  0  0
 55 66  1  0  0  0  0
 56 66  1  0  0  0  0
 57 66  1  0  0  0  0
 58 76  1  0  0  0  0
 59 77  1  0  0  0  0
 60 76  1  0  0  0  0
 61 62  1  0  0  0  0
 62 63  1  0  0  0  0
 63 85  1  0  0  0  0
 64 66  1  0  0  0  0
 64 75  1  0  0  0  0
 65 77  1  0  0  0  0
 67 68  1  0  0  0  0
M  CHG  1  77   1
M  ISO  4  41 100  63 101  73 100  85 101
M  END
> <Batch ID>
0102

> <Smiles>
C=Cc1cc(CN(C)C(=O)CC[101CH2:1][101O:1]c2ccc3c(c2)CN(C(=O)C(NC(=O)C(C)NC)C(C)(C)C)C(C(=O)NC2CCCc4ccccc42)C3)cc([100NH:0][100C:0](=O)N2CCCC(n3nc(-c4ccc(Oc5ccc(F)cc5F)cc4)c(C(N)=O)c3N)C2)c1

> <Shape>
0.176

> <Color>
0.197

> <Negative vol penalty>
0.000

$$$$
