
  -OEChem-04052301053D

 86 95  0     1  0  0  0  0  0999 V2000
  -26.7532  -34.8231   23.7493 C   0  0  0  0  0  0  0  0  0  0  0  0
  -27.1615  -33.5345   23.4202 C   0  0  0  0  0  0  0  0  0  0  0  0
  -22.5117  -13.4550   18.6438 C   0  0  0  0  0  0  0  0  0  0  0  0
  -23.2020  -11.2561   19.3687 C   0  0  0  0  0  0  0  0  0  0  0  0
  -25.4727  -35.0391   24.2568 C   0  0  0  0  0  0  0  0  0  0  0  0
  -26.2897  -32.4610   23.5995 C   0  0  0  0  0  0  0  0  0  0  0  0
  -26.2542  -29.3050   19.6393 C   0  0  0  0  0  0  0  0  0  0  0  0
  -29.8160  -21.5026   22.9415 C   0  0  0  0  0  0  0  0  0  0  0  0
  -29.5981  -20.1385   22.7482 C   0  0  0  0  0  0  0  0  0  0  0  0
  -21.5308  -12.8806   17.8354 C   0  0  0  0  0  0  0  0  0  0  0  0
  -22.2210  -10.6817   18.5603 C   0  0  0  0  0  0  0  0  0  0  0  0
  -27.3191  -28.4121   19.5271 C   0  0  0  0  0  0  0  0  0  0  0  0
  -18.4474  -11.5488   18.2252 C   0  0  0  0  0  0  0  0  0  0  0  0
  -17.1729  -12.1151   18.2508 C   0  0  0  0  0  0  0  0  0  0  0  0
  -25.9441  -26.6641   20.4614 C   0  0  0  0  0  0  0  0  0  0  0  0
  -29.3002  -21.9145   20.6175 C   0  0  0  0  0  0  0  0  0  0  0  0
  -17.3302  -12.5761   15.8844 C   0  0  0  0  0  0  0  0  0  0  0  0
  -23.3474  -12.6427   19.4104 C   0  0  0  0  0  0  0  0  0  0  0  0
  -24.2291  -13.6365   21.5881 C   0  0  0  0  0  0  0  0  0  0  0  0
  -24.5815  -33.9690   24.4333 C   0  0  0  0  0  0  0  0  0  0  0  0
  -25.0276  -28.8861   20.1744 C   0  0  0  0  0  0  0  0  0  0  0  0
  -24.9966  -32.6628   24.1111 C   0  0  0  0  0  0  0  0  0  0  0  0
  -24.8644  -27.5529   20.5769 C   0  0  0  0  0  0  0  0  0  0  0  0
  -29.0823  -20.5503   20.4240 C   0  0  0  0  0  0  0  0  0  0  0  0
  -29.6670  -22.3906   21.8762 C   0  0  0  0  0  0  0  0  0  0  0  0
  -29.2313  -19.6624   21.4894 C   0  0  0  0  0  0  0  0  0  0  0  0
  -21.3854  -11.4939   17.7937 C   0  0  0  0  0  0  0  0  0  0  0  0
  -27.1651  -27.0922   19.9408 C   0  0  0  0  0  0  0  0  0  0  0  0
  -19.1633  -11.4963   17.0292 C   0  0  0  0  0  0  0  0  0  0  0  0
  -16.6143  -12.6287   17.0804 C   0  0  0  0  0  0  0  0  0  0  0  0
  -18.6047  -12.0099   15.8588 C   0  0  0  0  0  0  0  0  0  0  0  0
  -24.3612  -13.2355   20.2452 C   0  0  0  0  0  0  0  0  0  0  0  0
  -25.4654  -14.1335   21.9212 C   0  0  0  0  0  0  0  0  0  0  0  0
  -30.2585  -24.4124   23.2873 C   0  0  0  0  0  0  0  0  0  0  0  0
  -23.0907  -13.5660   22.4569 C   0  0  0  0  0  0  0  0  0  0  0  0
  -23.2922  -29.6986   22.7105 C   0  0  0  0  0  0  0  0  0  0  0  0
  -21.1298  -27.6704   21.3940 C   0  0  0  0  0  0  0  0  0  0  0  0
  -20.5284  -25.0061   19.3479 C   0  0  0  0  0  0  0  0  0  0  0  0
  -29.7735  -17.4948   20.3926 C   0  0  0  0  0  0  0  0  0  0  0  0
  -23.2240  -34.2456   25.0295 C   0  0  0  0  0  0  0  0  0  0  0  0
  -23.8803  -29.8547   20.2640 C   0  0  0  0  0  0  0  0  0  0  0  0
  -23.5616  -27.0481   21.1393 C   0  0  0  0  0  0  0  0  0  0  0  0
  -30.3964  -25.8921   23.0173 C   0  0  0  0  0  0  0  0  0  0  0  0
  -22.2301  -33.1030   24.8375 C   0  0  0  0  0  0  0  0  0  0  0  0
  -30.5459  -25.9635   21.5094 C   0  0  0  0  0  0  0  0  0  0  0  0
  -29.8839  -13.9202   19.4869 C   0  0  0  0  0  0  0  0  0  0  0  0
  -22.8784  -31.7671   25.1868 C   0  0  0  0  0  0  0  0  0  0  0  0
  -28.4299  -13.4818   19.6532 C   0  0  0  0  0  0  0  0  0  0  0  0
  -29.9914  -15.3924   19.1007 C   0  0  0  0  0  0  0  0  0  0  0  0
  -27.8270  -15.8735   20.2025 C   0  0  0  0  0  0  0  0  0  0  0  0
  -24.0711  -31.4757   24.2680 C   0  0  1  0  0  0  0  0  0  0  0  0
  -22.8365  -29.4503   21.3004 C   0  0  1  0  0  0  0  0  0  0  0  0
  -27.6869  -14.4057   20.6337 C   0  0  1  0  0  0  0  0  0  0  0  0
  -29.7318  -24.7758   21.0084 C   0  0  2  0  0  0  0  0  0  0  0  0
  -28.6883  -20.0682   19.0657 C   0  0  0  0  0  0  0  0  0  0  0  0
  -18.6652  -23.5542   18.5006 C   0  0  0  0  0  0  0  0  0  0  0  0
  -21.0413  -26.2219   24.0781 C   0  0  0  0  0  0  0  0  0  0  0  0
  -19.9477  -24.2900   22.9205 C   0  0  0  0  0  0  0  0  0  0  0  0
  -18.8155  -26.5122   22.9754 C   0  0  0  0  0  0  0  0  0  0  0  0
  -28.1452  -17.5478   22.2675 C   0  0  0  0  0  0  0  0  0  0  0  0
  -21.0379  -25.7909   16.5402 C   0  0  0  0  0  0  0  0  0  0  0  0
  -28.2675  -25.1649   20.7929 C   0  0  0  0  0  0  0  0  0  1  0  0
  -20.8462  -26.1917   21.5038 C   0  0  1  0  0  0  0  0  0  0  0  0
  -19.5079  -24.7938   18.2442 C   0  0  2  0  0  0  0  0  0  0  0  0
  -20.1880  -25.8136   22.8607 C   0  0  0  0  0  0  0  0  0  0  0  0
  -25.5848  -13.4586   19.7584 N   0  0  0  0  0  0  0  0  0  0  0  0
  -26.2329  -14.0053   20.8011 N   0  0  0  0  0  0  0  0  0  0  0  0
  -29.8880  -23.7913   22.0756 N   0  0  0  0  0  0  0  0  0  0  0  0
  -22.4715  -28.0350   21.2126 N   0  0  0  0  0  0  0  0  0  0  0  0
  -29.2390  -16.2444   20.0224 N   0  0  0  0  0  0  0  0  0  0  0  0
  -25.9600  -14.6634   23.0601 N   0  0  0  0  0  0  0  0  0  0  0  0
  -21.8988  -13.0268   21.9538 N   0  0  0  0  0  0  0  0  0  0  0  0
  -23.6123  -31.0167   22.9745 N   0  0  0  0  0  0  0  0  0  0  0  0
  -20.0477  -25.8413   20.3341 N   0  0  0  0  0  0  0  0  0  0  0  0
  -29.0088  -18.2470   21.3104 N   0  0  0  0  0  0  0  0  0  0  0  0
  -20.1921  -24.6335   16.9300 N   0  3  0  0  0  0  0  0  0  0  0  0
  -30.4283  -23.9357   24.4002 O   0  0  0  0  0  0  0  0  0  0  0  0
  -23.1245  -13.9842   23.6390 O   0  0  0  0  0  0  0  0  0  0  0  0
  -23.3477  -28.7638   23.5009 O   0  0  0  0  0  0  0  0  0  0  0  0
  -20.1946  -28.4721   21.4595 O   0  0  0  0  0  0  0  0  0  0  0  0
  -21.6392  -24.4804   19.3381 O   0  0  0  0  0  0  0  0  0  0  0  0
  -30.8616  -17.8931   19.9601 O   0  0  0  0  0  0  0  0  0  0  0  0
  -20.4282  -10.9331   17.0052 O   0  0  0  0  0  0  0  0  0  0  0  0
  -28.2031  -26.2189   19.8330 O   0  0  0  0  0  0  0  0  0  1  0  0
  -15.3898  -13.1710   17.1049 F   0  0  0  0  0  0  0  0  0  0  0  0
  -19.2872  -11.9612   14.7066 F   0  0  0  0  0  0  0  0  0  0  0  0
  1  2  1  0  0  0  0
  1  5  2  0  0  0  0
  2  6  2  0  0  0  0
  3 10  2  0  0  0  0
  3 18  1  0  0  0  0
  4 11  1  0  0  0  0
  4 18  2  0  0  0  0
  5 20  1  0  0  0  0
  6 22  1  0  0  0  0
  7 12  2  0  0  0  0
  7 21  1  0  0  0  0
  8  9  2  0  0  0  0
  8 25  1  0  0  0  0
  9 26  1  0  0  0  0
 10 27  1  0  0  0  0
 11 27  2  0  0  0  0
 12 28  1  0  0  0  0
 13 14  2  0  0  0  0
 13 29  1  0  0  0  0
 14 30  1  0  0  0  0
 15 23  1  0  0  0  0
 15 28  2  0  0  0  0
 16 24  1  0  0  0  0
 16 25  2  0  0  0  0
 17 30  2  0  0  0  0
 17 31  1  0  0  0  0
 18 32  1  0  0  0  0
 19 32  1  0  0  0  0
 19 33  2  0  0  0  0
 19 35  1  0  0  0  0
 20 22  2  0  0  0  0
 20 40  1  0  0  0  0
 21 23  2  0  0  0  0
 21 41  1  0  0  0  0
 22 51  1  0  0  0  0
 23 42  1  0  0  0  0
 24 26  2  0  0  0  0
 24 55  1  0  0  0  0
 25 68  1  0  0  0  0
 26 75  1  0  0  0  0
 27 83  1  0  0  0  0
 28 84  1  0  0  0  0
 29 31  2  0  0  0  0
 29 83  1  0  0  0  0
 30 85  1  0  0  0  0
 31 86  1  0  0  0  0
 32 66  2  0  0  0  0
 33 67  1  0  0  0  0
 33 71  1  0  0  0  0
 34 43  1  0  0  0  0
 34 68  1  0  0  0  0
 34 77  2  0  0  0  0
 35 72  1  0  0  0  0
 35 78  2  0  0  0  0
 36 52  1  0  0  0  0
 36 73  1  0  0  0  0
 36 79  2  0  0  0  0
 37 63  1  0  0  0  0
 37 69  1  0  0  0  0
 37 80  2  0  0  0  0
 38 64  1  0  0  0  0
 38 74  1  0  0  0  0
 38 81  2  0  0  0  0
 39 70  1  0  0  0  0
 39 75  1  0  0  0  0
 39 82  2  0  0  0  0
 40 44  1  0  0  0  0
 41 52  1  0  0  0  0
 42 69  1  0  0  0  0
 43 45  1  0  0  0  0
 44 47  1  0  0  0  0
 45 54  1  0  0  0  0
 46 48  1  0  0  0  0
 46 49  1  0  0  0  0
 47 51  1  0  0  0  0
 48 53  1  0  0  0  0
 49 70  1  0  0  0  0
 50 53  1  0  0  0  0
 50 70  1  0  0  0  0
 51 73  1  0  0  0  0
 52 69  1  0  0  0  0
 53 67  1  0  0  0  0
 54 62  1  0  0  0  0
 54 68  1  0  0  0  0
 56 64  1  0  0  0  0
 57 65  1  0  0  0  0
 58 65  1  0  0  0  0
 59 65  1  0  0  0  0
 60 75  1  0  0  0  0
 61 76  1  0  0  0  0
 62 84  1  0  0  0  0
 63 65  1  0  0  0  0
 63 74  1  0  0  0  0
 64 76  1  0  0  0  0
 66 67  1  0  0  0  0
M  CHG  1  76   1
M  ISO  4  39 100  62 101  75 100  84 101
M  END
> <Batch ID>
0103

> <Smiles>
CNC(C)C(=O)NC(C(=O)N1Cc2cc([101O:1][101CH2:1]C3CCC(=O)N3c3ccc([100N:0](C)[100C:0](=O)N4CCCC(n5nc(-c6ccc(Oc7ccc(F)cc7F)cc6)c(C(N)=O)c5N)C4)c(C)c3)ccc2CC1C(=O)NC1CCCc2ccccc21)C(C)(C)C

> <Shape>
0.260

> <Color>
0.092

> <Negative vol penalty>
0.000

$$$$

  -OEChem-04052301053D

 87 96  0     1  0  0  0  0  0999 V2000
  -21.8314  -28.3797   22.9656 C   0  0  0  0  0  0  0  0  0  0  0  0
  -22.7478  -28.1678   23.9907 C   0  0  0  0  0  0  0  0  0  0  0  0
  -22.8581  -10.0786   20.0699 C   0  0  0  0  0  0  0  0  0  0  0  0
  -24.2858   -9.5097   21.9340 C   0  0  0  0  0  0  0  0  0  0  0  0
  -20.8136  -27.4541   22.7397 C   0  0  0  0  0  0  0  0  0  0  0  0
  -22.6461  -27.0306   24.7913 C   0  0  0  0  0  0  0  0  0  0  0  0
  -27.9206  -21.4576   26.2569 C   0  0  0  0  0  0  0  0  0  0  0  0
  -22.1567   -8.8854   20.2428 C   0  0  0  0  0  0  0  0  0  0  0  0
  -23.5845   -8.3164   22.1070 C   0  0  0  0  0  0  0  0  0  0  0  0
  -28.7146  -20.3300   26.4666 C   0  0  0  0  0  0  0  0  0  0  0  0
  -21.9404   -5.2883   23.2670 C   0  0  0  0  0  0  0  0  0  0  0  0
  -21.5802   -4.9294   24.5658 C   0  0  0  0  0  0  0  0  0  0  0  0
  -33.0376  -13.6206   26.0657 C   0  0  0  0  0  0  0  0  0  0  0  0
  -30.9252  -13.0097   25.0650 C   0  0  0  0  0  0  0  0  0  0  0  0
  -26.7348  -18.9915   26.8366 C   0  0  0  0  0  0  0  0  0  0  0  0
  -32.8215  -13.5294   23.6611 C   0  0  0  0  0  0  0  0  0  0  0  0
  -20.2944   -6.9644   24.7716 C   0  0  0  0  0  0  0  0  0  0  0  0
  -23.9227  -10.3908   20.9155 C   0  0  0  0  0  0  0  0  0  0  0  0
  -31.7014  -13.2438   26.2001 C   0  0  0  0  0  0  0  0  0  0  0  0
  -24.1314  -12.9308   20.8048 C   0  0  0  0  0  0  0  0  0  0  0  0
  -20.7051  -26.3001   23.5317 C   0  0  0  0  0  0  0  0  0  0  0  0
  -26.5283  -21.3531   26.3211 C   0  0  0  0  0  0  0  0  0  0  0  0
  -21.6249  -26.0894   24.5766 C   0  0  0  0  0  0  0  0  0  0  0  0
  -25.9339  -20.1150   26.6151 C   0  0  0  0  0  0  0  0  0  0  0  0
  -33.5977  -13.7635   24.7962 C   0  0  0  0  0  0  0  0  0  0  0  0
  -31.4853  -13.1525   23.7955 C   0  0  0  0  0  0  0  0  0  0  0  0
  -22.5199   -8.0043   21.2614 C   0  0  0  0  0  0  0  0  0  0  0  0
  -28.1232  -19.1000   26.7560 C   0  0  0  0  0  0  0  0  0  0  0  0
  -21.4777   -6.4854   22.7205 C   0  0  0  0  0  0  0  0  0  0  0  0
  -20.7571   -5.7674   25.3181 C   0  0  0  0  0  0  0  0  0  0  0  0
  -20.6547   -7.3234   23.4728 C   0  0  0  0  0  0  0  0  0  0  0  0
  -24.6479  -11.6229   20.7369 C   0  0  0  0  0  0  0  0  0  0  0  0
  -25.2149  -13.7406   20.5662 C   0  0  0  0  0  0  0  0  0  0  0  0
  -29.5444  -16.2832   28.4689 C   0  0  0  0  0  0  0  0  0  0  0  0
  -28.8253  -17.3682   28.1633 C   0  0  0  0  0  0  0  0  0  1  0  0
  -31.1110  -13.0933   27.5386 C   0  0  0  0  0  0  0  0  0  0  0  0
  -22.7921  -13.3740   21.0607 C   0  0  0  0  0  0  0  0  0  0  0  0
  -23.2144  -23.0881   26.0323 C   0  0  0  0  0  0  0  0  0  0  0  0
  -22.9018  -20.3426   24.7001 C   0  0  0  0  0  0  0  0  0  0  0  0
  -21.9894  -17.6990   22.7466 C   0  0  0  0  0  0  0  0  0  0  0  0
  -31.0987  -13.0114   21.3102 C   0  0  0  0  0  0  0  0  0  0  0  0
  -19.5597  -25.3519   23.2798 C   0  0  0  0  0  0  0  0  0  0  0  0
  -25.6361  -22.5542   26.1628 C   0  0  0  0  0  0  0  0  0  0  0  0
  -24.4336  -20.0571   26.7083 C   0  0  0  0  0  0  0  0  0  0  0  0
  -29.4931  -15.5540   29.7773 C   0  0  0  0  0  0  0  0  0  0  0  0
  -30.4305  -15.5458   27.5138 C   0  0  0  0  0  0  0  0  0  0  0  0
  -19.7459  -23.9847   23.9329 C   0  0  0  0  0  0  0  0  0  0  0  0
  -29.4174  -13.7931   18.2706 C   0  0  0  0  0  0  0  0  0  0  0  0
  -20.2071  -24.1419   25.3784 C   0  0  0  0  0  0  0  0  0  0  0  0
  -27.9556  -13.4501   18.5663 C   0  0  0  0  0  0  0  0  0  0  0  0
  -29.7834  -14.1234   29.3587 C   0  0  0  0  0  0  0  0  0  0  0  0
  -30.3771  -12.8115   18.9407 C   0  0  0  0  0  0  0  0  0  0  0  0
  -28.7121  -12.2889   20.6797 C   0  0  0  0  0  0  0  0  0  0  0  0
  -21.5625  -24.8555   25.4505 C   0  0  1  0  0  0  0  0  0  0  0  0
  -24.3045  -22.2287   25.4627 C   0  0  1  0  0  0  0  0  0  0  0  0
  -27.7097  -13.2880   20.0792 C   0  0  2  0  0  0  0  0  0  0  0  0
  -19.9746  -16.3971   22.0097 C   0  0  0  0  0  0  0  0  0  0  0  0
  -22.7996  -18.9677   27.4210 C   0  0  0  0  0  0  0  0  0  0  0  0
  -21.4966  -17.1140   26.3561 C   0  0  0  0  0  0  0  0  0  0  0  0
  -20.5637  -19.4271   26.3992 C   0  0  0  0  0  0  0  0  0  0  0  0
  -22.4489  -18.3752   19.9022 C   0  0  0  0  0  0  0  0  0  0  0  0
  -35.0265  -14.1666   24.6523 C   0  0  0  0  0  0  0  0  0  0  0  0
  -22.4969  -18.8988   24.8578 C   0  0  1  0  0  0  0  0  0  0  0  0
  -20.9100  -17.5527   21.6894 C   0  0  2  0  0  0  0  0  0  0  0  0
  -21.8648  -18.6091   26.2486 C   0  0  0  0  0  0  0  0  0  0  0  0
  -25.9575  -11.5986   20.4756 N   0  0  0  0  0  0  0  0  0  0  0  0
  -26.2731  -12.9012   20.3770 N   0  0  0  0  0  0  0  0  0  0  0  0
  -30.5185  -14.2135   28.1055 N   0  0  0  0  0  0  0  0  0  0  0  0
  -23.8319  -20.8427   25.6195 N   0  0  0  0  0  0  0  0  0  0  0  0
  -30.0873  -12.7127   20.3729 N   0  0  0  0  0  0  0  0  0  0  0  0
  -25.3560  -15.0816   20.5019 N   0  0  0  0  0  0  0  0  0  0  0  0
  -21.9264  -13.5479   19.9722 N   0  0  0  0  0  0  0  0  0  0  0  0
  -30.6974  -12.9144   22.6421 N   0  0  0  0  0  0  0  0  0  0  0  0
  -22.6332  -23.9418   25.1142 N   0  0  0  0  0  0  0  0  0  0  0  0
  -21.6237  -18.5942   23.7295 N   0  0  0  0  0  0  0  0  0  0  0  0
  -35.2198  -15.6411   24.5788 N   0  3  0  0  0  0  0  0  0  0  0  0
  -21.5231  -17.3047   20.3539 N   0  3  0  0  0  0  0  0  0  0  0  0
  -31.1710  -11.9817   28.0599 O   0  0  0  0  0  0  0  0  0  0  0  0
  -22.3804  -13.6248   22.2187 O   0  0  0  0  0  0  0  0  0  0  0  0
  -22.9201  -22.9842   27.2173 O   0  0  0  0  0  0  0  0  0  0  0  0
  -22.4044  -21.0126   23.7908 O   0  0  0  0  0  0  0  0  0  0  0  0
  -23.0494  -17.0782   22.7066 O   0  0  0  0  0  0  0  0  0  0  0  0
  -32.2294  -13.3562   20.9570 O   0  0  0  0  0  0  0  0  0  0  0  0
  -21.8356   -6.8400   21.4306 O   0  0  0  0  0  0  0  0  0  0  0  0
  -28.9041  -18.0022   26.9552 O   0  0  0  0  0  0  0  0  0  1  0  0
  -20.4100   -5.4218   26.5648 F   0  0  0  0  0  0  0  0  0  0  0  0
  -20.2061   -8.4741   22.9527 F   0  0  0  0  0  0  0  0  0  0  0  0
  1  2  1  0  0  0  0
  1  5  2  0  0  0  0
  2  6  2  0  0  0  0
  3  8  2  0  0  0  0
  3 18  1  0  0  0  0
  4  9  1  0  0  0  0
  4 18  2  0  0  0  0
  5 21  1  0  0  0  0
  6 23  1  0  0  0  0
  7 10  2  0  0  0  0
  7 22  1  0  0  0  0
  8 27  1  0  0  0  0
  9 27  2  0  0  0  0
 10 28  1  0  0  0  0
 11 12  2  0  0  0  0
 11 29  1  0  0  0  0
 12 30  1  0  0  0  0
 13 19  1  0  0  0  0
 13 25  2  0  0  0  0
 14 19  2  0  0  0  0
 14 26  1  0  0  0  0
 15 24  1  0  0  0  0
 15 28  2  0  0  0  0
 16 25  1  0  0  0  0
 16 26  2  0  0  0  0
 17 30  2  0  0  0  0
 17 31  1  0  0  0  0
 18 32  1  0  0  0  0
 19 36  1  0  0  0  0
 20 32  1  0  0  0  0
 20 33  2  0  0  0  0
 20 37  1  0  0  0  0
 21 23  2  0  0  0  0
 21 42  1  0  0  0  0
 22 24  2  0  0  0  0
 22 43  1  0  0  0  0
 23 54  1  0  0  0  0
 24 44  1  0  0  0  0
 25 62  1  0  0  0  0
 26 73  1  0  0  0  0
 27 84  1  0  0  0  0
 28 85  1  0  0  0  0
 29 31  2  0  0  0  0
 29 84  1  0  0  0  0
 30 86  1  0  0  0  0
 31 87  1  0  0  0  0
 32 66  2  0  0  0  0
 33 67  1  0  0  0  0
 33 71  1  0  0  0  0
 34 35  2  0  0  0  0
 34 45  1  0  0  0  0
 34 46  1  0  0  0  0
 35 85  1  0  0  0  0
 36 68  1  0  0  0  0
 36 78  2  0  0  0  0
 37 72  1  0  0  0  0
 37 79  2  0  0  0  0
 38 55  1  0  0  0  0
 38 74  1  0  0  0  0
 38 80  2  0  0  0  0
 39 63  1  0  0  0  0
 39 69  1  0  0  0  0
 39 81  2  0  0  0  0
 40 64  1  0  0  0  0
 40 75  1  0  0  0  0
 40 82  2  0  0  0  0
 41 70  1  0  0  0  0
 41 73  1  0  0  0  0
 41 83  2  0  0  0  0
 42 47  1  0  0  0  0
 43 55  1  0  0  0  0
 44 69  1  0  0  0  0
 45 51  1  0  0  0  0
 46 68  1  0  0  0  0
 47 49  1  0  0  0  0
 48 50  1  0  0  0  0
 48 52  1  0  0  0  0
 49 54  1  0  0  0  0
 50 56  1  0  0  0  0
 51 68  1  0  0  0  0
 52 70  1  0  0  0  0
 53 56  1  0  0  0  0
 53 70  1  0  0  0  0
 54 74  1  0  0  0  0
 55 69  1  0  0  0  0
 56 67  1  0  0  0  0
 57 64  1  0  0  0  0
 58 65  1  0  0  0  0
 59 65  1  0  0  0  0
 60 65  1  0  0  0  0
 61 77  1  0  0  0  0
 62 76  1  0  0  0  0
 63 65  1  0  0  0  0
 63 75  1  0  0  0  0
 64 77  1  0  0  0  0
 66 67  1  0  0  0  0
M  CHG  2  76   1  77   1
M  ISO  4  35 101  41 100  73 100  85 101
M  END
> <Batch ID>
0103

> <Smiles>
CNC(C)C(=O)NC(C(=O)N1Cc2cc([101O:1][101CH:1]=C3CCN(C(=O)c4cc(CN)cc([100NH:0][100C:0](=O)N5CCCC(n6nc(-c7ccc(Oc8ccc(F)cc8F)cc7)c(C(N)=O)c6N)C5)c4)C3)ccc2CC1C(=O)NC1CCCc2ccccc21)C(C)(C)C

> <Shape>
0.172

> <Color>
0.141

> <Negative vol penalty>
0.000

$$$$

  -OEChem-04052301053D

 86 94  0     1  0  0  0  0  0999 V2000
  -29.4358  -34.3305   25.7350 C   0  0  0  0  0  0  0  0  0  0  0  0
  -29.6298  -33.2302   24.9060 C   0  0  0  0  0  0  0  0  0  0  0  0
  -24.5033  -14.1221   14.8999 C   0  0  0  0  0  0  0  0  0  0  0  0
  -23.8043  -12.0071   15.8355 C   0  0  0  0  0  0  0  0  0  0  0  0
  -28.2373  -34.4733   26.4328 C   0  0  0  0  0  0  0  0  0  0  0  0
  -28.6257  -32.2716   24.7752 C   0  0  0  0  0  0  0  0  0  0  0  0
  -27.2236  -29.0716   19.7453 C   0  0  0  0  0  0  0  0  0  0  0  0
  -23.9992  -13.7389   13.6570 C   0  0  0  0  0  0  0  0  0  0  0  0
  -23.3002  -11.6239   14.5926 C   0  0  0  0  0  0  0  0  0  0  0  0
  -27.5546  -27.7821   19.3313 C   0  0  0  0  0  0  0  0  0  0  0  0
  -24.5161  -10.4395   11.6687 C   0  0  0  0  0  0  0  0  0  0  0  0
  -24.8048   -9.1501   11.2218 C   0  0  0  0  0  0  0  0  0  0  0  0
  -25.4613  -26.9686   20.2118 C   0  0  0  0  0  0  0  0  0  0  0  0
  -32.6132  -17.5736   18.4746 C   0  0  0  0  0  0  0  0  0  0  0  0
  -33.1374  -19.9293   18.5877 C   0  0  0  0  0  0  0  0  0  0  0  0
  -31.0618  -19.1079   19.5121 C   0  0  0  0  0  0  0  0  0  0  0  0
  -22.4424   -8.6518   11.1330 C   0  0  0  0  0  0  0  0  0  0  0  0
  -24.4059  -13.2562   15.9891 C   0  0  0  0  0  0  0  0  0  0  0  0
  -24.2399  -14.3308   18.2968 C   0  0  0  0  0  0  0  0  0  0  0  0
  -27.2142  -33.5209   26.3030 C   0  0  0  0  0  0  0  0  0  0  0  0
  -26.0117  -29.3178   20.4064 C   0  0  0  0  0  0  0  0  0  0  0  0
  -27.4129  -32.4011   25.4730 C   0  0  0  0  0  0  0  0  0  0  0  0
  -25.1161  -28.2626   20.6309 C   0  0  0  0  0  0  0  0  0  0  0  0
  -33.4797  -18.6326   18.2042 C   0  0  0  0  0  0  0  0  0  0  0  0
  -31.4042  -17.8112   19.1285 C   0  0  0  0  0  0  0  0  0  0  0  0
  -23.3977  -12.4899   13.5034 C   0  0  0  0  0  0  0  0  0  0  0  0
  -26.6747  -26.7299   19.5671 C   0  0  0  0  0  0  0  0  0  0  0  0
  -23.1905  -10.8350   11.8478 C   0  0  0  0  0  0  0  0  0  0  0  0
  -31.9284  -20.1669   19.2417 C   0  0  0  0  0  0  0  0  0  0  0  0
  -23.7680   -8.2563   10.9539 C   0  0  0  0  0  0  0  0  0  0  0  0
  -22.1537   -9.9412   11.5800 C   0  0  0  0  0  0  0  0  0  0  0  0
  -24.9269  -13.6512   17.2731 C   0  0  0  0  0  0  0  0  0  0  0  0
  -25.1672  -14.4675   19.3006 C   0  0  0  0  0  0  0  0  0  0  0  0
  -22.8846  -14.7969   18.3367 C   0  0  0  0  0  0  0  0  0  0  0  0
  -25.2063  -30.4040   23.2831 C   0  0  0  0  0  0  0  0  0  0  0  0
  -22.2058  -30.2948   22.0553 C   0  0  0  0  0  0  0  0  0  0  0  0
  -20.0587  -28.9519   19.7676 C   0  0  0  0  0  0  0  0  0  0  0  0
  -30.9913  -15.4087   19.6308 C   0  0  0  0  0  0  0  0  0  0  0  0
  -25.9544  -33.6937   27.1140 C   0  0  0  0  0  0  0  0  0  0  0  0
  -25.6575  -30.7191   20.8228 C   0  0  0  0  0  0  0  0  0  0  0  0
  -23.7935  -28.4776   21.3186 C   0  0  0  0  0  0  0  0  0  0  0  0
  -24.7947  -32.8272   26.6298 C   0  0  0  0  0  0  0  0  0  0  0  0
  -29.3853  -12.2033   20.5008 C   0  0  0  0  0  0  0  0  0  0  0  0
  -25.2645  -31.3976   26.3801 C   0  0  0  0  0  0  0  0  0  0  0  0
  -28.0348  -12.2959   19.7927 C   0  0  0  0  0  0  0  0  0  0  0  0
  -30.4657  -12.9916   19.7663 C   0  0  0  0  0  0  0  0  0  0  0  0
  -28.7574  -14.5124   18.8180 C   0  0  0  0  0  0  0  0  0  0  0  0
  -26.3377  -31.3527   25.2858 C   0  0  1  0  0  0  0  0  0  0  0  0
  -24.6256  -30.7661   21.9454 C   0  0  1  0  0  0  0  0  0  0  0  0
  -27.6382  -13.7636   19.5572 C   0  0  1  0  0  0  0  0  0  0  0  0
  -26.8912  -17.8386   18.7584 C   0  0  0  0  0  0  0  0  0  0  0  0
  -17.6605  -29.0317   19.0330 C   0  0  0  0  0  0  0  0  0  0  0  0
  -21.4108  -28.6171   24.4767 C   0  0  0  0  0  0  0  0  0  0  0  0
  -19.3379  -27.9457   23.2435 C   0  0  0  0  0  0  0  0  0  0  0  0
  -19.7304  -30.3439   23.8068 C   0  0  0  0  0  0  0  0  0  0  0  0
  -20.7985  -29.8894   17.0597 C   0  0  0  0  0  0  0  0  0  0  0  0
  -28.3448  -17.4968   18.4622 C   0  0  0  0  0  0  0  0  0  0  0  0
  -28.5569  -23.6402   19.3753 C   0  0  0  0  0  0  0  0  0  0  0  0
  -30.0275  -23.2375   19.3665 C   0  0  0  0  0  0  0  0  0  0  0  0
  -29.1007  -17.0184   19.6960 C   0  0  0  0  0  0  0  0  0  0  0  0
  -28.3818  -25.1329   19.1294 C   0  0  0  0  0  0  0  0  0  1  0  0
  -30.2057  -21.7536   19.6548 C   0  0  0  0  0  0  0  0  0  0  0  0
  -21.1136  -29.2545   21.9925 C   0  0  1  0  0  0  0  0  0  0  0  0
  -19.0573  -29.5967   18.8264 C   0  0  2  0  0  0  0  0  0  0  0  0
  -20.4239  -29.0356   23.3686 C   0  0  0  0  0  0  0  0  0  0  0  0
  -26.1931  -13.3754   17.5969 N   0  0  0  0  0  0  0  0  0  0  0  0
  -26.3090  -13.8844   18.8352 N   0  0  0  0  0  0  0  0  0  0  0  0
  -23.4955  -29.8646   21.7124 N   0  0  0  0  0  0  0  0  0  0  0  0
  -30.0451  -14.3706   19.5149 N   0  0  0  0  0  0  0  0  0  0  0  0
  -34.7024  -18.3927   17.5429 N   0  0  0  0  0  0  0  0  0  0  0  0
  -25.1093  -15.0284   20.5272 N   0  0  0  0  0  0  0  0  0  0  0  0
  -22.0680  -14.5735   17.2197 N   0  0  0  0  0  0  0  0  0  0  0  0
  -25.7312  -31.4771   23.9777 N   0  0  0  0  0  0  0  0  0  0  0  0
  -20.2073  -29.6778   20.9305 N   0  0  0  0  0  0  0  0  0  0  0  0
  -30.5062  -16.7153   19.4068 N   0  0  0  0  0  0  0  0  0  0  0  0
  -19.4538  -29.3631   17.4090 N   0  3  0  0  0  0  0  0  0  0  0  0
  -22.4164  -15.4083   19.3269 O   0  0  0  0  0  0  0  0  0  0  0  0
  -25.1788  -29.2376   23.6580 O   0  0  0  0  0  0  0  0  0  0  0  0
  -21.9238  -31.4483   22.3891 O   0  0  0  0  0  0  0  0  0  0  0  0
  -20.6473  -27.9068   19.4998 O   0  0  0  0  0  0  0  0  0  0  0  0
  -32.1683  -15.1872   19.9394 O   0  0  0  0  0  0  0  0  0  0  0  0
  -22.9055  -12.1157   12.2908 O   0  0  0  0  0  0  0  0  0  0  0  0
  -26.9956  -25.4701   19.1647 O   0  0  0  0  0  0  0  0  0  1  0  0
  -31.5914  -21.4413   19.6176 O   0  0  0  0  0  0  0  0  0  0  0  0
  -24.0454   -7.0186   10.5233 F   0  0  0  0  0  0  0  0  0  0  0  0
  -20.8782  -10.3159   11.7491 F   0  0  0  0  0  0  0  0  0  0  0  0
  1  2  1  0  0  0  0
  1  5  2  0  0  0  0
  2  6  2  0  0  0  0
  3  8  2  0  0  0  0
  3 18  1  0  0  0  0
  4  9  1  0  0  0  0
  4 18  2  0  0  0  0
  5 20  1  0  0  0  0
  6 22  1  0  0  0  0
  7 10  2  0  0  0  0
  7 21  1  0  0  0  0
  8 26  1  0  0  0  0
  9 26  2  0  0  0  0
 10 27  1  0  0  0  0
 11 12  2  0  0  0  0
 11 28  1  0  0  0  0
 12 30  1  0  0  0  0
 13 23  1  0  0  0  0
 13 27  2  0  0  0  0
 14 24  2  0  0  0  0
 14 25  1  0  0  0  0
 15 24  1  0  0  0  0
 15 29  2  0  0  0  0
 16 25  2  0  0  0  0
 16 29  1  0  0  0  0
 17 30  2  0  0  0  0
 17 31  1  0  0  0  0
 18 32  1  0  0  0  0
 19 32  1  0  0  0  0
 19 33  2  0  0  0  0
 19 34  1  0  0  0  0
 20 22  2  0  0  0  0
 20 39  1  0  0  0  0
 21 23  2  0  0  0  0
 21 40  1  0  0  0  0
 22 48  1  0  0  0  0
 23 41  1  0  0  0  0
 24 70  1  0  0  0  0
 25 75  1  0  0  0  0
 26 82  1  0  0  0  0
 27 83  1  0  0  0  0
 28 31  2  0  0  0  0
 28 82  1  0  0  0  0
 29 84  1  0  0  0  0
 30 85  1  0  0  0  0
 31 86  1  0  0  0  0
 32 66  2  0  0  0  0
 33 67  1  0  0  0  0
 33 71  1  0  0  0  0
 34 72  1  0  0  0  0
 34 77  2  0  0  0  0
 35 49  1  0  0  0  0
 35 73  1  0  0  0  0
 35 78  2  0  0  0  0
 36 63  1  0  0  0  0
 36 68  1  0  0  0  0
 36 79  2  0  0  0  0
 37 64  1  0  0  0  0
 37 74  1  0  0  0  0
 37 80  2  0  0  0  0
 38 69  1  0  0  0  0
 38 75  1  0  0  0  0
 38 81  2  0  0  0  0
 39 42  1  0  0  0  0
 40 49  1  0  0  0  0
 41 68  1  0  0  0  0
 42 44  1  0  0  0  0
 43 45  1  0  0  0  0
 43 46  1  0  0  0  0
 44 48  1  0  0  0  0
 45 50  1  0  0  0  0
 46 69  1  0  0  0  0
 47 50  1  0  0  0  0
 47 69  1  0  0  0  0
 48 73  1  0  0  0  0
 49 68  1  0  0  0  0
 50 67  1  0  0  0  0
 51 57  1  0  0  0  0
 52 64  1  0  0  0  0
 53 65  1  0  0  0  0
 54 65  1  0  0  0  0
 55 65  1  0  0  0  0
 56 76  1  0  0  0  0
 57 60  1  0  0  0  0
 58 59  1  0  0  0  0
 58 61  1  0  0  0  0
 59 62  1  0  0  0  0
 60 75  1  0  0  0  0
 61 83  1  0  0  0  0
 62 84  1  0  0  0  0
 63 65  1  0  0  0  0
 63 74  1  0  0  0  0
 64 76  1  0  0  0  0
 66 67  1  0  0  0  0
M  CHG  1  76   1
M  ISO  4  38 100  61 101  75 100  83 101
M  END
> <Batch ID>
0103

> <Smiles>
CCC[100N:0](c1cc(N)cc(OCCC[101CH2:1][101O:1]c2ccc3c(c2)CN(C(=O)C(NC(=O)C(C)NC)C(C)(C)C)C(C(=O)NC2CCCc4ccccc42)C3)c1)[100C:0](=O)N1CCCC(n2nc(-c3ccc(Oc4ccc(F)cc4F)cc3)c(C(N)=O)c2N)C1

> <Shape>
0.237

> <Color>
0.094

> <Negative vol penalty>
0.000

$$$$

  -OEChem-04052301053D

 84 92  0     1  0  0  0  0  0999 V2000
  -31.8450  -13.5205   21.7778 C   0  0  0  0  0  0  0  0  0  0  0  0
  -31.3309  -14.8111   21.7024 C   0  0  0  0  0  0  0  0  0  0  0  0
  -21.7948  -21.1553   25.2429 C   0  0  0  0  0  0  0  0  0  0  0  0
  -24.4818  -30.0881   20.8316 C   0  0  0  0  0  0  0  0  0  0  0  0
  -24.8550  -27.7800   21.4404 C   0  0  0  0  0  0  0  0  0  0  0  0
  -20.9371  -21.8112   24.3600 C   0  0  0  0  0  0  0  0  0  0  0  0
  -31.1630  -12.4635   21.1766 C   0  0  0  0  0  0  0  0  0  0  0  0
  -30.1351  -15.0455   21.0246 C   0  0  0  0  0  0  0  0  0  0  0  0
  -27.0164  -18.1031   23.5877 C   0  0  0  0  0  0  0  0  0  0  0  0
  -23.0924  -21.6292   25.4362 C   0  0  0  0  0  0  0  0  0  0  0  0
  -25.5061  -30.0050   19.8885 C   0  0  0  0  0  0  0  0  0  0  0  0
  -25.8793  -27.6969   20.4972 C   0  0  0  0  0  0  0  0  0  0  0  0
  -27.2945  -19.4689   23.5547 C   0  0  0  0  0  0  0  0  0  0  0  0
  -29.1213  -28.6245   20.2519 C   0  0  0  0  0  0  0  0  0  0  0  0
  -30.3100  -28.0059   20.6390 C   0  0  0  0  0  0  0  0  0  0  0  0
  -22.6746  -23.4148   23.8634 C   0  0  0  0  0  0  0  0  0  0  0  0
  -25.5993  -19.7670   21.8645 C   0  0  0  0  0  0  0  0  0  0  0  0
  -30.0240  -26.3626   18.8911 C   0  0  0  0  0  0  0  0  0  0  0  0
  -24.1563  -28.9756   21.6076 C   0  0  0  0  0  0  0  0  0  0  0  0
  -21.3769  -22.9409   23.6702 C   0  0  0  0  0  0  0  0  0  0  0  0
  -23.0305  -29.9285   23.6890 C   0  0  0  0  0  0  0  0  0  0  0  0
  -29.9532  -12.6836   20.4994 C   0  0  0  0  0  0  0  0  0  0  0  0
  -26.0336  -17.5564   22.7501 C   0  0  0  0  0  0  0  0  0  0  0  0
  -29.4370  -13.9906   20.4126 C   0  0  0  0  0  0  0  0  0  0  0  0
  -25.3089  -18.3944   21.8907 C   0  0  0  0  0  0  0  0  0  0  0  0
  -26.2048  -28.8094   19.7212 C   0  0  0  0  0  0  0  0  0  0  0  0
  -23.5323  -22.7589   24.7464 C   0  0  0  0  0  0  0  0  0  0  0  0
  -26.5879  -20.3006   22.6910 C   0  0  0  0  0  0  0  0  0  0  0  0
  -28.3838  -28.1121   19.1844 C   0  0  0  0  0  0  0  0  0  0  0  0
  -30.7614  -26.8750   19.9586 C   0  0  0  0  0  0  0  0  0  0  0  0
  -28.8352  -26.9812   18.5041 C   0  0  0  0  0  0  0  0  0  0  0  0
  -23.0987  -29.0610   22.5824 C   0  0  0  0  0  0  0  0  0  0  0  0
  -21.8379  -29.6182   24.2956 C   0  0  0  0  0  0  0  0  0  0  0  0
  -20.4708  -23.6346   22.7371 C   0  0  0  0  0  0  0  0  0  0  0  0
  -23.9618  -30.9258   24.1291 C   0  0  0  0  0  0  0  0  0  0  0  0
  -26.0250  -15.4089   20.4066 C   0  0  0  0  0  0  0  0  0  0  0  0
  -22.8111  -15.8153   20.5727 C   0  0  0  0  0  0  0  0  0  0  0  0
  -20.1845  -17.8119   21.4453 C   0  0  0  0  0  0  0  0  0  0  0  0
  -20.4076  -25.4320   21.0705 C   0  0  0  0  0  0  0  0  0  0  0  0
  -29.2763  -11.5168   19.8247 C   0  0  0  0  0  0  0  0  0  0  0  0
  -25.7271  -16.0853   22.8169 C   0  0  0  0  0  0  0  0  0  0  0  0
  -24.2299  -17.8602   20.9858 C   0  0  0  0  0  0  0  0  0  0  0  0
  -27.8231  -11.7913   19.4464 C   0  0  0  0  0  0  0  0  0  0  0  0
  -18.5546  -28.4122   21.7048 C   0  0  0  0  0  0  0  0  0  0  0  0
  -27.6961  -13.1508   18.7663 C   0  0  0  0  0  0  0  0  0  0  0  0
  -18.7752  -28.6981   23.1875 C   0  0  0  0  0  0  0  0  0  0  0  0
  -18.4578  -26.9152   21.4462 C   0  0  0  0  0  0  0  0  0  0  0  0
  -19.9395  -26.4268   23.3771 C   0  0  0  0  0  0  0  0  0  0  0  0
  -28.1298  -14.2811   19.7075 C   0  0  1  0  0  0  0  0  0  0  0  0
  -25.0618  -15.5555   21.5505 C   0  0  1  0  0  0  0  0  0  0  0  0
  -19.9578  -27.9160   23.7843 C   0  0  1  0  0  0  0  0  0  0  0  0
  -17.7981  -18.4793   21.8415 C   0  0  0  0  0  0  0  0  0  0  0  0
  -22.8549  -16.3913   17.5766 C   0  0  0  0  0  0  0  0  0  0  0  0
  -20.5611  -17.3690   17.8017 C   0  0  0  0  0  0  0  0  0  0  0  0
  -20.9476  -14.9633   18.3366 C   0  0  0  0  0  0  0  0  0  0  0  0
  -22.0481  -23.6412   20.8049 C   0  0  0  0  0  0  0  0  0  0  0  0
  -20.2272  -16.7579   24.2105 C   0  0  0  0  0  0  0  0  0  0  0  0
  -26.9269  -23.7019   23.8975 C   0  0  0  0  0  0  0  0  0  0  0  0
  -25.4186  -23.8856   23.8365 C   0  0  0  0  0  0  0  0  0  0  0  0
  -27.3230  -22.2341   23.8645 C   0  0  0  0  0  0  0  0  0  1  0  0
  -21.8148  -16.7386   19.9140 C   0  0  1  0  0  0  0  0  0  0  0  0
  -18.9158  -17.5229   22.2271 C   0  0  2  0  0  0  0  0  0  0  0  0
  -21.5662  -16.3757   18.4228 C   0  0  0  0  0  0  0  0  0  0  0  0
  -22.0342  -28.2595   22.4891 N   0  0  0  0  0  0  0  0  0  0  0  0
  -21.2860  -28.6222   23.5449 N   0  0  0  0  0  0  0  0  0  0  0  0
  -23.9715  -16.4140   21.0832 N   0  0  0  0  0  0  0  0  0  0  0  0
  -19.6320  -26.2079   21.9550 N   0  0  0  0  0  0  0  0  0  0  0  0
  -21.2181  -30.1028   25.3926 N   0  0  0  0  0  0  0  0  0  0  0  0
  -24.9682  -30.5493   25.0290 N   0  0  0  0  0  0  0  0  0  0  0  0
  -27.0872  -14.5653   20.6702 N   0  0  0  0  0  0  0  0  0  0  0  0
  -20.6161  -16.7053   20.7449 N   0  0  0  0  0  0  0  0  0  0  0  0
  -21.0357  -24.3006   21.6309 N   0  0  0  0  0  0  0  0  0  0  0  0
  -19.1665  -17.6584   23.6899 N   0  3  0  0  0  0  0  0  0  0  0  0
  -19.2674  -23.5699   22.9865 O   0  0  0  0  0  0  0  0  0  0  0  0
  -23.8933  -32.1192   23.7488 O   0  0  0  0  0  0  0  0  0  0  0  0
  -25.8189  -16.0151   19.3618 O   0  0  0  0  0  0  0  0  0  0  0  0
  -22.5653  -14.6082   20.6383 O   0  0  0  0  0  0  0  0  0  0  0  0
  -20.7353  -18.9105   21.4520 O   0  0  0  0  0  0  0  0  0  0  0  0
  -20.5188  -25.7013   19.8691 O   0  0  0  0  0  0  0  0  0  0  0  0
  -27.2043  -28.7279   18.8009 O   0  0  0  0  0  0  0  0  0  0  0  0
  -24.8073  -23.2249   24.9362 O   0  0  0  0  0  0  0  0  0  0  0  0
  -26.8577  -21.6340   22.6563 O   0  0  0  0  0  0  0  0  0  1  0  0
  -31.9037  -26.2820   20.3294 F   0  0  0  0  0  0  0  0  0  0  0  0
  -28.1317  -26.4851   17.4771 F   0  0  0  0  0  0  0  0  0  0  0  0
  1  2  1  0  0  0  0
  1  7  2  0  0  0  0
  2  8  2  0  0  0  0
  3  6  1  0  0  0  0
  3 10  2  0  0  0  0
  4 11  2  0  0  0  0
  4 19  1  0  0  0  0
  5 12  1  0  0  0  0
  5 19  2  0  0  0  0
  6 20  2  0  0  0  0
  7 22  1  0  0  0  0
  8 24  1  0  0  0  0
  9 13  2  0  0  0  0
  9 23  1  0  0  0  0
 10 27  1  0  0  0  0
 11 26  1  0  0  0  0
 12 26  2  0  0  0  0
 13 28  1  0  0  0  0
 14 15  2  0  0  0  0
 14 29  1  0  0  0  0
 15 30  1  0  0  0  0
 16 20  1  0  0  0  0
 16 27  2  0  0  0  0
 17 25  1  0  0  0  0
 17 28  2  0  0  0  0
 18 30  2  0  0  0  0
 18 31  1  0  0  0  0
 19 32  1  0  0  0  0
 20 34  1  0  0  0  0
 21 32  1  0  0  0  0
 21 33  2  0  0  0  0
 21 35  1  0  0  0  0
 22 24  2  0  0  0  0
 22 40  1  0  0  0  0
 23 25  2  0  0  0  0
 23 41  1  0  0  0  0
 24 49  1  0  0  0  0
 25 42  1  0  0  0  0
 26 80  1  0  0  0  0
 27 81  1  0  0  0  0
 28 82  1  0  0  0  0
 29 31  2  0  0  0  0
 29 80  1  0  0  0  0
 30 83  1  0  0  0  0
 31 84  1  0  0  0  0
 32 64  2  0  0  0  0
 33 65  1  0  0  0  0
 33 68  1  0  0  0  0
 34 72  1  0  0  0  0
 34 74  2  0  0  0  0
 35 69  1  0  0  0  0
 35 75  2  0  0  0  0
 36 50  1  0  0  0  0
 36 70  1  0  0  0  0
 36 76  2  0  0  0  0
 37 61  1  0  0  0  0
 37 66  1  0  0  0  0
 37 77  2  0  0  0  0
 38 62  1  0  0  0  0
 38 71  1  0  0  0  0
 38 78  2  0  0  0  0
 39 67  1  0  0  0  0
 39 72  1  0  0  0  0
 39 79  2  0  0  0  0
 40 43  1  0  0  0  0
 41 50  1  0  0  0  0
 42 66  1  0  0  0  0
 43 45  1  0  0  0  0
 44 46  1  0  0  0  0
 44 47  1  0  0  0  0
 45 49  1  0  0  0  0
 46 51  1  0  0  0  0
 47 67  1  0  0  0  0
 48 51  1  0  0  0  0
 48 67  1  0  0  0  0
 49 70  1  0  0  0  0
 50 66  1  0  0  0  0
 51 65  1  0  0  0  0
 52 62  1  0  0  0  0
 53 63  1  0  0  0  0
 54 63  1  0  0  0  0
 55 63  1  0  0  0  0
 56 72  1  0  0  0  0
 57 73  1  0  0  0  0
 58 59  1  0  0  0  0
 58 60  1  0  0  0  0
 59 81  1  0  0  0  0
 60 82  1  0  0  0  0
 61 63  1  0  0  0  0
 61 71  1  0  0  0  0
 62 73  1  0  0  0  0
 64 65  1  0  0  0  0
M  CHG  1  73   1
M  ISO  4  39 100  60 101  72 100  82 101
M  END
> <Batch ID>
0103

> <Smiles>
CNC(C)C(=O)NC(C(=O)N1Cc2cc([101O:1][101CH2:1]CCOc3cccc(C(=O)[100N:0](C)[100C:0](=O)N4CCCC(n5nc(-c6ccc(Oc7ccc(F)cc7F)cc6)c(C(N)=O)c5N)C4)c3)ccc2CC1C(=O)NC1CCCc2ccccc21)C(C)(C)C

> <Shape>
0.208

> <Color>
0.084

> <Negative vol penalty>
0.000

$$$$

  -OEChem-04052301053D

 91100  0     1  0  0  0  0  0999 V2000
  -18.8309  -34.5311   17.6660 C   0  0  0  0  0  0  0  0  0  0  0  0
  -20.1584  -34.2806   17.3337 C   0  0  0  0  0  0  0  0  0  0  0  0
  -23.5480  -11.2157   23.1290 C   0  0  0  0  0  0  0  0  0  0  0  0
  -24.4746   -9.4637   21.7472 C   0  0  0  0  0  0  0  0  0  0  0  0
  -30.5437  -20.1278   21.9990 C   0  0  0  0  0  0  0  0  0  0  0  0
  -18.4657  -34.6882   19.0023 C   0  0  0  0  0  0  0  0  0  0  0  0
  -21.1217  -34.1881   18.3376 C   0  0  0  0  0  0  0  0  0  0  0  0
  -25.0591  -28.2121   19.1599 C   0  0  0  0  0  0  0  0  0  0  0  0
  -30.2384  -21.3439   21.3880 C   0  0  0  0  0  0  0  0  0  0  0  0
  -23.0250  -10.2558   23.9954 C   0  0  0  0  0  0  0  0  0  0  0  0
  -23.9516   -8.5038   22.6137 C   0  0  0  0  0  0  0  0  0  0  0  0
  -25.9976  -27.1838   19.2483 C   0  0  0  0  0  0  0  0  0  0  0  0
  -20.9542   -7.0603   23.2158 C   0  0  0  0  0  0  0  0  0  0  0  0
  -20.3075   -5.9611   22.6509 C   0  0  0  0  0  0  0  0  0  0  0  0
  -26.9975  -28.2475   21.1761 C   0  0  0  0  0  0  0  0  0  0  0  0
  -32.4795  -21.4565   20.4924 C   0  0  0  0  0  0  0  0  0  0  0  0
  -21.9050   -4.4825   23.6992 C   0  0  0  0  0  0  0  0  0  0  0  0
  -24.2728  -10.8197   22.0049 C   0  0  0  0  0  0  0  0  0  0  0  0
  -31.8169  -19.5760   21.8568 C   0  0  0  0  0  0  0  0  0  0  0  0
  -24.0960  -12.7790   20.3809 C   0  0  0  0  0  0  0  0  0  0  0  0
  -19.4234  -34.5881   20.0238 C   0  0  0  0  0  0  0  0  0  0  0  0
  -25.0767  -29.2554   20.0897 C   0  0  0  0  0  0  0  0  0  0  0  0
  -20.7693  -34.3454   19.6888 C   0  0  0  0  0  0  0  0  0  0  0  0
  -26.0522  -29.2739   21.1001 C   0  0  0  0  0  0  0  0  0  0  0  0
  -32.7848  -20.2404   21.1035 C   0  0  0  0  0  0  0  0  0  0  0  0
  -31.2063  -22.0083   20.6346 C   0  0  0  0  0  0  0  0  0  0  0  0
  -23.2268   -8.8999   23.7377 C   0  0  0  0  0  0  0  0  0  0  0  0
  -26.9646  -27.2016   20.2537 C   0  0  0  0  0  0  0  0  0  0  0  0
  -22.0763   -6.8707   24.0224 C   0  0  0  0  0  0  0  0  0  0  0  0
  -20.7829   -4.6722   22.8926 C   0  0  0  0  0  0  0  0  0  0  0  0
  -22.5517   -5.5818   24.2641 C   0  0  0  0  0  0  0  0  0  0  0  0
  -24.8128  -11.8107   21.1092 C   0  0  0  0  0  0  0  0  0  0  0  0
  -25.0595  -13.4699   19.6875 C   0  0  0  0  0  0  0  0  0  0  0  0
  -30.2348  -25.7422   18.7382 C   0  0  0  0  0  0  0  0  0  0  0  0
  -32.1085  -18.3045   22.5052 C   0  0  0  0  0  0  0  0  0  0  0  0
  -22.6854  -13.0314   20.3353 C   0  0  0  0  0  0  0  0  0  0  0  0
  -23.5108  -32.4492   21.2830 C   0  0  0  0  0  0  0  0  0  0  0  0
  -30.9218  -14.3015   20.7139 C   0  0  0  0  0  0  0  0  0  0  0  0
  -24.2273  -30.8202   23.7817 C   0  0  0  0  0  0  0  0  0  0  0  0
  -31.4587  -15.9002   22.6014 C   0  0  0  0  0  0  0  0  0  0  0  0
  -24.3609  -29.4130   26.8864 C   0  0  0  0  0  0  0  0  0  0  0  0
  -18.9891  -34.8122   21.4506 C   0  0  0  0  0  0  0  0  0  0  0  0
  -24.1236  -30.4159   19.9958 C   0  0  0  0  0  0  0  0  0  0  0  0
  -26.0545  -30.4342   22.0575 C   0  0  0  0  0  0  0  0  0  0  0  0
  -30.6683  -24.5322   17.9465 C   0  0  0  0  0  0  0  0  0  0  0  0
  -20.0064  -34.3274   22.4803 C   0  0  0  0  0  0  0  0  0  0  0  0
  -29.4014  -12.9459   17.7660 C   0  0  0  0  0  0  0  0  0  0  0  0
  -21.4096  -34.7928   22.1045 C   0  0  0  0  0  0  0  0  0  0  0  0
  -27.9967  -12.5629   18.2302 C   0  0  0  0  0  0  0  0  0  0  0  0
  -31.5604  -23.6178   18.7774 C   0  0  0  0  0  0  0  0  0  0  0  0
  -30.4325  -12.7293   18.8692 C   0  0  0  0  0  0  0  0  0  0  0  0
  -29.9201  -24.1336   20.6294 C   0  0  0  0  0  0  0  0  0  0  0  0
  -28.7077  -13.0529   20.6134 C   0  0  0  0  0  0  0  0  0  0  0  0
  -21.8390  -34.2135   20.7511 C   0  0  1  0  0  0  0  0  0  0  0  0
  -30.2029  -25.5936   20.2515 C   0  0  2  0  0  0  0  0  0  0  0  0
  -23.7023  -30.9636   21.3712 C   0  0  1  0  0  0  0  0  0  0  0  0
  -27.6308  -13.2855   19.5388 C   0  0  2  0  0  0  0  0  0  0  0  0
  -34.1557  -19.6711   20.9345 C   0  0  0  0  0  0  0  0  0  0  0  0
  -24.4882  -30.0167   29.3188 C   0  0  0  0  0  0  0  0  0  0  0  0
  -27.1816  -31.5045   23.4534 C   0  0  0  0  0  0  0  0  0  0  0  0
  -27.4617  -31.1625   25.9177 C   0  0  0  0  0  0  0  0  0  0  0  0
  -25.9478  -32.9564   25.0734 C   0  0  0  0  0  0  0  0  0  0  0  0
  -21.7847  -28.0790   27.4715 C   0  0  0  0  0  0  0  0  0  0  0  0
  -30.4428  -14.9699   21.9780 C   0  0  0  0  0  0  0  0  0  0  0  0
  -29.1579  -26.5182   20.8701 C   0  0  0  0  0  0  0  0  0  1  0  0
  -25.2437  -30.5377   24.8590 C   0  0  1  0  0  0  0  0  0  0  0  0
  -23.5695  -29.6883   28.1522 C   0  0  2  0  0  0  0  0  0  0  0  0
  -26.4482  -31.5195   24.8095 C   0  0  0  0  0  0  0  0  0  0  0  0
  -26.1300  -11.8773   20.8980 N   0  0  0  0  0  0  0  0  0  0  0  0
  -26.2485  -12.8956   20.0291 N   0  0  0  0  0  0  0  0  0  0  0  0
  -30.9012  -23.2250   20.0253 N   0  0  3  0  0  0  0  0  0  0  0  0
  -24.6762  -30.7588   22.4568 N   0  0  0  0  0  0  0  0  0  0  0  0
  -30.0375  -13.4130   20.1020 N   0  0  0  0  0  0  0  0  0  0  0  0
  -24.9972  -14.5065   18.8249 N   0  0  0  0  0  0  0  0  0  0  0  0
  -21.9173  -12.3601   19.3742 N   0  0  0  0  0  0  0  0  0  0  0  0
  -31.3205  -17.2044   22.1223 N   0  0  0  0  0  0  0  0  0  0  0  0
  -22.2398  -32.8307   20.8974 N   0  0  0  0  0  0  0  0  0  0  0  0
  -24.5138  -30.5505   26.1221 N   0  0  0  0  0  0  0  0  0  0  0  0
  -22.7501  -28.4990   28.5197 N   0  3  0  0  0  0  0  0  0  0  0  0
  -29.9259  -26.7889   18.1694 O   0  0  0  0  0  0  0  0  0  0  0  0
  -33.0319  -18.2202   23.3317 O   0  0  0  0  0  0  0  0  0  0  0  0
  -22.1253  -13.8410   21.1127 O   0  0  0  0  0  0  0  0  0  0  0  0
  -24.4461  -33.1956   21.5466 O   0  0  0  0  0  0  0  0  0  0  0  0
  -32.0476  -14.5648   20.2832 O   0  0  0  0  0  0  0  0  0  0  0  0
  -23.0676  -31.0938   24.1034 O   0  0  0  0  0  0  0  0  0  0  0  0
  -32.2880  -15.5256   23.4260 O   0  0  0  0  0  0  0  0  0  0  0  0
  -24.8027  -28.3010   26.6055 O   0  0  0  0  0  0  0  0  0  0  0  0
  -22.7168   -7.9629   24.5831 O   0  0  0  0  0  0  0  0  0  0  0  0
  -27.8750  -26.1922   20.3370 O   0  0  0  0  0  0  0  0  0  1  0  0
  -20.1608   -3.6166   22.3514 F   0  0  0  0  0  0  0  0  0  0  0  0
  -23.6286   -5.3932   25.0391 F   0  0  0  0  0  0  0  0  0  0  0  0
  1  2  1  0  0  0  0
  1  6  2  0  0  0  0
  2  7  2  0  0  0  0
  3 10  2  0  0  0  0
  3 18  1  0  0  0  0
  4 11  1  0  0  0  0
  4 18  2  0  0  0  0
  5  9  2  0  0  0  0
  5 19  1  0  0  0  0
  6 21  1  0  0  0  0
  7 23  1  0  0  0  0
  8 12  2  0  0  0  0
  8 22  1  0  0  0  0
  9 26  1  0  0  0  0
 10 27  1  0  0  0  0
 11 27  2  0  0  0  0
 12 28  1  0  0  0  0
 13 14  2  0  0  0  0
 13 29  1  0  0  0  0
 14 30  1  0  0  0  0
 15 24  1  0  0  0  0
 15 28  2  0  0  0  0
 16 25  1  0  0  0  0
 16 26  2  0  0  0  0
 17 30  2  0  0  0  0
 17 31  1  0  0  0  0
 18 32  1  0  0  0  0
 19 25  2  0  0  0  0
 19 35  1  0  0  0  0
 20 32  1  0  0  0  0
 20 33  2  0  0  0  0
 20 36  1  0  0  0  0
 21 23  2  0  0  0  0
 21 42  1  0  0  0  0
 22 24  2  0  0  0  0
 22 43  1  0  0  0  0
 23 54  1  0  0  0  0
 24 44  1  0  0  0  0
 25 58  1  0  0  0  0
 26 71  1  0  0  0  0
 27 88  1  0  0  0  0
 28 89  1  0  0  0  0
 29 31  2  0  0  0  0
 29 88  1  0  0  0  0
 30 90  1  0  0  0  0
 31 91  1  0  0  0  0
 32 69  2  0  0  0  0
 33 70  1  0  0  0  0
 33 74  1  0  0  0  0
 34 45  1  0  0  0  0
 34 55  1  0  0  0  0
 34 80  2  0  0  0  0
 35 76  1  0  0  0  0
 35 81  2  0  0  0  0
 36 75  1  0  0  0  0
 36 82  2  0  0  0  0
 37 56  1  0  0  0  0
 37 77  1  0  0  0  0
 37 83  2  0  0  0  0
 38 64  1  0  0  0  0
 38 73  1  0  0  0  0
 38 84  2  0  0  0  0
 39 66  1  0  0  0  0
 39 72  1  0  0  0  0
 39 85  2  0  0  0  0
 40 64  1  0  0  0  0
 40 76  1  0  0  0  0
 40 86  2  0  0  0  0
 41 67  1  0  0  0  0
 41 78  1  0  0  0  0
 41 87  2  0  0  0  0
 42 46  1  0  0  0  0
 43 56  1  0  0  0  0
 44 72  1  0  0  0  0
 45 50  1  0  0  0  0
 46 48  1  0  0  0  0
 47 49  1  0  0  0  0
 47 51  1  0  0  0  0
 48 54  1  0  0  0  0
 49 57  1  0  0  0  0
 50 71  1  0  0  0  0
 51 73  1  0  0  0  0
 52 55  1  0  0  0  0
 52 71  1  0  0  0  0
 53 57  1  0  0  0  0
 53 73  1  0  0  0  0
 54 77  1  0  0  0  0
 55 65  1  0  0  0  0
 56 72  1  0  0  0  0
 57 70  1  0  0  0  0
 59 67  1  0  0  0  0
 60 68  1  0  0  0  0
 61 68  1  0  0  0  0
 62 68  1  0  0  0  0
 63 79  1  0  0  0  0
 65 89  1  0  0  0  0
 66 68  1  0  0  0  0
 66 78  1  0  0  0  0
 67 79  1  0  0  0  0
 69 70  1  0  0  0  0
M  CHG  1  79   1
M  ISO  4  38 100  64 100  65 101  89 101
M  END
> <Batch ID>
0103

> <Smiles>
CNC(C)C(=O)NC(C(=O)N1Cc2cc([101O:1][101CH2:1]C3CN(c4ccc(C(=O)NC(=O)[100CH2:0][100C:0](=O)N5CCCC(n6nc(-c7ccc(Oc8ccc(F)cc8F)cc7)c(C(N)=O)c6N)C5)c(C)c4)CCC3=O)ccc2CC1C(=O)NC1CCCc2ccccc21)C(C)(C)C

> <Shape>
0.320

> <Color>
0.157

> <Negative vol penalty>
0.000

$$$$

  -OEChem-04052301053D

 85 94  0     1  0  0  0  0  0999 V2000
  -29.9727  -36.4951   15.8759 C   0  0  0  0  0  0  0  0  0  0  0  0
  -29.9258  -35.1052   15.9142 C   0  0  0  0  0  0  0  0  0  0  0  0
  -22.9904   -9.8995   19.9617 C   0  0  0  0  0  0  0  0  0  0  0  0
  -24.4498   -9.4550   21.8351 C   0  0  0  0  0  0  0  0  0  0  0  0
  -30.1272  -37.2190   17.0575 C   0  0  0  0  0  0  0  0  0  0  0  0
  -30.0344  -34.4384   17.1340 C   0  0  0  0  0  0  0  0  0  0  0  0
  -27.2291  -29.2400   18.7505 C   0  0  0  0  0  0  0  0  0  0  0  0
  -29.3190  -18.3400   19.5312 C   0  0  0  0  0  0  0  0  0  0  0  0
  -27.9794  -19.3470   21.2715 C   0  0  0  0  0  0  0  0  0  0  0  0
  -29.4622  -19.5858   18.9205 C   0  0  0  0  0  0  0  0  0  0  0  0
  -28.1227  -20.5929   20.6608 C   0  0  0  0  0  0  0  0  0  0  0  0
  -22.3973   -8.6478   20.1267 C   0  0  0  0  0  0  0  0  0  0  0  0
  -23.8568   -8.2034   22.0002 C   0  0  0  0  0  0  0  0  0  0  0  0
  -27.6541  -27.9124   18.7722 C   0  0  0  0  0  0  0  0  0  0  0  0
  -21.0181   -6.9511   23.3397 C   0  0  0  0  0  0  0  0  0  0  0  0
  -20.6812   -6.5612   24.6359 C   0  0  0  0  0  0  0  0  0  0  0  0
  -28.2003  -28.1317   21.1116 C   0  0  0  0  0  0  0  0  0  0  0  0
  -22.1438   -4.6481   24.4404 C   0  0  0  0  0  0  0  0  0  0  0  0
  -24.0167  -10.3031   20.8158 C   0  0  0  0  0  0  0  0  0  0  0  0
  -23.9983  -12.8519   20.7125 C   0  0  0  0  0  0  0  0  0  0  0  0
  -30.2281  -36.5611   18.2934 C   0  0  0  0  0  0  0  0  0  0  0  0
  -27.2968  -30.0280   19.9085 C   0  0  0  0  0  0  0  0  0  0  0  0
  -30.1918  -35.1541   18.3330 C   0  0  0  0  0  0  0  0  0  0  0  0
  -27.7731  -29.4683   21.1026 C   0  0  0  0  0  0  0  0  0  0  0  0
  -28.5776  -18.2205   20.7067 C   0  0  0  0  0  0  0  0  0  0  0  0
  -28.8641  -20.7123   19.4853 C   0  0  0  0  0  0  0  0  0  0  0  0
  -22.8305   -7.7998   21.1460 C   0  0  0  0  0  0  0  0  0  0  0  0
  -28.1425  -27.3589   19.9521 C   0  0  0  0  0  0  0  0  0  0  0  0
  -21.9178   -6.1895   22.5939 C   0  0  0  0  0  0  0  0  0  0  0  0
  -21.2441   -5.4097   25.1863 C   0  0  0  0  0  0  0  0  0  0  0  0
  -22.4807   -5.0381   23.1442 C   0  0  0  0  0  0  0  0  0  0  0  0
  -24.6301  -11.5957   20.6455 C   0  0  0  0  0  0  0  0  0  0  0  0
  -25.0067  -13.7560   20.4838 C   0  0  0  0  0  0  0  0  0  0  0  0
  -28.9791  -24.2355   18.5133 C   0  0  0  0  0  0  0  0  0  0  0  0
  -29.0740  -25.5320   18.8271 C   0  0  0  0  0  0  0  0  0  1  0  0
  -22.6229  -13.1729   20.9594 C   0  0  0  0  0  0  0  0  0  0  0  0
  -28.8355  -32.6866   20.7257 C   0  0  0  0  0  0  0  0  0  0  0  0
  -27.0581  -32.4210   23.4263 C   0  0  0  0  0  0  0  0  0  0  0  0
  -25.3010  -30.4110   25.5521 C   0  0  0  0  0  0  0  0  0  0  0  0
  -30.3221  -15.2769   21.8070 C   0  0  0  0  0  0  0  0  0  0  0  0
  -30.4414  -37.3845   19.5389 C   0  0  0  0  0  0  0  0  0  0  0  0
  -26.8095  -31.4506   19.8752 C   0  0  0  0  0  0  0  0  0  0  0  0
  -27.8473  -30.2660   22.3781 C   0  0  0  0  0  0  0  0  0  0  0  0
  -29.5263  -23.6090   17.2700 C   0  0  0  0  0  0  0  0  0  0  0  0
  -28.4141  -23.1734   19.4078 C   0  0  0  0  0  0  0  0  0  0  0  0
  -30.1731  -36.6162   20.8304 C   0  0  0  0  0  0  0  0  0  0  0  0
  -29.7466  -13.0913   18.8755 C   0  0  0  0  0  0  0  0  0  0  0  0
  -30.8423  -35.2462   20.7854 C   0  0  0  0  0  0  0  0  0  0  0  0
  -28.3364  -12.5603   19.1276 C   0  0  0  0  0  0  0  0  0  0  0  0
  -29.8638  -22.1917   17.7242 C   0  0  0  0  0  0  0  0  0  0  0  0
  -30.4667  -13.4288   20.1775 C   0  0  0  0  0  0  0  0  0  0  0  0
  -28.3054  -13.8357   21.3077 C   0  0  0  0  0  0  0  0  0  0  0  0
  -30.2813  -34.3956   19.6394 C   0  0  1  0  0  0  0  0  0  0  0  0
  -27.4037  -32.3119   20.9853 C   0  0  1  0  0  0  0  0  0  0  0  0
  -27.5356  -13.5298   20.0142 C   0  0  2  0  0  0  0  0  0  0  0  0
  -23.9935  -30.4738   27.6931 C   0  0  0  0  0  0  0  0  0  0  0  0
  -29.6611  -32.6038   25.0077 C   0  0  0  0  0  0  0  0  0  0  0  0
  -28.4302  -31.7226   27.0018 C   0  0  0  0  0  0  0  0  0  0  0  0
  -27.7553  -33.8970   25.9824 C   0  0  0  0  0  0  0  0  0  0  0  0
  -30.2783  -17.5030   22.8662 C   0  0  0  0  0  0  0  0  0  0  0  0
  -22.8337  -29.4809   24.2081 C   0  0  0  0  0  0  0  0  0  0  0  0
  -28.4235  -16.8889   21.3601 C   0  0  0  0  0  0  0  0  0  0  0  0
  -27.2393  -31.7432   24.7630 C   0  0  1  0  0  0  0  0  0  0  0  0
  -23.9257  -30.5634   26.1765 C   0  0  2  0  0  0  0  0  0  0  0  0
  -28.2720  -32.4769   25.6644 C   0  0  0  0  0  0  0  0  0  0  0  0
  -25.9385  -11.6893   20.3938 N   0  0  0  0  0  0  0  0  0  0  0  0
  -26.1371  -13.0152   20.3005 N   0  0  0  0  0  0  0  0  0  0  0  0
  -29.0072  -21.9463   18.8820 N   0  0  3  0  0  0  0  0  0  0  0  0
  -27.3649  -31.6543   22.2931 N   0  0  0  0  0  0  0  0  0  0  0  0
  -29.6650  -14.3169   21.0200 N   0  0  0  0  0  0  0  0  0  0  0  0
  -25.0278  -15.1045   20.4235 N   0  0  0  0  0  0  0  0  0  0  0  0
  -22.2110  -13.3732   22.2840 N   0  0  0  0  0  0  0  0  0  0  0  0
  -28.9892  -33.8519   19.9992 N   0  0  0  0  0  0  0  0  0  0  0  0
  -25.9075  -31.6324   25.3483 N   0  0  0  0  0  0  0  0  0  0  0  0
  -29.6340  -16.4723   22.0647 N   0  0  0  0  0  0  0  0  0  0  0  0
  -23.0115  -29.4949   25.6830 N   0  3  0  0  0  0  0  0  0  0  0  0
  -21.7806  -13.2629   20.0342 O   0  0  0  0  0  0  0  0  0  0  0  0
  -29.7342  -31.9723   21.1543 O   0  0  0  0  0  0  0  0  0  0  0  0
  -26.6524  -33.5853   23.3886 O   0  0  0  0  0  0  0  0  0  0  0  0
  -25.7899  -29.3176   25.2765 O   0  0  0  0  0  0  0  0  0  0  0  0
  -31.4626  -15.0809   22.2458 O   0  0  0  0  0  0  0  0  0  0  0  0
  -22.2518   -6.5785   21.3075 O   0  0  0  0  0  0  0  0  0  0  0  0
  -28.5586  -26.0634   19.9759 O   0  0  0  0  0  0  0  0  0  1  0  0
  -20.9217   -5.0362   26.4315 F   0  0  0  0  0  0  0  0  0  0  0  0
  -23.3465   -4.3031   22.4330 F   0  0  0  0  0  0  0  0  0  0  0  0
  1  2  1  0  0  0  0
  1  5  2  0  0  0  0
  2  6  2  0  0  0  0
  3 12  2  0  0  0  0
  3 19  1  0  0  0  0
  4 13  1  0  0  0  0
  4 19  2  0  0  0  0
  5 21  1  0  0  0  0
  6 23  1  0  0  0  0
  7 14  2  0  0  0  0
  7 22  1  0  0  0  0
  8 10  2  0  0  0  0
  8 25  1  0  0  0  0
  9 11  1  0  0  0  0
  9 25  2  0  0  0  0
 10 26  1  0  0  0  0
 11 26  2  0  0  0  0
 12 27  1  0  0  0  0
 13 27  2  0  0  0  0
 14 28  1  0  0  0  0
 15 16  2  0  0  0  0
 15 29  1  0  0  0  0
 16 30  1  0  0  0  0
 17 24  1  0  0  0  0
 17 28  2  0  0  0  0
 18 30  2  0  0  0  0
 18 31  1  0  0  0  0
 19 32  1  0  0  0  0
 20 32  1  0  0  0  0
 20 33  2  0  0  0  0
 20 36  1  0  0  0  0
 21 23  2  0  0  0  0
 21 41  1  0  0  0  0
 22 24  2  0  0  0  0
 22 42  1  0  0  0  0
 23 53  1  0  0  0  0
 24 43  1  0  0  0  0
 25 62  1  0  0  0  0
 26 68  1  0  0  0  0
 27 82  1  0  0  0  0
 28 83  1  0  0  0  0
 29 31  2  0  0  0  0
 29 82  1  0  0  0  0
 30 84  1  0  0  0  0
 31 85  1  0  0  0  0
 32 66  2  0  0  0  0
 33 67  1  0  0  0  0
 33 71  1  0  0  0  0
 34 35  2  0  0  0  0
 34 44  1  0  0  0  0
 34 45  1  0  0  0  0
 35 83  1  0  0  0  0
 36 72  1  0  0  0  0
 36 77  2  0  0  0  0
 37 54  1  0  0  0  0
 37 73  1  0  0  0  0
 37 78  2  0  0  0  0
 38 63  1  0  0  0  0
 38 69  1  0  0  0  0
 38 79  2  0  0  0  0
 39 64  1  0  0  0  0
 39 74  1  0  0  0  0
 39 80  2  0  0  0  0
 40 70  1  0  0  0  0
 40 75  1  0  0  0  0
 40 81  2  0  0  0  0
 41 46  1  0  0  0  0
 42 54  1  0  0  0  0
 43 69  1  0  0  0  0
 44 50  1  0  0  0  0
 45 68  1  0  0  0  0
 46 48  1  0  0  0  0
 47 49  1  0  0  0  0
 47 51  1  0  0  0  0
 48 53  1  0  0  0  0
 49 55  1  0  0  0  0
 50 68  1  0  0  0  0
 51 70  1  0  0  0  0
 52 55  1  0  0  0  0
 52 70  1  0  0  0  0
 53 73  1  0  0  0  0
 54 69  1  0  0  0  0
 55 67  1  0  0  0  0
 56 64  1  0  0  0  0
 57 65  1  0  0  0  0
 58 65  1  0  0  0  0
 59 65  1  0  0  0  0
 60 75  1  0  0  0  0
 61 76  1  0  0  0  0
 62 75  1  0  0  0  0
 63 65  1  0  0  0  0
 63 74  1  0  0  0  0
 64 76  1  0  0  0  0
 66 67  1  0  0  0  0
M  CHG  1  76   1
M  ISO  4  35 101  40 100  75 100  83 101
M  END
> <Batch ID>
0103

> <Smiles>
CNC(C)C(=O)NC(C(=O)N1Cc2cc([101O:1][101CH:1]=C3CCN(c4ccc(C[100N:0](C)[100C:0](=O)N5CCCC(n6nc(-c7ccc(Oc8ccc(F)cc8F)cc7)c(C(N)=O)c6N)C5)cc4)C3)ccc2CC1C(=O)NC1CCCc2ccccc21)C(C)(C)C

> <Shape>
0.362

> <Color>
0.167

> <Negative vol penalty>
0.000

$$$$

  -OEChem-04052301053D

 87 96  0     1  0  0  0  0  0999 V2000
  -28.5401  -37.3099   23.4417 C   0  0  0  0  0  0  0  0  0  0  0  0
  -28.8458  -36.2746   22.5641 C   0  0  0  0  0  0  0  0  0  0  0  0
  -26.1970  -13.6504   22.0007 C   0  0  0  0  0  0  0  0  0  0  0  0
  -24.8386  -15.1769   20.7116 C   0  0  0  0  0  0  0  0  0  0  0  0
  -27.7739  -37.0554   24.5784 C   0  0  0  0  0  0  0  0  0  0  0  0
  -28.3863  -34.9838   22.8234 C   0  0  0  0  0  0  0  0  0  0  0  0
  -26.6508  -30.7972   18.7044 C   0  0  0  0  0  0  0  0  0  0  0  0
  -25.1246  -12.7618   22.0785 C   0  0  0  0  0  0  0  0  0  0  0  0
  -23.7662  -14.2882   20.7894 C   0  0  0  0  0  0  0  0  0  0  0  0
  -27.3110  -29.7066   18.1400 C   0  0  0  0  0  0  0  0  0  0  0  0
  -23.6408  -10.4680   20.0861 C   0  0  0  0  0  0  0  0  0  0  0  0
  -23.8992   -9.1179   19.8491 C   0  0  0  0  0  0  0  0  0  0  0  0
  -26.2958  -28.2532   19.7759 C   0  0  0  0  0  0  0  0  0  0  0  0
  -28.4781  -24.4740   19.4506 C   0  0  0  0  0  0  0  0  0  0  0  0
  -29.4062  -25.7203   21.3006 C   0  0  0  0  0  0  0  0  0  0  0  0
  -23.1146   -8.5780   22.0695 C   0  0  0  0  0  0  0  0  0  0  0  0
  -26.0540  -14.8580   21.3173 C   0  0  0  0  0  0  0  0  0  0  0  0
  -28.1567  -15.8232   20.2429 C   0  0  0  0  0  0  0  0  0  0  0  0
  -27.2967  -35.7627   24.8466 C   0  0  0  0  0  0  0  0  0  0  0  0
  -25.8152  -30.6253   19.8174 C   0  0  0  0  0  0  0  0  0  0  0  0
  -27.6141  -34.7115   23.9654 C   0  0  0  0  0  0  0  0  0  0  0  0
  -25.6241  -29.3427   20.3509 C   0  0  0  0  0  0  0  0  0  0  0  0
  -27.6119  -23.8194   20.3262 C   0  0  0  0  0  0  0  0  0  0  0  0
  -27.6427  -24.1152   21.6889 C   0  0  0  0  0  0  0  0  0  0  0  0
  -29.3753  -25.4245   19.9378 C   0  0  0  0  0  0  0  0  0  0  0  0
  -23.9093  -13.0807   21.4728 C   0  0  0  0  0  0  0  0  0  0  0  0
  -27.1359  -28.4348   18.6775 C   0  0  0  0  0  0  0  0  0  0  0  0
  -23.1194  -10.8731   21.3148 C   0  0  0  0  0  0  0  0  0  0  0  0
  -23.6361   -8.1729   20.8408 C   0  0  0  0  0  0  0  0  0  0  0  0
  -28.5399  -25.0657   22.1762 C   0  0  0  0  0  0  0  0  0  0  0  0
  -22.8563   -9.9281   22.3065 C   0  0  0  0  0  0  0  0  0  0  0  0
  -27.1611  -15.7766   21.2371 C   0  0  0  0  0  0  0  0  0  0  0  0
  -28.9690  -16.8650   20.6190 C   0  0  0  0  0  0  0  0  0  0  0  0
  -31.5500  -26.5887   19.3509 C   0  0  0  0  0  0  0  0  0  0  0  0
  -28.3316  -14.9987   19.0831 C   0  0  0  0  0  0  0  0  0  0  0  0
  -25.8156  -31.6978   22.8096 C   0  0  0  0  0  0  0  0  0  0  0  0
  -22.9371  -30.2073   22.9318 C   0  0  0  0  0  0  0  0  0  0  0  0
  -20.8689  -27.7943   21.6882 C   0  0  0  0  0  0  0  0  0  0  0  0
  -28.0437  -21.7666   23.9309 C   0  0  0  0  0  0  0  0  0  0  0  0
  -26.5119  -35.5269   26.1128 C   0  0  0  0  0  0  0  0  0  0  0  0
  -25.0892  -31.8078   20.3979 C   0  0  0  0  0  0  0  0  0  0  0  0
  -24.7218  -29.1018   21.5326 C   0  0  0  0  0  0  0  0  0  0  0  0
  -32.1212  -27.2002   18.0935 C   0  0  0  0  0  0  0  0  0  0  0  0
  -25.7483  -34.2051   26.1188 C   0  0  0  0  0  0  0  0  0  0  0  0
  -31.2788  -26.5896   16.9896 C   0  0  0  0  0  0  0  0  0  0  0  0
  -30.4746  -19.2277   24.4973 C   0  0  0  0  0  0  0  0  0  0  0  0
  -26.6457  -33.0680   25.6408 C   0  0  0  0  0  0  0  0  0  0  0  0
  -29.9909  -18.0595   23.6363 C   0  0  0  0  0  0  0  0  0  0  0  0
  -29.3075  -19.9951   25.1145 C   0  0  0  0  0  0  0  0  0  0  0  0
  -27.8087  -19.2908   23.2893 C   0  0  0  0  0  0  0  0  0  0  0  0
  -27.1131  -33.3028   24.1993 C   0  0  1  0  0  0  0  0  0  0  0  0
  -24.6655  -31.5957   21.8481 C   0  0  1  0  0  0  0  0  0  0  0  0
  -28.9482  -18.5206   22.6003 C   0  0  2  0  0  0  0  0  0  0  0  0
  -29.9203  -26.3753   17.6475 C   0  0  2  0  0  0  0  0  0  0  0  0
  -26.6595  -22.8059   19.7815 C   0  0  0  0  0  0  0  0  0  0  0  0
  -18.5929  -26.7897   22.0168 C   0  0  0  0  0  0  0  0  0  0  0  0
  -23.9511  -28.7223   25.3968 C   0  0  0  0  0  0  0  0  0  0  0  0
  -22.0674  -27.0987   25.1077 C   0  0  0  0  0  0  0  0  0  0  0  0
  -21.5808  -29.5047   25.5519 C   0  0  0  0  0  0  0  0  0  0  0  0
  -20.0148  -28.5469   18.9563 C   0  0  0  0  0  0  0  0  0  0  0  0
  -26.7227  -23.4264   22.6428 C   0  0  0  0  0  0  0  0  0  0  0  0
  -29.0404  -27.6198   17.5094 C   0  0  0  0  0  0  0  0  0  1  0  0
  -22.4672  -28.8171   23.2861 C   0  0  1  0  0  0  0  0  0  0  0  0
  -19.4094  -27.8348   21.2726 C   0  0  2  0  0  0  0  0  0  0  0  0
  -22.5352  -28.5402   24.8146 C   0  0  0  0  0  0  0  0  0  0  0  0
  -27.3242  -16.7140   22.1745 N   0  0  0  0  0  0  0  0  0  0  0  0
  -28.4317  -17.3595   21.7709 N   0  0  0  0  0  0  0  0  0  0  0  0
  -30.2646  -26.0969   19.0391 N   0  0  0  0  0  0  0  0  0  0  0  0
  -24.0390  -30.2908   22.0688 N   0  0  0  0  0  0  0  0  0  0  0  0
  -28.3560  -20.4052   24.0789 N   0  0  0  0  0  0  0  0  0  0  0  0
  -30.0833  -17.3970   20.0734 N   0  0  0  0  0  0  0  0  0  0  0  0
  -27.4056  -13.9735   18.8463 N   0  0  0  0  0  0  0  0  0  0  0  0
  -26.0552  -32.9799   23.2660 N   0  0  0  0  0  0  0  0  0  0  0  0
  -21.1329  -28.6787   22.7126 N   0  0  0  0  0  0  0  0  0  0  0  0
  -27.1380  -22.0698   22.9216 N   0  0  0  0  0  0  0  0  0  0  0  0
  -19.2799  -27.5786   19.8102 N   0  3  0  0  0  0  0  0  0  0  0  0
  -32.1581  -26.5948   20.4115 O   0  0  0  0  0  0  0  0  0  0  0  0
  -29.2901  -15.1555   18.2893 O   0  0  0  0  0  0  0  0  0  0  0  0
  -26.4385  -30.6879   23.1159 O   0  0  0  0  0  0  0  0  0  0  0  0
  -22.3437  -31.1833   23.3976 O   0  0  0  0  0  0  0  0  0  0  0  0
  -21.6915  -27.0497   21.1596 O   0  0  0  0  0  0  0  0  0  0  0  0
  -28.5396  -22.6474   24.6417 O   0  0  0  0  0  0  0  0  0  0  0  0
  -22.8627  -12.2137   21.5483 O   0  0  0  0  0  0  0  0  0  0  0  0
  -27.7797  -27.3687   18.1290 O   0  0  0  0  0  0  0  0  0  1  0  0
  -23.8828   -6.8763   20.6125 F   0  0  0  0  0  0  0  0  0  0  0  0
  -28.5757  -25.3592   23.4836 F   0  0  0  0  0  0  0  0  0  0  0  0
  -22.3543  -10.3111   23.4885 F   0  0  0  0  0  0  0  0  0  0  0  0
  1  2  1  0  0  0  0
  1  5  2  0  0  0  0
  2  6  2  0  0  0  0
  3  8  2  0  0  0  0
  3 17  1  0  0  0  0
  4  9  1  0  0  0  0
  4 17  2  0  0  0  0
  5 19  1  0  0  0  0
  6 21  1  0  0  0  0
  7 10  2  0  0  0  0
  7 20  1  0  0  0  0
  8 26  1  0  0  0  0
  9 26  2  0  0  0  0
 10 27  1  0  0  0  0
 11 12  2  0  0  0  0
 11 28  1  0  0  0  0
 12 29  1  0  0  0  0
 13 22  1  0  0  0  0
 13 27  2  0  0  0  0
 14 23  2  0  0  0  0
 14 25  1  0  0  0  0
 15 25  2  0  0  0  0
 15 30  1  0  0  0  0
 16 29  2  0  0  0  0
 16 31  1  0  0  0  0
 17 32  1  0  0  0  0
 18 32  1  0  0  0  0
 18 33  2  0  0  0  0
 18 35  1  0  0  0  0
 19 21  2  0  0  0  0
 19 40  1  0  0  0  0
 20 22  2  0  0  0  0
 20 41  1  0  0  0  0
 21 51  1  0  0  0  0
 22 42  1  0  0  0  0
 23 24  1  0  0  0  0
 23 55  1  0  0  0  0
 24 30  2  0  0  0  0
 24 61  1  0  0  0  0
 25 68  1  0  0  0  0
 26 83  1  0  0  0  0
 27 84  1  0  0  0  0
 28 31  2  0  0  0  0
 28 83  1  0  0  0  0
 29 85  1  0  0  0  0
 30 86  1  0  0  0  0
 31 87  1  0  0  0  0
 32 66  2  0  0  0  0
 33 67  1  0  0  0  0
 33 71  1  0  0  0  0
 34 43  1  0  0  0  0
 34 68  1  0  0  0  0
 34 77  2  0  0  0  0
 35 72  1  0  0  0  0
 35 78  2  0  0  0  0
 36 52  1  0  0  0  0
 36 73  1  0  0  0  0
 36 79  2  0  0  0  0
 37 63  1  0  0  0  0
 37 69  1  0  0  0  0
 37 80  2  0  0  0  0
 38 64  1  0  0  0  0
 38 74  1  0  0  0  0
 38 81  2  0  0  0  0
 39 70  1  0  0  0  0
 39 75  1  0  0  0  0
 39 82  2  0  0  0  0
 40 44  1  0  0  0  0
 41 52  1  0  0  0  0
 42 69  1  0  0  0  0
 43 45  1  0  0  0  0
 44 47  1  0  0  0  0
 45 54  1  0  0  0  0
 46 48  1  0  0  0  0
 46 49  1  0  0  0  0
 47 51  1  0  0  0  0
 48 53  1  0  0  0  0
 49 70  1  0  0  0  0
 50 53  1  0  0  0  0
 50 70  1  0  0  0  0
 51 73  1  0  0  0  0
 52 69  1  0  0  0  0
 53 67  1  0  0  0  0
 54 62  1  0  0  0  0
 54 68  1  0  0  0  0
 56 64  1  0  0  0  0
 57 65  1  0  0  0  0
 58 65  1  0  0  0  0
 59 65  1  0  0  0  0
 60 76  1  0  0  0  0
 61 75  1  0  0  0  0
 62 84  1  0  0  0  0
 63 65  1  0  0  0  0
 63 74  1  0  0  0  0
 64 76  1  0  0  0  0
 66 67  1  0  0  0  0
M  CHG  1  76   1
M  ISO  4  39 100  62 101  75 100  84 101
M  END
> <Batch ID>
0103

> <Smiles>
CNC(C)C(=O)NC(C(=O)N1Cc2cc([101O:1][101CH2:1]C3CCC(=O)N3c3cc(C)c(C[100NH:0][100C:0](=O)N4CCCC(n5nc(-c6ccc(Oc7ccc(F)cc7F)cc6)c(C(N)=O)c5N)C4)c(F)c3)ccc2CC1C(=O)NC1CCCc2ccccc21)C(C)(C)C

> <Shape>
0.276

> <Color>
0.067

> <Negative vol penalty>
0.000

$$$$

  -OEChem-04052301053D

 87 96  0     1  0  0  0  0  0999 V2000
  -32.2023  -15.0020   20.0256 C   0  0  0  0  0  0  0  0  0  0  0  0
  -31.3585  -16.1040   19.9306 C   0  0  0  0  0  0  0  0  0  0  0  0
  -26.8326  -28.7176   20.8864 C   0  0  0  0  0  0  0  0  0  0  0  0
  -25.0025  -27.1425   20.8035 C   0  0  0  0  0  0  0  0  0  0  0  0
  -31.6677  -13.7143   20.0292 C   0  0  0  0  0  0  0  0  0  0  0  0
  -29.9796  -15.9189   19.8380 C   0  0  0  0  0  0  0  0  0  0  0  0
  -25.6162  -19.5129   22.1938 C   0  0  0  0  0  0  0  0  0  0  0  0
  -27.5662  -27.9110   20.0164 C   0  0  0  0  0  0  0  0  0  0  0  0
  -25.7360  -26.3360   19.9335 C   0  0  0  0  0  0  0  0  0  0  0  0
  -24.8244  -20.5156   21.6358 C   0  0  0  0  0  0  0  0  0  0  0  0
  -27.2657  -23.6836   17.9752 C   0  0  0  0  0  0  0  0  0  0  0  0
  -27.2814  -22.3108   18.2216 C   0  0  0  0  0  0  0  0  0  0  0  0
  -23.0572  -18.9130   21.2785 C   0  0  0  0  0  0  0  0  0  0  0  0
  -18.9996  -28.7905   23.0353 C   0  0  0  0  0  0  0  0  0  0  0  0
  -19.9731  -26.6610   23.6305 C   0  0  0  0  0  0  0  0  0  0  0  0
  -28.2661  -22.7115   20.3912 C   0  0  0  0  0  0  0  0  0  0  0  0
  -25.5507  -28.3333   21.2800 C   0  0  0  0  0  0  0  0  0  0  0  0
  -24.3943  -30.4998   21.9705 C   0  0  0  0  0  0  0  0  0  0  0  0
  -30.2808  -13.5137   19.9463 C   0  0  0  0  0  0  0  0  0  0  0  0
  -25.1377  -18.1982   22.2885 C   0  0  0  0  0  0  0  0  0  0  0  0
  -29.4260  -14.6273   19.8391 C   0  0  0  0  0  0  0  0  0  0  0  0
  -23.8439  -17.8959   21.8404 C   0  0  0  0  0  0  0  0  0  0  0  0
  -19.5185  -27.9269   23.9999 C   0  0  0  0  0  0  0  0  0  0  0  0
  -18.9351  -28.3881   21.7012 C   0  0  0  0  0  0  0  0  0  0  0  0
  -19.9087  -26.2586   22.2964 C   0  0  0  0  0  0  0  0  0  0  0  0
  -19.3897  -27.1222   21.3318 C   0  0  0  0  0  0  0  0  0  0  0  0
  -27.0179  -26.7202   19.5399 C   0  0  0  0  0  0  0  0  0  0  0  0
  -23.5458  -20.2152   21.1755 C   0  0  0  0  0  0  0  0  0  0  0  0
  -27.7503  -24.5704   18.9367 C   0  0  0  0  0  0  0  0  0  0  0  0
  -27.7815  -21.8247   19.4296 C   0  0  0  0  0  0  0  0  0  0  0  0
  -28.2505  -24.0843   20.1447 C   0  0  0  0  0  0  0  0  0  0  0  0
  -24.7926  -29.1658   22.1791 C   0  0  0  0  0  0  0  0  0  0  0  0
  -23.7043  -30.8344   23.1099 C   0  0  0  0  0  0  0  0  0  0  0  0
  -24.6272  -31.3597   20.8470 C   0  0  0  0  0  0  0  0  0  0  0  0
  -26.0360  -15.3927   21.0942 C   0  0  0  0  0  0  0  0  0  0  0  0
  -23.6816  -14.2603   23.0169 C   0  0  0  0  0  0  0  0  0  0  0  0
  -20.7738  -14.8624   24.6988 C   0  0  0  0  0  0  0  0  0  0  0  0
  -20.9741  -27.1123   27.1387 C   0  0  0  0  0  0  0  0  0  0  0  0
  -29.7527  -12.1015   19.9062 C   0  0  0  0  0  0  0  0  0  0  0  0
  -25.9942  -17.1335   22.9174 C   0  0  0  0  0  0  0  0  0  0  0  0
  -23.2758  -16.5044   21.9378 C   0  0  0  0  0  0  0  0  0  0  0  0
  -28.2546  -12.0034   20.1820 C   0  0  0  0  0  0  0  0  0  0  0  0
  -23.4267  -29.8120   27.7696 C   0  0  0  0  0  0  0  0  0  0  0  0
  -27.4932  -13.0485   19.3728 C   0  0  0  0  0  0  0  0  0  0  0  0
  -24.0666  -30.0083   26.3963 C   0  0  0  0  0  0  0  0  0  0  0  0
  -20.5247  -22.6590   21.7934 C   0  0  0  0  0  0  0  0  0  0  0  0
  -22.9221  -28.3851   27.9615 C   0  0  0  0  0  0  0  0  0  0  0  0
  -19.5267  -23.8056   21.9406 C   0  0  0  0  0  0  0  0  0  0  0  0
  -21.7416  -24.7072   21.5685 C   0  0  0  0  0  0  0  0  0  0  0  0
  -22.6333  -28.1220   25.5199 C   0  0  0  0  0  0  0  0  0  0  0  0
  -27.9230  -14.4681   19.7619 C   0  0  1  0  0  0  0  0  0  0  0  0
  -25.5998  -15.7220   22.4939 C   0  0  1  0  0  0  0  0  0  0  0  0
  -21.6629  -23.2878   20.9951 C   0  0  1  0  0  0  0  0  0  0  0  0
  -23.1105  -29.5617   25.2767 C   0  0  2  0  0  0  0  0  0  0  0  0
  -18.3731  -29.3347   20.6907 C   0  0  0  0  0  0  0  0  0  0  0  0
  -19.0675  -13.7319   26.1507 C   0  0  0  0  0  0  0  0  0  0  0  0
  -22.5175  -12.8707   20.5626 C   0  0  0  0  0  0  0  0  0  0  0  0
  -20.3788  -12.5756   21.8304 C   0  0  0  0  0  0  0  0  0  0  0  0
  -22.4740  -11.5018   22.6552 C   0  0  0  0  0  0  0  0  0  0  0  0
  -18.6860  -26.3765   26.5885 C   0  0  0  0  0  0  0  0  0  0  0  0
  -21.3092  -16.6985   26.9574 C   0  0  0  0  0  0  0  0  0  0  0  0
  -19.5879  -28.3567   25.4262 C   0  0  0  0  0  0  0  0  0  0  0  0
  -22.9690  -22.5215   21.1089 C   0  0  0  0  0  0  0  0  0  1  0  0
  -22.2018  -14.0071   22.8593 C   0  0  1  0  0  0  0  0  0  0  0  0
  -20.3500  -14.5487   26.1224 C   0  0  2  0  0  0  0  0  0  0  0  0
  -21.9041  -12.7647   21.9731 C   0  0  0  0  0  0  0  0  0  0  0  0
  -24.3894  -28.6857   23.3585 N   0  0  0  0  0  0  0  0  0  0  0  0
  -23.7305  -29.7238   23.9012 N   0  0  0  0  0  0  0  0  0  0  0  0
  -20.3633  -25.0029   21.9539 N   0  0  3  0  0  0  0  0  0  0  0  0
  -24.1542  -15.4967   22.5547 N   0  0  0  0  0  0  0  0  0  0  0  0
  -22.0503  -27.9713   26.8615 N   0  0  0  0  0  0  0  0  0  0  0  0
  -19.3223  -26.7174   19.9778 N   0  0  0  0  0  0  0  0  0  0  0  0
  -23.0838  -31.9673   23.5023 N   0  0  0  0  0  0  0  0  0  0  0  0
  -23.6894  -31.3670   19.8055 N   0  0  0  0  0  0  0  0  0  0  0  0
  -27.3075  -14.8577   21.0124 N   0  0  0  0  0  0  0  0  0  0  0  0
  -21.6560  -13.9224   24.2097 N   0  0  0  0  0  0  0  0  0  0  0  0
  -19.8323  -27.2370   26.3327 N   0  0  0  0  0  0  0  0  0  0  0  0
  -20.1216  -15.8089   26.8844 N   0  3  0  0  0  0  0  0  0  0  0  0
  -25.6453  -32.0875   20.7615 O   0  0  0  0  0  0  0  0  0  0  0  0
  -25.2749  -15.6068   20.1580 O   0  0  0  0  0  0  0  0  0  0  0  0
  -24.3910  -13.3958   23.5377 O   0  0  0  0  0  0  0  0  0  0  0  0
  -20.3605  -15.8413   24.0812 O   0  0  0  0  0  0  0  0  0  0  0  0
  -21.0270  -26.2879   28.0603 O   0  0  0  0  0  0  0  0  0  0  0  0
  -27.7334  -25.9331   18.6908 O   0  0  0  0  0  0  0  0  0  0  0  0
  -22.7711  -21.1919   20.6298 O   0  0  0  0  0  0  0  0  0  1  0  0
  -27.7951  -20.5065   19.6668 F   0  0  0  0  0  0  0  0  0  0  0  0
  -28.7163  -24.9314   21.0727 F   0  0  0  0  0  0  0  0  0  0  0  0
  1  2  1  0  0  0  0
  1  5  2  0  0  0  0
  2  6  2  0  0  0  0
  3  8  2  0  0  0  0
  3 17  1  0  0  0  0
  4  9  1  0  0  0  0
  4 17  2  0  0  0  0
  5 19  1  0  0  0  0
  6 21  1  0  0  0  0
  7 10  2  0  0  0  0
  7 20  1  0  0  0  0
  8 27  1  0  0  0  0
  9 27  2  0  0  0  0
 10 28  1  0  0  0  0
 11 12  2  0  0  0  0
 11 29  1  0  0  0  0
 12 30  1  0  0  0  0
 13 22  1  0  0  0  0
 13 28  2  0  0  0  0
 14 23  1  0  0  0  0
 14 24  2  0  0  0  0
 15 23  2  0  0  0  0
 15 25  1  0  0  0  0
 16 30  2  0  0  0  0
 16 31  1  0  0  0  0
 17 32  1  0  0  0  0
 18 32  1  0  0  0  0
 18 33  2  0  0  0  0
 18 34  1  0  0  0  0
 19 21  2  0  0  0  0
 19 39  1  0  0  0  0
 20 22  2  0  0  0  0
 20 40  1  0  0  0  0
 21 51  1  0  0  0  0
 22 41  1  0  0  0  0
 23 62  1  0  0  0  0
 24 26  1  0  0  0  0
 24 55  1  0  0  0  0
 25 26  2  0  0  0  0
 25 69  1  0  0  0  0
 26 72  1  0  0  0  0
 27 84  1  0  0  0  0
 28 85  1  0  0  0  0
 29 31  2  0  0  0  0
 29 84  1  0  0  0  0
 30 86  1  0  0  0  0
 31 87  1  0  0  0  0
 32 67  2  0  0  0  0
 33 68  1  0  0  0  0
 33 73  1  0  0  0  0
 34 74  1  0  0  0  0
 34 79  2  0  0  0  0
 35 52  1  0  0  0  0
 35 75  1  0  0  0  0
 35 80  2  0  0  0  0
 36 64  1  0  0  0  0
 36 70  1  0  0  0  0
 36 81  2  0  0  0  0
 37 65  1  0  0  0  0
 37 76  1  0  0  0  0
 37 82  2  0  0  0  0
 38 71  1  0  0  0  0
 38 77  1  0  0  0  0
 38 83  2  0  0  0  0
 39 42  1  0  0  0  0
 40 52  1  0  0  0  0
 41 70  1  0  0  0  0
 42 44  1  0  0  0  0
 43 45  1  0  0  0  0
 43 47  1  0  0  0  0
 44 51  1  0  0  0  0
 45 54  1  0  0  0  0
 46 48  1  0  0  0  0
 46 53  1  0  0  0  0
 47 71  1  0  0  0  0
 48 69  1  0  0  0  0
 49 53  1  0  0  0  0
 49 69  1  0  0  0  0
 50 54  1  0  0  0  0
 50 71  1  0  0  0  0
 51 75  1  0  0  0  0
 52 70  1  0  0  0  0
 53 63  1  0  0  0  0
 54 68  1  0  0  0  0
 56 65  1  0  0  0  0
 57 66  1  0  0  0  0
 58 66  1  0  0  0  0
 59 66  1  0  0  0  0
 60 77  1  0  0  0  0
 61 78  1  0  0  0  0
 62 77  1  0  0  0  0
 63 85  1  0  0  0  0
 64 66  1  0  0  0  0
 64 76  1  0  0  0  0
 65 78  1  0  0  0  0
 67 68  1  0  0  0  0
M  CHG  1  78   1
M  ISO  4  38 100  63 101  77 100  85 101
M  END
> <Batch ID>
0103

> <Smiles>
CNC(C)C(=O)NC(C(=O)N1Cc2cc([101O:1][101CH2:1]C3CCN(c4cc(C[100N:0](C)[100C:0](=O)N5CCCC(n6nc(-c7ccc(Oc8ccc(F)cc8F)cc7)c(C(N)=O)c6N)C5)cc(C)c4N)C3)ccc2CC1C(=O)NC1CCCc2ccccc21)C(C)(C)C

> <Shape>
0.212

> <Color>
0.080

> <Negative vol penalty>
0.000

$$$$

  -OEChem-04052301053D

 87 96  0     1  0  0  0  0  0999 V2000
  -29.3911  -31.5212   26.6102 C   0  0  0  0  0  0  0  0  0  0  0  0
  -29.1696  -30.4949   25.6975 C   0  0  0  0  0  0  0  0  0  0  0  0
  -23.2449   -9.6917   19.8795 C   0  0  0  0  0  0  0  0  0  0  0  0
  -24.3503   -9.3069   21.9931 C   0  0  0  0  0  0  0  0  0  0  0  0
  -28.3116  -32.2283   27.1379 C   0  0  0  0  0  0  0  0  0  0  0  0
  -27.8681  -30.1744   25.3128 C   0  0  0  0  0  0  0  0  0  0  0  0
  -27.4312  -29.4965   20.3133 C   0  0  0  0  0  0  0  0  0  0  0  0
  -30.8065  -19.0178   20.8503 C   0  0  0  0  0  0  0  0  0  0  0  0
  -30.3723  -20.1884   20.2284 C   0  0  0  0  0  0  0  0  0  0  0  0
  -22.6690   -8.4232   19.9497 C   0  0  0  0  0  0  0  0  0  0  0  0
  -23.7743   -8.0385   22.0634 C   0  0  0  0  0  0  0  0  0  0  0  0
  -27.8762  -28.2815   19.7942 C   0  0  0  0  0  0  0  0  0  0  0  0
  -20.7770   -6.7074   22.8790 C   0  0  0  0  0  0  0  0  0  0  0  0
  -20.2208   -6.3165   24.0970 C   0  0  0  0  0  0  0  0  0  0  0  0
  -25.6007  -27.4833   19.7281 C   0  0  0  0  0  0  0  0  0  0  0  0
  -28.2572  -20.0174   21.3835 C   0  0  0  0  0  0  0  0  0  0  0  0
  -21.7504   -4.4490   24.1961 C   0  0  0  0  0  0  0  0  0  0  0  0
  -24.0856  -10.1335   20.9011 C   0  0  0  0  0  0  0  0  0  0  0  0
  -24.1492  -12.6480   21.3266 C   0  0  0  0  0  0  0  0  0  0  0  0
  -26.9969  -31.9226   26.7522 C   0  0  0  0  0  0  0  0  0  0  0  0
  -26.0665  -29.7104   20.5544 C   0  0  0  0  0  0  0  0  0  0  0  0
  -26.7699  -30.8771   25.8369 C   0  0  0  0  0  0  0  0  0  0  0  0
  -25.1407  -28.7028   20.2479 C   0  0  0  0  0  0  0  0  0  0  0  0
  -29.9661  -18.3469   21.7387 C   0  0  0  0  0  0  0  0  0  0  0  0
  -29.0977  -20.6882   20.4950 C   0  0  0  0  0  0  0  0  0  0  0  0
  -22.9336   -7.5966   21.0417 C   0  0  0  0  0  0  0  0  0  0  0  0
  -26.9612  -27.2736   19.5043 C   0  0  0  0  0  0  0  0  0  0  0  0
  -21.8199   -5.9691   22.3196 C   0  0  0  0  0  0  0  0  0  0  0  0
  -28.6914  -18.8468   22.0054 C   0  0  0  0  0  0  0  0  0  0  0  0
  -20.7075   -5.1873   24.7555 C   0  0  0  0  0  0  0  0  0  0  0  0
  -22.3066   -4.8399   22.9781 C   0  0  0  0  0  0  0  0  0  0  0  0
  -24.6814  -11.4434   20.8288 C   0  0  0  0  0  0  0  0  0  0  0  0
  -25.0901  -13.5965   21.0082 C   0  0  0  0  0  0  0  0  0  0  0  0
  -27.5014  -23.7234   19.3176 C   0  0  0  0  0  0  0  0  0  0  0  0
  -27.7688  -22.8485   20.3068 C   0  0  0  0  0  0  0  0  0  0  0  0
  -22.9148  -12.8879   22.0153 C   0  0  0  0  0  0  0  0  0  0  0  0
  -24.3126  -30.3179   23.1348 C   0  0  0  0  0  0  0  0  0  0  0  0
  -21.9319  -30.6592   20.9580 C   0  0  0  0  0  0  0  0  0  0  0  0
  -20.7121  -29.9172   17.8583 C   0  0  0  0  0  0  0  0  0  0  0  0
  -30.4053  -15.2719   20.7129 C   0  0  0  0  0  0  0  0  0  0  0  0
  -25.8590  -32.6833   27.3857 C   0  0  0  0  0  0  0  0  0  0  0  0
  -25.5998  -31.0364   21.0896 C   0  0  0  0  0  0  0  0  0  0  0  0
  -23.6627  -28.8898   20.4693 C   0  0  0  0  0  0  0  0  0  0  0  0
  -28.2431  -23.3447   18.0631 C   0  0  0  0  0  0  0  0  0  0  0  0
  -24.5349  -32.5299   26.6418 C   0  0  0  0  0  0  0  0  0  0  0  0
  -29.1529  -13.3261   18.0070 C   0  0  0  0  0  0  0  0  0  0  0  0
  -24.2809  -31.0651   26.3007 C   0  0  0  0  0  0  0  0  0  0  0  0
  -27.8379  -12.7576   18.5431 C   0  0  0  0  0  0  0  0  0  0  0  0
  -29.1259  -22.1662   18.5058 C   0  0  0  0  0  0  0  0  0  0  0  0
  -30.2200  -13.4039   19.0965 C   0  0  0  0  0  0  0  0  0  0  0  0
  -28.4954  -13.5602   20.8501 C   0  0  0  0  0  0  0  0  0  0  0  0
  -25.3743  -30.5162   25.3762 C   0  0  1  0  0  0  0  0  0  0  0  0
  -24.2403  -30.9581   21.7774 C   0  0  1  0  0  0  0  0  0  0  0  0
  -27.3713  -13.5146   19.8011 C   0  0  2  0  0  0  0  0  0  0  0  0
  -27.2870  -22.9644   21.7153 C   0  0  0  0  0  0  0  0  0  0  0  0
  -18.7242  -30.3094   16.3779 C   0  0  0  0  0  0  0  0  0  0  0  0
  -20.3256  -28.6375   22.5836 C   0  0  0  0  0  0  0  0  0  0  0  0
  -18.8111  -28.3583   20.6096 C   0  0  0  0  0  0  0  0  0  0  0  0
  -19.0001  -30.5789   21.7302 C   0  0  0  0  0  0  0  0  0  0  0  0
  -22.3612  -31.2688   15.8058 C   0  0  0  0  0  0  0  0  0  0  0  0
  -26.5732  -18.7841   23.0847 C   0  0  0  0  0  0  0  0  0  0  0  0
  -30.4480  -17.0958   22.3954 C   0  0  0  0  0  0  0  0  0  0  0  0
  -26.6257  -24.9265   19.3179 C   0  0  0  0  0  0  0  0  0  1  0  0
  -20.9228  -29.7330   20.3232 C   0  0  1  0  0  0  0  0  0  0  0  0
  -20.1091  -30.7950   16.7765 C   0  0  2  0  0  0  0  0  0  0  0  0
  -19.7929  -29.3224   21.3092 C   0  0  0  0  0  0  0  0  0  0  0  0
  -25.8682  -11.6089   20.2389 N   0  0  0  0  0  0  0  0  0  0  0  0
  -26.0896  -12.9286   20.3638 N   0  0  0  0  0  0  0  0  0  0  0  0
  -28.6599  -21.8681   19.8675 N   0  0  0  0  0  0  0  0  0  0  0  0
  -23.2565  -30.2015   21.0002 N   0  0  0  0  0  0  0  0  0  0  0  0
  -29.7147  -14.1354   20.2608 N   0  0  0  0  0  0  0  0  0  0  0  0
  -25.1518  -14.9285   21.2192 N   0  0  0  0  0  0  0  0  0  0  0  0
  -22.0647  -11.8011   22.2612 N   0  0  0  0  0  0  0  0  0  0  0  0
  -25.1582  -30.9632   24.0168 N   0  0  0  0  0  0  0  0  0  0  0  0
  -20.4495  -30.4082   19.1197 N   0  0  0  0  0  0  0  0  0  0  0  0
  -29.8554  -15.9100   21.8179 N   0  0  0  0  0  0  0  0  0  0  0  0
  -20.9754  -30.7914   15.5638 N   0  3  0  0  0  0  0  0  0  0  0  0
  -22.5682  -14.0348   22.3867 O   0  0  0  0  0  0  0  0  0  0  0  0
  -23.6490  -29.3138   23.3653 O   0  0  0  0  0  0  0  0  0  0  0  0
  -21.5598  -31.7516   21.3937 O   0  0  0  0  0  0  0  0  0  0  0  0
  -21.3490  -28.8960   17.6093 O   0  0  0  0  0  0  0  0  0  0  0  0
  -31.4327  -15.6904   20.1685 O   0  0  0  0  0  0  0  0  0  0  0  0
  -22.3716   -6.3589   21.1107 O   0  0  0  0  0  0  0  0  0  0  0  0
  -27.8581  -18.2036   22.8705 O   0  0  0  0  0  0  0  0  0  0  0  0
  -27.3930  -26.0864   18.9981 O   0  0  0  0  0  0  0  0  0  1  0  0
  -20.1743   -4.8129   25.9259 F   0  0  0  0  0  0  0  0  0  0  0  0
  -23.3091   -4.1273   22.4462 F   0  0  0  0  0  0  0  0  0  0  0  0
  1  2  1  0  0  0  0
  1  5  2  0  0  0  0
  2  6  2  0  0  0  0
  3 10  2  0  0  0  0
  3 18  1  0  0  0  0
  4 11  1  0  0  0  0
  4 18  2  0  0  0  0
  5 20  1  0  0  0  0
  6 22  1  0  0  0  0
  7 12  2  0  0  0  0
  7 21  1  0  0  0  0
  8  9  2  0  0  0  0
  8 24  1  0  0  0  0
  9 25  1  0  0  0  0
 10 26  1  0  0  0  0
 11 26  2  0  0  0  0
 12 27  1  0  0  0  0
 13 14  2  0  0  0  0
 13 28  1  0  0  0  0
 14 30  1  0  0  0  0
 15 23  1  0  0  0  0
 15 27  2  0  0  0  0
 16 25  2  0  0  0  0
 16 29  1  0  0  0  0
 17 30  2  0  0  0  0
 17 31  1  0  0  0  0
 18 32  1  0  0  0  0
 19 32  1  0  0  0  0
 19 33  2  0  0  0  0
 19 36  1  0  0  0  0
 20 22  2  0  0  0  0
 20 41  1  0  0  0  0
 21 23  2  0  0  0  0
 21 42  1  0  0  0  0
 22 52  1  0  0  0  0
 23 43  1  0  0  0  0
 24 29  2  0  0  0  0
 24 62  1  0  0  0  0
 25 69  1  0  0  0  0
 26 83  1  0  0  0  0
 27 85  1  0  0  0  0
 28 31  2  0  0  0  0
 28 83  1  0  0  0  0
 29 84  1  0  0  0  0
 30 86  1  0  0  0  0
 31 87  1  0  0  0  0
 32 67  2  0  0  0  0
 33 68  1  0  0  0  0
 33 72  1  0  0  0  0
 34 35  2  0  0  0  0
 34 44  1  0  0  0  0
 34 63  1  0  0  0  0
 35 55  1  0  0  0  0
 35 69  1  0  0  0  0
 36 73  1  0  0  0  0
 36 78  2  0  0  0  0
 37 53  1  0  0  0  0
 37 74  1  0  0  0  0
 37 79  2  0  0  0  0
 38 64  1  0  0  0  0
 38 70  1  0  0  0  0
 38 80  2  0  0  0  0
 39 65  1  0  0  0  0
 39 75  1  0  0  0  0
 39 81  2  0  0  0  0
 40 71  1  0  0  0  0
 40 76  1  0  0  0  0
 40 82  2  0  0  0  0
 41 45  1  0  0  0  0
 42 53  1  0  0  0  0
 43 70  1  0  0  0  0
 44 49  1  0  0  0  0
 45 47  1  0  0  0  0
 46 48  1  0  0  0  0
 46 50  1  0  0  0  0
 47 52  1  0  0  0  0
 48 54  1  0  0  0  0
 49 69  1  0  0  0  0
 50 71  1  0  0  0  0
 51 54  1  0  0  0  0
 51 71  1  0  0  0  0
 52 74  1  0  0  0  0
 53 70  1  0  0  0  0
 54 68  1  0  0  0  0
 56 65  1  0  0  0  0
 57 66  1  0  0  0  0
 58 66  1  0  0  0  0
 59 66  1  0  0  0  0
 60 77  1  0  0  0  0
 61 84  1  0  0  0  0
 62 76  1  0  0  0  0
 63 85  1  0  0  0  0
 64 66  1  0  0  0  0
 64 75  1  0  0  0  0
 65 77  1  0  0  0  0
 67 68  1  0  0  0  0
M  CHG  1  77   1
M  ISO  4  40 100  63 101  76 100  85 101
M  END
> <Batch ID>
0103

> <Smiles>
CNC(C)C(=O)NC(C(=O)N1Cc2cc([101O:1][101CH2:1]C3=C(C)N(c4ccc(C[100NH:0][100C:0](=O)N5CCCC(n6nc(-c7ccc(Oc8ccc(F)cc8F)cc7)c(C(N)=O)c6N)C5)c(OC)c4)CC3)ccc2CC1C(=O)NC1CCCc2ccccc21)C(C)(C)C

> <Shape>
0.389

> <Color>
0.177

> <Negative vol penalty>
0.000

$$$$

  -OEChem-04052301053D

 86 94  0     1  0  0  0  0  0999 V2000
  -17.9691  -25.6390   22.8904 C   0  0  0  0  0  0  0  0  0  0  0  0
  -19.1075  -25.5235   22.0993 C   0  0  0  0  0  0  0  0  0  0  0  0
  -31.7722  -20.3887   19.5254 C   0  0  0  0  0  0  0  0  0  0  0  0
  -33.2753  -21.2298   17.8312 C   0  0  0  0  0  0  0  0  0  0  0  0
  -17.4979  -26.9004   23.2521 C   0  0  0  0  0  0  0  0  0  0  0  0
  -19.7749  -26.6695   21.6683 C   0  0  0  0  0  0  0  0  0  0  0  0
  -25.8114  -27.3373   20.8805 C   0  0  0  0  0  0  0  0  0  0  0  0
  -32.8093  -19.6308   20.0693 C   0  0  0  0  0  0  0  0  0  0  0  0
  -34.3124  -20.4720   18.3751 C   0  0  0  0  0  0  0  0  0  0  0  0
  -26.6221  -27.2753   19.7479 C   0  0  0  0  0  0  0  0  0  0  0  0
  -35.4900  -20.1462   22.0646 C   0  0  0  0  0  0  0  0  0  0  0  0
  -35.6441  -20.1588   23.4508 C   0  0  0  0  0  0  0  0  0  0  0  0
  -26.5138  -29.6767   19.5462 C   0  0  0  0  0  0  0  0  0  0  0  0
  -28.9731  -27.6880   13.2581 C   0  0  0  0  0  0  0  0  0  0  0  0
  -35.3057  -17.7674   23.5101 C   0  0  0  0  0  0  0  0  0  0  0  0
  -32.0052  -21.1882   18.4064 C   0  0  0  0  0  0  0  0  0  0  0  0
  -30.5771  -23.2900   18.1816 C   0  0  0  0  0  0  0  0  0  0  0  0
  -18.1654  -28.0622   22.8334 C   0  0  0  0  0  0  0  0  0  0  0  0
  -25.3361  -28.5707   21.3489 C   0  0  0  0  0  0  0  0  0  0  0  0
  -19.3115  -27.9477   22.0236 C   0  0  0  0  0  0  0  0  0  0  0  0
  -25.6994  -29.7519   20.6865 C   0  0  0  0  0  0  0  0  0  0  0  0
  -34.0794  -19.6725   19.4941 C   0  0  0  0  0  0  0  0  0  0  0  0
  -26.9710  -28.4448   19.0789 C   0  0  0  0  0  0  0  0  0  0  0  0
  -35.2436  -18.9442   21.4011 C   0  0  0  0  0  0  0  0  0  0  0  0
  -29.7259  -27.8298   14.4595 C   0  0  0  0  0  0  0  0  0  0  0  0
  -35.5520  -18.9694   24.1736 C   0  0  0  0  0  0  0  0  0  0  0  0
  -35.1515  -17.7548   22.1239 C   0  0  0  0  0  0  0  0  0  0  0  0
  -30.9342  -21.9708   17.8438 C   0  0  0  0  0  0  0  0  0  0  0  0
  -29.7108  -27.1058   12.2509 C   0  0  0  0  0  0  0  0  0  0  0  0
  -31.0103  -27.3502   14.3248 C   0  0  0  0  0  0  0  0  0  0  0  0
  -29.5056  -23.5740   17.3707 C   0  0  0  0  0  0  0  0  0  0  0  0
  -31.1618  -24.1792   19.1424 C   0  0  0  0  0  0  0  0  0  0  0  0
  -29.3157  -26.7998   10.9144 C   0  0  0  0  0  0  0  0  0  0  0  0
  -22.4588  -29.8629   21.7420 C   0  0  0  0  0  0  0  0  0  0  0  0
  -27.1121  -23.4306   12.3170 C   0  0  0  0  0  0  0  0  0  0  0  0
  -24.1525  -32.2579   23.1269 C   0  0  0  0  0  0  0  0  0  0  0  0
  -27.0288  -25.8216   11.4899 C   0  0  0  0  0  0  0  0  0  0  0  0
  -27.1263  -33.9049   23.4277 C   0  0  0  0  0  0  0  0  0  0  0  0
  -17.5913  -29.4050   23.2103 C   0  0  0  0  0  0  0  0  0  0  0  0
  -24.4845  -28.6230   22.5876 C   0  0  0  0  0  0  0  0  0  0  0  0
  -25.2320  -31.1029   21.1607 C   0  0  0  0  0  0  0  0  0  0  0  0
  -18.5713  -30.5605   23.0238 C   0  0  0  0  0  0  0  0  0  0  0  0
  -26.6994  -20.5706   14.4358 C   0  0  0  0  0  0  0  0  0  0  0  0
  -19.2621  -30.4609   21.6674 C   0  0  0  0  0  0  0  0  0  0  0  0
  -27.7553  -20.7730   15.5218 C   0  0  0  0  0  0  0  0  0  0  0  0
  -27.1853  -21.0806   13.0827 C   0  0  0  0  0  0  0  0  0  0  0  0
  -28.6870  -22.7117   14.1808 C   0  0  0  0  0  0  0  0  0  0  0  0
  -20.0772  -29.1667   21.5570 C   0  0  1  0  0  0  0  0  0  0  0  0
  -23.6355  -29.8874   22.6760 C   0  0  1  0  0  0  0  0  0  0  0  0
  -28.2247  -22.2379   15.5701 C   0  0  2  0  0  0  0  0  0  0  0  0
  -32.0971  -27.3124   15.3289 C   0  0  0  0  0  0  0  0  0  0  0  0
  -28.1925  -35.8461   24.6077 C   0  0  0  0  0  0  0  0  0  0  0  0
  -22.7473  -34.1839   21.2228 C   0  0  0  0  0  0  0  0  0  0  0  0
  -24.4949  -35.8908   21.7709 C   0  0  0  0  0  0  0  0  0  0  0  0
  -22.9929  -35.0258   23.5649 C   0  0  0  0  0  0  0  0  0  0  0  0
  -27.3922  -26.8852    9.3289 C   0  0  0  0  0  0  0  0  0  0  0  0
  -29.0854  -32.1520   24.7874 C   0  0  0  0  0  0  0  0  0  0  0  0
  -27.6303  -24.8379   12.4750 C   0  0  0  0  0  0  0  0  0  0  0  0
  -27.5717  -29.3992   16.9851 C   0  0  0  0  0  0  0  0  0  1  0  0
  -27.9066  -28.8287   15.6205 C   0  0  0  0  0  0  0  0  0  0  0  0
  -24.8055  -33.5276   22.6366 C   0  0  1  0  0  0  0  0  0  0  0  0
  -27.9112  -34.3521   24.6478 C   0  0  2  0  0  0  0  0  0  0  0  0
  -23.7675  -34.6316   22.2885 C   0  0  0  0  0  0  0  0  0  0  0  0
  -30.1528  -21.4526   16.8925 N   0  0  0  0  0  0  0  0  0  0  0  0
  -29.2940  -22.4513   16.6257 N   0  0  0  0  0  0  0  0  0  0  0  0
  -24.3962  -31.1013   22.3727 N   0  0  0  0  0  0  0  0  0  0  0  0
  -27.6434  -22.4680   13.1754 N   0  0  0  0  0  0  0  0  0  0  0  0
  -28.7330  -24.6720   17.2294 N   0  0  0  0  0  0  0  0  0  0  0  0
  -32.2572  -23.7274   19.8910 N   0  0  0  0  0  0  0  0  0  0  0  0
  -21.3231  -29.2908   22.2828 N   0  0  0  0  0  0  0  0  0  0  0  0
  -25.7677  -33.9143   23.6628 N   0  0  0  0  0  0  0  0  0  0  0  0
  -27.9404  -26.4816   10.6276 N   0  0  0  0  0  0  0  0  0  0  0  0
  -29.2132  -33.6305   24.7192 N   0  3  0  0  0  0  0  0  0  0  0  0
  -30.7155  -25.3342   19.3432 O   0  0  0  0  0  0  0  0  0  0  0  0
  -30.1822  -26.8594   10.0107 O   0  0  0  0  0  0  0  0  0  0  0  0
  -22.5723  -30.3300   20.6148 O   0  0  0  0  0  0  0  0  0  0  0  0
  -26.2583  -23.1965   11.4576 O   0  0  0  0  0  0  0  0  0  0  0  0
  -23.4578  -32.2895   24.1458 O   0  0  0  0  0  0  0  0  0  0  0  0
  -25.8106  -26.0194   11.4769 O   0  0  0  0  0  0  0  0  0  0  0  0
  -27.6645  -33.5832   22.3707 O   0  0  0  0  0  0  0  0  0  0  0  0
  -35.0916  -18.9333   20.0247 O   0  0  0  0  0  0  0  0  0  0  0  0
  -27.7616  -28.3870   17.9728 O   0  0  0  0  0  0  0  0  0  1  0  0
  -29.2544  -28.3741   15.6250 O   0  0  0  0  0  0  0  0  0  0  0  0
  -35.7016  -18.9814   25.5046 F   0  0  0  0  0  0  0  0  0  0  0  0
  -34.9162  -16.5968   21.4919 F   0  0  0  0  0  0  0  0  0  0  0  0
  -31.3042  -26.7326   12.7550 S   0  0  0  0  0  0  0  0  0  0  0  0
  1  2  1  0  0  0  0
  1  5  2  0  0  0  0
  2  6  2  0  0  0  0
  3  8  2  0  0  0  0
  3 16  1  0  0  0  0
  4  9  1  0  0  0  0
  4 16  2  0  0  0  0
  5 18  1  0  0  0  0
  6 20  1  0  0  0  0
  7 10  2  0  0  0  0
  7 19  1  0  0  0  0
  8 22  1  0  0  0  0
  9 22  2  0  0  0  0
 10 23  1  0  0  0  0
 11 12  2  0  0  0  0
 11 24  1  0  0  0  0
 12 26  1  0  0  0  0
 13 21  1  0  0  0  0
 13 23  2  0  0  0  0
 14 25  1  0  0  0  0
 14 29  2  0  0  0  0
 15 26  2  0  0  0  0
 15 27  1  0  0  0  0
 16 28  1  0  0  0  0
 17 28  1  0  0  0  0
 17 31  2  0  0  0  0
 17 32  1  0  0  0  0
 18 20  2  0  0  0  0
 18 39  1  0  0  0  0
 19 21  2  0  0  0  0
 19 40  1  0  0  0  0
 20 48  1  0  0  0  0
 21 41  1  0  0  0  0
 22 81  1  0  0  0  0
 23 82  1  0  0  0  0
 24 27  2  0  0  0  0
 24 81  1  0  0  0  0
 25 30  2  0  0  0  0
 25 83  1  0  0  0  0
 26 84  1  0  0  0  0
 27 85  1  0  0  0  0
 28 64  2  0  0  0  0
 29 33  1  0  0  0  0
 29 86  1  0  0  0  0
 30 51  1  0  0  0  0
 30 86  1  0  0  0  0
 31 65  1  0  0  0  0
 31 68  1  0  0  0  0
 32 69  1  0  0  0  0
 32 74  2  0  0  0  0
 33 72  1  0  0  0  0
 33 75  2  0  0  0  0
 34 49  1  0  0  0  0
 34 70  1  0  0  0  0
 34 76  2  0  0  0  0
 35 58  1  0  0  0  0
 35 67  1  0  0  0  0
 35 77  2  0  0  0  0
 36 61  1  0  0  0  0
 36 66  1  0  0  0  0
 36 78  2  0  0  0  0
 37 58  1  0  0  0  0
 37 72  1  0  0  0  0
 37 79  2  0  0  0  0
 38 62  1  0  0  0  0
 38 71  1  0  0  0  0
 38 80  2  0  0  0  0
 39 42  1  0  0  0  0
 40 49  1  0  0  0  0
 41 66  1  0  0  0  0
 42 44  1  0  0  0  0
 43 45  1  0  0  0  0
 43 46  1  0  0  0  0
 44 48  1  0  0  0  0
 45 50  1  0  0  0  0
 46 67  1  0  0  0  0
 47 50  1  0  0  0  0
 47 67  1  0  0  0  0
 48 70  1  0  0  0  0
 49 66  1  0  0  0  0
 50 65  1  0  0  0  0
 52 62  1  0  0  0  0
 53 63  1  0  0  0  0
 54 63  1  0  0  0  0
 55 63  1  0  0  0  0
 56 72  1  0  0  0  0
 57 73  1  0  0  0  0
 59 60  1  0  0  0  0
 59 82  1  0  0  0  0
 60 83  1  0  0  0  0
 61 63  1  0  0  0  0
 61 71  1  0  0  0  0
 62 73  1  0  0  0  0
 64 65  1  0  0  0  0
M  CHG  1  73   1
M  ISO  4  35 100  58 100  59 101  82 101
M  END
> <Batch ID>
0103

> <Smiles>
CNC(C)C(=O)NC(C(=O)N1Cc2cc([101O:1][101CH2:1]COc3cc(C(=O)N(C)C(=O)[100CH2:0][100C:0](=O)N4CCCC(n5nc(-c6ccc(Oc7ccc(F)cc7F)cc6)c(C(N)=O)c5N)C4)sc3C)ccc2CC1C(=O)NC1CCCc2ccccc21)C(C)(C)C

> <Shape>
0.175

> <Color>
0.105

> <Negative vol penalty>
0.000

$$$$

  -OEChem-04052301053D

 75 82  0     1  0  0  0  0  0999 V2000
  -32.6757  -26.9307   24.1935 C   0  0  0  0  0  0  0  0  0  0  0  0
  -33.2702  -25.6961   23.9527 C   0  0  0  0  0  0  0  0  0  0  0  0
  -23.1714   -9.8811   19.9137 C   0  0  0  0  0  0  0  0  0  0  0  0
  -23.5557  -10.0089   22.2955 C   0  0  0  0  0  0  0  0  0  0  0  0
  -31.2939  -27.0727   24.0744 C   0  0  0  0  0  0  0  0  0  0  0  0
  -32.4830  -24.6026   23.5938 C   0  0  0  0  0  0  0  0  0  0  0  0
  -34.0021  -20.0717   19.7637 C   0  0  0  0  0  0  0  0  0  0  0  0
  -22.3855   -8.7442   20.1014 C   0  0  0  0  0  0  0  0  0  0  0  0
  -22.7697   -8.8720   22.4833 C   0  0  0  0  0  0  0  0  0  0  0  0
  -34.4800  -18.7802   19.9813 C   0  0  0  0  0  0  0  0  0  0  0  0
  -21.1601   -5.7946   23.5550 C   0  0  0  0  0  0  0  0  0  0  0  0
  -21.6407   -4.8094   24.4175 C   0  0  0  0  0  0  0  0  0  0  0  0
  -32.2307  -17.9255   19.8106 C   0  0  0  0  0  0  0  0  0  0  0  0
  -23.5927   -4.5381   23.0199 C   0  0  0  0  0  0  0  0  0  0  0  0
  -23.7566  -10.5135   21.0107 C   0  0  0  0  0  0  0  0  0  0  0  0
  -24.1389  -13.0281   20.8149 C   0  0  0  0  0  0  0  0  0  0  0  0
  -30.4903  -25.9827   23.7044 C   0  0  0  0  0  0  0  0  0  0  0  0
  -32.6312  -20.3016   19.5785 C   0  0  0  0  0  0  0  0  0  0  0  0
  -31.0889  -24.7299   23.4710 C   0  0  0  0  0  0  0  0  0  0  0  0
  -31.7382  -19.2206   19.5883 C   0  0  0  0  0  0  0  0  0  0  0  0
  -22.1846   -8.2396   21.3862 C   0  0  0  0  0  0  0  0  0  0  0  0
  -33.5940  -17.7072   20.0076 C   0  0  0  0  0  0  0  0  0  0  0  0
  -21.8957   -6.1515   22.4248 C   0  0  0  0  0  0  0  0  0  0  0  0
  -22.8571   -4.1812   24.1500 C   0  0  0  0  0  0  0  0  0  0  0  0
  -23.1120   -5.5233   22.1573 C   0  0  0  0  0  0  0  0  0  0  0  0
  -24.5690  -11.6876   20.8173 C   0  0  0  0  0  0  0  0  0  0  0  0
  -25.2825  -13.7553   20.5922 C   0  0  0  0  0  0  0  0  0  0  0  0
  -22.8231  -13.5676   20.9979 C   0  0  0  0  0  0  0  0  0  0  0  0
  -30.4033  -21.9519   21.1331 C   0  0  0  0  0  0  0  0  0  0  0  0
  -28.5643  -21.1105   18.5969 C   0  0  0  0  0  0  0  0  0  0  0  0
  -27.9950  -18.9426   16.0234 C   0  0  0  0  0  0  0  0  0  0  0  0
  -30.8946  -12.8120   21.6977 C   0  0  0  0  0  0  0  0  0  0  0  0
  -28.9959  -26.1732   23.6345 C   0  0  0  0  0  0  0  0  0  0  0  0
  -32.1347  -21.6974   19.3183 C   0  0  0  0  0  0  0  0  0  0  0  0
  -30.2595  -19.4115   19.3746 C   0  0  0  0  0  0  0  0  0  0  0  0
  -28.2739  -25.0566   22.8848 C   0  0  0  0  0  0  0  0  0  0  0  0
  -29.5634  -13.4701   18.4935 C   0  0  0  0  0  0  0  0  0  0  0  0
  -28.7751  -23.6921   23.3473 C   0  0  0  0  0  0  0  0  0  0  0  0
  -28.0758  -13.2078   18.7242 C   0  0  0  0  0  0  0  0  0  0  0  0
  -30.4457  -12.4569   19.2251 C   0  0  0  0  0  0  0  0  0  0  0  0
  -28.6659  -12.0818   20.9026 C   0  0  0  0  0  0  0  0  0  0  0  0
  -30.2714  -23.5261   23.0554 C   0  0  1  0  0  0  0  0  0  0  0  0
  -30.6576  -21.8785   19.6540 C   0  0  1  0  0  0  0  0  0  0  0  0
  -27.7589  -13.1219   20.2273 C   0  0  2  0  0  0  0  0  0  0  0  0
  -26.3932  -18.4922   14.1448 C   0  0  0  0  0  0  0  0  0  0  0  0
  -26.5394  -20.0021   20.5923 C   0  0  0  0  0  0  0  0  0  0  0  0
  -25.4680  -18.7534   18.7052 C   0  0  0  0  0  0  0  0  0  0  0  0
  -25.5353  -21.2467   18.6695 C   0  0  0  0  0  0  0  0  0  0  0  0
  -32.9464  -11.7573   20.6572 C   0  0  0  0  0  0  0  0  0  0  0  0
  -30.1157  -19.2623   13.9840 C   0  0  0  0  0  0  0  0  0  0  0  0
  -34.0098  -14.5134   21.6426 C   0  0  0  0  0  0  0  0  0  0  0  0
  -33.1585  -13.4978   22.3926 C   0  0  0  0  0  0  0  0  0  0  0  0
  -33.1773  -15.5314   20.8726 C   0  0  0  0  0  0  0  0  0  1  0  0
  -27.6645  -19.9435   18.2691 C   0  0  1  0  0  0  0  0  0  0  0  0
  -27.6858  -19.1798   14.5562 C   0  0  2  0  0  0  0  0  0  0  0  0
  -26.3294  -19.9827   19.0650 C   0  0  0  0  0  0  0  0  0  0  0  0
  -25.8833  -11.5675   20.6121 N   0  0  0  0  0  0  0  0  0  0  0  0
  -26.2889  -12.8418   20.4787 N   0  0  0  0  0  0  0  0  0  0  0  0
  -29.8221  -20.7959   19.1303 N   0  0  0  0  0  0  0  0  0  0  0  0
  -30.0786  -12.3718   20.6452 N   0  0  0  0  0  0  0  0  0  0  0  0
  -25.5154  -15.0806   20.4843 N   0  0  0  0  0  0  0  0  0  0  0  0
  -21.7612  -12.6794   21.2161 N   0  0  0  0  0  0  0  0  0  0  0  0
  -30.4832  -23.2289   21.6549 N   0  0  0  0  0  0  0  0  0  0  0  0
  -27.4967  -19.9518   16.8199 N   0  0  0  0  0  0  0  0  0  0  0  0
  -32.2827  -12.7457   21.5051 N   0  0  0  0  0  0  0  0  0  0  0  0
  -28.7893  -18.6552   13.7029 N   0  3  0  0  0  0  0  0  0  0  0  0
  -22.5933  -14.7999   20.9523 O   0  0  0  0  0  0  0  0  0  0  0  0
  -30.1517  -20.9261   21.7545 O   0  0  0  0  0  0  0  0  0  0  0  0
  -28.1685  -22.2586   18.3806 O   0  0  0  0  0  0  0  0  0  0  0  0
  -28.6131  -17.9585   16.4232 O   0  0  0  0  0  0  0  0  0  0  0  0
  -30.4107  -13.2342   22.7559 O   0  0  0  0  0  0  0  0  0  0  0  0
  -21.4176   -7.1304   21.5699 O   0  0  0  0  0  0  0  0  0  0  0  0
  -34.0578  -16.4457   20.2205 O   0  0  0  0  0  0  0  0  0  1  0  0
  -23.3193   -3.2362   24.9792 F   0  0  0  0  0  0  0  0  0  0  0  0
  -23.8238   -5.8629   21.0738 F   0  0  0  0  0  0  0  0  0  0  0  0
  1  2  1  0  0  0  0
  1  5  2  0  0  0  0
  2  6  2  0  0  0  0
  3  8  2  0  0  0  0
  3 15  1  0  0  0  0
  4  9  1  0  0  0  0
  4 15  2  0  0  0  0
  5 17  1  0  0  0  0
  6 19  1  0  0  0  0
  7 10  2  0  0  0  0
  7 18  1  0  0  0  0
  8 21  1  0  0  0  0
  9 21  2  0  0  0  0
 10 22  1  0  0  0  0
 11 12  2  0  0  0  0
 11 23  1  0  0  0  0
 12 24  1  0  0  0  0
 13 20  1  0  0  0  0
 13 22  2  0  0  0  0
 14 24  2  0  0  0  0
 14 25  1  0  0  0  0
 15 26  1  0  0  0  0
 16 26  1  0  0  0  0
 16 27  2  0  0  0  0
 16 28  1  0  0  0  0
 17 19  2  0  0  0  0
 17 33  1  0  0  0  0
 18 20  2  0  0  0  0
 18 34  1  0  0  0  0
 19 42  1  0  0  0  0
 20 35  1  0  0  0  0
 21 72  1  0  0  0  0
 22 73  1  0  0  0  0
 23 25  2  0  0  0  0
 23 72  1  0  0  0  0
 24 74  1  0  0  0  0
 25 75  1  0  0  0  0
 26 57  2  0  0  0  0
 27 58  1  0  0  0  0
 27 61  1  0  0  0  0
 28 62  1  0  0  0  0
 28 67  2  0  0  0  0
 29 43  1  0  0  0  0
 29 63  1  0  0  0  0
 29 68  2  0  0  0  0
 30 54  1  0  0  0  0
 30 59  1  0  0  0  0
 30 69  2  0  0  0  0
 31 55  1  0  0  0  0
 31 64  1  0  0  0  0
 31 70  2  0  0  0  0
 32 60  1  0  0  0  0
 32 65  1  0  0  0  0
 32 71  2  0  0  0  0
 33 36  1  0  0  0  0
 34 43  1  0  0  0  0
 35 59  1  0  0  0  0
 36 38  1  0  0  0  0
 37 39  1  0  0  0  0
 37 40  1  0  0  0  0
 38 42  1  0  0  0  0
 39 44  1  0  0  0  0
 40 60  1  0  0  0  0
 41 44  1  0  0  0  0
 41 60  1  0  0  0  0
 42 63  1  0  0  0  0
 43 59  1  0  0  0  0
 44 58  1  0  0  0  0
 45 55  1  0  0  0  0
 46 56  1  0  0  0  0
 47 56  1  0  0  0  0
 48 56  1  0  0  0  0
 49 65  1  0  0  0  0
 50 66  1  0  0  0  0
 51 52  1  0  0  0  0
 51 53  1  0  0  0  0
 52 65  1  0  0  0  0
 53 73  1  0  0  0  0
 54 56  1  0  0  0  0
 54 64  1  0  0  0  0
 55 66  1  0  0  0  0
 57 58  1  0  0  0  0
M  CHG  1  66   1
M  ISO  4  32 100  53 101  65 100  73 101
M  END
> <Batch ID>
0103

> <Smiles>
CNC(C)C(=O)NC(C(=O)N1Cc2cc([101O:1][101CH2:1]CC[100N:0](C)[100C:0](=O)N3CCCC(n4nc(-c5ccc(Oc6ccc(F)cc6F)cc5)c(C(N)=O)c4N)C3)ccc2CC1C(=O)NC1CCCc2ccccc21)C(C)(C)C

> <Shape>
0.188

> <Color>
0.204

> <Negative vol penalty>
0.000

$$$$

  -OEChem-04052301053D

 86 95  0     1  0  0  0  0  0999 V2000
  -19.5595  -34.0413   15.8013 C   0  0  0  0  0  0  0  0  0  0  0  0
  -20.1353  -32.7779   15.7131 C   0  0  0  0  0  0  0  0  0  0  0  0
  -23.3551  -13.1660   23.5610 C   0  0  0  0  0  0  0  0  0  0  0  0
  -23.9647  -10.9531   22.8071 C   0  0  0  0  0  0  0  0  0  0  0  0
  -20.1940  -35.0459   16.5308 C   0  0  0  0  0  0  0  0  0  0  0  0
  -21.3465  -32.5187   16.3536 C   0  0  0  0  0  0  0  0  0  0  0  0
  -32.8316  -19.6244   22.6344 C   0  0  0  0  0  0  0  0  0  0  0  0
  -24.9008  -27.2464   19.6530 C   0  0  0  0  0  0  0  0  0  0  0  0
  -32.4505  -20.9534   22.4372 C   0  0  0  0  0  0  0  0  0  0  0  0
  -22.6822  -12.6100   24.6490 C   0  0  0  0  0  0  0  0  0  0  0  0
  -23.2919  -10.3970   23.8951 C   0  0  0  0  0  0  0  0  0  0  0  0
  -26.1340  -26.5967   19.6248 C   0  0  0  0  0  0  0  0  0  0  0  0
  -20.0971   -9.7097   24.7620 C   0  0  0  0  0  0  0  0  0  0  0  0
  -19.2709   -8.6120   24.5210 C   0  0  0  0  0  0  0  0  0  0  0  0
  -30.4489  -20.2512   21.2443 C   0  0  0  0  0  0  0  0  0  0  0  0
  -27.0997  -28.3863   20.9226 C   0  0  0  0  0  0  0  0  0  0  0  0
  -20.6015   -7.2783   26.0336 C   0  0  0  0  0  0  0  0  0  0  0  0
  -23.9963  -12.3376   22.6400 C   0  0  0  0  0  0  0  0  0  0  0  0
  -24.1440  -13.7185   20.5002 C   0  0  0  0  0  0  0  0  0  0  0  0
  -21.4087  -34.7961   17.1885 C   0  0  0  0  0  0  0  0  0  0  0  0
  -32.0200  -18.6264   22.1219 C   0  0  0  0  0  0  0  0  0  0  0  0
  -24.7601  -28.4783   20.3080 C   0  0  0  0  0  0  0  0  0  0  0  0
  -21.9985  -33.5213   17.0914 C   0  0  0  0  0  0  0  0  0  0  0  0
  -30.8406  -18.9367   21.4338 C   0  0  0  0  0  0  0  0  0  0  0  0
  -25.8630  -29.0483   20.9598 C   0  0  0  0  0  0  0  0  0  0  0  0
  -31.2680  -21.2645   21.7470 C   0  0  0  0  0  0  0  0  0  0  0  0
  -22.6506  -11.2255   24.8161 C   0  0  0  0  0  0  0  0  0  0  0  0
  -27.2344  -27.1680   20.2572 C   0  0  0  0  0  0  0  0  0  0  0  0
  -21.1755   -9.5917   25.6388 C   0  0  0  0  0  0  0  0  0  0  0  0
  -19.5231   -7.3964   25.1567 C   0  0  0  0  0  0  0  0  0  0  0  0
  -21.4277   -8.3760   26.2746 C   0  0  0  0  0  0  0  0  0  0  0  0
  -24.6910  -12.9113   21.5156 C   0  0  0  0  0  0  0  0  0  0  0  0
  -25.2065  -14.0022   19.6774 C   0  0  0  0  0  0  0  0  0  0  0  0
  -22.7961  -14.1715   20.3172 C   0  0  0  0  0  0  0  0  0  0  0  0
  -23.9728  -31.4223   19.4043 C   0  0  0  0  0  0  0  0  0  0  0  0
  -29.6322  -24.5258   20.8695 C   0  0  0  0  0  0  0  0  0  0  0  0
  -24.0761  -32.0095   22.5928 C   0  0  0  0  0  0  0  0  0  0  0  0
  -25.2788  -31.1303   25.6632 C   0  0  0  0  0  0  0  0  0  0  0  0
  -31.0380  -14.2931   20.4432 C   0  0  0  0  0  0  0  0  0  0  0  0
  -22.0809  -35.9270   17.9259 C   0  0  0  0  0  0  0  0  0  0  0  0
  -23.4167  -29.1533   20.3522 C   0  0  0  0  0  0  0  0  0  0  0  0
  -32.1971  -17.1439   22.2385 C   0  0  0  0  0  0  0  0  0  0  0  0
  -30.1163  -17.6912   21.0250 C   0  0  0  0  0  0  0  0  0  0  0  0
  -25.7596  -30.3592   21.6942 C   0  0  0  0  0  0  0  0  0  0  0  0
  -23.1739  -35.4639   18.8857 C   0  0  0  0  0  0  0  0  0  0  0  0
  -29.3870  -12.2294   18.1978 C   0  0  0  0  0  0  0  0  0  0  0  0
  -24.0837  -34.4449   18.2070 C   0  0  0  0  0  0  0  0  0  0  0  0
  -27.9394  -12.2376   18.6871 C   0  0  0  0  0  0  0  0  0  0  0  0
  -30.3578  -12.1683   19.3711 C   0  0  0  0  0  0  0  0  0  0  0  0
  -28.7369  -13.3032   20.8563 C   0  0  0  0  0  0  0  0  0  0  0  0
  -23.2990  -33.1943   17.7928 C   0  0  1  0  0  0  0  0  0  0  0  0
  -23.5102  -30.6541   20.6099 C   0  0  1  0  0  0  0  0  0  0  0  0
  -27.7090  -13.3657   19.7078 C   0  0  2  0  0  0  0  0  0  0  0  0
  -31.2463  -16.6508   21.1329 C   0  0  2  0  0  0  0  0  0  0  0  0
  -25.2178  -31.8220   28.0747 C   0  0  0  0  0  0  0  0  0  0  0  0
  -25.9969  -34.3002   21.9819 C   0  0  0  0  0  0  0  0  0  0  0  0
  -26.6258  -34.3267   24.4052 C   0  0  0  0  0  0  0  0  0  0  0  0
  -24.2771  -34.8170   23.7225 C   0  0  0  0  0  0  0  0  0  0  0  0
  -30.2420  -15.0531   22.7221 C   0  0  0  0  0  0  0  0  0  0  0  0
  -24.0702  -28.5586   26.4905 C   0  0  0  0  0  0  0  0  0  0  0  0
  -29.7170  -23.0142   20.8762 C   0  0  0  0  0  0  0  0  0  0  0  0
  -28.4242  -25.1109   20.1641 C   0  0  0  0  0  0  0  0  0  1  0  0
  -25.1446  -32.4474   23.5652 C   0  0  1  0  0  0  0  0  0  0  0  0
  -24.5865  -30.9483   27.0019 C   0  0  2  0  0  0  0  0  0  0  0  0
  -25.5138  -33.9490   23.4033 C   0  0  0  0  0  0  0  0  0  0  0  0
  -25.9993  -12.6959   21.3545 N   0  0  0  0  0  0  0  0  0  0  0  0
  -26.2833  -13.3719   20.2283 N   0  0  0  0  0  0  0  0  0  0  0  0
  -24.4264  -30.9837   21.7036 N   0  0  0  0  0  0  0  0  0  0  0  0
  -30.1068  -13.2508   20.3230 N   0  0  0  0  0  0  0  0  0  0  0  0
  -25.3154  -14.7267   18.5435 N   0  0  0  0  0  0  0  0  0  0  0  0
  -21.9203  -13.3764   19.5654 N   0  0  0  0  0  0  0  0  0  0  0  0
  -30.9079  -22.5925   21.5684 N   0  0  0  0  0  0  0  0  0  0  0  0
  -23.0564  -32.3467   18.9405 N   0  0  0  0  0  0  0  0  0  0  0  0
  -24.6581  -32.0916   24.8938 N   0  0  0  0  0  0  0  0  0  0  0  0
  -30.7548  -15.3020   21.3761 N   0  0  0  0  0  0  0  0  0  0  0  0
  -24.6743  -29.5270   27.4414 N   0  3  0  0  0  0  0  0  0  0  0  0
  -22.3851  -15.2574   20.7920 O   0  0  0  0  0  0  0  0  0  0  0  0
  -25.0799  -31.1943   18.9308 O   0  0  0  0  0  0  0  0  0  0  0  0
  -30.4816  -25.2421   21.3979 O   0  0  0  0  0  0  0  0  0  0  0  0
  -22.9690  -32.5526   22.6259 O   0  0  0  0  0  0  0  0  0  0  0  0
  -26.2731  -30.4870   25.3346 O   0  0  0  0  0  0  0  0  0  0  0  0
  -32.0702  -14.3181   19.7604 O   0  0  0  0  0  0  0  0  0  0  0  0
  -21.9944  -10.6826   25.8777 O   0  0  0  0  0  0  0  0  0  0  0  0
  -28.4394  -26.5363   20.2306 O   0  0  0  0  0  0  0  0  0  1  0  0
  -18.7287   -6.3428   24.9263 F   0  0  0  0  0  0  0  0  0  0  0  0
  -22.4615   -8.2569   27.1189 F   0  0  0  0  0  0  0  0  0  0  0  0
  1  2  1  0  0  0  0
  1  5  2  0  0  0  0
  2  6  2  0  0  0  0
  3 10  2  0  0  0  0
  3 18  1  0  0  0  0
  4 11  1  0  0  0  0
  4 18  2  0  0  0  0
  5 20  1  0  0  0  0
  6 23  1  0  0  0  0
  7  9  2  0  0  0  0
  7 21  1  0  0  0  0
  8 12  2  0  0  0  0
  8 22  1  0  0  0  0
  9 26  1  0  0  0  0
 10 27  1  0  0  0  0
 11 27  2  0  0  0  0
 12 28  1  0  0  0  0
 13 14  2  0  0  0  0
 13 29  1  0  0  0  0
 14 30  1  0  0  0  0
 15 24  1  0  0  0  0
 15 26  2  0  0  0  0
 16 25  1  0  0  0  0
 16 28  2  0  0  0  0
 17 30  2  0  0  0  0
 17 31  1  0  0  0  0
 18 32  1  0  0  0  0
 19 32  1  0  0  0  0
 19 33  2  0  0  0  0
 19 34  1  0  0  0  0
 20 23  2  0  0  0  0
 20 40  1  0  0  0  0
 21 24  2  0  0  0  0
 21 42  1  0  0  0  0
 22 25  2  0  0  0  0
 22 41  1  0  0  0  0
 23 51  1  0  0  0  0
 24 43  1  0  0  0  0
 25 44  1  0  0  0  0
 26 72  1  0  0  0  0
 27 83  1  0  0  0  0
 28 84  1  0  0  0  0
 29 31  2  0  0  0  0
 29 83  1  0  0  0  0
 30 85  1  0  0  0  0
 31 86  1  0  0  0  0
 32 66  2  0  0  0  0
 33 67  1  0  0  0  0
 33 70  1  0  0  0  0
 34 71  1  0  0  0  0
 34 77  2  0  0  0  0
 35 52  1  0  0  0  0
 35 73  1  0  0  0  0
 35 78  2  0  0  0  0
 36 61  1  0  0  0  0
 36 62  1  0  0  0  0
 36 79  2  0  0  0  0
 37 63  1  0  0  0  0
 37 68  1  0  0  0  0
 37 80  2  0  0  0  0
 38 64  1  0  0  0  0
 38 74  1  0  0  0  0
 38 81  2  0  0  0  0
 39 69  1  0  0  0  0
 39 75  1  0  0  0  0
 39 82  2  0  0  0  0
 40 45  1  0  0  0  0
 41 52  1  0  0  0  0
 42 54  1  0  0  0  0
 43 54  1  0  0  0  0
 44 68  1  0  0  0  0
 45 47  1  0  0  0  0
 46 48  1  0  0  0  0
 46 49  1  0  0  0  0
 47 51  1  0  0  0  0
 48 53  1  0  0  0  0
 49 69  1  0  0  0  0
 50 53  1  0  0  0  0
 50 69  1  0  0  0  0
 51 73  1  0  0  0  0
 52 68  1  0  0  0  0
 53 67  1  0  0  0  0
 54 75  1  0  0  0  0
 55 64  1  0  0  0  0
 56 65  1  0  0  0  0
 57 65  1  0  0  0  0
 58 65  1  0  0  0  0
 59 75  1  0  0  0  0
 60 76  1  0  0  0  0
 61 72  1  0  0  0  0
 62 84  1  0  0  0  0
 63 65  1  0  0  0  0
 63 74  1  0  0  0  0
 64 76  1  0  0  0  0
 66 67  1  0  0  0  0
M  CHG  1  76   1
M  ISO  4  39 100  62 101  75 100  84 101
M  END
> <Batch ID>
0103

> <Smiles>
CNC(C)C(=O)NC(C(=O)N1Cc2cc([101O:1][101CH2:1]C(=O)CNc3ccc4c(c3)CC([100N:0](C)[100C:0](=O)N3CCCC(n5nc(-c6ccc(Oc7ccc(F)cc7F)cc6)c(C(N)=O)c5N)C3)C4)ccc2CC1C(=O)NC1CCCc2ccccc21)C(C)(C)C

> <Shape>
0.274

> <Color>
0.120

> <Negative vol penalty>
0.000

$$$$

  -OEChem-04052301053D

 89 98  0     1  0  0  0  0  0999 V2000
  -20.7692  -15.7210   18.1501 C   0  0  0  0  0  0  0  0  0  0  0  0
  -21.8339  -16.6161   18.1211 C   0  0  0  0  0  0  0  0  0  0  0  0
  -26.3661  -27.1899   19.3458 C   0  0  0  0  0  0  0  0  0  0  0  0
  -26.5390  -28.3466   21.4598 C   0  0  0  0  0  0  0  0  0  0  0  0
  -20.7355  -14.7106   19.1102 C   0  0  0  0  0  0  0  0  0  0  0  0
  -22.8649  -16.5018   19.0530 C   0  0  0  0  0  0  0  0  0  0  0  0
  -27.4470  -16.9669   16.9475 C   0  0  0  0  0  0  0  0  0  0  0  0
  -25.1983  -22.4969   20.4997 C   0  0  0  0  0  0  0  0  0  0  0  0
  -24.8083  -22.0441   21.7600 C   0  0  0  0  0  0  0  0  0  0  0  0
  -25.5432  -28.2049   18.8577 C   0  0  0  0  0  0  0  0  0  0  0  0
  -25.7162  -29.3617   20.9717 C   0  0  0  0  0  0  0  0  0  0  0  0
  -27.8781  -18.2565   16.6392 C   0  0  0  0  0  0  0  0  0  0  0  0
  -22.4117  -29.8597   20.4585 C   0  0  0  0  0  0  0  0  0  0  0  0
  -21.3884  -30.3194   21.2874 C   0  0  0  0  0  0  0  0  0  0  0  0
  -27.3566  -21.4510   20.7919 C   0  0  0  0  0  0  0  0  0  0  0  0
  -29.2072  -18.2867   18.6522 C   0  0  0  0  0  0  0  0  0  0  0  0
  -22.3430  -32.5382   21.2355 C   0  0  0  0  0  0  0  0  0  0  0  0
  -26.8639  -27.2607   20.6469 C   0  0  0  0  0  0  0  0  0  0  0  0
  -26.9665  -20.9983   22.0523 C   0  0  0  0  0  0  0  0  0  0  0  0
  -28.9564  -25.8016   20.6339 C   0  0  0  0  0  0  0  0  0  0  0  0
  -21.7714  -14.5780   20.0482 C   0  0  0  0  0  0  0  0  0  0  0  0
  -27.8849  -16.3307   18.1179 C   0  0  0  0  0  0  0  0  0  0  0  0
  -22.8443  -15.4895   20.0274 C   0  0  0  0  0  0  0  0  0  0  0  0
  -28.7821  -16.9881   18.9717 C   0  0  0  0  0  0  0  0  0  0  0  0
  -26.4725  -22.2003   20.0156 C   0  0  0  0  0  0  0  0  0  0  0  0
  -25.6924  -21.2948   22.5363 C   0  0  0  0  0  0  0  0  0  0  0  0
  -25.2183  -29.2908   19.6706 C   0  0  0  0  0  0  0  0  0  0  0  0
  -28.7561  -18.9177   17.4931 C   0  0  0  0  0  0  0  0  0  0  0  0
  -23.4008  -30.7393   20.0181 C   0  0  0  0  0  0  0  0  0  0  0  0
  -21.3540  -31.6586   21.6759 C   0  0  0  0  0  0  0  0  0  0  0  0
  -23.3664  -32.0785   20.4066 C   0  0  0  0  0  0  0  0  0  0  0  0
  -27.7135  -26.2122   21.1519 C   0  0  0  0  0  0  0  0  0  0  0  0
  -29.3538  -24.7814   21.4632 C   0  0  0  0  0  0  0  0  0  0  0  0
  -25.9916  -23.4303   17.9063 C   0  0  0  0  0  0  0  0  0  0  0  0
  -28.2411  -22.6435   18.3330 C   0  0  0  0  0  0  0  0  0  0  0  0
  -29.2292  -20.3865   22.7743 C   0  0  0  0  0  0  0  0  0  0  0  0
  -27.9176  -20.2171   22.8345 C   0  0  0  0  0  0  0  0  0  0  0  0
  -29.6865  -26.2982   19.5043 C   0  0  0  0  0  0  0  0  0  0  0  0
  -26.4611  -15.2152   20.7317 C   0  0  0  0  0  0  0  0  0  0  0  0
  -29.4364  -14.1159   21.4111 C   0  0  0  0  0  0  0  0  0  0  0  0
  -32.8186  -15.3478   21.1654 C   0  0  0  0  0  0  0  0  0  0  0  0
  -25.9084  -21.1956   25.0333 C   0  0  0  0  0  0  0  0  0  0  0  0
  -21.6675  -13.4989   21.0968 C   0  0  0  0  0  0  0  0  0  0  0  0
  -27.4314  -14.9293   18.4225 C   0  0  0  0  0  0  0  0  0  0  0  0
  -29.2978  -16.3411   20.2302 C   0  0  0  0  0  0  0  0  0  0  0  0
  -26.2045  -23.3063   16.4126 C   0  0  0  0  0  0  0  0  0  0  0  0
  -22.9858  -13.2163   21.8127 C   0  0  0  0  0  0  0  0  0  0  0  0
  -27.6661  -23.4439   16.0525 C   0  0  0  0  0  0  0  0  0  0  0  0
  -28.9020  -23.1722   25.9414 C   0  0  0  0  0  0  0  0  0  0  0  0
  -23.6577  -14.5210   22.2288 C   0  0  0  0  0  0  0  0  0  0  0  0
  -28.9887  -24.1955   24.8106 C   0  0  0  0  0  0  0  0  0  0  0  0
  -27.4644  -22.7286   26.1947 C   0  0  0  0  0  0  0  0  0  0  0  0
  -26.8666  -23.2263   23.8418 C   0  0  0  0  0  0  0  0  0  0  0  0
  -23.9938  -15.3829   21.0058 C   0  0  1  0  0  0  0  0  0  0  0  0
  -28.5088  -22.4613   16.8478 C   0  0  2  0  0  0  0  0  0  0  0  0
  -27.5383  -14.5751   19.9025 C   0  0  1  0  0  0  0  0  0  0  0  0
  -28.3092  -23.6588   23.5400 C   0  0  1  0  0  0  0  0  0  0  0  0
  -34.9893  -14.1152   20.9081 C   0  0  0  0  0  0  0  0  0  0  0  0
  -29.5646  -14.2938   24.4544 C   0  0  0  0  0  0  0  0  0  0  0  0
  -32.0296  -14.6853   24.2581 C   0  0  0  0  0  0  0  0  0  0  0  0
  -31.0404  -12.5431   23.4487 C   0  0  0  0  0  0  0  0  0  0  0  0
  -24.2714  -19.7655   23.8901 C   0  0  0  0  0  0  0  0  0  0  0  0
  -33.5336  -16.8788   18.7357 C   0  0  0  0  0  0  0  0  0  0  0  0
  -28.2819  -21.0034   16.4536 C   0  0  0  0  0  0  0  0  0  1  0  0
  -30.6399  -14.6670   22.1370 C   0  0  1  0  0  0  0  0  0  0  0  0
  -33.8872  -14.8816   20.1933 C   0  0  2  0  0  0  0  0  0  0  0  0
  -30.8001  -14.0644   23.5613 C   0  0  0  0  0  0  0  0  0  0  0  0
  -27.3455  -25.5100   22.2268 N   0  0  0  0  0  0  0  0  0  0  0  0
  -28.3632  -24.6478   22.3910 N   0  0  0  0  0  0  0  0  0  0  0  0
  -26.8799  -22.6739   18.6956 N   0  0  0  0  0  0  0  0  0  0  0  0
  -28.8204  -14.9724   20.4876 N   0  0  0  0  0  0  0  0  0  0  0  0
  -26.8110  -22.2768   24.9653 N   0  0  0  0  0  0  0  0  0  0  0  0
  -30.4505  -23.9943   21.4818 N   0  0  0  0  0  0  0  0  0  0  0  0
  -29.1339  -27.3504   18.7616 N   0  0  0  0  0  0  0  0  0  0  0  0
  -25.1781  -14.8801   20.3432 N   0  0  0  0  0  0  0  0  0  0  0  0
  -31.7840  -14.4413   21.2604 N   0  0  0  0  0  0  0  0  0  0  0  0
  -25.2597  -20.8405   23.8352 N   0  0  0  0  0  0  0  0  0  0  0  0
  -34.5008  -16.0489   19.4990 N   0  3  0  0  0  0  0  0  0  0  0  0
  -25.1099  -24.1850   18.3191 O   0  0  0  0  0  0  0  0  0  0  0  0
  -29.1957  -22.8018   19.0968 O   0  0  0  0  0  0  0  0  0  0  0  0
  -30.7885  -25.8119   19.1539 O   0  0  0  0  0  0  0  0  0  0  0  0
  -26.7711  -15.9570   21.6566 O   0  0  0  0  0  0  0  0  0  0  0  0
  -29.0611  -12.9652   21.6492 O   0  0  0  0  0  0  0  0  0  0  0  0
  -32.8959  -16.4083   21.7819 O   0  0  0  0  0  0  0  0  0  0  0  0
  -25.6547  -20.6210   26.0991 O   0  0  0  0  0  0  0  0  0  0  0  0
  -24.4156  -30.2816   19.1945 O   0  0  0  0  0  0  0  0  0  0  0  0
  -29.1780  -20.1766   17.1950 O   0  0  0  0  0  0  0  0  0  1  0  0
  -20.3704  -32.1003   22.4706 F   0  0  0  0  0  0  0  0  0  0  0  0
  -24.3131  -32.9285   19.9857 F   0  0  0  0  0  0  0  0  0  0  0  0
  1  2  1  0  0  0  0
  1  5  2  0  0  0  0
  2  6  2  0  0  0  0
  3 10  2  0  0  0  0
  3 18  1  0  0  0  0
  4 11  1  0  0  0  0
  4 18  2  0  0  0  0
  5 21  1  0  0  0  0
  6 23  1  0  0  0  0
  7 12  2  0  0  0  0
  7 22  1  0  0  0  0
  8  9  2  0  0  0  0
  8 25  1  0  0  0  0
  9 26  1  0  0  0  0
 10 27  1  0  0  0  0
 11 27  2  0  0  0  0
 12 28  1  0  0  0  0
 13 14  2  0  0  0  0
 13 29  1  0  0  0  0
 14 30  1  0  0  0  0
 15 19  1  0  0  0  0
 15 25  2  0  0  0  0
 16 24  1  0  0  0  0
 16 28  2  0  0  0  0
 17 30  2  0  0  0  0
 17 31  1  0  0  0  0
 18 32  1  0  0  0  0
 19 26  2  0  0  0  0
 19 37  1  0  0  0  0
 20 32  1  0  0  0  0
 20 33  2  0  0  0  0
 20 38  1  0  0  0  0
 21 23  2  0  0  0  0
 21 43  1  0  0  0  0
 22 24  2  0  0  0  0
 22 44  1  0  0  0  0
 23 54  1  0  0  0  0
 24 45  1  0  0  0  0
 25 70  1  0  0  0  0
 26 77  1  0  0  0  0
 27 86  1  0  0  0  0
 28 87  1  0  0  0  0
 29 31  2  0  0  0  0
 29 86  1  0  0  0  0
 30 88  1  0  0  0  0
 31 89  1  0  0  0  0
 32 68  2  0  0  0  0
 33 69  1  0  0  0  0
 33 73  1  0  0  0  0
 34 46  1  0  0  0  0
 34 70  1  0  0  0  0
 34 79  2  0  0  0  0
 35 55  1  0  0  0  0
 35 70  1  0  0  0  0
 35 80  2  0  0  0  0
 36 37  2  0  0  0  0
 38 74  1  0  0  0  0
 38 81  2  0  0  0  0
 39 56  1  0  0  0  0
 39 75  1  0  0  0  0
 39 82  2  0  0  0  0
 40 65  1  0  0  0  0
 40 71  1  0  0  0  0
 40 83  2  0  0  0  0
 41 66  1  0  0  0  0
 41 76  1  0  0  0  0
 41 84  2  0  0  0  0
 42 72  1  0  0  0  0
 42 77  1  0  0  0  0
 42 85  2  0  0  0  0
 43 47  1  0  0  0  0
 44 56  1  0  0  0  0
 45 71  1  0  0  0  0
 46 48  1  0  0  0  0
 47 50  1  0  0  0  0
 48 55  1  0  0  0  0
 49 51  1  0  0  0  0
 49 52  1  0  0  0  0
 50 54  1  0  0  0  0
 51 57  1  0  0  0  0
 52 72  1  0  0  0  0
 53 57  1  0  0  0  0
 53 72  1  0  0  0  0
 54 75  1  0  0  0  0
 55 64  1  0  0  0  0
 56 71  1  0  0  0  0
 57 69  1  0  0  0  0
 58 66  1  0  0  0  0
 59 67  1  0  0  0  0
 60 67  1  0  0  0  0
 61 67  1  0  0  0  0
 62 77  1  0  0  0  0
 63 78  1  0  0  0  0
 64 87  1  0  0  0  0
 65 67  1  0  0  0  0
 65 76  1  0  0  0  0
 66 78  1  0  0  0  0
 68 69  1  0  0  0  0
M  CHG  1  78   1
M  ISO  4  42 100  64 101  77 100  87 101
M  END
> <Batch ID>
0103

> <Smiles>
C=Cc1cc(N2C(=O)CCC([101CH2:1][101O:1]c3ccc4c(c3)CN(C(=O)C(NC(=O)C(C)NC)C(C)(C)C)C(C(=O)NC3CCCc5ccccc53)C4)C2=O)ccc1[100N:0](C)[100C:0](=O)N1CCCC(n2nc(-c3ccc(Oc4ccc(F)cc4F)cc3)c(C(N)=O)c2N)C1

> <Shape>
0.178

> <Color>
0.065

> <Negative vol penalty>
0.000

$$$$

  -OEChem-04052301053D

 85 94  0     1  0  0  0  0  0999 V2000
  -17.1249  -30.0141   23.9003 C   0  0  0  0  0  0  0  0  0  0  0  0
  -18.4497  -30.4379   23.9282 C   0  0  0  0  0  0  0  0  0  0  0  0
  -23.9368  -13.0779   20.1204 C   0  0  0  0  0  0  0  0  0  0  0  0
  -25.6610  -13.4652   21.7679 C   0  0  0  0  0  0  0  0  0  0  0  0
  -16.8138  -28.7314   23.4511 C   0  0  0  0  0  0  0  0  0  0  0  0
  -19.4643  -29.5787   23.5077 C   0  0  0  0  0  0  0  0  0  0  0  0
  -25.8622  -29.6501   20.2862 C   0  0  0  0  0  0  0  0  0  0  0  0
  -29.8251  -24.3535   20.6311 C   0  0  0  0  0  0  0  0  0  0  0  0
  -29.2762  -23.2871   19.9190 C   0  0  0  0  0  0  0  0  0  0  0  0
  -23.9752  -11.7122   20.4012 C   0  0  0  0  0  0  0  0  0  0  0  0
  -25.6993  -12.0994   22.0488 C   0  0  0  0  0  0  0  0  0  0  0  0
  -27.1644  -29.1858   20.4669 C   0  0  0  0  0  0  0  0  0  0  0  0
  -23.8805   -9.8708   23.8224 C   0  0  0  0  0  0  0  0  0  0  0  0
  -23.9093   -9.4870   25.1631 C   0  0  0  0  0  0  0  0  0  0  0  0
  -26.5012  -27.0204   19.6361 C   0  0  0  0  0  0  0  0  0  0  0  0
  -28.1250  -24.0954   22.3281 C   0  0  0  0  0  0  0  0  0  0  0  0
  -26.0244   -8.3773   24.7999 C   0  0  0  0  0  0  0  0  0  0  0  0
  -24.7798  -13.9544   20.8037 C   0  0  0  0  0  0  0  0  0  0  0  0
  -23.9325  -16.3382   21.1313 C   0  0  0  0  0  0  0  0  0  0  0  0
  -17.8242  -27.8595   23.0158 C   0  0  0  0  0  0  0  0  0  0  0  0
  -24.8656  -28.7984   19.7885 C   0  0  0  0  0  0  0  0  0  0  0  0
  -19.1666  -28.2827   23.0534 C   0  0  0  0  0  0  0  0  0  0  0  0
  -25.1878  -27.4770   19.4476 C   0  0  0  0  0  0  0  0  0  0  0  0
  -27.5760  -23.0290   21.6160 C   0  0  0  0  0  0  0  0  0  0  0  0
  -29.2495  -24.7576   21.8357 C   0  0  0  0  0  0  0  0  0  0  0  0
  -28.1517  -22.6248   20.4114 C   0  0  0  0  0  0  0  0  0  0  0  0
  -24.8564  -11.2229   21.3654 C   0  0  0  0  0  0  0  0  0  0  0  0
  -27.4834  -27.8700   20.1446 C   0  0  0  0  0  0  0  0  0  0  0  0
  -24.9236   -9.5078   22.9704 C   0  0  0  0  0  0  0  0  0  0  0  0
  -24.9813   -8.7402   25.6519 C   0  0  0  0  0  0  0  0  0  0  0  0
  -25.9956   -8.7611   23.4592 C   0  0  0  0  0  0  0  0  0  0  0  0
  -24.7410  -15.3653   20.5136 C   0  0  0  0  0  0  0  0  0  0  0  0
  -24.2692  -17.5129   20.5042 C   0  0  0  0  0  0  0  0  0  0  0  0
  -29.7854  -26.0196   23.9686 C   0  0  0  0  0  0  0  0  0  0  0  0
  -22.9639  -16.1932   22.1784 C   0  0  0  0  0  0  0  0  0  0  0  0
  -22.1131  -27.6710   20.9095 C   0  0  0  0  0  0  0  0  0  0  0  0
  -21.8348  -26.4642   17.9114 C   0  0  0  0  0  0  0  0  0  0  0  0
  -23.3791  -25.4410   15.0452 C   0  0  0  0  0  0  0  0  0  0  0  0
  -28.0747  -21.0285   18.4641 C   0  0  0  0  0  0  0  0  0  0  0  0
  -17.4437  -26.4657   22.5832 C   0  0  0  0  0  0  0  0  0  0  0  0
  -23.4720  -29.3222   19.5742 C   0  0  0  0  0  0  0  0  0  0  0  0
  -24.1590  -26.5283   18.8908 C   0  0  0  0  0  0  0  0  0  0  0  0
  -30.5198  -27.2999   24.2888 C   0  0  0  0  0  0  0  0  0  0  0  0
  -18.5421  -25.7492   21.8020 C   0  0  0  0  0  0  0  0  0  0  0  0
  -31.3462  -27.5542   23.0423 C   0  0  0  0  0  0  0  0  0  0  0  0
  -27.0414  -18.3538   16.3533 C   0  0  0  0  0  0  0  0  0  0  0  0
  -19.8878  -25.9118   22.5017 C   0  0  0  0  0  0  0  0  0  0  0  0
  -26.2843  -17.4179   17.2983 C   0  0  0  0  0  0  0  0  0  0  0  0
  -28.2441  -19.0002   17.0385 C   0  0  0  0  0  0  0  0  0  0  0  0
  -27.1881  -18.7454   19.2497 C   0  0  0  0  0  0  0  0  0  0  0  0
  -20.2929  -27.3886   22.5821 C   0  0  1  0  0  0  0  0  0  0  0  0
  -22.4175  -28.2201   19.5444 C   0  0  1  0  0  0  0  0  0  0  0  0
  -25.9305  -18.1207   18.6236 C   0  0  2  0  0  0  0  0  0  0  0  0
  -30.4981  -26.9668   21.9198 C   0  0  2  0  0  0  0  0  0  0  0  0
  -26.3725  -22.3364   22.1679 C   0  0  0  0  0  0  0  0  0  0  0  0
  -22.8911  -24.4684   12.7839 C   0  0  0  0  0  0  0  0  0  0  0  0
  -21.3729  -23.7320   19.1889 C   0  0  0  0  0  0  0  0  0  0  0  0
  -21.8401  -22.6890   16.9614 C   0  0  0  0  0  0  0  0  0  0  0  0
  -19.8982  -24.2312   17.2317 C   0  0  0  0  0  0  0  0  0  0  0  0
  -24.5293  -27.7891   13.6587 C   0  0  0  0  0  0  0  0  0  0  0  0
  -29.5155  -28.0047   21.3727 C   0  0  0  0  0  0  0  0  0  1  0  0
  -22.2426  -25.1778   17.2346 C   0  0  1  0  0  0  0  0  0  0  0  0
  -23.0962  -25.7447   13.5850 C   0  0  2  0  0  0  0  0  0  0  0  0
  -21.3576  -23.9746   17.6664 C   0  0  0  0  0  0  0  0  0  0  0  0
  -25.5316  -15.8773   19.5667 N   0  0  0  0  0  0  0  0  0  0  0  0
  -25.2215  -17.1848   19.5846 N   0  0  0  0  0  0  0  0  0  0  0  0
  -29.8149  -25.8507   22.5679 N   0  0  0  0  0  0  0  0  0  0  0  0
  -22.8090  -27.0857   18.7054 N   0  0  0  0  0  0  0  0  0  0  0  0
  -27.8322  -19.6501   18.2846 N   0  0  0  0  0  0  0  0  0  0  0  0
  -23.8405  -18.7840   20.6551 N   0  0  0  0  0  0  0  0  0  0  0  0
  -22.7414  -14.9158   22.7105 N   0  0  0  0  0  0  0  0  0  0  0  0
  -27.6100  -21.5428   19.6741 N   0  0  0  0  0  0  0  0  0  0  0  0
  -20.8006  -27.8436   21.3056 N   0  0  0  0  0  0  0  0  0  0  0  0
  -22.2258  -25.4478   15.8010 N   0  0  0  0  0  0  0  0  0  0  0  0
  -24.2316  -26.4997   12.9836 N   0  3  0  0  0  0  0  0  0  0  0  0
  -29.2641  -25.3342   24.8365 O   0  0  0  0  0  0  0  0  0  0  0  0
  -22.3032  -17.1648   22.6176 O   0  0  0  0  0  0  0  0  0  0  0  0
  -23.0029  -27.1293   21.5550 O   0  0  0  0  0  0  0  0  0  0  0  0
  -20.6961  -26.9051   17.7362 O   0  0  0  0  0  0  0  0  0  0  0  0
  -24.5095  -25.2163   15.4719 O   0  0  0  0  0  0  0  0  0  0  0  0
  -28.6278  -21.7085   17.5960 O   0  0  0  0  0  0  0  0  0  0  0  0
  -24.8940   -9.8903   21.6398 O   0  0  0  0  0  0  0  0  0  0  0  0
  -28.7534  -27.4141   20.3207 O   0  0  0  0  0  0  0  0  0  1  0  0
  -25.0095   -8.3730   26.9397 F   0  0  0  0  0  0  0  0  0  0  0  0
  -27.0012   -8.4104   22.6458 F   0  0  0  0  0  0  0  0  0  0  0  0
  1  2  1  0  0  0  0
  1  5  2  0  0  0  0
  2  6  2  0  0  0  0
  3 10  2  0  0  0  0
  3 18  1  0  0  0  0
  4 11  1  0  0  0  0
  4 18  2  0  0  0  0
  5 20  1  0  0  0  0
  6 22  1  0  0  0  0
  7 12  2  0  0  0  0
  7 21  1  0  0  0  0
  8  9  2  0  0  0  0
  8 25  1  0  0  0  0
  9 26  1  0  0  0  0
 10 27  1  0  0  0  0
 11 27  2  0  0  0  0
 12 28  1  0  0  0  0
 13 14  2  0  0  0  0
 13 29  1  0  0  0  0
 14 30  1  0  0  0  0
 15 23  1  0  0  0  0
 15 28  2  0  0  0  0
 16 24  1  0  0  0  0
 16 25  2  0  0  0  0
 17 30  2  0  0  0  0
 17 31  1  0  0  0  0
 18 32  1  0  0  0  0
 19 32  1  0  0  0  0
 19 33  2  0  0  0  0
 19 35  1  0  0  0  0
 20 22  2  0  0  0  0
 20 40  1  0  0  0  0
 21 23  2  0  0  0  0
 21 41  1  0  0  0  0
 22 51  1  0  0  0  0
 23 42  1  0  0  0  0
 24 26  2  0  0  0  0
 24 55  1  0  0  0  0
 25 67  1  0  0  0  0
 26 72  1  0  0  0  0
 27 82  1  0  0  0  0
 28 83  1  0  0  0  0
 29 31  2  0  0  0  0
 29 82  1  0  0  0  0
 30 84  1  0  0  0  0
 31 85  1  0  0  0  0
 32 65  2  0  0  0  0
 33 66  1  0  0  0  0
 33 70  1  0  0  0  0
 34 43  1  0  0  0  0
 34 67  1  0  0  0  0
 34 76  2  0  0  0  0
 35 71  1  0  0  0  0
 35 77  2  0  0  0  0
 36 52  1  0  0  0  0
 36 73  1  0  0  0  0
 36 78  2  0  0  0  0
 37 62  1  0  0  0  0
 37 68  1  0  0  0  0
 37 79  2  0  0  0  0
 38 63  1  0  0  0  0
 38 74  1  0  0  0  0
 38 80  2  0  0  0  0
 39 69  1  0  0  0  0
 39 72  1  0  0  0  0
 39 81  2  0  0  0  0
 40 44  1  0  0  0  0
 41 52  1  0  0  0  0
 42 68  1  0  0  0  0
 43 45  1  0  0  0  0
 44 47  1  0  0  0  0
 45 54  1  0  0  0  0
 46 48  1  0  0  0  0
 46 49  1  0  0  0  0
 47 51  1  0  0  0  0
 48 53  1  0  0  0  0
 49 69  1  0  0  0  0
 50 53  1  0  0  0  0
 50 69  1  0  0  0  0
 51 73  1  0  0  0  0
 52 68  1  0  0  0  0
 53 66  1  0  0  0  0
 54 61  1  0  0  0  0
 54 67  1  0  0  0  0
 56 63  1  0  0  0  0
 57 64  1  0  0  0  0
 58 64  1  0  0  0  0
 59 64  1  0  0  0  0
 60 75  1  0  0  0  0
 61 83  1  0  0  0  0
 62 64  1  0  0  0  0
 62 74  1  0  0  0  0
 63 75  1  0  0  0  0
 65 66  1  0  0  0  0
M  CHG  1  75   1
M  ISO  4  39 100  61 101  72 100  83 101
M  END
> <Batch ID>
0103

> <Smiles>
CNC(C)C(=O)NC(C(=O)N1Cc2cc([101O:1][101CH2:1]C3CCC(=O)N3c3ccc([100NH:0][100C:0](=O)N4CCCC(n5nc(-c6ccc(Oc7ccc(F)cc7F)cc6)c(C(N)=O)c5N)C4)c(C)c3)ccc2CC1C(=O)NC1CCCc2ccccc21)C(C)(C)C

> <Shape>
0.213

> <Color>
0.074

> <Negative vol penalty>
0.000

$$$$

  -OEChem-04052301053D

 88 97  0     1  0  0  0  0  0999 V2000
  -29.2823  -33.4761   27.3410 C   0  0  0  0  0  0  0  0  0  0  0  0
  -28.8674  -32.3009   26.7228 C   0  0  0  0  0  0  0  0  0  0  0  0
  -23.2097   -9.8838   19.9007 C   0  0  0  0  0  0  0  0  0  0  0  0
  -24.3665   -9.5110   21.9887 C   0  0  0  0  0  0  0  0  0  0  0  0
  -28.4411  -34.5878   27.3584 C   0  0  0  0  0  0  0  0  0  0  0  0
  -27.6104  -32.2364   26.1225 C   0  0  0  0  0  0  0  0  0  0  0  0
  -27.7437  -30.0285   21.5671 C   0  0  0  0  0  0  0  0  0  0  0  0
  -22.6676   -8.6006   19.9719 C   0  0  0  0  0  0  0  0  0  0  0  0
  -23.8243   -8.2278   22.0600 C   0  0  0  0  0  0  0  0  0  0  0  0
  -27.8219  -28.6369   21.5360 C   0  0  0  0  0  0  0  0  0  0  0  0
  -20.8786   -6.8145   22.9238 C   0  0  0  0  0  0  0  0  0  0  0  0
  -20.3569   -6.4002   24.1492 C   0  0  0  0  0  0  0  0  0  0  0  0
  -25.4497  -28.5190   21.1141 C   0  0  0  0  0  0  0  0  0  0  0  0
  -28.4188  -19.1132   22.1148 C   0  0  0  0  0  0  0  0  0  0  0  0
  -30.4382  -19.4378   20.8288 C   0  0  0  0  0  0  0  0  0  0  0  0
  -21.9349   -4.5715   24.2027 C   0  0  0  0  0  0  0  0  0  0  0  0
  -24.0592  -10.3390   20.9091 C   0  0  0  0  0  0  0  0  0  0  0  0
  -24.0676  -12.8509   21.3539 C   0  0  0  0  0  0  0  0  0  0  0  0
  -27.1771  -34.5400   26.7497 C   0  0  0  0  0  0  0  0  0  0  0  0
  -26.5140  -30.6766   21.3824 C   0  0  0  0  0  0  0  0  0  0  0  0
  -26.7509  -33.3482   26.1330 C   0  0  0  0  0  0  0  0  0  0  0  0
  -25.3591  -29.9191   21.1407 C   0  0  0  0  0  0  0  0  0  0  0  0
  -29.6970  -18.6935   21.7467 C   0  0  0  0  0  0  0  0  0  0  0  0
  -27.8816  -20.2772   21.5649 C   0  0  0  0  0  0  0  0  0  0  0  0
  -28.6227  -21.0215   20.6471 C   0  0  0  0  0  0  0  0  0  0  0  0
  -29.9010  -20.6018   20.2790 C   0  0  0  0  0  0  0  0  0  0  0  0
  -22.9748   -7.7726   21.0515 C   0  0  0  0  0  0  0  0  0  0  0  0
  -26.6743  -27.8818   21.3124 C   0  0  0  0  0  0  0  0  0  0  0  0
  -21.9284   -6.1074   22.3377 C   0  0  0  0  0  0  0  0  0  0  0  0
  -20.8850   -5.2787   24.7887 C   0  0  0  0  0  0  0  0  0  0  0  0
  -22.4566   -4.9859   22.9772 C   0  0  0  0  0  0  0  0  0  0  0  0
  -24.6200  -11.6642   20.8358 C   0  0  0  0  0  0  0  0  0  0  0  0
  -24.9777  -13.8255   21.0248 C   0  0  0  0  0  0  0  0  0  0  0  0
  -28.2310  -23.4597   20.6593 C   0  0  0  0  0  0  0  0  0  0  0  0
  -27.7147  -24.6145   20.2154 C   0  0  0  0  0  0  0  0  0  0  0  0
  -26.8128  -24.5358   19.0319 C   0  0  0  0  0  0  0  0  0  0  0  0
  -22.8415  -13.0540   22.0689 C   0  0  0  0  0  0  0  0  0  0  0  0
  -24.6974  -32.5887   23.1565 C   0  0  0  0  0  0  0  0  0  0  0  0
  -22.9413  -32.7980   20.4373 C   0  0  0  0  0  0  0  0  0  0  0  0
  -22.0343  -31.3994   17.4593 C   0  0  0  0  0  0  0  0  0  0  0  0
  -30.2418  -15.6380   20.6382 C   0  0  0  0  0  0  0  0  0  0  0  0
  -26.2838  -35.7522   26.8353 C   0  0  0  0  0  0  0  0  0  0  0  0
  -26.4511  -32.1794   21.3921 C   0  0  0  0  0  0  0  0  0  0  0  0
  -24.0181  -30.5672   20.9164 C   0  0  0  0  0  0  0  0  0  0  0  0
  -26.3850  -23.1621   18.5600 C   0  0  0  0  0  0  0  0  0  0  0  0
  -25.1182  -35.7207   25.8502 C   0  0  0  0  0  0  0  0  0  0  0  0
  -28.9852  -13.6819   17.9416 C   0  0  0  0  0  0  0  0  0  0  0  0
  -24.4354  -34.3568   25.8745 C   0  0  0  0  0  0  0  0  0  0  0  0
  -27.6960  -13.0760   18.4990 C   0  0  0  0  0  0  0  0  0  0  0  0
  -27.4677  -22.1035   18.7523 C   0  0  0  0  0  0  0  0  0  0  0  0
  -30.0716  -13.7784   19.0105 C   0  0  0  0  0  0  0  0  0  0  0  0
  -28.3790  -13.8772   20.7991 C   0  0  0  0  0  0  0  0  0  0  0  0
  -25.4046  -33.2471   25.4494 C   0  0  1  0  0  0  0  0  0  0  0  0
  -25.0578  -32.7171   21.7035 C   0  0  1  0  0  0  0  0  0  0  0  0
  -27.2356  -13.8111   19.7722 C   0  0  2  0  0  0  0  0  0  0  0  0
  -26.5093  -20.7010   21.9777 C   0  0  0  0  0  0  0  0  0  0  0  0
  -20.5524  -31.7863   15.4714 C   0  0  0  0  0  0  0  0  0  0  0  0
  -20.5119  -31.9795   22.0920 C   0  0  0  0  0  0  0  0  0  0  0  0
  -19.3161  -31.4641   19.9536 C   0  0  0  0  0  0  0  0  0  0  0  0
  -20.0762  -33.7927   20.4256 C   0  0  0  0  0  0  0  0  0  0  0  0
  -24.3406  -31.4574   15.6055 C   0  0  0  0  0  0  0  0  0  0  0  0
  -30.2719  -17.4493   22.3345 C   0  0  0  0  0  0  0  0  0  0  0  0
  -27.9741  -25.9489   20.8325 C   0  0  0  0  0  0  0  0  0  1  0  0
  -21.7873  -32.0235   19.8476 C   0  0  1  0  0  0  0  0  0  0  0  0
  -21.9410  -31.9810   16.0602 C   0  0  2  0  0  0  0  0  0  0  0  0
  -20.4477  -32.3024   20.5858 C   0  0  0  0  0  0  0  0  0  0  0  0
  -25.7903  -11.8644   20.2239 N   0  0  0  0  0  0  0  0  0  0  0  0
  -25.9806  -13.1883   20.3553 N   0  0  0  0  0  0  0  0  0  0  0  0
  -28.0724  -22.2054   20.0891 N   0  0  0  0  0  0  0  0  0  0  0  0
  -24.0070  -32.0392   20.9415 N   0  0  0  0  0  0  0  0  0  0  0  0
  -29.5713  -14.4878   20.1905 N   0  0  0  0  0  0  0  0  0  0  0  0
  -30.6698  -21.3395   19.3508 N   0  0  0  0  0  0  0  0  0  0  0  0
  -25.0098  -15.1569   21.2455 N   0  0  0  0  0  0  0  0  0  0  0  0
  -22.0243  -11.9440   22.3226 N   0  0  0  0  0  0  0  0  0  0  0  0
  -25.5659  -33.2405   24.0113 N   0  0  0  0  0  0  0  0  0  0  0  0
  -21.7640  -32.3458   18.4250 N   0  0  0  0  0  0  0  0  0  0  0  0
  -29.6980  -16.2533   21.7591 N   0  0  0  0  0  0  0  0  0  0  0  0
  -22.9299  -31.3242   15.1593 N   0  3  0  0  0  0  0  0  0  0  0  0
  -26.3751  -25.5569   18.5050 O   0  0  0  0  0  0  0  0  0  0  0  0
  -22.4735  -14.1888   22.4565 O   0  0  0  0  0  0  0  0  0  0  0  0
  -23.7042  -31.9472   23.4783 O   0  0  0  0  0  0  0  0  0  0  0  0
  -22.9017  -34.0309   20.4436 O   0  0  0  0  0  0  0  0  0  0  0  0
  -22.3149  -30.2222   17.6740 O   0  0  0  0  0  0  0  0  0  0  0  0
  -31.2472  -16.0867   20.0771 O   0  0  0  0  0  0  0  0  0  0  0  0
  -22.4458   -6.5205   21.1214 O   0  0  0  0  0  0  0  0  0  0  0  0
  -26.7477  -26.5233   21.2823 O   0  0  0  0  0  0  0  0  0  1  0  0
  -20.3850   -4.8818   25.9662 F   0  0  0  0  0  0  0  0  0  0  0  0
  -23.4660   -4.3032   22.4196 F   0  0  0  0  0  0  0  0  0  0  0  0
  1  2  1  0  0  0  0
  1  5  2  0  0  0  0
  2  6  2  0  0  0  0
  3  8  2  0  0  0  0
  3 17  1  0  0  0  0
  4  9  1  0  0  0  0
  4 17  2  0  0  0  0
  5 19  1  0  0  0  0
  6 21  1  0  0  0  0
  7 10  2  0  0  0  0
  7 20  1  0  0  0  0
  8 27  1  0  0  0  0
  9 27  2  0  0  0  0
 10 28  1  0  0  0  0
 11 12  2  0  0  0  0
 11 29  1  0  0  0  0
 12 30  1  0  0  0  0
 13 22  1  0  0  0  0
 13 28  2  0  0  0  0
 14 23  1  0  0  0  0
 14 24  2  0  0  0  0
 15 23  2  0  0  0  0
 15 26  1  0  0  0  0
 16 30  2  0  0  0  0
 16 31  1  0  0  0  0
 17 32  1  0  0  0  0
 18 32  1  0  0  0  0
 18 33  2  0  0  0  0
 18 37  1  0  0  0  0
 19 21  2  0  0  0  0
 19 42  1  0  0  0  0
 20 22  2  0  0  0  0
 20 43  1  0  0  0  0
 21 53  1  0  0  0  0
 22 44  1  0  0  0  0
 23 62  1  0  0  0  0
 24 25  1  0  0  0  0
 24 56  1  0  0  0  0
 25 26  2  0  0  0  0
 25 69  1  0  0  0  0
 26 72  1  0  0  0  0
 27 85  1  0  0  0  0
 28 86  1  0  0  0  0
 29 31  2  0  0  0  0
 29 85  1  0  0  0  0
 30 87  1  0  0  0  0
 31 88  1  0  0  0  0
 32 67  2  0  0  0  0
 33 68  1  0  0  0  0
 33 73  1  0  0  0  0
 34 35  2  0  0  0  0
 34 69  1  0  0  0  0
 35 36  1  0  0  0  0
 35 63  1  0  0  0  0
 36 45  1  0  0  0  0
 36 79  2  0  0  0  0
 37 74  1  0  0  0  0
 37 80  2  0  0  0  0
 38 54  1  0  0  0  0
 38 75  1  0  0  0  0
 38 81  2  0  0  0  0
 39 64  1  0  0  0  0
 39 70  1  0  0  0  0
 39 82  2  0  0  0  0
 40 65  1  0  0  0  0
 40 76  1  0  0  0  0
 40 83  2  0  0  0  0
 41 71  1  0  0  0  0
 41 77  1  0  0  0  0
 41 84  2  0  0  0  0
 42 46  1  0  0  0  0
 43 54  1  0  0  0  0
 44 70  1  0  0  0  0
 45 50  1  0  0  0  0
 46 48  1  0  0  0  0
 47 49  1  0  0  0  0
 47 51  1  0  0  0  0
 48 53  1  0  0  0  0
 49 55  1  0  0  0  0
 50 69  1  0  0  0  0
 51 71  1  0  0  0  0
 52 55  1  0  0  0  0
 52 71  1  0  0  0  0
 53 75  1  0  0  0  0
 54 70  1  0  0  0  0
 55 68  1  0  0  0  0
 57 65  1  0  0  0  0
 58 66  1  0  0  0  0
 59 66  1  0  0  0  0
 60 66  1  0  0  0  0
 61 78  1  0  0  0  0
 62 77  1  0  0  0  0
 63 86  1  0  0  0  0
 64 66  1  0  0  0  0
 64 76  1  0  0  0  0
 65 78  1  0  0  0  0
 67 68  1  0  0  0  0
M  CHG  1  78   1
M  ISO  4  41 100  63 101  77 100  86 101
M  END
> <Batch ID>
0103

> <Smiles>
CNC(C)C(=O)NC(C(=O)N1Cc2cc([101O:1][101CH2:1]C3=CN(c4c(C)cc(C[100NH:0][100C:0](=O)N5CCCC(n6nc(-c7ccc(Oc8ccc(F)cc8F)cc7)c(C(N)=O)c6N)C5)cc4N)CCC3=O)ccc2CC1C(=O)NC1CCCc2ccccc21)C(C)(C)C

> <Shape>
0.326

> <Color>
0.144

> <Negative vol penalty>
0.000

$$$$

  -OEChem-04052301053D

 89 98  0     1  0  0  0  0  0999 V2000
  -16.9902  -28.9099   23.6215 C   0  0  0  0  0  0  0  0  0  0  0  0
  -18.1036  -28.1607   23.2549 C   0  0  0  0  0  0  0  0  0  0  0  0
  -22.5293  -10.2184   20.7856 C   0  0  0  0  0  0  0  0  0  0  0  0
  -24.4628   -9.0553   21.6491 C   0  0  0  0  0  0  0  0  0  0  0  0
  -17.0351  -30.3018   23.5543 C   0  0  0  0  0  0  0  0  0  0  0  0
  -19.2623  -28.8030   22.8198 C   0  0  0  0  0  0  0  0  0  0  0  0
  -23.4543  -26.8671   24.8994 C   0  0  0  0  0  0  0  0  0  0  0  0
  -31.5148  -18.6901   21.9638 C   0  0  0  0  0  0  0  0  0  0  0  0
  -31.2621  -17.3868   21.5360 C   0  0  0  0  0  0  0  0  0  0  0  0
  -21.8066   -9.0255   20.7967 C   0  0  0  0  0  0  0  0  0  0  0  0
  -23.7401   -7.8623   21.6603 C   0  0  0  0  0  0  0  0  0  0  0  0
  -23.9305  -25.6671   24.3730 C   0  0  0  0  0  0  0  0  0  0  0  0
  -21.4171   -6.3774   23.6146 C   0  0  0  0  0  0  0  0  0  0  0  0
  -21.5170   -5.5716   24.7487 C   0  0  0  0  0  0  0  0  0  0  0  0
  -25.5730  -26.8867   23.0946 C   0  0  0  0  0  0  0  0  0  0  0  0
  -22.3950   -3.7740   23.3941 C   0  0  0  0  0  0  0  0  0  0  0  0
  -23.8574  -10.2334   21.2117 C   0  0  0  0  0  0  0  0  0  0  0  0
  -24.3034  -12.6490   21.8998 C   0  0  0  0  0  0  0  0  0  0  0  0
  -18.1982  -30.9618   23.1273 C   0  0  0  0  0  0  0  0  0  0  0  0
  -24.0277  -28.0888   24.5184 C   0  0  0  0  0  0  0  0  0  0  0  0
  -19.3224  -30.2050   22.7456 C   0  0  0  0  0  0  0  0  0  0  0  0
  -25.1039  -28.1006   23.6196 C   0  0  0  0  0  0  0  0  0  0  0  0
  -31.0836  -19.1068   23.2232 C   0  0  0  0  0  0  0  0  0  0  0  0
  -30.1468  -16.9168   23.6269 C   0  0  0  0  0  0  0  0  0  0  0  0
  -30.5781  -16.5001   22.3675 C   0  0  0  0  0  0  0  0  0  0  0  0
  -22.4120   -7.8474   21.2341 C   0  0  0  0  0  0  0  0  0  0  0  0
  -24.9881  -25.6770   23.4682 C   0  0  0  0  0  0  0  0  0  0  0  0
  -21.8061   -5.8816   22.3702 C   0  0  0  0  0  0  0  0  0  0  0  0
  -30.3995  -18.2201   24.0547 C   0  0  0  0  0  0  0  0  0  0  0  0
  -22.0059   -4.2699   24.6384 C   0  0  0  0  0  0  0  0  0  0  0  0
  -22.2951   -4.5799   22.2599 C   0  0  0  0  0  0  0  0  0  0  0  0
  -24.6047  -11.4653   21.1999 C   0  0  0  0  0  0  0  0  0  0  0  0
  -25.3109  -13.5170   21.5561 C   0  0  0  0  0  0  0  0  0  0  0  0
  -23.2107  -12.9381   22.7819 C   0  0  0  0  0  0  0  0  0  0  0  0
  -27.3707  -23.0467   22.7337 C   0  0  0  0  0  0  0  0  0  0  0  0
  -22.9721  -30.6989   23.0430 C   0  0  0  0  0  0  0  0  0  0  0  0
  -25.9209  -31.8337   23.7773 C   0  0  0  0  0  0  0  0  0  0  0  0
  -29.3034  -30.5783   23.7667 C   0  0  0  0  0  0  0  0  0  0  0  0
  -30.6970  -14.6284   20.6856 C   0  0  0  0  0  0  0  0  0  0  0  0
  -18.1833  -32.4666   23.0262 C   0  0  0  0  0  0  0  0  0  0  0  0
  -23.5201  -29.3724   25.1158 C   0  0  0  0  0  0  0  0  0  0  0  0
  -25.7675  -29.3839   23.1939 C   0  0  0  0  0  0  0  0  0  0  0  0
  -19.5750  -33.0831   22.9114 C   0  0  0  0  0  0  0  0  0  0  0  0
  -28.8865  -13.1670   17.9904 C   0  0  0  0  0  0  0  0  0  0  0  0
  -20.4091  -32.3300   21.8799 C   0  0  0  0  0  0  0  0  0  0  0  0
  -27.5864  -12.6914   18.6427 C   0  0  0  0  0  0  0  0  0  0  0  0
  -29.7170  -23.6461   23.3023 C   0  0  0  0  0  0  0  0  0  0  0  0
  -30.0855  -12.9898   18.9204 C   0  0  0  0  0  0  0  0  0  0  0  0
  -28.6313  -13.1117   20.9052 C   0  0  0  0  0  0  0  0  0  0  0  0
  -31.0708  -22.9738   23.1611 C   0  0  0  0  0  0  0  0  0  0  0  0
  -29.2576  -21.4217   22.6305 C   0  0  0  0  0  0  0  0  0  0  0  0
  -20.6059  -30.8661   22.2921 C   0  0  1  0  0  0  0  0  0  0  0  0
  -28.8090  -22.8486   22.3836 C   0  0  1  0  0  0  0  0  0  0  0  0
  -23.8420  -30.5964   24.2639 C   0  0  1  0  0  0  0  0  0  0  0  0
  -27.3857  -13.3305   20.0309 C   0  0  2  0  0  0  0  0  0  0  0  0
  -29.4132  -15.9715   24.5257 C   0  0  0  0  0  0  0  0  0  0  0  0
  -31.2954  -31.2450   25.1397 C   0  0  0  0  0  0  0  0  0  0  0  0
  -26.5657  -33.6662   21.4244 C   0  0  0  0  0  0  0  0  0  0  0  0
  -28.9874  -33.1248   21.7563 C   0  0  0  0  0  0  0  0  0  0  0  0
  -27.7090  -34.2741   23.5639 C   0  0  0  0  0  0  0  0  0  0  0  0
  -29.7262  -27.8055   24.7111 C   0  0  0  0  0  0  0  0  0  0  0  0
  -30.8854  -18.4419   26.3722 C   0  0  0  0  0  0  0  0  0  0  0  0
  -31.3668  -20.5121   23.6657 C   0  0  0  0  0  0  0  0  0  0  0  0
  -26.8368  -24.4572   22.6022 C   0  0  0  0  0  0  0  0  0  1  0  0
  -27.2683  -31.8288   23.0965 C   0  0  1  0  0  0  0  0  0  0  0  0
  -30.1552  -30.2514   24.9800 C   0  0  2  0  0  0  0  0  0  0  0  0
  -27.6136  -33.2027   22.4559 C   0  0  0  0  0  0  0  0  0  0  0  0
  -25.7164  -11.5684   20.4668 N   0  0  0  0  0  0  0  0  0  0  0  0
  -26.1225  -12.8273   20.7041 N   0  0  0  0  0  0  0  0  0  0  0  0
  -25.2311  -30.6132   23.8009 N   0  0  0  0  0  0  0  0  0  0  0  0
  -29.8250  -13.6241   20.2144 N   0  0  0  0  0  0  0  0  0  0  0  0
  -25.5727  -14.7952   21.9024 N   0  0  0  0  0  0  0  0  0  0  0  0
  -23.3690  -12.6770   24.1497 N   0  0  0  0  0  0  0  0  0  0  0  0
  -30.3302  -15.1815   21.9121 N   0  0  0  0  0  0  0  0  0  0  0  0
  -21.6197  -30.7622   23.3196 N   0  0  0  0  0  0  0  0  0  0  0  0
  -28.2295  -31.3776   24.0970 N   0  0  0  0  0  0  0  0  0  0  0  0
  -30.7594  -21.5425   22.7685 N   0  3  2  0  0  0  0  0  0  0  0  0
  -30.7368  -28.8853   24.8517 N   0  3  0  0  0  0  0  0  0  0  0  0
  -22.1200  -13.3985   22.3670 O   0  0  0  0  0  0  0  0  0  0  0  0
  -26.6688  -22.1081   23.1072 O   0  0  0  0  0  0  0  0  0  0  0  0
  -23.4896  -30.7205   21.9325 O   0  0  0  0  0  0  0  0  0  0  0  0
  -25.4992  -32.8801   24.2761 O   0  0  0  0  0  0  0  0  0  0  0  0
  -29.5666  -30.1688   22.6382 O   0  0  0  0  0  0  0  0  0  0  0  0
  -31.6804  -14.9915   20.0352 O   0  0  0  0  0  0  0  0  0  0  0  0
  -21.7070   -6.6832   21.2453 O   0  0  0  0  0  0  0  0  0  0  0  0
  -29.9805  -18.6291   25.2869 O   0  0  0  0  0  0  0  0  0  0  0  0
  -25.4543  -24.5073   22.9524 O   0  0  0  0  0  0  0  0  0  1  0  0
  -22.1033   -3.4967   25.7278 F   0  0  0  0  0  0  0  0  0  0  0  0
  -22.6715   -4.0984   21.0673 F   0  0  0  0  0  0  0  0  0  0  0  0
  1  2  1  0  0  0  0
  1  5  2  0  0  0  0
  2  6  2  0  0  0  0
  3 10  2  0  0  0  0
  3 17  1  0  0  0  0
  4 11  1  0  0  0  0
  4 17  2  0  0  0  0
  5 19  1  0  0  0  0
  6 21  1  0  0  0  0
  7 12  2  0  0  0  0
  7 20  1  0  0  0  0
  8  9  2  0  0  0  0
  8 23  1  0  0  0  0
  9 25  1  0  0  0  0
 10 26  1  0  0  0  0
 11 26  2  0  0  0  0
 12 27  1  0  0  0  0
 13 14  2  0  0  0  0
 13 28  1  0  0  0  0
 14 30  1  0  0  0  0
 15 22  1  0  0  0  0
 15 27  2  0  0  0  0
 16 30  2  0  0  0  0
 16 31  1  0  0  0  0
 17 32  1  0  0  0  0
 18 32  1  0  0  0  0
 18 33  2  0  0  0  0
 18 34  1  0  0  0  0
 19 21  2  0  0  0  0
 19 40  1  0  0  0  0
 20 22  2  0  0  0  0
 20 41  1  0  0  0  0
 21 52  1  0  0  0  0
 22 42  1  0  0  0  0
 23 29  2  0  0  0  0
 23 63  1  0  0  0  0
 24 25  2  0  0  0  0
 24 29  1  0  0  0  0
 24 56  1  0  0  0  0
 25 74  1  0  0  0  0
 26 85  1  0  0  0  0
 27 87  1  0  0  0  0
 28 31  2  0  0  0  0
 28 85  1  0  0  0  0
 29 86  1  0  0  0  0
 30 88  1  0  0  0  0
 31 89  1  0  0  0  0
 32 68  2  0  0  0  0
 33 69  1  0  0  0  0
 33 72  1  0  0  0  0
 34 73  1  0  0  0  0
 34 79  2  0  0  0  0
 35 53  1  0  0  0  0
 35 64  1  0  0  0  0
 35 80  2  0  0  0  0
 36 54  1  0  0  0  0
 36 75  1  0  0  0  0
 36 81  2  0  0  0  0
 37 65  1  0  0  0  0
 37 70  1  0  0  0  0
 37 82  2  0  0  0  0
 38 66  1  0  0  0  0
 38 76  1  0  0  0  0
 38 83  2  0  0  0  0
 39 71  1  0  0  0  0
 39 74  1  0  0  0  0
 39 84  2  0  0  0  0
 40 43  1  0  0  0  0
 41 54  1  0  0  0  0
 42 70  1  0  0  0  0
 43 45  1  0  0  0  0
 44 46  1  0  0  0  0
 44 48  1  0  0  0  0
 45 52  1  0  0  0  0
 46 55  1  0  0  0  0
 47 50  1  0  0  0  0
 47 53  1  0  0  0  0
 48 71  1  0  0  0  0
 49 55  1  0  0  0  0
 49 71  1  0  0  0  0
 50 77  1  0  0  0  0
 51 53  1  0  0  0  0
 51 77  1  0  0  0  0
 52 75  1  0  0  0  0
 54 70  1  0  0  0  0
 55 69  1  0  0  0  0
 57 66  1  0  0  0  0
 58 67  1  0  0  0  0
 59 67  1  0  0  0  0
 60 67  1  0  0  0  0
 61 78  1  0  0  0  0
 62 86  1  0  0  0  0
 63 77  1  0  0  0  0
 64 87  1  0  0  0  0
 65 67  1  0  0  0  0
 65 76  1  0  0  0  0
 66 78  1  0  0  0  0
 68 69  1  0  0  0  0
M  CHG  2  77   1  78   1
M  ISO  4  39 100  64 101  74 100  87 101
M  END
> <Batch ID>
0103

> <Smiles>
CNC(C)C(=O)NC(C(=O)N1Cc2cc([101O:1][101CH2:1]C(=O)C3CCN(Cc4ccc([100NH:0][100C:0](=O)N5CCCC(n6nc(-c7ccc(Oc8ccc(F)cc8F)cc7)c(C(N)=O)c6N)C5)c(C)c4OC)C3)ccc2CC1C(=O)NC1CCCc2ccccc21)C(C)(C)C

> <Shape>
0.291

> <Color>
0.139

> <Negative vol penalty>
0.000

$$$$

  -OEChem-04052301053D

 90 99  0     1  0  0  0  0  0999 V2000
  -24.9358  -11.2243   20.1742 C   0  0  0  0  0  0  0  0  0  0  0  0
  -24.0277  -12.2183   19.8237 C   0  0  0  0  0  0  0  0  0  0  0  0
  -21.9068  -23.7463   23.1494 C   0  0  0  0  0  0  0  0  0  0  0  0
  -20.5691  -24.2430   25.0990 C   0  0  0  0  0  0  0  0  0  0  0  0
  -26.0426  -11.5389   20.9615 C   0  0  0  0  0  0  0  0  0  0  0  0
  -24.2254  -13.5274   20.2613 C   0  0  0  0  0  0  0  0  0  0  0  0
  -23.1717  -20.3139   18.2244 C   0  0  0  0  0  0  0  0  0  0  0  0
  -21.6767  -22.3836   23.3387 C   0  0  0  0  0  0  0  0  0  0  0  0
  -20.3390  -22.8803   25.2883 C   0  0  0  0  0  0  0  0  0  0  0  0
  -22.6048  -21.5012   18.6856 C   0  0  0  0  0  0  0  0  0  0  0  0
  -22.8480  -19.9126   25.3253 C   0  0  0  0  0  0  0  0  0  0  0  0
  -23.9382  -19.0501   25.2113 C   0  0  0  0  0  0  0  0  0  0  0  0
  -24.5950  -21.9436   19.9750 C   0  0  0  0  0  0  0  0  0  0  0  0
  -25.5618  -29.1091   20.3328 C   0  0  0  0  0  0  0  0  0  0  0  0
  -23.5309  -30.3457   19.9054 C   0  0  0  0  0  0  0  0  0  0  0  0
  -24.9370  -30.9422   21.7772 C   0  0  0  0  0  0  0  0  0  0  0  0
  -22.8309  -17.8892   23.4048 C   0  0  0  0  0  0  0  0  0  0  0  0
  -21.3530  -24.6760   24.0296 C   0  0  0  0  0  0  0  0  0  0  0  0
  -20.8154  -26.9797   23.0748 C   0  0  0  0  0  0  0  0  0  0  0  0
  -26.2591  -12.8544   21.4009 C   0  0  0  0  0  0  0  0  0  0  0  0
  -24.4524  -19.9265   18.6444 C   0  0  0  0  0  0  0  0  0  0  0  0
  -25.3354  -13.8597   21.0564 C   0  0  0  0  0  0  0  0  0  0  0  0
  -25.1770  -20.7522   19.5157 C   0  0  0  0  0  0  0  0  0  0  0  0
  -24.4161  -29.3224   19.5664 C   0  0  0  0  0  0  0  0  0  0  0  0
  -25.8223  -29.9189   21.4383 C   0  0  0  0  0  0  0  0  0  0  0  0
  -20.8928  -21.9506   24.4081 C   0  0  0  0  0  0  0  0  0  0  0  0
  -23.3153  -22.3149   19.5633 C   0  0  0  0  0  0  0  0  0  0  0  0
  -21.7492  -19.7634   24.4791 C   0  0  0  0  0  0  0  0  0  0  0  0
  -23.7913  -31.1556   21.0108 C   0  0  0  0  0  0  0  0  0  0  0  0
  -23.9297  -18.0384   24.2511 C   0  0  0  0  0  0  0  0  0  0  0  0
  -21.7407  -18.7518   23.5188 C   0  0  0  0  0  0  0  0  0  0  0  0
  -21.5908  -26.0837   23.8349 C   0  0  0  0  0  0  0  0  0  0  0  0
  -21.4565  -28.1870   23.2081 C   0  0  0  0  0  0  0  0  0  0  0  0
  -23.2823  -26.2197   19.1944 C   0  0  0  0  0  0  0  0  0  0  0  0
  -19.6222  -26.7419   22.3162 C   0  0  0  0  0  0  0  0  0  0  0  0
  -25.6317  -17.4554   20.2587 C   0  0  0  0  0  0  0  0  0  0  0  0
  -28.4765  -18.8179   19.5019 C   0  0  0  0  0  0  0  0  0  0  0  0
  -30.2027  -21.6336   18.6422 C   0  0  0  0  0  0  0  0  0  0  0  0
  -27.0781  -29.9813   23.6086 C   0  0  0  0  0  0  0  0  0  0  0  0
  -27.4445  -13.1371   22.2895 C   0  0  0  0  0  0  0  0  0  0  0  0
  -25.0606  -18.6560   18.1167 C   0  0  0  0  0  0  0  0  0  0  0  0
  -26.5634  -20.3915   19.9807 C   0  0  0  0  0  0  0  0  0  0  0  0
  -27.7827  -14.6216   22.4000 C   0  0  0  0  0  0  0  0  0  0  0  0
  -24.6675  -30.1289   26.4122 C   0  0  0  0  0  0  0  0  0  0  0  0
  -26.5200  -15.4394   22.6523 C   0  0  0  0  0  0  0  0  0  0  0  0
  -23.6008  -29.1177   25.9961 C   0  0  0  0  0  0  0  0  0  0  0  0
  -21.0201  -26.4478   18.4722 C   0  0  0  0  0  0  0  0  0  0  0  0
  -26.0377  -29.7731   25.8434 C   0  0  0  0  0  0  0  0  0  0  0  0
  -21.6974  -27.8048   18.4367 C   0  0  0  0  0  0  0  0  0  0  0  0
  -24.9731  -28.5956   23.9404 C   0  0  0  0  0  0  0  0  0  0  0  0
  -25.5288  -15.2963   21.4911 C   0  0  1  0  0  0  0  0  0  0  0  0
  -21.9014  -25.6293   19.4186 C   0  0  1  0  0  0  0  0  0  0  0  0
  -26.1651  -18.1051   19.0133 C   0  0  1  0  0  0  0  0  0  0  0  0
  -23.5756  -28.9540   24.4675 C   0  0  1  0  0  0  0  0  0  0  0  0
  -29.9209  -27.6320   20.8343 C   0  0  0  0  0  0  0  0  0  0  0  0
  -32.5218  -22.4420   18.1267 C   0  0  0  0  0  0  0  0  0  0  0  0
  -29.1598  -18.7457   22.4748 C   0  0  0  0  0  0  0  0  0  0  0  0
  -30.9996  -20.3819   22.0204 C   0  0  0  0  0  0  0  0  0  0  0  0
  -31.0472  -18.1268   20.9551 C   0  0  0  0  0  0  0  0  0  0  0  0
  -29.4317  -22.4601   15.9070 C   0  0  0  0  0  0  0  0  0  0  0  0
  -21.7755  -32.3161   20.5154 C   0  0  0  0  0  0  0  0  0  0  0  0
  -24.1354  -28.4507   18.3766 C   0  0  0  0  0  0  0  0  0  0  0  0
  -21.8458  -24.1381   19.1483 C   0  0  0  0  0  0  0  0  0  1  0  0
  -28.6062  -27.9325   21.5406 C   0  0  0  0  0  0  0  0  0  0  0  0
  -28.2573  -29.4161   21.5298 C   0  0  0  0  0  0  0  0  0  0  0  0
  -29.3761  -19.8437   20.1480 C   0  0  1  0  0  0  0  0  0  0  0  0
  -31.2251  -21.8944   17.5509 C   0  0  2  0  0  0  0  0  0  0  0  0
  -30.1188  -19.2806   21.3925 C   0  0  0  0  0  0  0  0  0  0  0  0
  -22.6441  -26.6716   24.4084 N   0  0  0  0  0  0  0  0  0  0  0  0
  -22.5351  -27.9500   24.0084 N   0  0  0  0  0  0  0  0  0  0  0  0
  -23.0906  -27.4869   18.6461 N   0  0  0  0  0  0  0  0  0  0  0  0
  -27.1123  -19.1362   19.4418 N   0  0  0  0  0  0  0  0  0  0  0  0
  -25.9864  -29.5614   24.3960 N   0  0  0  0  0  0  0  0  0  0  0  0
  -21.1972  -29.4177   22.7175 N   0  0  0  0  0  0  0  0  0  0  0  0
  -19.0974  -25.4426   22.2862 N   0  0  0  0  0  0  0  0  0  0  0  0
  -25.9418  -16.1134   20.3703 N   0  0  0  0  0  0  0  0  0  0  0  0
  -30.2599  -20.3325   19.0952 N   0  0  0  0  0  0  0  0  0  0  0  0
  -27.0070  -29.6984   22.2312 N   0  0  0  0  0  0  0  0  0  0  0  0
  -30.6937  -22.8808   16.5683 N   0  3  0  0  0  0  0  0  0  0  0  0
  -24.3379  -25.6824   19.4951 O   0  0  0  0  0  0  0  0  0  0  0  0
  -19.0480  -27.6510   21.6703 O   0  0  0  0  0  0  0  0  0  0  0  0
  -24.9877  -18.1225   21.0599 O   0  0  0  0  0  0  0  0  0  0  0  0
  -28.9671  -17.7759   19.0602 O   0  0  0  0  0  0  0  0  0  0  0  0
  -29.4330  -22.4986   19.0544 O   0  0  0  0  0  0  0  0  0  0  0  0
  -28.0739  -30.5215   24.1056 O   0  0  0  0  0  0  0  0  0  0  0  0
  -20.6679  -20.6211   24.5930 O   0  0  0  0  0  0  0  0  0  0  0  0
  -22.9273  -32.1537   21.3417 O   0  0  0  0  0  0  0  0  0  0  0  0
  -22.7640  -23.4739   20.0155 O   0  0  0  0  0  0  0  0  0  1  0  0
  -24.9774  -17.2111   24.1407 F   0  0  0  0  0  0  0  0  0  0  0  0
  -20.6884  -18.6042   22.7023 F   0  0  0  0  0  0  0  0  0  0  0  0
  1  2  1  0  0  0  0
  1  5  2  0  0  0  0
  2  6  2  0  0  0  0
  3  8  2  0  0  0  0
  3 18  1  0  0  0  0
  4  9  1  0  0  0  0
  4 18  2  0  0  0  0
  5 20  1  0  0  0  0
  6 22  1  0  0  0  0
  7 10  2  0  0  0  0
  7 21  1  0  0  0  0
  8 26  1  0  0  0  0
  9 26  2  0  0  0  0
 10 27  1  0  0  0  0
 11 12  2  0  0  0  0
 11 28  1  0  0  0  0
 12 30  1  0  0  0  0
 13 23  1  0  0  0  0
 13 27  2  0  0  0  0
 14 24  2  0  0  0  0
 14 25  1  0  0  0  0
 15 24  1  0  0  0  0
 15 29  2  0  0  0  0
 16 25  2  0  0  0  0
 16 29  1  0  0  0  0
 17 30  2  0  0  0  0
 17 31  1  0  0  0  0
 18 32  1  0  0  0  0
 19 32  1  0  0  0  0
 19 33  2  0  0  0  0
 19 35  1  0  0  0  0
 20 22  2  0  0  0  0
 20 40  1  0  0  0  0
 21 23  2  0  0  0  0
 21 41  1  0  0  0  0
 22 51  1  0  0  0  0
 23 42  1  0  0  0  0
 24 62  1  0  0  0  0
 25 78  1  0  0  0  0
 26 86  1  0  0  0  0
 27 88  1  0  0  0  0
 28 31  2  0  0  0  0
 28 86  1  0  0  0  0
 29 87  1  0  0  0  0
 30 89  1  0  0  0  0
 31 90  1  0  0  0  0
 32 69  2  0  0  0  0
 33 70  1  0  0  0  0
 33 74  1  0  0  0  0
 34 52  1  0  0  0  0
 34 71  1  0  0  0  0
 34 80  2  0  0  0  0
 35 75  1  0  0  0  0
 35 81  2  0  0  0  0
 36 53  1  0  0  0  0
 36 76  1  0  0  0  0
 36 82  2  0  0  0  0
 37 66  1  0  0  0  0
 37 72  1  0  0  0  0
 37 83  2  0  0  0  0
 38 67  1  0  0  0  0
 38 77  1  0  0  0  0
 38 84  2  0  0  0  0
 39 73  1  0  0  0  0
 39 78  1  0  0  0  0
 39 85  2  0  0  0  0
 40 43  1  0  0  0  0
 41 53  1  0  0  0  0
 42 72  1  0  0  0  0
 43 45  1  0  0  0  0
 44 46  1  0  0  0  0
 44 48  1  0  0  0  0
 45 51  1  0  0  0  0
 46 54  1  0  0  0  0
 47 49  1  0  0  0  0
 47 52  1  0  0  0  0
 48 73  1  0  0  0  0
 49 71  1  0  0  0  0
 50 54  1  0  0  0  0
 50 73  1  0  0  0  0
 51 76  1  0  0  0  0
 52 63  1  0  0  0  0
 53 72  1  0  0  0  0
 54 70  1  0  0  0  0
 55 64  1  0  0  0  0
 56 67  1  0  0  0  0
 57 68  1  0  0  0  0
 58 68  1  0  0  0  0
 59 68  1  0  0  0  0
 60 79  1  0  0  0  0
 61 87  1  0  0  0  0
 62 71  1  0  0  0  0
 63 88  1  0  0  0  0
 64 65  1  0  0  0  0
 65 78  1  0  0  0  0
 66 68  1  0  0  0  0
 66 77  1  0  0  0  0
 67 79  1  0  0  0  0
 69 70  1  0  0  0  0
M  CHG  1  79   1
M  ISO  4  39 100  63 101  78 100  88 101
M  END
> <Batch ID>
0103

> <Smiles>
CCC[100N:0](c1cc(CN2CCC([101CH2:1][101O:1]c3ccc4c(c3)CN(C(=O)C(NC(=O)C(C)NC)C(C)(C)C)C(C(=O)NC3CCCc5ccccc53)C4)C2=O)cc(OC)c1)[100C:0](=O)N1CCCC(n2nc(-c3ccc(Oc4ccc(F)cc4F)cc3)c(C(N)=O)c2N)C1

> <Shape>
0.226

> <Color>
0.070

> <Negative vol penalty>
0.000

$$$$

  -OEChem-04052301053D

 76 83  0     1  0  0  0  0  0999 V2000
  -20.7398  -32.5057   25.8048 C   0  0  0  0  0  0  0  0  0  0  0  0
  -21.9822  -32.0233   25.4058 C   0  0  0  0  0  0  0  0  0  0  0  0
  -24.2987  -15.1550   19.8703 C   0  0  0  0  0  0  0  0  0  0  0  0
  -26.0979  -15.4264   21.4597 C   0  0  0  0  0  0  0  0  0  0  0  0
  -19.5895  -31.7597   25.5514 C   0  0  0  0  0  0  0  0  0  0  0  0
  -22.0751  -30.7941   24.7540 C   0  0  0  0  0  0  0  0  0  0  0  0
  -26.0319  -29.2575   20.3394 C   0  0  0  0  0  0  0  0  0  0  0  0
  -24.4861  -13.7730   19.8941 C   0  0  0  0  0  0  0  0  0  0  0  0
  -26.2853  -14.0444   21.4836 C   0  0  0  0  0  0  0  0  0  0  0  0
  -27.2372  -28.5572   20.3623 C   0  0  0  0  0  0  0  0  0  0  0  0
  -24.2523  -10.1462   19.8110 C   0  0  0  0  0  0  0  0  0  0  0  0
  -23.1182   -9.3395   19.9036 C   0  0  0  0  0  0  0  0  0  0  0  0
  -26.0662  -26.5343   19.7655 C   0  0  0  0  0  0  0  0  0  0  0  0
  -22.5520  -10.3773   22.0106 C   0  0  0  0  0  0  0  0  0  0  0  0
  -25.1047  -15.9817   20.6530 C   0  0  0  0  0  0  0  0  0  0  0  0
  -24.0645  -18.1673   21.4585 C   0  0  0  0  0  0  0  0  0  0  0  0
  -19.6674  -30.5252   24.8876 C   0  0  0  0  0  0  0  0  0  0  0  0
  -24.8311  -28.5981   20.0396 C   0  0  0  0  0  0  0  0  0  0  0  0
  -20.9249  -30.0303   24.4927 C   0  0  0  0  0  0  0  0  0  0  0  0
  -24.8473  -27.2291   19.7370 C   0  0  0  0  0  0  0  0  0  0  0  0
  -25.4793  -13.2177   20.7008 C   0  0  0  0  0  0  0  0  0  0  0  0
  -27.2541  -27.1948   20.0781 C   0  0  0  0  0  0  0  0  0  0  0  0
  -24.5364  -11.0684   20.8183 C   0  0  0  0  0  0  0  0  0  0  0  0
  -22.2680   -9.4550   21.0033 C   0  0  0  0  0  0  0  0  0  0  0  0
  -23.6862  -11.1840   21.9180 C   0  0  0  0  0  0  0  0  0  0  0  0
  -24.9120  -17.4094   20.6283 C   0  0  0  0  0  0  0  0  0  0  0  0
  -24.2413  -19.4630   21.0384 C   0  0  0  0  0  0  0  0  0  0  0  0
  -23.1953  -17.7385   22.5151 C   0  0  0  0  0  0  0  0  0  0  0  0
  -22.1170  -28.0590   21.6038 C   0  0  0  0  0  0  0  0  0  0  0  0
  -29.9900  -25.1762   18.8170 C   0  0  0  0  0  0  0  0  0  0  0  0
  -21.1727  -26.8321   18.7533 C   0  0  0  0  0  0  0  0  0  0  0  0
  -22.0522  -25.4384   15.7648 C   0  0  0  0  0  0  0  0  0  0  0  0
  -28.7797  -22.1546   18.3900 C   0  0  0  0  0  0  0  0  0  0  0  0
  -18.4014  -29.7326   24.6780 C   0  0  0  0  0  0  0  0  0  0  0  0
  -23.5430  -29.3734   19.9929 C   0  0  0  0  0  0  0  0  0  0  0  0
  -23.5885  -26.4789   19.3892 C   0  0  0  0  0  0  0  0  0  0  0  0
  -18.5462  -28.6146   23.6488 C   0  0  0  0  0  0  0  0  0  0  0  0
  -25.3806  -22.0180   17.1550 C   0  0  0  0  0  0  0  0  0  0  0  0
  -19.8244  -27.8207   23.8992 C   0  0  0  0  0  0  0  0  0  0  0  0
  -24.7967  -20.8817   17.9963 C   0  0  0  0  0  0  0  0  0  0  0  0
  -26.8302  -21.7343   16.7726 C   0  0  0  0  0  0  0  0  0  0  0  0
  -27.1489  -20.3275   18.7709 C   0  0  0  0  0  0  0  0  0  0  0  0
  -21.0639  -28.7128   23.7612 C   0  0  1  0  0  0  0  0  0  0  0  0
  -22.3098  -28.4948   20.1788 C   0  0  1  0  0  0  0  0  0  0  0  0
  -25.6922  -20.5649   19.2088 C   0  0  2  0  0  0  0  0  0  0  0  0
  -30.9709  -24.5336   16.5951 C   0  0  0  0  0  0  0  0  0  0  0  0
  -21.0583  -24.5055   13.6579 C   0  0  0  0  0  0  0  0  0  0  0  0
  -20.4081  -24.2829   20.2456 C   0  0  0  0  0  0  0  0  0  0  0  0
  -20.3338  -23.0979   18.0415 C   0  0  0  0  0  0  0  0  0  0  0  0
  -18.7753  -24.9933   18.4896 C   0  0  0  0  0  0  0  0  0  0  0  0
  -23.3974  -27.4748   14.0908 C   0  0  0  0  0  0  0  0  0  0  0  0
  -28.5431  -25.3873   19.2252 C   0  0  0  0  0  0  0  0  0  1  0  0
  -30.3329  -24.0204   17.8771 C   0  0  2  0  0  0  0  0  0  0  0  0
  -21.2281  -25.4701   18.1046 C   0  0  1  0  0  0  0  0  0  0  0  0
  -21.6148  -25.7436   14.3435 C   0  0  2  0  0  0  0  0  0  0  0  0
  -20.2099  -24.4745   18.7287 C   0  0  0  0  0  0  0  0  0  0  0  0
  -25.5776  -18.1610   19.7473 N   0  0  0  0  0  0  0  0  0  0  0  0
  -25.1483  -19.4046   20.0215 N   0  0  0  0  0  0  0  0  0  0  0  0
  -22.3534  -27.2796   19.3629 N   0  0  0  0  0  0  0  0  0  0  0  0
  -27.6326  -21.4591   17.9729 N   0  0  0  0  0  0  0  0  0  0  0  0
  -23.7078  -20.6351   21.4433 N   0  0  0  0  0  0  0  0  0  0  0  0
  -23.1343  -16.3711   22.8166 N   0  0  0  0  0  0  0  0  0  0  0  0
  -21.3712  -28.9386   22.3651 N   0  0  0  0  0  0  0  0  0  0  0  0
  -21.0469  -25.6917   16.6740 N   0  0  0  0  0  0  0  0  0  0  0  0
  -29.1753  -23.2082   17.5750 N   0  0  0  0  0  0  0  0  0  0  0  0
  -22.7675  -26.2458   13.5434 N   0  3  0  0  0  0  0  0  0  0  0  0
  -22.4812  -18.5421   23.1614 O   0  0  0  0  0  0  0  0  0  0  0  0
  -22.6073  -27.0023   21.9840 O   0  0  0  0  0  0  0  0  0  0  0  0
  -30.8860  -25.8909   19.2747 O   0  0  0  0  0  0  0  0  0  0  0  0
  -20.1226  -27.4783   18.7142 O   0  0  0  0  0  0  0  0  0  0  0  0
  -23.1722  -25.0140   16.0405 O   0  0  0  0  0  0  0  0  0  0  0  0
  -29.4025  -21.8617   19.4163 O   0  0  0  0  0  0  0  0  0  0  0  0
  -25.6623  -11.8691   20.7245 O   0  0  0  0  0  0  0  0  0  0  0  0
  -28.4291  -26.5087   20.1004 O   0  0  0  0  0  0  0  0  0  1  0  0
  -21.1781   -8.6814   21.0913 F   0  0  0  0  0  0  0  0  0  0  0  0
  -23.9532  -12.0690   22.8883 F   0  0  0  0  0  0  0  0  0  0  0  0
  1  2  1  0  0  0  0
  1  5  2  0  0  0  0
  2  6  2  0  0  0  0
  3  8  2  0  0  0  0
  3 15  1  0  0  0  0
  4  9  1  0  0  0  0
  4 15  2  0  0  0  0
  5 17  1  0  0  0  0
  6 19  1  0  0  0  0
  7 10  2  0  0  0  0
  7 18  1  0  0  0  0
  8 21  1  0  0  0  0
  9 21  2  0  0  0  0
 10 22  1  0  0  0  0
 11 12  2  0  0  0  0
 11 23  1  0  0  0  0
 12 24  1  0  0  0  0
 13 20  1  0  0  0  0
 13 22  2  0  0  0  0
 14 24  2  0  0  0  0
 14 25  1  0  0  0  0
 15 26  1  0  0  0  0
 16 26  1  0  0  0  0
 16 27  2  0  0  0  0
 16 28  1  0  0  0  0
 17 19  2  0  0  0  0
 17 34  1  0  0  0  0
 18 20  2  0  0  0  0
 18 35  1  0  0  0  0
 19 43  1  0  0  0  0
 20 36  1  0  0  0  0
 21 73  1  0  0  0  0
 22 74  1  0  0  0  0
 23 25  2  0  0  0  0
 23 73  1  0  0  0  0
 24 75  1  0  0  0  0
 25 76  1  0  0  0  0
 26 57  2  0  0  0  0
 27 58  1  0  0  0  0
 27 61  1  0  0  0  0
 28 62  1  0  0  0  0
 28 67  2  0  0  0  0
 29 44  1  0  0  0  0
 29 63  1  0  0  0  0
 29 68  2  0  0  0  0
 30 52  1  0  0  0  0
 30 53  1  0  0  0  0
 30 69  2  0  0  0  0
 31 54  1  0  0  0  0
 31 59  1  0  0  0  0
 31 70  2  0  0  0  0
 32 55  1  0  0  0  0
 32 64  1  0  0  0  0
 32 71  2  0  0  0  0
 33 60  1  0  0  0  0
 33 65  1  0  0  0  0
 33 72  2  0  0  0  0
 34 37  1  0  0  0  0
 35 44  1  0  0  0  0
 36 59  1  0  0  0  0
 37 39  1  0  0  0  0
 38 40  1  0  0  0  0
 38 41  1  0  0  0  0
 39 43  1  0  0  0  0
 40 45  1  0  0  0  0
 41 60  1  0  0  0  0
 42 45  1  0  0  0  0
 42 60  1  0  0  0  0
 43 63  1  0  0  0  0
 44 59  1  0  0  0  0
 45 58  1  0  0  0  0
 46 53  1  0  0  0  0
 47 55  1  0  0  0  0
 48 56  1  0  0  0  0
 49 56  1  0  0  0  0
 50 56  1  0  0  0  0
 51 66  1  0  0  0  0
 52 74  1  0  0  0  0
 53 65  1  0  0  0  0
 54 56  1  0  0  0  0
 54 64  1  0  0  0  0
 55 66  1  0  0  0  0
 57 58  1  0  0  0  0
M  CHG  1  66   1
M  ISO  4  33 100  52 101  65 100  74 101
M  END
> <Batch ID>
0103

> <Smiles>
CNC(C)C(=O)NC(C(=O)N1Cc2cc([101O:1][101CH2:1]C(=O)C(C)[100NH:0][100C:0](=O)N3CCCC(n4nc(-c5ccc(Oc6ccc(F)cc6F)cc5)c(C(N)=O)c4N)C3)ccc2CC1C(=O)NC1CCCc2ccccc21)C(C)(C)C

> <Shape>
0.204

> <Color>
0.099

> <Negative vol penalty>
0.000

$$$$

  -OEChem-04052301053D

 88 97  0     1  0  0  0  0  0999 V2000
  -28.8000  -25.2933   16.2643 C   0  0  0  0  0  0  0  0  0  0  0  0
  -27.6421  -25.2772   17.0353 C   0  0  0  0  0  0  0  0  0  0  0  0
  -25.5896  -14.9456   19.0567 C   0  0  0  0  0  0  0  0  0  0  0  0
  -24.7201  -15.0280   21.3093 C   0  0  0  0  0  0  0  0  0  0  0  0
  -29.9326  -25.9643   16.7235 C   0  0  0  0  0  0  0  0  0  0  0  0
  -27.6165  -25.9312   18.2665 C   0  0  0  0  0  0  0  0  0  0  0  0
  -23.3977  -28.6519   18.9337 C   0  0  0  0  0  0  0  0  0  0  0  0
  -25.8849  -13.5922   19.2202 C   0  0  0  0  0  0  0  0  0  0  0  0
  -25.0153  -13.6746   21.4728 C   0  0  0  0  0  0  0  0  0  0  0  0
  -22.2414  -27.9575   19.2867 C   0  0  0  0  0  0  0  0  0  0  0  0
  -24.2136  -10.6534   19.1631 C   0  0  0  0  0  0  0  0  0  0  0  0
  -23.8697   -9.7852   18.1270 C   0  0  0  0  0  0  0  0  0  0  0  0
  -21.7357  -26.0335   24.4870 C   0  0  0  0  0  0  0  0  0  0  0  0
  -23.9317  -25.3525   23.7449 C   0  0  0  0  0  0  0  0  0  0  0  0
  -22.5719  -28.5906   21.5909 C   0  0  0  0  0  0  0  0  0  0  0  0
  -21.9675  -24.2339   22.8917 C   0  0  0  0  0  0  0  0  0  0  0  0
  -26.1900   -9.1581   17.8823 C   0  0  0  0  0  0  0  0  0  0  0  0
  -25.0072  -15.6635   20.1013 C   0  0  0  0  0  0  0  0  0  0  0  0
  -23.1224  -26.1793   24.5240 C   0  0  0  0  0  0  0  0  0  0  0  0
  -23.5031  -17.6183   19.4500 C   0  0  0  0  0  0  0  0  0  0  0  0
  -29.9178  -26.6350   17.9566 C   0  0  0  0  0  0  0  0  0  0  0  0
  -24.1570  -29.3129   19.9100 C   0  0  0  0  0  0  0  0  0  0  0  0
  -28.7504  -26.6107   18.7433 C   0  0  0  0  0  0  0  0  0  0  0  0
  -23.7360  -29.2948   21.2473 C   0  0  0  0  0  0  0  0  0  0  0  0
  -21.1582  -25.0607   23.6709 C   0  0  0  0  0  0  0  0  0  0  0  0
  -23.3542  -24.3798   22.9287 C   0  0  0  0  0  0  0  0  0  0  0  0
  -25.5977  -12.9567   20.4282 C   0  0  0  0  0  0  0  0  0  0  0  0
  -21.8299  -27.9244   20.6159 C   0  0  0  0  0  0  0  0  0  0  0  0
  -25.5457  -10.7741   19.5587 C   0  0  0  0  0  0  0  0  0  0  0  0
  -24.8578   -9.0375   17.4867 C   0  0  0  0  0  0  0  0  0  0  0  0
  -26.5339  -10.0264   18.9184 C   0  0  0  0  0  0  0  0  0  0  0  0
  -24.7025  -17.0617   19.9332 C   0  0  0  0  0  0  0  0  0  0  0  0
  -23.7161  -18.9748   19.4835 C   0  0  0  0  0  0  0  0  0  0  0  0
  -18.8642  -24.7321   21.2475 C   0  0  0  0  0  0  0  0  0  0  0  0
  -23.7244  -27.1936   25.3751 C   0  0  0  0  0  0  0  0  0  0  0  0
  -22.3037  -16.9673   19.0104 C   0  0  0  0  0  0  0  0  0  0  0  0
  -27.1279  -29.0392   21.0067 C   0  0  0  0  0  0  0  0  0  0  0  0
  -26.3387  -31.7014   22.6836 C   0  0  0  0  0  0  0  0  0  0  0  0
  -23.8884  -33.6432   24.0520 C   0  0  0  0  0  0  0  0  0  0  0  0
  -25.5679  -23.5526   22.0559 C   0  0  0  0  0  0  0  0  0  0  0  0
  -31.1814  -27.3067   18.4327 C   0  0  0  0  0  0  0  0  0  0  0  0
  -25.3872  -30.0798   19.5089 C   0  0  0  0  0  0  0  0  0  0  0  0
  -24.5047  -30.0052   22.3304 C   0  0  0  0  0  0  0  0  0  0  0  0
  -18.2947  -25.6971   20.2367 C   0  0  0  0  0  0  0  0  0  0  0  0
  -30.9539  -28.2912   19.5770 C   0  0  0  0  0  0  0  0  0  0  0  0
  -17.8135  -26.8655   21.0921 C   0  0  0  0  0  0  0  0  0  0  0  0
  -27.9591  -21.6249   20.2550 C   0  0  0  0  0  0  0  0  0  0  0  0
  -30.0571  -27.6716   20.6440 C   0  0  0  0  0  0  0  0  0  0  0  0
  -27.2263  -20.3117   19.9710 C   0  0  0  0  0  0  0  0  0  0  0  0
  -27.6007  -22.1887   21.6288 C   0  0  0  0  0  0  0  0  0  0  0  0
  -25.4294  -21.0253   21.5984 C   0  0  0  0  0  0  0  0  0  0  0  0
  -28.6757  -27.3294   20.0729 C   0  0  1  0  0  0  0  0  0  0  0  0
  -26.3646  -30.2867   20.6619 C   0  0  1  0  0  0  0  0  0  0  0  0
  -25.7086  -20.4524   20.1993 C   0  0  2  0  0  0  0  0  0  0  0  0
  -18.7433  -26.8561   22.3016 C   0  0  2  0  0  0  0  0  0  0  0  0
  -23.5536  -35.7367   25.3946 C   0  0  0  0  0  0  0  0  0  0  0  0
  -27.2191  -30.2232   25.2035 C   0  0  0  0  0  0  0  0  0  0  0  0
  -26.0014  -31.9439   26.5543 C   0  0  0  0  0  0  0  0  0  0  0  0
  -27.9148  -32.6234   25.1052 C   0  0  0  0  0  0  0  0  0  0  0  0
  -22.3251  -34.9199   21.8875 C   0  0  0  0  0  0  0  0  0  0  0  0
  -19.6656  -24.9034   23.6310 C   0  0  0  0  0  0  0  0  0  0  0  0
  -19.9709  -27.7355   22.0870 C   0  0  0  0  0  0  0  0  0  1  0  0
  -25.7198  -31.9699   24.0341 C   0  0  1  0  0  0  0  0  0  0  0  0
  -23.6419  -35.1401   23.9985 C   0  0  2  0  0  0  0  0  0  0  0  0
  -26.7001  -31.6750   25.2044 C   0  0  0  0  0  0  0  0  0  0  0  0
  -25.6102  -17.9889   20.2502 N   0  0  0  0  0  0  0  0  0  0  0  0
  -24.9809  -19.1417   19.9656 N   0  0  0  0  0  0  0  0  0  0  0  0
  -19.0949  -25.4521   22.4178 N   0  0  0  0  0  0  0  0  0  0  0  0
  -25.7041  -30.7360   21.8891 N   0  0  0  0  0  0  0  0  0  0  0  0
  -26.1473  -22.2979   21.7717 N   0  0  0  0  0  0  0  0  0  0  0  0
  -22.9429  -20.0291   19.1472 N   0  0  0  0  0  0  0  0  0  0  0  0
  -22.8724  -27.9922   26.1324 N   0  0  0  0  0  0  0  0  0  0  0  0
  -22.2536  -15.5670   19.0415 N   0  0  0  0  0  0  0  0  0  0  0  0
  -24.1758  -23.5398   22.1367 N   0  0  0  0  0  0  0  0  0  0  0  0
  -27.8662  -28.5236   19.9585 N   0  0  0  0  0  0  0  0  0  0  0  0
  -25.2333  -33.3447   23.9942 N   0  0  0  0  0  0  0  0  0  0  0  0
  -22.3676  -35.4300   23.2822 N   0  3  0  0  0  0  0  0  0  0  0  0
  -19.0982  -23.5533   21.0261 O   0  0  0  0  0  0  0  0  0  0  0  0
  -24.9563  -27.3574   25.4160 O   0  0  0  0  0  0  0  0  0  0  0  0
  -21.3119  -17.6078   18.5865 O   0  0  0  0  0  0  0  0  0  0  0  0
  -27.0538  -28.5794   22.1401 O   0  0  0  0  0  0  0  0  0  0  0  0
  -27.3437  -32.3303   22.3432 O   0  0  0  0  0  0  0  0  0  0  0  0
  -22.9791  -32.8211   24.1403 O   0  0  0  0  0  0  0  0  0  0  0  0
  -26.2542  -24.5691   22.1890 O   0  0  0  0  0  0  0  0  0  0  0  0
  -25.8855  -11.6360   20.5880 O   0  0  0  0  0  0  0  0  0  0  0  0
  -20.7021  -27.2468   20.9632 O   0  0  0  0  0  0  0  0  0  1  0  0
  -24.5272   -8.2025   16.4928 F   0  0  0  0  0  0  0  0  0  0  0  0
  -27.8153  -10.1372   19.2948 F   0  0  0  0  0  0  0  0  0  0  0  0
  1  2  1  0  0  0  0
  1  5  2  0  0  0  0
  2  6  2  0  0  0  0
  3  8  2  0  0  0  0
  3 18  1  0  0  0  0
  4  9  1  0  0  0  0
  4 18  2  0  0  0  0
  5 21  1  0  0  0  0
  6 23  1  0  0  0  0
  7 10  2  0  0  0  0
  7 22  1  0  0  0  0
  8 27  1  0  0  0  0
  9 27  2  0  0  0  0
 10 28  1  0  0  0  0
 11 12  2  0  0  0  0
 11 29  1  0  0  0  0
 12 30  1  0  0  0  0
 13 19  1  0  0  0  0
 13 25  2  0  0  0  0
 14 19  2  0  0  0  0
 14 26  1  0  0  0  0
 15 24  1  0  0  0  0
 15 28  2  0  0  0  0
 16 25  1  0  0  0  0
 16 26  2  0  0  0  0
 17 30  2  0  0  0  0
 17 31  1  0  0  0  0
 18 32  1  0  0  0  0
 19 35  1  0  0  0  0
 20 32  1  0  0  0  0
 20 33  2  0  0  0  0
 20 36  1  0  0  0  0
 21 23  2  0  0  0  0
 21 41  1  0  0  0  0
 22 24  2  0  0  0  0
 22 42  1  0  0  0  0
 23 52  1  0  0  0  0
 24 43  1  0  0  0  0
 25 61  1  0  0  0  0
 26 74  1  0  0  0  0
 27 85  1  0  0  0  0
 28 86  1  0  0  0  0
 29 31  2  0  0  0  0
 29 85  1  0  0  0  0
 30 87  1  0  0  0  0
 31 88  1  0  0  0  0
 32 66  2  0  0  0  0
 33 67  1  0  0  0  0
 33 71  1  0  0  0  0
 34 44  1  0  0  0  0
 34 68  1  0  0  0  0
 34 78  2  0  0  0  0
 35 72  1  0  0  0  0
 35 79  2  0  0  0  0
 36 73  1  0  0  0  0
 36 80  2  0  0  0  0
 37 53  1  0  0  0  0
 37 75  1  0  0  0  0
 37 81  2  0  0  0  0
 38 63  1  0  0  0  0
 38 69  1  0  0  0  0
 38 82  2  0  0  0  0
 39 64  1  0  0  0  0
 39 76  1  0  0  0  0
 39 83  2  0  0  0  0
 40 70  1  0  0  0  0
 40 74  1  0  0  0  0
 40 84  2  0  0  0  0
 41 45  1  0  0  0  0
 42 53  1  0  0  0  0
 43 69  1  0  0  0  0
 44 46  1  0  0  0  0
 45 48  1  0  0  0  0
 46 55  1  0  0  0  0
 47 49  1  0  0  0  0
 47 50  1  0  0  0  0
 48 52  1  0  0  0  0
 49 54  1  0  0  0  0
 50 70  1  0  0  0  0
 51 54  1  0  0  0  0
 51 70  1  0  0  0  0
 52 75  1  0  0  0  0
 53 69  1  0  0  0  0
 54 67  1  0  0  0  0
 55 62  1  0  0  0  0
 55 68  1  0  0  0  0
 56 64  1  0  0  0  0
 57 65  1  0  0  0  0
 58 65  1  0  0  0  0
 59 65  1  0  0  0  0
 60 77  1  0  0  0  0
 61 68  1  0  0  0  0
 62 86  1  0  0  0  0
 63 65  1  0  0  0  0
 63 76  1  0  0  0  0
 64 77  1  0  0  0  0
 66 67  1  0  0  0  0
M  CHG  1  77   1
M  ISO  4  40 100  62 101  74 100  86 101
M  END
> <Batch ID>
0103

> <Smiles>
CNC(C)C(=O)NC(C(=O)N1Cc2cc([101O:1][101CH2:1]C3CCC(=O)N3Cc3cc([100NH:0][100C:0](=O)N4CCCC(n5nc(-c6ccc(Oc7ccc(F)cc7F)cc6)c(C(N)=O)c5N)C4)cc(C(N)=O)c3)ccc2CC1C(=O)NC1CCCc2ccccc21)C(C)(C)C

> <Shape>
0.242

> <Color>
0.071

> <Negative vol penalty>
0.000

$$$$

  -OEChem-04052301053D

 87 95  0     1  0  0  0  0  0999 V2000
  -24.9505  -32.6801   25.1696 C   0  0  0  0  0  0  0  0  0  0  0  0
  -25.5898  -31.7074   24.4076 C   0  0  0  0  0  0  0  0  0  0  0  0
  -22.7875  -10.4854   21.2780 C   0  0  0  0  0  0  0  0  0  0  0  0
  -24.6178   -8.9549   21.6585 C   0  0  0  0  0  0  0  0  0  0  0  0
  -23.8514  -33.3614   24.6483 C   0  0  0  0  0  0  0  0  0  0  0  0
  -25.1297  -31.4147   23.1243 C   0  0  0  0  0  0  0  0  0  0  0  0
  -28.8899  -31.0192   19.7554 C   0  0  0  0  0  0  0  0  0  0  0  0
  -21.8958   -9.4131   21.2543 C   0  0  0  0  0  0  0  0  0  0  0  0
  -23.7261   -7.8826   21.6348 C   0  0  0  0  0  0  0  0  0  0  0  0
  -29.6226  -29.8331   19.7554 C   0  0  0  0  0  0  0  0  0  0  0  0
  -21.8837   -4.7739   22.0344 C   0  0  0  0  0  0  0  0  0  0  0  0
  -22.0157   -3.7979   23.0221 C   0  0  0  0  0  0  0  0  0  0  0  0
  -28.7862  -20.6646   20.0849 C   0  0  0  0  0  0  0  0  0  0  0  0
  -28.3436  -29.0501   17.8659 C   0  0  0  0  0  0  0  0  0  0  0  0
  -26.4860  -19.7229   18.8180 C   0  0  0  0  0  0  0  0  0  0  0  0
  -21.6331   -5.4689   24.7246 C   0  0  0  0  0  0  0  0  0  0  0  0
  -24.1486  -10.2563   21.4800 C   0  0  0  0  0  0  0  0  0  0  0  0
  -28.5302  -19.2945   20.0325 C   0  0  0  0  0  0  0  0  0  0  0  0
  -25.4664  -12.1158   22.6260 C   0  0  0  0  0  0  0  0  0  0  0  0
  -23.3835  -33.0837   23.3542 C   0  0  0  0  0  0  0  0  0  0  0  0
  -27.8694  -31.2255   18.8159 C   0  0  0  0  0  0  0  0  0  0  0  0
  -24.0224  -32.0920   22.5857 C   0  0  0  0  0  0  0  0  0  0  0  0
  -27.6011  -30.2407   17.8545 C   0  0  0  0  0  0  0  0  0  0  0  0
  -27.8920  -21.5640   19.5040 C   0  0  0  0  0  0  0  0  0  0  0  0
  -22.3650   -8.1118   21.4328 C   0  0  0  0  0  0  0  0  0  0  0  0
  -29.3476  -28.8471   18.8123 C   0  0  0  0  0  0  0  0  0  0  0  0
  -21.6266   -6.0975   22.3918 C   0  0  0  0  0  0  0  0  0  0  0  0
  -27.3802  -18.8236   19.3990 C   0  0  0  0  0  0  0  0  0  0  0  0
  -21.8903   -4.1454   24.3672 C   0  0  0  0  0  0  0  0  0  0  0  0
  -26.7420  -21.0930   18.8705 C   0  0  0  0  0  0  0  0  0  0  0  0
  -21.5012   -6.4450   23.7368 C   0  0  0  0  0  0  0  0  0  0  0  0
  -25.0703  -11.3635   21.5040 C   0  0  0  0  0  0  0  0  0  0  0  0
  -26.3470  -13.0429   22.1244 C   0  0  0  0  0  0  0  0  0  0  0  0
  -29.4745  -18.3723   20.6477 C   0  0  0  0  0  0  0  0  0  0  0  0
  -25.0735  -11.9880   23.9990 C   0  0  0  0  0  0  0  0  0  0  0  0
  -24.7301  -31.6957   18.9808 C   0  0  0  0  0  0  0  0  0  0  0  0
  -29.3809  -25.0007   19.7957 C   0  0  0  0  0  0  0  0  0  0  0  0
  -25.0262  -32.1688   15.7854 C   0  0  0  0  0  0  0  0  0  0  0  0
  -26.8018  -31.6066   12.9256 C   0  0  0  0  0  0  0  0  0  0  0  0
  -27.6296  -16.8155   18.2097 C   0  0  0  0  0  0  0  0  0  0  0  0
  -22.1627  -33.8129   22.8517 C   0  0  0  0  0  0  0  0  0  0  0  0
  -27.1061  -32.5216   18.8124 C   0  0  0  0  0  0  0  0  0  0  0  0
  -26.5295  -30.4217   16.8116 C   0  0  0  0  0  0  0  0  0  0  0  0
  -21.9689  -33.7073   21.3412 C   0  0  0  0  0  0  0  0  0  0  0  0
  -28.5550  -13.3914   17.5955 C   0  0  0  0  0  0  0  0  0  0  0  0
  -22.1506  -32.2649   20.8793 C   0  0  0  0  0  0  0  0  0  0  0  0
  -27.7328  -12.6188   18.6266 C   0  0  0  0  0  0  0  0  0  0  0  0
  -27.8002  -14.6125   17.0797 C   0  0  0  0  0  0  0  0  0  0  0  0
  -26.5165  -14.7680   19.1964 C   0  0  0  0  0  0  0  0  0  0  0  0
  -23.5682  -31.7637   21.1800 C   0  0  1  0  0  0  0  0  0  0  0  0
  -25.7443  -32.4111   18.1338 C   0  0  1  0  0  0  0  0  0  0  0  0
  -27.2585  -13.5444   19.7612 C   0  0  1  0  0  0  0  0  0  0  0  0
  -26.7751  -32.0898   10.4633 C   0  0  0  0  0  0  0  0  0  0  0  0
  -22.8487  -30.0666   15.3989 C   0  0  0  0  0  0  0  0  0  0  0  0
  -23.5287  -29.9049   12.9948 C   0  0  0  0  0  0  0  0  0  0  0  0
  -22.6535  -32.0586   13.8995 C   0  0  0  0  0  0  0  0  0  0  0  0
  -29.3741  -33.0634   13.0658 C   0  0  0  0  0  0  0  0  0  0  0  0
  -30.7024  -25.7184   20.0363 C   0  0  0  0  0  0  0  0  0  0  0  0
  -29.4540  -23.4869   19.8006 C   0  0  0  0  0  0  0  0  0  0  0  0
  -30.5633  -27.2328   20.0661 C   0  0  0  0  0  0  0  0  0  1  0  0
  -24.9667  -31.2840   14.5636 C   0  0  1  0  0  0  0  0  0  0  0  0
  -27.2673  -32.5462   11.8279 C   0  0  2  0  0  0  0  0  0  0  0  0
  -23.5184  -30.8240   14.2350 C   0  0  0  0  0  0  0  0  0  0  0  0
  -25.6515  -11.7770   20.3747 N   0  0  0  0  0  0  0  0  0  0  0  0
  -26.4217  -12.7993   20.7846 N   0  0  0  0  0  0  0  0  0  0  0  0
  -25.8065  -31.7035   16.8533 N   0  0  0  0  0  0  0  0  0  0  0  0
  -27.3331  -15.4489   18.1844 N   0  0  0  0  0  0  0  0  0  0  0  0
  -27.0569  -14.0346   22.7032 N   0  0  0  0  0  0  0  0  0  0  0  0
  -29.2742  -18.0384   21.9831 N   0  0  0  0  0  0  0  0  0  0  0  0
  -24.1599  -10.9818   24.3416 N   0  0  0  0  0  0  0  0  0  0  0  0
  -28.1489  -22.9261   19.5577 N   0  0  0  0  0  0  0  0  0  0  0  0
  -24.5058  -32.2868   20.2095 N   0  0  0  0  0  0  0  0  0  0  0  0
  -25.6158  -32.0275   13.4893 N   0  0  0  0  0  0  0  0  0  0  0  0
  -28.7560  -32.6065   11.7945 N   0  3  0  0  0  0  0  0  0  0  0  0
  -30.4363  -17.9112   20.0102 O   0  0  0  0  0  0  0  0  0  0  0  0
  -25.5067  -12.7541   24.8928 O   0  0  0  0  0  0  0  0  0  0  0  0
  -24.1900  -30.6832   18.5508 O   0  0  0  0  0  0  0  0  0  0  0  0
  -28.3279  -25.6086   19.6085 O   0  0  0  0  0  0  0  0  0  0  0  0
  -24.4090  -33.2368   15.7892 O   0  0  0  0  0  0  0  0  0  0  0  0
  -27.4257  -30.5980   13.2481 O   0  0  0  0  0  0  0  0  0  0  0  0
  -28.2789  -17.3990   17.3426 O   0  0  0  0  0  0  0  0  0  0  0  0
  -21.4951   -7.0652   21.4100 O   0  0  0  0  0  0  0  0  0  0  0  0
  -27.1048  -17.4538   19.3370 O   0  0  0  0  0  0  0  0  0  0  0  0
  -30.0609  -27.6882   18.8105 O   0  0  0  0  0  0  0  0  0  1  0  0
  -22.0155   -3.2077   25.3155 F   0  0  0  0  0  0  0  0  0  0  0  0
  -25.8768  -21.9488   18.3081 F   0  0  0  0  0  0  0  0  0  0  0  0
  -21.2530   -7.7147   24.0862 F   0  0  0  0  0  0  0  0  0  0  0  0
  1  2  1  0  0  0  0
  1  5  2  0  0  0  0
  2  6  2  0  0  0  0
  3  8  2  0  0  0  0
  3 17  1  0  0  0  0
  4  9  1  0  0  0  0
  4 17  2  0  0  0  0
  5 20  1  0  0  0  0
  6 22  1  0  0  0  0
  7 10  2  0  0  0  0
  7 21  1  0  0  0  0
  8 25  1  0  0  0  0
  9 25  2  0  0  0  0
 10 26  1  0  0  0  0
 11 12  2  0  0  0  0
 11 27  1  0  0  0  0
 12 29  1  0  0  0  0
 13 18  2  0  0  0  0
 13 24  1  0  0  0  0
 14 23  1  0  0  0  0
 14 26  2  0  0  0  0
 15 28  2  0  0  0  0
 15 30  1  0  0  0  0
 16 29  2  0  0  0  0
 16 31  1  0  0  0  0
 17 32  1  0  0  0  0
 18 28  1  0  0  0  0
 18 34  1  0  0  0  0
 19 32  1  0  0  0  0
 19 33  2  0  0  0  0
 19 35  1  0  0  0  0
 20 22  2  0  0  0  0
 20 41  1  0  0  0  0
 21 23  2  0  0  0  0
 21 42  1  0  0  0  0
 22 50  1  0  0  0  0
 23 43  1  0  0  0  0
 24 30  2  0  0  0  0
 24 71  1  0  0  0  0
 25 82  1  0  0  0  0
 26 84  1  0  0  0  0
 27 31  2  0  0  0  0
 27 82  1  0  0  0  0
 28 83  1  0  0  0  0
 29 85  1  0  0  0  0
 30 86  1  0  0  0  0
 31 87  1  0  0  0  0
 32 64  2  0  0  0  0
 33 65  1  0  0  0  0
 33 68  1  0  0  0  0
 34 69  1  0  0  0  0
 34 75  2  0  0  0  0
 35 70  1  0  0  0  0
 35 76  2  0  0  0  0
 36 51  1  0  0  0  0
 36 72  1  0  0  0  0
 36 77  2  0  0  0  0
 37 58  1  0  0  0  0
 37 59  1  0  0  0  0
 37 78  2  0  0  0  0
 38 61  1  0  0  0  0
 38 66  1  0  0  0  0
 38 79  2  0  0  0  0
 39 62  1  0  0  0  0
 39 73  1  0  0  0  0
 39 80  2  0  0  0  0
 40 67  1  0  0  0  0
 40 81  2  0  0  0  0
 40 83  1  0  0  0  0
 41 44  1  0  0  0  0
 42 51  1  0  0  0  0
 43 66  1  0  0  0  0
 44 46  1  0  0  0  0
 45 47  1  0  0  0  0
 45 48  1  0  0  0  0
 46 50  1  0  0  0  0
 47 52  1  0  0  0  0
 48 67  1  0  0  0  0
 49 52  1  0  0  0  0
 49 67  1  0  0  0  0
 50 72  1  0  0  0  0
 51 66  1  0  0  0  0
 52 65  1  0  0  0  0
 53 62  1  0  0  0  0
 54 63  1  0  0  0  0
 55 63  1  0  0  0  0
 56 63  1  0  0  0  0
 57 74  1  0  0  0  0
 58 60  1  0  0  0  0
 59 71  1  0  0  0  0
 60 84  1  0  0  0  0
 61 63  1  0  0  0  0
 61 73  1  0  0  0  0
 62 74  1  0  0  0  0
 64 65  1  0  0  0  0
M  CHG  1  74   1
M  ISO  4  40 100  60 101  83 100  84 101
M  END
> <Batch ID>
0103

> <Smiles>
CNC(C)C(=O)NC(C(=O)N1Cc2cc([101O:1][101CH2:1]CC(=O)CNc3cc(C(N)=O)c([100O:0][100C:0](=O)N4CCCC(n5nc(-c6ccc(Oc7ccc(F)cc7F)cc6)c(C(N)=O)c5N)C4)cc3F)ccc2CC1C(=O)NC1CCCc2ccccc21)C(C)(C)C

> <Shape>
0.242

> <Color>
0.100

> <Negative vol penalty>
0.000

$$$$

  -OEChem-04052301053D

 90 99  0     1  0  0  0  0  0999 V2000
  -21.6340  -21.2249   11.7642 C   0  0  0  0  0  0  0  0  0  0  0  0
  -21.8401  -20.0757   12.5207 C   0  0  0  0  0  0  0  0  0  0  0  0
  -26.9926  -29.3220   19.7134 C   0  0  0  0  0  0  0  0  0  0  0  0
  -26.0193  -27.3464   20.7067 C   0  0  0  0  0  0  0  0  0  0  0  0
  -21.7201  -22.4794   12.3665 C   0  0  0  0  0  0  0  0  0  0  0  0
  -22.1334  -20.1805   13.8799 C   0  0  0  0  0  0  0  0  0  0  0  0
  -20.4017  -16.3418   18.3264 C   0  0  0  0  0  0  0  0  0  0  0  0
  -25.7250  -29.8948   19.6105 C   0  0  0  0  0  0  0  0  0  0  0  0
  -24.7516  -27.9192   20.6040 C   0  0  0  0  0  0  0  0  0  0  0  0
  -21.0592  -15.2943   18.9700 C   0  0  0  0  0  0  0  0  0  0  0  0
  -22.9125  -30.2102   22.2742 C   0  0  0  0  0  0  0  0  0  0  0  0
  -22.0681  -30.1144   23.3802 C   0  0  0  0  0  0  0  0  0  0  0  0
  -28.5332  -15.3031   21.3490 C   0  0  0  0  0  0  0  0  0  0  0  0
  -28.3430  -15.1767   18.9439 C   0  0  0  0  0  0  0  0  0  0  0  0
  -21.6839  -16.7914   20.7554 C   0  0  0  0  0  0  0  0  0  0  0  0
  -20.4540  -28.9120   22.0438 C   0  0  0  0  0  0  0  0  0  0  0  0
  -27.1398  -28.0477   20.2614 C   0  0  0  0  0  0  0  0  0  0  0  0
  -28.2504  -14.5701   20.1965 C   0  0  0  0  0  0  0  0  0  0  0  0
  -29.5534  -27.9563   21.0820 C   0  0  0  0  0  0  0  0  0  0  0  0
  -22.0051  -22.5992   13.7358 C   0  0  0  0  0  0  0  0  0  0  0  0
  -20.3897  -17.6266   18.8880 C   0  0  0  0  0  0  0  0  0  0  0  0
  -22.2247  -21.4378   14.5008 C   0  0  0  0  0  0  0  0  0  0  0  0
  -21.0234  -17.8529   20.1181 C   0  0  0  0  0  0  0  0  0  0  0  0
  -28.9085  -16.6428   21.2489 C   0  0  0  0  0  0  0  0  0  0  0  0
  -24.6045  -29.1935   20.0559 C   0  0  0  0  0  0  0  0  0  0  0  0
  -21.7029  -15.5197   20.1833 C   0  0  0  0  0  0  0  0  0  0  0  0
  -22.5276  -29.6570   21.0529 C   0  0  0  0  0  0  0  0  0  0  0  0
  -29.0010  -17.2495   19.9963 C   0  0  0  0  0  0  0  0  0  0  0  0
  -20.8388  -29.4653   23.2651 C   0  0  0  0  0  0  0  0  0  0  0  0
  -28.7182  -16.5164   18.8438 C   0  0  0  0  0  0  0  0  0  0  0  0
  -21.2984  -29.0079   20.9377 C   0  0  0  0  0  0  0  0  0  0  0  0
  -28.4489  -27.4553   20.3674 C   0  0  0  0  0  0  0  0  0  0  0  0
  -30.5482  -27.0338   20.8677 C   0  0  0  0  0  0  0  0  0  0  0  0
  -25.3673  -13.7633   20.4793 C   0  0  0  0  0  0  0  0  0  0  0  0
  -27.8549  -13.1588   20.3013 C   0  0  0  0  0  0  0  0  0  0  0  0
  -29.6699  -29.1489   21.8693 C   0  0  0  0  0  0  0  0  0  0  0  0
  -21.4672  -20.4783   17.9877 C   0  0  0  0  0  0  0  0  0  0  0  0
  -30.2746  -21.2534   19.5307 C   0  0  0  0  0  0  0  0  0  0  0  0
  -19.9169  -21.4741   20.6574 C   0  0  0  0  0  0  0  0  0  0  0  0
  -18.6689  -20.7060   23.7395 C   0  0  0  0  0  0  0  0  0  0  0  0
  -22.1345  -23.9784   14.3323 C   0  0  0  0  0  0  0  0  0  0  0  0
  -19.6533  -18.7397   18.1944 C   0  0  0  0  0  0  0  0  0  0  0  0
  -21.0224  -19.2092   20.7730 C   0  0  0  0  0  0  0  0  0  0  0  0
  -22.0798  -23.9897   15.8578 C   0  0  0  0  0  0  0  0  0  0  0  0
  -32.0602  -23.8198   17.6727 C   0  0  0  0  0  0  0  0  0  0  0  0
  -22.9810  -22.9015   16.4325 C   0  0  0  0  0  0  0  0  0  0  0  0
  -31.4074  -25.0939   18.2069 C   0  0  0  0  0  0  0  0  0  0  0  0
  -24.5642  -11.5615   20.0978 C   0  0  0  0  0  0  0  0  0  0  0  0
  -31.0564  -22.6741   17.5731 C   0  0  0  0  0  0  0  0  0  0  0  0
  -26.0333  -11.4968   20.4522 C   0  0  0  0  0  0  0  0  0  0  0  0
  -29.6934  -23.6543   19.3913 C   0  0  0  0  0  0  0  0  0  0  0  0
  -22.5205  -21.5095   15.9832 C   0  0  1  0  0  0  0  0  0  0  0  0
  -24.1302  -12.9044   20.6710 C   0  0  2  0  0  0  0  0  0  0  0  0
  -20.1426  -20.1256   18.6031 C   0  0  1  0  0  0  0  0  0  0  0  0
  -30.6793  -24.8256   19.5357 C   0  0  2  0  0  0  0  0  0  0  0  0
  -29.2076  -17.4124   22.4932 C   0  0  0  0  0  0  0  0  0  0  0  0
  -17.4904  -21.7370   25.7005 C   0  0  0  0  0  0  0  0  0  0  0  0
  -22.5270  -22.7916   21.5302 C   0  0  0  0  0  0  0  0  0  0  0  0
  -21.5855  -22.9634   23.8437 C   0  0  0  0  0  0  0  0  0  0  0  0
  -20.4758  -24.1576   21.9556 C   0  0  0  0  0  0  0  0  0  0  0  0
  -16.3395  -18.9062   23.4338 C   0  0  0  0  0  0  0  0  0  0  0  0
  -30.9500  -20.0679   18.8886 C   0  0  0  0  0  0  0  0  0  0  0  0
  -22.9005  -13.4741   19.9898 C   0  0  0  0  0  0  0  0  0  1  0  0
  -30.7594  -18.8315   19.7493 C   0  0  0  0  0  0  0  0  0  0  0  0
  -20.2898  -21.6410   22.1107 C   0  0  1  0  0  0  0  0  0  0  0  0
  -17.3249  -20.9959   24.3829 C   0  0  2  0  0  0  0  0  0  0  0  0
  -21.2214  -22.8632   22.3470 C   0  0  0  0  0  0  0  0  0  0  0  0
  -28.7164  -26.3039   19.7454 N   0  0  0  0  0  0  0  0  0  0  0  0
  -30.0004  -26.0738   20.0685 N   0  0  0  0  0  0  0  0  0  0  0  0
  -26.4828  -12.8771   20.4243 N   0  0  0  0  0  0  0  0  0  0  0  0
  -20.2942  -20.2667   20.0527 N   0  0  0  0  0  0  0  0  0  0  0  0
  -30.3646  -22.4685   18.8512 N   0  0  0  0  0  0  0  0  0  0  0  0
  -31.8293  -26.9582   21.2866 N   0  0  0  0  0  0  0  0  0  0  0  0
  -29.3610  -29.0810   23.2347 N   0  0  0  0  0  0  0  0  0  0  0  0
  -21.3689  -21.0861   16.7506 N   0  0  0  0  0  0  0  0  0  0  0  0
  -19.0337  -21.6951   22.8508 N   0  0  0  0  0  0  0  0  0  0  0  0
  -16.5922  -19.7253   24.6471 N   0  3  0  0  0  0  0  0  0  0  0  0
  -25.3608  -14.9842   20.4195 O   0  0  0  0  0  0  0  0  0  0  0  0
  -28.7508  -12.3176   20.2623 O   0  0  0  0  0  0  0  0  0  0  0  0
  -30.0211  -30.2462   21.3732 O   0  0  0  0  0  0  0  0  0  0  0  0
  -22.5019  -20.2196   18.5913 O   0  0  0  0  0  0  0  0  0  0  0  0
  -29.6874  -21.1026   20.6052 O   0  0  0  0  0  0  0  0  0  0  0  0
  -19.3069  -22.3788   20.0819 O   0  0  0  0  0  0  0  0  0  0  0  0
  -19.3308  -19.7042   24.0020 O   0  0  0  0  0  0  0  0  0  0  0  0
  -23.3674  -29.7522   19.9559 O   0  0  0  0  0  0  0  0  0  0  0  0
  -22.3459  -14.4992   20.8133 O   0  0  0  0  0  0  0  0  0  1  0  0
  -29.3662  -18.5572   19.8819 O   0  0  0  0  0  0  0  0  0  0  0  0
  -20.0287  -29.3720   24.3277 F   0  0  0  0  0  0  0  0  0  0  0  0
  -28.8055  -17.0933   17.6371 F   0  0  0  0  0  0  0  0  0  0  0  0
  -20.9237  -28.4734   19.7673 F   0  0  0  0  0  0  0  0  0  0  0  0
  1  2  1  0  0  0  0
  1  5  2  0  0  0  0
  2  6  2  0  0  0  0
  3  8  2  0  0  0  0
  3 17  1  0  0  0  0
  4  9  1  0  0  0  0
  4 17  2  0  0  0  0
  5 20  1  0  0  0  0
  6 22  1  0  0  0  0
  7 10  2  0  0  0  0
  7 21  1  0  0  0  0
  8 25  1  0  0  0  0
  9 25  2  0  0  0  0
 10 26  1  0  0  0  0
 11 12  2  0  0  0  0
 11 27  1  0  0  0  0
 12 29  1  0  0  0  0
 13 18  1  0  0  0  0
 13 24  2  0  0  0  0
 14 18  2  0  0  0  0
 14 30  1  0  0  0  0
 15 23  1  0  0  0  0
 15 26  2  0  0  0  0
 16 29  2  0  0  0  0
 16 31  1  0  0  0  0
 17 32  1  0  0  0  0
 18 35  1  0  0  0  0
 19 32  1  0  0  0  0
 19 33  2  0  0  0  0
 19 36  1  0  0  0  0
 20 22  2  0  0  0  0
 20 41  1  0  0  0  0
 21 23  2  0  0  0  0
 21 42  1  0  0  0  0
 22 52  1  0  0  0  0
 23 43  1  0  0  0  0
 24 28  1  0  0  0  0
 24 56  1  0  0  0  0
 25 85  1  0  0  0  0
 26 86  1  0  0  0  0
 27 31  2  0  0  0  0
 27 85  1  0  0  0  0
 28 30  2  0  0  0  0
 28 87  1  0  0  0  0
 29 88  1  0  0  0  0
 30 89  1  0  0  0  0
 31 90  1  0  0  0  0
 32 68  2  0  0  0  0
 33 69  1  0  0  0  0
 33 73  1  0  0  0  0
 34 53  1  0  0  0  0
 34 70  1  0  0  0  0
 34 78  2  0  0  0  0
 35 70  1  0  0  0  0
 35 79  2  0  0  0  0
 36 74  1  0  0  0  0
 36 80  2  0  0  0  0
 37 54  1  0  0  0  0
 37 75  1  0  0  0  0
 37 81  2  0  0  0  0
 38 62  1  0  0  0  0
 38 72  1  0  0  0  0
 38 82  2  0  0  0  0
 39 65  1  0  0  0  0
 39 71  1  0  0  0  0
 39 83  2  0  0  0  0
 40 66  1  0  0  0  0
 40 76  1  0  0  0  0
 40 84  2  0  0  0  0
 41 44  1  0  0  0  0
 42 54  1  0  0  0  0
 43 71  1  0  0  0  0
 44 46  1  0  0  0  0
 45 47  1  0  0  0  0
 45 49  1  0  0  0  0
 46 52  1  0  0  0  0
 47 55  1  0  0  0  0
 48 50  1  0  0  0  0
 48 53  1  0  0  0  0
 49 72  1  0  0  0  0
 50 70  1  0  0  0  0
 51 55  1  0  0  0  0
 51 72  1  0  0  0  0
 52 75  1  0  0  0  0
 53 63  1  0  0  0  0
 54 71  1  0  0  0  0
 55 69  1  0  0  0  0
 57 66  1  0  0  0  0
 58 67  1  0  0  0  0
 59 67  1  0  0  0  0
 60 67  1  0  0  0  0
 61 77  1  0  0  0  0
 62 64  1  0  0  0  0
 63 86  1  0  0  0  0
 64 87  1  0  0  0  0
 65 67  1  0  0  0  0
 65 76  1  0  0  0  0
 66 77  1  0  0  0  0
 68 69  1  0  0  0  0
M  CHG  1  77   1
M  ISO  4  38 100  62 100  63 101  86 101
M  END
> <Batch ID>
0103

> <Smiles>
CNC(C)C(=O)NC(C(=O)N1Cc2cc([101O:1][101CH2:1]C3CCN(C(=O)c4cc(C)c(OC[100CH2:0][100C:0](=O)N5CCCC(n6nc(-c7ccc(Oc8ccc(F)cc8F)cc7)c(C(N)=O)c6N)C5)c(F)c4)C3=O)ccc2CC1C(=O)NC1CCCc2ccccc21)C(C)(C)C

> <Shape>
0.229

> <Color>
0.096

> <Negative vol penalty>
0.000

$$$$

  -OEChem-04052301053D

 84 92  0     1  0  0  0  0  0999 V2000
  -20.3111  -10.1619   23.7747 C   0  0  0  0  0  0  0  0  0  0  0  0
  -21.2623  -11.1547   23.9868 C   0  0  0  0  0  0  0  0  0  0  0  0
  -26.0444  -27.5255   21.1580 C   0  0  0  0  0  0  0  0  0  0  0  0
  -26.3431  -28.1843   18.8528 C   0  0  0  0  0  0  0  0  0  0  0  0
  -20.5420   -9.1684   22.8242 C   0  0  0  0  0  0  0  0  0  0  0  0
  -22.4456  -11.1539   23.2490 C   0  0  0  0  0  0  0  0  0  0  0  0
  -23.6588  -15.7557   21.5180 C   0  0  0  0  0  0  0  0  0  0  0  0
  -30.8604  -22.4556   22.9920 C   0  0  0  0  0  0  0  0  0  0  0  0
  -29.6629  -23.9110   24.5037 C   0  0  0  0  0  0  0  0  0  0  0  0
  -31.8754  -23.4058   22.8812 C   0  0  0  0  0  0  0  0  0  0  0  0
  -30.6780  -24.8613   24.3928 C   0  0  0  0  0  0  0  0  0  0  0  0
  -25.1427  -28.5739   21.3408 C   0  0  0  0  0  0  0  0  0  0  0  0
  -25.4413  -29.2327   19.0355 C   0  0  0  0  0  0  0  0  0  0  0  0
  -24.2329  -16.6460   22.4243 C   0  0  0  0  0  0  0  0  0  0  0  0
  -25.2753  -31.9136   21.8443 C   0  0  0  0  0  0  0  0  0  0  0  0
  -25.4072  -32.6872   22.9973 C   0  0  0  0  0  0  0  0  0  0  0  0
  -26.4153  -16.1396   21.5300 C   0  0  0  0  0  0  0  0  0  0  0  0
  -23.1690  -32.0711   23.6668 C   0  0  0  0  0  0  0  0  0  0  0  0
  -26.6447  -27.3307   19.9140 C   0  0  0  0  0  0  0  0  0  0  0  0
  -27.2820  -24.9353   19.3111 C   0  0  0  0  0  0  0  0  0  0  0  0
  -21.7245   -9.1609   22.0676 C   0  0  0  0  0  0  0  0  0  0  0  0
  -24.4610  -15.0413   20.6166 C   0  0  0  0  0  0  0  0  0  0  0  0
  -22.6932  -10.1586   22.2884 C   0  0  0  0  0  0  0  0  0  0  0  0
  -25.8487  -15.2428   20.6114 C   0  0  0  0  0  0  0  0  0  0  0  0
  -29.7541  -22.7082   23.8032 C   0  0  0  0  0  0  0  0  0  0  0  0
  -31.7843  -24.6086   23.5816 C   0  0  0  0  0  0  0  0  0  0  0  0
  -24.8411  -29.4275   20.2796 C   0  0  0  0  0  0  0  0  0  0  0  0
  -25.6117  -16.8359   22.4324 C   0  0  0  0  0  0  0  0  0  0  0  0
  -24.0902  -31.2187   21.6024 C   0  0  0  0  0  0  0  0  0  0  0  0
  -24.3541  -32.7660   23.9086 C   0  0  0  0  0  0  0  0  0  0  0  0
  -23.0371  -31.2975   22.5136 C   0  0  0  0  0  0  0  0  0  0  0  0
  -27.5766  -26.2483   19.7247 C   0  0  0  0  0  0  0  0  0  0  0  0
  -28.5002  -24.3014   19.2869 C   0  0  0  0  0  0  0  0  0  0  0  0
  -26.0199  -24.3418   18.9784 C   0  0  0  0  0  0  0  0  0  0  0  0
  -25.0652  -11.9630   20.1043 C   0  0  0  0  0  0  0  0  0  0  0  0
  -27.5031  -19.7146   23.5720 C   0  0  0  0  0  0  0  0  0  0  0  0
  -26.7102  -13.1110   17.5550 C   0  0  0  0  0  0  0  0  0  0  0  0
  -28.3623  -15.7253   16.1118 C   0  0  0  0  0  0  0  0  0  0  0  0
  -33.6223  -25.7481   22.3109 C   0  0  0  0  0  0  0  0  0  0  0  0
  -21.9505   -8.0394   21.0849 C   0  0  0  0  0  0  0  0  0  0  0  0
  -23.8237  -14.1047   19.6272 C   0  0  0  0  0  0  0  0  0  0  0  0
  -26.7520  -14.5155   19.6505 C   0  0  0  0  0  0  0  0  0  0  0  0
  -23.0644   -8.3246   20.0808 C   0  0  0  0  0  0  0  0  0  0  0  0
  -33.1693  -25.1326   18.6903 C   0  0  0  0  0  0  0  0  0  0  0  0
  -24.2952   -8.8781   20.7918 C   0  0  0  0  0  0  0  0  0  0  0  0
  -31.6656  -25.3220   18.4995 C   0  0  0  0  0  0  0  0  0  0  0  0
  -33.7032  -25.9702   19.8484 C   0  0  0  0  0  0  0  0  0  0  0  0
  -31.4831  -25.9154   20.9482 C   0  0  0  0  0  0  0  0  0  0  0  0
  -23.9782  -10.2058   21.4905 C   0  0  1  0  0  0  0  0  0  0  0  0
  -24.7873  -13.0459   19.1004 C   0  0  1  0  0  0  0  0  0  0  0  0
  -30.9138  -25.0511   19.8131 C   0  0  1  0  0  0  0  0  0  0  0  0
  -34.1926  -25.4057   25.5136 C   0  0  0  0  0  0  0  0  0  0  0  0
  -29.6322  -16.3503   14.0396 C   0  0  0  0  0  0  0  0  0  0  0  0
  -29.1229  -11.5381   18.5622 C   0  0  0  0  0  0  0  0  0  0  0  0
  -30.5658  -12.9194   17.0528 C   0  0  0  0  0  0  0  0  0  0  0  0
  -28.7879  -11.4616   16.0850 C   0  0  0  0  0  0  0  0  0  0  0  0
  -26.4225  -17.8522   15.4246 C   0  0  0  0  0  0  0  0  0  0  0  0
  -28.7518  -20.4974   23.2257 C   0  0  0  0  0  0  0  0  0  0  0  0
  -27.3771  -18.3561   22.9101 C   0  0  0  0  0  0  0  0  0  1  0  0
  -33.2685  -26.2738   24.6837 C   0  0  0  0  0  0  0  0  0  0  0  0
  -28.1287  -13.5691   17.3163 C   0  0  1  0  0  0  0  0  0  0  0  0
  -28.2732  -16.3291   14.7219 C   0  0  2  0  0  0  0  0  0  0  0  0
  -29.1348  -12.3844   17.2736 C   0  0  0  0  0  0  0  0  0  0  0  0
  -28.8798  -26.4386   19.9473 N   0  0  0  0  0  0  0  0  0  0  0  0
  -29.4148  -25.2367   19.6727 N   0  0  0  0  0  0  0  0  0  0  0  0
  -26.0819  -13.6056   18.7068 N   0  0  0  0  0  0  0  0  0  0  0  0
  -32.9398  -25.7467   21.0771 N   0  0  0  0  0  0  0  0  0  0  0  0
  -28.8675  -23.0408   18.9734 N   0  0  0  0  0  0  0  0  0  0  0  0
  -24.8672  -25.1352   19.0566 N   0  0  0  0  0  0  0  0  0  0  0  0
  -28.7433  -21.7638   23.9122 N   0  0  0  0  0  0  0  0  0  0  0  0
  -23.9376  -11.2862   20.5284 N   0  0  0  0  0  0  0  0  0  0  0  0
  -28.0988  -14.3719   16.0985 N   0  0  0  0  0  0  0  0  0  0  0  0
  -32.8341  -25.5913   23.4669 N   0  0  0  0  0  0  0  0  0  0  0  0
  -27.7629  -17.7273   14.7963 N   0  3  0  0  0  0  0  0  0  0  0  0
  -25.9154  -23.1390   18.6383 O   0  0  0  0  0  0  0  0  0  0  0  0
  -26.2175  -11.7558   20.4661 O   0  0  0  0  0  0  0  0  0  0  0  0
  -26.6408  -20.1424   24.3382 O   0  0  0  0  0  0  0  0  0  0  0  0
  -26.1767  -12.3482   16.7456 O   0  0  0  0  0  0  0  0  0  0  0  0
  -28.6415  -16.3872   17.1090 O   0  0  0  0  0  0  0  0  0  0  0  0
  -34.8436  -25.9322   22.3830 O   0  0  0  0  0  0  0  0  0  0  0  0
  -23.9611  -30.4504   20.4575 O   0  0  0  0  0  0  0  0  0  0  0  0
  -26.1747  -17.7038   23.3165 O   0  0  0  0  0  0  0  0  0  1  0  0
  -24.4815  -33.5078   25.0167 F   0  0  0  0  0  0  0  0  0  0  0  0
  -21.8966  -30.6312   22.2873 F   0  0  0  0  0  0  0  0  0  0  0  0
  1  2  1  0  0  0  0
  1  5  2  0  0  0  0
  2  6  2  0  0  0  0
  3 12  2  0  0  0  0
  3 19  1  0  0  0  0
  4 13  1  0  0  0  0
  4 19  2  0  0  0  0
  5 21  1  0  0  0  0
  6 23  1  0  0  0  0
  7 14  2  0  0  0  0
  7 22  1  0  0  0  0
  8 10  2  0  0  0  0
  8 25  1  0  0  0  0
  9 11  1  0  0  0  0
  9 25  2  0  0  0  0
 10 26  1  0  0  0  0
 11 26  2  0  0  0  0
 12 27  1  0  0  0  0
 13 27  2  0  0  0  0
 14 28  1  0  0  0  0
 15 16  2  0  0  0  0
 15 29  1  0  0  0  0
 16 30  1  0  0  0  0
 17 24  1  0  0  0  0
 17 28  2  0  0  0  0
 18 30  2  0  0  0  0
 18 31  1  0  0  0  0
 19 32  1  0  0  0  0
 20 32  1  0  0  0  0
 20 33  2  0  0  0  0
 20 34  1  0  0  0  0
 21 23  2  0  0  0  0
 21 40  1  0  0  0  0
 22 24  2  0  0  0  0
 22 41  1  0  0  0  0
 23 49  1  0  0  0  0
 24 42  1  0  0  0  0
 25 70  1  0  0  0  0
 26 73  1  0  0  0  0
 27 81  1  0  0  0  0
 28 82  1  0  0  0  0
 29 31  2  0  0  0  0
 29 81  1  0  0  0  0
 30 83  1  0  0  0  0
 31 84  1  0  0  0  0
 32 64  2  0  0  0  0
 33 65  1  0  0  0  0
 33 68  1  0  0  0  0
 34 69  1  0  0  0  0
 34 75  2  0  0  0  0
 35 50  1  0  0  0  0
 35 71  1  0  0  0  0
 35 76  2  0  0  0  0
 36 58  1  0  0  0  0
 36 59  1  0  0  0  0
 36 77  2  0  0  0  0
 37 61  1  0  0  0  0
 37 66  1  0  0  0  0
 37 78  2  0  0  0  0
 38 62  1  0  0  0  0
 38 72  1  0  0  0  0
 38 79  2  0  0  0  0
 39 67  1  0  0  0  0
 39 73  1  0  0  0  0
 39 80  2  0  0  0  0
 40 43  1  0  0  0  0
 41 50  1  0  0  0  0
 42 66  1  0  0  0  0
 43 45  1  0  0  0  0
 44 46  1  0  0  0  0
 44 47  1  0  0  0  0
 45 49  1  0  0  0  0
 46 51  1  0  0  0  0
 47 67  1  0  0  0  0
 48 51  1  0  0  0  0
 48 67  1  0  0  0  0
 49 71  1  0  0  0  0
 50 66  1  0  0  0  0
 51 65  1  0  0  0  0
 52 60  1  0  0  0  0
 53 62  1  0  0  0  0
 54 63  1  0  0  0  0
 55 63  1  0  0  0  0
 56 63  1  0  0  0  0
 57 74  1  0  0  0  0
 58 70  1  0  0  0  0
 59 82  1  0  0  0  0
 60 73  1  0  0  0  0
 61 63  1  0  0  0  0
 61 72  1  0  0  0  0
 62 74  1  0  0  0  0
 64 65  1  0  0  0  0
M  CHG  1  74   1
M  ISO  4  39 100  59 101  73 100  82 101
M  END
> <Batch ID>
0103

> <Smiles>
CC[100N:0](c1ccc(NCC(=O)[101CH2:1][101O:1]c2ccc3c(c2)CN(C(=O)C(NC(=O)C(C)NC)C(C)(C)C)C(C(=O)NC2CCCc4ccccc42)C3)cc1)[100C:0](=O)N1CCCC(n2nc(-c3ccc(Oc4ccc(F)cc4F)cc3)c(C(N)=O)c2N)C1

> <Shape>
0.202

> <Color>
0.088

> <Negative vol penalty>
0.000

$$$$

  -OEChem-04052301053D

 84 93  0     1  0  0  0  0  0999 V2000
  -28.4973  -24.1994   17.2363 C   0  0  0  0  0  0  0  0  0  0  0  0
  -27.3615  -24.9730   17.4467 C   0  0  0  0  0  0  0  0  0  0  0  0
  -28.1566  -18.0070   19.9886 C   0  0  0  0  0  0  0  0  0  0  0  0
  -29.6209  -19.2067   18.4875 C   0  0  0  0  0  0  0  0  0  0  0  0
  -29.5301  -24.2158   18.1714 C   0  0  0  0  0  0  0  0  0  0  0  0
  -27.2631  -25.7724   18.5860 C   0  0  0  0  0  0  0  0  0  0  0  0
  -23.4037  -28.8113   18.8578 C   0  0  0  0  0  0  0  0  0  0  0  0
  -29.1798  -17.0991   20.2613 C   0  0  0  0  0  0  0  0  0  0  0  0
  -30.6442  -18.2989   18.7602 C   0  0  0  0  0  0  0  0  0  0  0  0
  -22.1043  -28.3608   19.0866 C   0  0  0  0  0  0  0  0  0  0  0  0
  -30.5888  -14.4130   18.7700 C   0  0  0  0  0  0  0  0  0  0  0  0
  -30.2659  -13.0561   18.7755 C   0  0  0  0  0  0  0  0  0  0  0  0
  -22.2565  -29.1035   21.3767 C   0  0  0  0  0  0  0  0  0  0  0  0
  -19.6279  -23.1051   19.5625 C   0  0  0  0  0  0  0  0  0  0  0  0
  -17.4289  -22.2843   20.2071 C   0  0  0  0  0  0  0  0  0  0  0  0
  -30.9716  -12.8974   21.0807 C   0  0  0  0  0  0  0  0  0  0  0  0
  -28.3771  -19.0607   19.1017 C   0  0  0  0  0  0  0  0  0  0  0  0
  -27.0411  -21.1964   19.5040 C   0  0  0  0  0  0  0  0  0  0  0  0
  -29.4381  -25.0064   19.3287 C   0  0  0  0  0  0  0  0  0  0  0  0
  -24.1445  -29.4024   19.8914 C   0  0  0  0  0  0  0  0  0  0  0  0
  -28.3051  -25.8209   19.5296 C   0  0  0  0  0  0  0  0  0  0  0  0
  -23.5642  -29.5630   21.1577 C   0  0  0  0  0  0  0  0  0  0  0  0
  -19.7983  -21.9505   18.8189 C   0  0  0  0  0  0  0  0  0  0  0  0
  -18.8027  -20.9699   18.7665 C   0  0  0  0  0  0  0  0  0  0  0  0
  -17.6125  -21.1215   19.4554 C   0  0  0  0  0  0  0  0  0  0  0  0
  -30.4237  -17.2451   19.6471 C   0  0  0  0  0  0  0  0  0  0  0  0
  -21.5316  -28.5042   20.3469 C   0  0  0  0  0  0  0  0  0  0  0  0
  -31.1032  -15.0122   19.9199 C   0  0  0  0  0  0  0  0  0  0  0  0
  -18.4291  -23.2690   20.2598 C   0  0  0  0  0  0  0  0  0  0  0  0
  -30.4573  -12.2983   19.9308 C   0  0  0  0  0  0  0  0  0  0  0  0
  -31.2945  -14.2544   21.0752 C   0  0  0  0  0  0  0  0  0  0  0  0
  -27.3202  -19.9985   18.8192 C   0  0  0  0  0  0  0  0  0  0  0  0
  -25.9492  -21.7172   18.8537 C   0  0  0  0  0  0  0  0  0  0  0  0
  -27.7092  -21.7857   20.6274 C   0  0  0  0  0  0  0  0  0  0  0  0
  -26.8537  -28.6968   21.3966 C   0  0  0  0  0  0  0  0  0  0  0  0
  -26.3671  -31.5788   22.8036 C   0  0  0  0  0  0  0  0  0  0  0  0
  -24.1665  -34.0220   23.7176 C   0  0  0  0  0  0  0  0  0  0  0  0
  -21.1117  -19.6421   16.2732 C   0  0  0  0  0  0  0  0  0  0  0  0
  -30.5887  -24.9924   20.3039 C   0  0  0  0  0  0  0  0  0  0  0  0
  -25.5353  -29.9074   19.6212 C   0  0  0  0  0  0  0  0  0  0  0  0
  -24.3099  -30.2093   22.2955 C   0  0  0  0  0  0  0  0  0  0  0  0
  -20.9833  -21.5316   18.0110 C   0  0  0  0  0  0  0  0  0  0  0  0
  -19.2357  -19.8386   17.8963 C   0  0  0  0  0  0  0  0  0  0  0  0
  -30.2056  -25.5194   21.6830 C   0  0  0  0  0  0  0  0  0  0  0  0
  -23.9087  -21.0874   14.3908 C   0  0  0  0  0  0  0  0  0  0  0  0
  -29.4775  -26.8483   21.5478 C   0  0  0  0  0  0  0  0  0  0  0  0
  -25.0578  -21.0239   15.3994 C   0  0  0  0  0  0  0  0  0  0  0  0
  -22.8993  -19.9602   14.5996 C   0  0  0  0  0  0  0  0  0  0  0  0
  -23.5344  -19.7762   16.9721 C   0  0  0  0  0  0  0  0  0  0  0  0
  -28.1628  -26.6747   20.7767 C   0  0  1  0  0  0  0  0  0  0  0  0
  -26.3829  -30.0283   20.8839 C   0  0  1  0  0  0  0  0  0  0  0  0
  -24.5287  -20.9379   16.8441 C   0  0  1  0  0  0  0  0  0  0  0  0
  -16.5469  -20.0832   19.4034 C   0  0  0  0  0  0  0  0  0  0  0  0
  -24.0595  -36.2399   24.8867 C   0  0  0  0  0  0  0  0  0  0  0  0
  -26.6388  -30.1698   25.4964 C   0  0  0  0  0  0  0  0  0  0  0  0
  -25.6012  -32.1778   26.5732 C   0  0  0  0  0  0  0  0  0  0  0  0
  -27.7724  -32.3951   25.3643 C   0  0  0  0  0  0  0  0  0  0  0  0
  -23.1477  -35.3811   21.2940 C   0  0  0  0  0  0  0  0  0  0  0  0
  -18.8657  -26.5613   21.8474 C   0  0  0  0  0  0  0  0  0  0  0  0
  -19.9538  -27.6226   21.8926 C   0  0  0  0  0  0  0  0  0  1  0  0
  -19.2796  -25.3572   21.0161 C   0  0  0  0  0  0  0  0  0  0  0  0
  -25.6452  -32.0564   24.0405 C   0  0  1  0  0  0  0  0  0  0  0  0
  -24.2093  -35.5301   23.5500 C   0  0  2  0  0  0  0  0  0  0  0  0
  -26.4008  -31.6858   25.3479 C   0  0  0  0  0  0  0  0  0  0  0  0
  -26.4738  -19.7715   17.8112 N   0  0  0  0  0  0  0  0  0  0  0  0
  -25.6520  -20.8338   17.8580 N   0  0  0  0  0  0  0  0  0  0  0  0
  -25.6691  -30.6811   21.9833 N   0  0  0  0  0  0  0  0  0  0  0  0
  -20.5583  -20.2544   17.4005 N   0  0  0  0  0  0  0  0  0  0  0  0
  -22.4540  -19.9138   15.9914 N   0  0  0  0  0  0  0  0  0  0  0  0
  -25.2237  -22.8400   19.0423 N   0  0  0  0  0  0  0  0  0  0  0  0
  -28.8142  -21.1182   21.1731 N   0  0  0  0  0  0  0  0  0  0  0  0
  -27.6087  -27.9792   20.4886 N   0  0  0  0  0  0  0  0  0  0  0  0
  -25.4298  -33.4879   23.8602 N   0  0  0  0  0  0  0  0  0  0  0  0
  -23.1097  -35.9829   22.6517 N   0  3  0  0  0  0  0  0  0  0  0  0
  -27.3272  -22.8637   21.1427 O   0  0  0  0  0  0  0  0  0  0  0  0
  -26.5554  -28.3469   22.5326 O   0  0  0  0  0  0  0  0  0  0  0  0
  -27.5054  -31.9926   22.5701 O   0  0  0  0  0  0  0  0  0  0  0  0
  -23.1173  -33.3821   23.7252 O   0  0  0  0  0  0  0  0  0  0  0  0
  -20.4274  -18.9331   15.5242 O   0  0  0  0  0  0  0  0  0  0  0  0
  -31.4225  -16.3596   19.9131 O   0  0  0  0  0  0  0  0  0  0  0  0
  -20.2545  -28.0616   20.5748 O   0  0  0  0  0  0  0  0  0  1  0  0
  -18.2273  -24.3949   21.0005 O   0  0  0  0  0  0  0  0  0  0  0  0
  -30.1457  -10.9955   19.9363 F   0  0  0  0  0  0  0  0  0  0  0  0
  -31.7872  -14.8247   22.1833 F   0  0  0  0  0  0  0  0  0  0  0  0
  1  2  1  0  0  0  0
  1  5  2  0  0  0  0
  2  6  2  0  0  0  0
  3  8  2  0  0  0  0
  3 17  1  0  0  0  0
  4  9  1  0  0  0  0
  4 17  2  0  0  0  0
  5 19  1  0  0  0  0
  6 21  1  0  0  0  0
  7 10  2  0  0  0  0
  7 20  1  0  0  0  0
  8 26  1  0  0  0  0
  9 26  2  0  0  0  0
 10 27  1  0  0  0  0
 11 12  2  0  0  0  0
 11 28  1  0  0  0  0
 12 30  1  0  0  0  0
 13 22  1  0  0  0  0
 13 27  2  0  0  0  0
 14 23  1  0  0  0  0
 14 29  2  0  0  0  0
 15 25  2  0  0  0  0
 15 29  1  0  0  0  0
 16 30  2  0  0  0  0
 16 31  1  0  0  0  0
 17 32  1  0  0  0  0
 18 32  1  0  0  0  0
 18 33  2  0  0  0  0
 18 34  1  0  0  0  0
 19 21  2  0  0  0  0
 19 39  1  0  0  0  0
 20 22  2  0  0  0  0
 20 40  1  0  0  0  0
 21 50  1  0  0  0  0
 22 41  1  0  0  0  0
 23 24  2  0  0  0  0
 23 42  1  0  0  0  0
 24 25  1  0  0  0  0
 24 43  1  0  0  0  0
 25 53  1  0  0  0  0
 26 80  1  0  0  0  0
 27 81  1  0  0  0  0
 28 31  2  0  0  0  0
 28 80  1  0  0  0  0
 29 82  1  0  0  0  0
 30 83  1  0  0  0  0
 31 84  1  0  0  0  0
 32 65  2  0  0  0  0
 33 66  1  0  0  0  0
 33 70  1  0  0  0  0
 34 71  1  0  0  0  0
 34 75  2  0  0  0  0
 35 51  1  0  0  0  0
 35 72  1  0  0  0  0
 35 76  2  0  0  0  0
 36 62  1  0  0  0  0
 36 67  1  0  0  0  0
 36 77  2  0  0  0  0
 37 63  1  0  0  0  0
 37 73  1  0  0  0  0
 37 78  2  0  0  0  0
 38 68  1  0  0  0  0
 38 69  1  0  0  0  0
 38 79  2  0  0  0  0
 39 44  1  0  0  0  0
 40 51  1  0  0  0  0
 41 67  1  0  0  0  0
 42 68  1  0  0  0  0
 43 68  1  0  0  0  0
 44 46  1  0  0  0  0
 45 47  1  0  0  0  0
 45 48  1  0  0  0  0
 46 50  1  0  0  0  0
 47 52  1  0  0  0  0
 48 69  1  0  0  0  0
 49 52  1  0  0  0  0
 49 69  1  0  0  0  0
 50 72  1  0  0  0  0
 51 67  1  0  0  0  0
 52 66  1  0  0  0  0
 54 63  1  0  0  0  0
 55 64  1  0  0  0  0
 56 64  1  0  0  0  0
 57 64  1  0  0  0  0
 58 74  1  0  0  0  0
 59 60  1  0  0  0  0
 59 61  1  0  0  0  0
 60 81  1  0  0  0  0
 61 82  1  0  0  0  0
 62 64  1  0  0  0  0
 62 73  1  0  0  0  0
 63 74  1  0  0  0  0
 65 66  1  0  0  0  0
M  CHG  1  74   1
M  ISO  4  38 100  60 101  68 100  81 101
M  END
> <Batch ID>
0103

> <Smiles>
CNC(C)C(=O)NC(C(=O)N1Cc2cc([101O:1][101CH2:1]CCOc3cc(C)c4c(c3)C[100N:0]([100C:0](=O)N3CCCC(n5nc(-c6ccc(Oc7ccc(F)cc7F)cc6)c(C(N)=O)c5N)C3)C4)ccc2CC1C(=O)NC1CCCc2ccccc21)C(C)(C)C

> <Shape>
0.282

> <Color>
0.055

> <Negative vol penalty>
0.000

$$$$

  -OEChem-04052301053D

 86 94  0     1  0  0  0  0  0999 V2000
  -22.9421   -8.6907   21.9229 C   0  0  0  0  0  0  0  0  0  0  0  0
  -24.0589   -9.3811   22.3827 C   0  0  0  0  0  0  0  0  0  0  0  0
  -20.0946  -27.3589   23.6589 C   0  0  0  0  0  0  0  0  0  0  0  0
  -20.1213  -29.0238   21.9084 C   0  0  0  0  0  0  0  0  0  0  0  0
  -22.2356   -9.1663   20.8190 C   0  0  0  0  0  0  0  0  0  0  0  0
  -24.4706  -10.5471   21.7381 C   0  0  0  0  0  0  0  0  0  0  0  0
  -27.5411  -16.8794   23.0761 C   0  0  0  0  0  0  0  0  0  0  0  0
  -18.7365  -27.5995   23.8670 C   0  0  0  0  0  0  0  0  0  0  0  0
  -18.7632  -29.2644   22.1164 C   0  0  0  0  0  0  0  0  0  0  0  0
  -28.6001  -17.6759   22.6427 C   0  0  0  0  0  0  0  0  0  0  0  0
  -15.8054  -26.7598   22.4053 C   0  0  0  0  0  0  0  0  0  0  0  0
  -14.9654  -25.6552   22.5451 C   0  0  0  0  0  0  0  0  0  0  0  0
  -27.2558  -18.4466   20.7939 C   0  0  0  0  0  0  0  0  0  0  0  0
  -31.8129  -28.6411   21.1675 C   0  0  0  0  0  0  0  0  0  0  0  0
  -32.1743  -26.2818   20.7937 C   0  0  0  0  0  0  0  0  0  0  0  0
  -14.3376  -26.4117   24.7521 C   0  0  0  0  0  0  0  0  0  0  0  0
  -20.7870  -28.0711   22.6796 C   0  0  0  0  0  0  0  0  0  0  0  0
  -22.7627  -26.8873   21.5827 C   0  0  0  0  0  0  0  0  0  0  0  0
  -22.6332  -10.3439   20.1664 C   0  0  0  0  0  0  0  0  0  0  0  0
  -26.3332  -16.8521   22.3643 C   0  0  0  0  0  0  0  0  0  0  0  0
  -23.7696  -11.0381   20.6236 C   0  0  0  0  0  0  0  0  0  0  0  0
  -26.1821  -17.6509   21.2218 C   0  0  0  0  0  0  0  0  0  0  0  0
  -32.5746  -27.4895   21.3654 C   0  0  0  0  0  0  0  0  0  0  0  0
  -30.6508  -28.5851   20.3979 C   0  0  0  0  0  0  0  0  0  0  0  0
  -18.0708  -28.5522   23.0958 C   0  0  0  0  0  0  0  0  0  0  0  0
  -28.4585  -18.4575   21.4998 C   0  0  0  0  0  0  0  0  0  0  0  0
  -15.9117  -27.6904   23.4390 C   0  0  0  0  0  0  0  0  0  0  0  0
  -31.0123  -26.2257   20.0240 C   0  0  0  0  0  0  0  0  0  0  0  0
  -14.2314  -25.4811   23.7184 C   0  0  0  0  0  0  0  0  0  0  0  0
  -15.1778  -27.5164   24.6123 C   0  0  0  0  0  0  0  0  0  0  0  0
  -30.2506  -27.3774   19.8262 C   0  0  0  0  0  0  0  0  0  0  0  0
  -22.1901  -27.8234   22.4646 C   0  0  0  0  0  0  0  0  0  0  0  0
  -24.1172  -27.0422   21.7496 C   0  0  0  0  0  0  0  0  0  0  0  0
  -22.1270  -25.9606   20.6923 C   0  0  0  0  0  0  0  0  0  0  0  0
  -24.6884  -14.6115   20.8221 C   0  0  0  0  0  0  0  0  0  0  0  0
  -22.4785  -16.9707   20.5519 C   0  0  0  0  0  0  0  0  0  0  0  0
  -21.8020  -20.3154   20.5056 C   0  0  0  0  0  0  0  0  0  0  0  0
  -28.6123  -30.3051   22.2903 C   0  0  0  0  0  0  0  0  0  0  0  0
  -21.8659  -10.7932   18.9482 C   0  0  0  0  0  0  0  0  0  0  0  0
  -25.1912  -16.0080   22.8601 C   0  0  0  0  0  0  0  0  0  0  0  0
  -24.8989  -17.6728   20.4336 C   0  0  0  0  0  0  0  0  0  0  0  0
  -22.1464  -12.2403   18.5512 C   0  0  0  0  0  0  0  0  0  0  0  0
  -26.7322  -29.6131   25.2336 C   0  0  0  0  0  0  0  0  0  0  0  0
  -23.6467  -12.5158   18.5628 C   0  0  0  0  0  0  0  0  0  0  0  0
  -25.4284  -29.0148   24.7026 C   0  0  0  0  0  0  0  0  0  0  0  0
  -27.2575  -30.7202   24.3223 C   0  0  0  0  0  0  0  0  0  0  0  0
  -26.1090  -29.7372   22.3759 C   0  0  0  0  0  0  0  0  0  0  0  0
  -24.2327  -12.3201   19.9662 C   0  0  1  0  0  0  0  0  0  0  0  0
  -24.1835  -15.6648   21.7673 C   0  0  1  0  0  0  0  0  0  0  0  0
  -25.5698  -28.5784   23.2319 C   0  0  2  0  0  0  0  0  0  0  0  0
  -19.9083  -21.9385   20.2288 C   0  0  0  0  0  0  0  0  0  0  0  0
  -22.4814  -16.4574   17.5441 C   0  0  0  0  0  0  0  0  0  0  0  0
  -21.3451  -18.6670   17.2364 C   0  0  0  0  0  0  0  0  0  0  0  0
  -20.2189  -16.8571   18.5320 C   0  0  0  0  0  0  0  0  0  0  0  0
  -22.2146  -21.4371   23.2131 C   0  0  0  0  0  0  0  0  0  0  0  0
  -29.8384  -29.8181   20.1882 C   0  0  0  0  0  0  0  0  0  0  0  0
  -33.8170  -27.5482   22.1883 C   0  0  0  0  0  0  0  0  0  0  0  0
  -30.2408  -21.4822   20.6054 C   0  0  0  0  0  0  0  0  0  0  0  0
  -29.9137  -22.7928   19.8984 C   0  0  0  0  0  0  0  0  0  0  0  0
  -29.1558  -20.4372   20.3816 C   0  0  0  0  0  0  0  0  0  1  0  0
  -30.9764  -23.8515   20.1568 C   0  0  0  0  0  0  0  0  0  0  0  0
  -22.1966  -18.0615   19.5471 C   0  0  1  0  0  0  0  0  0  0  0  0
  -20.7434  -21.1389   21.2167 C   0  0  2  0  0  0  0  0  0  0  0  0
  -21.5855  -17.5091   18.2284 C   0  0  0  0  0  0  0  0  0  0  0  0
  -23.1059  -28.5213   23.1416 N   0  0  0  0  0  0  0  0  0  0  0  0
  -24.2676  -28.0233   22.6851 N   0  0  0  0  0  0  0  0  0  0  0  0
  -23.8135  -16.8256   20.9549 N   0  0  0  0  0  0  0  0  0  0  0  0
  -27.3699  -30.2410   22.9425 N   0  0  0  0  0  0  0  0  0  0  0  0
  -25.1822  -26.4336   21.1861 N   0  0  0  0  0  0  0  0  0  0  0  0
  -20.7266  -25.9326   20.6453 N   0  0  0  0  0  0  0  0  0  0  0  0
  -23.9264  -13.4589   20.8051 N   0  0  0  0  0  0  0  0  0  0  0  0
  -21.3573  -19.0394   20.2309 N   0  0  0  0  0  0  0  0  0  0  0  0
  -28.6329  -29.8245   20.9867 N   0  0  0  0  0  0  0  0  0  0  0  0
  -33.5812  -27.2824   23.6343 N   0  3  0  0  0  0  0  0  0  0  0  0
  -21.3812  -22.0897   22.1707 N   0  3  0  0  0  0  0  0  0  0  0  0
  -22.7814  -25.1691   19.9720 O   0  0  0  0  0  0  0  0  0  0  0  0
  -25.6940  -14.8291   20.1564 O   0  0  0  0  0  0  0  0  0  0  0  0
  -21.5473  -16.2777   20.9694 O   0  0  0  0  0  0  0  0  0  0  0  0
  -22.9111  -20.7607   20.2189 O   0  0  0  0  0  0  0  0  0  0  0  0
  -29.6292  -30.7523   22.8316 O   0  0  0  0  0  0  0  0  0  0  0  0
  -16.7455  -28.7871   23.2984 O   0  0  0  0  0  0  0  0  0  0  0  0
  -29.4908  -19.2354   21.0742 O   0  0  0  0  0  0  0  0  0  1  0  0
  -30.6214  -25.0386   19.4611 O   0  0  0  0  0  0  0  0  0  0  0  0
  -13.4236  -24.4210   23.8518 F   0  0  0  0  0  0  0  0  0  0  0  0
  -15.2748  -28.4077   25.6083 F   0  0  0  0  0  0  0  0  0  0  0  0
  -29.1353  -27.3205   19.0837 F   0  0  0  0  0  0  0  0  0  0  0  0
  1  2  1  0  0  0  0
  1  5  2  0  0  0  0
  2  6  2  0  0  0  0
  3  8  2  0  0  0  0
  3 17  1  0  0  0  0
  4  9  1  0  0  0  0
  4 17  2  0  0  0  0
  5 19  1  0  0  0  0
  6 21  1  0  0  0  0
  7 10  2  0  0  0  0
  7 20  1  0  0  0  0
  8 25  1  0  0  0  0
  9 25  2  0  0  0  0
 10 26  1  0  0  0  0
 11 12  2  0  0  0  0
 11 27  1  0  0  0  0
 12 29  1  0  0  0  0
 13 22  1  0  0  0  0
 13 26  2  0  0  0  0
 14 23  1  0  0  0  0
 14 24  2  0  0  0  0
 15 23  2  0  0  0  0
 15 28  1  0  0  0  0
 16 29  2  0  0  0  0
 16 30  1  0  0  0  0
 17 32  1  0  0  0  0
 18 32  1  0  0  0  0
 18 33  2  0  0  0  0
 18 34  1  0  0  0  0
 19 21  2  0  0  0  0
 19 39  1  0  0  0  0
 20 22  2  0  0  0  0
 20 40  1  0  0  0  0
 21 48  1  0  0  0  0
 22 41  1  0  0  0  0
 23 57  1  0  0  0  0
 24 31  1  0  0  0  0
 24 56  1  0  0  0  0
 25 81  1  0  0  0  0
 26 82  1  0  0  0  0
 27 30  2  0  0  0  0
 27 81  1  0  0  0  0
 28 31  2  0  0  0  0
 28 83  1  0  0  0  0
 29 84  1  0  0  0  0
 30 85  1  0  0  0  0
 31 86  1  0  0  0  0
 32 65  2  0  0  0  0
 33 66  1  0  0  0  0
 33 69  1  0  0  0  0
 34 70  1  0  0  0  0
 34 76  2  0  0  0  0
 35 49  1  0  0  0  0
 35 71  1  0  0  0  0
 35 77  2  0  0  0  0
 36 62  1  0  0  0  0
 36 67  1  0  0  0  0
 36 78  2  0  0  0  0
 37 63  1  0  0  0  0
 37 72  1  0  0  0  0
 37 79  2  0  0  0  0
 38 68  1  0  0  0  0
 38 73  1  0  0  0  0
 38 80  2  0  0  0  0
 39 42  1  0  0  0  0
 40 49  1  0  0  0  0
 41 67  1  0  0  0  0
 42 44  1  0  0  0  0
 43 45  1  0  0  0  0
 43 46  1  0  0  0  0
 44 48  1  0  0  0  0
 45 50  1  0  0  0  0
 46 68  1  0  0  0  0
 47 50  1  0  0  0  0
 47 68  1  0  0  0  0
 48 71  1  0  0  0  0
 49 67  1  0  0  0  0
 50 66  1  0  0  0  0
 51 63  1  0  0  0  0
 52 64  1  0  0  0  0
 53 64  1  0  0  0  0
 54 64  1  0  0  0  0
 55 75  1  0  0  0  0
 56 73  1  0  0  0  0
 57 74  1  0  0  0  0
 58 59  1  0  0  0  0
 58 60  1  0  0  0  0
 59 61  1  0  0  0  0
 60 82  1  0  0  0  0
 61 83  1  0  0  0  0
 62 64  1  0  0  0  0
 62 72  1  0  0  0  0
 63 75  1  0  0  0  0
 65 66  1  0  0  0  0
M  CHG  2  74   1  75   1
M  ISO  4  38 100  60 101  73 100  82 101
M  END
> <Batch ID>
0103

> <Smiles>
CNC(C)C(=O)NC(C(=O)N1Cc2cc([101O:1][101CH2:1]CCCOc3cc(CN)cc(C[100NH:0][100C:0](=O)N4CCCC(n5nc(-c6ccc(Oc7ccc(F)cc7F)cc6)c(C(N)=O)c5N)C4)c3F)ccc2CC1C(=O)NC1CCCc2ccccc21)C(C)(C)C

> <Shape>
0.215

> <Color>
0.072

> <Negative vol penalty>
0.000

$$$$

  -OEChem-04052301053D

 83 91  0     1  0  0  0  0  0999 V2000
  -26.0319  -37.9835   24.3864 C   0  0  0  0  0  0  0  0  0  0  0  0
  -26.7816  -37.2569   23.4670 C   0  0  0  0  0  0  0  0  0  0  0  0
  -22.5934  -10.3899   20.6074 C   0  0  0  0  0  0  0  0  0  0  0  0
  -24.3327   -9.5090   22.0343 C   0  0  0  0  0  0  0  0  0  0  0  0
  -25.3028  -37.3179   25.3710 C   0  0  0  0  0  0  0  0  0  0  0  0
  -26.8037  -35.8642   23.5325 C   0  0  0  0  0  0  0  0  0  0  0  0
  -27.2699  -30.0843   19.3263 C   0  0  0  0  0  0  0  0  0  0  0  0
  -22.0079   -9.1257   20.5406 C   0  0  0  0  0  0  0  0  0  0  0  0
  -23.7470   -8.2448   21.9676 C   0  0  0  0  0  0  0  0  0  0  0  0
  -28.0071  -28.9090   19.1886 C   0  0  0  0  0  0  0  0  0  0  0  0
  -22.5090   -4.8630   22.4666 C   0  0  0  0  0  0  0  0  0  0  0  0
  -22.3833   -4.1422   23.6541 C   0  0  0  0  0  0  0  0  0  0  0  0
  -26.6457  -27.8635   20.8835 C   0  0  0  0  0  0  0  0  0  0  0  0
  -28.7077  -20.3967   22.5113 C   0  0  0  0  0  0  0  0  0  0  0  0
  -21.0163   -5.9060   24.5802 C   0  0  0  0  0  0  0  0  0  0  0  0
  -23.7559  -10.5816   21.3542 C   0  0  0  0  0  0  0  0  0  0  0  0
  -24.0987  -12.8975   22.3675 C   0  0  0  0  0  0  0  0  0  0  0  0
  -25.3083  -35.9160   25.4426 C   0  0  0  0  0  0  0  0  0  0  0  0
  -26.2202  -30.1616   20.2529 C   0  0  0  0  0  0  0  0  0  0  0  0
  -26.0751  -35.1793   24.5198 C   0  0  0  0  0  0  0  0  0  0  0  0
  -25.8950  -29.0401   21.0292 C   0  0  0  0  0  0  0  0  0  0  0  0
  -28.9746  -19.0536   22.9049 C   0  0  0  0  0  0  0  0  0  0  0  0
  -22.5846   -8.0532   21.2207 C   0  0  0  0  0  0  0  0  0  0  0  0
  -27.6970  -27.7993   19.9693 C   0  0  0  0  0  0  0  0  0  0  0  0
  -21.8883   -6.1054   22.3359 C   0  0  0  0  0  0  0  0  0  0  0  0
  -21.6370   -4.6636   24.7109 C   0  0  0  0  0  0  0  0  0  0  0  0
  -21.1420   -6.6268   23.3926 C   0  0  0  0  0  0  0  0  0  0  0  0
  -24.3616  -11.8871   21.4230 C   0  0  0  0  0  0  0  0  0  0  0  0
  -30.0292  -18.5092   22.2056 C   0  0  0  0  0  0  0  0  0  0  0  0
  -24.9242  -13.9325   22.0018 C   0  0  0  0  0  0  0  0  0  0  0  0
  -29.5689  -20.8279   21.5261 C   0  0  0  0  0  0  0  0  0  0  0  0
  -23.1897  -12.9001   23.4763 C   0  0  0  0  0  0  0  0  0  0  0  0
  -25.6312  -31.9217   22.8334 C   0  0  0  0  0  0  0  0  0  0  0  0
  -28.9469  -24.3604   20.4231 C   0  0  0  0  0  0  0  0  0  0  0  0
  -22.7560  -30.4241   22.7203 C   0  0  0  0  0  0  0  0  0  0  0  0
  -20.9330  -27.7257   21.6994 C   0  0  0  0  0  0  0  0  0  0  0  0
  -29.9004  -15.8343   20.3387 C   0  0  0  0  0  0  0  0  0  0  0  0
  -24.5423  -35.2429   26.5538 C   0  0  0  0  0  0  0  0  0  0  0  0
  -25.4173  -31.4281   20.3703 C   0  0  0  0  0  0  0  0  0  0  0  0
  -24.7644  -29.0651   22.0240 C   0  0  0  0  0  0  0  0  0  0  0  0
  -24.3197  -33.7504   26.3230 C   0  0  0  0  0  0  0  0  0  0  0  0
  -27.6930  -14.6171   17.8242 C   0  0  0  0  0  0  0  0  0  0  0  0
  -25.6143  -33.0810   25.8728 C   0  0  0  0  0  0  0  0  0  0  0  0
  -26.6119  -13.8768   18.6137 C   0  0  0  0  0  0  0  0  0  0  0  0
  -29.0712  -14.4488   18.4601 C   0  0  0  0  0  0  0  0  0  0  0  0
  -28.0623  -14.0727   20.6769 C   0  0  0  0  0  0  0  0  0  0  0  0
  -26.1046  -33.6664   24.5430 C   0  0  1  0  0  0  0  0  0  0  0  0
  -24.7007  -31.5591   21.7107 C   0  0  1  0  0  0  0  0  0  0  0  0
  -26.6462  -14.2592   20.1057 C   0  0  2  0  0  0  0  0  0  0  0  0
  -28.2006  -18.3365   23.9461 C   0  0  0  0  0  0  0  0  0  0  0  0
  -18.6160  -26.7660   21.7882 C   0  0  0  0  0  0  0  0  0  0  0  0
  -23.2094  -29.6044   25.6242 C   0  0  0  0  0  0  0  0  0  0  0  0
  -21.3889  -27.9066   25.3563 C   0  0  0  0  0  0  0  0  0  0  0  0
  -20.8758  -30.3342   25.0984 C   0  0  0  0  0  0  0  0  0  0  0  0
  -20.6744  -27.7751   18.7516 C   0  0  0  0  0  0  0  0  0  0  0  0
  -30.6161  -17.1543   22.3147 C   0  0  0  0  0  0  0  0  0  0  0  0
  -28.6551  -23.1346   21.2624 C   0  0  0  0  0  0  0  0  0  0  0  0
  -28.0432  -25.5529   20.6691 C   0  0  0  0  0  0  0  0  0  1  0  0
  -22.1923  -29.1472   23.2956 C   0  0  1  0  0  0  0  0  0  0  0  0
  -19.5910  -27.6240   20.9971 C   0  0  2  0  0  0  0  0  0  0  0  0
  -21.9392  -29.2479   24.8263 C   0  0  0  0  0  0  0  0  0  0  0  0
  -25.2819  -12.2478   20.5248 N   0  0  0  0  0  0  0  0  0  0  0  0
  -25.6046  -13.4964   20.9031 N   0  0  0  0  0  0  0  0  0  0  0  0
  -24.0130  -30.3285   22.1066 N   0  0  0  0  0  0  0  0  0  0  0  0
  -29.0357  -14.8296   19.8742 N   0  0  0  0  0  0  0  0  0  0  0  0
  -25.1271  -15.1641   22.5160 N   0  0  0  0  0  0  0  0  0  0  0  0
  -22.4170  -11.7543   23.7094 N   0  0  0  0  0  0  0  0  0  0  0  0
  -29.5763  -22.0792   20.9268 N   0  0  0  0  0  0  0  0  0  0  0  0
  -25.3375  -33.1279   23.4402 N   0  0  0  0  0  0  0  0  0  0  0  0
  -21.0012  -28.8374   22.5121 N   0  0  0  0  0  0  0  0  0  0  0  0
  -29.7977  -16.1387   21.6905 N   0  0  0  0  0  0  0  0  0  0  0  0
  -19.7584  -27.0201   19.6450 N   0  3  0  0  0  0  0  0  0  0  0  0
  -23.0544  -13.8952   24.2279 O   0  0  0  0  0  0  0  0  0  0  0  0
  -26.5469  -31.1626   23.1282 O   0  0  0  0  0  0  0  0  0  0  0  0
  -29.8544  -24.3978   19.5931 O   0  0  0  0  0  0  0  0  0  0  0  0
  -22.1018  -31.4664   22.8058 O   0  0  0  0  0  0  0  0  0  0  0  0
  -21.8296  -26.8993   21.5455 O   0  0  0  0  0  0  0  0  0  0  0  0
  -30.7007  -16.4207   19.6020 O   0  0  0  0  0  0  0  0  0  0  0  0
  -22.0133   -6.8195   21.1560 O   0  0  0  0  0  0  0  0  0  0  0  0
  -28.4154  -26.6512   19.8374 O   0  0  0  0  0  0  0  0  0  1  0  0
  -21.5151   -3.9706   25.8506 F   0  0  0  0  0  0  0  0  0  0  0  0
  -20.5424   -7.8193   23.2725 F   0  0  0  0  0  0  0  0  0  0  0  0
  -30.6929  -19.6157   21.0797 S   0  0  0  0  0  0  0  0  0  0  0  0
  1  2  1  0  0  0  0
  1  5  2  0  0  0  0
  2  6  2  0  0  0  0
  3  8  2  0  0  0  0
  3 16  1  0  0  0  0
  4  9  1  0  0  0  0
  4 16  2  0  0  0  0
  5 18  1  0  0  0  0
  6 20  1  0  0  0  0
  7 10  2  0  0  0  0
  7 19  1  0  0  0  0
  8 23  1  0  0  0  0
  9 23  2  0  0  0  0
 10 24  1  0  0  0  0
 11 12  2  0  0  0  0
 11 25  1  0  0  0  0
 12 26  1  0  0  0  0
 13 21  1  0  0  0  0
 13 24  2  0  0  0  0
 14 22  1  0  0  0  0
 14 31  2  0  0  0  0
 15 26  2  0  0  0  0
 15 27  1  0  0  0  0
 16 28  1  0  0  0  0
 17 28  1  0  0  0  0
 17 30  2  0  0  0  0
 17 32  1  0  0  0  0
 18 20  2  0  0  0  0
 18 38  1  0  0  0  0
 19 21  2  0  0  0  0
 19 39  1  0  0  0  0
 20 47  1  0  0  0  0
 21 40  1  0  0  0  0
 22 29  2  0  0  0  0
 22 50  1  0  0  0  0
 23 79  1  0  0  0  0
 24 80  1  0  0  0  0
 25 27  2  0  0  0  0
 25 79  1  0  0  0  0
 26 81  1  0  0  0  0
 27 82  1  0  0  0  0
 28 62  2  0  0  0  0
 29 56  1  0  0  0  0
 29 83  1  0  0  0  0
 30 63  1  0  0  0  0
 30 66  1  0  0  0  0
 31 68  1  0  0  0  0
 31 83  1  0  0  0  0
 32 67  1  0  0  0  0
 32 73  2  0  0  0  0
 33 48  1  0  0  0  0
 33 69  1  0  0  0  0
 33 74  2  0  0  0  0
 34 57  1  0  0  0  0
 34 58  1  0  0  0  0
 34 75  2  0  0  0  0
 35 59  1  0  0  0  0
 35 64  1  0  0  0  0
 35 76  2  0  0  0  0
 36 60  1  0  0  0  0
 36 70  1  0  0  0  0
 36 77  2  0  0  0  0
 37 65  1  0  0  0  0
 37 71  1  0  0  0  0
 37 78  2  0  0  0  0
 38 41  1  0  0  0  0
 39 48  1  0  0  0  0
 40 64  1  0  0  0  0
 41 43  1  0  0  0  0
 42 44  1  0  0  0  0
 42 45  1  0  0  0  0
 43 47  1  0  0  0  0
 44 49  1  0  0  0  0
 45 65  1  0  0  0  0
 46 49  1  0  0  0  0
 46 65  1  0  0  0  0
 47 69  1  0  0  0  0
 48 64  1  0  0  0  0
 49 63  1  0  0  0  0
 51 60  1  0  0  0  0
 52 61  1  0  0  0  0
 53 61  1  0  0  0  0
 54 61  1  0  0  0  0
 55 72  1  0  0  0  0
 56 71  1  0  0  0  0
 57 68  1  0  0  0  0
 58 80  1  0  0  0  0
 59 61  1  0  0  0  0
 59 70  1  0  0  0  0
 60 72  1  0  0  0  0
 62 63  1  0  0  0  0
M  CHG  1  72   1
M  ISO  4  37 100  58 101  71 100  80 101
M  END
> <Batch ID>
0103

> <Smiles>
CNC(C)C(=O)NC(C(=O)N1Cc2cc([101O:1][101CH2:1]C(=O)CNc3cc(C)c(C[100NH:0][100C:0](=O)N4CCCC(n5nc(-c6ccc(Oc7ccc(F)cc7F)cc6)c(C(N)=O)c5N)C4)s3)ccc2CC1C(=O)NC1CCCc2ccccc21)C(C)(C)C

> <Shape>
0.378

> <Color>
0.144

> <Negative vol penalty>
0.000

$$$$

  -OEChem-04052301053D

 90 99  0     1  0  0  0  0  0999 V2000
  -22.6371  -16.8018   26.8866 C   0  0  0  0  0  0  0  0  0  0  0  0
  -22.5755  -18.1229   27.3184 C   0  0  0  0  0  0  0  0  0  0  0  0
  -28.4585  -14.6546   19.8808 C   0  0  0  0  0  0  0  0  0  0  0  0
  -27.3233  -15.1440   21.9566 C   0  0  0  0  0  0  0  0  0  0  0  0
  -23.1081  -16.5090   25.6074 C   0  0  0  0  0  0  0  0  0  0  0  0
  -22.9860  -19.1519   26.4716 C   0  0  0  0  0  0  0  0  0  0  0  0
  -21.5266  -25.9792   24.8672 C   0  0  0  0  0  0  0  0  0  0  0  0
  -27.6143  -13.5632   19.6764 C   0  0  0  0  0  0  0  0  0  0  0  0
  -26.4790  -14.0526   21.7522 C   0  0  0  0  0  0  0  0  0  0  0  0
  -22.1611  -27.2134   24.7329 C   0  0  0  0  0  0  0  0  0  0  0  0
  -23.7413  -13.3349   19.9054 C   0  0  0  0  0  0  0  0  0  0  0  0
  -22.3777  -13.5209   20.1322 C   0  0  0  0  0  0  0  0  0  0  0  0
  -22.8825  -26.5945   22.5158 C   0  0  0  0  0  0  0  0  0  0  0  0
  -26.0754  -26.6130   18.9105 C   0  0  0  0  0  0  0  0  0  0  0  0
  -25.7377  -28.6557   20.1555 C   0  0  0  0  0  0  0  0  0  0  0  0
  -27.7653  -27.3774   20.4587 C   0  0  0  0  0  0  0  0  0  0  0  0
  -22.4243  -11.7981   21.8255 C   0  0  0  0  0  0  0  0  0  0  0  0
  -28.3130  -15.4450   21.0209 C   0  0  0  0  0  0  0  0  0  0  0  0
  -30.5877  -16.5512   21.3525 C   0  0  0  0  0  0  0  0  0  0  0  0
  -23.5155  -17.5356   24.7410 C   0  0  0  0  0  0  0  0  0  0  0  0
  -21.5746  -25.0376   23.8292 C   0  0  0  0  0  0  0  0  0  0  0  0
  -23.4642  -18.8724   25.1801 C   0  0  0  0  0  0  0  0  0  0  0  0
  -22.2456  -25.3501   22.6384 C   0  0  0  0  0  0  0  0  0  0  0  0
  -25.2870  -27.7200   19.2244 C   0  0  0  0  0  0  0  0  0  0  0  0
  -27.3145  -26.4416   19.5277 C   0  0  0  0  0  0  0  0  0  0  0  0
  -26.6246  -13.2622   20.6120 C   0  0  0  0  0  0  0  0  0  0  0  0
  -22.8416  -27.5201   23.5582 C   0  0  0  0  0  0  0  0  0  0  0  0
  -24.4465  -12.3804   20.6386 C   0  0  0  0  0  0  0  0  0  0  0  0
  -26.9769  -28.4844   20.7727 C   0  0  0  0  0  0  0  0  0  0  0  0
  -21.7192  -12.7526   21.0922 C   0  0  0  0  0  0  0  0  0  0  0  0
  -23.7880  -11.6121   21.5986 C   0  0  0  0  0  0  0  0  0  0  0  0
  -29.1852  -16.5721   21.2329 C   0  0  0  0  0  0  0  0  0  0  0  0
  -30.9359  -17.8663   21.5414 C   0  0  0  0  0  0  0  0  0  0  0  0
  -25.6103  -30.6413   23.9167 C   0  0  0  0  0  0  0  0  0  0  0  0
  -31.4947  -15.4421   21.2977 C   0  0  0  0  0  0  0  0  0  0  0  0
  -22.7326  -22.0932   23.5235 C   0  0  0  0  0  0  0  0  0  0  0  0
  -21.2842  -22.2437   20.6249 C   0  0  0  0  0  0  0  0  0  0  0  0
  -20.0839  -24.1786   18.0829 C   0  0  0  0  0  0  0  0  0  0  0  0
  -28.2907  -22.9017   19.9594 C   0  0  0  0  0  0  0  0  0  0  0  0
  -24.0619  -17.1666   23.3845 C   0  0  0  0  0  0  0  0  0  0  0  0
  -20.8624  -23.7212   23.9793 C   0  0  0  0  0  0  0  0  0  0  0  0
  -22.3095  -24.3818   21.4865 C   0  0  0  0  0  0  0  0  0  0  0  0
  -24.1253  -18.3423   22.4130 C   0  0  0  0  0  0  0  0  0  0  0  0
  -29.2387  -21.9704   23.3256 C   0  0  0  0  0  0  0  0  0  0  0  0
  -24.7335  -19.5647   23.0932 C   0  0  0  0  0  0  0  0  0  0  0  0
  -29.4660  -20.4654   23.1722 C   0  0  0  0  0  0  0  0  0  0  0  0
  -23.6571  -31.5613   22.9018 C   0  0  0  0  0  0  0  0  0  0  0  0
  -28.0627  -22.4414   22.4751 C   0  0  0  0  0  0  0  0  0  0  0  0
  -24.8793  -32.3156   22.4130 C   0  0  0  0  0  0  0  0  0  0  0  0
  -28.4020  -20.6003   20.8723 C   0  0  0  0  0  0  0  0  0  0  0  0
  -23.8771  -20.0180   24.2816 C   0  0  1  0  0  0  0  0  0  0  0  0
  -24.1381  -30.8920   24.1914 C   0  0  1  0  0  0  0  0  0  0  0  0
  -21.4114  -22.6364   23.0578 C   0  0  1  0  0  0  0  0  0  0  0  0
  -29.5919  -20.0660   21.6900 C   0  0  2  0  0  0  0  0  0  0  0  0
  -23.9621  -27.9021   18.5646 C   0  0  0  0  0  0  0  0  0  0  0  0
  -18.9911  -24.0151   15.8298 C   0  0  0  0  0  0  0  0  0  0  0  0
  -28.9822  -30.9068   20.6695 C   0  0  0  0  0  0  0  0  0  0  0  0
  -23.9605  -21.4605   19.3864 C   0  0  0  0  0  0  0  0  0  0  0  0
  -23.0820  -22.2304   17.1720 C   0  0  0  0  0  0  0  0  0  0  0  0
  -21.9709  -20.3419   18.3644 C   0  0  0  0  0  0  0  0  0  0  0  0
  -17.6842  -25.6406   19.0119 C   0  0  0  0  0  0  0  0  0  0  0  0
  -28.1575  -25.2580   19.1929 C   0  0  0  0  0  0  0  0  0  0  0  0
  -23.3761  -29.6248   24.5279 C   0  0  0  0  0  0  0  0  0  1  0  0
  -27.3242  -31.6938   22.3905 C   0  0  0  0  0  0  0  0  0  0  0  0
  -21.6978  -22.6959   19.2453 C   0  0  1  0  0  0  0  0  0  0  0  0
  -18.7671  -24.1469   17.3282 C   0  0  2  0  0  0  0  0  0  0  0  0
  -27.5731  -30.7422   21.2230 C   0  0  2  0  0  0  0  0  0  0  0  0
  -22.6784  -21.6999   18.5643 C   0  0  0  0  0  0  0  0  0  0  0  0
  -28.6771  -17.8030   21.3372 N   0  0  0  0  0  0  0  0  0  0  0  0
  -29.7663  -18.5677   21.5244 N   0  0  0  0  0  0  0  0  0  0  0  0
  -25.9798  -31.5133   22.8937 N   0  0  0  0  0  0  0  0  0  0  0  0
  -21.6029  -23.1055   21.6840 N   0  0  0  0  0  0  0  0  0  0  0  0
  -28.2534  -22.0456   21.0725 N   0  0  0  0  0  0  0  0  0  0  0  0
  -32.1254  -18.4796   21.7187 N   0  0  0  0  0  0  0  0  0  0  0  0
  -31.8112  -14.7782   22.4907 N   0  0  0  0  0  0  0  0  0  0  0  0
  -22.7135  -20.7434   23.8185 N   0  0  0  0  0  0  0  0  0  0  0  0
  -20.4628  -22.9208   18.5021 N   0  0  0  0  0  0  0  0  0  0  0  0
  -28.1354  -24.2549   20.2342 N   0  0  0  0  0  0  0  0  0  0  0  0
  -17.9956  -25.3968   17.5799 N   0  3  0  0  0  0  0  0  0  0  0  0
  -26.3194  -29.8555   24.5274 O   0  0  0  0  0  0  0  0  0  0  0  0
  -32.0219  -15.0616   20.2249 O   0  0  0  0  0  0  0  0  0  0  0  0
  -23.6984  -22.8429   23.6074 O   0  0  0  0  0  0  0  0  0  0  0  0
  -20.6936  -21.1688   20.7572 O   0  0  0  0  0  0  0  0  0  0  0  0
  -20.7153  -25.2150   18.2776 O   0  0  0  0  0  0  0  0  0  0  0  0
  -28.4559  -22.4910   18.8056 O   0  0  0  0  0  0  0  0  0  0  0  0
  -25.8004  -12.1974   20.4128 O   0  0  0  0  0  0  0  0  0  0  0  0
  -23.4623  -28.7237   23.4248 O   0  0  0  0  0  0  0  0  0  1  0  0
  -27.4189  -29.4021   21.6864 O   0  0  0  0  0  0  0  0  0  0  0  0
  -20.4100  -12.9324   21.3110 F   0  0  0  0  0  0  0  0  0  0  0  0
  -24.4603  -10.6944   22.3069 F   0  0  0  0  0  0  0  0  0  0  0  0
  1  2  1  0  0  0  0
  1  5  2  0  0  0  0
  2  6  2  0  0  0  0
  3  8  2  0  0  0  0
  3 18  1  0  0  0  0
  4  9  1  0  0  0  0
  4 18  2  0  0  0  0
  5 20  1  0  0  0  0
  6 22  1  0  0  0  0
  7 10  2  0  0  0  0
  7 21  1  0  0  0  0
  8 26  1  0  0  0  0
  9 26  2  0  0  0  0
 10 27  1  0  0  0  0
 11 12  2  0  0  0  0
 11 28  1  0  0  0  0
 12 30  1  0  0  0  0
 13 23  1  0  0  0  0
 13 27  2  0  0  0  0
 14 24  1  0  0  0  0
 14 25  2  0  0  0  0
 15 24  2  0  0  0  0
 15 29  1  0  0  0  0
 16 25  1  0  0  0  0
 16 29  2  0  0  0  0
 17 30  2  0  0  0  0
 17 31  1  0  0  0  0
 18 32  1  0  0  0  0
 19 32  1  0  0  0  0
 19 33  2  0  0  0  0
 19 35  1  0  0  0  0
 20 22  2  0  0  0  0
 20 40  1  0  0  0  0
 21 23  2  0  0  0  0
 21 41  1  0  0  0  0
 22 51  1  0  0  0  0
 23 42  1  0  0  0  0
 24 55  1  0  0  0  0
 25 62  1  0  0  0  0
 26 86  1  0  0  0  0
 27 87  1  0  0  0  0
 28 31  2  0  0  0  0
 28 86  1  0  0  0  0
 29 88  1  0  0  0  0
 30 89  1  0  0  0  0
 31 90  1  0  0  0  0
 32 69  2  0  0  0  0
 33 70  1  0  0  0  0
 33 74  1  0  0  0  0
 34 52  1  0  0  0  0
 34 71  1  0  0  0  0
 34 80  2  0  0  0  0
 35 75  1  0  0  0  0
 35 81  2  0  0  0  0
 36 53  1  0  0  0  0
 36 76  1  0  0  0  0
 36 82  2  0  0  0  0
 37 65  1  0  0  0  0
 37 72  1  0  0  0  0
 37 83  2  0  0  0  0
 38 66  1  0  0  0  0
 38 77  1  0  0  0  0
 38 84  2  0  0  0  0
 39 73  1  0  0  0  0
 39 78  1  0  0  0  0
 39 85  2  0  0  0  0
 40 43  1  0  0  0  0
 41 53  1  0  0  0  0
 42 72  1  0  0  0  0
 43 45  1  0  0  0  0
 44 46  1  0  0  0  0
 44 48  1  0  0  0  0
 45 51  1  0  0  0  0
 46 54  1  0  0  0  0
 47 49  1  0  0  0  0
 47 52  1  0  0  0  0
 48 73  1  0  0  0  0
 49 71  1  0  0  0  0
 50 54  1  0  0  0  0
 50 73  1  0  0  0  0
 51 76  1  0  0  0  0
 52 63  1  0  0  0  0
 53 72  1  0  0  0  0
 54 70  1  0  0  0  0
 56 66  1  0  0  0  0
 57 67  1  0  0  0  0
 58 68  1  0  0  0  0
 59 68  1  0  0  0  0
 60 68  1  0  0  0  0
 61 79  1  0  0  0  0
 62 78  1  0  0  0  0
 63 87  1  0  0  0  0
 64 67  1  0  0  0  0
 64 71  1  0  0  0  0
 65 68  1  0  0  0  0
 65 77  1  0  0  0  0
 66 79  1  0  0  0  0
 67 88  1  0  0  0  0
 69 70  1  0  0  0  0
M  CHG  1  79   1
M  ISO  4  39 100  63 101  78 100  87 101
M  END
> <Batch ID>
0103

> <Smiles>
CNC(C)C(=O)NC(C(=O)N1Cc2cc([101O:1][101CH2:1]C3CCN(CC(C)Oc4cc(C)cc(C[100NH:0][100C:0](=O)N5CCCC(n6nc(-c7ccc(Oc8ccc(F)cc8F)cc7)c(C(N)=O)c6N)C5)c4)C3=O)ccc2CC1C(=O)NC1CCCc2ccccc21)C(C)(C)C

> <Shape>
0.219

> <Color>
0.067

> <Negative vol penalty>
0.000

$$$$

  -OEChem-04052301053D

 87 96  0     1  0  0  0  0  0999 V2000
  -16.6431  -29.1702   23.9754 C   0  0  0  0  0  0  0  0  0  0  0  0
  -17.1866  -28.2829   23.0520 C   0  0  0  0  0  0  0  0  0  0  0  0
  -23.0536  -16.7146   22.9402 C   0  0  0  0  0  0  0  0  0  0  0  0
  -24.1131  -15.7209   24.8707 C   0  0  0  0  0  0  0  0  0  0  0  0
  -17.2977  -30.3684   24.2578 C   0  0  0  0  0  0  0  0  0  0  0  0
  -18.3845  -28.5938   22.4096 C   0  0  0  0  0  0  0  0  0  0  0  0
  -22.7831  -24.6791   20.7263 C   0  0  0  0  0  0  0  0  0  0  0  0
  -29.5843  -17.4139   16.4313 C   0  0  0  0  0  0  0  0  0  0  0  0
  -28.7525  -18.2781   15.7193 C   0  0  0  0  0  0  0  0  0  0  0  0
  -22.3486  -17.5827   23.7738 C   0  0  0  0  0  0  0  0  0  0  0  0
  -23.4082  -16.5891   25.7044 C   0  0  0  0  0  0  0  0  0  0  0  0
  -23.0852  -24.0757   19.5063 C   0  0  0  0  0  0  0  0  0  0  0  0
  -22.9524  -20.4419   25.4748 C   0  0  0  0  0  0  0  0  0  0  0  0
  -22.8926  -21.7865   25.1087 C   0  0  0  0  0  0  0  0  0  0  0  0
  -24.7057  -25.8056   19.0587 C   0  0  0  0  0  0  0  0  0  0  0  0
  -28.8468  -19.8666   17.5372 C   0  0  0  0  0  0  0  0  0  0  0  0
  -20.4827  -21.6508   25.0040 C   0  0  0  0  0  0  0  0  0  0  0  0
  -23.9358  -15.7837   23.4886 C   0  0  0  0  0  0  0  0  0  0  0  0
  -24.1252  -13.9404   21.7353 C   0  0  0  0  0  0  0  0  0  0  0  0
  -18.5092  -30.6898   23.6256 C   0  0  0  0  0  0  0  0  0  0  0  0
  -23.4334  -25.8584   21.1174 C   0  0  0  0  0  0  0  0  0  0  0  0
  -19.0553  -29.7980   22.6828 C   0  0  0  0  0  0  0  0  0  0  0  0
  -24.4120  -26.4207   20.2853 C   0  0  0  0  0  0  0  0  0  0  0  0
  -30.0472  -17.7760   17.6963 C   0  0  0  0  0  0  0  0  0  0  0  0
  -28.3838  -19.5045   16.2722 C   0  0  0  0  0  0  0  0  0  0  0  0
  -29.6785  -19.0023   18.2493 C   0  0  0  0  0  0  0  0  0  0  0  0
  -22.5259  -17.5200   25.1560 C   0  0  0  0  0  0  0  0  0  0  0  0
  -24.0445  -24.6405   18.6709 C   0  0  0  0  0  0  0  0  0  0  0  0
  -21.7774  -19.7017   25.6055 C   0  0  0  0  0  0  0  0  0  0  0  0
  -21.6578  -22.3910   24.8734 C   0  0  0  0  0  0  0  0  0  0  0  0
  -20.5425  -20.3061   25.3701 C   0  0  0  0  0  0  0  0  0  0  0  0
  -24.6639  -14.8863   22.6279 C   0  0  0  0  0  0  0  0  0  0  0  0
  -25.2224  -13.3476   21.1598 C   0  0  0  0  0  0  0  0  0  0  0  0
  -24.6762  -21.4162   15.3047 C   0  0  0  0  0  0  0  0  0  0  0  0
  -25.1512  -22.0792   16.3753 C   0  0  0  0  0  0  0  0  0  0  0  0
  -22.7554  -13.6257   21.4517 C   0  0  0  0  0  0  0  0  0  0  0  0
  -22.4991  -28.8278   21.7600 C   0  0  0  0  0  0  0  0  0  0  0  0
  -25.6029  -29.2015   22.6256 C   0  0  0  0  0  0  0  0  0  0  0  0
  -28.8284  -28.1882   21.3657 C   0  0  0  0  0  0  0  0  0  0  0  0
  -30.8562  -15.1770   20.2856 C   0  0  0  0  0  0  0  0  0  0  0  0
  -19.1559  -32.0183   23.9283 C   0  0  0  0  0  0  0  0  0  0  0  0
  -23.1154  -26.4822   22.4486 C   0  0  0  0  0  0  0  0  0  0  0  0
  -25.1532  -27.6746   20.6680 C   0  0  0  0  0  0  0  0  0  0  0  0
  -25.4689  -20.8006   14.1898 C   0  0  0  0  0  0  0  0  0  0  0  0
  -26.6074  -22.3534   16.6820 C   0  0  0  0  0  0  0  0  0  0  0  0
  -20.6134  -32.1019   23.4822 C   0  0  0  0  0  0  0  0  0  0  0  0
  -29.7982  -12.2733   22.0536 C   0  0  0  0  0  0  0  0  0  0  0  0
  -20.7688  -31.5658   22.0626 C   0  0  0  0  0  0  0  0  0  0  0  0
  -28.3137  -12.5284   22.3207 C   0  0  0  0  0  0  0  0  0  0  0  0
  -26.5601  -19.8181   14.6234 C   0  0  0  0  0  0  0  0  0  0  0  0
  -27.6554  -21.8220   15.7021 C   0  0  0  0  0  0  0  0  0  0  0  0
  -30.6172  -13.5589   22.1460 C   0  0  0  0  0  0  0  0  0  0  0  0
  -28.6459  -14.9205   21.5683 C   0  0  0  0  0  0  0  0  0  0  0  0
  -20.3656  -30.0884   21.9836 C   0  0  1  0  0  0  0  0  0  0  0  0
  -23.4706  -27.9644   22.5139 C   0  0  1  0  0  0  0  0  0  0  0  0
  -27.7707  -13.6629   21.4312 C   0  0  2  0  0  0  0  0  0  0  0  0
  -31.0014  -27.8088   22.5621 C   0  0  0  0  0  0  0  0  0  0  0  0
  -26.1899  -32.0996   21.8730 C   0  0  0  0  0  0  0  0  0  0  0  0
  -28.5677  -31.4364   21.4551 C   0  0  0  0  0  0  0  0  0  0  0  0
  -27.5922  -31.2018   23.7390 C   0  0  0  0  0  0  0  0  0  0  0  0
  -29.0678  -25.4373   20.3009 C   0  0  0  0  0  0  0  0  0  0  0  0
  -30.9362  -16.8307   18.4368 C   0  0  0  0  0  0  0  0  0  0  0  0
  -24.1952  -22.6366   17.3991 C   0  0  0  0  0  0  0  0  0  1  0  0
  -26.8699  -29.6092   21.9131 C   0  0  1  0  0  0  0  0  0  0  0  0
  -29.7591  -27.1560   21.9762 C   0  0  2  0  0  0  0  0  0  0  0  0
  -27.2836  -31.0737   22.2313 C   0  0  0  0  0  0  0  0  0  0  0  0
  -25.9995  -14.8972   22.6235 N   0  0  0  0  0  0  0  0  0  0  0  0
  -26.3093  -13.9508   21.7210 N   0  0  0  0  0  0  0  0  0  0  0  0
  -27.5483  -20.3701   15.5585 N   0  0  3  0  0  0  0  0  0  0  0  0
  -24.8024  -28.2507   21.9767 N   0  0  0  0  0  0  0  0  0  0  0  0
  -30.0507  -14.5937   21.2776 N   0  0  0  0  0  0  0  0  0  0  0  0
  -30.1385  -19.3855   19.5283 N   0  0  0  0  0  0  0  0  0  0  0  0
  -25.3538  -12.3745   20.2334 N   0  0  0  0  0  0  0  0  0  0  0  0
  -22.1271  -12.6305   22.2127 N   0  0  0  0  0  0  0  0  0  0  0  0
  -21.4188  -29.2482   22.5121 N   0  0  0  0  0  0  0  0  0  0  0  0
  -27.8758  -28.6137   22.2673 N   0  0  0  0  0  0  0  0  0  0  0  0
  -30.2396  -16.1449   19.5022 N   0  0  0  0  0  0  0  0  0  0  0  0
  -30.1884  -26.1707   20.9438 N   0  3  0  0  0  0  0  0  0  0  0  0
  -22.1127  -14.1983   20.5392 O   0  0  0  0  0  0  0  0  0  0  0  0
  -22.7145  -29.0943   20.5834 O   0  0  0  0  0  0  0  0  0  0  0  0
  -25.3370  -29.7026   23.7209 O   0  0  0  0  0  0  0  0  0  0  0  0
  -28.9379  -28.5808   20.2063 O   0  0  0  0  0  0  0  0  0  0  0  0
  -32.0359  -14.8550   20.1076 O   0  0  0  0  0  0  0  0  0  0  0  0
  -21.8384  -18.3670   25.9698 O   0  0  0  0  0  0  0  0  0  0  0  0
  -24.3407  -24.0539   17.4793 O   0  0  0  0  0  0  0  0  0  1  0  0
  -21.6004  -23.6826   24.5233 F   0  0  0  0  0  0  0  0  0  0  0  0
  -19.4102  -19.6004   25.4952 F   0  0  0  0  0  0  0  0  0  0  0  0
  1  2  1  0  0  0  0
  1  5  2  0  0  0  0
  2  6  2  0  0  0  0
  3 10  2  0  0  0  0
  3 18  1  0  0  0  0
  4 11  1  0  0  0  0
  4 18  2  0  0  0  0
  5 20  1  0  0  0  0
  6 22  1  0  0  0  0
  7 12  2  0  0  0  0
  7 21  1  0  0  0  0
  8  9  2  0  0  0  0
  8 24  1  0  0  0  0
  9 25  1  0  0  0  0
 10 27  1  0  0  0  0
 11 27  2  0  0  0  0
 12 28  1  0  0  0  0
 13 14  2  0  0  0  0
 13 29  1  0  0  0  0
 14 30  1  0  0  0  0
 15 23  1  0  0  0  0
 15 28  2  0  0  0  0
 16 25  2  0  0  0  0
 16 26  1  0  0  0  0
 17 30  2  0  0  0  0
 17 31  1  0  0  0  0
 18 32  1  0  0  0  0
 19 32  1  0  0  0  0
 19 33  2  0  0  0  0
 19 36  1  0  0  0  0
 20 22  2  0  0  0  0
 20 41  1  0  0  0  0
 21 23  2  0  0  0  0
 21 42  1  0  0  0  0
 22 54  1  0  0  0  0
 23 43  1  0  0  0  0
 24 26  2  0  0  0  0
 24 62  1  0  0  0  0
 25 69  1  0  0  0  0
 26 72  1  0  0  0  0
 27 84  1  0  0  0  0
 28 85  1  0  0  0  0
 29 31  2  0  0  0  0
 29 84  1  0  0  0  0
 30 86  1  0  0  0  0
 31 87  1  0  0  0  0
 32 67  2  0  0  0  0
 33 68  1  0  0  0  0
 33 73  1  0  0  0  0
 34 35  2  0  0  0  0
 34 44  1  0  0  0  0
 35 45  1  0  0  0  0
 35 63  1  0  0  0  0
 36 74  1  0  0  0  0
 36 79  2  0  0  0  0
 37 55  1  0  0  0  0
 37 75  1  0  0  0  0
 37 80  2  0  0  0  0
 38 64  1  0  0  0  0
 38 70  1  0  0  0  0
 38 81  2  0  0  0  0
 39 65  1  0  0  0  0
 39 76  1  0  0  0  0
 39 82  2  0  0  0  0
 40 71  1  0  0  0  0
 40 77  1  0  0  0  0
 40 83  2  0  0  0  0
 41 46  1  0  0  0  0
 42 55  1  0  0  0  0
 43 70  1  0  0  0  0
 44 50  1  0  0  0  0
 45 51  1  0  0  0  0
 46 48  1  0  0  0  0
 47 49  1  0  0  0  0
 47 52  1  0  0  0  0
 48 54  1  0  0  0  0
 49 56  1  0  0  0  0
 50 69  1  0  0  0  0
 51 69  1  0  0  0  0
 52 71  1  0  0  0  0
 53 56  1  0  0  0  0
 53 71  1  0  0  0  0
 54 75  1  0  0  0  0
 55 70  1  0  0  0  0
 56 68  1  0  0  0  0
 57 65  1  0  0  0  0
 58 66  1  0  0  0  0
 59 66  1  0  0  0  0
 60 66  1  0  0  0  0
 61 78  1  0  0  0  0
 62 77  1  0  0  0  0
 63 85  1  0  0  0  0
 64 66  1  0  0  0  0
 64 76  1  0  0  0  0
 65 78  1  0  0  0  0
 67 68  1  0  0  0  0
M  CHG  1  78   1
M  ISO  4  40 100  63 101  77 100  85 101
M  END
> <Batch ID>
0103

> <Smiles>
CNC(C)C(=O)NC(C(=O)N1Cc2cc([101O:1][101CH2:1]C3=CCCN(c4ccc(C[100NH:0][100C:0](=O)N5CCCC(n6nc(-c7ccc(Oc8ccc(F)cc8F)cc7)c(C(N)=O)c6N)C5)c(N)c4)CC3)ccc2CC1C(=O)NC1CCCc2ccccc21)C(C)(C)C

> <Shape>
0.200

> <Color>
0.101

> <Negative vol penalty>
0.000

$$$$

  -OEChem-04052301053D

 92101  0     1  0  0  0  0  0999 V2000
  -27.0327  -37.3732   24.2170 C   0  0  0  0  0  0  0  0  0  0  0  0
  -27.6482  -36.3453   23.5100 C   0  0  0  0  0  0  0  0  0  0  0  0
  -22.9015  -10.3249   21.4110 C   0  0  0  0  0  0  0  0  0  0  0  0
  -24.6814   -8.6988   21.5694 C   0  0  0  0  0  0  0  0  0  0  0  0
  -26.0121  -37.0821   25.1212 C   0  0  0  0  0  0  0  0  0  0  0  0
  -27.2443  -35.0253   23.7077 C   0  0  0  0  0  0  0  0  0  0  0  0
  -27.0362  -30.5709   19.5100 C   0  0  0  0  0  0  0  0  0  0  0  0
  -21.9679   -9.2934   21.3120 C   0  0  0  0  0  0  0  0  0  0  0  0
  -23.7477   -7.6673   21.4704 C   0  0  0  0  0  0  0  0  0  0  0  0
  -27.9120  -29.5309   19.2017 C   0  0  0  0  0  0  0  0  0  0  0  0
  -20.4149   -7.1308   23.3963 C   0  0  0  0  0  0  0  0  0  0  0  0
  -19.2546   -7.2308   24.1639 C   0  0  0  0  0  0  0  0  0  0  0  0
  -26.6172  -28.0384   20.5855 C   0  0  0  0  0  0  0  0  0  0  0  0
  -25.6375  -20.7817   19.2132 C   0  0  0  0  0  0  0  0  0  0  0  0
  -27.7068  -19.7146   20.7502 C   0  0  0  0  0  0  0  0  0  0  0  0
  -17.9190   -7.1846   22.1511 C   0  0  0  0  0  0  0  0  0  0  0  0
  -24.2583  -10.0277   21.5396 C   0  0  0  0  0  0  0  0  0  0  0  0
  -25.6848  -11.7123   22.8182 C   0  0  0  0  0  0  0  0  0  0  0  0
  -25.5889  -35.7589   25.3230 C   0  0  0  0  0  0  0  0  0  0  0  0
  -25.9487  -30.3548   20.3685 C   0  0  0  0  0  0  0  0  0  0  0  0
  -26.2180  -34.7161   24.6165 C   0  0  0  0  0  0  0  0  0  0  0  0
  -25.7276  -29.0766   20.9010 C   0  0  0  0  0  0  0  0  0  0  0  0
  -26.3971  -21.6146   20.0347 C   0  0  0  0  0  0  0  0  0  0  0  0
  -25.9125  -19.4152   19.1603 C   0  0  0  0  0  0  0  0  0  0  0  0
  -26.9472  -18.8817   19.9287 C   0  0  0  0  0  0  0  0  0  0  0  0
  -22.3910   -7.9645   21.3418 C   0  0  0  0  0  0  0  0  0  0  0  0
  -27.7043  -28.2651   19.7418 C   0  0  0  0  0  0  0  0  0  0  0  0
  -20.3273   -7.0578   22.0061 C   0  0  0  0  0  0  0  0  0  0  0  0
  -27.4317  -21.0811   20.8032 C   0  0  0  0  0  0  0  0  0  0  0  0
  -18.0066   -7.2577   23.5414 C   0  0  0  0  0  0  0  0  0  0  0  0
  -19.0794   -7.0846   21.3835 C   0  0  0  0  0  0  0  0  0  0  0  0
  -25.2233  -11.0928   21.6413 C   0  0  0  0  0  0  0  0  0  0  0  0
  -26.5846  -12.6533   22.3807 C   0  0  0  0  0  0  0  0  0  0  0  0
  -28.2024  -25.0516   17.5783 C   0  0  0  0  0  0  0  0  0  0  0  0
  -27.4566  -24.9573   16.4513 C   0  0  0  0  0  0  0  0  0  0  0  0
  -27.8476  -24.2858   18.8271 C   0  0  0  0  0  0  0  0  0  0  0  0
  -25.3318  -11.4596   24.1847 C   0  0  0  0  0  0  0  0  0  0  0  0
  -25.0535  -31.5126   23.1901 C   0  0  0  0  0  0  0  0  0  0  0  0
  -22.3822  -29.7617   22.6238 C   0  0  0  0  0  0  0  0  0  0  0  0
  -20.9330  -27.1278   21.0086 C   0  0  0  0  0  0  0  0  0  0  0  0
  -27.6278  -16.8337   18.6887 C   0  0  0  0  0  0  0  0  0  0  0  0
  -24.5141  -35.4885   26.3459 C   0  0  0  0  0  0  0  0  0  0  0  0
  -24.9977  -31.4805   20.6698 C   0  0  0  0  0  0  0  0  0  0  0  0
  -24.5633  -28.7875   21.8117 C   0  0  0  0  0  0  0  0  0  0  0  0
  -26.1983  -24.1042   16.4861 C   0  0  0  0  0  0  0  0  0  0  0  0
  -23.8892  -34.1014   26.2207 C   0  0  0  0  0  0  0  0  0  0  0  0
  -28.6515  -13.3940   17.8340 C   0  0  0  0  0  0  0  0  0  0  0  0
  -24.9732  -33.0401   26.0611 C   0  0  0  0  0  0  0  0  0  0  0  0
  -27.8341  -12.5441   18.8054 C   0  0  0  0  0  0  0  0  0  0  0  0
  -25.5714  -24.0836   17.8704 C   0  0  0  0  0  0  0  0  0  0  0  0
  -27.9367  -14.6943   17.4786 C   0  0  0  0  0  0  0  0  0  0  0  0
  -26.7253  -14.6568   19.6376 C   0  0  0  0  0  0  0  0  0  0  0  0
  -25.7909  -33.2742   24.7852 C   0  0  1  0  0  0  0  0  0  0  0  0
  -24.2178  -31.2734   21.9645 C   0  0  1  0  0  0  0  0  0  0  0  0
  -27.4382  -13.3596   20.0485 C   0  0  1  0  0  0  0  0  0  0  0  0
  -18.7439  -25.9234   20.7746 C   0  0  0  0  0  0  0  0  0  0  0  0
  -22.8133  -28.4542   25.3468 C   0  0  0  0  0  0  0  0  0  0  0  0
  -21.2183  -26.6522   24.6563 C   0  0  0  0  0  0  0  0  0  0  0  0
  -20.4327  -29.0138   24.8234 C   0  0  0  0  0  0  0  0  0  0  0  0
  -27.4005  -16.7526   21.1609 C   0  0  0  0  0  0  0  0  0  0  0  0
  -20.7879  -27.7135   18.1112 C   0  0  0  0  0  0  0  0  0  0  0  0
  -29.2203  -21.2521   22.3613 C   0  0  0  0  0  0  0  0  0  0  0  0
  -26.0858  -23.0827   20.0808 C   0  0  0  0  0  0  0  0  0  0  0  0
  -29.4639  -25.8707   17.6823 C   0  0  0  0  0  0  0  0  0  0  0  0
  -29.1953  -27.2891   18.1668 C   0  0  0  0  0  0  0  0  0  1  0  0
  -21.9509  -28.3447   22.9157 C   0  0  1  0  0  0  0  0  0  0  0  0
  -19.6414  -27.0178   20.2184 C   0  0  2  0  0  0  0  0  0  0  0  0
  -21.6270  -28.1218   24.4200 C   0  0  0  0  0  0  0  0  0  0  0  0
  -25.7835  -11.5979   20.5390 N   0  0  0  0  0  0  0  0  0  0  0  0
  -26.6062  -12.5447   21.0214 N   0  0  0  0  0  0  0  0  0  0  0  0
  -26.5568  -23.7768   18.8915 N   0  0  0  0  0  0  0  0  0  0  0  0
  -23.6652  -29.9225   22.0816 N   0  0  0  0  0  0  0  0  0  0  0  0
  -27.5310  -15.4277   18.6783 N   0  0  0  0  0  0  0  0  0  0  0  0
  -25.1315  -18.5901   18.3201 N   0  0  0  0  0  0  0  0  0  0  0  0
  -27.3514  -13.5548   23.0301 N   0  0  0  0  0  0  0  0  0  0  0  0
  -24.3908  -10.4573   24.4573 N   0  0  0  0  0  0  0  0  0  0  0  0
  -25.0543  -32.8248   23.6233 N   0  0  0  0  0  0  0  0  0  0  0  0
  -20.8369  -28.0637   22.0166 N   0  0  0  0  0  0  0  0  0  0  0  0
  -27.2507  -17.4706   19.8908 N   0  0  0  0  0  0  0  0  0  0  0  0
  -19.9327  -26.7064   18.7905 N   0  3  0  0  0  0  0  0  0  0  0  0
  -27.6124  -25.4776   15.3106 O   0  5  0  0  0  0  0  0  0  0  0  0
  -28.6875  -24.1587   19.7188 O   0  0  0  0  0  0  0  0  0  0  0  0
  -25.8236  -12.1148   25.1346 O   0  0  0  0  0  0  0  0  0  0  0  0
  -25.6521  -30.5757   23.7056 O   0  0  0  0  0  0  0  0  0  0  0  0
  -21.6066  -30.6910   22.8613 O   0  0  0  0  0  0  0  0  0  0  0  0
  -21.9264  -26.4485   20.7591 O   0  0  0  0  0  0  0  0  0  0  0  0
  -28.0464  -17.4661   17.7118 O   0  0  0  0  0  0  0  0  0  0  0  0
  -21.4802   -6.9577   21.2455 O   0  0  0  0  0  0  0  0  0  0  0  0
  -28.1833  -21.8808   21.6108 O   0  0  0  0  0  0  0  0  0  0  0  0
  -28.5581  -27.2484   19.4430 O   0  0  0  0  0  0  0  0  0  1  0  0
  -16.8924   -7.3522   24.2787 F   0  0  0  0  0  0  0  0  0  0  0  0
  -18.9889   -7.0136   20.0484 F   0  0  0  0  0  0  0  0  0  0  0  0
  1  2  1  0  0  0  0
  1  5  2  0  0  0  0
  2  6  2  0  0  0  0
  3  8  2  0  0  0  0
  3 17  1  0  0  0  0
  4  9  1  0  0  0  0
  4 17  2  0  0  0  0
  5 19  1  0  0  0  0
  6 21  1  0  0  0  0
  7 10  2  0  0  0  0
  7 20  1  0  0  0  0
  8 26  1  0  0  0  0
  9 26  2  0  0  0  0
 10 27  1  0  0  0  0
 11 12  2  0  0  0  0
 11 28  1  0  0  0  0
 12 30  1  0  0  0  0
 13 22  1  0  0  0  0
 13 27  2  0  0  0  0
 14 23  1  0  0  0  0
 14 24  2  0  0  0  0
 15 25  2  0  0  0  0
 15 29  1  0  0  0  0
 16 30  2  0  0  0  0
 16 31  1  0  0  0  0
 17 32  1  0  0  0  0
 18 32  1  0  0  0  0
 18 33  2  0  0  0  0
 18 37  1  0  0  0  0
 19 21  2  0  0  0  0
 19 42  1  0  0  0  0
 20 22  2  0  0  0  0
 20 43  1  0  0  0  0
 21 53  1  0  0  0  0
 22 44  1  0  0  0  0
 23 29  2  0  0  0  0
 23 63  1  0  0  0  0
 24 25  1  0  0  0  0
 24 74  1  0  0  0  0
 25 79  1  0  0  0  0
 26 88  1  0  0  0  0
 27 90  1  0  0  0  0
 28 31  2  0  0  0  0
 28 88  1  0  0  0  0
 29 89  1  0  0  0  0
 30 91  1  0  0  0  0
 31 92  1  0  0  0  0
 32 69  2  0  0  0  0
 33 70  1  0  0  0  0
 33 75  1  0  0  0  0
 34 35  2  0  0  0  0
 34 36  1  0  0  0  0
 34 64  1  0  0  0  0
 35 45  1  0  0  0  0
 35 81  1  0  0  0  0
 36 71  1  0  0  0  0
 36 82  2  0  0  0  0
 37 76  1  0  0  0  0
 37 83  2  0  0  0  0
 38 54  1  0  0  0  0
 38 77  1  0  0  0  0
 38 84  2  0  0  0  0
 39 66  1  0  0  0  0
 39 72  1  0  0  0  0
 39 85  2  0  0  0  0
 40 67  1  0  0  0  0
 40 78  1  0  0  0  0
 40 86  2  0  0  0  0
 41 73  1  0  0  0  0
 41 79  1  0  0  0  0
 41 87  2  0  0  0  0
 42 46  1  0  0  0  0
 43 54  1  0  0  0  0
 44 72  1  0  0  0  0
 45 50  1  0  0  0  0
 46 48  1  0  0  0  0
 47 49  1  0  0  0  0
 47 51  1  0  0  0  0
 48 53  1  0  0  0  0
 49 55  1  0  0  0  0
 50 71  1  0  0  0  0
 51 73  1  0  0  0  0
 52 55  1  0  0  0  0
 52 73  1  0  0  0  0
 53 77  1  0  0  0  0
 54 72  1  0  0  0  0
 55 70  1  0  0  0  0
 56 67  1  0  0  0  0
 57 68  1  0  0  0  0
 58 68  1  0  0  0  0
 59 68  1  0  0  0  0
 60 79  1  0  0  0  0
 61 80  1  0  0  0  0
 62 89  1  0  0  0  0
 63 71  1  0  0  0  0
 64 65  1  0  0  0  0
 65 90  1  0  0  0  0
 66 68  1  0  0  0  0
 66 78  1  0  0  0  0
 67 80  1  0  0  0  0
 69 70  1  0  0  0  0
M  CHG  2  80   1  81  -1
M  ISO  4  41 100  65 101  79 100  90 101
M  END
> <Batch ID>
0103

> <Smiles>
CNC(C)C(=O)NC(C(=O)N1Cc2cc([101O:1][101CH2:1]CC3C(=O)CCN(Cc4cc(N)c([100N:0](C)[100C:0](=O)N5CCCC(n6nc(-c7ccc(Oc8ccc(F)cc8F)cc7)c(C(N)=O)c6N)C5)cc4OC)C3=O)ccc2CC1C(=O)NC1CCCc2ccccc21)C(C)(C)C

> <Shape>
0.289

> <Color>
0.094

> <Negative vol penalty>
0.000

$$$$

  -OEChem-04052301053D

 87 96  0     1  0  0  0  0  0999 V2000
  -31.2684  -10.5507   26.2207 C   0  0  0  0  0  0  0  0  0  0  0  0
  -30.4048  -11.4575   25.6147 C   0  0  0  0  0  0  0  0  0  0  0  0
  -26.1778  -28.1857   22.2064 C   0  0  0  0  0  0  0  0  0  0  0  0
  -26.5524  -29.3572   20.1269 C   0  0  0  0  0  0  0  0  0  0  0  0
  -32.5484  -10.3561   25.7032 C   0  0  0  0  0  0  0  0  0  0  0  0
  -30.8211  -12.1713   24.4914 C   0  0  0  0  0  0  0  0  0  0  0  0
  -27.3011  -12.2934   20.8528 C   0  0  0  0  0  0  0  0  0  0  0  0
  -27.8241  -19.2137   20.3087 C   0  0  0  0  0  0  0  0  0  0  0  0
  -27.1411  -18.6045   21.3613 C   0  0  0  0  0  0  0  0  0  0  0  0
  -25.0399  -28.9587   22.4370 C   0  0  0  0  0  0  0  0  0  0  0  0
  -25.4144  -30.1302   20.3574 C   0  0  0  0  0  0  0  0  0  0  0  0
  -26.2437  -13.1867   21.0196 C   0  0  0  0  0  0  0  0  0  0  0  0
  -21.8280  -29.0394   21.3834 C   0  0  0  0  0  0  0  0  0  0  0  0
  -20.6766  -28.3841   21.8197 C   0  0  0  0  0  0  0  0  0  0  0  0
  -27.3219  -14.7343   19.5157 C   0  0  0  0  0  0  0  0  0  0  0  0
  -25.1452  -18.4972   20.0040 C   0  0  0  0  0  0  0  0  0  0  0  0
  -20.6791  -29.7198   23.8329 C   0  0  0  0  0  0  0  0  0  0  0  0
  -26.9341  -28.3849   21.0514 C   0  0  0  0  0  0  0  0  0  0  0  0
  -29.2582  -27.5021   21.6230 C   0  0  0  0  0  0  0  0  0  0  0  0
  -32.9771  -11.0607   24.5672 C   0  0  0  0  0  0  0  0  0  0  0  0
  -28.3839  -12.6191   20.0234 C   0  0  0  0  0  0  0  0  0  0  0  0
  -32.1085  -11.9870   23.9591 C   0  0  0  0  0  0  0  0  0  0  0  0
  -28.3905  -13.8424   19.3381 C   0  0  0  0  0  0  0  0  0  0  0  0
  -27.1677  -19.4647   19.1037 C   0  0  0  0  0  0  0  0  0  0  0  0
  -25.8283  -19.1064   18.9514 C   0  0  0  0  0  0  0  0  0  0  0  0
  -25.8017  -18.2462   21.2090 C   0  0  0  0  0  0  0  0  0  0  0  0
  -24.6582  -29.9309   21.5125 C   0  0  0  0  0  0  0  0  0  0  0  0
  -26.2553  -14.4086   20.3533 C   0  0  0  0  0  0  0  0  0  0  0  0
  -22.4050  -30.0350   22.1719 C   0  0  0  0  0  0  0  0  0  0  0  0
  -20.1022  -28.7243   23.0444 C   0  0  0  0  0  0  0  0  0  0  0  0
  -21.8306  -30.3752   23.3966 C   0  0  0  0  0  0  0  0  0  0  0  0
  -28.1100  -27.5871   20.8130 C   0  0  0  0  0  0  0  0  0  0  0  0
  -30.0781  -26.6183   20.9649 C   0  0  0  0  0  0  0  0  0  0  0  0
  -25.3485  -17.8081   23.6649 C   0  0  0  0  0  0  0  0  0  0  0  0
  -29.5569  -28.1628   22.8599 C   0  0  0  0  0  0  0  0  0  0  0  0
  -31.5044  -13.0308   20.4664 C   0  0  0  0  0  0  0  0  0  0  0  0
  -28.9081  -22.2164   17.0449 C   0  0  0  0  0  0  0  0  0  0  0  0
  -31.5345  -13.2849   17.2327 C   0  0  0  0  0  0  0  0  0  0  0  0
  -29.8251  -13.9994   14.3667 C   0  0  0  0  0  0  0  0  0  0  0  0
  -34.3864  -10.8516   24.0724 C   0  0  0  0  0  0  0  0  0  0  0  0
  -29.5039  -11.6333   19.8332 C   0  0  0  0  0  0  0  0  0  0  0  0
  -29.5197  -14.2311   18.4204 C   0  0  0  0  0  0  0  0  0  0  0  0
  -24.3565  -16.9616   24.4270 C   0  0  0  0  0  0  0  0  0  0  0  0
  -34.6181  -11.3716   22.6560 C   0  0  0  0  0  0  0  0  0  0  0  0
  -23.2694  -16.6858   23.4056 C   0  0  0  0  0  0  0  0  0  0  0  0
  -31.1120  -25.0047   16.5893 C   0  0  0  0  0  0  0  0  0  0  0  0
  -34.0314  -12.7709   22.4984 C   0  0  0  0  0  0  0  0  0  0  0  0
  -30.6775  -25.9871   17.6761 C   0  0  0  0  0  0  0  0  0  0  0  0
  -29.9234  -24.2295   16.0296 C   0  0  0  0  0  0  0  0  0  0  0  0
  -28.6861  -24.4941   18.1559 C   0  0  0  0  0  0  0  0  0  0  0  0
  -32.5147  -12.7618   22.7243 C   0  0  1  0  0  0  0  0  0  0  0  0
  -30.8016  -12.2860   19.3669 C   0  0  1  0  0  0  0  0  0  0  0  0
  -29.8609  -25.2759   18.7697 C   0  0  2  0  0  0  0  0  0  0  0  0
  -24.0182  -16.6617   22.0777 C   0  0  2  0  0  0  0  0  0  0  0  0
  -30.1268  -14.1572   11.8804 C   0  0  0  0  0  0  0  0  0  0  0  0
  -32.9876  -15.9453   17.5803 C   0  0  0  0  0  0  0  0  0  0  0  0
  -32.4181  -16.4874   15.2034 C   0  0  0  0  0  0  0  0  0  0  0  0
  -33.8573  -14.5167   15.7209 C   0  0  0  0  0  0  0  0  0  0  0  0
  -27.8132  -11.8860   13.8718 C   0  0  0  0  0  0  0  0  0  0  0  0
  -27.9196  -20.1187   17.9913 C   0  0  0  0  0  0  0  0  0  0  0  0
  -25.1056  -19.3634   17.6699 C   0  0  0  0  0  0  0  0  0  0  0  0
  -28.1196  -21.6261   18.1868 C   0  0  0  0  0  0  0  0  0  0  0  0
  -24.5425  -15.2577   21.7679 C   0  0  0  0  0  0  0  0  0  1  0  0
  -31.3866  -14.4196   16.2481 C   0  0  1  0  0  0  0  0  0  0  0  0
  -29.7254  -13.2628   13.0431 C   0  0  2  0  0  0  0  0  0  0  0  0
  -32.6419  -15.3360   16.2069 C   0  0  0  0  0  0  0  0  0  0  0  0
  -28.1897  -26.8188   19.7233 N   0  0  0  0  0  0  0  0  0  0  0  0
  -29.3978  -26.2426   19.8440 N   0  0  0  0  0  0  0  0  0  0  0  0
  -25.1006  -17.6190   22.2887 N   0  0  0  0  0  0  0  0  0  0  0  0
  -30.5947  -13.2362   18.2721 N   0  0  0  0  0  0  0  0  0  0  0  0
  -29.1606  -23.5872   17.1015 N   0  0  0  0  0  0  0  0  0  0  0  0
  -31.3074  -26.1337   21.2412 N   0  0  0  0  0  0  0  0  0  0  0  0
  -30.2041  -29.4052   22.8144 N   0  0  0  0  0  0  0  0  0  0  0  0
  -31.8328  -12.2471   21.5561 N   0  0  0  0  0  0  0  0  0  0  0  0
  -31.0515  -13.8073   14.9670 N   0  0  0  0  0  0  0  0  0  0  0  0
  -25.2036  -18.2369   16.7024 N   0  3  0  0  0  0  0  0  0  0  0  0
  -28.3293  -12.7938   12.8151 N   0  3  0  0  0  0  0  0  0  0  0  0
  -26.1987  -18.4810   24.2297 O   0  0  0  0  0  0  0  0  0  0  0  0
  -29.2735  -27.6586   23.9730 O   0  0  0  0  0  0  0  0  0  0  0  0
  -31.7333  -14.2275   20.3352 O   0  0  0  0  0  0  0  0  0  0  0  0
  -29.2898  -21.4791   16.1323 O   0  0  0  0  0  0  0  0  0  0  0  0
  -32.4459  -12.4676   17.0811 O   0  0  0  0  0  0  0  0  0  0  0  0
  -28.9082  -14.6803   14.8208 O   0  0  0  0  0  0  0  0  0  0  0  0
  -23.5477  -30.6852   21.7370 O   0  0  0  0  0  0  0  0  0  0  0  0
  -25.2248  -15.2825   20.5148 O   0  0  0  0  0  0  0  0  0  1  0  0
  -18.9956  -28.0959   23.4626 F   0  0  0  0  0  0  0  0  0  0  0  0
  -22.3797  -31.3316   24.1579 F   0  0  0  0  0  0  0  0  0  0  0  0
  1  2  1  0  0  0  0
  1  5  2  0  0  0  0
  2  6  2  0  0  0  0
  3 10  2  0  0  0  0
  3 18  1  0  0  0  0
  4 11  1  0  0  0  0
  4 18  2  0  0  0  0
  5 20  1  0  0  0  0
  6 22  1  0  0  0  0
  7 12  2  0  0  0  0
  7 21  1  0  0  0  0
  8  9  2  0  0  0  0
  8 24  1  0  0  0  0
  9 26  1  0  0  0  0
 10 27  1  0  0  0  0
 11 27  2  0  0  0  0
 12 28  1  0  0  0  0
 13 14  2  0  0  0  0
 13 29  1  0  0  0  0
 14 30  1  0  0  0  0
 15 23  1  0  0  0  0
 15 28  2  0  0  0  0
 16 25  1  0  0  0  0
 16 26  2  0  0  0  0
 17 30  2  0  0  0  0
 17 31  1  0  0  0  0
 18 32  1  0  0  0  0
 19 32  1  0  0  0  0
 19 33  2  0  0  0  0
 19 35  1  0  0  0  0
 20 22  2  0  0  0  0
 20 40  1  0  0  0  0
 21 23  2  0  0  0  0
 21 41  1  0  0  0  0
 22 51  1  0  0  0  0
 23 42  1  0  0  0  0
 24 25  2  0  0  0  0
 24 60  1  0  0  0  0
 25 61  1  0  0  0  0
 26 69  1  0  0  0  0
 27 84  1  0  0  0  0
 28 85  1  0  0  0  0
 29 31  2  0  0  0  0
 29 84  1  0  0  0  0
 30 86  1  0  0  0  0
 31 87  1  0  0  0  0
 32 67  2  0  0  0  0
 33 68  1  0  0  0  0
 33 72  1  0  0  0  0
 34 43  1  0  0  0  0
 34 69  1  0  0  0  0
 34 78  2  0  0  0  0
 35 73  1  0  0  0  0
 35 79  2  0  0  0  0
 36 52  1  0  0  0  0
 36 74  1  0  0  0  0
 36 80  2  0  0  0  0
 37 62  1  0  0  0  0
 37 71  1  0  0  0  0
 37 81  2  0  0  0  0
 38 64  1  0  0  0  0
 38 70  1  0  0  0  0
 38 82  2  0  0  0  0
 39 65  1  0  0  0  0
 39 75  1  0  0  0  0
 39 83  2  0  0  0  0
 40 44  1  0  0  0  0
 41 52  1  0  0  0  0
 42 70  1  0  0  0  0
 43 45  1  0  0  0  0
 44 47  1  0  0  0  0
 45 54  1  0  0  0  0
 46 48  1  0  0  0  0
 46 49  1  0  0  0  0
 47 51  1  0  0  0  0
 48 53  1  0  0  0  0
 49 71  1  0  0  0  0
 50 53  1  0  0  0  0
 50 71  1  0  0  0  0
 51 74  1  0  0  0  0
 52 70  1  0  0  0  0
 53 68  1  0  0  0  0
 54 63  1  0  0  0  0
 54 69  1  0  0  0  0
 55 65  1  0  0  0  0
 56 66  1  0  0  0  0
 57 66  1  0  0  0  0
 58 66  1  0  0  0  0
 59 77  1  0  0  0  0
 60 62  1  0  0  0  0
 61 76  1  0  0  0  0
 63 85  1  0  0  0  0
 64 66  1  0  0  0  0
 64 75  1  0  0  0  0
 65 77  1  0  0  0  0
 67 68  1  0  0  0  0
M  CHG  2  76   1  77   1
M  ISO  4  37 100  62 100  63 101  85 101
M  END
> <Batch ID>
0103

> <Smiles>
CNC(C)C(=O)NC(C(=O)N1Cc2cc([101O:1][101CH2:1]C3CCC(=O)N3c3ccc(C[100CH2:0][100C:0](=O)N4CCCC(n5nc(-c6ccc(Oc7ccc(F)cc7F)cc6)c(C(N)=O)c5N)C4)c(CN)c3)ccc2CC1C(=O)NC1CCCc2ccccc21)C(C)(C)C

> <Shape>
0.213

> <Color>
0.065

> <Negative vol penalty>
0.000

$$$$

  -OEChem-04052301053D

 83 91  0     1  0  0  0  0  0999 V2000
  -46.3740  -18.2944   20.6453 C   0  0  0  0  0  0  0  0  0  0  0  0
  -45.0284  -17.9582   20.5369 C   0  0  0  0  0  0  0  0  0  0  0  0
  -23.0007   -9.8937   19.9813 C   0  0  0  0  0  0  0  0  0  0  0  0
  -23.7309   -9.9431   22.2837 C   0  0  0  0  0  0  0  0  0  0  0  0
  -46.8163  -19.5436   20.2121 C   0  0  0  0  0  0  0  0  0  0  0  0
  -44.1241  -18.8716   19.9962 C   0  0  0  0  0  0  0  0  0  0  0  0
  -39.2044  -17.5978   16.5786 C   0  0  0  0  0  0  0  0  0  0  0  0
  -22.2360   -8.7581   20.2481 C   0  0  0  0  0  0  0  0  0  0  0  0
  -22.9662   -8.8074   22.5506 C   0  0  0  0  0  0  0  0  0  0  0  0
  -37.8496  -17.4888   16.8887 C   0  0  0  0  0  0  0  0  0  0  0  0
  -23.2132   -5.4693   22.0746 C   0  0  0  0  0  0  0  0  0  0  0  0
  -23.8035   -4.4519   22.8243 C   0  0  0  0  0  0  0  0  0  0  0  0
  -30.3143  -19.9540   18.9796 C   0  0  0  0  0  0  0  0  0  0  0  0
  -31.6746  -18.2480   20.0167 C   0  0  0  0  0  0  0  0  0  0  0  0
  -37.5133  -19.7750   16.1962 C   0  0  0  0  0  0  0  0  0  0  0  0
  -22.0831   -4.6912   24.5036 C   0  0  0  0  0  0  0  0  0  0  0  0
  -23.7482  -10.4862   20.9991 C   0  0  0  0  0  0  0  0  0  0  0  0
  -31.5203  -19.2589   19.0681 C   0  0  0  0  0  0  0  0  0  0  0  0
  -24.1303  -13.0024   20.8249 C   0  0  0  0  0  0  0  0  0  0  0  0
  -45.9186  -20.4691   19.6569 C   0  0  0  0  0  0  0  0  0  0  0  0
  -39.7268  -18.8017   16.0843 C   0  0  0  0  0  0  0  0  0  0  0  0
  -44.5546  -20.1349   19.5564 C   0  0  0  0  0  0  0  0  0  0  0  0
  -38.8746  -19.8959   15.8781 C   0  0  0  0  0  0  0  0  0  0  0  0
  -29.2625  -19.6383   19.8398 C   0  0  0  0  0  0  0  0  0  0  0  0
  -30.6229  -17.9322   20.8769 C   0  0  0  0  0  0  0  0  0  0  0  0
  -29.4168  -18.6274   20.7884 C   0  0  0  0  0  0  0  0  0  0  0  0
  -22.2187   -8.2150   21.5327 C   0  0  0  0  0  0  0  0  0  0  0  0
  -37.0043  -18.5784   16.7003 C   0  0  0  0  0  0  0  0  0  0  0  0
  -22.0578   -6.0976   22.5394 C   0  0  0  0  0  0  0  0  0  0  0  0
  -23.2385   -4.0629   24.0388 C   0  0  0  0  0  0  0  0  0  0  0  0
  -21.4928   -5.7086   23.7539 C   0  0  0  0  0  0  0  0  0  0  0  0
  -24.5388  -11.6590   20.7239 C   0  0  0  0  0  0  0  0  0  0  0  0
  -25.2385  -13.7266   20.4588 C   0  0  0  0  0  0  0  0  0  0  0  0
  -32.6304  -19.5926   18.1601 C   0  0  0  0  0  0  0  0  0  0  0  0
  -33.9212  -19.2920   18.3723 C   0  0  0  0  0  0  0  0  0  0  0  0
  -22.8626  -13.5470   21.2148 C   0  0  0  0  0  0  0  0  0  0  0  0
  -41.9006  -20.8875   17.0982 C   0  0  0  0  0  0  0  0  0  0  0  0
  -41.3815  -22.2462   14.1987 C   0  0  0  0  0  0  0  0  0  0  0  0
  -39.2851  -22.6963   11.5437 C   0  0  0  0  0  0  0  0  0  0  0  0
  -30.7343  -14.6671   20.6962 C   0  0  0  0  0  0  0  0  0  0  0  0
  -46.4355  -21.8251   19.2460 C   0  0  0  0  0  0  0  0  0  0  0  0
  -41.1855  -18.8948   15.7294 C   0  0  0  0  0  0  0  0  0  0  0  0
  -39.3820  -21.2042   15.3309 C   0  0  0  0  0  0  0  0  0  0  0  0
  -45.4769  -22.5934   18.3398 C   0  0  0  0  0  0  0  0  0  0  0  0
  -29.5912  -12.2446   18.3507 C   0  0  0  0  0  0  0  0  0  0  0  0
  -44.0566  -22.5344   18.8930 C   0  0  0  0  0  0  0  0  0  0  0  0
  -28.1439  -11.9828   18.7712 C   0  0  0  0  0  0  0  0  0  0  0  0
  -30.4960  -12.4797   19.5582 C   0  0  0  0  0  0  0  0  0  0  0  0
  -28.5879  -13.2717   20.9020 C   0  0  0  0  0  0  0  0  0  0  0  0
  -43.5473  -21.0892   18.9525 C   0  0  1  0  0  0  0  0  0  0  0  0
  -41.7072  -20.3283   15.7170 C   0  0  1  0  0  0  0  0  0  0  0  0
  -27.6265  -13.0842   19.7159 C   0  0  2  0  0  0  0  0  0  0  0  0
  -27.9826  -20.4007   19.7217 C   0  0  0  0  0  0  0  0  0  0  0  0
  -39.1225  -23.8901    9.3424 C   0  0  0  0  0  0  0  0  0  0  0  0
  -40.8431  -24.8683   15.6632 C   0  0  0  0  0  0  0  0  0  0  0  0
  -39.7841  -25.7399   13.5687 C   0  0  0  0  0  0  0  0  0  0  0  0
  -42.1952  -25.0999   13.5721 C   0  0  0  0  0  0  0  0  0  0  0  0
  -39.0322  -20.1531   10.0513 C   0  0  0  0  0  0  0  0  0  0  0  0
  -30.8172  -16.8448   21.8835 C   0  0  0  0  0  0  0  0  0  0  0  0
  -35.0170  -19.6647   17.4260 C   0  0  0  0  0  0  0  0  0  1  0  0
  -40.4322  -23.2899   13.6617 C   0  0  1  0  0  0  0  0  0  0  0  0
  -39.5207  -22.6026   10.0470 C   0  0  2  0  0  0  0  0  0  0  0  0
  -40.8041  -24.7256   14.1286 C   0  0  0  0  0  0  0  0  0  0  0  0
  -25.8073  -11.5343   20.3248 N   0  0  0  0  0  0  0  0  0  0  0  0
  -26.2055  -12.8087   20.1717 N   0  0  0  0  0  0  0  0  0  0  0  0
  -40.8171  -21.2476   15.0050 N   0  0  0  0  0  0  0  0  0  0  0  0
  -29.9499  -13.5369   20.4126 N   0  0  0  0  0  0  0  0  0  0  0  0
  -28.3506  -18.3074   21.6604 N   0  0  0  0  0  0  0  0  0  0  0  0
  -25.4702  -15.0527   20.3576 N   0  0  0  0  0  0  0  0  0  0  0  0
  -21.8326  -12.6613   21.5597 N   0  0  0  0  0  0  0  0  0  0  0  0
  -43.1490  -20.6391   17.6360 N   0  0  0  0  0  0  0  0  0  0  0  0
  -40.4142  -23.1186   12.2130 N   0  0  0  0  0  0  0  0  0  0  0  0
  -30.1387  -15.6243   21.5084 N   0  0  0  0  0  0  0  0  0  0  0  0
  -38.7255  -21.4838    9.4664 N   0  3  0  0  0  0  0  0  0  0  0  0
  -22.6446  -14.7820   21.2403 O   0  0  0  0  0  0  0  0  0  0  0  0
  -40.9855  -21.5003   17.6355 O   0  0  0  0  0  0  0  0  0  0  0  0
  -42.5784  -22.3103   13.9075 O   0  0  0  0  0  0  0  0  0  0  0  0
  -38.2061  -22.4257   12.0663 O   0  0  0  0  0  0  0  0  0  0  0  0
  -31.8786  -14.8147   20.2537 O   0  0  0  0  0  0  0  0  0  0  0  0
  -21.4725   -7.1070   21.7935 O   0  0  0  0  0  0  0  0  0  0  0  0
  -35.6816  -18.4749   17.0028 O   0  0  0  0  0  0  0  0  0  1  0  0
  -23.8046   -3.0848   24.7579 F   0  0  0  0  0  0  0  0  0  0  0  0
  -20.3822   -6.3077   24.2050 F   0  0  0  0  0  0  0  0  0  0  0  0
  1  2  1  0  0  0  0
  1  5  2  0  0  0  0
  2  6  2  0  0  0  0
  3  8  2  0  0  0  0
  3 17  1  0  0  0  0
  4  9  1  0  0  0  0
  4 17  2  0  0  0  0
  5 20  1  0  0  0  0
  6 22  1  0  0  0  0
  7 10  2  0  0  0  0
  7 21  1  0  0  0  0
  8 27  1  0  0  0  0
  9 27  2  0  0  0  0
 10 28  1  0  0  0  0
 11 12  2  0  0  0  0
 11 29  1  0  0  0  0
 12 30  1  0  0  0  0
 13 18  1  0  0  0  0
 13 24  2  0  0  0  0
 14 18  2  0  0  0  0
 14 25  1  0  0  0  0
 15 23  1  0  0  0  0
 15 28  2  0  0  0  0
 16 30  2  0  0  0  0
 16 31  1  0  0  0  0
 17 32  1  0  0  0  0
 18 34  1  0  0  0  0
 19 32  1  0  0  0  0
 19 33  2  0  0  0  0
 19 36  1  0  0  0  0
 20 22  2  0  0  0  0
 20 41  1  0  0  0  0
 21 23  2  0  0  0  0
 21 42  1  0  0  0  0
 22 50  1  0  0  0  0
 23 43  1  0  0  0  0
 24 26  1  0  0  0  0
 24 53  1  0  0  0  0
 25 26  2  0  0  0  0
 25 59  1  0  0  0  0
 26 68  1  0  0  0  0
 27 80  1  0  0  0  0
 28 81  1  0  0  0  0
 29 31  2  0  0  0  0
 29 80  1  0  0  0  0
 30 82  1  0  0  0  0
 31 83  1  0  0  0  0
 32 64  2  0  0  0  0
 33 65  1  0  0  0  0
 33 69  1  0  0  0  0
 34 35  2  0  0  0  0
 35 60  1  0  0  0  0
 36 70  1  0  0  0  0
 36 75  2  0  0  0  0
 37 51  1  0  0  0  0
 37 71  1  0  0  0  0
 37 76  2  0  0  0  0
 38 61  1  0  0  0  0
 38 66  1  0  0  0  0
 38 77  2  0  0  0  0
 39 62  1  0  0  0  0
 39 72  1  0  0  0  0
 39 78  2  0  0  0  0
 40 67  1  0  0  0  0
 40 73  1  0  0  0  0
 40 79  2  0  0  0  0
 41 44  1  0  0  0  0
 42 51  1  0  0  0  0
 43 66  1  0  0  0  0
 44 46  1  0  0  0  0
 45 47  1  0  0  0  0
 45 48  1  0  0  0  0
 46 50  1  0  0  0  0
 47 52  1  0  0  0  0
 48 67  1  0  0  0  0
 49 52  1  0  0  0  0
 49 67  1  0  0  0  0
 50 71  1  0  0  0  0
 51 66  1  0  0  0  0
 52 65  1  0  0  0  0
 54 62  1  0  0  0  0
 55 63  1  0  0  0  0
 56 63  1  0  0  0  0
 57 63  1  0  0  0  0
 58 74  1  0  0  0  0
 59 73  1  0  0  0  0
 60 81  1  0  0  0  0
 61 63  1  0  0  0  0
 61 72  1  0  0  0  0
 62 74  1  0  0  0  0
 64 65  1  0  0  0  0
M  CHG  1  74   1
M  ISO  4  40 100  60 101  73 100  81 101
M  END
> <Batch ID>
0103

> <Smiles>
CNC(C)C(=O)NC(C(=O)N1Cc2cc([101O:1][101CH2:1]C=Cc3cc(C)c(N)c(C[100NH:0][100C:0](=O)N4CCCC(n5nc(-c6ccc(Oc7ccc(F)cc7F)cc6)c(C(N)=O)c5N)C4)c3)ccc2CC1C(=O)NC1CCCc2ccccc21)C(C)(C)C

> <Shape>
0.200

> <Color>
0.197

> <Negative vol penalty>
0.000

$$$$

  -OEChem-04052301053D

 84 93  0     1  0  0  0  0  0999 V2000
  -21.5801  -28.2211   21.5305 C   0  0  0  0  0  0  0  0  0  0  0  0
  -22.1160  -27.4310   20.5185 C   0  0  0  0  0  0  0  0  0  0  0  0
  -23.2027   -9.8826   19.8864 C   0  0  0  0  0  0  0  0  0  0  0  0
  -23.6581   -9.9212   22.2588 C   0  0  0  0  0  0  0  0  0  0  0  0
  -22.2780  -29.3400   21.9833 C   0  0  0  0  0  0  0  0  0  0  0  0
  -23.3496  -27.7601   19.9579 C   0  0  0  0  0  0  0  0  0  0  0  0
  -26.3706  -23.7330   19.4093 C   0  0  0  0  0  0  0  0  0  0  0  0
  -22.4457   -8.7227   20.0505 C   0  0  0  0  0  0  0  0  0  0  0  0
  -22.9010   -8.7613   22.4230 C   0  0  0  0  0  0  0  0  0  0  0  0
  -26.1144  -22.8870   18.3311 C   0  0  0  0  0  0  0  0  0  0  0  0
  -23.2991   -5.4380   21.9452 C   0  0  0  0  0  0  0  0  0  0  0  0
  -23.8275   -4.4275   22.7484 C   0  0  0  0  0  0  0  0  0  0  0  0
  -28.4071  -15.5936   15.9777 C   0  0  0  0  0  0  0  0  0  0  0  0
  -27.9015  -23.9330   17.0936 C   0  0  0  0  0  0  0  0  0  0  0  0
  -27.6173  -17.7830   17.5814 C   0  0  0  0  0  0  0  0  0  0  0  0
  -21.9170   -4.5961   24.2176 C   0  0  0  0  0  0  0  0  0  0  0  0
  -23.8090  -10.4819   20.9905 C   0  0  0  0  0  0  0  0  0  0  0  0
  -28.9328  -15.7622   17.2603 C   0  0  0  0  0  0  0  0  0  0  0  0
  -24.1352  -13.0099   20.8877 C   0  0  0  0  0  0  0  0  0  0  0  0
  -23.5253  -29.6774   21.4346 C   0  0  0  0  0  0  0  0  0  0  0  0
  -27.3887  -24.6942   19.3336 C   0  0  0  0  0  0  0  0  0  0  0  0
  -24.0642  -28.8854   20.4028 C   0  0  0  0  0  0  0  0  0  0  0  0
  -27.4931  -16.5250   15.5153 C   0  0  0  0  0  0  0  0  0  0  0  0
  -28.1703  -24.7882   18.1732 C   0  0  0  0  0  0  0  0  0  0  0  0
  -27.1046  -17.6114   16.3056 C   0  0  0  0  0  0  0  0  0  0  0  0
  -22.2948   -8.1620   21.3188 C   0  0  0  0  0  0  0  0  0  0  0  0
  -26.8780  -22.9889   17.1720 C   0  0  0  0  0  0  0  0  0  0  0  0
  -22.0796   -6.0277   22.2783 C   0  0  0  0  0  0  0  0  0  0  0  0
  -28.5401  -16.8489   18.0569 C   0  0  0  0  0  0  0  0  0  0  0  0
  -23.1365   -4.0065   23.8846 C   0  0  0  0  0  0  0  0  0  0  0  0
  -21.3885   -5.6067   23.4144 C   0  0  0  0  0  0  0  0  0  0  0  0
  -24.5917  -11.6798   20.8215 C   0  0  0  0  0  0  0  0  0  0  0  0
  -25.2568  -13.7695   20.6609 C   0  0  0  0  0  0  0  0  0  0  0  0
  -29.9030  -14.7805   17.7624 C   0  0  0  0  0  0  0  0  0  0  0  0
  -22.8154  -13.5137   21.1324 C   0  0  0  0  0  0  0  0  0  0  0  0
  -26.5694  -19.8600   15.3847 C   0  0  0  0  0  0  0  0  0  0  0  0
  -27.4916  -27.8683   19.4695 C   0  0  0  0  0  0  0  0  0  0  0  0
  -30.6977  -27.3780   19.4116 C   0  0  0  0  0  0  0  0  0  0  0  0
  -33.3023  -25.3418   18.5652 C   0  0  0  0  0  0  0  0  0  0  0  0
  -24.2204  -30.9233   21.9238 C   0  0  0  0  0  0  0  0  0  0  0  0
  -27.6700  -25.5812   20.5153 C   0  0  0  0  0  0  0  0  0  0  0  0
  -29.2883  -25.7897   18.0491 C   0  0  0  0  0  0  0  0  0  0  0  0
  -26.7998  -16.5542   14.1971 C   0  0  0  0  0  0  0  0  0  0  0  0
  -25.6955  -30.9895   21.5368 C   0  0  0  0  0  0  0  0  0  0  0  0
  -30.1433  -12.4785   20.4798 C   0  0  0  0  0  0  0  0  0  0  0  0
  -25.8782  -30.6293   20.0658 C   0  0  0  0  0  0  0  0  0  0  0  0
  -28.6837  -12.1574   20.8062 C   0  0  0  0  0  0  0  0  0  0  0  0
  -30.3550  -12.6782   18.9812 C   0  0  0  0  0  0  0  0  0  0  0  0
  -27.9988  -13.3623   18.6896 C   0  0  0  0  0  0  0  0  0  0  0  0
  -26.1017  -18.4428   15.5849 C   0  0  1  0  0  0  0  0  0  0  0  0
  -25.4112  -29.1956   19.7868 C   0  0  1  0  0  0  0  0  0  0  0  0
  -28.3944  -26.8694   20.1365 C   0  0  1  0  0  0  0  0  0  0  0  0
  -27.7324  -13.2037   20.1956 C   0  0  1  0  0  0  0  0  0  0  0  0
  -35.8089  -25.2288   18.6080 C   0  0  0  0  0  0  0  0  0  0  0  0
  -30.8223  -29.2976   17.0432 C   0  0  0  0  0  0  0  0  0  0  0  0
  -33.1146  -28.4233   16.5445 C   0  0  0  0  0  0  0  0  0  0  0  0
  -32.6655  -29.5767   18.7102 C   0  0  0  0  0  0  0  0  0  0  0  0
  -33.2804  -22.9469   20.3038 C   0  0  0  0  0  0  0  0  0  0  0  0
  -28.6018  -18.1406   20.0528 C   0  0  0  0  0  0  0  0  0  0  0  0
  -26.1092  -20.8697   16.4145 C   0  0  0  0  0  0  0  0  0  1  0  0
  -31.7409  -27.2549   18.3274 C   0  0  1  0  0  0  0  0  0  0  0  0
  -34.5232  -24.8905   19.3464 C   0  0  2  0  0  0  0  0  0  0  0  0
  -32.0636  -28.6205   17.6576 C   0  0  0  0  0  0  0  0  0  0  0  0
  -25.9012  -11.5959   20.5720 N   0  0  0  0  0  0  0  0  0  0  0  0
  -26.2771  -12.8828   20.4794 N   0  0  0  0  0  0  0  0  0  0  0  0
  -29.4168  -13.6682   18.4535 N   0  0  0  0  0  0  0  0  0  0  0  0
  -29.5203  -26.6388   19.2292 N   0  0  0  0  0  0  0  0  0  0  0  0
  -25.4600  -15.1027   20.6009 N   0  0  0  0  0  0  0  0  0  0  0  0
  -21.7785  -12.5952   21.3456 N   0  0  0  0  0  0  0  0  0  0  0  0
  -26.4048  -28.2440   20.2358 N   0  0  0  0  0  0  0  0  0  0  0  0
  -32.8929  -26.6036   18.9415 N   0  0  0  0  0  0  0  0  0  0  0  0
  -25.9109  -17.7827   14.2327 N   0  3  0  0  0  0  0  0  0  0  0  0
  -34.4815  -23.4172   19.5669 N   0  3  0  0  0  0  0  0  0  0  0  0
  -31.0880  -15.0256   17.5414 O   0  0  0  0  0  0  0  0  0  0  0  0
  -22.5599  -14.7417   21.1448 O   0  0  0  0  0  0  0  0  0  0  0  0
  -27.2854  -20.1683   14.4331 O   0  0  0  0  0  0  0  0  0  0  0  0
  -27.7620  -28.2696   18.3437 O   0  0  0  0  0  0  0  0  0  0  0  0
  -30.9221  -28.0978   20.3879 O   0  0  0  0  0  0  0  0  0  0  0  0
  -32.7678  -24.6463   17.7044 O   0  0  0  0  0  0  0  0  0  0  0  0
  -21.5559   -7.0303   21.4794 O   0  0  0  0  0  0  0  0  0  0  0  0
  -29.0535  -17.0107   19.3106 O   0  0  0  0  0  0  0  0  0  0  0  0
  -26.6296  -22.1649   16.1178 O   0  0  0  0  0  0  0  0  0  1  0  0
  -23.6433   -3.0350   24.6550 F   0  0  0  0  0  0  0  0  0  0  0  0
  -20.2160   -6.1686   23.7388 F   0  0  0  0  0  0  0  0  0  0  0  0
  1  2  1  0  0  0  0
  1  5  2  0  0  0  0
  2  6  2  0  0  0  0
  3  8  2  0  0  0  0
  3 17  1  0  0  0  0
  4  9  1  0  0  0  0
  4 17  2  0  0  0  0
  5 20  1  0  0  0  0
  6 22  1  0  0  0  0
  7 10  2  0  0  0  0
  7 21  1  0  0  0  0
  8 26  1  0  0  0  0
  9 26  2  0  0  0  0
 10 27  1  0  0  0  0
 11 12  2  0  0  0  0
 11 28  1  0  0  0  0
 12 30  1  0  0  0  0
 13 18  2  0  0  0  0
 13 23  1  0  0  0  0
 14 24  1  0  0  0  0
 14 27  2  0  0  0  0
 15 25  1  0  0  0  0
 15 29  2  0  0  0  0
 16 30  2  0  0  0  0
 16 31  1  0  0  0  0
 17 32  1  0  0  0  0
 18 29  1  0  0  0  0
 18 34  1  0  0  0  0
 19 32  1  0  0  0  0
 19 33  2  0  0  0  0
 19 35  1  0  0  0  0
 20 22  2  0  0  0  0
 20 40  1  0  0  0  0
 21 24  2  0  0  0  0
 21 41  1  0  0  0  0
 22 51  1  0  0  0  0
 23 25  2  0  0  0  0
 23 43  1  0  0  0  0
 24 42  1  0  0  0  0
 25 50  1  0  0  0  0
 26 80  1  0  0  0  0
 27 82  1  0  0  0  0
 28 31  2  0  0  0  0
 28 80  1  0  0  0  0
 29 81  1  0  0  0  0
 30 83  1  0  0  0  0
 31 84  1  0  0  0  0
 32 64  2  0  0  0  0
 33 65  1  0  0  0  0
 33 68  1  0  0  0  0
 34 66  1  0  0  0  0
 34 74  2  0  0  0  0
 35 69  1  0  0  0  0
 35 75  2  0  0  0  0
 36 50  1  0  0  0  0
 36 60  1  0  0  0  0
 36 76  2  0  0  0  0
 37 52  1  0  0  0  0
 37 70  1  0  0  0  0
 37 77  2  0  0  0  0
 38 61  1  0  0  0  0
 38 67  1  0  0  0  0
 38 78  2  0  0  0  0
 39 62  1  0  0  0  0
 39 71  1  0  0  0  0
 39 79  2  0  0  0  0
 40 44  1  0  0  0  0
 41 52  1  0  0  0  0
 42 67  1  0  0  0  0
 43 72  1  0  0  0  0
 44 46  1  0  0  0  0
 45 47  1  0  0  0  0
 45 48  1  0  0  0  0
 46 51  1  0  0  0  0
 47 53  1  0  0  0  0
 48 66  1  0  0  0  0
 49 53  1  0  0  0  0
 49 66  1  0  0  0  0
 50 72  1  0  0  0  0
 51 70  1  0  0  0  0
 52 67  1  0  0  0  0
 53 65  1  0  0  0  0
 54 62  1  0  0  0  0
 55 63  1  0  0  0  0
 56 63  1  0  0  0  0
 57 63  1  0  0  0  0
 58 73  1  0  0  0  0
 59 81  1  0  0  0  0
 60 82  1  0  0  0  0
 61 63  1  0  0  0  0
 61 71  1  0  0  0  0
 62 73  1  0  0  0  0
 64 65  1  0  0  0  0
M  CHG  2  72   1  73   1
M  ISO  4  18 100  34 100  60 101  82 101
M  END
> <Batch ID>
0103

> <Smiles>
CNC(C)C(=O)NC(C(=O)N1Cc2cc([101O:1][101CH2:1]C(=O)C3NCc4c[100c:0]([100C:0](=O)N5CCCC(n6nc(-c7ccc(Oc8ccc(F)cc8F)cc7)c(C(N)=O)c6N)C5)c(OC)cc43)ccc2CC1C(=O)NC1CCCc2ccccc21)C(C)(C)C

> <Shape>
0.275

> <Color>
0.195

> <Negative vol penalty>
0.000

$$$$

  -OEChem-04052301053D

 83 91  0     1  0  0  0  0  0999 V2000
  -18.2546  -25.6586   20.3727 C   0  0  0  0  0  0  0  0  0  0  0  0
  -19.4323  -25.1663   20.9258 C   0  0  0  0  0  0  0  0  0  0  0  0
  -29.4621  -19.2599   19.4662 C   0  0  0  0  0  0  0  0  0  0  0  0
  -23.0653  -16.1749   21.8774 C   0  0  0  0  0  0  0  0  0  0  0  0
  -22.2579  -15.4938   19.7045 C   0  0  0  0  0  0  0  0  0  0  0  0
  -18.0840  -27.0326   20.2087 C   0  0  0  0  0  0  0  0  0  0  0  0
  -20.4406  -26.0476   21.3142 C   0  0  0  0  0  0  0  0  0  0  0  0
  -22.3795  -24.9041   25.8505 C   0  0  0  0  0  0  0  0  0  0  0  0
  -30.0494  -18.0171   19.7034 C   0  0  0  0  0  0  0  0  0  0  0  0
  -28.7472  -19.8982   20.4797 C   0  0  0  0  0  0  0  0  0  0  0  0
  -22.0220  -17.0953   21.9766 C   0  0  0  0  0  0  0  0  0  0  0  0
  -21.2145  -16.4142   19.8037 C   0  0  0  0  0  0  0  0  0  0  0  0
  -23.2897  -23.8495   25.9064 C   0  0  0  0  0  0  0  0  0  0  0  0
  -21.2951  -20.1737   20.7852 C   0  0  0  0  0  0  0  0  0  0  0  0
  -21.6040  -21.4560   21.2391 C   0  0  0  0  0  0  0  0  0  0  0  0
  -25.1110  -25.4311   25.9380 C   0  0  0  0  0  0  0  0  0  0  0  0
  -29.2068  -18.0510   21.9675 C   0  0  0  0  0  0  0  0  0  0  0  0
  -20.0895  -21.1627   23.0984 C   0  0  0  0  0  0  0  0  0  0  0  0
  -23.1833  -15.3741   20.7413 C   0  0  0  0  0  0  0  0  0  0  0  0
  -24.2540  -13.0809   21.0613 C   0  0  0  0  0  0  0  0  0  0  0  0
  -19.0868  -27.9319   20.6041 C   0  0  0  0  0  0  0  0  0  0  0  0
  -22.8293  -26.2321   25.8269 C   0  0  0  0  0  0  0  0  0  0  0  0
  -20.2838  -27.4349   21.1541 C   0  0  0  0  0  0  0  0  0  0  0  0
  -24.2043  -26.5008   25.8844 C   0  0  0  0  0  0  0  0  0  0  0  0
  -29.9218  -17.4127   20.9540 C   0  0  0  0  0  0  0  0  0  0  0  0
  -21.0966  -17.2150   20.9398 C   0  0  0  0  0  0  0  0  0  0  0  0
  -24.6558  -24.1128   25.9473 C   0  0  0  0  0  0  0  0  0  0  0  0
  -28.6195  -19.2938   21.7303 C   0  0  0  0  0  0  0  0  0  0  0  0
  -20.3833  -19.3860   21.4878 C   0  0  0  0  0  0  0  0  0  0  0  0
  -21.0013  -21.9504   22.3957 C   0  0  0  0  0  0  0  0  0  0  0  0
  -19.7805  -19.8804   22.6445 C   0  0  0  0  0  0  0  0  0  0  0  0
  -24.2611  -14.4235   20.6380 C   0  0  0  0  0  0  0  0  0  0  0  0
  -25.5054  -12.6136   20.7418 C   0  0  0  0  0  0  0  0  0  0  0  0
  -23.2096  -12.3239   21.6872 C   0  0  0  0  0  0  0  0  0  0  0  0
  -22.6057  -28.6398   23.7637 C   0  0  0  0  0  0  0  0  0  0  0  0
  -24.0168  -30.3110   26.1591 C   0  0  0  0  0  0  0  0  0  0  0  0
  -25.9627  -30.2732   28.9625 C   0  0  0  0  0  0  0  0  0  0  0  0
  -30.6979  -15.1860   20.1599 C   0  0  0  0  0  0  0  0  0  0  0  0
  -18.8762  -29.4058   20.3634 C   0  0  0  0  0  0  0  0  0  0  0  0
  -21.8337  -27.3591   25.7934 C   0  0  0  0  0  0  0  0  0  0  0  0
  -24.7379  -27.9092   25.8818 C   0  0  0  0  0  0  0  0  0  0  0  0
  -19.8395  -30.2945   21.1461 C   0  0  0  0  0  0  0  0  0  0  0  0
  -29.0776  -13.2714   17.6395 C   0  0  0  0  0  0  0  0  0  0  0  0
  -21.2673  -29.7719   21.0234 C   0  0  0  0  0  0  0  0  0  0  0  0
  -27.6434  -13.2293   18.1655 C   0  0  0  0  0  0  0  0  0  0  0  0
  -29.7317  -14.6343   17.8689 C   0  0  0  0  0  0  0  0  0  0  0  0
  -28.2440  -15.0553   19.8013 C   0  0  0  0  0  0  0  0  0  0  0  0
  -21.3906  -28.3606   21.6105 C   0  0  1  0  0  0  0  0  0  0  0  0
  -22.4215  -28.6598   25.2548 C   0  0  1  0  0  0  0  0  0  0  0  0
  -27.5809  -13.6790   19.6359 C   0  0  1  0  0  0  0  0  0  0  0  0
  -26.9738  -31.7988   30.6794 C   0  0  0  0  0  0  0  0  0  0  0  0
  -26.1324  -31.1785   24.1389 C   0  0  0  0  0  0  0  0  0  0  0  0
  -27.5801  -31.8755   26.0590 C   0  0  0  0  0  0  0  0  0  0  0  0
  -25.3746  -32.9830   25.6958 C   0  0  0  0  0  0  0  0  0  0  0  0
  -31.1933  -15.9000   22.4880 C   0  0  0  0  0  0  0  0  0  0  0  0
  -24.4831  -28.9641   31.1661 C   0  0  0  0  0  0  0  0  0  0  0  0
  -26.3992  -21.1176   24.8916 C   0  0  0  0  0  0  0  0  0  0  0  0
  -26.0336  -19.8081   24.2014 C   0  0  0  0  0  0  0  0  0  0  0  0
  -25.1621  -21.8594   25.3801 C   0  0  0  0  0  0  0  0  0  1  0  0
  -27.2664  -19.0868   23.6750 C   0  0  0  0  0  0  0  0  0  0  0  0
  -25.4415  -30.6081   26.5603 C   0  0  1  0  0  0  0  0  0  0  0  0
  -25.7827  -30.9232   30.3225 C   0  0  2  0  0  0  0  0  0  0  0  0
  -26.1225  -31.6346   25.6116 C   0  0  0  0  0  0  0  0  0  0  0  0
  -25.4248  -14.7857   20.0915 N   0  0  0  0  0  0  0  0  0  0  0  0
  -26.1606  -13.6638   20.1692 N   0  0  0  0  0  0  0  0  0  0  0  0
  -23.7249  -28.9768   25.8418 N   0  0  0  0  0  0  0  0  0  0  0  0
  -29.6117  -15.0396   19.2766 N   0  0  0  0  0  0  0  0  0  0  0  0
  -26.0983  -11.4108   20.8977 N   0  0  0  0  0  0  0  0  0  0  0  0
  -21.9864  -12.9582   21.9437 N   0  0  0  0  0  0  0  0  0  0  0  0
  -21.4401  -28.4170   23.0557 N   0  0  0  0  0  0  0  0  0  0  0  0
  -25.3935  -31.0260   27.9573 N   0  0  0  0  0  0  0  0  0  0  0  0
  -30.5302  -16.1262   21.1992 N   0  0  0  0  0  0  0  0  0  0  0  0
  -25.6316  -29.8822   31.3782 N   0  3  0  0  0  0  0  0  0  0  0  0
  -23.3622  -11.1254   22.0243 O   0  0  0  0  0  0  0  0  0  0  0  0
  -23.7224  -28.8151   23.2905 O   0  0  0  0  0  0  0  0  0  0  0  0
  -23.1915  -31.2275   26.1353 O   0  0  0  0  0  0  0  0  0  0  0  0
  -26.5527  -29.2063   28.8070 O   0  0  0  0  0  0  0  0  0  0  0  0
  -31.7276  -14.5103   20.0450 O   0  0  0  0  0  0  0  0  0  0  0  0
  -20.0782  -18.1129   21.0364 O   0  0  0  0  0  0  0  0  0  0  0  0
  -25.5464  -23.0853   26.0012 O   0  0  0  0  0  0  0  0  0  1  0  0
  -27.9168  -19.9209   22.7262 O   0  0  0  0  0  0  0  0  0  0  0  0
  -21.2992  -23.1812   22.8323 F   0  0  0  0  0  0  0  0  0  0  0  0
  -18.9047  -19.1279   23.3244 F   0  0  0  0  0  0  0  0  0  0  0  0
  1  2  1  0  0  0  0
  1  6  2  0  0  0  0
  2  7  2  0  0  0  0
  3  9  1  0  0  0  0
  3 10  2  0  0  0  0
  4 11  2  0  0  0  0
  4 19  1  0  0  0  0
  5 12  1  0  0  0  0
  5 19  2  0  0  0  0
  6 21  1  0  0  0  0
  7 23  1  0  0  0  0
  8 13  2  0  0  0  0
  8 22  1  0  0  0  0
  9 25  2  0  0  0  0
 10 28  1  0  0  0  0
 11 26  1  0  0  0  0
 12 26  2  0  0  0  0
 13 27  1  0  0  0  0
 14 15  2  0  0  0  0
 14 29  1  0  0  0  0
 15 30  1  0  0  0  0
 16 24  1  0  0  0  0
 16 27  2  0  0  0  0
 17 25  1  0  0  0  0
 17 28  2  0  0  0  0
 18 30  2  0  0  0  0
 18 31  1  0  0  0  0
 19 32  1  0  0  0  0
 20 32  1  0  0  0  0
 20 33  2  0  0  0  0
 20 34  1  0  0  0  0
 21 23  2  0  0  0  0
 21 39  1  0  0  0  0
 22 24  2  0  0  0  0
 22 40  1  0  0  0  0
 23 48  1  0  0  0  0
 24 41  1  0  0  0  0
 25 72  1  0  0  0  0
 26 79  1  0  0  0  0
 27 80  1  0  0  0  0
 28 81  1  0  0  0  0
 29 31  2  0  0  0  0
 29 79  1  0  0  0  0
 30 82  1  0  0  0  0
 31 83  1  0  0  0  0
 32 64  2  0  0  0  0
 33 65  1  0  0  0  0
 33 68  1  0  0  0  0
 34 69  1  0  0  0  0
 34 74  2  0  0  0  0
 35 49  1  0  0  0  0
 35 70  1  0  0  0  0
 35 75  2  0  0  0  0
 36 61  1  0  0  0  0
 36 66  1  0  0  0  0
 36 76  2  0  0  0  0
 37 62  1  0  0  0  0
 37 71  1  0  0  0  0
 37 77  2  0  0  0  0
 38 67  1  0  0  0  0
 38 72  1  0  0  0  0
 38 78  2  0  0  0  0
 39 42  1  0  0  0  0
 40 49  1  0  0  0  0
 41 66  1  0  0  0  0
 42 44  1  0  0  0  0
 43 45  1  0  0  0  0
 43 46  1  0  0  0  0
 44 48  1  0  0  0  0
 45 50  1  0  0  0  0
 46 67  1  0  0  0  0
 47 50  1  0  0  0  0
 47 67  1  0  0  0  0
 48 70  1  0  0  0  0
 49 66  1  0  0  0  0
 50 65  1  0  0  0  0
 51 62  1  0  0  0  0
 52 63  1  0  0  0  0
 53 63  1  0  0  0  0
 54 63  1  0  0  0  0
 55 72  1  0  0  0  0
 56 73  1  0  0  0  0
 57 58  1  0  0  0  0
 57 59  1  0  0  0  0
 58 60  1  0  0  0  0
 59 80  1  0  0  0  0
 60 81  1  0  0  0  0
 61 63  1  0  0  0  0
 61 71  1  0  0  0  0
 62 73  1  0  0  0  0
 64 65  1  0  0  0  0
M  CHG  1  73   1
M  ISO  4  38 100  59 101  72 100  80 101
M  END
> <Batch ID>
0103

> <Smiles>
CNC(C)C(=O)NC(C(=O)N1Cc2cc([101O:1][101CH2:1]CCCOc3cccc([100N:0](C)[100C:0](=O)N4CCCC(n5nc(-c6ccc(Oc7ccc(F)cc7F)cc6)c(C(N)=O)c5N)C4)c3)ccc2CC1C(=O)NC1CCCc2ccccc21)C(C)(C)C

> <Shape>
0.215

> <Color>
0.120

> <Negative vol penalty>
0.000

$$$$

  -OEChem-04052301053D

 84 93  0     1  0  0  0  0  0999 V2000
  -17.3550  -26.6716   20.0255 C   0  0  0  0  0  0  0  0  0  0  0  0
  -18.5712  -27.0120   19.4420 C   0  0  0  0  0  0  0  0  0  0  0  0
  -31.9415  -23.8613   16.4643 C   0  0  0  0  0  0  0  0  0  0  0  0
  -25.6210  -15.0138   21.4659 C   0  0  0  0  0  0  0  0  0  0  0  0
  -24.9915  -15.9643   19.3358 C   0  0  0  0  0  0  0  0  0  0  0  0
  -17.1687  -26.8431   21.3965 C   0  0  0  0  0  0  0  0  0  0  0  0
  -19.6015  -27.5251   20.2292 C   0  0  0  0  0  0  0  0  0  0  0  0
  -25.6096  -26.5931   19.4943 C   0  0  0  0  0  0  0  0  0  0  0  0
  -31.7576  -25.2440   16.4702 C   0  0  0  0  0  0  0  0  0  0  0  0
  -31.3743  -23.0780   17.4696 C   0  0  0  0  0  0  0  0  0  0  0  0
  -24.5374  -14.1385   21.3956 C   0  0  0  0  0  0  0  0  0  0  0  0
  -23.9078  -15.0889   19.2654 C   0  0  0  0  0  0  0  0  0  0  0  0
  -26.6118  -27.3589   18.9003 C   0  0  0  0  0  0  0  0  0  0  0  0
  -23.7705  -11.2450   19.8231 C   0  0  0  0  0  0  0  0  0  0  0  0
  -23.9954   -9.9075   20.1486 C   0  0  0  0  0  0  0  0  0  0  0  0
  -27.1998  -28.2548   21.0616 C   0  0  0  0  0  0  0  0  0  0  0  0
  -30.4396  -25.0602   18.4866 C   0  0  0  0  0  0  0  0  0  0  0  0
  -22.3717  -10.0681   21.9305 C   0  0  0  0  0  0  0  0  0  0  0  0
  -25.8481  -15.9268   20.4360 C   0  0  0  0  0  0  0  0  0  0  0  0
  -28.2707  -16.6119   20.0247 C   0  0  0  0  0  0  0  0  0  0  0  0
  -18.2005  -27.3494   22.2025 C   0  0  0  0  0  0  0  0  0  0  0  0
  -25.3873  -26.6607   20.8772 C   0  0  0  0  0  0  0  0  0  0  0  0
  -19.4283  -27.7047   21.6121 C   0  0  0  0  0  0  0  0  0  0  0  0
  -26.1957  -27.4869   21.6710 C   0  0  0  0  0  0  0  0  0  0  0  0
  -31.0067  -25.8434   17.4813 C   0  0  0  0  0  0  0  0  0  0  0  0
  -30.6234  -23.6775   18.4807 C   0  0  0  0  0  0  0  0  0  0  0  0
  -23.6808  -14.1759   20.2954 C   0  0  0  0  0  0  0  0  0  0  0  0
  -27.4052  -28.1921   19.6835 C   0  0  0  0  0  0  0  0  0  0  0  0
  -22.8462  -11.9941   20.5513 C   0  0  0  0  0  0  0  0  0  0  0  0
  -23.2961   -9.3190   21.2023 C   0  0  0  0  0  0  0  0  0  0  0  0
  -22.1468  -11.4056   21.6049 C   0  0  0  0  0  0  0  0  0  0  0  0
  -26.9670  -16.8317   20.5083 C   0  0  0  0  0  0  0  0  0  0  0  0
  -28.9512  -17.7635   20.3364 C   0  0  0  0  0  0  0  0  0  0  0  0
  -28.8176  -15.4690   19.3536 C   0  0  0  0  0  0  0  0  0  0  0  0
  -22.9506  -27.5447   22.7170 C   0  0  0  0  0  0  0  0  0  0  0  0
  -24.8582  -26.4472   25.1001 C   0  0  0  0  0  0  0  0  0  0  0  0
  -28.0514  -26.0191   26.7242 C   0  0  0  0  0  0  0  0  0  0  0  0
  -29.2741  -23.3170   20.5773 C   0  0  0  0  0  0  0  0  0  0  0  0
  -17.9361  -27.5614   23.6721 C   0  0  0  0  0  0  0  0  0  0  0  0
  -24.3198  -25.8081   21.5063 C   0  0  0  0  0  0  0  0  0  0  0  0
  -26.0111  -27.5802   23.1629 C   0  0  0  0  0  0  0  0  0  0  0  0
  -19.2053  -27.7597   24.4969 C   0  0  0  0  0  0  0  0  0  0  0  0
  -27.6430  -21.6687   23.2792 C   0  0  0  0  0  0  0  0  0  0  0  0
  -33.0926  -29.6408   18.8352 C   0  0  0  0  0  0  0  0  0  0  0  0
  -20.1368  -28.7550   23.8123 C   0  0  0  0  0  0  0  0  0  0  0  0
  -27.4290  -20.2453   22.7594 C   0  0  0  0  0  0  0  0  0  0  0  0
  -31.8934  -30.1348   19.6198 C   0  0  0  0  0  0  0  0  0  0  0  0
  -27.4694  -22.7084   22.1735 C   0  0  0  0  0  0  0  0  0  0  0  0
  -28.0629  -21.0515   20.4496 C   0  0  0  0  0  0  0  0  0  0  0  0
  -32.8556  -28.1473   18.7209 C   0  0  0  0  0  0  0  0  0  0  0  0
  -20.5784  -28.2410   22.4367 C   0  0  1  0  0  0  0  0  0  0  0  0
  -23.8436  -26.3439   22.8530 C   0  0  1  0  0  0  0  0  0  0  0  0
  -28.2912  -19.9649   21.5130 C   0  0  2  0  0  0  0  0  0  0  0  0
  -30.7421  -29.3607   18.9952 C   0  0  2  0  0  0  0  0  0  0  0  0
  -28.6639  -24.7768   28.8168 C   0  0  0  0  0  0  0  0  0  0  0  0
  -24.4966  -29.1519   26.4654 C   0  0  0  0  0  0  0  0  0  0  0  0
  -26.4628  -28.6044   27.9154 C   0  0  0  0  0  0  0  0  0  0  0  0
  -24.4135  -27.1851   28.0080 C   0  0  0  0  0  0  0  0  0  0  0  0
  -30.0900  -24.4067   25.3088 C   0  0  0  0  0  0  0  0  0  0  0  0
  -30.8093  -27.3307   17.4872 C   0  0  0  0  0  0  0  0  0  0  0  0
  -29.5315  -29.2348   19.9017 C   0  0  0  0  0  0  0  0  0  1  0  0
  -25.9218  -27.0537   25.9832 C   0  0  1  0  0  0  0  0  0  0  0  0
  -28.6139  -24.7309   27.2975 C   0  0  2  0  0  0  0  0  0  0  0  0
  -25.3262  -27.9987   27.0647 C   0  0  0  0  0  0  0  0  0  0  0  0
  -26.8255  -18.0288   21.0836 N   0  0  0  0  0  0  0  0  0  0  0  0
  -28.0490  -18.5715   20.9636 N   0  0  0  0  0  0  0  0  0  0  0  0
  -24.9500  -26.7318   23.7302 N   0  0  0  0  0  0  0  0  0  0  0  0
  -28.3197  -22.3802   21.0271 N   0  0  0  0  0  0  0  0  0  0  0  0
  -30.2274  -18.1537   20.1325 N   0  0  0  0  0  0  0  0  0  0  0  0
  -27.9799  -14.3716   19.1124 N   0  0  0  0  0  0  0  0  0  0  0  0
  -30.0469  -22.8814   19.5014 N   0  0  0  0  0  0  0  0  0  0  0  0
  -21.6106  -27.2367   22.5799 N   0  0  0  0  0  0  0  0  0  0  0  0
  -26.6897  -25.9369   26.5230 N   0  0  0  0  0  0  0  0  0  0  0  0
  -31.3444  -27.9891   18.7222 N   0  3  1  0  0  0  0  0  0  0  0  0
  -29.9949  -24.4971   26.7886 N   0  3  0  0  0  0  0  0  0  0  0  0
  -30.0180  -15.4158   18.9936 O   0  0  0  0  0  0  0  0  0  0  0  0
  -23.4410  -28.6676   22.7366 O   0  0  0  0  0  0  0  0  0  0  0  0
  -23.9825  -25.7410   25.6060 O   0  0  0  0  0  0  0  0  0  0  0  0
  -28.7494  -27.0014   26.4827 O   0  0  0  0  0  0  0  0  0  0  0  0
  -29.4153  -24.4134   21.1249 O   0  0  0  0  0  0  0  0  0  0  0  0
  -22.6234  -13.3217   20.2264 O   0  0  0  0  0  0  0  0  0  0  0  0
  -28.3837  -28.9411   19.1062 O   0  0  0  0  0  0  0  0  0  1  0  0
  -23.5111   -8.0341   21.5138 F   0  0  0  0  0  0  0  0  0  0  0  0
  -21.2567  -12.1199   22.3073 F   0  0  0  0  0  0  0  0  0  0  0  0
  1  2  1  0  0  0  0
  1  6  2  0  0  0  0
  2  7  2  0  0  0  0
  3  9  2  0  0  0  0
  3 10  1  0  0  0  0
  4 11  2  0  0  0  0
  4 19  1  0  0  0  0
  5 12  1  0  0  0  0
  5 19  2  0  0  0  0
  6 21  1  0  0  0  0
  7 23  1  0  0  0  0
  8 13  2  0  0  0  0
  8 22  1  0  0  0  0
  9 25  1  0  0  0  0
 10 26  2  0  0  0  0
 11 27  1  0  0  0  0
 12 27  2  0  0  0  0
 13 28  1  0  0  0  0
 14 15  2  0  0  0  0
 14 29  1  0  0  0  0
 15 30  1  0  0  0  0
 16 24  1  0  0  0  0
 16 28  2  0  0  0  0
 17 25  2  0  0  0  0
 17 26  1  0  0  0  0
 18 30  2  0  0  0  0
 18 31  1  0  0  0  0
 19 32  1  0  0  0  0
 20 32  1  0  0  0  0
 20 33  2  0  0  0  0
 20 34  1  0  0  0  0
 21 23  2  0  0  0  0
 21 39  1  0  0  0  0
 22 24  2  0  0  0  0
 22 40  1  0  0  0  0
 23 51  1  0  0  0  0
 24 41  1  0  0  0  0
 25 60  1  0  0  0  0
 26 71  1  0  0  0  0
 27 81  1  0  0  0  0
 28 82  1  0  0  0  0
 29 31  2  0  0  0  0
 29 81  1  0  0  0  0
 30 83  1  0  0  0  0
 31 84  1  0  0  0  0
 32 65  2  0  0  0  0
 33 66  1  0  0  0  0
 33 69  1  0  0  0  0
 34 70  1  0  0  0  0
 34 76  2  0  0  0  0
 35 52  1  0  0  0  0
 35 72  1  0  0  0  0
 35 77  2  0  0  0  0
 36 62  1  0  0  0  0
 36 67  1  0  0  0  0
 36 78  2  0  0  0  0
 37 63  1  0  0  0  0
 37 73  1  0  0  0  0
 37 79  2  0  0  0  0
 38 68  1  0  0  0  0
 38 71  1  0  0  0  0
 38 80  2  0  0  0  0
 39 42  1  0  0  0  0
 40 52  1  0  0  0  0
 41 67  1  0  0  0  0
 42 45  1  0  0  0  0
 43 46  1  0  0  0  0
 43 48  1  0  0  0  0
 44 47  1  0  0  0  0
 44 50  1  0  0  0  0
 45 51  1  0  0  0  0
 46 53  1  0  0  0  0
 47 54  1  0  0  0  0
 48 68  1  0  0  0  0
 49 53  1  0  0  0  0
 49 68  1  0  0  0  0
 50 74  1  0  0  0  0
 51 72  1  0  0  0  0
 52 67  1  0  0  0  0
 53 66  1  0  0  0  0
 54 61  1  0  0  0  0
 54 74  1  0  0  0  0
 55 63  1  0  0  0  0
 56 64  1  0  0  0  0
 57 64  1  0  0  0  0
 58 64  1  0  0  0  0
 59 75  1  0  0  0  0
 60 74  1  0  0  0  0
 61 82  1  0  0  0  0
 62 64  1  0  0  0  0
 62 73  1  0  0  0  0
 63 75  1  0  0  0  0
 65 66  1  0  0  0  0
M  CHG  2  74   1  75   1
M  ISO  4  38 100  61 101  71 100  82 101
M  END
> <Batch ID>
0103

> <Smiles>
CNC(C)C(=O)NC(C(=O)N1Cc2cc([101O:1][101CH2:1]C3CCCN3Cc3cccc([100NH:0][100C:0](=O)N4CCCC(n5nc(-c6ccc(Oc7ccc(F)cc7F)cc6)c(C(N)=O)c5N)C4)c3)ccc2CC1C(=O)NC1CCCc2ccccc21)C(C)(C)C

> <Shape>
0.238

> <Color>
0.056

> <Negative vol penalty>
0.000

$$$$

  -OEChem-04052301053D

 89 98  0     1  0  0  0  0  0999 V2000
  -17.0149  -26.9085   21.9563 C   0  0  0  0  0  0  0  0  0  0  0  0
  -18.2581  -26.3707   21.6393 C   0  0  0  0  0  0  0  0  0  0  0  0
  -23.8916  -10.5140   19.1945 C   0  0  0  0  0  0  0  0  0  0  0  0
  -24.4575   -9.5395   21.3316 C   0  0  0  0  0  0  0  0  0  0  0  0
  -16.8276  -28.2899   21.9324 C   0  0  0  0  0  0  0  0  0  0  0  0
  -19.3146  -27.2139   21.2971 C   0  0  0  0  0  0  0  0  0  0  0  0
  -25.2475  -26.3848   22.5695 C   0  0  0  0  0  0  0  0  0  0  0  0
  -27.5304  -21.6150   18.8306 C   0  0  0  0  0  0  0  0  0  0  0  0
  -27.5862  -20.4119   19.5342 C   0  0  0  0  0  0  0  0  0  0  0  0
  -23.4426   -9.2717   18.7468 C   0  0  0  0  0  0  0  0  0  0  0  0
  -24.0084   -8.2971   20.8839 C   0  0  0  0  0  0  0  0  0  0  0  0
  -26.3079  -25.8858   21.8144 C   0  0  0  0  0  0  0  0  0  0  0  0
  -20.6888   -7.3421   19.1026 C   0  0  0  0  0  0  0  0  0  0  0  0
  -19.4734   -7.2998   18.4196 C   0  0  0  0  0  0  0  0  0  0  0  0
  -26.9369  -28.1377   21.2206 C   0  0  0  0  0  0  0  0  0  0  0  0
  -28.0408  -20.4407   16.7818 C   0  0  0  0  0  0  0  0  0  0  0  0
  -20.5941   -6.3906   16.4819 C   0  0  0  0  0  0  0  0  0  0  0  0
  -24.3991  -10.6480   20.4869 C   0  0  0  0  0  0  0  0  0  0  0  0
  -24.1084  -12.9236   21.6026 C   0  0  0  0  0  0  0  0  0  0  0  0
  -17.8850  -29.1511   21.5991 C   0  0  0  0  0  0  0  0  0  0  0  0
  -25.0169  -27.7658   22.6471 C   0  0  0  0  0  0  0  0  0  0  0  0
  -19.1410  -28.6081   21.2674 C   0  0  0  0  0  0  0  0  0  0  0  0
  -25.8744  -28.6518   21.9795 C   0  0  0  0  0  0  0  0  0  0  0  0
  -27.7576  -21.6294   17.4544 C   0  0  0  0  0  0  0  0  0  0  0  0
  -28.0967  -19.2375   17.4854 C   0  0  0  0  0  0  0  0  0  0  0  0
  -27.8694  -19.2232   18.8616 C   0  0  0  0  0  0  0  0  0  0  0  0
  -23.5009   -8.1632   19.5915 C   0  0  0  0  0  0  0  0  0  0  0  0
  -27.1511  -26.7621   21.1374 C   0  0  0  0  0  0  0  0  0  0  0  0
  -21.8569   -6.9088   18.4753 C   0  0  0  0  0  0  0  0  0  0  0  0
  -19.4260   -6.8240   17.1092 C   0  0  0  0  0  0  0  0  0  0  0  0
  -21.8095   -6.4330   17.1650 C   0  0  0  0  0  0  0  0  0  0  0  0
  -24.8636  -11.9310   20.9497 C   0  0  0  0  0  0  0  0  0  0  0  0
  -25.0026  -13.9408   21.8307 C   0  0  0  0  0  0  0  0  0  0  0  0
  -30.0374  -23.5489   17.0990 C   0  0  0  0  0  0  0  0  0  0  0  0
  -28.1392  -25.0640   17.7747 C   0  0  0  0  0  0  0  0  0  0  0  0
  -22.7226  -12.9258   21.9701 C   0  0  0  0  0  0  0  0  0  0  0  0
  -22.6315  -29.6923   21.8090 C   0  0  0  0  0  0  0  0  0  0  0  0
  -24.4316  -31.9341   23.3111 C   0  0  0  0  0  0  0  0  0  0  0  0
  -27.5157  -32.9389   24.3721 C   0  0  0  0  0  0  0  0  0  0  0  0
  -29.0979  -17.2072   19.6503 C   0  0  0  0  0  0  0  0  0  0  0  0
  -17.6218  -30.6350   21.5408 C   0  0  0  0  0  0  0  0  0  0  0  0
  -23.8847  -28.2895   23.4876 C   0  0  0  0  0  0  0  0  0  0  0  0
  -25.6820  -30.1441   22.0471 C   0  0  0  0  0  0  0  0  0  0  0  0
  -31.0126  -24.5776   17.6202 C   0  0  0  0  0  0  0  0  0  0  0  0
  -18.8936  -31.4792   21.5320 C   0  0  0  0  0  0  0  0  0  0  0  0
  -30.4159  -25.4123   18.7329 C   0  0  0  0  0  0  0  0  0  0  0  0
  -30.0302  -14.0893   21.3880 C   0  0  0  0  0  0  0  0  0  0  0  0
  -19.9008  -30.9169   20.5340 C   0  0  0  0  0  0  0  0  0  0  0  0
  -28.7161  -13.3107   21.4187 C   0  0  0  0  0  0  0  0  0  0  0  0
  -30.1152  -15.0101   20.1744 C   0  0  0  0  0  0  0  0  0  0  0  0
  -27.6460  -15.1672   20.0794 C   0  0  0  0  0  0  0  0  0  0  0  0
  -20.3182  -29.4914   20.9152 C   0  0  1  0  0  0  0  0  0  0  0  0
  -29.1662  -26.1019   18.2088 C   0  0  2  0  0  0  0  0  0  0  0  0
  -23.4347  -29.6887   23.0789 C   0  0  1  0  0  0  0  0  0  0  0  0
  -27.5118  -14.2624   21.3136 C   0  0  1  0  0  0  0  0  0  0  0  0
  -28.4051  -17.9797   16.7396 C   0  0  0  0  0  0  0  0  0  0  0  0
  -28.6776  -34.8345   25.5359 C   0  0  0  0  0  0  0  0  0  0  0  0
  -24.2512  -33.6050   20.7645 C   0  0  0  0  0  0  0  0  0  0  0  0
  -26.1585  -34.9844   21.6175 C   0  0  0  0  0  0  0  0  0  0  0  0
  -24.0119  -34.9075   22.8860 C   0  0  0  0  0  0  0  0  0  0  0  0
  -26.8197  -17.6751   20.5224 C   0  0  0  0  0  0  0  0  0  0  0  0
  -28.4122  -31.1859   26.5817 C   0  0  0  0  0  0  0  0  0  0  0  0
  -27.6998  -22.9248   16.6977 C   0  0  0  0  0  0  0  0  0  0  0  0
  -28.5888  -27.0430   19.2639 C   0  0  0  0  0  0  0  0  0  1  0  0
  -25.5271  -32.8836   22.8900 C   0  0  1  0  0  0  0  0  0  0  0  0
  -27.9933  -33.4869   25.7048 C   0  0  2  0  0  0  0  0  0  0  0  0
  -24.9899  -34.0670   22.0364 C   0  0  0  0  0  0  0  0  0  0  0  0
  -26.1393  -12.2857   20.7743 N   0  0  0  0  0  0  0  0  0  0  0  0
  -26.1926  -13.5126   21.3201 N   0  0  0  0  0  0  0  0  0  0  0  0
  -28.6743  -23.8912   17.1940 N   0  0  0  0  0  0  0  0  0  0  0  0
  -24.5573  -30.6070   22.8767 N   0  0  0  0  0  0  0  0  0  0  0  0
  -28.9371  -15.8723   20.0725 N   0  0  0  0  0  0  0  0  0  0  0  0
  -24.8792  -15.1510   22.4160 N   0  0  0  0  0  0  0  0  0  0  0  0
  -21.9475  -11.7997   21.6609 N   0  0  0  0  0  0  0  0  0  0  0  0
  -21.2743  -29.5181   22.0013 N   0  0  0  0  0  0  0  0  0  0  0  0
  -26.2076  -33.2907   24.1146 N   0  0  0  0  0  0  0  0  0  0  0  0
  -27.9228  -17.9884   19.6081 N   0  0  0  0  0  0  0  0  0  0  0  0
  -28.9603  -32.5446   26.3357 N   0  3  0  0  0  0  0  0  0  0  0  0
  -30.4659  -22.5090   16.5938 O   0  0  0  0  0  0  0  0  0  0  0  0
  -26.9302  -25.2790   17.8872 O   0  0  0  0  0  0  0  0  0  0  0  0
  -22.1835  -13.9043   22.5406 O   0  0  0  0  0  0  0  0  0  0  0  0
  -23.2009  -29.8435   20.7345 O   0  0  0  0  0  0  0  0  0  0  0  0
  -23.5025  -32.3528   24.0062 O   0  0  0  0  0  0  0  0  0  0  0  0
  -28.2326  -32.2692   23.6318 O   0  0  0  0  0  0  0  0  0  0  0  0
  -30.2077  -17.6715   19.3630 O   0  0  0  0  0  0  0  0  0  0  0  0
  -23.0626   -6.9507   19.1551 O   0  0  0  0  0  0  0  0  0  0  0  0
  -28.1865  -26.2776   20.3991 O   0  0  0  0  0  0  0  0  0  1  0  0
  -18.2586   -6.7819   16.4539 F   0  0  0  0  0  0  0  0  0  0  0  0
  -22.9282   -6.0142   16.5575 F   0  0  0  0  0  0  0  0  0  0  0  0
  1  2  1  0  0  0  0
  1  5  2  0  0  0  0
  2  6  2  0  0  0  0
  3 10  2  0  0  0  0
  3 18  1  0  0  0  0
  4 11  1  0  0  0  0
  4 18  2  0  0  0  0
  5 20  1  0  0  0  0
  6 22  1  0  0  0  0
  7 12  2  0  0  0  0
  7 21  1  0  0  0  0
  8  9  2  0  0  0  0
  8 24  1  0  0  0  0
  9 26  1  0  0  0  0
 10 27  1  0  0  0  0
 11 27  2  0  0  0  0
 12 28  1  0  0  0  0
 13 14  2  0  0  0  0
 13 29  1  0  0  0  0
 14 30  1  0  0  0  0
 15 23  1  0  0  0  0
 15 28  2  0  0  0  0
 16 24  2  0  0  0  0
 16 25  1  0  0  0  0
 17 30  2  0  0  0  0
 17 31  1  0  0  0  0
 18 32  1  0  0  0  0
 19 32  1  0  0  0  0
 19 33  2  0  0  0  0
 19 36  1  0  0  0  0
 20 22  2  0  0  0  0
 20 41  1  0  0  0  0
 21 23  2  0  0  0  0
 21 42  1  0  0  0  0
 22 52  1  0  0  0  0
 23 43  1  0  0  0  0
 24 63  1  0  0  0  0
 25 26  2  0  0  0  0
 25 56  1  0  0  0  0
 26 77  1  0  0  0  0
 27 86  1  0  0  0  0
 28 87  1  0  0  0  0
 29 31  2  0  0  0  0
 29 86  1  0  0  0  0
 30 88  1  0  0  0  0
 31 89  1  0  0  0  0
 32 68  2  0  0  0  0
 33 69  1  0  0  0  0
 33 73  1  0  0  0  0
 34 44  1  0  0  0  0
 34 70  1  0  0  0  0
 34 79  2  0  0  0  0
 35 53  1  0  0  0  0
 35 70  1  0  0  0  0
 35 80  2  0  0  0  0
 36 74  1  0  0  0  0
 36 81  2  0  0  0  0
 37 54  1  0  0  0  0
 37 75  1  0  0  0  0
 37 82  2  0  0  0  0
 38 65  1  0  0  0  0
 38 71  1  0  0  0  0
 38 83  2  0  0  0  0
 39 66  1  0  0  0  0
 39 76  1  0  0  0  0
 39 84  2  0  0  0  0
 40 72  1  0  0  0  0
 40 77  1  0  0  0  0
 40 85  2  0  0  0  0
 41 45  1  0  0  0  0
 42 54  1  0  0  0  0
 43 71  1  0  0  0  0
 44 46  1  0  0  0  0
 45 48  1  0  0  0  0
 46 53  1  0  0  0  0
 47 49  1  0  0  0  0
 47 50  1  0  0  0  0
 48 52  1  0  0  0  0
 49 55  1  0  0  0  0
 50 72  1  0  0  0  0
 51 55  1  0  0  0  0
 51 72  1  0  0  0  0
 52 75  1  0  0  0  0
 53 64  1  0  0  0  0
 54 71  1  0  0  0  0
 55 69  1  0  0  0  0
 57 66  1  0  0  0  0
 58 67  1  0  0  0  0
 59 67  1  0  0  0  0
 60 67  1  0  0  0  0
 61 77  1  0  0  0  0
 62 78  1  0  0  0  0
 63 70  1  0  0  0  0
 64 87  1  0  0  0  0
 65 67  1  0  0  0  0
 65 76  1  0  0  0  0
 66 78  1  0  0  0  0
 68 69  1  0  0  0  0
M  CHG  1  78   1
M  ISO  4  40 100  64 101  77 100  87 101
M  END
> <Batch ID>
0103

> <Smiles>
CNC(C)C(=O)NC(C(=O)N1Cc2cc([101O:1][101CH2:1]C3CCC(=O)N(Cc4ccc([100N:0](C)[100C:0](=O)N5CCCC(n6nc(-c7ccc(Oc8ccc(F)cc8F)cc7)c(C(N)=O)c6N)C5)c(C)c4)C3=O)ccc2CC1C(=O)NC1CCCc2ccccc21)C(C)(C)C

> <Shape>
0.293

> <Color>
0.108

> <Negative vol penalty>
0.000

$$$$

  -OEChem-04052301053D

 88 97  0     1  0  0  0  0  0999 V2000
  -28.4176  -12.3434   15.5694 C   0  0  0  0  0  0  0  0  0  0  0  0
  -27.3618  -11.6198   16.1147 C   0  0  0  0  0  0  0  0  0  0  0  0
  -29.3415  -29.4528   24.9083 C   0  0  0  0  0  0  0  0  0  0  0  0
  -27.2366  -28.2844   25.1113 C   0  0  0  0  0  0  0  0  0  0  0  0
  -29.4297  -12.8282   16.3968 C   0  0  0  0  0  0  0  0  0  0  0  0
  -27.3181  -11.3798   17.4876 C   0  0  0  0  0  0  0  0  0  0  0  0
  -27.7120  -15.3860   22.8914 C   0  0  0  0  0  0  0  0  0  0  0  0
  -29.8150  -25.9745   23.0487 C   0  0  0  0  0  0  0  0  0  0  0  0
  -30.2603  -26.1122   20.6781 C   0  0  0  0  0  0  0  0  0  0  0  0
  -29.8179  -24.5820   22.9683 C   0  0  0  0  0  0  0  0  0  0  0  0
  -30.2632  -24.7197   20.5977 C   0  0  0  0  0  0  0  0  0  0  0  0
  -30.0030  -28.3577   25.4640 C   0  0  0  0  0  0  0  0  0  0  0  0
  -27.8981  -27.1893   25.6670 C   0  0  0  0  0  0  0  0  0  0  0  0
  -28.5829  -16.3494   22.3845 C   0  0  0  0  0  0  0  0  0  0  0  0
  -29.7507  -24.5831   24.5736 C   0  0  0  0  0  0  0  0  0  0  0  0
  -29.4073  -23.3147   24.1057 C   0  0  0  0  0  0  0  0  0  0  0  0
  -27.4781  -16.2132   20.2443 C   0  0  0  0  0  0  0  0  0  0  0  0
  -28.7336  -22.6745   26.3358 C   0  0  0  0  0  0  0  0  0  0  0  0
  -27.9583  -29.4162   24.7320 C   0  0  0  0  0  0  0  0  0  0  0  0
  -27.2365  -31.8619   24.6608 C   0  0  0  0  0  0  0  0  0  0  0  0
  -29.3933  -12.6022   17.7818 C   0  0  0  0  0  0  0  0  0  0  0  0
  -26.7229  -14.8200   22.0742 C   0  0  0  0  0  0  0  0  0  0  0  0
  -28.3314  -11.8608   18.3341 C   0  0  0  0  0  0  0  0  0  0  0  0
  -26.5943  -15.2446   20.7441 C   0  0  0  0  0  0  0  0  0  0  0  0
  -30.0361  -26.7396   21.9035 C   0  0  0  0  0  0  0  0  0  0  0  0
  -30.0420  -23.9545   21.7429 C   0  0  0  0  0  0  0  0  0  0  0  0
  -29.2813  -27.2259   25.8433 C   0  0  0  0  0  0  0  0  0  0  0  0
  -28.4679  -16.7611   21.0599 C   0  0  0  0  0  0  0  0  0  0  0  0
  -29.5857  -24.8971   25.9226 C   0  0  0  0  0  0  0  0  0  0  0  0
  -28.8987  -22.3604   24.9868 C   0  0  0  0  0  0  0  0  0  0  0  0
  -29.0771  -23.9429   26.8037 C   0  0  0  0  0  0  0  0  0  0  0  0
  -27.2744  -30.5473   24.1585 C   0  0  0  0  0  0  0  0  0  0  0  0
  -26.4625  -32.5515   23.7597 C   0  0  0  0  0  0  0  0  0  0  0  0
  -29.9106  -20.3217   22.7351 C   0  0  0  0  0  0  0  0  0  0  0  0
  -30.1519  -19.7095   21.5664 C   0  0  0  0  0  0  0  0  0  0  0  0
  -27.8464  -32.4106   25.8366 C   0  0  0  0  0  0  0  0  0  0  0  0
  -26.0814  -11.8859   21.0336 C   0  0  0  0  0  0  0  0  0  0  0  0
  -25.7626  -28.6347   19.8620 C   0  0  0  0  0  0  0  0  0  0  0  0
  -23.4198  -13.3097   19.8458 C   0  0  0  0  0  0  0  0  0  0  0  0
  -28.1764  -28.0596   20.3577 C   0  0  0  0  0  0  0  0  0  0  0  0
  -20.8901  -13.1494   22.1310 C   0  0  0  0  0  0  0  0  0  0  0  0
  -30.5346  -13.1055   18.6296 C   0  0  0  0  0  0  0  0  0  0  0  0
  -25.7741  -13.8013   22.6438 C   0  0  0  0  0  0  0  0  0  0  0  0
  -25.5363  -14.6829   19.8311 C   0  0  0  0  0  0  0  0  0  0  0  0
  -29.8088  -21.8090   22.9087 C   0  0  0  0  0  0  0  0  0  0  0  0
  -30.2980  -20.5032   20.3023 C   0  0  0  0  0  0  0  0  0  0  0  0
  -30.2197  -13.1289   20.1231 C   0  0  0  0  0  0  0  0  0  0  0  0
  -23.2379  -30.3594   21.9587 C   0  0  0  0  0  0  0  0  0  0  0  0
  -29.5668  -11.8187   20.5517 C   0  0  0  0  0  0  0  0  0  0  0  0
  -23.7353  -31.8000   21.9154 C   0  0  0  0  0  0  0  0  0  0  0  0
  -29.6911  -21.9038   20.3969 C   0  0  0  0  0  0  0  0  0  0  0  0
  -23.5705  -29.6181   20.6697 C   0  0  0  0  0  0  0  0  0  0  0  0
  -25.5800  -31.0492   20.3385 C   0  0  0  0  0  0  0  0  0  0  0  0
  -28.2358  -11.6010   19.8219 C   0  0  1  0  0  0  0  0  0  0  0  0
  -25.1345  -12.9183   21.5768 C   0  0  1  0  0  0  0  0  0  0  0  0
  -25.2331  -31.8924   21.5807 C   0  0  2  0  0  0  0  0  0  0  0  0
  -21.5555  -15.0496   23.6288 C   0  0  0  0  0  0  0  0  0  0  0  0
  -22.6942   -9.7448   20.0310 C   0  0  0  0  0  0  0  0  0  0  0  0
  -23.5318  -10.5791   22.2380 C   0  0  0  0  0  0  0  0  0  0  0  0
  -24.8055  -11.0798   20.1524 C   0  0  0  0  0  0  0  0  0  0  0  0
  -20.1037  -12.4485   25.5233 C   0  0  0  0  0  0  0  0  0  0  0  0
  -30.0328  -28.2285   21.9884 C   0  0  0  0  0  0  0  0  0  0  0  0
  -30.3023  -18.2228   21.4531 C   0  0  0  0  0  0  0  0  0  1  0  0
  -27.2145  -28.9183   19.5697 C   0  0  0  0  0  0  0  0  0  0  0  0
  -22.6145  -12.2660   20.5816 C   0  0  1  0  0  0  0  0  0  0  0  0
  -20.7315  -13.7775   23.5038 C   0  0  2  0  0  0  0  0  0  0  0  0
  -23.3861  -10.9256   20.7408 C   0  0  0  0  0  0  0  0  0  0  0  0
  -26.5796  -30.4077   23.0263 N   0  0  0  0  0  0  0  0  0  0  0  0
  -26.0978  -31.6434   22.8097 N   0  0  0  0  0  0  0  0  0  0  0  0
  -30.0469  -22.5524   21.6619 N   0  0  1  0  0  0  0  0  0  0  0  0
  -24.6365  -13.6849   20.4328 N   0  0  0  0  0  0  0  0  0  0  0  0
  -24.9978  -29.7029   20.3416 N   0  0  0  0  0  0  0  0  0  0  0  0
  -26.0651  -33.8401   23.6953 N   0  0  0  0  0  0  0  0  0  0  0  0
  -27.1232  -32.3880   27.0370 N   0  0  0  0  0  0  0  0  0  0  0  0
  -27.1962  -12.4162   20.4127 N   0  0  0  0  0  0  0  0  0  0  0  0
  -29.0269  -28.8231   21.1452 N   0  0  0  0  0  0  0  0  0  0  0  0
  -22.2108  -12.8767   21.8435 N   0  0  0  0  0  0  0  0  0  0  0  0
  -21.1723  -12.8261   24.5628 N   0  3  0  0  0  0  0  0  0  0  0  0
  -28.9921  -32.9211   25.8197 O   0  0  0  0  0  0  0  0  0  0  0  0
  -25.8207  -10.6962   21.1691 O   0  0  0  0  0  0  0  0  0  0  0  0
  -25.3188  -27.5009   19.6618 O   0  0  0  0  0  0  0  0  0  0  0  0
  -22.9886  -13.7696   18.7856 O   0  0  0  0  0  0  0  0  0  0  0  0
  -28.1856  -26.8330   20.2934 O   0  0  0  0  0  0  0  0  0  0  0  0
  -19.9373  -12.9199   21.3894 O   0  0  0  0  0  0  0  0  0  0  0  0
  -29.9264  -26.1571   26.3854 O   0  0  0  0  0  0  0  0  0  0  0  0
  -29.3171  -17.7009   20.5624 O   0  0  0  0  0  0  0  0  0  1  0  0
  -28.5675  -21.1430   24.5371 F   0  0  0  0  0  0  0  0  0  0  0  0
  -28.9152  -24.2392   28.1006 F   0  0  0  0  0  0  0  0  0  0  0  0
  1  2  1  0  0  0  0
  1  5  2  0  0  0  0
  2  6  2  0  0  0  0
  3 12  2  0  0  0  0
  3 19  1  0  0  0  0
  4 13  1  0  0  0  0
  4 19  2  0  0  0  0
  5 21  1  0  0  0  0
  6 23  1  0  0  0  0
  7 14  2  0  0  0  0
  7 22  1  0  0  0  0
  8 10  2  0  0  0  0
  8 25  1  0  0  0  0
  9 11  1  0  0  0  0
  9 25  2  0  0  0  0
 10 26  1  0  0  0  0
 11 26  2  0  0  0  0
 12 27  1  0  0  0  0
 13 27  2  0  0  0  0
 14 28  1  0  0  0  0
 15 16  2  0  0  0  0
 15 29  1  0  0  0  0
 16 30  1  0  0  0  0
 17 24  1  0  0  0  0
 17 28  2  0  0  0  0
 18 30  2  0  0  0  0
 18 31  1  0  0  0  0
 19 32  1  0  0  0  0
 20 32  1  0  0  0  0
 20 33  2  0  0  0  0
 20 36  1  0  0  0  0
 21 23  2  0  0  0  0
 21 42  1  0  0  0  0
 22 24  2  0  0  0  0
 22 43  1  0  0  0  0
 23 54  1  0  0  0  0
 24 44  1  0  0  0  0
 25 62  1  0  0  0  0
 26 70  1  0  0  0  0
 27 85  1  0  0  0  0
 28 86  1  0  0  0  0
 29 31  2  0  0  0  0
 29 85  1  0  0  0  0
 30 87  1  0  0  0  0
 31 88  1  0  0  0  0
 32 68  2  0  0  0  0
 33 69  1  0  0  0  0
 33 73  1  0  0  0  0
 34 35  2  0  0  0  0
 34 45  1  0  0  0  0
 35 46  1  0  0  0  0
 35 63  1  0  0  0  0
 36 74  1  0  0  0  0
 36 79  2  0  0  0  0
 37 55  1  0  0  0  0
 37 75  1  0  0  0  0
 37 80  2  0  0  0  0
 38 64  1  0  0  0  0
 38 72  1  0  0  0  0
 38 81  2  0  0  0  0
 39 65  1  0  0  0  0
 39 71  1  0  0  0  0
 39 82  2  0  0  0  0
 40 64  1  0  0  0  0
 40 76  1  0  0  0  0
 40 83  2  0  0  0  0
 41 66  1  0  0  0  0
 41 77  1  0  0  0  0
 41 84  2  0  0  0  0
 42 47  1  0  0  0  0
 43 55  1  0  0  0  0
 44 71  1  0  0  0  0
 45 70  1  0  0  0  0
 46 51  1  0  0  0  0
 47 49  1  0  0  0  0
 48 50  1  0  0  0  0
 48 52  1  0  0  0  0
 49 54  1  0  0  0  0
 50 56  1  0  0  0  0
 51 70  1  0  0  0  0
 52 72  1  0  0  0  0
 53 56  1  0  0  0  0
 53 72  1  0  0  0  0
 54 75  1  0  0  0  0
 55 71  1  0  0  0  0
 56 69  1  0  0  0  0
 57 66  1  0  0  0  0
 58 67  1  0  0  0  0
 59 67  1  0  0  0  0
 60 67  1  0  0  0  0
 61 78  1  0  0  0  0
 62 76  1  0  0  0  0
 63 86  1  0  0  0  0
 65 67  1  0  0  0  0
 65 77  1  0  0  0  0
 66 78  1  0  0  0  0
 68 69  1  0  0  0  0
M  CHG  1  78   1
M  ISO  4  38 100  63 101  64 100  86 101
M  END
> <Batch ID>
0103

> <Smiles>
CNC(C)C(=O)NC(C(=O)N1Cc2cc([101O:1][101CH2:1]C3=CCN(c4ccc(CNC(=O)[100CH2:0][100C:0](=O)N5CCCC(n6nc(-c7ccc(Oc8ccc(F)cc8F)cc7)c(C(N)=O)c6N)C5)cc4)CC3)ccc2CC1C(=O)NC1CCCc2ccccc21)C(C)(C)C

> <Shape>
0.310

> <Color>
0.082

> <Negative vol penalty>
0.000

$$$$

  -OEChem-04052301053D

 84 92  0     1  0  0  0  0  0999 V2000
  -23.9274  -36.2437   16.1037 C   0  0  0  0  0  0  0  0  0  0  0  0
  -24.2112  -34.8897   15.9566 C   0  0  0  0  0  0  0  0  0  0  0  0
  -24.8381   -8.6838   21.3905 C   0  0  0  0  0  0  0  0  0  0  0  0
  -23.5018  -10.0116   19.8777 C   0  0  0  0  0  0  0  0  0  0  0  0
  -24.2806  -36.9052   17.2791 C   0  0  0  0  0  0  0  0  0  0  0  0
  -24.8494  -34.1967   16.9846 C   0  0  0  0  0  0  0  0  0  0  0  0
  -23.9569  -28.3557   18.5946 C   0  0  0  0  0  0  0  0  0  0  0  0
  -26.5709  -16.7623   15.4814 C   0  0  0  0  0  0  0  0  0  0  0  0
  -23.7191   -7.9109   21.7005 C   0  0  0  0  0  0  0  0  0  0  0  0
  -22.3828   -9.2387   20.1877 C   0  0  0  0  0  0  0  0  0  0  0  0
  -24.6559  -27.1851   18.3032 C   0  0  0  0  0  0  0  0  0  0  0  0
  -25.8379  -17.9107   15.7806 C   0  0  0  0  0  0  0  0  0  0  0  0
  -20.9705   -8.1777   23.6494 C   0  0  0  0  0  0  0  0  0  0  0  0
  -20.7374   -7.8859   24.9933 C   0  0  0  0  0  0  0  0  0  0  0  0
  -27.0608  -18.1521   17.8502 C   0  0  0  0  0  0  0  0  0  0  0  0
  -25.8516  -27.3873   20.3886 C   0  0  0  0  0  0  0  0  0  0  0  0
  -20.8985   -5.5245   24.5086 C   0  0  0  0  0  0  0  0  0  0  0  0
  -24.7294   -9.7342   20.4791 C   0  0  0  0  0  0  0  0  0  0  0  0
  -27.7938  -17.0036   17.5511 C   0  0  0  0  0  0  0  0  0  0  0  0
  -26.8192  -10.3034   19.1313 C   0  0  0  0  0  0  0  0  0  0  0  0
  -24.9148  -36.2176   18.3258 C   0  0  0  0  0  0  0  0  0  0  0  0
  -24.2082  -29.0579   19.7820 C   0  0  0  0  0  0  0  0  0  0  0  0
  -25.2127  -34.8499   18.1746 C   0  0  0  0  0  0  0  0  0  0  0  0
  -25.1525  -28.5651   20.6939 C   0  0  0  0  0  0  0  0  0  0  0  0
  -27.5488  -16.3087   16.3667 C   0  0  0  0  0  0  0  0  0  0  0  0
  -22.4915   -8.1883   21.0991 C   0  0  0  0  0  0  0  0  0  0  0  0
  -26.0829  -18.6056   16.9650 C   0  0  0  0  0  0  0  0  0  0  0  0
  -25.6055  -26.7023   19.1990 C   0  0  0  0  0  0  0  0  0  0  0  0
  -21.1674   -7.1428   22.7350 C   0  0  0  0  0  0  0  0  0  0  0  0
  -20.7015   -6.5594   25.4230 C   0  0  0  0  0  0  0  0  0  0  0  0
  -21.1315   -5.8163   23.1647 C   0  0  0  0  0  0  0  0  0  0  0  0
  -25.8848  -10.5334   20.1589 C   0  0  0  0  0  0  0  0  0  0  0  0
  -27.7161  -11.3373   19.2452 C   0  0  0  0  0  0  0  0  0  0  0  0
  -28.8092  -16.5522   18.4928 C   0  0  0  0  0  0  0  0  0  0  0  0
  -26.8716   -9.2495   18.1607 C   0  0  0  0  0  0  0  0  0  0  0  0
  -28.6765  -16.8033   19.9463 C   0  0  0  0  0  0  0  0  0  0  0  0
  -25.2821  -31.9662   20.4838 C   0  0  0  0  0  0  0  0  0  0  0  0
  -24.5627  -31.0752   23.5187 C   0  0  0  0  0  0  0  0  0  0  0  0
  -24.0746  -28.5456   25.7570 C   0  0  0  0  0  0  0  0  0  0  0  0
  -25.3200  -36.9862   19.5587 C   0  0  0  0  0  0  0  0  0  0  0  0
  -23.4265  -30.3046   20.0940 C   0  0  0  0  0  0  0  0  0  0  0  0
  -25.4449  -29.2707   21.9919 C   0  0  0  0  0  0  0  0  0  0  0  0
  -25.6568  -36.0930   20.7499 C   0  0  0  0  0  0  0  0  0  0  0  0
  -28.3464  -14.7784   22.8870 C   0  0  0  0  0  0  0  0  0  0  0  0
  -26.5691  -34.9492   20.3184 C   0  0  0  0  0  0  0  0  0  0  0  0
  -27.7169  -13.4896   22.3593 C   0  0  0  0  0  0  0  0  0  0  0  0
  -27.8454  -15.9987   22.1212 C   0  0  0  0  0  0  0  0  0  0  0  0
  -27.4158  -14.6157   20.1084 C   0  0  0  0  0  0  0  0  0  0  0  0
  -25.8816  -34.0579   19.2771 C   0  0  1  0  0  0  0  0  0  0  0  0
  -24.1310  -31.2171   21.0932 C   0  0  1  0  0  0  0  0  0  0  0  0
  -27.9188  -13.3586   20.8392 C   0  0  2  0  0  0  0  0  0  0  0  0
  -28.3189  -15.0760   16.0215 C   0  0  0  0  0  0  0  0  0  0  0  0
  -23.5359  -28.1290   28.1723 C   0  0  0  0  0  0  0  0  0  0  0  0
  -27.4201  -31.8244   24.2828 C   0  0  0  0  0  0  0  0  0  0  0  0
  -27.1190  -30.5274   26.4031 C   0  0  0  0  0  0  0  0  0  0  0  0
  -25.6814  -32.5135   25.9432 C   0  0  0  0  0  0  0  0  0  0  0  0
  -21.5868  -27.0962   25.0722 C   0  0  0  0  0  0  0  0  0  0  0  0
  -25.4580  -22.1015   17.6964 C   0  0  0  0  0  0  0  0  0  0  0  0
  -26.1450  -23.2019   18.4977 C   0  0  0  0  0  0  0  0  0  0  0  0
  -26.0141  -20.7260   18.0397 C   0  0  0  0  0  0  0  0  0  0  0  0
  -25.6198  -24.5808   18.1242 C   0  0  0  0  0  0  0  0  0  1  0  0
  -25.3072  -30.3828   24.6346 C   0  0  1  0  0  0  0  0  0  0  0  0
  -22.9718  -28.2956   26.7698 C   0  0  2  0  0  0  0  0  0  0  0  0
  -26.3781  -31.2996   25.2906 C   0  0  0  0  0  0  0  0  0  0  0  0
  -26.1625  -11.6274   20.8730 N   0  0  0  0  0  0  0  0  0  0  0  0
  -29.8832  -15.9068   18.1303 N   0  0  0  0  0  0  0  0  0  0  0  0
  -27.2816  -12.0940   20.2934 N   0  0  0  0  0  0  0  0  0  0  0  0
  -28.0186  -15.8263   20.6803 N   0  0  0  0  0  0  0  0  0  0  0  0
  -24.6592  -30.4890   22.2487 N   0  0  0  0  0  0  0  0  0  0  0  0
  -28.8263  -11.6638   18.5500 N   0  0  0  0  0  0  0  0  0  0  0  0
  -25.8709   -8.2685   18.1848 N   0  0  0  0  0  0  0  0  0  0  0  0
  -24.9291  -33.1758   19.9167 N   0  0  0  0  0  0  0  0  0  0  0  0
  -24.2917  -29.8930   25.5605 N   0  0  0  0  0  0  0  0  0  0  0  0
  -22.2154  -27.0608   26.4178 N   0  3  0  0  0  0  0  0  0  0  0  0
  -27.7882   -9.1706   17.3079 O   0  0  0  0  0  0  0  0  0  0  0  0
  -29.1638  -17.8523   20.3469 O   0  0  0  0  0  0  0  0  0  0  0  0
  -26.4075  -31.4832   20.5263 O   0  0  0  0  0  0  0  0  0  0  0  0
  -23.9133  -32.0944   23.7662 O   0  0  0  0  0  0  0  0  0  0  0  0
  -24.6851  -27.6365   25.1989 O   0  0  0  0  0  0  0  0  0  0  0  0
  -21.3995   -7.4341   21.4012 O   0  0  0  0  0  0  0  0  0  0  0  0
  -25.3617  -19.7334   17.2590 O   0  0  0  0  0  0  0  0  0  0  0  0
  -26.2897  -25.5603   18.9168 O   0  0  0  0  0  0  0  0  0  1  0  0
  -20.4792   -6.2794   26.7139 F   0  0  0  0  0  0  0  0  0  0  0  0
  -21.3212   -4.8179   22.2911 F   0  0  0  0  0  0  0  0  0  0  0  0
  1  2  1  0  0  0  0
  1  5  2  0  0  0  0
  2  6  2  0  0  0  0
  3  9  2  0  0  0  0
  3 18  1  0  0  0  0
  4 10  1  0  0  0  0
  4 18  2  0  0  0  0
  5 21  1  0  0  0  0
  6 23  1  0  0  0  0
  7 11  2  0  0  0  0
  7 22  1  0  0  0  0
  8 12  2  0  0  0  0
  8 25  1  0  0  0  0
  9 26  1  0  0  0  0
 10 26  2  0  0  0  0
 11 28  1  0  0  0  0
 12 27  1  0  0  0  0
 13 14  2  0  0  0  0
 13 29  1  0  0  0  0
 14 30  1  0  0  0  0
 15 19  1  0  0  0  0
 15 27  2  0  0  0  0
 16 24  1  0  0  0  0
 16 28  2  0  0  0  0
 17 30  2  0  0  0  0
 17 31  1  0  0  0  0
 18 32  1  0  0  0  0
 19 25  2  0  0  0  0
 19 34  1  0  0  0  0
 20 32  1  0  0  0  0
 20 33  2  0  0  0  0
 20 35  1  0  0  0  0
 21 23  2  0  0  0  0
 21 40  1  0  0  0  0
 22 24  2  0  0  0  0
 22 41  1  0  0  0  0
 23 49  1  0  0  0  0
 24 42  1  0  0  0  0
 25 52  1  0  0  0  0
 26 80  1  0  0  0  0
 27 81  1  0  0  0  0
 28 82  1  0  0  0  0
 29 31  2  0  0  0  0
 29 80  1  0  0  0  0
 30 83  1  0  0  0  0
 31 84  1  0  0  0  0
 32 65  2  0  0  0  0
 33 67  1  0  0  0  0
 33 70  1  0  0  0  0
 34 36  1  0  0  0  0
 34 66  2  0  0  0  0
 35 71  1  0  0  0  0
 35 75  2  0  0  0  0
 36 68  1  0  0  0  0
 36 76  2  0  0  0  0
 37 50  1  0  0  0  0
 37 72  1  0  0  0  0
 37 77  2  0  0  0  0
 38 62  1  0  0  0  0
 38 69  1  0  0  0  0
 38 78  2  0  0  0  0
 39 63  1  0  0  0  0
 39 73  1  0  0  0  0
 39 79  2  0  0  0  0
 40 43  1  0  0  0  0
 41 50  1  0  0  0  0
 42 69  1  0  0  0  0
 43 45  1  0  0  0  0
 44 46  1  0  0  0  0
 44 47  1  0  0  0  0
 45 49  1  0  0  0  0
 46 51  1  0  0  0  0
 47 68  1  0  0  0  0
 48 51  1  0  0  0  0
 48 68  1  0  0  0  0
 49 72  1  0  0  0  0
 50 69  1  0  0  0  0
 51 67  1  0  0  0  0
 53 63  1  0  0  0  0
 54 64  1  0  0  0  0
 55 64  1  0  0  0  0
 56 64  1  0  0  0  0
 57 74  1  0  0  0  0
 58 59  1  0  0  0  0
 58 60  1  0  0  0  0
 59 61  1  0  0  0  0
 60 81  1  0  0  0  0
 61 82  1  0  0  0  0
 62 64  1  0  0  0  0
 62 73  1  0  0  0  0
 63 74  1  0  0  0  0
 65 67  1  0  0  0  0
M  CHG  1  74   1
M  ISO  4  34 100  36 100  61 101  82 101
M  END
> <Batch ID>
0103

> <Smiles>
CNC(C)C(=O)NC(C(=O)N1Cc2cc([101O:1][101CH2:1]CCCOc3ccc(C)c([100C:0](=N)[100C:0](=O)N4CCCC(n5nc(-c6ccc(Oc7ccc(F)cc7F)cc6)c(C(N)=O)c5N)C4)c3)ccc2CC1C(=O)NC1CCCc2ccccc21)C(C)(C)C

> <Shape>
0.229

> <Color>
0.106

> <Negative vol penalty>
0.000

$$$$

  -OEChem-04052301053D

 86 94  0     1  0  0  0  0  0999 V2000
  -22.4589   -7.5065   20.9840 C   0  0  0  0  0  0  0  0  0  0  0  0
  -23.3745   -7.8455   19.9942 C   0  0  0  0  0  0  0  0  0  0  0  0
  -24.6530  -30.0223   24.8063 C   0  0  0  0  0  0  0  0  0  0  0  0
  -26.1059  -31.8312   24.1325 C   0  0  0  0  0  0  0  0  0  0  0  0
  -22.2351   -8.3770   22.0487 C   0  0  0  0  0  0  0  0  0  0  0  0
  -24.0753   -9.0494   20.0749 C   0  0  0  0  0  0  0  0  0  0  0  0
  -29.2453  -14.7522   17.8987 C   0  0  0  0  0  0  0  0  0  0  0  0
  -25.0396  -30.2062   26.1338 C   0  0  0  0  0  0  0  0  0  0  0  0
  -26.4925  -32.0152   25.4601 C   0  0  0  0  0  0  0  0  0  0  0  0
  -29.5999  -16.0854   18.1003 C   0  0  0  0  0  0  0  0  0  0  0  0
  -27.5891  -33.1982   28.7183 C   0  0  0  0  0  0  0  0  0  0  0  0
  -27.6410  -34.5046   29.2043 C   0  0  0  0  0  0  0  0  0  0  0  0
  -29.7082  -15.6908   20.4774 C   0  0  0  0  0  0  0  0  0  0  0  0
  -29.5488  -24.4174   20.1833 C   0  0  0  0  0  0  0  0  0  0  0  0
  -25.2877  -34.7748   28.7289 C   0  0  0  0  0  0  0  0  0  0  0  0
  -25.1863  -30.8347   23.8056 C   0  0  0  0  0  0  0  0  0  0  0  0
  -23.7116  -31.2614   21.7683 C   0  0  0  0  0  0  0  0  0  0  0  0
  -22.9247   -9.5976   22.1351 C   0  0  0  0  0  0  0  0  0  0  0  0
  -29.1090  -13.8789   18.9875 C   0  0  0  0  0  0  0  0  0  0  0  0
  -23.8809   -9.9303   21.1541 C   0  0  0  0  0  0  0  0  0  0  0  0
  -29.3565  -14.3460   20.2864 C   0  0  0  0  0  0  0  0  0  0  0  0
  -25.9593  -31.2027   26.4607 C   0  0  0  0  0  0  0  0  0  0  0  0
  -29.8291  -16.5554   19.3900 C   0  0  0  0  0  0  0  0  0  0  0  0
  -26.3866  -32.6801   28.2375 C   0  0  0  0  0  0  0  0  0  0  0  0
  -29.6354  -23.0148   19.9480 C   0  0  0  0  0  0  0  0  0  0  0  0
  -26.4903  -35.2929   29.2096 C   0  0  0  0  0  0  0  0  0  0  0  0
  -25.2358  -33.4684   28.2429 C   0  0  0  0  0  0  0  0  0  0  0  0
  -24.7878  -30.6448   22.4340 C   0  0  0  0  0  0  0  0  0  0  0  0
  -29.8571  -24.7437   21.4856 C   0  0  0  0  0  0  0  0  0  0  0  0
  -30.0068  -22.3224   21.0796 C   0  0  0  0  0  0  0  0  0  0  0  0
  -23.7580  -30.7507   20.4941 C   0  0  0  0  0  0  0  0  0  0  0  0
  -30.2077  -20.8747   21.2585 C   0  0  0  0  0  0  0  0  0  0  0  0
  -29.5457  -19.9136   20.5957 C   0  0  0  0  0  0  0  0  0  0  0  0
  -22.7555  -32.2111   22.2578 C   0  0  0  0  0  0  0  0  0  0  0  0
  -29.8850  -26.0752   22.1258 C   0  0  0  0  0  0  0  0  0  0  0  0
  -26.7668  -12.1057   20.2585 C   0  0  0  0  0  0  0  0  0  0  0  0
  -29.2844  -11.0921   22.1788 C   0  0  0  0  0  0  0  0  0  0  0  0
  -28.1891   -7.8678   22.3886 C   0  0  0  0  0  0  0  0  0  0  0  0
  -27.7565  -26.7698   21.0370 C   0  0  0  0  0  0  0  0  0  0  0  0
  -22.6494  -10.4986   23.3131 C   0  0  0  0  0  0  0  0  0  0  0  0
  -28.7551  -12.4364   18.7457 C   0  0  0  0  0  0  0  0  0  0  0  0
  -29.2272  -13.4481   21.4872 C   0  0  0  0  0  0  0  0  0  0  0  0
  -23.1040  -11.9359   23.0813 C   0  0  0  0  0  0  0  0  0  0  0  0
  -27.4870  -29.0370   17.9812 C   0  0  0  0  0  0  0  0  0  0  0  0
  -24.5349  -11.9516   22.5647 C   0  0  0  0  0  0  0  0  0  0  0  0
  -26.2666  -29.8534   18.3885 C   0  0  0  0  0  0  0  0  0  0  0  0
  -28.1860  -28.4817   19.2152 C   0  0  0  0  0  0  0  0  0  0  0  0
  -25.8665  -27.6983   19.7479 C   0  0  0  0  0  0  0  0  0  0  0  0
  -24.6323  -11.2484   21.2049 C   0  0  1  0  0  0  0  0  0  0  0  0
  -28.1946  -11.7307   19.9787 C   0  0  1  0  0  0  0  0  0  0  0  0
  -25.3077  -29.0618   19.2993 C   0  0  1  0  0  0  0  0  0  0  0  0
  -28.3775  -23.1985   15.2300 C   0  0  0  0  0  0  0  0  0  0  0  0
  -28.0081   -5.5224   23.2625 C   0  0  0  0  0  0  0  0  0  0  0  0
  -31.7370  -10.6364   20.4230 C   0  0  0  0  0  0  0  0  0  0  0  0
  -31.5687   -8.1934   20.9442 C   0  0  0  0  0  0  0  0  0  0  0  0
  -31.9767   -9.8332   22.7793 C   0  0  0  0  0  0  0  0  0  0  0  0
  -29.3021  -28.4434   21.9944 C   0  0  0  0  0  0  0  0  0  0  0  0
  -26.1182   -8.6377   24.3577 C   0  0  0  0  0  0  0  0  0  0  0  0
  -29.7749  -18.4535   20.8219 C   0  0  0  0  0  0  0  0  0  1  0  0
  -28.7669  -22.3773   16.4461 C   0  0  0  0  0  0  0  0  0  0  0  0
  -29.0145  -23.2532   17.6647 C   0  0  0  0  0  0  0  0  0  0  0  0
  -29.6913   -9.7196   21.7039 C   0  0  1  0  0  0  0  0  0  0  0  0
  -27.8367   -6.9992   23.5826 C   0  0  2  0  0  0  0  0  0  0  0  0
  -31.2215   -9.6096   21.4510 C   0  0  0  0  0  0  0  0  0  0  0  0
  -25.4681  -29.8062   21.6479 N   0  0  0  0  0  0  0  0  0  0  0  0
  -24.8177  -29.8923   20.4750 N   0  0  0  0  0  0  0  0  0  0  0  0
  -28.9636  -12.0336   21.1925 N   0  0  0  0  0  0  0  0  0  0  0  0
  -27.2930  -27.7006   20.0824 N   0  0  0  0  0  0  0  0  0  0  0  0
  -22.9952  -30.9565   19.3995 N   0  0  0  0  0  0  0  0  0  0  0  0
  -22.8521  -32.6294   23.5919 N   0  0  0  0  0  0  0  0  0  0  0  0
  -26.0262  -11.0996   20.8491 N   0  0  0  0  0  0  0  0  0  0  0  0
  -29.1799   -8.7772   22.6932 N   0  0  0  0  0  0  0  0  0  0  0  0
  -29.0025  -27.0611   21.6336 N   0  0  0  0  0  0  0  0  0  0  0  0
  -26.4225   -7.2304   23.9919 N   0  3  0  0  0  0  0  0  0  0  0  0
  -21.8325  -32.6626   21.5382 O   0  0  0  0  0  0  0  0  0  0  0  0
  -30.6660  -26.2313   23.0636 O   0  0  0  0  0  0  0  0  0  0  0  0
  -26.3669  -13.2255   19.9618 O   0  0  0  0  0  0  0  0  0  0  0  0
  -29.2583  -11.3279   23.3900 O   0  0  0  0  0  0  0  0  0  0  0  0
  -27.6430   -7.7489   21.2940 O   0  0  0  0  0  0  0  0  0  0  0  0
  -27.1097  -25.7694   21.3682 O   0  0  0  0  0  0  0  0  0  0  0  0
  -26.3365  -31.3826   27.7560 O   0  0  0  0  0  0  0  0  0  0  0  0
  -30.1759  -17.8562   19.5895 O   0  0  0  0  0  0  0  0  0  1  0  0
  -29.3905  -22.4174   18.7676 O   0  0  0  0  0  0  0  0  0  0  0  0
  -26.5399  -36.5469   29.6778 F   0  0  0  0  0  0  0  0  0  0  0  0
  -24.0774  -32.9758   27.7834 F   0  0  0  0  0  0  0  0  0  0  0  0
  -30.2490  -23.3622   22.4184 S   0  0  0  0  0  0  0  0  0  0  0  0
  1  2  1  0  0  0  0
  1  5  2  0  0  0  0
  2  6  2  0  0  0  0
  3  8  2  0  0  0  0
  3 16  1  0  0  0  0
  4  9  1  0  0  0  0
  4 16  2  0  0  0  0
  5 18  1  0  0  0  0
  6 20  1  0  0  0  0
  7 10  2  0  0  0  0
  7 19  1  0  0  0  0
  8 22  1  0  0  0  0
  9 22  2  0  0  0  0
 10 23  1  0  0  0  0
 11 12  2  0  0  0  0
 11 24  1  0  0  0  0
 12 26  1  0  0  0  0
 13 21  1  0  0  0  0
 13 23  2  0  0  0  0
 14 25  1  0  0  0  0
 14 29  2  0  0  0  0
 15 26  2  0  0  0  0
 15 27  1  0  0  0  0
 16 28  1  0  0  0  0
 17 28  1  0  0  0  0
 17 31  2  0  0  0  0
 17 34  1  0  0  0  0
 18 20  2  0  0  0  0
 18 40  1  0  0  0  0
 19 21  2  0  0  0  0
 19 41  1  0  0  0  0
 20 49  1  0  0  0  0
 21 42  1  0  0  0  0
 22 81  1  0  0  0  0
 23 82  1  0  0  0  0
 24 27  2  0  0  0  0
 24 81  1  0  0  0  0
 25 30  2  0  0  0  0
 25 83  1  0  0  0  0
 26 84  1  0  0  0  0
 27 85  1  0  0  0  0
 28 65  2  0  0  0  0
 29 35  1  0  0  0  0
 29 86  1  0  0  0  0
 30 32  1  0  0  0  0
 30 86  1  0  0  0  0
 31 66  1  0  0  0  0
 31 69  1  0  0  0  0
 32 33  2  0  0  0  0
 33 59  1  0  0  0  0
 34 70  1  0  0  0  0
 34 75  2  0  0  0  0
 35 73  1  0  0  0  0
 35 76  2  0  0  0  0
 36 50  1  0  0  0  0
 36 71  1  0  0  0  0
 36 77  2  0  0  0  0
 37 62  1  0  0  0  0
 37 67  1  0  0  0  0
 37 78  2  0  0  0  0
 38 63  1  0  0  0  0
 38 72  1  0  0  0  0
 38 79  2  0  0  0  0
 39 68  1  0  0  0  0
 39 73  1  0  0  0  0
 39 80  2  0  0  0  0
 40 43  1  0  0  0  0
 41 50  1  0  0  0  0
 42 67  1  0  0  0  0
 43 45  1  0  0  0  0
 44 46  1  0  0  0  0
 44 47  1  0  0  0  0
 45 49  1  0  0  0  0
 46 51  1  0  0  0  0
 47 68  1  0  0  0  0
 48 51  1  0  0  0  0
 48 68  1  0  0  0  0
 49 71  1  0  0  0  0
 50 67  1  0  0  0  0
 51 66  1  0  0  0  0
 52 60  1  0  0  0  0
 53 63  1  0  0  0  0
 54 64  1  0  0  0  0
 55 64  1  0  0  0  0
 56 64  1  0  0  0  0
 57 73  1  0  0  0  0
 58 74  1  0  0  0  0
 59 82  1  0  0  0  0
 60 61  1  0  0  0  0
 61 83  1  0  0  0  0
 62 64  1  0  0  0  0
 62 72  1  0  0  0  0
 63 74  1  0  0  0  0
 65 66  1  0  0  0  0
M  CHG  1  74   1
M  ISO  4  39 100  59 101  73 100  82 101
M  END
> <Batch ID>
0103

> <Smiles>
CCCOc1cc(C(=O)[100N:0](C)[100C:0](=O)N2CCCC(n3nc(-c4ccc(Oc5ccc(F)cc5F)cc4)c(C(N)=O)c3N)C2)sc1C=C[101CH2:1][101O:1]c1ccc2c(c1)CN(C(=O)C(NC(=O)C(C)NC)C(C)(C)C)C(C(=O)NC1CCCc3ccccc31)C2

> <Shape>
0.268

> <Color>
0.076

> <Negative vol penalty>
0.000

$$$$

  -OEChem-04052301053D

 85 93  0     1  0  0  0  0  0999 V2000
  -28.8143  -35.8430   21.3017 C   0  0  0  0  0  0  0  0  0  0  0  0
  -29.2852  -34.5480   21.4932 C   0  0  0  0  0  0  0  0  0  0  0  0
  -22.1930  -10.7399   22.4950 C   0  0  0  0  0  0  0  0  0  0  0  0
  -21.7645  -10.5427   20.1255 C   0  0  0  0  0  0  0  0  0  0  0  0
  -27.4525  -36.1141   21.4280 C   0  0  0  0  0  0  0  0  0  0  0  0
  -28.3947  -33.5235   21.8124 C   0  0  0  0  0  0  0  0  0  0  0  0
  -28.7452  -27.6640   20.0663 C   0  0  0  0  0  0  0  0  0  0  0  0
  -21.5610   -9.5154   22.7112 C   0  0  0  0  0  0  0  0  0  0  0  0
  -21.1326   -9.3181   20.3417 C   0  0  0  0  0  0  0  0  0  0  0  0
  -29.2159  -26.5201   20.7096 C   0  0  0  0  0  0  0  0  0  0  0  0
  -22.3119   -6.2341   22.3918 C   0  0  0  0  0  0  0  0  0  0  0  0
  -22.9371   -5.3234   23.2434 C   0  0  0  0  0  0  0  0  0  0  0  0
  -26.6681  -19.4712   17.9172 C   0  0  0  0  0  0  0  0  0  0  0  0
  -26.9662  -25.9903   21.4006 C   0  0  0  0  0  0  0  0  0  0  0  0
  -25.3744  -21.4945   18.1807 C   0  0  0  0  0  0  0  0  0  0  0  0
  -21.0066   -5.3562   24.6958 C   0  0  0  0  0  0  0  0  0  0  0  0
  -22.2947  -11.2536   21.2021 C   0  0  0  0  0  0  0  0  0  0  0  0
  -27.7288  -20.0597   18.6057 C   0  0  0  0  0  0  0  0  0  0  0  0
  -24.3122  -12.7361   20.7130 C   0  0  0  0  0  0  0  0  0  0  0  0
  -26.5436  -35.0906   21.7394 C   0  0  0  0  0  0  0  0  0  0  0  0
  -27.3806  -27.9860   20.0947 C   0  0  0  0  0  0  0  0  0  0  0  0
  -27.0196  -33.7815   21.9443 C   0  0  0  0  0  0  0  0  0  0  0  0
  -26.4804  -27.1375   20.7547 C   0  0  0  0  0  0  0  0  0  0  0  0
  -25.4909  -20.1886   17.7046 C   0  0  0  0  0  0  0  0  0  0  0  0
  -26.4351  -22.0831   18.8693 C   0  0  0  0  0  0  0  0  0  0  0  0
  -21.0308   -8.8045   21.6346 C   0  0  0  0  0  0  0  0  0  0  0  0
  -28.3268  -25.6846   21.3793 C   0  0  0  0  0  0  0  0  0  0  0  0
  -21.0340   -6.7059   22.6921 C   0  0  0  0  0  0  0  0  0  0  0  0
  -27.6124  -21.3656   19.0819 C   0  0  0  0  0  0  0  0  0  0  0  0
  -22.2845   -4.8844   24.3954 C   0  0  0  0  0  0  0  0  0  0  0  0
  -20.3814   -6.2670   23.8441 C   0  0  0  0  0  0  0  0  0  0  0  0
  -22.9469  -12.5187   20.9782 C   0  0  0  0  0  0  0  0  0  0  0  0
  -24.4232  -14.0985   20.5787 C   0  0  0  0  0  0  0  0  0  0  0  0
  -28.9788  -18.1246   19.4474 C   0  0  0  0  0  0  0  0  0  0  0  0
  -28.9469  -19.2875   18.8142 C   0  0  0  0  0  0  0  0  0  0  0  0
  -25.3843  -11.7910   20.5983 C   0  0  0  0  0  0  0  0  0  0  0  0
  -25.6725  -30.4170   21.2244 C   0  0  0  0  0  0  0  0  0  0  0  0
  -23.2291  -28.8801   19.7445 C   0  0  0  0  0  0  0  0  0  0  0  0
  -21.9574  -25.9546   18.5318 C   0  0  0  0  0  0  0  0  0  0  0  0
  -22.5577  -18.9586   18.5675 C   0  0  0  0  0  0  0  0  0  0  0  0
  -25.0869  -35.4411   21.9120 C   0  0  0  0  0  0  0  0  0  0  0  0
  -26.8852  -29.2092   19.3732 C   0  0  0  0  0  0  0  0  0  0  0  0
  -25.0031  -27.4277   20.7975 C   0  0  0  0  0  0  0  0  0  0  0  0
  -24.1610  -34.2278   21.8838 C   0  0  0  0  0  0  0  0  0  0  0  0
  -21.1194  -17.7882   21.6069 C   0  0  0  0  0  0  0  0  0  0  0  0
  -24.7128  -33.1145   22.7686 C   0  0  0  0  0  0  0  0  0  0  0  0
  -21.5740  -16.3299   21.6890 C   0  0  0  0  0  0  0  0  0  0  0  0
  -20.8233  -18.2070   20.1686 C   0  0  0  0  0  0  0  0  0  0  0  0
  -22.3745  -16.5024   19.2956 C   0  0  0  0  0  0  0  0  0  0  0  0
  -26.0817  -32.6387   22.2673 C   0  0  1  0  0  0  0  0  0  0  0  0
  -25.5463  -29.7138   19.9025 C   0  0  1  0  0  0  0  0  0  0  0  0
  -22.7386  -16.0503   20.7202 C   0  0  2  0  0  0  0  0  0  0  0  0
  -19.9219  -25.0055   17.4122 C   0  0  0  0  0  0  0  0  0  0  0  0
  -21.7290  -28.9713   22.4000 C   0  0  0  0  0  0  0  0  0  0  0  0
  -20.1759  -27.2244   21.5029 C   0  0  0  0  0  0  0  0  0  0  0  0
  -20.3213  -29.4520   20.3896 C   0  0  0  0  0  0  0  0  0  0  0  0
  -23.5112  -25.1201   16.1551 C   0  0  0  0  0  0  0  0  0  0  0  0
  -24.3569  -19.5602   16.9675 C   0  0  0  0  0  0  0  0  0  0  0  0
  -29.9080  -22.4485   21.7517 C   0  0  0  0  0  0  0  0  0  0  0  0
  -29.9413  -23.9403   21.4588 C   0  0  0  0  0  0  0  0  0  1  0  0
  -28.6710  -21.7821   21.1703 C   0  0  0  0  0  0  0  0  0  0  0  0
  -22.2348  -27.8176   20.1463 C   0  0  1  0  0  0  0  0  0  0  0  0
  -21.3000  -25.6147   17.2063 C   0  0  2  0  0  0  0  0  0  0  0  0
  -21.1433  -28.3616   21.1107 C   0  0  0  0  0  0  0  0  0  0  0  0
  -22.2411  -13.6523   21.0109 N   0  0  0  0  0  0  0  0  0  0  0  0
  -23.1666  -14.5950   20.7647 N   0  0  0  0  0  0  0  0  0  0  0  0
  -24.5683  -28.6389   20.0824 N   0  0  0  0  0  0  0  0  0  0  0  0
  -21.9679  -17.9164   19.3018 N   0  0  0  0  0  0  0  0  0  0  0  0
  -26.3018  -23.4063   19.3447 N   0  0  0  0  0  0  0  0  0  0  0  0
  -25.4722  -14.9082   20.3208 N   0  0  0  0  0  0  0  0  0  0  0  0
  -25.0955  -10.4297   20.7646 N   0  0  0  0  0  0  0  0  0  0  0  0
  -25.9259  -31.7713   21.1193 N   0  0  0  0  0  0  0  0  0  0  0  0
  -21.7105  -27.2589   18.9048 N   0  0  0  0  0  0  0  0  0  0  0  0
  -23.6414  -18.5984   17.7759 N   0  0  0  0  0  0  0  0  0  0  0  0
  -22.1358  -24.6412   16.4482 N   0  3  0  0  0  0  0  0  0  0  0  0
  -26.5663  -12.1447   20.3717 O   0  0  0  0  0  0  0  0  0  0  0  0
  -25.5478  -29.7784   22.2628 O   0  0  0  0  0  0  0  0  0  0  0  0
  -22.8331  -29.8837   19.1465 O   0  0  0  0  0  0  0  0  0  0  0  0
  -22.6203  -25.1430   19.1740 O   0  0  0  0  0  0  0  0  0  0  0  0
  -22.1521  -20.1247   18.6180 O   0  0  0  0  0  0  0  0  0  0  0  0
  -20.4143   -7.6094   21.8452 O   0  0  0  0  0  0  0  0  0  0  0  0
  -28.7836  -24.5678   22.0085 O   0  0  0  0  0  0  0  0  0  1  0  0
  -28.6511  -21.9495   19.7592 O   0  0  0  0  0  0  0  0  0  0  0  0
  -22.8844   -4.0087   25.2124 F   0  0  0  0  0  0  0  0  0  0  0  0
  -19.1532   -6.7158   24.1373 F   0  0  0  0  0  0  0  0  0  0  0  0
  1  2  1  0  0  0  0
  1  5  2  0  0  0  0
  2  6  2  0  0  0  0
  3  8  2  0  0  0  0
  3 17  1  0  0  0  0
  4  9  1  0  0  0  0
  4 17  2  0  0  0  0
  5 20  1  0  0  0  0
  6 22  1  0  0  0  0
  7 10  2  0  0  0  0
  7 21  1  0  0  0  0
  8 26  1  0  0  0  0
  9 26  2  0  0  0  0
 10 27  1  0  0  0  0
 11 12  2  0  0  0  0
 11 28  1  0  0  0  0
 12 30  1  0  0  0  0
 13 18  1  0  0  0  0
 13 24  2  0  0  0  0
 14 23  1  0  0  0  0
 14 27  2  0  0  0  0
 15 24  1  0  0  0  0
 15 25  2  0  0  0  0
 16 30  2  0  0  0  0
 16 31  1  0  0  0  0
 17 32  1  0  0  0  0
 18 29  2  0  0  0  0
 18 35  1  0  0  0  0
 19 32  1  0  0  0  0
 19 33  2  0  0  0  0
 19 36  1  0  0  0  0
 20 22  2  0  0  0  0
 20 41  1  0  0  0  0
 21 23  2  0  0  0  0
 21 42  1  0  0  0  0
 22 50  1  0  0  0  0
 23 43  1  0  0  0  0
 24 58  1  0  0  0  0
 25 29  1  0  0  0  0
 25 69  1  0  0  0  0
 26 81  1  0  0  0  0
 27 82  1  0  0  0  0
 28 31  2  0  0  0  0
 28 81  1  0  0  0  0
 29 83  1  0  0  0  0
 30 84  1  0  0  0  0
 31 85  1  0  0  0  0
 32 65  2  0  0  0  0
 33 66  1  0  0  0  0
 33 70  1  0  0  0  0
 34 35  2  0  0  0  0
 36 71  1  0  0  0  0
 36 76  2  0  0  0  0
 37 51  1  0  0  0  0
 37 72  1  0  0  0  0
 37 77  2  0  0  0  0
 38 62  1  0  0  0  0
 38 67  1  0  0  0  0
 38 78  2  0  0  0  0
 39 63  1  0  0  0  0
 39 73  1  0  0  0  0
 39 79  2  0  0  0  0
 40 68  1  0  0  0  0
 40 74  1  0  0  0  0
 40 80  2  0  0  0  0
 41 44  1  0  0  0  0
 42 51  1  0  0  0  0
 43 67  1  0  0  0  0
 44 46  1  0  0  0  0
 45 47  1  0  0  0  0
 45 48  1  0  0  0  0
 46 50  1  0  0  0  0
 47 52  1  0  0  0  0
 48 68  1  0  0  0  0
 49 52  1  0  0  0  0
 49 68  1  0  0  0  0
 50 72  1  0  0  0  0
 51 67  1  0  0  0  0
 52 66  1  0  0  0  0
 53 63  1  0  0  0  0
 54 64  1  0  0  0  0
 55 64  1  0  0  0  0
 56 64  1  0  0  0  0
 57 75  1  0  0  0  0
 58 74  1  0  0  0  0
 59 60  1  0  0  0  0
 59 61  1  0  0  0  0
 60 82  1  0  0  0  0
 61 83  1  0  0  0  0
 62 64  1  0  0  0  0
 62 73  1  0  0  0  0
 63 75  1  0  0  0  0
 65 66  1  0  0  0  0
M  CHG  1  75   1
M  ISO  4  40 100  60 101  74 100  82 101
M  END
> <Batch ID>
0103

> <Smiles>
C=Cc1cc(C[100NH:0][100C:0](=O)N2CCCC(n3nc(-c4ccc(Oc5ccc(F)cc5F)cc4)c(C(N)=O)c3N)C2)cc(N)c1OCC[101CH2:1][101O:1]c1ccc2c(c1)CN(C(=O)C(NC(=O)C(C)NC)C(C)(C)C)C(C(=O)NC1CCCc3ccccc31)C2

> <Shape>
0.250

> <Color>
0.089

> <Negative vol penalty>
0.000

$$$$

  -OEChem-04052301053D

 89 98  0     1  0  0  0  0  0999 V2000
  -19.8385  -34.0068   20.8148 C   0  0  0  0  0  0  0  0  0  0  0  0
  -21.0418  -33.4352   20.4139 C   0  0  0  0  0  0  0  0  0  0  0  0
  -24.1134   -9.4638   22.8844 C   0  0  0  0  0  0  0  0  0  0  0  0
  -24.0051   -9.9682   20.5241 C   0  0  0  0  0  0  0  0  0  0  0  0
  -19.2108  -33.5634   21.9781 C   0  0  0  0  0  0  0  0  0  0  0  0
  -21.6187  -32.4205   21.1768 C   0  0  0  0  0  0  0  0  0  0  0  0
  -24.8163  -27.6243   19.1085 C   0  0  0  0  0  0  0  0  0  0  0  0
  -23.0831   -8.5358   22.7334 C   0  0  0  0  0  0  0  0  0  0  0  0
  -22.9748   -9.0402   20.3731 C   0  0  0  0  0  0  0  0  0  0  0  0
  -26.1858  -27.3831   19.0078 C   0  0  0  0  0  0  0  0  0  0  0  0
  -22.7310   -5.3649   21.6133 C   0  0  0  0  0  0  0  0  0  0  0  0
  -22.8796   -4.1246   22.2338 C   0  0  0  0  0  0  0  0  0  0  0  0
  -26.1270  -26.2051   21.1121 C   0  0  0  0  0  0  0  0  0  0  0  0
  -29.9483  -20.9548   19.9138 C   0  0  0  0  0  0  0  0  0  0  0  0
  -28.5401  -22.4218   18.6093 C   0  0  0  0  0  0  0  0  0  0  0  0
  -20.8765   -4.5293   23.5226 C   0  0  0  0  0  0  0  0  0  0  0  0
  -24.5744  -10.1801   21.7797 C   0  0  0  0  0  0  0  0  0  0  0  0
  -26.9452  -10.8919   22.3964 C   0  0  0  0  0  0  0  0  0  0  0  0
  -19.7754  -32.5361   22.7505 C   0  0  0  0  0  0  0  0  0  0  0  0
  -24.0927  -27.1664   20.2190 C   0  0  0  0  0  0  0  0  0  0  0  0
  -20.9986  -31.9638   22.3523 C   0  0  0  0  0  0  0  0  0  0  0  0
  -24.7479  -26.4396   21.2233 C   0  0  0  0  0  0  0  0  0  0  0  0
  -29.2931  -19.8472   19.3757 C   0  0  0  0  0  0  0  0  0  0  0  0
  -28.2614  -20.0269   18.4543 C   0  0  0  0  0  0  0  0  0  0  0  0
  -29.5718  -22.2421   19.5307 C   0  0  0  0  0  0  0  0  0  0  0  0
  -22.5138   -8.3240   21.4778 C   0  0  0  0  0  0  0  0  0  0  0  0
  -26.8419  -26.6759   20.0110 C   0  0  0  0  0  0  0  0  0  0  0  0
  -21.6551   -6.1875   21.9475 C   0  0  0  0  0  0  0  0  0  0  0  0
  -27.8849  -21.3142   18.0711 C   0  0  0  0  0  0  0  0  0  0  0  0
  -21.9524   -3.7067   23.1884 C   0  0  0  0  0  0  0  0  0  0  0  0
  -20.7279   -5.7697   22.9021 C   0  0  0  0  0  0  0  0  0  0  0  0
  -25.6383  -11.1392   21.9352 C   0  0  0  0  0  0  0  0  0  0  0  0
  -27.5606  -12.1192   22.3587 C   0  0  0  0  0  0  0  0  0  0  0  0
  -31.3006  -23.3495   21.0186 C   0  0  0  0  0  0  0  0  0  0  0  0
  -27.5489   -9.6627   22.8209 C   0  0  0  0  0  0  0  0  0  0  0  0
  -22.4215  -28.5588   22.5368 C   0  0  0  0  0  0  0  0  0  0  0  0
  -21.6881  -25.4964   23.3152 C   0  0  0  0  0  0  0  0  0  0  0  0
  -22.5336  -22.1925   23.1872 C   0  0  0  0  0  0  0  0  0  0  0  0
  -26.7784  -16.8830   19.1491 C   0  0  0  0  0  0  0  0  0  0  0  0
  -19.0840  -32.1228   24.0256 C   0  0  0  0  0  0  0  0  0  0  0  0
  -22.6109  -27.4117   20.2997 C   0  0  0  0  0  0  0  0  0  0  0  0
  -24.0129  -25.9089   22.4260 C   0  0  0  0  0  0  0  0  0  0  0  0
  -31.7051  -24.7783   21.2945 C   0  0  0  0  0  0  0  0  0  0  0  0
  -19.5709  -30.7850   24.5764 C   0  0  0  0  0  0  0  0  0  0  0  0
  -31.1395  -25.5403   20.1111 C   0  0  0  0  0  0  0  0  0  0  0  0
  -26.6354  -16.7940   22.6766 C   0  0  0  0  0  0  0  0  0  0  0  0
  -21.0951  -30.7268   24.5672 C   0  0  0  0  0  0  0  0  0  0  0  0
  -26.4806  -15.2961   22.9355 C   0  0  0  0  0  0  0  0  0  0  0  0
  -25.8181  -17.2558   21.4686 C   0  0  0  0  0  0  0  0  0  0  0  0
  -25.9304  -14.9843   20.4938 C   0  0  0  0  0  0  0  0  0  0  0  0
  -21.6432  -30.8438   23.1398 C   0  0  1  0  0  0  0  0  0  0  0  0
  -22.0709  -27.3441   21.7249 C   0  0  1  0  0  0  0  0  0  0  0  0
  -26.7886  -14.4836   21.6658 C   0  0  2  0  0  0  0  0  0  0  0  0
  -29.8885  -24.7527   19.7380 C   0  0  2  0  0  0  0  0  0  0  0  0
  -29.7147  -18.4792   19.8022 C   0  0  0  0  0  0  0  0  0  0  0  0
  -21.7582  -19.9299   23.9464 C   0  0  0  0  0  0  0  0  0  0  0  0
  -22.6603  -26.1138   26.1408 C   0  0  0  0  0  0  0  0  0  0  0  0
  -22.7616  -23.6493   26.5695 C   0  0  0  0  0  0  0  0  0  0  0  0
  -20.5791  -24.7313   26.0324 C   0  0  0  0  0  0  0  0  0  0  0  0
  -25.4386  -19.0299   19.1229 C   0  0  0  0  0  0  0  0  0  0  0  0
  -22.2723  -21.2202   20.4042 C   0  0  0  0  0  0  0  0  0  0  0  0
  -26.5616  -22.8589   16.8387 C   0  0  0  0  0  0  0  0  0  0  0  0
  -27.5569  -18.8432   17.8724 C   0  0  0  0  0  0  0  0  0  0  0  0
  -28.6726  -25.2475   20.5247 C   0  0  0  0  0  0  0  0  0  1  0  0
  -22.3025  -24.4431   24.2052 C   0  0  1  0  0  0  0  0  0  0  0  0
  -21.7252  -20.9591   22.8273 C   0  0  2  0  0  0  0  0  0  0  0  0
  -22.0904  -24.7459   25.7154 C   0  0  0  0  0  0  0  0  0  0  0  0
  -25.4345  -12.4228   21.6272 N   0  0  0  0  0  0  0  0  0  0  0  0
  -26.6215  -12.9931   21.8955 N   0  0  0  0  0  0  0  0  0  0  0  0
  -30.2449  -23.3791   20.0827 N   0  0  0  0  0  0  0  0  0  0  0  0
  -22.5662  -26.1800   22.4624 N   0  0  0  0  0  0  0  0  0  0  0  0
  -26.1071  -16.4245   20.2921 N   0  0  0  0  0  0  0  0  0  0  0  0
  -28.8081  -12.5254   22.6769 N   0  0  0  0  0  0  0  0  0  0  0  0
  -26.7744   -8.4947   22.7969 N   0  0  0  0  0  0  0  0  0  0  0  0
  -21.5017  -29.5854   22.4393 N   0  0  0  0  0  0  0  0  0  0  0  0
  -21.7488  -23.1660   23.7683 N   0  0  0  0  0  0  0  0  0  0  0  0
  -26.6277  -18.2375   18.8158 N   0  0  0  0  0  0  0  0  0  0  0  0
  -22.2672  -20.3270   21.5913 N   0  3  0  0  0  0  0  0  0  0  0  0
  -31.8328  -22.4028   21.5800 O   0  0  0  0  0  0  0  0  0  0  0  0
  -28.7348   -9.6047   23.2256 O   0  0  0  0  0  0  0  0  0  0  0  0
  -23.4497  -28.5638   23.2034 O   0  0  0  0  0  0  0  0  0  0  0  0
  -20.4727  -25.7000   23.3695 O   0  0  0  0  0  0  0  0  0  0  0  0
  -23.7413  -22.2820   22.9776 O   0  0  0  0  0  0  0  0  0  0  0  0
  -27.4688  -16.1227   18.4581 O   0  0  0  0  0  0  0  0  0  0  0  0
  -21.5085   -7.4183   21.3300 O   0  0  0  0  0  0  0  0  0  0  0  0
  -26.8795  -21.5093   17.1723 O   0  0  0  0  0  0  0  0  0  0  0  0
  -28.1786  -26.4396   19.9155 O   0  0  0  0  0  0  0  0  0  1  0  0
  -22.0944   -2.5150   23.7831 F   0  0  0  0  0  0  0  0  0  0  0  0
  -19.6916   -6.5550   23.2264 F   0  0  0  0  0  0  0  0  0  0  0  0
  1  2  1  0  0  0  0
  1  5  2  0  0  0  0
  2  6  2  0  0  0  0
  3  8  2  0  0  0  0
  3 17  1  0  0  0  0
  4  9  1  0  0  0  0
  4 17  2  0  0  0  0
  5 19  1  0  0  0  0
  6 21  1  0  0  0  0
  7 10  2  0  0  0  0
  7 20  1  0  0  0  0
  8 26  1  0  0  0  0
  9 26  2  0  0  0  0
 10 27  1  0  0  0  0
 11 12  2  0  0  0  0
 11 28  1  0  0  0  0
 12 30  1  0  0  0  0
 13 22  1  0  0  0  0
 13 27  2  0  0  0  0
 14 23  2  0  0  0  0
 14 25  1  0  0  0  0
 15 25  2  0  0  0  0
 15 29  1  0  0  0  0
 16 30  2  0  0  0  0
 16 31  1  0  0  0  0
 17 32  1  0  0  0  0
 18 32  1  0  0  0  0
 18 33  2  0  0  0  0
 18 35  1  0  0  0  0
 19 21  2  0  0  0  0
 19 40  1  0  0  0  0
 20 22  2  0  0  0  0
 20 41  1  0  0  0  0
 21 51  1  0  0  0  0
 22 42  1  0  0  0  0
 23 24  1  0  0  0  0
 23 55  1  0  0  0  0
 24 29  2  0  0  0  0
 24 63  1  0  0  0  0
 25 70  1  0  0  0  0
 26 85  1  0  0  0  0
 27 87  1  0  0  0  0
 28 31  2  0  0  0  0
 28 85  1  0  0  0  0
 29 86  1  0  0  0  0
 30 88  1  0  0  0  0
 31 89  1  0  0  0  0
 32 68  2  0  0  0  0
 33 69  1  0  0  0  0
 33 73  1  0  0  0  0
 34 43  1  0  0  0  0
 34 70  1  0  0  0  0
 34 79  2  0  0  0  0
 35 74  1  0  0  0  0
 35 80  2  0  0  0  0
 36 52  1  0  0  0  0
 36 75  1  0  0  0  0
 36 81  2  0  0  0  0
 37 65  1  0  0  0  0
 37 71  1  0  0  0  0
 37 82  2  0  0  0  0
 38 66  1  0  0  0  0
 38 76  1  0  0  0  0
 38 83  2  0  0  0  0
 39 72  1  0  0  0  0
 39 77  1  0  0  0  0
 39 84  2  0  0  0  0
 40 44  1  0  0  0  0
 41 52  1  0  0  0  0
 42 71  1  0  0  0  0
 43 45  1  0  0  0  0
 44 47  1  0  0  0  0
 45 54  1  0  0  0  0
 46 48  1  0  0  0  0
 46 49  1  0  0  0  0
 47 51  1  0  0  0  0
 48 53  1  0  0  0  0
 49 72  1  0  0  0  0
 50 53  1  0  0  0  0
 50 72  1  0  0  0  0
 51 75  1  0  0  0  0
 52 71  1  0  0  0  0
 53 69  1  0  0  0  0
 54 64  1  0  0  0  0
 54 70  1  0  0  0  0
 56 66  1  0  0  0  0
 57 67  1  0  0  0  0
 58 67  1  0  0  0  0
 59 67  1  0  0  0  0
 60 77  1  0  0  0  0
 61 78  1  0  0  0  0
 62 86  1  0  0  0  0
 63 77  1  0  0  0  0
 64 87  1  0  0  0  0
 65 67  1  0  0  0  0
 65 76  1  0  0  0  0
 66 78  1  0  0  0  0
 68 69  1  0  0  0  0
M  CHG  1  78   1
M  ISO  4  39 100  64 101  77 100  87 101
M  END
> <Batch ID>
0103

> <Smiles>
CNC(C)C(=O)NC(C(=O)N1Cc2cc([101O:1][101CH2:1]C3CCC(=O)N3c3cc(C)c(C[100N:0](C)[100C:0](=O)N4CCCC(n5nc(-c6ccc(Oc7ccc(F)cc7F)cc6)c(C(N)=O)c5N)C4)c(OC)c3)ccc2CC1C(=O)NC1CCCc2ccccc21)C(C)(C)C

> <Shape>
0.213

> <Color>
0.093

> <Negative vol penalty>
0.000

$$$$

  -OEChem-04052301053D

 85 94  0     1  0  0  0  0  0999 V2000
  -34.3641  -11.6145   18.6993 C   0  0  0  0  0  0  0  0  0  0  0  0
  -33.7751  -12.8476   18.4385 C   0  0  0  0  0  0  0  0  0  0  0  0
  -24.7841  -28.8613   22.1754 C   0  0  0  0  0  0  0  0  0  0  0  0
  -24.5336  -30.4817   20.4010 C   0  0  0  0  0  0  0  0  0  0  0  0
  -33.6015  -10.4496   18.6261 C   0  0  0  0  0  0  0  0  0  0  0  0
  -32.4233  -12.9163   18.1033 C   0  0  0  0  0  0  0  0  0  0  0  0
  -28.4840  -17.3647   19.5868 C   0  0  0  0  0  0  0  0  0  0  0  0
  -26.6355  -22.3114   20.2002 C   0  0  0  0  0  0  0  0  0  0  0  0
  -27.0767  -22.6153   17.8444 C   0  0  0  0  0  0  0  0  0  0  0  0
  -27.9261  -22.7484   20.4983 C   0  0  0  0  0  0  0  0  0  0  0  0
  -28.3673  -23.0524   18.1424 C   0  0  0  0  0  0  0  0  0  0  0  0
  -24.3788  -29.8178   23.1062 C   0  0  0  0  0  0  0  0  0  0  0  0
  -24.1283  -31.4383   21.3317 C   0  0  0  0  0  0  0  0  0  0  0  0
  -28.0064  -18.4683   18.8814 C   0  0  0  0  0  0  0  0  0  0  0  0
  -21.4757  -31.1929   24.1617 C   0  0  0  0  0  0  0  0  0  0  0  0
  -20.5456  -30.8055   25.1262 C   0  0  0  0  0  0  0  0  0  0  0  0
  -26.0552  -17.2046   18.2373 C   0  0  0  0  0  0  0  0  0  0  0  0
  -22.1299  -31.3421   26.8696 C   0  0  0  0  0  0  0  0  0  0  0  0
  -24.8616  -29.1932   20.8228 C   0  0  0  0  0  0  0  0  0  0  0  0
  -24.4609  -27.3056   19.1543 C   0  0  0  0  0  0  0  0  0  0  0  0
  -32.2374  -10.5050   18.2993 C   0  0  0  0  0  0  0  0  0  0  0  0
  -27.7549  -16.1672   19.6138 C   0  0  0  0  0  0  0  0  0  0  0  0
  -31.6420  -11.7509   18.0244 C   0  0  0  0  0  0  0  0  0  0  0  0
  -26.5245  -16.0880   18.9459 C   0  0  0  0  0  0  0  0  0  0  0  0
  -26.2108  -22.2448   18.8732 C   0  0  0  0  0  0  0  0  0  0  0  0
  -28.7921  -23.1189   19.4694 C   0  0  0  0  0  0  0  0  0  0  0  0
  -24.0509  -31.1063   22.6844 C   0  0  0  0  0  0  0  0  0  0  0  0
  -26.7932  -18.3875   18.2041 C   0  0  0  0  0  0  0  0  0  0  0  0
  -22.7330  -31.6549   24.5511 C   0  0  0  0  0  0  0  0  0  0  0  0
  -20.8727  -30.8801   26.4802 C   0  0  0  0  0  0  0  0  0  0  0  0
  -23.0601  -31.7295   25.9050 C   0  0  0  0  0  0  0  0  0  0  0  0
  -25.2808  -28.2057   19.8609 C   0  0  0  0  0  0  0  0  0  0  0  0
  -25.3330  -26.5869   18.3737 C   0  0  0  0  0  0  0  0  0  0  0  0
  -23.7452  -21.9461   19.3840 C   0  0  0  0  0  0  0  0  0  0  0  0
  -23.0381  -27.1344   19.1995 C   0  0  0  0  0  0  0  0  0  0  0  0
  -28.2950  -13.1896   18.6411 C   0  0  0  0  0  0  0  0  0  0  0  0
  -25.4716  -12.6063   20.1279 C   0  0  0  0  0  0  0  0  0  0  0  0
  -22.4855  -13.8162   21.2532 C   0  0  0  0  0  0  0  0  0  0  0  0
  -30.8318  -24.4952   18.9829 C   0  0  0  0  0  0  0  0  0  0  0  0
  -31.4650   -9.2145   18.1862 C   0  0  0  0  0  0  0  0  0  0  0  0
  -28.2709  -14.9943   20.4014 C   0  0  0  0  0  0  0  0  0  0  0  0
  -25.6936  -14.8319   18.9606 C   0  0  0  0  0  0  0  0  0  0  0  0
  -22.5740  -21.3406   18.6471 C   0  0  0  0  0  0  0  0  0  0  0  0
  -29.9509   -9.4085   18.1909 C   0  0  0  0  0  0  0  0  0  0  0  0
  -23.0507  -21.2891   17.2079 C   0  0  0  0  0  0  0  0  0  0  0  0
  -29.9246  -27.2598   16.6967 C   0  0  0  0  0  0  0  0  0  0  0  0
  -29.5542  -10.5359   17.2431 C   0  0  0  0  0  0  0  0  0  0  0  0
  -28.5980  -27.7536   17.2710 C   0  0  0  0  0  0  0  0  0  0  0  0
  -30.8181  -26.6540   17.7748 C   0  0  0  0  0  0  0  0  0  0  0  0
  -28.8289  -26.0538   19.1255 C   0  0  0  0  0  0  0  0  0  0  0  0
  -30.1727  -11.8688   17.6818 C   0  0  1  0  0  0  0  0  0  0  0  0
  -27.6941  -13.6611   19.9351 C   0  0  1  0  0  0  0  0  0  0  0  0
  -27.8942  -26.6318   18.0523 C   0  0  1  0  0  0  0  0  0  0  0  0
  -24.5569  -21.0883   17.3325 C   0  0  2  0  0  0  0  0  0  0  0  0
  -20.3703  -13.0922   22.3928 C   0  0  0  0  0  0  0  0  0  0  0  0
  -24.5064  -11.3388   17.5257 C   0  0  0  0  0  0  0  0  0  0  0  0
  -22.1642  -11.5057   18.3945 C   0  0  0  0  0  0  0  0  0  0  0  0
  -23.8417  -10.1044   19.5967 C   0  0  0  0  0  0  0  0  0  0  0  0
  -30.8736  -22.8496   20.8055 C   0  0  0  0  0  0  0  0  0  0  0  0
  -22.9620  -15.6288   23.5437 C   0  0  0  0  0  0  0  0  0  0  0  0
  -24.9086  -19.6009   17.4093 C   0  0  0  0  0  0  0  0  0  1  0  0
  -24.0206  -12.6237   19.7118 C   0  0  1  0  0  0  0  0  0  0  0  0
  -21.7701  -13.6555   22.5824 C   0  0  2  0  0  0  0  0  0  0  0  0
  -23.6496  -11.4163   18.8051 C   0  0  0  0  0  0  0  0  0  0  0  0
  -26.5744  -28.0729   19.5563 N   0  0  0  0  0  0  0  0  0  0  0  0
  -26.5740  -27.0808   18.6497 N   0  0  0  0  0  0  0  0  0  0  0  0
  -24.8859  -21.7957   18.5670 N   0  0  0  0  0  0  0  0  0  0  0  0
  -26.2438  -13.7102   19.7395 N   0  0  0  0  0  0  0  0  0  0  0  0
  -30.1156  -25.6299   18.5497 N   0  0  0  0  0  0  0  0  0  0  0  0
  -25.1518  -25.5869   17.4852 N   0  0  0  0  0  0  0  0  0  0  0  0
  -22.2931  -27.9562   20.0562 N   0  0  0  0  0  0  0  0  0  0  0  0
  -29.4358  -12.4255   18.7961 N   0  0  0  0  0  0  0  0  0  0  0  0
  -23.2436  -12.7068   20.9438 N   0  0  0  0  0  0  0  0  0  0  0  0
  -30.1269  -23.5709   19.7773 N   0  0  0  0  0  0  0  0  0  0  0  0
  -21.6576  -14.9715   23.2726 N   0  3  0  0  0  0  0  0  0  0  0  0
  -23.6313  -22.4299   20.5010 O   0  0  0  0  0  0  0  0  0  0  0  0
  -22.4467  -26.2669   18.5130 O   0  0  0  0  0  0  0  0  0  0  0  0
  -27.7621  -13.4952   17.5808 O   0  0  0  0  0  0  0  0  0  0  0  0
  -25.9023  -11.6518   20.7800 O   0  0  0  0  0  0  0  0  0  0  0  0
  -22.3794  -14.8236   20.5571 O   0  0  0  0  0  0  0  0  0  0  0  0
  -32.0325  -24.3422   18.7271 O   0  0  0  0  0  0  0  0  0  0  0  0
  -23.6551  -32.0399   23.5923 O   0  0  0  0  0  0  0  0  0  0  0  0
  -26.3250  -19.4630   17.5142 O   0  0  0  0  0  0  0  0  0  1  0  0
  -19.9788  -30.5095   27.4064 F   0  0  0  0  0  0  0  0  0  0  0  0
  -24.2659  -32.1736   26.2852 F   0  0  0  0  0  0  0  0  0  0  0  0
  1  2  1  0  0  0  0
  1  5  2  0  0  0  0
  2  6  2  0  0  0  0
  3 12  2  0  0  0  0
  3 19  1  0  0  0  0
  4 13  1  0  0  0  0
  4 19  2  0  0  0  0
  5 21  1  0  0  0  0
  6 23  1  0  0  0  0
  7 14  2  0  0  0  0
  7 22  1  0  0  0  0
  8 10  2  0  0  0  0
  8 25  1  0  0  0  0
  9 11  1  0  0  0  0
  9 25  2  0  0  0  0
 10 26  1  0  0  0  0
 11 26  2  0  0  0  0
 12 27  1  0  0  0  0
 13 27  2  0  0  0  0
 14 28  1  0  0  0  0
 15 16  2  0  0  0  0
 15 29  1  0  0  0  0
 16 30  1  0  0  0  0
 17 24  1  0  0  0  0
 17 28  2  0  0  0  0
 18 30  2  0  0  0  0
 18 31  1  0  0  0  0
 19 32  1  0  0  0  0
 20 32  1  0  0  0  0
 20 33  2  0  0  0  0
 20 35  1  0  0  0  0
 21 23  2  0  0  0  0
 21 40  1  0  0  0  0
 22 24  2  0  0  0  0
 22 41  1  0  0  0  0
 23 51  1  0  0  0  0
 24 42  1  0  0  0  0
 25 67  1  0  0  0  0
 26 74  1  0  0  0  0
 27 82  1  0  0  0  0
 28 83  1  0  0  0  0
 29 31  2  0  0  0  0
 29 82  1  0  0  0  0
 30 84  1  0  0  0  0
 31 85  1  0  0  0  0
 32 65  2  0  0  0  0
 33 66  1  0  0  0  0
 33 70  1  0  0  0  0
 34 43  1  0  0  0  0
 34 67  1  0  0  0  0
 34 76  2  0  0  0  0
 35 71  1  0  0  0  0
 35 77  2  0  0  0  0
 36 52  1  0  0  0  0
 36 72  1  0  0  0  0
 36 78  2  0  0  0  0
 37 62  1  0  0  0  0
 37 68  1  0  0  0  0
 37 79  2  0  0  0  0
 38 63  1  0  0  0  0
 38 73  1  0  0  0  0
 38 80  2  0  0  0  0
 39 69  1  0  0  0  0
 39 74  1  0  0  0  0
 39 81  2  0  0  0  0
 40 44  1  0  0  0  0
 41 52  1  0  0  0  0
 42 68  1  0  0  0  0
 43 45  1  0  0  0  0
 44 47  1  0  0  0  0
 45 54  1  0  0  0  0
 46 48  1  0  0  0  0
 46 49  1  0  0  0  0
 47 51  1  0  0  0  0
 48 53  1  0  0  0  0
 49 69  1  0  0  0  0
 50 53  1  0  0  0  0
 50 69  1  0  0  0  0
 51 72  1  0  0  0  0
 52 68  1  0  0  0  0
 53 66  1  0  0  0  0
 54 61  1  0  0  0  0
 54 67  1  0  0  0  0
 55 63  1  0  0  0  0
 56 64  1  0  0  0  0
 57 64  1  0  0  0  0
 58 64  1  0  0  0  0
 59 74  1  0  0  0  0
 60 75  1  0  0  0  0
 61 83  1  0  0  0  0
 62 64  1  0  0  0  0
 62 73  1  0  0  0  0
 63 75  1  0  0  0  0
 65 66  1  0  0  0  0
M  CHG  1  75   1
M  ISO  4  39 100  61 101  74 100  83 101
M  END
> <Batch ID>
0103

> <Smiles>
CNC(C)C(=O)NC(C(=O)N1Cc2cc([101O:1][101CH2:1]C3CCC(=O)N3c3ccc([100N:0](C)[100C:0](=O)N4CCCC(n5nc(-c6ccc(Oc7ccc(F)cc7F)cc6)c(C(N)=O)c5N)C4)cc3)ccc2CC1C(=O)NC1CCCc2ccccc21)C(C)(C)C

> <Shape>
0.222

> <Color>
0.071

> <Negative vol penalty>
0.000

$$$$

  -OEChem-04052301053D

 88 97  0     1  0  0  0  0  0999 V2000
  -32.0866  -12.8950   17.6467 C   0  0  0  0  0  0  0  0  0  0  0  0
  -31.4587  -14.0468   17.1834 C   0  0  0  0  0  0  0  0  0  0  0  0
  -25.0434  -31.7675   24.3102 C   0  0  0  0  0  0  0  0  0  0  0  0
  -24.9680  -31.3201   21.9372 C   0  0  0  0  0  0  0  0  0  0  0  0
  -31.4663  -12.1053   18.6139 C   0  0  0  0  0  0  0  0  0  0  0  0
  -30.2095  -14.4088   17.6861 C   0  0  0  0  0  0  0  0  0  0  0  0
  -29.2147  -20.7685   20.9198 C   0  0  0  0  0  0  0  0  0  0  0  0
  -23.4904  -25.7440   20.7401 C   0  0  0  0  0  0  0  0  0  0  0  0
  -22.1512  -25.7576   20.3502 C   0  0  0  0  0  0  0  0  0  0  0  0
  -25.6451  -33.0005   24.0587 C   0  0  0  0  0  0  0  0  0  0  0  0
  -25.5697  -32.5531   21.6856 C   0  0  0  0  0  0  0  0  0  0  0  0
  -28.8941  -22.0519   21.3628 C   0  0  0  0  0  0  0  0  0  0  0  0
  -28.7262  -34.1570   23.2881 C   0  0  0  0  0  0  0  0  0  0  0  0
  -29.8210  -34.5155   24.0745 C   0  0  0  0  0  0  0  0  0  0  0  0
  -26.6200  -21.3483   21.7887 C   0  0  0  0  0  0  0  0  0  0  0  0
  -23.8907  -27.7375   19.4352 C   0  0  0  0  0  0  0  0  0  0  0  0
  -28.6266  -36.4682   24.8472 C   0  0  0  0  0  0  0  0  0  0  0  0
  -24.7049  -30.9272   23.2495 C   0  0  0  0  0  0  0  0  0  0  0  0
  -24.6113  -28.5883   24.2634 C   0  0  0  0  0  0  0  0  0  0  0  0
  -30.2132  -12.4630   19.1358 C   0  0  0  0  0  0  0  0  0  0  0  0
  -28.2420  -19.7649   20.9240 C   0  0  0  0  0  0  0  0  0  0  0  0
  -29.5712  -13.6224   18.6602 C   0  0  0  0  0  0  0  0  0  0  0  0
  -26.9386  -20.0577   21.3578 C   0  0  0  0  0  0  0  0  0  0  0  0
  -22.5515  -27.7511   19.0453 C   0  0  0  0  0  0  0  0  0  0  0  0
  -24.3601  -26.7340   20.2827 C   0  0  0  0  0  0  0  0  0  0  0  0
  -21.6818  -26.7611   19.5028 C   0  0  0  0  0  0  0  0  0  0  0  0
  -25.9082  -33.3933   22.7464 C   0  0  0  0  0  0  0  0  0  0  0  0
  -27.5999  -22.3411   21.7959 C   0  0  0  0  0  0  0  0  0  0  0  0
  -27.5816  -34.9542   23.2812 C   0  0  0  0  0  0  0  0  0  0  0  0
  -29.7712  -35.6711   24.8540 C   0  0  0  0  0  0  0  0  0  0  0  0
  -27.5317  -36.1098   24.0608 C   0  0  0  0  0  0  0  0  0  0  0  0
  -24.0839  -29.6532   23.5087 C   0  0  0  0  0  0  0  0  0  0  0  0
  -23.6433  -27.6155   24.2077 C   0  0  0  0  0  0  0  0  0  0  0  0
  -26.7042  -27.2563   19.7903 C   0  0  0  0  0  0  0  0  0  0  0  0
  -26.0550  -26.1796   21.9648 C   0  0  0  0  0  0  0  0  0  0  0  0
  -25.8642  -28.4874   24.9532 C   0  0  0  0  0  0  0  0  0  0  0  0
  -27.4020  -16.1778   20.2150 C   0  0  0  0  0  0  0  0  0  0  0  0
  -25.9912  -16.9222   22.8353 C   0  0  0  0  0  0  0  0  0  0  0  0
  -24.5331  -16.9325   25.9193 C   0  0  0  0  0  0  0  0  0  0  0  0
  -19.2319  -26.8479   20.0334 C   0  0  0  0  0  0  0  0  0  0  0  0
  -29.5606  -11.5525   20.1456 C   0  0  0  0  0  0  0  0  0  0  0  0
  -28.5264  -18.3844   20.3978 C   0  0  0  0  0  0  0  0  0  0  0  0
  -25.9156  -18.9557   21.3123 C   0  0  0  0  0  0  0  0  0  0  0  0
  -28.1270  -27.3960   20.2920 C   0  0  0  0  0  0  0  0  0  0  0  0
  -28.4058  -12.2072   20.8993 C   0  0  0  0  0  0  0  0  0  0  0  0
  -28.2797  -27.2189   21.7838 C   0  0  0  0  0  0  0  0  0  0  0  0
  -18.9264  -27.0170   23.7173 C   0  0  0  0  0  0  0  0  0  0  0  0
  -27.4820  -12.9382   19.9303 C   0  0  0  0  0  0  0  0  0  0  0  0
  -20.2273  -27.7003   24.1347 C   0  0  0  0  0  0  0  0  0  0  0  0
  -18.4887  -27.4387   22.3179 C   0  0  0  0  0  0  0  0  0  0  0  0
  -20.8408  -27.9058   21.6928 C   0  0  0  0  0  0  0  0  0  0  0  0
  -28.2271  -14.0616   19.1992 C   0  0  1  0  0  0  0  0  0  0  0  0
  -27.5291  -25.9878   22.2576 C   0  0  2  0  0  0  0  0  0  0  0  0
  -27.7743  -17.2803   21.1623 C   0  0  1  0  0  0  0  0  0  0  0  0
  -21.3243  -27.4665   23.0830 C   0  0  1  0  0  0  0  0  0  0  0  0
  -22.0752  -28.8391   18.1385 C   0  0  0  0  0  0  0  0  0  0  0  0
  -22.7324  -15.8000   27.2506 C   0  0  0  0  0  0  0  0  0  0  0  0
  -23.8750  -18.5078   21.3149 C   0  0  0  0  0  0  0  0  0  0  0  0
  -22.3046  -18.1055   23.2228 C   0  0  0  0  0  0  0  0  0  0  0  0
  -23.1992  -16.1768   21.9181 C   0  0  0  0  0  0  0  0  0  0  0  0
  -19.9695  -26.3887   17.7364 C   0  0  0  0  0  0  0  0  0  0  0  0
  -26.4737  -15.9498   27.9262 C   0  0  0  0  0  0  0  0  0  0  0  0
  -28.0248  -24.6771   21.6548 C   0  0  0  0  0  0  0  0  0  1  0  0
  -24.7318  -17.4234   23.4957 C   0  0  1  0  0  0  0  0  0  0  0  0
  -24.2083  -15.8062   26.8840 C   0  0  2  0  0  0  0  0  0  0  0  0
  -23.5528  -17.5660   22.4922 C   0  0  0  0  0  0  0  0  0  0  0  0
  -22.8747  -29.3826   23.0100 N   0  0  0  0  0  0  0  0  0  0  0  0
  -22.6344  -28.1364   23.4522 N   0  0  0  0  0  0  0  0  0  0  0  0
  -25.7512  -26.7212   20.6903 N   0  0  0  0  0  0  0  0  0  0  0  0
  -26.5101  -17.6983   21.7918 N   0  0  0  0  0  0  0  0  0  0  0  0
  -19.5629  -27.2669   21.3385 N   0  0  0  0  0  0  0  0  0  0  0  0
  -23.5653  -26.3738   24.7317 N   0  0  0  0  0  0  0  0  0  0  0  0
  -26.7414  -29.5795   24.9082 N   0  0  0  0  0  0  0  0  0  0  0  0
  -28.3793  -15.2127   20.0630 N   0  0  0  0  0  0  0  0  0  0  0  0
  -24.4646  -16.5162   24.6066 N   0  0  0  0  0  0  0  0  0  0  0  0
  -20.2931  -26.7584   19.1125 N   0  0  0  0  0  0  0  0  0  0  0  0
  -25.0031  -15.9515   28.1363 N   0  3  0  0  0  0  0  0  0  0  0  0
  -26.4810  -27.5409   18.6088 O   0  0  0  0  0  0  0  0  0  0  0  0
  -25.2321  -25.8815   22.8342 O   0  0  0  0  0  0  0  0  0  0  0  0
  -26.2030  -27.4531   25.5769 O   0  0  0  0  0  0  0  0  0  0  0  0
  -26.3081  -16.1991   19.6631 O   0  0  0  0  0  0  0  0  0  0  0  0
  -26.4999  -15.8685   23.2281 O   0  0  0  0  0  0  0  0  0  0  0  0
  -24.8155  -18.0688   26.2929 O   0  0  0  0  0  0  0  0  0  0  0  0
  -18.0634  -26.6225   19.6952 O   0  0  0  0  0  0  0  0  0  0  0  0
  -26.4951  -34.5965   22.5005 O   0  0  0  0  0  0  0  0  0  0  0  0
  -27.2949  -23.5949   22.2313 O   0  0  0  0  0  0  0  0  0  1  0  0
  -30.8221  -36.0144   25.6104 F   0  0  0  0  0  0  0  0  0  0  0  0
  -26.4344  -36.8790   24.0592 F   0  0  0  0  0  0  0  0  0  0  0  0
  1  2  1  0  0  0  0
  1  5  2  0  0  0  0
  2  6  2  0  0  0  0
  3 10  2  0  0  0  0
  3 18  1  0  0  0  0
  4 11  1  0  0  0  0
  4 18  2  0  0  0  0
  5 20  1  0  0  0  0
  6 22  1  0  0  0  0
  7 12  2  0  0  0  0
  7 21  1  0  0  0  0
  8  9  2  0  0  0  0
  8 25  1  0  0  0  0
  9 26  1  0  0  0  0
 10 27  1  0  0  0  0
 11 27  2  0  0  0  0
 12 28  1  0  0  0  0
 13 14  2  0  0  0  0
 13 29  1  0  0  0  0
 14 30  1  0  0  0  0
 15 23  1  0  0  0  0
 15 28  2  0  0  0  0
 16 24  1  0  0  0  0
 16 25  2  0  0  0  0
 17 30  2  0  0  0  0
 17 31  1  0  0  0  0
 18 32  1  0  0  0  0
 19 32  1  0  0  0  0
 19 33  2  0  0  0  0
 19 36  1  0  0  0  0
 20 22  2  0  0  0  0
 20 41  1  0  0  0  0
 21 23  2  0  0  0  0
 21 42  1  0  0  0  0
 22 52  1  0  0  0  0
 23 43  1  0  0  0  0
 24 26  2  0  0  0  0
 24 56  1  0  0  0  0
 25 69  1  0  0  0  0
 26 76  1  0  0  0  0
 27 85  1  0  0  0  0
 28 86  1  0  0  0  0
 29 31  2  0  0  0  0
 29 85  1  0  0  0  0
 30 87  1  0  0  0  0
 31 88  1  0  0  0  0
 32 67  2  0  0  0  0
 33 68  1  0  0  0  0
 33 72  1  0  0  0  0
 34 44  1  0  0  0  0
 34 69  1  0  0  0  0
 34 78  2  0  0  0  0
 35 53  1  0  0  0  0
 35 69  1  0  0  0  0
 35 79  2  0  0  0  0
 36 73  1  0  0  0  0
 36 80  2  0  0  0  0
 37 54  1  0  0  0  0
 37 74  1  0  0  0  0
 37 81  2  0  0  0  0
 38 64  1  0  0  0  0
 38 70  1  0  0  0  0
 38 82  2  0  0  0  0
 39 65  1  0  0  0  0
 39 75  1  0  0  0  0
 39 83  2  0  0  0  0
 40 71  1  0  0  0  0
 40 76  1  0  0  0  0
 40 84  2  0  0  0  0
 41 45  1  0  0  0  0
 42 54  1  0  0  0  0
 43 70  1  0  0  0  0
 44 46  1  0  0  0  0
 45 48  1  0  0  0  0
 46 53  1  0  0  0  0
 47 49  1  0  0  0  0
 47 50  1  0  0  0  0
 48 52  1  0  0  0  0
 49 55  1  0  0  0  0
 50 71  1  0  0  0  0
 51 55  1  0  0  0  0
 51 71  1  0  0  0  0
 52 74  1  0  0  0  0
 53 63  1  0  0  0  0
 54 70  1  0  0  0  0
 55 68  1  0  0  0  0
 57 65  1  0  0  0  0
 58 66  1  0  0  0  0
 59 66  1  0  0  0  0
 60 66  1  0  0  0  0
 61 76  1  0  0  0  0
 62 77  1  0  0  0  0
 63 86  1  0  0  0  0
 64 66  1  0  0  0  0
 64 75  1  0  0  0  0
 65 77  1  0  0  0  0
 67 68  1  0  0  0  0
M  CHG  1  77   1
M  ISO  4  40 100  63 101  76 100  86 101
M  END
> <Batch ID>
0103

> <Smiles>
CNC(C)C(=O)NC(C(=O)N1Cc2cc([101O:1][101CH2:1]C3CCC(=O)N(c4ccc([100N:0](C)[100C:0](=O)N5CCCC(n6nc(-c7ccc(Oc8ccc(F)cc8F)cc7)c(C(N)=O)c6N)C5)c(C)c4)C3=O)ccc2CC1C(=O)NC1CCCc2ccccc21)C(C)(C)C

> <Shape>
0.233

> <Color>
0.060

> <Negative vol penalty>
0.000

$$$$

  -OEChem-04052301053D

 86 94  0     1  0  0  0  0  0999 V2000
  -16.8836  -25.3664   24.2077 C   0  0  0  0  0  0  0  0  0  0  0  0
  -18.1670  -24.9351   24.5273 C   0  0  0  0  0  0  0  0  0  0  0  0
  -23.0495   -9.9209   20.2631 C   0  0  0  0  0  0  0  0  0  0  0  0
  -23.7784  -10.1838   22.5514 C   0  0  0  0  0  0  0  0  0  0  0  0
  -16.7076  -26.4955   23.4089 C   0  0  0  0  0  0  0  0  0  0  0  0
  -19.2753  -25.6320   24.0474 C   0  0  0  0  0  0  0  0  0  0  0  0
  -22.8052  -26.3558   27.6056 C   0  0  0  0  0  0  0  0  0  0  0  0
  -22.2810   -8.8177   20.6346 C   0  0  0  0  0  0  0  0  0  0  0  0
  -23.0099   -9.0807   22.9230 C   0  0  0  0  0  0  0  0  0  0  0  0
  -23.6285  -25.2741   27.9151 C   0  0  0  0  0  0  0  0  0  0  0  0
  -19.7597   -8.4135   23.5644 C   0  0  0  0  0  0  0  0  0  0  0  0
  -18.9864   -8.5239   24.7200 C   0  0  0  0  0  0  0  0  0  0  0  0
  -25.3661  -26.2069   26.5259 C   0  0  0  0  0  0  0  0  0  0  0  0
  -28.6498  -19.9584   22.2523 C   0  0  0  0  0  0  0  0  0  0  0  0
  -28.9760  -18.7091   24.2944 C   0  0  0  0  0  0  0  0  0  0  0  0
  -20.1816   -6.6655   25.6972 C   0  0  0  0  0  0  0  0  0  0  0  0
  -23.7982  -10.6040   21.2215 C   0  0  0  0  0  0  0  0  0  0  0  0
  -24.1885  -13.0915   20.8123 C   0  0  0  0  0  0  0  0  0  0  0  0
  -17.8142  -27.2123   22.9269 C   0  0  0  0  0  0  0  0  0  0  0  0
  -23.2530  -27.3674   26.7439 C   0  0  0  0  0  0  0  0  0  0  0  0
  -19.1140  -26.7710   23.2403 C   0  0  0  0  0  0  0  0  0  0  0  0
  -24.5475  -27.3017   26.2091 C   0  0  0  0  0  0  0  0  0  0  0  0
  -29.4559  -19.0492   21.5673 C   0  0  0  0  0  0  0  0  0  0  0  0
  -29.7820  -17.7999   23.6094 C   0  0  0  0  0  0  0  0  0  0  0  0
  -30.0220  -17.9699   22.2459 C   0  0  0  0  0  0  0  0  0  0  0  0
  -28.4099  -19.7884   23.6159 C   0  0  0  0  0  0  0  0  0  0  0  0
  -22.2612   -8.3976   21.9645 C   0  0  0  0  0  0  0  0  0  0  0  0
  -24.9081  -25.1980   27.3730 C   0  0  0  0  0  0  0  0  0  0  0  0
  -20.7439   -7.4291   23.4751 C   0  0  0  0  0  0  0  0  0  0  0  0
  -19.1974   -7.6499   25.7864 C   0  0  0  0  0  0  0  0  0  0  0  0
  -20.9548   -6.5551   24.5415 C   0  0  0  0  0  0  0  0  0  0  0  0
  -24.5927  -11.7433   20.8382 C   0  0  0  0  0  0  0  0  0  0  0  0
  -25.2992  -13.7747   20.3809 C   0  0  0  0  0  0  0  0  0  0  0  0
  -22.9223  -13.6742   21.1482 C   0  0  0  0  0  0  0  0  0  0  0  0
  -22.3144  -28.4876   23.9211 C   0  0  0  0  0  0  0  0  0  0  0  0
  -26.4050  -21.7396   26.1231 C   0  0  0  0  0  0  0  0  0  0  0  0
  -24.6093  -30.7116   24.4778 C   0  0  0  0  0  0  0  0  0  0  0  0
  -27.4997  -31.5523   26.0859 C   0  0  0  0  0  0  0  0  0  0  0  0
  -30.7979  -14.7161   20.5340 C   0  0  0  0  0  0  0  0  0  0  0  0
  -17.5747  -28.3992   22.0277 C   0  0  0  0  0  0  0  0  0  0  0  0
  -22.3625  -28.5412   26.4412 C   0  0  0  0  0  0  0  0  0  0  0  0
  -25.0832  -28.3720   25.2949 C   0  0  0  0  0  0  0  0  0  0  0  0
  -18.7972  -29.2996   21.8690 C   0  0  0  0  0  0  0  0  0  0  0  0
  -29.6484  -12.0878   18.4251 C   0  0  0  0  0  0  0  0  0  0  0  0
  -20.0431  -28.4642   21.5924 C   0  0  0  0  0  0  0  0  0  0  0  0
  -28.2001  -11.8712   18.8670 C   0  0  0  0  0  0  0  0  0  0  0  0
  -30.5532  -12.4324   19.6060 C   0  0  0  0  0  0  0  0  0  0  0  0
  -28.6469  -13.3529   20.8679 C   0  0  0  0  0  0  0  0  0  0  0  0
  -20.3410  -27.5148   22.7592 C   0  0  1  0  0  0  0  0  0  0  0  0
  -22.7331  -29.2536   25.1441 C   0  0  1  0  0  0  0  0  0  0  0  0
  -27.6856  -13.0580   19.7037 C   0  0  2  0  0  0  0  0  0  0  0  0
  -29.6976  -19.2543   20.1075 C   0  0  0  0  0  0  0  0  0  0  0  0
  -30.3764  -16.6527   24.3591 C   0  0  0  0  0  0  0  0  0  0  0  0
  -29.1550  -33.4247   26.3123 C   0  0  0  0  0  0  0  0  0  0  0  0
  -25.7856  -29.9977   21.7545 C   0  0  0  0  0  0  0  0  0  0  0  0
  -27.8947  -31.1606   22.4384 C   0  0  0  0  0  0  0  0  0  0  0  0
  -25.7623  -32.4444   22.2719 C   0  0  0  0  0  0  0  0  0  0  0  0
  -26.9652  -31.8293   28.9836 C   0  0  0  0  0  0  0  0  0  0  0  0
  -30.8870  -16.9954   21.5118 C   0  0  0  0  0  0  0  0  0  0  0  0
  -26.0153  -21.7560   27.5953 C   0  0  0  0  0  0  0  0  0  0  0  0
  -27.3061  -20.5958   25.7028 C   0  0  0  0  0  0  0  0  0  0  0  0
  -25.0754  -22.8974   27.9520 C   0  0  0  0  0  0  0  0  0  1  0  0
  -26.0858  -30.8211   24.1830 C   0  0  1  0  0  0  0  0  0  0  0  0
  -27.8914  -32.7903   26.8723 C   0  0  2  0  0  0  0  0  0  0  0  0
  -26.3716  -31.0847   22.6776 C   0  0  0  0  0  0  0  0  0  0  0  0
  -25.8611  -11.5777   20.4537 N   0  0  0  0  0  0  0  0  0  0  0  0
  -26.2635  -12.8309   20.1820 N   0  0  0  0  0  0  0  0  0  0  0  0
  -24.1722  -29.4964   25.0239 N   0  0  0  0  0  0  0  0  0  0  0  0
  -30.0100  -13.5668   20.3570 N   0  0  0  0  0  0  0  0  0  0  0  0
  -25.5352  -15.0847   20.1559 N   0  0  0  0  0  0  0  0  0  0  0  0
  -21.8892  -12.8281   21.5737 N   0  0  0  0  0  0  0  0  0  0  0  0
  -27.6078  -20.6923   24.2969 N   0  0  0  0  0  0  0  0  0  0  0  0
  -20.9576  -28.2354   23.8524 N   0  0  0  0  0  0  0  0  0  0  0  0
  -26.6058  -31.8486   25.0787 N   0  0  0  0  0  0  0  0  0  0  0  0
  -30.2048  -15.7472   21.2522 N   0  0  0  0  0  0  0  0  0  0  0  0
  -28.1340  -32.4413   28.3007 N   0  3  0  0  0  0  0  0  0  0  0  0
  -22.7082  -14.9069   21.0575 O   0  0  0  0  0  0  0  0  0  0  0  0
  -23.1596  -28.1516   23.0998 O   0  0  0  0  0  0  0  0  0  0  0  0
  -26.0163  -22.5971   25.3312 O   0  0  0  0  0  0  0  0  0  0  0  0
  -23.8721  -31.6714   24.2393 O   0  0  0  0  0  0  0  0  0  0  0  0
  -27.9452  -30.4348   26.3373 O   0  0  0  0  0  0  0  0  0  0  0  0
  -31.9429  -14.8180   20.0807 O   0  0  0  0  0  0  0  0  0  0  0  0
  -21.5113   -7.3213   22.3274 O   0  0  0  0  0  0  0  0  0  0  0  0
  -25.7135  -24.1429   27.6729 O   0  0  0  0  0  0  0  0  0  1  0  0
  -18.4558   -7.7570   26.8967 F   0  0  0  0  0  0  0  0  0  0  0  0
  -21.8997   -5.6081   24.4621 F   0  0  0  0  0  0  0  0  0  0  0  0
  1  2  1  0  0  0  0
  1  5  2  0  0  0  0
  2  6  2  0  0  0  0
  3  8  2  0  0  0  0
  3 17  1  0  0  0  0
  4  9  1  0  0  0  0
  4 17  2  0  0  0  0
  5 19  1  0  0  0  0
  6 21  1  0  0  0  0
  7 10  2  0  0  0  0
  7 20  1  0  0  0  0
  8 27  1  0  0  0  0
  9 27  2  0  0  0  0
 10 28  1  0  0  0  0
 11 12  2  0  0  0  0
 11 29  1  0  0  0  0
 12 30  1  0  0  0  0
 13 22  1  0  0  0  0
 13 28  2  0  0  0  0
 14 23  2  0  0  0  0
 14 26  1  0  0  0  0
 15 24  1  0  0  0  0
 15 26  2  0  0  0  0
 16 30  2  0  0  0  0
 16 31  1  0  0  0  0
 17 32  1  0  0  0  0
 18 32  1  0  0  0  0
 18 33  2  0  0  0  0
 18 34  1  0  0  0  0
 19 21  2  0  0  0  0
 19 40  1  0  0  0  0
 20 22  2  0  0  0  0
 20 41  1  0  0  0  0
 21 49  1  0  0  0  0
 22 42  1  0  0  0  0
 23 25  1  0  0  0  0
 23 52  1  0  0  0  0
 24 25  2  0  0  0  0
 24 53  1  0  0  0  0
 25 59  1  0  0  0  0
 26 72  1  0  0  0  0
 27 83  1  0  0  0  0
 28 84  1  0  0  0  0
 29 31  2  0  0  0  0
 29 83  1  0  0  0  0
 30 85  1  0  0  0  0
 31 86  1  0  0  0  0
 32 66  2  0  0  0  0
 33 67  1  0  0  0  0
 33 70  1  0  0  0  0
 34 71  1  0  0  0  0
 34 77  2  0  0  0  0
 35 50  1  0  0  0  0
 35 73  1  0  0  0  0
 35 78  2  0  0  0  0
 36 60  1  0  0  0  0
 36 61  1  0  0  0  0
 36 79  2  0  0  0  0
 37 63  1  0  0  0  0
 37 68  1  0  0  0  0
 37 80  2  0  0  0  0
 38 64  1  0  0  0  0
 38 74  1  0  0  0  0
 38 81  2  0  0  0  0
 39 69  1  0  0  0  0
 39 75  1  0  0  0  0
 39 82  2  0  0  0  0
 40 43  1  0  0  0  0
 41 50  1  0  0  0  0
 42 68  1  0  0  0  0
 43 45  1  0  0  0  0
 44 46  1  0  0  0  0
 44 47  1  0  0  0  0
 45 49  1  0  0  0  0
 46 51  1  0  0  0  0
 47 69  1  0  0  0  0
 48 51  1  0  0  0  0
 48 69  1  0  0  0  0
 49 73  1  0  0  0  0
 50 68  1  0  0  0  0
 51 67  1  0  0  0  0
 54 64  1  0  0  0  0
 55 65  1  0  0  0  0
 56 65  1  0  0  0  0
 57 65  1  0  0  0  0
 58 76  1  0  0  0  0
 59 75  1  0  0  0  0
 60 62  1  0  0  0  0
 61 72  1  0  0  0  0
 62 84  1  0  0  0  0
 63 65  1  0  0  0  0
 63 74  1  0  0  0  0
 64 76  1  0  0  0  0
 66 67  1  0  0  0  0
M  CHG  1  76   1
M  ISO  4  39 100  62 101  75 100  84 101
M  END
> <Batch ID>
0103

> <Smiles>
CNC(C)C(=O)NC(C(=O)N1Cc2cc([101O:1][101CH2:1]CC(=O)CNc3cc(C)c(C[100NH:0][100C:0](=O)N4CCCC(n5nc(-c6ccc(Oc7ccc(F)cc7F)cc6)c(C(N)=O)c5N)C4)c(C)c3)ccc2CC1C(=O)NC1CCCc2ccccc21)C(C)(C)C

> <Shape>
0.307

> <Color>
0.226

> <Negative vol penalty>
0.000

$$$$

  -OEChem-04052301053D

 91100  0     1  0  0  0  0  0999 V2000
  -19.4454  -29.2005   25.9477 C   0  0  0  0  0  0  0  0  0  0  0  0
  -20.8027  -29.1746   25.6434 C   0  0  0  0  0  0  0  0  0  0  0  0
  -24.4015   -9.7584   22.5274 C   0  0  0  0  0  0  0  0  0  0  0  0
  -24.6968   -9.1875   20.1984 C   0  0  0  0  0  0  0  0  0  0  0  0
  -18.5307  -28.5734   25.1027 C   0  0  0  0  0  0  0  0  0  0  0  0
  -21.2461  -28.5207   24.4945 C   0  0  0  0  0  0  0  0  0  0  0  0
  -25.9399  -30.1467   20.9126 C   0  0  0  0  0  0  0  0  0  0  0  0
  -31.3253  -22.3635   21.1012 C   0  0  0  0  0  0  0  0  0  0  0  0
  -30.8923  -21.0380   21.1358 C   0  0  0  0  0  0  0  0  0  0  0  0
  -24.0952   -8.4283   22.8146 C   0  0  0  0  0  0  0  0  0  0  0  0
  -24.3906   -7.8573   20.4857 C   0  0  0  0  0  0  0  0  0  0  0  0
  -27.2606  -29.7060   20.8394 C   0  0  0  0  0  0  0  0  0  0  0  0
  -21.4338   -6.3658   22.5194 C   0  0  0  0  0  0  0  0  0  0  0  0
  -20.3387   -6.1178   23.3469 C   0  0  0  0  0  0  0  0  0  0  0  0
  -29.0956  -23.0764   20.5036 C   0  0  0  0  0  0  0  0  0  0  0  0
  -26.6538  -28.2034   19.0524 C   0  0  0  0  0  0  0  0  0  0  0  0
  -21.7857   -5.0023   24.9277 C   0  0  0  0  0  0  0  0  0  0  0  0
  -24.7022  -10.1381   21.2192 C   0  0  0  0  0  0  0  0  0  0  0  0
  -28.6625  -21.7509   20.5381 C   0  0  0  0  0  0  0  0  0  0  0  0
  -24.1952  -12.6363   21.1233 C   0  0  0  0  0  0  0  0  0  0  0  0
  -18.9622  -27.9197   23.9378 C   0  0  0  0  0  0  0  0  0  0  0  0
  -24.9624  -29.6103   20.0622 C   0  0  0  0  0  0  0  0  0  0  0  0
  -20.3365  -27.8831   23.6338 C   0  0  0  0  0  0  0  0  0  0  0  0
  -25.3220  -28.6409   19.1151 C   0  0  0  0  0  0  0  0  0  0  0  0
  -30.4269  -23.3827   20.7852 C   0  0  0  0  0  0  0  0  0  0  0  0
  -29.5609  -20.7317   20.8542 C   0  0  0  0  0  0  0  0  0  0  0  0
  -24.0899   -7.4777   21.7938 C   0  0  0  0  0  0  0  0  0  0  0  0
  -27.6172  -28.7322   19.9112 C   0  0  0  0  0  0  0  0  0  0  0  0
  -22.7049   -5.9320   22.8960 C   0  0  0  0  0  0  0  0  0  0  0  0
  -20.5146   -5.4361   24.5510 C   0  0  0  0  0  0  0  0  0  0  0  0
  -22.8809   -5.2503   24.1002 C   0  0  0  0  0  0  0  0  0  0  0  0
  -25.0181  -11.5121   20.9218 C   0  0  0  0  0  0  0  0  0  0  0  0
  -24.9492  -13.6969   20.6839 C   0  0  0  0  0  0  0  0  0  0  0  0
  -31.6281  -27.3486   19.8167 C   0  0  0  0  0  0  0  0  0  0  0  0
  -30.0127  -25.8258   21.0556 C   0  0  0  0  0  0  0  0  0  0  0  0
  -26.6928  -21.7286   19.0769 C   0  0  0  0  0  0  0  0  0  0  0  0
  -27.2654  -21.4613   20.2408 C   0  0  0  0  0  0  0  0  0  0  0  0
  -22.8678  -12.7149   21.6597 C   0  0  0  0  0  0  0  0  0  0  0  0
  -22.2742  -27.9687   20.4889 C   0  0  0  0  0  0  0  0  0  0  0  0
  -29.8504  -16.3877   20.5186 C   0  0  0  0  0  0  0  0  0  0  0  0
  -21.9735  -28.3803   17.2853 C   0  0  0  0  0  0  0  0  0  0  0  0
  -29.6348  -18.4715   21.7073 C   0  0  0  0  0  0  0  0  0  0  0  0
  -23.4905  -28.9596   14.2837 C   0  0  0  0  0  0  0  0  0  0  0  0
  -17.9410  -27.2154   23.0800 C   0  0  0  0  0  0  0  0  0  0  0  0
  -23.5476  -30.1157   20.1355 C   0  0  0  0  0  0  0  0  0  0  0  0
  -24.3144  -28.0478   18.1656 C   0  0  0  0  0  0  0  0  0  0  0  0
  -32.4316  -26.1332   19.4309 C   0  0  0  0  0  0  0  0  0  0  0  0
  -18.4541  -26.8655   21.6855 C   0  0  0  0  0  0  0  0  0  0  0  0
  -29.2798  -13.8176   18.0879 C   0  0  0  0  0  0  0  0  0  0  0  0
  -19.8395  -26.2327   21.7697 C   0  0  0  0  0  0  0  0  0  0  0  0
  -28.0716  -13.0626   18.6405 C   0  0  0  0  0  0  0  0  0  0  0  0
  -32.2882  -25.0311   20.4720 C   0  0  0  0  0  0  0  0  0  0  0  0
  -30.1861  -14.3177   19.2084 C   0  0  0  0  0  0  0  0  0  0  0  0
  -28.2774  -14.4057   20.7804 C   0  0  0  0  0  0  0  0  0  0  0  0
  -20.8538  -27.2051   22.3837 C   0  0  1  0  0  0  0  0  0  0  0  0
  -30.6959  -27.1967   21.0076 C   0  0  2  0  0  0  0  0  0  0  0  0
  -22.5307  -29.1293   19.5696 C   0  0  1  0  0  0  0  0  0  0  0  0
  -27.3198  -13.9097   19.6825 C   0  0  2  0  0  0  0  0  0  0  0  0
  -22.9880  -29.2046   11.8373 C   0  0  0  0  0  0  0  0  0  0  0  0
  -21.6317  -25.3570   17.0552 C   0  0  0  0  0  0  0  0  0  0  0  0
  -22.0868  -25.5623   14.6019 C   0  0  0  0  0  0  0  0  0  0  0  0
  -20.0998  -26.6938   15.5990 C   0  0  0  0  0  0  0  0  0  0  0  0
  -24.5308  -31.7298   14.2289 C   0  0  0  0  0  0  0  0  0  0  0  0
  -29.0191  -17.1315   21.5334 C   0  0  0  0  0  0  0  0  0  0  0  0
  -29.6691  -28.3273   21.0432 C   0  0  0  0  0  0  0  0  0  1  0  0
  -22.4102  -27.6097   16.0628 C   0  0  1  0  0  0  0  0  0  0  0  0
  -23.1666  -29.9298   13.1620 C   0  0  2  0  0  0  0  0  0  0  0  0
  -21.5759  -26.3153   15.8488 C   0  0  0  0  0  0  0  0  0  0  0  0
  -26.2040  -11.8288   20.3952 N   0  0  0  0  0  0  0  0  0  0  0  0
  -26.1317  -13.1642   20.2621 N   0  0  0  0  0  0  0  0  0  0  0  0
  -30.8740  -24.7504   20.7506 N   0  0  0  0  0  0  0  0  0  0  0  0
  -22.9427  -28.5700   18.2806 N   0  0  0  0  0  0  0  0  0  0  0  0
  -29.4303  -15.0989   20.1891 N   0  0  0  0  0  0  0  0  0  0  0  0
  -24.7094  -15.0239   20.6210 N   0  0  0  0  0  0  0  0  0  0  0  0
  -21.7836  -12.6135   20.7774 N   0  0  0  0  0  0  0  0  0  0  0  0
  -29.1654  -19.4336   20.8928 N   0  0  0  0  0  0  0  0  0  0  0  0
  -21.2650  -28.1902   21.4064 N   0  0  0  0  0  0  0  0  0  0  0  0
  -22.3540  -28.5482   14.9472 N   0  0  0  0  0  0  0  0  0  0  0  0
  -30.5466  -18.5459   22.6752 N   0  3  0  0  0  0  0  0  0  0  0  0
  -24.2628  -30.9276   13.0075 N   0  3  0  0  0  0  0  0  0  0  0  0
  -31.7583  -28.4057   19.2002 O   0  0  0  0  0  0  0  0  0  0  0  0
  -28.8416  -25.7251   21.4223 O   0  0  0  0  0  0  0  0  0  0  0  0
  -22.6499  -12.8869   22.8830 O   0  0  0  0  0  0  0  0  0  0  0  0
  -22.9413  -26.9474   20.3732 O   0  0  0  0  0  0  0  0  0  0  0  0
  -30.8415  -16.9386   20.0322 O   0  0  0  0  0  0  0  0  0  0  0  0
  -20.8171  -28.8045   17.3515 O   0  0  0  0  0  0  0  0  0  0  0  0
  -24.6367  -28.5996   14.5428 O   0  0  0  0  0  0  0  0  0  0  0  0
  -23.7913   -6.1796   22.0738 O   0  0  0  0  0  0  0  0  0  0  0  0
  -28.9054  -28.2997   19.8381 O   0  0  0  0  0  0  0  0  0  1  0  0
  -19.4631   -5.1994   25.3463 F   0  0  0  0  0  0  0  0  0  0  0  0
  -24.0998   -4.8321   24.4679 F   0  0  0  0  0  0  0  0  0  0  0  0
  1  2  1  0  0  0  0
  1  5  2  0  0  0  0
  2  6  2  0  0  0  0
  3 10  2  0  0  0  0
  3 18  1  0  0  0  0
  4 11  1  0  0  0  0
  4 18  2  0  0  0  0
  5 21  1  0  0  0  0
  6 23  1  0  0  0  0
  7 12  2  0  0  0  0
  7 22  1  0  0  0  0
  8  9  2  0  0  0  0
  8 25  1  0  0  0  0
  9 26  1  0  0  0  0
 10 27  1  0  0  0  0
 11 27  2  0  0  0  0
 12 28  1  0  0  0  0
 13 14  2  0  0  0  0
 13 29  1  0  0  0  0
 14 30  1  0  0  0  0
 15 19  1  0  0  0  0
 15 25  2  0  0  0  0
 16 24  1  0  0  0  0
 16 28  2  0  0  0  0
 17 30  2  0  0  0  0
 17 31  1  0  0  0  0
 18 32  1  0  0  0  0
 19 26  2  0  0  0  0
 19 37  1  0  0  0  0
 20 32  1  0  0  0  0
 20 33  2  0  0  0  0
 20 38  1  0  0  0  0
 21 23  2  0  0  0  0
 21 44  1  0  0  0  0
 22 24  2  0  0  0  0
 22 45  1  0  0  0  0
 23 55  1  0  0  0  0
 24 46  1  0  0  0  0
 25 71  1  0  0  0  0
 26 76  1  0  0  0  0
 27 88  1  0  0  0  0
 28 89  1  0  0  0  0
 29 31  2  0  0  0  0
 29 88  1  0  0  0  0
 30 90  1  0  0  0  0
 31 91  1  0  0  0  0
 32 69  2  0  0  0  0
 33 70  1  0  0  0  0
 33 74  1  0  0  0  0
 34 47  1  0  0  0  0
 34 56  1  0  0  0  0
 34 81  2  0  0  0  0
 35 56  1  0  0  0  0
 35 71  1  0  0  0  0
 35 82  2  0  0  0  0
 36 37  2  0  0  0  0
 38 75  1  0  0  0  0
 38 83  2  0  0  0  0
 39 57  1  0  0  0  0
 39 77  1  0  0  0  0
 39 84  2  0  0  0  0
 40 64  1  0  0  0  0
 40 73  1  0  0  0  0
 40 85  2  0  0  0  0
 41 66  1  0  0  0  0
 41 72  1  0  0  0  0
 41 86  2  0  0  0  0
 42 64  1  0  0  0  0
 42 76  1  0  0  0  0
 42 79  2  0  0  0  0
 43 67  1  0  0  0  0
 43 78  1  0  0  0  0
 43 87  2  0  0  0  0
 44 48  1  0  0  0  0
 45 57  1  0  0  0  0
 46 72  1  0  0  0  0
 47 52  1  0  0  0  0
 48 50  1  0  0  0  0
 49 51  1  0  0  0  0
 49 53  1  0  0  0  0
 50 55  1  0  0  0  0
 51 58  1  0  0  0  0
 52 71  1  0  0  0  0
 53 73  1  0  0  0  0
 54 58  1  0  0  0  0
 54 73  1  0  0  0  0
 55 77  1  0  0  0  0
 56 65  1  0  0  0  0
 57 72  1  0  0  0  0
 58 70  1  0  0  0  0
 59 67  1  0  0  0  0
 60 68  1  0  0  0  0
 61 68  1  0  0  0  0
 62 68  1  0  0  0  0
 63 80  1  0  0  0  0
 65 89  1  0  0  0  0
 66 68  1  0  0  0  0
 66 78  1  0  0  0  0
 67 80  1  0  0  0  0
 69 70  1  0  0  0  0
M  CHG  2  79   1  80   1
M  ISO  4  40 100  64 100  65 101  89 101
M  END
> <Batch ID>
0103

> <Smiles>
C=Cc1cc(N2CCC(=O)C([101CH2:1][101O:1]c3ccc4c(c3)CN(C(=O)C(NC(=O)C(C)NC)C(C)(C)C)C(C(=O)NC3CCCc5ccccc53)C4)C2=O)ccc1NC(=N)[100CH2:0][100C:0](=O)N1CCCC(n2nc(-c3ccc(Oc4ccc(F)cc4F)cc3)c(C(N)=O)c2N)C1

> <Shape>
0.328

> <Color>
0.113

> <Negative vol penalty>
0.000

$$$$

  -OEChem-04052301053D

 86 94  0     1  0  0  0  0  0999 V2000
  -30.1378  -25.9597   16.1065 C   0  0  0  0  0  0  0  0  0  0  0  0
  -29.6521  -25.1095   17.0948 C   0  0  0  0  0  0  0  0  0  0  0  0
  -29.6095  -17.1617   19.4622 C   0  0  0  0  0  0  0  0  0  0  0  0
  -28.2516  -17.5626   21.4198 C   0  0  0  0  0  0  0  0  0  0  0  0
  -30.0282  -27.3410   16.2613 C   0  0  0  0  0  0  0  0  0  0  0  0
  -29.0574  -25.6402   18.2390 C   0  0  0  0  0  0  0  0  0  0  0  0
  -24.3839  -23.2598   21.4008 C   0  0  0  0  0  0  0  0  0  0  0  0
  -29.7494  -18.5371   19.2775 C   0  0  0  0  0  0  0  0  0  0  0  0
  -28.3915  -18.9381   21.2352 C   0  0  0  0  0  0  0  0  0  0  0  0
  -24.3321  -22.4954   22.5657 C   0  0  0  0  0  0  0  0  0  0  0  0
  -30.7323  -21.3033   21.8244 C   0  0  0  0  0  0  0  0  0  0  0  0
  -31.0244  -22.0797   22.9457 C   0  0  0  0  0  0  0  0  0  0  0  0
  -23.9474  -24.4975   23.8551 C   0  0  0  0  0  0  0  0  0  0  0  0
  -22.8226  -14.8010   26.7690 C   0  0  0  0  0  0  0  0  0  0  0  0
  -22.3968  -15.0335   24.4023 C   0  0  0  0  0  0  0  0  0  0  0  0
  -28.9837  -23.3293   22.6120 C   0  0  0  0  0  0  0  0  0  0  0  0
  -28.8605  -16.6744   20.5333 C   0  0  0  0  0  0  0  0  0  0  0  0
  -29.7425  -14.3150   20.9370 C   0  0  0  0  0  0  0  0  0  0  0  0
  -29.4233  -27.8887   17.4035 C   0  0  0  0  0  0  0  0  0  0  0  0
  -24.2284  -24.6524   21.4558 C   0  0  0  0  0  0  0  0  0  0  0  0
  -28.9409  -27.0301   18.4098 C   0  0  0  0  0  0  0  0  0  0  0  0
  -23.9950  -25.2770   22.6893 C   0  0  0  0  0  0  0  0  0  0  0  0
  -22.4417  -14.2414   25.5495 C   0  0  0  0  0  0  0  0  0  0  0  0
  -23.1584  -16.1530   26.8414 C   0  0  0  0  0  0  0  0  0  0  0  0
  -29.1405  -19.4253   20.1640 C   0  0  0  0  0  0  0  0  0  0  0  0
  -24.1167  -23.1146   23.7934 C   0  0  0  0  0  0  0  0  0  0  0  0
  -29.5659  -21.5398   21.0968 C   0  0  0  0  0  0  0  0  0  0  0  0
  -22.7326  -16.3855   24.4747 C   0  0  0  0  0  0  0  0  0  0  0  0
  -23.1134  -16.9452   25.6943 C   0  0  0  0  0  0  0  0  0  0  0  0
  -30.1501  -23.0927   23.3396 C   0  0  0  0  0  0  0  0  0  0  0  0
  -28.6916  -22.5528   21.4906 C   0  0  0  0  0  0  0  0  0  0  0  0
  -28.7152  -15.2536   20.7242 C   0  0  0  0  0  0  0  0  0  0  0  0
  -29.0895  -13.1127   21.0579 C   0  0  0  0  0  0  0  0  0  0  0  0
  -31.1603  -14.5122   21.0181 C   0  0  0  0  0  0  0  0  0  0  0  0
  -26.0585  -27.1446   20.7189 C   0  0  0  0  0  0  0  0  0  0  0  0
  -23.3715  -28.8262   21.4076 C   0  0  0  0  0  0  0  0  0  0  0  0
  -20.3895  -28.9730   23.0607 C   0  0  0  0  0  0  0  0  0  0  0  0
  -23.5253  -11.6430   22.7104 C   0  0  0  0  0  0  0  0  0  0  0  0
  -29.3702  -29.3890   17.5482 C   0  0  0  0  0  0  0  0  0  0  0  0
  -24.2602  -25.4596   20.1871 C   0  0  0  0  0  0  0  0  0  0  0  0
  -23.8017  -26.7666   22.7998 C   0  0  0  0  0  0  0  0  0  0  0  0
  -28.3898  -29.8635   18.6178 C   0  0  0  0  0  0  0  0  0  0  0  0
  -25.1255  -10.8446   19.6317 C   0  0  0  0  0  0  0  0  0  0  0  0
  -28.5624  -29.0521   19.8979 C   0  0  0  0  0  0  0  0  0  0  0  0
  -26.3197  -11.7994   19.5818 C   0  0  0  0  0  0  0  0  0  0  0  0
  -23.9025  -11.5033   20.2661 C   0  0  0  0  0  0  0  0  0  0  0  0
  -25.3320  -13.0494   21.5466 C   0  0  0  0  0  0  0  0  0  0  0  0
  -28.2672  -27.5672   19.6539 C   0  0  1  0  0  0  0  0  0  0  0  0
  -24.6017  -26.9279   20.4215 C   0  0  1  0  0  0  0  0  0  0  0  0
  -26.6059  -12.4121   20.9659 C   0  0  2  0  0  0  0  0  0  0  0  0
  -18.4317  -30.4909   23.4610 C   0  0  0  0  0  0  0  0  0  0  0  0
  -25.0541  -30.4828   23.3401 C   0  0  0  0  0  0  0  0  0  0  0  0
  -22.9284  -31.3042   24.3771 C   0  0  0  0  0  0  0  0  0  0  0  0
  -23.4205  -31.8036   21.9831 C   0  0  0  0  0  0  0  0  0  0  0  0
  -18.4993  -27.0461   21.8471 C   0  0  0  0  0  0  0  0  0  0  0  0
  -23.8733  -17.2227   22.5632 C   0  0  0  0  0  0  0  0  0  0  0  0
  -22.0833  -12.7958   25.4721 C   0  0  0  0  0  0  0  0  0  0  0  0
  -22.9300  -20.6005   26.1134 C   0  0  0  0  0  0  0  0  0  0  0  0
  -23.2768  -11.8824   25.1681 C   0  0  0  0  0  0  0  0  0  0  0  0
  -23.5886  -21.0316   24.8124 C   0  0  0  0  0  0  0  0  0  1  0  0
  -22.3844  -19.1834   26.0325 C   0  0  0  0  0  0  0  0  0  0  0  0
  -22.7900  -29.4489   22.6538 C   0  0  1  0  0  0  0  0  0  0  0  0
  -19.0004  -29.3747   22.5987 C   0  0  2  0  0  0  0  0  0  0  0  0
  -23.5538  -30.7320   23.0870 C   0  0  0  0  0  0  0  0  0  0  0  0
  -27.5017  -14.6957   20.7101 N   0  0  0  0  0  0  0  0  0  0  0  0
  -27.7624  -13.3934   20.9154 N   0  0  0  0  0  0  0  0  0  0  0  0
  -23.8476  -27.5133   21.5318 N   0  0  0  0  0  0  0  0  0  0  0  0
  -24.2410  -12.0627   21.5770 N   0  0  0  0  0  0  0  0  0  0  0  0
  -23.5428  -16.7056   28.0829 N   0  0  0  0  0  0  0  0  0  0  0  0
  -29.5267  -11.8534   21.2710 N   0  0  0  0  0  0  0  0  0  0  0  0
  -31.7273  -14.7771   22.2721 N   0  0  0  0  0  0  0  0  0  0  0  0
  -26.8393  -27.3388   19.5954 N   0  0  0  0  0  0  0  0  0  0  0  0
  -21.3725  -29.6607   22.3811 N   0  0  0  0  0  0  0  0  0  0  0  0
  -23.9141  -12.2178   23.9142 N   0  0  0  0  0  0  0  0  0  0  0  0
  -18.0743  -28.2092   22.6678 N   0  3  0  0  0  0  0  0  0  0  0  0
  -31.9003  -14.4713   20.0060 O   0  0  0  0  0  0  0  0  0  0  0  0
  -26.4454  -27.1376   21.8816 O   0  0  0  0  0  0  0  0  0  0  0  0
  -23.3957  -29.4781   20.3606 O   0  0  0  0  0  0  0  0  0  0  0  0
  -20.5831  -28.1358   23.9394 O   0  0  0  0  0  0  0  0  0  0  0  0
  -22.6113  -10.8133   22.6545 O   0  0  0  0  0  0  0  0  0  0  0  0
  -29.2770  -20.7676   19.9842 O   0  0  0  0  0  0  0  0  0  0  0  0
  -22.6839  -17.1477   23.3465 O   0  0  0  0  0  0  0  0  0  0  0  0
  -24.0664  -22.3710   24.9320 O   0  0  0  0  0  0  0  0  0  1  0  0
  -23.4416  -18.2744   25.7572 O   0  0  0  0  0  0  0  0  0  0  0  0
  -30.4299  -23.8372   24.4173 F   0  0  0  0  0  0  0  0  0  0  0  0
  -27.5690  -22.7840   20.7963 F   0  0  0  0  0  0  0  0  0  0  0  0
  1  2  1  0  0  0  0
  1  5  2  0  0  0  0
  2  6  2  0  0  0  0
  3  8  2  0  0  0  0
  3 17  1  0  0  0  0
  4  9  1  0  0  0  0
  4 17  2  0  0  0  0
  5 19  1  0  0  0  0
  6 21  1  0  0  0  0
  7 10  2  0  0  0  0
  7 20  1  0  0  0  0
  8 25  1  0  0  0  0
  9 25  2  0  0  0  0
 10 26  1  0  0  0  0
 11 12  2  0  0  0  0
 11 27  1  0  0  0  0
 12 30  1  0  0  0  0
 13 22  1  0  0  0  0
 13 26  2  0  0  0  0
 14 23  1  0  0  0  0
 14 24  2  0  0  0  0
 15 23  2  0  0  0  0
 15 28  1  0  0  0  0
 16 30  2  0  0  0  0
 16 31  1  0  0  0  0
 17 32  1  0  0  0  0
 18 32  1  0  0  0  0
 18 33  2  0  0  0  0
 18 34  1  0  0  0  0
 19 21  2  0  0  0  0
 19 39  1  0  0  0  0
 20 22  2  0  0  0  0
 20 40  1  0  0  0  0
 21 48  1  0  0  0  0
 22 41  1  0  0  0  0
 23 57  1  0  0  0  0
 24 29  1  0  0  0  0
 24 69  1  0  0  0  0
 25 81  1  0  0  0  0
 26 83  1  0  0  0  0
 27 31  2  0  0  0  0
 27 81  1  0  0  0  0
 28 29  2  0  0  0  0
 28 82  1  0  0  0  0
 29 84  1  0  0  0  0
 30 85  1  0  0  0  0
 31 86  1  0  0  0  0
 32 65  2  0  0  0  0
 33 66  1  0  0  0  0
 33 70  1  0  0  0  0
 34 71  1  0  0  0  0
 34 76  2  0  0  0  0
 35 49  1  0  0  0  0
 35 72  1  0  0  0  0
 35 77  2  0  0  0  0
 36 62  1  0  0  0  0
 36 67  1  0  0  0  0
 36 78  2  0  0  0  0
 37 63  1  0  0  0  0
 37 73  1  0  0  0  0
 37 79  2  0  0  0  0
 38 68  1  0  0  0  0
 38 74  1  0  0  0  0
 38 80  2  0  0  0  0
 39 42  1  0  0  0  0
 40 49  1  0  0  0  0
 41 67  1  0  0  0  0
 42 44  1  0  0  0  0
 43 45  1  0  0  0  0
 43 46  1  0  0  0  0
 44 48  1  0  0  0  0
 45 50  1  0  0  0  0
 46 68  1  0  0  0  0
 47 50  1  0  0  0  0
 47 68  1  0  0  0  0
 48 72  1  0  0  0  0
 49 67  1  0  0  0  0
 50 66  1  0  0  0  0
 51 63  1  0  0  0  0
 52 64  1  0  0  0  0
 53 64  1  0  0  0  0
 54 64  1  0  0  0  0
 55 75  1  0  0  0  0
 56 82  1  0  0  0  0
 57 59  1  0  0  0  0
 58 60  1  0  0  0  0
 58 61  1  0  0  0  0
 59 74  1  0  0  0  0
 60 83  1  0  0  0  0
 61 84  1  0  0  0  0
 62 64  1  0  0  0  0
 62 73  1  0  0  0  0
 63 75  1  0  0  0  0
 65 66  1  0  0  0  0
M  CHG  1  75   1
M  ISO  4  38 100  60 101  74 100  83 101
M  END
> <Batch ID>
0103

> <Smiles>
CNC(C)C(=O)NC(C(=O)N1Cc2cc([101O:1][101CH2:1]CCOc3c(N)cc(CC[100NH:0][100C:0](=O)N4CCCC(n5nc(-c6ccc(Oc7ccc(F)cc7F)cc6)c(C(N)=O)c5N)C4)cc3OC)ccc2CC1C(=O)NC1CCCc2ccccc21)C(C)(C)C

> <Shape>
0.236

> <Color>
0.062

> <Negative vol penalty>
0.000

$$$$

  -OEChem-04052301053D

 87 96  0     1  0  0  0  0  0999 V2000
  -18.4124  -27.5786   23.5616 C   0  0  0  0  0  0  0  0  0  0  0  0
  -18.9712  -26.3743   23.1458 C   0  0  0  0  0  0  0  0  0  0  0  0
  -25.1306  -13.6245   26.2325 C   0  0  0  0  0  0  0  0  0  0  0  0
  -29.9157  -16.6348   20.6732 C   0  0  0  0  0  0  0  0  0  0  0  0
  -28.2674  -16.8822   18.9242 C   0  0  0  0  0  0  0  0  0  0  0  0
  -25.4917  -12.5204   25.4603 C   0  0  0  0  0  0  0  0  0  0  0  0
  -18.7575  -28.7654   22.9164 C   0  0  0  0  0  0  0  0  0  0  0  0
  -19.8746  -26.3560   22.0838 C   0  0  0  0  0  0  0  0  0  0  0  0
  -23.9218  -23.4616   23.0259 C   0  0  0  0  0  0  0  0  0  0  0  0
  -24.0235  -14.3938   25.8746 C   0  0  0  0  0  0  0  0  0  0  0  0
  -30.0401  -18.0218   20.7522 C   0  0  0  0  0  0  0  0  0  0  0  0
  -28.3917  -18.2693   19.0033 C   0  0  0  0  0  0  0  0  0  0  0  0
  -23.7606  -22.0822   22.9031 C   0  0  0  0  0  0  0  0  0  0  0  0
  -28.3293  -20.6027   22.1108 C   0  0  0  0  0  0  0  0  0  0  0  0
  -28.3470  -21.1806   23.3801 C   0  0  0  0  0  0  0  0  0  0  0  0
  -23.6386  -12.9552   23.9722 C   0  0  0  0  0  0  0  0  0  0  0  0
  -24.7870  -22.1626   20.7215 C   0  0  0  0  0  0  0  0  0  0  0  0
  -30.5428  -22.0860   22.9372 C   0  0  0  0  0  0  0  0  0  0  0  0
  -29.0294  -16.0650   19.7591 C   0  0  0  0  0  0  0  0  0  0  0  0
  -24.7457  -12.1858   24.3302 C   0  0  0  0  0  0  0  0  0  0  0  0
  -29.9132  -13.7045   19.3656 C   0  0  0  0  0  0  0  0  0  0  0  0
  -19.6730  -28.7629   21.8522 C   0  0  0  0  0  0  0  0  0  0  0  0
  -24.5079  -24.2047   21.9911 C   0  0  0  0  0  0  0  0  0  0  0  0
  -20.2313  -27.5437   21.4229 C   0  0  0  0  0  0  0  0  0  0  0  0
  -24.9568  -23.5509   20.8347 C   0  0  0  0  0  0  0  0  0  0  0  0
  -23.2775  -14.0592   24.7445 C   0  0  0  0  0  0  0  0  0  0  0  0
  -29.2780  -18.8391   19.9174 C   0  0  0  0  0  0  0  0  0  0  0  0
  -24.1906  -21.4329   21.7496 C   0  0  0  0  0  0  0  0  0  0  0  0
  -29.4184  -20.7663   21.2546 C   0  0  0  0  0  0  0  0  0  0  0  0
  -29.4537  -21.9223   23.7934 C   0  0  0  0  0  0  0  0  0  0  0  0
  -30.5250  -21.5080   21.6679 C   0  0  0  0  0  0  0  0  0  0  0  0
  -28.9010  -14.6322   19.6765 C   0  0  0  0  0  0  0  0  0  0  0  0
  -29.2870  -12.4831   19.4168 C   0  0  0  0  0  0  0  0  0  0  0  0
  -22.0948  -15.2965   21.9299 C   0  0  0  0  0  0  0  0  0  0  0  0
  -25.1221  -11.0343   23.5256 C   0  0  0  0  0  0  0  0  0  0  0  0
  -31.2958  -13.9269   19.0581 C   0  0  0  0  0  0  0  0  0  0  0  0
  -24.3522  -10.6512   22.3199 C   0  0  0  0  0  0  0  0  0  0  0  0
  -23.5344  -26.5596   20.0910 C   0  0  0  0  0  0  0  0  0  0  0  0
  -26.6300  -26.5335   19.1222 C   0  0  0  0  0  0  0  0  0  0  0  0
  -29.5483  -24.7952   18.7933 C   0  0  0  0  0  0  0  0  0  0  0  0
  -19.9792  -30.0647   21.1549 C   0  0  0  0  0  0  0  0  0  0  0  0
  -24.6989  -25.6881   22.1502 C   0  0  0  0  0  0  0  0  0  0  0  0
  -25.6106  -24.3001   19.7034 C   0  0  0  0  0  0  0  0  0  0  0  0
  -22.4834  -16.2143   20.7873 C   0  0  0  0  0  0  0  0  0  0  0  0
  -21.2298  -30.0084   20.2815 C   0  0  0  0  0  0  0  0  0  0  0  0
  -22.4798  -17.6900   21.1344 C   0  0  0  0  0  0  0  0  0  0  0  0
  -25.0233  -10.4202   18.8053 C   0  0  0  0  0  0  0  0  0  0  0  0
  -21.2237  -28.7490   19.4209 C   0  0  0  0  0  0  0  0  0  0  0  0
  -26.1608  -11.4193   18.5966 C   0  0  0  0  0  0  0  0  0  0  0  0
  -24.0565  -10.8927   19.8862 C   0  0  0  0  0  0  0  0  0  0  0  0
  -22.7045  -17.1375   23.5385 C   0  0  0  0  0  0  0  0  0  0  0  0
  -25.8560  -12.1923   20.9915 C   0  0  0  0  0  0  0  0  0  0  0  0
  -21.2339  -27.4863   20.2909 C   0  0  1  0  0  0  0  0  0  0  0  0
  -24.8415  -26.4185   20.8185 C   0  0  1  0  0  0  0  0  0  0  0  0
  -23.3234  -17.9161   22.3818 C   0  0  2  0  0  0  0  0  0  0  0  0
  -26.8683  -11.7361   19.9263 C   0  0  2  0  0  0  0  0  0  0  0  0
  -31.9705  -24.3875   18.2793 C   0  0  0  0  0  0  0  0  0  0  0  0
  -25.6021  -26.2573   16.2626 C   0  0  0  0  0  0  0  0  0  0  0  0
  -27.9037  -25.5491   15.5777 C   0  0  0  0  0  0  0  0  0  0  0  0
  -27.5326  -27.8244   16.5304 C   0  0  0  0  0  0  0  0  0  0  0  0
  -30.3771  -25.5557   21.5308 C   0  0  0  0  0  0  0  0  0  0  0  0
  -22.0859  -14.8874   24.3592 C   0  0  0  0  0  0  0  0  0  0  0  0
  -23.4210  -19.4020   22.7186 C   0  0  0  0  0  0  0  0  0  1  0  0
  -27.4090  -25.8086   18.0513 C   0  0  1  0  0  0  0  0  0  0  0  0
  -30.9812  -25.1575   19.1401 C   0  0  2  0  0  0  0  0  0  0  0  0
  -27.0978  -26.3457   16.6258 C   0  0  0  0  0  0  0  0  0  0  0  0
  -27.7213  -14.0501   19.9079 N   0  0  0  0  0  0  0  0  0  0  0  0
  -26.1457  -10.2716   23.8006 N   0  0  0  0  0  0  0  0  0  0  0  0
  -27.9883  -12.7434   19.7423 N   0  0  0  0  0  0  0  0  0  0  0  0
  -22.3670  -15.7496   23.2190 N   0  0  0  0  0  0  0  0  0  0  0  0
  -24.7644  -11.2190   21.1226 N   0  0  0  0  0  0  0  0  0  0  0  0
  -25.7692  -25.7500   19.9038 N   0  0  0  0  0  0  0  0  0  0  0  0
  -29.7260  -11.2227   19.2147 N   0  0  0  0  0  0  0  0  0  0  0  0
  -31.6590  -14.1246   17.7189 N   0  0  0  0  0  0  0  0  0  0  0  0
  -22.5638  -27.2370   20.8042 N   0  0  0  0  0  0  0  0  0  0  0  0
  -28.8139  -25.9050   18.4327 N   0  0  0  0  0  0  0  0  0  0  0  0
  -31.2621  -24.8475   20.5705 N   0  3  0  0  0  0  0  0  0  0  0  0
  -21.6393  -14.1792   21.6706 O   0  0  0  0  0  0  0  0  0  0  0  0
  -32.1851  -13.9333   19.9427 O   0  0  0  0  0  0  0  0  0  0  0  0
  -23.4288   -9.8703   22.5099 O   0  0  0  0  0  0  0  0  0  0  0  0
  -23.4156  -26.0900   18.9654 O   0  0  0  0  0  0  0  0  0  0  0  0
  -26.7850  -27.7490   19.2647 O   0  0  0  0  0  0  0  0  0  0  0  0
  -29.1242  -23.6424   18.8344 O   0  0  0  0  0  0  0  0  0  0  0  0
  -29.3989  -20.1926   19.9944 O   0  0  0  0  0  0  0  0  0  0  0  0
  -24.0339  -20.0867   21.6269 O   0  0  0  0  0  0  0  0  0  1  0  0
  -29.4700  -22.4785   25.0118 F   0  0  0  0  0  0  0  0  0  0  0  0
  -31.5737  -21.6698   20.8494 F   0  0  0  0  0  0  0  0  0  0  0  0
  1  2  1  0  0  0  0
  1  7  2  0  0  0  0
  2  8  2  0  0  0  0
  3  6  1  0  0  0  0
  3 10  2  0  0  0  0
  4 11  2  0  0  0  0
  4 19  1  0  0  0  0
  5 12  1  0  0  0  0
  5 19  2  0  0  0  0
  6 20  2  0  0  0  0
  7 22  1  0  0  0  0
  8 24  1  0  0  0  0
  9 13  2  0  0  0  0
  9 23  1  0  0  0  0
 10 26  1  0  0  0  0
 11 27  1  0  0  0  0
 12 27  2  0  0  0  0
 13 28  1  0  0  0  0
 14 15  2  0  0  0  0
 14 29  1  0  0  0  0
 15 30  1  0  0  0  0
 16 20  1  0  0  0  0
 16 26  2  0  0  0  0
 17 25  1  0  0  0  0
 17 28  2  0  0  0  0
 18 30  2  0  0  0  0
 18 31  1  0  0  0  0
 19 32  1  0  0  0  0
 20 35  1  0  0  0  0
 21 32  1  0  0  0  0
 21 33  2  0  0  0  0
 21 36  1  0  0  0  0
 22 24  2  0  0  0  0
 22 41  1  0  0  0  0
 23 25  2  0  0  0  0
 23 42  1  0  0  0  0
 24 53  1  0  0  0  0
 25 43  1  0  0  0  0
 26 62  1  0  0  0  0
 27 84  1  0  0  0  0
 28 85  1  0  0  0  0
 29 31  2  0  0  0  0
 29 84  1  0  0  0  0
 30 86  1  0  0  0  0
 31 87  1  0  0  0  0
 32 67  2  0  0  0  0
 33 69  1  0  0  0  0
 33 73  1  0  0  0  0
 34 44  1  0  0  0  0
 34 70  1  0  0  0  0
 34 78  2  0  0  0  0
 35 37  1  0  0  0  0
 35 68  2  0  0  0  0
 36 74  1  0  0  0  0
 36 79  2  0  0  0  0
 37 71  1  0  0  0  0
 37 80  2  0  0  0  0
 38 54  1  0  0  0  0
 38 75  1  0  0  0  0
 38 81  2  0  0  0  0
 39 64  1  0  0  0  0
 39 72  1  0  0  0  0
 39 82  2  0  0  0  0
 40 65  1  0  0  0  0
 40 76  1  0  0  0  0
 40 83  2  0  0  0  0
 41 45  1  0  0  0  0
 42 54  1  0  0  0  0
 43 72  1  0  0  0  0
 44 46  1  0  0  0  0
 45 48  1  0  0  0  0
 46 55  1  0  0  0  0
 47 49  1  0  0  0  0
 47 50  1  0  0  0  0
 48 53  1  0  0  0  0
 49 56  1  0  0  0  0
 50 71  1  0  0  0  0
 51 55  1  0  0  0  0
 51 70  1  0  0  0  0
 52 56  1  0  0  0  0
 52 71  1  0  0  0  0
 53 75  1  0  0  0  0
 54 72  1  0  0  0  0
 55 63  1  0  0  0  0
 56 69  1  0  0  0  0
 57 65  1  0  0  0  0
 58 66  1  0  0  0  0
 59 66  1  0  0  0  0
 60 66  1  0  0  0  0
 61 77  1  0  0  0  0
 62 70  1  0  0  0  0
 63 85  1  0  0  0  0
 64 66  1  0  0  0  0
 64 76  1  0  0  0  0
 65 77  1  0  0  0  0
 67 69  1  0  0  0  0
M  CHG  1  77   1
M  ISO  4  35 100  37 100  63 101  85 101
M  END
> <Batch ID>
0103

> <Smiles>
CNC(C)C(=O)NC(C(=O)N1Cc2cc([101O:1][101CH2:1]C3CCC(=O)N(Cc4cccc([100C:0](=N)[100C:0](=O)N5CCCC(n6nc(-c7ccc(Oc8ccc(F)cc8F)cc7)c(C(N)=O)c6N)C5)c4)C3)ccc2CC1C(=O)NC1CCCc2ccccc21)C(C)(C)C

> <Shape>
0.214

> <Color>
0.073

> <Negative vol penalty>
0.000

$$$$

  -OEChem-04052301053D

 87 96  0     1  0  0  0  0  0999 V2000
  -22.4691  -24.4915   18.8636 C   0  0  0  0  0  0  0  0  0  0  0  0
  -23.4699  -23.7808   19.5184 C   0  0  0  0  0  0  0  0  0  0  0  0
  -26.6551  -28.4916   21.9096 C   0  0  0  0  0  0  0  0  0  0  0  0
  -25.5991  -26.3315   22.1459 C   0  0  0  0  0  0  0  0  0  0  0  0
  -21.1374  -24.1008   18.9963 C   0  0  0  0  0  0  0  0  0  0  0  0
  -23.1393  -22.6794   20.3072 C   0  0  0  0  0  0  0  0  0  0  0  0
  -26.2060  -18.7289   19.5110 C   0  0  0  0  0  0  0  0  0  0  0  0
  -31.4210  -18.2227   17.8720 C   0  0  0  0  0  0  0  0  0  0  0  0
  -31.2644  -17.2349   18.8444 C   0  0  0  0  0  0  0  0  0  0  0  0
  -25.5208  -29.1044   22.4418 C   0  0  0  0  0  0  0  0  0  0  0  0
  -24.4648  -26.9443   22.6782 C   0  0  0  0  0  0  0  0  0  0  0  0
  -27.4651  -18.7697   20.1084 C   0  0  0  0  0  0  0  0  0  0  0  0
  -21.1516  -27.9698   23.7650 C   0  0  0  0  0  0  0  0  0  0  0  0
  -19.9071  -27.5487   23.2967 C   0  0  0  0  0  0  0  0  0  0  0  0
  -26.6698  -17.3252   21.8691 C   0  0  0  0  0  0  0  0  0  0  0  0
  -31.8164  -18.8400   20.5637 C   0  0  0  0  0  0  0  0  0  0  0  0
  -20.5258  -28.2109   21.0571 C   0  0  0  0  0  0  0  0  0  0  0  0
  -26.6943  -27.1051   21.7615 C   0  0  0  0  0  0  0  0  0  0  0  0
  -28.9881  -25.9998   21.9176 C   0  0  0  0  0  0  0  0  0  0  0  0
  -20.7912  -22.9883   19.7793 C   0  0  0  0  0  0  0  0  0  0  0  0
  -25.1646  -17.9936   20.0950 C   0  0  0  0  0  0  0  0  0  0  0  0
  -21.8015  -22.2742   20.4515 C   0  0  0  0  0  0  0  0  0  0  0  0
  -25.3992  -17.2746   21.2758 C   0  0  0  0  0  0  0  0  0  0  0  0
  -31.7753  -19.5191   18.2455 C   0  0  0  0  0  0  0  0  0  0  0  0
  -31.4621  -17.5436   20.1902 C   0  0  0  0  0  0  0  0  0  0  0  0
  -24.4256  -28.3308   22.8262 C   0  0  0  0  0  0  0  0  0  0  0  0
  -27.6963  -18.0702   21.2892 C   0  0  0  0  0  0  0  0  0  0  0  0
  -22.0833  -28.5115   22.8795 C   0  0  0  0  0  0  0  0  0  0  0  0
  -31.9730  -19.8277   19.5914 C   0  0  0  0  0  0  0  0  0  0  0  0
  -19.5942  -27.6693   21.9427 C   0  0  0  0  0  0  0  0  0  0  0  0
  -21.7704  -28.6321   21.5255 C   0  0  0  0  0  0  0  0  0  0  0  0
  -27.8655  -26.4715   21.2112 C   0  0  0  0  0  0  0  0  0  0  0  0
  -29.8146  -25.4886   20.9471 C   0  0  0  0  0  0  0  0  0  0  0  0
  -31.5346  -15.1478   21.0173 C   0  0  0  0  0  0  0  0  0  0  0  0
  -29.2594  -26.0216   23.3253 C   0  0  0  0  0  0  0  0  0  0  0  0
  -22.3061  -18.7103   21.2863 C   0  0  0  0  0  0  0  0  0  0  0  0
  -22.0267  -15.4870   21.5193 C   0  0  0  0  0  0  0  0  0  0  0  0
  -23.5740  -12.4546   21.7595 C   0  0  0  0  0  0  0  0  0  0  0  0
  -30.6018  -22.4654   16.3226 C   0  0  0  0  0  0  0  0  0  0  0  0
  -19.3334  -22.6325   19.9308 C   0  0  0  0  0  0  0  0  0  0  0  0
  -23.8197  -17.9380   19.4238 C   0  0  0  0  0  0  0  0  0  0  0  0
  -24.3203  -16.4537   21.9320 C   0  0  0  0  0  0  0  0  0  0  0  0
  -31.2558  -14.4720   22.3390 C   0  0  0  0  0  0  0  0  0  0  0  0
  -19.1034  -21.2283   20.4836 C   0  0  0  0  0  0  0  0  0  0  0  0
  -31.3246  -15.6104   23.3393 C   0  0  0  0  0  0  0  0  0  0  0  0
  -29.5937  -25.8547   15.9069 C   0  0  0  0  0  0  0  0  0  0  0  0
  -20.0049  -20.9742   21.6876 C   0  0  0  0  0  0  0  0  0  0  0  0
  -29.1412  -26.2760   17.3061 C   0  0  0  0  0  0  0  0  0  0  0  0
  -29.2305  -24.4015   15.6100 C   0  0  0  0  0  0  0  0  0  0  0  0
  -29.2498  -23.8493   18.0118 C   0  0  0  0  0  0  0  0  0  0  0  0
  -21.4851  -21.0591   21.2962 C   0  0  1  0  0  0  0  0  0  0  0  0
  -22.6888  -17.5739   20.3809 C   0  0  1  0  0  0  0  0  0  0  0  0
  -29.6436  -25.2904   18.3783 C   0  0  2  0  0  0  0  0  0  0  0  0
  -30.8454  -16.8199   22.5445 C   0  0  2  0  0  0  0  0  0  0  0  0
  -23.0815  -10.0033   21.9729 C   0  0  0  0  0  0  0  0  0  0  0  0
  -21.3301  -15.8856   24.4631 C   0  0  0  0  0  0  0  0  0  0  0  0
  -21.7839  -13.4507   24.8283 C   0  0  0  0  0  0  0  0  0  0  0  0
  -19.9527  -14.1593   23.2897 C   0  0  0  0  0  0  0  0  0  0  0  0
  -24.9318  -11.8410   19.2025 C   0  0  0  0  0  0  0  0  0  0  0  0
  -32.5018  -21.3165   21.3690 C   0  0  0  0  0  0  0  0  0  0  0  0
  -31.9387  -20.5634   17.1912 C   0  0  0  0  0  0  0  0  0  0  0  0
  -29.3235  -16.9609   22.6225 C   0  0  0  0  0  0  0  0  0  1  0  0
  -22.3588  -14.4585   22.5734 C   0  0  1  0  0  0  0  0  0  0  0  0
  -23.3561  -11.1507   21.0134 C   0  0  2  0  0  0  0  0  0  0  0  0
  -21.3764  -14.5055   23.7775 C   0  0  0  0  0  0  0  0  0  0  0  0
  -27.9665  -26.2774   19.8935 N   0  0  0  0  0  0  0  0  0  0  0  0
  -29.1625  -25.6781   19.7643 N   0  0  0  0  0  0  0  0  0  0  0  0
  -31.3020  -16.5291   21.1882 N   0  0  0  0  0  0  0  0  0  0  0  0
  -23.0205  -16.4360   21.2408 N   0  0  0  0  0  0  0  0  0  0  0  0
  -29.7373  -23.5187   16.6635 N   0  0  0  0  0  0  0  0  0  0  0  0
  -31.0284  -24.9000   20.9986 N   0  0  0  0  0  0  0  0  0  0  0  0
  -28.3027  -26.5839   24.1815 N   0  0  0  0  0  0  0  0  0  0  0  0
  -21.8988  -19.8493   20.6182 N   0  0  0  0  0  0  0  0  0  0  0  0
  -22.4030  -13.1713   21.8881 N   0  0  0  0  0  0  0  0  0  0  0  0
  -31.0406  -21.6805   17.3819 N   0  0  0  0  0  0  0  0  0  0  0  0
  -24.5604  -10.8092   20.2047 N   0  3  0  0  0  0  0  0  0  0  0  0
  -31.8682  -14.5195   20.0231 O   0  0  0  0  0  0  0  0  0  0  0  0
  -30.3260  -25.5712   23.8080 O   0  0  0  0  0  0  0  0  0  0  0  0
  -22.3739  -18.5642   22.5011 O   0  0  0  0  0  0  0  0  0  0  0  0
  -20.9288  -15.4454   20.9585 O   0  0  0  0  0  0  0  0  0  0  0  0
  -24.6723  -12.8009   22.1889 O   0  0  0  0  0  0  0  0  0  0  0  0
  -30.9605  -22.2443   15.1610 O   0  0  0  0  0  0  0  0  0  0  0  0
  -23.3187  -28.9284   23.3459 O   0  0  0  0  0  0  0  0  0  0  0  0
  -32.3197  -21.0890   19.9729 O   0  0  0  0  0  0  0  0  0  0  0  0
  -28.9241  -18.1088   21.8747 O   0  0  0  0  0  0  0  0  0  1  0  0
  -18.3996  -27.2634   21.4928 F   0  0  0  0  0  0  0  0  0  0  0  0
  -22.6618  -29.1506   20.6698 F   0  0  0  0  0  0  0  0  0  0  0  0
  1  2  1  0  0  0  0
  1  5  2  0  0  0  0
  2  6  2  0  0  0  0
  3 10  2  0  0  0  0
  3 18  1  0  0  0  0
  4 11  1  0  0  0  0
  4 18  2  0  0  0  0
  5 20  1  0  0  0  0
  6 22  1  0  0  0  0
  7 12  2  0  0  0  0
  7 21  1  0  0  0  0
  8  9  2  0  0  0  0
  8 24  1  0  0  0  0
  9 25  1  0  0  0  0
 10 26  1  0  0  0  0
 11 26  2  0  0  0  0
 12 27  1  0  0  0  0
 13 14  2  0  0  0  0
 13 28  1  0  0  0  0
 14 30  1  0  0  0  0
 15 23  1  0  0  0  0
 15 27  2  0  0  0  0
 16 25  2  0  0  0  0
 16 29  1  0  0  0  0
 17 30  2  0  0  0  0
 17 31  1  0  0  0  0
 18 32  1  0  0  0  0
 19 32  1  0  0  0  0
 19 33  2  0  0  0  0
 19 35  1  0  0  0  0
 20 22  2  0  0  0  0
 20 40  1  0  0  0  0
 21 23  2  0  0  0  0
 21 41  1  0  0  0  0
 22 51  1  0  0  0  0
 23 42  1  0  0  0  0
 24 29  2  0  0  0  0
 24 61  1  0  0  0  0
 25 68  1  0  0  0  0
 26 83  1  0  0  0  0
 27 85  1  0  0  0  0
 28 31  2  0  0  0  0
 28 83  1  0  0  0  0
 29 84  1  0  0  0  0
 30 86  1  0  0  0  0
 31 87  1  0  0  0  0
 32 66  2  0  0  0  0
 33 67  1  0  0  0  0
 33 71  1  0  0  0  0
 34 43  1  0  0  0  0
 34 68  1  0  0  0  0
 34 77  2  0  0  0  0
 35 72  1  0  0  0  0
 35 78  2  0  0  0  0
 36 52  1  0  0  0  0
 36 73  1  0  0  0  0
 36 79  2  0  0  0  0
 37 63  1  0  0  0  0
 37 69  1  0  0  0  0
 37 80  2  0  0  0  0
 38 64  1  0  0  0  0
 38 74  1  0  0  0  0
 38 81  2  0  0  0  0
 39 70  1  0  0  0  0
 39 75  1  0  0  0  0
 39 82  2  0  0  0  0
 40 44  1  0  0  0  0
 41 52  1  0  0  0  0
 42 69  1  0  0  0  0
 43 45  1  0  0  0  0
 44 47  1  0  0  0  0
 45 54  1  0  0  0  0
 46 48  1  0  0  0  0
 46 49  1  0  0  0  0
 47 51  1  0  0  0  0
 48 53  1  0  0  0  0
 49 70  1  0  0  0  0
 50 53  1  0  0  0  0
 50 70  1  0  0  0  0
 51 73  1  0  0  0  0
 52 69  1  0  0  0  0
 53 67  1  0  0  0  0
 54 62  1  0  0  0  0
 54 68  1  0  0  0  0
 55 64  1  0  0  0  0
 56 65  1  0  0  0  0
 57 65  1  0  0  0  0
 58 65  1  0  0  0  0
 59 76  1  0  0  0  0
 60 84  1  0  0  0  0
 61 75  1  0  0  0  0
 62 85  1  0  0  0  0
 63 65  1  0  0  0  0
 63 74  1  0  0  0  0
 64 76  1  0  0  0  0
 66 67  1  0  0  0  0
M  CHG  1  76   1
M  ISO  4  39 100  62 101  75 100  85 101
M  END
> <Batch ID>
0103

> <Smiles>
CNC(C)C(=O)NC(C(=O)N1Cc2cc([101O:1][101CH2:1]C3CCC(=O)N3c3ccc(C[100NH:0][100C:0](=O)N4CCCC(n5nc(-c6ccc(Oc7ccc(F)cc7F)cc6)c(C(N)=O)c5N)C4)c(OC)c3)ccc2CC1C(=O)NC1CCCc2ccccc21)C(C)(C)C

> <Shape>
0.182

> <Color>
0.067

> <Negative vol penalty>
0.000

$$$$

  -OEChem-04052301053D

 85 93  0     1  0  0  0  0  0999 V2000
  -21.6848  -13.2483   19.2347 C   0  0  0  0  0  0  0  0  0  0  0  0
  -22.0178  -14.5204   19.6888 C   0  0  0  0  0  0  0  0  0  0  0  0
  -29.5088  -26.6595   18.0394 C   0  0  0  0  0  0  0  0  0  0  0  0
  -29.2701  -25.5609   20.1779 C   0  0  0  0  0  0  0  0  0  0  0  0
  -22.5757  -12.1906   19.4122 C   0  0  0  0  0  0  0  0  0  0  0  0
  -23.2416  -14.7353   20.3217 C   0  0  0  0  0  0  0  0  0  0  0  0
  -25.5692  -18.9223   18.6794 C   0  0  0  0  0  0  0  0  0  0  0  0
  -18.0853  -28.1164   22.6832 C   0  0  0  0  0  0  0  0  0  0  0  0
  -30.7751  -26.0939   17.8902 C   0  0  0  0  0  0  0  0  0  0  0  0
  -30.5364  -24.9952   20.0287 C   0  0  0  0  0  0  0  0  0  0  0  0
  -25.1081  -20.1421   19.1726 C   0  0  0  0  0  0  0  0  0  0  0  0
  -18.5648  -26.9154   22.1605 C   0  0  0  0  0  0  0  0  0  0  0  0
  -32.0784  -23.1022   17.0049 C   0  0  0  0  0  0  0  0  0  0  0  0
  -32.3965  -22.5421   15.7677 C   0  0  0  0  0  0  0  0  0  0  0  0
  -26.9354  -20.1894   20.7468 C   0  0  0  0  0  0  0  0  0  0  0  0
  -20.8172  -27.5557   22.7556 C   0  0  0  0  0  0  0  0  0  0  0  0
  -34.2398  -24.0875   15.5420 C   0  0  0  0  0  0  0  0  0  0  0  0
  -28.7563  -26.3930   19.1833 C   0  0  0  0  0  0  0  0  0  0  0  0
  -26.2191  -26.4326   18.9214 C   0  0  0  0  0  0  0  0  0  0  0  0
  -23.8152  -12.3947   20.0389 C   0  0  0  0  0  0  0  0  0  0  0  0
  -26.7125  -18.3205   19.2246 C   0  0  0  0  0  0  0  0  0  0  0  0
  -24.1494  -13.6791   20.5089 C   0  0  0  0  0  0  0  0  0  0  0  0
  -27.4103  -18.9632   20.2571 C   0  0  0  0  0  0  0  0  0  0  0  0
  -18.9718  -29.0372   23.2420 C   0  0  0  0  0  0  0  0  0  0  0  0
  -20.3377  -28.7567   23.2782 C   0  0  0  0  0  0  0  0  0  0  0  0
  -31.2889  -25.2618   18.8848 C   0  0  0  0  0  0  0  0  0  0  0  0
  -25.7896  -20.7745   20.2084 C   0  0  0  0  0  0  0  0  0  0  0  0
  -19.9307  -26.6350   22.1967 C   0  0  0  0  0  0  0  0  0  0  0  0
  -32.8410  -24.1551   17.5106 C   0  0  0  0  0  0  0  0  0  0  0  0
  -33.4772  -23.0347   15.0362 C   0  0  0  0  0  0  0  0  0  0  0  0
  -33.9217  -24.6477   16.7792 C   0  0  0  0  0  0  0  0  0  0  0  0
  -27.4484  -26.9774   19.3383 C   0  0  0  0  0  0  0  0  0  0  0  0
  -25.2846  -27.3662   19.2976 C   0  0  0  0  0  0  0  0  0  0  0  0
  -25.9463  -25.1934   18.2538 C   0  0  0  0  0  0  0  0  0  0  0  0
  -27.3041  -15.5890   20.7388 C   0  0  0  0  0  0  0  0  0  0  0  0
  -30.3857  -16.5715   20.4919 C   0  0  0  0  0  0  0  0  0  0  0  0
  -32.5818  -19.1592   20.1346 C   0  0  0  0  0  0  0  0  0  0  0  0
  -23.2884  -30.8517   23.1897 C   0  0  0  0  0  0  0  0  0  0  0  0
  -24.7253  -11.2108   20.2504 C   0  0  0  0  0  0  0  0  0  0  0  0
  -27.2122  -17.0175   18.6634 C   0  0  0  0  0  0  0  0  0  0  0  0
  -28.6545  -18.3689   20.8631 C   0  0  0  0  0  0  0  0  0  0  0  0
  -26.1604  -11.5999   20.5960 C   0  0  0  0  0  0  0  0  0  0  0  0
  -25.8299  -32.1036   20.9596 C   0  0  0  0  0  0  0  0  0  0  0  0
  -26.1760  -12.6833   21.6696 C   0  0  0  0  0  0  0  0  0  0  0  0
  -26.4023  -30.8311   20.3361 C   0  0  0  0  0  0  0  0  0  0  0  0
  -25.4090  -31.8760   22.4079 C   0  0  0  0  0  0  0  0  0  0  0  0
  -25.0131  -29.4678   21.9597 C   0  0  0  0  0  0  0  0  0  0  0  0
  -25.4780  -13.9572   21.1781 C   0  0  1  0  0  0  0  0  0  0  0  0
  -28.0927  -16.2446   19.6406 C   0  0  1  0  0  0  0  0  0  0  0  0
  -25.4238  -29.6531   20.4887 C   0  0  2  0  0  0  0  0  0  0  0  0
  -18.4348  -30.3161   23.7953 C   0  0  0  0  0  0  0  0  0  0  0  0
  -21.5507  -29.4858   25.3616 C   0  0  0  0  0  0  0  0  0  0  0  0
  -34.7858  -20.3151   19.8124 C   0  0  0  0  0  0  0  0  0  0  0  0
  -30.6218  -16.1773   23.5084 C   0  0  0  0  0  0  0  0  0  0  0  0
  -32.7118  -17.5547   23.4546 C   0  0  0  0  0  0  0  0  0  0  0  0
  -32.6054  -15.4032   22.1967 C   0  0  0  0  0  0  0  0  0  0  0  0
  -32.3555  -19.0201   17.1870 C   0  0  0  0  0  0  0  0  0  0  0  0
  -23.6210  -23.5854   21.1870 C   0  0  0  0  0  0  0  0  0  0  0  0
  -22.1247  -23.8767   21.1561 C   0  0  0  0  0  0  0  0  0  0  0  0
  -23.9361  -22.2046   20.6272 C   0  0  0  0  0  0  0  0  0  1  0  0
  -21.8047  -25.2390   21.7549 C   0  0  0  0  0  0  0  0  0  0  0  0
  -21.3055  -29.7277   23.8705 C   0  0  1  0  0  0  0  0  0  0  0  0
  -31.3144  -17.4026   21.3439 C   0  0  1  0  0  0  0  0  0  0  0  0
  -33.7753  -19.3478   19.2156 C   0  0  2  0  0  0  0  0  0  0  0  0
  -31.7888  -16.6450   22.6160 C   0  0  0  0  0  0  0  0  0  0  0  0
  -27.3107  -28.1651   19.9336 N   0  0  0  0  0  0  0  0  0  0  0  0
  -25.9838  -28.3743   19.8935 N   0  0  0  0  0  0  0  0  0  0  0  0
  -29.0998  -17.0904   20.2845 N   0  0  0  0  0  0  0  0  0  0  0  0
  -24.5116  -30.7272   22.5235 N   0  0  0  0  0  0  0  0  0  0  0  0
  -23.9413  -27.4150   19.1735 N   0  0  0  0  0  0  0  0  0  0  0  0
  -27.0226  -24.3520   17.9408 N   0  0  0  0  0  0  0  0  0  0  0  0
  -26.3470  -14.6991   20.2900 N   0  0  0  0  0  0  0  0  0  0  0  0
  -32.3972  -17.8336   20.4664 N   0  0  0  0  0  0  0  0  0  0  0  0
  -33.3340  -19.8836   17.8968 N   0  3  0  0  0  0  0  0  0  0  0  0
  -24.7842  -24.8503   17.9293 O   0  0  0  0  0  0  0  0  0  0  0  0
  -27.5471  -15.8687   21.9069 O   0  0  0  0  0  0  0  0  0  0  0  0
  -30.7888  -15.5047   20.0217 O   0  0  0  0  0  0  0  0  0  0  0  0
  -31.8854  -20.0946   20.5225 O   0  0  0  0  0  0  0  0  0  0  0  0
  -22.8853  -31.8907   23.7096 O   0  0  0  0  0  0  0  0  0  0  0  0
  -32.5244  -24.7096   18.7394 O   0  0  0  0  0  0  0  0  0  0  0  0
  -25.3413  -21.9649   20.6920 O   0  0  0  0  0  0  0  0  0  1  0  0
  -20.4021  -25.4550   21.6827 O   0  0  0  0  0  0  0  0  0  0  0  0
  -22.5734  -29.6835   23.2056 O   0  0  0  0  0  0  0  0  0  0  0  0
  -33.7835  -22.4957   13.8489 F   0  0  0  0  0  0  0  0  0  0  0  0
  -34.6587  -25.6582   17.2604 F   0  0  0  0  0  0  0  0  0  0  0  0
  1  2  1  0  0  0  0
  1  5  2  0  0  0  0
  2  6  2  0  0  0  0
  3  9  2  0  0  0  0
  3 18  1  0  0  0  0
  4 10  1  0  0  0  0
  4 18  2  0  0  0  0
  5 20  1  0  0  0  0
  6 22  1  0  0  0  0
  7 11  2  0  0  0  0
  7 21  1  0  0  0  0
  8 12  2  0  0  0  0
  8 24  1  0  0  0  0
  9 26  1  0  0  0  0
 10 26  2  0  0  0  0
 11 27  1  0  0  0  0
 12 28  1  0  0  0  0
 13 14  2  0  0  0  0
 13 29  1  0  0  0  0
 14 30  1  0  0  0  0
 15 23  1  0  0  0  0
 15 27  2  0  0  0  0
 16 25  1  0  0  0  0
 16 28  2  0  0  0  0
 17 30  2  0  0  0  0
 17 31  1  0  0  0  0
 18 32  1  0  0  0  0
 19 32  1  0  0  0  0
 19 33  2  0  0  0  0
 19 34  1  0  0  0  0
 20 22  2  0  0  0  0
 20 39  1  0  0  0  0
 21 23  2  0  0  0  0
 21 40  1  0  0  0  0
 22 48  1  0  0  0  0
 23 41  1  0  0  0  0
 24 25  2  0  0  0  0
 24 51  1  0  0  0  0
 25 62  1  0  0  0  0
 26 80  1  0  0  0  0
 27 81  1  0  0  0  0
 28 82  1  0  0  0  0
 29 31  2  0  0  0  0
 29 80  1  0  0  0  0
 30 84  1  0  0  0  0
 31 85  1  0  0  0  0
 32 66  2  0  0  0  0
 33 67  1  0  0  0  0
 33 70  1  0  0  0  0
 34 71  1  0  0  0  0
 34 75  2  0  0  0  0
 35 49  1  0  0  0  0
 35 72  1  0  0  0  0
 35 76  2  0  0  0  0
 36 63  1  0  0  0  0
 36 68  1  0  0  0  0
 36 77  2  0  0  0  0
 37 64  1  0  0  0  0
 37 73  1  0  0  0  0
 37 78  2  0  0  0  0
 38 69  1  0  0  0  0
 38 79  2  0  0  0  0
 38 83  1  0  0  0  0
 39 42  1  0  0  0  0
 40 49  1  0  0  0  0
 41 68  1  0  0  0  0
 42 44  1  0  0  0  0
 43 45  1  0  0  0  0
 43 46  1  0  0  0  0
 44 48  1  0  0  0  0
 45 50  1  0  0  0  0
 46 69  1  0  0  0  0
 47 50  1  0  0  0  0
 47 69  1  0  0  0  0
 48 72  1  0  0  0  0
 49 68  1  0  0  0  0
 50 67  1  0  0  0  0
 52 62  1  0  0  0  0
 53 64  1  0  0  0  0
 54 65  1  0  0  0  0
 55 65  1  0  0  0  0
 56 65  1  0  0  0  0
 57 74  1  0  0  0  0
 58 59  1  0  0  0  0
 58 60  1  0  0  0  0
 59 61  1  0  0  0  0
 60 81  1  0  0  0  0
 61 82  1  0  0  0  0
 62 83  1  0  0  0  0
 63 65  1  0  0  0  0
 63 73  1  0  0  0  0
 64 74  1  0  0  0  0
 66 67  1  0  0  0  0
M  CHG  1  74   1
M  ISO  4  38 100  60 101  81 101  83 100
M  END
> <Batch ID>
0103

> <Smiles>
CNC(C)C(=O)NC(C(=O)N1Cc2cc([101O:1][101CH2:1]CCCOc3ccc(C)c(C(C)[100O:0][100C:0](=O)N4CCCC(n5nc(-c6ccc(Oc7ccc(F)cc7F)cc6)c(C(N)=O)c5N)C4)c3)ccc2CC1C(=O)NC1CCCc2ccccc21)C(C)(C)C

> <Shape>
0.260

> <Color>
0.074

> <Negative vol penalty>
0.000

$$$$

  -OEChem-04052301053D

 90 99  0     1  0  0  0  0  0999 V2000
  -21.8118  -12.6513   19.0307 C   0  0  0  0  0  0  0  0  0  0  0  0
  -21.7997  -13.9810   19.4395 C   0  0  0  0  0  0  0  0  0  0  0  0
  -23.0805  -25.6635   24.3071 C   0  0  0  0  0  0  0  0  0  0  0  0
  -22.3071  -27.1576   26.0411 C   0  0  0  0  0  0  0  0  0  0  0  0
  -22.9238  -11.8525   19.2935 C   0  0  0  0  0  0  0  0  0  0  0  0
  -22.8993  -14.5123   20.1125 C   0  0  0  0  0  0  0  0  0  0  0  0
  -24.2144  -19.0851   18.3787 C   0  0  0  0  0  0  0  0  0  0  0  0
  -23.1433  -24.6219   25.2326 C   0  0  0  0  0  0  0  0  0  0  0  0
  -22.3699  -26.1160   26.9666 C   0  0  0  0  0  0  0  0  0  0  0  0
  -23.4442  -20.1698   18.7958 C   0  0  0  0  0  0  0  0  0  0  0  0
  -20.9904  -22.4900   26.7336 C   0  0  0  0  0  0  0  0  0  0  0  0
  -20.4708  -21.2527   26.3533 C   0  0  0  0  0  0  0  0  0  0  0  0
  -25.1203  -20.7197   20.4412 C   0  0  0  0  0  0  0  0  0  0  0  0
  -25.5383  -26.7587   20.5722 C   0  0  0  0  0  0  0  0  0  0  0  0
  -25.5009  -29.2995   19.4207 C   0  0  0  0  0  0  0  0  0  0  0  0
  -22.6402  -20.2410   26.6813 C   0  0  0  0  0  0  0  0  0  0  0  0
  -22.6624  -26.9314   24.7113 C   0  0  0  0  0  0  0  0  0  0  0  0
  -21.4978  -28.3687   22.9547 C   0  0  0  0  0  0  0  0  0  0  0  0
  -24.0416  -12.3769   19.9614 C   0  0  0  0  0  0  0  0  0  0  0  0
  -25.4403  -18.8026   18.9982 C   0  0  0  0  0  0  0  0  0  0  0  0
  -24.0269  -13.7194   20.3857 C   0  0  0  0  0  0  0  0  0  0  0  0
  -25.9054  -19.6323   20.0284 C   0  0  0  0  0  0  0  0  0  0  0  0
  -26.6457  -27.5975   20.6973 C   0  0  0  0  0  0  0  0  0  0  0  0
  -24.4122  -27.1902   19.8712 C   0  0  0  0  0  0  0  0  0  0  0  0
  -26.6270  -28.8679   20.1216 C   0  0  0  0  0  0  0  0  0  0  0  0
  -22.7881  -24.8481   26.5624 C   0  0  0  0  0  0  0  0  0  0  0  0
  -23.8957  -20.9856   19.8290 C   0  0  0  0  0  0  0  0  0  0  0  0
  -22.3349  -22.6029   27.0877 C   0  0  0  0  0  0  0  0  0  0  0  0
  -21.2957  -20.1282   26.3272 C   0  0  0  0  0  0  0  0  0  0  0  0
  -24.3934  -28.4606   19.2955 C   0  0  0  0  0  0  0  0  0  0  0  0
  -23.1598  -21.4784   27.0615 C   0  0  0  0  0  0  0  0  0  0  0  0
  -22.5978  -28.0080   23.7558 C   0  0  0  0  0  0  0  0  0  0  0  0
  -21.9419  -29.4452   22.2264 C   0  0  0  0  0  0  0  0  0  0  0  0
  -22.1213  -24.1270   19.6091 C   0  0  0  0  0  0  0  0  0  0  0  0
  -20.9090  -24.6754   19.8544 C   0  0  0  0  0  0  0  0  0  0  0  0
  -23.3994  -24.9255   19.7192 C   0  0  0  0  0  0  0  0  0  0  0  0
  -20.1914  -27.7831   22.8760 C   0  0  0  0  0  0  0  0  0  0  0  0
  -26.6026  -16.3545   20.6593 C   0  0  0  0  0  0  0  0  0  0  0  0
  -29.3590  -18.0569   20.4967 C   0  0  0  0  0  0  0  0  0  0  0  0
  -30.8712  -21.0922   20.1132 C   0  0  0  0  0  0  0  0  0  0  0  0
  -27.6959  -31.0169   20.8499 C   0  0  0  0  0  0  0  0  0  0  0  0
  -25.2014  -11.4618   20.2648 C   0  0  0  0  0  0  0  0  0  0  0  0
  -26.2718  -17.6445   18.5187 C   0  0  0  0  0  0  0  0  0  0  0  0
  -27.2240  -19.3839   20.7125 C   0  0  0  0  0  0  0  0  0  0  0  0
  -20.8467  -26.1549   20.1741 C   0  0  0  0  0  0  0  0  0  0  0  0
  -26.4779  -12.2040   20.6518 C   0  0  0  0  0  0  0  0  0  0  0  0
  -25.0380  -33.0834   22.3853 C   0  0  0  0  0  0  0  0  0  0  0  0
  -26.1725  -13.2939   21.6744 C   0  0  0  0  0  0  0  0  0  0  0  0
  -24.0595  -32.0377   22.9166 C   0  0  0  0  0  0  0  0  0  0  0  0
  -21.9632  -26.9252   19.4842 C   0  0  0  0  0  0  0  0  0  0  0  0
  -26.4685  -32.5542   22.3499 C   0  0  0  0  0  0  0  0  0  0  0  0
  -25.6336  -30.2330   22.1123 C   0  0  0  0  0  0  0  0  0  0  0  0
  -25.2106  -14.3389   21.0963 C   0  0  1  0  0  0  0  0  0  0  0  0
  -27.2627  -17.1462   19.5662 C   0  0  1  0  0  0  0  0  0  0  0  0
  -24.1796  -30.7281   22.1198 C   0  0  1  0  0  0  0  0  0  0  0  0
  -27.8387  -27.1092   21.4534 C   0  0  0  0  0  0  0  0  0  0  0  0
  -28.8157  -29.8338   18.0134 C   0  0  0  0  0  0  0  0  0  0  0  0
  -33.1356  -22.1726   20.0639 C   0  0  0  0  0  0  0  0  0  0  0  0
  -29.5278  -17.8363   23.5353 C   0  0  0  0  0  0  0  0  0  0  0  0
  -31.2175  -19.6835   23.5058 C   0  0  0  0  0  0  0  0  0  0  0  0
  -31.7056  -17.5305   22.3445 C   0  0  0  0  0  0  0  0  0  0  0  0
  -30.4892  -22.0342   17.3337 C   0  0  0  0  0  0  0  0  0  0  0  0
  -22.3189  -22.6723   19.2592 C   0  0  0  0  0  0  0  0  0  1  0  0
  -28.9607  -29.4298   19.4666 C   0  0  0  0  0  0  0  0  0  0  0  0
  -30.0108  -19.1198   21.3477 C   0  0  1  0  0  0  0  0  0  0  0  0
  -32.0283  -21.5376   19.2373 C   0  0  2  0  0  0  0  0  0  0  0  0
  -30.5896  -18.5463   22.6719 C   0  0  0  0  0  0  0  0  0  0  0  0
  -23.6607  -28.7916   23.5554 N   0  0  0  0  0  0  0  0  0  0  0  0
  -23.2307  -29.6554   22.6199 N   0  0  0  0  0  0  0  0  0  0  0  0
  -23.2681  -26.3212   19.7427 N   0  0  0  0  0  0  0  0  0  0  0  0
  -27.9977  -18.2356   20.2122 N   0  0  0  0  0  0  0  0  0  0  0  0
  -26.5575  -31.2772   21.6400 N   0  0  0  0  0  0  0  0  0  0  0  0
  -21.3517  -30.2229   21.2940 N   0  0  0  0  0  0  0  0  0  0  0  0
  -19.9022  -26.6826   23.6942 N   0  0  0  0  0  0  0  0  0  0  0  0
  -25.9166  -15.2414   20.2122 N   0  0  0  0  0  0  0  0  0  0  0  0
  -30.9994  -19.7741   20.4974 N   0  0  0  0  0  0  0  0  0  0  0  0
  -27.7621  -29.7503   20.2386 N   0  0  0  0  0  0  0  0  0  0  0  0
  -31.5627  -22.5335   18.2311 N   0  3  0  0  0  0  0  0  0  0  0  0
  -19.7532  -24.1652   19.8594 O   0  5  0  0  0  0  0  0  0  0  0  0
  -24.4660  -24.3088   19.7312 O   0  0  0  0  0  0  0  0  0  0  0  0
  -19.3122  -28.2125   22.0911 O   0  0  0  0  0  0  0  0  0  0  0  0
  -26.7090  -16.7251   21.8225 O   0  0  0  0  0  0  0  0  0  0  0  0
  -30.0345  -17.1069   20.0932 O   0  0  0  0  0  0  0  0  0  0  0  0
  -29.9481  -21.8398   20.4284 O   0  0  0  0  0  0  0  0  0  0  0  0
  -28.6177  -31.8348   20.7408 O   0  0  0  0  0  0  0  0  0  0  0  0
  -22.8491  -23.8319   27.4658 O   0  0  0  0  0  0  0  0  0  0  0  0
  -23.1456  -22.0446   20.2385 O   0  0  0  0  0  0  0  0  0  1  0  0
  -20.7962  -18.9397   25.9635 F   0  0  0  0  0  0  0  0  0  0  0  0
  -23.3158  -28.8853   18.6205 F   0  0  0  0  0  0  0  0  0  0  0  0
  -24.4519  -21.5803   27.4018 F   0  0  0  0  0  0  0  0  0  0  0  0
  1  2  1  0  0  0  0
  1  5  2  0  0  0  0
  2  6  2  0  0  0  0
  3  8  2  0  0  0  0
  3 17  1  0  0  0  0
  4  9  1  0  0  0  0
  4 17  2  0  0  0  0
  5 19  1  0  0  0  0
  6 21  1  0  0  0  0
  7 10  2  0  0  0  0
  7 20  1  0  0  0  0
  8 26  1  0  0  0  0
  9 26  2  0  0  0  0
 10 27  1  0  0  0  0
 11 12  2  0  0  0  0
 11 28  1  0  0  0  0
 12 29  1  0  0  0  0
 13 22  1  0  0  0  0
 13 27  2  0  0  0  0
 14 23  1  0  0  0  0
 14 24  2  0  0  0  0
 15 25  1  0  0  0  0
 15 30  2  0  0  0  0
 16 29  2  0  0  0  0
 16 31  1  0  0  0  0
 17 32  1  0  0  0  0
 18 32  1  0  0  0  0
 18 33  2  0  0  0  0
 18 37  1  0  0  0  0
 19 21  2  0  0  0  0
 19 42  1  0  0  0  0
 20 22  2  0  0  0  0
 20 43  1  0  0  0  0
 21 53  1  0  0  0  0
 22 44  1  0  0  0  0
 23 25  2  0  0  0  0
 23 56  1  0  0  0  0
 24 30  1  0  0  0  0
 24 70  1  0  0  0  0
 25 77  1  0  0  0  0
 26 86  1  0  0  0  0
 27 87  1  0  0  0  0
 28 31  2  0  0  0  0
 28 86  1  0  0  0  0
 29 88  1  0  0  0  0
 30 89  1  0  0  0  0
 31 90  1  0  0  0  0
 32 68  2  0  0  0  0
 33 69  1  0  0  0  0
 33 73  1  0  0  0  0
 34 35  2  0  0  0  0
 34 36  1  0  0  0  0
 34 63  1  0  0  0  0
 35 45  1  0  0  0  0
 35 79  1  0  0  0  0
 36 70  1  0  0  0  0
 36 80  2  0  0  0  0
 37 74  1  0  0  0  0
 37 81  2  0  0  0  0
 38 54  1  0  0  0  0
 38 75  1  0  0  0  0
 38 82  2  0  0  0  0
 39 65  1  0  0  0  0
 39 71  1  0  0  0  0
 39 83  2  0  0  0  0
 40 66  1  0  0  0  0
 40 76  1  0  0  0  0
 40 84  2  0  0  0  0
 41 72  1  0  0  0  0
 41 77  1  0  0  0  0
 41 85  2  0  0  0  0
 42 46  1  0  0  0  0
 43 54  1  0  0  0  0
 44 71  1  0  0  0  0
 45 50  1  0  0  0  0
 46 48  1  0  0  0  0
 47 49  1  0  0  0  0
 47 51  1  0  0  0  0
 48 53  1  0  0  0  0
 49 55  1  0  0  0  0
 50 70  1  0  0  0  0
 51 72  1  0  0  0  0
 52 55  1  0  0  0  0
 52 72  1  0  0  0  0
 53 75  1  0  0  0  0
 54 71  1  0  0  0  0
 55 69  1  0  0  0  0
 57 64  1  0  0  0  0
 58 66  1  0  0  0  0
 59 67  1  0  0  0  0
 60 67  1  0  0  0  0
 61 67  1  0  0  0  0
 62 78  1  0  0  0  0
 63 87  1  0  0  0  0
 64 77  1  0  0  0  0
 65 67  1  0  0  0  0
 65 76  1  0  0  0  0
 66 78  1  0  0  0  0
 68 69  1  0  0  0  0
M  CHG  2  78   1  79  -1
M  ISO  4  41 100  63 101  77 100  87 101
M  END
> <Batch ID>
0103

> <Smiles>
CC[100N:0](c1cc(F)c(N2CCC(=O)C([101CH2:1][101O:1]c3ccc4c(c3)CN(C(=O)C(NC(=O)C(C)NC)C(C)(C)C)C(C(=O)NC3CCCc5ccccc53)C4)C2=O)cc1C)[100C:0](=O)N1CCCC(n2nc(-c3ccc(Oc4ccc(F)cc4F)cc3)c(C(N)=O)c2N)C1

> <Shape>
0.213

> <Color>
0.082

> <Negative vol penalty>
0.000

$$$$

  -OEChem-04052301053D

 84 92  0     1  0  0  0  0  0999 V2000
  -27.8102  -32.7325   27.4989 C   0  0  0  0  0  0  0  0  0  0  0  0
  -27.9617  -31.6593   26.6267 C   0  0  0  0  0  0  0  0  0  0  0  0
  -24.3056   -8.9279   21.4325 C   0  0  0  0  0  0  0  0  0  0  0  0
  -24.8208  -10.2203   23.4077 C   0  0  0  0  0  0  0  0  0  0  0  0
  -26.5412  -33.2546   27.7460 C   0  0  0  0  0  0  0  0  0  0  0  0
  -26.8441  -31.1068   26.0020 C   0  0  0  0  0  0  0  0  0  0  0  0
  -27.6088  -30.2299   21.0734 C   0  0  0  0  0  0  0  0  0  0  0  0
  -23.9977   -7.8277   22.2327 C   0  0  0  0  0  0  0  0  0  0  0  0
  -24.5129   -9.1201   24.2079 C   0  0  0  0  0  0  0  0  0  0  0  0
  -28.3485  -29.0975   20.7354 C   0  0  0  0  0  0  0  0  0  0  0  0
  -22.7293   -4.7892   23.7734 C   0  0  0  0  0  0  0  0  0  0  0  0
  -21.5697   -4.0741   23.4743 C   0  0  0  0  0  0  0  0  0  0  0  0
  -26.3034  -27.9138   20.2502 C   0  0  0  0  0  0  0  0  0  0  0  0
  -27.9070  -20.3476   20.6784 C   0  0  0  0  0  0  0  0  0  0  0  0
  -30.1003  -18.7768   19.9679 C   0  0  0  0  0  0  0  0  0  0  0  0
  -20.2485   -6.0636   23.8395 C   0  0  0  0  0  0  0  0  0  0  0  0
  -24.7172  -10.1243   22.0200 C   0  0  0  0  0  0  0  0  0  0  0  0
  -24.1560  -12.2716   20.7624 C   0  0  0  0  0  0  0  0  0  0  0  0
  -25.4087  -32.7146   27.1166 C   0  0  0  0  0  0  0  0  0  0  0  0
  -26.2080  -30.2093   21.0126 C   0  0  0  0  0  0  0  0  0  0  0  0
  -25.5587  -31.6214   26.2420 C   0  0  0  0  0  0  0  0  0  0  0  0
  -25.5483  -29.0481   20.5854 C   0  0  0  0  0  0  0  0  0  0  0  0
  -27.7217  -19.0125   20.3198 C   0  0  0  0  0  0  0  0  0  0  0  0
  -28.8183  -18.2270   19.9646 C   0  0  0  0  0  0  0  0  0  0  0  0
  -24.1013   -7.9238   23.6204 C   0  0  0  0  0  0  0  0  0  0  0  0
  -27.6958  -27.9383   20.3265 C   0  0  0  0  0  0  0  0  0  0  0  0
  -22.6485   -6.1416   24.1056 C   0  0  0  0  0  0  0  0  0  0  0  0
  -29.1890  -20.8974   20.6817 C   0  0  0  0  0  0  0  0  0  0  0  0
  -20.3293   -4.7112   23.5074 C   0  0  0  0  0  0  0  0  0  0  0  0
  -30.2856  -20.1121   20.3265 C   0  0  0  0  0  0  0  0  0  0  0  0
  -21.4081   -6.7788   24.1386 C   0  0  0  0  0  0  0  0  0  0  0  0
  -25.0359  -11.2610   21.1940 C   0  0  0  0  0  0  0  0  0  0  0  0
  -24.9402  -13.1112   20.0096 C   0  0  0  0  0  0  0  0  0  0  0  0
  -22.7551  -12.4368   21.0192 C   0  0  0  0  0  0  0  0  0  0  0  0
  -23.8654  -30.5709   23.1304 C   0  0  0  0  0  0  0  0  0  0  0  0
  -28.8416  -24.5059   20.5178 C   0  0  0  0  0  0  0  0  0  0  0  0
  -21.9849  -30.4341   20.4908 C   0  0  0  0  0  0  0  0  0  0  0  0
  -21.5984  -29.4085   17.2589 C   0  0  0  0  0  0  0  0  0  0  0  0
  -29.6526  -15.9698   19.2195 C   0  0  0  0  0  0  0  0  0  0  0  0
  -24.0521  -33.2822   27.4514 C   0  0  0  0  0  0  0  0  0  0  0  0
  -25.4257  -31.4476   21.3549 C   0  0  0  0  0  0  0  0  0  0  0  0
  -24.0472  -28.9807   20.4837 C   0  0  0  0  0  0  0  0  0  0  0  0
  -22.9624  -32.8808   26.4607 C   0  0  0  0  0  0  0  0  0  0  0  0
  -29.6612  -12.5364   18.2767 C   0  0  0  0  0  0  0  0  0  0  0  0
  -23.0319  -31.3854   26.1675 C   0  0  0  0  0  0  0  0  0  0  0  0
  -28.3863  -11.9817   18.9161 C   0  0  0  0  0  0  0  0  0  0  0  0
  -30.3337  -13.5806   19.1661 C   0  0  0  0  0  0  0  0  0  0  0  0
  -28.1860  -14.1222   20.2447 C   0  0  0  0  0  0  0  0  0  0  0  0
  -24.3735  -31.0108   25.5260 C   0  0  1  0  0  0  0  0  0  0  0  0
  -23.9821  -31.1522   21.7498 C   0  0  1  0  0  0  0  0  0  0  0  0
  -27.4382  -13.1141   19.3569 C   0  0  2  0  0  0  0  0  0  0  0  0
  -19.9381  -29.4088   15.3772 C   0  0  0  0  0  0  0  0  0  0  0  0
  -20.4218  -28.2078   21.8729 C   0  0  0  0  0  0  0  0  0  0  0  0
  -19.4338  -27.6164   19.6498 C   0  0  0  0  0  0  0  0  0  0  0  0
  -19.0097  -29.8652   20.6427 C   0  0  0  0  0  0  0  0  0  0  0  0
  -23.4046  -30.9712   15.5112 C   0  0  0  0  0  0  0  0  0  0  0  0
  -27.7987  -25.5645   20.2233 C   0  0  0  0  0  0  0  0  0  1  0  0
  -28.3128  -23.1070   20.7595 C   0  0  0  0  0  0  0  0  0  0  0  0
  -21.3021  -29.3297   19.7206 C   0  0  1  0  0  0  0  0  0  0  0  0
  -21.1059  -30.1386   16.0224 C   0  0  2  0  0  0  0  0  0  0  0  0
  -20.0701  -28.7551   20.4752 C   0  0  0  0  0  0  0  0  0  0  0  0
  -26.2835  -11.4402   20.7519 N   0  0  0  0  0  0  0  0  0  0  0  0
  -26.1932  -12.5731   20.0347 N   0  0  0  0  0  0  0  0  0  0  0  0
  -23.3263  -30.2153   20.8352 N   0  0  0  0  0  0  0  0  0  0  0  0
  -29.3765  -14.6239   19.5405 N   0  0  0  0  0  0  0  0  0  0  0  0
  -26.4145  -18.4765   20.3215 N   0  0  0  0  0  0  0  0  0  0  0  0
  -24.6732  -14.2497   19.3352 N   0  0  0  0  0  0  0  0  0  0  0  0
  -22.1042  -11.4823   21.8126 N   0  0  0  0  0  0  0  0  0  0  0  0
  -28.6552  -16.8686   19.5960 N   0  0  0  0  0  0  0  0  0  0  0  0
  -24.3839  -31.3768   24.1259 N   0  0  0  0  0  0  0  0  0  0  0  0
  -20.9939  -29.8798   18.4050 N   0  0  0  0  0  0  0  0  0  0  0  0
  -22.2009  -30.2535   15.0181 N   0  3  0  0  0  0  0  0  0  0  0  0
  -22.0965  -13.3934   20.5452 O   0  0  0  0  0  0  0  0  0  0  0  0
  -23.3422  -29.4731   23.2815 O   0  0  0  0  0  0  0  0  0  0  0  0
  -30.0432  -24.7663   20.5586 O   0  0  0  0  0  0  0  0  0  0  0  0
  -21.3534  -31.4563   20.7702 O   0  0  0  0  0  0  0  0  0  0  0  0
  -22.4330  -28.5074   17.2122 O   0  0  0  0  0  0  0  0  0  0  0  0
  -30.6845  -16.2974   18.6281 O   0  0  0  0  0  0  0  0  0  0  0  0
  -23.8007   -6.8504   24.4015 O   0  0  0  0  0  0  0  0  0  0  0  0
  -28.4153  -26.8313   19.9967 O   0  0  0  0  0  0  0  0  0  1  0  0
  -29.3708  -22.2135   21.0354 O   0  0  0  0  0  0  0  0  0  0  0  0
  -19.2160   -4.0247   23.2187 F   0  0  0  0  0  0  0  0  0  0  0  0
  -31.5199  -20.6343   20.3275 F   0  0  0  0  0  0  0  0  0  0  0  0
  -21.3243   -8.0780   24.4559 F   0  0  0  0  0  0  0  0  0  0  0  0
  1  2  1  0  0  0  0
  1  5  2  0  0  0  0
  2  6  2  0  0  0  0
  3  8  2  0  0  0  0
  3 17  1  0  0  0  0
  4  9  1  0  0  0  0
  4 17  2  0  0  0  0
  5 19  1  0  0  0  0
  6 21  1  0  0  0  0
  7 10  2  0  0  0  0
  7 20  1  0  0  0  0
  8 25  1  0  0  0  0
  9 25  2  0  0  0  0
 10 26  1  0  0  0  0
 11 12  2  0  0  0  0
 11 27  1  0  0  0  0
 12 29  1  0  0  0  0
 13 22  1  0  0  0  0
 13 26  2  0  0  0  0
 14 23  2  0  0  0  0
 14 28  1  0  0  0  0
 15 24  2  0  0  0  0
 15 30  1  0  0  0  0
 16 29  2  0  0  0  0
 16 31  1  0  0  0  0
 17 32  1  0  0  0  0
 18 32  1  0  0  0  0
 18 33  2  0  0  0  0
 18 34  1  0  0  0  0
 19 21  2  0  0  0  0
 19 40  1  0  0  0  0
 20 22  2  0  0  0  0
 20 41  1  0  0  0  0
 21 49  1  0  0  0  0
 22 42  1  0  0  0  0
 23 24  1  0  0  0  0
 23 66  1  0  0  0  0
 24 69  1  0  0  0  0
 25 79  1  0  0  0  0
 26 80  1  0  0  0  0
 27 31  2  0  0  0  0
 27 79  1  0  0  0  0
 28 30  2  0  0  0  0
 28 81  1  0  0  0  0
 29 82  1  0  0  0  0
 30 83  1  0  0  0  0
 31 84  1  0  0  0  0
 32 62  2  0  0  0  0
 33 63  1  0  0  0  0
 33 67  1  0  0  0  0
 34 68  1  0  0  0  0
 34 73  2  0  0  0  0
 35 50  1  0  0  0  0
 35 70  1  0  0  0  0
 35 74  2  0  0  0  0
 36 57  1  0  0  0  0
 36 58  1  0  0  0  0
 36 75  2  0  0  0  0
 37 59  1  0  0  0  0
 37 64  1  0  0  0  0
 37 76  2  0  0  0  0
 38 60  1  0  0  0  0
 38 71  1  0  0  0  0
 38 77  2  0  0  0  0
 39 65  1  0  0  0  0
 39 69  1  0  0  0  0
 39 78  2  0  0  0  0
 40 43  1  0  0  0  0
 41 50  1  0  0  0  0
 42 64  1  0  0  0  0
 43 45  1  0  0  0  0
 44 46  1  0  0  0  0
 44 47  1  0  0  0  0
 45 49  1  0  0  0  0
 46 51  1  0  0  0  0
 47 65  1  0  0  0  0
 48 51  1  0  0  0  0
 48 65  1  0  0  0  0
 49 70  1  0  0  0  0
 50 64  1  0  0  0  0
 51 63  1  0  0  0  0
 52 60  1  0  0  0  0
 53 61  1  0  0  0  0
 54 61  1  0  0  0  0
 55 61  1  0  0  0  0
 56 72  1  0  0  0  0
 57 80  1  0  0  0  0
 58 81  1  0  0  0  0
 59 61  1  0  0  0  0
 59 71  1  0  0  0  0
 60 72  1  0  0  0  0
 62 63  1  0  0  0  0
M  CHG  1  72   1
M  ISO  4  39 100  57 101  69 100  80 101
M  END
> <Batch ID>
0103

> <Smiles>
CNC(C)C(=O)NC(C(=O)N1Cc2cc([101O:1][101CH2:1]C(=O)COc3cc(N)c([100NH:0][100C:0](=O)N4CCCC(n5nc(-c6ccc(Oc7ccc(F)cc7F)cc6)c(C(N)=O)c5N)C4)cc3F)ccc2CC1C(=O)NC1CCCc2ccccc21)C(C)(C)C

> <Shape>
0.341

> <Color>
0.129

> <Negative vol penalty>
0.000

$$$$

  -OEChem-04052301053D

 85 94  0     1  0  0  0  0  0999 V2000
  -34.3641  -11.6145   18.6993 C   0  0  0  0  0  0  0  0  0  0  0  0
  -33.7751  -12.8476   18.4385 C   0  0  0  0  0  0  0  0  0  0  0  0
  -24.7841  -28.8613   22.1754 C   0  0  0  0  0  0  0  0  0  0  0  0
  -24.5336  -30.4817   20.4010 C   0  0  0  0  0  0  0  0  0  0  0  0
  -33.6015  -10.4496   18.6261 C   0  0  0  0  0  0  0  0  0  0  0  0
  -32.4233  -12.9163   18.1033 C   0  0  0  0  0  0  0  0  0  0  0  0
  -28.4840  -17.3647   19.5868 C   0  0  0  0  0  0  0  0  0  0  0  0
  -26.6355  -22.3114   20.2002 C   0  0  0  0  0  0  0  0  0  0  0  0
  -27.0767  -22.6153   17.8444 C   0  0  0  0  0  0  0  0  0  0  0  0
  -27.9261  -22.7484   20.4983 C   0  0  0  0  0  0  0  0  0  0  0  0
  -28.3673  -23.0524   18.1424 C   0  0  0  0  0  0  0  0  0  0  0  0
  -24.3788  -29.8178   23.1062 C   0  0  0  0  0  0  0  0  0  0  0  0
  -24.1283  -31.4383   21.3317 C   0  0  0  0  0  0  0  0  0  0  0  0
  -28.0064  -18.4683   18.8814 C   0  0  0  0  0  0  0  0  0  0  0  0
  -21.4757  -31.1929   24.1617 C   0  0  0  0  0  0  0  0  0  0  0  0
  -20.5456  -30.8055   25.1262 C   0  0  0  0  0  0  0  0  0  0  0  0
  -26.0552  -17.2046   18.2373 C   0  0  0  0  0  0  0  0  0  0  0  0
  -22.1299  -31.3421   26.8696 C   0  0  0  0  0  0  0  0  0  0  0  0
  -24.8616  -29.1932   20.8228 C   0  0  0  0  0  0  0  0  0  0  0  0
  -24.4609  -27.3056   19.1543 C   0  0  0  0  0  0  0  0  0  0  0  0
  -32.2374  -10.5050   18.2993 C   0  0  0  0  0  0  0  0  0  0  0  0
  -27.7549  -16.1672   19.6138 C   0  0  0  0  0  0  0  0  0  0  0  0
  -31.6420  -11.7509   18.0244 C   0  0  0  0  0  0  0  0  0  0  0  0
  -26.5245  -16.0880   18.9459 C   0  0  0  0  0  0  0  0  0  0  0  0
  -26.2108  -22.2448   18.8732 C   0  0  0  0  0  0  0  0  0  0  0  0
  -28.7921  -23.1189   19.4694 C   0  0  0  0  0  0  0  0  0  0  0  0
  -24.0509  -31.1063   22.6844 C   0  0  0  0  0  0  0  0  0  0  0  0
  -26.7932  -18.3875   18.2041 C   0  0  0  0  0  0  0  0  0  0  0  0
  -22.7330  -31.6549   24.5511 C   0  0  0  0  0  0  0  0  0  0  0  0
  -20.8727  -30.8801   26.4802 C   0  0  0  0  0  0  0  0  0  0  0  0
  -23.0601  -31.7295   25.9050 C   0  0  0  0  0  0  0  0  0  0  0  0
  -25.2808  -28.2057   19.8609 C   0  0  0  0  0  0  0  0  0  0  0  0
  -25.3330  -26.5869   18.3737 C   0  0  0  0  0  0  0  0  0  0  0  0
  -23.7452  -21.9461   19.3840 C   0  0  0  0  0  0  0  0  0  0  0  0
  -23.0381  -27.1344   19.1995 C   0  0  0  0  0  0  0  0  0  0  0  0
  -28.2950  -13.1896   18.6411 C   0  0  0  0  0  0  0  0  0  0  0  0
  -25.4716  -12.6063   20.1279 C   0  0  0  0  0  0  0  0  0  0  0  0
  -22.4855  -13.8162   21.2532 C   0  0  0  0  0  0  0  0  0  0  0  0
  -30.8318  -24.4952   18.9829 C   0  0  0  0  0  0  0  0  0  0  0  0
  -31.4650   -9.2145   18.1862 C   0  0  0  0  0  0  0  0  0  0  0  0
  -28.2709  -14.9943   20.4014 C   0  0  0  0  0  0  0  0  0  0  0  0
  -25.6936  -14.8319   18.9606 C   0  0  0  0  0  0  0  0  0  0  0  0
  -22.5740  -21.3406   18.6471 C   0  0  0  0  0  0  0  0  0  0  0  0
  -29.9509   -9.4085   18.1909 C   0  0  0  0  0  0  0  0  0  0  0  0
  -23.0507  -21.2891   17.2079 C   0  0  0  0  0  0  0  0  0  0  0  0
  -29.9246  -27.2598   16.6967 C   0  0  0  0  0  0  0  0  0  0  0  0
  -29.5542  -10.5359   17.2431 C   0  0  0  0  0  0  0  0  0  0  0  0
  -28.5980  -27.7536   17.2710 C   0  0  0  0  0  0  0  0  0  0  0  0
  -30.8181  -26.6540   17.7748 C   0  0  0  0  0  0  0  0  0  0  0  0
  -28.8289  -26.0538   19.1255 C   0  0  0  0  0  0  0  0  0  0  0  0
  -30.1727  -11.8688   17.6818 C   0  0  1  0  0  0  0  0  0  0  0  0
  -27.6941  -13.6611   19.9351 C   0  0  1  0  0  0  0  0  0  0  0  0
  -27.8942  -26.6318   18.0523 C   0  0  1  0  0  0  0  0  0  0  0  0
  -24.5569  -21.0883   17.3325 C   0  0  2  0  0  0  0  0  0  0  0  0
  -20.3703  -13.0922   22.3928 C   0  0  0  0  0  0  0  0  0  0  0  0
  -24.5064  -11.3388   17.5257 C   0  0  0  0  0  0  0  0  0  0  0  0
  -22.1642  -11.5057   18.3945 C   0  0  0  0  0  0  0  0  0  0  0  0
  -23.8417  -10.1044   19.5967 C   0  0  0  0  0  0  0  0  0  0  0  0
  -30.8736  -22.8496   20.8055 C   0  0  0  0  0  0  0  0  0  0  0  0
  -22.9620  -15.6288   23.5437 C   0  0  0  0  0  0  0  0  0  0  0  0
  -24.9086  -19.6009   17.4093 C   0  0  0  0  0  0  0  0  0  1  0  0
  -24.0206  -12.6237   19.7118 C   0  0  1  0  0  0  0  0  0  0  0  0
  -21.7701  -13.6555   22.5824 C   0  0  2  0  0  0  0  0  0  0  0  0
  -23.6496  -11.4163   18.8051 C   0  0  0  0  0  0  0  0  0  0  0  0
  -26.5744  -28.0729   19.5563 N   0  0  0  0  0  0  0  0  0  0  0  0
  -26.5740  -27.0808   18.6497 N   0  0  0  0  0  0  0  0  0  0  0  0
  -24.8859  -21.7957   18.5670 N   0  0  0  0  0  0  0  0  0  0  0  0
  -26.2438  -13.7102   19.7395 N   0  0  0  0  0  0  0  0  0  0  0  0
  -30.1156  -25.6299   18.5497 N   0  0  0  0  0  0  0  0  0  0  0  0
  -25.1518  -25.5869   17.4852 N   0  0  0  0  0  0  0  0  0  0  0  0
  -22.2931  -27.9562   20.0562 N   0  0  0  0  0  0  0  0  0  0  0  0
  -29.4358  -12.4255   18.7961 N   0  0  0  0  0  0  0  0  0  0  0  0
  -23.2436  -12.7068   20.9438 N   0  0  0  0  0  0  0  0  0  0  0  0
  -30.1269  -23.5709   19.7773 N   0  0  0  0  0  0  0  0  0  0  0  0
  -21.6576  -14.9715   23.2726 N   0  3  0  0  0  0  0  0  0  0  0  0
  -23.6313  -22.4299   20.5010 O   0  0  0  0  0  0  0  0  0  0  0  0
  -22.4467  -26.2669   18.5130 O   0  0  0  0  0  0  0  0  0  0  0  0
  -27.7621  -13.4952   17.5808 O   0  0  0  0  0  0  0  0  0  0  0  0
  -25.9023  -11.6518   20.7800 O   0  0  0  0  0  0  0  0  0  0  0  0
  -22.3794  -14.8236   20.5571 O   0  0  0  0  0  0  0  0  0  0  0  0
  -32.0325  -24.3422   18.7271 O   0  0  0  0  0  0  0  0  0  0  0  0
  -23.6551  -32.0399   23.5923 O   0  0  0  0  0  0  0  0  0  0  0  0
  -26.3250  -19.4630   17.5142 O   0  0  0  0  0  0  0  0  0  1  0  0
  -19.9788  -30.5095   27.4064 F   0  0  0  0  0  0  0  0  0  0  0  0
  -24.2659  -32.1736   26.2852 F   0  0  0  0  0  0  0  0  0  0  0  0
  1  2  1  0  0  0  0
  1  5  2  0  0  0  0
  2  6  2  0  0  0  0
  3 12  2  0  0  0  0
  3 19  1  0  0  0  0
  4 13  1  0  0  0  0
  4 19  2  0  0  0  0
  5 21  1  0  0  0  0
  6 23  1  0  0  0  0
  7 14  2  0  0  0  0
  7 22  1  0  0  0  0
  8 10  2  0  0  0  0
  8 25  1  0  0  0  0
  9 11  1  0  0  0  0
  9 25  2  0  0  0  0
 10 26  1  0  0  0  0
 11 26  2  0  0  0  0
 12 27  1  0  0  0  0
 13 27  2  0  0  0  0
 14 28  1  0  0  0  0
 15 16  2  0  0  0  0
 15 29  1  0  0  0  0
 16 30  1  0  0  0  0
 17 24  1  0  0  0  0
 17 28  2  0  0  0  0
 18 30  2  0  0  0  0
 18 31  1  0  0  0  0
 19 32  1  0  0  0  0
 20 32  1  0  0  0  0
 20 33  2  0  0  0  0
 20 35  1  0  0  0  0
 21 23  2  0  0  0  0
 21 40  1  0  0  0  0
 22 24  2  0  0  0  0
 22 41  1  0  0  0  0
 23 51  1  0  0  0  0
 24 42  1  0  0  0  0
 25 67  1  0  0  0  0
 26 74  1  0  0  0  0
 27 82  1  0  0  0  0
 28 83  1  0  0  0  0
 29 31  2  0  0  0  0
 29 82  1  0  0  0  0
 30 84  1  0  0  0  0
 31 85  1  0  0  0  0
 32 65  2  0  0  0  0
 33 66  1  0  0  0  0
 33 70  1  0  0  0  0
 34 43  1  0  0  0  0
 34 67  1  0  0  0  0
 34 76  2  0  0  0  0
 35 71  1  0  0  0  0
 35 77  2  0  0  0  0
 36 52  1  0  0  0  0
 36 72  1  0  0  0  0
 36 78  2  0  0  0  0
 37 62  1  0  0  0  0
 37 68  1  0  0  0  0
 37 79  2  0  0  0  0
 38 63  1  0  0  0  0
 38 73  1  0  0  0  0
 38 80  2  0  0  0  0
 39 69  1  0  0  0  0
 39 74  1  0  0  0  0
 39 81  2  0  0  0  0
 40 44  1  0  0  0  0
 41 52  1  0  0  0  0
 42 68  1  0  0  0  0
 43 45  1  0  0  0  0
 44 47  1  0  0  0  0
 45 54  1  0  0  0  0
 46 48  1  0  0  0  0
 46 49  1  0  0  0  0
 47 51  1  0  0  0  0
 48 53  1  0  0  0  0
 49 69  1  0  0  0  0
 50 53  1  0  0  0  0
 50 69  1  0  0  0  0
 51 72  1  0  0  0  0
 52 68  1  0  0  0  0
 53 66  1  0  0  0  0
 54 61  1  0  0  0  0
 54 67  1  0  0  0  0
 55 63  1  0  0  0  0
 56 64  1  0  0  0  0
 57 64  1  0  0  0  0
 58 64  1  0  0  0  0
 59 74  1  0  0  0  0
 60 75  1  0  0  0  0
 61 83  1  0  0  0  0
 62 64  1  0  0  0  0
 62 73  1  0  0  0  0
 63 75  1  0  0  0  0
 65 66  1  0  0  0  0
M  CHG  1  75   1
M  ISO  4  39 100  61 101  74 100  83 101
M  END
> <Batch ID>
0103

> <Smiles>
CNC(C)C(=O)NC(C(=O)N1Cc2cc([101O:1][101CH2:1]C3CCC(=O)N3c3ccc([100N:0](C)[100C:0](=O)N4CCCC(n5nc(-c6ccc(Oc7ccc(F)cc7F)cc6)c(C(N)=O)c5N)C4)cc3)ccc2CC1C(=O)NC1CCCc2ccccc21)C(C)(C)C

> <Shape>
0.222

> <Color>
0.071

> <Negative vol penalty>
0.000

$$$$

  -OEChem-04052301053D

 89 98  0     1  0  0  0  0  0999 V2000
  -19.0899  -33.6990   20.8815 C   0  0  0  0  0  0  0  0  0  0  0  0
  -20.4448  -33.4462   20.6927 C   0  0  0  0  0  0  0  0  0  0  0  0
  -28.1164  -12.3089   20.1306 C   0  0  0  0  0  0  0  0  0  0  0  0
  -26.0008  -13.4755   20.1242 C   0  0  0  0  0  0  0  0  0  0  0  0
  -18.3600  -32.9365   21.7925 C   0  0  0  0  0  0  0  0  0  0  0  0
  -21.0710  -32.4315   21.4157 C   0  0  0  0  0  0  0  0  0  0  0  0
  -25.5968  -28.7871   19.4813 C   0  0  0  0  0  0  0  0  0  0  0  0
  -27.4465  -11.0931   19.9945 C   0  0  0  0  0  0  0  0  0  0  0  0
  -25.3308  -12.2597   19.9881 C   0  0  0  0  0  0  0  0  0  0  0  0
  -26.9779  -28.8276   19.6669 C   0  0  0  0  0  0  0  0  0  0  0  0
  -24.4149   -9.6836   21.9770 C   0  0  0  0  0  0  0  0  0  0  0  0
  -23.2967   -9.4662   22.7819 C   0  0  0  0  0  0  0  0  0  0  0  0
  -31.8651  -24.3294   21.6904 C   0  0  0  0  0  0  0  0  0  0  0  0
  -33.8694  -24.1591   20.3523 C   0  0  0  0  0  0  0  0  0  0  0  0
  -26.7694  -27.2857   21.5103 C   0  0  0  0  0  0  0  0  0  0  0  0
  -32.2927  -22.3293   20.4044 C   0  0  0  0  0  0  0  0  0  0  0  0
  -21.9251   -9.2157   20.8087 C   0  0  0  0  0  0  0  0  0  0  0  0
  -27.3936  -13.5001   20.1955 C   0  0  0  0  0  0  0  0  0  0  0  0
  -33.0587  -24.8826   21.2270 C   0  0  0  0  0  0  0  0  0  0  0  0
  -29.0328  -15.3088   19.4545 C   0  0  0  0  0  0  0  0  0  0  0  0
  -18.9754  -31.9055   22.5199 C   0  0  0  0  0  0  0  0  0  0  0  0
  -24.7890  -28.0028   20.3171 C   0  0  0  0  0  0  0  0  0  0  0  0
  -20.3490  -31.6554   22.3382 C   0  0  0  0  0  0  0  0  0  0  0  0
  -25.3785  -27.2350   21.3316 C   0  0  0  0  0  0  0  0  0  0  0  0
  -26.0536  -11.0685   19.9232 C   0  0  0  0  0  0  0  0  0  0  0  0
  -27.5642  -28.0791   20.6833 C   0  0  0  0  0  0  0  0  0  0  0  0
  -24.2883   -9.6671   20.5879 C   0  0  0  0  0  0  0  0  0  0  0  0
  -31.4821  -23.0527   21.2791 C   0  0  0  0  0  0  0  0  0  0  0  0
  -22.0518   -9.2323   22.1978 C   0  0  0  0  0  0  0  0  0  0  0  0
  -33.4864  -22.8825   19.9410 C   0  0  0  0  0  0  0  0  0  0  0  0
  -23.0434   -9.4331   20.0038 C   0  0  0  0  0  0  0  0  0  0  0  0
  -28.0851  -14.7563   20.3367 C   0  0  0  0  0  0  0  0  0  0  0  0
  -29.3863  -16.5028   20.0340 C   0  0  0  0  0  0  0  0  0  0  0  0
  -31.6840  -27.4510   20.2765 C   0  0  0  0  0  0  0  0  0  0  0  0
  -33.4630  -26.2292   21.6608 C   0  0  0  0  0  0  0  0  0  0  0  0
  -29.5476  -14.7892   18.2213 C   0  0  0  0  0  0  0  0  0  0  0  0
  -22.4277  -28.6007   22.3594 C   0  0  0  0  0  0  0  0  0  0  0  0
  -27.8949  -21.2516   22.5864 C   0  0  0  0  0  0  0  0  0  0  0  0
  -22.2543  -25.3646   22.5020 C   0  0  0  0  0  0  0  0  0  0  0  0
  -23.8207  -22.3589   22.1032 C   0  0  0  0  0  0  0  0  0  0  0  0
  -18.1561  -31.1393   23.5280 C   0  0  0  0  0  0  0  0  0  0  0  0
  -23.3035  -27.9491   20.0869 C   0  0  0  0  0  0  0  0  0  0  0  0
  -24.5577  -26.3610   22.2432 C   0  0  0  0  0  0  0  0  0  0  0  0
  -18.8097  -29.8359   23.9799 C   0  0  0  0  0  0  0  0  0  0  0  0
  -28.4164  -18.3557   24.6313 C   0  0  0  0  0  0  0  0  0  0  0  0
  -20.2801  -30.0645   24.3156 C   0  0  0  0  0  0  0  0  0  0  0  0
  -28.4242  -17.2038   23.6271 C   0  0  0  0  0  0  0  0  0  0  0  0
  -31.4036  -29.2576   21.8048 C   0  0  0  0  0  0  0  0  0  0  0  0
  -27.4379  -19.4504   24.2176 C   0  0  0  0  0  0  0  0  0  0  0  0
  -32.6904  -28.5285   22.1181 C   0  0  0  0  0  0  0  0  0  0  0  0
  -27.6756  -18.8315   21.8339 C   0  0  0  0  0  0  0  0  0  0  0  0
  -21.0583  -30.5470   23.0855 C   0  0  1  0  0  0  0  0  0  0  0  0
  -31.1322  -28.8642   20.3576 C   0  0  2  0  0  0  0  0  0  0  0  0
  -22.5224  -27.5162   21.3237 C   0  0  1  0  0  0  0  0  0  0  0  0
  -28.6735  -17.7179   22.1981 C   0  0  2  0  0  0  0  0  0  0  0  0
  -23.4333  -19.8901   22.3316 C   0  0  0  0  0  0  0  0  0  0  0  0
  -22.4897  -25.6106   25.5341 C   0  0  0  0  0  0  0  0  0  0  0  0
  -23.0494  -23.1718   25.6187 C   0  0  0  0  0  0  0  0  0  0  0  0
  -20.8306  -23.9110   24.7510 C   0  0  0  0  0  0  0  0  0  0  0  0
  -24.3347  -21.8947   19.2259 C   0  0  0  0  0  0  0  0  0  0  0  0
  -28.1562  -21.6332   21.1511 C   0  0  0  0  0  0  0  0  0  0  0  0
  -29.6649  -28.9456   19.9820 C   0  0  0  0  0  0  0  0  0  1  0  0
  -29.6473  -21.5970   20.8665 C   0  0  0  0  0  0  0  0  0  0  0  0
  -22.8999  -24.2958   23.3503 C   0  0  1  0  0  0  0  0  0  0  0  0
  -23.3935  -21.0867   21.3938 C   0  0  2  0  0  0  0  0  0  0  0  0
  -22.3329  -24.2651   24.7978 C   0  0  0  0  0  0  0  0  0  0  0  0
  -27.8514  -15.5353   21.3962 N   0  0  0  0  0  0  0  0  0  0  0  0
  -28.6574  -16.5894   21.1836 N   0  0  0  0  0  0  0  0  0  0  0  0
  -32.6001  -27.2968   21.3573 N   0  0  0  0  0  0  0  0  0  0  0  0
  -23.1089  -26.3471   21.9820 N   0  0  0  0  0  0  0  0  0  0  0  0
  -27.6934  -19.8960   22.8468 N   0  0  0  0  0  0  0  0  0  0  0  0
  -30.2464  -17.4766   19.6675 N   0  0  0  0  0  0  0  0  0  0  0  0
  -28.8836  -15.1139   17.0305 N   0  0  0  0  0  0  0  0  0  0  0  0
  -21.3405  -29.4383   22.1992 N   0  0  0  0  0  0  0  0  0  0  0  0
  -22.7407  -23.0431   22.6196 N   0  0  0  0  0  0  0  0  0  0  0  0
  -24.2947  -20.8096   20.2397 N   0  3  0  0  0  0  0  0  0  0  0  0
  -31.4045  -26.6505   19.3956 O   0  0  0  0  0  0  0  0  0  0  0  0
  -34.5416  -26.3401   22.2410 O   0  0  0  0  0  0  0  0  0  0  0  0
  -30.5567  -14.0453   18.1783 O   0  0  0  0  0  0  0  0  0  0  0  0
  -23.2774  -28.6713   23.2397 O   0  0  0  0  0  0  0  0  0  0  0  0
  -27.8739  -22.1331   23.4494 O   0  0  0  0  0  0  0  0  0  0  0  0
  -21.0377  -25.3252   22.3019 O   0  0  0  0  0  0  0  0  0  0  0  0
  -24.9954  -22.7088   22.1937 O   0  0  0  0  0  0  0  0  0  0  0  0
  -25.3996   -9.8823   19.7902 O   0  0  0  0  0  0  0  0  0  0  0  0
  -28.9120  -28.1173   20.8671 O   0  0  0  0  0  0  0  0  0  1  0  0
  -30.3170  -22.5134   21.7310 O   0  0  0  0  0  0  0  0  0  0  0  0
  -20.9783   -9.0220   22.9708 F   0  0  0  0  0  0  0  0  0  0  0  0
  -34.2649  -22.1874   19.1014 F   0  0  0  0  0  0  0  0  0  0  0  0
  -22.9157   -9.4149   18.6699 F   0  0  0  0  0  0  0  0  0  0  0  0
  1  2  1  0  0  0  0
  1  5  2  0  0  0  0
  2  6  2  0  0  0  0
  3  8  2  0  0  0  0
  3 18  1  0  0  0  0
  4  9  1  0  0  0  0
  4 18  2  0  0  0  0
  5 21  1  0  0  0  0
  6 23  1  0  0  0  0
  7 10  2  0  0  0  0
  7 22  1  0  0  0  0
  8 25  1  0  0  0  0
  9 25  2  0  0  0  0
 10 26  1  0  0  0  0
 11 12  2  0  0  0  0
 11 27  1  0  0  0  0
 12 29  1  0  0  0  0
 13 19  2  0  0  0  0
 13 28  1  0  0  0  0
 14 19  1  0  0  0  0
 14 30  2  0  0  0  0
 15 24  1  0  0  0  0
 15 26  2  0  0  0  0
 16 28  2  0  0  0  0
 16 30  1  0  0  0  0
 17 29  2  0  0  0  0
 17 31  1  0  0  0  0
 18 32  1  0  0  0  0
 19 35  1  0  0  0  0
 20 32  1  0  0  0  0
 20 33  2  0  0  0  0
 20 36  1  0  0  0  0
 21 23  2  0  0  0  0
 21 41  1  0  0  0  0
 22 24  2  0  0  0  0
 22 42  1  0  0  0  0
 23 52  1  0  0  0  0
 24 43  1  0  0  0  0
 25 84  1  0  0  0  0
 26 85  1  0  0  0  0
 27 31  2  0  0  0  0
 27 84  1  0  0  0  0
 28 86  1  0  0  0  0
 29 87  1  0  0  0  0
 30 88  1  0  0  0  0
 31 89  1  0  0  0  0
 32 67  2  0  0  0  0
 33 68  1  0  0  0  0
 33 72  1  0  0  0  0
 34 53  1  0  0  0  0
 34 69  1  0  0  0  0
 34 77  2  0  0  0  0
 35 69  1  0  0  0  0
 35 78  2  0  0  0  0
 36 73  1  0  0  0  0
 36 79  2  0  0  0  0
 37 54  1  0  0  0  0
 37 74  1  0  0  0  0
 37 80  2  0  0  0  0
 38 61  1  0  0  0  0
 38 71  1  0  0  0  0
 38 81  2  0  0  0  0
 39 64  1  0  0  0  0
 39 70  1  0  0  0  0
 39 82  2  0  0  0  0
 40 65  1  0  0  0  0
 40 75  1  0  0  0  0
 40 83  2  0  0  0  0
 41 44  1  0  0  0  0
 42 54  1  0  0  0  0
 43 70  1  0  0  0  0
 44 46  1  0  0  0  0
 45 47  1  0  0  0  0
 45 49  1  0  0  0  0
 46 52  1  0  0  0  0
 47 55  1  0  0  0  0
 48 50  1  0  0  0  0
 48 53  1  0  0  0  0
 49 71  1  0  0  0  0
 50 69  1  0  0  0  0
 51 55  1  0  0  0  0
 51 71  1  0  0  0  0
 52 74  1  0  0  0  0
 53 62  1  0  0  0  0
 54 70  1  0  0  0  0
 55 68  1  0  0  0  0
 56 65  1  0  0  0  0
 57 66  1  0  0  0  0
 58 66  1  0  0  0  0
 59 66  1  0  0  0  0
 60 76  1  0  0  0  0
 61 63  1  0  0  0  0
 62 85  1  0  0  0  0
 63 86  1  0  0  0  0
 64 66  1  0  0  0  0
 64 75  1  0  0  0  0
 65 76  1  0  0  0  0
 67 68  1  0  0  0  0
M  CHG  1  76   1
M  ISO  4  38 100  61 100  62 101  85 101
M  END
> <Batch ID>
0103

> <Smiles>
CNC(C)C(=O)NC(C(=O)N1Cc2cc([101O:1][101CH2:1]C3CCN(C(=O)c4cc(F)cc(OC[100CH2:0][100C:0](=O)N5CCCC(n6nc(-c7ccc(Oc8ccc(F)cc8F)cc7)c(C(N)=O)c6N)C5)c4)C3=O)ccc2CC1C(=O)NC1CCCc2ccccc21)C(C)(C)C

> <Shape>
0.197

> <Color>
0.092

> <Negative vol penalty>
0.000

$$$$

  -OEChem-04052301053D

 84 92  0     1  0  0  0  0  0999 V2000
  -31.9677  -18.1865   19.5296 C   0  0  0  0  0  0  0  0  0  0  0  0
  -31.5088  -17.4893   20.6414 C   0  0  0  0  0  0  0  0  0  0  0  0
  -26.6887  -29.7545   19.2968 C   0  0  0  0  0  0  0  0  0  0  0  0
  -26.2705  -29.0525   21.5704 C   0  0  0  0  0  0  0  0  0  0  0  0
  -27.2355  -20.6078   24.9700 C   0  0  0  0  0  0  0  0  0  0  0  0
  -31.1690  -18.2802   18.3919 C   0  0  0  0  0  0  0  0  0  0  0  0
  -30.2560  -16.8755   20.6117 C   0  0  0  0  0  0  0  0  0  0  0  0
  -29.0677  -14.0342   24.4481 C   0  0  0  0  0  0  0  0  0  0  0  0
  -27.8336  -21.4635   24.0450 C   0  0  0  0  0  0  0  0  0  0  0  0
  -25.5406  -30.5459   19.3299 C   0  0  0  0  0  0  0  0  0  0  0  0
  -25.1223  -29.8439   21.6036 C   0  0  0  0  0  0  0  0  0  0  0  0
  -28.7604  -14.5542   25.7046 C   0  0  0  0  0  0  0  0  0  0  0  0
  -22.5221  -32.4714   18.6942 C   0  0  0  0  0  0  0  0  0  0  0  0
  -21.6667  -32.4222   17.5935 C   0  0  0  0  0  0  0  0  0  0  0  0
  -26.4170  -14.1633   25.2866 C   0  0  0  0  0  0  0  0  0  0  0  0
  -27.7322  -19.7246   22.3707 C   0  0  0  0  0  0  0  0  0  0  0  0
  -21.3437  -30.0547   17.9504 C   0  0  0  0  0  0  0  0  0  0  0  0
  -27.0537  -29.0078   20.4171 C   0  0  0  0  0  0  0  0  0  0  0  0
  -26.8858  -19.3104   24.5954 C   0  0  0  0  0  0  0  0  0  0  0  0
  -29.5460  -28.5714   20.7418 C   0  0  0  0  0  0  0  0  0  0  0  0
  -29.9008  -17.6776   18.3535 C   0  0  0  0  0  0  0  0  0  0  0  0
  -28.0493  -13.5841   23.5956 C   0  0  0  0  0  0  0  0  0  0  0  0
  -29.4450  -16.9385   19.4641 C   0  0  0  0  0  0  0  0  0  0  0  0
  -26.7142  -13.6356   24.0208 C   0  0  0  0  0  0  0  0  0  0  0  0
  -28.0820  -21.0220   22.7454 C   0  0  0  0  0  0  0  0  0  0  0  0
  -24.7574  -30.5906   20.4833 C   0  0  0  0  0  0  0  0  0  0  0  0
  -27.4347  -14.6216   26.1229 C   0  0  0  0  0  0  0  0  0  0  0  0
  -22.7883  -31.3122   19.4230 C   0  0  0  0  0  0  0  0  0  0  0  0
  -21.0775  -31.2139   17.2217 C   0  0  0  0  0  0  0  0  0  0  0  0
  -27.1341  -18.8689   23.2958 C   0  0  0  0  0  0  0  0  0  0  0  0
  -22.1991  -30.1039   19.0511 C   0  0  0  0  0  0  0  0  0  0  0  0
  -28.2393  -28.1897   20.3833 C   0  0  0  0  0  0  0  0  0  0  0  0
  -30.3023  -27.4439   20.5337 C   0  0  0  0  0  0  0  0  0  0  0  0
  -26.2516  -18.4016   25.5848 C   0  0  0  0  0  0  0  0  0  0  0  0
  -30.0326  -29.8324   21.2202 C   0  0  0  0  0  0  0  0  0  0  0  0
  -26.9992  -14.4258   20.7159 C   0  0  0  0  0  0  0  0  0  0  0  0
  -25.1169  -11.8072   21.0655 C   0  0  0  0  0  0  0  0  0  0  0  0
  -23.5850   -9.6004   23.1703 C   0  0  0  0  0  0  0  0  0  0  0  0
  -29.0052  -21.6113   20.4768 C   0  0  0  0  0  0  0  0  0  0  0  0
  -29.0811  -17.8038   17.0936 C   0  0  0  0  0  0  0  0  0  0  0  0
  -28.3995  -13.0011   22.2540 C   0  0  0  0  0  0  0  0  0  0  0  0
  -25.5856  -13.1468   23.1515 C   0  0  0  0  0  0  0  0  0  0  0  0
  -27.6020  -17.5044   17.3141 C   0  0  0  0  0  0  0  0  0  0  0  0
  -30.4700  -23.4929   17.8327 C   0  0  0  0  0  0  0  0  0  0  0  0
  -27.4440  -16.1935   18.0700 C   0  0  0  0  0  0  0  0  0  0  0  0
  -30.1884  -24.9458   18.2224 C   0  0  0  0  0  0  0  0  0  0  0  0
  -29.3102  -22.5709   18.2050 C   0  0  0  0  0  0  0  0  0  0  0  0
  -28.5963  -24.1047   19.9957 C   0  0  0  0  0  0  0  0  0  0  0  0
  -28.0731  -16.2888   19.4657 C   0  0  1  0  0  0  0  0  0  0  0  0
  -27.2414  -13.0470   21.2619 C   0  0  1  0  0  0  0  0  0  0  0  0
  -29.7632  -25.0608   19.6994 C   0  0  2  0  0  0  0  0  0  0  0  0
  -22.0831   -7.5900   23.1635 C   0  0  0  0  0  0  0  0  0  0  0  0
  -22.7247  -13.5995   20.4532 C   0  0  0  0  0  0  0  0  0  0  0  0
  -21.2366  -11.8113   21.3786 C   0  0  0  0  0  0  0  0  0  0  0  0
  -22.6436  -11.3459   19.3720 C   0  0  0  0  0  0  0  0  0  0  0  0
  -25.6333   -7.9214   24.4911 C   0  0  0  0  0  0  0  0  0  0  0  0
  -27.1981  -17.0774   28.7484 C   0  0  0  0  0  0  0  0  0  0  0  0
  -26.0913  -17.7916   27.9844 C   0  0  0  0  0  0  0  0  0  0  0  0
  -28.0063  -16.1283   27.8719 C   0  0  0  0  0  0  0  0  0  1  0  0
  -23.7451  -11.5455   21.6388 C   0  0  1  0  0  0  0  0  0  0  0  0
  -23.5215   -8.0837   23.1671 C   0  0  2  0  0  0  0  0  0  0  0  0
  -22.6084  -12.0866   20.7265 C   0  0  0  0  0  0  0  0  0  0  0  0
  -28.1661  -26.9190   19.9781 N   0  0  0  0  0  0  0  0  0  0  0  0
  -29.4364  -26.4926   20.0806 N   0  0  0  0  0  0  0  0  0  0  0  0
  -25.9784  -12.5911   21.8459 N   0  0  0  0  0  0  0  0  0  0  0  0
  -28.9655  -22.7311   19.6193 N   0  0  0  0  0  0  0  0  0  0  0  0
  -31.6170  -27.1835   20.6959 N   0  0  0  0  0  0  0  0  0  0  0  0
  -29.1204  -30.8848   21.3765 N   0  0  0  0  0  0  0  0  0  0  0  0
  -28.6895  -21.8914   21.8059 N   0  0  0  0  0  0  0  0  0  0  0  0
  -26.6016  -18.6042   26.9150 N   0  0  0  0  0  0  0  0  0  0  0  0
  -28.0894  -14.9734   20.0670 N   0  0  0  0  0  0  0  0  0  0  0  0
  -23.6757  -10.1105   21.8925 N   0  0  0  0  0  0  0  0  0  0  0  0
  -24.2039   -7.5341   24.3726 N   0  3  0  0  0  0  0  0  0  0  0  0
  -25.4858  -17.5260   25.1905 O   0  0  0  0  0  0  0  0  0  0  0  0
  -31.2435  -30.0250   21.4851 O   0  0  0  0  0  0  0  0  0  0  0  0
  -25.9039  -14.9530   20.8705 O   0  0  0  0  0  0  0  0  0  0  0  0
  -25.4156  -11.3276   19.9690 O   0  0  0  0  0  0  0  0  0  0  0  0
  -23.5533  -10.2662   24.2029 O   0  0  0  0  0  0  0  0  0  0  0  0
  -29.3243  -20.4919   20.0680 O   0  0  0  0  0  0  0  0  0  0  0  0
  -23.6371  -31.3629   20.5160 O   0  0  0  0  0  0  0  0  0  0  0  0
  -27.1319  -15.1293   27.3486 O   0  0  0  0  0  0  0  0  0  1  0  0
  -20.2549  -31.1671   16.1656 F   0  0  0  0  0  0  0  0  0  0  0  0
  -26.8026  -17.6239   22.9247 F   0  0  0  0  0  0  0  0  0  0  0  0
  -22.4501  -28.9872   19.7481 F   0  0  0  0  0  0  0  0  0  0  0  0
  1  2  1  0  0  0  0
  1  6  2  0  0  0  0
  2  7  2  0  0  0  0
  3 10  2  0  0  0  0
  3 18  1  0  0  0  0
  4 11  1  0  0  0  0
  4 18  2  0  0  0  0
  5  9  2  0  0  0  0
  5 19  1  0  0  0  0
  6 21  1  0  0  0  0
  7 23  1  0  0  0  0
  8 12  2  0  0  0  0
  8 22  1  0  0  0  0
  9 25  1  0  0  0  0
 10 26  1  0  0  0  0
 11 26  2  0  0  0  0
 12 27  1  0  0  0  0
 13 14  2  0  0  0  0
 13 28  1  0  0  0  0
 14 29  1  0  0  0  0
 15 24  1  0  0  0  0
 15 27  2  0  0  0  0
 16 25  2  0  0  0  0
 16 30  1  0  0  0  0
 17 29  2  0  0  0  0
 17 31  1  0  0  0  0
 18 32  1  0  0  0  0
 19 30  2  0  0  0  0
 19 34  1  0  0  0  0
 20 32  1  0  0  0  0
 20 33  2  0  0  0  0
 20 35  1  0  0  0  0
 21 23  2  0  0  0  0
 21 40  1  0  0  0  0
 22 24  2  0  0  0  0
 22 41  1  0  0  0  0
 23 49  1  0  0  0  0
 24 42  1  0  0  0  0
 25 69  1  0  0  0  0
 26 80  1  0  0  0  0
 27 81  1  0  0  0  0
 28 31  2  0  0  0  0
 28 80  1  0  0  0  0
 29 82  1  0  0  0  0
 30 83  1  0  0  0  0
 31 84  1  0  0  0  0
 32 63  2  0  0  0  0
 33 64  1  0  0  0  0
 33 67  1  0  0  0  0
 34 70  1  0  0  0  0
 34 74  2  0  0  0  0
 35 68  1  0  0  0  0
 35 75  2  0  0  0  0
 36 50  1  0  0  0  0
 36 71  1  0  0  0  0
 36 76  2  0  0  0  0
 37 60  1  0  0  0  0
 37 65  1  0  0  0  0
 37 77  2  0  0  0  0
 38 61  1  0  0  0  0
 38 72  1  0  0  0  0
 38 78  2  0  0  0  0
 39 66  1  0  0  0  0
 39 69  1  0  0  0  0
 39 79  2  0  0  0  0
 40 43  1  0  0  0  0
 41 50  1  0  0  0  0
 42 65  1  0  0  0  0
 43 45  1  0  0  0  0
 44 46  1  0  0  0  0
 44 47  1  0  0  0  0
 45 49  1  0  0  0  0
 46 51  1  0  0  0  0
 47 66  1  0  0  0  0
 48 51  1  0  0  0  0
 48 66  1  0  0  0  0
 49 71  1  0  0  0  0
 50 65  1  0  0  0  0
 51 64  1  0  0  0  0
 52 61  1  0  0  0  0
 53 62  1  0  0  0  0
 54 62  1  0  0  0  0
 55 62  1  0  0  0  0
 56 73  1  0  0  0  0
 57 58  1  0  0  0  0
 57 59  1  0  0  0  0
 58 70  1  0  0  0  0
 59 81  1  0  0  0  0
 60 62  1  0  0  0  0
 60 72  1  0  0  0  0
 61 73  1  0  0  0  0
 63 64  1  0  0  0  0
M  CHG  1  73   1
M  ISO  4  39 100  59 101  69 100  81 101
M  END
> <Batch ID>
0103

> <Smiles>
CNC(C)C(=O)NC(C(=O)N1Cc2cc([101O:1][101CH2:1]CCNC(=O)c3ccc([100NH:0][100C:0](=O)N4CCCC(n5nc(-c6ccc(Oc7ccc(F)cc7F)cc6)c(C(N)=O)c5N)C4)cc3F)ccc2CC1C(=O)NC1CCCc2ccccc21)C(C)(C)C

> <Shape>
0.227

> <Color>
0.061

> <Negative vol penalty>
0.000

$$$$

  -OEChem-04052301053D

 82 90  0     1  0  0  0  0  0999 V2000
  -24.2065   -6.7418   23.9062 C   0  0  0  0  0  0  0  0  0  0  0  0
  -25.3780   -7.4862   23.8121 C   0  0  0  0  0  0  0  0  0  0  0  0
  -23.7693  -33.1014   22.1176 C   0  0  0  0  0  0  0  0  0  0  0  0
  -25.7478  -32.3325   23.2715 C   0  0  0  0  0  0  0  0  0  0  0  0
  -23.1209   -7.0460   23.0860 C   0  0  0  0  0  0  0  0  0  0  0  0
  -25.4650   -8.5345   22.8968 C   0  0  0  0  0  0  0  0  0  0  0  0
  -28.4907  -14.9727   22.0531 C   0  0  0  0  0  0  0  0  0  0  0  0
  -27.6724  -23.4196   19.8538 C   0  0  0  0  0  0  0  0  0  0  0  0
  -23.8009  -34.2863   22.8529 C   0  0  0  0  0  0  0  0  0  0  0  0
  -25.7794  -33.5174   24.0068 C   0  0  0  0  0  0  0  0  0  0  0  0
  -29.2749  -15.6836   21.1458 C   0  0  0  0  0  0  0  0  0  0  0  0
  -28.6649  -22.4519   19.6989 C   0  0  0  0  0  0  0  0  0  0  0  0
  -25.5102  -37.2033   22.8042 C   0  0  0  0  0  0  0  0  0  0  0  0
  -25.3127  -38.3996   22.1146 C   0  0  0  0  0  0  0  0  0  0  0  0
  -27.3083  -16.1689   19.8356 C   0  0  0  0  0  0  0  0  0  0  0  0
  -26.4189  -21.9089   21.2622 C   0  0  0  0  0  0  0  0  0  0  0  0
  -23.3737  -38.8656   23.4786 C   0  0  0  0  0  0  0  0  0  0  0  0
  -24.7427  -32.1245   22.3269 C   0  0  0  0  0  0  0  0  0  0  0  0
  -25.3345  -30.6496   20.3313 C   0  0  0  0  0  0  0  0  0  0  0  0
  -23.1912   -8.1048   22.1669 C   0  0  0  0  0  0  0  0  0  0  0  0
  -27.1087  -14.8450   21.8524 C   0  0  0  0  0  0  0  0  0  0  0  0
  -24.3797   -8.8523   22.0625 C   0  0  0  0  0  0  0  0  0  0  0  0
  -26.5084  -15.4579   20.7433 C   0  0  0  0  0  0  0  0  0  0  0  0
  -26.5494  -23.1482   20.6355 C   0  0  0  0  0  0  0  0  0  0  0  0
  -27.4114  -20.9410   21.1073 C   0  0  0  0  0  0  0  0  0  0  0  0
  -24.8060  -34.4943   23.7975 C   0  0  0  0  0  0  0  0  0  0  0  0
  -28.6842  -16.2794   20.0353 C   0  0  0  0  0  0  0  0  0  0  0  0
  -28.5344  -21.2126   20.3256 C   0  0  0  0  0  0  0  0  0  0  0  0
  -24.6394  -36.8381   23.8308 C   0  0  0  0  0  0  0  0  0  0  0  0
  -24.2445  -39.2308   22.4518 C   0  0  0  0  0  0  0  0  0  0  0  0
  -23.5712  -37.6693   24.1681 C   0  0  0  0  0  0  0  0  0  0  0  0
  -24.7103  -30.9001   21.5680 C   0  0  0  0  0  0  0  0  0  0  0  0
  -25.0026  -29.3500   20.0361 C   0  0  0  0  0  0  0  0  0  0  0  0
  -26.1422  -31.5145   19.5218 C   0  0  0  0  0  0  0  0  0  0  0  0
  -25.1268  -12.4056   21.3780 C   0  0  0  0  0  0  0  0  0  0  0  0
  -22.8569  -14.7120   21.6026 C   0  0  0  0  0  0  0  0  0  0  0  0
  -22.0440  -18.0144   21.3188 C   0  0  0  0  0  0  0  0  0  0  0  0
  -24.3653  -24.0251   21.5337 C   0  0  0  0  0  0  0  0  0  0  0  0
  -22.0084   -8.3657   21.2683 C   0  0  0  0  0  0  0  0  0  0  0  0
  -26.2727  -14.0974   22.8547 C   0  0  0  0  0  0  0  0  0  0  0  0
  -25.0260  -15.3676   20.4931 C   0  0  0  0  0  0  0  0  0  0  0  0
  -22.0504   -9.7313   20.5873 C   0  0  0  0  0  0  0  0  0  0  0  0
  -21.6527  -26.2329   22.2004 C   0  0  0  0  0  0  0  0  0  0  0  0
  -23.4340   -9.9931   20.0009 C   0  0  0  0  0  0  0  0  0  0  0  0
  -22.2577  -27.6234   21.9936 C   0  0  0  0  0  0  0  0  0  0  0  0
  -22.6524  -25.2682   22.8358 C   0  0  0  0  0  0  0  0  0  0  0  0
  -24.5490  -26.5586   21.9376 C   0  0  0  0  0  0  0  0  0  0  0  0
  -24.5039  -10.0129   21.0993 C   0  0  1  0  0  0  0  0  0  0  0  0
  -24.9525  -13.5969   22.2769 C   0  0  1  0  0  0  0  0  0  0  0  0
  -23.6003  -27.5474   21.2405 C   0  0  2  0  0  0  0  0  0  0  0  0
  -20.1023  -19.5902   21.5285 C   0  0  0  0  0  0  0  0  0  0  0  0
  -21.7798  -13.7380   18.9191 C   0  0  0  0  0  0  0  0  0  0  0  0
  -20.5007  -15.8822   18.7331 C   0  0  0  0  0  0  0  0  0  0  0  0
  -20.0219  -14.3046   20.6052 C   0  0  0  0  0  0  0  0  0  0  0  0
  -23.3660  -19.5395   23.4834 C   0  0  0  0  0  0  0  0  0  0  0  0
  -30.9300  -18.8497   18.8262 C   0  0  0  0  0  0  0  0  0  0  0  0
  -30.6144  -17.6166   19.6583 C   0  0  0  0  0  0  0  0  0  1  0  0
  -29.7829  -19.8479   18.8308 C   0  0  0  0  0  0  0  0  0  0  0  0
  -22.1711  -15.6359   20.6253 C   0  0  1  0  0  0  0  0  0  0  0  0
  -21.2810  -18.9469   22.2423 C   0  0  2  0  0  0  0  0  0  0  0  0
  -21.1467  -14.8905   19.7241 C   0  0  0  0  0  0  0  0  0  0  0  0
  -24.0329  -29.8443   22.0269 N   0  0  0  0  0  0  0  0  0  0  0  0
  -24.2295  -28.9179   21.0734 N   0  0  0  0  0  0  0  0  0  0  0  0
  -24.2521  -14.6205   21.4983 N   0  0  0  0  0  0  0  0  0  0  0  0
  -23.8982  -25.2453   22.0663 N   0  0  0  0  0  0  0  0  0  0  0  0
  -27.2667  -19.6909   21.7474 N   0  0  0  0  0  0  0  0  0  0  0  0
  -25.2993  -28.5460   18.9930 N   0  0  0  0  0  0  0  0  0  0  0  0
  -26.3846  -32.8188   19.9738 N   0  0  0  0  0  0  0  0  0  0  0  0
  -25.5420  -24.1321   20.7931 N   0  0  0  0  0  0  0  0  0  0  0  0
  -24.4707  -11.2706   21.8146 N   0  0  0  0  0  0  0  0  0  0  0  0
  -21.5941  -16.7149   21.4197 N   0  0  0  0  0  0  0  0  0  0  0  0
  -22.1762  -20.0291   22.7406 N   0  3  0  0  0  0  0  0  0  0  0  0
  -26.6208  -31.1469   18.4221 O   0  0  0  0  0  0  0  0  0  0  0  0
  -25.8051  -12.5090   20.3626 O   0  0  0  0  0  0  0  0  0  0  0  0
  -22.1804  -14.0998   22.4327 O   0  0  0  0  0  0  0  0  0  0  0  0
  -22.9463  -18.4008   20.5791 O   0  0  0  0  0  0  0  0  0  0  0  0
  -23.7509  -22.9679   21.6978 O   0  0  0  0  0  0  0  0  0  0  0  0
  -24.8373  -35.6505   24.5150 O   0  0  0  0  0  0  0  0  0  0  0  0
  -29.4474  -16.9734   19.1477 O   0  0  0  0  0  0  0  0  0  1  0  0
  -29.5206  -20.2751   20.1606 O   0  0  0  0  0  0  0  0  0  0  0  0
  -24.0558  -40.3803   21.7906 F   0  0  0  0  0  0  0  0  0  0  0  0
  -22.7320  -37.3243   25.1543 F   0  0  0  0  0  0  0  0  0  0  0  0
  1  2  1  0  0  0  0
  1  5  2  0  0  0  0
  2  6  2  0  0  0  0
  3  9  2  0  0  0  0
  3 18  1  0  0  0  0
  4 10  1  0  0  0  0
  4 18  2  0  0  0  0
  5 20  1  0  0  0  0
  6 22  1  0  0  0  0
  7 11  2  0  0  0  0
  7 21  1  0  0  0  0
  8 12  2  0  0  0  0
  8 24  1  0  0  0  0
  9 26  1  0  0  0  0
 10 26  2  0  0  0  0
 11 27  1  0  0  0  0
 12 28  1  0  0  0  0
 13 14  2  0  0  0  0
 13 29  1  0  0  0  0
 14 30  1  0  0  0  0
 15 23  1  0  0  0  0
 15 27  2  0  0  0  0
 16 24  2  0  0  0  0
 16 25  1  0  0  0  0
 17 30  2  0  0  0  0
 17 31  1  0  0  0  0
 18 32  1  0  0  0  0
 19 32  1  0  0  0  0
 19 33  2  0  0  0  0
 19 34  1  0  0  0  0
 20 22  2  0  0  0  0
 20 39  1  0  0  0  0
 21 23  2  0  0  0  0
 21 40  1  0  0  0  0
 22 48  1  0  0  0  0
 23 41  1  0  0  0  0
 24 69  1  0  0  0  0
 25 28  2  0  0  0  0
 25 66  1  0  0  0  0
 26 78  1  0  0  0  0
 27 79  1  0  0  0  0
 28 80  1  0  0  0  0
 29 31  2  0  0  0  0
 29 78  1  0  0  0  0
 30 81  1  0  0  0  0
 31 82  1  0  0  0  0
 32 62  2  0  0  0  0
 33 63  1  0  0  0  0
 33 67  1  0  0  0  0
 34 68  1  0  0  0  0
 34 73  2  0  0  0  0
 35 49  1  0  0  0  0
 35 70  1  0  0  0  0
 35 74  2  0  0  0  0
 36 59  1  0  0  0  0
 36 64  1  0  0  0  0
 36 75  2  0  0  0  0
 37 60  1  0  0  0  0
 37 71  1  0  0  0  0
 37 76  2  0  0  0  0
 38 65  1  0  0  0  0
 38 69  1  0  0  0  0
 38 77  2  0  0  0  0
 39 42  1  0  0  0  0
 40 49  1  0  0  0  0
 41 64  1  0  0  0  0
 42 44  1  0  0  0  0
 43 45  1  0  0  0  0
 43 46  1  0  0  0  0
 44 48  1  0  0  0  0
 45 50  1  0  0  0  0
 46 65  1  0  0  0  0
 47 50  1  0  0  0  0
 47 65  1  0  0  0  0
 48 70  1  0  0  0  0
 49 64  1  0  0  0  0
 50 63  1  0  0  0  0
 51 60  1  0  0  0  0
 52 61  1  0  0  0  0
 53 61  1  0  0  0  0
 54 61  1  0  0  0  0
 55 72  1  0  0  0  0
 56 57  1  0  0  0  0
 56 58  1  0  0  0  0
 57 79  1  0  0  0  0
 58 80  1  0  0  0  0
 59 61  1  0  0  0  0
 59 71  1  0  0  0  0
 60 72  1  0  0  0  0
 62 63  1  0  0  0  0
M  CHG  1  72   1
M  ISO  4  38 100  57 101  69 100  79 101
M  END
> <Batch ID>
0103

> <Smiles>
CNC(C)C(=O)NC(C(=O)N1Cc2cc([101O:1][101CH2:1]CCOc3ccc([100NH:0][100C:0](=O)N4CCCC(n5nc(-c6ccc(Oc7ccc(F)cc7F)cc6)c(C(N)=O)c5N)C4)cc3N)ccc2CC1C(=O)NC1CCCc2ccccc21)C(C)(C)C

> <Shape>
0.243

> <Color>
0.067

> <Negative vol penalty>
0.000

$$$$

  -OEChem-04052301053D

 85 93  0     1  0  0  0  0  0999 V2000
  -19.9951  -29.6544   25.9402 C   0  0  0  0  0  0  0  0  0  0  0  0
  -21.2998  -29.3329   25.5799 C   0  0  0  0  0  0  0  0  0  0  0  0
  -23.0957   -9.9812   19.8491 C   0  0  0  0  0  0  0  0  0  0  0  0
  -24.3849   -9.5541   21.8473 C   0  0  0  0  0  0  0  0  0  0  0  0
  -18.9274  -29.1982   25.1683 C   0  0  0  0  0  0  0  0  0  0  0  0
  -21.5374  -28.5540   24.4480 C   0  0  0  0  0  0  0  0  0  0  0  0
  -26.2715  -29.0141   20.5901 C   0  0  0  0  0  0  0  0  0  0  0  0
  -22.5413   -8.7041   19.9338 C   0  0  0  0  0  0  0  0  0  0  0  0
  -23.8304   -8.2770   21.9320 C   0  0  0  0  0  0  0  0  0  0  0  0
  -27.4667  -28.3044   20.4831 C   0  0  0  0  0  0  0  0  0  0  0  0
  -20.9297   -6.8864   22.9674 C   0  0  0  0  0  0  0  0  0  0  0  0
  -20.4858   -6.4558   24.2177 C   0  0  0  0  0  0  0  0  0  0  0  0
  -26.4693  -26.8897   18.8029 C   0  0  0  0  0  0  0  0  0  0  0  0
  -28.3278  -19.2343   21.8125 C   0  0  0  0  0  0  0  0  0  0  0  0
  -28.8517  -20.0927   19.2103 C   0  0  0  0  0  0  0  0  0  0  0  0
  -22.0375   -4.6060   24.1317 C   0  0  0  0  0  0  0  0  0  0  0  0
  -24.0176  -10.4062   20.8058 C   0  0  0  0  0  0  0  0  0  0  0  0
  -24.0918  -12.9090   21.2940 C   0  0  0  0  0  0  0  0  0  0  0  0
  -19.1526  -28.4214   24.0209 C   0  0  0  0  0  0  0  0  0  0  0  0
  -25.1609  -28.6594   19.8108 C   0  0  0  0  0  0  0  0  0  0  0  0
  -20.4717  -28.0858   23.6607 C   0  0  0  0  0  0  0  0  0  0  0  0
  -25.2619  -27.5981   18.9000 C   0  0  0  0  0  0  0  0  0  0  0  0
  -28.6206  -18.3028   20.8164 C   0  0  0  0  0  0  0  0  0  0  0  0
  -28.8825  -18.7319   19.5154 C   0  0  0  0  0  0  0  0  0  0  0  0
  -28.2970  -20.5951   21.5074 C   0  0  0  0  0  0  0  0  0  0  0  0
  -22.9086   -7.8520   20.9752 C   0  0  0  0  0  0  0  0  0  0  0  0
  -27.5649  -27.2402   19.5916 C   0  0  0  0  0  0  0  0  0  0  0  0
  -21.9274   -6.1767   22.2992 C   0  0  0  0  0  0  0  0  0  0  0  0
  -28.5589  -21.0243   20.2063 C   0  0  0  0  0  0  0  0  0  0  0  0
  -21.0397   -5.3157   24.7998 C   0  0  0  0  0  0  0  0  0  0  0  0
  -22.4814   -5.0365   22.8813 C   0  0  0  0  0  0  0  0  0  0  0  0
  -24.5911  -11.7252   20.7186 C   0  0  0  0  0  0  0  0  0  0  0  0
  -24.9915  -13.8777   20.9216 C   0  0  0  0  0  0  0  0  0  0  0  0
  -22.9197  -13.1146   22.0937 C   0  0  0  0  0  0  0  0  0  0  0  0
  -22.2174  -27.6351   20.4355 C   0  0  0  0  0  0  0  0  0  0  0  0
  -21.8406  -27.9684   17.2309 C   0  0  0  0  0  0  0  0  0  0  0  0
  -23.2850  -28.0939   14.1415 C   0  0  0  0  0  0  0  0  0  0  0  0
  -30.4928  -15.2500   20.5093 C   0  0  0  0  0  0  0  0  0  0  0  0
  -17.9642  -27.9116   23.2447 C   0  0  0  0  0  0  0  0  0  0  0  0
  -23.8871  -29.4520   19.9187 C   0  0  0  0  0  0  0  0  0  0  0  0
  -24.1050  -27.1903   18.0261 C   0  0  0  0  0  0  0  0  0  0  0  0
  -18.3199  -27.4051   21.8493 C   0  0  0  0  0  0  0  0  0  0  0  0
  -28.7768  -13.7714   17.5817 C   0  0  0  0  0  0  0  0  0  0  0  0
  -19.5469  -26.5006   21.9064 C   0  0  0  0  0  0  0  0  0  0  0  0
  -27.5311  -13.1457   18.2067 C   0  0  0  0  0  0  0  0  0  0  0  0
  -29.9387  -13.8291   18.5688 C   0  0  0  0  0  0  0  0  0  0  0  0
  -28.3629  -13.8880   20.4734 C   0  0  0  0  0  0  0  0  0  0  0  0
  -20.7712  -27.2639   22.4259 C   0  0  1  0  0  0  0  0  0  0  0  0
  -22.6598  -28.6776   19.4480 C   0  0  1  0  0  0  0  0  0  0  0  0
  -27.1594  -13.8573   19.5192 C   0  0  2  0  0  0  0  0  0  0  0  0
  -29.1963  -17.7534   18.4315 C   0  0  0  0  0  0  0  0  0  0  0  0
  -22.7164  -28.3378   11.7095 C   0  0  0  0  0  0  0  0  0  0  0  0
  -20.8692  -25.0766   17.1705 C   0  0  0  0  0  0  0  0  0  0  0  0
  -21.2275  -25.0811   14.6927 C   0  0  0  0  0  0  0  0  0  0  0  0
  -19.5728  -26.6431   15.7147 C   0  0  0  0  0  0  0  0  0  0  0  0
  -30.9515  -17.1726   21.9833 C   0  0  0  0  0  0  0  0  0  0  0  0
  -24.8715  -30.5807   13.9006 C   0  0  0  0  0  0  0  0  0  0  0  0
  -28.6464  -16.8508   21.1658 C   0  0  0  0  0  0  0  0  0  0  0  0
  -29.8033  -24.3967   19.7172 C   0  0  0  0  0  0  0  0  0  0  0  0
  -28.6346  -25.1681   19.1244 C   0  0  0  0  0  0  0  0  0  1  0  0
  -29.7383  -22.9159   19.3777 C   0  0  0  0  0  0  0  0  0  0  0  0
  -22.0438  -27.0740   16.0318 C   0  0  1  0  0  0  0  0  0  0  0  0
  -23.1104  -29.0635   12.9865 C   0  0  2  0  0  0  0  0  0  0  0  0
  -20.9497  -25.9749   15.9202 C   0  0  0  0  0  0  0  0  0  0  0  0
  -25.7202  -11.9216   20.0326 N   0  0  0  0  0  0  0  0  0  0  0  0
  -25.9379  -13.2401   20.1746 N   0  0  0  0  0  0  0  0  0  0  0  0
  -22.8790  -27.9920   18.1728 N   0  0  0  0  0  0  0  0  0  0  0  0
  -29.5460  -14.4715   19.8235 N   0  0  0  0  0  0  0  0  0  0  0  0
  -27.9996  -21.5278   22.5251 N   0  0  0  0  0  0  0  0  0  0  0  0
  -25.0575  -15.2042   21.1635 N   0  0  0  0  0  0  0  0  0  0  0  0
  -22.1056  -12.0108   22.3821 N   0  0  0  0  0  0  0  0  0  0  0  0
  -21.3254  -28.1002   21.3829 N   0  0  0  0  0  0  0  0  0  0  0  0
  -22.1244  -27.9568   14.8731 N   0  0  0  0  0  0  0  0  0  0  0  0
  -30.0078  -16.3291   21.2638 N   0  0  0  0  0  0  0  0  0  0  0  0
  -24.3796  -29.8027   12.7344 N   0  3  0  0  0  0  0  0  0  0  0  0
  -22.5948  -14.2466   22.5256 O   0  0  0  0  0  0  0  0  0  0  0  0
  -22.6518  -26.4930   20.3437 O   0  0  0  0  0  0  0  0  0  0  0  0
  -20.8021  -28.6274   17.3247 O   0  0  0  0  0  0  0  0  0  0  0  0
  -24.3440  -27.5132   14.3694 O   0  0  0  0  0  0  0  0  0  0  0  0
  -31.7033  -15.0009   20.4428 O   0  0  0  0  0  0  0  0  0  0  0  0
  -22.3676   -6.6058   21.0583 O   0  0  0  0  0  0  0  0  0  0  0  0
  -28.7301  -26.5453   19.4856 O   0  0  0  0  0  0  0  0  0  1  0  0
  -28.5348  -22.3568   19.8863 O   0  0  0  0  0  0  0  0  0  0  0  0
  -20.6144   -4.9033   26.0012 F   0  0  0  0  0  0  0  0  0  0  0  0
  -23.4411   -4.3513   22.2447 F   0  0  0  0  0  0  0  0  0  0  0  0
  1  2  1  0  0  0  0
  1  5  2  0  0  0  0
  2  6  2  0  0  0  0
  3  8  2  0  0  0  0
  3 17  1  0  0  0  0
  4  9  1  0  0  0  0
  4 17  2  0  0  0  0
  5 19  1  0  0  0  0
  6 21  1  0  0  0  0
  7 10  2  0  0  0  0
  7 20  1  0  0  0  0
  8 26  1  0  0  0  0
  9 26  2  0  0  0  0
 10 27  1  0  0  0  0
 11 12  2  0  0  0  0
 11 28  1  0  0  0  0
 12 30  1  0  0  0  0
 13 22  1  0  0  0  0
 13 27  2  0  0  0  0
 14 23  2  0  0  0  0
 14 25  1  0  0  0  0
 15 24  2  0  0  0  0
 15 29  1  0  0  0  0
 16 30  2  0  0  0  0
 16 31  1  0  0  0  0
 17 32  1  0  0  0  0
 18 32  1  0  0  0  0
 18 33  2  0  0  0  0
 18 34  1  0  0  0  0
 19 21  2  0  0  0  0
 19 39  1  0  0  0  0
 20 22  2  0  0  0  0
 20 40  1  0  0  0  0
 21 48  1  0  0  0  0
 22 41  1  0  0  0  0
 23 24  1  0  0  0  0
 23 58  1  0  0  0  0
 24 51  1  0  0  0  0
 25 29  2  0  0  0  0
 25 69  1  0  0  0  0
 26 81  1  0  0  0  0
 27 82  1  0  0  0  0
 28 31  2  0  0  0  0
 28 81  1  0  0  0  0
 29 83  1  0  0  0  0
 30 84  1  0  0  0  0
 31 85  1  0  0  0  0
 32 65  2  0  0  0  0
 33 66  1  0  0  0  0
 33 70  1  0  0  0  0
 34 71  1  0  0  0  0
 34 76  2  0  0  0  0
 35 49  1  0  0  0  0
 35 72  1  0  0  0  0
 35 77  2  0  0  0  0
 36 62  1  0  0  0  0
 36 67  1  0  0  0  0
 36 78  2  0  0  0  0
 37 63  1  0  0  0  0
 37 73  1  0  0  0  0
 37 79  2  0  0  0  0
 38 68  1  0  0  0  0
 38 74  1  0  0  0  0
 38 80  2  0  0  0  0
 39 42  1  0  0  0  0
 40 49  1  0  0  0  0
 41 67  1  0  0  0  0
 42 44  1  0  0  0  0
 43 45  1  0  0  0  0
 43 46  1  0  0  0  0
 44 48  1  0  0  0  0
 45 50  1  0  0  0  0
 46 68  1  0  0  0  0
 47 50  1  0  0  0  0
 47 68  1  0  0  0  0
 48 72  1  0  0  0  0
 49 67  1  0  0  0  0
 50 66  1  0  0  0  0
 52 63  1  0  0  0  0
 53 64  1  0  0  0  0
 54 64  1  0  0  0  0
 55 64  1  0  0  0  0
 56 74  1  0  0  0  0
 57 75  1  0  0  0  0
 58 74  1  0  0  0  0
 59 60  1  0  0  0  0
 59 61  1  0  0  0  0
 60 82  1  0  0  0  0
 61 83  1  0  0  0  0
 62 64  1  0  0  0  0
 62 73  1  0  0  0  0
 63 75  1  0  0  0  0
 65 66  1  0  0  0  0
M  CHG  1  75   1
M  ISO  4  38 100  60 101  74 100  82 101
M  END
> <Batch ID>
0103

> <Smiles>
CNC(C)C(=O)NC(C(=O)N1Cc2cc([101O:1][101CH2:1]CCOc3cc(C)c(C[100N:0](C)[100C:0](=O)N4CCCC(n5nc(-c6ccc(Oc7ccc(F)cc7F)cc6)c(C(N)=O)c5N)C4)cc3N)ccc2CC1C(=O)NC1CCCc2ccccc21)C(C)(C)C

> <Shape>
0.361

> <Color>
0.183

> <Negative vol penalty>
0.000

$$$$

  -OEChem-04052301053D

 86 94  0     1  0  0  0  0  0999 V2000
  -26.1273  -35.0300   23.9328 C   0  0  0  0  0  0  0  0  0  0  0  0
  -26.6662  -33.8086   23.5414 C   0  0  0  0  0  0  0  0  0  0  0  0
  -24.4801  -11.6139   23.9798 C   0  0  0  0  0  0  0  0  0  0  0  0
  -23.6491  -13.8659   23.7059 C   0  0  0  0  0  0  0  0  0  0  0  0
  -24.8427  -35.0831   24.4721 C   0  0  0  0  0  0  0  0  0  0  0  0
  -25.9211  -32.6394   23.6902 C   0  0  0  0  0  0  0  0  0  0  0  0
  -26.1405  -29.6621   19.5996 C   0  0  0  0  0  0  0  0  0  0  0  0
  -24.0236  -11.6057   25.2978 C   0  0  0  0  0  0  0  0  0  0  0  0
  -23.1926  -13.8577   25.0239 C   0  0  0  0  0  0  0  0  0  0  0  0
  -27.2937  -28.8971   19.4300 C   0  0  0  0  0  0  0  0  0  0  0  0
  -21.0809  -11.1969   26.9122 C   0  0  0  0  0  0  0  0  0  0  0  0
  -20.3986  -10.0637   27.3549 C   0  0  0  0  0  0  0  0  0  0  0  0
  -26.1391  -26.9720   20.3131 C   0  0  0  0  0  0  0  0  0  0  0  0
  -30.0569  -19.1145   19.1039 C   0  0  0  0  0  0  0  0  0  0  0  0
  -27.6617  -19.3809   19.2746 C   0  0  0  0  0  0  0  0  0  0  0  0
  -22.0709   -9.7251   29.0654 C   0  0  0  0  0  0  0  0  0  0  0  0
  -24.2929  -12.7440   23.1839 C   0  0  0  0  0  0  0  0  0  0  0  0
  -24.0559  -12.3522   20.6743 C   0  0  0  0  0  0  0  0  0  0  0  0
  -24.0778  -33.9152   24.6186 C   0  0  0  0  0  0  0  0  0  0  0  0
  -24.9794  -29.0895   20.1383 C   0  0  0  0  0  0  0  0  0  0  0  0
  -24.6256  -32.6767   24.2332 C   0  0  0  0  0  0  0  0  0  0  0  0
  -24.9718  -27.7312   20.4861 C   0  0  0  0  0  0  0  0  0  0  0  0
  -30.2175  -20.4968   19.1994 C   0  0  0  0  0  0  0  0  0  0  0  0
  -28.7790  -18.5565   19.1415 C   0  0  0  0  0  0  0  0  0  0  0  0
  -23.3798  -12.7276   25.8199 C   0  0  0  0  0  0  0  0  0  0  0  0
  -27.2940  -27.5526   19.7895 C   0  0  0  0  0  0  0  0  0  0  0  0
  -22.2582  -11.5942   27.5461 C   0  0  0  0  0  0  0  0  0  0  0  0
  -27.8223  -20.7632   19.3702 C   0  0  0  0  0  0  0  0  0  0  0  0
  -29.1002  -21.3211   19.3325 C   0  0  0  0  0  0  0  0  0  0  0  0
  -20.8936   -9.3279   28.4315 C   0  0  0  0  0  0  0  0  0  0  0  0
  -22.7532  -10.8583   28.6227 C   0  0  0  0  0  0  0  0  0  0  0  0
  -24.7648  -12.7532   21.8225 C   0  0  0  0  0  0  0  0  0  0  0  0
  -24.9367  -12.5522   19.6396 C   0  0  0  0  0  0  0  0  0  0  0  0
  -22.7205  -11.8443   20.5538 C   0  0  0  0  0  0  0  0  0  0  0  0
  -23.2235  -29.6025   22.7378 C   0  0  0  0  0  0  0  0  0  0  0  0
  -21.2662  -27.4040   21.3748 C   0  0  0  0  0  0  0  0  0  0  0  0
  -20.9128  -24.7751   19.2276 C   0  0  0  0  0  0  0  0  0  0  0  0
  -29.6186  -16.1926   18.9103 C   0  0  0  0  0  0  0  0  0  0  0  0
  -22.7121  -34.0164   25.2505 C   0  0  0  0  0  0  0  0  0  0  0  0
  -23.7356  -29.9216   20.2900 C   0  0  0  0  0  0  0  0  0  0  0  0
  -23.7449  -27.0638   21.0498 C   0  0  0  0  0  0  0  0  0  0  0  0
  -21.8447  -32.7801   25.0276 C   0  0  0  0  0  0  0  0  0  0  0  0
  -29.6275  -12.6397   18.6788 C   0  0  0  0  0  0  0  0  0  0  0  0
  -22.6427  -31.5106   25.3076 C   0  0  0  0  0  0  0  0  0  0  0  0
  -28.3141  -12.2295   19.3488 C   0  0  0  0  0  0  0  0  0  0  0  0
  -30.2683  -13.8394   19.3742 C   0  0  0  0  0  0  0  0  0  0  0  0
  -28.0763  -14.5944   20.2075 C   0  0  0  0  0  0  0  0  0  0  0  0
  -23.8389  -31.3898   24.3558 C   0  0  1  0  0  0  0  0  0  0  0  0
  -22.7658  -29.3631   21.3268 C   0  0  1  0  0  0  0  0  0  0  0  0
  -27.3606  -13.4307   19.5025 C   0  0  2  0  0  0  0  0  0  0  0  0
  -31.5932  -21.0758   19.1565 C   0  0  0  0  0  0  0  0  0  0  0  0
  -24.3326  -22.4916   22.2407 C   0  0  0  0  0  0  0  0  0  0  0  0
  -19.2006  -23.1627   18.3526 C   0  0  0  0  0  0  0  0  0  0  0  0
  -21.3971  -25.8467   23.9955 C   0  0  0  0  0  0  0  0  0  0  0  0
  -20.4948  -23.8549   22.7761 C   0  0  0  0  0  0  0  0  0  0  0  0
  -19.1285  -25.9350   22.9466 C   0  0  0  0  0  0  0  0  0  0  0  0
  -21.2700  -25.7246   16.4473 C   0  0  0  0  0  0  0  0  0  0  0  0
  -25.2215  -22.6464   21.0198 C   0  0  0  0  0  0  0  0  0  0  0  0
  -29.3772  -24.8984   18.4977 C   0  0  0  0  0  0  0  0  0  0  0  0
  -25.8955  -21.3366   20.6408 C   0  0  0  0  0  0  0  0  0  0  0  0
  -28.2398  -25.4119   19.3666 C   0  0  0  0  0  0  0  0  0  1  0  0
  -29.2451  -23.4115   18.2078 C   0  0  0  0  0  0  0  0  0  0  0  0
  -21.1481  -25.8998   21.4262 C   0  0  1  0  0  0  0  0  0  0  0  0
  -19.8969  -24.4969   18.1344 C   0  0  2  0  0  0  0  0  0  0  0  0
  -20.5660  -25.3968   22.7773 C   0  0  0  0  0  0  0  0  0  0  0  0
  -26.0008  -13.1760   21.5439 N   0  0  0  0  0  0  0  0  0  0  0  0
  -26.0754  -13.0416   20.2088 N   0  0  0  0  0  0  0  0  0  0  0  0
  -22.5556  -27.9209   21.1850 N   0  0  0  0  0  0  0  0  0  0  0  0
  -29.3079  -14.9400   19.4804 N   0  0  0  0  0  0  0  0  0  0  0  0
  -24.8405  -12.3555   18.3075 N   0  0  0  0  0  0  0  0  0  0  0  0
  -21.9524  -11.7016   21.7175 N   0  0  0  0  0  0  0  0  0  0  0  0
  -28.6159  -17.1523   19.0455 N   0  0  0  0  0  0  0  0  0  0  0  0
  -23.4038  -30.9359   23.0523 N   0  0  0  0  0  0  0  0  0  0  0  0
  -20.3664  -25.5116   20.2572 N   0  0  0  0  0  0  0  0  0  0  0  0
  -20.5646  -24.4663   16.8024 N   0  3  0  0  0  0  0  0  0  0  0  0
  -22.2288  -11.5110   19.4490 O   0  0  0  0  0  0  0  0  0  0  0  0
  -23.3987  -28.6481   23.4863 O   0  0  0  0  0  0  0  0  0  0  0  0
  -20.2508  -28.0946   21.4915 O   0  0  0  0  0  0  0  0  0  0  0  0
  -22.0739  -24.3755   19.1752 O   0  0  0  0  0  0  0  0  0  0  0  0
  -30.6837  -16.3908   18.3201 O   0  0  0  0  0  0  0  0  0  0  0  0
  -22.9340  -12.7199   27.1059 O   0  0  0  0  0  0  0  0  0  0  0  0
  -28.4184  -26.8038   19.6256 O   0  0  0  0  0  0  0  0  0  1  0  0
  -26.7225  -21.5568   19.5000 O   0  0  0  0  0  0  0  0  0  0  0  0
  -29.2532  -22.6800   19.4262 O   0  0  0  0  0  0  0  0  0  0  0  0
  -20.2375   -8.2406   28.8575 F   0  0  0  0  0  0  0  0  0  0  0  0
  -23.8831  -11.2358   29.2364 F   0  0  0  0  0  0  0  0  0  0  0  0
  1  2  1  0  0  0  0
  1  5  2  0  0  0  0
  2  6  2  0  0  0  0
  3  8  2  0  0  0  0
  3 17  1  0  0  0  0
  4  9  1  0  0  0  0
  4 17  2  0  0  0  0
  5 19  1  0  0  0  0
  6 21  1  0  0  0  0
  7 10  2  0  0  0  0
  7 20  1  0  0  0  0
  8 25  1  0  0  0  0
  9 25  2  0  0  0  0
 10 26  1  0  0  0  0
 11 12  2  0  0  0  0
 11 27  1  0  0  0  0
 12 30  1  0  0  0  0
 13 22  1  0  0  0  0
 13 26  2  0  0  0  0
 14 23  2  0  0  0  0
 14 24  1  0  0  0  0
 15 24  2  0  0  0  0
 15 28  1  0  0  0  0
 16 30  2  0  0  0  0
 16 31  1  0  0  0  0
 17 32  1  0  0  0  0
 18 32  1  0  0  0  0
 18 33  2  0  0  0  0
 18 34  1  0  0  0  0
 19 21  2  0  0  0  0
 19 39  1  0  0  0  0
 20 22  2  0  0  0  0
 20 40  1  0  0  0  0
 21 48  1  0  0  0  0
 22 41  1  0  0  0  0
 23 29  1  0  0  0  0
 23 51  1  0  0  0  0
 24 72  1  0  0  0  0
 25 81  1  0  0  0  0
 26 82  1  0  0  0  0
 27 31  2  0  0  0  0
 27 81  1  0  0  0  0
 28 29  2  0  0  0  0
 28 83  1  0  0  0  0
 29 84  1  0  0  0  0
 30 85  1  0  0  0  0
 31 86  1  0  0  0  0
 32 66  2  0  0  0  0
 33 67  1  0  0  0  0
 33 70  1  0  0  0  0
 34 71  1  0  0  0  0
 34 76  2  0  0  0  0
 35 49  1  0  0  0  0
 35 73  1  0  0  0  0
 35 77  2  0  0  0  0
 36 63  1  0  0  0  0
 36 68  1  0  0  0  0
 36 78  2  0  0  0  0
 37 64  1  0  0  0  0
 37 74  1  0  0  0  0
 37 79  2  0  0  0  0
 38 69  1  0  0  0  0
 38 72  1  0  0  0  0
 38 80  2  0  0  0  0
 39 42  1  0  0  0  0
 40 49  1  0  0  0  0
 41 68  1  0  0  0  0
 42 44  1  0  0  0  0
 43 45  1  0  0  0  0
 43 46  1  0  0  0  0
 44 48  1  0  0  0  0
 45 50  1  0  0  0  0
 46 69  1  0  0  0  0
 47 50  1  0  0  0  0
 47 69  1  0  0  0  0
 48 73  1  0  0  0  0
 49 68  1  0  0  0  0
 50 67  1  0  0  0  0
 52 58  1  0  0  0  0
 53 64  1  0  0  0  0
 54 65  1  0  0  0  0
 55 65  1  0  0  0  0
 56 65  1  0  0  0  0
 57 75  1  0  0  0  0
 58 60  1  0  0  0  0
 59 61  1  0  0  0  0
 59 62  1  0  0  0  0
 60 83  1  0  0  0  0
 61 82  1  0  0  0  0
 62 84  1  0  0  0  0
 63 65  1  0  0  0  0
 63 74  1  0  0  0  0
 64 75  1  0  0  0  0
 66 67  1  0  0  0  0
M  CHG  1  75   1
M  ISO  4  38 100  61 101  72 100  82 101
M  END
> <Batch ID>
0103

> <Smiles>
CCCOc1cc([100NH:0][100C:0](=O)N2CCCC(n3nc(-c4ccc(Oc5ccc(F)cc5F)cc4)c(C(N)=O)c3N)C2)cc(C)c1OCC[101CH2:1][101O:1]c1ccc2c(c1)CN(C(=O)C(NC(=O)C(C)NC)C(C)(C)C)C(C(=O)NC1CCCc3ccccc31)C2

> <Shape>
0.264

> <Color>
0.099

> <Negative vol penalty>
0.000

$$$$

  -OEChem-04052301053D

 84 93  0     1  0  0  0  0  0999 V2000
  -29.8627  -36.0677   21.2569 C   0  0  0  0  0  0  0  0  0  0  0  0
  -29.9615  -34.6846   21.1441 C   0  0  0  0  0  0  0  0  0  0  0  0
  -24.0919   -9.5348   20.9692 C   0  0  0  0  0  0  0  0  0  0  0  0
  -25.4908  -10.3348   22.7692 C   0  0  0  0  0  0  0  0  0  0  0  0
  -28.7909  -36.6351   21.9448 C   0  0  0  0  0  0  0  0  0  0  0  0
  -28.9891  -33.8680   21.7202 C   0  0  0  0  0  0  0  0  0  0  0  0
  -27.1271  -20.9769   21.0413 C   0  0  0  0  0  0  0  0  0  0  0  0
  -26.9066  -28.5322   19.5526 C   0  0  0  0  0  0  0  0  0  0  0  0
  -26.9867  -22.3042   20.6367 C   0  0  0  0  0  0  0  0  0  0  0  0
  -24.0758   -8.2650   21.5460 C   0  0  0  0  0  0  0  0  0  0  0  0
  -25.4747   -9.0649   23.3461 C   0  0  0  0  0  0  0  0  0  0  0  0
  -27.2165  -27.2087   19.8626 C   0  0  0  0  0  0  0  0  0  0  0  0
  -22.4786   -6.7017   24.0833 C   0  0  0  0  0  0  0  0  0  0  0  0
  -21.2531   -6.0399   24.1597 C   0  0  0  0  0  0  0  0  0  0  0  0
  -29.1795  -22.8010   21.5130 C   0  0  0  0  0  0  0  0  0  0  0  0
  -25.3317  -27.1257   21.3659 C   0  0  0  0  0  0  0  0  0  0  0  0
  -22.1408   -4.2408   22.8134 C   0  0  0  0  0  0  0  0  0  0  0  0
  -24.7994  -10.5698   21.5808 C   0  0  0  0  0  0  0  0  0  0  0  0
  -23.7101  -12.7114   20.7237 C   0  0  0  0  0  0  0  0  0  0  0  0
  -27.7997  -35.8253   22.5214 C   0  0  0  0  0  0  0  0  0  0  0  0
  -25.8115  -29.1669   20.1562 C   0  0  0  0  0  0  0  0  0  0  0  0
  -28.2971  -20.5470   21.6846 C   0  0  0  0  0  0  0  0  0  0  0  0
  -27.9037  -34.4250   22.4177 C   0  0  0  0  0  0  0  0  0  0  0  0
  -29.3243  -21.4724   21.9359 C   0  0  0  0  0  0  0  0  0  0  0  0
  -25.0085  -28.4565   21.0599 C   0  0  0  0  0  0  0  0  0  0  0  0
  -28.0136  -23.2150   20.8696 C   0  0  0  0  0  0  0  0  0  0  0  0
  -24.7671   -8.0300   22.7345 C   0  0  0  0  0  0  0  0  0  0  0  0
  -26.4308  -26.5062   20.7715 C   0  0  0  0  0  0  0  0  0  0  0  0
  -23.5352   -6.1331   23.3720 C   0  0  0  0  0  0  0  0  0  0  0  0
  -21.0842   -4.8095   23.5248 C   0  0  0  0  0  0  0  0  0  0  0  0
  -23.3663   -4.9027   22.7371 C   0  0  0  0  0  0  0  0  0  0  0  0
  -24.8169  -11.8816   20.9851 C   0  0  0  0  0  0  0  0  0  0  0  0
  -24.2526  -13.8390   20.1574 C   0  0  0  0  0  0  0  0  0  0  0  0
  -22.3164  -12.4833   20.9709 C   0  0  0  0  0  0  0  0  0  0  0  0
  -25.4485  -31.6871   22.0590 C   0  0  0  0  0  0  0  0  0  0  0  0
  -30.2504  -17.4491   22.6595 C   0  0  0  0  0  0  0  0  0  0  0  0
  -29.7353  -16.2720   20.5216 C   0  0  0  0  0  0  0  0  0  0  0  0
  -22.2935  -31.0980   21.5888 C   0  0  0  0  0  0  0  0  0  0  0  0
  -19.8543  -28.8512   20.7832 C   0  0  0  0  0  0  0  0  0  0  0  0
  -26.6850  -36.4828   23.2960 C   0  0  0  0  0  0  0  0  0  0  0  0
  -25.4746  -30.5866   19.7909 C   0  0  0  0  0  0  0  0  0  0  0  0
  -30.5974  -21.0358   22.6093 C   0  0  0  0  0  0  0  0  0  0  0  0
  -28.4148  -19.1021   22.1029 C   0  0  0  0  0  0  0  0  0  0  0  0
  -23.8099  -29.0859   21.7200 C   0  0  0  0  0  0  0  0  0  0  0  0
  -25.4973  -35.5598   23.5561 C   0  0  0  0  0  0  0  0  0  0  0  0
  -27.9763  -15.3096   17.5518 C   0  0  0  0  0  0  0  0  0  0  0  0
  -25.9767  -34.2006   24.0554 C   0  0  0  0  0  0  0  0  0  0  0  0
  -26.8839  -14.3744   18.0687 C   0  0  0  0  0  0  0  0  0  0  0  0
  -30.3889  -19.7839   23.4526 C   0  0  0  0  0  0  0  0  0  0  0  0
  -29.2619  -15.1674   18.3606 C   0  0  0  0  0  0  0  0  0  0  0  0
  -27.9879  -14.4312   20.3497 C   0  0  0  0  0  0  0  0  0  0  0  0
  -26.8556  -33.5066   23.0078 C   0  0  1  0  0  0  0  0  0  0  0  0
  -24.6410  -31.2953   20.8540 C   0  0  1  0  0  0  0  0  0  0  0  0
  -26.6622  -14.5652   19.5796 C   0  0  2  0  0  0  0  0  0  0  0  0
  -17.3665  -28.6545   20.5192 C   0  0  0  0  0  0  0  0  0  0  0  0
  -21.9772  -31.0563   24.6233 C   0  0  0  0  0  0  0  0  0  0  0  0
  -19.7581  -29.9411   24.3069 C   0  0  0  0  0  0  0  0  0  0  0  0
  -20.1410  -32.2328   23.3992 C   0  0  0  0  0  0  0  0  0  0  0  0
  -20.0987  -28.1205   17.9257 C   0  0  0  0  0  0  0  0  0  0  0  0
  -27.8661  -24.6413   20.4279 C   0  0  0  0  0  0  0  0  0  1  0  0
  -29.4121  -16.3878   21.9900 C   0  0  0  0  0  0  0  0  0  0  0  0
  -21.2488  -30.2551   22.2795 C   0  0  1  0  0  0  0  0  0  0  0  0
  -18.6861  -28.9357   19.8175 C   0  0  2  0  0  0  0  0  0  0  0  0
  -20.8049  -30.8598   23.6414 C   0  0  0  0  0  0  0  0  0  0  0  0
  -25.9749  -12.4349   20.6151 N   0  0  0  0  0  0  0  0  0  0  0  0
  -25.5988  -13.6243   20.1153 N   0  0  0  0  0  0  0  0  0  0  0  0
  -29.7171  -18.7403   22.6796 N   0  0  0  0  0  0  0  0  0  0  0  0
  -23.5252  -30.4781   21.3350 N   0  0  0  0  0  0  0  0  0  0  0  0
  -29.0054  -15.3331   19.7923 N   0  0  0  0  0  0  0  0  0  0  0  0
  -23.7045  -14.9833   19.6963 N   0  0  0  0  0  0  0  0  0  0  0  0
  -21.7822  -12.8829   22.2035 N   0  0  0  0  0  0  0  0  0  0  0  0
  -26.0371  -32.9335   21.9609 N   0  0  0  0  0  0  0  0  0  0  0  0
  -20.1633  -30.0831   21.3200 N   0  0  0  0  0  0  0  0  0  0  0  0
  -18.8525  -27.9464   18.7154 N   0  3  0  0  0  0  0  0  0  0  0  0
  -21.5704  -11.9264   20.1301 O   0  0  0  0  0  0  0  0  0  0  0  0
  -25.5303  -30.9163   23.0082 O   0  0  0  0  0  0  0  0  0  0  0  0
  -31.3429  -17.1413   23.1423 O   0  0  0  0  0  0  0  0  0  0  0  0
  -30.6085  -16.9974   20.0383 O   0  0  0  0  0  0  0  0  0  0  0  0
  -22.0241  -32.2613   21.2793 O   0  0  0  0  0  0  0  0  0  0  0  0
  -20.4323  -27.7971   21.0388 O   0  0  0  0  0  0  0  0  0  0  0  0
  -24.7514   -6.7910   23.2978 O   0  0  0  0  0  0  0  0  0  0  0  0
  -26.7315  -25.2145   21.0764 O   0  0  0  0  0  0  0  0  0  1  0  0
  -19.9078   -4.1733   23.5995 F   0  0  0  0  0  0  0  0  0  0  0  0
  -24.3780   -4.3509   22.0532 F   0  0  0  0  0  0  0  0  0  0  0  0
  1  2  1  0  0  0  0
  1  5  2  0  0  0  0
  2  6  2  0  0  0  0
  3 10  2  0  0  0  0
  3 18  1  0  0  0  0
  4 11  1  0  0  0  0
  4 18  2  0  0  0  0
  5 20  1  0  0  0  0
  6 23  1  0  0  0  0
  7  9  2  0  0  0  0
  7 22  1  0  0  0  0
  8 12  2  0  0  0  0
  8 21  1  0  0  0  0
  9 26  1  0  0  0  0
 10 27  1  0  0  0  0
 11 27  2  0  0  0  0
 12 28  1  0  0  0  0
 13 14  2  0  0  0  0
 13 29  1  0  0  0  0
 14 30  1  0  0  0  0
 15 24  1  0  0  0  0
 15 26  2  0  0  0  0
 16 25  1  0  0  0  0
 16 28  2  0  0  0  0
 17 30  2  0  0  0  0
 17 31  1  0  0  0  0
 18 32  1  0  0  0  0
 19 32  1  0  0  0  0
 19 33  2  0  0  0  0
 19 34  1  0  0  0  0
 20 23  2  0  0  0  0
 20 40  1  0  0  0  0
 21 25  2  0  0  0  0
 21 41  1  0  0  0  0
 22 24  2  0  0  0  0
 22 43  1  0  0  0  0
 23 52  1  0  0  0  0
 24 42  1  0  0  0  0
 25 44  1  0  0  0  0
 26 60  1  0  0  0  0
 27 81  1  0  0  0  0
 28 82  1  0  0  0  0
 29 31  2  0  0  0  0
 29 81  1  0  0  0  0
 30 83  1  0  0  0  0
 31 84  1  0  0  0  0
 32 65  2  0  0  0  0
 33 66  1  0  0  0  0
 33 70  1  0  0  0  0
 34 71  1  0  0  0  0
 34 75  2  0  0  0  0
 35 53  1  0  0  0  0
 35 72  1  0  0  0  0
 35 76  2  0  0  0  0
 36 61  1  0  0  0  0
 36 67  1  0  0  0  0
 36 77  2  0  0  0  0
 37 61  1  0  0  0  0
 37 69  1  0  0  0  0
 37 78  2  0  0  0  0
 38 62  1  0  0  0  0
 38 68  1  0  0  0  0
 38 79  2  0  0  0  0
 39 63  1  0  0  0  0
 39 73  1  0  0  0  0
 39 80  2  0  0  0  0
 40 45  1  0  0  0  0
 41 53  1  0  0  0  0
 42 49  1  0  0  0  0
 43 67  1  0  0  0  0
 44 68  1  0  0  0  0
 45 47  1  0  0  0  0
 46 48  1  0  0  0  0
 46 50  1  0  0  0  0
 47 52  1  0  0  0  0
 48 54  1  0  0  0  0
 49 67  1  0  0  0  0
 50 69  1  0  0  0  0
 51 54  1  0  0  0  0
 51 69  1  0  0  0  0
 52 72  1  0  0  0  0
 53 68  1  0  0  0  0
 54 66  1  0  0  0  0
 55 63  1  0  0  0  0
 56 64  1  0  0  0  0
 57 64  1  0  0  0  0
 58 64  1  0  0  0  0
 59 74  1  0  0  0  0
 60 82  1  0  0  0  0
 62 64  1  0  0  0  0
 62 73  1  0  0  0  0
 63 74  1  0  0  0  0
 65 66  1  0  0  0  0
M  CHG  1  74   1
M  ISO  4  37 100  60 101  61 100  82 101
M  END
> <Batch ID>
0103

> <Smiles>
CNC(C)C(=O)NC(C(=O)N1Cc2cc([101O:1][101CH2:1]c3ccc4c(c3)CCN(C(=O)[100CH2:0][100C:0](=O)N3CCCC(n5nc(-c6ccc(Oc7ccc(F)cc7F)cc6)c(C(N)=O)c5N)C3)C4)ccc2CC1C(=O)NC1CCCc2ccccc21)C(C)(C)C

> <Shape>
0.293

> <Color>
0.103

> <Negative vol penalty>
0.000

$$$$

  -OEChem-04052301053D

 84 92  0     1  0  0  0  0  0999 V2000
  -29.0326  -27.2882   19.3620 C   0  0  0  0  0  0  0  0  0  0  0  0
  -27.8762  -26.5286   19.2167 C   0  0  0  0  0  0  0  0  0  0  0  0
  -24.8202  -28.5641   21.6968 C   0  0  0  0  0  0  0  0  0  0  0  0
  -23.9941  -30.1525   20.0746 C   0  0  0  0  0  0  0  0  0  0  0  0
  -30.2734  -26.7335   19.0510 C   0  0  0  0  0  0  0  0  0  0  0  0
  -27.9598  -25.2141   18.7592 C   0  0  0  0  0  0  0  0  0  0  0  0
  -25.0794  -22.0340   21.4491 C   0  0  0  0  0  0  0  0  0  0  0  0
  -16.5656  -25.0096   14.4363 C   0  0  0  0  0  0  0  0  0  0  0  0
  -25.6410  -29.5500   22.2442 C   0  0  0  0  0  0  0  0  0  0  0  0
  -24.8149  -31.1385   20.6221 C   0  0  0  0  0  0  0  0  0  0  0  0
  -23.7112  -22.0327   21.1811 C   0  0  0  0  0  0  0  0  0  0  0  0
  -15.3983  -25.0437   15.1990 C   0  0  0  0  0  0  0  0  0  0  0  0
  -25.3111  -32.1903   24.3305 C   0  0  0  0  0  0  0  0  0  0  0  0
  -25.3497  -32.3036   25.7202 C   0  0  0  0  0  0  0  0  0  0  0  0
  -23.9843  -20.0542   19.8282 C   0  0  0  0  0  0  0  0  0  0  0  0
  -16.3945  -23.5242   16.7915 C   0  0  0  0  0  0  0  0  0  0  0  0
  -27.7241  -31.8583   25.6905 C   0  0  0  0  0  0  0  0  0  0  0  0
  -23.9967  -28.8653   20.6119 C   0  0  0  0  0  0  0  0  0  0  0  0
  -21.8265  -27.5388   20.4168 C   0  0  0  0  0  0  0  0  0  0  0  0
  -30.3731  -25.4083   18.5986 C   0  0  0  0  0  0  0  0  0  0  0  0
  -25.9134  -21.0501   20.8988 C   0  0  0  0  0  0  0  0  0  0  0  0
  -29.2029  -24.6415   18.4405 C   0  0  0  0  0  0  0  0  0  0  0  0
  -25.3623  -20.0438   20.0928 C   0  0  0  0  0  0  0  0  0  0  0  0
  -17.6474  -24.2328   14.8511 C   0  0  0  0  0  0  0  0  0  0  0  0
  -25.6384  -30.8372   21.7069 C   0  0  0  0  0  0  0  0  0  0  0  0
  -23.1639  -21.0444   20.3682 C   0  0  0  0  0  0  0  0  0  0  0  0
  -15.3127  -24.3010   16.3766 C   0  0  0  0  0  0  0  0  0  0  0  0
  -26.4790  -31.9109   23.6208 C   0  0  0  0  0  0  0  0  0  0  0  0
  -17.5618  -23.4902   16.0287 C   0  0  0  0  0  0  0  0  0  0  0  0
  -26.5562  -32.1376   26.4002 C   0  0  0  0  0  0  0  0  0  0  0  0
  -27.6855  -31.7450   24.3008 C   0  0  0  0  0  0  0  0  0  0  0  0
  -23.1490  -27.8471   20.0456 C   0  0  0  0  0  0  0  0  0  0  0  0
  -21.4687  -26.5054   19.5858 C   0  0  0  0  0  0  0  0  0  0  0  0
  -20.9957  -28.1333   21.4228 C   0  0  0  0  0  0  0  0  0  0  0  0
  -28.3921  -21.0671   18.9089 C   0  0  0  0  0  0  0  0  0  0  0  0
  -28.5034  -17.9089   19.6408 C   0  0  0  0  0  0  0  0  0  0  0  0
  -26.8538  -15.1282   20.7334 C   0  0  0  0  0  0  0  0  0  0  0  0
  -21.3191  -24.1587   14.5246 C   0  0  0  0  0  0  0  0  0  0  0  0
  -31.7318  -24.8674   18.2299 C   0  0  0  0  0  0  0  0  0  0  0  0
  -27.3831  -21.0500   21.2192 C   0  0  0  0  0  0  0  0  0  0  0  0
  -26.2114  -18.9533   19.4942 C   0  0  0  0  0  0  0  0  0  0  0  0
  -31.7694  -23.3462   18.1081 C   0  0  0  0  0  0  0  0  0  0  0  0
  -24.2642  -23.6713   16.4650 C   0  0  0  0  0  0  0  0  0  0  0  0
  -30.5822  -22.8467   17.2908 C   0  0  0  0  0  0  0  0  0  0  0  0
  -24.1304  -24.6927   17.5958 C   0  0  0  0  0  0  0  0  0  0  0  0
  -23.7162  -24.2138   15.1468 C   0  0  0  0  0  0  0  0  0  0  0  0
  -22.1993  -25.7431   16.3443 C   0  0  0  0  0  0  0  0  0  0  0  0
  -29.2550  -23.2039   17.9706 C   0  0  1  0  0  0  0  0  0  0  0  0
  -28.2193  -20.2982   20.1883 C   0  0  1  0  0  0  0  0  0  0  0  0
  -22.6875  -25.2210   17.7064 C   0  0  2  0  0  0  0  0  0  0  0  0
  -27.1997  -12.6853   21.1912 C   0  0  0  0  0  0  0  0  0  0  0  0
  -28.4347  -17.3400   16.6438 C   0  0  0  0  0  0  0  0  0  0  0  0
  -27.8280  -14.9705   17.1782 C   0  0  0  0  0  0  0  0  0  0  0  0
  -30.0130  -15.8995   17.9432 C   0  0  0  0  0  0  0  0  0  0  0  0
  -26.1779  -15.4504   23.5967 C   0  0  0  0  0  0  0  0  0  0  0  0
  -18.8891  -24.2092   14.0226 C   0  0  0  0  0  0  0  0  0  0  0  0
  -20.1535  -21.2096   18.3739 C   0  0  0  0  0  0  0  0  0  0  0  0
  -19.6638  -20.6513   17.0422 C   0  0  0  0  0  0  0  0  0  0  0  0
  -21.4161  -20.5030   18.8489 C   0  0  0  0  0  0  0  0  0  1  0  0
  -18.3781  -21.3275   16.5878 C   0  0  0  0  0  0  0  0  0  0  0  0
  -27.8810  -16.6569   19.0713 C   0  0  1  0  0  0  0  0  0  0  0  0
  -27.2154  -14.0881   21.7783 C   0  0  2  0  0  0  0  0  0  0  0  0
  -28.5232  -16.2383   17.7187 C   0  0  0  0  0  0  0  0  0  0  0  0
  -23.6007  -27.0722   19.0559 N   0  0  0  0  0  0  0  0  0  0  0  0
  -22.5564  -26.2666   18.7983 N   0  0  0  0  0  0  0  0  0  0  0  0
  -27.6437  -18.9999   19.8317 N   0  0  0  0  0  0  0  0  0  0  0  0
  -22.3442  -24.6971   15.3198 N   0  0  0  0  0  0  0  0  0  0  0  0
  -20.3330  -25.7866   19.4593 N   0  0  0  0  0  0  0  0  0  0  0  0
  -21.5202  -29.1849   22.1866 N   0  0  0  0  0  0  0  0  0  0  0  0
  -28.9918  -22.3014   19.0710 N   0  0  0  0  0  0  0  0  0  0  0  0
  -27.9742  -15.6431   20.1162 N   0  0  0  0  0  0  0  0  0  0  0  0
  -20.0472  -24.6678   14.7570 N   0  0  0  0  0  0  0  0  0  0  0  0
  -26.2484  -14.1342   22.9113 N   0  3  0  0  0  0  0  0  0  0  0  0
  -19.8288  -27.7327   21.6491 O   0  0  0  0  0  0  0  0  0  0  0  0
  -28.0110  -20.5762   17.8528 O   0  0  0  0  0  0  0  0  0  0  0  0
  -29.7065  -17.9161   19.9130 O   0  0  0  0  0  0  0  0  0  0  0  0
  -25.6934  -15.4490   20.4866 O   0  0  0  0  0  0  0  0  0  0  0  0
  -21.5214  -23.2851   13.6744 O   0  0  0  0  0  0  0  0  0  0  0  0
  -14.1733  -24.3339   17.1201 O   0  0  0  0  0  0  0  0  0  0  0  0
  -26.4391  -31.7996   22.2410 O   0  0  0  0  0  0  0  0  0  0  0  0
  -21.8289  -21.0411   20.1045 O   0  0  0  0  0  0  0  0  0  1  0  0
  -18.6156  -22.7218   16.4506 O   0  0  0  0  0  0  0  0  0  0  0  0
  -26.5935  -32.2479   27.7346 F   0  0  0  0  0  0  0  0  0  0  0  0
  -28.8110  -31.4776   23.6243 F   0  0  0  0  0  0  0  0  0  0  0  0
  1  2  1  0  0  0  0
  1  5  2  0  0  0  0
  2  6  2  0  0  0  0
  3  9  2  0  0  0  0
  3 18  1  0  0  0  0
  4 10  1  0  0  0  0
  4 18  2  0  0  0  0
  5 20  1  0  0  0  0
  6 22  1  0  0  0  0
  7 11  2  0  0  0  0
  7 21  1  0  0  0  0
  8 12  2  0  0  0  0
  8 24  1  0  0  0  0
  9 25  1  0  0  0  0
 10 25  2  0  0  0  0
 11 26  1  0  0  0  0
 12 27  1  0  0  0  0
 13 14  2  0  0  0  0
 13 28  1  0  0  0  0
 14 30  1  0  0  0  0
 15 23  1  0  0  0  0
 15 26  2  0  0  0  0
 16 27  2  0  0  0  0
 16 29  1  0  0  0  0
 17 30  2  0  0  0  0
 17 31  1  0  0  0  0
 18 32  1  0  0  0  0
 19 32  1  0  0  0  0
 19 33  2  0  0  0  0
 19 34  1  0  0  0  0
 20 22  2  0  0  0  0
 20 39  1  0  0  0  0
 21 23  2  0  0  0  0
 21 40  1  0  0  0  0
 22 48  1  0  0  0  0
 23 41  1  0  0  0  0
 24 29  2  0  0  0  0
 24 56  1  0  0  0  0
 25 80  1  0  0  0  0
 26 81  1  0  0  0  0
 27 79  1  0  0  0  0
 28 31  2  0  0  0  0
 28 80  1  0  0  0  0
 29 82  1  0  0  0  0
 30 83  1  0  0  0  0
 31 84  1  0  0  0  0
 32 64  2  0  0  0  0
 33 65  1  0  0  0  0
 33 68  1  0  0  0  0
 34 69  1  0  0  0  0
 34 74  2  0  0  0  0
 35 49  1  0  0  0  0
 35 70  1  0  0  0  0
 35 75  2  0  0  0  0
 36 61  1  0  0  0  0
 36 66  1  0  0  0  0
 36 76  2  0  0  0  0
 37 62  1  0  0  0  0
 37 71  1  0  0  0  0
 37 77  2  0  0  0  0
 38 67  1  0  0  0  0
 38 72  1  0  0  0  0
 38 78  2  0  0  0  0
 39 42  1  0  0  0  0
 40 49  1  0  0  0  0
 41 66  1  0  0  0  0
 42 44  1  0  0  0  0
 43 45  1  0  0  0  0
 43 46  1  0  0  0  0
 44 48  1  0  0  0  0
 45 50  1  0  0  0  0
 46 67  1  0  0  0  0
 47 50  1  0  0  0  0
 47 67  1  0  0  0  0
 48 70  1  0  0  0  0
 49 66  1  0  0  0  0
 50 65  1  0  0  0  0
 51 62  1  0  0  0  0
 52 63  1  0  0  0  0
 53 63  1  0  0  0  0
 54 63  1  0  0  0  0
 55 73  1  0  0  0  0
 56 72  1  0  0  0  0
 57 58  1  0  0  0  0
 57 59  1  0  0  0  0
 58 60  1  0  0  0  0
 59 81  1  0  0  0  0
 60 82  1  0  0  0  0
 61 63  1  0  0  0  0
 61 71  1  0  0  0  0
 62 73  1  0  0  0  0
 64 65  1  0  0  0  0
M  CHG  1  73   1
M  ISO  4  38 100  59 101  72 100  81 101
M  END
> <Batch ID>
0103

> <Smiles>
CNC(C)C(=O)NC(C(=O)N1Cc2cc([101O:1][101CH2:1]CCCOc3cc(O)ccc3C[100NH:0][100C:0](=O)N3CCCC(n4nc(-c5ccc(Oc6ccc(F)cc6F)cc5)c(C(N)=O)c4N)C3)ccc2CC1C(=O)NC1CCCc2ccccc21)C(C)(C)C

> <Shape>
0.215

> <Color>
0.062

> <Negative vol penalty>
0.000

$$$$

  -OEChem-04052301053D

 85 94  0     1  0  0  0  0  0999 V2000
  -32.5083  -22.7803   16.9338 C   0  0  0  0  0  0  0  0  0  0  0  0
  -31.8393  -22.5957   18.1395 C   0  0  0  0  0  0  0  0  0  0  0  0
  -31.6598  -21.4762   22.5227 C   0  0  0  0  0  0  0  0  0  0  0  0
  -22.4578  -16.0970   23.3416 C   0  0  0  0  0  0  0  0  0  0  0  0
  -21.3795  -16.1594   21.1804 C   0  0  0  0  0  0  0  0  0  0  0  0
  -32.7487  -24.0699   16.4616 C   0  0  0  0  0  0  0  0  0  0  0  0
  -31.4111  -23.7008   18.8743 C   0  0  0  0  0  0  0  0  0  0  0  0
  -26.6845  -23.1659   20.6114 C   0  0  0  0  0  0  0  0  0  0  0  0
  -31.7138  -20.1255   22.1789 C   0  0  0  0  0  0  0  0  0  0  0  0
  -30.8558  -21.8944   23.5831 C   0  0  0  0  0  0  0  0  0  0  0  0
  -21.3340  -16.6877   23.9193 C   0  0  0  0  0  0  0  0  0  0  0  0
  -20.2557  -16.7500   21.7582 C   0  0  0  0  0  0  0  0  0  0  0  0
  -26.5064  -22.3593   21.7345 C   0  0  0  0  0  0  0  0  0  0  0  0
  -18.2538  -15.7236   24.9274 C   0  0  0  0  0  0  0  0  0  0  0  0
  -17.7799  -15.1834   26.1228 C   0  0  0  0  0  0  0  0  0  0  0  0
  -26.3996  -24.3281   23.1243 C   0  0  0  0  0  0  0  0  0  0  0  0
  -30.1597  -19.6110   23.9558 C   0  0  0  0  0  0  0  0  0  0  0  0
  -18.1312  -17.3064   27.2214 C   0  0  0  0  0  0  0  0  0  0  0  0
  -22.4806  -15.8329   21.9721 C   0  0  0  0  0  0  0  0  0  0  0  0
  -23.8897  -13.8473   21.2108 C   0  0  0  0  0  0  0  0  0  0  0  0
  -32.3148  -25.1912   17.1862 C   0  0  0  0  0  0  0  0  0  0  0  0
  -26.7325  -24.5617   20.7380 C   0  0  0  0  0  0  0  0  0  0  0  0
  -31.6471  -25.0067   18.4120 C   0  0  0  0  0  0  0  0  0  0  0  0
  -26.5759  -25.1504   22.0010 C   0  0  0  0  0  0  0  0  0  0  0  0
  -30.9638  -19.1929   22.8954 C   0  0  0  0  0  0  0  0  0  0  0  0
  -20.2329  -17.0141   23.1276 C   0  0  0  0  0  0  0  0  0  0  0  0
  -26.3668  -22.9402   22.9916 C   0  0  0  0  0  0  0  0  0  0  0  0
  -30.1058  -20.9618   24.2996 C   0  0  0  0  0  0  0  0  0  0  0  0
  -18.6665  -17.0552   24.8789 C   0  0  0  0  0  0  0  0  0  0  0  0
  -17.7186  -15.9748   27.2699 C   0  0  0  0  0  0  0  0  0  0  0  0
  -18.6052  -17.8465   26.0259 C   0  0  0  0  0  0  0  0  0  0  0  0
  -23.6414  -15.2233   21.3746 C   0  0  0  0  0  0  0  0  0  0  0  0
  -25.1166  -13.7906   20.5961 C   0  0  0  0  0  0  0  0  0  0  0  0
  -23.0833  -12.7212   21.5812 C   0  0  0  0  0  0  0  0  0  0  0  0
  -28.9155  -26.7942   20.1430 C   0  0  0  0  0  0  0  0  0  0  0  0
  -26.4927  -28.8130   20.9023 C   0  0  0  0  0  0  0  0  0  0  0  0
  -23.5417  -29.3094   22.5431 C   0  0  0  0  0  0  0  0  0  0  0  0
  -29.7756  -17.4571   20.4172 C   0  0  0  0  0  0  0  0  0  0  0  0
  -32.6393  -26.5665   16.6588 C   0  0  0  0  0  0  0  0  0  0  0  0
  -26.8985  -25.4190   19.5133 C   0  0  0  0  0  0  0  0  0  0  0  0
  -26.5998  -26.6447   22.1878 C   0  0  0  0  0  0  0  0  0  0  0  0
  -31.8226  -27.6780   17.3128 C   0  0  0  0  0  0  0  0  0  0  0  0
  -27.9704  -16.2585   17.6736 C   0  0  0  0  0  0  0  0  0  0  0  0
  -31.8047  -27.5062   18.8284 C   0  0  0  0  0  0  0  0  0  0  0  0
  -26.6702  -15.7365   18.2817 C   0  0  0  0  0  0  0  0  0  0  0  0
  -28.1423  -15.6634   22.8560 C   0  0  0  0  0  0  0  0  0  0  0  0
  -28.8002  -16.3907   23.9904 C   0  0  0  0  0  0  0  0  0  0  0  0
  -28.4097  -17.5476   18.3562 C   0  0  0  0  0  0  0  0  0  0  0  0
  -27.2996  -16.8816   20.4674 C   0  0  0  0  0  0  0  0  0  0  0  0
  -31.1453  -26.1799   19.2255 C   0  0  1  0  0  0  0  0  0  0  0  0
  -27.4469  -26.8078   19.8260 C   0  0  1  0  0  0  0  0  0  0  0  0
  -26.8030  -15.5796   19.8057 C   0  0  1  0  0  0  0  0  0  0  0  0
  -28.6663  -17.0581   22.6491 C   0  0  0  0  0  0  0  0  0  0  0  0
  -21.8203  -31.0746   23.0103 C   0  0  0  0  0  0  0  0  0  0  0  0
  -28.3721  -30.1060   22.9286 C   0  0  0  0  0  0  0  0  0  0  0  0
  -26.3747  -31.1753   23.9943 C   0  0  0  0  0  0  0  0  0  0  0  0
  -26.9665  -31.7182   21.6326 C   0  0  0  0  0  0  0  0  0  0  0  0
  -21.4078  -27.7431   21.2194 C   0  0  0  0  0  0  0  0  0  0  0  0
  -31.0212  -17.7488   22.5273 C   0  0  0  0  0  0  0  0  0  0  0  0
  -27.0822  -21.4930   26.2328 C   0  0  0  0  0  0  0  0  0  0  0  0
  -26.6939  -22.6531   25.3296 C   0  0  0  0  0  0  0  0  0  1  0  0
  -28.1452  -20.6095   25.5988 C   0  0  0  0  0  0  0  0  0  0  0  0
  -25.9911  -29.4498   22.1759 C   0  0  1  0  0  0  0  0  0  0  0  0
  -22.2322  -29.9325   22.0944 C   0  0  2  0  0  0  0  0  0  0  0  0
  -26.9276  -30.5841   22.6799 C   0  0  0  0  0  0  0  0  0  0  0  0
  -24.6312  -15.9857   20.9023 N   0  0  0  0  0  0  0  0  0  0  0  0
  -25.5134  -15.0856   20.4357 N   0  0  0  0  0  0  0  0  0  0  0  0
  -26.7710  -27.4400   20.9608 N   0  0  0  0  0  0  0  0  0  0  0  0
  -28.5161  -17.3758   19.8058 N   0  0  0  0  0  0  0  0  0  0  0  0
  -25.8841  -12.7599   20.1827 N   0  0  0  0  0  0  0  0  0  0  0  0
  -21.8503  -12.9582   22.2040 N   0  0  0  0  0  0  0  0  0  0  0  0
  -29.7049  -26.2832   19.1304 N   0  0  0  0  0  0  0  0  0  0  0  0
  -24.6234  -29.8798   21.9061 N   0  0  0  0  0  0  0  0  0  0  0  0
  -29.8268  -17.3103   21.8141 N   0  0  0  0  0  0  0  0  0  0  0  0
  -21.1455  -28.9127   22.0971 N   0  3  0  0  0  0  0  0  0  0  0  0
  -23.4528  -11.5392   21.3810 O   0  0  0  0  0  0  0  0  0  0  0  0
  -29.3040  -27.2174   21.2254 O   0  0  0  0  0  0  0  0  0  0  0  0
  -26.6256  -29.5066   19.8910 O   0  0  0  0  0  0  0  0  0  0  0  0
  -23.5995  -28.4094   23.3781 O   0  0  0  0  0  0  0  0  0  0  0  0
  -30.8006  -17.6713   19.7568 O   0  0  0  0  0  0  0  0  0  0  0  0
  -19.1361  -17.5903   23.6911 O   0  0  0  0  0  0  0  0  0  0  0  0
  -26.1935  -22.1551   24.0895 O   0  0  0  0  0  0  0  0  0  1  0  0
  -29.3163  -21.3727   25.3420 O   0  0  0  0  0  0  0  0  0  0  0  0
  -17.2620  -15.4563   28.4174 F   0  0  0  0  0  0  0  0  0  0  0  0
  -18.9991  -19.1268   25.9853 F   0  0  0  0  0  0  0  0  0  0  0  0
  1  2  1  0  0  0  0
  1  6  2  0  0  0  0
  2  7  2  0  0  0  0
  3  9  1  0  0  0  0
  3 10  2  0  0  0  0
  4 11  2  0  0  0  0
  4 19  1  0  0  0  0
  5 12  1  0  0  0  0
  5 19  2  0  0  0  0
  6 21  1  0  0  0  0
  7 23  1  0  0  0  0
  8 13  2  0  0  0  0
  8 22  1  0  0  0  0
  9 25  2  0  0  0  0
 10 28  1  0  0  0  0
 11 26  1  0  0  0  0
 12 26  2  0  0  0  0
 13 27  1  0  0  0  0
 14 15  2  0  0  0  0
 14 29  1  0  0  0  0
 15 30  1  0  0  0  0
 16 24  1  0  0  0  0
 16 27  2  0  0  0  0
 17 25  1  0  0  0  0
 17 28  2  0  0  0  0
 18 30  2  0  0  0  0
 18 31  1  0  0  0  0
 19 32  1  0  0  0  0
 20 32  1  0  0  0  0
 20 33  2  0  0  0  0
 20 34  1  0  0  0  0
 21 23  2  0  0  0  0
 21 39  1  0  0  0  0
 22 24  2  0  0  0  0
 22 40  1  0  0  0  0
 23 50  1  0  0  0  0
 24 41  1  0  0  0  0
 25 59  1  0  0  0  0
 26 81  1  0  0  0  0
 27 82  1  0  0  0  0
 28 83  1  0  0  0  0
 29 31  2  0  0  0  0
 29 81  1  0  0  0  0
 30 84  1  0  0  0  0
 31 85  1  0  0  0  0
 32 66  2  0  0  0  0
 33 67  1  0  0  0  0
 33 70  1  0  0  0  0
 34 71  1  0  0  0  0
 34 76  2  0  0  0  0
 35 51  1  0  0  0  0
 35 72  1  0  0  0  0
 35 77  2  0  0  0  0
 36 63  1  0  0  0  0
 36 68  1  0  0  0  0
 36 78  2  0  0  0  0
 37 64  1  0  0  0  0
 37 73  1  0  0  0  0
 37 79  2  0  0  0  0
 38 69  1  0  0  0  0
 38 74  1  0  0  0  0
 38 80  2  0  0  0  0
 39 42  1  0  0  0  0
 40 51  1  0  0  0  0
 41 68  1  0  0  0  0
 42 44  1  0  0  0  0
 43 45  1  0  0  0  0
 43 48  1  0  0  0  0
 44 50  1  0  0  0  0
 45 52  1  0  0  0  0
 46 47  1  0  0  0  0
 46 53  1  0  0  0  0
 47 53  1  0  0  0  0
 48 69  1  0  0  0  0
 49 52  1  0  0  0  0
 49 69  1  0  0  0  0
 50 72  1  0  0  0  0
 51 68  1  0  0  0  0
 52 67  1  0  0  0  0
 53 74  1  0  0  0  0
 54 64  1  0  0  0  0
 55 65  1  0  0  0  0
 56 65  1  0  0  0  0
 57 65  1  0  0  0  0
 58 75  1  0  0  0  0
 59 74  1  0  0  0  0
 60 61  1  0  0  0  0
 60 62  1  0  0  0  0
 61 82  1  0  0  0  0
 62 83  1  0  0  0  0
 63 65  1  0  0  0  0
 63 73  1  0  0  0  0
 64 75  1  0  0  0  0
 66 67  1  0  0  0  0
M  CHG  1  75   1
M  ISO  4  38 100  61 101  74 100  82 101
M  END
> <Batch ID>
0103

> <Smiles>
CNC(C)C(=O)NC(C(=O)N1Cc2cc([101O:1][101CH2:1]CCOc3cccc(C[100N:0](C4CC4)[100C:0](=O)N4CCCC(n5nc(-c6ccc(Oc7ccc(F)cc7F)cc6)c(C(N)=O)c5N)C4)c3)ccc2CC1C(=O)NC1CCCc2ccccc21)C(C)(C)C

> <Shape>
0.203

> <Color>
0.075

> <Negative vol penalty>
0.000

$$$$

  -OEChem-04052301053D

 89 98  0     1  0  0  0  0  0999 V2000
  -27.9385  -26.9331    8.4070 C   0  0  0  0  0  0  0  0  0  0  0  0
  -27.5147  -26.0224    9.3695 C   0  0  0  0  0  0  0  0  0  0  0  0
  -23.2880   -9.7959   19.9067 C   0  0  0  0  0  0  0  0  0  0  0  0
  -23.7119   -9.9386   22.2810 C   0  0  0  0  0  0  0  0  0  0  0  0
  -27.8749  -18.0209   14.9219 C   0  0  0  0  0  0  0  0  0  0  0  0
  -29.2936  -27.0363    8.0954 C   0  0  0  0  0  0  0  0  0  0  0  0
  -28.4457  -25.2135   10.0202 C   0  0  0  0  0  0  0  0  0  0  0  0
  -27.6597  -24.9801   15.0175 C   0  0  0  0  0  0  0  0  0  0  0  0
  -26.7603  -18.7339   14.4805 C   0  0  0  0  0  0  0  0  0  0  0  0
  -22.5541   -8.6270   20.1080 C   0  0  0  0  0  0  0  0  0  0  0  0
  -22.9779   -8.7697   22.4823 C   0  0  0  0  0  0  0  0  0  0  0  0
  -26.6348  -24.1462   15.4626 C   0  0  0  0  0  0  0  0  0  0  0  0
  -19.4563   -7.7821   21.1677 C   0  0  0  0  0  0  0  0  0  0  0  0
  -18.2344   -7.6618   20.5059 C   0  0  0  0  0  0  0  0  0  0  0  0
  -28.2609  -22.4513   16.0125 C   0  0  0  0  0  0  0  0  0  0  0  0
  -25.9220  -18.8251   16.7446 C   0  0  0  0  0  0  0  0  0  0  0  0
  -19.0403   -5.6836   19.3771 C   0  0  0  0  0  0  0  0  0  0  0  0
  -23.8670  -10.4517   20.9932 C   0  0  0  0  0  0  0  0  0  0  0  0
  -28.0130  -17.7098   16.2746 C   0  0  0  0  0  0  0  0  0  0  0  0
  -24.1399  -12.9802   20.7934 C   0  0  0  0  0  0  0  0  0  0  0  0
  -30.2427  -26.2351    8.7496 C   0  0  0  0  0  0  0  0  0  0  0  0
  -28.9941  -24.5509   15.0565 C   0  0  0  0  0  0  0  0  0  0  0  0
  -29.8145  -25.3052    9.7161 C   0  0  0  0  0  0  0  0  0  0  0  0
  -29.3011  -23.2826   15.5697 C   0  0  0  0  0  0  0  0  0  0  0  0
  -25.7839  -19.1361   15.3918 C   0  0  0  0  0  0  0  0  0  0  0  0
  -22.3990   -8.1139   21.3957 C   0  0  0  0  0  0  0  0  0  0  0  0
  -26.9351  -22.8805   15.9575 C   0  0  0  0  0  0  0  0  0  0  0  0
  -20.4704   -6.8531   20.9341 C   0  0  0  0  0  0  0  0  0  0  0  0
  -27.0366  -18.1119   17.1860 C   0  0  0  0  0  0  0  0  0  0  0  0
  -18.0264   -6.6126   19.6107 C   0  0  0  0  0  0  0  0  0  0  0  0
  -20.2623   -5.8038   20.0389 C   0  0  0  0  0  0  0  0  0  0  0  0
  -24.6257  -11.6590   20.7859 C   0  0  0  0  0  0  0  0  0  0  0  0
  -25.2477  -13.7548   20.5499 C   0  0  0  0  0  0  0  0  0  0  0  0
  -24.0361  -19.7669   13.6667 C   0  0  0  0  0  0  0  0  0  0  0  0
  -29.2079  -16.9495   16.7231 C   0  0  0  0  0  0  0  0  0  0  0  0
  -22.8064  -13.4641   21.0019 C   0  0  0  0  0  0  0  0  0  0  0  0
  -31.2511  -24.0411   12.8771 C   0  0  0  0  0  0  0  0  0  0  0  0
  -33.1151  -23.5560   15.4871 C   0  0  0  0  0  0  0  0  0  0  0  0
  -33.3156  -22.7113   18.7876 C   0  0  0  0  0  0  0  0  0  0  0  0
  -29.9285  -14.8361   17.7898 C   0  0  0  0  0  0  0  0  0  0  0  0
  -31.6912  -26.3490    8.3452 C   0  0  0  0  0  0  0  0  0  0  0  0
  -30.0905  -25.4726   14.5975 C   0  0  0  0  0  0  0  0  0  0  0  0
  -30.7193  -22.7823   15.6518 C   0  0  0  0  0  0  0  0  0  0  0  0
  -22.8537  -20.7065   13.6477 C   0  0  0  0  0  0  0  0  0  0  0  0
  -32.6548  -25.7200    9.3482 C   0  0  0  0  0  0  0  0  0  0  0  0
  -22.5758  -20.9542   15.1183 C   0  0  0  0  0  0  0  0  0  0  0  0
  -30.1650  -12.5434   20.4702 C   0  0  0  0  0  0  0  0  0  0  0  0
  -32.1618  -24.3390    9.7684 C   0  0  0  0  0  0  0  0  0  0  0  0
  -28.7049  -12.2214   20.7999 C   0  0  0  0  0  0  0  0  0  0  0  0
  -30.3854  -12.7025   18.9666 C   0  0  0  0  0  0  0  0  0  0  0  0
  -28.0283  -13.3262   18.6306 C   0  0  0  0  0  0  0  0  0  0  0  0
  -30.7968  -24.4278   10.4615 C   0  0  1  0  0  0  0  0  0  0  0  0
  -31.3666  -24.7344   14.2051 C   0  0  1  0  0  0  0  0  0  0  0  0
  -27.7406  -13.2258   20.1374 C   0  0  1  0  0  0  0  0  0  0  0  0
  -23.9509  -20.8520   15.7687 C   0  0  2  0  0  0  0  0  0  0  0  0
  -28.0138  -18.5237   20.6310 C   0  0  0  0  0  0  0  0  0  0  0  0
  -34.9786  -22.3640   20.6346 C   0  0  0  0  0  0  0  0  0  0  0  0
  -33.8985  -20.8685   14.2732 C   0  0  0  0  0  0  0  0  0  0  0  0
  -34.7597  -20.1826   16.5217 C   0  0  0  0  0  0  0  0  0  0  0  0
  -35.7837  -22.1230   15.3346 C   0  0  0  0  0  0  0  0  0  0  0  0
  -32.1203  -24.8666   20.4261 C   0  0  0  0  0  0  0  0  0  0  0  0
  -24.6623  -22.2070   15.7658 C   0  0  0  0  0  0  0  0  0  1  0  0
  -27.1984  -18.9173   19.4178 C   0  0  0  0  0  0  0  0  0  0  0  0
  -33.4748  -22.3611   16.3368 C   0  0  1  0  0  0  0  0  0  0  0  0
  -34.0508  -23.3551   19.9493 C   0  0  2  0  0  0  0  0  0  0  0  0
  -34.4522  -21.3922   15.6134 C   0  0  0  0  0  0  0  0  0  0  0  0
  -25.9398  -11.5941   20.5557 N   0  0  0  0  0  0  0  0  0  0  0  0
  -26.2891  -12.8843   20.4163 N   0  0  0  0  0  0  0  0  0  0  0  0
  -24.6394  -19.8676   14.9383 N   0  0  0  0  0  0  0  0  0  0  0  0
  -31.7556  -23.7181   15.1849 N   0  0  0  0  0  0  0  0  0  0  0  0
  -29.4406  -13.6767   18.4176 N   0  0  0  0  0  0  0  0  0  0  0  0
  -25.4228  -15.0888   20.4392 N   0  0  0  0  0  0  0  0  0  0  0  0
  -21.7869  -12.5321   21.2392 N   0  0  0  0  0  0  0  0  0  0  0  0
  -28.9465  -15.7243   17.3371 N   0  0  0  0  0  0  0  0  0  0  0  0
  -30.9515  -24.8861   11.8255 N   0  0  0  0  0  0  0  0  0  0  0  0
  -33.9844  -22.8940   17.5957 N   0  0  0  0  0  0  0  0  0  0  0  0
  -33.0797  -23.8649   20.9582 N   0  3  0  0  0  0  0  0  0  0  0  0
  -24.3534  -19.1009   12.6918 O   0  0  0  0  0  0  0  0  0  0  0  0
  -30.3257  -17.4066   16.5008 O   0  0  0  0  0  0  0  0  0  0  0  0
  -22.5244  -14.6857   20.9622 O   0  0  0  0  0  0  0  0  0  0  0  0
  -31.4226  -22.8296   12.8110 O   0  0  0  0  0  0  0  0  0  0  0  0
  -34.0066  -24.3214   15.1116 O   0  0  0  0  0  0  0  0  0  0  0  0
  -32.2561  -22.1036   18.9244 O   0  0  0  0  0  0  0  0  0  0  0  0
  -31.1342  -15.0783   17.6760 O   0  0  0  0  0  0  0  0  0  0  0  0
  -21.6827   -6.9734   21.5925 O   0  0  0  0  0  0  0  0  0  0  0  0
  -25.9366  -22.0643   16.3920 O   0  0  0  0  0  0  0  0  0  1  0  0
  -27.1535  -17.8173   18.5115 O   0  0  0  0  0  0  0  0  0  0  0  0
  -16.8523   -6.4964   18.9764 F   0  0  0  0  0  0  0  0  0  0  0  0
  -21.2323   -4.9076   19.8114 F   0  0  0  0  0  0  0  0  0  0  0  0
  1  2  1  0  0  0  0
  1  6  2  0  0  0  0
  2  7  2  0  0  0  0
  3 10  2  0  0  0  0
  3 18  1  0  0  0  0
  4 11  1  0  0  0  0
  4 18  2  0  0  0  0
  5  9  2  0  0  0  0
  5 19  1  0  0  0  0
  6 21  1  0  0  0  0
  7 23  1  0  0  0  0
  8 12  2  0  0  0  0
  8 22  1  0  0  0  0
  9 25  1  0  0  0  0
 10 26  1  0  0  0  0
 11 26  2  0  0  0  0
 12 27  1  0  0  0  0
 13 14  2  0  0  0  0
 13 28  1  0  0  0  0
 14 30  1  0  0  0  0
 15 24  1  0  0  0  0
 15 27  2  0  0  0  0
 16 25  2  0  0  0  0
 16 29  1  0  0  0  0
 17 30  2  0  0  0  0
 17 31  1  0  0  0  0
 18 32  1  0  0  0  0
 19 29  2  0  0  0  0
 19 35  1  0  0  0  0
 20 32  1  0  0  0  0
 20 33  2  0  0  0  0
 20 36  1  0  0  0  0
 21 23  2  0  0  0  0
 21 41  1  0  0  0  0
 22 24  2  0  0  0  0
 22 42  1  0  0  0  0
 23 52  1  0  0  0  0
 24 43  1  0  0  0  0
 25 69  1  0  0  0  0
 26 85  1  0  0  0  0
 27 86  1  0  0  0  0
 28 31  2  0  0  0  0
 28 85  1  0  0  0  0
 29 87  1  0  0  0  0
 30 88  1  0  0  0  0
 31 89  1  0  0  0  0
 32 67  2  0  0  0  0
 33 68  1  0  0  0  0
 33 72  1  0  0  0  0
 34 44  1  0  0  0  0
 34 69  1  0  0  0  0
 34 78  2  0  0  0  0
 35 74  1  0  0  0  0
 35 79  2  0  0  0  0
 36 73  1  0  0  0  0
 36 80  2  0  0  0  0
 37 53  1  0  0  0  0
 37 75  1  0  0  0  0
 37 81  2  0  0  0  0
 38 64  1  0  0  0  0
 38 70  1  0  0  0  0
 38 82  2  0  0  0  0
 39 65  1  0  0  0  0
 39 76  1  0  0  0  0
 39 83  2  0  0  0  0
 40 71  1  0  0  0  0
 40 74  1  0  0  0  0
 40 84  2  0  0  0  0
 41 45  1  0  0  0  0
 42 53  1  0  0  0  0
 43 70  1  0  0  0  0
 44 46  1  0  0  0  0
 45 48  1  0  0  0  0
 46 55  1  0  0  0  0
 47 49  1  0  0  0  0
 47 50  1  0  0  0  0
 48 52  1  0  0  0  0
 49 54  1  0  0  0  0
 50 71  1  0  0  0  0
 51 54  1  0  0  0  0
 51 71  1  0  0  0  0
 52 75  1  0  0  0  0
 53 70  1  0  0  0  0
 54 68  1  0  0  0  0
 55 62  1  0  0  0  0
 55 69  1  0  0  0  0
 56 63  1  0  0  0  0
 57 65  1  0  0  0  0
 58 66  1  0  0  0  0
 59 66  1  0  0  0  0
 60 66  1  0  0  0  0
 61 77  1  0  0  0  0
 62 86  1  0  0  0  0
 63 87  1  0  0  0  0
 64 66  1  0  0  0  0
 64 76  1  0  0  0  0
 65 77  1  0  0  0  0
 67 68  1  0  0  0  0
M  CHG  1  77   1
M  ISO  4  40 100  62 101  74 100  86 101
M  END
> <Batch ID>
0103

> <Smiles>
CCOc1cc(N2C(=O)CCC2[101CH2:1][101O:1]c2ccc3c(c2)CN(C(=O)C(NC(=O)C(C)NC)C(C)(C)C)C(C(=O)NC2CCCc4ccccc42)C3)ccc1C(=O)[100NH:0][100C:0](=O)N1CCCC(n2nc(-c3ccc(Oc4ccc(F)cc4F)cc3)c(C(N)=O)c2N)C1

> <Shape>
0.130

> <Color>
0.166

> <Negative vol penalty>
0.000

$$$$

  -OEChem-04052301053D

 89 98  0     1  0  0  0  0  0999 V2000
  -27.3495  -35.4719   17.5121 C   0  0  0  0  0  0  0  0  0  0  0  0
  -28.1660  -34.3473   17.5768 C   0  0  0  0  0  0  0  0  0  0  0  0
  -25.3918  -14.6890   20.5038 C   0  0  0  0  0  0  0  0  0  0  0  0
  -26.7073  -12.8853   21.4275 C   0  0  0  0  0  0  0  0  0  0  0  0
  -26.3626  -35.6717   18.4765 C   0  0  0  0  0  0  0  0  0  0  0  0
  -27.9967  -33.4225   18.6066 C   0  0  0  0  0  0  0  0  0  0  0  0
  -26.6447  -25.7365   18.2540 C   0  0  0  0  0  0  0  0  0  0  0  0
  -29.3989  -19.2203   20.0271 C   0  0  0  0  0  0  0  0  0  0  0  0
  -30.7205  -18.8847   19.7333 C   0  0  0  0  0  0  0  0  0  0  0  0
  -24.5111  -13.7616   19.9472 C   0  0  0  0  0  0  0  0  0  0  0  0
  -25.8265  -11.9579   20.8710 C   0  0  0  0  0  0  0  0  0  0  0  0
  -26.2472  -24.4009   18.3191 C   0  0  0  0  0  0  0  0  0  0  0  0
  -22.7743  -10.6899   21.5758 C   0  0  0  0  0  0  0  0  0  0  0  0
  -22.3586   -9.6292   22.3806 C   0  0  0  0  0  0  0  0  0  0  0  0
  -25.2177  -24.8009   20.4704 C   0  0  0  0  0  0  0  0  0  0  0  0
  -28.6333  -17.7251   18.2906 C   0  0  0  0  0  0  0  0  0  0  0  0
  -23.3070   -8.0621   20.8052 C   0  0  0  0  0  0  0  0  0  0  0  0
  -26.4900  -14.2508   21.2439 C   0  0  0  0  0  0  0  0  0  0  0  0
  -27.0961  -16.2161   22.7532 C   0  0  0  0  0  0  0  0  0  0  0  0
  -26.1747  -34.7439   19.5131 C   0  0  0  0  0  0  0  0  0  0  0  0
  -26.3165  -26.6141   19.2911 C   0  0  0  0  0  0  0  0  0  0  0  0
  -27.0072  -33.6108   19.5864 C   0  0  0  0  0  0  0  0  0  0  0  0
  -25.6024  -26.1427   20.4050 C   0  0  0  0  0  0  0  0  0  0  0  0
  -29.9549  -17.3895   17.9969 C   0  0  0  0  0  0  0  0  0  0  0  0
  -28.3553  -18.6404   19.3058 C   0  0  0  0  0  0  0  0  0  0  0  0
  -30.9986  -17.9693   18.7182 C   0  0  0  0  0  0  0  0  0  0  0  0
  -24.7284  -12.3961   20.1308 C   0  0  0  0  0  0  0  0  0  0  0  0
  -25.5356  -23.9342   19.4246 C   0  0  0  0  0  0  0  0  0  0  0  0
  -23.4563  -10.4367   20.3856 C   0  0  0  0  0  0  0  0  0  0  0  0
  -22.6250   -8.3153   21.9953 C   0  0  0  0  0  0  0  0  0  0  0  0
  -23.7226   -9.1228   20.0003 C   0  0  0  0  0  0  0  0  0  0  0  0
  -27.4005  -15.2083   21.8186 C   0  0  0  0  0  0  0  0  0  0  0  0
  -28.2940  -16.8493   22.9779 C   0  0  0  0  0  0  0  0  0  0  0  0
  -25.9907  -18.0031   19.3854 C   0  0  0  0  0  0  0  0  0  0  0  0
  -26.7334  -20.2984   20.1026 C   0  0  0  0  0  0  0  0  0  0  0  0
  -25.8425  -16.5501   23.3637 C   0  0  0  0  0  0  0  0  0  0  0  0
  -26.4903  -30.1087   20.6452 C   0  0  0  0  0  0  0  0  0  0  0  0
  -23.6768  -29.0531   21.2618 C   0  0  0  0  0  0  0  0  0  0  0  0
  -20.3415  -28.6932   21.8812 C   0  0  0  0  0  0  0  0  0  0  0  0
  -33.2407  -17.0587   19.3777 C   0  0  0  0  0  0  0  0  0  0  0  0
  -25.1261  -35.0269   20.5594 C   0  0  0  0  0  0  0  0  0  0  0  0
  -26.7773  -28.0463   19.2920 C   0  0  0  0  0  0  0  0  0  0  0  0
  -25.3016  -27.1146   21.5131 C   0  0  0  0  0  0  0  0  0  0  0  0
  -24.5457  -18.4290   19.5347 C   0  0  0  0  0  0  0  0  0  0  0  0
  -24.7643  -33.8081   21.4044 C   0  0  0  0  0  0  0  0  0  0  0  0
  -24.3407  -19.9200   19.6674 C   0  0  0  0  0  0  0  0  0  0  0  0
  -33.0152  -16.1024   22.9453 C   0  0  0  0  0  0  0  0  0  0  0  0
  -26.0257  -33.0869   21.8685 C   0  0  0  0  0  0  0  0  0  0  0  0
  -31.5340  -15.7694   23.1143 C   0  0  0  0  0  0  0  0  0  0  0  0
  -33.4940  -15.8467   21.5195 C   0  0  0  0  0  0  0  0  0  0  0  0
  -31.2041  -16.2284   20.6522 C   0  0  0  0  0  0  0  0  0  0  0  0
  -26.8380  -32.5722   20.6740 C   0  0  1  0  0  0  0  0  0  0  0  0
  -25.7606  -29.0070   19.9343 C   0  0  1  0  0  0  0  0  0  0  0  0
  -30.6876  -16.5158   22.0699 C   0  0  1  0  0  0  0  0  0  0  0  0
  -25.3278  -20.5306   20.6615 C   0  0  1  0  0  0  0  0  0  0  0  0
  -30.2237  -16.4045   16.9058 C   0  0  0  0  0  0  0  0  0  0  0  0
  -25.2333  -19.9119   22.0648 C   0  0  0  0  0  0  0  0  0  0  0  0
  -18.5176  -29.5240   23.3913 C   0  0  0  0  0  0  0  0  0  0  0  0
  -24.7600  -27.3133   23.5210 C   0  0  0  0  0  0  0  0  0  0  0  0
  -22.4978  -27.4154   24.5888 C   0  0  0  0  0  0  0  0  0  0  0  0
  -23.8137  -29.5084   24.2561 C   0  0  0  0  0  0  0  0  0  0  0  0
  -32.9578  -18.1484   17.1950 C   0  0  0  0  0  0  0  0  0  0  0  0
  -18.7967  -29.7867   19.6059 C   0  0  0  0  0  0  0  0  0  0  0  0
  -25.0408  -22.0390   20.7741 C   0  0  0  0  0  0  0  0  0  1  0  0
  -22.7724  -28.3676   22.2545 C   0  0  1  0  0  0  0  0  0  0  0  0
  -19.2346  -29.7158   22.0640 C   0  0  2  0  0  0  0  0  0  0  0  0
  -23.4640  -28.1415   23.6286 C   0  0  0  0  0  0  0  0  0  0  0  0
  -28.6907  -15.1981   21.4732 N   0  0  0  0  0  0  0  0  0  0  0  0
  -29.2076  -16.2074   22.1945 N   0  0  0  0  0  0  0  0  0  0  0  0
  -26.9814  -18.9873   19.6131 N   0  0  0  0  0  0  0  0  0  0  0  0
  -24.8778  -28.4053   20.9480 N   0  0  0  0  0  0  0  0  0  0  0  0
  -32.6432  -16.5144   20.5331 N   0  0  0  0  0  0  0  0  0  0  0  0
  -28.6446  -17.8869   23.7671 N   0  0  0  0  0  0  0  0  0  0  0  0
  -24.7108  -15.7977   23.0207 N   0  0  0  0  0  0  0  0  0  0  0  0
  -26.2398  -31.3689   20.1368 N   0  0  0  0  0  0  0  0  0  0  0  0
  -21.5570  -29.1718   22.3225 N   0  0  0  0  0  0  0  0  0  0  0  0
  -32.3719  -17.6344   18.4311 N   0  0  0  0  0  0  0  0  0  0  0  0
  -18.2328  -29.5964   20.9671 N   0  3  0  0  0  0  0  0  0  0  0  0
  -26.2169  -16.8114   19.1499 O   0  0  0  0  0  0  0  0  0  0  0  0
  -27.5519  -21.2214   20.0777 O   0  0  0  0  0  0  0  0  0  0  0  0
  -25.7260  -17.4984   24.1765 O   0  0  0  0  0  0  0  0  0  0  0  0
  -27.2258  -29.8368   21.5869 O   0  0  0  0  0  0  0  0  0  0  0  0
  -23.3329  -30.1363   20.7804 O   0  0  0  0  0  0  0  0  0  0  0  0
  -20.1467  -27.5797   21.3988 O   0  0  0  0  0  0  0  0  0  0  0  0
  -34.4592  -16.9875   19.1757 O   0  0  0  0  0  0  0  0  0  0  0  0
  -23.8690  -11.4908   19.5880 O   0  0  0  0  0  0  0  0  0  0  0  0
  -25.1467  -22.6302   19.4796 O   0  0  0  0  0  0  0  0  0  1  0  0
  -22.2271   -7.2969   22.7691 F   0  0  0  0  0  0  0  0  0  0  0  0
  -24.3785   -8.8734   18.8586 F   0  0  0  0  0  0  0  0  0  0  0  0
  1  2  1  0  0  0  0
  1  5  2  0  0  0  0
  2  6  2  0  0  0  0
  3 10  2  0  0  0  0
  3 18  1  0  0  0  0
  4 11  1  0  0  0  0
  4 18  2  0  0  0  0
  5 20  1  0  0  0  0
  6 22  1  0  0  0  0
  7 12  2  0  0  0  0
  7 21  1  0  0  0  0
  8  9  2  0  0  0  0
  8 25  1  0  0  0  0
  9 26  1  0  0  0  0
 10 27  1  0  0  0  0
 11 27  2  0  0  0  0
 12 28  1  0  0  0  0
 13 14  2  0  0  0  0
 13 29  1  0  0  0  0
 14 30  1  0  0  0  0
 15 23  1  0  0  0  0
 15 28  2  0  0  0  0
 16 24  1  0  0  0  0
 16 25  2  0  0  0  0
 17 30  2  0  0  0  0
 17 31  1  0  0  0  0
 18 32  1  0  0  0  0
 19 32  1  0  0  0  0
 19 33  2  0  0  0  0
 19 36  1  0  0  0  0
 20 22  2  0  0  0  0
 20 41  1  0  0  0  0
 21 23  2  0  0  0  0
 21 42  1  0  0  0  0
 22 52  1  0  0  0  0
 23 43  1  0  0  0  0
 24 26  2  0  0  0  0
 24 56  1  0  0  0  0
 25 70  1  0  0  0  0
 26 77  1  0  0  0  0
 27 86  1  0  0  0  0
 28 87  1  0  0  0  0
 29 31  2  0  0  0  0
 29 86  1  0  0  0  0
 30 88  1  0  0  0  0
 31 89  1  0  0  0  0
 32 68  2  0  0  0  0
 33 69  1  0  0  0  0
 33 73  1  0  0  0  0
 34 44  1  0  0  0  0
 34 70  1  0  0  0  0
 34 79  2  0  0  0  0
 35 55  1  0  0  0  0
 35 70  1  0  0  0  0
 35 80  2  0  0  0  0
 36 74  1  0  0  0  0
 36 81  2  0  0  0  0
 37 53  1  0  0  0  0
 37 75  1  0  0  0  0
 37 82  2  0  0  0  0
 38 65  1  0  0  0  0
 38 71  1  0  0  0  0
 38 83  2  0  0  0  0
 39 66  1  0  0  0  0
 39 76  1  0  0  0  0
 39 84  2  0  0  0  0
 40 72  1  0  0  0  0
 40 77  1  0  0  0  0
 40 85  2  0  0  0  0
 41 45  1  0  0  0  0
 42 53  1  0  0  0  0
 43 71  1  0  0  0  0
 44 46  1  0  0  0  0
 45 48  1  0  0  0  0
 46 55  1  0  0  0  0
 47 49  1  0  0  0  0
 47 50  1  0  0  0  0
 48 52  1  0  0  0  0
 49 54  1  0  0  0  0
 50 72  1  0  0  0  0
 51 54  1  0  0  0  0
 51 72  1  0  0  0  0
 52 75  1  0  0  0  0
 53 71  1  0  0  0  0
 54 69  1  0  0  0  0
 55 57  1  0  0  0  0
 55 64  1  0  0  0  0
 58 66  1  0  0  0  0
 59 67  1  0  0  0  0
 60 67  1  0  0  0  0
 61 67  1  0  0  0  0
 62 77  1  0  0  0  0
 63 78  1  0  0  0  0
 64 87  1  0  0  0  0
 65 67  1  0  0  0  0
 65 76  1  0  0  0  0
 66 78  1  0  0  0  0
 68 69  1  0  0  0  0
M  CHG  1  78   1
M  ISO  4  40 100  64 101  77 100  87 101
M  END
> <Batch ID>
0103

> <Smiles>
CNC(C)C(=O)NC(C(=O)N1Cc2cc([101O:1][101CH2:1]C3(C)CCC(=O)N(c4ccc([100N:0](C)[100C:0](=O)N5CCCC(n6nc(-c7ccc(Oc8ccc(F)cc8F)cc7)c(C(N)=O)c6N)C5)c(C)c4)C3=O)ccc2CC1C(=O)NC1CCCc2ccccc21)C(C)(C)C

> <Shape>
0.224

> <Color>
0.058

> <Negative vol penalty>
0.000

$$$$

  -OEChem-04052301053D

 85 94  0     1  0  0  0  0  0999 V2000
  -24.1212  -38.0274   18.4145 C   0  0  0  0  0  0  0  0  0  0  0  0
  -24.2999  -36.8060   17.7728 C   0  0  0  0  0  0  0  0  0  0  0  0
  -24.1614   -9.3204   21.6811 C   0  0  0  0  0  0  0  0  0  0  0  0
  -24.5661  -10.7411   23.5928 C   0  0  0  0  0  0  0  0  0  0  0  0
  -24.6387  -38.2234   19.6942 C   0  0  0  0  0  0  0  0  0  0  0  0
  -24.9972  -35.7803   18.4100 C   0  0  0  0  0  0  0  0  0  0  0  0
  -25.1742  -28.6383   18.9367 C   0  0  0  0  0  0  0  0  0  0  0  0
  -30.5587  -20.2394   20.2601 C   0  0  0  0  0  0  0  0  0  0  0  0
  -30.3805  -18.8840   19.9834 C   0  0  0  0  0  0  0  0  0  0  0  0
  -23.7544   -8.2922   22.5313 C   0  0  0  0  0  0  0  0  0  0  0  0
  -24.1590   -9.7130   24.4431 C   0  0  0  0  0  0  0  0  0  0  0  0
  -26.0652  -27.5719   18.8251 C   0  0  0  0  0  0  0  0  0  0  0  0
  -20.9912   -7.4662   24.2963 C   0  0  0  0  0  0  0  0  0  0  0  0
  -19.8322   -6.7671   23.9595 C   0  0  0  0  0  0  0  0  0  0  0  0
  -26.8462  -27.9975   21.0674 C   0  0  0  0  0  0  0  0  0  0  0  0
  -27.9854  -19.1715   20.1178 C   0  0  0  0  0  0  0  0  0  0  0  0
  -21.1032   -4.7157   23.8442 C   0  0  0  0  0  0  0  0  0  0  0  0
  -24.5673  -10.5448   22.2118 C   0  0  0  0  0  0  0  0  0  0  0  0
  -24.1802  -12.6076   20.7618 C   0  0  0  0  0  0  0  0  0  0  0  0
  -25.3344  -37.1963   20.3514 C   0  0  0  0  0  0  0  0  0  0  0  0
  -25.1200  -29.4005   20.1125 C   0  0  0  0  0  0  0  0  0  0  0  0
  -25.5256  -35.9632   19.6992 C   0  0  0  0  0  0  0  0  0  0  0  0
  -25.9518  -29.0715   21.1924 C   0  0  0  0  0  0  0  0  0  0  0  0
  -29.4503  -21.0609   20.4658 C   0  0  0  0  0  0  0  0  0  0  0  0
  -29.0938  -18.3500   19.9122 C   0  0  0  0  0  0  0  0  0  0  0  0
  -23.7532   -8.4885   23.9123 C   0  0  0  0  0  0  0  0  0  0  0  0
  -26.9034  -27.2531   19.8894 C   0  0  0  0  0  0  0  0  0  0  0  0
  -22.2062   -6.7902   24.4070 C   0  0  0  0  0  0  0  0  0  0  0  0
  -28.1637  -20.5270   20.3946 C   0  0  0  0  0  0  0  0  0  0  0  0
  -19.8881   -5.3918   23.7335 C   0  0  0  0  0  0  0  0  0  0  0  0
  -22.2622   -5.4149   24.1810 C   0  0  0  0  0  0  0  0  0  0  0  0
  -24.9883  -11.6071   21.3341 C   0  0  0  0  0  0  0  0  0  0  0  0
  -25.0490  -13.3657   20.0156 C   0  0  0  0  0  0  0  0  0  0  0  0
  -22.7701  -12.8319   20.8931 C   0  0  0  0  0  0  0  0  0  0  0  0
  -25.6525  -32.4496   20.8357 C   0  0  0  0  0  0  0  0  0  0  0  0
  -24.5502  -31.5463   23.7497 C   0  0  0  0  0  0  0  0  0  0  0  0
  -24.0330  -29.0334   26.0001 C   0  0  0  0  0  0  0  0  0  0  0  0
  -29.9048  -16.0204   19.4009 C   0  0  0  0  0  0  0  0  0  0  0  0
  -25.9164  -37.4710   21.7154 C   0  0  0  0  0  0  0  0  0  0  0  0
  -24.1345  -30.5310   20.2269 C   0  0  0  0  0  0  0  0  0  0  0  0
  -25.9183  -29.8459   22.4838 C   0  0  0  0  0  0  0  0  0  0  0  0
  -26.3189  -36.2075   22.4715 C   0  0  0  0  0  0  0  0  0  0  0  0
  -29.8677  -12.5274   18.7118 C   0  0  0  0  0  0  0  0  0  0  0  0
  -27.1047  -35.2685   21.5619 C   0  0  0  0  0  0  0  0  0  0  0  0
  -28.5285  -12.0589   19.2856 C   0  0  0  0  0  0  0  0  0  0  0  0
  -30.4247  -24.3772   21.7475 C   0  0  0  0  0  0  0  0  0  0  0  0
  -30.5048  -13.6152   19.5746 C   0  0  0  0  0  0  0  0  0  0  0  0
  -30.8103  -22.9335   21.4321 C   0  0  0  0  0  0  0  0  0  0  0  0
  -28.6950  -23.4522   20.3767 C   0  0  0  0  0  0  0  0  0  0  0  0
  -28.2999  -14.2974   20.4360 C   0  0  0  0  0  0  0  0  0  0  0  0
  -26.2548  -34.8180   20.3676 C   0  0  1  0  0  0  0  0  0  0  0  0
  -24.5263  -31.5608   21.2821 C   0  0  1  0  0  0  0  0  0  0  0  0
  -29.4861  -24.7456   20.6022 C   0  0  1  0  0  0  0  0  0  0  0  0
  -27.5888  -13.2479   19.5663 C   0  0  2  0  0  0  0  0  0  0  0  0
  -23.1490  -28.6087   28.3100 C   0  0  0  0  0  0  0  0  0  0  0  0
  -27.1053  -32.7147   24.9397 C   0  0  0  0  0  0  0  0  0  0  0  0
  -26.6235  -31.4449   27.0430 C   0  0  0  0  0  0  0  0  0  0  0  0
  -25.0301  -33.1931   26.2508 C   0  0  0  0  0  0  0  0  0  0  0  0
  -21.9199  -27.2269   24.9850 C   0  0  0  0  0  0  0  0  0  0  0  0
  -25.7929  -20.6815   20.5011 C   0  0  0  0  0  0  0  0  0  0  0  0
  -28.6039  -25.9422   20.9121 C   0  0  0  0  0  0  0  0  0  1  0  0
  -25.1790  -30.9969   25.0073 C   0  0  1  0  0  0  0  0  0  0  0  0
  -22.8170  -28.6559   26.8267 C   0  0  2  0  0  0  0  0  0  0  0  0
  -25.9868  -32.0738   25.7853 C   0  0  0  0  0  0  0  0  0  0  0  0
  -26.2720  -11.7167   20.9815 N   0  0  0  0  0  0  0  0  0  0  0  0
  -26.2769  -12.7951   20.1796 N   0  0  0  0  0  0  0  0  0  0  0  0
  -29.6411  -22.3989   20.7386 N   0  0  3  0  0  0  0  0  0  0  0  0
  -24.9421  -30.9463   22.5446 N   0  0  0  0  0  0  0  0  0  0  0  0
  -29.5581  -14.7107   19.7950 N   0  0  0  0  0  0  0  0  0  0  0  0
  -24.8749  -14.4580   19.2416 N   0  0  0  0  0  0  0  0  0  0  0  0
  -22.0269  -11.9584   21.6987 N   0  0  0  0  0  0  0  0  0  0  0  0
  -28.9128  -16.9732   19.6306 N   0  0  0  0  0  0  0  0  0  0  0  0
  -25.3203  -33.7894   20.7717 N   0  0  0  0  0  0  0  0  0  0  0  0
  -24.0957  -30.3923   25.7749 N   0  0  0  0  0  0  0  0  0  0  0  0
  -22.3070  -27.3170   26.4164 N   0  3  0  0  0  0  0  0  0  0  0  0
  -22.1838  -13.7690   20.3002 O   0  0  0  0  0  0  0  0  0  0  0  0
  -26.7426  -31.9566   20.5704 O   0  0  0  0  0  0  0  0  0  0  0  0
  -23.7358  -32.4689   23.8340 O   0  0  0  0  0  0  0  0  0  0  0  0
  -24.8480  -28.2060   25.5979 O   0  0  0  0  0  0  0  0  0  0  0  0
  -30.9902  -16.2730   18.8718 O   0  0  0  0  0  0  0  0  0  0  0  0
  -23.3559   -7.4856   24.7422 O   0  0  0  0  0  0  0  0  0  0  0  0
  -27.0680  -21.3131   20.5930 O   0  0  0  0  0  0  0  0  0  0  0  0
  -27.7746  -26.2131   19.7829 O   0  0  0  0  0  0  0  0  0  1  0  0
  -18.7748   -4.7202   23.4116 F   0  0  0  0  0  0  0  0  0  0  0  0
  -23.4264   -4.7597   24.2870 F   0  0  0  0  0  0  0  0  0  0  0  0
  1  2  1  0  0  0  0
  1  5  2  0  0  0  0
  2  6  2  0  0  0  0
  3 10  2  0  0  0  0
  3 18  1  0  0  0  0
  4 11  1  0  0  0  0
  4 18  2  0  0  0  0
  5 20  1  0  0  0  0
  6 22  1  0  0  0  0
  7 12  2  0  0  0  0
  7 21  1  0  0  0  0
  8  9  2  0  0  0  0
  8 24  1  0  0  0  0
  9 25  1  0  0  0  0
 10 26  1  0  0  0  0
 11 26  2  0  0  0  0
 12 27  1  0  0  0  0
 13 14  2  0  0  0  0
 13 28  1  0  0  0  0
 14 30  1  0  0  0  0
 15 23  1  0  0  0  0
 15 27  2  0  0  0  0
 16 25  2  0  0  0  0
 16 29  1  0  0  0  0
 17 30  2  0  0  0  0
 17 31  1  0  0  0  0
 18 32  1  0  0  0  0
 19 32  1  0  0  0  0
 19 33  2  0  0  0  0
 19 34  1  0  0  0  0
 20 22  2  0  0  0  0
 20 39  1  0  0  0  0
 21 23  2  0  0  0  0
 21 40  1  0  0  0  0
 22 51  1  0  0  0  0
 23 41  1  0  0  0  0
 24 29  2  0  0  0  0
 24 67  1  0  0  0  0
 25 72  1  0  0  0  0
 26 81  1  0  0  0  0
 27 83  1  0  0  0  0
 28 31  2  0  0  0  0
 28 81  1  0  0  0  0
 29 82  1  0  0  0  0
 30 84  1  0  0  0  0
 31 85  1  0  0  0  0
 32 65  2  0  0  0  0
 33 66  1  0  0  0  0
 33 70  1  0  0  0  0
 34 71  1  0  0  0  0
 34 76  2  0  0  0  0
 35 52  1  0  0  0  0
 35 73  1  0  0  0  0
 35 77  2  0  0  0  0
 36 62  1  0  0  0  0
 36 68  1  0  0  0  0
 36 78  2  0  0  0  0
 37 63  1  0  0  0  0
 37 74  1  0  0  0  0
 37 79  2  0  0  0  0
 38 69  1  0  0  0  0
 38 72  1  0  0  0  0
 38 80  2  0  0  0  0
 39 42  1  0  0  0  0
 40 52  1  0  0  0  0
 41 68  1  0  0  0  0
 42 44  1  0  0  0  0
 43 45  1  0  0  0  0
 43 47  1  0  0  0  0
 44 51  1  0  0  0  0
 45 54  1  0  0  0  0
 46 48  1  0  0  0  0
 46 53  1  0  0  0  0
 47 69  1  0  0  0  0
 48 67  1  0  0  0  0
 49 53  1  0  0  0  0
 49 67  1  0  0  0  0
 50 54  1  0  0  0  0
 50 69  1  0  0  0  0
 51 73  1  0  0  0  0
 52 68  1  0  0  0  0
 53 61  1  0  0  0  0
 54 66  1  0  0  0  0
 55 63  1  0  0  0  0
 56 64  1  0  0  0  0
 57 64  1  0  0  0  0
 58 64  1  0  0  0  0
 59 75  1  0  0  0  0
 60 82  1  0  0  0  0
 61 83  1  0  0  0  0
 62 64  1  0  0  0  0
 62 74  1  0  0  0  0
 63 75  1  0  0  0  0
 65 66  1  0  0  0  0
M  CHG  1  75   1
M  ISO  4  38 100  61 101  72 100  83 101
M  END
> <Batch ID>
0103

> <Smiles>
CNC(C)C(=O)NC(C(=O)N1Cc2cc([101O:1][101CH2:1]C3CCN(c4ccc([100NH:0][100C:0](=O)N5CCCC(n6nc(-c7ccc(Oc8ccc(F)cc8F)cc7)c(C(N)=O)c6N)C5)cc4OC)C3)ccc2CC1C(=O)NC1CCCc2ccccc21)C(C)(C)C

> <Shape>
0.321

> <Color>
0.146

> <Negative vol penalty>
0.000

$$$$

  -OEChem-04052301053D

 85 93  0     1  0  0  0  0  0999 V2000
  -22.6752  -35.6892   18.2311 C   0  0  0  0  0  0  0  0  0  0  0  0
  -23.7356  -34.7890   18.2524 C   0  0  0  0  0  0  0  0  0  0  0  0
  -22.9421  -10.6584   21.1963 C   0  0  0  0  0  0  0  0  0  0  0  0
  -24.7156   -9.0588   21.5609 C   0  0  0  0  0  0  0  0  0  0  0  0
  -21.6391  -35.5661   19.1559 C   0  0  0  0  0  0  0  0  0  0  0  0
  -23.7612  -33.7658   19.1994 C   0  0  0  0  0  0  0  0  0  0  0  0
  -25.9643  -28.1021   18.4414 C   0  0  0  0  0  0  0  0  0  0  0  0
  -22.0047   -9.6259   21.2256 C   0  0  0  0  0  0  0  0  0  0  0  0
  -23.7782   -8.0263   21.5903 C   0  0  0  0  0  0  0  0  0  0  0  0
  -27.1810  -27.5150   18.7858 C   0  0  0  0  0  0  0  0  0  0  0  0
  -21.8169   -5.0114   22.1215 C   0  0  0  0  0  0  0  0  0  0  0  0
  -21.9368   -4.0542   23.1290 C   0  0  0  0  0  0  0  0  0  0  0  0
  -26.1889  -26.6620   20.8125 C   0  0  0  0  0  0  0  0  0  0  0  0
  -28.7647  -19.4454   18.2235 C   0  0  0  0  0  0  0  0  0  0  0  0
  -26.7876  -19.8181   19.5611 C   0  0  0  0  0  0  0  0  0  0  0  0
  -21.6785   -5.7803   24.7996 C   0  0  0  0  0  0  0  0  0  0  0  0
  -24.2975  -10.3749   21.3638 C   0  0  0  0  0  0  0  0  0  0  0  0
  -25.7284  -12.2016   22.4238 C   0  0  0  0  0  0  0  0  0  0  0  0
  -21.6472  -34.5351   20.1086 C   0  0  0  0  0  0  0  0  0  0  0  0
  -24.8518  -27.9825   19.2866 C   0  0  0  0  0  0  0  0  0  0  0  0
  -22.7250  -33.6297   20.1388 C   0  0  0  0  0  0  0  0  0  0  0  0
  -24.9585  -27.2463   20.4752 C   0  0  0  0  0  0  0  0  0  0  0  0
  -29.0614  -20.8070   18.2826 C   0  0  0  0  0  0  0  0  0  0  0  0
  -27.0843  -21.1797   19.6202 C   0  0  0  0  0  0  0  0  0  0  0  0
  -27.6277  -18.9509   18.8627 C   0  0  0  0  0  0  0  0  0  0  0  0
  -22.4228   -8.3098   21.4227 C   0  0  0  0  0  0  0  0  0  0  0  0
  -27.2943  -26.7973   19.9729 C   0  0  0  0  0  0  0  0  0  0  0  0
  -21.6279   -6.3531   22.4531 C   0  0  0  0  0  0  0  0  0  0  0  0
  -28.2212  -21.6742   18.9810 C   0  0  0  0  0  0  0  0  0  0  0  0
  -21.8675   -4.4387   24.4680 C   0  0  0  0  0  0  0  0  0  0  0  0
  -21.5587   -6.7375   23.7921 C   0  0  0  0  0  0  0  0  0  0  0  0
  -25.2664  -11.4410   21.3330 C   0  0  0  0  0  0  0  0  0  0  0  0
  -26.6324  -13.0771   21.8735 C   0  0  0  0  0  0  0  0  0  0  0  0
  -25.3724  -12.1236   23.8104 C   0  0  0  0  0  0  0  0  0  0  0  0
  -23.0322  -30.0275   20.9024 C   0  0  0  0  0  0  0  0  0  0  0  0
  -21.2865  -27.3684   21.5382 C   0  0  0  0  0  0  0  0  0  0  0  0
  -21.1838  -23.9689   21.8200 C   0  0  0  0  0  0  0  0  0  0  0  0
  -27.6968  -16.7575   17.6882 C   0  0  0  0  0  0  0  0  0  0  0  0
  -20.5287  -34.4709   21.1183 C   0  0  0  0  0  0  0  0  0  0  0  0
  -23.5391  -28.5991   18.8878 C   0  0  0  0  0  0  0  0  0  0  0  0
  -23.7885  -27.0713   21.4074 C   0  0  0  0  0  0  0  0  0  0  0  0
  -20.4440  -33.1334   21.8493 C   0  0  0  0  0  0  0  0  0  0  0  0
  -28.7089  -13.2341   17.2738 C   0  0  0  0  0  0  0  0  0  0  0  0
  -21.8266  -32.6948   22.3216 C   0  0  0  0  0  0  0  0  0  0  0  0
  -27.8868  -12.5158   18.3425 C   0  0  0  0  0  0  0  0  0  0  0  0
  -27.9995  -14.4821   16.7567 C   0  0  0  0  0  0  0  0  0  0  0  0
  -26.7847  -14.7200   18.9010 C   0  0  0  0  0  0  0  0  0  0  0  0
  -22.7762  -32.4915   21.1348 C   0  0  1  0  0  0  0  0  0  0  0  0
  -22.6111  -28.8476   20.0729 C   0  0  1  0  0  0  0  0  0  0  0  0
  -27.4921  -13.4821   19.4727 C   0  0  1  0  0  0  0  0  0  0  0  0
  -30.2824  -21.3181   17.5915 C   0  0  0  0  0  0  0  0  0  0  0  0
  -26.1742  -22.0923   20.3743 C   0  0  0  0  0  0  0  0  0  0  0  0
  -25.3234  -16.6966   19.9788 C   0  0  0  0  0  0  0  0  0  0  0  0
  -19.6266  -22.0857   22.3909 C   0  0  0  0  0  0  0  0  0  0  0  0
  -21.5256  -28.0711   24.4978 C   0  0  0  0  0  0  0  0  0  0  0  0
  -20.8117  -25.7333   25.0390 C   0  0  0  0  0  0  0  0  0  0  0  0
  -19.2685  -27.2514   23.7993 C   0  0  0  0  0  0  0  0  0  0  0  0
  -21.4851  -22.7528   19.1387 C   0  0  0  0  0  0  0  0  0  0  0  0
  -30.1781  -24.6260   19.6884 C   0  0  0  0  0  0  0  0  0  0  0  0
  -26.8275  -16.8783   20.0119 C   0  0  0  0  0  0  0  0  0  0  0  0
  -29.3293  -25.8065   19.2429 C   0  0  0  0  0  0  0  0  0  1  0  0
  -29.3255  -23.4442   20.1227 C   0  0  0  0  0  0  0  0  0  0  0  0
  -21.2988  -26.3146   22.6191 C   0  0  1  0  0  0  0  0  0  0  0  0
  -20.2068  -22.9421   21.2762 C   0  0  2  0  0  0  0  0  0  0  0  0
  -20.7489  -26.8474   23.9724 C   0  0  0  0  0  0  0  0  0  0  0  0
  -25.8301  -11.8018   20.1771 N   0  0  0  0  0  0  0  0  0  0  0  0
  -26.6556  -12.7987   20.5385 N   0  0  0  0  0  0  0  0  0  0  0  0
  -22.5280  -27.6983   20.9764 N   0  0  0  0  0  0  0  0  0  0  0  0
  -27.5948  -15.3616   17.8540 N   0  0  0  0  0  0  0  0  0  0  0  0
  -27.4016  -14.0502   22.4061 N   0  0  0  0  0  0  0  0  0  0  0  0
  -24.4273  -11.1668   24.2048 N   0  0  0  0  0  0  0  0  0  0  0  0
  -22.5021  -31.2312   20.4784 N   0  0  0  0  0  0  0  0  0  0  0  0
  -20.5653  -25.1726   22.0841 N   0  0  0  0  0  0  0  0  0  0  0  0
  -27.3203  -17.5415   18.8002 N   0  0  0  0  0  0  0  0  0  0  0  0
  -20.8880  -22.0451   20.3003 N   0  3  0  0  0  0  0  0  0  0  0  0
  -25.8652  -12.8910   24.6717 O   0  0  0  0  0  0  0  0  0  0  0  0
  -23.7812  -29.8582   21.8574 O   0  0  0  0  0  0  0  0  0  0  0  0
  -20.2139  -27.8750   21.1996 O   0  0  0  0  0  0  0  0  0  0  0  0
  -22.3757  -23.7262   21.9965 O   0  0  0  0  0  0  0  0  0  0  0  0
  -28.1192  -17.2609   16.6404 O   0  0  0  0  0  0  0  0  0  0  0  0
  -21.5084   -7.3021   21.4517 O   0  0  0  0  0  0  0  0  0  0  0  0
  -28.4810  -26.2239   20.3118 O   0  0  0  0  0  0  0  0  0  1  0  0
  -28.5125  -23.0122   19.0401 O   0  0  0  0  0  0  0  0  0  0  0  0
  -21.9811   -3.5192   25.4354 F   0  0  0  0  0  0  0  0  0  0  0  0
  -21.3761   -8.0248   24.1168 F   0  0  0  0  0  0  0  0  0  0  0  0
  1  2  1  0  0  0  0
  1  5  2  0  0  0  0
  2  6  2  0  0  0  0
  3  8  2  0  0  0  0
  3 17  1  0  0  0  0
  4  9  1  0  0  0  0
  4 17  2  0  0  0  0
  5 19  1  0  0  0  0
  6 21  1  0  0  0  0
  7 10  2  0  0  0  0
  7 20  1  0  0  0  0
  8 26  1  0  0  0  0
  9 26  2  0  0  0  0
 10 27  1  0  0  0  0
 11 12  2  0  0  0  0
 11 28  1  0  0  0  0
 12 30  1  0  0  0  0
 13 22  1  0  0  0  0
 13 27  2  0  0  0  0
 14 23  2  0  0  0  0
 14 25  1  0  0  0  0
 15 24  1  0  0  0  0
 15 25  2  0  0  0  0
 16 30  2  0  0  0  0
 16 31  1  0  0  0  0
 17 32  1  0  0  0  0
 18 32  1  0  0  0  0
 18 33  2  0  0  0  0
 18 34  1  0  0  0  0
 19 21  2  0  0  0  0
 19 39  1  0  0  0  0
 20 22  2  0  0  0  0
 20 40  1  0  0  0  0
 21 48  1  0  0  0  0
 22 41  1  0  0  0  0
 23 29  1  0  0  0  0
 23 51  1  0  0  0  0
 24 29  2  0  0  0  0
 24 52  1  0  0  0  0
 25 74  1  0  0  0  0
 26 81  1  0  0  0  0
 27 82  1  0  0  0  0
 28 31  2  0  0  0  0
 28 81  1  0  0  0  0
 29 83  1  0  0  0  0
 30 84  1  0  0  0  0
 31 85  1  0  0  0  0
 32 66  2  0  0  0  0
 33 67  1  0  0  0  0
 33 70  1  0  0  0  0
 34 71  1  0  0  0  0
 34 76  2  0  0  0  0
 35 49  1  0  0  0  0
 35 72  1  0  0  0  0
 35 77  2  0  0  0  0
 36 63  1  0  0  0  0
 36 68  1  0  0  0  0
 36 78  2  0  0  0  0
 37 64  1  0  0  0  0
 37 73  1  0  0  0  0
 37 79  2  0  0  0  0
 38 69  1  0  0  0  0
 38 74  1  0  0  0  0
 38 80  2  0  0  0  0
 39 42  1  0  0  0  0
 40 49  1  0  0  0  0
 41 68  1  0  0  0  0
 42 44  1  0  0  0  0
 43 45  1  0  0  0  0
 43 46  1  0  0  0  0
 44 48  1  0  0  0  0
 45 50  1  0  0  0  0
 46 69  1  0  0  0  0
 47 50  1  0  0  0  0
 47 69  1  0  0  0  0
 48 72  1  0  0  0  0
 49 68  1  0  0  0  0
 50 67  1  0  0  0  0
 53 60  1  0  0  0  0
 54 64  1  0  0  0  0
 55 65  1  0  0  0  0
 56 65  1  0  0  0  0
 57 65  1  0  0  0  0
 58 75  1  0  0  0  0
 59 61  1  0  0  0  0
 59 62  1  0  0  0  0
 60 74  1  0  0  0  0
 61 82  1  0  0  0  0
 62 83  1  0  0  0  0
 63 65  1  0  0  0  0
 63 73  1  0  0  0  0
 64 75  1  0  0  0  0
 66 67  1  0  0  0  0
M  CHG  1  75   1
M  ISO  4  38 100  61 101  74 100  82 101
M  END
> <Batch ID>
0103

> <Smiles>
CC[100N:0](c1cc(C)c(OCC[101CH2:1][101O:1]c2ccc3c(c2)CN(C(=O)C(NC(=O)C(C)NC)C(C)(C)C)C(C(=O)NC2CCCc4ccccc42)C3)c(C)c1)[100C:0](=O)N1CCCC(n2nc(-c3ccc(Oc4ccc(F)cc4F)cc3)c(C(N)=O)c2N)C1

> <Shape>
0.266

> <Color>
0.119

> <Negative vol penalty>
0.000

$$$$

  -OEChem-04052301053D

 88 97  0     1  0  0  0  0  0999 V2000
  -29.5342  -21.2494   17.1193 C   0  0  0  0  0  0  0  0  0  0  0  0
  -28.2559  -21.7766   16.9667 C   0  0  0  0  0  0  0  0  0  0  0  0
  -26.6709  -13.2020   19.5388 C   0  0  0  0  0  0  0  0  0  0  0  0
  -25.4239  -13.5692   21.5753 C   0  0  0  0  0  0  0  0  0  0  0  0
  -30.2609  -21.5110   18.2801 C   0  0  0  0  0  0  0  0  0  0  0  0
  -27.7030  -22.5649   17.9753 C   0  0  0  0  0  0  0  0  0  0  0  0
  -23.3041  -28.1381   18.9266 C   0  0  0  0  0  0  0  0  0  0  0  0
  -26.3655  -11.8422   19.5969 C   0  0  0  0  0  0  0  0  0  0  0  0
  -25.1183  -12.2094   21.6333 C   0  0  0  0  0  0  0  0  0  0  0  0
  -22.1689  -28.5032   19.6490 C   0  0  0  0  0  0  0  0  0  0  0  0
  -22.9469  -10.0808   20.1586 C   0  0  0  0  0  0  0  0  0  0  0  0
  -21.6304   -9.7259   20.4524 C   0  0  0  0  0  0  0  0  0  0  0  0
  -20.8231  -24.5156   21.7016 C   0  0  0  0  0  0  0  0  0  0  0  0
  -21.0474  -24.6373   24.1040 C   0  0  0  0  0  0  0  0  0  0  0  0
  -23.5479  -28.9539   21.5764 C   0  0  0  0  0  0  0  0  0  0  0  0
  -22.3883   -8.5402   22.4163 C   0  0  0  0  0  0  0  0  0  0  0  0
  -26.2002  -14.0654   20.5280 C   0  0  0  0  0  0  0  0  0  0  0  0
  -21.2870  -23.9742   22.9005 C   0  0  0  0  0  0  0  0  0  0  0  0
  -27.7963  -16.0549   20.4827 C   0  0  0  0  0  0  0  0  0  0  0  0
  -29.7205  -22.3108   19.2993 C   0  0  0  0  0  0  0  0  0  0  0  0
  -24.5705  -28.1677   19.5280 C   0  0  0  0  0  0  0  0  0  0  0  0
  -28.4226  -22.8363   19.1514 C   0  0  0  0  0  0  0  0  0  0  0  0
  -24.6978  -28.5911   20.8586 C   0  0  0  0  0  0  0  0  0  0  0  0
  -19.8802  -26.3833   22.9098 C   0  0  0  0  0  0  0  0  0  0  0  0
  -20.1197  -25.7202   21.7062 C   0  0  0  0  0  0  0  0  0  0  0  0
  -25.5892  -11.3459   20.6441 C   0  0  0  0  0  0  0  0  0  0  0  0
  -22.2904  -28.9084   20.9750 C   0  0  0  0  0  0  0  0  0  0  0  0
  -23.9842   -9.6654   20.9936 C   0  0  0  0  0  0  0  0  0  0  0  0
  -21.3511   -8.9557   21.5813 C   0  0  0  0  0  0  0  0  0  0  0  0
  -20.3440  -25.8419   24.1087 C   0  0  0  0  0  0  0  0  0  0  0  0
  -23.7049   -8.8951   22.1225 C   0  0  0  0  0  0  0  0  0  0  0  0
  -26.5159  -15.4701   20.4689 C   0  0  0  0  0  0  0  0  0  0  0  0
  -27.5578  -17.4054   20.4075 C   0  0  0  0  0  0  0  0  0  0  0  0
  -16.9600  -28.6597   22.9129 C   0  0  0  0  0  0  0  0  0  0  0  0
  -22.0223  -22.7194   22.8968 C   0  0  0  0  0  0  0  0  0  0  0  0
  -22.0010  -21.8019   21.9066 C   0  0  0  0  0  0  0  0  0  0  0  0
  -29.0861  -15.4329   20.5566 C   0  0  0  0  0  0  0  0  0  0  0  0
  -22.8136  -20.5768   22.0469 C   0  0  0  0  0  0  0  0  0  0  0  0
  -26.7993  -25.9948   20.1720 C   0  0  0  0  0  0  0  0  0  0  0  0
  -28.5161  -28.5929   21.0802 C   0  0  0  0  0  0  0  0  0  0  0  0
  -28.5194  -31.8250   22.1758 C   0  0  0  0  0  0  0  0  0  0  0  0
  -30.5253  -22.5269   20.5563 C   0  0  0  0  0  0  0  0  0  0  0  0
  -25.7883  -27.7964   18.7270 C   0  0  0  0  0  0  0  0  0  0  0  0
  -26.0371  -28.6598   21.5443 C   0  0  0  0  0  0  0  0  0  0  0  0
  -17.4912  -29.8678   23.6329 C   0  0  0  0  0  0  0  0  0  0  0  0
  -17.7296  -27.3758   23.0876 C   0  0  0  0  0  0  0  0  0  0  0  0
  -30.0147  -23.6806   21.4158 C   0  0  0  0  0  0  0  0  0  0  0  0
  -18.9513  -30.0389   23.2638 C   0  0  0  0  0  0  0  0  0  0  0  0
  -24.4036  -20.5742   18.7448 C   0  0  0  0  0  0  0  0  0  0  0  0
  -28.4994  -23.6003   21.5714 C   0  0  0  0  0  0  0  0  0  0  0  0
  -25.2095  -19.2795   18.8080 C   0  0  0  0  0  0  0  0  0  0  0  0
  -23.0862  -20.4656   19.5112 C   0  0  0  0  0  0  0  0  0  0  0  0
  -24.0611  -18.7329   20.9903 C   0  0  0  0  0  0  0  0  0  0  0  0
  -27.7984  -23.7164   20.2125 C   0  0  1  0  0  0  0  0  0  0  0  0
  -26.9684  -27.3721   19.5957 C   0  0  1  0  0  0  0  0  0  0  0  0
  -25.4121  -18.8350   20.2652 C   0  0  1  0  0  0  0  0  0  0  0  0
  -19.7807  -28.7818   23.5854 C   0  0  2  0  0  0  0  0  0  0  0  0
  -30.0747  -33.6689   22.8673 C   0  0  0  0  0  0  0  0  0  0  0  0
  -28.9779  -27.1973   23.7540 C   0  0  0  0  0  0  0  0  0  0  0  0
  -29.6843  -29.4034   24.7042 C   0  0  0  0  0  0  0  0  0  0  0  0
  -30.9807  -28.3799   22.8348 C   0  0  0  0  0  0  0  0  0  0  0  0
  -27.5695  -33.5977   20.0046 C   0  0  0  0  0  0  0  0  0  0  0  0
  -21.2123  -29.0364   23.0909 C   0  0  0  0  0  0  0  0  0  1  0  0
  -28.6964  -29.3580   22.3690 C   0  0  1  0  0  0  0  0  0  0  0  0
  -29.3008  -33.0431   21.7175 C   0  0  2  0  0  0  0  0  0  0  0  0
  -29.5592  -28.5816   23.4035 C   0  0  0  0  0  0  0  0  0  0  0  0
  -25.5365  -16.3750   20.3913 N   0  0  0  0  0  0  0  0  0  0  0  0
  -26.2018  -17.5421   20.3557 N   0  0  0  0  0  0  0  0  0  0  0  0
  -19.1732  -27.6009   22.9345 N   0  0  1  0  0  0  0  0  0  0  0  0
  -23.3003  -19.9828   20.8838 N   0  0  0  0  0  0  0  0  0  0  0  0
  -27.1973  -28.2807   20.7210 N   0  0  0  0  0  0  0  0  0  0  0  0
  -19.6589  -26.2515   20.4809 N   0  0  0  0  0  0  0  0  0  0  0  0
  -28.3778  -18.4775   20.3815 N   0  0  0  0  0  0  0  0  0  0  0  0
  -29.6460  -15.2042   21.8209 N   0  0  0  0  0  0  0  0  0  0  0  0
  -27.7702  -25.0955   19.7745 N   0  0  0  0  0  0  0  0  0  0  0  0
  -29.2372  -30.6612   21.9979 N   0  0  0  0  0  0  0  0  0  0  0  0
  -28.3774  -34.0705   21.1582 N   0  3  0  0  0  0  0  0  0  0  0  0
  -15.8926  -28.6929   22.3017 O   0  0  0  0  0  0  0  0  0  0  0  0
  -29.7303  -15.1051   19.5314 O   0  0  0  0  0  0  0  0  0  0  0  0
  -23.0080  -20.1508   23.1868 O   0  0  0  0  0  0  0  0  0  0  0  0
  -25.8584  -25.7654   20.9230 O   0  0  0  0  0  0  0  0  0  0  0  0
  -29.5084  -28.2898   20.4130 O   0  0  0  0  0  0  0  0  0  0  0  0
  -27.3872  -31.8988   22.6482 O   0  0  0  0  0  0  0  0  0  0  0  0
  -25.2907  -10.0192   20.7010 O   0  0  0  0  0  0  0  0  0  0  0  0
  -21.1839  -29.2647   21.6826 O   0  0  0  0  0  0  0  0  0  1  0  0
  -20.0866   -8.6162   21.8641 F   0  0  0  0  0  0  0  0  0  0  0  0
  -20.1191  -26.4699   25.2718 F   0  0  0  0  0  0  0  0  0  0  0  0
  -24.6970   -8.4940   22.9291 F   0  0  0  0  0  0  0  0  0  0  0  0
  1  2  1  0  0  0  0
  1  5  2  0  0  0  0
  2  6  2  0  0  0  0
  3  8  2  0  0  0  0
  3 17  1  0  0  0  0
  4  9  1  0  0  0  0
  4 17  2  0  0  0  0
  5 20  1  0  0  0  0
  6 22  1  0  0  0  0
  7 10  2  0  0  0  0
  7 21  1  0  0  0  0
  8 26  1  0  0  0  0
  9 26  2  0  0  0  0
 10 27  1  0  0  0  0
 11 12  2  0  0  0  0
 11 28  1  0  0  0  0
 12 29  1  0  0  0  0
 13 18  1  0  0  0  0
 13 25  2  0  0  0  0
 14 18  2  0  0  0  0
 14 30  1  0  0  0  0
 15 23  1  0  0  0  0
 15 27  2  0  0  0  0
 16 29  2  0  0  0  0
 16 31  1  0  0  0  0
 17 32  1  0  0  0  0
 18 35  1  0  0  0  0
 19 32  1  0  0  0  0
 19 33  2  0  0  0  0
 19 37  1  0  0  0  0
 20 22  2  0  0  0  0
 20 42  1  0  0  0  0
 21 23  2  0  0  0  0
 21 43  1  0  0  0  0
 22 54  1  0  0  0  0
 23 44  1  0  0  0  0
 24 25  1  0  0  0  0
 24 30  2  0  0  0  0
 24 69  1  0  0  0  0
 25 72  1  0  0  0  0
 26 84  1  0  0  0  0
 27 85  1  0  0  0  0
 28 31  2  0  0  0  0
 28 84  1  0  0  0  0
 29 86  1  0  0  0  0
 30 87  1  0  0  0  0
 31 88  1  0  0  0  0
 32 67  2  0  0  0  0
 33 68  1  0  0  0  0
 33 73  1  0  0  0  0
 34 45  1  0  0  0  0
 34 46  1  0  0  0  0
 34 78  2  0  0  0  0
 35 36  2  0  0  0  0
 36 38  1  0  0  0  0
 37 74  1  0  0  0  0
 37 79  2  0  0  0  0
 38 70  1  0  0  0  0
 38 80  2  0  0  0  0
 39 55  1  0  0  0  0
 39 75  1  0  0  0  0
 39 81  2  0  0  0  0
 40 64  1  0  0  0  0
 40 71  1  0  0  0  0
 40 82  2  0  0  0  0
 41 65  1  0  0  0  0
 41 76  1  0  0  0  0
 41 83  2  0  0  0  0
 42 47  1  0  0  0  0
 43 55  1  0  0  0  0
 44 71  1  0  0  0  0
 45 48  1  0  0  0  0
 46 69  1  0  0  0  0
 47 50  1  0  0  0  0
 48 57  1  0  0  0  0
 49 51  1  0  0  0  0
 49 52  1  0  0  0  0
 50 54  1  0  0  0  0
 51 56  1  0  0  0  0
 52 70  1  0  0  0  0
 53 56  1  0  0  0  0
 53 70  1  0  0  0  0
 54 75  1  0  0  0  0
 55 71  1  0  0  0  0
 56 68  1  0  0  0  0
 57 63  1  0  0  0  0
 57 69  1  0  0  0  0
 58 65  1  0  0  0  0
 59 66  1  0  0  0  0
 60 66  1  0  0  0  0
 61 66  1  0  0  0  0
 62 77  1  0  0  0  0
 63 85  1  0  0  0  0
 64 66  1  0  0  0  0
 64 76  1  0  0  0  0
 65 77  1  0  0  0  0
 67 68  1  0  0  0  0
M  CHG  1  77   1
M  ISO  4  36 100  38 100  63 101  85 101
M  END
> <Batch ID>
0103

> <Smiles>
CNC(C)C(=O)NC(C(=O)N1Cc2cc([101O:1][101CH2:1]C3CCC(=O)CN3c3c(N)cc(C=[100CH:0][100C:0](=O)N4CCCC(n5nc(-c6ccc(Oc7ccc(F)cc7F)cc6)c(C(N)=O)c5N)C4)cc3F)ccc2CC1C(=O)NC1CCCc2ccccc21)C(C)(C)C

> <Shape>
0.271

> <Color>
0.061

> <Negative vol penalty>
0.000

$$$$

  -OEChem-04052301053D

 85 94  0     1  0  0  0  0  0999 V2000
  -23.1431  -25.6115   33.1108 C   0  0  0  0  0  0  0  0  0  0  0  0
  -23.8447  -24.8426   32.1877 C   0  0  0  0  0  0  0  0  0  0  0  0
  -23.0751   -9.8684   19.9400 C   0  0  0  0  0  0  0  0  0  0  0  0
  -23.8345   -9.8740   22.2336 C   0  0  0  0  0  0  0  0  0  0  0  0
  -22.7651  -25.0579   34.3334 C   0  0  0  0  0  0  0  0  0  0  0  0
  -24.1697  -23.5201   32.4871 C   0  0  0  0  0  0  0  0  0  0  0  0
  -23.2704  -20.3755   28.6209 C   0  0  0  0  0  0  0  0  0  0  0  0
  -22.3308   -8.7154   20.1893 C   0  0  0  0  0  0  0  0  0  0  0  0
  -23.0901   -8.7210   22.4829 C   0  0  0  0  0  0  0  0  0  0  0  0
  -24.2003  -20.3612   27.5822 C   0  0  0  0  0  0  0  0  0  0  0  0
  -19.8616   -7.9240   23.0843 C   0  0  0  0  0  0  0  0  0  0  0  0
  -19.1043   -7.8838   24.2550 C   0  0  0  0  0  0  0  0  0  0  0  0
  -25.1848  -18.3590   28.4992 C   0  0  0  0  0  0  0  0  0  0  0  0
  -29.8026  -17.7451   22.7532 C   0  0  0  0  0  0  0  0  0  0  0  0
  -31.5821  -19.3769   22.8380 C   0  0  0  0  0  0  0  0  0  0  0  0
  -31.8681  -17.3427   21.5662 C   0  0  0  0  0  0  0  0  0  0  0  0
  -20.3449   -5.9456   24.9909 C   0  0  0  0  0  0  0  0  0  0  0  0
  -23.8270  -10.4477   20.9622 C   0  0  0  0  0  0  0  0  0  0  0  0
  -24.1698  -12.9728   20.8434 C   0  0  0  0  0  0  0  0  0  0  0  0
  -23.0772  -23.7250   34.6440 C   0  0  0  0  0  0  0  0  0  0  0  0
  -23.2977  -19.3861   29.6142 C   0  0  0  0  0  0  0  0  0  0  0  0
  -23.7967  -22.9486   33.7156 C   0  0  0  0  0  0  0  0  0  0  0  0
  -24.2526  -18.3615   29.5480 C   0  0  0  0  0  0  0  0  0  0  0  0
  -30.3005  -18.9670   23.2054 C   0  0  0  0  0  0  0  0  0  0  0  0
  -30.5864  -16.9328   21.9337 C   0  0  0  0  0  0  0  0  0  0  0  0
  -22.3383   -8.1417   21.4607 C   0  0  0  0  0  0  0  0  0  0  0  0
  -25.1595  -19.3545   27.5228 C   0  0  0  0  0  0  0  0  0  0  0  0
  -20.8604   -6.9750   22.8668 C   0  0  0  0  0  0  0  0  0  0  0  0
  -32.3659  -18.5647   22.0184 C   0  0  0  0  0  0  0  0  0  0  0  0
  -19.3460   -6.8947   25.2083 C   0  0  0  0  0  0  0  0  0  0  0  0
  -21.1021   -5.9858   23.8201 C   0  0  0  0  0  0  0  0  0  0  0  0
  -24.5966  -11.6384   20.7052 C   0  0  0  0  0  0  0  0  0  0  0  0
  -25.2622  -13.7220   20.4807 C   0  0  0  0  0  0  0  0  0  0  0  0
  -27.8297  -20.5064   25.4184 C   0  0  0  0  0  0  0  0  0  0  0  0
  -26.9001  -20.4149   26.3753 C   0  0  0  0  0  0  0  0  0  1  0  0
  -22.8994  -13.4888   21.2623 C   0  0  0  0  0  0  0  0  0  0  0  0
  -23.7400  -19.3793   32.7619 C   0  0  0  0  0  0  0  0  0  0  0  0
  -22.9935  -16.2363   32.4680 C   0  0  0  0  0  0  0  0  0  0  0  0
  -22.8447  -13.4676   30.4783 C   0  0  0  0  0  0  0  0  0  0  0  0
  -30.7287  -14.7657   20.6571 C   0  0  0  0  0  0  0  0  0  0  0  0
  -22.6888  -23.1850   35.9976 C   0  0  0  0  0  0  0  0  0  0  0  0
  -22.2708  -19.4004   30.7133 C   0  0  0  0  0  0  0  0  0  0  0  0
  -24.3116  -17.2646   30.5784 C   0  0  0  0  0  0  0  0  0  0  0  0
  -28.7608  -21.6621   25.2310 C   0  0  0  0  0  0  0  0  0  0  0  0
  -28.1744  -19.4173   24.4474 C   0  0  0  0  0  0  0  0  0  0  0  0
  -22.7449  -21.6620   36.0847 C   0  0  0  0  0  0  0  0  0  0  0  0
  -29.6141  -12.3533   18.2875 C   0  0  0  0  0  0  0  0  0  0  0  0
  -24.0445  -21.1402   35.4801 C   0  0  0  0  0  0  0  0  0  0  0  0
  -28.1742  -12.0621   18.7166 C   0  0  0  0  0  0  0  0  0  0  0  0
  -30.0034  -21.0044   24.6374 C   0  0  0  0  0  0  0  0  0  0  0  0
  -30.5290  -12.5813   19.4895 C   0  0  0  0  0  0  0  0  0  0  0  0
  -28.6220  -13.3058   20.8706 C   0  0  0  0  0  0  0  0  0  0  0  0
  -24.1461  -21.5027   33.9936 C   0  0  1  0  0  0  0  0  0  0  0  0
  -22.7144  -18.6340   31.9555 C   0  0  1  0  0  0  0  0  0  0  0  0
  -27.6493  -13.1334   19.6925 C   0  0  2  0  0  0  0  0  0  0  0  0
  -22.2274  -11.0358   30.5295 C   0  0  0  0  0  0  0  0  0  0  0  0
  -25.5924  -15.6100   33.9389 C   0  0  0  0  0  0  0  0  0  0  0  0
  -25.3979  -13.2477   33.1328 C   0  0  0  0  0  0  0  0  0  0  0  0
  -23.6411  -14.2036   34.6237 C   0  0  0  0  0  0  0  0  0  0  0  0
  -20.7366  -13.8403   28.4347 C   0  0  0  0  0  0  0  0  0  0  0  0
  -34.3639  -18.0853   20.8208 C   0  0  0  0  0  0  0  0  0  0  0  0
  -23.7768  -14.9702   32.2183 C   0  0  1  0  0  0  0  0  0  0  0  0
  -21.7421  -12.4496   30.2496 C   0  0  2  0  0  0  0  0  0  0  0  0
  -24.6024  -14.5295   33.4599 C   0  0  0  0  0  0  0  0  0  0  0  0
  -25.8615  -11.5423   20.2871 N   0  0  0  0  0  0  0  0  0  0  0  0
  -26.2389  -12.8258   20.1595 N   0  0  0  0  0  0  0  0  0  0  0  0
  -29.5247  -19.7714   24.0169 N   0  0  3  0  0  0  0  0  0  0  0  0
  -23.2901  -17.3258   31.6369 N   0  0  0  0  0  0  0  0  0  0  0  0
  -29.9701  -13.6119   20.3672 N   0  0  0  0  0  0  0  0  0  0  0  0
  -25.4731  -15.0535   20.4084 N   0  0  0  0  0  0  0  0  0  0  0  0
  -21.8870  -12.5799   21.5989 N   0  0  0  0  0  0  0  0  0  0  0  0
  -30.0815  -15.6906   21.4758 N   0  0  0  0  0  0  0  0  0  0  0  0
  -23.3179  -20.6199   33.2004 N   0  0  0  0  0  0  0  0  0  0  0  0
  -22.8119  -13.9770   31.7591 N   0  0  0  0  0  0  0  0  0  0  0  0
  -21.2640  -12.5117   28.8394 N   0  3  0  0  0  0  0  0  0  0  0  0
  -22.6635  -14.7195   21.3201 O   0  0  0  0  0  0  0  0  0  0  0  0
  -24.8328  -18.8661   32.9722 O   0  0  0  0  0  0  0  0  0  0  0  0
  -22.1444  -16.2556   33.3627 O   0  0  0  0  0  0  0  0  0  0  0  0
  -23.6564  -13.7770   29.6088 O   0  0  0  0  0  0  0  0  0  0  0  0
  -31.8580  -14.9342   20.1899 O   0  0  0  0  0  0  0  0  0  0  0  0
  -21.6119   -7.0167   21.7044 O   0  0  0  0  0  0  0  0  0  0  0  0
  -26.0687  -19.3386   26.5104 O   0  0  0  0  0  0  0  0  0  1  0  0
  -33.6169  -18.9641   21.6607 O   0  0  0  0  0  0  0  0  0  0  0  0
  -18.6198   -6.8571   26.3332 F   0  0  0  0  0  0  0  0  0  0  0  0
  -22.0612   -5.0721   23.6173 F   0  0  0  0  0  0  0  0  0  0  0  0
  1  2  1  0  0  0  0
  1  5  2  0  0  0  0
  2  6  2  0  0  0  0
  3  8  2  0  0  0  0
  3 18  1  0  0  0  0
  4  9  1  0  0  0  0
  4 18  2  0  0  0  0
  5 20  1  0  0  0  0
  6 22  1  0  0  0  0
  7 10  2  0  0  0  0
  7 21  1  0  0  0  0
  8 26  1  0  0  0  0
  9 26  2  0  0  0  0
 10 27  1  0  0  0  0
 11 12  2  0  0  0  0
 11 28  1  0  0  0  0
 12 30  1  0  0  0  0
 13 23  1  0  0  0  0
 13 27  2  0  0  0  0
 14 24  1  0  0  0  0
 14 25  2  0  0  0  0
 15 24  2  0  0  0  0
 15 29  1  0  0  0  0
 16 25  1  0  0  0  0
 16 29  2  0  0  0  0
 17 30  2  0  0  0  0
 17 31  1  0  0  0  0
 18 32  1  0  0  0  0
 19 32  1  0  0  0  0
 19 33  2  0  0  0  0
 19 36  1  0  0  0  0
 20 22  2  0  0  0  0
 20 41  1  0  0  0  0
 21 23  2  0  0  0  0
 21 42  1  0  0  0  0
 22 53  1  0  0  0  0
 23 43  1  0  0  0  0
 24 67  1  0  0  0  0
 25 72  1  0  0  0  0
 26 81  1  0  0  0  0
 27 82  1  0  0  0  0
 28 31  2  0  0  0  0
 28 81  1  0  0  0  0
 29 83  1  0  0  0  0
 30 84  1  0  0  0  0
 31 85  1  0  0  0  0
 32 65  2  0  0  0  0
 33 66  1  0  0  0  0
 33 70  1  0  0  0  0
 34 35  2  0  0  0  0
 34 44  1  0  0  0  0
 34 45  1  0  0  0  0
 35 82  1  0  0  0  0
 36 71  1  0  0  0  0
 36 76  2  0  0  0  0
 37 54  1  0  0  0  0
 37 73  1  0  0  0  0
 37 77  2  0  0  0  0
 38 62  1  0  0  0  0
 38 68  1  0  0  0  0
 38 78  2  0  0  0  0
 39 63  1  0  0  0  0
 39 74  1  0  0  0  0
 39 79  2  0  0  0  0
 40 69  1  0  0  0  0
 40 72  1  0  0  0  0
 40 80  2  0  0  0  0
 41 46  1  0  0  0  0
 42 54  1  0  0  0  0
 43 68  1  0  0  0  0
 44 50  1  0  0  0  0
 45 67  1  0  0  0  0
 46 48  1  0  0  0  0
 47 49  1  0  0  0  0
 47 51  1  0  0  0  0
 48 53  1  0  0  0  0
 49 55  1  0  0  0  0
 50 67  1  0  0  0  0
 51 69  1  0  0  0  0
 52 55  1  0  0  0  0
 52 69  1  0  0  0  0
 53 73  1  0  0  0  0
 54 68  1  0  0  0  0
 55 66  1  0  0  0  0
 56 63  1  0  0  0  0
 57 64  1  0  0  0  0
 58 64  1  0  0  0  0
 59 64  1  0  0  0  0
 60 75  1  0  0  0  0
 61 83  1  0  0  0  0
 62 64  1  0  0  0  0
 62 74  1  0  0  0  0
 63 75  1  0  0  0  0
 65 66  1  0  0  0  0
M  CHG  1  75   1
M  ISO  4  35 101  40 100  72 100  82 101
M  END
> <Batch ID>
0103

> <Smiles>
CNC(C)C(=O)NC(C(=O)N1Cc2cc([101O:1][101CH:1]=C3CCN(c4cc([100NH:0][100C:0](=O)N5CCCC(n6nc(-c7ccc(Oc8ccc(F)cc8F)cc7)c(C(N)=O)c6N)C5)cc(OC)c4)C3)ccc2CC1C(=O)NC1CCCc2ccccc21)C(C)(C)C

> <Shape>
0.168

> <Color>
0.192

> <Negative vol penalty>
0.000

$$$$

  -OEChem-04052301053D

 86 95  0     1  0  0  0  0  0999 V2000
  -28.4761  -36.0993   24.3548 C   0  0  0  0  0  0  0  0  0  0  0  0
  -28.6141  -34.7174   24.2723 C   0  0  0  0  0  0  0  0  0  0  0  0
  -23.7819   -9.1725   21.1278 C   0  0  0  0  0  0  0  0  0  0  0  0
  -25.1951   -9.8648   22.9610 C   0  0  0  0  0  0  0  0  0  0  0  0
  -27.2049  -36.6714   24.3807 C   0  0  0  0  0  0  0  0  0  0  0  0
  -27.4809  -33.9067   24.2168 C   0  0  0  0  0  0  0  0  0  0  0  0
  -27.8581  -30.2785   20.7042 C   0  0  0  0  0  0  0  0  0  0  0  0
  -24.8566  -21.0909   21.9679 C   0  0  0  0  0  0  0  0  0  0  0  0
  -25.1841  -19.7422   21.8291 C   0  0  0  0  0  0  0  0  0  0  0  0
  -23.7515   -7.8758   21.6410 C   0  0  0  0  0  0  0  0  0  0  0  0
  -25.1647   -8.5681   23.4742 C   0  0  0  0  0  0  0  0  0  0  0  0
  -28.6317  -29.1629   21.0216 C   0  0  0  0  0  0  0  0  0  0  0  0
  -22.1414   -6.2082   24.1026 C   0  0  0  0  0  0  0  0  0  0  0  0
  -20.9080   -5.5585   24.1499 C   0  0  0  0  0  0  0  0  0  0  0  0
  -26.6265  -27.9299   21.5487 C   0  0  0  0  0  0  0  0  0  0  0  0
  -27.2993  -20.3578   20.8371 C   0  0  0  0  0  0  0  0  0  0  0  0
  -21.7700   -3.8177   22.7132 C   0  0  0  0  0  0  0  0  0  0  0  0
  -24.5038  -10.1670   21.7878 C   0  0  0  0  0  0  0  0  0  0  0  0
  -23.4390  -12.3617   21.0415 C   0  0  0  0  0  0  0  0  0  0  0  0
  -26.0556  -35.8679   24.3157 C   0  0  0  0  0  0  0  0  0  0  0  0
  -26.4612  -30.2315   20.8173 C   0  0  0  0  0  0  0  0  0  0  0  0
  -26.1931  -34.4686   24.2432 C   0  0  0  0  0  0  0  0  0  0  0  0
  -25.8373  -29.0454   21.2297 C   0  0  0  0  0  0  0  0  0  0  0  0
  -25.7504  -22.0731   21.5412 C   0  0  0  0  0  0  0  0  0  0  0  0
  -26.9718  -21.7066   20.9759 C   0  0  0  0  0  0  0  0  0  0  0  0
  -26.4054  -19.3756   21.2638 C   0  0  0  0  0  0  0  0  0  0  0  0
  -24.4429   -7.5736   22.8142 C   0  0  0  0  0  0  0  0  0  0  0  0
  -28.0162  -27.9893   21.4467 C   0  0  0  0  0  0  0  0  0  0  0  0
  -23.1891   -5.6627   23.3606 C   0  0  0  0  0  0  0  0  0  0  0  0
  -20.7223   -4.3632   23.4552 C   0  0  0  0  0  0  0  0  0  0  0  0
  -23.0034   -4.4674   22.6660 C   0  0  0  0  0  0  0  0  0  0  0  0
  -24.5360  -11.5065   21.2579 C   0  0  0  0  0  0  0  0  0  0  0  0
  -23.9939  -13.5093   20.5302 C   0  0  0  0  0  0  0  0  0  0  0  0
  -29.6497  -24.7410   19.7371 C   0  0  0  0  0  0  0  0  0  0  0  0
  -22.0431  -12.1387   21.2814 C   0  0  0  0  0  0  0  0  0  0  0  0
  -24.2975  -31.7862   22.5508 C   0  0  0  0  0  0  0  0  0  0  0  0
  -22.2026  -30.1204   20.7181 C   0  0  0  0  0  0  0  0  0  0  0  0
  -21.9186  -26.7596   19.4366 C   0  0  0  0  0  0  0  0  0  0  0  0
  -27.9066  -17.4705   20.5832 C   0  0  0  0  0  0  0  0  0  0  0  0
  -24.7023  -36.5290   24.3944 C   0  0  0  0  0  0  0  0  0  0  0  0
  -25.6393  -31.4350   20.4455 C   0  0  0  0  0  0  0  0  0  0  0  0
  -24.3398  -28.9368   21.3483 C   0  0  0  0  0  0  0  0  0  0  0  0
  -28.7022  -24.1284   18.7322 C   0  0  0  0  0  0  0  0  0  0  0  0
  -23.5553  -35.6232   23.9538 C   0  0  0  0  0  0  0  0  0  0  0  0
  -28.6846  -14.4455   18.8741 C   0  0  0  0  0  0  0  0  0  0  0  0
  -23.6884  -34.2443   24.5925 C   0  0  0  0  0  0  0  0  0  0  0  0
  -27.5844  -13.4816   19.3241 C   0  0  0  0  0  0  0  0  0  0  0  0
  -28.2890  -22.7183   19.1354 C   0  0  0  0  0  0  0  0  0  0  0  0
  -29.1172  -15.3793   20.0031 C   0  0  0  0  0  0  0  0  0  0  0  0
  -28.8631  -23.1732   21.5148 C   0  0  0  0  0  0  0  0  0  0  0  0
  -26.9248  -15.1508   21.1033 C   0  0  0  0  0  0  0  0  0  0  0  0
  -24.9881  -33.5573   24.1561 C   0  0  1  0  0  0  0  0  0  0  0  0
  -29.2712  -24.6145   21.2013 C   0  0  2  0  0  0  0  0  0  0  0  0
  -24.2565  -31.4366   21.0900 C   0  0  1  0  0  0  0  0  0  0  0  0
  -26.4107  -14.2335   19.9817 C   0  0  2  0  0  0  0  0  0  0  0  0
  -25.3741  -23.5100   21.7021 C   0  0  0  0  0  0  0  0  0  0  0  0
  -20.7561  -25.8862   17.3913 C   0  0  0  0  0  0  0  0  0  0  0  0
  -19.8638  -29.6235   22.6136 C   0  0  0  0  0  0  0  0  0  0  0  0
  -19.4054  -27.4946   21.3783 C   0  0  0  0  0  0  0  0  0  0  0  0
  -19.2482  -29.6825   20.1904 C   0  0  0  0  0  0  0  0  0  0  0  0
  -24.3901  -25.4725   18.4397 C   0  0  0  0  0  0  0  0  0  0  0  0
  -28.1758  -25.6185   21.5467 C   0  0  0  0  0  0  0  0  0  1  0  0
  -21.5220  -28.7771   20.8248 C   0  0  1  0  0  0  0  0  0  0  0  0
  -22.0836  -26.3206   17.9928 C   0  0  2  0  0  0  0  0  0  0  0  0
  -20.0354  -28.8992   21.2635 C   0  0  0  0  0  0  0  0  0  0  0  0
  -25.6999  -12.0632   20.9122 N   0  0  0  0  0  0  0  0  0  0  0  0
  -25.3373  -13.2805   20.4733 N   0  0  0  0  0  0  0  0  0  0  0  0
  -27.8789  -22.6782   20.5421 N   0  0  2  0  0  0  0  0  0  0  0  0
  -23.5799  -30.1427   20.9794 N   0  0  0  0  0  0  0  0  0  0  0  0
  -27.9537  -16.0604   20.5752 N   0  0  0  0  0  0  0  0  0  0  0  0
  -23.4589  -14.6817   20.1281 N   0  0  0  0  0  0  0  0  0  0  0  0
  -21.6451  -10.9033   21.8102 N   0  0  0  0  0  0  0  0  0  0  0  0
  -26.7372  -18.0053   21.1227 N   0  0  0  0  0  0  0  0  0  0  0  0
  -24.8526  -33.0231   22.8179 N   0  0  0  0  0  0  0  0  0  0  0  0
  -21.7127  -28.1194   19.5366 N   0  0  0  0  0  0  0  0  0  0  0  0
  -23.0359  -25.1777   17.9046 N   0  3  0  0  0  0  0  0  0  0  0  0
  -30.6282  -25.3967   19.3800 O   0  0  0  0  0  0  0  0  0  0  0  0
  -21.1729  -13.0032   21.0187 O   0  0  0  0  0  0  0  0  0  0  0  0
  -23.8566  -30.9931   23.3744 O   0  0  0  0  0  0  0  0  0  0  0  0
  -21.5381  -31.1120   20.4071 O   0  0  0  0  0  0  0  0  0  0  0  0
  -21.9637  -25.9743   20.3809 O   0  0  0  0  0  0  0  0  0  0  0  0
  -28.8235  -18.1530   20.1191 O   0  0  0  0  0  0  0  0  0  0  0  0
  -24.4132   -6.3085   23.3153 O   0  0  0  0  0  0  0  0  0  0  0  0
  -28.7690  -26.8991   21.7578 O   0  0  0  0  0  0  0  0  0  1  0  0
  -19.5383   -3.7386   23.5019 F   0  0  0  0  0  0  0  0  0  0  0  0
  -24.0065   -3.9379   21.9524 F   0  0  0  0  0  0  0  0  0  0  0  0
  1  2  1  0  0  0  0
  1  5  2  0  0  0  0
  2  6  2  0  0  0  0
  3 10  2  0  0  0  0
  3 18  1  0  0  0  0
  4 11  1  0  0  0  0
  4 18  2  0  0  0  0
  5 20  1  0  0  0  0
  6 22  1  0  0  0  0
  7 12  2  0  0  0  0
  7 21  1  0  0  0  0
  8  9  2  0  0  0  0
  8 24  1  0  0  0  0
  9 26  1  0  0  0  0
 10 27  1  0  0  0  0
 11 27  2  0  0  0  0
 12 28  1  0  0  0  0
 13 14  2  0  0  0  0
 13 29  1  0  0  0  0
 14 30  1  0  0  0  0
 15 23  1  0  0  0  0
 15 28  2  0  0  0  0
 16 25  1  0  0  0  0
 16 26  2  0  0  0  0
 17 30  2  0  0  0  0
 17 31  1  0  0  0  0
 18 32  1  0  0  0  0
 19 32  1  0  0  0  0
 19 33  2  0  0  0  0
 19 35  1  0  0  0  0
 20 22  2  0  0  0  0
 20 40  1  0  0  0  0
 21 23  2  0  0  0  0
 21 41  1  0  0  0  0
 22 52  1  0  0  0  0
 23 42  1  0  0  0  0
 24 25  2  0  0  0  0
 24 56  1  0  0  0  0
 25 68  1  0  0  0  0
 26 73  1  0  0  0  0
 27 83  1  0  0  0  0
 28 84  1  0  0  0  0
 29 31  2  0  0  0  0
 29 83  1  0  0  0  0
 30 85  1  0  0  0  0
 31 86  1  0  0  0  0
 32 66  2  0  0  0  0
 33 67  1  0  0  0  0
 33 71  1  0  0  0  0
 34 43  1  0  0  0  0
 34 53  1  0  0  0  0
 34 77  2  0  0  0  0
 35 72  1  0  0  0  0
 35 78  2  0  0  0  0
 36 54  1  0  0  0  0
 36 74  1  0  0  0  0
 36 79  2  0  0  0  0
 37 63  1  0  0  0  0
 37 69  1  0  0  0  0
 37 80  2  0  0  0  0
 38 64  1  0  0  0  0
 38 75  1  0  0  0  0
 38 81  2  0  0  0  0
 39 70  1  0  0  0  0
 39 73  1  0  0  0  0
 39 82  2  0  0  0  0
 40 44  1  0  0  0  0
 41 54  1  0  0  0  0
 42 69  1  0  0  0  0
 43 48  1  0  0  0  0
 44 46  1  0  0  0  0
 45 47  1  0  0  0  0
 45 49  1  0  0  0  0
 46 52  1  0  0  0  0
 47 55  1  0  0  0  0
 48 68  1  0  0  0  0
 49 70  1  0  0  0  0
 50 53  1  0  0  0  0
 50 68  1  0  0  0  0
 51 55  1  0  0  0  0
 51 70  1  0  0  0  0
 52 74  1  0  0  0  0
 53 62  1  0  0  0  0
 54 69  1  0  0  0  0
 55 67  1  0  0  0  0
 57 64  1  0  0  0  0
 58 65  1  0  0  0  0
 59 65  1  0  0  0  0
 60 65  1  0  0  0  0
 61 76  1  0  0  0  0
 62 84  1  0  0  0  0
 63 65  1  0  0  0  0
 63 75  1  0  0  0  0
 64 76  1  0  0  0  0
 66 67  1  0  0  0  0
M  CHG  1  76   1
M  ISO  4  39 100  62 101  73 100  84 101
M  END
> <Batch ID>
0103

> <Smiles>
CNC(C)C(=O)NC(C(=O)N1Cc2cc([101O:1][101CH2:1]C3CN(c4cc([100NH:0][100C:0](=O)N5CCCC(n6nc(-c7ccc(Oc8ccc(F)cc8F)cc7)c(C(N)=O)c6N)C5)ccc4C)CCC3=O)ccc2CC1C(=O)NC1CCCc2ccccc21)C(C)(C)C

> <Shape>
0.329

> <Color>
0.095

> <Negative vol penalty>
0.000

$$$$

  -OEChem-04052301053D

 87 95  0     1  0  0  0  0  0999 V2000
  -16.5199  -29.6773   23.2484 C   0  0  0  0  0  0  0  0  0  0  0  0
  -17.4367  -29.9533   22.2391 C   0  0  0  0  0  0  0  0  0  0  0  0
  -26.4188  -12.5521   20.1443 C   0  0  0  0  0  0  0  0  0  0  0  0
  -24.9021  -14.0881   21.2293 C   0  0  0  0  0  0  0  0  0  0  0  0
  -16.9699  -29.3108   24.5161 C   0  0  0  0  0  0  0  0  0  0  0  0
  -18.8041  -29.8640   22.4972 C   0  0  0  0  0  0  0  0  0  0  0  0
  -24.9876  -28.1575   19.3084 C   0  0  0  0  0  0  0  0  0  0  0  0
  -31.1608  -23.7937   18.0622 C   0  0  0  0  0  0  0  0  0  0  0  0
  -30.9316  -22.8059   19.0199 C   0  0  0  0  0  0  0  0  0  0  0  0
  -25.7027  -11.4755   20.6674 C   0  0  0  0  0  0  0  0  0  0  0  0
  -24.1860  -13.0115   21.7524 C   0  0  0  0  0  0  0  0  0  0  0  0
  -26.2648  -28.6722   19.0900 C   0  0  0  0  0  0  0  0  0  0  0  0
  -22.8307   -9.8267   19.9846 C   0  0  0  0  0  0  0  0  0  0  0  0
  -22.5334   -8.7678   19.1267 C   0  0  0  0  0  0  0  0  0  0  0  0
  -26.9254  -27.9526   21.2957 C   0  0  0  0  0  0  0  0  0  0  0  0
  -28.8221  -23.7504   17.4577 C   0  0  0  0  0  0  0  0  0  0  0  0
  -23.7613   -7.2608   20.5614 C   0  0  0  0  0  0  0  0  0  0  0  0
  -26.0185  -13.8584   20.4253 C   0  0  0  0  0  0  0  0  0  0  0  0
  -26.5384  -15.6222   18.6570 C   0  0  0  0  0  0  0  0  0  0  0  0
  -18.3434  -29.2075   24.7873 C   0  0  0  0  0  0  0  0  0  0  0  0
  -24.6660  -27.5452   20.5283 C   0  0  0  0  0  0  0  0  0  0  0  0
  -19.2729  -29.4970   23.7701 C   0  0  0  0  0  0  0  0  0  0  0  0
  -25.6442  -27.4287   21.5261 C   0  0  0  0  0  0  0  0  0  0  0  0
  -30.1060  -24.2660   17.2811 C   0  0  0  0  0  0  0  0  0  0  0  0
  -29.6476  -22.2902   19.1965 C   0  0  0  0  0  0  0  0  0  0  0  0
  -24.5863  -11.7051   21.4715 C   0  0  0  0  0  0  0  0  0  0  0  0
  -27.2331  -28.5724   20.0848 C   0  0  0  0  0  0  0  0  0  0  0  0
  -23.5934   -9.6027   21.1308 C   0  0  0  0  0  0  0  0  0  0  0  0
  -28.5928  -22.7625   18.4154 C   0  0  0  0  0  0  0  0  0  0  0  0
  -22.9986   -7.4849   19.4151 C   0  0  0  0  0  0  0  0  0  0  0  0
  -24.0586   -8.3197   21.4192 C   0  0  0  0  0  0  0  0  0  0  0  0
  -26.7582  -14.9710   19.8856 C   0  0  0  0  0  0  0  0  0  0  0  0
  -27.4985  -16.6033   18.6119 C   0  0  0  0  0  0  0  0  0  0  0  0
  -25.5543  -15.3633   17.6469 C   0  0  0  0  0  0  0  0  0  0  0  0
  -22.5865  -28.1406   22.8574 C   0  0  0  0  0  0  0  0  0  0  0  0
  -23.6574  -25.3034   24.0089 C   0  0  0  0  0  0  0  0  0  0  0  0
  -30.5026  -27.8126   16.2950 C   0  0  0  0  0  0  0  0  0  0  0  0
  -26.1541  -22.9796   24.1229 C   0  0  0  0  0  0  0  0  0  0  0  0
  -30.3784  -20.7147   21.0214 C   0  0  0  0  0  0  0  0  0  0  0  0
  -18.7826  -28.8537   26.1860 C   0  0  0  0  0  0  0  0  0  0  0  0
  -23.2916  -26.9712   20.7382 C   0  0  0  0  0  0  0  0  0  0  0  0
  -25.3555  -26.7625   22.8457 C   0  0  0  0  0  0  0  0  0  0  0  0
  -20.2430  -28.4180   26.2740 C   0  0  0  0  0  0  0  0  0  0  0  0
  -31.5430  -17.3921   21.5514 C   0  0  0  0  0  0  0  0  0  0  0  0
  -21.1345  -29.3778   25.4924 C   0  0  0  0  0  0  0  0  0  0  0  0
  -30.3839  -16.5196   21.0642 C   0  0  0  0  0  0  0  0  0  0  0  0
  -31.0464  -18.6586   22.2465 C   0  0  0  0  0  0  0  0  0  0  0  0
  -28.9332  -18.5874   20.9821 C   0  0  0  0  0  0  0  0  0  0  0  0
  -20.7639  -29.3870   24.0044 C   0  0  1  0  0  0  0  0  0  0  0  0
  -22.9232  -26.8264   22.2115 C   0  0  1  0  0  0  0  0  0  0  0  0
  -29.3842  -17.3319   20.2179 C   0  0  2  0  0  0  0  0  0  0  0  0
  -31.3556  -24.8967   15.1757 C   0  0  0  0  0  0  0  0  0  0  0  0
  -27.3047  -20.8243   24.6958 C   0  0  0  0  0  0  0  0  0  0  0  0
  -24.2347  -26.7325   26.6422 C   0  0  0  0  0  0  0  0  0  0  0  0
  -25.6705  -24.7902   27.3011 C   0  0  0  0  0  0  0  0  0  0  0  0
  -23.2332  -24.4543   26.8894 C   0  0  0  0  0  0  0  0  0  0  0  0
  -25.0931  -21.6367   21.7083 C   0  0  0  0  0  0  0  0  0  0  0  0
  -26.9728  -21.1421   17.7784 C   0  0  0  0  0  0  0  0  0  0  0  0
  -31.0579  -28.9456   17.1394 C   0  0  0  0  0  0  0  0  0  0  0  0
  -30.4769  -28.9613   18.5487 C   0  0  0  0  0  0  0  0  0  0  0  0
  -28.9599  -29.0804   18.5305 C   0  0  0  0  0  0  0  0  0  1  0  0
  -30.3552  -25.3379   16.2421 C   0  0  2  0  0  0  0  0  0  0  0  0
  -24.7745  -24.8767   24.9303 C   0  0  1  0  0  0  0  0  0  0  0  0
  -26.1319  -21.4691   23.9736 C   0  0  2  0  0  0  0  0  0  0  0  0
  -24.4834  -25.2278   26.4168 C   0  0  0  0  0  0  0  0  0  0  0  0
  -27.7779  -15.4943   20.5714 N   0  0  0  0  0  0  0  0  0  0  0  0
  -28.2075  -16.4846   19.7709 N   0  0  0  0  0  0  0  0  0  0  0  0
  -23.9951  -26.2226   23.0055 N   0  0  0  0  0  0  0  0  0  0  0  0
  -30.1069  -19.3784   21.3839 N   0  0  0  0  0  0  0  0  0  0  0  0
  -27.7969  -17.5474   17.6942 N   0  0  0  0  0  0  0  0  0  0  0  0
  -24.6442  -14.3177   17.8532 N   0  0  0  0  0  0  0  0  0  0  0  0
  -29.4312  -21.2854   20.1718 N   0  0  0  0  0  0  0  0  0  0  0  0
  -21.2953  -28.2140   23.3440 N   0  0  0  0  0  0  0  0  0  0  0  0
  -30.7789  -26.5741   16.8557 N   0  0  0  0  0  0  0  0  0  0  0  0
  -24.9871  -23.4547   24.6828 N   0  0  0  0  0  0  0  0  0  0  0  0
  -26.2003  -21.0897   22.5341 N   0  3  0  0  0  0  0  0  0  0  0  0
  -25.4947  -16.0286   16.5852 O   0  0  0  0  0  0  0  0  0  0  0  0
  -23.4359  -29.0223   22.9118 O   0  0  0  0  0  0  0  0  0  0  0  0
  -22.5284  -24.8329   24.1690 O   0  0  0  0  0  0  0  0  0  0  0  0
  -29.8865  -27.9908   15.2477 O   0  0  0  0  0  0  0  0  0  0  0  0
  -27.1125  -23.6687   23.7806 O   0  0  0  0  0  0  0  0  0  0  0  0
  -31.3915  -21.3002   21.4122 O   0  0  0  0  0  0  0  0  0  0  0  0
  -23.8871  -10.6548   21.9819 O   0  0  0  0  0  0  0  0  0  0  0  0
  -27.3308  -22.2715   18.5717 O   0  0  0  0  0  0  0  0  0  0  0  0
  -28.4803  -29.0745   19.8745 O   0  0  0  0  0  0  0  0  0  1  0  0
  -22.7117   -6.4678   18.5920 F   0  0  0  0  0  0  0  0  0  0  0  0
  -24.7908   -8.0981   22.5195 F   0  0  0  0  0  0  0  0  0  0  0  0
  1  2  1  0  0  0  0
  1  5  2  0  0  0  0
  2  6  2  0  0  0  0
  3 10  2  0  0  0  0
  3 18  1  0  0  0  0
  4 11  1  0  0  0  0
  4 18  2  0  0  0  0
  5 20  1  0  0  0  0
  6 22  1  0  0  0  0
  7 12  2  0  0  0  0
  7 21  1  0  0  0  0
  8  9  2  0  0  0  0
  8 24  1  0  0  0  0
  9 25  1  0  0  0  0
 10 26  1  0  0  0  0
 11 26  2  0  0  0  0
 12 27  1  0  0  0  0
 13 14  2  0  0  0  0
 13 28  1  0  0  0  0
 14 30  1  0  0  0  0
 15 23  1  0  0  0  0
 15 27  2  0  0  0  0
 16 24  2  0  0  0  0
 16 29  1  0  0  0  0
 17 30  2  0  0  0  0
 17 31  1  0  0  0  0
 18 32  1  0  0  0  0
 19 32  1  0  0  0  0
 19 33  2  0  0  0  0
 19 34  1  0  0  0  0
 20 22  2  0  0  0  0
 20 40  1  0  0  0  0
 21 23  2  0  0  0  0
 21 41  1  0  0  0  0
 22 49  1  0  0  0  0
 23 42  1  0  0  0  0
 24 62  1  0  0  0  0
 25 29  2  0  0  0  0
 25 72  1  0  0  0  0
 26 83  1  0  0  0  0
 27 85  1  0  0  0  0
 28 31  2  0  0  0  0
 28 83  1  0  0  0  0
 29 84  1  0  0  0  0
 30 86  1  0  0  0  0
 31 87  1  0  0  0  0
 32 66  2  0  0  0  0
 33 67  1  0  0  0  0
 33 70  1  0  0  0  0
 34 71  1  0  0  0  0
 34 77  2  0  0  0  0
 35 50  1  0  0  0  0
 35 73  1  0  0  0  0
 35 78  2  0  0  0  0
 36 63  1  0  0  0  0
 36 68  1  0  0  0  0
 36 79  2  0  0  0  0
 37 59  1  0  0  0  0
 37 74  1  0  0  0  0
 37 80  2  0  0  0  0
 38 64  1  0  0  0  0
 38 75  1  0  0  0  0
 38 81  2  0  0  0  0
 39 69  1  0  0  0  0
 39 72  1  0  0  0  0
 39 82  2  0  0  0  0
 40 43  1  0  0  0  0
 41 50  1  0  0  0  0
 42 68  1  0  0  0  0
 43 45  1  0  0  0  0
 44 46  1  0  0  0  0
 44 47  1  0  0  0  0
 45 49  1  0  0  0  0
 46 51  1  0  0  0  0
 47 69  1  0  0  0  0
 48 51  1  0  0  0  0
 48 69  1  0  0  0  0
 49 73  1  0  0  0  0
 50 68  1  0  0  0  0
 51 67  1  0  0  0  0
 52 62  1  0  0  0  0
 53 64  1  0  0  0  0
 54 65  1  0  0  0  0
 55 65  1  0  0  0  0
 56 65  1  0  0  0  0
 57 76  1  0  0  0  0
 58 84  1  0  0  0  0
 59 60  1  0  0  0  0
 60 61  1  0  0  0  0
 61 85  1  0  0  0  0
 62 74  1  0  0  0  0
 63 65  1  0  0  0  0
 63 75  1  0  0  0  0
 64 76  1  0  0  0  0
 66 67  1  0  0  0  0
M  CHG  1  76   1
M  ISO  4  39 100  61 101  72 100  85 101
M  END
> <Batch ID>
0103

> <Smiles>
CNC(C)C(=O)NC(C(=O)N1Cc2cc([101O:1][101CH2:1]CCC(=O)NC(C)c3ccc([100NH:0][100C:0](=O)N4CCCC(n5nc(-c6ccc(Oc7ccc(F)cc7F)cc6)c(C(N)=O)c5N)C4)c(OC)c3)ccc2CC1C(=O)NC1CCCc2ccccc21)C(C)(C)C

> <Shape>
0.224

> <Color>
0.076

> <Negative vol penalty>
0.000

$$$$

  -OEChem-04052301053D

 87 96  0     1  0  0  0  0  0999 V2000
  -30.7017  -35.8591   21.8637 C   0  0  0  0  0  0  0  0  0  0  0  0
  -30.5770  -34.4803   21.7272 C   0  0  0  0  0  0  0  0  0  0  0  0
  -24.1907   -8.2843   20.8775 C   0  0  0  0  0  0  0  0  0  0  0  0
  -23.1346  -10.4539   20.7579 C   0  0  0  0  0  0  0  0  0  0  0  0
  -29.8115  -36.5615   22.6750 C   0  0  0  0  0  0  0  0  0  0  0  0
  -29.5626  -33.8028   22.4028 C   0  0  0  0  0  0  0  0  0  0  0  0
  -27.1939  -30.4236   19.4676 C   0  0  0  0  0  0  0  0  0  0  0  0
  -29.5640  -18.8617   19.0224 C   0  0  0  0  0  0  0  0  0  0  0  0
  -29.2480  -20.1272   18.5280 C   0  0  0  0  0  0  0  0  0  0  0  0
  -23.0736   -7.7770   21.5410 C   0  0  0  0  0  0  0  0  0  0  0  0
  -22.0174   -9.9467   21.4214 C   0  0  0  0  0  0  0  0  0  0  0  0
  -27.8433  -29.2108   19.2413 C   0  0  0  0  0  0  0  0  0  0  0  0
  -19.9652   -6.7184   20.7346 C   0  0  0  0  0  0  0  0  0  0  0  0
  -19.4692   -5.4832   20.3178 C   0  0  0  0  0  0  0  0  0  0  0  0
  -26.4640  -28.1657   20.9220 C   0  0  0  0  0  0  0  0  0  0  0  0
  -27.6243  -20.4117   20.2943 C   0  0  0  0  0  0  0  0  0  0  0  0
  -19.8526   -4.5837   22.5272 C   0  0  0  0  0  0  0  0  0  0  0  0
  -24.2213   -9.6228   20.4860 C   0  0  0  0  0  0  0  0  0  0  0  0
  -25.9044   -9.7127   18.5711 C   0  0  0  0  0  0  0  0  0  0  0  0
  -28.7798  -35.8936   23.3533 C   0  0  0  0  0  0  0  0  0  0  0  0
  -26.1805  -30.5193   20.4321 C   0  0  0  0  0  0  0  0  0  0  0  0
  -28.6586  -34.4967   23.2250 C   0  0  0  0  0  0  0  0  0  0  0  0
  -25.8016  -29.3802   21.1568 C   0  0  0  0  0  0  0  0  0  0  0  0
  -28.9101  -18.3712   20.1527 C   0  0  0  0  0  0  0  0  0  0  0  0
  -28.2782  -20.9022   19.1640 C   0  0  0  0  0  0  0  0  0  0  0  0
  -21.9869   -8.6082   21.8129 C   0  0  0  0  0  0  0  0  0  0  0  0
  -27.4804  -28.0823   19.9706 C   0  0  0  0  0  0  0  0  0  0  0  0
  -20.4050   -6.8863   22.0476 C   0  0  0  0  0  0  0  0  0  0  0  0
  -27.9403  -19.1462   20.7886 C   0  0  0  0  0  0  0  0  0  0  0  0
  -19.4129   -4.4158   21.2141 C   0  0  0  0  0  0  0  0  0  0  0  0
  -20.3487   -5.8190   22.9439 C   0  0  0  0  0  0  0  0  0  0  0  0
  -25.3753  -10.1475   19.8011 C   0  0  0  0  0  0  0  0  0  0  0  0
  -26.9909  -10.5255   18.3582 C   0  0  0  0  0  0  0  0  0  0  0  0
  -27.2649  -24.7909   17.6365 C   0  0  0  0  0  0  0  0  0  0  0  0
  -25.4540   -8.6676   17.6990 C   0  0  0  0  0  0  0  0  0  0  0  0
  -25.7930  -32.1663   23.1230 C   0  0  0  0  0  0  0  0  0  0  0  0
  -28.2031  -15.9980   20.3225 C   0  0  0  0  0  0  0  0  0  0  0  0
  -22.8187  -30.8755   23.0262 C   0  0  0  0  0  0  0  0  0  0  0  0
  -21.3641  -27.6685   22.2408 C   0  0  0  0  0  0  0  0  0  0  0  0
  -27.8708  -36.6891   24.2563 C   0  0  0  0  0  0  0  0  0  0  0  0
  -25.4714  -31.8285   20.6454 C   0  0  0  0  0  0  0  0  0  0  0  0
  -24.7060  -29.4253   22.1893 C   0  0  0  0  0  0  0  0  0  0  0  0
  -27.0978  -23.5387   16.8100 C   0  0  0  0  0  0  0  0  0  0  0  0
  -26.5936  -35.9471   24.6416 C   0  0  0  0  0  0  0  0  0  0  0  0
  -30.3027  -13.0521   20.6976 C   0  0  0  0  0  0  0  0  0  0  0  0
  -26.9146  -34.5187   25.0699 C   0  0  0  0  0  0  0  0  0  0  0  0
  -29.3045  -11.9283   20.4223 C   0  0  0  0  0  0  0  0  0  0  0  0
  -28.0827  -22.4576   17.2384 C   0  0  0  0  0  0  0  0  0  0  0  0
  -29.6453  -14.2203   21.4278 C   0  0  0  0  0  0  0  0  0  0  0  0
  -27.5100  -23.2284   19.5759 C   0  0  0  0  0  0  0  0  0  0  0  0
  -27.4445  -13.6466   20.4522 C   0  0  0  0  0  0  0  0  0  0  0  0
  -27.5560  -33.7296   23.9222 C   0  0  1  0  0  0  0  0  0  0  0  0
  -27.8568  -24.6186   19.0268 C   0  0  2  0  0  0  0  0  0  0  0  0
  -24.8062  -31.9317   22.0145 C   0  0  1  0  0  0  0  0  0  0  0  0
  -28.0610  -12.4619   19.6897 C   0  0  2  0  0  0  0  0  0  0  0  0
  -19.0798  -27.0786   21.3855 C   0  0  0  0  0  0  0  0  0  0  0  0
  -22.1301  -30.4954   25.9743 C   0  0  0  0  0  0  0  0  0  0  0  0
  -20.7301  -28.5252   25.3214 C   0  0  0  0  0  0  0  0  0  0  0  0
  -20.1537  -30.7987   24.4721 C   0  0  0  0  0  0  0  0  0  0  0  0
  -22.4826  -26.1994   19.9279 C   0  0  0  0  0  0  0  0  0  0  0  0
  -26.3157  -19.5398   22.4803 C   0  0  0  0  0  0  0  0  0  0  0  0
  -29.2617  -17.0148   20.6679 C   0  0  0  0  0  0  0  0  0  0  0  0
  -27.3573  -25.7073   19.9728 C   0  0  0  0  0  0  0  0  0  1  0  0
  -22.1852  -29.6093   23.5499 C   0  0  1  0  0  0  0  0  0  0  0  0
  -20.5352  -27.3218   21.0172 C   0  0  2  0  0  0  0  0  0  0  0  0
  -21.3273  -29.8582   24.8225 C   0  0  0  0  0  0  0  0  0  0  0  0
  -26.0686  -11.1579   20.3324 N   0  0  0  0  0  0  0  0  0  0  0  0
  -27.0446  -11.3648   19.4320 N   0  0  0  0  0  0  0  0  0  0  0  0
  -27.9619  -22.1671   18.6692 N   0  0  3  0  0  0  0  0  0  0  0  0
  -24.0470  -30.7299   22.3659 N   0  0  0  0  0  0  0  0  0  0  0  0
  -28.4493  -14.6814   20.7127 N   0  0  0  0  0  0  0  0  0  0  0  0
  -27.8961  -10.5970   17.3593 N   0  0  0  0  0  0  0  0  0  0  0  0
  -24.5254   -8.9860   16.6987 N   0  0  0  0  0  0  0  0  0  0  0  0
  -26.5487  -33.3131   22.9702 N   0  0  0  0  0  0  0  0  0  0  0  0
  -21.4445  -29.0315   22.4337 N   0  0  0  0  0  0  0  0  0  0  0  0
  -21.0662  -26.0924   20.3632 N   0  3  0  0  0  0  0  0  0  0  0  0
  -26.9325  -25.8886   17.1902 O   0  0  0  0  0  0  0  0  0  0  0  0
  -25.8505   -7.4831   17.8141 O   0  0  0  0  0  0  0  0  0  0  0  0
  -25.8626  -31.3669   24.0492 O   0  0  0  0  0  0  0  0  0  0  0  0
  -27.1898  -16.3643   19.7215 O   0  0  0  0  0  0  0  0  0  0  0  0
  -22.2414  -31.9532   23.1904 O   0  0  0  0  0  0  0  0  0  0  0  0
  -21.8848  -26.8155   22.9562 O   0  0  0  0  0  0  0  0  0  0  0  0
  -20.8965   -8.1135   22.4601 O   0  0  0  0  0  0  0  0  0  0  0  0
  -27.2921  -18.6818   21.8936 O   0  0  0  0  0  0  0  0  0  0  0  0
  -28.1130  -26.8974   19.7522 O   0  0  0  0  0  0  0  0  0  1  0  0
  -18.9351   -3.2301   20.8141 F   0  0  0  0  0  0  0  0  0  0  0  0
  -20.7686   -5.9746   24.2070 F   0  0  0  0  0  0  0  0  0  0  0  0
  1  2  1  0  0  0  0
  1  5  2  0  0  0  0
  2  6  2  0  0  0  0
  3 10  2  0  0  0  0
  3 18  1  0  0  0  0
  4 11  1  0  0  0  0
  4 18  2  0  0  0  0
  5 20  1  0  0  0  0
  6 22  1  0  0  0  0
  7 12  2  0  0  0  0
  7 21  1  0  0  0  0
  8  9  2  0  0  0  0
  8 24  1  0  0  0  0
  9 25  1  0  0  0  0
 10 26  1  0  0  0  0
 11 26  2  0  0  0  0
 12 27  1  0  0  0  0
 13 14  2  0  0  0  0
 13 28  1  0  0  0  0
 14 30  1  0  0  0  0
 15 23  1  0  0  0  0
 15 27  2  0  0  0  0
 16 25  2  0  0  0  0
 16 29  1  0  0  0  0
 17 30  2  0  0  0  0
 17 31  1  0  0  0  0
 18 32  1  0  0  0  0
 19 32  1  0  0  0  0
 19 33  2  0  0  0  0
 19 35  1  0  0  0  0
 20 22  2  0  0  0  0
 20 40  1  0  0  0  0
 21 23  2  0  0  0  0
 21 41  1  0  0  0  0
 22 52  1  0  0  0  0
 23 42  1  0  0  0  0
 24 29  2  0  0  0  0
 24 62  1  0  0  0  0
 25 69  1  0  0  0  0
 26 83  1  0  0  0  0
 27 85  1  0  0  0  0
 28 31  2  0  0  0  0
 28 83  1  0  0  0  0
 29 84  1  0  0  0  0
 30 86  1  0  0  0  0
 31 87  1  0  0  0  0
 32 67  2  0  0  0  0
 33 68  1  0  0  0  0
 33 72  1  0  0  0  0
 34 43  1  0  0  0  0
 34 53  1  0  0  0  0
 34 77  2  0  0  0  0
 35 73  1  0  0  0  0
 35 78  2  0  0  0  0
 36 54  1  0  0  0  0
 36 74  1  0  0  0  0
 36 79  2  0  0  0  0
 37 62  1  0  0  0  0
 37 71  1  0  0  0  0
 37 80  2  0  0  0  0
 38 64  1  0  0  0  0
 38 70  1  0  0  0  0
 38 81  2  0  0  0  0
 39 65  1  0  0  0  0
 39 75  1  0  0  0  0
 39 82  2  0  0  0  0
 40 44  1  0  0  0  0
 41 54  1  0  0  0  0
 42 70  1  0  0  0  0
 43 48  1  0  0  0  0
 44 46  1  0  0  0  0
 45 47  1  0  0  0  0
 45 49  1  0  0  0  0
 46 52  1  0  0  0  0
 47 55  1  0  0  0  0
 48 69  1  0  0  0  0
 49 71  1  0  0  0  0
 50 53  1  0  0  0  0
 50 69  1  0  0  0  0
 51 55  1  0  0  0  0
 51 71  1  0  0  0  0
 52 74  1  0  0  0  0
 53 63  1  0  0  0  0
 54 70  1  0  0  0  0
 55 68  1  0  0  0  0
 56 65  1  0  0  0  0
 57 66  1  0  0  0  0
 58 66  1  0  0  0  0
 59 66  1  0  0  0  0
 60 76  1  0  0  0  0
 61 84  1  0  0  0  0
 63 85  1  0  0  0  0
 64 66  1  0  0  0  0
 64 75  1  0  0  0  0
 65 76  1  0  0  0  0
 67 68  1  0  0  0  0
M  CHG  1  76   1
M  ISO  4  37 100  62 100  63 101  85 101
M  END
> <Batch ID>
0103

> <Smiles>
CNC(C)C(=O)NC(C(=O)N1Cc2cc([101O:1][101CH2:1]C3CN(c4ccc([100CH2:0][100C:0](=O)N5CCCC(n6nc(-c7ccc(Oc8ccc(F)cc8F)cc7)c(C(N)=O)c6N)C5)c(OC)c4)CCC3=O)ccc2CC1C(=O)NC1CCCc2ccccc21)C(C)(C)C

> <Shape>
0.289

> <Color>
0.090

> <Negative vol penalty>
0.000

$$$$

  -OEChem-04052301053D

 87 95  0     1  0  0  0  0  0999 V2000
  -17.4975  -27.7898   19.9176 C   0  0  0  0  0  0  0  0  0  0  0  0
  -18.6348  -28.3557   19.3504 C   0  0  0  0  0  0  0  0  0  0  0  0
  -28.4654  -20.7652   19.3390 C   0  0  0  0  0  0  0  0  0  0  0  0
  -30.7757  -21.2322   19.8694 C   0  0  0  0  0  0  0  0  0  0  0  0
  -17.2502  -27.9424   21.2812 C   0  0  0  0  0  0  0  0  0  0  0  0
  -19.5250  -29.0756   20.1465 C   0  0  0  0  0  0  0  0  0  0  0  0
  -24.3595  -27.8900   19.2154 C   0  0  0  0  0  0  0  0  0  0  0  0
  -28.7035  -19.4007   19.5031 C   0  0  0  0  0  0  0  0  0  0  0  0
  -31.0138  -19.8676   20.0335 C   0  0  0  0  0  0  0  0  0  0  0  0
  -24.9426  -28.4429   18.0760 C   0  0  0  0  0  0  0  0  0  0  0  0
  -32.1439  -16.5344   20.9449 C   0  0  0  0  0  0  0  0  0  0  0  0
  -32.8832  -16.1336   22.0577 C   0  0  0  0  0  0  0  0  0  0  0  0
  -26.0039  -30.1240   19.4423 C   0  0  0  0  0  0  0  0  0  0  0  0
  -33.4193  -28.5496   18.8805 C   0  0  0  0  0  0  0  0  0  0  0  0
  -32.2414  -29.2890   16.4621 C   0  0  0  0  0  0  0  0  0  0  0  0
  -31.2216  -17.1114   23.5138 C   0  0  0  0  0  0  0  0  0  0  0  0
  -29.5015  -21.6810   19.5221 C   0  0  0  0  0  0  0  0  0  0  0  0
  -28.8448  -24.0069   20.3387 C   0  0  0  0  0  0  0  0  0  0  0  0
  -18.1428  -28.6563   22.0962 C   0  0  0  0  0  0  0  0  0  0  0  0
  -24.5859  -28.4575   20.4776 C   0  0  0  0  0  0  0  0  0  0  0  0
  -19.2887  -29.2390   21.5221 C   0  0  0  0  0  0  0  0  0  0  0  0
  -25.4246  -29.5749   20.5964 C   0  0  0  0  0  0  0  0  0  0  0  0
  -33.3556  -27.6366   17.8279 C   0  0  0  0  0  0  0  0  0  0  0  0
  -32.8940  -29.8323   18.7239 C   0  0  0  0  0  0  0  0  0  0  0  0
  -32.7667  -28.0063   16.6187 C   0  0  0  0  0  0  0  0  0  0  0  0
  -29.9777  -18.9519   19.8503 C   0  0  0  0  0  0  0  0  0  0  0  0
  -25.7626  -29.5617   18.1890 C   0  0  0  0  0  0  0  0  0  0  0  0
  -30.9435  -17.2239   21.1165 C   0  0  0  0  0  0  0  0  0  0  0  0
  -32.3051  -30.2020   17.5147 C   0  0  0  0  0  0  0  0  0  0  0  0
  -32.4221  -16.4220   23.3422 C   0  0  0  0  0  0  0  0  0  0  0  0
  -30.4824  -17.5123   22.4010 C   0  0  0  0  0  0  0  0  0  0  0  0
  -29.2563  -23.0907   19.3523 C   0  0  0  0  0  0  0  0  0  0  0  0
  -28.7552  -25.2070   19.6766 C   0  0  0  0  0  0  0  0  0  0  0  0
  -28.5685  -23.7924   21.7291 C   0  0  0  0  0  0  0  0  0  0  0  0
  -22.7471  -29.7993   22.6961 C   0  0  0  0  0  0  0  0  0  0  0  0
  -31.4165  -27.2473   14.6900 C   0  0  0  0  0  0  0  0  0  0  0  0
  -25.4994  -29.8124   24.4130 C   0  0  0  0  0  0  0  0  0  0  0  0
  -28.9119  -29.7802   24.4166 C   0  0  0  0  0  0  0  0  0  0  0  0
  -17.8088  -28.8347   23.5561 C   0  0  0  0  0  0  0  0  0  0  0  0
  -23.9710  -27.8331   21.7001 C   0  0  0  0  0  0  0  0  0  0  0  0
  -25.7157  -30.2096   21.9309 C   0  0  0  0  0  0  0  0  0  0  0  0
  -18.9946  -29.2941   24.4005 C   0  0  0  0  0  0  0  0  0  0  0  0
  -27.9008  -27.0533   15.3547 C   0  0  0  0  0  0  0  0  0  0  0  0
  -19.7254  -30.4436   23.7139 C   0  0  0  0  0  0  0  0  0  0  0  0
  -27.8103  -26.0764   16.5263 C   0  0  0  0  0  0  0  0  0  0  0  0
  -29.0284  -26.6761   14.3990 C   0  0  0  0  0  0  0  0  0  0  0  0
  -30.2764  -25.5721   16.2280 C   0  0  0  0  0  0  0  0  0  0  0  0
  -20.2909  -30.0060   22.3574 C   0  0  1  0  0  0  0  0  0  0  0  0
  -23.8571  -28.8022   22.8728 C   0  0  1  0  0  0  0  0  0  0  0  0
  -29.1695  -25.9345   17.2339 C   0  0  2  0  0  0  0  0  0  0  0  0
  -33.9231  -26.2684   18.0188 C   0  0  0  0  0  0  0  0  0  0  0  0
  -32.9716  -30.7970   19.8609 C   0  0  0  0  0  0  0  0  0  0  0  0
  -33.7227  -26.1561   13.3197 C   0  0  0  0  0  0  0  0  0  0  0  0
  -30.8808  -29.8363   25.9716 C   0  0  0  0  0  0  0  0  0  0  0  0
  -25.0643  -32.8004   24.8522 C   0  0  0  0  0  0  0  0  0  0  0  0
  -27.4602  -32.9747   25.5573 C   0  0  0  0  0  0  0  0  0  0  0  0
  -25.8772  -31.5576   26.8644 C   0  0  0  0  0  0  0  0  0  0  0  0
  -29.8690  -27.1385   23.4867 C   0  0  0  0  0  0  0  0  0  0  0  0
  -33.8840  -27.1046   14.5005 C   0  0  0  0  0  0  0  0  0  0  0  0
  -28.6026  -32.9232   15.9827 C   0  0  0  0  0  0  0  0  0  0  0  0
  -27.7093  -31.6846   15.9146 C   0  0  0  0  0  0  0  0  0  0  0  0
  -29.8139  -32.7467   16.8968 C   0  0  0  0  0  0  0  0  0  0  0  0
  -27.1615  -31.2498   17.2673 C   0  0  0  0  0  0  0  0  0  1  0  0
  -30.6854  -31.5803   16.4504 C   0  0  0  0  0  0  0  0  0  0  0  0
  -32.6869  -27.0464   15.4774 C   0  0  1  0  0  0  0  0  0  0  0  0
  -26.6469  -30.7779   24.5859 C   0  0  1  0  0  0  0  0  0  0  0  0
  -29.9106  -28.9515   25.2043 C   0  0  2  0  0  0  0  0  0  0  0  0
  -26.2553  -32.0171   25.4394 C   0  0  0  0  0  0  0  0  0  0  0  0
  -29.4167  -23.6598   18.1546 N   0  0  0  0  0  0  0  0  0  0  0  0
  -29.1044  -24.9466   18.3842 N   0  0  0  0  0  0  0  0  0  0  0  0
  -25.0861  -29.5664   23.0960 N   0  0  0  0  0  0  0  0  0  0  0  0
  -30.2980  -26.5290   15.1129 N   0  0  0  0  0  0  0  0  0  0  0  0
  -28.4123  -26.4489   20.0798 N   0  0  0  0  0  0  0  0  0  0  0  0
  -28.7106  -22.4977   22.2466 N   0  0  0  0  0  0  0  0  0  0  0  0
  -21.4982  -29.2291   22.5400 N   0  0  0  0  0  0  0  0  0  0  0  0
  -27.7546  -30.0016   25.1327 N   0  0  0  0  0  0  0  0  0  0  0  0
  -30.6959  -28.0776   24.2875 N   0  3  0  0  0  0  0  0  0  0  0  0
  -28.1905  -24.7182   22.4865 O   0  0  0  0  0  0  0  0  0  0  0  0
  -23.0046  -30.9974   22.7026 O   0  0  0  0  0  0  0  0  0  0  0  0
  -31.4195  -28.0222   13.7300 O   0  0  0  0  0  0  0  0  0  0  0  0
  -24.9931  -29.2901   25.4092 O   0  0  0  0  0  0  0  0  0  0  0  0
  -29.1376  -30.1931   23.2812 O   0  0  0  0  0  0  0  0  0  0  0  0
  -30.2103  -17.6205   20.0108 O   0  0  0  0  0  0  0  0  0  0  0  0
  -26.3325  -30.1038   17.0784 O   0  0  0  0  0  0  0  0  0  1  0  0
  -31.7828  -31.4579   17.3446 O   0  0  0  0  0  0  0  0  0  0  0  0
  -33.1313  -16.0356   24.4108 F   0  0  0  0  0  0  0  0  0  0  0  0
  -29.3293  -18.1733   22.5722 F   0  0  0  0  0  0  0  0  0  0  0  0
  1  2  1  0  0  0  0
  1  5  2  0  0  0  0
  2  6  2  0  0  0  0
  3  8  2  0  0  0  0
  3 17  1  0  0  0  0
  4  9  1  0  0  0  0
  4 17  2  0  0  0  0
  5 19  1  0  0  0  0
  6 21  1  0  0  0  0
  7 10  2  0  0  0  0
  7 20  1  0  0  0  0
  8 26  1  0  0  0  0
  9 26  2  0  0  0  0
 10 27  1  0  0  0  0
 11 12  2  0  0  0  0
 11 28  1  0  0  0  0
 12 30  1  0  0  0  0
 13 22  1  0  0  0  0
 13 27  2  0  0  0  0
 14 23  1  0  0  0  0
 14 24  2  0  0  0  0
 15 25  1  0  0  0  0
 15 29  2  0  0  0  0
 16 30  2  0  0  0  0
 16 31  1  0  0  0  0
 17 32  1  0  0  0  0
 18 32  1  0  0  0  0
 18 33  2  0  0  0  0
 18 34  1  0  0  0  0
 19 21  2  0  0  0  0
 19 39  1  0  0  0  0
 20 22  2  0  0  0  0
 20 40  1  0  0  0  0
 21 48  1  0  0  0  0
 22 41  1  0  0  0  0
 23 25  2  0  0  0  0
 23 51  1  0  0  0  0
 24 29  1  0  0  0  0
 24 52  1  0  0  0  0
 25 65  1  0  0  0  0
 26 83  1  0  0  0  0
 27 84  1  0  0  0  0
 28 31  2  0  0  0  0
 28 83  1  0  0  0  0
 29 85  1  0  0  0  0
 30 86  1  0  0  0  0
 31 87  1  0  0  0  0
 32 69  2  0  0  0  0
 33 70  1  0  0  0  0
 33 73  1  0  0  0  0
 34 74  1  0  0  0  0
 34 78  2  0  0  0  0
 35 49  1  0  0  0  0
 35 75  1  0  0  0  0
 35 79  2  0  0  0  0
 36 65  1  0  0  0  0
 36 72  1  0  0  0  0
 36 80  2  0  0  0  0
 37 66  1  0  0  0  0
 37 71  1  0  0  0  0
 37 81  2  0  0  0  0
 38 67  1  0  0  0  0
 38 76  1  0  0  0  0
 38 82  2  0  0  0  0
 39 42  1  0  0  0  0
 40 49  1  0  0  0  0
 41 71  1  0  0  0  0
 42 44  1  0  0  0  0
 43 45  1  0  0  0  0
 43 46  1  0  0  0  0
 44 48  1  0  0  0  0
 45 50  1  0  0  0  0
 46 72  1  0  0  0  0
 47 50  1  0  0  0  0
 47 72  1  0  0  0  0
 48 75  1  0  0  0  0
 49 71  1  0  0  0  0
 50 70  1  0  0  0  0
 53 59  1  0  0  0  0
 54 67  1  0  0  0  0
 55 68  1  0  0  0  0
 56 68  1  0  0  0  0
 57 68  1  0  0  0  0
 58 77  1  0  0  0  0
 59 65  1  0  0  0  0
 60 61  1  0  0  0  0
 60 62  1  0  0  0  0
 61 63  1  0  0  0  0
 62 64  1  0  0  0  0
 63 84  1  0  0  0  0
 64 85  1  0  0  0  0
 66 68  1  0  0  0  0
 66 76  1  0  0  0  0
 67 77  1  0  0  0  0
 69 70  1  0  0  0  0
M  CHG  1  77   1
M  ISO  4  36 100  63 101  65 100  84 101
M  END
> <Batch ID>
0103

> <Smiles>
CC[100CH:0](c1cc(OCCCC[101CH2:1][101O:1]c2ccc3c(c2)CN(C(=O)C(NC(=O)C(C)NC)C(C)(C)C)C(C(=O)NC2CCCc4ccccc42)C3)c(C)cc1C)[100C:0](=O)N1CCCC(n2nc(-c3ccc(Oc4ccc(F)cc4F)cc3)c(C(N)=O)c2N)C1

> <Shape>
0.229

> <Color>
0.081

> <Negative vol penalty>
0.000

$$$$

  -OEChem-04052301053D

 89 98  0     1  0  0  0  0  0999 V2000
  -16.8428  -12.3675   22.2602 C   0  0  0  0  0  0  0  0  0  0  0  0
  -17.5932  -13.5078   22.5286 C   0  0  0  0  0  0  0  0  0  0  0  0
  -26.3880  -30.3594   22.7219 C   0  0  0  0  0  0  0  0  0  0  0  0
  -26.0092  -31.6443   20.7113 C   0  0  0  0  0  0  0  0  0  0  0  0
  -17.4493  -11.1125   22.2892 C   0  0  0  0  0  0  0  0  0  0  0  0
  -18.9505  -13.3936   22.8272 C   0  0  0  0  0  0  0  0  0  0  0  0
  -21.7731  -16.8095   20.3759 C   0  0  0  0  0  0  0  0  0  0  0  0
  -26.5045  -31.5404   23.4548 C   0  0  0  0  0  0  0  0  0  0  0  0
  -26.1256  -32.8254   21.4442 C   0  0  0  0  0  0  0  0  0  0  0  0
  -21.7792  -18.1097   20.8793 C   0  0  0  0  0  0  0  0  0  0  0  0
  -24.1971  -34.6671   23.5202 C   0  0  0  0  0  0  0  0  0  0  0  0
  -23.2535  -35.6677   23.2881 C   0  0  0  0  0  0  0  0  0  0  0  0
  -23.8957  -17.6775   21.9531 C   0  0  0  0  0  0  0  0  0  0  0  0
  -26.8735  -23.1129   20.1192 C   0  0  0  0  0  0  0  0  0  0  0  0
  -27.2398  -24.2218   22.2342 C   0  0  0  0  0  0  0  0  0  0  0  0
  -25.0177  -37.1758   22.6170 C   0  0  0  0  0  0  0  0  0  0  0  0
  -26.1404  -30.4113   21.3501 C   0  0  0  0  0  0  0  0  0  0  0  0
  -24.8455  -28.4571   20.3441 C   0  0  0  0  0  0  0  0  0  0  0  0
  -18.8168  -10.9836   22.5788 C   0  0  0  0  0  0  0  0  0  0  0  0
  -22.8248  -15.9287   20.6668 C   0  0  0  0  0  0  0  0  0  0  0  0
  -19.5756  -12.1355   22.8613 C   0  0  0  0  0  0  0  0  0  0  0  0
  -23.9018  -16.3676   21.4501 C   0  0  0  0  0  0  0  0  0  0  0  0
  -28.2107  -23.3187   19.7796 C   0  0  0  0  0  0  0  0  0  0  0  0
  -28.5770  -24.4276   21.8946 C   0  0  0  0  0  0  0  0  0  0  0  0
  -26.3881  -23.5645   21.3464 C   0  0  0  0  0  0  0  0  0  0  0  0
  -29.0624  -23.9761   20.6674 C   0  0  0  0  0  0  0  0  0  0  0  0
  -26.3733  -32.7734   22.8160 C   0  0  0  0  0  0  0  0  0  0  0  0
  -22.8392  -18.5429   21.6704 C   0  0  0  0  0  0  0  0  0  0  0  0
  -25.5511  -34.9208   23.3008 C   0  0  0  0  0  0  0  0  0  0  0  0
  -23.6638  -36.9221   22.8365 C   0  0  0  0  0  0  0  0  0  0  0  0
  -25.9614  -36.1751   22.8492 C   0  0  0  0  0  0  0  0  0  0  0  0
  -26.0205  -29.1916   20.5924 C   0  0  0  0  0  0  0  0  0  0  0  0
  -25.2611  -27.3914   19.5837 C   0  0  0  0  0  0  0  0  0  0  0  0
  -22.8337  -22.1573   21.6374 C   0  0  0  0  0  0  0  0  0  0  0  0
  -22.1653  -23.2179   22.1463 C   0  0  0  0  0  0  0  0  0  0  0  0
  -24.2838  -22.2480   21.2219 C   0  0  0  0  0  0  0  0  0  0  0  0
  -23.4989  -28.7150   20.7633 C   0  0  0  0  0  0  0  0  0  0  0  0
  -23.0644  -13.1435   22.1797 C   0  0  0  0  0  0  0  0  0  0  0  0
  -26.1276  -13.2747   21.1202 C   0  0  0  0  0  0  0  0  0  0  0  0
  -28.7458  -15.1879   20.0566 C   0  0  0  0  0  0  0  0  0  0  0  0
  -30.8508  -24.9272   19.1880 C   0  0  0  0  0  0  0  0  0  0  0  0
  -19.4178   -9.6019   22.6449 C   0  0  0  0  0  0  0  0  0  0  0  0
  -22.8163  -14.5379   20.0941 C   0  0  0  0  0  0  0  0  0  0  0  0
  -25.0649  -15.4674   21.7747 C   0  0  0  0  0  0  0  0  0  0  0  0
  -22.9329  -24.5051   22.3688 C   0  0  0  0  0  0  0  0  0  0  0  0
  -20.9437   -9.5986   22.6017 C   0  0  0  0  0  0  0  0  0  0  0  0
  -28.6319  -26.0783   16.4595 C   0  0  0  0  0  0  0  0  0  0  0  0
  -21.5071  -10.6432   23.5600 C   0  0  0  0  0  0  0  0  0  0  0  0
  -27.6627  -27.0124   17.1817 C   0  0  0  0  0  0  0  0  0  0  0  0
  -24.3965  -24.2365   22.6880 C   0  0  0  0  0  0  0  0  0  0  0  0
  -29.9928  -26.0322   17.1477 C   0  0  0  0  0  0  0  0  0  0  0  0
  -28.9453  -26.6044   19.3194 C   0  0  0  0  0  0  0  0  0  0  0  0
  -21.0559  -12.0545   23.1650 C   0  0  1  0  0  0  0  0  0  0  0  0
  -23.6887  -13.5632   20.8790 C   0  0  1  0  0  0  0  0  0  0  0  0
  -27.5542  -26.6371   18.6688 C   0  0  1  0  0  0  0  0  0  0  0  0
  -28.7012  -22.8245   18.4572 C   0  0  0  0  0  0  0  0  0  0  0  0
  -29.4656  -25.1348   22.8665 C   0  0  0  0  0  0  0  0  0  0  0  0
  -31.1314  -15.0149   19.2973 C   0  0  0  0  0  0  0  0  0  0  0  0
  -27.0129  -12.8429   24.0081 C   0  0  0  0  0  0  0  0  0  0  0  0
  -29.3006  -13.6181   23.3493 C   0  0  0  0  0  0  0  0  0  0  0  0
  -28.3333  -11.5669   22.3103 C   0  0  0  0  0  0  0  0  0  0  0  0
  -31.4576  -23.3959   21.0097 C   0  0  0  0  0  0  0  0  0  0  0  0
  -28.1070  -16.3381   17.4056 C   0  0  0  0  0  0  0  0  0  0  0  0
  -22.1928  -20.8141   21.3875 C   0  0  0  0  0  0  0  0  0  1  0  0
  -27.4222  -13.8336   21.6592 C   0  0  1  0  0  0  0  0  0  0  0  0
  -29.6743  -15.0508   18.8635 C   0  0  2  0  0  0  0  0  0  0  0  0
  -27.9945  -12.9820   22.8274 C   0  0  0  0  0  0  0  0  0  0  0  0
  -27.1014  -28.6392   20.0351 N   0  0  0  0  0  0  0  0  0  0  0  0
  -26.6073  -27.5462   19.4291 N   0  0  0  0  0  0  0  0  0  0  0  0
  -25.0052  -23.3523   21.6971 N   0  0  0  0  0  0  0  0  0  0  0  0
  -25.0075  -14.1146   21.1966 N   0  0  0  0  0  0  0  0  0  0  0  0
  -29.8694  -25.7331   18.5752 N   0  0  0  0  0  0  0  0  0  0  0  0
  -24.6026  -26.3464   19.0391 N   0  0  0  0  0  0  0  0  0  0  0  0
  -23.2475  -29.8544   21.5397 N   0  0  0  0  0  0  0  0  0  0  0  0
  -21.8305  -12.5369   22.0417 N   0  0  0  0  0  0  0  0  0  0  0  0
  -28.3197  -13.9596   20.5160 N   0  0  0  0  0  0  0  0  0  0  0  0
  -30.4452  -24.1896   20.3167 N   0  0  0  0  0  0  0  0  0  0  0  0
  -29.4901  -16.1973   17.9294 N   0  3  0  0  0  0  0  0  0  0  0  0
  -20.9595  -23.3464   22.5007 O   0  5  0  0  0  0  0  0  0  0  0  0
  -24.7478  -21.3320   20.5410 O   0  0  0  0  0  0  0  0  0  0  0  0
  -22.5494  -27.9488   20.4721 O   0  0  0  0  0  0  0  0  0  0  0  0
  -23.6590  -13.3531   23.2306 O   0  0  0  0  0  0  0  0  0  0  0  0
  -26.1122  -12.1376   20.6423 O   0  0  0  0  0  0  0  0  0  0  0  0
  -28.4331  -16.2756   20.5357 O   0  0  0  0  0  0  0  0  0  0  0  0
  -32.0226  -24.9079   18.7917 O   0  0  0  0  0  0  0  0  0  0  0  0
  -26.4867  -33.9261   23.5309 O   0  0  0  0  0  0  0  0  0  0  0  0
  -22.8473  -19.8112   22.1636 O   0  0  0  0  0  0  0  0  0  1  0  0
  -22.7573  -37.8824   22.6123 F   0  0  0  0  0  0  0  0  0  0  0  0
  -27.2606  -36.4245   22.6354 F   0  0  0  0  0  0  0  0  0  0  0  0
  1  2  1  0  0  0  0
  1  5  2  0  0  0  0
  2  6  2  0  0  0  0
  3  8  2  0  0  0  0
  3 17  1  0  0  0  0
  4  9  1  0  0  0  0
  4 17  2  0  0  0  0
  5 19  1  0  0  0  0
  6 21  1  0  0  0  0
  7 10  2  0  0  0  0
  7 20  1  0  0  0  0
  8 27  1  0  0  0  0
  9 27  2  0  0  0  0
 10 28  1  0  0  0  0
 11 12  2  0  0  0  0
 11 29  1  0  0  0  0
 12 30  1  0  0  0  0
 13 22  1  0  0  0  0
 13 28  2  0  0  0  0
 14 23  2  0  0  0  0
 14 25  1  0  0  0  0
 15 24  1  0  0  0  0
 15 25  2  0  0  0  0
 16 30  2  0  0  0  0
 16 31  1  0  0  0  0
 17 32  1  0  0  0  0
 18 32  1  0  0  0  0
 18 33  2  0  0  0  0
 18 37  1  0  0  0  0
 19 21  2  0  0  0  0
 19 42  1  0  0  0  0
 20 22  2  0  0  0  0
 20 43  1  0  0  0  0
 21 53  1  0  0  0  0
 22 44  1  0  0  0  0
 23 26  1  0  0  0  0
 23 56  1  0  0  0  0
 24 26  2  0  0  0  0
 24 57  1  0  0  0  0
 25 70  1  0  0  0  0
 26 77  1  0  0  0  0
 27 86  1  0  0  0  0
 28 87  1  0  0  0  0
 29 31  2  0  0  0  0
 29 86  1  0  0  0  0
 30 88  1  0  0  0  0
 31 89  1  0  0  0  0
 32 68  2  0  0  0  0
 33 69  1  0  0  0  0
 33 73  1  0  0  0  0
 34 35  2  0  0  0  0
 34 36  1  0  0  0  0
 34 64  1  0  0  0  0
 35 45  1  0  0  0  0
 35 79  1  0  0  0  0
 36 70  1  0  0  0  0
 36 80  2  0  0  0  0
 37 74  1  0  0  0  0
 37 81  2  0  0  0  0
 38 54  1  0  0  0  0
 38 75  1  0  0  0  0
 38 82  2  0  0  0  0
 39 65  1  0  0  0  0
 39 71  1  0  0  0  0
 39 83  2  0  0  0  0
 40 66  1  0  0  0  0
 40 76  1  0  0  0  0
 40 84  2  0  0  0  0
 41 72  1  0  0  0  0
 41 77  1  0  0  0  0
 41 85  2  0  0  0  0
 42 46  1  0  0  0  0
 43 54  1  0  0  0  0
 44 71  1  0  0  0  0
 45 50  1  0  0  0  0
 46 48  1  0  0  0  0
 47 49  1  0  0  0  0
 47 51  1  0  0  0  0
 48 53  1  0  0  0  0
 49 55  1  0  0  0  0
 50 70  1  0  0  0  0
 51 72  1  0  0  0  0
 52 55  1  0  0  0  0
 52 72  1  0  0  0  0
 53 75  1  0  0  0  0
 54 71  1  0  0  0  0
 55 69  1  0  0  0  0
 58 66  1  0  0  0  0
 59 67  1  0  0  0  0
 60 67  1  0  0  0  0
 61 67  1  0  0  0  0
 62 77  1  0  0  0  0
 63 78  1  0  0  0  0
 64 87  1  0  0  0  0
 65 67  1  0  0  0  0
 65 76  1  0  0  0  0
 66 78  1  0  0  0  0
 68 69  1  0  0  0  0
M  CHG  2  78   1  79  -1
M  ISO  4  41 100  64 101  77 100  87 101
M  END
> <Batch ID>
0103

> <Smiles>
CNC(C)C(=O)NC(C(=O)N1Cc2cc([101O:1][101CH2:1]C3C(=O)CCN(c4cc(C)c([100N:0](C)[100C:0](=O)N5CCCC(n6nc(-c7ccc(Oc8ccc(F)cc8F)cc7)c(C(N)=O)c6N)C5)c(C)c4)C3=O)ccc2CC1C(=O)NC1CCCc2ccccc21)C(C)(C)C

> <Shape>
0.235

> <Color>
0.056

> <Negative vol penalty>
0.000

$$$$

  -OEChem-04052301053D

 89 97  0     1  0  0  0  0  0999 V2000
  -21.7838   -7.7570   26.2266 C   0  0  0  0  0  0  0  0  0  0  0  0
  -21.1619   -8.9681   25.9402 C   0  0  0  0  0  0  0  0  0  0  0  0
  -27.6109  -25.6023   19.2364 C   0  0  0  0  0  0  0  0  0  0  0  0
  -25.3978  -25.1771   20.1075 C   0  0  0  0  0  0  0  0  0  0  0  0
  -23.1737   -7.6594   26.1763 C   0  0  0  0  0  0  0  0  0  0  0  0
  -21.9297  -10.0826   25.6043 C   0  0  0  0  0  0  0  0  0  0  0  0
  -21.7391  -15.9706   21.5285 C   0  0  0  0  0  0  0  0  0  0  0  0
  -21.8434  -28.1337   22.2990 C   0  0  0  0  0  0  0  0  0  0  0  0
  -21.7913  -26.7411   22.2395 C   0  0  0  0  0  0  0  0  0  0  0  0
  -27.8238  -24.2299   19.1076 C   0  0  0  0  0  0  0  0  0  0  0  0
  -25.6108  -23.8047   19.9786 C   0  0  0  0  0  0  0  0  0  0  0  0
  -21.9179  -17.3502   21.6202 C   0  0  0  0  0  0  0  0  0  0  0  0
  -28.6266  -21.6346   21.1188 C   0  0  0  0  0  0  0  0  0  0  0  0
  -29.8494  -21.1255   21.5558 C   0  0  0  0  0  0  0  0  0  0  0  0
  -19.4314  -28.2193   22.4080 C   0  0  0  0  0  0  0  0  0  0  0  0
  -24.3069  -17.0434   21.4875 C   0  0  0  0  0  0  0  0  0  0  0  0
  -30.3097  -20.3172   19.3260 C   0  0  0  0  0  0  0  0  0  0  0  0
  -26.3979  -26.0760   19.7364 C   0  0  0  0  0  0  0  0  0  0  0  0
  -19.3793  -26.8267   22.3484 C   0  0  0  0  0  0  0  0  0  0  0  0
  -25.6312  -28.3636   18.9078 C   0  0  0  0  0  0  0  0  0  0  0  0
  -23.9584   -8.7708   25.8302 C   0  0  0  0  0  0  0  0  0  0  0  0
  -22.8452  -15.1147   21.4265 C   0  0  0  0  0  0  0  0  0  0  0  0
  -23.3315  -10.0001   25.5506 C   0  0  0  0  0  0  0  0  0  0  0  0
  -24.1394  -15.6534   21.3921 C   0  0  0  0  0  0  0  0  0  0  0  0
  -20.6634  -28.8728   22.3833 C   0  0  0  0  0  0  0  0  0  0  0  0
  -20.5593  -26.0876   22.2642 C   0  0  0  0  0  0  0  0  0  0  0  0
  -26.8238  -23.3310   19.4787 C   0  0  0  0  0  0  0  0  0  0  0  0
  -23.2020  -17.8866   21.6026 C   0  0  0  0  0  0  0  0  0  0  0  0
  -28.2452  -21.4850   19.7854 C   0  0  0  0  0  0  0  0  0  0  0  0
  -30.6910  -20.4668   20.6594 C   0  0  0  0  0  0  0  0  0  0  0  0
  -29.0868  -20.8263   18.8890 C   0  0  0  0  0  0  0  0  0  0  0  0
  -26.1775  -27.4936   19.8703 C   0  0  0  0  0  0  0  0  0  0  0  0
  -25.6336  -29.5946   19.5169 C   0  0  0  0  0  0  0  0  0  0  0  0
  -17.1443  -26.3631   21.4511 C   0  0  0  0  0  0  0  0  0  0  0  0
  -18.0736  -26.1784   22.3759 C   0  0  0  0  0  0  0  0  0  0  0  0
  -25.1634  -28.0840   17.5816 C   0  0  0  0  0  0  0  0  0  0  0  0
  -24.0393  -12.7699   23.2097 C   0  0  0  0  0  0  0  0  0  0  0  0
  -25.5886  -31.2071   25.3057 C   0  0  0  0  0  0  0  0  0  0  0  0
  -26.0693  -12.4240   20.7034 C   0  0  0  0  0  0  0  0  0  0  0  0
  -23.1811  -31.1650   24.5275 C   0  0  0  0  0  0  0  0  0  0  0  0
  -27.5953  -13.8326   17.9952 C   0  0  0  0  0  0  0  0  0  0  0  0
  -25.4599   -8.6291   25.8351 C   0  0  0  0  0  0  0  0  0  0  0  0
  -22.6343  -13.6307   21.3015 C   0  0  0  0  0  0  0  0  0  0  0  0
  -25.3591  -14.7792   21.2636 C   0  0  0  0  0  0  0  0  0  0  0  0
  -26.1808   -9.7596   25.1054 C   0  0  0  0  0  0  0  0  0  0  0  0
  -27.9749  -32.1499   22.8043 C   0  0  0  0  0  0  0  0  0  0  0  0
  -25.6136  -11.1123   25.5240 C   0  0  0  0  0  0  0  0  0  0  0  0
  -27.7543  -31.1244   21.6931 C   0  0  0  0  0  0  0  0  0  0  0  0
  -27.7680  -31.5319   24.1836 C   0  0  0  0  0  0  0  0  0  0  0  0
  -26.2161  -29.8459   23.2503 C   0  0  0  0  0  0  0  0  0  0  0  0
  -24.1287  -11.2250   25.1580 C   0  0  1  0  0  0  0  0  0  0  0  0
  -23.8549  -12.8165   21.7192 C   0  0  1  0  0  0  0  0  0  0  0  0
  -26.3853  -30.4367   21.8393 C   0  0  2  0  0  0  0  0  0  0  0  0
  -29.2302  -13.3128   16.1637 C   0  0  0  0  0  0  0  0  0  0  0  0
  -28.3688  -12.6443   22.6968 C   0  0  0  0  0  0  0  0  0  0  0  0
  -29.9072  -13.0733   20.7687 C   0  0  0  0  0  0  0  0  0  0  0  0
  -28.6846  -10.9047   20.9281 C   0  0  0  0  0  0  0  0  0  0  0  0
  -25.5790  -14.3475   15.8908 C   0  0  0  0  0  0  0  0  0  0  0  0
  -20.7201  -30.3617   22.4476 C   0  0  0  0  0  0  0  0  0  0  0  0
  -24.2650  -30.4850   25.3315 C   0  0  0  0  0  0  0  0  0  0  0  0
  -21.3613  -22.4066   22.0086 C   0  0  0  0  0  0  0  0  0  0  0  0
  -22.5916  -21.5089   21.8690 C   0  0  0  0  0  0  0  0  0  0  0  0
  -20.8049  -30.9109   23.8771 C   0  0  0  0  0  0  0  0  0  0  0  0
  -21.7234  -23.8856   22.1172 C   0  0  0  0  0  0  0  0  0  0  0  0
  -22.2055  -20.0367   21.8027 C   0  0  0  0  0  0  0  0  0  1  0  0
  -27.4110  -13.0043   20.3264 C   0  0  1  0  0  0  0  0  0  0  0  0
  -27.7644  -13.3450   16.5675 C   0  0  2  0  0  0  0  0  0  0  0  0
  -28.5702  -12.4233   21.1844 C   0  0  0  0  0  0  0  0  0  0  0  0
  -26.5033  -28.1189   21.0047 N   0  0  0  0  0  0  0  0  0  0  0  0
  -26.1609  -29.3949   20.7588 N   0  0  0  0  0  0  0  0  0  0  0  0
  -25.1012  -13.3341   21.1508 N   0  0  0  0  0  0  0  0  0  0  0  0
  -26.4657  -30.8693   24.2748 N   0  0  0  0  0  0  0  0  0  0  0  0
  -25.2361  -30.8175   19.1060 N   0  0  0  0  0  0  0  0  0  0  0  0
  -25.2331  -26.7650   17.1128 N   0  0  0  0  0  0  0  0  0  0  0  0
  -20.5369  -24.7032   22.2044 N   0  0  0  0  0  0  0  0  0  0  0  0
  -23.9757  -11.4976   23.7450 N   0  0  0  0  0  0  0  0  0  0  0  0
  -21.9843  -30.4606   24.5666 N   0  0  0  0  0  0  0  0  0  0  0  0
  -27.5618  -12.7856   18.8918 N   0  0  0  0  0  0  0  0  0  0  0  0
  -27.0366  -14.2408   15.6247 N   0  3  0  0  0  0  0  0  0  0  0  0
  -24.7126  -28.9802   16.8285 O   0  0  0  0  0  0  0  0  0  0  0  0
  -24.2269  -13.8111   23.8281 O   0  0  0  0  0  0  0  0  0  0  0  0
  -25.8326  -32.0481   26.1748 O   0  0  0  0  0  0  0  0  0  0  0  0
  -25.8848  -11.2089   20.5978 O   0  0  0  0  0  0  0  0  0  0  0  0
  -23.3593  -32.2171   23.9192 O   0  0  0  0  0  0  0  0  0  0  0  0
  -27.5059  -15.0233   18.2862 O   0  0  0  0  0  0  0  0  0  0  0  0
  -27.0312  -21.9917   19.3528 O   0  0  0  0  0  0  0  0  0  0  0  0
  -23.3794  -19.2328   21.6926 O   0  0  0  0  0  0  0  0  0  1  0  0
  -31.8660  -19.9793   21.0789 F   0  0  0  0  0  0  0  0  0  0  0  0
  -28.7264  -20.6805   17.6065 F   0  0  0  0  0  0  0  0  0  0  0  0
  1  2  1  0  0  0  0
  1  5  2  0  0  0  0
  2  6  2  0  0  0  0
  3 10  2  0  0  0  0
  3 18  1  0  0  0  0
  4 11  1  0  0  0  0
  4 18  2  0  0  0  0
  5 21  1  0  0  0  0
  6 23  1  0  0  0  0
  7 12  2  0  0  0  0
  7 22  1  0  0  0  0
  8  9  2  0  0  0  0
  8 25  1  0  0  0  0
  9 26  1  0  0  0  0
 10 27  1  0  0  0  0
 11 27  2  0  0  0  0
 12 28  1  0  0  0  0
 13 14  2  0  0  0  0
 13 29  1  0  0  0  0
 14 30  1  0  0  0  0
 15 19  1  0  0  0  0
 15 25  2  0  0  0  0
 16 24  1  0  0  0  0
 16 28  2  0  0  0  0
 17 30  2  0  0  0  0
 17 31  1  0  0  0  0
 18 32  1  0  0  0  0
 19 26  2  0  0  0  0
 19 35  1  0  0  0  0
 20 32  1  0  0  0  0
 20 33  2  0  0  0  0
 20 36  1  0  0  0  0
 21 23  2  0  0  0  0
 21 42  1  0  0  0  0
 22 24  2  0  0  0  0
 22 43  1  0  0  0  0
 23 51  1  0  0  0  0
 24 44  1  0  0  0  0
 25 59  1  0  0  0  0
 26 75  1  0  0  0  0
 27 86  1  0  0  0  0
 28 87  1  0  0  0  0
 29 31  2  0  0  0  0
 29 86  1  0  0  0  0
 30 88  1  0  0  0  0
 31 89  1  0  0  0  0
 32 69  2  0  0  0  0
 33 70  1  0  0  0  0
 33 73  1  0  0  0  0
 34 35  2  0  0  0  0
 36 74  1  0  0  0  0
 36 80  2  0  0  0  0
 37 52  1  0  0  0  0
 37 76  1  0  0  0  0
 37 81  2  0  0  0  0
 38 60  1  0  0  0  0
 38 72  1  0  0  0  0
 38 82  2  0  0  0  0
 39 66  1  0  0  0  0
 39 71  1  0  0  0  0
 39 83  2  0  0  0  0
 40 60  1  0  0  0  0
 40 77  1  0  0  0  0
 40 84  2  0  0  0  0
 41 67  1  0  0  0  0
 41 78  1  0  0  0  0
 41 85  2  0  0  0  0
 42 45  1  0  0  0  0
 43 52  1  0  0  0  0
 44 71  1  0  0  0  0
 45 47  1  0  0  0  0
 46 48  1  0  0  0  0
 46 49  1  0  0  0  0
 47 51  1  0  0  0  0
 48 53  1  0  0  0  0
 49 72  1  0  0  0  0
 50 53  1  0  0  0  0
 50 72  1  0  0  0  0
 51 76  1  0  0  0  0
 52 71  1  0  0  0  0
 53 70  1  0  0  0  0
 54 67  1  0  0  0  0
 55 68  1  0  0  0  0
 56 68  1  0  0  0  0
 57 68  1  0  0  0  0
 58 79  1  0  0  0  0
 59 63  1  0  0  0  0
 61 62  1  0  0  0  0
 61 64  1  0  0  0  0
 62 65  1  0  0  0  0
 63 77  1  0  0  0  0
 64 75  1  0  0  0  0
 65 87  1  0  0  0  0
 66 68  1  0  0  0  0
 66 78  1  0  0  0  0
 67 79  1  0  0  0  0
 69 70  1  0  0  0  0
M  CHG  1  79   1
M  ISO  4  38 100  60 100  65 101  87 101
M  END
> <Batch ID>
0103

> <Smiles>
C=Cc1cc(CCNC(=O)[100CH2:0][100C:0](=O)N2CCCC(n3nc(-c4ccc(Oc5ccc(F)cc5F)cc4)c(C(N)=O)c3N)C2)ccc1NCCC[101CH2:1][101O:1]c1ccc2c(c1)CN(C(=O)C(NC(=O)C(C)NC)C(C)(C)C)C(C(=O)NC1CCCc3ccccc31)C2

> <Shape>
0.255

> <Color>
0.051

> <Negative vol penalty>
0.000

$$$$

  -OEChem-04052301053D

 88 97  0     1  0  0  0  0  0999 V2000
  -22.1789  -32.4270   26.0622 C   0  0  0  0  0  0  0  0  0  0  0  0
  -23.1963  -32.5485   25.1211 C   0  0  0  0  0  0  0  0  0  0  0  0
  -22.6460  -10.3130   20.2699 C   0  0  0  0  0  0  0  0  0  0  0  0
  -24.2477   -9.6354   21.9470 C   0  0  0  0  0  0  0  0  0  0  0  0
  -22.3579  -31.6120   27.1792 C   0  0  0  0  0  0  0  0  0  0  0  0
  -24.3937  -31.8560   25.2971 C   0  0  0  0  0  0  0  0  0  0  0  0
  -26.7235  -27.1616   20.3548 C   0  0  0  0  0  0  0  0  0  0  0  0
  -31.7357  -18.3206   19.9530 C   0  0  0  0  0  0  0  0  0  0  0  0
  -31.5621  -19.3424   19.0195 C   0  0  0  0  0  0  0  0  0  0  0  0
  -21.8859   -9.1741   20.5357 C   0  0  0  0  0  0  0  0  0  0  0  0
  -23.4875   -8.4965   22.2128 C   0  0  0  0  0  0  0  0  0  0  0  0
  -27.3411  -26.4054   19.3584 C   0  0  0  0  0  0  0  0  0  0  0  0
  -19.6744   -8.1460   22.8778 C   0  0  0  0  0  0  0  0  0  0  0  0
  -18.2941   -8.3027   23.0034 C   0  0  0  0  0  0  0  0  0  0  0  0
  -29.1876  -25.9326   20.8468 C   0  0  0  0  0  0  0  0  0  0  0  0
  -29.3173  -19.7063   19.8352 C   0  0  0  0  0  0  0  0  0  0  0  0
  -17.9537   -6.7865   21.1534 C   0  0  0  0  0  0  0  0  0  0  0  0
  -23.8270  -10.5436   20.9755 C   0  0  0  0  0  0  0  0  0  0  0  0
  -24.2062  -13.0618   20.8239 C   0  0  0  0  0  0  0  0  0  0  0  0
  -23.5545  -30.9016   27.3641 C   0  0  0  0  0  0  0  0  0  0  0  0
  -27.3290  -27.2936   21.6076 C   0  0  0  0  0  0  0  0  0  0  0  0
  -24.5894  -31.0318   26.4184 C   0  0  0  0  0  0  0  0  0  0  0  0
  -28.5676  -26.6785   21.8528 C   0  0  0  0  0  0  0  0  0  0  0  0
  -30.7001  -17.9916   20.8276 C   0  0  0  0  0  0  0  0  0  0  0  0
  -29.4909  -18.6844   20.7687 C   0  0  0  0  0  0  0  0  0  0  0  0
  -30.3530  -20.0352   18.9606 C   0  0  0  0  0  0  0  0  0  0  0  0
  -22.3066   -8.2659   21.5072 C   0  0  0  0  0  0  0  0  0  0  0  0
  -28.5702  -25.7926   19.6038 C   0  0  0  0  0  0  0  0  0  0  0  0
  -20.1944   -7.3096   21.8899 C   0  0  0  0  0  0  0  0  0  0  0  0
  -17.4337   -7.6229   22.1412 C   0  0  0  0  0  0  0  0  0  0  0  0
  -19.3340   -6.6299   21.0277 C   0  0  0  0  0  0  0  0  0  0  0  0
  -24.6130  -11.7197   20.7010 C   0  0  0  0  0  0  0  0  0  0  0  0
  -25.3082  -13.7903   20.4482 C   0  0  0  0  0  0  0  0  0  0  0  0
  -30.8823  -21.0024   16.7710 C   0  0  0  0  0  0  0  0  0  0  0  0
  -29.3055  -22.1680   18.3429 C   0  0  0  0  0  0  0  0  0  0  0  0
  -22.9449  -13.6016   21.2404 C   0  0  0  0  0  0  0  0  0  0  0  0
  -27.1418  -28.7250   25.0706 C   0  0  0  0  0  0  0  0  0  0  0  0
  -28.2528  -25.8785   25.3418 C   0  0  0  0  0  0  0  0  0  0  0  0
  -29.1066  -22.7477   26.3936 C   0  0  0  0  0  0  0  0  0  0  0  0
  -30.8072  -14.7293   20.6074 C   0  0  0  0  0  0  0  0  0  0  0  0
  -23.7197  -30.0701   28.6115 C   0  0  0  0  0  0  0  0  0  0  0  0
  -26.7296  -28.1493   22.6904 C   0  0  0  0  0  0  0  0  0  0  0  0
  -29.1985  -26.8766   23.2040 C   0  0  0  0  0  0  0  0  0  0  0  0
  -30.8157  -22.1974   15.8426 C   0  0  0  0  0  0  0  0  0  0  0  0
  -24.8758  -29.0763   28.5323 C   0  0  0  0  0  0  0  0  0  0  0  0
  -30.2934  -23.4562   16.4944 C   0  0  0  0  0  0  0  0  0  0  0  0
  -29.6263  -12.3334   18.2533 C   0  0  0  0  0  0  0  0  0  0  0  0
  -26.1270  -29.7555   27.9844 C   0  0  0  0  0  0  0  0  0  0  0  0
  -28.1861  -12.0665   18.6941 C   0  0  0  0  0  0  0  0  0  0  0  0
  -30.5505  -12.5550   19.4486 C   0  0  0  0  0  0  0  0  0  0  0  0
  -28.6644  -13.3312   20.8320 C   0  0  0  0  0  0  0  0  0  0  0  0
  -25.8933  -30.2772   26.5615 C   0  0  1  0  0  0  0  0  0  0  0  0
  -28.9912  -23.1236   17.2006 C   0  0  2  0  0  0  0  0  0  0  0  0
  -26.9702  -27.5901   24.1041 C   0  0  1  0  0  0  0  0  0  0  0  0
  -27.6840  -13.1570   19.6595 C   0  0  2  0  0  0  0  0  0  0  0  0
  -28.3689  -18.3510   21.6964 C   0  0  0  0  0  0  0  0  0  0  0  0
  -30.2269  -21.5437   28.2891 C   0  0  0  0  0  0  0  0  0  0  0  0
  -30.9747  -26.7776   24.2993 C   0  0  0  0  0  0  0  0  0  0  0  0
  -32.0051  -24.8696   25.5507 C   0  0  0  0  0  0  0  0  0  0  0  0
  -30.7968  -26.6650   26.7914 C   0  0  0  0  0  0  0  0  0  0  0  0
  -26.6517  -21.2214   27.0281 C   0  0  0  0  0  0  0  0  0  0  0  0
  -30.9092  -16.8934   21.8180 C   0  0  0  0  0  0  0  0  0  0  0  0
  -28.3062  -24.3944   17.6978 C   0  0  0  0  0  0  0  0  0  1  0  0
  -29.4758  -25.0003   25.4219 C   0  0  1  0  0  0  0  0  0  0  0  0
  -28.9064  -22.0417   27.7225 C   0  0  2  0  0  0  0  0  0  0  0  0
  -30.7927  -25.8235   25.4966 C   0  0  0  0  0  0  0  0  0  0  0  0
  -25.8749  -11.5998   20.2801 N   0  0  0  0  0  0  0  0  0  0  0  0
  -26.2705  -12.8760   20.1350 N   0  0  0  0  0  0  0  0  0  0  0  0
  -30.1728  -21.0984   17.9921 N   0  0  0  0  0  0  0  0  0  0  0  0
  -28.1775  -26.7605   24.2570 N   0  0  0  0  0  0  0  0  0  0  0  0
  -30.0183  -13.6022   20.3237 N   0  0  0  0  0  0  0  0  0  0  0  0
  -25.5383  -15.1175   20.3584 N   0  0  0  0  0  0  0  0  0  0  0  0
  -22.7479  -13.8647   22.6028 N   0  0  0  0  0  0  0  0  0  0  0  0
  -25.9568  -29.1904   25.6079 N   0  0  0  0  0  0  0  0  0  0  0  0
  -29.2638  -24.1078   26.5564 N   0  0  0  0  0  0  0  0  0  0  0  0
  -30.2247  -15.6771   21.4400 N   0  0  0  0  0  0  0  0  0  0  0  0
  -27.9959  -20.8736   27.5564 N   0  3  0  0  0  0  0  0  0  0  0  0
  -31.4757  -19.9949   16.3726 O   0  0  0  0  0  0  0  0  0  0  0  0
  -28.8349  -22.3601   19.4659 O   0  0  0  0  0  0  0  0  0  0  0  0
  -22.0141  -13.8281   20.4305 O   0  0  0  0  0  0  0  0  0  0  0  0
  -28.2663  -29.1473   25.3131 O   0  0  0  0  0  0  0  0  0  0  0  0
  -27.3889  -25.7910   26.2189 O   0  0  0  0  0  0  0  0  0  0  0  0
  -29.1257  -22.1517   25.3189 O   0  0  0  0  0  0  0  0  0  0  0  0
  -31.9441  -14.8822   20.1483 O   0  0  0  0  0  0  0  0  0  0  0  0
  -21.5650   -7.1545   21.7670 O   0  0  0  0  0  0  0  0  0  0  0  0
  -29.1655  -25.0521   18.6281 O   0  0  0  0  0  0  0  0  0  1  0  0
  -16.1082   -7.7723   22.2630 F   0  0  0  0  0  0  0  0  0  0  0  0
  -19.8276   -5.8241   20.0775 F   0  0  0  0  0  0  0  0  0  0  0  0
  1  2  1  0  0  0  0
  1  5  2  0  0  0  0
  2  6  2  0  0  0  0
  3 10  2  0  0  0  0
  3 18  1  0  0  0  0
  4 11  1  0  0  0  0
  4 18  2  0  0  0  0
  5 20  1  0  0  0  0
  6 22  1  0  0  0  0
  7 12  2  0  0  0  0
  7 21  1  0  0  0  0
  8  9  2  0  0  0  0
  8 24  1  0  0  0  0
  9 26  1  0  0  0  0
 10 27  1  0  0  0  0
 11 27  2  0  0  0  0
 12 28  1  0  0  0  0
 13 14  2  0  0  0  0
 13 29  1  0  0  0  0
 14 30  1  0  0  0  0
 15 23  1  0  0  0  0
 15 28  2  0  0  0  0
 16 25  1  0  0  0  0
 16 26  2  0  0  0  0
 17 30  2  0  0  0  0
 17 31  1  0  0  0  0
 18 32  1  0  0  0  0
 19 32  1  0  0  0  0
 19 33  2  0  0  0  0
 19 36  1  0  0  0  0
 20 22  2  0  0  0  0
 20 41  1  0  0  0  0
 21 23  2  0  0  0  0
 21 42  1  0  0  0  0
 22 52  1  0  0  0  0
 23 43  1  0  0  0  0
 24 25  2  0  0  0  0
 24 62  1  0  0  0  0
 25 56  1  0  0  0  0
 26 69  1  0  0  0  0
 27 85  1  0  0  0  0
 28 86  1  0  0  0  0
 29 31  2  0  0  0  0
 29 85  1  0  0  0  0
 30 87  1  0  0  0  0
 31 88  1  0  0  0  0
 32 67  2  0  0  0  0
 33 68  1  0  0  0  0
 33 72  1  0  0  0  0
 34 44  1  0  0  0  0
 34 69  1  0  0  0  0
 34 78  2  0  0  0  0
 35 53  1  0  0  0  0
 35 69  1  0  0  0  0
 35 79  2  0  0  0  0
 36 73  1  0  0  0  0
 36 80  2  0  0  0  0
 37 54  1  0  0  0  0
 37 74  1  0  0  0  0
 37 81  2  0  0  0  0
 38 64  1  0  0  0  0
 38 70  1  0  0  0  0
 38 82  2  0  0  0  0
 39 65  1  0  0  0  0
 39 75  1  0  0  0  0
 39 83  2  0  0  0  0
 40 71  1  0  0  0  0
 40 76  1  0  0  0  0
 40 84  2  0  0  0  0
 41 45  1  0  0  0  0
 42 54  1  0  0  0  0
 43 70  1  0  0  0  0
 44 46  1  0  0  0  0
 45 48  1  0  0  0  0
 46 53  1  0  0  0  0
 47 49  1  0  0  0  0
 47 50  1  0  0  0  0
 48 52  1  0  0  0  0
 49 55  1  0  0  0  0
 50 71  1  0  0  0  0
 51 55  1  0  0  0  0
 51 71  1  0  0  0  0
 52 74  1  0  0  0  0
 53 63  1  0  0  0  0
 54 70  1  0  0  0  0
 55 68  1  0  0  0  0
 57 65  1  0  0  0  0
 58 66  1  0  0  0  0
 59 66  1  0  0  0  0
 60 66  1  0  0  0  0
 61 77  1  0  0  0  0
 62 76  1  0  0  0  0
 63 86  1  0  0  0  0
 64 66  1  0  0  0  0
 64 75  1  0  0  0  0
 65 77  1  0  0  0  0
 67 68  1  0  0  0  0
M  CHG  1  77   1
M  ISO  4  40 100  63 101  76 100  86 101
M  END
> <Batch ID>
0103

> <Smiles>
CNC(C)C(=O)NC(C(=O)N1Cc2cc([101O:1][101CH2:1]C3CCC(=O)N(c4ccc(C[100NH:0][100C:0](=O)N5CCCC(n6nc(-c7ccc(Oc8ccc(F)cc8F)cc7)c(C(N)=O)c6N)C5)c(C)c4)C3=O)ccc2CC1C(=O)NC1CCCc2ccccc21)C(C)(C)C

> <Shape>
0.257

> <Color>
0.179

> <Negative vol penalty>
0.000

$$$$

  -OEChem-04052301053D

 84 93  0     1  0  0  0  0  0999 V2000
  -16.6745  -30.0923   24.1678 C   0  0  0  0  0  0  0  0  0  0  0  0
  -17.8514  -30.5526   24.7494 C   0  0  0  0  0  0  0  0  0  0  0  0
  -30.1290  -20.3202   21.0221 C   0  0  0  0  0  0  0  0  0  0  0  0
  -29.6433  -19.5544   18.7828 C   0  0  0  0  0  0  0  0  0  0  0  0
  -16.7184  -29.0617   23.2298 C   0  0  0  0  0  0  0  0  0  0  0  0
  -19.0730  -29.9818   24.3941 C   0  0  0  0  0  0  0  0  0  0  0  0
  -25.9849  -31.6627   23.5476 C   0  0  0  0  0  0  0  0  0  0  0  0
  -30.6833  -19.0770   21.3270 C   0  0  0  0  0  0  0  0  0  0  0  0
  -30.1976  -18.3113   19.0876 C   0  0  0  0  0  0  0  0  0  0  0  0
  -27.2523  -31.2442   23.9504 C   0  0  0  0  0  0  0  0  0  0  0  0
  -31.9011  -15.9858   22.8051 C   0  0  0  0  0  0  0  0  0  0  0  0
  -31.5544  -15.4004   24.0228 C   0  0  0  0  0  0  0  0  0  0  0  0
  -32.8958  -30.5443   18.9959 C   0  0  0  0  0  0  0  0  0  0  0  0
  -32.3944  -29.6881   17.9733 C   0  0  0  0  0  0  0  0  0  0  0  0
  -27.2148  -29.5235   22.2601 C   0  0  0  0  0  0  0  0  0  0  0  0
  -29.2306  -15.4015   23.3615 C   0  0  0  0  0  0  0  0  0  0  0  0
  -29.6090  -20.5589   19.7500 C   0  0  0  0  0  0  0  0  0  0  0  0
  -27.9402  -22.4625   20.0650 C   0  0  0  0  0  0  0  0  0  0  0  0
  -17.9421  -28.4845   22.8557 C   0  0  0  0  0  0  0  0  0  0  0  0
  -25.3172  -31.0067   22.5034 C   0  0  0  0  0  0  0  0  0  0  0  0
  -19.1333  -28.9416   23.4512 C   0  0  0  0  0  0  0  0  0  0  0  0
  -25.9400  -29.9373   21.8442 C   0  0  0  0  0  0  0  0  0  0  0  0
  -30.7176  -18.0726   20.3598 C   0  0  0  0  0  0  0  0  0  0  0  0
  -27.8662  -30.1726   23.3086 C   0  0  0  0  0  0  0  0  0  0  0  0
  -30.9126  -16.2791   21.8656 C   0  0  0  0  0  0  0  0  0  0  0  0
  -30.2191  -15.1083   24.3010 C   0  0  0  0  0  0  0  0  0  0  0  0
  -29.5774  -15.9869   22.1438 C   0  0  0  0  0  0  0  0  0  0  0  0
  -29.0358  -21.8426   19.4346 C   0  0  0  0  0  0  0  0  0  0  0  0
  -33.4051  -29.8349   20.0612 C   0  0  0  0  0  0  0  0  0  0  0  0
  -27.7935  -23.6566   19.4025 C   0  0  0  0  0  0  0  0  0  0  0  0
  -32.5398  -28.3567   18.2960 C   0  0  0  0  0  0  0  0  0  0  0  0
  -27.1279  -22.0001   21.1522 C   0  0  0  0  0  0  0  0  0  0  0  0
  -34.0104  -30.3413   21.3031 C   0  0  0  0  0  0  0  0  0  0  0  0
  -22.6021  -29.3730   22.2536 C   0  0  0  0  0  0  0  0  0  0  0  0
  -23.3391  -29.3865   19.0946 C   0  0  0  0  0  0  0  0  0  0  0  0
  -25.7392  -29.6292   16.6806 C   0  0  0  0  0  0  0  0  0  0  0  0
  -31.5777  -27.1116   16.3287 C   0  0  0  0  0  0  0  0  0  0  0  0
  -17.9349  -27.3408   21.8725 C   0  0  0  0  0  0  0  0  0  0  0  0
  -23.9617  -31.4875   22.0631 C   0  0  0  0  0  0  0  0  0  0  0  0
  -25.2742  -29.2125   20.7042 C   0  0  0  0  0  0  0  0  0  0  0  0
  -19.3070  -27.0442   21.2730 C   0  0  0  0  0  0  0  0  0  0  0  0
  -28.5434  -25.6857   15.1299 C   0  0  0  0  0  0  0  0  0  0  0  0
  -20.3707  -27.0086   22.3658 C   0  0  0  0  0  0  0  0  0  0  0  0
  -28.2224  -24.5988   16.1585 C   0  0  0  0  0  0  0  0  0  0  0  0
  -32.4348  -31.3685   24.4756 C   0  0  0  0  0  0  0  0  0  0  0  0
  -30.0455  -25.8007   14.8764 C   0  0  0  0  0  0  0  0  0  0  0  0
  -33.6762  -31.0598   23.6529 C   0  0  0  0  0  0  0  0  0  0  0  0
  -31.7309  -30.3117   22.4517 C   0  0  0  0  0  0  0  0  0  0  0  0
  -30.5458  -24.8888   17.1096 C   0  0  0  0  0  0  0  0  0  0  0  0
  -20.4803  -28.3646   23.0734 C   0  0  1  0  0  0  0  0  0  0  0  0
  -23.1581  -30.4186   21.3288 C   0  0  1  0  0  0  0  0  0  0  0  0
  -31.4124  -30.3609   23.9450 C   0  0  2  0  0  0  0  0  0  0  0  0
  -29.0497  -24.7797   17.4463 C   0  0  2  0  0  0  0  0  0  0  0  0
  -26.0420  -29.5651   14.1903 C   0  0  0  0  0  0  0  0  0  0  0  0
  -23.0314  -26.3511   19.1378 C   0  0  0  0  0  0  0  0  0  0  0  0
  -24.2438  -26.2669   16.9489 C   0  0  0  0  0  0  0  0  0  0  0  0
  -22.0648  -27.4691   17.1203 C   0  0  0  0  0  0  0  0  0  0  0  0
  -26.7948  -32.3935   16.6213 C   0  0  0  0  0  0  0  0  0  0  0  0
  -29.9758  -30.7528   24.2408 C   0  0  0  0  0  0  0  0  0  1  0  0
  -24.1261  -28.4827   18.1766 C   0  0  1  0  0  0  0  0  0  0  0  0
  -25.8054  -30.4492   15.4048 C   0  0  2  0  0  0  0  0  0  0  0  0
  -23.3785  -27.1547   17.8686 C   0  0  0  0  0  0  0  0  0  0  0  0
  -29.5486  -22.5819   18.4474 N   0  0  0  0  0  0  0  0  0  0  0  0
  -28.7717  -23.6785   18.4524 N   0  0  0  0  0  0  0  0  0  0  0  0
  -33.1677  -30.5716   22.3797 N   0  0  0  0  0  0  0  0  0  0  0  0
  -23.9466  -29.7158   20.3146 N   0  0  0  0  0  0  0  0  0  0  0  0
  -30.7639  -25.9744   16.1408 N   0  0  0  0  0  0  0  0  0  0  0  0
  -26.9243  -24.6796   19.5458 N   0  0  0  0  0  0  0  0  0  0  0  0
  -25.9838  -21.2461   20.8578 N   0  0  0  0  0  0  0  0  0  0  0  0
  -32.1848  -27.1854   17.5819 N   0  0  0  0  0  0  0  0  0  0  0  0
  -21.2221  -29.3019   22.2575 N   0  0  0  0  0  0  0  0  0  0  0  0
  -24.4436  -29.2775   16.9951 N   0  0  0  0  0  0  0  0  0  0  0  0
  -26.9125  -31.4436   15.4851 N   0  3  0  0  0  0  0  0  0  0  0  0
  -27.3994  -22.2623   22.3485 O   0  0  0  0  0  0  0  0  0  0  0  0
  -35.2272  -30.5171   21.3075 O   0  0  0  0  0  0  0  0  0  0  0  0
  -23.3683  -28.6809   22.9135 O   0  0  0  0  0  0  0  0  0  0  0  0
  -22.2294  -29.7913   18.7392 O   0  0  0  0  0  0  0  0  0  0  0  0
  -26.7374  -29.3274   17.3310 O   0  0  0  0  0  0  0  0  0  0  0  0
  -31.7035  -27.9714   15.4530 O   0  0  0  0  0  0  0  0  0  0  0  0
  -31.2586  -16.8595   20.6569 O   0  0  0  0  0  0  0  0  0  0  0  0
  -29.1030  -29.7616   23.7002 O   0  0  0  0  0  0  0  0  0  1  0  0
  -29.8865  -14.5448   25.4697 F   0  0  0  0  0  0  0  0  0  0  0  0
  -28.6234  -16.2653   21.2448 F   0  0  0  0  0  0  0  0  0  0  0  0
  -33.2779  -28.1434   19.8264 S   0  0  0  0  0  0  0  0  0  0  0  0
  1  2  1  0  0  0  0
  1  5  2  0  0  0  0
  2  6  2  0  0  0  0
  3  8  2  0  0  0  0
  3 17  1  0  0  0  0
  4  9  1  0  0  0  0
  4 17  2  0  0  0  0
  5 19  1  0  0  0  0
  6 21  1  0  0  0  0
  7 10  2  0  0  0  0
  7 20  1  0  0  0  0
  8 23  1  0  0  0  0
  9 23  2  0  0  0  0
 10 24  1  0  0  0  0
 11 12  2  0  0  0  0
 11 25  1  0  0  0  0
 12 26  1  0  0  0  0
 13 14  1  0  0  0  0
 13 29  2  0  0  0  0
 14 31  2  0  0  0  0
 15 22  1  0  0  0  0
 15 24  2  0  0  0  0
 16 26  2  0  0  0  0
 16 27  1  0  0  0  0
 17 28  1  0  0  0  0
 18 28  1  0  0  0  0
 18 30  2  0  0  0  0
 18 32  1  0  0  0  0
 19 21  2  0  0  0  0
 19 38  1  0  0  0  0
 20 22  2  0  0  0  0
 20 39  1  0  0  0  0
 21 50  1  0  0  0  0
 22 40  1  0  0  0  0
 23 80  1  0  0  0  0
 24 81  1  0  0  0  0
 25 27  2  0  0  0  0
 25 80  1  0  0  0  0
 26 82  1  0  0  0  0
 27 83  1  0  0  0  0
 28 63  2  0  0  0  0
 29 33  1  0  0  0  0
 29 84  1  0  0  0  0
 30 64  1  0  0  0  0
 30 68  1  0  0  0  0
 31 70  1  0  0  0  0
 31 84  1  0  0  0  0
 32 69  1  0  0  0  0
 32 74  2  0  0  0  0
 33 65  1  0  0  0  0
 33 75  2  0  0  0  0
 34 51  1  0  0  0  0
 34 71  1  0  0  0  0
 34 76  2  0  0  0  0
 35 60  1  0  0  0  0
 35 66  1  0  0  0  0
 35 77  2  0  0  0  0
 36 61  1  0  0  0  0
 36 72  1  0  0  0  0
 36 78  2  0  0  0  0
 37 67  1  0  0  0  0
 37 70  1  0  0  0  0
 37 79  2  0  0  0  0
 38 41  1  0  0  0  0
 39 51  1  0  0  0  0
 40 66  1  0  0  0  0
 41 43  1  0  0  0  0
 42 44  1  0  0  0  0
 42 46  1  0  0  0  0
 43 50  1  0  0  0  0
 44 53  1  0  0  0  0
 45 47  1  0  0  0  0
 45 52  1  0  0  0  0
 46 67  1  0  0  0  0
 47 65  1  0  0  0  0
 48 52  1  0  0  0  0
 48 65  1  0  0  0  0
 49 53  1  0  0  0  0
 49 67  1  0  0  0  0
 50 71  1  0  0  0  0
 51 66  1  0  0  0  0
 52 59  1  0  0  0  0
 53 64  1  0  0  0  0
 54 61  1  0  0  0  0
 55 62  1  0  0  0  0
 56 62  1  0  0  0  0
 57 62  1  0  0  0  0
 58 73  1  0  0  0  0
 59 81  1  0  0  0  0
 60 62  1  0  0  0  0
 60 72  1  0  0  0  0
 61 73  1  0  0  0  0
 63 64  1  0  0  0  0
M  CHG  1  73   1
M  ISO  4  37 100  59 101  70 100  81 101
M  END
> <Batch ID>
0103

> <Smiles>
CNC(C)C(=O)NC(C(=O)N1Cc2cc([101O:1][101CH2:1]C3CCN(C(=O)c4ccc([100NH:0][100C:0](=O)N5CCCC(n6nc(-c7ccc(Oc8ccc(F)cc8F)cc7)c(C(N)=O)c6N)C5)s4)C3)ccc2CC1C(=O)NC1CCCc2ccccc21)C(C)(C)C

> <Shape>
0.241

> <Color>
0.098

> <Negative vol penalty>
0.000

$$$$

  -OEChem-04052301053D

 87 96  0     1  0  0  0  0  0999 V2000
  -24.2587  -36.0510   23.3222 C   0  0  0  0  0  0  0  0  0  0  0  0
  -25.5083  -35.5222   23.0153 C   0  0  0  0  0  0  0  0  0  0  0  0
  -25.0640  -15.6222   19.7707 C   0  0  0  0  0  0  0  0  0  0  0  0
  -24.2457  -14.9958   21.9559 C   0  0  0  0  0  0  0  0  0  0  0  0
  -28.0091  -20.9495   21.4954 C   0  0  0  0  0  0  0  0  0  0  0  0
  -29.5488  -22.0044   23.0295 C   0  0  0  0  0  0  0  0  0  0  0  0
  -23.3663  -35.3191   24.1045 C   0  0  0  0  0  0  0  0  0  0  0  0
  -25.8667  -34.2615   23.4914 C   0  0  0  0  0  0  0  0  0  0  0  0
  -28.2416  -27.9283   19.5828 C   0  0  0  0  0  0  0  0  0  0  0  0
  -28.7912  -21.3714   20.4203 C   0  0  0  0  0  0  0  0  0  0  0  0
  -30.3310  -22.4263   21.9544 C   0  0  0  0  0  0  0  0  0  0  0  0
  -25.6933  -14.3832   19.6511 C   0  0  0  0  0  0  0  0  0  0  0  0
  -24.8750  -13.7567   21.8363 C   0  0  0  0  0  0  0  0  0  0  0  0
  -28.5202  -26.6970   18.9892 C   0  0  0  0  0  0  0  0  0  0  0  0
  -27.8155  -11.5213   18.9232 C   0  0  0  0  0  0  0  0  0  0  0  0
  -29.1245  -11.5009   18.4418 C   0  0  0  0  0  0  0  0  0  0  0  0
  -27.5838  -25.5510   20.9017 C   0  0  0  0  0  0  0  0  0  0  0  0
  -29.8275  -12.8825   20.2949 C   0  0  0  0  0  0  0  0  0  0  0  0
  -24.3402  -15.9286   20.9231 C   0  0  0  0  0  0  0  0  0  0  0  0
  -28.3879  -21.2661   22.8001 C   0  0  0  0  0  0  0  0  0  0  0  0
  -22.6945  -17.7415   20.2072 C   0  0  0  0  0  0  0  0  0  0  0  0
  -23.7103  -34.0448   24.5824 C   0  0  0  0  0  0  0  0  0  0  0  0
  -27.6182  -27.9758   20.8328 C   0  0  0  0  0  0  0  0  0  0  0  0
  -24.9787  -33.5125   24.2819 C   0  0  0  0  0  0  0  0  0  0  0  0
  -27.2908  -26.7815   21.4956 C   0  0  0  0  0  0  0  0  0  0  0  0
  -29.9522  -22.1097   20.6498 C   0  0  0  0  0  0  0  0  0  0  0  0
  -25.5988  -13.4504   20.6839 C   0  0  0  0  0  0  0  0  0  0  0  0
  -28.1923  -25.5113   19.6471 C   0  0  0  0  0  0  0  0  0  0  0  0
  -27.5125  -12.2224   20.0904 C   0  0  0  0  0  0  0  0  0  0  0  0
  -30.1305  -12.1814   19.1277 C   0  0  0  0  0  0  0  0  0  0  0  0
  -28.5185  -12.9030   20.7763 C   0  0  0  0  0  0  0  0  0  0  0  0
  -23.6903  -17.2085   21.0474 C   0  0  0  0  0  0  0  0  0  0  0  0
  -22.4117  -18.9721   20.7477 C   0  0  0  0  0  0  0  0  0  0  0  0
  -32.1513  -22.7423   19.5577 C   0  0  0  0  0  0  0  0  0  0  0  0
  -27.5612  -20.8204   23.9363 C   0  0  0  0  0  0  0  0  0  0  0  0
  -22.0799  -17.1748   19.0424 C   0  0  0  0  0  0  0  0  0  0  0  0
  -26.2374  -30.1072   23.5944 C   0  0  0  0  0  0  0  0  0  0  0  0
  -24.2969  -27.7601   23.2251 C   0  0  0  0  0  0  0  0  0  0  0  0
  -21.5719  -25.7130   23.0808 C   0  0  0  0  0  0  0  0  0  0  0  0
  -26.1834  -18.9480   24.7157 C   0  0  0  0  0  0  0  0  0  0  0  0
  -22.7307  -33.3112   25.4639 C   0  0  0  0  0  0  0  0  0  0  0  0
  -27.3549  -29.2789   21.5373 C   0  0  0  0  0  0  0  0  0  0  0  0
  -26.6527  -26.8807   22.8543 C   0  0  0  0  0  0  0  0  0  0  0  0
  -32.5617  -23.1770   18.1706 C   0  0  0  0  0  0  0  0  0  0  0  0
  -23.0434  -31.8249   25.6167 C   0  0  0  0  0  0  0  0  0  0  0  0
  -31.3952  -22.7410   17.3043 C   0  0  0  0  0  0  0  0  0  0  0  0
  -22.6569  -19.3353   25.0783 C   0  0  0  0  0  0  0  0  0  0  0  0
  -24.5258  -31.6188   25.9112 C   0  0  0  0  0  0  0  0  0  0  0  0
  -22.2382  -20.2037   23.8953 C   0  0  0  0  0  0  0  0  0  0  0  0
  -24.0189  -19.7582   25.6107 C   0  0  0  0  0  0  0  0  0  0  0  0
  -24.7181  -20.5453   23.3626 C   0  0  0  0  0  0  0  0  0  0  0  0
  -25.3946  -32.1379   24.7591 C   0  0  1  0  0  0  0  0  0  0  0  0
  -26.0572  -29.2661   22.3649 C   0  0  1  0  0  0  0  0  0  0  0  0
  -23.3081  -20.2791   22.7926 C   0  0  1  0  0  0  0  0  0  0  0  0
  -30.1921  -22.8535   18.2340 C   0  0  2  0  0  0  0  0  0  0  0  0
  -19.6873  -24.8401   24.4892 C   0  0  0  0  0  0  0  0  0  0  0  0
  -26.2297  -25.8637   24.6295 C   0  0  0  0  0  0  0  0  0  0  0  0
  -24.2670  -24.4414   25.2564 C   0  0  0  0  0  0  0  0  0  0  0  0
  -24.4239  -26.7860   26.0934 C   0  0  0  0  0  0  0  0  0  0  0  0
  -28.4882  -18.5070   24.0361 C   0  0  0  0  0  0  0  0  0  0  0  0
  -19.5333  -26.9157   21.3042 C   0  0  0  0  0  0  0  0  0  0  0  0
  -29.5888  -24.2590   18.1845 C   0  0  0  0  0  0  0  0  0  1  0  0
  -23.8931  -26.3729   23.6562 C   0  0  1  0  0  0  0  0  0  0  0  0
  -20.1321  -25.9200   23.5152 C   0  0  2  0  0  0  0  0  0  0  0  0
  -24.7087  -25.8722   24.8816 C   0  0  0  0  0  0  0  0  0  0  0  0
  -24.0183  -18.0331   22.0457 N   0  0  0  0  0  0  0  0  0  0  0  0
  -23.2240  -19.0968   21.8361 N   0  0  0  0  0  0  0  0  0  0  0  0
  -30.7545  -22.5422   19.5452 N   0  0  0  0  0  0  0  0  0  0  0  0
  -25.6348  -27.9430   22.8549 N   0  0  0  0  0  0  0  0  0  0  0  0
  -25.0323  -19.7452   24.5568 N   0  0  0  0  0  0  0  0  0  0  0  0
  -21.5500  -19.9490   20.3932 N   0  0  0  0  0  0  0  0  0  0  0  0
  -20.9234  -16.4002   19.2070 N   0  0  0  0  0  0  0  0  0  0  0  0
  -25.3905  -31.1971   23.6594 N   0  0  0  0  0  0  0  0  0  0  0  0
  -22.4515  -26.4171   23.8757 N   0  0  0  0  0  0  0  0  0  0  0  0
  -27.3602  -19.4365   24.1117 N   0  0  0  0  0  0  0  0  0  0  0  0
  -19.2250  -25.8895   22.3332 N   0  3  0  0  0  0  0  0  0  0  0  0
  -32.9563  -22.6406   20.4723 O   0  0  0  0  0  0  0  0  0  0  0  0
  -27.1107  -21.7005   24.6691 O   0  0  0  0  0  0  0  0  0  0  0  0
  -22.5518  -17.3365   17.8915 O   0  0  0  0  0  0  0  0  0  0  0  0
  -27.0813  -29.7907   24.4246 O   0  0  0  0  0  0  0  0  0  0  0  0
  -23.4525  -28.6603   23.2211 O   0  0  0  0  0  0  0  0  0  0  0  0
  -21.8853  -24.9953   22.1336 O   0  0  0  0  0  0  0  0  0  0  0  0
  -26.1812  -17.8951   25.3636 O   0  0  0  0  0  0  0  0  0  0  0  0
  -26.2126  -12.2412   20.5675 O   0  0  0  0  0  0  0  0  0  0  0  0
  -28.4631  -24.3127   19.0599 O   0  0  0  0  0  0  0  0  0  1  0  0
  -31.3878  -12.1604   18.6661 F   0  0  0  0  0  0  0  0  0  0  0  0
  -28.2338  -13.5772   21.8988 F   0  0  0  0  0  0  0  0  0  0  0  0
  1  2  1  0  0  0  0
  1  7  2  0  0  0  0
  2  8  2  0  0  0  0
  3 12  2  0  0  0  0
  3 19  1  0  0  0  0
  4 13  1  0  0  0  0
  4 19  2  0  0  0  0
  5 10  2  0  0  0  0
  5 20  1  0  0  0  0
  6 11  1  0  0  0  0
  6 20  2  0  0  0  0
  7 22  1  0  0  0  0
  8 24  1  0  0  0  0
  9 14  2  0  0  0  0
  9 23  1  0  0  0  0
 10 26  1  0  0  0  0
 11 26  2  0  0  0  0
 12 27  1  0  0  0  0
 13 27  2  0  0  0  0
 14 28  1  0  0  0  0
 15 16  2  0  0  0  0
 15 29  1  0  0  0  0
 16 30  1  0  0  0  0
 17 25  1  0  0  0  0
 17 28  2  0  0  0  0
 18 30  2  0  0  0  0
 18 31  1  0  0  0  0
 19 32  1  0  0  0  0
 20 35  1  0  0  0  0
 21 32  1  0  0  0  0
 21 33  2  0  0  0  0
 21 36  1  0  0  0  0
 22 24  2  0  0  0  0
 22 41  1  0  0  0  0
 23 25  2  0  0  0  0
 23 42  1  0  0  0  0
 24 52  1  0  0  0  0
 25 43  1  0  0  0  0
 26 68  1  0  0  0  0
 27 84  1  0  0  0  0
 28 85  1  0  0  0  0
 29 31  2  0  0  0  0
 29 84  1  0  0  0  0
 30 86  1  0  0  0  0
 31 87  1  0  0  0  0
 32 66  2  0  0  0  0
 33 67  1  0  0  0  0
 33 71  1  0  0  0  0
 34 44  1  0  0  0  0
 34 68  1  0  0  0  0
 34 77  2  0  0  0  0
 35 75  1  0  0  0  0
 35 78  2  0  0  0  0
 36 72  1  0  0  0  0
 36 79  2  0  0  0  0
 37 53  1  0  0  0  0
 37 73  1  0  0  0  0
 37 80  2  0  0  0  0
 38 63  1  0  0  0  0
 38 69  1  0  0  0  0
 38 81  2  0  0  0  0
 39 64  1  0  0  0  0
 39 74  1  0  0  0  0
 39 82  2  0  0  0  0
 40 70  1  0  0  0  0
 40 75  1  0  0  0  0
 40 83  2  0  0  0  0
 41 45  1  0  0  0  0
 42 53  1  0  0  0  0
 43 69  1  0  0  0  0
 44 46  1  0  0  0  0
 45 48  1  0  0  0  0
 46 55  1  0  0  0  0
 47 49  1  0  0  0  0
 47 50  1  0  0  0  0
 48 52  1  0  0  0  0
 49 54  1  0  0  0  0
 50 70  1  0  0  0  0
 51 54  1  0  0  0  0
 51 70  1  0  0  0  0
 52 73  1  0  0  0  0
 53 69  1  0  0  0  0
 54 67  1  0  0  0  0
 55 62  1  0  0  0  0
 55 68  1  0  0  0  0
 56 64  1  0  0  0  0
 57 65  1  0  0  0  0
 58 65  1  0  0  0  0
 59 65  1  0  0  0  0
 60 75  1  0  0  0  0
 61 76  1  0  0  0  0
 62 85  1  0  0  0  0
 63 65  1  0  0  0  0
 63 74  1  0  0  0  0
 64 76  1  0  0  0  0
 66 67  1  0  0  0  0
M  CHG  1  76   1
M  ISO  4  40 100  62 101  75 100  85 101
M  END
> <Batch ID>
0103

> <Smiles>
CNC(C)C(=O)NC(C(=O)N1Cc2cc([101O:1][101CH2:1]C3CCC(=O)N3c3ccc(C(=O)[100N:0](C)[100C:0](=O)N4CCCC(n5nc(-c6ccc(Oc7ccc(F)cc7F)cc6)c(C(N)=O)c5N)C4)cc3)ccc2CC1C(=O)NC1CCCc2ccccc21)C(C)(C)C

> <Shape>
0.240

> <Color>
0.047

> <Negative vol penalty>
0.000

$$$$

  -OEChem-04052301053D

 91100  0     1  0  0  0  0  0999 V2000
  -32.4151  -27.6472   20.5983 C   0  0  0  0  0  0  0  0  0  0  0  0
  -31.2094  -27.1990   20.0684 C   0  0  0  0  0  0  0  0  0  0  0  0
  -26.3752  -11.4581   20.7929 C   0  0  0  0  0  0  0  0  0  0  0  0
  -27.9180  -11.7867   22.6229 C   0  0  0  0  0  0  0  0  0  0  0  0
  -32.4341  -28.2998   21.8303 C   0  0  0  0  0  0  0  0  0  0  0  0
  -30.0221  -27.4022   20.7707 C   0  0  0  0  0  0  0  0  0  0  0  0
  -24.4365  -28.5980   18.3692 C   0  0  0  0  0  0  0  0  0  0  0  0
  -25.5837  -10.6468   21.6058 C   0  0  0  0  0  0  0  0  0  0  0  0
  -27.1264  -10.9754   23.4358 C   0  0  0  0  0  0  0  0  0  0  0  0
  -23.3203  -27.8065   18.1020 C   0  0  0  0  0  0  0  0  0  0  0  0
  -25.6207   -7.4616   22.7360 C   0  0  0  0  0  0  0  0  0  0  0  0
  -25.1505   -6.2651   22.1947 C   0  0  0  0  0  0  0  0  0  0  0  0
  -25.0479  -21.8590   17.1602 C   0  0  0  0  0  0  0  0  0  0  0  0
  -27.0315  -21.4253   18.4695 C   0  0  0  0  0  0  0  0  0  0  0  0
  -22.3874  -28.4098   20.2430 C   0  0  0  0  0  0  0  0  0  0  0  0
  -25.5368  -19.6132   17.9047 C   0  0  0  0  0  0  0  0  0  0  0  0
  -22.8760   -6.9982   22.5504 C   0  0  0  0  0  0  0  0  0  0  0  0
  -27.5424  -12.0280   21.3014 C   0  0  0  0  0  0  0  0  0  0  0  0
  -26.2073  -22.3185   17.7850 C   0  0  0  0  0  0  0  0  0  0  0  0
  -28.9906  -12.5042   19.2560 C   0  0  0  0  0  0  0  0  0  0  0  0
  -31.2452  -28.5196   22.5435 C   0  0  0  0  0  0  0  0  0  0  0  0
  -24.5420  -29.2945   19.5818 C   0  0  0  0  0  0  0  0  0  0  0  0
  -30.0253  -28.0571   22.0140 C   0  0  0  0  0  0  0  0  0  0  0  0
  -23.5037  -29.2132   20.5211 C   0  0  0  0  0  0  0  0  0  0  0  0
  -24.7126  -20.5063   17.2201 C   0  0  0  0  0  0  0  0  0  0  0  0
  -26.6963  -20.0726   18.5294 C   0  0  0  0  0  0  0  0  0  0  0  0
  -25.9593  -10.4055   22.9272 C   0  0  0  0  0  0  0  0  0  0  0  0
  -22.2966  -27.7106   19.0398 C   0  0  0  0  0  0  0  0  0  0  0  0
  -24.7186   -8.4264   23.1845 C   0  0  0  0  0  0  0  0  0  0  0  0
  -23.7781   -6.0334   22.1019 C   0  0  0  0  0  0  0  0  0  0  0  0
  -23.3462   -8.1947   23.0916 C   0  0  0  0  0  0  0  0  0  0  0  0
  -28.3608  -12.8657   20.4620 C   0  0  0  0  0  0  0  0  0  0  0  0
  -29.6409  -13.6448   18.8529 C   0  0  0  0  0  0  0  0  0  0  0  0
  -26.5568  -23.7289   17.7225 C   0  0  0  0  0  0  0  0  0  0  0  0
  -28.9879  -11.2495   18.5621 C   0  0  0  0  0  0  0  0  0  0  0  0
  -26.5558  -29.3268   22.0697 C   0  0  0  0  0  0  0  0  0  0  0  0
  -20.6751  -21.4783   18.7905 C   0  0  0  0  0  0  0  0  0  0  0  0
  -24.6050  -31.8714   22.9490 C   0  0  0  0  0  0  0  0  0  0  0  0
  -26.9021  -32.7497   25.3136 C   0  0  0  0  0  0  0  0  0  0  0  0
  -28.7191  -19.4554   19.8981 C   0  0  0  0  0  0  0  0  0  0  0  0
  -31.3215  -29.1878   23.8935 C   0  0  0  0  0  0  0  0  0  0  0  0
  -25.7409  -30.1672   19.8378 C   0  0  0  0  0  0  0  0  0  0  0  0
  -23.5676  -29.9439   21.8350 C   0  0  0  0  0  0  0  0  0  0  0  0
  -29.9735  -29.6958   24.3987 C   0  0  0  0  0  0  0  0  0  0  0  0
  -31.6810  -17.6089   20.6017 C   0  0  0  0  0  0  0  0  0  0  0  0
  -28.8985  -28.6291   24.2160 C   0  0  0  0  0  0  0  0  0  0  0  0
  -31.2243  -16.1500   20.5299 C   0  0  0  0  0  0  0  0  0  0  0  0
  -19.1799  -24.3154   20.5972 C   0  0  0  0  0  0  0  0  0  0  0  0
  -30.6071  -18.5102   21.2085 C   0  0  0  0  0  0  0  0  0  0  0  0
  -19.0883  -22.8867   20.0834 C   0  0  0  0  0  0  0  0  0  0  0  0
  -20.9122  -24.0009   18.9794 C   0  0  0  0  0  0  0  0  0  0  0  0
  -28.8298  -16.9576   20.5016 C   0  0  0  0  0  0  0  0  0  0  0  0
  -28.7133  -28.2807   22.7342 C   0  0  1  0  0  0  0  0  0  0  0  0
  -25.9615  -30.4827   21.3158 C   0  0  1  0  0  0  0  0  0  0  0  0
  -19.9048  -25.0428   19.4623 C   0  0  2  0  0  0  0  0  0  0  0  0
  -29.8533  -16.0221   19.8376 C   0  0  2  0  0  0  0  0  0  0  0  0
  -27.3253  -24.3046   18.8763 C   0  0  0  0  0  0  0  0  0  0  0  0
  -27.4544  -34.5799   26.9393 C   0  0  0  0  0  0  0  0  0  0  0  0
  -25.6189  -33.6022   20.6508 C   0  0  0  0  0  0  0  0  0  0  0  0
  -26.9665  -34.8990   22.3153 C   0  0  0  0  0  0  0  0  0  0  0  0
  -24.4779  -34.8648   22.4834 C   0  0  0  0  0  0  0  0  0  0  0  0
  -26.6766  -30.9198   27.6287 C   0  0  0  0  0  0  0  0  0  0  0  0
  -23.4587  -20.0092   16.5447 C   0  0  0  0  0  0  0  0  0  0  0  0
  -21.9085  -21.4771   17.9233 C   0  0  0  0  0  0  0  0  0  0  0  0
  -20.5502  -26.3451   19.9010 C   0  0  0  0  0  0  0  0  0  1  0  0
  -22.2538  -20.0608   17.4920 C   0  0  0  0  0  0  0  0  0  0  0  0
  -25.7901  -32.7925   23.0964 C   0  0  1  0  0  0  0  0  0  0  0  0
  -26.7411  -33.2521   26.7370 C   0  0  2  0  0  0  0  0  0  0  0  0
  -25.7166  -34.0115   22.1340 C   0  0  0  0  0  0  0  0  0  0  0  0
  -28.5905  -14.1366   20.8028 N   0  0  0  0  0  0  0  0  0  0  0  0
  -29.3719  -14.5836   19.8050 N   0  0  0  0  0  0  0  0  0  0  0  0
  -24.7145  -30.8462   22.0007 N   0  0  0  0  0  0  0  0  0  0  0  0
  -20.2652  -22.7193   19.2439 N   0  0  0  0  0  0  0  0  0  0  0  0
  -29.3373  -18.3386   20.4993 N   0  0  0  0  0  0  0  0  0  0  0  0
  -30.4111  -13.9263   17.7804 N   0  0  0  0  0  0  0  0  0  0  0  0
  -28.2685  -10.1815   19.1155 N   0  0  0  0  0  0  0  0  0  0  0  0
  -27.5333  -19.1648   19.2243 N   0  0  0  0  0  0  0  0  0  0  0  0
  -27.9374  -29.3044   22.0675 N   0  0  0  0  0  0  0  0  0  0  0  0
  -25.8561  -33.1499   24.5093 N   0  0  0  0  0  0  0  0  0  0  0  0
  -27.3032  -32.2648   27.7015 N   0  3  0  0  0  0  0  0  0  0  0  0
  -26.2656  -24.4885   16.7962 O   0  0  0  0  0  0  0  0  0  0  0  0
  -29.6186  -11.0758   17.4918 O   0  0  0  0  0  0  0  0  0  0  0  0
  -25.8156  -28.5161   22.6143 O   0  0  0  0  0  0  0  0  0  0  0  0
  -20.0943  -20.4231   19.0501 O   0  0  0  0  0  0  0  0  0  0  0  0
  -23.6056  -32.0580   23.6486 O   0  0  0  0  0  0  0  0  0  0  0  0
  -27.8619  -32.0733   24.9506 O   0  0  0  0  0  0  0  0  0  0  0  0
  -29.2199  -20.5816   19.9522 O   0  0  0  0  0  0  0  0  0  0  0  0
  -25.1870   -9.6140   23.7209 O   0  0  0  0  0  0  0  0  0  0  0  0
  -21.2057  -26.9392   18.7813 O   0  0  0  0  0  0  0  0  0  1  0  0
  -23.3267   -4.8851   21.5807 F   0  0  0  0  0  0  0  0  0  0  0  0
  -22.4747   -9.1182   23.5198 F   0  0  0  0  0  0  0  0  0  0  0  0
  1  2  1  0  0  0  0
  1  5  2  0  0  0  0
  2  6  2  0  0  0  0
  3  8  2  0  0  0  0
  3 18  1  0  0  0  0
  4  9  1  0  0  0  0
  4 18  2  0  0  0  0
  5 21  1  0  0  0  0
  6 23  1  0  0  0  0
  7 10  2  0  0  0  0
  7 22  1  0  0  0  0
  8 27  1  0  0  0  0
  9 27  2  0  0  0  0
 10 28  1  0  0  0  0
 11 12  2  0  0  0  0
 11 29  1  0  0  0  0
 12 30  1  0  0  0  0
 13 19  1  0  0  0  0
 13 25  2  0  0  0  0
 14 19  2  0  0  0  0
 14 26  1  0  0  0  0
 15 24  1  0  0  0  0
 15 28  2  0  0  0  0
 16 25  1  0  0  0  0
 16 26  2  0  0  0  0
 17 30  2  0  0  0  0
 17 31  1  0  0  0  0
 18 32  1  0  0  0  0
 19 34  1  0  0  0  0
 20 32  1  0  0  0  0
 20 33  2  0  0  0  0
 20 35  1  0  0  0  0
 21 23  2  0  0  0  0
 21 41  1  0  0  0  0
 22 24  2  0  0  0  0
 22 42  1  0  0  0  0
 23 53  1  0  0  0  0
 24 43  1  0  0  0  0
 25 63  1  0  0  0  0
 26 77  1  0  0  0  0
 27 88  1  0  0  0  0
 28 89  1  0  0  0  0
 29 31  2  0  0  0  0
 29 88  1  0  0  0  0
 30 90  1  0  0  0  0
 31 91  1  0  0  0  0
 32 70  2  0  0  0  0
 33 71  1  0  0  0  0
 33 75  1  0  0  0  0
 34 57  1  0  0  0  0
 34 81  2  0  0  0  0
 35 76  1  0  0  0  0
 35 82  2  0  0  0  0
 36 54  1  0  0  0  0
 36 78  1  0  0  0  0
 36 83  2  0  0  0  0
 37 64  1  0  0  0  0
 37 73  1  0  0  0  0
 37 84  2  0  0  0  0
 38 67  1  0  0  0  0
 38 72  1  0  0  0  0
 38 85  2  0  0  0  0
 39 68  1  0  0  0  0
 39 79  1  0  0  0  0
 39 86  2  0  0  0  0
 40 74  1  0  0  0  0
 40 77  1  0  0  0  0
 40 87  2  0  0  0  0
 41 44  1  0  0  0  0
 42 54  1  0  0  0  0
 43 72  1  0  0  0  0
 44 46  1  0  0  0  0
 45 47  1  0  0  0  0
 45 49  1  0  0  0  0
 46 53  1  0  0  0  0
 47 56  1  0  0  0  0
 48 50  1  0  0  0  0
 48 55  1  0  0  0  0
 49 74  1  0  0  0  0
 50 73  1  0  0  0  0
 51 55  1  0  0  0  0
 51 73  1  0  0  0  0
 52 56  1  0  0  0  0
 52 74  1  0  0  0  0
 53 78  1  0  0  0  0
 54 72  1  0  0  0  0
 55 65  1  0  0  0  0
 56 71  1  0  0  0  0
 58 68  1  0  0  0  0
 59 69  1  0  0  0  0
 60 69  1  0  0  0  0
 61 69  1  0  0  0  0
 62 80  1  0  0  0  0
 63 66  1  0  0  0  0
 64 66  1  0  0  0  0
 65 89  1  0  0  0  0
 67 69  1  0  0  0  0
 67 79  1  0  0  0  0
 68 80  1  0  0  0  0
 70 71  1  0  0  0  0
M  CHG  1  80   1
M  ISO  4  40 100  65 101  77 100  89 101
M  END
> <Batch ID>
0103

> <Smiles>
CNC(C)C(=O)NC(C(=O)N1Cc2cc([101O:1][101CH2:1]C3CCN(C(=O)CCCc4cc([100NH:0][100C:0](=O)N5CCCC(n6nc(-c7ccc(Oc8ccc(F)cc8F)cc7)c(C(N)=O)c6N)C5)cc(C(C)=O)c4)C3)ccc2CC1C(=O)NC1CCCc2ccccc21)C(C)(C)C

> <Shape>
0.259

> <Color>
0.073

> <Negative vol penalty>
0.000

$$$$

  -OEChem-04052301053D

 85 94  0     1  0  0  0  0  0999 V2000
  -25.6641  -35.2276   21.7995 C   0  0  0  0  0  0  0  0  0  0  0  0
  -26.2675  -33.9744   21.7692 C   0  0  0  0  0  0  0  0  0  0  0  0
  -22.1976  -10.6745   22.6553 C   0  0  0  0  0  0  0  0  0  0  0  0
  -23.5091  -10.5411   20.6306 C   0  0  0  0  0  0  0  0  0  0  0  0
  -24.3894  -35.3732   22.3451 C   0  0  0  0  0  0  0  0  0  0  0  0
  -25.5968  -32.8663   22.2855 C   0  0  0  0  0  0  0  0  0  0  0  0
  -25.9146  -28.8190   19.2583 C   0  0  0  0  0  0  0  0  0  0  0  0
  -26.9780  -21.2707   17.4563 C   0  0  0  0  0  0  0  0  0  0  0  0
  -25.9413  -20.5755   18.0788 C   0  0  0  0  0  0  0  0  0  0  0  0
  -21.7894   -9.3526   22.4780 C   0  0  0  0  0  0  0  0  0  0  0  0
  -23.1010   -9.2191   20.4534 C   0  0  0  0  0  0  0  0  0  0  0  0
  -27.1080  -28.0986   19.2817 C   0  0  0  0  0  0  0  0  0  0  0  0
  -20.6892   -5.8987   22.7522 C   0  0  0  0  0  0  0  0  0  0  0  0
  -20.7114   -5.0583   23.8652 C   0  0  0  0  0  0  0  0  0  0  0  0
  -26.0882  -26.4682   20.7381 C   0  0  0  0  0  0  0  0  0  0  0  0
  -28.5928  -20.0043   18.7314 C   0  0  0  0  0  0  0  0  0  0  0  0
  -23.0893   -5.4210   24.0916 C   0  0  0  0  0  0  0  0  0  0  0  0
  -23.0574  -11.2688   21.7315 C   0  0  0  0  0  0  0  0  0  0  0  0
  -24.6110  -13.0882   22.6169 C   0  0  0  0  0  0  0  0  0  0  0  0
  -23.6988  -34.2646   22.8596 C   0  0  0  0  0  0  0  0  0  0  0  0
  -24.8005  -28.3745   19.9847 C   0  0  0  0  0  0  0  0  0  0  0  0
  -24.3121  -32.9974   22.8397 C   0  0  0  0  0  0  0  0  0  0  0  0
  -24.8811  -27.1834   20.7202 C   0  0  0  0  0  0  0  0  0  0  0  0
  -28.3038  -20.9851   17.7826 C   0  0  0  0  0  0  0  0  0  0  0  0
  -26.2303  -19.5947   19.0276 C   0  0  0  0  0  0  0  0  0  0  0  0
  -22.2411   -8.6248   21.3771 C   0  0  0  0  0  0  0  0  0  0  0  0
  -27.1959  -26.9245   20.0240 C   0  0  0  0  0  0  0  0  0  0  0  0
  -21.8671   -6.5001   22.3087 C   0  0  0  0  0  0  0  0  0  0  0  0
  -21.9114   -4.8195   24.5350 C   0  0  0  0  0  0  0  0  0  0  0  0
  -27.5561  -19.3091   19.3539 C   0  0  0  0  0  0  0  0  0  0  0  0
  -23.0671   -6.2613   22.9785 C   0  0  0  0  0  0  0  0  0  0  0  0
  -23.4789  -12.6345   21.9138 C   0  0  0  0  0  0  0  0  0  0  0  0
  -24.5651  -14.4556   22.4961 C   0  0  0  0  0  0  0  0  0  0  0  0
  -25.6144  -12.3404   23.3167 C   0  0  0  0  0  0  0  0  0  0  0  0
  -23.0679  -29.5492   22.3767 C   0  0  0  0  0  0  0  0  0  0  0  0
  -21.2197  -26.9465   21.8003 C   0  0  0  0  0  0  0  0  0  0  0  0
  -20.9828  -23.7819   20.5448 C   0  0  0  0  0  0  0  0  0  0  0  0
  -23.8062  -19.0534   19.4485 C   0  0  0  0  0  0  0  0  0  0  0  0
  -22.3420  -34.4795   23.4822 C   0  0  0  0  0  0  0  0  0  0  0  0
  -23.5123  -29.1488   19.9276 C   0  0  0  0  0  0  0  0  0  0  0  0
  -23.7075  -26.6526   21.5009 C   0  0  0  0  0  0  0  0  0  0  0  0
  -21.5461  -33.1903   23.6682 C   0  0  0  0  0  0  0  0  0  0  0  0
  -20.8962  -17.4890   20.7758 C   0  0  0  0  0  0  0  0  0  0  0  0
  -22.4239  -32.1050   24.2833 C   0  0  0  0  0  0  0  0  0  0  0  0
  -21.4018  -16.1239   21.2480 C   0  0  0  0  0  0  0  0  0  0  0  0
  -30.8833  -24.9717   17.5431 C   0  0  0  0  0  0  0  0  0  0  0  0
  -21.5872  -17.9355   19.4886 C   0  0  0  0  0  0  0  0  0  0  0  0
  -23.5606  -16.5546   20.0065 C   0  0  0  0  0  0  0  0  0  0  0  0
  -31.2158  -23.4988   17.3696 C   0  0  0  0  0  0  0  0  0  0  0  0
  -29.0847  -23.7911   18.5302 C   0  0  0  0  0  0  0  0  0  0  0  0
  -23.6065  -31.7671   23.3675 C   0  0  1  0  0  0  0  0  0  0  0  0
  -22.5981  -28.8763   21.1181 C   0  0  1  0  0  0  0  0  0  0  0  0
  -29.9709  -25.0030   18.7613 C   0  0  2  0  0  0  0  0  0  0  0  0
  -22.9403  -16.0921   21.3350 C   0  0  2  0  0  0  0  0  0  0  0  0
  -19.3535  -21.8960   20.2510 C   0  0  0  0  0  0  0  0  0  0  0  0
  -21.4945  -26.2514   24.7585 C   0  0  0  0  0  0  0  0  0  0  0  0
  -20.6896  -23.9428   24.2193 C   0  0  0  0  0  0  0  0  0  0  0  0
  -19.2047  -25.9059   23.8141 C   0  0  0  0  0  0  0  0  0  0  0  0
  -21.2284  -23.8751   17.5969 C   0  0  0  0  0  0  0  0  0  0  0  0
  -29.4191  -21.7335   17.1141 C   0  0  0  0  0  0  0  0  0  0  0  0
  -29.1880  -26.2921   18.8893 C   0  0  0  0  0  0  0  0  0  1  0  0
  -21.1930  -25.5223   22.3002 C   0  0  1  0  0  0  0  0  0  0  0  0
  -19.9643  -23.1382   19.6213 C   0  0  2  0  0  0  0  0  0  0  0  0
  -20.6683  -25.4164   23.7600 C   0  0  0  0  0  0  0  0  0  0  0  0
  -22.7658  -13.6328   21.3855 N   0  0  0  0  0  0  0  0  0  0  0  0
  -23.4515  -14.7273   21.7570 N   0  0  0  0  0  0  0  0  0  0  0  0
  -22.4719  -27.4487   21.4187 N   0  0  0  0  0  0  0  0  0  0  0  0
  -23.0423  -17.8838   19.6469 N   0  0  0  0  0  0  0  0  0  0  0  0
  -25.3689  -15.4400   22.9511 N   0  0  0  0  0  0  0  0  0  0  0  0
  -25.5100  -10.9430   23.3421 N   0  0  0  0  0  0  0  0  0  0  0  0
  -25.1751  -18.8904   19.6587 N   0  0  0  0  0  0  0  0  0  0  0  0
  -23.1741  -30.9231   22.2743 N   0  0  0  0  0  0  0  0  0  0  0  0
  -20.4133  -24.7631   21.3285 N   0  0  0  0  0  0  0  0  0  0  0  0
  -30.0535  -22.7553   18.0017 N   0  3  1  0  0  0  0  0  0  0  0  0
  -20.6066  -22.7457   18.3351 N   0  3  0  0  0  0  0  0  0  0  0  0
  -26.5661  -12.8959   23.9161 O   0  0  0  0  0  0  0  0  0  0  0  0
  -23.3144  -28.8721   23.3680 O   0  0  0  0  0  0  0  0  0  0  0  0
  -20.1672  -27.5873   21.7435 O   0  0  0  0  0  0  0  0  0  0  0  0
  -22.1645  -23.4452   20.5712 O   0  0  0  0  0  0  0  0  0  0  0  0
  -23.2814  -20.1273   19.1431 O   0  0  0  0  0  0  0  0  0  0  0  0
  -21.8433   -7.3348   21.2040 O   0  0  0  0  0  0  0  0  0  0  0  0
  -28.3597  -26.2197   20.0490 O   0  0  0  0  0  0  0  0  0  1  0  0
  -21.9322   -4.0137   25.6048 F   0  0  0  0  0  0  0  0  0  0  0  0
  -27.8454  -18.3696   20.2655 F   0  0  0  0  0  0  0  0  0  0  0  0
  -24.2017   -6.8372   22.5579 F   0  0  0  0  0  0  0  0  0  0  0  0
  1  2  1  0  0  0  0
  1  5  2  0  0  0  0
  2  6  2  0  0  0  0
  3 10  2  0  0  0  0
  3 18  1  0  0  0  0
  4 11  1  0  0  0  0
  4 18  2  0  0  0  0
  5 20  1  0  0  0  0
  6 22  1  0  0  0  0
  7 12  2  0  0  0  0
  7 21  1  0  0  0  0
  8  9  2  0  0  0  0
  8 24  1  0  0  0  0
  9 25  1  0  0  0  0
 10 26  1  0  0  0  0
 11 26  2  0  0  0  0
 12 27  1  0  0  0  0
 13 14  2  0  0  0  0
 13 28  1  0  0  0  0
 14 29  1  0  0  0  0
 15 23  1  0  0  0  0
 15 27  2  0  0  0  0
 16 24  2  0  0  0  0
 16 30  1  0  0  0  0
 17 29  2  0  0  0  0
 17 31  1  0  0  0  0
 18 32  1  0  0  0  0
 19 32  1  0  0  0  0
 19 33  2  0  0  0  0
 19 34  1  0  0  0  0
 20 22  2  0  0  0  0
 20 39  1  0  0  0  0
 21 23  2  0  0  0  0
 21 40  1  0  0  0  0
 22 51  1  0  0  0  0
 23 41  1  0  0  0  0
 24 60  1  0  0  0  0
 25 30  2  0  0  0  0
 25 71  1  0  0  0  0
 26 81  1  0  0  0  0
 27 82  1  0  0  0  0
 28 31  2  0  0  0  0
 28 81  1  0  0  0  0
 29 83  1  0  0  0  0
 30 84  1  0  0  0  0
 31 85  1  0  0  0  0
 32 65  2  0  0  0  0
 33 66  1  0  0  0  0
 33 69  1  0  0  0  0
 34 70  1  0  0  0  0
 34 76  2  0  0  0  0
 35 52  1  0  0  0  0
 35 72  1  0  0  0  0
 35 77  2  0  0  0  0
 36 62  1  0  0  0  0
 36 67  1  0  0  0  0
 36 78  2  0  0  0  0
 37 63  1  0  0  0  0
 37 73  1  0  0  0  0
 37 79  2  0  0  0  0
 38 68  1  0  0  0  0
 38 71  1  0  0  0  0
 38 80  2  0  0  0  0
 39 42  1  0  0  0  0
 40 52  1  0  0  0  0
 41 67  1  0  0  0  0
 42 44  1  0  0  0  0
 43 45  1  0  0  0  0
 43 47  1  0  0  0  0
 44 51  1  0  0  0  0
 45 54  1  0  0  0  0
 46 49  1  0  0  0  0
 46 53  1  0  0  0  0
 47 68  1  0  0  0  0
 48 54  1  0  0  0  0
 48 68  1  0  0  0  0
 49 74  1  0  0  0  0
 50 53  1  0  0  0  0
 50 74  1  0  0  0  0
 51 72  1  0  0  0  0
 52 67  1  0  0  0  0
 53 61  1  0  0  0  0
 54 66  1  0  0  0  0
 55 63  1  0  0  0  0
 56 64  1  0  0  0  0
 57 64  1  0  0  0  0
 58 64  1  0  0  0  0
 59 75  1  0  0  0  0
 60 74  1  0  0  0  0
 61 82  1  0  0  0  0
 62 64  1  0  0  0  0
 62 73  1  0  0  0  0
 63 75  1  0  0  0  0
 65 66  1  0  0  0  0
M  CHG  2  74   1  75   1
M  ISO  4  38 100  61 101  71 100  82 101
M  END
> <Batch ID>
0103

> <Smiles>
CNC(C)C(=O)NC(C(=O)N1Cc2cc([101O:1][101CH2:1]C3CCN(Cc4ccc([100NH:0][100C:0](=O)N5CCCC(n6nc(-c7ccc(Oc8ccc(F)cc8F)cc7)c(C(N)=O)c6N)C5)c(F)c4)C3)ccc2CC1C(=O)NC1CCCc2ccccc21)C(C)(C)C

> <Shape>
0.243

> <Color>
0.087

> <Negative vol penalty>
0.000

$$$$

  -OEChem-04052301053D

 86 94  0     1  0  0  0  0  0999 V2000
  -25.7070  -37.7242   19.8587 C   0  0  0  0  0  0  0  0  0  0  0  0
  -26.3949  -36.5542   19.5531 C   0  0  0  0  0  0  0  0  0  0  0  0
  -24.5017  -13.1642   24.1587 C   0  0  0  0  0  0  0  0  0  0  0  0
  -23.8439  -15.1343   22.9246 C   0  0  0  0  0  0  0  0  0  0  0  0
  -24.9305  -37.7931   21.0147 C   0  0  0  0  0  0  0  0  0  0  0  0
  -26.3077  -35.4529   20.4039 C   0  0  0  0  0  0  0  0  0  0  0  0
  -26.3276  -29.5447   18.7917 C   0  0  0  0  0  0  0  0  0  0  0  0
  -24.0462  -13.7514   25.3390 C   0  0  0  0  0  0  0  0  0  0  0  0
  -23.3883  -15.7216   24.1049 C   0  0  0  0  0  0  0  0  0  0  0  0
  -27.3347  -28.5809   18.7733 C   0  0  0  0  0  0  0  0  0  0  0  0
  -24.7251  -17.2962   26.7816 C   0  0  0  0  0  0  0  0  0  0  0  0
  -25.0675  -18.6277   27.0172 C   0  0  0  0  0  0  0  0  0  0  0  0
  -28.0009  -17.6050   19.1133 C   0  0  0  0  0  0  0  0  0  0  0  0
  -26.6182  -27.7994   20.9401 C   0  0  0  0  0  0  0  0  0  0  0  0
  -30.3033  -19.1771   19.2136 C   0  0  0  0  0  0  0  0  0  0  0  0
  -22.7257  -19.2182   27.0836 C   0  0  0  0  0  0  0  0  0  0  0  0
  -24.4007  -13.8557   22.9514 C   0  0  0  0  0  0  0  0  0  0  0  0
  -29.1455  -17.2104   18.4206 C   0  0  0  0  0  0  0  0  0  0  0  0
  -24.1340  -12.4463   20.8419 C   0  0  0  0  0  0  0  0  0  0  0  0
  -24.8259  -36.6889   21.8751 C   0  0  0  0  0  0  0  0  0  0  0  0
  -25.4636  -29.6505   19.8912 C   0  0  0  0  0  0  0  0  0  0  0  0
  -25.5301  -35.5076   21.5731 C   0  0  0  0  0  0  0  0  0  0  0  0
  -25.5993  -28.7638   20.9689 C   0  0  0  0  0  0  0  0  0  0  0  0
  -30.2967  -17.9965   18.4708 C   0  0  0  0  0  0  0  0  0  0  0  0
  -23.4894  -15.0301   25.3122 C   0  0  0  0  0  0  0  0  0  0  0  0
  -27.4820  -27.7099   19.8489 C   0  0  0  0  0  0  0  0  0  0  0  0
  -23.3829  -16.9257   26.6969 C   0  0  0  0  0  0  0  0  0  0  0  0
  -28.0074  -18.7856   19.8561 C   0  0  0  0  0  0  0  0  0  0  0  0
  -29.1586  -19.5717   19.9063 C   0  0  0  0  0  0  0  0  0  0  0  0
  -24.0679  -19.5887   27.1682 C   0  0  0  0  0  0  0  0  0  0  0  0
  -22.3833  -17.8867   26.8479 C   0  0  0  0  0  0  0  0  0  0  0  0
  -24.8716  -13.2499   21.7319 C   0  0  0  0  0  0  0  0  0  0  0  0
  -25.0273  -12.1240   19.8495 C   0  0  0  0  0  0  0  0  0  0  0  0
  -29.1108  -15.9738   17.6513 C   0  0  0  0  0  0  0  0  0  0  0  0
  -22.7640  -12.0287   20.9063 C   0  0  0  0  0  0  0  0  0  0  0  0
  -30.0343  -14.8554   17.9507 C   0  0  0  0  0  0  0  0  0  0  0  0
  -24.8271  -31.9096   22.0347 C   0  0  0  0  0  0  0  0  0  0  0  0
  -22.5145  -29.8324   22.9616 C   0  0  0  0  0  0  0  0  0  0  0  0
  -21.3891  -26.6126   23.0771 C   0  0  0  0  0  0  0  0  0  0  0  0
  -24.0123  -36.8267   23.1375 C   0  0  0  0  0  0  0  0  0  0  0  0
  -24.3653  -30.6782   19.8839 C   0  0  0  0  0  0  0  0  0  0  0  0
  -24.6847  -28.8227   22.1642 C   0  0  0  0  0  0  0  0  0  0  0  0
  -23.6726  -35.4902   23.7921 C   0  0  0  0  0  0  0  0  0  0  0  0
  -29.6917  -11.4644   19.0644 C   0  0  0  0  0  0  0  0  0  0  0  0
  -24.9094  -34.6000   23.8615 C   0  0  0  0  0  0  0  0  0  0  0  0
  -28.3673  -11.4753   19.8270 C   0  0  0  0  0  0  0  0  0  0  0  0
  -30.4382  -12.7850   19.2230 C   0  0  0  0  0  0  0  0  0  0  0  0
  -28.3067  -13.9982   19.5884 C   0  0  0  0  0  0  0  0  0  0  0  0
  -25.4406  -34.2834   22.4583 C   0  0  1  0  0  0  0  0  0  0  0  0
  -23.8680  -31.0312   21.2823 C   0  0  1  0  0  0  0  0  0  0  0  0
  -27.5111  -12.6909   19.4292 C   0  0  2  0  0  0  0  0  0  0  0  0
  -31.5360  -17.5974   17.7382 C   0  0  0  0  0  0  0  0  0  0  0  0
  -19.4846  -25.2210   23.9338 C   0  0  0  0  0  0  0  0  0  0  0  0
  -23.6457  -30.0289   25.7885 C   0  0  0  0  0  0  0  0  0  0  0  0
  -22.3617  -27.9602   26.3713 C   0  0  0  0  0  0  0  0  0  0  0  0
  -21.1480  -30.0211   25.6626 C   0  0  0  0  0  0  0  0  0  0  0  0
  -20.6527  -25.7324   20.3491 C   0  0  0  0  0  0  0  0  0  0  0  0
  -25.7497  -18.3006   20.4247 C   0  0  0  0  0  0  0  0  0  0  0  0
  -28.9747  -24.4090   19.8854 C   0  0  0  0  0  0  0  0  0  0  0  0
  -28.7167  -23.0843   20.5947 C   0  0  0  0  0  0  0  0  0  0  0  0
  -28.2112  -25.5537   20.5381 C   0  0  0  0  0  0  0  0  0  1  0  0
  -29.4455  -21.9325   19.9171 C   0  0  0  0  0  0  0  0  0  0  0  0
  -22.4361  -28.6882   23.9432 C   0  0  1  0  0  0  0  0  0  0  0  0
  -20.0354  -26.0065   22.7538 C   0  0  2  0  0  0  0  0  0  0  0  0
  -22.4165  -29.1745   25.4199 C   0  0  0  0  0  0  0  0  0  0  0  0
  -26.1360  -13.4270   21.3397 N   0  0  0  0  0  0  0  0  0  0  0  0
  -28.2801  -15.7682   16.6669 N   0  0  0  0  0  0  0  0  0  0  0  0
  -26.2000  -12.7302   20.1923 N   0  0  0  0  0  0  0  0  0  0  0  0
  -29.5860  -13.9193   18.8721 N   0  0  0  0  0  0  0  0  0  0  0  0
  -23.6303  -29.8489   22.1128 N   0  0  0  0  0  0  0  0  0  0  0  0
  -24.9162  -11.3840   18.7260 N   0  0  0  0  0  0  0  0  0  0  0  0
  -21.9875  -12.4501   21.9944 N   0  0  0  0  0  0  0  0  0  0  0  0
  -24.6307  -33.2620   21.8298 N   0  0  0  0  0  0  0  0  0  0  0  0
  -21.2708  -27.8993   23.5584 N   0  0  0  0  0  0  0  0  0  0  0  0
  -20.1453  -25.0862   21.5868 N   0  3  0  0  0  0  0  0  0  0  0  0
  -22.2482  -11.2898   20.0336 O   0  0  0  0  0  0  0  0  0  0  0  0
  -31.1007  -14.8769   17.3501 O   0  0  0  0  0  0  0  0  0  0  0  0
  -25.6811  -31.3984   22.7496 O   0  0  0  0  0  0  0  0  0  0  0  0
  -21.6150  -30.6763   22.9435 O   0  0  0  0  0  0  0  0  0  0  0  0
  -22.4456  -26.0040   22.9220 O   0  0  0  0  0  0  0  0  0  0  0  0
  -23.0446  -15.6033   26.4637 O   0  0  0  0  0  0  0  0  0  0  0  0
  -26.8832  -19.1601   20.5282 O   0  0  0  0  0  0  0  0  0  0  0  0
  -28.4647  -26.7686   19.8337 O   0  0  0  0  0  0  0  0  0  1  0  0
  -29.1769  -20.7343   20.6322 O   0  0  0  0  0  0  0  0  0  0  0  0
  -24.3969  -20.8670   27.3960 F   0  0  0  0  0  0  0  0  0  0  0  0
  -21.0922  -17.5367   26.7688 F   0  0  0  0  0  0  0  0  0  0  0  0
  1  2  1  0  0  0  0
  1  5  2  0  0  0  0
  2  6  2  0  0  0  0
  3  8  2  0  0  0  0
  3 17  1  0  0  0  0
  4  9  1  0  0  0  0
  4 17  2  0  0  0  0
  5 20  1  0  0  0  0
  6 22  1  0  0  0  0
  7 10  2  0  0  0  0
  7 21  1  0  0  0  0
  8 25  1  0  0  0  0
  9 25  2  0  0  0  0
 10 26  1  0  0  0  0
 11 12  2  0  0  0  0
 11 27  1  0  0  0  0
 12 30  1  0  0  0  0
 13 18  2  0  0  0  0
 13 28  1  0  0  0  0
 14 23  1  0  0  0  0
 14 26  2  0  0  0  0
 15 24  2  0  0  0  0
 15 29  1  0  0  0  0
 16 30  2  0  0  0  0
 16 31  1  0  0  0  0
 17 32  1  0  0  0  0
 18 24  1  0  0  0  0
 18 34  1  0  0  0  0
 19 32  1  0  0  0  0
 19 33  2  0  0  0  0
 19 35  1  0  0  0  0
 20 22  2  0  0  0  0
 20 40  1  0  0  0  0
 21 23  2  0  0  0  0
 21 41  1  0  0  0  0
 22 49  1  0  0  0  0
 23 42  1  0  0  0  0
 24 52  1  0  0  0  0
 25 81  1  0  0  0  0
 26 83  1  0  0  0  0
 27 31  2  0  0  0  0
 27 81  1  0  0  0  0
 28 29  2  0  0  0  0
 28 82  1  0  0  0  0
 29 84  1  0  0  0  0
 30 85  1  0  0  0  0
 31 86  1  0  0  0  0
 32 66  2  0  0  0  0
 33 68  1  0  0  0  0
 33 71  1  0  0  0  0
 34 36  1  0  0  0  0
 34 67  2  0  0  0  0
 35 72  1  0  0  0  0
 35 76  2  0  0  0  0
 36 69  1  0  0  0  0
 36 77  2  0  0  0  0
 37 50  1  0  0  0  0
 37 73  1  0  0  0  0
 37 78  2  0  0  0  0
 38 63  1  0  0  0  0
 38 70  1  0  0  0  0
 38 79  2  0  0  0  0
 39 64  1  0  0  0  0
 39 74  1  0  0  0  0
 39 80  2  0  0  0  0
 40 43  1  0  0  0  0
 41 50  1  0  0  0  0
 42 70  1  0  0  0  0
 43 45  1  0  0  0  0
 44 46  1  0  0  0  0
 44 47  1  0  0  0  0
 45 49  1  0  0  0  0
 46 51  1  0  0  0  0
 47 69  1  0  0  0  0
 48 51  1  0  0  0  0
 48 69  1  0  0  0  0
 49 73  1  0  0  0  0
 50 70  1  0  0  0  0
 51 68  1  0  0  0  0
 53 64  1  0  0  0  0
 54 65  1  0  0  0  0
 55 65  1  0  0  0  0
 56 65  1  0  0  0  0
 57 75  1  0  0  0  0
 58 82  1  0  0  0  0
 59 60  1  0  0  0  0
 59 61  1  0  0  0  0
 60 62  1  0  0  0  0
 61 83  1  0  0  0  0
 62 84  1  0  0  0  0
 63 65  1  0  0  0  0
 63 74  1  0  0  0  0
 64 75  1  0  0  0  0
 66 68  1  0  0  0  0
M  CHG  1  75   1
M  ISO  4  34 100  36 100  61 101  83 101
M  END
> <Batch ID>
0103

> <Smiles>
CNC(C)C(=O)NC(C(=O)N1Cc2cc([101O:1][101CH2:1]CCCOc3cc(C)c([100C:0](=N)[100C:0](=O)N4CCCC(n5nc(-c6ccc(Oc7ccc(F)cc7F)cc6)c(C(N)=O)c5N)C4)cc3OC)ccc2CC1C(=O)NC1CCCc2ccccc21)C(C)(C)C

> <Shape>
0.273

> <Color>
0.116

> <Negative vol penalty>
0.000

$$$$

  -OEChem-04052301053D

 88 97  0     1  0  0  0  0  0999 V2000
  -28.3050  -23.6231   17.1395 C   0  0  0  0  0  0  0  0  0  0  0  0
  -27.2000  -23.7642   17.9729 C   0  0  0  0  0  0  0  0  0  0  0  0
  -24.6197  -12.1793   20.3476 C   0  0  0  0  0  0  0  0  0  0  0  0
  -25.9447  -13.0704   22.1608 C   0  0  0  0  0  0  0  0  0  0  0  0
  -29.4741  -24.3340   17.4075 C   0  0  0  0  0  0  0  0  0  0  0  0
  -27.2638  -24.6156   19.0754 C   0  0  0  0  0  0  0  0  0  0  0  0
  -23.1344  -27.5105   19.5360 C   0  0  0  0  0  0  0  0  0  0  0  0
  -25.0795  -10.8959   20.6424 C   0  0  0  0  0  0  0  0  0  0  0  0
  -26.4044  -11.7870   22.4556 C   0  0  0  0  0  0  0  0  0  0  0  0
  -21.9946  -26.9131   20.0724 C   0  0  0  0  0  0  0  0  0  0  0  0
  -24.4232   -8.4743   22.9091 C   0  0  0  0  0  0  0  0  0  0  0  0
  -23.4864   -7.4412   22.9397 C   0  0  0  0  0  0  0  0  0  0  0  0
  -25.4824  -21.7002   23.5100 C   0  0  0  0  0  0  0  0  0  0  0  0
  -24.7320  -23.8856   24.2154 C   0  0  0  0  0  0  0  0  0  0  0  0
  -22.4836  -27.9148   22.2117 C   0  0  0  0  0  0  0  0  0  0  0  0
  -27.0939  -23.4403   23.9705 C   0  0  0  0  0  0  0  0  0  0  0  0
  -24.6852   -6.3022   21.1782 C   0  0  0  0  0  0  0  0  0  0  0  0
  -25.0524  -13.2666   21.1068 C   0  0  0  0  0  0  0  0  0  0  0  0
  -23.2437  -15.0410   20.8099 C   0  0  0  0  0  0  0  0  0  0  0  0
  -29.5490  -25.2018   18.5083 C   0  0  0  0  0  0  0  0  0  0  0  0
  -23.9647  -28.3070   20.3376 C   0  0  0  0  0  0  0  0  0  0  0  0
  -28.4354  -25.3377   19.3591 C   0  0  0  0  0  0  0  0  0  0  0  0
  -24.4450  -22.5771   23.8268 C   0  0  0  0  0  0  0  0  0  0  0  0
  -23.6320  -28.5233   21.6825 C   0  0  0  0  0  0  0  0  0  0  0  0
  -26.8069  -22.1318   23.5819 C   0  0  0  0  0  0  0  0  0  0  0  0
  -25.9718  -10.6997   21.6964 C   0  0  0  0  0  0  0  0  0  0  0  0
  -21.6706  -27.1128   21.4112 C   0  0  0  0  0  0  0  0  0  0  0  0
  -25.4909   -8.4213   22.0131 C   0  0  0  0  0  0  0  0  0  0  0  0
  -26.0565  -24.3173   24.2873 C   0  0  0  0  0  0  0  0  0  0  0  0
  -23.6174   -6.3552   22.0742 C   0  0  0  0  0  0  0  0  0  0  0  0
  -25.6219   -7.3353   21.1476 C   0  0  0  0  0  0  0  0  0  0  0  0
  -24.5782  -14.5928   20.8024 C   0  0  0  0  0  0  0  0  0  0  0  0
  -23.3243  -16.3652   20.4540 C   0  0  0  0  0  0  0  0  0  0  0  0
  -22.0390  -14.3246   21.1117 C   0  0  0  0  0  0  0  0  0  0  0  0
  -26.9972  -28.1492   21.2773 C   0  0  0  0  0  0  0  0  0  0  0  0
  -26.3549  -31.0728   22.5273 C   0  0  0  0  0  0  0  0  0  0  0  0
  -24.0256  -33.2748   23.6988 C   0  0  0  0  0  0  0  0  0  0  0  0
  -27.6840  -20.4462   20.8891 C   0  0  0  0  0  0  0  0  0  0  0  0
  -30.8500  -25.9131   18.7847 C   0  0  0  0  0  0  0  0  0  0  0  0
  -25.1761  -28.9661   19.7371 C   0  0  0  0  0  0  0  0  0  0  0  0
  -24.4794  -29.3861   22.5802 C   0  0  0  0  0  0  0  0  0  0  0  0
  -30.7110  -27.0804   19.7585 C   0  0  0  0  0  0  0  0  0  0  0  0
  -26.0147  -19.4049   17.9216 C   0  0  0  0  0  0  0  0  0  0  0  0
  -29.8779  -26.6699   20.9686 C   0  0  0  0  0  0  0  0  0  0  0  0
  -25.3368  -18.0940   18.3241 C   0  0  0  0  0  0  0  0  0  0  0  0
  -22.6316  -21.6086   22.3504 C   0  0  0  0  0  0  0  0  0  0  0  0
  -27.3762  -19.5659   18.5942 C   0  0  0  0  0  0  0  0  0  0  0  0
  -26.6837  -18.1190   20.4652 C   0  0  0  0  0  0  0  0  0  0  0  0
  -22.2094  -22.8575   21.5955 C   0  0  0  0  0  0  0  0  0  0  0  0
  -21.9005  -23.1323   24.0080 C   0  0  0  0  0  0  0  0  0  0  0  0
  -23.0028  -22.1060   23.7488 C   0  0  2  0  0  0  0  0  0  0  0  0
  -28.4576  -26.2704   20.5506 C   0  0  1  0  0  0  0  0  0  0  0  0
  -26.2296  -29.3394   20.7754 C   0  0  1  0  0  0  0  0  0  0  0  0
  -25.2830  -17.9378   19.8558 C   0  0  2  0  0  0  0  0  0  0  0  0
  -23.8073  -35.5709   24.6875 C   0  0  0  0  0  0  0  0  0  0  0  0
  -18.7608  -25.4393   20.7595 C   0  0  0  0  0  0  0  0  0  0  0  0
  -27.3789  -30.0165   25.2005 C   0  0  0  0  0  0  0  0  0  0  0  0
  -26.2752  -31.9679   26.3151 C   0  0  0  0  0  0  0  0  0  0  0  0
  -28.0984  -32.3489   24.6558 C   0  0  0  0  0  0  0  0  0  0  0  0
  -22.3410  -34.2085   21.4518 C   0  0  0  0  0  0  0  0  0  0  0  0
  -25.2281  -26.4371   24.9772 C   0  0  0  0  0  0  0  0  0  0  0  0
  -27.9165  -21.1946   23.2439 C   0  0  0  0  0  0  0  0  0  0  0  0
  -20.2414  -24.2020   22.4392 C   0  0  0  0  0  0  0  0  0  0  0  0
  -25.8295  -31.5784   23.8492 C   0  0  1  0  0  0  0  0  0  0  0  0
  -23.7960  -34.7472   23.4092 C   0  0  2  0  0  0  0  0  0  0  0  0
  -20.1474  -25.2869   21.3711 C   0  0  2  0  0  0  0  0  0  1  0  0
  -26.8804  -31.4600   24.9890 C   0  0  0  0  0  0  0  0  0  0  0  0
  -25.4432  -15.5541   20.4680 N   0  0  0  0  0  0  0  0  0  0  0  0
  -24.6504  -16.6196   20.2621 N   0  0  0  0  0  0  0  0  0  0  0  0
  -25.6569  -30.0037   21.9481 N   0  0  0  0  0  0  0  0  0  0  0  0
  -27.2554  -19.4081   20.0455 N   0  0  0  0  0  0  0  0  0  0  0  0
  -22.3894  -17.3251   20.2896 N   0  0  0  0  0  0  0  0  0  0  0  0
  -22.1363  -12.9702   21.4589 N   0  0  0  0  0  0  0  0  0  0  0  0
  -27.6582  -27.4478   20.2872 N   0  0  0  0  0  0  0  0  0  0  0  0
  -25.3598  -32.9385   23.6084 N   0  0  0  0  0  0  0  0  0  0  0  0
  -27.5281  -20.2180   22.2508 N   0  0  0  0  0  0  0  0  0  0  0  0
  -21.6615  -23.7863   22.6597 N   0  3  2  0  0  0  0  0  0  0  0  0
  -22.4815  -34.9437   22.7351 N   0  3  0  0  0  0  0  0  0  0  0  0
  -20.9083  -14.8650   21.0585 O   0  0  0  0  0  0  0  0  0  0  0  0
  -26.9913  -27.8876   22.4745 O   0  0  0  0  0  0  0  0  0  0  0  0
  -27.3438  -31.6115   22.0237 O   0  0  0  0  0  0  0  0  0  0  0  0
  -23.1132  -32.5013   23.9809 O   0  0  0  0  0  0  0  0  0  0  0  0
  -28.1646  -21.5008   20.4603 O   0  0  0  0  0  0  0  0  0  0  0  0
  -26.4205   -9.4474   21.9845 O   0  0  0  0  0  0  0  0  0  0  0  0
  -26.3366  -25.5940   24.6670 O   0  0  0  0  0  0  0  0  0  0  0  0
  -20.5590  -26.5303   21.9374 O   0  0  0  0  0  0  0  0  0  1  0  0
  -22.7187   -5.3625   22.1047 F   0  0  0  0  0  0  0  0  0  0  0  0
  -26.6462   -7.2783   20.2854 F   0  0  0  0  0  0  0  0  0  0  0  0
  1  2  1  0  0  0  0
  1  5  2  0  0  0  0
  2  6  2  0  0  0  0
  3  8  2  0  0  0  0
  3 18  1  0  0  0  0
  4  9  1  0  0  0  0
  4 18  2  0  0  0  0
  5 20  1  0  0  0  0
  6 22  1  0  0  0  0
  7 10  2  0  0  0  0
  7 21  1  0  0  0  0
  8 26  1  0  0  0  0
  9 26  2  0  0  0  0
 10 27  1  0  0  0  0
 11 12  2  0  0  0  0
 11 28  1  0  0  0  0
 12 30  1  0  0  0  0
 13 23  1  0  0  0  0
 13 25  2  0  0  0  0
 14 23  2  0  0  0  0
 14 29  1  0  0  0  0
 15 24  1  0  0  0  0
 15 27  2  0  0  0  0
 16 25  1  0  0  0  0
 16 29  2  0  0  0  0
 17 30  2  0  0  0  0
 17 31  1  0  0  0  0
 18 32  1  0  0  0  0
 19 32  1  0  0  0  0
 19 33  2  0  0  0  0
 19 34  1  0  0  0  0
 20 22  2  0  0  0  0
 20 39  1  0  0  0  0
 21 24  2  0  0  0  0
 21 40  1  0  0  0  0
 22 52  1  0  0  0  0
 23 51  1  0  0  0  0
 24 41  1  0  0  0  0
 25 62  1  0  0  0  0
 26 84  1  0  0  0  0
 27 86  1  0  0  0  0
 28 31  2  0  0  0  0
 28 84  1  0  0  0  0
 29 85  1  0  0  0  0
 30 87  1  0  0  0  0
 31 88  1  0  0  0  0
 32 68  2  0  0  0  0
 33 69  1  0  0  0  0
 33 72  1  0  0  0  0
 34 73  1  0  0  0  0
 34 79  2  0  0  0  0
 35 53  1  0  0  0  0
 35 74  1  0  0  0  0
 35 80  2  0  0  0  0
 36 64  1  0  0  0  0
 36 70  1  0  0  0  0
 36 81  2  0  0  0  0
 37 65  1  0  0  0  0
 37 75  1  0  0  0  0
 37 82  2  0  0  0  0
 38 71  1  0  0  0  0
 38 76  1  0  0  0  0
 38 83  2  0  0  0  0
 39 42  1  0  0  0  0
 40 53  1  0  0  0  0
 41 70  1  0  0  0  0
 42 44  1  0  0  0  0
 43 45  1  0  0  0  0
 43 47  1  0  0  0  0
 44 52  1  0  0  0  0
 45 54  1  0  0  0  0
 46 49  1  0  0  0  0
 46 51  1  0  0  0  0
 47 71  1  0  0  0  0
 48 54  1  0  0  0  0
 48 71  1  0  0  0  0
 49 77  1  0  0  0  0
 50 51  1  0  0  0  0
 50 77  1  0  0  0  0
 52 74  1  0  0  0  0
 53 70  1  0  0  0  0
 54 69  1  0  0  0  0
 55 65  1  0  0  0  0
 56 66  1  0  0  0  0
 57 67  1  0  0  0  0
 58 67  1  0  0  0  0
 59 67  1  0  0  0  0
 60 78  1  0  0  0  0
 61 85  1  0  0  0  0
 62 76  1  0  0  0  0
 63 66  1  0  0  0  0
 63 77  1  0  0  0  0
 64 67  1  0  0  0  0
 64 75  1  0  0  0  0
 65 78  1  0  0  0  0
 66 86  1  0  0  0  0
 68 69  1  0  0  0  0
M  CHG  2  77   1  78   1
M  ISO  4  38 100  66 101  76 100  86 101
M  END
> <Batch ID>
0103

> <Smiles>
CNC(C)C(=O)NC(C(=O)N1Cc2cc([101O:1][101CH:1](C)CN3CCC(c4cc(C[100NH:0][100C:0](=O)N5CCCC(n6nc(-c7ccc(Oc8ccc(F)cc8F)cc7)c(C(N)=O)c6N)C5)cc(OC)c4)C3)ccc2CC1C(=O)NC1CCCc2ccccc21)C(C)(C)C

> <Shape>
0.269

> <Color>
0.078

> <Negative vol penalty>
0.000

$$$$

  -OEChem-04052301053D

 90 99  0     1  0  0  0  0  0999 V2000
  -27.7862  -29.3027   31.4660 C   0  0  0  0  0  0  0  0  0  0  0  0
  -27.5088  -28.0433   30.9441 C   0  0  0  0  0  0  0  0  0  0  0  0
  -22.7439   -9.9995   20.3300 C   0  0  0  0  0  0  0  0  0  0  0  0
  -24.2808   -9.5979   22.1504 C   0  0  0  0  0  0  0  0  0  0  0  0
  -26.9676  -30.3848   31.1450 C   0  0  0  0  0  0  0  0  0  0  0  0
  -26.4119  -27.8650   30.1018 C   0  0  0  0  0  0  0  0  0  0  0  0
  -27.2478  -25.3312   23.4106 C   0  0  0  0  0  0  0  0  0  0  0  0
  -22.0294   -8.8540   20.6804 C   0  0  0  0  0  0  0  0  0  0  0  0
  -23.5662   -8.4523   22.5009 C   0  0  0  0  0  0  0  0  0  0  0  0
  -27.3017  -24.6536   22.1924 C   0  0  0  0  0  0  0  0  0  0  0  0
  -19.7446   -7.9575   23.0062 C   0  0  0  0  0  0  0  0  0  0  0  0
  -18.3532   -8.0476   23.0437 C   0  0  0  0  0  0  0  0  0  0  0  0
  -24.9211  -24.9646   21.9020 C   0  0  0  0  0  0  0  0  0  0  0  0
  -27.3711  -18.4874   20.8406 C   0  0  0  0  0  0  0  0  0  0  0  0
  -28.8922  -18.3704   18.9673 C   0  0  0  0  0  0  0  0  0  0  0  0
  -18.1963   -6.3253   21.3565 C   0  0  0  0  0  0  0  0  0  0  0  0
  -23.8697  -10.3715   21.0650 C   0  0  0  0  0  0  0  0  0  0  0  0
  -29.1961  -16.9044   20.8634 C   0  0  0  0  0  0  0  0  0  0  0  0
  -24.1270  -12.8764   20.6569 C   0  0  0  0  0  0  0  0  0  0  0  0
  -25.8658  -30.2216   30.2906 C   0  0  0  0  0  0  0  0  0  0  0  0
  -26.0316  -25.8421   23.8724 C   0  0  0  0  0  0  0  0  0  0  0  0
  -25.5770  -28.9456   29.7702 C   0  0  0  0  0  0  0  0  0  0  0  0
  -24.8633  -25.6550   23.1155 C   0  0  0  0  0  0  0  0  0  0  0  0
  -27.7769  -18.9371   19.5841 C   0  0  0  0  0  0  0  0  0  0  0  0
  -22.4405   -8.0804   21.7659 C   0  0  0  0  0  0  0  0  0  0  0  0
  -26.1411  -24.4706   21.4401 C   0  0  0  0  0  0  0  0  0  0  0  0
  -20.3619   -7.0514   22.1438 C   0  0  0  0  0  0  0  0  0  0  0  0
  -28.0808  -17.4711   21.4803 C   0  0  0  0  0  0  0  0  0  0  0  0
  -17.5790   -7.2315   22.2189 C   0  0  0  0  0  0  0  0  0  0  0  0
  -29.6019  -17.3541   19.6069 C   0  0  0  0  0  0  0  0  0  0  0  0
  -19.5877   -6.2353   21.3190 C   0  0  0  0  0  0  0  0  0  0  0  0
  -24.6085  -11.5544   20.7031 C   0  0  0  0  0  0  0  0  0  0  0  0
  -25.2097  -13.6225   20.2599 C   0  0  0  0  0  0  0  0  0  0  0  0
  -27.0202  -19.9922   17.5046 C   0  0  0  0  0  0  0  0  0  0  0  0
  -26.3983  -20.9628   19.7377 C   0  0  0  0  0  0  0  0  0  0  0  0
  -29.9478  -15.8420   21.5170 C   0  0  0  0  0  0  0  0  0  0  0  0
  -22.8182  -13.3847   20.9471 C   0  0  0  0  0  0  0  0  0  0  0  0
  -30.6567  -14.8055   20.7317 C   0  0  0  0  0  0  0  0  0  0  0  0
  -24.2150  -27.7304   26.5575 C   0  0  0  0  0  0  0  0  0  0  0  0
  -23.0692  -28.6749   23.8732 C   0  0  0  0  0  0  0  0  0  0  0  0
  -21.6709  -30.4423   21.3124 C   0  0  0  0  0  0  0  0  0  0  0  0
  -24.9822  -31.4113   30.0101 C   0  0  0  0  0  0  0  0  0  0  0  0
  -25.9157  -26.5249   25.2081 C   0  0  0  0  0  0  0  0  0  0  0  0
  -23.5711  -26.1916   23.6682 C   0  0  0  0  0  0  0  0  0  0  0  0
  -26.3902  -21.1906   16.8255 C   0  0  0  0  0  0  0  0  0  0  0  0
  -24.0582  -31.2145   28.8110 C   0  0  0  0  0  0  0  0  0  0  0  0
  -26.1839  -22.3778   17.7368 C   0  0  0  0  0  0  0  0  0  0  0  0
  -29.7063  -12.2130   18.4444 C   0  0  0  0  0  0  0  0  0  0  0  0
  -23.3788  -29.8505   28.8788 C   0  0  0  0  0  0  0  0  0  0  0  0
  -28.2683  -11.8929   18.8512 C   0  0  0  0  0  0  0  0  0  0  0  0
  -30.5566  -12.5936   19.6520 C   0  0  0  0  0  0  0  0  0  0  0  0
  -28.5522  -13.4073   20.8640 C   0  0  0  0  0  0  0  0  0  0  0  0
  -24.4108  -28.7172   28.8332 C   0  0  1  0  0  0  0  0  0  0  0  0
  -25.4652  -21.9017   18.9865 C   0  0  2  0  0  0  0  0  0  0  0  0
  -24.8822  -27.6655   25.2152 C   0  0  1  0  0  0  0  0  0  0  0  0
  -27.6557  -13.0453   19.6670 C   0  0  2  0  0  0  0  0  0  0  0  0
  -19.6229  -31.7663   20.7205 C   0  0  0  0  0  0  0  0  0  0  0  0
  -21.4871  -26.0848   23.5694 C   0  0  0  0  0  0  0  0  0  0  0  0
  -19.8655  -27.3283   22.1229 C   0  0  0  0  0  0  0  0  0  0  0  0
  -20.1811  -28.0020   24.5039 C   0  0  0  0  0  0  0  0  0  0  0  0
  -23.2542  -32.8964   20.8335 C   0  0  0  0  0  0  0  0  0  0  0  0
  -26.5190  -17.6824   23.2613 C   0  0  0  0  0  0  0  0  0  0  0  0
  -25.0394  -23.0870   19.8496 C   0  0  0  0  0  0  0  0  0  1  0  0
  -22.0017  -28.5021   22.8225 C   0  0  1  0  0  0  0  0  0  0  0  0
  -21.0410  -31.8227   21.2669 C   0  0  2  0  0  0  0  0  0  0  0  0
  -20.9115  -27.4785   23.2481 C   0  0  0  0  0  0  0  0  0  0  0  0
  -25.8967  -11.4625   20.3624 N   0  0  0  0  0  0  0  0  0  0  0  0
  -30.0495  -15.7315   22.8129 N   0  0  0  0  0  0  0  0  0  0  0  0
  -26.2339  -12.7364   20.0983 N   0  0  0  0  0  0  0  0  0  0  0  0
  -27.0395  -19.9936   18.9200 N   0  0  0  0  0  0  0  0  0  0  0  0
  -29.9292  -13.6644   20.4239 N   0  0  0  0  0  0  0  0  0  0  0  0
  -23.7867  -27.5299   24.2402 N   0  0  0  0  0  0  0  0  0  0  0  0
  -25.3761  -14.9434   20.0366 N   0  0  0  0  0  0  0  0  0  0  0  0
  -21.8227  -12.4805   21.3417 N   0  0  0  0  0  0  0  0  0  0  0  0
  -24.8807  -28.5157   27.4793 N   0  0  0  0  0  0  0  0  0  0  0  0
  -21.4888  -29.8379   22.5383 N   0  0  0  0  0  0  0  0  0  0  0  0
  -21.8435  -32.7299   20.3985 N   0  3  0  0  0  0  0  0  0  0  0  0
  -27.3985  -19.0576   16.7908 O   0  0  0  0  0  0  0  0  0  0  0  0
  -26.5631  -21.0858   20.9532 O   0  0  0  0  0  0  0  0  0  0  0  0
  -22.5354  -14.6024   20.8433 O   0  0  0  0  0  0  0  0  0  0  0  0
  -31.8154  -15.0678   20.4369 O   0  0  0  0  0  0  0  0  0  0  0  0
  -23.1719  -27.1150   26.7442 O   0  0  0  0  0  0  0  0  0  0  0  0
  -23.2600  -29.7924   24.3611 O   0  0  0  0  0  0  0  0  0  0  0  0
  -22.2618  -29.9479   20.3548 O   0  0  0  0  0  0  0  0  0  0  0  0
  -21.7434   -6.9627   22.1083 O   0  0  0  0  0  0  0  0  0  0  0  0
  -27.6687  -17.0459   22.7080 O   0  0  0  0  0  0  0  0  0  0  0  0
  -26.2016  -23.8121   20.2495 O   0  0  0  0  0  0  0  0  0  1  0  0
  -16.2428   -7.3169   22.2561 F   0  0  0  0  0  0  0  0  0  0  0  0
  -30.6714  -16.8162   19.0034 F   0  0  0  0  0  0  0  0  0  0  0  0
  -20.1750   -5.3621   20.4893 F   0  0  0  0  0  0  0  0  0  0  0  0
  1  2  1  0  0  0  0
  1  5  2  0  0  0  0
  2  6  2  0  0  0  0
  3  8  2  0  0  0  0
  3 17  1  0  0  0  0
  4  9  1  0  0  0  0
  4 17  2  0  0  0  0
  5 20  1  0  0  0  0
  6 22  1  0  0  0  0
  7 10  2  0  0  0  0
  7 21  1  0  0  0  0
  8 25  1  0  0  0  0
  9 25  2  0  0  0  0
 10 26  1  0  0  0  0
 11 12  2  0  0  0  0
 11 27  1  0  0  0  0
 12 29  1  0  0  0  0
 13 23  1  0  0  0  0
 13 26  2  0  0  0  0
 14 24  2  0  0  0  0
 14 28  1  0  0  0  0
 15 24  1  0  0  0  0
 15 30  2  0  0  0  0
 16 29  2  0  0  0  0
 16 31  1  0  0  0  0
 17 32  1  0  0  0  0
 18 28  2  0  0  0  0
 18 30  1  0  0  0  0
 18 36  1  0  0  0  0
 19 32  1  0  0  0  0
 19 33  2  0  0  0  0
 19 37  1  0  0  0  0
 20 22  2  0  0  0  0
 20 42  1  0  0  0  0
 21 23  2  0  0  0  0
 21 43  1  0  0  0  0
 22 53  1  0  0  0  0
 23 44  1  0  0  0  0
 24 70  1  0  0  0  0
 25 85  1  0  0  0  0
 26 87  1  0  0  0  0
 27 31  2  0  0  0  0
 27 85  1  0  0  0  0
 28 86  1  0  0  0  0
 29 88  1  0  0  0  0
 30 89  1  0  0  0  0
 31 90  1  0  0  0  0
 32 67  2  0  0  0  0
 33 69  1  0  0  0  0
 33 73  1  0  0  0  0
 34 45  1  0  0  0  0
 34 70  1  0  0  0  0
 34 78  2  0  0  0  0
 35 54  1  0  0  0  0
 35 70  1  0  0  0  0
 35 79  2  0  0  0  0
 36 38  1  0  0  0  0
 36 68  2  0  0  0  0
 37 74  1  0  0  0  0
 37 80  2  0  0  0  0
 38 71  1  0  0  0  0
 38 81  2  0  0  0  0
 39 55  1  0  0  0  0
 39 75  1  0  0  0  0
 39 82  2  0  0  0  0
 40 64  1  0  0  0  0
 40 72  1  0  0  0  0
 40 83  2  0  0  0  0
 41 65  1  0  0  0  0
 41 76  1  0  0  0  0
 41 84  2  0  0  0  0
 42 46  1  0  0  0  0
 43 55  1  0  0  0  0
 44 72  1  0  0  0  0
 45 47  1  0  0  0  0
 46 49  1  0  0  0  0
 47 54  1  0  0  0  0
 48 50  1  0  0  0  0
 48 51  1  0  0  0  0
 49 53  1  0  0  0  0
 50 56  1  0  0  0  0
 51 71  1  0  0  0  0
 52 56  1  0  0  0  0
 52 71  1  0  0  0  0
 53 75  1  0  0  0  0
 54 63  1  0  0  0  0
 55 72  1  0  0  0  0
 56 69  1  0  0  0  0
 57 65  1  0  0  0  0
 58 66  1  0  0  0  0
 59 66  1  0  0  0  0
 60 66  1  0  0  0  0
 61 77  1  0  0  0  0
 62 86  1  0  0  0  0
 63 87  1  0  0  0  0
 64 66  1  0  0  0  0
 64 76  1  0  0  0  0
 65 77  1  0  0  0  0
 67 69  1  0  0  0  0
M  CHG  1  77   1
M  ISO  4  36 100  38 100  63 101  87 101
M  END
> <Batch ID>
0103

> <Smiles>
CNC(C)C(=O)NC(C(=O)N1Cc2cc([101O:1][101CH2:1]C3CCC(=O)N(c4cc(F)c([100C:0](=N)[100C:0](=O)N5CCCC(n6nc(-c7ccc(Oc8ccc(F)cc8F)cc7)c(C(N)=O)c6N)C5)c(OC)c4)C3=O)ccc2CC1C(=O)NC1CCCc2ccccc21)C(C)(C)C

> <Shape>
0.237

> <Color>
0.184

> <Negative vol penalty>
0.000

$$$$

  -OEChem-04052301053D

 87 96  0     1  0  0  0  0  0999 V2000
  -16.6751  -27.3328   23.5313 C   0  0  0  0  0  0  0  0  0  0  0  0
  -17.4255  -27.1597   22.3727 C   0  0  0  0  0  0  0  0  0  0  0  0
  -27.4497  -13.9674   19.8383 C   0  0  0  0  0  0  0  0  0  0  0  0
  -29.7027  -14.6518   19.2972 C   0  0  0  0  0  0  0  0  0  0  0  0
  -16.8157  -28.4979   24.2840 C   0  0  0  0  0  0  0  0  0  0  0  0
  -18.3162  -28.1523   21.9655 C   0  0  0  0  0  0  0  0  0  0  0  0
  -25.3318  -26.7333   21.1535 C   0  0  0  0  0  0  0  0  0  0  0  0
  -27.9300  -25.0395   14.6115 C   0  0  0  0  0  0  0  0  0  0  0  0
  -27.3443  -23.9040   14.0519 C   0  0  0  0  0  0  0  0  0  0  0  0
  -27.8444  -12.6304   19.7910 C   0  0  0  0  0  0  0  0  0  0  0  0
  -30.0975  -13.3148   19.2500 C   0  0  0  0  0  0  0  0  0  0  0  0
  -26.6513  -26.4889   20.7722 C   0  0  0  0  0  0  0  0  0  0  0  0
  -29.4701  -10.4410   21.7901 C   0  0  0  0  0  0  0  0  0  0  0  0
  -29.0368   -9.6005   22.8154 C   0  0  0  0  0  0  0  0  0  0  0  0
  -26.9457  -28.8317   20.2502 C   0  0  0  0  0  0  0  0  0  0  0  0
  -26.8024  -23.0940   16.2627 C   0  0  0  0  0  0  0  0  0  0  0  0
  -27.9080   -8.2072   21.1963 C   0  0  0  0  0  0  0  0  0  0  0  0
  -28.3788  -14.9781   19.5914 C   0  0  0  0  0  0  0  0  0  0  0  0
  -27.4255  -17.0468   20.7400 C   0  0  0  0  0  0  0  0  0  0  0  0
  -17.7157  -29.5011   23.8910 C   0  0  0  0  0  0  0  0  0  0  0  0
  -24.8184  -28.0321   21.0991 C   0  0  0  0  0  0  0  0  0  0  0  0
  -18.4680  -29.3326   22.7129 C   0  0  0  0  0  0  0  0  0  0  0  0
  -25.6286  -29.0847   20.6426 C   0  0  0  0  0  0  0  0  0  0  0  0
  -27.9521  -25.2022   15.9967 C   0  0  0  0  0  0  0  0  0  0  0  0
  -26.7804  -22.9313   14.8775 C   0  0  0  0  0  0  0  0  0  0  0  0
  -29.1683  -12.3041   19.4969 C   0  0  0  0  0  0  0  0  0  0  0  0
  -27.4561  -27.5355   20.3215 C   0  0  0  0  0  0  0  0  0  0  0  0
  -29.1223  -10.1646   20.4678 C   0  0  0  0  0  0  0  0  0  0  0  0
  -28.2557   -8.4835   22.5185 C   0  0  0  0  0  0  0  0  0  0  0  0
  -27.3882  -24.2296   16.8222 C   0  0  0  0  0  0  0  0  0  0  0  0
  -28.3413   -9.0477   20.1709 C   0  0  0  0  0  0  0  0  0  0  0  0
  -27.9715  -16.3594   19.6395 C   0  0  0  0  0  0  0  0  0  0  0  0
  -27.2116  -18.3219   20.2766 C   0  0  0  0  0  0  0  0  0  0  0  0
  -27.1376  -16.5750   22.0630 C   0  0  0  0  0  0  0  0  0  0  0  0
  -21.8849  -30.2957   21.6880 C   0  0  0  0  0  0  0  0  0  0  0  0
  -24.3824  -31.8123   22.6224 C   0  0  0  0  0  0  0  0  0  0  0  0
  -27.3152  -32.9715   23.9232 C   0  0  0  0  0  0  0  0  0  0  0  0
  -26.1651  -20.5228   14.9872 C   0  0  0  0  0  0  0  0  0  0  0  0
  -17.7986  -30.7639   24.7114 C   0  0  0  0  0  0  0  0  0  0  0  0
  -23.3842  -28.3315   21.4415 C   0  0  0  0  0  0  0  0  0  0  0  0
  -25.0232  -30.4598   20.5680 C   0  0  0  0  0  0  0  0  0  0  0  0
  -19.0385  -31.6032   24.4139 C   0  0  0  0  0  0  0  0  0  0  0  0
  -32.5106  -26.0221   18.4226 C   0  0  0  0  0  0  0  0  0  0  0  0
  -28.8589  -21.4854   17.0991 C   0  0  0  0  0  0  0  0  0  0  0  0
  -31.8560  -24.8308   17.7408 C   0  0  0  0  0  0  0  0  0  0  0  0
  -19.2397  -31.7434   22.9084 C   0  0  0  0  0  0  0  0  0  0  0  0
  -28.8887  -20.3297   18.0987 C   0  0  0  0  0  0  0  0  0  0  0  0
  -31.4708  -26.8889   19.1195 C   0  0  0  0  0  0  0  0  0  0  0  0
  -28.5690  -21.0047   15.6768 C   0  0  0  0  0  0  0  0  0  0  0  0
  -27.3724  -19.0260   16.5584 C   0  0  0  0  0  0  0  0  0  0  0  0
  -30.7631  -25.2712   16.7818 C   0  0  0  0  0  0  0  0  0  0  0  0
  -19.4628  -30.3757   22.2519 C   0  0  1  0  0  0  0  0  0  0  0  0
  -23.1976  -29.7048   22.1111 C   0  0  1  0  0  0  0  0  0  0  0  0
  -27.6049  -19.4862   18.0060 C   0  0  1  0  0  0  0  0  0  0  0  0
  -30.3555  -27.3412   18.1685 C   0  0  2  0  0  0  0  0  0  0  0  0
  -28.2952  -34.9496   25.1165 C   0  0  0  0  0  0  0  0  0  0  0  0
  -24.3779  -33.3861   20.0095 C   0  0  0  0  0  0  0  0  0  0  0  0
  -26.1471  -34.8673   20.9812 C   0  0  0  0  0  0  0  0  0  0  0  0
  -23.8961  -34.7496   22.0499 C   0  0  0  0  0  0  0  0  0  0  0  0
  -25.3581  -21.9108   13.0904 C   0  0  0  0  0  0  0  0  0  0  0  0
  -28.0650  -31.3311   26.2696 C   0  0  0  0  0  0  0  0  0  0  0  0
  -28.5814  -26.4260   16.5944 C   0  0  0  0  0  0  0  0  0  0  0  0
  -29.3022  -28.1296   18.9444 C   0  0  0  0  0  0  0  0  0  1  0  0
  -25.4760  -32.7879   22.2684 C   0  0  1  0  0  0  0  0  0  0  0  0
  -27.6470  -33.5827   25.2725 C   0  0  2  0  0  0  0  0  0  0  0  0
  -24.9783  -33.9196   21.3255 C   0  0  0  0  0  0  0  0  0  0  0  0
  -28.0965  -17.1336   18.5583 N   0  0  0  0  0  0  0  0  0  0  0  0
  -27.6259  -18.3207   18.9772 N   0  0  0  0  0  0  0  0  0  0  0  0
  -24.2108  -30.7168   21.7674 N   0  0  0  0  0  0  0  0  0  0  0  0
  -27.3589  -20.1712   15.6450 N   0  0  0  0  0  0  0  0  0  0  0  0
  -26.7113  -19.4329   20.8579 N   0  0  0  0  0  0  0  0  0  0  0  0
  -28.1366  -16.6766   23.0407 N   0  0  0  0  0  0  0  0  0  0  0  0
  -20.8172  -29.9200   22.4808 N   0  0  0  0  0  0  0  0  0  0  0  0
  -26.0248  -33.2628   23.5340 N   0  0  0  0  0  0  0  0  0  0  0  0
  -26.1758  -21.7547   14.2983 N   0  0  0  0  0  0  0  0  0  0  0  0
  -29.7340  -26.1083   17.5162 N   0  3  1  0  0  0  0  0  0  0  0  0
  -28.5845  -32.7011   26.0241 N   0  3  0  0  0  0  0  0  0  0  0  0
  -26.0330  -16.0629   22.3648 O   0  0  0  0  0  0  0  0  0  0  0  0
  -21.8426  -31.0392   20.7149 O   0  0  0  0  0  0  0  0  0  0  0  0
  -23.6936  -32.0164   23.6260 O   0  0  0  0  0  0  0  0  0  0  0  0
  -28.1213  -32.3056   23.2772 O   0  0  0  0  0  0  0  0  0  0  0  0
  -25.1748  -19.7817   14.9926 O   0  0  0  0  0  0  0  0  0  0  0  0
  -29.5539  -10.9996   19.4509 O   0  0  0  0  0  0  0  0  0  0  0  0
  -28.7448  -27.2906   19.9552 O   0  0  0  0  0  0  0  0  0  1  0  0
  -27.8410   -7.6756   23.5031 F   0  0  0  0  0  0  0  0  0  0  0  0
  -27.4044  -24.3771   18.1543 F   0  0  0  0  0  0  0  0  0  0  0  0
  -28.0050   -8.7764   18.9024 F   0  0  0  0  0  0  0  0  0  0  0  0
  1  2  1  0  0  0  0
  1  5  2  0  0  0  0
  2  6  2  0  0  0  0
  3 10  2  0  0  0  0
  3 18  1  0  0  0  0
  4 11  1  0  0  0  0
  4 18  2  0  0  0  0
  5 20  1  0  0  0  0
  6 22  1  0  0  0  0
  7 12  2  0  0  0  0
  7 21  1  0  0  0  0
  8  9  2  0  0  0  0
  8 24  1  0  0  0  0
  9 25  1  0  0  0  0
 10 26  1  0  0  0  0
 11 26  2  0  0  0  0
 12 27  1  0  0  0  0
 13 14  2  0  0  0  0
 13 28  1  0  0  0  0
 14 29  1  0  0  0  0
 15 23  1  0  0  0  0
 15 27  2  0  0  0  0
 16 25  2  0  0  0  0
 16 30  1  0  0  0  0
 17 29  2  0  0  0  0
 17 31  1  0  0  0  0
 18 32  1  0  0  0  0
 19 32  1  0  0  0  0
 19 33  2  0  0  0  0
 19 34  1  0  0  0  0
 20 22  2  0  0  0  0
 20 39  1  0  0  0  0
 21 23  2  0  0  0  0
 21 40  1  0  0  0  0
 22 52  1  0  0  0  0
 23 41  1  0  0  0  0
 24 30  2  0  0  0  0
 24 62  1  0  0  0  0
 25 75  1  0  0  0  0
 26 83  1  0  0  0  0
 27 84  1  0  0  0  0
 28 31  2  0  0  0  0
 28 83  1  0  0  0  0
 29 85  1  0  0  0  0
 30 86  1  0  0  0  0
 31 87  1  0  0  0  0
 32 67  2  0  0  0  0
 33 68  1  0  0  0  0
 33 71  1  0  0  0  0
 34 72  1  0  0  0  0
 34 78  2  0  0  0  0
 35 53  1  0  0  0  0
 35 73  1  0  0  0  0
 35 79  2  0  0  0  0
 36 64  1  0  0  0  0
 36 69  1  0  0  0  0
 36 80  2  0  0  0  0
 37 65  1  0  0  0  0
 37 74  1  0  0  0  0
 37 81  2  0  0  0  0
 38 70  1  0  0  0  0
 38 75  1  0  0  0  0
 38 82  2  0  0  0  0
 39 42  1  0  0  0  0
 40 53  1  0  0  0  0
 41 69  1  0  0  0  0
 42 46  1  0  0  0  0
 43 45  1  0  0  0  0
 43 48  1  0  0  0  0
 44 47  1  0  0  0  0
 44 49  1  0  0  0  0
 45 51  1  0  0  0  0
 46 52  1  0  0  0  0
 47 54  1  0  0  0  0
 48 55  1  0  0  0  0
 49 70  1  0  0  0  0
 50 54  1  0  0  0  0
 50 70  1  0  0  0  0
 51 76  1  0  0  0  0
 52 73  1  0  0  0  0
 53 69  1  0  0  0  0
 54 68  1  0  0  0  0
 55 63  1  0  0  0  0
 55 76  1  0  0  0  0
 56 65  1  0  0  0  0
 57 66  1  0  0  0  0
 58 66  1  0  0  0  0
 59 66  1  0  0  0  0
 60 75  1  0  0  0  0
 61 77  1  0  0  0  0
 62 76  1  0  0  0  0
 63 84  1  0  0  0  0
 64 66  1  0  0  0  0
 64 74  1  0  0  0  0
 65 77  1  0  0  0  0
 67 68  1  0  0  0  0
M  CHG  2  76   1  77   1
M  ISO  4  38 100  63 101  75 100  84 101
M  END
> <Batch ID>
0103

> <Smiles>
CNC(C)C(=O)NC(C(=O)N1Cc2cc([101O:1][101CH2:1]C3CCCCN3Cc3ccc([100N:0](C)[100C:0](=O)N4CCCC(n5nc(-c6ccc(Oc7ccc(F)cc7F)cc6)c(C(N)=O)c5N)C4)cc3F)ccc2CC1C(=O)NC1CCCc2ccccc21)C(C)(C)C

> <Shape>
0.244

> <Color>
0.084

> <Negative vol penalty>
0.000

$$$$

  -OEChem-04052301053D

 86 94  0     1  0  0  0  0  0999 V2000
  -29.4603  -29.3958   26.8823 C   0  0  0  0  0  0  0  0  0  0  0  0
  -29.0820  -28.6542   25.7677 C   0  0  0  0  0  0  0  0  0  0  0  0
  -24.5159   -8.2430   20.4877 C   0  0  0  0  0  0  0  0  0  0  0  0
  -23.2732  -10.2949   20.7748 C   0  0  0  0  0  0  0  0  0  0  0  0
  -28.5019  -30.1074   27.6027 C   0  0  0  0  0  0  0  0  0  0  0  0
  -27.7448  -28.6229   25.3735 C   0  0  0  0  0  0  0  0  0  0  0  0
  -27.1788  -29.2028   20.3747 C   0  0  0  0  0  0  0  0  0  0  0  0
  -23.4177   -7.5140   20.9439 C   0  0  0  0  0  0  0  0  0  0  0  0
  -22.1749   -9.5659   21.2310 C   0  0  0  0  0  0  0  0  0  0  0  0
  -27.4340  -28.0919   19.5719 C   0  0  0  0  0  0  0  0  0  0  0  0
  -21.9889   -6.7591   23.9125 C   0  0  0  0  0  0  0  0  0  0  0  0
  -22.2254   -5.7447   24.8402 C   0  0  0  0  0  0  0  0  0  0  0  0
  -25.0644  -27.6667   19.4176 C   0  0  0  0  0  0  0  0  0  0  0  0
  -29.3522  -18.9044   17.8880 C   0  0  0  0  0  0  0  0  0  0  0  0
  -30.4565  -18.1153   20.3253 C   0  0  0  0  0  0  0  0  0  0  0  0
  -21.3017   -4.1246   23.3042 C   0  0  0  0  0  0  0  0  0  0  0  0
  -24.4437   -9.6335   20.4032 C   0  0  0  0  0  0  0  0  0  0  0  0
  -25.8663  -10.7480   18.6028 C   0  0  0  0  0  0  0  0  0  0  0  0
  -27.1538  -30.0926   27.2115 C   0  0  0  0  0  0  0  0  0  0  0  0
  -25.8629  -29.5483   20.7145 C   0  0  0  0  0  0  0  0  0  0  0  0
  -26.7673  -29.3339   26.0902 C   0  0  0  0  0  0  0  0  0  0  0  0
  -24.7951  -28.7840   20.2228 C   0  0  0  0  0  0  0  0  0  0  0  0
  -29.2778  -17.5702   18.2880 C   0  0  0  0  0  0  0  0  0  0  0  0
  -29.8299  -17.1756   19.5066 C   0  0  0  0  0  0  0  0  0  0  0  0
  -22.2472   -8.1754   21.3155 C   0  0  0  0  0  0  0  0  0  0  0  0
  -26.3769  -27.3220   19.0956 C   0  0  0  0  0  0  0  0  0  0  0  0
  -21.4087   -6.4563   22.6807 C   0  0  0  0  0  0  0  0  0  0  0  0
  -29.9789  -19.8440   18.7066 C   0  0  0  0  0  0  0  0  0  0  0  0
  -30.5310  -19.4495   19.9252 C   0  0  0  0  0  0  0  0  0  0  0  0
  -21.8819   -4.4274   24.5361 C   0  0  0  0  0  0  0  0  0  0  0  0
  -21.0652   -5.1391   22.3765 C   0  0  0  0  0  0  0  0  0  0  0  0
  -25.5780  -10.3871   19.9326 C   0  0  0  0  0  0  0  0  0  0  0  0
  -27.0437  -11.4505   18.6853 C   0  0  0  0  0  0  0  0  0  0  0  0
  -25.1352  -10.4730   17.4005 C   0  0  0  0  0  0  0  0  0  0  0  0
  -24.2363  -29.7811   23.4355 C   0  0  0  0  0  0  0  0  0  0  0  0
  -21.9191  -30.9603   21.4959 C   0  0  0  0  0  0  0  0  0  0  0  0
  -20.5819  -31.1468   18.3616 C   0  0  0  0  0  0  0  0  0  0  0  0
  -30.2673  -15.2861   21.1143 C   0  0  0  0  0  0  0  0  0  0  0  0
  -26.1465  -30.8395   28.0495 C   0  0  0  0  0  0  0  0  0  0  0  0
  -25.6030  -30.7652   21.5595 C   0  0  0  0  0  0  0  0  0  0  0  0
  -23.3631  -29.1244   20.5420 C   0  0  0  0  0  0  0  0  0  0  0  0
  -24.8095  -31.0562   27.3454 C   0  0  0  0  0  0  0  0  0  0  0  0
  -30.2747  -12.0232   22.5394 C   0  0  0  0  0  0  0  0  0  0  0  0
  -24.3373  -29.7638   26.6869 C   0  0  0  0  0  0  0  0  0  0  0  0
  -29.0772  -11.3364   21.8789 C   0  0  0  0  0  0  0  0  0  0  0  0
  -29.9981  -13.4992   22.8201 C   0  0  0  0  0  0  0  0  0  0  0  0
  -28.3383  -13.5885   21.0018 C   0  0  0  0  0  0  0  0  0  0  0  0
  -25.3305  -29.2951   25.6167 C   0  0  1  0  0  0  0  0  0  0  0  0
  -24.2516  -30.7245   22.2662 C   0  0  1  0  0  0  0  0  0  0  0  0
  -28.5929  -12.1159   20.6406 C   0  0  2  0  0  0  0  0  0  0  0  0
  -29.5997  -15.7183   16.6287 C   0  0  0  0  0  0  0  0  0  0  0  0
  -18.6652  -32.1557   17.0945 C   0  0  0  0  0  0  0  0  0  0  0  0
  -20.0396  -28.8669   22.6770 C   0  0  0  0  0  0  0  0  0  0  0  0
  -18.4876  -29.2775   20.7559 C   0  0  0  0  0  0  0  0  0  0  0  0
  -19.0133  -31.1237   22.3490 C   0  0  0  0  0  0  0  0  0  0  0  0
  -22.4009  -32.6895   16.6093 C   0  0  0  0  0  0  0  0  0  0  0  0
  -30.3311  -21.0252   21.6952 C   0  0  0  0  0  0  0  0  0  0  0  0
  -28.6020  -16.5850   17.3905 C   0  0  0  0  0  0  0  0  0  0  0  0
  -27.6929  -24.0769   18.1667 C   0  0  0  0  0  0  0  0  0  0  0  0
  -28.9820  -23.2964   18.3987 C   0  0  0  0  0  0  0  0  0  0  0  0
  -27.8547  -25.5481   18.5253 C   0  0  0  0  0  0  0  0  0  1  0  0
  -28.8089  -21.8178   18.0813 C   0  0  0  0  0  0  0  0  0  0  0  0
  -20.7789  -30.3630   20.7070 C   0  0  1  0  0  0  0  0  0  0  0  0
  -20.1097  -32.3305   17.5367 C   0  0  2  0  0  0  0  0  0  0  0  0
  -19.6068  -29.9000   21.6176 C   0  0  0  0  0  0  0  0  0  0  0  0
  -26.4981  -10.8240   20.7966 N   0  0  0  0  0  0  0  0  0  0  0  0
  -27.3762  -11.4667   20.0079 N   0  0  0  0  0  0  0  0  0  0  0  0
  -23.1608  -30.3200   21.3770 N   0  0  0  0  0  0  0  0  0  0  0  0
  -29.5478  -14.1742   21.6009 N   0  0  0  0  0  0  0  0  0  0  0  0
  -27.8166  -12.0497   17.7547 N   0  0  0  0  0  0  0  0  0  0  0  0
  -23.9454   -9.7383   17.4953 N   0  0  0  0  0  0  0  0  0  0  0  0
  -29.7643  -15.8252   19.9307 N   0  0  0  0  0  0  0  0  0  0  0  0
  -25.1746  -30.0738   24.4068 N   0  0  0  0  0  0  0  0  0  0  0  0
  -20.4039  -31.3617   19.7119 N   0  0  0  0  0  0  0  0  0  0  0  0
  -20.9578  -32.4861   16.3212 N   0  3  0  0  0  0  0  0  0  0  0  0
  -25.5339  -10.8530   16.2735 O   0  0  0  0  0  0  0  0  0  0  0  0
  -23.4318  -28.8569   23.4558 O   0  0  0  0  0  0  0  0  0  0  0  0
  -21.7172  -31.9623   22.1864 O   0  0  0  0  0  0  0  0  0  0  0  0
  -21.0576  -30.1315   17.8581 O   0  0  0  0  0  0  0  0  0  0  0  0
  -31.2728  -15.7106   21.6894 O   0  0  0  0  0  0  0  0  0  0  0  0
  -21.1753   -7.4644   21.7604 O   0  0  0  0  0  0  0  0  0  0  0  0
  -31.1456  -20.3579   20.7332 O   0  0  0  0  0  0  0  0  0  0  0  0
  -26.6231  -26.2367   18.3124 O   0  0  0  0  0  0  0  0  0  1  0  0
  -30.0446  -21.1523   18.3029 O   0  0  0  0  0  0  0  0  0  0  0  0
  -22.1105   -3.4532   25.4264 F   0  0  0  0  0  0  0  0  0  0  0  0
  -20.5086   -4.8419   21.1942 F   0  0  0  0  0  0  0  0  0  0  0  0
  1  2  1  0  0  0  0
  1  5  2  0  0  0  0
  2  6  2  0  0  0  0
  3  8  2  0  0  0  0
  3 17  1  0  0  0  0
  4  9  1  0  0  0  0
  4 17  2  0  0  0  0
  5 19  1  0  0  0  0
  6 21  1  0  0  0  0
  7 10  2  0  0  0  0
  7 20  1  0  0  0  0
  8 25  1  0  0  0  0
  9 25  2  0  0  0  0
 10 26  1  0  0  0  0
 11 12  2  0  0  0  0
 11 27  1  0  0  0  0
 12 30  1  0  0  0  0
 13 22  1  0  0  0  0
 13 26  2  0  0  0  0
 14 23  1  0  0  0  0
 14 28  2  0  0  0  0
 15 24  1  0  0  0  0
 15 29  2  0  0  0  0
 16 30  2  0  0  0  0
 16 31  1  0  0  0  0
 17 32  1  0  0  0  0
 18 32  1  0  0  0  0
 18 33  2  0  0  0  0
 18 34  1  0  0  0  0
 19 21  2  0  0  0  0
 19 39  1  0  0  0  0
 20 22  2  0  0  0  0
 20 40  1  0  0  0  0
 21 48  1  0  0  0  0
 22 41  1  0  0  0  0
 23 24  2  0  0  0  0
 23 58  1  0  0  0  0
 24 72  1  0  0  0  0
 25 81  1  0  0  0  0
 26 83  1  0  0  0  0
 27 31  2  0  0  0  0
 27 81  1  0  0  0  0
 28 29  1  0  0  0  0
 28 84  1  0  0  0  0
 29 82  1  0  0  0  0
 30 85  1  0  0  0  0
 31 86  1  0  0  0  0
 32 66  2  0  0  0  0
 33 67  1  0  0  0  0
 33 70  1  0  0  0  0
 34 71  1  0  0  0  0
 34 76  2  0  0  0  0
 35 49  1  0  0  0  0
 35 73  1  0  0  0  0
 35 77  2  0  0  0  0
 36 63  1  0  0  0  0
 36 68  1  0  0  0  0
 36 78  2  0  0  0  0
 37 64  1  0  0  0  0
 37 74  1  0  0  0  0
 37 79  2  0  0  0  0
 38 69  1  0  0  0  0
 38 72  1  0  0  0  0
 38 80  2  0  0  0  0
 39 42  1  0  0  0  0
 40 49  1  0  0  0  0
 41 68  1  0  0  0  0
 42 44  1  0  0  0  0
 43 45  1  0  0  0  0
 43 46  1  0  0  0  0
 44 48  1  0  0  0  0
 45 50  1  0  0  0  0
 46 69  1  0  0  0  0
 47 50  1  0  0  0  0
 47 69  1  0  0  0  0
 48 73  1  0  0  0  0
 49 68  1  0  0  0  0
 50 67  1  0  0  0  0
 51 58  1  0  0  0  0
 52 64  1  0  0  0  0
 53 65  1  0  0  0  0
 54 65  1  0  0  0  0
 55 65  1  0  0  0  0
 56 75  1  0  0  0  0
 57 82  1  0  0  0  0
 59 60  1  0  0  0  0
 59 61  1  0  0  0  0
 60 62  1  0  0  0  0
 61 83  1  0  0  0  0
 62 84  1  0  0  0  0
 63 65  1  0  0  0  0
 63 74  1  0  0  0  0
 64 75  1  0  0  0  0
 66 67  1  0  0  0  0
M  CHG  1  75   1
M  ISO  4  38 100  61 101  72 100  83 101
M  END
> <Batch ID>
0103

> <Smiles>
CCc1cc(OCCC[101CH2:1][101O:1]c2ccc3c(c2)CN(C(=O)C(NC(=O)C(C)NC)C(C)(C)C)C(C(=O)NC2CCCc4ccccc42)C3)c(OC)cc1[100NH:0][100C:0](=O)N1CCCC(n2nc(-c3ccc(Oc4ccc(F)cc4F)cc3)c(C(N)=O)c2N)C1

> <Shape>
0.283

> <Color>
0.106

> <Negative vol penalty>
0.000

$$$$

  -OEChem-04052301053D

 85 93  0     1  0  0  0  0  0999 V2000
  -21.5131  -27.4940   20.6612 C   0  0  0  0  0  0  0  0  0  0  0  0
  -22.2555  -26.5007   20.0306 C   0  0  0  0  0  0  0  0  0  0  0  0
  -21.9296  -18.1380   24.1552 C   0  0  0  0  0  0  0  0  0  0  0  0
  -21.7863  -19.4627   22.1398 C   0  0  0  0  0  0  0  0  0  0  0  0
  -22.1530  -28.6222   21.1728 C   0  0  0  0  0  0  0  0  0  0  0  0
  -23.6381  -26.6355   19.9104 C   0  0  0  0  0  0  0  0  0  0  0  0
  -27.8055  -22.1524   20.1139 C   0  0  0  0  0  0  0  0  0  0  0  0
  -20.8599  -18.8492   24.6988 C   0  0  0  0  0  0  0  0  0  0  0  0
  -20.7165  -20.1739   22.6834 C   0  0  0  0  0  0  0  0  0  0  0  0
  -28.4796  -21.4524   19.1143 C   0  0  0  0  0  0  0  0  0  0  0  0
  -20.2648  -22.6848   24.9019 C   0  0  0  0  0  0  0  0  0  0  0  0
  -20.2749  -24.0732   24.7683 C   0  0  0  0  0  0  0  0  0  0  0  0
  -30.3530  -22.9563   19.3328 C   0  0  0  0  0  0  0  0  0  0  0  0
  -28.7141  -13.8345   18.6981 C   0  0  0  0  0  0  0  0  0  0  0  0
  -28.5707  -13.1528   21.0115 C   0  0  0  0  0  0  0  0  0  0  0  0
  -29.8743  -15.0936   20.4027 C   0  0  0  0  0  0  0  0  0  0  0  0
  -18.1921  -23.9709   23.5482 C   0  0  0  0  0  0  0  0  0  0  0  0
  -22.3928  -18.4448   22.8757 C   0  0  0  0  0  0  0  0  0  0  0  0
  -23.4336  -16.5337   21.5445 C   0  0  0  0  0  0  0  0  0  0  0  0
  -23.5454  -28.7663   21.0674 C   0  0  0  0  0  0  0  0  0  0  0  0
  -28.3966  -23.2682   20.7239 C   0  0  0  0  0  0  0  0  0  0  0  0
  -24.2971  -27.7672   20.4200 C   0  0  0  0  0  0  0  0  0  0  0  0
  -29.6853  -23.6672   20.3417 C   0  0  0  0  0  0  0  0  0  0  0  0
  -28.2318  -12.9603   19.6722 C   0  0  0  0  0  0  0  0  0  0  0  0
  -29.5354  -14.9012   19.0634 C   0  0  0  0  0  0  0  0  0  0  0  0
  -29.3919  -14.2195   21.3768 C   0  0  0  0  0  0  0  0  0  0  0  0
  -20.2533  -19.8672   23.9629 C   0  0  0  0  0  0  0  0  0  0  0  0
  -29.7524  -21.8560   18.7216 C   0  0  0  0  0  0  0  0  0  0  0  0
  -19.2183  -21.9395   24.3587 C   0  0  0  0  0  0  0  0  0  0  0  0
  -19.2386  -24.7163   24.0914 C   0  0  0  0  0  0  0  0  0  0  0  0
  -18.1820  -22.5825   23.6818 C   0  0  0  0  0  0  0  0  0  0  0  0
  -23.4982  -17.7108   22.3139 C   0  0  0  0  0  0  0  0  0  0  0  0
  -24.7439  -16.2392   21.2568 C   0  0  0  0  0  0  0  0  0  0  0  0
  -22.2913  -15.7743   21.1272 C   0  0  0  0  0  0  0  0  0  0  0  0
  -27.6735  -26.3564   20.9325 C   0  0  0  0  0  0  0  0  0  0  0  0
  -30.2139  -26.4154   22.9487 C   0  0  0  0  0  0  0  0  0  0  0  0
  -30.8470  -16.8955   18.2606 C   0  0  0  0  0  0  0  0  0  0  0  0
  -33.1470  -24.9909   23.9559 C   0  0  0  0  0  0  0  0  0  0  0  0
  -30.0034  -15.6863   23.3173 C   0  0  0  0  0  0  0  0  0  0  0  0
  -24.1868  -30.0256   21.5939 C   0  0  0  0  0  0  0  0  0  0  0  0
  -27.6671  -23.9964   21.8193 C   0  0  0  0  0  0  0  0  0  0  0  0
  -30.3722  -24.8461   20.9795 C   0  0  0  0  0  0  0  0  0  0  0  0
  -25.7005  -29.9157   21.7574 C   0  0  0  0  0  0  0  0  0  0  0  0
  -28.9708  -18.9286   21.8632 C   0  0  0  0  0  0  0  0  0  0  0  0
  -26.3274  -29.2885   20.5163 C   0  0  0  0  0  0  0  0  0  0  0  0
  -27.4462  -18.8328   21.8688 C   0  0  0  0  0  0  0  0  0  0  0  0
  -29.5943  -18.1034   22.9848 C   0  0  0  0  0  0  0  0  0  0  0  0
  -27.6451  -16.5730   22.9802 C   0  0  0  0  0  0  0  0  0  0  0  0
  -25.8018  -27.8655   20.2920 C   0  0  1  0  0  0  0  0  0  0  0  0
  -28.1549  -25.4290   22.0122 C   0  0  1  0  0  0  0  0  0  0  0  0
  -26.9950  -17.3633   21.8348 C   0  0  1  0  0  0  0  0  0  0  0  0
  -35.0172  -25.2868   25.6028 C   0  0  0  0  0  0  0  0  0  0  0  0
  -31.3571  -28.6713   21.2417 C   0  0  0  0  0  0  0  0  0  0  0  0
  -33.5778  -28.2737   22.3274 C   0  0  0  0  0  0  0  0  0  0  0  0
  -31.6270  -28.9895   23.7075 C   0  0  0  0  0  0  0  0  0  0  0  0
  -30.0868  -13.2436   23.5575 C   0  0  0  0  0  0  0  0  0  0  0  0
  -32.5817  -22.3860   25.2419 C   0  0  0  0  0  0  0  0  0  0  0  0
  -31.1349  -17.5757   16.9293 C   0  0  0  0  0  0  0  0  0  0  0  0
  -31.3620  -19.0765   17.0735 C   0  0  0  0  0  0  0  0  0  0  0  0
  -30.1298  -19.7816   17.6213 C   0  0  0  0  0  0  0  0  0  1  0  0
  -31.6992  -26.6344   22.7909 C   0  0  1  0  0  0  0  0  0  0  0  0
  -33.6712  -24.6317   25.3345 C   0  0  2  0  0  0  0  0  0  0  0  0
  -32.0518  -28.1211   22.5033 C   0  0  0  0  0  0  0  0  0  0  0  0
  -24.7504  -18.1351   22.5031 N   0  0  0  0  0  0  0  0  0  0  0  0
  -25.4849  -17.2195   21.8486 N   0  0  0  0  0  0  0  0  0  0  0  0
  -29.6155  -25.5296   22.0415 N   0  0  0  0  0  0  0  0  0  0  0  0
  -29.1096  -16.7222   22.9765 N   0  0  0  0  0  0  0  0  0  0  0  0
  -27.4013  -11.8815   19.3028 N   0  0  0  0  0  0  0  0  0  0  0  0
  -25.3231  -15.2399   20.5579 N   0  0  0  0  0  0  0  0  0  0  0  0
  -21.0181  -16.2177   21.5100 N   0  0  0  0  0  0  0  0  0  0  0  0
  -30.0238  -15.7885   18.0750 N   0  0  0  0  0  0  0  0  0  0  0  0
  -26.4487  -26.9393   21.1965 N   0  0  0  0  0  0  0  0  0  0  0  0
  -32.3216  -26.0947   23.9949 N   0  0  0  0  0  0  0  0  0  0  0  0
  -29.7404  -14.4195   22.7622 N   0  0  0  0  0  0  0  0  0  0  0  0
  -33.8339  -23.1555   25.4584 N   0  3  0  0  0  0  0  0  0  0  0  0
  -22.3975  -14.7243   20.4491 O   0  0  0  0  0  0  0  0  0  0  0  0
  -28.3628  -26.5314   19.9346 O   0  0  0  0  0  0  0  0  0  0  0  0
  -29.6083  -27.0030   23.8485 O   0  0  0  0  0  0  0  0  0  0  0  0
  -31.3063  -17.3137   19.3182 O   0  0  0  0  0  0  0  0  0  0  0  0
  -33.4434  -24.3581   22.9449 O   0  0  0  0  0  0  0  0  0  0  0  0
  -30.9397  -15.8631   24.1064 O   0  0  0  0  0  0  0  0  0  0  0  0
  -19.2093  -20.5612   24.4929 O   0  0  0  0  0  0  0  0  0  0  0  0
  -30.4124  -21.1748   17.7457 O   0  0  0  0  0  0  0  0  0  1  0  0
  -19.2477  -26.0497   23.9645 F   0  0  0  0  0  0  0  0  0  0  0  0
  -17.1734  -21.8719   23.1588 F   0  0  0  0  0  0  0  0  0  0  0  0
  1  2  1  0  0  0  0
  1  5  2  0  0  0  0
  2  6  2  0  0  0  0
  3  8  2  0  0  0  0
  3 18  1  0  0  0  0
  4  9  1  0  0  0  0
  4 18  2  0  0  0  0
  5 20  1  0  0  0  0
  6 22  1  0  0  0  0
  7 10  2  0  0  0  0
  7 21  1  0  0  0  0
  8 27  1  0  0  0  0
  9 27  2  0  0  0  0
 10 28  1  0  0  0  0
 11 12  2  0  0  0  0
 11 29  1  0  0  0  0
 12 30  1  0  0  0  0
 13 23  1  0  0  0  0
 13 28  2  0  0  0  0
 14 24  2  0  0  0  0
 14 25  1  0  0  0  0
 15 24  1  0  0  0  0
 15 26  2  0  0  0  0
 16 25  2  0  0  0  0
 16 26  1  0  0  0  0
 17 30  2  0  0  0  0
 17 31  1  0  0  0  0
 18 32  1  0  0  0  0
 19 32  1  0  0  0  0
 19 33  2  0  0  0  0
 19 34  1  0  0  0  0
 20 22  2  0  0  0  0
 20 40  1  0  0  0  0
 21 23  2  0  0  0  0
 21 41  1  0  0  0  0
 22 49  1  0  0  0  0
 23 42  1  0  0  0  0
 24 68  1  0  0  0  0
 25 71  1  0  0  0  0
 26 74  1  0  0  0  0
 27 82  1  0  0  0  0
 28 83  1  0  0  0  0
 29 31  2  0  0  0  0
 29 82  1  0  0  0  0
 30 84  1  0  0  0  0
 31 85  1  0  0  0  0
 32 64  2  0  0  0  0
 33 65  1  0  0  0  0
 33 69  1  0  0  0  0
 34 70  1  0  0  0  0
 34 76  2  0  0  0  0
 35 50  1  0  0  0  0
 35 72  1  0  0  0  0
 35 77  2  0  0  0  0
 36 61  1  0  0  0  0
 36 66  1  0  0  0  0
 36 78  2  0  0  0  0
 37 58  1  0  0  0  0
 37 71  1  0  0  0  0
 37 79  2  0  0  0  0
 38 62  1  0  0  0  0
 38 73  1  0  0  0  0
 38 80  2  0  0  0  0
 39 67  1  0  0  0  0
 39 74  1  0  0  0  0
 39 81  2  0  0  0  0
 40 43  1  0  0  0  0
 41 50  1  0  0  0  0
 42 66  1  0  0  0  0
 43 45  1  0  0  0  0
 44 46  1  0  0  0  0
 44 47  1  0  0  0  0
 45 49  1  0  0  0  0
 46 51  1  0  0  0  0
 47 67  1  0  0  0  0
 48 51  1  0  0  0  0
 48 67  1  0  0  0  0
 49 72  1  0  0  0  0
 50 66  1  0  0  0  0
 51 65  1  0  0  0  0
 52 62  1  0  0  0  0
 53 63  1  0  0  0  0
 54 63  1  0  0  0  0
 55 63  1  0  0  0  0
 56 74  1  0  0  0  0
 57 75  1  0  0  0  0
 58 59  1  0  0  0  0
 59 60  1  0  0  0  0
 60 83  1  0  0  0  0
 61 63  1  0  0  0  0
 61 73  1  0  0  0  0
 62 75  1  0  0  0  0
 64 65  1  0  0  0  0
M  CHG  1  75   1
M  ISO  4  39 100  60 101  74 100  83 101
M  END
> <Batch ID>
0103

> <Smiles>
CNC(C)C(=O)NC(C(=O)N1Cc2cc([101O:1][101CH2:1]CCC(=O)Nc3cc(N)cc([100N:0](C)[100C:0](=O)N4CCCC(n5nc(-c6ccc(Oc7ccc(F)cc7F)cc6)c(C(N)=O)c5N)C4)c3)ccc2CC1C(=O)NC1CCCc2ccccc21)C(C)(C)C

> <Shape>
0.163

> <Color>
0.087

> <Negative vol penalty>
0.000

$$$$

  -OEChem-04052301053D

 84 92  0     1  0  0  0  0  0999 V2000
  -27.3759  -35.3808   23.2221 C   0  0  0  0  0  0  0  0  0  0  0  0
  -27.6887  -34.0392   23.0278 C   0  0  0  0  0  0  0  0  0  0  0  0
  -24.6066   -9.7911   22.9451 C   0  0  0  0  0  0  0  0  0  0  0  0
  -24.1032  -12.0061   23.7681 C   0  0  0  0  0  0  0  0  0  0  0  0
  -26.0927  -35.7445   23.6282 C   0  0  0  0  0  0  0  0  0  0  0  0
  -26.7185  -33.0604   23.2406 C   0  0  0  0  0  0  0  0  0  0  0  0
  -26.6306  -29.5806   19.5625 C   0  0  0  0  0  0  0  0  0  0  0  0
  -28.4845  -18.6176   21.2917 C   0  0  0  0  0  0  0  0  0  0  0  0
  -24.2272   -9.2486   24.1728 C   0  0  0  0  0  0  0  0  0  0  0  0
  -23.7237  -11.4636   24.9958 C   0  0  0  0  0  0  0  0  0  0  0  0
  -27.6187  -28.5974   19.5924 C   0  0  0  0  0  0  0  0  0  0  0  0
  -28.6757  -19.9906   21.4466 C   0  0  0  0  0  0  0  0  0  0  0  0
  -21.3497   -8.4872   25.7770 C   0  0  0  0  0  0  0  0  0  0  0  0
  -20.5332   -7.3565   25.7615 C   0  0  0  0  0  0  0  0  0  0  0  0
  -26.0474  -27.0567   20.5804 C   0  0  0  0  0  0  0  0  0  0  0  0
  -30.5690  -18.4641   20.0799 C   0  0  0  0  0  0  0  0  0  0  0  0
  -22.2288   -6.1157   26.9541 C   0  0  0  0  0  0  0  0  0  0  0  0
  -24.5447  -11.1698   22.7427 C   0  0  0  0  0  0  0  0  0  0  0  0
  -24.1146  -11.9600   20.3556 C   0  0  0  0  0  0  0  0  0  0  0  0
  -25.1036  -34.7704   23.8366 C   0  0  0  0  0  0  0  0  0  0  0  0
  -25.3443  -29.3120   20.0523 C   0  0  0  0  0  0  0  0  0  0  0  0
  -25.4212  -33.4113   23.6511 C   0  0  0  0  0  0  0  0  0  0  0  0
  -25.0440  -28.0373   20.5533 C   0  0  0  0  0  0  0  0  0  0  0  0
  -29.4312  -17.8543   20.6084 C   0  0  0  0  0  0  0  0  0  0  0  0
  -23.7857  -10.0849   25.1982 C   0  0  0  0  0  0  0  0  0  0  0  0
  -27.3280  -27.3362   20.1040 C   0  0  0  0  0  0  0  0  0  0  0  0
  -29.8135  -20.6003   20.9182 C   0  0  0  0  0  0  0  0  0  0  0  0
  -22.6059   -8.4322   26.3810 C   0  0  0  0  0  0  0  0  0  0  0  0
  -30.7602  -19.8371   20.2348 C   0  0  0  0  0  0  0  0  0  0  0  0
  -20.9727   -6.1707   26.3500 C   0  0  0  0  0  0  0  0  0  0  0  0
  -23.0454   -7.2464   26.9695 C   0  0  0  0  0  0  0  0  0  0  0  0
  -24.9371  -11.7308   21.4749 C   0  0  0  0  0  0  0  0  0  0  0  0
  -24.9570  -12.5016   19.4156 C   0  0  0  0  0  0  0  0  0  0  0  0
  -22.7143  -11.7061   20.1812 C   0  0  0  0  0  0  0  0  0  0  0  0
  -23.5471  -30.4840   22.3975 C   0  0  0  0  0  0  0  0  0  0  0  0
  -29.0952  -24.1455   20.6282 C   0  0  0  0  0  0  0  0  0  0  0  0
  -21.2939  -28.5307   21.1208 C   0  0  0  0  0  0  0  0  0  0  0  0
  -20.5788  -25.7541   19.2697 C   0  0  0  0  0  0  0  0  0  0  0  0
  -30.0774  -15.5574   19.8003 C   0  0  0  0  0  0  0  0  0  0  0  0
  -23.7440  -35.2083   24.3210 C   0  0  0  0  0  0  0  0  0  0  0  0
  -24.2821  -30.3751   19.9884 C   0  0  0  0  0  0  0  0  0  0  0  0
  -23.6730  -27.6921   21.0725 C   0  0  0  0  0  0  0  0  0  0  0  0
  -22.6671  -34.1381   24.1625 C   0  0  0  0  0  0  0  0  0  0  0  0
  -29.5493  -12.4981   18.0572 C   0  0  0  0  0  0  0  0  0  0  0  0
  -23.1768  -32.7899   24.6620 C   0  0  0  0  0  0  0  0  0  0  0  0
  -28.2286  -11.9780   18.6296 C   0  0  0  0  0  0  0  0  0  0  0  0
  -30.3974  -13.1877   19.1243 C   0  0  0  0  0  0  0  0  0  0  0  0
  -28.3901  -13.7270   20.4467 C   0  0  0  0  0  0  0  0  0  0  0  0
  -24.3890  -32.3222   23.8476 C   0  0  1  0  0  0  0  0  0  0  0  0
  -23.1510  -30.1503   20.9871 C   0  0  1  0  0  0  0  0  0  0  0  0
  -27.4728  -13.0817   19.3951 C   0  0  2  0  0  0  0  0  0  0  0  0
  -18.6470  -24.3899   18.4305 C   0  0  0  0  0  0  0  0  0  0  0  0
  -20.9307  -27.3368   23.9052 C   0  0  0  0  0  0  0  0  0  0  0  0
  -19.7399  -25.4060   22.8458 C   0  0  0  0  0  0  0  0  0  0  0  0
  -18.8033  -27.7092   22.6441 C   0  0  0  0  0  0  0  0  0  0  0  0
  -21.3103  -26.2438   16.4441 C   0  0  0  0  0  0  0  0  0  0  0  0
  -31.7862  -20.9070   18.3752 C   0  0  0  0  0  0  0  0  0  0  0  0
  -27.9237  -25.1051   20.6726 C   0  0  0  0  0  0  0  0  0  1  0  0
  -28.8272  -22.7512   21.1564 C   0  0  0  0  0  0  0  0  0  0  0  0
  -20.8775  -27.0955   21.3351 C   0  0  1  0  0  0  0  0  0  0  0  0
  -19.6070  -25.5292   18.1254 C   0  0  2  0  0  0  0  0  0  0  0  0
  -20.1143  -26.8937   22.6746 C   0  0  0  0  0  0  0  0  0  0  0  0
  -26.2047  -12.0968   21.2668 N   0  0  0  0  0  0  0  0  0  0  0  0
  -26.1851  -12.5613   20.0059 N   0  0  0  0  0  0  0  0  0  0  0  0
  -22.6701  -28.7671   20.9945 N   0  0  0  0  0  0  0  0  0  0  0  0
  -29.6172  -14.2237   19.8047 N   0  0  0  0  0  0  0  0  0  0  0  0
  -24.7596  -12.9278   18.1500 N   0  0  0  0  0  0  0  0  0  0  0  0
  -21.9988  -11.1461   21.2483 N   0  0  0  0  0  0  0  0  0  0  0  0
  -29.2363  -16.4597   20.4506 N   0  0  0  0  0  0  0  0  0  0  0  0
  -23.9650  -31.7897   22.5705 N   0  0  0  0  0  0  0  0  0  0  0  0
  -20.1182  -26.7096   20.1507 N   0  0  0  0  0  0  0  0  0  0  0  0
  -20.3470  -25.1982   16.8749 N   0  3  0  0  0  0  0  0  0  0  0  0
  -22.1188  -11.9527   19.1051 O   0  0  0  0  0  0  0  0  0  0  0  0
  -23.4773  -29.6212   23.2649 O   0  0  0  0  0  0  0  0  0  0  0  0
  -30.1957  -24.4781   20.1909 O   0  0  0  0  0  0  0  0  0  0  0  0
  -20.4295  -29.4086   21.0602 O   0  0  0  0  0  0  0  0  0  0  0  0
  -21.6388  -25.1408   19.3738 O   0  0  0  0  0  0  0  0  0  0  0  0
  -31.1260  -15.8803   19.2362 O   0  0  0  0  0  0  0  0  0  0  0  0
  -23.4151   -9.5559   26.3962 O   0  0  0  0  0  0  0  0  0  0  0  0
  -31.8748  -20.4211   19.7132 O   0  0  0  0  0  0  0  0  0  0  0  0
  -28.2908  -26.3750   20.1349 O   0  0  0  0  0  0  0  0  0  1  0  0
  -29.9902  -21.9545   21.0768 O   0  0  0  0  0  0  0  0  0  0  0  0
  -20.1878   -5.0854   26.3364 F   0  0  0  0  0  0  0  0  0  0  0  0
  -24.2507   -7.1878   27.5523 F   0  0  0  0  0  0  0  0  0  0  0  0
  1  2  1  0  0  0  0
  1  5  2  0  0  0  0
  2  6  2  0  0  0  0
  3  9  2  0  0  0  0
  3 18  1  0  0  0  0
  4 10  1  0  0  0  0
  4 18  2  0  0  0  0
  5 20  1  0  0  0  0
  6 22  1  0  0  0  0
  7 11  2  0  0  0  0
  7 21  1  0  0  0  0
  8 12  2  0  0  0  0
  8 24  1  0  0  0  0
  9 25  1  0  0  0  0
 10 25  2  0  0  0  0
 11 26  1  0  0  0  0
 12 27  1  0  0  0  0
 13 14  2  0  0  0  0
 13 28  1  0  0  0  0
 14 30  1  0  0  0  0
 15 23  1  0  0  0  0
 15 26  2  0  0  0  0
 16 24  2  0  0  0  0
 16 29  1  0  0  0  0
 17 30  2  0  0  0  0
 17 31  1  0  0  0  0
 18 32  1  0  0  0  0
 19 32  1  0  0  0  0
 19 33  2  0  0  0  0
 19 34  1  0  0  0  0
 20 22  2  0  0  0  0
 20 40  1  0  0  0  0
 21 23  2  0  0  0  0
 21 41  1  0  0  0  0
 22 49  1  0  0  0  0
 23 42  1  0  0  0  0
 24 69  1  0  0  0  0
 25 79  1  0  0  0  0
 26 81  1  0  0  0  0
 27 29  2  0  0  0  0
 27 82  1  0  0  0  0
 28 31  2  0  0  0  0
 28 79  1  0  0  0  0
 29 80  1  0  0  0  0
 30 83  1  0  0  0  0
 31 84  1  0  0  0  0
 32 63  2  0  0  0  0
 33 64  1  0  0  0  0
 33 67  1  0  0  0  0
 34 68  1  0  0  0  0
 34 73  2  0  0  0  0
 35 50  1  0  0  0  0
 35 70  1  0  0  0  0
 35 74  2  0  0  0  0
 36 58  1  0  0  0  0
 36 59  1  0  0  0  0
 36 75  2  0  0  0  0
 37 60  1  0  0  0  0
 37 65  1  0  0  0  0
 37 76  2  0  0  0  0
 38 61  1  0  0  0  0
 38 71  1  0  0  0  0
 38 77  2  0  0  0  0
 39 66  1  0  0  0  0
 39 69  1  0  0  0  0
 39 78  2  0  0  0  0
 40 43  1  0  0  0  0
 41 50  1  0  0  0  0
 42 65  1  0  0  0  0
 43 45  1  0  0  0  0
 44 46  1  0  0  0  0
 44 47  1  0  0  0  0
 45 49  1  0  0  0  0
 46 51  1  0  0  0  0
 47 66  1  0  0  0  0
 48 51  1  0  0  0  0
 48 66  1  0  0  0  0
 49 70  1  0  0  0  0
 50 65  1  0  0  0  0
 51 64  1  0  0  0  0
 52 61  1  0  0  0  0
 53 62  1  0  0  0  0
 54 62  1  0  0  0  0
 55 62  1  0  0  0  0
 56 72  1  0  0  0  0
 57 80  1  0  0  0  0
 58 81  1  0  0  0  0
 59 82  1  0  0  0  0
 60 62  1  0  0  0  0
 60 71  1  0  0  0  0
 61 72  1  0  0  0  0
 63 64  1  0  0  0  0
M  CHG  1  72   1
M  ISO  4  39 100  58 101  69 100  81 101
M  END
> <Batch ID>
0103

> <Smiles>
CNC(C)C(=O)NC(C(=O)N1Cc2cc([101O:1][101CH2:1]C(=O)COc3ccc([100NH:0][100C:0](=O)N4CCCC(n5nc(-c6ccc(Oc7ccc(F)cc7F)cc6)c(C(N)=O)c5N)C4)cc3OC)ccc2CC1C(=O)NC1CCCc2ccccc21)C(C)(C)C

> <Shape>
0.305

> <Color>
0.093

> <Negative vol penalty>
0.000

$$$$

  -OEChem-04052301053D

 86 94  0     1  0  0  0  0  0999 V2000
  -29.0797  -31.4427   26.6124 C   0  0  0  0  0  0  0  0  0  0  0  0
  -29.3705  -30.3681   25.7781 C   0  0  0  0  0  0  0  0  0  0  0  0
  -23.2026   -9.8099   19.9196 C   0  0  0  0  0  0  0  0  0  0  0  0
  -23.8639   -9.8871   22.2420 C   0  0  0  0  0  0  0  0  0  0  0  0
  -27.7554  -31.8310   26.8112 C   0  0  0  0  0  0  0  0  0  0  0  0
  -28.3371  -29.6804   25.1430 C   0  0  0  0  0  0  0  0  0  0  0  0
  -29.3311  -28.7528   20.2648 C   0  0  0  0  0  0  0  0  0  0  0  0
  -22.5163   -8.6185   20.1546 C   0  0  0  0  0  0  0  0  0  0  0  0
  -23.1775   -8.6958   22.4770 C   0  0  0  0  0  0  0  0  0  0  0  0
  -30.1977  -27.6982   19.9810 C   0  0  0  0  0  0  0  0  0  0  0  0
  -23.6818   -5.3900   21.9782 C   0  0  0  0  0  0  0  0  0  0  0  0
  -24.3244   -4.4104   22.7351 C   0  0  0  0  0  0  0  0  0  0  0  0
  -28.3064  -26.2865   19.4815 C   0  0  0  0  0  0  0  0  0  0  0  0
  -29.8400  -18.9170   22.8633 C   0  0  0  0  0  0  0  0  0  0  0  0
  -31.9963  -18.8473   21.7757 C   0  0  0  0  0  0  0  0  0  0  0  0
  -22.5457   -4.5047   24.3674 C   0  0  0  0  0  0  0  0  0  0  0  0
  -23.8764  -10.4442   20.9633 C   0  0  0  0  0  0  0  0  0  0  0  0
  -24.0775  -12.9834   20.8225 C   0  0  0  0  0  0  0  0  0  0  0  0
  -26.7059  -31.1537   26.1706 C   0  0  0  0  0  0  0  0  0  0  0  0
  -27.9429  -28.5787   20.1696 C   0  0  0  0  0  0  0  0  0  0  0  0
  -26.9974  -30.0590   25.3345 C   0  0  0  0  0  0  0  0  0  0  0  0
  -27.4244  -27.3412   19.7623 C   0  0  0  0  0  0  0  0  0  0  0  0
  -29.9641  -17.5681   23.1959 C   0  0  0  0  0  0  0  0  0  0  0  0
  -31.1043  -16.8588   22.8184 C   0  0  0  0  0  0  0  0  0  0  0  0
  -30.8561  -19.5566   22.1532 C   0  0  0  0  0  0  0  0  0  0  0  0
  -22.5037   -8.0615   21.4333 C   0  0  0  0  0  0  0  0  0  0  0  0
  -29.6853  -26.4640   19.5920 C   0  0  0  0  0  0  0  0  0  0  0  0
  -22.4711   -5.9271   22.4160 C   0  0  0  0  0  0  0  0  0  0  0  0
  -23.7564   -3.9677   23.9296 C   0  0  0  0  0  0  0  0  0  0  0  0
  -32.1204  -17.4983   22.1083 C   0  0  0  0  0  0  0  0  0  0  0  0
  -21.9031   -5.4844   23.6106 C   0  0  0  0  0  0  0  0  0  0  0  0
  -24.5860  -11.6746   20.7210 C   0  0  0  0  0  0  0  0  0  0  0  0
  -25.1391  -13.7906   20.4942 C   0  0  0  0  0  0  0  0  0  0  0  0
  -22.7630  -13.4295   21.1815 C   0  0  0  0  0  0  0  0  0  0  0  0
  -25.5159  -28.7437   22.2156 C   0  0  0  0  0  0  0  0  0  0  0  0
  -31.2820  -23.0738   20.9037 C   0  0  0  0  0  0  0  0  0  0  0  0
  -23.7366  -28.3294   19.5351 C   0  0  0  0  0  0  0  0  0  0  0  0
  -23.5545  -27.1771   16.3280 C   0  0  0  0  0  0  0  0  0  0  0  0
  -30.8888  -14.0812   21.1033 C   0  0  0  0  0  0  0  0  0  0  0  0
  -25.2871  -31.5801   26.4535 C   0  0  0  0  0  0  0  0  0  0  0  0
  -27.0225  -29.7340   20.4534 C   0  0  0  0  0  0  0  0  0  0  0  0
  -25.9427  -27.1086   19.6251 C   0  0  0  0  0  0  0  0  0  0  0  0
  -24.2755  -31.0350   25.4487 C   0  0  0  0  0  0  0  0  0  0  0  0
  -29.3712  -13.1473   18.0208 C   0  0  0  0  0  0  0  0  0  0  0  0
  -24.5139  -29.5484   25.2040 C   0  0  0  0  0  0  0  0  0  0  0  0
  -27.9353  -12.7940   18.4123 C   0  0  0  0  0  0  0  0  0  0  0  0
  -30.3696  -12.7250   19.0964 C   0  0  0  0  0  0  0  0  0  0  0  0
  -28.6360  -12.8759   20.8415 C   0  0  0  0  0  0  0  0  0  0  0  0
  -25.9056  -29.3036   24.6084 C   0  0  1  0  0  0  0  0  0  0  0  0
  -25.6084  -29.2951   20.8209 C   0  0  1  0  0  0  0  0  0  0  0  0
  -27.5873  -13.3328   19.8130 C   0  0  2  0  0  0  0  0  0  0  0  0
  -28.8631  -16.9047   23.9562 C   0  0  0  0  0  0  0  0  0  0  0  0
  -21.9577  -26.9443   14.4061 C   0  0  0  0  0  0  0  0  0  0  0  0
  -22.3837  -25.9865   20.9461 C   0  0  0  0  0  0  0  0  0  0  0  0
  -21.5285  -25.2291   18.7184 C   0  0  0  0  0  0  0  0  0  0  0  0
  -20.8368  -27.4457   19.6299 C   0  0  0  0  0  0  0  0  0  0  0  0
  -25.2307  -28.8766   14.5784 C   0  0  0  0  0  0  0  0  0  0  0  0
  -31.2558  -15.4138   23.1645 C   0  0  0  0  0  0  0  0  0  0  0  0
  -32.2504  -23.9649   20.1373 C   0  0  0  0  0  0  0  0  0  0  0  0
  -31.7310  -21.6386   21.0923 C   0  0  0  0  0  0  0  0  0  0  0  0
  -31.7712  -25.4034   20.0166 C   0  0  0  0  0  0  0  0  0  1  0  0
  -23.1988  -27.1362   18.7828 C   0  0  1  0  0  0  0  0  0  0  0  0
  -23.0215  -27.8143   15.0574 C   0  0  2  0  0  0  0  0  0  0  0  0
  -22.0149  -26.4529   19.5237 C   0  0  0  0  0  0  0  0  0  0  0  0
  -25.8707  -11.6474   20.3566 N   0  0  0  0  0  0  0  0  0  0  0  0
  -26.1784  -12.9491   20.2262 N   0  0  0  0  0  0  0  0  0  0  0  0
  -25.0834  -28.2672   19.9197 N   0  0  0  0  0  0  0  0  0  0  0  0
  -29.9831  -13.2699   20.4001 N   0  0  0  0  0  0  0  0  0  0  0  0
  -25.2756  -15.1311   20.4115 N   0  0  0  0  0  0  0  0  0  0  0  0
  -21.7917  -12.4671   21.4893 N   0  0  0  0  0  0  0  0  0  0  0  0
  -30.7333  -20.8982   21.8226 N   0  0  0  0  0  0  0  0  0  0  0  0
  -25.9162  -29.6289   23.1982 N   0  0  0  0  0  0  0  0  0  0  0  0
  -22.8705  -27.6122   17.4434 N   0  0  0  0  0  0  0  0  0  0  0  0
  -30.4408  -14.5616   22.3277 N   0  0  0  0  0  0  0  0  0  0  0  0
  -24.1258  -28.0190   14.0779 N   0  3  0  0  0  0  0  0  0  0  0  0
  -22.4544  -14.6449   21.2120 O   0  0  0  0  0  0  0  0  0  0  0  0
  -25.1099  -27.6003   22.3875 O   0  0  0  0  0  0  0  0  0  0  0  0
  -30.2088  -23.4905   21.3374 O   0  0  0  0  0  0  0  0  0  0  0  0
  -22.9911  -29.2845   19.7666 O   0  0  0  0  0  0  0  0  0  0  0  0
  -24.4822  -26.3710   16.3303 O   0  0  0  0  0  0  0  0  0  0  0  0
  -32.0114  -14.3614   20.6694 O   0  0  0  0  0  0  0  0  0  0  0  0
  -21.8339   -6.8991   21.6631 O   0  0  0  0  0  0  0  0  0  0  0  0
  -30.5289  -25.4328   19.3150 O   0  0  0  0  0  0  0  0  0  1  0  0
  -24.3729   -3.0258   24.6556 F   0  0  0  0  0  0  0  0  0  0  0  0
  -33.2200  -16.8256   21.7407 F   0  0  0  0  0  0  0  0  0  0  0  0
  -20.7397   -5.9957   24.0356 F   0  0  0  0  0  0  0  0  0  0  0  0
  1  2  1  0  0  0  0
  1  5  2  0  0  0  0
  2  6  2  0  0  0  0
  3  8  2  0  0  0  0
  3 17  1  0  0  0  0
  4  9  1  0  0  0  0
  4 17  2  0  0  0  0
  5 19  1  0  0  0  0
  6 21  1  0  0  0  0
  7 10  2  0  0  0  0
  7 20  1  0  0  0  0
  8 26  1  0  0  0  0
  9 26  2  0  0  0  0
 10 27  1  0  0  0  0
 11 12  2  0  0  0  0
 11 28  1  0  0  0  0
 12 29  1  0  0  0  0
 13 22  1  0  0  0  0
 13 27  2  0  0  0  0
 14 23  2  0  0  0  0
 14 25  1  0  0  0  0
 15 25  2  0  0  0  0
 15 30  1  0  0  0  0
 16 29  2  0  0  0  0
 16 31  1  0  0  0  0
 17 32  1  0  0  0  0
 18 32  1  0  0  0  0
 18 33  2  0  0  0  0
 18 34  1  0  0  0  0
 19 21  2  0  0  0  0
 19 40  1  0  0  0  0
 20 22  2  0  0  0  0
 20 41  1  0  0  0  0
 21 49  1  0  0  0  0
 22 42  1  0  0  0  0
 23 24  1  0  0  0  0
 23 52  1  0  0  0  0
 24 30  2  0  0  0  0
 24 58  1  0  0  0  0
 25 71  1  0  0  0  0
 26 82  1  0  0  0  0
 27 83  1  0  0  0  0
 28 31  2  0  0  0  0
 28 82  1  0  0  0  0
 29 84  1  0  0  0  0
 30 85  1  0  0  0  0
 31 86  1  0  0  0  0
 32 65  2  0  0  0  0
 33 66  1  0  0  0  0
 33 69  1  0  0  0  0
 34 70  1  0  0  0  0
 34 76  2  0  0  0  0
 35 50  1  0  0  0  0
 35 72  1  0  0  0  0
 35 77  2  0  0  0  0
 36 59  1  0  0  0  0
 36 60  1  0  0  0  0
 36 78  2  0  0  0  0
 37 62  1  0  0  0  0
 37 67  1  0  0  0  0
 37 79  2  0  0  0  0
 38 63  1  0  0  0  0
 38 73  1  0  0  0  0
 38 80  2  0  0  0  0
 39 68  1  0  0  0  0
 39 74  1  0  0  0  0
 39 81  2  0  0  0  0
 40 43  1  0  0  0  0
 41 50  1  0  0  0  0
 42 67  1  0  0  0  0
 43 45  1  0  0  0  0
 44 46  1  0  0  0  0
 44 47  1  0  0  0  0
 45 49  1  0  0  0  0
 46 51  1  0  0  0  0
 47 68  1  0  0  0  0
 48 51  1  0  0  0  0
 48 68  1  0  0  0  0
 49 72  1  0  0  0  0
 50 67  1  0  0  0  0
 51 66  1  0  0  0  0
 53 63  1  0  0  0  0
 54 64  1  0  0  0  0
 55 64  1  0  0  0  0
 56 64  1  0  0  0  0
 57 75  1  0  0  0  0
 58 74  1  0  0  0  0
 59 61  1  0  0  0  0
 60 71  1  0  0  0  0
 61 83  1  0  0  0  0
 62 64  1  0  0  0  0
 62 73  1  0  0  0  0
 63 75  1  0  0  0  0
 65 66  1  0  0  0  0
M  CHG  1  75   1
M  ISO  4  39 100  61 101  74 100  83 101
M  END
> <Batch ID>
0103

> <Smiles>
CNC(C)C(=O)NC(C(=O)N1Cc2cc([101O:1][101CH2:1]CC(=O)CNc3cc(C)c(C[100NH:0][100C:0](=O)N4CCCC(n5nc(-c6ccc(Oc7ccc(F)cc7F)cc6)c(C(N)=O)c5N)C4)c(F)c3)ccc2CC1C(=O)NC1CCCc2ccccc21)C(C)(C)C

> <Shape>
0.334

> <Color>
0.230

> <Negative vol penalty>
0.000

$$$$

  -OEChem-04052301053D

 85 94  0     1  0  0  0  0  0999 V2000
  -26.5985  -28.6606   12.1833 C   0  0  0  0  0  0  0  0  0  0  0  0
  -25.8701  -28.9486   13.3330 C   0  0  0  0  0  0  0  0  0  0  0  0
  -26.1850  -12.7765   21.2915 C   0  0  0  0  0  0  0  0  0  0  0  0
  -26.5484  -12.7802   18.9030 C   0  0  0  0  0  0  0  0  0  0  0  0
  -21.7271  -24.1251   21.4111 C   0  0  0  0  0  0  0  0  0  0  0  0
  -22.4186  -24.4429   23.7041 C   0  0  0  0  0  0  0  0  0  0  0  0
  -27.3938  -27.5167   12.1316 C   0  0  0  0  0  0  0  0  0  0  0  0
  -25.9358  -28.0921   14.4314 C   0  0  0  0  0  0  0  0  0  0  0  0
  -25.7085  -29.6656   20.3457 C   0  0  0  0  0  0  0  0  0  0  0  0
  -21.1432  -25.3918   21.4115 C   0  0  0  0  0  0  0  0  0  0  0  0
  -21.8348  -25.7097   23.7045 C   0  0  0  0  0  0  0  0  0  0  0  0
  -25.7487  -11.4534   21.2230 C   0  0  0  0  0  0  0  0  0  0  0  0
  -26.1122  -11.4571   18.8345 C   0  0  0  0  0  0  0  0  0  0  0  0
  -24.6717  -29.6630   21.2778 C   0  0  0  0  0  0  0  0  0  0  0  0
  -24.1982   -8.1887   21.6244 C   0  0  0  0  0  0  0  0  0  0  0  0
  -23.0458   -7.8468   22.3320 C   0  0  0  0  0  0  0  0  0  0  0  0
  -25.3957  -27.5019   22.0681 C   0  0  0  0  0  0  0  0  0  0  0  0
  -21.7809   -9.4571   21.0499 C   0  0  0  0  0  0  0  0  0  0  0  0
  -26.5848  -13.4399   20.1314 C   0  0  0  0  0  0  0  0  0  0  0  0
  -22.3648  -23.6506   22.5574 C   0  0  0  0  0  0  0  0  0  0  0  0
  -28.3532  -15.2584   20.4025 C   0  0  0  0  0  0  0  0  0  0  0  0
  -27.4769  -26.6508   13.2334 C   0  0  0  0  0  0  0  0  0  0  0  0
  -26.5916  -28.5797   20.2603 C   0  0  0  0  0  0  0  0  0  0  0  0
  -26.7319  -26.9347   14.3939 C   0  0  0  0  0  0  0  0  0  0  0  0
  -26.4445  -27.4943   21.1358 C   0  0  0  0  0  0  0  0  0  0  0  0
  -21.1970  -26.1842   22.5582 C   0  0  0  0  0  0  0  0  0  0  0  0
  -25.7123  -10.7937   19.9946 C   0  0  0  0  0  0  0  0  0  0  0  0
  -24.5134  -28.5798   22.1373 C   0  0  0  0  0  0  0  0  0  0  0  0
  -24.1420   -9.1648   20.6296 C   0  0  0  0  0  0  0  0  0  0  0  0
  -21.8372   -8.4810   22.0447 C   0  0  0  0  0  0  0  0  0  0  0  0
  -22.9333   -9.7990   20.3423 C   0  0  0  0  0  0  0  0  0  0  0  0
  -27.0351  -14.8068   20.2014 C   0  0  0  0  0  0  0  0  0  0  0  0
  -28.2528  -16.6282   20.3885 C   0  0  0  0  0  0  0  0  0  0  0  0
  -19.4789  -27.8883   21.8012 C   0  0  0  0  0  0  0  0  0  0  0  0
  -22.9747  -22.3302   22.5575 C   0  0  0  0  0  0  0  0  0  0  0  0
  -22.9891  -21.4740   21.5137 C   0  0  0  0  0  0  0  0  0  0  0  0
  -29.5605  -14.5070   20.5855 C   0  0  0  0  0  0  0  0  0  0  0  0
  -23.6605  -20.1677   21.6674 C   0  0  0  0  0  0  0  0  0  0  0  0
  -27.3297  -26.4603   18.0093 C   0  0  0  0  0  0  0  0  0  0  0  0
  -29.5902  -25.5541   20.1519 C   0  0  0  0  0  0  0  0  0  0  0  0
  -30.6167  -25.4343   23.4044 C   0  0  0  0  0  0  0  0  0  0  0  0
  -28.3130  -25.4014   13.1134 C   0  0  0  0  0  0  0  0  0  0  0  0
  -27.7210  -28.6097   19.2674 C   0  0  0  0  0  0  0  0  0  0  0  0
  -27.3780  -26.3130   21.0983 C   0  0  0  0  0  0  0  0  0  0  0  0
  -19.1972  -29.3335   22.1376 C   0  0  0  0  0  0  0  0  0  0  0  0
  -28.6208  -24.7432   14.4559 C   0  0  0  0  0  0  0  0  0  0  0  0
  -19.9221  -29.5374   23.4545 C   0  0  0  0  0  0  0  0  0  0  0  0
  -25.6353  -20.1826   18.5800 C   0  0  0  0  0  0  0  0  0  0  0  0
  -27.3582  -24.6499   15.3067 C   0  0  0  0  0  0  0  0  0  0  0  0
  -26.3031  -18.8119   18.6520 C   0  0  0  0  0  0  0  0  0  0  0  0
  -24.2298  -20.1659   19.1790 C   0  0  0  0  0  0  0  0  0  0  0  0
  -24.8503  -18.2671   20.6452 C   0  0  0  0  0  0  0  0  0  0  0  0
  -26.7965  -26.0431   15.6150 C   0  0  1  0  0  0  0  0  0  0  0  0
  -28.2497  -27.2211   18.9216 C   0  0  1  0  0  0  0  0  0  0  0  0
  -26.2835  -18.2717   20.0907 C   0  0  1  0  0  0  0  0  0  0  0  0
  -21.1140  -28.5912   23.3617 C   0  0  2  0  0  0  0  0  0  0  0  0
  -32.4895  -24.5967   24.8495 C   0  0  0  0  0  0  0  0  0  0  0  0
  -28.5078  -22.7122   19.9033 C   0  0  0  0  0  0  0  0  0  0  0  0
  -29.7354  -22.1350   22.0075 C   0  0  0  0  0  0  0  0  0  0  0  0
  -31.0019  -22.8747   19.9897 C   0  0  0  0  0  0  0  0  0  0  0  0
  -31.2847  -28.1671   24.3235 C   0  0  0  0  0  0  0  0  0  0  0  0
  -22.3103  -29.2777   22.6985 C   0  0  0  0  0  0  0  0  0  1  0  0
  -29.6476  -24.5663   21.2921 C   0  0  1  0  0  0  0  0  0  0  0  0
  -31.9460  -25.7736   24.0543 C   0  0  2  0  0  0  0  0  0  0  0  0
  -29.7042  -23.0933   20.7978 C   0  0  0  0  0  0  0  0  0  0  0  0
  -26.1614  -15.8084   20.0695 N   0  0  0  0  0  0  0  0  0  0  0  0
  -26.9320  -16.9030   20.1880 N   0  0  0  0  0  0  0  0  0  0  0  0
  -20.5995  -27.4856   22.5584 N   0  0  0  0  0  0  0  0  0  0  0  0
  -24.2283  -19.5911   20.5326 N   0  0  0  0  0  0  0  0  0  0  0  0
  -28.4629  -26.3865   20.1058 N   0  0  0  0  0  0  0  0  0  0  0  0
  -29.1662  -17.6123   20.5283 N   0  0  0  0  0  0  0  0  0  0  0  0
  -29.4848  -13.1075   20.5725 N   0  0  0  0  0  0  0  0  0  0  0  0
  -27.5649  -26.6769   16.6649 N   0  0  0  0  0  0  0  0  0  0  0  0
  -30.7820  -24.9631   22.1192 N   0  0  0  0  0  0  0  0  0  0  0  0
  -31.7902  -26.9328   24.9778 N   0  3  0  0  0  0  0  0  0  0  0  0
  -18.8156  -27.2701   20.9811 O   0  0  0  0  0  0  0  0  0  0  0  0
  -30.6708  -15.0601   20.7718 O   0  0  0  0  0  0  0  0  0  0  0  0
  -23.6734  -19.6638   22.7919 O   0  0  0  0  0  0  0  0  0  0  0  0
  -26.4710  -25.7297   18.4894 O   0  0  0  0  0  0  0  0  0  0  0  0
  -30.5151  -25.5908   19.3365 O   0  0  0  0  0  0  0  0  0  0  0  0
  -29.5396  -25.5700   23.9807 O   0  0  0  0  0  0  0  0  0  0  0  0
  -25.2868   -9.5026   19.9274 O   0  0  0  0  0  0  0  0  0  0  0  0
  -23.5019  -28.5745   23.0476 O   0  0  0  0  0  0  0  0  0  1  0  0
  -20.7303   -8.1515   22.7233 F   0  0  0  0  0  0  0  0  0  0  0  0
  -22.8728  -10.7367   19.3869 F   0  0  0  0  0  0  0  0  0  0  0  0
  1  2  1  0  0  0  0
  1  7  2  0  0  0  0
  2  8  2  0  0  0  0
  3 12  2  0  0  0  0
  3 19  1  0  0  0  0
  4 13  1  0  0  0  0
  4 19  2  0  0  0  0
  5 10  2  0  0  0  0
  5 20  1  0  0  0  0
  6 11  1  0  0  0  0
  6 20  2  0  0  0  0
  7 22  1  0  0  0  0
  8 24  1  0  0  0  0
  9 14  2  0  0  0  0
  9 23  1  0  0  0  0
 10 26  1  0  0  0  0
 11 26  2  0  0  0  0
 12 27  1  0  0  0  0
 13 27  2  0  0  0  0
 14 28  1  0  0  0  0
 15 16  2  0  0  0  0
 15 29  1  0  0  0  0
 16 30  1  0  0  0  0
 17 25  1  0  0  0  0
 17 28  2  0  0  0  0
 18 30  2  0  0  0  0
 18 31  1  0  0  0  0
 19 32  1  0  0  0  0
 20 35  1  0  0  0  0
 21 32  1  0  0  0  0
 21 33  2  0  0  0  0
 21 37  1  0  0  0  0
 22 24  2  0  0  0  0
 22 42  1  0  0  0  0
 23 25  2  0  0  0  0
 23 43  1  0  0  0  0
 24 53  1  0  0  0  0
 25 44  1  0  0  0  0
 26 68  1  0  0  0  0
 27 82  1  0  0  0  0
 28 83  1  0  0  0  0
 29 31  2  0  0  0  0
 29 82  1  0  0  0  0
 30 84  1  0  0  0  0
 31 85  1  0  0  0  0
 32 66  2  0  0  0  0
 33 67  1  0  0  0  0
 33 71  1  0  0  0  0
 34 45  1  0  0  0  0
 34 68  1  0  0  0  0
 34 76  2  0  0  0  0
 35 36  2  0  0  0  0
 36 38  1  0  0  0  0
 37 72  1  0  0  0  0
 37 77  2  0  0  0  0
 38 69  1  0  0  0  0
 38 78  2  0  0  0  0
 39 54  1  0  0  0  0
 39 73  1  0  0  0  0
 39 79  2  0  0  0  0
 40 63  1  0  0  0  0
 40 70  1  0  0  0  0
 40 80  2  0  0  0  0
 41 64  1  0  0  0  0
 41 74  1  0  0  0  0
 41 81  2  0  0  0  0
 42 46  1  0  0  0  0
 43 54  1  0  0  0  0
 44 70  1  0  0  0  0
 45 47  1  0  0  0  0
 46 49  1  0  0  0  0
 47 56  1  0  0  0  0
 48 50  1  0  0  0  0
 48 51  1  0  0  0  0
 49 53  1  0  0  0  0
 50 55  1  0  0  0  0
 51 69  1  0  0  0  0
 52 55  1  0  0  0  0
 52 69  1  0  0  0  0
 53 73  1  0  0  0  0
 54 70  1  0  0  0  0
 55 67  1  0  0  0  0
 56 62  1  0  0  0  0
 56 68  1  0  0  0  0
 57 64  1  0  0  0  0
 58 65  1  0  0  0  0
 59 65  1  0  0  0  0
 60 65  1  0  0  0  0
 61 75  1  0  0  0  0
 62 83  1  0  0  0  0
 63 65  1  0  0  0  0
 63 74  1  0  0  0  0
 64 75  1  0  0  0  0
 66 67  1  0  0  0  0
M  CHG  1  75   1
M  ISO  4  36 100  38 100  62 101  83 101
M  END
> <Batch ID>
0103

> <Smiles>
CNC(C)C(=O)NC(C(=O)N1Cc2cc([101O:1][101CH2:1]C3CCC(=O)N3c3ccc(C=[100CH:0][100C:0](=O)N4CCCC(n5nc(-c6ccc(Oc7ccc(F)cc7F)cc6)c(C(N)=O)c5N)C4)cc3)ccc2CC1C(=O)NC1CCCc2ccccc21)C(C)(C)C

> <Shape>
0.230

> <Color>
0.079

> <Negative vol penalty>
0.000

$$$$

  -OEChem-04052301053D

 85 93  0     1  0  0  0  0  0999 V2000
  -30.1110  -34.5436   16.5586 C   0  0  0  0  0  0  0  0  0  0  0  0
  -30.2169  -33.1864   16.8453 C   0  0  0  0  0  0  0  0  0  0  0  0
  -24.6375   -8.3166   21.3287 C   0  0  0  0  0  0  0  0  0  0  0  0
  -23.2483  -10.2668   21.6515 C   0  0  0  0  0  0  0  0  0  0  0  0
  -29.3879  -35.3800   17.4080 C   0  0  0  0  0  0  0  0  0  0  0  0
  -29.6006  -32.6650   17.9823 C   0  0  0  0  0  0  0  0  0  0  0  0
  -27.0564  -27.1263   18.5783 C   0  0  0  0  0  0  0  0  0  0  0  0
  -23.9482   -7.6571   22.3463 C   0  0  0  0  0  0  0  0  0  0  0  0
  -22.5590   -9.6072   22.6691 C   0  0  0  0  0  0  0  0  0  0  0  0
  -27.5244  -25.9333   19.1274 C   0  0  0  0  0  0  0  0  0  0  0  0
  -20.9976   -6.0485   22.7194 C   0  0  0  0  0  0  0  0  0  0  0  0
  -20.6081   -4.7292   22.4890 C   0  0  0  0  0  0  0  0  0  0  0  0
  -26.2513  -17.9292   20.5056 C   0  0  0  0  0  0  0  0  0  0  0  0
  -26.4203  -26.4637   21.2056 C   0  0  0  0  0  0  0  0  0  0  0  0
  -28.6039  -18.4213   20.2602 C   0  0  0  0  0  0  0  0  0  0  0  0
  -21.9248   -4.0098   24.3827 C   0  0  0  0  0  0  0  0  0  0  0  0
  -24.2876   -9.6215   20.9813 C   0  0  0  0  0  0  0  0  0  0  0  0
  -25.9742  -19.2939   20.5852 C   0  0  0  0  0  0  0  0  0  0  0  0
  -24.6885  -10.3093   18.5577 C   0  0  0  0  0  0  0  0  0  0  0  0
  -28.7543  -34.8669   18.5507 C   0  0  0  0  0  0  0  0  0  0  0  0
  -26.2746  -28.0036   19.3435 C   0  0  0  0  0  0  0  0  0  0  0  0
  -28.8695  -33.4956   18.8485 C   0  0  0  0  0  0  0  0  0  0  0  0
  -25.9415  -27.6660   20.6630 C   0  0  0  0  0  0  0  0  0  0  0  0
  -27.0118  -20.2223   20.5022 C   0  0  0  0  0  0  0  0  0  0  0  0
  -27.5662  -17.4929   20.3432 C   0  0  0  0  0  0  0  0  0  0  0  0
  -22.9089   -8.3024   23.0164 C   0  0  0  0  0  0  0  0  0  0  0  0
  -27.2088  -25.6032   20.4421 C   0  0  0  0  0  0  0  0  0  0  0  0
  -21.8507   -6.3486   23.7814 C   0  0  0  0  0  0  0  0  0  0  0  0
  -28.3267  -19.7860   20.3397 C   0  0  0  0  0  0  0  0  0  0  0  0
  -21.0716   -3.7098   23.3206 C   0  0  0  0  0  0  0  0  0  0  0  0
  -22.3143   -5.3292   24.6130 C   0  0  0  0  0  0  0  0  0  0  0  0
  -24.9997  -10.3035   19.9307 C   0  0  0  0  0  0  0  0  0  0  0  0
  -25.6597  -11.0964   17.9888 C   0  0  0  0  0  0  0  0  0  0  0  0
  -23.6172   -9.6613   17.8591 C   0  0  0  0  0  0  0  0  0  0  0  0
  -24.5767  -19.7307   20.7581 C   0  0  0  0  0  0  0  0  0  0  0  0
  -26.6056  -30.9970   20.3601 C   0  0  0  0  0  0  0  0  0  0  0  0
  -23.5620  -30.5690   21.3973 C   0  0  0  0  0  0  0  0  0  0  0  0
  -21.1089  -28.4032   22.3660 C   0  0  0  0  0  0  0  0  0  0  0  0
  -29.0956  -15.5059   20.0999 C   0  0  0  0  0  0  0  0  0  0  0  0
  -28.0233  -35.8184   19.4644 C   0  0  0  0  0  0  0  0  0  0  0  0
  -25.7553  -29.2740   18.7279 C   0  0  0  0  0  0  0  0  0  0  0  0
  -25.0886  -28.5640   21.5201 C   0  0  0  0  0  0  0  0  0  0  0  0
  -27.0866  -35.1205   20.4472 C   0  0  0  0  0  0  0  0  0  0  0  0
  -30.2057  -12.4693   18.6085 C   0  0  0  0  0  0  0  0  0  0  0  0
  -27.7879  -33.9351   21.1030 C   0  0  0  0  0  0  0  0  0  0  0  0
  -28.9666  -11.5720   18.6478 C   0  0  0  0  0  0  0  0  0  0  0  0
  -30.3074  -13.3506   19.8522 C   0  0  0  0  0  0  0  0  0  0  0  0
  -27.8693  -13.2468   20.1899 C   0  0  0  0  0  0  0  0  0  0  0  0
  -28.1943  -32.8881   20.0590 C   0  0  1  0  0  0  0  0  0  0  0  0
  -25.3958  -30.3358   19.7626 C   0  0  1  0  0  0  0  0  0  0  0  0
  -27.6890  -12.3873   18.9280 C   0  0  2  0  0  0  0  0  0  0  0  0
  -18.7405  -28.3520   23.1940 C   0  0  0  0  0  0  0  0  0  0  0  0
  -24.5103  -31.4588   24.1575 C   0  0  0  0  0  0  0  0  0  0  0  0
  -22.4066  -30.4955   25.1140 C   0  0  0  0  0  0  0  0  0  0  0  0
  -22.2843  -32.3718   23.4747 C   0  0  0  0  0  0  0  0  0  0  0  0
  -20.2015  -26.8377   20.0241 C   0  0  0  0  0  0  0  0  0  0  0  0
  -30.6648  -20.1424   20.0905 C   0  0  0  0  0  0  0  0  0  0  0  0
  -26.7208  -21.6994   20.5862 C   0  0  0  0  0  0  0  0  0  0  0  0
  -27.0743  -22.3209   21.9391 C   0  0  0  0  0  0  0  0  0  0  0  0
  -26.8570  -23.8289   21.9861 C   0  0  0  0  0  0  0  0  0  1  0  0
  -22.9275  -30.0629   22.6702 C   0  0  1  0  0  0  0  0  0  0  0  0
  -19.6463  -28.2970   21.9736 C   0  0  2  0  0  0  0  0  0  0  0  0
  -23.0499  -31.0810   23.8388 C   0  0  0  0  0  0  0  0  0  0  0  0
  -26.0840  -11.0292   20.2167 N   0  0  0  0  0  0  0  0  0  0  0  0
  -26.4626  -11.4982   19.0156 N   0  0  0  0  0  0  0  0  0  0  0  0
  -24.6101  -29.7979   20.8750 N   0  0  0  0  0  0  0  0  0  0  0  0
  -29.0627  -14.0961   20.0518 N   0  0  0  0  0  0  0  0  0  0  0  0
  -25.8969  -11.4770   16.7155 N   0  0  0  0  0  0  0  0  0  0  0  0
  -22.7081   -8.8907   18.5968 N   0  0  0  0  0  0  0  0  0  0  0  0
  -27.8475  -16.1066   20.2609 N   0  0  0  0  0  0  0  0  0  0  0  0
  -27.0470  -32.1023   19.6580 N   0  0  0  0  0  0  0  0  0  0  0  0
  -21.5544  -29.7075   22.3286 N   0  0  0  0  0  0  0  0  0  0  0  0
  -19.3937  -27.0143   21.2583 N   0  3  0  0  0  0  0  0  0  0  0  0
  -24.1175  -19.8726   21.9517 O   0  5  0  0  0  0  0  0  0  0  0  0
  -23.4800   -9.7492   16.6154 O   0  0  0  0  0  0  0  0  0  0  0  0
  -23.8655  -19.9542   19.7094 O   0  0  0  0  0  0  0  0  0  0  0  0
  -27.1009  -30.5393   21.3833 O   0  0  0  0  0  0  0  0  0  0  0  0
  -23.1384  -31.6063   20.8814 O   0  0  0  0  0  0  0  0  0  0  0  0
  -21.7873  -27.4271   22.6784 O   0  0  0  0  0  0  0  0  0  0  0  0
  -30.1498  -16.1350   19.9779 O   0  0  0  0  0  0  0  0  0  0  0  0
  -22.2359   -7.6591   24.0093 O   0  0  0  0  0  0  0  0  0  0  0  0
  -29.3535  -20.6779   20.2561 O   0  0  0  0  0  0  0  0  0  0  0  0
  -27.6648  -24.4397   20.9808 O   0  0  0  0  0  0  0  0  0  1  0  0
  -20.6963   -2.4430   23.1002 F   0  0  0  0  0  0  0  0  0  0  0  0
  -23.1331   -5.6114   25.6356 F   0  0  0  0  0  0  0  0  0  0  0  0
  1  2  1  0  0  0  0
  1  5  2  0  0  0  0
  2  6  2  0  0  0  0
  3  8  2  0  0  0  0
  3 17  1  0  0  0  0
  4  9  1  0  0  0  0
  4 17  2  0  0  0  0
  5 20  1  0  0  0  0
  6 22  1  0  0  0  0
  7 10  2  0  0  0  0
  7 21  1  0  0  0  0
  8 26  1  0  0  0  0
  9 26  2  0  0  0  0
 10 27  1  0  0  0  0
 11 12  2  0  0  0  0
 11 28  1  0  0  0  0
 12 30  1  0  0  0  0
 13 18  1  0  0  0  0
 13 25  2  0  0  0  0
 14 23  1  0  0  0  0
 14 27  2  0  0  0  0
 15 25  1  0  0  0  0
 15 29  2  0  0  0  0
 16 30  2  0  0  0  0
 16 31  1  0  0  0  0
 17 32  1  0  0  0  0
 18 24  2  0  0  0  0
 18 35  1  0  0  0  0
 19 32  1  0  0  0  0
 19 33  2  0  0  0  0
 19 34  1  0  0  0  0
 20 22  2  0  0  0  0
 20 40  1  0  0  0  0
 21 23  2  0  0  0  0
 21 41  1  0  0  0  0
 22 49  1  0  0  0  0
 23 42  1  0  0  0  0
 24 29  1  0  0  0  0
 24 58  1  0  0  0  0
 25 70  1  0  0  0  0
 26 81  1  0  0  0  0
 27 83  1  0  0  0  0
 28 31  2  0  0  0  0
 28 81  1  0  0  0  0
 29 82  1  0  0  0  0
 30 84  1  0  0  0  0
 31 85  1  0  0  0  0
 32 64  2  0  0  0  0
 33 65  1  0  0  0  0
 33 68  1  0  0  0  0
 34 69  1  0  0  0  0
 34 75  2  0  0  0  0
 35 74  1  0  0  0  0
 35 76  2  0  0  0  0
 36 50  1  0  0  0  0
 36 71  1  0  0  0  0
 36 77  2  0  0  0  0
 37 61  1  0  0  0  0
 37 66  1  0  0  0  0
 37 78  2  0  0  0  0
 38 62  1  0  0  0  0
 38 72  1  0  0  0  0
 38 79  2  0  0  0  0
 39 67  1  0  0  0  0
 39 70  1  0  0  0  0
 39 80  2  0  0  0  0
 40 43  1  0  0  0  0
 41 50  1  0  0  0  0
 42 66  1  0  0  0  0
 43 45  1  0  0  0  0
 44 46  1  0  0  0  0
 44 47  1  0  0  0  0
 45 49  1  0  0  0  0
 46 51  1  0  0  0  0
 47 67  1  0  0  0  0
 48 51  1  0  0  0  0
 48 67  1  0  0  0  0
 49 71  1  0  0  0  0
 50 66  1  0  0  0  0
 51 65  1  0  0  0  0
 52 62  1  0  0  0  0
 53 63  1  0  0  0  0
 54 63  1  0  0  0  0
 55 63  1  0  0  0  0
 56 73  1  0  0  0  0
 57 82  1  0  0  0  0
 58 59  1  0  0  0  0
 59 60  1  0  0  0  0
 60 83  1  0  0  0  0
 61 63  1  0  0  0  0
 61 72  1  0  0  0  0
 62 73  1  0  0  0  0
 64 65  1  0  0  0  0
M  CHG  2  73   1  74  -1
M  ISO  4  39 100  60 101  70 100  83 101
M  END
> <Batch ID>
0103

> <Smiles>
CNC(C)C(=O)NC(C(=O)N1Cc2cc([101O:1][101CH2:1]CCc3c(OC)cc([100NH:0][100C:0](=O)N4CCCC(n5nc(-c6ccc(Oc7ccc(F)cc7F)cc6)c(C(N)=O)c5N)C4)cc3C(=O)O)ccc2CC1C(=O)NC1CCCc2ccccc21)C(C)(C)C

> <Shape>
0.270

> <Color>
0.100

> <Negative vol penalty>
0.000

$$$$

  -OEChem-04052301053D

 85 93  0     1  0  0  0  0  0999 V2000
  -19.5481  -24.0949   23.2082 C   0  0  0  0  0  0  0  0  0  0  0  0
  -20.8846  -24.3171   22.8924 C   0  0  0  0  0  0  0  0  0  0  0  0
  -26.0927  -11.7401   21.5334 C   0  0  0  0  0  0  0  0  0  0  0  0
  -25.6078  -12.7931   19.4137 C   0  0  0  0  0  0  0  0  0  0  0  0
  -18.6326  -25.1441   23.1374 C   0  0  0  0  0  0  0  0  0  0  0  0
  -21.3062  -25.5884   22.5045 C   0  0  0  0  0  0  0  0  0  0  0  0
  -25.6168  -26.9805   24.7686 C   0  0  0  0  0  0  0  0  0  0  0  0
  -28.3274  -18.6548   17.1893 C   0  0  0  0  0  0  0  0  0  0  0  0
  -24.7513  -11.8561   21.8979 C   0  0  0  0  0  0  0  0  0  0  0  0
  -24.2664  -12.9091   19.7782 C   0  0  0  0  0  0  0  0  0  0  0  0
  -26.8015  -26.4427   24.2678 C   0  0  0  0  0  0  0  0  0  0  0  0
  -28.3952  -19.7609   18.0364 C   0  0  0  0  0  0  0  0  0  0  0  0
  -21.8469  -10.2493   21.2534 C   0  0  0  0  0  0  0  0  0  0  0  0
  -21.2350   -9.1392   21.8356 C   0  0  0  0  0  0  0  0  0  0  0  0
  -30.5770  -19.0490   18.7913 C   0  0  0  0  0  0  0  0  0  0  0  0
  -27.2105  -28.4879   23.0557 C   0  0  0  0  0  0  0  0  0  0  0  0
  -20.7732  -10.4354   23.8215 C   0  0  0  0  0  0  0  0  0  0  0  0
  -26.5210  -12.2086   20.2913 C   0  0  0  0  0  0  0  0  0  0  0  0
  -30.5091  -17.9428   17.9443 C   0  0  0  0  0  0  0  0  0  0  0  0
  -28.5148  -11.0136   19.2406 C   0  0  0  0  0  0  0  0  0  0  0  0
  -19.0450  -26.4311   22.7578 C   0  0  0  0  0  0  0  0  0  0  0  0
  -25.2138  -28.2742   24.4075 C   0  0  0  0  0  0  0  0  0  0  0  0
  -20.3951  -26.6555   22.4273 C   0  0  0  0  0  0  0  0  0  0  0  0
  -26.0215  -29.0408   23.5554 C   0  0  0  0  0  0  0  0  0  0  0  0
  -29.3843  -17.7457   17.1433 C   0  0  0  0  0  0  0  0  0  0  0  0
  -23.8382  -12.4406   21.0203 C   0  0  0  0  0  0  0  0  0  0  0  0
  -29.5200  -19.9580   18.8374 C   0  0  0  0  0  0  0  0  0  0  0  0
  -27.5971  -27.1953   23.4089 C   0  0  0  0  0  0  0  0  0  0  0  0
  -21.9220  -11.4524   21.9553 C   0  0  0  0  0  0  0  0  0  0  0  0
  -20.6981   -9.2323   23.1196 C   0  0  0  0  0  0  0  0  0  0  0  0
  -21.3851  -11.5455   23.2393 C   0  0  0  0  0  0  0  0  0  0  0  0
  -27.9066  -12.0896   19.9145 C   0  0  0  0  0  0  0  0  0  0  0  0
  -29.8323  -11.3834   19.1220 C   0  0  0  0  0  0  0  0  0  0  0  0
  -31.6270  -17.0094   17.9156 C   0  0  0  0  0  0  0  0  0  0  0  0
  -27.9403   -9.7893   18.7643 C   0  0  0  0  0  0  0  0  0  0  0  0
  -32.4721  -16.7841   19.1108 C   0  0  0  0  0  0  0  0  0  0  0  0
  -22.7110  -29.4991   22.8781 C   0  0  0  0  0  0  0  0  0  0  0  0
  -24.0629  -32.3212   23.7329 C   0  0  0  0  0  0  0  0  0  0  0  0
  -26.8776  -34.0332   24.6237 C   0  0  0  0  0  0  0  0  0  0  0  0
  -18.0099  -27.5228   22.6501 C   0  0  0  0  0  0  0  0  0  0  0  0
  -23.9465  -28.8498   24.9776 C   0  0  0  0  0  0  0  0  0  0  0  0
  -25.6437  -30.4423   23.1533 C   0  0  0  0  0  0  0  0  0  0  0  0
  -18.6083  -28.9260   22.5922 C   0  0  0  0  0  0  0  0  0  0  0  0
  -33.2034  -14.0069   21.2577 C   0  0  0  0  0  0  0  0  0  0  0  0
  -19.7662  -28.9720   21.6003 C   0  0  0  0  0  0  0  0  0  0  0  0
  -31.9648  -13.1216   21.1240 C   0  0  0  0  0  0  0  0  0  0  0  0
  -32.8438  -15.4867   21.1716 C   0  0  0  0  0  0  0  0  0  0  0  0
  -30.8481  -14.9683   19.7942 C   0  0  0  0  0  0  0  0  0  0  0  0
  -20.8956  -28.0262   22.0263 C   0  0  1  0  0  0  0  0  0  0  0  0
  -23.3744  -29.9859   24.1353 C   0  0  1  0  0  0  0  0  0  0  0  0
  -31.1751  -13.4658   19.8485 C   0  0  2  0  0  0  0  0  0  0  0  0
  -29.2854  -16.5698   16.2272 C   0  0  0  0  0  0  0  0  0  0  0  0
  -27.6759  -36.3354   25.2233 C   0  0  0  0  0  0  0  0  0  0  0  0
  -23.9429  -33.1261   20.7922 C   0  0  0  0  0  0  0  0  0  0  0  0
  -25.5716  -34.9587   21.2993 C   0  0  0  0  0  0  0  0  0  0  0  0
  -23.3317  -34.9440   22.3971 C   0  0  0  0  0  0  0  0  0  0  0  0
  -27.7490  -33.1566   27.3128 C   0  0  0  0  0  0  0  0  0  0  0  0
  -29.8407  -23.4336   21.3416 C   0  0  0  0  0  0  0  0  0  0  0  0
  -30.7608  -23.0671   20.1770 C   0  0  0  0  0  0  0  0  0  0  0  0
  -29.7546  -24.9377   21.5951 C   0  0  0  0  0  0  0  0  0  0  0  0
  -30.8801  -21.5677   19.9395 C   0  0  0  0  0  0  0  0  0  0  0  0
  -28.8029  -25.2575   22.7402 C   0  0  0  0  0  0  0  0  0  1  0  0
  -25.0725  -33.2550   23.1102 C   0  0  1  0  0  0  0  0  0  0  0  0
  -27.1463  -35.0118   25.7527 C   0  0  2  0  0  0  0  0  0  0  0  0
  -24.4861  -34.0438   21.9056 C   0  0  0  0  0  0  0  0  0  0  0  0
  -28.7670  -13.0694   20.2038 N   0  0  0  0  0  0  0  0  0  0  0  0
  -31.9543  -16.3191   16.8583 N   0  0  0  0  0  0  0  0  0  0  0  0
  -29.9293  -12.6104   19.7095 N   0  0  0  0  0  0  0  0  0  0  0  0
  -32.0644  -15.7722   19.9687 N   0  0  0  0  0  0  0  0  0  0  0  0
  -24.3922  -30.9583   23.7320 N   0  0  0  0  0  0  0  0  0  0  0  0
  -30.9056  -10.7754   18.5736 N   0  0  0  0  0  0  0  0  0  0  0  0
  -26.5713   -9.5696   18.9692 N   0  0  0  0  0  0  0  0  0  0  0  0
  -21.6715  -28.6152   23.0965 N   0  0  0  0  0  0  0  0  0  0  0  0
  -25.5697  -34.0985   24.1917 N   0  0  0  0  0  0  0  0  0  0  0  0
  -28.1507  -34.4482   26.6985 N   0  3  0  0  0  0  0  0  0  0  0  0
  -28.6241   -8.9089   18.1892 O   0  0  0  0  0  0  0  0  0  0  0  0
  -33.4452  -17.5193   19.2147 O   0  0  0  0  0  0  0  0  0  0  0  0
  -23.1114  -29.8972   21.7905 O   0  0  0  0  0  0  0  0  0  0  0  0
  -23.0237  -32.7847   24.2091 O   0  0  0  0  0  0  0  0  0  0  0  0
  -27.7423  -33.2882   24.1679 O   0  0  0  0  0  0  0  0  0  0  0  0
  -22.5291  -12.5538   21.3756 O   0  0  0  0  0  0  0  0  0  0  0  0
  -29.5857  -21.0443   19.6701 O   0  0  0  0  0  0  0  0  0  0  0  0
  -28.7537  -26.6726   22.9181 O   0  0  0  0  0  0  0  0  0  1  0  0
  -20.1092   -8.1667   23.6780 F   0  0  0  0  0  0  0  0  0  0  0  0
  -21.4532  -12.6989   23.9180 F   0  0  0  0  0  0  0  0  0  0  0  0
  1  2  1  0  0  0  0
  1  5  2  0  0  0  0
  2  6  2  0  0  0  0
  3  9  2  0  0  0  0
  3 18  1  0  0  0  0
  4 10  1  0  0  0  0
  4 18  2  0  0  0  0
  5 21  1  0  0  0  0
  6 23  1  0  0  0  0
  7 11  2  0  0  0  0
  7 22  1  0  0  0  0
  8 12  2  0  0  0  0
  8 25  1  0  0  0  0
  9 26  1  0  0  0  0
 10 26  2  0  0  0  0
 11 28  1  0  0  0  0
 12 27  1  0  0  0  0
 13 14  2  0  0  0  0
 13 29  1  0  0  0  0
 14 30  1  0  0  0  0
 15 19  1  0  0  0  0
 15 27  2  0  0  0  0
 16 24  1  0  0  0  0
 16 28  2  0  0  0  0
 17 30  2  0  0  0  0
 17 31  1  0  0  0  0
 18 32  1  0  0  0  0
 19 25  2  0  0  0  0
 19 34  1  0  0  0  0
 20 32  1  0  0  0  0
 20 33  2  0  0  0  0
 20 35  1  0  0  0  0
 21 23  2  0  0  0  0
 21 40  1  0  0  0  0
 22 24  2  0  0  0  0
 22 41  1  0  0  0  0
 23 49  1  0  0  0  0
 24 42  1  0  0  0  0
 25 52  1  0  0  0  0
 26 81  1  0  0  0  0
 27 82  1  0  0  0  0
 28 83  1  0  0  0  0
 29 31  2  0  0  0  0
 29 81  1  0  0  0  0
 30 84  1  0  0  0  0
 31 85  1  0  0  0  0
 32 66  2  0  0  0  0
 33 68  1  0  0  0  0
 33 71  1  0  0  0  0
 34 36  1  0  0  0  0
 34 67  2  0  0  0  0
 35 72  1  0  0  0  0
 35 76  2  0  0  0  0
 36 69  1  0  0  0  0
 36 77  2  0  0  0  0
 37 50  1  0  0  0  0
 37 73  1  0  0  0  0
 37 78  2  0  0  0  0
 38 63  1  0  0  0  0
 38 70  1  0  0  0  0
 38 79  2  0  0  0  0
 39 64  1  0  0  0  0
 39 74  1  0  0  0  0
 39 80  2  0  0  0  0
 40 43  1  0  0  0  0
 41 50  1  0  0  0  0
 42 70  1  0  0  0  0
 43 45  1  0  0  0  0
 44 46  1  0  0  0  0
 44 47  1  0  0  0  0
 45 49  1  0  0  0  0
 46 51  1  0  0  0  0
 47 69  1  0  0  0  0
 48 51  1  0  0  0  0
 48 69  1  0  0  0  0
 49 73  1  0  0  0  0
 50 70  1  0  0  0  0
 51 68  1  0  0  0  0
 53 64  1  0  0  0  0
 54 65  1  0  0  0  0
 55 65  1  0  0  0  0
 56 65  1  0  0  0  0
 57 75  1  0  0  0  0
 58 59  1  0  0  0  0
 58 60  1  0  0  0  0
 59 61  1  0  0  0  0
 60 62  1  0  0  0  0
 61 82  1  0  0  0  0
 62 83  1  0  0  0  0
 63 65  1  0  0  0  0
 63 74  1  0  0  0  0
 64 75  1  0  0  0  0
 66 68  1  0  0  0  0
M  CHG  1  75   1
M  ISO  4  34 100  36 100  62 101  83 101
M  END
> <Batch ID>
0103

> <Smiles>
CNC(C)C(=O)NC(C(=O)N1Cc2cc([101O:1][101CH2:1]CCCCOc3ccc(C)c([100C:0](=N)[100C:0](=O)N4CCCC(n5nc(-c6ccc(Oc7ccc(F)cc7F)cc6)c(C(N)=O)c5N)C4)c3)ccc2CC1C(=O)NC1CCCc2ccccc21)C(C)(C)C

> <Shape>
0.262

> <Color>
0.093

> <Negative vol penalty>
0.000

$$$$

  -OEChem-04052301053D

 86 95  0     1  0  0  0  0  0999 V2000
  -20.2869   -8.9458   18.9026 C   0  0  0  0  0  0  0  0  0  0  0  0
  -20.4263  -10.3298   18.9255 C   0  0  0  0  0  0  0  0  0  0  0  0
  -28.4649  -26.3447   19.7881 C   0  0  0  0  0  0  0  0  0  0  0  0
  -26.3528  -25.2935   19.2676 C   0  0  0  0  0  0  0  0  0  0  0  0
  -21.1659   -8.1456   19.6312 C   0  0  0  0  0  0  0  0  0  0  0  0
  -21.4444  -10.9145   19.6779 C   0  0  0  0  0  0  0  0  0  0  0  0
  -23.8615  -14.5822   17.1580 C   0  0  0  0  0  0  0  0  0  0  0  0
  -20.8273  -26.2675   18.7077 C   0  0  0  0  0  0  0  0  0  0  0  0
  -22.1352  -25.8500   20.6957 C   0  0  0  0  0  0  0  0  0  0  0  0
  -21.2190  -25.0327   18.1907 C   0  0  0  0  0  0  0  0  0  0  0  0
  -22.5269  -24.6151   20.1787 C   0  0  0  0  0  0  0  0  0  0  0  0
  -29.1251  -25.1415   19.5392 C   0  0  0  0  0  0  0  0  0  0  0  0
  -27.0130  -24.0902   19.0187 C   0  0  0  0  0  0  0  0  0  0  0  0
  -23.2256  -15.8198   17.0699 C   0  0  0  0  0  0  0  0  0  0  0  0
  -28.3405  -21.5575   20.8225 C   0  0  0  0  0  0  0  0  0  0  0  0
  -27.7901  -20.3933   21.3586 C   0  0  0  0  0  0  0  0  0  0  0  0
  -24.6074  -16.6507   18.8642 C   0  0  0  0  0  0  0  0  0  0  0  0
  -27.5505  -19.4820   19.1339 C   0  0  0  0  0  0  0  0  0  0  0  0
  -27.0787  -26.4207   19.6523 C   0  0  0  0  0  0  0  0  0  0  0  0
  -26.5888  -28.8917   19.2499 C   0  0  0  0  0  0  0  0  0  0  0  0
  -22.2012   -8.7203   20.3853 C   0  0  0  0  0  0  0  0  0  0  0  0
  -24.8692  -14.3658   18.1088 C   0  0  0  0  0  0  0  0  0  0  0  0
  -22.3373  -10.1213   20.4184 C   0  0  0  0  0  0  0  0  0  0  0  0
  -25.2563  -15.4102   18.9606 C   0  0  0  0  0  0  0  0  0  0  0  0
  -21.2855  -26.6762   19.9603 C   0  0  0  0  0  0  0  0  0  0  0  0
  -22.0688  -24.2065   18.9262 C   0  0  0  0  0  0  0  0  0  0  0  0
  -28.3992  -24.0142   19.1545 C   0  0  0  0  0  0  0  0  0  0  0  0
  -23.5966  -16.8534   17.9250 C   0  0  0  0  0  0  0  0  0  0  0  0
  -28.4958  -21.6839   19.4420 C   0  0  0  0  0  0  0  0  0  0  0  0
  -27.3952  -19.3556   20.5144 C   0  0  0  0  0  0  0  0  0  0  0  0
  -28.1008  -20.6462   18.5978 C   0  0  0  0  0  0  0  0  0  0  0  0
  -26.3961  -27.6632   19.9098 C   0  0  0  0  0  0  0  0  0  0  0  0
  -25.7074  -29.7508   19.8593 C   0  0  0  0  0  0  0  0  0  0  0  0
  -23.2389  -20.3966   17.4521 C   0  0  0  0  0  0  0  0  0  0  0  0
  -23.7418  -19.1588   17.5581 C   0  0  0  0  0  0  0  0  0  1  0  0
  -27.4845  -29.2263   18.1815 C   0  0  0  0  0  0  0  0  0  0  0  0
  -25.2270  -12.4172   20.5945 C   0  0  0  0  0  0  0  0  0  0  0  0
  -28.2148  -13.6787   20.6569 C   0  0  0  0  0  0  0  0  0  0  0  0
  -31.0418  -15.5698   20.3768 C   0  0  0  0  0  0  0  0  0  0  0  0
  -20.6249  -28.3949   23.0007 C   0  0  0  0  0  0  0  0  0  0  0  0
  -23.0977   -7.8168   21.1944 C   0  0  0  0  0  0  0  0  0  0  0  0
  -25.5638  -13.0332   18.1731 C   0  0  0  0  0  0  0  0  0  0  0  0
  -26.3464  -15.2353   19.9850 C   0  0  0  0  0  0  0  0  0  0  0  0
  -24.0850  -21.5980   17.1401 C   0  0  0  0  0  0  0  0  0  0  0  0
  -21.7834  -20.7076   17.6581 C   0  0  0  0  0  0  0  0  0  0  0  0
  -24.3806   -8.4961   21.6667 C   0  0  0  0  0  0  0  0  0  0  0  0
  -23.4793  -30.5217   24.0158 C   0  0  0  0  0  0  0  0  0  0  0  0
  -24.0722   -9.8693   22.2548 C   0  0  0  0  0  0  0  0  0  0  0  0
  -24.5845  -30.0741   23.0607 C   0  0  0  0  0  0  0  0  0  0  0  0
  -23.8890  -22.6950   18.1896 C   0  0  0  0  0  0  0  0  0  0  0  0
  -21.6055  -21.8053   18.7087 C   0  0  0  0  0  0  0  0  0  0  0  0
  -22.4751  -29.4050   24.2844 C   0  0  0  0  0  0  0  0  0  0  0  0
  -22.9861  -28.3722   22.0966 C   0  0  0  0  0  0  0  0  0  0  0  0
  -23.4443  -10.7916   21.2028 C   0  0  1  0  0  0  0  0  0  0  0  0
  -26.2214  -12.7667   19.5237 C   0  0  1  0  0  0  0  0  0  0  0  0
  -23.9889  -29.4886   21.7685 C   0  0  2  0  0  0  0  0  0  0  0  0
  -33.2857  -15.9280   21.4418 C   0  0  0  0  0  0  0  0  0  0  0  0
  -26.8816  -15.1770   22.9563 C   0  0  0  0  0  0  0  0  0  0  0  0
  -29.0806  -16.2804   23.4202 C   0  0  0  0  0  0  0  0  0  0  0  0
  -28.8642  -13.8031   23.6168 C   0  0  0  0  0  0  0  0  0  0  0  0
  -18.7831  -27.4057   21.6934 C   0  0  0  0  0  0  0  0  0  0  0  0
  -32.4685  -14.8388   17.8890 C   0  0  0  0  0  0  0  0  0  0  0  0
  -20.8676  -27.9965   20.5137 C   0  0  0  0  0  0  0  0  0  0  0  0
  -28.8587  -14.8697   21.3246 C   0  0  1  0  0  0  0  0  0  0  0  0
  -32.5112  -15.1887   20.3618 C   0  0  2  0  0  0  0  0  0  0  0  0
  -28.4092  -15.0346   22.8038 C   0  0  0  0  0  0  0  0  0  0  0  0
  -25.4654  -27.7317   20.8654 N   0  0  0  0  0  0  0  0  0  0  0  0
  -25.0655  -29.0135   20.8104 N   0  0  0  0  0  0  0  0  0  0  0  0
  -22.4608  -22.9657   18.4082 N   0  0  0  0  0  0  0  0  0  0  0  0
  -26.9912  -13.9121   20.0133 N   0  0  0  0  0  0  0  0  0  0  0  0
  -21.9574  -28.8373   23.0390 N   0  0  0  0  0  0  0  0  0  0  0  0
  -25.4266  -31.0575   19.6691 N   0  0  0  0  0  0  0  0  0  0  0  0
  -28.3213  -28.2238   17.6724 N   0  0  0  0  0  0  0  0  0  0  0  0
  -24.4604  -11.3037   20.3085 N   0  0  0  0  0  0  0  0  0  0  0  0
  -30.2981  -14.7056   21.1522 N   0  0  0  0  0  0  0  0  0  0  0  0
  -20.1610  -27.8670   21.7862 N   0  0  0  0  0  0  0  0  0  0  0  0
  -33.1178  -15.5166   19.0406 N   0  3  0  0  0  0  0  0  0  0  0  0
  -27.5528  -30.3841   17.7038 O   0  0  0  0  0  0  0  0  0  0  0  0
  -25.1611  -13.1059   21.6059 O   0  0  0  0  0  0  0  0  0  0  0  0
  -28.7803  -12.5832   20.6985 O   0  0  0  0  0  0  0  0  0  0  0  0
  -30.5988  -16.5394   19.7652 O   0  0  0  0  0  0  0  0  0  0  0  0
  -19.8889  -28.4763   23.9925 O   0  0  0  0  0  0  0  0  0  0  0  0
  -29.0431  -22.8400   18.9113 O   0  0  0  0  0  0  0  0  0  0  0  0
  -22.9771  -18.0622   17.8416 O   0  0  0  0  0  0  0  0  0  1  0  0
  -26.8681  -18.2371   21.0295 F   0  0  0  0  0  0  0  0  0  0  0  0
  -28.2487  -20.7614   17.2709 F   0  0  0  0  0  0  0  0  0  0  0  0
  1  2  1  0  0  0  0
  1  5  2  0  0  0  0
  2  6  2  0  0  0  0
  3 12  2  0  0  0  0
  3 19  1  0  0  0  0
  4 13  1  0  0  0  0
  4 19  2  0  0  0  0
  5 21  1  0  0  0  0
  6 23  1  0  0  0  0
  7 14  2  0  0  0  0
  7 22  1  0  0  0  0
  8 10  2  0  0  0  0
  8 25  1  0  0  0  0
  9 11  1  0  0  0  0
  9 25  2  0  0  0  0
 10 26  1  0  0  0  0
 11 26  2  0  0  0  0
 12 27  1  0  0  0  0
 13 27  2  0  0  0  0
 14 28  1  0  0  0  0
 15 16  2  0  0  0  0
 15 29  1  0  0  0  0
 16 30  1  0  0  0  0
 17 24  1  0  0  0  0
 17 28  2  0  0  0  0
 18 30  2  0  0  0  0
 18 31  1  0  0  0  0
 19 32  1  0  0  0  0
 20 32  1  0  0  0  0
 20 33  2  0  0  0  0
 20 36  1  0  0  0  0
 21 23  2  0  0  0  0
 21 41  1  0  0  0  0
 22 24  2  0  0  0  0
 22 42  1  0  0  0  0
 23 54  1  0  0  0  0
 24 43  1  0  0  0  0
 25 63  1  0  0  0  0
 26 69  1  0  0  0  0
 27 83  1  0  0  0  0
 28 84  1  0  0  0  0
 29 31  2  0  0  0  0
 29 83  1  0  0  0  0
 30 85  1  0  0  0  0
 31 86  1  0  0  0  0
 32 67  2  0  0  0  0
 33 68  1  0  0  0  0
 33 72  1  0  0  0  0
 34 35  2  0  0  0  0
 34 44  1  0  0  0  0
 34 45  1  0  0  0  0
 35 84  1  0  0  0  0
 36 73  1  0  0  0  0
 36 78  2  0  0  0  0
 37 55  1  0  0  0  0
 37 74  1  0  0  0  0
 37 79  2  0  0  0  0
 38 64  1  0  0  0  0
 38 70  1  0  0  0  0
 38 80  2  0  0  0  0
 39 65  1  0  0  0  0
 39 75  1  0  0  0  0
 39 81  2  0  0  0  0
 40 71  1  0  0  0  0
 40 76  1  0  0  0  0
 40 82  2  0  0  0  0
 41 46  1  0  0  0  0
 42 55  1  0  0  0  0
 43 70  1  0  0  0  0
 44 50  1  0  0  0  0
 45 51  1  0  0  0  0
 46 48  1  0  0  0  0
 47 49  1  0  0  0  0
 47 52  1  0  0  0  0
 48 54  1  0  0  0  0
 49 56  1  0  0  0  0
 50 69  1  0  0  0  0
 51 69  1  0  0  0  0
 52 71  1  0  0  0  0
 53 56  1  0  0  0  0
 53 71  1  0  0  0  0
 54 74  1  0  0  0  0
 55 70  1  0  0  0  0
 56 68  1  0  0  0  0
 57 65  1  0  0  0  0
 58 66  1  0  0  0  0
 59 66  1  0  0  0  0
 60 66  1  0  0  0  0
 61 76  1  0  0  0  0
 62 77  1  0  0  0  0
 63 76  1  0  0  0  0
 64 66  1  0  0  0  0
 64 75  1  0  0  0  0
 65 77  1  0  0  0  0
 67 68  1  0  0  0  0
M  CHG  1  77   1
M  ISO  4  35 101  40 100  76 100  84 101
M  END
> <Batch ID>
0103

> <Smiles>
CNC(C)C(=O)NC(C(=O)N1Cc2cc([101O:1][101CH:1]=C3CCN(c4ccc(C[100N:0](C)[100C:0](=O)N5CCCC(n6nc(-c7ccc(Oc8ccc(F)cc8F)cc7)c(C(N)=O)c6N)C5)cc4)CC3)ccc2CC1C(=O)NC1CCCc2ccccc21)C(C)(C)C

> <Shape>
0.253

> <Color>
0.061

> <Negative vol penalty>
0.000

$$$$

  -OEChem-04052301053D

 87 96  0     1  0  0  0  0  0999 V2000
  -17.2284  -30.6044   23.6038 C   0  0  0  0  0  0  0  0  0  0  0  0
  -18.5412  -31.0242   23.4149 C   0  0  0  0  0  0  0  0  0  0  0  0
  -24.3090  -13.8933   19.9785 C   0  0  0  0  0  0  0  0  0  0  0  0
  -25.8166  -14.1702   21.8461 C   0  0  0  0  0  0  0  0  0  0  0  0
  -16.9156  -29.2472   23.5393 C   0  0  0  0  0  0  0  0  0  0  0  0
  -19.5422  -30.0868   23.1624 C   0  0  0  0  0  0  0  0  0  0  0  0
  -25.6823  -29.3106   19.5551 C   0  0  0  0  0  0  0  0  0  0  0  0
  -24.5272  -12.5160   20.0065 C   0  0  0  0  0  0  0  0  0  0  0  0
  -26.0348  -12.7928   21.8741 C   0  0  0  0  0  0  0  0  0  0  0  0
  -27.0049  -28.9159   19.7523 C   0  0  0  0  0  0  0  0  0  0  0  0
  -23.4799   -9.8645   21.8247 C   0  0  0  0  0  0  0  0  0  0  0  0
  -22.3675   -9.0297   21.7185 C   0  0  0  0  0  0  0  0  0  0  0  0
  -26.3339  -26.6049   19.5846 C   0  0  0  0  0  0  0  0  0  0  0  0
  -30.1655  -23.1783   21.8101 C   0  0  0  0  0  0  0  0  0  0  0  0
  -30.8477  -23.6784   24.0731 C   0  0  0  0  0  0  0  0  0  0  0  0
  -28.8658  -22.3559   23.6733 C   0  0  0  0  0  0  0  0  0  0  0  0
  -23.2933   -8.0510   19.7129 C   0  0  0  0  0  0  0  0  0  0  0  0
  -24.9537  -14.7205   20.8983 C   0  0  0  0  0  0  0  0  0  0  0  0
  -23.7374  -16.8618   21.5639 C   0  0  0  0  0  0  0  0  0  0  0  0
  -17.9116  -28.2936   23.2763 C   0  0  0  0  0  0  0  0  0  0  0  0
  -24.6722  -28.3534   19.3818 C   0  0  0  0  0  0  0  0  0  0  0  0
  -19.2427  -28.7155   23.0957 C   0  0  0  0  0  0  0  0  0  0  0  0
  -24.9997  -26.9900   19.3829 C   0  0  0  0  0  0  0  0  0  0  0  0
  -31.0535  -23.7859   22.6976 C   0  0  0  0  0  0  0  0  0  0  0  0
  -29.0716  -22.4633   22.2978 C   0  0  0  0  0  0  0  0  0  0  0  0
  -25.3901  -11.9657   20.9543 C   0  0  0  0  0  0  0  0  0  0  0  0
  -27.3304  -27.5628   19.7700 C   0  0  0  0  0  0  0  0  0  0  0  0
  -24.4990   -9.7927   20.8749 C   0  0  0  0  0  0  0  0  0  0  0  0
  -22.2742   -8.1229   20.6627 C   0  0  0  0  0  0  0  0  0  0  0  0
  -29.7539  -22.9634   24.5609 C   0  0  0  0  0  0  0  0  0  0  0  0
  -24.4057   -8.8859   19.8191 C   0  0  0  0  0  0  0  0  0  0  0  0
  -24.7292  -16.1435   20.8695 C   0  0  0  0  0  0  0  0  0  0  0  0
  -23.9454  -18.1706   21.2031 C   0  0  0  0  0  0  0  0  0  0  0  0
  -31.0018  -26.6810   21.5810 C   0  0  0  0  0  0  0  0  0  0  0  0
  -22.7192  -16.3883   22.4554 C   0  0  0  0  0  0  0  0  0  0  0  0
  -22.0372  -27.5598   20.9725 C   0  0  0  0  0  0  0  0  0  0  0  0
  -21.5678  -25.5916   18.4371 C   0  0  0  0  0  0  0  0  0  0  0  0
  -22.9209  -23.8414   15.8385 C   0  0  0  0  0  0  0  0  0  0  0  0
  -28.2278  -21.8559   20.0032 C   0  0  0  0  0  0  0  0  0  0  0  0
  -17.5334  -26.8337   23.2630 C   0  0  0  0  0  0  0  0  0  0  0  0
  -23.2546  -28.7961   19.1435 C   0  0  0  0  0  0  0  0  0  0  0  0
  -23.9556  -25.9235   19.1812 C   0  0  0  0  0  0  0  0  0  0  0  0
  -18.5881  -25.9371   22.6194 C   0  0  0  0  0  0  0  0  0  0  0  0
  -26.2209  -20.4267   17.4328 C   0  0  0  0  0  0  0  0  0  0  0  0
  -19.9773  -26.2858   23.1441 C   0  0  0  0  0  0  0  0  0  0  0  0
  -25.5338  -19.2464   18.1233 C   0  0  0  0  0  0  0  0  0  0  0  0
  -31.3626  -26.6297   19.2234 C   0  0  0  0  0  0  0  0  0  0  0  0
  -27.6539  -20.6170   17.9270 C   0  0  0  0  0  0  0  0  0  0  0  0
  -32.3116  -25.6568   19.8975 C   0  0  0  0  0  0  0  0  0  0  0  0
  -27.1123  -19.5394   20.0751 C   0  0  0  0  0  0  0  0  0  0  0  0
  -20.3521  -27.7312   22.7951 C   0  0  1  0  0  0  0  0  0  0  0  0
  -30.9511  -27.5749   20.3546 C   0  0  1  0  0  0  0  0  0  0  0  0
  -22.2272  -27.7233   19.4910 C   0  0  1  0  0  0  0  0  0  0  0  0
  -25.6452  -19.3483   19.6572 C   0  0  2  0  0  0  0  0  0  0  0  0
  -33.1047  -25.1413   23.2870 C   0  0  0  0  0  0  0  0  0  0  0  0
  -22.2910  -22.2960   13.9644 C   0  0  0  0  0  0  0  0  0  0  0  0
  -21.2659  -23.3013   20.4304 C   0  0  0  0  0  0  0  0  0  0  0  0
  -21.5927  -21.7000   18.5338 C   0  0  0  0  0  0  0  0  0  0  0  0
  -19.6399  -23.2522   18.5309 C   0  0  0  0  0  0  0  0  0  0  0  0
  -23.9100  -25.7347   13.7901 C   0  0  0  0  0  0  0  0  0  0  0  0
  -29.5895  -28.2072   20.1406 C   0  0  0  0  0  0  0  0  0  1  0  0
  -32.2409  -24.5613   22.1689 C   0  0  2  0  0  0  0  0  0  0  0  0
  -21.9550  -24.1721   18.0996 C   0  0  1  0  0  0  0  0  0  0  0  0
  -22.5242  -23.7411   14.3767 C   0  0  2  0  0  0  0  0  0  0  0  0
  -21.1330  -23.1262   18.9044 C   0  0  0  0  0  0  0  0  0  0  0  0
  -25.5091  -16.9306   20.1239 N   0  0  0  0  0  0  0  0  0  0  0  0
  -25.0075  -18.1572   20.3476 N   0  0  0  0  0  0  0  0  0  0  0  0
  -31.8233  -25.6028   21.2557 N   0  0  0  0  0  0  0  0  0  0  0  0
  -22.5828  -26.4065   18.9583 N   0  0  0  0  0  0  0  0  0  0  0  0
  -27.6810  -20.7098   19.3883 N   0  0  0  0  0  0  0  0  0  0  0  0
  -23.3214  -19.3202   21.5373 N   0  0  0  0  0  0  0  0  0  0  0  0
  -22.6467  -15.0132   22.7168 N   0  0  0  0  0  0  0  0  0  0  0  0
  -28.1692  -21.8462   21.3964 N   0  0  0  0  0  0  0  0  0  0  0  0
  -20.7536  -27.8284   21.4081 N   0  0  0  0  0  0  0  0  0  0  0  0
  -21.8265  -24.0472   16.6517 N   0  0  0  0  0  0  0  0  0  0  0  0
  -23.5941  -24.3104   13.5094 N   0  3  0  0  0  0  0  0  0  0  0  0
  -30.4573  -26.9157   22.6496 O   0  0  0  0  0  0  0  0  0  0  0  0
  -21.8877  -17.1597   22.9911 O   0  0  0  0  0  0  0  0  0  0  0  0
  -22.9846  -27.2141   21.6686 O   0  0  0  0  0  0  0  0  0  0  0  0
  -20.4092  -25.9658   18.2388 O   0  0  0  0  0  0  0  0  0  0  0  0
  -24.0846  -23.7430   16.2212 O   0  0  0  0  0  0  0  0  0  0  0  0
  -28.6877  -22.7903   19.3418 O   0  0  0  0  0  0  0  0  0  0  0  0
  -25.6030  -10.6216   20.9821 O   0  0  0  0  0  0  0  0  0  0  0  0
  -28.6204  -27.1749   19.9629 O   0  0  0  0  0  0  0  0  0  1  0  0
  -21.2067   -7.3202   20.5617 F   0  0  0  0  0  0  0  0  0  0  0  0
  -29.5564  -22.8603   25.8817 F   0  0  0  0  0  0  0  0  0  0  0  0
  -25.3821   -8.8115   18.9043 F   0  0  0  0  0  0  0  0  0  0  0  0
  1  2  1  0  0  0  0
  1  5  2  0  0  0  0
  2  6  2  0  0  0  0
  3  8  2  0  0  0  0
  3 18  1  0  0  0  0
  4  9  1  0  0  0  0
  4 18  2  0  0  0  0
  5 20  1  0  0  0  0
  6 22  1  0  0  0  0
  7 10  2  0  0  0  0
  7 21  1  0  0  0  0
  8 26  1  0  0  0  0
  9 26  2  0  0  0  0
 10 27  1  0  0  0  0
 11 12  2  0  0  0  0
 11 28  1  0  0  0  0
 12 29  1  0  0  0  0
 13 23  1  0  0  0  0
 13 27  2  0  0  0  0
 14 24  2  0  0  0  0
 14 25  1  0  0  0  0
 15 24  1  0  0  0  0
 15 30  2  0  0  0  0
 16 25  2  0  0  0  0
 16 30  1  0  0  0  0
 17 29  2  0  0  0  0
 17 31  1  0  0  0  0
 18 32  1  0  0  0  0
 19 32  1  0  0  0  0
 19 33  2  0  0  0  0
 19 35  1  0  0  0  0
 20 22  2  0  0  0  0
 20 40  1  0  0  0  0
 21 23  2  0  0  0  0
 21 41  1  0  0  0  0
 22 51  1  0  0  0  0
 23 42  1  0  0  0  0
 24 62  1  0  0  0  0
 25 73  1  0  0  0  0
 26 83  1  0  0  0  0
 27 84  1  0  0  0  0
 28 31  2  0  0  0  0
 28 83  1  0  0  0  0
 29 85  1  0  0  0  0
 30 86  1  0  0  0  0
 31 87  1  0  0  0  0
 32 66  2  0  0  0  0
 33 67  1  0  0  0  0
 33 71  1  0  0  0  0
 34 52  1  0  0  0  0
 34 68  1  0  0  0  0
 34 77  2  0  0  0  0
 35 72  1  0  0  0  0
 35 78  2  0  0  0  0
 36 53  1  0  0  0  0
 36 74  1  0  0  0  0
 36 79  2  0  0  0  0
 37 63  1  0  0  0  0
 37 69  1  0  0  0  0
 37 80  2  0  0  0  0
 38 64  1  0  0  0  0
 38 75  1  0  0  0  0
 38 81  2  0  0  0  0
 39 70  1  0  0  0  0
 39 73  1  0  0  0  0
 39 82  2  0  0  0  0
 40 43  1  0  0  0  0
 41 53  1  0  0  0  0
 42 69  1  0  0  0  0
 43 45  1  0  0  0  0
 44 46  1  0  0  0  0
 44 48  1  0  0  0  0
 45 51  1  0  0  0  0
 46 54  1  0  0  0  0
 47 49  1  0  0  0  0
 47 52  1  0  0  0  0
 48 70  1  0  0  0  0
 49 68  1  0  0  0  0
 50 54  1  0  0  0  0
 50 70  1  0  0  0  0
 51 74  1  0  0  0  0
 52 61  1  0  0  0  0
 53 69  1  0  0  0  0
 54 67  1  0  0  0  0
 55 62  1  0  0  0  0
 56 64  1  0  0  0  0
 57 65  1  0  0  0  0
 58 65  1  0  0  0  0
 59 65  1  0  0  0  0
 60 76  1  0  0  0  0
 61 84  1  0  0  0  0
 62 68  1  0  0  0  0
 63 65  1  0  0  0  0
 63 75  1  0  0  0  0
 64 76  1  0  0  0  0
 66 67  1  0  0  0  0
M  CHG  1  76   1
M  ISO  4  39 100  61 101  73 100  84 101
M  END
> <Batch ID>
0103

> <Smiles>
CNC(C)C(=O)NC(C(=O)N1Cc2cc([101O:1][101CH2:1]C3CCN(C(C)c4cc(F)cc([100NH:0][100C:0](=O)N5CCCC(n6nc(-c7ccc(Oc8ccc(F)cc8F)cc7)c(C(N)=O)c6N)C5)c4)C3=O)ccc2CC1C(=O)NC1CCCc2ccccc21)C(C)(C)C

> <Shape>
0.223

> <Color>
0.102

> <Negative vol penalty>
0.000

$$$$

  -OEChem-04052301053D

 84 92  0     1  0  0  0  0  0999 V2000
  -19.2982  -33.5069   21.1200 C   0  0  0  0  0  0  0  0  0  0  0  0
  -20.5796  -33.1251   20.7355 C   0  0  0  0  0  0  0  0  0  0  0  0
  -32.8122  -27.3269   21.4853 C   0  0  0  0  0  0  0  0  0  0  0  0
  -25.6489  -14.1796   22.3811 C   0  0  0  0  0  0  0  0  0  0  0  0
  -26.2187  -14.7552   20.1049 C   0  0  0  0  0  0  0  0  0  0  0  0
  -18.6793  -32.8784   22.1997 C   0  0  0  0  0  0  0  0  0  0  0  0
  -21.2433  -32.1153   21.4314 C   0  0  0  0  0  0  0  0  0  0  0  0
  -25.0983  -27.9632   19.1068 C   0  0  0  0  0  0  0  0  0  0  0  0
  -33.4381  -26.5970   20.4748 C   0  0  0  0  0  0  0  0  0  0  0  0
  -31.4299  -27.2429   21.6525 C   0  0  0  0  0  0  0  0  0  0  0  0
  -24.6010  -13.3842   21.9177 C   0  0  0  0  0  0  0  0  0  0  0  0
  -25.1708  -13.9598   19.6415 C   0  0  0  0  0  0  0  0  0  0  0  0
  -26.4902  -27.8977   19.0609 C   0  0  0  0  0  0  0  0  0  0  0  0
  -24.2173  -10.3078   20.5681 C   0  0  0  0  0  0  0  0  0  0  0  0
  -24.0639   -9.0427   21.1351 C   0  0  0  0  0  0  0  0  0  0  0  0
  -26.4845  -26.5175   21.0393 C   0  0  0  0  0  0  0  0  0  0  0  0
  -21.8481   -9.6473   21.8847 C   0  0  0  0  0  0  0  0  0  0  0  0
  -26.4578  -14.8651   21.4748 C   0  0  0  0  0  0  0  0  0  0  0  0
  -28.8706  -15.2905   22.1854 C   0  0  0  0  0  0  0  0  0  0  0  0
  -19.3320  -31.8538   22.9032 C   0  0  0  0  0  0  0  0  0  0  0  0
  -24.3885  -27.3143   20.1273 C   0  0  0  0  0  0  0  0  0  0  0  0
  -20.6330  -31.4735   22.5225 C   0  0  0  0  0  0  0  0  0  0  0  0
  -25.0835  -26.5742   21.0944 C   0  0  0  0  0  0  0  0  0  0  0  0
  -32.6817  -25.7832   19.6314 C   0  0  0  0  0  0  0  0  0  0  0  0
  -30.6735  -26.4292   20.8091 C   0  0  0  0  0  0  0  0  0  0  0  0
  -31.2994  -25.6993   19.7985 C   0  0  0  0  0  0  0  0  0  0  0  0
  -24.3619  -13.2743   20.5479 C   0  0  0  0  0  0  0  0  0  0  0  0
  -27.1837  -27.1772   20.0289 C   0  0  0  0  0  0  0  0  0  0  0  0
  -23.1861  -11.2427   20.6594 C   0  0  0  0  0  0  0  0  0  0  0  0
  -22.8793   -8.7124   21.7934 C   0  0  0  0  0  0  0  0  0  0  0  0
  -22.0015  -10.9124   21.3176 C   0  0  0  0  0  0  0  0  0  0  0  0
  -27.5401  -15.6873   21.9529 C   0  0  0  0  0  0  0  0  0  0  0  0
  -29.4962  -16.4298   22.6293 C   0  0  0  0  0  0  0  0  0  0  0  0
  -29.4860  -14.0067   22.0153 C   0  0  0  0  0  0  0  0  0  0  0  0
  -22.4568  -28.2604   22.4676 C   0  0  0  0  0  0  0  0  0  0  0  0
  -28.2580  -22.2563   21.8348 C   0  0  0  0  0  0  0  0  0  0  0  0
  -22.0743  -25.0704   22.9142 C   0  0  0  0  0  0  0  0  0  0  0  0
  -28.7708  -23.2157   19.6828 C   0  0  0  0  0  0  0  0  0  0  0  0
  -23.3270  -21.9197   22.5257 C   0  0  0  0  0  0  0  0  0  0  0  0
  -18.6413  -31.2364   24.0933 C   0  0  0  0  0  0  0  0  0  0  0  0
  -22.8856  -27.3724   20.1473 C   0  0  0  0  0  0  0  0  0  0  0  0
  -24.3672  -25.8428   22.1992 C   0  0  0  0  0  0  0  0  0  0  0  0
  -19.2651  -29.9177   24.5431 C   0  0  0  0  0  0  0  0  0  0  0  0
  -28.6427  -20.5195   24.9453 C   0  0  0  0  0  0  0  0  0  0  0  0
  -20.7837  -30.0423   24.6141 C   0  0  0  0  0  0  0  0  0  0  0  0
  -28.4961  -19.0491   24.5560 C   0  0  0  0  0  0  0  0  0  0  0  0
  -27.7400  -21.4134   24.1009 C   0  0  0  0  0  0  0  0  0  0  0  0
  -27.7909  -19.7881   22.2362 C   0  0  0  0  0  0  0  0  0  0  0  0
  -21.3757  -30.3652   23.2369 C   0  0  1  0  0  0  0  0  0  0  0  0
  -22.2955  -27.0995   21.5274 C   0  0  1  0  0  0  0  0  0  0  0  0
  -28.7086  -18.8537   23.0444 C   0  0  2  0  0  0  0  0  0  0  0  0
  -33.3765  -25.0116   18.5573 C   0  0  0  0  0  0  0  0  0  0  0  0
  -22.8047  -19.5167   23.0255 C   0  0  0  0  0  0  0  0  0  0  0  0
  -22.8365  -25.5146   25.8351 C   0  0  0  0  0  0  0  0  0  0  0  0
  -23.2229  -23.0492   26.0367 C   0  0  0  0  0  0  0  0  0  0  0  0
  -20.9492  -23.9122   25.4815 C   0  0  0  0  0  0  0  0  0  0  0  0
  -31.1163  -22.7021   20.1092 C   0  0  0  0  0  0  0  0  0  0  0  0
  -23.3115  -21.2051   19.6538 C   0  0  0  0  0  0  0  0  0  0  0  0
  -30.4884  -24.8267   18.8941 C   0  0  0  0  0  0  0  0  0  0  0  0
  -29.1884  -26.3564   21.0104 C   0  0  0  0  0  0  0  0  0  1  0  0
  -28.4707  -21.9386   20.3761 C   0  0  0  0  0  0  0  0  0  0  0  0
  -22.7743  -24.0142   23.7349 C   0  0  1  0  0  0  0  0  0  0  0  0
  -22.6942  -20.6409   22.0074 C   0  0  2  0  0  0  0  0  0  0  0  0
  -22.4596  -24.1378   25.2525 C   0  0  0  0  0  0  0  0  0  0  0  0
  -27.3317  -16.9780   22.2266 N   0  0  0  0  0  0  0  0  0  0  0  0
  -28.5395  -17.4019   22.6357 N   0  0  0  0  0  0  0  0  0  0  0  0
  -22.8979  -25.9350   22.1795 N   0  0  0  0  0  0  0  0  0  0  0  0
  -27.9561  -21.1818   22.6716 N   0  0  0  0  0  0  0  0  0  0  0  0
  -30.7657  -16.6849   23.0108 N   0  0  0  0  0  0  0  0  0  0  0  0
  -28.6985  -12.9446   21.5504 N   0  0  0  0  0  0  0  0  0  0  0  0
  -21.4222  -29.1749   22.4150 N   0  0  0  0  0  0  0  0  0  0  0  0
  -22.4027  -22.7302   23.1503 N   0  0  0  0  0  0  0  0  0  0  0  0
  -30.0736  -23.6099   19.5413 N   0  0  0  0  0  0  0  0  0  0  0  0
  -27.6964  -23.8745   19.2475 N   0  3  0  0  0  0  0  0  0  0  0  0
  -23.3645  -20.2040   20.7501 N   0  3  0  0  0  0  0  0  0  0  0  0
  -30.6944  -13.8034   22.2838 O   0  0  0  0  0  0  0  0  0  0  0  0
  -23.4459  -28.3212   23.1884 O   0  0  0  0  0  0  0  0  0  0  0  0
  -28.3605  -23.4247   22.2176 O   0  0  0  0  0  0  0  0  0  0  0  0
  -20.8418  -25.1216   22.9190 O   0  0  0  0  0  0  0  0  0  0  0  0
  -24.5225  -22.1725   22.3934 O   0  0  0  0  0  0  0  0  0  0  0  0
  -23.3396  -12.4980   20.0952 O   0  0  0  0  0  0  0  0  0  0  0  0
  -28.5423  -27.1122   19.9868 O   0  0  0  0  0  0  0  0  0  1  0  0
  -22.7315   -7.4969   22.3365 F   0  0  0  0  0  0  0  0  0  0  0  0
  -21.0069  -11.8060   21.4075 F   0  0  0  0  0  0  0  0  0  0  0  0
  1  2  1  0  0  0  0
  1  6  2  0  0  0  0
  2  7  2  0  0  0  0
  3  9  1  0  0  0  0
  3 10  2  0  0  0  0
  4 11  2  0  0  0  0
  4 18  1  0  0  0  0
  5 12  1  0  0  0  0
  5 18  2  0  0  0  0
  6 20  1  0  0  0  0
  7 22  1  0  0  0  0
  8 13  2  0  0  0  0
  8 21  1  0  0  0  0
  9 24  2  0  0  0  0
 10 25  1  0  0  0  0
 11 27  1  0  0  0  0
 12 27  2  0  0  0  0
 13 28  1  0  0  0  0
 14 15  2  0  0  0  0
 14 29  1  0  0  0  0
 15 30  1  0  0  0  0
 16 23  1  0  0  0  0
 16 28  2  0  0  0  0
 17 30  2  0  0  0  0
 17 31  1  0  0  0  0
 18 32  1  0  0  0  0
 19 32  1  0  0  0  0
 19 33  2  0  0  0  0
 19 34  1  0  0  0  0
 20 22  2  0  0  0  0
 20 40  1  0  0  0  0
 21 23  2  0  0  0  0
 21 41  1  0  0  0  0
 22 49  1  0  0  0  0
 23 42  1  0  0  0  0
 24 26  1  0  0  0  0
 24 52  1  0  0  0  0
 25 26  2  0  0  0  0
 25 60  1  0  0  0  0
 26 59  1  0  0  0  0
 27 81  1  0  0  0  0
 28 82  1  0  0  0  0
 29 31  2  0  0  0  0
 29 81  1  0  0  0  0
 30 83  1  0  0  0  0
 31 84  1  0  0  0  0
 32 65  2  0  0  0  0
 33 66  1  0  0  0  0
 33 69  1  0  0  0  0
 34 70  1  0  0  0  0
 34 76  2  0  0  0  0
 35 50  1  0  0  0  0
 35 71  1  0  0  0  0
 35 77  2  0  0  0  0
 36 61  1  0  0  0  0
 36 68  1  0  0  0  0
 36 78  2  0  0  0  0
 37 62  1  0  0  0  0
 37 67  1  0  0  0  0
 37 79  2  0  0  0  0
 38 61  1  0  0  0  0
 38 73  1  0  0  0  0
 38 74  2  0  0  0  0
 39 63  1  0  0  0  0
 39 72  1  0  0  0  0
 39 80  2  0  0  0  0
 40 43  1  0  0  0  0
 41 50  1  0  0  0  0
 42 67  1  0  0  0  0
 43 45  1  0  0  0  0
 44 46  1  0  0  0  0
 44 47  1  0  0  0  0
 45 49  1  0  0  0  0
 46 51  1  0  0  0  0
 47 68  1  0  0  0  0
 48 51  1  0  0  0  0
 48 68  1  0  0  0  0
 49 71  1  0  0  0  0
 50 67  1  0  0  0  0
 51 66  1  0  0  0  0
 53 63  1  0  0  0  0
 54 64  1  0  0  0  0
 55 64  1  0  0  0  0
 56 64  1  0  0  0  0
 57 73  1  0  0  0  0
 58 75  1  0  0  0  0
 59 73  1  0  0  0  0
 60 82  1  0  0  0  0
 62 64  1  0  0  0  0
 62 72  1  0  0  0  0
 63 75  1  0  0  0  0
 65 66  1  0  0  0  0
M  CHG  2  74   1  75   1
M  ISO  4  36 100  60 101  61 100  82 101
M  END
> <Batch ID>
0103

> <Smiles>
CNC(C)C(=O)NC(C(=O)N1Cc2cc([101O:1][101CH2:1]c3cccc(C)c3CN(C)C(=N)[100CH2:0][100C:0](=O)N3CCCC(n4nc(-c5ccc(Oc6ccc(F)cc6F)cc5)c(C(N)=O)c4N)C3)ccc2CC1C(=O)NC1CCCc2ccccc21)C(C)(C)C

> <Shape>
0.221

> <Color>
0.070

> <Negative vol penalty>
0.000

$$$$

  -OEChem-04052301053D

 84 92  0     1  0  0  0  0  0999 V2000
  -32.3014  -16.0169   34.3942 C   0  0  0  0  0  0  0  0  0  0  0  0
  -32.3869  -14.7689   33.7854 C   0  0  0  0  0  0  0  0  0  0  0  0
  -23.2869   -9.7976   19.9098 C   0  0  0  0  0  0  0  0  0  0  0  0
  -23.7272   -9.9379   22.2812 C   0  0  0  0  0  0  0  0  0  0  0  0
  -31.1170  -16.4075   35.0175 C   0  0  0  0  0  0  0  0  0  0  0  0
  -31.2883  -13.9103   33.8006 C   0  0  0  0  0  0  0  0  0  0  0  0
  -30.4420  -11.7586   29.2952 C   0  0  0  0  0  0  0  0  0  0  0  0
  -22.5566   -8.6270   20.1147 C   0  0  0  0  0  0  0  0  0  0  0  0
  -22.9969   -8.7673   22.4861 C   0  0  0  0  0  0  0  0  0  0  0  0
  -31.2627  -10.6905   28.9354 C   0  0  0  0  0  0  0  0  0  0  0  0
  -20.9452   -6.0129   23.6786 C   0  0  0  0  0  0  0  0  0  0  0  0
  -20.0387   -5.9903   24.7384 C   0  0  0  0  0  0  0  0  0  0  0  0
  -31.6871  -10.3825   23.0947 C   0  0  0  0  0  0  0  0  0  0  0  0
  -29.5271   -9.1461   29.5849 C   0  0  0  0  0  0  0  0  0  0  0  0
  -29.9147   -9.8076   25.1710 C   0  0  0  0  0  0  0  0  0  0  0  0
  -18.8384   -7.8401   23.7513 C   0  0  0  0  0  0  0  0  0  0  0  0
  -23.8723  -10.4530   20.9931 C   0  0  0  0  0  0  0  0  0  0  0  0
  -30.7476  -11.3334   23.4931 C   0  0  0  0  0  0  0  0  0  0  0  0
  -24.1390  -12.9823   20.7948 C   0  0  0  0  0  0  0  0  0  0  0  0
  -30.0002  -15.5571   35.0319 C   0  0  0  0  0  0  0  0  0  0  0  0
  -29.1596  -11.5278   29.8136 C   0  0  0  0  0  0  0  0  0  0  0  0
  -30.0883  -14.2893   34.4258 C   0  0  0  0  0  0  0  0  0  0  0  0
  -28.6912  -10.2130   29.9481 C   0  0  0  0  0  0  0  0  0  0  0  0
  -29.8615  -11.0460   24.5312 C   0  0  0  0  0  0  0  0  0  0  0  0
  -22.4115   -8.1119   21.4028 C   0  0  0  0  0  0  0  0  0  0  0  0
  -30.8064   -9.3839   29.0830 C   0  0  0  0  0  0  0  0  0  0  0  0
  -20.7984   -6.9491   22.6551 C   0  0  0  0  0  0  0  0  0  0  0  0
  -30.8542   -8.8567   24.7726 C   0  0  0  0  0  0  0  0  0  0  0  0
  -18.9853   -6.9039   24.7748 C   0  0  0  0  0  0  0  0  0  0  0  0
  -31.7403   -9.1441   23.7344 C   0  0  0  0  0  0  0  0  0  0  0  0
  -19.7450   -7.8627   22.6914 C   0  0  0  0  0  0  0  0  0  0  0  0
  -24.6273  -11.6619   20.7821 C   0  0  0  0  0  0  0  0  0  0  0  0
  -25.2437  -13.7592   20.5446 C   0  0  0  0  0  0  0  0  0  0  0  0
  -30.7126  -12.6175   22.8061 C   0  0  0  0  0  0  0  0  0  0  0  0
  -22.8062  -13.4634   21.0134 C   0  0  0  0  0  0  0  0  0  0  0  0
  -31.1082  -12.7404   21.3843 C   0  0  0  0  0  0  0  0  0  0  0  0
  -27.7071  -12.1593   32.5695 C   0  0  0  0  0  0  0  0  0  0  0  0
  -25.1046  -11.0055   31.0145 C   0  0  0  0  0  0  0  0  0  0  0  0
  -23.8556   -9.0450   28.5159 C   0  0  0  0  0  0  0  0  0  0  0  0
  -28.7568  -16.0041   35.7591 C   0  0  0  0  0  0  0  0  0  0  0  0
  -28.2765  -12.6915   30.1719 C   0  0  0  0  0  0  0  0  0  0  0  0
  -27.3149   -9.9122   30.4808 C   0  0  0  0  0  0  0  0  0  0  0  0
  -27.5172  -15.1863   35.4055 C   0  0  0  0  0  0  0  0  0  0  0  0
  -29.4745  -13.6701   18.3309 C   0  0  0  0  0  0  0  0  0  0  0  0
  -27.8355  -13.6948   35.4345 C   0  0  0  0  0  0  0  0  0  0  0  0
  -28.0063  -13.3437   18.6025 C   0  0  0  0  0  0  0  0  0  0  0  0
  -30.4042  -12.6796   19.0244 C   0  0  0  0  0  0  0  0  0  0  0  0
  -28.7041  -12.2401   20.7751 C   0  0  0  0  0  0  0  0  0  0  0  0
  -28.9102  -13.3399   34.3998 C   0  0  1  0  0  0  0  0  0  0  0  0
  -27.1832  -12.3264   31.1712 C   0  0  1  0  0  0  0  0  0  0  0  0
  -27.7351  -13.2355   20.1136 C   0  0  2  0  0  0  0  0  0  0  0  0
  -28.8448  -12.0460   24.9765 C   0  0  0  0  0  0  0  0  0  0  0  0
  -22.1410   -8.0188   26.9978 C   0  0  0  0  0  0  0  0  0  0  0  0
  -24.7176   -9.0809   33.3503 C   0  0  0  0  0  0  0  0  0  0  0  0
  -23.1785   -7.7405   31.9002 C   0  0  0  0  0  0  0  0  0  0  0  0
  -22.6070  -10.0992   32.4769 C   0  0  0  0  0  0  0  0  0  0  0  0
  -24.0621  -11.2767   26.5830 C   0  0  0  0  0  0  0  0  0  0  0  0
  -31.8457   -6.4393   27.2659 C   0  0  0  0  0  0  0  0  0  0  0  0
  -30.9598   -7.1523   28.2753 C   0  0  0  0  0  0  0  0  0  1  0  0
  -32.1266   -7.3024   26.0458 C   0  0  0  0  0  0  0  0  0  0  0  0
  -24.4800   -9.6421   30.8414 C   0  0  1  0  0  0  0  0  0  0  0  0
  -22.7966   -9.3105   27.4612 C   0  0  2  0  0  0  0  0  0  0  0  0
  -23.7725   -9.1460   32.1339 C   0  0  0  0  0  0  0  0  0  0  0  0
  -25.9398  -11.5998   20.5425 N   0  0  0  0  0  0  0  0  0  0  0  0
  -30.3364  -13.7257   23.3822 N   0  0  0  0  0  0  0  0  0  0  0  0
  -26.2857  -12.8909   20.4023 N   0  0  0  0  0  0  0  0  0  0  0  0
  -30.0962  -12.5742   20.4492 N   0  0  0  0  0  0  0  0  0  0  0  0
  -26.4914  -11.0836   30.8232 N   0  0  0  0  0  0  0  0  0  0  0  0
  -25.4155  -15.0937   20.4344 N   0  0  0  0  0  0  0  0  0  0  0  0
  -21.7901  -12.5292   21.2566 N   0  0  0  0  0  0  0  0  0  0  0  0
  -28.3350  -13.2826   33.0730 N   0  0  0  0  0  0  0  0  0  0  0  0
  -23.6027   -9.7396   29.6798 N   0  0  0  0  0  0  0  0  0  0  0  0
  -23.4022   -9.9815   26.2763 N   0  3  0  0  0  0  0  0  0  0  0  0
  -22.5216  -14.6845   20.9773 O   0  0  0  0  0  0  0  0  0  0  0  0
  -32.2927  -12.9764   21.1850 O   0  0  0  0  0  0  0  0  0  0  0  0
  -27.5519  -11.0909   33.1493 O   0  0  0  0  0  0  0  0  0  0  0  0
  -24.3875  -11.9672   31.3017 O   0  0  0  0  0  0  0  0  0  0  0  0
  -24.8097   -8.2935   28.3274 O   0  0  0  0  0  0  0  0  0  0  0  0
  -21.6988   -6.9698   21.6031 O   0  0  0  0  0  0  0  0  0  0  0  0
  -31.6057   -8.3396   28.7332 O   0  0  0  0  0  0  0  0  0  1  0  0
  -30.9052   -7.6405   25.4026 O   0  0  0  0  0  0  0  0  0  0  0  0
  -18.1140   -6.8810   25.7919 F   0  0  0  0  0  0  0  0  0  0  0  0
  -32.6440   -8.2339   23.3459 F   0  0  0  0  0  0  0  0  0  0  0  0
  -19.5981   -8.7637   21.7104 F   0  0  0  0  0  0  0  0  0  0  0  0
  1  2  1  0  0  0  0
  1  5  2  0  0  0  0
  2  6  2  0  0  0  0
  3  8  2  0  0  0  0
  3 17  1  0  0  0  0
  4  9  1  0  0  0  0
  4 17  2  0  0  0  0
  5 20  1  0  0  0  0
  6 22  1  0  0  0  0
  7 10  2  0  0  0  0
  7 21  1  0  0  0  0
  8 25  1  0  0  0  0
  9 25  2  0  0  0  0
 10 26  1  0  0  0  0
 11 12  2  0  0  0  0
 11 27  1  0  0  0  0
 12 29  1  0  0  0  0
 13 18  2  0  0  0  0
 13 30  1  0  0  0  0
 14 23  1  0  0  0  0
 14 26  2  0  0  0  0
 15 24  2  0  0  0  0
 15 28  1  0  0  0  0
 16 29  2  0  0  0  0
 16 31  1  0  0  0  0
 17 32  1  0  0  0  0
 18 24  1  0  0  0  0
 18 34  1  0  0  0  0
 19 32  1  0  0  0  0
 19 33  2  0  0  0  0
 19 35  1  0  0  0  0
 20 22  2  0  0  0  0
 20 40  1  0  0  0  0
 21 23  2  0  0  0  0
 21 41  1  0  0  0  0
 22 49  1  0  0  0  0
 23 42  1  0  0  0  0
 24 52  1  0  0  0  0
 25 79  1  0  0  0  0
 26 80  1  0  0  0  0
 27 31  2  0  0  0  0
 27 79  1  0  0  0  0
 28 30  2  0  0  0  0
 28 81  1  0  0  0  0
 29 82  1  0  0  0  0
 30 83  1  0  0  0  0
 31 84  1  0  0  0  0
 32 64  2  0  0  0  0
 33 66  1  0  0  0  0
 33 69  1  0  0  0  0
 34 36  1  0  0  0  0
 34 65  2  0  0  0  0
 35 70  1  0  0  0  0
 35 74  2  0  0  0  0
 36 67  1  0  0  0  0
 36 75  2  0  0  0  0
 37 50  1  0  0  0  0
 37 71  1  0  0  0  0
 37 76  2  0  0  0  0
 38 61  1  0  0  0  0
 38 68  1  0  0  0  0
 38 77  2  0  0  0  0
 39 62  1  0  0  0  0
 39 72  1  0  0  0  0
 39 78  2  0  0  0  0
 40 43  1  0  0  0  0
 41 50  1  0  0  0  0
 42 68  1  0  0  0  0
 43 45  1  0  0  0  0
 44 46  1  0  0  0  0
 44 47  1  0  0  0  0
 45 49  1  0  0  0  0
 46 51  1  0  0  0  0
 47 67  1  0  0  0  0
 48 51  1  0  0  0  0
 48 67  1  0  0  0  0
 49 71  1  0  0  0  0
 50 68  1  0  0  0  0
 51 66  1  0  0  0  0
 53 62  1  0  0  0  0
 54 63  1  0  0  0  0
 55 63  1  0  0  0  0
 56 63  1  0  0  0  0
 57 73  1  0  0  0  0
 58 59  1  0  0  0  0
 58 60  1  0  0  0  0
 59 80  1  0  0  0  0
 60 81  1  0  0  0  0
 61 63  1  0  0  0  0
 61 72  1  0  0  0  0
 62 73  1  0  0  0  0
 64 66  1  0  0  0  0
M  CHG  1  73   1
M  ISO  4  34 100  36 100  59 101  80 101
M  END
> <Batch ID>
0103

> <Smiles>
CNC(C)C(=O)NC(C(=O)N1Cc2cc([101O:1][101CH2:1]CCOc3cc(C)c([100C:0](=N)[100C:0](=O)N4CCCC(n5nc(-c6ccc(Oc7ccc(F)cc7F)cc6)c(C(N)=O)c5N)C4)cc3F)ccc2CC1C(=O)NC1CCCc2ccccc21)C(C)(C)C

> <Shape>
0.127

> <Color>
0.173

> <Negative vol penalty>
0.000

$$$$

  -OEChem-04052301053D

 86 95  0     1  0  0  0  0  0999 V2000
  -20.5576  -30.8997   23.9928 C   0  0  0  0  0  0  0  0  0  0  0  0
  -21.7695  -30.2551   23.7663 C   0  0  0  0  0  0  0  0  0  0  0  0
  -23.4904  -12.4551   20.5201 C   0  0  0  0  0  0  0  0  0  0  0  0
  -24.2849  -13.0088   22.7335 C   0  0  0  0  0  0  0  0  0  0  0  0
  -19.3598  -30.2631   23.6704 C   0  0  0  0  0  0  0  0  0  0  0  0
  -21.7842  -28.9729   23.2184 C   0  0  0  0  0  0  0  0  0  0  0  0
  -25.2489  -28.4633   19.5603 C   0  0  0  0  0  0  0  0  0  0  0  0
  -23.2859  -11.1357   20.9235 C   0  0  0  0  0  0  0  0  0  0  0  0
  -24.0804  -11.6893   23.1370 C   0  0  0  0  0  0  0  0  0  0  0  0
  -26.5753  -28.3009   19.9578 C   0  0  0  0  0  0  0  0  0  0  0  0
  -20.9762   -9.3964   22.6767 C   0  0  0  0  0  0  0  0  0  0  0  0
  -19.7783   -8.7842   22.3082 C   0  0  0  0  0  0  0  0  0  0  0  0
  -26.3852  -25.9230   19.5990 C   0  0  0  0  0  0  0  0  0  0  0  0
  -29.1083  -22.4447   21.8143 C   0  0  0  0  0  0  0  0  0  0  0  0
  -28.2836  -24.1343   23.3315 C   0  0  0  0  0  0  0  0  0  0  0  0
  -26.7961  -22.4150   22.5140 C   0  0  0  0  0  0  0  0  0  0  0  0
  -21.0134   -7.0925   21.1041 C   0  0  0  0  0  0  0  0  0  0  0  0
  -23.9899  -13.3917   21.4250 C   0  0  0  0  0  0  0  0  0  0  0  0
  -23.2802  -15.8167   21.0741 C   0  0  0  0  0  0  0  0  0  0  0  0
  -19.3602  -28.9763   23.1093 C   0  0  0  0  0  0  0  0  0  0  0  0
  -24.4761  -27.3537   19.1890 C   0  0  0  0  0  0  0  0  0  0  0  0
  -20.5853  -28.3180   22.8894 C   0  0  0  0  0  0  0  0  0  0  0  0
  -25.0500  -26.0743   19.1947 C   0  0  0  0  0  0  0  0  0  0  0  0
  -29.3293  -23.5810   22.5925 C   0  0  0  0  0  0  0  0  0  0  0  0
  -27.8417  -21.8617   21.7750 C   0  0  0  0  0  0  0  0  0  0  0  0
  -23.5808  -10.7528   22.2320 C   0  0  0  0  0  0  0  0  0  0  0  0
  -27.1428  -27.0302   19.9799 C   0  0  0  0  0  0  0  0  0  0  0  0
  -22.1927   -8.8568   22.2588 C   0  0  0  0  0  0  0  0  0  0  0  0
  -19.7969   -7.6322   21.5220 C   0  0  0  0  0  0  0  0  0  0  0  0
  -27.0170  -23.5513   23.2923 C   0  0  0  0  0  0  0  0  0  0  0  0
  -22.2113   -7.7048   21.4725 C   0  0  0  0  0  0  0  0  0  0  0  0
  -24.2019  -14.7547   21.0087 C   0  0  0  0  0  0  0  0  0  0  0  0
  -23.9606  -16.8940   20.5613 C   0  0  0  0  0  0  0  0  0  0  0  0
  -30.5205  -26.7074   22.3382 C   0  0  0  0  0  0  0  0  0  0  0  0
  -21.9297  -15.8284   21.5555 C   0  0  0  0  0  0  0  0  0  0  0  0
  -21.8235  -25.9960   20.2955 C   0  0  0  0  0  0  0  0  0  0  0  0
  -22.1309  -24.1468   17.6482 C   0  0  0  0  0  0  0  0  0  0  0  0
  -24.1747  -22.8435   15.2459 C   0  0  0  0  0  0  0  0  0  0  0  0
  -28.5447  -20.0329   20.1915 C   0  0  0  0  0  0  0  0  0  0  0  0
  -18.0385  -28.3096   22.8211 C   0  0  0  0  0  0  0  0  0  0  0  0
  -23.0548  -27.5489   18.7371 C   0  0  0  0  0  0  0  0  0  0  0  0
  -24.2691  -24.8530   18.7860 C   0  0  0  0  0  0  0  0  0  0  0  0
  -18.1549  -27.1005   21.8965 C   0  0  0  0  0  0  0  0  0  0  0  0
  -28.3919  -17.1361   18.1270 C   0  0  0  0  0  0  0  0  0  0  0  0
  -19.3014  -26.1976   22.3402 C   0  0  0  0  0  0  0  0  0  0  0  0
  -27.2124  -16.3457   18.6980 C   0  0  0  0  0  0  0  0  0  0  0  0
  -31.2885  -26.8307   20.0804 C   0  0  0  0  0  0  0  0  0  0  0  0
  -29.1902  -17.8364   19.2252 C   0  0  0  0  0  0  0  0  0  0  0  0
  -30.9646  -25.3894   20.4251 C   0  0  0  0  0  0  0  0  0  0  0  0
  -27.2168  -17.8893   20.6991 C   0  0  0  0  0  0  0  0  0  0  0  0
  -20.6433  -26.9368   22.2736 C   0  0  1  0  0  0  0  0  0  0  0  0
  -30.5670  -27.6534   21.1531 C   0  0  1  0  0  0  0  0  0  0  0  0
  -22.2063  -26.2882   18.8722 C   0  0  1  0  0  0  0  0  0  0  0  0
  -26.3445  -17.2193   19.6249 C   0  0  2  0  0  0  0  0  0  0  0  0
  -24.1446  -21.3368   13.2393 C   0  0  0  0  0  0  0  0  0  0  0  0
  -21.9605  -21.7133   19.4810 C   0  0  0  0  0  0  0  0  0  0  0  0
  -22.8722  -20.3254   17.6074 C   0  0  0  0  0  0  0  0  0  0  0  0
  -20.6867  -21.4978   17.3397 C   0  0  0  0  0  0  0  0  0  0  0  0
  -25.0949  -25.0145   13.4574 C   0  0  0  0  0  0  0  0  0  0  0  0
  -30.6925  -24.2085   22.6356 C   0  0  0  0  0  0  0  0  0  0  0  0
  -29.1552  -28.0446   20.7396 C   0  0  0  0  0  0  0  0  0  1  0  0
  -22.8258  -22.8454   17.3280 C   0  0  1  0  0  0  0  0  0  0  0  0
  -24.0351  -22.7699   13.7361 C   0  0  2  0  0  0  0  0  0  0  0  0
  -22.1007  -21.6181   17.9486 C   0  0  0  0  0  0  0  0  0  0  0  0
  -25.3782  -15.1238   20.4947 N   0  0  0  0  0  0  0  0  0  0  0  0
  -25.2001  -16.4298   20.2324 N   0  0  0  0  0  0  0  0  0  0  0  0
  -30.7542  -25.4237   21.8525 N   0  0  0  0  0  0  0  0  0  0  0  0
  -22.8814  -25.0948   18.3581 N   0  0  0  0  0  0  0  0  0  0  0  0
  -28.3033  -18.6489   20.0607 N   0  0  0  0  0  0  0  0  0  0  0  0
  -23.6134  -18.1836   20.3641 N   0  0  0  0  0  0  0  0  0  0  0  0
  -21.3858  -14.6345   22.0486 N   0  0  0  0  0  0  0  0  0  0  0  0
  -27.6169  -20.7075   20.9844 N   0  0  0  0  0  0  0  0  0  0  0  0
  -21.1122  -27.0110   20.9065 N   0  0  0  0  0  0  0  0  0  0  0  0
  -22.9487  -22.7951   15.8751 N   0  0  0  0  0  0  0  0  0  0  0  0
  -25.0999  -23.5783   13.0775 N   0  3  0  0  0  0  0  0  0  0  0  0
  -30.2707  -27.0440   23.4867 O   0  0  0  0  0  0  0  0  0  0  0  0
  -21.2206  -16.8630   21.5334 O   0  0  0  0  0  0  0  0  0  0  0  0
  -22.1481  -24.9282   20.8014 O   0  0  0  0  0  0  0  0  0  0  0  0
  -20.9675  -24.3188   17.2759 O   0  0  0  0  0  0  0  0  0  0  0  0
  -25.2627  -22.9310   15.8108 O   0  0  0  0  0  0  0  0  0  0  0  0
  -29.4880  -20.5841   19.6186 O   0  0  0  0  0  0  0  0  0  0  0  0
  -23.3812   -9.4654   22.6261 O   0  0  0  0  0  0  0  0  0  0  0  0
  -28.4371  -26.8688   20.3681 O   0  0  0  0  0  0  0  0  0  1  0  0
  -18.6465   -7.0434   21.1695 F   0  0  0  0  0  0  0  0  0  0  0  0
  -26.0130  -24.0828   24.0020 F   0  0  0  0  0  0  0  0  0  0  0  0
  -23.3769   -7.1810   21.0690 F   0  0  0  0  0  0  0  0  0  0  0  0
  1  2  1  0  0  0  0
  1  5  2  0  0  0  0
  2  6  2  0  0  0  0
  3  8  2  0  0  0  0
  3 18  1  0  0  0  0
  4  9  1  0  0  0  0
  4 18  2  0  0  0  0
  5 20  1  0  0  0  0
  6 22  1  0  0  0  0
  7 10  2  0  0  0  0
  7 21  1  0  0  0  0
  8 26  1  0  0  0  0
  9 26  2  0  0  0  0
 10 27  1  0  0  0  0
 11 12  2  0  0  0  0
 11 28  1  0  0  0  0
 12 29  1  0  0  0  0
 13 23  1  0  0  0  0
 13 27  2  0  0  0  0
 14 24  2  0  0  0  0
 14 25  1  0  0  0  0
 15 24  1  0  0  0  0
 15 30  2  0  0  0  0
 16 25  2  0  0  0  0
 16 30  1  0  0  0  0
 17 29  2  0  0  0  0
 17 31  1  0  0  0  0
 18 32  1  0  0  0  0
 19 32  1  0  0  0  0
 19 33  2  0  0  0  0
 19 35  1  0  0  0  0
 20 22  2  0  0  0  0
 20 40  1  0  0  0  0
 21 23  2  0  0  0  0
 21 41  1  0  0  0  0
 22 51  1  0  0  0  0
 23 42  1  0  0  0  0
 24 60  1  0  0  0  0
 25 72  1  0  0  0  0
 26 82  1  0  0  0  0
 27 83  1  0  0  0  0
 28 31  2  0  0  0  0
 28 82  1  0  0  0  0
 29 84  1  0  0  0  0
 30 85  1  0  0  0  0
 31 86  1  0  0  0  0
 32 65  2  0  0  0  0
 33 66  1  0  0  0  0
 33 70  1  0  0  0  0
 34 52  1  0  0  0  0
 34 67  1  0  0  0  0
 34 76  2  0  0  0  0
 35 71  1  0  0  0  0
 35 77  2  0  0  0  0
 36 53  1  0  0  0  0
 36 73  1  0  0  0  0
 36 78  2  0  0  0  0
 37 62  1  0  0  0  0
 37 68  1  0  0  0  0
 37 79  2  0  0  0  0
 38 63  1  0  0  0  0
 38 74  1  0  0  0  0
 38 80  2  0  0  0  0
 39 69  1  0  0  0  0
 39 72  1  0  0  0  0
 39 81  2  0  0  0  0
 40 43  1  0  0  0  0
 41 53  1  0  0  0  0
 42 68  1  0  0  0  0
 43 45  1  0  0  0  0
 44 46  1  0  0  0  0
 44 48  1  0  0  0  0
 45 51  1  0  0  0  0
 46 54  1  0  0  0  0
 47 49  1  0  0  0  0
 47 52  1  0  0  0  0
 48 69  1  0  0  0  0
 49 67  1  0  0  0  0
 50 54  1  0  0  0  0
 50 69  1  0  0  0  0
 51 73  1  0  0  0  0
 52 61  1  0  0  0  0
 53 68  1  0  0  0  0
 54 66  1  0  0  0  0
 55 63  1  0  0  0  0
 56 64  1  0  0  0  0
 57 64  1  0  0  0  0
 58 64  1  0  0  0  0
 59 75  1  0  0  0  0
 60 67  1  0  0  0  0
 61 83  1  0  0  0  0
 62 64  1  0  0  0  0
 62 74  1  0  0  0  0
 63 75  1  0  0  0  0
 65 66  1  0  0  0  0
M  CHG  1  75   1
M  ISO  4  39 100  61 101  72 100  83 101
M  END
> <Batch ID>
0103

> <Smiles>
CNC(C)C(=O)NC(C(=O)N1Cc2cc([101O:1][101CH2:1]C3CCN(Cc4cc(F)cc([100NH:0][100C:0](=O)N5CCCC(n6nc(-c7ccc(Oc8ccc(F)cc8F)cc7)c(C(N)=O)c6N)C5)c4)C3=O)ccc2CC1C(=O)NC1CCCc2ccccc21)C(C)(C)C

> <Shape>
0.229

> <Color>
0.077

> <Negative vol penalty>
0.000

$$$$

  -OEChem-04052301053D

 85 94  0     1  0  0  0  0  0999 V2000
  -26.8312  -37.8129   19.6794 C   0  0  0  0  0  0  0  0  0  0  0  0
  -27.3809  -36.5600   19.4276 C   0  0  0  0  0  0  0  0  0  0  0  0
  -24.6202   -8.5630   20.6274 C   0  0  0  0  0  0  0  0  0  0  0  0
  -23.1795  -10.4646   21.0088 C   0  0  0  0  0  0  0  0  0  0  0  0
  -26.0143  -38.0035   20.7931 C   0  0  0  0  0  0  0  0  0  0  0  0
  -27.1149  -35.4971   20.2901 C   0  0  0  0  0  0  0  0  0  0  0  0
  -26.4716  -29.5984   18.7743 C   0  0  0  0  0  0  0  0  0  0  0  0
  -23.5522   -7.7027   20.8820 C   0  0  0  0  0  0  0  0  0  0  0  0
  -22.1114   -9.6043   21.2634 C   0  0  0  0  0  0  0  0  0  0  0  0
  -27.3495  -28.5165   18.8224 C   0  0  0  0  0  0  0  0  0  0  0  0
  -20.8372   -6.5461   19.2314 C   0  0  0  0  0  0  0  0  0  0  0  0
  -20.6499   -5.4707   18.3632 C   0  0  0  0  0  0  0  0  0  0  0  0
  -26.4363  -27.8782   20.9619 C   0  0  0  0  0  0  0  0  0  0  0  0
  -28.7188  -19.7978   19.7513 C   0  0  0  0  0  0  0  0  0  0  0  0
  -29.6541  -18.8104   22.1871 C   0  0  0  0  0  0  0  0  0  0  0  0
  -20.9285   -3.9338   20.2064 C   0  0  0  0  0  0  0  0  0  0  0  0
  -24.4338   -9.9440   20.6909 C   0  0  0  0  0  0  0  0  0  0  0  0
  -25.9176  -11.3714   19.1847 C   0  0  0  0  0  0  0  0  0  0  0  0
  -25.7304  -36.9400   21.6643 C   0  0  0  0  0  0  0  0  0  0  0  0
  -25.5754  -29.8351   19.8265 C   0  0  0  0  0  0  0  0  0  0  0  0
  -26.2946  -35.6739   21.4173 C   0  0  0  0  0  0  0  0  0  0  0  0
  -25.5462  -28.9623   20.9236 C   0  0  0  0  0  0  0  0  0  0  0  0
  -28.7262  -18.4236   19.9902 C   0  0  0  0  0  0  0  0  0  0  0  0
  -29.1791  -20.6783   20.7304 C   0  0  0  0  0  0  0  0  0  0  0  0
  -29.1939  -17.9299   21.2080 C   0  0  0  0  0  0  0  0  0  0  0  0
  -29.6467  -20.1846   21.9482 C   0  0  0  0  0  0  0  0  0  0  0  0
  -22.2978   -8.2234   21.1999 C   0  0  0  0  0  0  0  0  0  0  0  0
  -27.3340  -27.6578   19.9176 C   0  0  0  0  0  0  0  0  0  0  0  0
  -21.0703   -6.3154   20.5873 C   0  0  0  0  0  0  0  0  0  0  0  0
  -20.6955   -4.1646   18.8506 C   0  0  0  0  0  0  0  0  0  0  0  0
  -21.1159   -5.0093   21.0747 C   0  0  0  0  0  0  0  0  0  0  0  0
  -25.5369  -10.8332   20.4285 C   0  0  0  0  0  0  0  0  0  0  0  0
  -27.0151  -12.1472   19.4678 C   0  0  0  0  0  0  0  0  0  0  0  0
  -25.3316  -11.1867   17.8893 C   0  0  0  0  0  0  0  0  0  0  0  0
  -25.1241  -32.2025   21.8991 C   0  0  0  0  0  0  0  0  0  0  0  0
  -22.5269  -30.4503   22.7396 C   0  0  0  0  0  0  0  0  0  0  0  0
  -21.0021  -27.3990   22.8484 C   0  0  0  0  0  0  0  0  0  0  0  0
  -29.6412  -15.9009   22.6327 C   0  0  0  0  0  0  0  0  0  0  0  0
  -24.8802  -37.2058   22.8814 C   0  0  0  0  0  0  0  0  0  0  0  0
  -24.6164  -30.9911   19.7472 C   0  0  0  0  0  0  0  0  0  0  0  0
  -24.5894  -29.1609   22.0697 C   0  0  0  0  0  0  0  0  0  0  0  0
  -24.3440  -35.9367   23.5388 C   0  0  0  0  0  0  0  0  0  0  0  0
  -29.8008  -12.5015   23.6793 C   0  0  0  0  0  0  0  0  0  0  0  0
  -25.4545  -34.9012   23.6851 C   0  0  0  0  0  0  0  0  0  0  0  0
  -28.7370  -11.8087   22.8245 C   0  0  0  0  0  0  0  0  0  0  0  0
  -29.9007  -24.2310   20.0616 C   0  0  0  0  0  0  0  0  0  0  0  0
  -29.3695  -13.9078   24.0916 C   0  0  0  0  0  0  0  0  0  0  0  0
  -30.2713  -22.7628   19.8633 C   0  0  0  0  0  0  0  0  0  0  0  0
  -28.0400  -22.9134   20.7885 C   0  0  0  0  0  0  0  0  0  0  0  0
  -27.8891  -14.0860   22.1305 C   0  0  0  0  0  0  0  0  0  0  0  0
  -26.0093  -34.4902   22.3159 C   0  0  1  0  0  0  0  0  0  0  0  0
  -24.1000  -31.4340   21.1127 C   0  0  1  0  0  0  0  0  0  0  0  0
  -28.3750  -24.2109   20.0443 C   0  0  1  0  0  0  0  0  0  0  0  0
  -28.3061  -12.6911   21.6366 C   0  0  2  0  0  0  0  0  0  0  0  0
  -28.2270  -17.5035   18.9236 C   0  0  0  0  0  0  0  0  0  0  0  0
  -18.8988  -26.2747   23.6289 C   0  0  0  0  0  0  0  0  0  0  0  0
  -23.5353  -30.5666   25.6170 C   0  0  0  0  0  0  0  0  0  0  0  0
  -21.9751  -28.6871   26.1662 C   0  0  0  0  0  0  0  0  0  0  0  0
  -21.0654  -30.8671   25.3643 C   0  0  0  0  0  0  0  0  0  0  0  0
  -20.2944  -26.5576   20.1007 C   0  0  0  0  0  0  0  0  0  0  0  0
  -27.7525  -25.4433   20.6769 C   0  0  0  0  0  0  0  0  0  1  0  0
  -22.2580  -29.3466   23.7339 C   0  0  1  0  0  0  0  0  0  0  0  0
  -19.6003  -26.9593   22.4662 C   0  0  2  0  0  0  0  0  0  0  0  0
  -22.2279  -29.8639   25.1998 C   0  0  0  0  0  0  0  0  0  0  0  0
  -26.3283  -11.2330   21.4274 N   0  0  0  0  0  0  0  0  0  0  0  0
  -27.2173  -12.0307   20.8116 N   0  0  0  0  0  0  0  0  0  0  0  0
  -29.1633  -22.0330   20.4743 N   0  0  3  0  0  0  0  0  0  0  0  0
  -23.6759  -30.3090   21.9486 N   0  0  0  0  0  0  0  0  0  0  0  0
  -28.9795  -14.6870   22.9145 N   0  0  0  0  0  0  0  0  0  0  0  0
  -30.1167  -21.0590   22.9537 N   0  0  0  0  0  0  0  0  0  0  0  0
  -27.8173  -12.9107   18.6959 N   0  0  0  0  0  0  0  0  0  0  0  0
  -24.2078  -10.3569   17.7765 N   0  0  0  0  0  0  0  0  0  0  0  0
  -29.2077  -16.5374   21.4701 N   0  0  0  0  0  0  0  0  0  0  0  0
  -25.1091  -33.5639   21.6631 N   0  0  0  0  0  0  0  0  0  0  0  0
  -21.0229  -28.7007   23.3027 N   0  0  0  0  0  0  0  0  0  0  0  0
  -19.6504  -26.0070   21.3209 N   0  3  0  0  0  0  0  0  0  0  0  0
  -25.8009  -11.7280   16.8596 O   0  0  0  0  0  0  0  0  0  0  0  0
  -25.8715  -31.6047   22.6644 O   0  0  0  0  0  0  0  0  0  0  0  0
  -21.7424  -31.3991   22.6625 O   0  0  0  0  0  0  0  0  0  0  0  0
  -21.9801  -26.6604   22.7568 O   0  0  0  0  0  0  0  0  0  0  0  0
  -30.5458  -16.3295   23.3537 O   0  0  0  0  0  0  0  0  0  0  0  0
  -21.2553   -7.3842   21.4482 O   0  0  0  0  0  0  0  0  0  0  0  0
  -28.1903  -26.6014   19.9673 O   0  0  0  0  0  0  0  0  0  1  0  0
  -20.5141   -3.1320   18.0170 F   0  0  0  0  0  0  0  0  0  0  0  0
  -21.3382   -4.7815   22.3765 F   0  0  0  0  0  0  0  0  0  0  0  0
  1  2  1  0  0  0  0
  1  5  2  0  0  0  0
  2  6  2  0  0  0  0
  3  8  2  0  0  0  0
  3 17  1  0  0  0  0
  4  9  1  0  0  0  0
  4 17  2  0  0  0  0
  5 19  1  0  0  0  0
  6 21  1  0  0  0  0
  7 10  2  0  0  0  0
  7 20  1  0  0  0  0
  8 27  1  0  0  0  0
  9 27  2  0  0  0  0
 10 28  1  0  0  0  0
 11 12  2  0  0  0  0
 11 29  1  0  0  0  0
 12 30  1  0  0  0  0
 13 22  1  0  0  0  0
 13 28  2  0  0  0  0
 14 23  2  0  0  0  0
 14 24  1  0  0  0  0
 15 25  2  0  0  0  0
 15 26  1  0  0  0  0
 16 30  2  0  0  0  0
 16 31  1  0  0  0  0
 17 32  1  0  0  0  0
 18 32  1  0  0  0  0
 18 33  2  0  0  0  0
 18 34  1  0  0  0  0
 19 21  2  0  0  0  0
 19 39  1  0  0  0  0
 20 22  2  0  0  0  0
 20 40  1  0  0  0  0
 21 51  1  0  0  0  0
 22 41  1  0  0  0  0
 23 25  1  0  0  0  0
 23 55  1  0  0  0  0
 24 26  2  0  0  0  0
 24 67  1  0  0  0  0
 25 73  1  0  0  0  0
 26 70  1  0  0  0  0
 27 82  1  0  0  0  0
 28 83  1  0  0  0  0
 29 31  2  0  0  0  0
 29 82  1  0  0  0  0
 30 84  1  0  0  0  0
 31 85  1  0  0  0  0
 32 65  2  0  0  0  0
 33 66  1  0  0  0  0
 33 71  1  0  0  0  0
 34 72  1  0  0  0  0
 34 77  2  0  0  0  0
 35 52  1  0  0  0  0
 35 74  1  0  0  0  0
 35 78  2  0  0  0  0
 36 62  1  0  0  0  0
 36 68  1  0  0  0  0
 36 79  2  0  0  0  0
 37 63  1  0  0  0  0
 37 75  1  0  0  0  0
 37 80  2  0  0  0  0
 38 69  1  0  0  0  0
 38 73  1  0  0  0  0
 38 81  2  0  0  0  0
 39 42  1  0  0  0  0
 40 52  1  0  0  0  0
 41 68  1  0  0  0  0
 42 44  1  0  0  0  0
 43 45  1  0  0  0  0
 43 47  1  0  0  0  0
 44 51  1  0  0  0  0
 45 54  1  0  0  0  0
 46 48  1  0  0  0  0
 46 53  1  0  0  0  0
 47 69  1  0  0  0  0
 48 67  1  0  0  0  0
 49 53  1  0  0  0  0
 49 67  1  0  0  0  0
 50 54  1  0  0  0  0
 50 69  1  0  0  0  0
 51 74  1  0  0  0  0
 52 68  1  0  0  0  0
 53 61  1  0  0  0  0
 54 66  1  0  0  0  0
 56 63  1  0  0  0  0
 57 64  1  0  0  0  0
 58 64  1  0  0  0  0
 59 64  1  0  0  0  0
 60 76  1  0  0  0  0
 61 83  1  0  0  0  0
 62 64  1  0  0  0  0
 62 75  1  0  0  0  0
 63 76  1  0  0  0  0
 65 66  1  0  0  0  0
M  CHG  1  76   1
M  ISO  4  38 100  61 101  73 100  83 101
M  END
> <Batch ID>
0103

> <Smiles>
CNC(C)C(=O)NC(C(=O)N1Cc2cc([101O:1][101CH2:1]C3CCN(c4cc(C)c([100NH:0][100C:0](=O)N5CCCC(n6nc(-c7ccc(Oc8ccc(F)cc8F)cc7)c(C(N)=O)c6N)C5)cc4N)C3)ccc2CC1C(=O)NC1CCCc2ccccc21)C(C)(C)C

> <Shape>
0.314

> <Color>
0.091

> <Negative vol penalty>
0.000

$$$$

  -OEChem-04052301053D

 85 94  0     1  0  0  0  0  0999 V2000
  -17.1249  -30.0141   23.9003 C   0  0  0  0  0  0  0  0  0  0  0  0
  -18.4497  -30.4379   23.9282 C   0  0  0  0  0  0  0  0  0  0  0  0
  -23.9368  -13.0779   20.1204 C   0  0  0  0  0  0  0  0  0  0  0  0
  -25.6610  -13.4652   21.7679 C   0  0  0  0  0  0  0  0  0  0  0  0
  -16.8138  -28.7314   23.4511 C   0  0  0  0  0  0  0  0  0  0  0  0
  -19.4643  -29.5787   23.5077 C   0  0  0  0  0  0  0  0  0  0  0  0
  -25.8622  -29.6501   20.2862 C   0  0  0  0  0  0  0  0  0  0  0  0
  -29.8251  -24.3535   20.6311 C   0  0  0  0  0  0  0  0  0  0  0  0
  -29.2762  -23.2871   19.9190 C   0  0  0  0  0  0  0  0  0  0  0  0
  -23.9752  -11.7122   20.4012 C   0  0  0  0  0  0  0  0  0  0  0  0
  -25.6993  -12.0994   22.0488 C   0  0  0  0  0  0  0  0  0  0  0  0
  -27.1644  -29.1858   20.4669 C   0  0  0  0  0  0  0  0  0  0  0  0
  -23.8805   -9.8708   23.8224 C   0  0  0  0  0  0  0  0  0  0  0  0
  -23.9093   -9.4870   25.1631 C   0  0  0  0  0  0  0  0  0  0  0  0
  -26.5012  -27.0204   19.6361 C   0  0  0  0  0  0  0  0  0  0  0  0
  -28.1250  -24.0954   22.3281 C   0  0  0  0  0  0  0  0  0  0  0  0
  -26.0244   -8.3773   24.7999 C   0  0  0  0  0  0  0  0  0  0  0  0
  -24.7798  -13.9544   20.8037 C   0  0  0  0  0  0  0  0  0  0  0  0
  -23.9325  -16.3382   21.1313 C   0  0  0  0  0  0  0  0  0  0  0  0
  -17.8242  -27.8595   23.0158 C   0  0  0  0  0  0  0  0  0  0  0  0
  -24.8656  -28.7984   19.7885 C   0  0  0  0  0  0  0  0  0  0  0  0
  -19.1666  -28.2827   23.0534 C   0  0  0  0  0  0  0  0  0  0  0  0
  -25.1878  -27.4770   19.4476 C   0  0  0  0  0  0  0  0  0  0  0  0
  -27.5760  -23.0290   21.6160 C   0  0  0  0  0  0  0  0  0  0  0  0
  -29.2495  -24.7576   21.8357 C   0  0  0  0  0  0  0  0  0  0  0  0
  -28.1517  -22.6248   20.4114 C   0  0  0  0  0  0  0  0  0  0  0  0
  -24.8564  -11.2229   21.3654 C   0  0  0  0  0  0  0  0  0  0  0  0
  -27.4834  -27.8700   20.1446 C   0  0  0  0  0  0  0  0  0  0  0  0
  -24.9236   -9.5078   22.9704 C   0  0  0  0  0  0  0  0  0  0  0  0
  -24.9813   -8.7402   25.6519 C   0  0  0  0  0  0  0  0  0  0  0  0
  -25.9956   -8.7611   23.4592 C   0  0  0  0  0  0  0  0  0  0  0  0
  -24.7410  -15.3653   20.5136 C   0  0  0  0  0  0  0  0  0  0  0  0
  -24.2692  -17.5129   20.5042 C   0  0  0  0  0  0  0  0  0  0  0  0
  -29.7854  -26.0196   23.9686 C   0  0  0  0  0  0  0  0  0  0  0  0
  -22.9639  -16.1932   22.1784 C   0  0  0  0  0  0  0  0  0  0  0  0
  -22.1131  -27.6710   20.9095 C   0  0  0  0  0  0  0  0  0  0  0  0
  -21.8348  -26.4642   17.9114 C   0  0  0  0  0  0  0  0  0  0  0  0
  -23.3791  -25.4410   15.0452 C   0  0  0  0  0  0  0  0  0  0  0  0
  -28.0747  -21.0285   18.4641 C   0  0  0  0  0  0  0  0  0  0  0  0
  -17.4437  -26.4657   22.5832 C   0  0  0  0  0  0  0  0  0  0  0  0
  -23.4720  -29.3222   19.5742 C   0  0  0  0  0  0  0  0  0  0  0  0
  -24.1590  -26.5283   18.8908 C   0  0  0  0  0  0  0  0  0  0  0  0
  -30.5198  -27.2999   24.2888 C   0  0  0  0  0  0  0  0  0  0  0  0
  -18.5421  -25.7492   21.8020 C   0  0  0  0  0  0  0  0  0  0  0  0
  -31.3462  -27.5542   23.0423 C   0  0  0  0  0  0  0  0  0  0  0  0
  -27.0414  -18.3538   16.3533 C   0  0  0  0  0  0  0  0  0  0  0  0
  -19.8878  -25.9118   22.5017 C   0  0  0  0  0  0  0  0  0  0  0  0
  -26.2843  -17.4179   17.2983 C   0  0  0  0  0  0  0  0  0  0  0  0
  -28.2441  -19.0002   17.0385 C   0  0  0  0  0  0  0  0  0  0  0  0
  -27.1881  -18.7454   19.2497 C   0  0  0  0  0  0  0  0  0  0  0  0
  -20.2929  -27.3886   22.5821 C   0  0  1  0  0  0  0  0  0  0  0  0
  -22.4175  -28.2201   19.5444 C   0  0  1  0  0  0  0  0  0  0  0  0
  -25.9305  -18.1207   18.6236 C   0  0  2  0  0  0  0  0  0  0  0  0
  -30.4981  -26.9668   21.9198 C   0  0  2  0  0  0  0  0  0  0  0  0
  -26.3725  -22.3364   22.1679 C   0  0  0  0  0  0  0  0  0  0  0  0
  -22.8911  -24.4684   12.7839 C   0  0  0  0  0  0  0  0  0  0  0  0
  -21.3729  -23.7320   19.1889 C   0  0  0  0  0  0  0  0  0  0  0  0
  -21.8401  -22.6890   16.9614 C   0  0  0  0  0  0  0  0  0  0  0  0
  -19.8982  -24.2312   17.2317 C   0  0  0  0  0  0  0  0  0  0  0  0
  -24.5293  -27.7891   13.6587 C   0  0  0  0  0  0  0  0  0  0  0  0
  -29.5155  -28.0047   21.3727 C   0  0  0  0  0  0  0  0  0  1  0  0
  -22.2426  -25.1778   17.2346 C   0  0  1  0  0  0  0  0  0  0  0  0
  -23.0962  -25.7447   13.5850 C   0  0  2  0  0  0  0  0  0  0  0  0
  -21.3576  -23.9746   17.6664 C   0  0  0  0  0  0  0  0  0  0  0  0
  -25.5316  -15.8773   19.5667 N   0  0  0  0  0  0  0  0  0  0  0  0
  -25.2215  -17.1848   19.5846 N   0  0  0  0  0  0  0  0  0  0  0  0
  -29.8149  -25.8507   22.5679 N   0  0  0  0  0  0  0  0  0  0  0  0
  -22.8090  -27.0857   18.7054 N   0  0  0  0  0  0  0  0  0  0  0  0
  -27.8322  -19.6501   18.2846 N   0  0  0  0  0  0  0  0  0  0  0  0
  -23.8405  -18.7840   20.6551 N   0  0  0  0  0  0  0  0  0  0  0  0
  -22.7414  -14.9158   22.7105 N   0  0  0  0  0  0  0  0  0  0  0  0
  -27.6100  -21.5428   19.6741 N   0  0  0  0  0  0  0  0  0  0  0  0
  -20.8006  -27.8436   21.3056 N   0  0  0  0  0  0  0  0  0  0  0  0
  -22.2258  -25.4478   15.8010 N   0  0  0  0  0  0  0  0  0  0  0  0
  -24.2316  -26.4997   12.9836 N   0  3  0  0  0  0  0  0  0  0  0  0
  -29.2641  -25.3342   24.8365 O   0  0  0  0  0  0  0  0  0  0  0  0
  -22.3032  -17.1648   22.6176 O   0  0  0  0  0  0  0  0  0  0  0  0
  -23.0029  -27.1293   21.5550 O   0  0  0  0  0  0  0  0  0  0  0  0
  -20.6961  -26.9051   17.7362 O   0  0  0  0  0  0  0  0  0  0  0  0
  -24.5095  -25.2163   15.4719 O   0  0  0  0  0  0  0  0  0  0  0  0
  -28.6278  -21.7085   17.5960 O   0  0  0  0  0  0  0  0  0  0  0  0
  -24.8940   -9.8903   21.6398 O   0  0  0  0  0  0  0  0  0  0  0  0
  -28.7534  -27.4141   20.3207 O   0  0  0  0  0  0  0  0  0  1  0  0
  -25.0095   -8.3730   26.9397 F   0  0  0  0  0  0  0  0  0  0  0  0
  -27.0012   -8.4104   22.6458 F   0  0  0  0  0  0  0  0  0  0  0  0
  1  2  1  0  0  0  0
  1  5  2  0  0  0  0
  2  6  2  0  0  0  0
  3 10  2  0  0  0  0
  3 18  1  0  0  0  0
  4 11  1  0  0  0  0
  4 18  2  0  0  0  0
  5 20  1  0  0  0  0
  6 22  1  0  0  0  0
  7 12  2  0  0  0  0
  7 21  1  0  0  0  0
  8  9  2  0  0  0  0
  8 25  1  0  0  0  0
  9 26  1  0  0  0  0
 10 27  1  0  0  0  0
 11 27  2  0  0  0  0
 12 28  1  0  0  0  0
 13 14  2  0  0  0  0
 13 29  1  0  0  0  0
 14 30  1  0  0  0  0
 15 23  1  0  0  0  0
 15 28  2  0  0  0  0
 16 24  1  0  0  0  0
 16 25  2  0  0  0  0
 17 30  2  0  0  0  0
 17 31  1  0  0  0  0
 18 32  1  0  0  0  0
 19 32  1  0  0  0  0
 19 33  2  0  0  0  0
 19 35  1  0  0  0  0
 20 22  2  0  0  0  0
 20 40  1  0  0  0  0
 21 23  2  0  0  0  0
 21 41  1  0  0  0  0
 22 51  1  0  0  0  0
 23 42  1  0  0  0  0
 24 26  2  0  0  0  0
 24 55  1  0  0  0  0
 25 67  1  0  0  0  0
 26 72  1  0  0  0  0
 27 82  1  0  0  0  0
 28 83  1  0  0  0  0
 29 31  2  0  0  0  0
 29 82  1  0  0  0  0
 30 84  1  0  0  0  0
 31 85  1  0  0  0  0
 32 65  2  0  0  0  0
 33 66  1  0  0  0  0
 33 70  1  0  0  0  0
 34 43  1  0  0  0  0
 34 67  1  0  0  0  0
 34 76  2  0  0  0  0
 35 71  1  0  0  0  0
 35 77  2  0  0  0  0
 36 52  1  0  0  0  0
 36 73  1  0  0  0  0
 36 78  2  0  0  0  0
 37 62  1  0  0  0  0
 37 68  1  0  0  0  0
 37 79  2  0  0  0  0
 38 63  1  0  0  0  0
 38 74  1  0  0  0  0
 38 80  2  0  0  0  0
 39 69  1  0  0  0  0
 39 72  1  0  0  0  0
 39 81  2  0  0  0  0
 40 44  1  0  0  0  0
 41 52  1  0  0  0  0
 42 68  1  0  0  0  0
 43 45  1  0  0  0  0
 44 47  1  0  0  0  0
 45 54  1  0  0  0  0
 46 48  1  0  0  0  0
 46 49  1  0  0  0  0
 47 51  1  0  0  0  0
 48 53  1  0  0  0  0
 49 69  1  0  0  0  0
 50 53  1  0  0  0  0
 50 69  1  0  0  0  0
 51 73  1  0  0  0  0
 52 68  1  0  0  0  0
 53 66  1  0  0  0  0
 54 61  1  0  0  0  0
 54 67  1  0  0  0  0
 56 63  1  0  0  0  0
 57 64  1  0  0  0  0
 58 64  1  0  0  0  0
 59 64  1  0  0  0  0
 60 75  1  0  0  0  0
 61 83  1  0  0  0  0
 62 64  1  0  0  0  0
 62 74  1  0  0  0  0
 63 75  1  0  0  0  0
 65 66  1  0  0  0  0
M  CHG  1  75   1
M  ISO  4  39 100  61 101  72 100  83 101
M  END
> <Batch ID>
0103

> <Smiles>
CNC(C)C(=O)NC(C(=O)N1Cc2cc([101O:1][101CH2:1]C3CCC(=O)N3c3ccc([100NH:0][100C:0](=O)N4CCCC(n5nc(-c6ccc(Oc7ccc(F)cc7F)cc6)c(C(N)=O)c5N)C4)c(C)c3)ccc2CC1C(=O)NC1CCCc2ccccc21)C(C)(C)C

> <Shape>
0.213

> <Color>
0.074

> <Negative vol penalty>
0.000

$$$$

  -OEChem-04052301053D

 85 93  0     1  0  0  0  0  0999 V2000
  -23.9684  -22.0908   20.4591 C   0  0  0  0  0  0  0  0  0  0  0  0
  -24.9117  -21.4018   19.7034 C   0  0  0  0  0  0  0  0  0  0  0  0
  -26.4531  -28.2670   18.8211 C   0  0  0  0  0  0  0  0  0  0  0  0
  -26.6260  -28.2883   21.2308 C   0  0  0  0  0  0  0  0  0  0  0  0
  -23.4628  -21.5224   21.6275 C   0  0  0  0  0  0  0  0  0  0  0  0
  -25.3508  -20.1445   20.1165 C   0  0  0  0  0  0  0  0  0  0  0  0
  -27.5781  -13.8660   17.4828 C   0  0  0  0  0  0  0  0  0  0  0  0
  -29.4215  -16.4531   22.6887 C   0  0  0  0  0  0  0  0  0  0  0  0
  -29.6297  -15.1205   22.3334 C   0  0  0  0  0  0  0  0  0  0  0  0
  -25.2834  -29.0228   18.8983 C   0  0  0  0  0  0  0  0  0  0  0  0
  -25.4562  -29.0442   21.3081 C   0  0  0  0  0  0  0  0  0  0  0  0
  -28.6360  -12.9650   17.5957 C   0  0  0  0  0  0  0  0  0  0  0  0
  -22.1246  -28.5064   21.1035 C   0  0  0  0  0  0  0  0  0  0  0  0
  -21.1712  -28.1302   22.0496 C   0  0  0  0  0  0  0  0  0  0  0  0
  -27.6341  -12.0475   19.5890 C   0  0  0  0  0  0  0  0  0  0  0  0
  -31.8168  -15.6898   21.4794 C   0  0  0  0  0  0  0  0  0  0  0  0
  -21.3641  -30.2951   23.1047 C   0  0  0  0  0  0  0  0  0  0  0  0
  -27.1244  -27.8997   19.9874 C   0  0  0  0  0  0  0  0  0  0  0  0
  -29.6516  -27.6004   19.8097 C   0  0  0  0  0  0  0  0  0  0  0  0
  -23.8889  -20.2532   22.0499 C   0  0  0  0  0  0  0  0  0  0  0  0
  -26.5440  -13.8718   18.4299 C   0  0  0  0  0  0  0  0  0  0  0  0
  -24.8515  -19.5591   21.2924 C   0  0  0  0  0  0  0  0  0  0  0  0
  -26.5628  -12.9478   19.4844 C   0  0  0  0  0  0  0  0  0  0  0  0
  -30.4110  -17.4042   22.4393 C   0  0  0  0  0  0  0  0  0  0  0  0
  -31.6087  -17.0225   21.8346 C   0  0  0  0  0  0  0  0  0  0  0  0
  -30.8273  -14.7388   21.7288 C   0  0  0  0  0  0  0  0  0  0  0  0
  -24.7849  -29.4114   20.1418 C   0  0  0  0  0  0  0  0  0  0  0  0
  -28.6657  -12.0576   18.6505 C   0  0  0  0  0  0  0  0  0  0  0  0
  -22.6978  -29.7769   21.1580 C   0  0  0  0  0  0  0  0  0  0  0  0
  -20.7910  -29.0246   23.0502 C   0  0  0  0  0  0  0  0  0  0  0  0
  -22.3176  -30.6712   22.1586 C   0  0  0  0  0  0  0  0  0  0  0  0
  -28.3326  -27.1185   19.9083 C   0  0  0  0  0  0  0  0  0  0  0  0
  -30.4282  -26.4684   19.7648 C   0  0  0  0  0  0  0  0  0  0  0  0
  -30.1319  -28.9505   19.7628 C   0  0  0  0  0  0  0  0  0  0  0  0
  -25.4256  -15.9923   20.5170 C   0  0  0  0  0  0  0  0  0  0  0  0
  -23.1352  -13.7431   20.9837 C   0  0  0  0  0  0  0  0  0  0  0  0
  -32.1656  -12.8360   20.7640 C   0  0  0  0  0  0  0  0  0  0  0  0
  -22.2190  -10.4605   20.8045 C   0  0  0  0  0  0  0  0  0  0  0  0
  -29.5416  -21.0059   21.8216 C   0  0  0  0  0  0  0  0  0  0  0  0
  -23.3490  -19.7001   23.3450 C   0  0  0  0  0  0  0  0  0  0  0  0
  -25.3962  -14.8321   18.2789 C   0  0  0  0  0  0  0  0  0  0  0  0
  -25.4666  -12.8996   20.5162 C   0  0  0  0  0  0  0  0  0  0  0  0
  -23.5880  -18.2019   23.5141 C   0  0  0  0  0  0  0  0  0  0  0  0
  -30.2918  -21.8853   18.3922 C   0  0  0  0  0  0  0  0  0  0  0  0
  -25.0287  -17.8478   23.1593 C   0  0  0  0  0  0  0  0  0  0  0  0
  -29.9952  -23.3861   18.3911 C   0  0  0  0  0  0  0  0  0  0  0  0
  -29.2996  -21.1263   19.2683 C   0  0  0  0  0  0  0  0  0  0  0  0
  -28.9232  -23.1144   20.6752 C   0  0  0  0  0  0  0  0  0  0  0  0
  -25.3343  -18.1824   21.6944 C   0  0  1  0  0  0  0  0  0  0  0  0
  -24.6591  -15.0929   19.5889 C   0  0  1  0  0  0  0  0  0  0  0  0
  -29.9057  -23.9405   19.8253 C   0  0  2  0  0  0  0  0  0  0  0  0
  -32.6830  -18.0229   21.5598 C   0  0  0  0  0  0  0  0  0  0  0  0
  -20.2970   -8.9224   21.2918 C   0  0  0  0  0  0  0  0  0  0  0  0
  -23.7833  -13.8809   23.9621 C   0  0  0  0  0  0  0  0  0  0  0  0
  -22.5606  -11.7161   24.2571 C   0  0  0  0  0  0  0  0  0  0  0  0
  -21.3440  -13.7311   23.4311 C   0  0  0  0  0  0  0  0  0  0  0  0
  -21.9887   -9.6600   17.9646 C   0  0  0  0  0  0  0  0  0  0  0  0
  -30.1650  -18.8251   22.8278 C   0  0  0  0  0  0  0  0  0  0  0  0
  -31.9804  -11.3397   20.5529 C   0  0  0  0  0  0  0  0  0  0  0  0
  -32.0633  -10.9390   19.0841 C   0  0  0  0  0  0  0  0  0  0  0  0
  -30.9655  -11.5952   18.2595 C   0  0  0  0  0  0  0  0  0  1  0  0
  -22.9755  -12.5540   21.8998 C   0  0  1  0  0  0  0  0  0  0  0  0
  -20.9772   -9.7905   20.2447 C   0  0  2  0  0  0  0  0  0  0  0  0
  -22.6877  -12.9724   23.3693 C   0  0  0  0  0  0  0  0  0  0  0  0
  -28.2709  -25.7843   19.9251 N   0  0  0  0  0  0  0  0  0  0  0  0
  -29.5609  -25.4182   19.8362 N   0  0  0  0  0  0  0  0  0  0  0  0
  -24.3692  -13.8630   20.3289 N   0  0  0  0  0  0  0  0  0  0  0  0
  -29.2763  -21.6918   20.6247 N   0  0  0  0  0  0  0  0  0  0  0  0
  -31.7616  -26.2789   19.6716 N   0  0  0  0  0  0  0  0  0  0  0  0
  -29.1981  -29.9942   19.8198 N   0  0  0  0  0  0  0  0  0  0  0  0
  -31.0398  -13.3864   21.3699 N   0  0  0  0  0  0  0  0  0  0  0  0
  -24.7763  -17.1742   20.8187 N   0  0  0  0  0  0  0  0  0  0  0  0
  -21.9411  -11.7154   21.3038 N   0  0  0  0  0  0  0  0  0  0  0  0
  -29.8614  -19.6604   21.6872 N   0  0  0  0  0  0  0  0  0  0  0  0
  -21.3328   -8.9308   19.0804 N   0  3  0  0  0  0  0  0  0  0  0  0
  -31.3517  -29.2231   19.6566 O   0  0  0  0  0  0  0  0  0  0  0  0
  -26.5240  -15.6394   20.9301 O   0  0  0  0  0  0  0  0  0  0  0  0
  -22.1970  -14.5325   20.8482 O   0  0  0  0  0  0  0  0  0  0  0  0
  -33.1897  -13.4196   20.4248 O   0  0  0  0  0  0  0  0  0  0  0  0
  -23.3242   -9.9229   20.8027 O   0  0  0  0  0  0  0  0  0  0  0  0
  -29.5018  -21.5537   22.9287 O   0  0  0  0  0  0  0  0  0  0  0  0
  -23.6436  -30.1492   20.2175 O   0  0  0  0  0  0  0  0  0  0  0  0
  -29.6975  -11.1775   18.7635 O   0  0  0  0  0  0  0  0  0  1  0  0
  -19.8743  -28.6637   23.9578 F   0  0  0  0  0  0  0  0  0  0  0  0
  -22.8639  -31.8936   22.2154 F   0  0  0  0  0  0  0  0  0  0  0  0
  1  2  1  0  0  0  0
  1  5  2  0  0  0  0
  2  6  2  0  0  0  0
  3 10  2  0  0  0  0
  3 18  1  0  0  0  0
  4 11  1  0  0  0  0
  4 18  2  0  0  0  0
  5 20  1  0  0  0  0
  6 22  1  0  0  0  0
  7 12  2  0  0  0  0
  7 21  1  0  0  0  0
  8  9  2  0  0  0  0
  8 24  1  0  0  0  0
  9 26  1  0  0  0  0
 10 27  1  0  0  0  0
 11 27  2  0  0  0  0
 12 28  1  0  0  0  0
 13 14  2  0  0  0  0
 13 29  1  0  0  0  0
 14 30  1  0  0  0  0
 15 23  1  0  0  0  0
 15 28  2  0  0  0  0
 16 25  1  0  0  0  0
 16 26  2  0  0  0  0
 17 30  2  0  0  0  0
 17 31  1  0  0  0  0
 18 32  1  0  0  0  0
 19 32  1  0  0  0  0
 19 33  2  0  0  0  0
 19 34  1  0  0  0  0
 20 22  2  0  0  0  0
 20 40  1  0  0  0  0
 21 23  2  0  0  0  0
 21 41  1  0  0  0  0
 22 49  1  0  0  0  0
 23 42  1  0  0  0  0
 24 25  2  0  0  0  0
 24 58  1  0  0  0  0
 25 52  1  0  0  0  0
 26 71  1  0  0  0  0
 27 82  1  0  0  0  0
 28 83  1  0  0  0  0
 29 31  2  0  0  0  0
 29 82  1  0  0  0  0
 30 84  1  0  0  0  0
 31 85  1  0  0  0  0
 32 65  2  0  0  0  0
 33 66  1  0  0  0  0
 33 69  1  0  0  0  0
 34 70  1  0  0  0  0
 34 76  2  0  0  0  0
 35 50  1  0  0  0  0
 35 72  1  0  0  0  0
 35 77  2  0  0  0  0
 36 62  1  0  0  0  0
 36 67  1  0  0  0  0
 36 78  2  0  0  0  0
 37 59  1  0  0  0  0
 37 71  1  0  0  0  0
 37 79  2  0  0  0  0
 38 63  1  0  0  0  0
 38 73  1  0  0  0  0
 38 80  2  0  0  0  0
 39 68  1  0  0  0  0
 39 74  1  0  0  0  0
 39 81  2  0  0  0  0
 40 43  1  0  0  0  0
 41 50  1  0  0  0  0
 42 67  1  0  0  0  0
 43 45  1  0  0  0  0
 44 46  1  0  0  0  0
 44 47  1  0  0  0  0
 45 49  1  0  0  0  0
 46 51  1  0  0  0  0
 47 68  1  0  0  0  0
 48 51  1  0  0  0  0
 48 68  1  0  0  0  0
 49 72  1  0  0  0  0
 50 67  1  0  0  0  0
 51 66  1  0  0  0  0
 53 63  1  0  0  0  0
 54 64  1  0  0  0  0
 55 64  1  0  0  0  0
 56 64  1  0  0  0  0
 57 75  1  0  0  0  0
 58 74  1  0  0  0  0
 59 60  1  0  0  0  0
 60 61  1  0  0  0  0
 61 83  1  0  0  0  0
 62 64  1  0  0  0  0
 62 73  1  0  0  0  0
 63 75  1  0  0  0  0
 65 66  1  0  0  0  0
M  CHG  1  75   1
M  ISO  4  39 100  61 101  74 100  83 101
M  END
> <Batch ID>
0103

> <Smiles>
CNC(C)C(=O)NC(C(=O)N1Cc2cc([101O:1][101CH2:1]CCC(=O)Nc3ccc(C[100NH:0][100C:0](=O)N4CCCC(n5nc(-c6ccc(Oc7ccc(F)cc7F)cc6)c(C(N)=O)c5N)C4)c(C)c3)ccc2CC1C(=O)NC1CCCc2ccccc21)C(C)(C)C

> <Shape>
0.313

> <Color>
0.052

> <Negative vol penalty>
0.000

$$$$

  -OEChem-04052301053D

 89 98  0     1  0  0  0  0  0999 V2000
  -32.3415  -16.0850   22.0411 C   0  0  0  0  0  0  0  0  0  0  0  0
  -31.3421  -17.0020   21.7321 C   0  0  0  0  0  0  0  0  0  0  0  0
  -29.3483  -27.2455   21.7685 C   0  0  0  0  0  0  0  0  0  0  0  0
  -27.1628  -26.2737   21.4278 C   0  0  0  0  0  0  0  0  0  0  0  0
  -32.1421  -14.7278   21.7916 C   0  0  0  0  0  0  0  0  0  0  0  0
  -30.1429  -16.5625   21.1724 C   0  0  0  0  0  0  0  0  0  0  0  0
  -24.5606  -18.8913   22.1319 C   0  0  0  0  0  0  0  0  0  0  0  0
  -18.5638  -26.6550   23.1229 C   0  0  0  0  0  0  0  0  0  0  0  0
  -29.9195  -25.9735   21.7329 C   0  0  0  0  0  0  0  0  0  0  0  0
  -27.7340  -25.0016   21.3922 C   0  0  0  0  0  0  0  0  0  0  0  0
  -23.7772  -19.7820   21.3992 C   0  0  0  0  0  0  0  0  0  0  0  0
  -18.8836  -27.7578   23.9148 C   0  0  0  0  0  0  0  0  0  0  0  0
  -28.6595  -21.5276   20.8509 C   0  0  0  0  0  0  0  0  0  0  0  0
  -28.2381  -20.6546   19.8481 C   0  0  0  0  0  0  0  0  0  0  0  0
  -22.6276  -17.9226   20.3794 C   0  0  0  0  0  0  0  0  0  0  0  0
  -19.8135  -27.6097   21.2888 C   0  0  0  0  0  0  0  0  0  0  0  0
  -28.9998  -22.2158   18.1689 C   0  0  0  0  0  0  0  0  0  0  0  0
  -27.9699  -27.3956   21.6160 C   0  0  0  0  0  0  0  0  0  0  0  0
  -27.1635  -29.5756   20.5648 C   0  0  0  0  0  0  0  0  0  0  0  0
  -30.9362  -14.2703   21.2375 C   0  0  0  0  0  0  0  0  0  0  0  0
  -24.3905  -17.5071   21.9854 C   0  0  0  0  0  0  0  0  0  0  0  0
  -29.9277  -15.1981   20.9140 C   0  0  0  0  0  0  0  0  0  0  0  0
  -23.4083  -17.0165   21.1132 C   0  0  0  0  0  0  0  0  0  0  0  0
  -19.0288  -26.5809   21.8098 C   0  0  0  0  0  0  0  0  0  0  0  0
  -29.1124  -24.8516   21.5447 C   0  0  0  0  0  0  0  0  0  0  0  0
  -22.8125  -19.2977   20.5207 C   0  0  0  0  0  0  0  0  0  0  0  0
  -29.2509  -22.7448   20.5128 C   0  0  0  0  0  0  0  0  0  0  0  0
  -19.6682  -28.7866   23.3937 C   0  0  0  0  0  0  0  0  0  0  0  0
  -28.4083  -20.9986   18.5071 C   0  0  0  0  0  0  0  0  0  0  0  0
  -20.1332  -28.7126   22.0807 C   0  0  0  0  0  0  0  0  0  0  0  0
  -29.4211  -23.0889   19.1718 C   0  0  0  0  0  0  0  0  0  0  0  0
  -27.3792  -28.7093   21.6533 C   0  0  0  0  0  0  0  0  0  0  0  0
  -26.5811  -30.6880   21.1214 C   0  0  0  0  0  0  0  0  0  0  0  0
  -27.4626  -29.3911   19.1747 C   0  0  0  0  0  0  0  0  0  0  0  0
  -26.2348  -15.1120   21.0025 C   0  0  0  0  0  0  0  0  0  0  0  0
  -23.4129  -31.4577   26.1694 C   0  0  0  0  0  0  0  0  0  0  0  0
  -23.7199  -13.2991   21.9571 C   0  0  0  0  0  0  0  0  0  0  0  0
  -20.3744  -13.0940   22.5992 C   0  0  0  0  0  0  0  0  0  0  0  0
  -30.7850  -12.7991   20.9420 C   0  0  0  0  0  0  0  0  0  0  0  0
  -25.2253  -16.5597   22.8028 C   0  0  0  0  0  0  0  0  0  0  0  0
  -23.1723  -15.5397   20.9348 C   0  0  0  0  0  0  0  0  0  0  0  0
  -29.3403  -12.3730   20.6939 C   0  0  0  0  0  0  0  0  0  0  0  0
  -26.3933  -33.1878   25.1876 C   0  0  0  0  0  0  0  0  0  0  0  0
  -28.6543  -13.3434   19.7376 C   0  0  0  0  0  0  0  0  0  0  0  0
  -26.9792  -32.2995   24.0909 C   0  0  0  0  0  0  0  0  0  0  0  0
  -20.2724  -21.9722   18.3532 C   0  0  0  0  0  0  0  0  0  0  0  0
  -25.7130  -32.3594   26.2730 C   0  0  0  0  0  0  0  0  0  0  0  0
  -25.2454  -30.5408   24.6618 C   0  0  0  0  0  0  0  0  0  0  0  0
  -19.5219  -23.2370   18.7371 C   0  0  0  0  0  0  0  0  0  0  0  0
  -19.8161  -21.7659   20.6668 C   0  0  0  0  0  0  0  0  0  0  0  0
  -28.6035  -14.7574   20.3288 C   0  0  1  0  0  0  0  0  0  0  0  0
  -25.3176  -15.1650   22.1915 C   0  0  1  0  0  0  0  0  0  0  0  0
  -19.8229  -20.9486   19.3864 C   0  0  2  0  0  0  0  0  0  0  0  0
  -25.9153  -31.3396   23.5297 C   0  0  2  0  0  0  0  0  0  0  0  0
  -18.6043  -11.4715   23.3282 C   0  0  0  0  0  0  0  0  0  0  0  0
  -23.7363  -12.0367   19.1793 C   0  0  0  0  0  0  0  0  0  0  0  0
  -21.4348  -11.1647   19.6382 C   0  0  0  0  0  0  0  0  0  0  0  0
  -23.3514  -10.4272   21.0544 C   0  0  0  0  0  0  0  0  0  0  0  0
  -19.7381  -14.6918   25.0078 C   0  0  0  0  0  0  0  0  0  0  0  0
  -18.6824  -25.3945   20.9576 C   0  0  0  0  0  0  0  0  0  0  0  0
  -22.4527  -30.4897   25.5251 C   0  0  0  0  0  0  0  0  0  0  0  0
  -20.7287  -19.7382   19.4625 C   0  0  0  0  0  0  0  0  0  1  0  0
  -21.0755  -30.6369   26.1554 C   0  0  0  0  0  0  0  0  0  0  0  0
  -19.6906  -24.2536   21.0497 C   0  0  0  0  0  0  0  0  0  0  0  0
  -20.0814  -29.6430   25.5735 C   0  0  0  0  0  0  0  0  0  0  0  0
  -22.4638  -12.7819   21.2986 C   0  0  1  0  0  0  0  0  0  0  0  0
  -19.6082  -12.5216   23.7780 C   0  0  2  0  0  0  0  0  0  0  0  0
  -22.7521  -11.6305   20.2943 C   0  0  0  0  0  0  0  0  0  0  0  0
  -26.9676  -29.2270   22.8137 N   0  0  0  0  0  0  0  0  0  0  0  0
  -26.4874  -30.4306   22.4575 N   0  0  0  0  0  0  0  0  0  0  0  0
  -24.0180  -14.6536   21.7515 N   0  0  0  0  0  0  0  0  0  0  0  0
  -24.7255  -31.4446   25.6974 N   0  0  0  0  0  0  0  0  0  0  0  0
  -26.1452  -31.8515   20.5934 N   0  0  0  0  0  0  0  0  0  0  0  0
  -28.0607  -28.1886   18.7738 N   0  0  0  0  0  0  0  0  0  0  0  0
  -27.5543  -14.8530   21.3209 N   0  0  0  0  0  0  0  0  0  0  0  0
  -21.5559  -12.4175   22.3809 N   0  0  0  0  0  0  0  0  0  0  0  0
  -19.2409  -23.0932   20.2217 N   0  3  1  0  0  0  0  0  0  0  0  0
  -18.8702  -13.6027   24.4903 N   0  3  0  0  0  0  0  0  0  0  0  0
  -27.2222  -30.2734   18.3160 O   0  0  0  0  0  0  0  0  0  0  0  0
  -25.7788  -15.2912   19.8793 O   0  0  0  0  0  0  0  0  0  0  0  0
  -23.0058  -32.2044   27.0632 O   0  0  0  0  0  0  0  0  0  0  0  0
  -24.4074  -12.5313   22.6350 O   0  0  0  0  0  0  0  0  0  0  0  0
  -19.9640  -14.0438   21.9358 O   0  0  0  0  0  0  0  0  0  0  0  0
  -29.6694  -23.6102   21.5097 O   0  0  0  0  0  0  0  0  0  0  0  0
  -22.0470  -20.1649   19.8039 O   0  0  0  0  0  0  0  0  0  1  0  0
  -19.9790  -29.8624   24.1674 O   0  0  0  0  0  0  0  0  0  0  0  0
  -28.0050  -20.1594   17.5441 F   0  0  0  0  0  0  0  0  0  0  0  0
  -20.8871  -29.6980   21.5744 F   0  0  0  0  0  0  0  0  0  0  0  0
  -29.9898  -24.2563   18.8408 F   0  0  0  0  0  0  0  0  0  0  0  0
  1  2  1  0  0  0  0
  1  5  2  0  0  0  0
  2  6  2  0  0  0  0
  3  9  2  0  0  0  0
  3 18  1  0  0  0  0
  4 10  1  0  0  0  0
  4 18  2  0  0  0  0
  5 20  1  0  0  0  0
  6 22  1  0  0  0  0
  7 11  2  0  0  0  0
  7 21  1  0  0  0  0
  8 12  2  0  0  0  0
  8 24  1  0  0  0  0
  9 25  1  0  0  0  0
 10 25  2  0  0  0  0
 11 26  1  0  0  0  0
 12 28  1  0  0  0  0
 13 14  2  0  0  0  0
 13 27  1  0  0  0  0
 14 29  1  0  0  0  0
 15 23  1  0  0  0  0
 15 26  2  0  0  0  0
 16 24  2  0  0  0  0
 16 30  1  0  0  0  0
 17 29  2  0  0  0  0
 17 31  1  0  0  0  0
 18 32  1  0  0  0  0
 19 32  1  0  0  0  0
 19 33  2  0  0  0  0
 19 34  1  0  0  0  0
 20 22  2  0  0  0  0
 20 39  1  0  0  0  0
 21 23  2  0  0  0  0
 21 40  1  0  0  0  0
 22 51  1  0  0  0  0
 23 41  1  0  0  0  0
 24 60  1  0  0  0  0
 25 84  1  0  0  0  0
 26 85  1  0  0  0  0
 27 31  2  0  0  0  0
 27 84  1  0  0  0  0
 28 30  2  0  0  0  0
 28 86  1  0  0  0  0
 29 87  1  0  0  0  0
 30 88  1  0  0  0  0
 31 89  1  0  0  0  0
 32 69  2  0  0  0  0
 33 70  1  0  0  0  0
 33 73  1  0  0  0  0
 34 74  1  0  0  0  0
 34 79  2  0  0  0  0
 35 52  1  0  0  0  0
 35 75  1  0  0  0  0
 35 80  2  0  0  0  0
 36 61  1  0  0  0  0
 36 72  1  0  0  0  0
 36 81  2  0  0  0  0
 37 66  1  0  0  0  0
 37 71  1  0  0  0  0
 37 82  2  0  0  0  0
 38 67  1  0  0  0  0
 38 76  1  0  0  0  0
 38 83  2  0  0  0  0
 39 42  1  0  0  0  0
 40 52  1  0  0  0  0
 41 71  1  0  0  0  0
 42 44  1  0  0  0  0
 43 45  1  0  0  0  0
 43 47  1  0  0  0  0
 44 51  1  0  0  0  0
 45 54  1  0  0  0  0
 46 49  1  0  0  0  0
 46 53  1  0  0  0  0
 47 72  1  0  0  0  0
 48 54  1  0  0  0  0
 48 72  1  0  0  0  0
 49 77  1  0  0  0  0
 50 53  1  0  0  0  0
 50 77  1  0  0  0  0
 51 75  1  0  0  0  0
 52 71  1  0  0  0  0
 53 62  1  0  0  0  0
 54 70  1  0  0  0  0
 55 67  1  0  0  0  0
 56 68  1  0  0  0  0
 57 68  1  0  0  0  0
 58 68  1  0  0  0  0
 59 78  1  0  0  0  0
 60 64  1  0  0  0  0
 61 63  1  0  0  0  0
 62 85  1  0  0  0  0
 63 65  1  0  0  0  0
 64 77  1  0  0  0  0
 65 86  1  0  0  0  0
 66 68  1  0  0  0  0
 66 76  1  0  0  0  0
 67 78  1  0  0  0  0
 69 70  1  0  0  0  0
M  CHG  2  77   1  78   1
M  ISO  4  36 100  61 100  62 101  85 101
M  END
> <Batch ID>
0103

> <Smiles>
CNC(C)C(=O)NC(C(=O)N1Cc2cc([101O:1][101CH2:1]C3CCN(CCc4ccc(OCC[100CH2:0][100C:0](=O)N5CCCC(n6nc(-c7ccc(Oc8ccc(F)cc8F)cc7)c(C(N)=O)c6N)C5)c(F)c4)C3)ccc2CC1C(=O)NC1CCCc2ccccc21)C(C)(C)C

> <Shape>
0.292

> <Color>
0.042

> <Negative vol penalty>
0.000

$$$$

  -OEChem-04052301053D

 83 92  0     1  0  0  0  0  0999 V2000
  -19.8753  -23.6124   22.4945 C   0  0  0  0  0  0  0  0  0  0  0  0
  -21.2120  -23.8668   22.2049 C   0  0  0  0  0  0  0  0  0  0  0  0
  -24.7195  -10.8124   23.5206 C   0  0  0  0  0  0  0  0  0  0  0  0
  -24.4639  -12.6644   25.0508 C   0  0  0  0  0  0  0  0  0  0  0  0
  -18.9501  -24.6554   22.4837 C   0  0  0  0  0  0  0  0  0  0  0  0
  -21.6241  -25.1643   21.9031 C   0  0  0  0  0  0  0  0  0  0  0  0
  -25.9032  -26.4476   24.2880 C   0  0  0  0  0  0  0  0  0  0  0  0
  -24.3213   -9.9287   24.5236 C   0  0  0  0  0  0  0  0  0  0  0  0
  -24.0657  -11.7807   26.0539 C   0  0  0  0  0  0  0  0  0  0  0  0
  -27.0970  -25.9541   23.7635 C   0  0  0  0  0  0  0  0  0  0  0  0
  -21.4271   -8.9287   25.9577 C   0  0  0  0  0  0  0  0  0  0  0  0
  -20.5010   -7.9413   25.6216 C   0  0  0  0  0  0  0  0  0  0  0  0
  -27.4954  -28.0767   22.6889 C   0  0  0  0  0  0  0  0  0  0  0  0
  -29.2702  -20.7724   19.2398 C   0  0  0  0  0  0  0  0  0  0  0  0
  -22.0956   -6.2351   26.2405 C   0  0  0  0  0  0  0  0  0  0  0  0
  -27.3425  -22.0311   18.9200 C   0  0  0  0  0  0  0  0  0  0  0  0
  -24.7908  -12.1803   23.7842 C   0  0  0  0  0  0  0  0  0  0  0  0
  -24.3768  -13.7501   21.8165 C   0  0  0  0  0  0  0  0  0  0  0  0
  -19.3529  -25.9680   22.1910 C   0  0  0  0  0  0  0  0  0  0  0  0
  -25.4904  -27.7580   24.0074 C   0  0  0  0  0  0  0  0  0  0  0  0
  -20.7033  -26.2256   21.8870 C   0  0  0  0  0  0  0  0  0  0  0  0
  -26.2972  -28.5853   23.2131 C   0  0  0  0  0  0  0  0  0  0  0  0
  -28.7057  -21.9768   18.7291 C   0  0  0  0  0  0  0  0  0  0  0  0
  -23.9944  -10.4128   25.7902 C   0  0  0  0  0  0  0  0  0  0  0  0
  -27.8919  -26.7677   22.9615 C   0  0  0  0  0  0  0  0  0  0  0  0
  -22.6876   -8.5693   26.4352 C   0  0  0  0  0  0  0  0  0  0  0  0
  -20.8353   -6.5945   25.7630 C   0  0  0  0  0  0  0  0  0  0  0  0
  -23.0218   -7.2225   26.5766 C   0  0  0  0  0  0  0  0  0  0  0  0
  -25.2026  -13.0936   22.7486 C   0  0  0  0  0  0  0  0  0  0  0  0
  -25.2431  -14.4981   21.0572 C   0  0  0  0  0  0  0  0  0  0  0  0
  -28.3168  -19.9519   19.8019 C   0  0  0  0  0  0  0  0  0  0  0  0
  -22.9538  -13.6893   21.6517 C   0  0  0  0  0  0  0  0  0  0  0  0
  -22.9877  -29.0556   22.5390 C   0  0  0  0  0  0  0  0  0  0  0  0
  -24.3054  -31.8292   23.5846 C   0  0  0  0  0  0  0  0  0  0  0  0
  -27.0962  -33.5063   24.6072 C   0  0  0  0  0  0  0  0  0  0  0  0
  -29.5988  -17.9370   20.6038 C   0  0  0  0  0  0  0  0  0  0  0  0
  -18.3081  -27.0547   22.1451 C   0  0  0  0  0  0  0  0  0  0  0  0
  -24.2132  -28.2840   24.6027 C   0  0  0  0  0  0  0  0  0  0  0  0
  -25.9089  -30.0062   22.8987 C   0  0  0  0  0  0  0  0  0  0  0  0
  -18.8932  -28.4642   22.1825 C   0  0  0  0  0  0  0  0  0  0  0  0
  -30.2993  -14.4531   20.8235 C   0  0  0  0  0  0  0  0  0  0  0  0
  -20.0583  -28.5846   21.2053 C   0  0  0  0  0  0  0  0  0  0  0  0
  -28.9679  -13.8428   21.2672 C   0  0  0  0  0  0  0  0  0  0  0  0
  -30.7806  -26.2388   19.0962 C   0  0  0  0  0  0  0  0  0  0  0  0
  -30.5460  -15.8119   21.4764 C   0  0  0  0  0  0  0  0  0  0  0  0
  -28.1258  -16.1740   21.7605 C   0  0  0  0  0  0  0  0  0  0  0  0
  -31.1541  -24.9520   18.3787 C   0  0  0  0  0  0  0  0  0  0  0  0
  -29.4641  -24.5451   20.0969 C   0  0  0  0  0  0  0  0  0  0  0  0
  -21.1935  -27.6238   21.5791 C   0  0  1  0  0  0  0  0  0  0  0  0
  -23.6366  -29.4666   23.8304 C   0  0  1  0  0  0  0  0  0  0  0  0
  -30.2846  -25.7716   20.4574 C   0  0  2  0  0  0  0  0  0  0  0  0
  -27.8029  -14.8343   21.0789 C   0  0  2  0  0  0  0  0  0  0  0  0
  -27.8674  -35.7725   25.3602 C   0  0  0  0  0  0  0  0  0  0  0  0
  -24.2004  -32.8205   20.7008 C   0  0  0  0  0  0  0  0  0  0  0  0
  -25.8071  -34.6316   21.3383 C   0  0  0  0  0  0  0  0  0  0  0  0
  -23.5590  -34.5257   22.4141 C   0  0  0  0  0  0  0  0  0  0  0  0
  -27.9552  -32.4666   27.2416 C   0  0  0  0  0  0  0  0  0  0  0  0
  -29.5035  -23.0585   18.0625 C   0  0  0  0  0  0  0  0  0  0  0  0
  -29.4835  -26.8229   21.1953 C   0  0  0  0  0  0  0  0  0  1  0  0
  -25.3106  -32.8104   23.0318 C   0  0  1  0  0  0  0  0  0  0  0  0
  -27.3466  -34.4126   25.7989 C   0  0  2  0  0  0  0  0  0  0  0  0
  -24.7259  -33.6697   21.8754 C   0  0  0  0  0  0  0  0  0  0  0  0
  -26.4943  -13.3977   22.5972 N   0  0  0  0  0  0  0  0  0  0  0  0
  -26.4868  -14.2534   21.5609 N   0  0  0  0  0  0  0  0  0  0  0  0
  -24.6480  -30.4724   23.4989 N   0  0  0  0  0  0  0  0  0  0  0  0
  -29.4029  -16.6998   21.2531 N   0  0  0  0  0  0  0  0  0  0  0  0
  -25.0549  -15.3346   20.0145 N   0  0  0  0  0  0  0  0  0  0  0  0
  -22.2153  -12.8711   22.5174 N   0  0  0  0  0  0  0  0  0  0  0  0
  -28.4342  -18.6813   20.4179 N   0  0  0  0  0  0  0  0  0  0  0  0
  -21.9553  -28.1500   22.6914 N   0  0  0  0  0  0  0  0  0  0  0  0
  -25.7912  -33.5871   24.1694 N   0  0  0  0  0  0  0  0  0  0  0  0
  -30.3001  -23.8775   19.0264 N   0  3  1  0  0  0  0  0  0  0  0  0
  -28.3491  -33.7987   26.7150 N   0  3  0  0  0  0  0  0  0  0  0  0
  -22.3567  -14.3285   20.7526 O   0  0  0  0  0  0  0  0  0  0  0  0
  -23.3927  -29.5265   21.4826 O   0  0  0  0  0  0  0  0  0  0  0  0
  -23.2580  -32.2515   24.0809 O   0  0  0  0  0  0  0  0  0  0  0  0
  -27.9717  -32.8002   24.1117 O   0  0  0  0  0  0  0  0  0  0  0  0
  -30.7130  -18.2968   20.2151 O   0  0  0  0  0  0  0  0  0  0  0  0
  -23.6056   -9.5508   26.7692 O   0  0  0  0  0  0  0  0  0  0  0  0
  -29.0573  -26.2883   22.4478 O   0  0  0  0  0  0  0  0  0  1  0  0
  -19.9453   -5.6465   25.4417 F   0  0  0  0  0  0  0  0  0  0  0  0
  -24.2306   -6.8711   27.0359 F   0  0  0  0  0  0  0  0  0  0  0  0
  -26.7486  -20.6339   19.7122 S   0  0  0  0  0  0  0  0  0  0  0  0
  1  2  1  0  0  0  0
  1  5  2  0  0  0  0
  2  6  2  0  0  0  0
  3  8  2  0  0  0  0
  3 17  1  0  0  0  0
  4  9  1  0  0  0  0
  4 17  2  0  0  0  0
  5 19  1  0  0  0  0
  6 21  1  0  0  0  0
  7 10  2  0  0  0  0
  7 20  1  0  0  0  0
  8 24  1  0  0  0  0
  9 24  2  0  0  0  0
 10 25  1  0  0  0  0
 11 12  2  0  0  0  0
 11 26  1  0  0  0  0
 12 27  1  0  0  0  0
 13 22  1  0  0  0  0
 13 25  2  0  0  0  0
 14 23  1  0  0  0  0
 14 31  2  0  0  0  0
 15 27  2  0  0  0  0
 15 28  1  0  0  0  0
 16 23  2  0  0  0  0
 16 83  1  0  0  0  0
 17 29  1  0  0  0  0
 18 29  1  0  0  0  0
 18 30  2  0  0  0  0
 18 32  1  0  0  0  0
 19 21  2  0  0  0  0
 19 37  1  0  0  0  0
 20 22  2  0  0  0  0
 20 38  1  0  0  0  0
 21 49  1  0  0  0  0
 22 39  1  0  0  0  0
 23 58  1  0  0  0  0
 24 79  1  0  0  0  0
 25 80  1  0  0  0  0
 26 28  2  0  0  0  0
 26 79  1  0  0  0  0
 27 81  1  0  0  0  0
 28 82  1  0  0  0  0
 29 63  2  0  0  0  0
 30 64  1  0  0  0  0
 30 67  1  0  0  0  0
 31 69  1  0  0  0  0
 31 83  1  0  0  0  0
 32 68  1  0  0  0  0
 32 74  2  0  0  0  0
 33 50  1  0  0  0  0
 33 70  1  0  0  0  0
 33 75  2  0  0  0  0
 34 60  1  0  0  0  0
 34 65  1  0  0  0  0
 34 76  2  0  0  0  0
 35 61  1  0  0  0  0
 35 71  1  0  0  0  0
 35 77  2  0  0  0  0
 36 66  1  0  0  0  0
 36 69  1  0  0  0  0
 36 78  2  0  0  0  0
 37 40  1  0  0  0  0
 38 50  1  0  0  0  0
 39 65  1  0  0  0  0
 40 42  1  0  0  0  0
 41 43  1  0  0  0  0
 41 45  1  0  0  0  0
 42 49  1  0  0  0  0
 43 52  1  0  0  0  0
 44 47  1  0  0  0  0
 44 51  1  0  0  0  0
 45 66  1  0  0  0  0
 46 52  1  0  0  0  0
 46 66  1  0  0  0  0
 47 72  1  0  0  0  0
 48 51  1  0  0  0  0
 48 72  1  0  0  0  0
 49 70  1  0  0  0  0
 50 65  1  0  0  0  0
 51 59  1  0  0  0  0
 52 64  1  0  0  0  0
 53 61  1  0  0  0  0
 54 62  1  0  0  0  0
 55 62  1  0  0  0  0
 56 62  1  0  0  0  0
 57 73  1  0  0  0  0
 58 72  1  0  0  0  0
 59 80  1  0  0  0  0
 60 62  1  0  0  0  0
 60 71  1  0  0  0  0
 61 73  1  0  0  0  0
 63 64  1  0  0  0  0
M  CHG  2  72   1  73   1
M  ISO  4  36 100  59 101  69 100  80 101
M  END
> <Batch ID>
0103

> <Smiles>
CNC(C)C(=O)NC(C(=O)N1Cc2cc([101O:1][101CH2:1]C3CCN(Cc4csc([100NH:0][100C:0](=O)N5CCCC(n6nc(-c7ccc(Oc8ccc(F)cc8F)cc7)c(C(N)=O)c6N)C5)c4)C3)ccc2CC1C(=O)NC1CCCc2ccccc21)C(C)(C)C

> <Shape>
0.279

> <Color>
0.120

> <Negative vol penalty>
0.000

$$$$

  -OEChem-04052301053D

 89 98  0     1  0  0  0  0  0999 V2000
  -24.1227   -8.1783   21.1622 C   0  0  0  0  0  0  0  0  0  0  0  0
  -24.6025   -9.3507   20.5873 C   0  0  0  0  0  0  0  0  0  0  0  0
  -22.8723  -26.1986   22.6425 C   0  0  0  0  0  0  0  0  0  0  0  0
  -22.6790  -28.4267   21.7286 C   0  0  0  0  0  0  0  0  0  0  0  0
  -29.9184  -22.8379   18.8045 C   0  0  0  0  0  0  0  0  0  0  0  0
  -22.8408   -8.1454   21.7095 C   0  0  0  0  0  0  0  0  0  0  0  0
  -23.8002  -10.4909   20.5585 C   0  0  0  0  0  0  0  0  0  0  0  0
  -26.3236  -14.6763   21.8849 C   0  0  0  0  0  0  0  0  0  0  0  0
  -29.6838  -21.4850   18.5590 C   0  0  0  0  0  0  0  0  0  0  0  0
  -21.8301  -26.4715   23.5284 C   0  0  0  0  0  0  0  0  0  0  0  0
  -21.6367  -28.6996   22.6145 C   0  0  0  0  0  0  0  0  0  0  0  0
  -27.1578  -15.2479   20.9251 C   0  0  0  0  0  0  0  0  0  0  0  0
  -18.3334  -28.0280   22.8542 C   0  0  0  0  0  0  0  0  0  0  0  0
  -17.2033  -28.6681   22.3456 C   0  0  0  0  0  0  0  0  0  0  0  0
  -25.4535  -16.8799   20.4243 C   0  0  0  0  0  0  0  0  0  0  0  0
  -31.3920  -21.4989   16.8505 C   0  0  0  0  0  0  0  0  0  0  0  0
  -17.5525  -30.5026   23.8785 C   0  0  0  0  0  0  0  0  0  0  0  0
  -23.2968  -27.1762   21.7426 C   0  0  0  0  0  0  0  0  0  0  0  0
  -30.8898  -23.5213   18.0730 C   0  0  0  0  0  0  0  0  0  0  0  0
  -24.4135  -25.8874   19.8453 C   0  0  0  0  0  0  0  0  0  0  0  0
  -22.0260   -9.2885   21.6960 C   0  0  0  0  0  0  0  0  0  0  0  0
  -25.0417  -15.1964   22.1143 C   0  0  0  0  0  0  0  0  0  0  0  0
  -22.5057  -10.4729   21.1049 C   0  0  0  0  0  0  0  0  0  0  0  0
  -24.6059  -16.3147   21.3894 C   0  0  0  0  0  0  0  0  0  0  0  0
  -31.6266  -22.8518   17.0960 C   0  0  0  0  0  0  0  0  0  0  0  0
  -30.4206  -20.8155   17.5820 C   0  0  0  0  0  0  0  0  0  0  0  0
  -21.2123  -27.7220   23.5144 C   0  0  0  0  0  0  0  0  0  0  0  0
  -26.7217  -16.3480   20.1926 C   0  0  0  0  0  0  0  0  0  0  0  0
  -19.0730  -28.6250   23.8752 C   0  0  0  0  0  0  0  0  0  0  0  0
  -16.8129  -29.9055   22.8577 C   0  0  0  0  0  0  0  0  0  0  0  0
  -18.6826  -29.8624   24.3872 C   0  0  0  0  0  0  0  0  0  0  0  0
  -24.3738  -26.8951   20.8276 C   0  0  0  0  0  0  0  0  0  0  0  0
  -25.6417  -26.0374   19.2491 C   0  0  0  0  0  0  0  0  0  0  0  0
  -31.4351  -16.6427   16.3399 C   0  0  0  0  0  0  0  0  0  0  0  0
  -29.7285  -18.5548   18.3570 C   0  0  0  0  0  0  0  0  0  0  0  0
  -31.1162  -24.9503   18.3529 C   0  0  0  0  0  0  0  0  0  0  0  0
  -23.4282  -24.9039   19.5023 C   0  0  0  0  0  0  0  0  0  0  0  0
  -22.0822  -14.0676   21.8476 C   0  0  0  0  0  0  0  0  0  0  0  0
  -21.2946  -16.9039   23.2106 C   0  0  0  0  0  0  0  0  0  0  0  0
  -22.3170  -20.3498   22.8979 C   0  0  0  0  0  0  0  0  0  0  0  0
  -31.1507  -26.8021   19.7171 C   0  0  0  0  0  0  0  0  0  0  0  0
  -20.6296   -9.1912   22.2576 C   0  0  0  0  0  0  0  0  0  0  0  0
  -24.1642  -14.5849   23.1719 C   0  0  0  0  0  0  0  0  0  0  0  0
  -23.2463  -16.9234   21.6119 C   0  0  0  0  0  0  0  0  0  0  0  0
  -31.6839  -18.0570   15.8653 C   0  0  0  0  0  0  0  0  0  0  0  0
  -30.9513  -16.4546   17.7604 C   0  0  0  0  0  0  0  0  0  0  0  0
  -19.9834  -10.5488   22.5218 C   0  0  0  0  0  0  0  0  0  0  0  0
  -29.0602  -29.7386   19.6080 C   0  0  0  0  0  0  0  0  0  0  0  0
  -20.1845  -11.4771   21.3282 C   0  0  0  0  0  0  0  0  0  0  0  0
  -27.6621  -29.1792   19.8703 C   0  0  0  0  0  0  0  0  0  0  0  0
  -30.4321  -18.9177   15.9587 C   0  0  0  0  0  0  0  0  0  0  0  0
  -30.1247  -28.9745   20.3893 C   0  0  0  0  0  0  0  0  0  0  0  0
  -28.7124  -26.9364   20.4055 C   0  0  0  0  0  0  0  0  0  0  0  0
  -21.6747  -11.7373   21.0766 C   0  0  1  0  0  0  0  0  0  0  0  0
  -29.5674  -17.0758   17.9711 C   0  0  1  0  0  0  0  0  0  0  0  0
  -22.6819  -14.8783   22.9615 C   0  0  1  0  0  0  0  0  0  0  0  0
  -27.6152  -27.6631   19.6091 C   0  0  1  0  0  0  0  0  0  0  0  0
  -32.6717  -23.5603   16.2975 C   0  0  0  0  0  0  0  0  0  0  0  0
  -22.2581  -22.2266   24.5627 C   0  0  0  0  0  0  0  0  0  0  0  0
  -18.5995  -17.5606   21.9398 C   0  0  0  0  0  0  0  0  0  0  0  0
  -19.1586  -19.9896   22.1759 C   0  0  0  0  0  0  0  0  0  0  0  0
  -18.9541  -18.5555   24.2067 C   0  0  0  0  0  0  0  0  0  0  0  0
  -25.2096  -20.8843   22.5719 C   0  0  0  0  0  0  0  0  0  0  0  0
  -28.8198  -16.3163   19.0732 C   0  0  0  0  0  0  0  0  0  1  0  0
  -20.9610  -18.2824   22.6936 C   0  0  1  0  0  0  0  0  0  0  0  0
  -23.1157  -21.1558   23.9063 C   0  0  2  0  0  0  0  0  0  0  0  0
  -19.4356  -18.5795   22.7396 C   0  0  0  0  0  0  0  0  0  0  0  0
  -25.4882  -27.6306   20.8571 N   0  0  0  0  0  0  0  0  0  0  0  0
  -30.9192  -25.4531   19.5275 N   0  0  0  0  0  0  0  0  0  0  0  0
  -26.2398  -27.0847   19.8860 N   0  0  0  0  0  0  0  0  0  0  0  0
  -30.1766  -19.4125   17.3281 N   0  0  0  0  0  0  0  0  0  0  0  0
  -22.4227  -16.2860   22.6525 N   0  0  0  0  0  0  0  0  0  0  0  0
  -30.0274  -27.5354   20.1417 N   0  0  0  0  0  0  0  0  0  0  0  0
  -26.2577  -25.3742   18.2475 N   0  0  0  0  0  0  0  0  0  0  0  0
  -22.4769  -25.2240   18.5241 N   0  0  0  0  0  0  0  0  0  0  0  0
  -22.1868  -12.7015   22.0267 N   0  0  0  0  0  0  0  0  0  0  0  0
  -21.7751  -19.2157   23.4648 N   0  0  0  0  0  0  0  0  0  0  0  0
  -24.2701  -21.8218   23.2394 N   0  3  0  0  0  0  0  0  0  0  0  0
  -31.6742  -15.6764   15.6148 O   0  0  0  0  0  0  0  0  0  0  0  0
  -29.5359  -18.8982   19.5264 O   0  0  0  0  0  0  0  0  0  0  0  0
  -23.3824  -23.7807   20.0589 O   0  0  0  0  0  0  0  0  0  0  0  0
  -21.5618  -14.6393   20.8967 O   0  0  0  0  0  0  0  0  0  0  0  0
  -20.5847  -16.3969   24.0828 O   0  0  0  0  0  0  0  0  0  0  0  0
  -22.1838  -20.6939   21.7255 O   0  0  0  0  0  0  0  0  0  0  0  0
  -32.2449  -27.3432   19.5412 O   0  0  0  0  0  0  0  0  0  0  0  0
  -20.1951  -27.9885   24.3786 O   0  0  0  0  0  0  0  0  0  0  0  0
  -27.5337  -16.9075   19.2548 O   0  0  0  0  0  0  0  0  0  1  0  0
  -15.7286  -30.5208   22.3680 F   0  0  0  0  0  0  0  0  0  0  0  0
  -19.3898  -30.4415   25.3672 F   0  0  0  0  0  0  0  0  0  0  0  0
  1  2  1  0  0  0  0
  1  6  2  0  0  0  0
  2  7  2  0  0  0  0
  3 10  2  0  0  0  0
  3 18  1  0  0  0  0
  4 11  1  0  0  0  0
  4 18  2  0  0  0  0
  5  9  2  0  0  0  0
  5 19  1  0  0  0  0
  6 21  1  0  0  0  0
  7 23  1  0  0  0  0
  8 12  2  0  0  0  0
  8 22  1  0  0  0  0
  9 26  1  0  0  0  0
 10 27  1  0  0  0  0
 11 27  2  0  0  0  0
 12 28  1  0  0  0  0
 13 14  2  0  0  0  0
 13 29  1  0  0  0  0
 14 30  1  0  0  0  0
 15 24  1  0  0  0  0
 15 28  2  0  0  0  0
 16 25  1  0  0  0  0
 16 26  2  0  0  0  0
 17 30  2  0  0  0  0
 17 31  1  0  0  0  0
 18 32  1  0  0  0  0
 19 25  2  0  0  0  0
 19 36  1  0  0  0  0
 20 32  1  0  0  0  0
 20 33  2  0  0  0  0
 20 37  1  0  0  0  0
 21 23  2  0  0  0  0
 21 42  1  0  0  0  0
 22 24  2  0  0  0  0
 22 43  1  0  0  0  0
 23 54  1  0  0  0  0
 24 44  1  0  0  0  0
 25 58  1  0  0  0  0
 26 71  1  0  0  0  0
 27 86  1  0  0  0  0
 28 87  1  0  0  0  0
 29 31  2  0  0  0  0
 29 86  1  0  0  0  0
 30 88  1  0  0  0  0
 31 89  1  0  0  0  0
 32 68  2  0  0  0  0
 33 70  1  0  0  0  0
 33 74  1  0  0  0  0
 34 45  1  0  0  0  0
 34 46  1  0  0  0  0
 34 79  2  0  0  0  0
 35 55  1  0  0  0  0
 35 71  1  0  0  0  0
 35 80  2  0  0  0  0
 36 69  2  0  0  0  0
 37 75  1  0  0  0  0
 37 81  2  0  0  0  0
 38 56  1  0  0  0  0
 38 76  1  0  0  0  0
 38 82  2  0  0  0  0
 39 65  1  0  0  0  0
 39 72  1  0  0  0  0
 39 83  2  0  0  0  0
 40 66  1  0  0  0  0
 40 77  1  0  0  0  0
 40 84  2  0  0  0  0
 41 69  1  0  0  0  0
 41 73  1  0  0  0  0
 41 85  2  0  0  0  0
 42 47  1  0  0  0  0
 43 56  1  0  0  0  0
 44 72  1  0  0  0  0
 45 51  1  0  0  0  0
 46 55  1  0  0  0  0
 47 49  1  0  0  0  0
 48 50  1  0  0  0  0
 48 52  1  0  0  0  0
 49 54  1  0  0  0  0
 50 57  1  0  0  0  0
 51 71  1  0  0  0  0
 52 73  1  0  0  0  0
 53 57  1  0  0  0  0
 53 73  1  0  0  0  0
 54 76  1  0  0  0  0
 55 64  1  0  0  0  0
 56 72  1  0  0  0  0
 57 70  1  0  0  0  0
 59 66  1  0  0  0  0
 60 67  1  0  0  0  0
 61 67  1  0  0  0  0
 62 67  1  0  0  0  0
 63 78  1  0  0  0  0
 64 87  1  0  0  0  0
 65 67  1  0  0  0  0
 65 77  1  0  0  0  0
 66 78  1  0  0  0  0
 68 70  1  0  0  0  0
M  CHG  1  78   1
M  ISO  4  41 100  64 101  69 100  87 101
M  END
> <Batch ID>
0103

> <Smiles>
CNC(C)C(=O)NC(C(=O)N1Cc2cc([101O:1][101CH2:1]C3CC(=O)CCN(c4ccc(C=[100N:0][100C:0](=O)N5CCCC(n6nc(-c7ccc(Oc8ccc(F)cc8F)cc7)c(C(N)=O)c6N)C5)c(C)c4)C3=O)ccc2CC1C(=O)NC1CCCc2ccccc21)C(C)(C)C

> <Shape>
0.222

> <Color>
0.085

> <Negative vol penalty>
0.000

$$$$

  -OEChem-04052301053D

 86 95  0     1  0  0  0  0  0999 V2000
  -26.9195  -37.9912   24.4748 C   0  0  0  0  0  0  0  0  0  0  0  0
  -27.6305  -37.1619   23.6132 C   0  0  0  0  0  0  0  0  0  0  0  0
  -24.4934   -9.5901   22.2409 C   0  0  0  0  0  0  0  0  0  0  0  0
  -24.0827   -9.4717   19.8630 C   0  0  0  0  0  0  0  0  0  0  0  0
  -26.0452  -37.4381   25.4094 C   0  0  0  0  0  0  0  0  0  0  0  0
  -27.4683  -35.7789   23.6866 C   0  0  0  0  0  0  0  0  0  0  0  0
  -27.4719  -29.9303   19.5501 C   0  0  0  0  0  0  0  0  0  0  0  0
  -30.6980  -18.7620   22.0263 C   0  0  0  0  0  0  0  0  0  0  0  0
  -30.8794  -20.1442   22.0728 C   0  0  0  0  0  0  0  0  0  0  0  0
  -24.1331   -8.2488   22.3700 C   0  0  0  0  0  0  0  0  0  0  0  0
  -23.7224   -8.1303   19.9921 C   0  0  0  0  0  0  0  0  0  0  0  0
  -28.0592  -28.6684   19.4696 C   0  0  0  0  0  0  0  0  0  0  0  0
  -21.2825   -6.4372   22.4989 C   0  0  0  0  0  0  0  0  0  0  0  0
  -20.4322   -6.0936   23.5499 C   0  0  0  0  0  0  0  0  0  0  0  0
  -26.4617  -27.8294   21.0706 C   0  0  0  0  0  0  0  0  0  0  0  0
  -28.9381  -20.4462   20.6666 C   0  0  0  0  0  0  0  0  0  0  0  0
  -22.1226   -4.6101   24.4325 C   0  0  0  0  0  0  0  0  0  0  0  0
  -24.4682  -10.2016   20.9874 C   0  0  0  0  0  0  0  0  0  0  0  0
  -24.2300  -12.6945   21.4732 C   0  0  0  0  0  0  0  0  0  0  0  0
  -25.8650  -36.0482   25.4878 C   0  0  0  0  0  0  0  0  0  0  0  0
  -26.3801  -30.1543   20.4011 C   0  0  0  0  0  0  0  0  0  0  0  0
  -26.5917  -35.2066   24.6240 C   0  0  0  0  0  0  0  0  0  0  0  0
  -25.8607  -29.0944   21.1582 C   0  0  0  0  0  0  0  0  0  0  0  0
  -29.6367  -18.2218   21.2999 C   0  0  0  0  0  0  0  0  0  0  0  0
  -29.9994  -20.9863   21.3930 C   0  0  0  0  0  0  0  0  0  0  0  0
  -23.7476   -7.5189   21.2456 C   0  0  0  0  0  0  0  0  0  0  0  0
  -27.5559  -27.6184   20.2321 C   0  0  0  0  0  0  0  0  0  0  0  0
  -22.5528   -5.8672   22.4147 C   0  0  0  0  0  0  0  0  0  0  0  0
  -20.8522   -5.1801   24.5167 C   0  0  0  0  0  0  0  0  0  0  0  0
  -28.7567  -19.0640   20.6201 C   0  0  0  0  0  0  0  0  0  0  0  0
  -22.9729   -4.9537   23.3815 C   0  0  0  0  0  0  0  0  0  0  0  0
  -24.8397  -11.5872   20.8535 C   0  0  0  0  0  0  0  0  0  0  0  0
  -24.9480  -13.7767   21.0259 C   0  0  0  0  0  0  0  0  0  0  0  0
  -29.1394  -23.3009   21.3531 C   0  0  0  0  0  0  0  0  0  0  0  0
  -29.2353  -24.6381   21.3539 C   0  0  0  0  0  0  0  0  0  0  0  0
  -30.6100  -25.2126   21.3726 C   0  0  0  0  0  0  0  0  0  0  0  0
  -23.1145  -12.7408   22.3727 C   0  0  0  0  0  0  0  0  0  0  0  0
  -25.8479  -32.0103   22.9261 C   0  0  0  0  0  0  0  0  0  0  0  0
  -29.8845  -16.1678   19.9294 C   0  0  0  0  0  0  0  0  0  0  0  0
  -22.8181  -30.8925   22.6204 C   0  0  0  0  0  0  0  0  0  0  0  0
  -20.7366  -28.4366   21.4879 C   0  0  0  0  0  0  0  0  0  0  0  0
  -24.9444  -35.4940   26.5462 C   0  0  0  0  0  0  0  0  0  0  0  0
  -25.7411  -31.5148   20.4565 C   0  0  0  0  0  0  0  0  0  0  0  0
  -24.6775  -29.2777   22.0719 C   0  0  0  0  0  0  0  0  0  0  0  0
  -31.7744  -24.2647   21.1769 C   0  0  0  0  0  0  0  0  0  0  0  0
  -24.5476  -34.0395   26.3075 C   0  0  0  0  0  0  0  0  0  0  0  0
  -28.3997  -14.1608   17.3589 C   0  0  0  0  0  0  0  0  0  0  0  0
  -25.7728  -33.2034   25.9515 C   0  0  0  0  0  0  0  0  0  0  0  0
  -27.3114  -13.3812   18.0959 C   0  0  0  0  0  0  0  0  0  0  0  0
  -31.5272  -22.8859   21.7833 C   0  0  0  0  0  0  0  0  0  0  0  0
  -29.6246  -14.3796   18.2414 C   0  0  0  0  0  0  0  0  0  0  0  0
  -28.2346  -14.2645   20.2851 C   0  0  0  0  0  0  0  0  0  0  0  0
  -26.4242  -33.7030   24.6563 C   0  0  1  0  0  0  0  0  0  0  0  0
  -24.9573  -31.7549   21.7432 C   0  0  1  0  0  0  0  0  0  0  0  0
  -26.9671  -14.0483   19.4394 C   0  0  2  0  0  0  0  0  0  0  0  0
  -18.3146  -27.7833   21.4198 C   0  0  0  0  0  0  0  0  0  0  0  0
  -22.9625  -30.0610   25.5526 C   0  0  0  0  0  0  0  0  0  0  0  0
  -20.9610  -28.6073   25.1667 C   0  0  0  0  0  0  0  0  0  0  0  0
  -20.7839  -31.0769   24.8624 C   0  0  0  0  0  0  0  0  0  0  0  0
  -20.6886  -28.4786   18.5290 C   0  0  0  0  0  0  0  0  0  0  0  0
  -29.4456  -16.7435   21.2522 C   0  0  0  0  0  0  0  0  0  0  0  0
  -28.0687  -25.5691   21.3245 C   0  0  0  0  0  0  0  0  0  1  0  0
  -22.0565  -29.7064   23.1611 C   0  0  1  0  0  0  0  0  0  0  0  0
  -19.4439  -28.4984   20.6944 C   0  0  2  0  0  0  0  0  0  0  0  0
  -21.7145  -29.8596   24.6700 C   0  0  0  0  0  0  0  0  0  0  0  0
  -25.8659  -11.9340   20.0720 N   0  0  0  0  0  0  0  0  0  0  0  0
  -25.9065  -13.2714   20.1975 N   0  0  0  0  0  0  0  0  0  0  0  0
  -30.1843  -22.3932   21.4410 N   0  0  0  0  0  0  0  0  0  0  0  0
  -24.0913  -30.6281   22.0961 N   0  0  0  0  0  0  0  0  0  0  0  0
  -29.2528  -14.9944   19.5170 N   0  0  0  0  0  0  0  0  0  0  0  0
  -24.8465  -15.1015   21.2642 N   0  0  0  0  0  0  0  0  0  0  0  0
  -22.4927  -11.5362   22.7285 N   0  0  0  0  0  0  0  0  0  0  0  0
  -25.6713  -33.2524   23.5054 N   0  0  0  0  0  0  0  0  0  0  0  0
  -20.8919  -29.5414   22.2981 N   0  0  0  0  0  0  0  0  0  0  0  0
  -19.6241  -27.8596   19.3601 N   0  3  0  0  0  0  0  0  0  0  0  0
  -30.7838  -26.4259   21.4710 O   0  0  0  0  0  0  0  0  0  0  0  0
  -22.6716  -13.8200   22.8340 O   0  0  0  0  0  0  0  0  0  0  0  0
  -26.6357  -31.1441   23.2875 O   0  0  0  0  0  0  0  0  0  0  0  0
  -30.7608  -16.7468   19.2819 O   0  0  0  0  0  0  0  0  0  0  0  0
  -22.2995  -32.0111   22.6553 O   0  0  0  0  0  0  0  0  0  0  0  0
  -21.5276  -27.5000   21.4006 O   0  0  0  0  0  0  0  0  0  0  0  0
  -23.3962   -6.2100   21.3712 O   0  0  0  0  0  0  0  0  0  0  0  0
  -28.1277  -26.3859   20.1559 O   0  0  0  0  0  0  0  0  0  1  0  0
  -20.0361   -4.8514   25.5267 F   0  0  0  0  0  0  0  0  0  0  0  0
  -27.7347  -18.5542   19.9185 F   0  0  0  0  0  0  0  0  0  0  0  0
  -24.1926   -4.4037   23.3066 F   0  0  0  0  0  0  0  0  0  0  0  0
  1  2  1  0  0  0  0
  1  5  2  0  0  0  0
  2  6  2  0  0  0  0
  3 10  2  0  0  0  0
  3 18  1  0  0  0  0
  4 11  1  0  0  0  0
  4 18  2  0  0  0  0
  5 20  1  0  0  0  0
  6 22  1  0  0  0  0
  7 12  2  0  0  0  0
  7 21  1  0  0  0  0
  8  9  2  0  0  0  0
  8 24  1  0  0  0  0
  9 25  1  0  0  0  0
 10 26  1  0  0  0  0
 11 26  2  0  0  0  0
 12 27  1  0  0  0  0
 13 14  2  0  0  0  0
 13 28  1  0  0  0  0
 14 29  1  0  0  0  0
 15 23  1  0  0  0  0
 15 27  2  0  0  0  0
 16 25  2  0  0  0  0
 16 30  1  0  0  0  0
 17 29  2  0  0  0  0
 17 31  1  0  0  0  0
 18 32  1  0  0  0  0
 19 32  1  0  0  0  0
 19 33  2  0  0  0  0
 19 37  1  0  0  0  0
 20 22  2  0  0  0  0
 20 42  1  0  0  0  0
 21 23  2  0  0  0  0
 21 43  1  0  0  0  0
 22 53  1  0  0  0  0
 23 44  1  0  0  0  0
 24 30  2  0  0  0  0
 24 61  1  0  0  0  0
 25 68  1  0  0  0  0
 26 82  1  0  0  0  0
 27 83  1  0  0  0  0
 28 31  2  0  0  0  0
 28 82  1  0  0  0  0
 29 84  1  0  0  0  0
 30 85  1  0  0  0  0
 31 86  1  0  0  0  0
 32 66  2  0  0  0  0
 33 67  1  0  0  0  0
 33 71  1  0  0  0  0
 34 35  2  0  0  0  0
 34 68  1  0  0  0  0
 35 36  1  0  0  0  0
 35 62  1  0  0  0  0
 36 45  1  0  0  0  0
 36 76  2  0  0  0  0
 37 72  1  0  0  0  0
 37 77  2  0  0  0  0
 38 54  1  0  0  0  0
 38 73  1  0  0  0  0
 38 78  2  0  0  0  0
 39 61  1  0  0  0  0
 39 70  1  0  0  0  0
 39 79  2  0  0  0  0
 40 63  1  0  0  0  0
 40 69  1  0  0  0  0
 40 80  2  0  0  0  0
 41 64  1  0  0  0  0
 41 74  1  0  0  0  0
 41 81  2  0  0  0  0
 42 46  1  0  0  0  0
 43 54  1  0  0  0  0
 44 69  1  0  0  0  0
 45 50  1  0  0  0  0
 46 48  1  0  0  0  0
 47 49  1  0  0  0  0
 47 51  1  0  0  0  0
 48 53  1  0  0  0  0
 49 55  1  0  0  0  0
 50 68  1  0  0  0  0
 51 70  1  0  0  0  0
 52 55  1  0  0  0  0
 52 70  1  0  0  0  0
 53 73  1  0  0  0  0
 54 69  1  0  0  0  0
 55 67  1  0  0  0  0
 56 64  1  0  0  0  0
 57 65  1  0  0  0  0
 58 65  1  0  0  0  0
 59 65  1  0  0  0  0
 60 75  1  0  0  0  0
 62 83  1  0  0  0  0
 63 65  1  0  0  0  0
 63 74  1  0  0  0  0
 64 75  1  0  0  0  0
 66 67  1  0  0  0  0
M  CHG  1  75   1
M  ISO  4  39 100  61 100  62 101  83 101
M  END
> <Batch ID>
0103

> <Smiles>
CNC(C)C(=O)NC(C(=O)N1Cc2cc([101O:1][101CH2:1]C3=CN(c4ccc([100CH2:0][100C:0](=O)N5CCCC(n6nc(-c7ccc(Oc8ccc(F)cc8F)cc7)c(C(N)=O)c6N)C5)c(F)c4)CCC3=O)ccc2CC1C(=O)NC1CCCc2ccccc21)C(C)(C)C

> <Shape>
0.364

> <Color>
0.144

> <Negative vol penalty>
0.000

$$$$

  -OEChem-04052301053D

 83 91  0     1  0  0  0  0  0999 V2000
  -32.3139  -26.8979   37.4443 C   0  0  0  0  0  0  0  0  0  0  0  0
  -31.8454  -26.3339   36.2620 C   0  0  0  0  0  0  0  0  0  0  0  0
  -23.0756   -9.8685   19.9403 C   0  0  0  0  0  0  0  0  0  0  0  0
  -23.8351   -9.8747   22.2338 C   0  0  0  0  0  0  0  0  0  0  0  0
  -33.3783  -26.3066   38.1235 C   0  0  0  0  0  0  0  0  0  0  0  0
  -32.4420  -25.1789   35.7576 C   0  0  0  0  0  0  0  0  0  0  0  0
  -29.6724  -20.6142   32.7577 C   0  0  0  0  0  0  0  0  0  0  0  0
  -29.8795  -17.4553   23.1407 C   0  0  0  0  0  0  0  0  0  0  0  0
  -30.4662  -18.3398   24.0456 C   0  0  0  0  0  0  0  0  0  0  0  0
  -22.3314   -8.7155   20.1898 C   0  0  0  0  0  0  0  0  0  0  0  0
  -23.0909   -8.7216   22.4834 C   0  0  0  0  0  0  0  0  0  0  0  0
  -29.5568  -20.3180   31.4002 C   0  0  0  0  0  0  0  0  0  0  0  0
  -21.1049   -5.9847   23.8189 C   0  0  0  0  0  0  0  0  0  0  0  0
  -20.3485   -5.9411   24.9900 C   0  0  0  0  0  0  0  0  0  0  0  0
  -31.4391  -18.8192   31.5733 C   0  0  0  0  0  0  0  0  0  0  0  0
  -32.0642  -16.6080   22.5523 C   0  0  0  0  0  0  0  0  0  0  0  0
  -19.1046   -7.8789   24.2587 C   0  0  0  0  0  0  0  0  0  0  0  0
  -23.8276  -10.4481   20.9623 C   0  0  0  0  0  0  0  0  0  0  0  0
  -24.1701  -12.9732   20.8430 C   0  0  0  0  0  0  0  0  0  0  0  0
  -33.9819  -25.1383   37.6323 C   0  0  0  0  0  0  0  0  0  0  0  0
  -30.6807  -20.0225   33.5320 C   0  0  0  0  0  0  0  0  0  0  0  0
  -33.5163  -24.5721   36.4301 C   0  0  0  0  0  0  0  0  0  0  0  0
  -31.5637  -19.1076   32.9409 C   0  0  0  0  0  0  0  0  0  0  0  0
  -32.6510  -17.4926   23.4572 C   0  0  0  0  0  0  0  0  0  0  0  0
  -30.6785  -16.5893   22.3941 C   0  0  0  0  0  0  0  0  0  0  0  0
  -31.8520  -18.3585   24.2039 C   0  0  0  0  0  0  0  0  0  0  0  0
  -22.3390   -8.1421   21.4613 C   0  0  0  0  0  0  0  0  0  0  0  0
  -30.4421  -19.4226   30.8072 C   0  0  0  0  0  0  0  0  0  0  0  0
  -20.8613   -6.9756   22.8677 C   0  0  0  0  0  0  0  0  0  0  0  0
  -19.3483   -6.8881   25.2099 C   0  0  0  0  0  0  0  0  0  0  0  0
  -19.8611   -7.9226   23.0877 C   0  0  0  0  0  0  0  0  0  0  0  0
  -24.5970  -11.6388   20.7050 C   0  0  0  0  0  0  0  0  0  0  0  0
  -25.2625  -13.7224   20.4801 C   0  0  0  0  0  0  0  0  0  0  0  0
  -22.8997  -13.4892   21.2619 C   0  0  0  0  0  0  0  0  0  0  0  0
  -33.1661  -21.1096   35.1887 C   0  0  0  0  0  0  0  0  0  0  0  0
  -33.4211  -18.0063   36.0977 C   0  0  0  0  0  0  0  0  0  0  0  0
  -32.7694  -14.7257   35.4194 C   0  0  0  0  0  0  0  0  0  0  0  0
  -30.7290  -14.7664   20.6560 C   0  0  0  0  0  0  0  0  0  0  0  0
  -35.1604  -24.5620   38.3764 C   0  0  0  0  0  0  0  0  0  0  0  0
  -30.7752  -20.3321   35.0009 C   0  0  0  0  0  0  0  0  0  0  0  0
  -32.6509  -18.4298   33.7328 C   0  0  0  0  0  0  0  0  0  0  0  0
  -35.4933  -23.1279   37.9730 C   0  0  0  0  0  0  0  0  0  0  0  0
  -29.6143  -12.3536   18.2869 C   0  0  0  0  0  0  0  0  0  0  0  0
  -35.5007  -22.9886   36.4540 C   0  0  0  0  0  0  0  0  0  0  0  0
  -28.1745  -12.0623   18.7161 C   0  0  0  0  0  0  0  0  0  0  0  0
  -30.5293  -12.5818   19.4887 C   0  0  0  0  0  0  0  0  0  0  0  0
  -28.6223  -13.3064   20.8699 C   0  0  0  0  0  0  0  0  0  0  0  0
  -34.1211  -23.3056   35.8642 C   0  0  1  0  0  0  0  0  0  0  0  0
  -32.1608  -20.0637   35.5801 C   0  0  1  0  0  0  0  0  0  0  0  0
  -27.6496  -13.1338   19.6919 C   0  0  2  0  0  0  0  0  0  0  0  0
  -34.1377  -17.4923   23.6061 C   0  0  0  0  0  0  0  0  0  0  0  0
  -33.1353  -12.4157   36.3290 C   0  0  0  0  0  0  0  0  0  0  0  0
  -36.3256  -18.1029   35.1680 C   0  0  0  0  0  0  0  0  0  0  0  0
  -36.3476  -15.5996   35.2040 C   0  0  0  0  0  0  0  0  0  0  0  0
  -35.9575  -16.8722   37.3138 C   0  0  0  0  0  0  0  0  0  0  0  0
  -32.8157  -20.5955   24.6808 C   0  0  0  0  0  0  0  0  0  0  0  0
  -29.8608  -14.2336   35.6587 C   0  0  0  0  0  0  0  0  0  0  0  0
  -31.3876  -19.1973   27.3281 C   0  0  0  0  0  0  0  0  0  0  0  0
  -32.6297  -18.8911   26.4999 C   0  0  0  0  0  0  0  0  0  0  0  0
  -31.5324  -18.7913   28.7901 C   0  0  0  0  0  0  0  0  0  1  0  0
  -34.1373  -16.7905   35.5611 C   0  0  1  0  0  0  0  0  0  0  0  0
  -32.1990  -13.6131   36.2804 C   0  0  2  0  0  0  0  0  0  0  0  0
  -35.6728  -16.8554   35.7961 C   0  0  0  0  0  0  0  0  0  0  0  0
  -25.8619  -11.5427   20.2869 N   0  0  0  0  0  0  0  0  0  0  0  0
  -26.2392  -12.8262   20.1590 N   0  0  0  0  0  0  0  0  0  0  0  0
  -32.7065  -18.7701   35.1641 N   0  0  0  0  0  0  0  0  0  0  0  0
  -29.9704  -13.6126   20.3663 N   0  0  0  0  0  0  0  0  0  0  0  0
  -25.4733  -15.0539   20.4075 N   0  0  0  0  0  0  0  0  0  0  0  0
  -21.8875  -12.5802   21.5987 N   0  0  0  0  0  0  0  0  0  0  0  0
  -30.0817  -15.6915   21.4745 N   0  0  0  0  0  0  0  0  0  0  0  0
  -33.2221  -22.1872   36.0520 N   0  0  0  0  0  0  0  0  0  0  0  0
  -33.4883  -15.6334   36.1681 N   0  0  0  0  0  0  0  0  0  0  0  0
  -32.4246  -19.2541   25.1185 N   0  0  3  0  0  0  0  0  0  0  0  0
  -30.8858  -13.1613   35.7399 N   0  3  0  0  0  0  0  0  0  0  0  0
  -22.6638  -14.7199   21.3195 O   0  0  0  0  0  0  0  0  0  0  0  0
  -33.8420  -20.9501   34.1790 O   0  0  0  0  0  0  0  0  0  0  0  0
  -33.4873  -18.2645   37.3021 O   0  0  0  0  0  0  0  0  0  0  0  0
  -32.5976  -14.7818   34.2037 O   0  0  0  0  0  0  0  0  0  0  0  0
  -31.8582  -14.9350   20.1886 O   0  0  0  0  0  0  0  0  0  0  0  0
  -21.6127   -7.0171   21.7053 O   0  0  0  0  0  0  0  0  0  0  0  0
  -30.3319  -19.1321   29.4823 O   0  0  0  0  0  0  0  0  0  1  0  0
  -18.6209   -6.8451   26.3338 F   0  0  0  0  0  0  0  0  0  0  0  0
  -19.6216   -8.8761   22.1770 F   0  0  0  0  0  0  0  0  0  0  0  0
  1  2  1  0  0  0  0
  1  5  2  0  0  0  0
  2  6  2  0  0  0  0
  3 10  2  0  0  0  0
  3 18  1  0  0  0  0
  4 11  1  0  0  0  0
  4 18  2  0  0  0  0
  5 20  1  0  0  0  0
  6 22  1  0  0  0  0
  7 12  2  0  0  0  0
  7 21  1  0  0  0  0
  8  9  2  0  0  0  0
  8 25  1  0  0  0  0
  9 26  1  0  0  0  0
 10 27  1  0  0  0  0
 11 27  2  0  0  0  0
 12 28  1  0  0  0  0
 13 14  2  0  0  0  0
 13 29  1  0  0  0  0
 14 30  1  0  0  0  0
 15 23  1  0  0  0  0
 15 28  2  0  0  0  0
 16 24  1  0  0  0  0
 16 25  2  0  0  0  0
 17 30  2  0  0  0  0
 17 31  1  0  0  0  0
 18 32  1  0  0  0  0
 19 32  1  0  0  0  0
 19 33  2  0  0  0  0
 19 34  1  0  0  0  0
 20 22  2  0  0  0  0
 20 39  1  0  0  0  0
 21 23  2  0  0  0  0
 21 40  1  0  0  0  0
 22 48  1  0  0  0  0
 23 41  1  0  0  0  0
 24 26  2  0  0  0  0
 24 51  1  0  0  0  0
 25 70  1  0  0  0  0
 26 73  1  0  0  0  0
 27 80  1  0  0  0  0
 28 81  1  0  0  0  0
 29 31  2  0  0  0  0
 29 80  1  0  0  0  0
 30 82  1  0  0  0  0
 31 83  1  0  0  0  0
 32 64  2  0  0  0  0
 33 65  1  0  0  0  0
 33 68  1  0  0  0  0
 34 69  1  0  0  0  0
 34 75  2  0  0  0  0
 35 49  1  0  0  0  0
 35 71  1  0  0  0  0
 35 76  2  0  0  0  0
 36 61  1  0  0  0  0
 36 66  1  0  0  0  0
 36 77  2  0  0  0  0
 37 62  1  0  0  0  0
 37 72  1  0  0  0  0
 37 78  2  0  0  0  0
 38 67  1  0  0  0  0
 38 70  1  0  0  0  0
 38 79  2  0  0  0  0
 39 42  1  0  0  0  0
 40 49  1  0  0  0  0
 41 66  1  0  0  0  0
 42 44  1  0  0  0  0
 43 45  1  0  0  0  0
 43 46  1  0  0  0  0
 44 48  1  0  0  0  0
 45 50  1  0  0  0  0
 46 67  1  0  0  0  0
 47 50  1  0  0  0  0
 47 67  1  0  0  0  0
 48 71  1  0  0  0  0
 49 66  1  0  0  0  0
 50 65  1  0  0  0  0
 52 62  1  0  0  0  0
 53 63  1  0  0  0  0
 54 63  1  0  0  0  0
 55 63  1  0  0  0  0
 56 73  1  0  0  0  0
 57 74  1  0  0  0  0
 58 59  1  0  0  0  0
 58 60  1  0  0  0  0
 59 73  1  0  0  0  0
 60 81  1  0  0  0  0
 61 63  1  0  0  0  0
 61 72  1  0  0  0  0
 62 74  1  0  0  0  0
 64 65  1  0  0  0  0
M  CHG  1  74   1
M  ISO  4  38 100  60 101  70 100  81 101
M  END
> <Batch ID>
0103

> <Smiles>
CNC(C)C(=O)NC(C(=O)N1Cc2cc([101O:1][101CH2:1]CCN(C)c3ccc([100NH:0][100C:0](=O)N4CCCC(n5nc(-c6ccc(Oc7ccc(F)cc7F)cc6)c(C(N)=O)c5N)C4)cc3C)ccc2CC1C(=O)NC1CCCc2ccccc21)C(C)(C)C

> <Shape>
0.161

> <Color>
0.200

> <Negative vol penalty>
0.000

$$$$
