
  -OEChem-04052301083D

 86 94  0     1  0  0  0  0  0999 V2000
  -31.1423  -33.6649   26.5866 C   0  0  0  0  0  0  0  0  0  0  0  0
  -31.2945  -32.6866   25.6093 C   0  0  0  0  0  0  0  0  0  0  0  0
  -23.1574   -9.8721   21.4951 C   0  0  0  0  0  0  0  0  0  0  0  0
  -23.8339  -10.8652   23.5910 C   0  0  0  0  0  0  0  0  0  0  0  0
  -30.0332  -33.6384   27.4311 C   0  0  0  0  0  0  0  0  0  0  0  0
  -30.3381  -31.6805   25.4765 C   0  0  0  0  0  0  0  0  0  0  0  0
  -28.5082  -29.0027   20.2817 C   0  0  0  0  0  0  0  0  0  0  0  0
  -31.5196  -17.8505   19.9988 C   0  0  0  0  0  0  0  0  0  0  0  0
  -22.4606   -8.8827   22.1887 C   0  0  0  0  0  0  0  0  0  0  0  0
  -23.1371   -9.8758   24.2847 C   0  0  0  0  0  0  0  0  0  0  0  0
  -28.8582  -27.7979   19.6737 C   0  0  0  0  0  0  0  0  0  0  0  0
  -31.9419  -19.1769   19.9111 C   0  0  0  0  0  0  0  0  0  0  0  0
  -23.1790   -6.0164   23.8297 C   0  0  0  0  0  0  0  0  0  0  0  0
  -23.3280   -4.6978   23.4002 C   0  0  0  0  0  0  0  0  0  0  0  0
  -26.9398  -26.7385   20.6820 C   0  0  0  0  0  0  0  0  0  0  0  0
  -29.3976  -18.5850   20.8902 C   0  0  0  0  0  0  0  0  0  0  0  0
  -20.9523   -4.5660   22.9807 C   0  0  0  0  0  0  0  0  0  0  0  0
  -23.8441  -10.8634   22.1962 C   0  0  0  0  0  0  0  0  0  0  0  0
  -24.0698  -13.1311   21.0498 C   0  0  0  0  0  0  0  0  0  0  0  0
  -29.0578  -32.6370   27.3024 C   0  0  0  0  0  0  0  0  0  0  0  0
  -27.3755  -29.0819   21.1046 C   0  0  0  0  0  0  0  0  0  0  0  0
  -29.2156  -31.6398   26.3210 C   0  0  0  0  0  0  0  0  0  0  0  0
  -26.5761  -27.9461   21.2972 C   0  0  0  0  0  0  0  0  0  0  0  0
  -30.2474  -17.5545   20.4883 C   0  0  0  0  0  0  0  0  0  0  0  0
  -22.4505   -8.8846   23.5836 C   0  0  0  0  0  0  0  0  0  0  0  0
  -28.0757  -26.6649   19.8760 C   0  0  0  0  0  0  0  0  0  0  0  0
  -31.0922  -20.2074   20.3130 C   0  0  0  0  0  0  0  0  0  0  0  0
  -21.9166   -6.6099   23.8348 C   0  0  0  0  0  0  0  0  0  0  0  0
  -29.8200  -19.9115   20.8025 C   0  0  0  0  0  0  0  0  0  0  0  0
  -22.2147   -3.9725   22.9757 C   0  0  0  0  0  0  0  0  0  0  0  0
  -20.8033   -5.8847   23.4103 C   0  0  0  0  0  0  0  0  0  0  0  0
  -24.5645  -11.8853   21.4802 C   0  0  0  0  0  0  0  0  0  0  0  0
  -25.1374  -13.7268   20.4239 C   0  0  0  0  0  0  0  0  0  0  0  0
  -22.7622  -13.6990   21.2023 C   0  0  0  0  0  0  0  0  0  0  0  0
  -26.8721  -29.7614   24.1687 C   0  0  0  0  0  0  0  0  0  0  0  0
  -23.7538  -29.5828   23.2932 C   0  0  0  0  0  0  0  0  0  0  0  0
  -21.4197  -28.3683   21.1197 C   0  0  0  0  0  0  0  0  0  0  0  0
  -30.5381  -15.0663   20.2222 C   0  0  0  0  0  0  0  0  0  0  0  0
  -27.9004  -32.6225   28.2692 C   0  0  0  0  0  0  0  0  0  0  0  0
  -26.9964  -30.3954   21.7318 C   0  0  0  0  0  0  0  0  0  0  0  0
  -25.3388  -27.9835   22.1552 C   0  0  0  0  0  0  0  0  0  0  0  0
  -26.7409  -31.7381   27.8180 C   0  0  0  0  0  0  0  0  0  0  0  0
  -29.6245  -11.8323   19.0461 C   0  0  0  0  0  0  0  0  0  0  0  0
  -27.2567  -30.3852   27.3381 C   0  0  0  0  0  0  0  0  0  0  0  0
  -28.1859  -11.6602   19.5391 C   0  0  0  0  0  0  0  0  0  0  0  0
  -30.4844  -12.5874   20.0581 C   0  0  0  0  0  0  0  0  0  0  0  0
  -28.4973  -13.7039   20.9930 C   0  0  0  0  0  0  0  0  0  0  0  0
  -28.1870  -30.5465   26.1297 C   0  0  1  0  0  0  0  0  0  0  0  0
  -26.1105  -30.2359   22.9635 C   0  0  1  0  0  0  0  0  0  0  0  0
  -27.5763  -13.0058   19.9790 C   0  0  2  0  0  0  0  0  0  0  0  0
  -25.6067  -22.3595   20.4213 C   0  0  0  0  0  0  0  0  0  0  0  0
  -18.9484  -28.3620   20.6840 C   0  0  0  0  0  0  0  0  0  0  0  0
  -23.3615  -27.5792   25.5607 C   0  0  0  0  0  0  0  0  0  0  0  0
  -21.1935  -26.9110   24.5018 C   0  0  0  0  0  0  0  0  0  0  0  0
  -21.5155  -29.2481   25.3122 C   0  0  0  0  0  0  0  0  0  0  0  0
  -21.7638  -29.6685   18.4834 C   0  0  0  0  0  0  0  0  0  0  0  0
  -26.9592  -22.1933   21.0904 C   0  0  0  0  0  0  0  0  0  0  0  0
  -30.0924  -23.7621   19.0811 C   0  0  0  0  0  0  0  0  0  0  0  0
  -31.5711  -23.4696   18.8513 C   0  0  0  0  0  0  0  0  0  0  0  0
  -27.7326  -21.0151   20.5184 C   0  0  0  0  0  0  0  0  0  0  0  0
  -29.8035  -25.2570   19.0464 C   0  0  0  0  0  0  0  0  0  1  0  0
  -31.8679  -21.9787   18.9285 C   0  0  0  0  0  0  0  0  0  0  0  0
  -22.7232  -28.4817   23.2274 C   0  0  1  0  0  0  0  0  0  0  0  0
  -20.2744  -29.0459   20.3894 C   0  0  2  0  0  0  0  0  0  0  0  0
  -22.2228  -28.0535   24.6359 C   0  0  0  0  0  0  0  0  0  0  0  0
  -25.8466  -11.6994   21.1550 N   0  0  0  0  0  0  0  0  0  0  0  0
  -26.1665  -12.8362   20.5136 N   0  0  0  0  0  0  0  0  0  0  0  0
  -25.0134  -29.2895   22.7518 N   0  0  0  0  0  0  0  0  0  0  0  0
  -29.8463  -13.8535   20.4250 N   0  0  0  0  0  0  0  0  0  0  0  0
  -25.2869  -14.9203   19.8110 N   0  0  0  0  0  0  0  0  0  0  0  0
  -21.7832  -12.9519   21.8715 N   0  0  0  0  0  0  0  0  0  0  0  0
  -29.8189  -16.2069   20.5779 N   0  0  0  0  0  0  0  0  0  0  0  0
  -27.4170  -30.7802   24.9268 N   0  0  0  0  0  0  0  0  0  0  0  0
  -21.6697  -28.9610   22.3393 N   0  0  0  0  0  0  0  0  0  0  0  0
  -20.5050  -29.0098   18.9175 N   0  3  0  0  0  0  0  0  0  0  0  0
  -22.4659  -14.8285   20.7440 O   0  0  0  0  0  0  0  0  0  0  0  0
  -26.9576  -28.5601   24.3949 O   0  0  0  0  0  0  0  0  0  0  0  0
  -23.4501  -30.6659   23.7995 O   0  0  0  0  0  0  0  0  0  0  0  0
  -22.0291  -27.4068   20.6564 O   0  0  0  0  0  0  0  0  0  0  0  0
  -31.6739  -15.0930   19.7413 O   0  0  0  0  0  0  0  0  0  0  0  0
  -21.7705   -7.9194   24.2608 O   0  0  0  0  0  0  0  0  0  0  0  0
  -28.4155  -25.4875   19.2843 O   0  0  0  0  0  0  0  0  0  1  0  0
  -31.5190  -21.5069   20.2226 O   0  0  0  0  0  0  0  0  0  0  0  0
  -28.9813  -20.9091   21.1992 O   0  0  0  0  0  0  0  0  0  0  0  0
  -22.3581   -2.7067   22.5618 F   0  0  0  0  0  0  0  0  0  0  0  0
  -19.5882   -6.4498   23.4118 F   0  0  0  0  0  0  0  0  0  0  0  0
  1  2  1  0  0  0  0
  1  5  2  0  0  0  0
  2  6  2  0  0  0  0
  3  9  2  0  0  0  0
  3 18  1  0  0  0  0
  4 10  1  0  0  0  0
  4 18  2  0  0  0  0
  5 20  1  0  0  0  0
  6 22  1  0  0  0  0
  7 11  2  0  0  0  0
  7 21  1  0  0  0  0
  8 12  2  0  0  0  0
  8 24  1  0  0  0  0
  9 25  1  0  0  0  0
 10 25  2  0  0  0  0
 11 26  1  0  0  0  0
 12 27  1  0  0  0  0
 13 14  2  0  0  0  0
 13 28  1  0  0  0  0
 14 30  1  0  0  0  0
 15 23  1  0  0  0  0
 15 26  2  0  0  0  0
 16 24  2  0  0  0  0
 16 29  1  0  0  0  0
 17 30  2  0  0  0  0
 17 31  1  0  0  0  0
 18 32  1  0  0  0  0
 19 32  1  0  0  0  0
 19 33  2  0  0  0  0
 19 34  1  0  0  0  0
 20 22  2  0  0  0  0
 20 39  1  0  0  0  0
 21 23  2  0  0  0  0
 21 40  1  0  0  0  0
 22 48  1  0  0  0  0
 23 41  1  0  0  0  0
 24 72  1  0  0  0  0
 25 81  1  0  0  0  0
 26 82  1  0  0  0  0
 27 29  2  0  0  0  0
 27 83  1  0  0  0  0
 28 31  2  0  0  0  0
 28 81  1  0  0  0  0
 29 84  1  0  0  0  0
 30 85  1  0  0  0  0
 31 86  1  0  0  0  0
 32 66  2  0  0  0  0
 33 67  1  0  0  0  0
 33 70  1  0  0  0  0
 34 71  1  0  0  0  0
 34 76  2  0  0  0  0
 35 49  1  0  0  0  0
 35 73  1  0  0  0  0
 35 77  2  0  0  0  0
 36 63  1  0  0  0  0
 36 68  1  0  0  0  0
 36 78  2  0  0  0  0
 37 64  1  0  0  0  0
 37 74  1  0  0  0  0
 37 79  2  0  0  0  0
 38 69  1  0  0  0  0
 38 72  1  0  0  0  0
 38 80  2  0  0  0  0
 39 42  1  0  0  0  0
 40 49  1  0  0  0  0
 41 68  1  0  0  0  0
 42 44  1  0  0  0  0
 43 45  1  0  0  0  0
 43 46  1  0  0  0  0
 44 48  1  0  0  0  0
 45 50  1  0  0  0  0
 46 69  1  0  0  0  0
 47 50  1  0  0  0  0
 47 69  1  0  0  0  0
 48 73  1  0  0  0  0
 49 68  1  0  0  0  0
 50 67  1  0  0  0  0
 51 57  1  0  0  0  0
 52 64  1  0  0  0  0
 53 65  1  0  0  0  0
 54 65  1  0  0  0  0
 55 65  1  0  0  0  0
 56 75  1  0  0  0  0
 57 60  1  0  0  0  0
 58 59  1  0  0  0  0
 58 61  1  0  0  0  0
 59 62  1  0  0  0  0
 60 84  1  0  0  0  0
 61 82  1  0  0  0  0
 62 83  1  0  0  0  0
 63 65  1  0  0  0  0
 63 74  1  0  0  0  0
 64 75  1  0  0  0  0
 66 67  1  0  0  0  0
M  CHG  1  75   1
M  ISO  4  38 100  61 101  72 100  82 101
M  END
> <Batch ID>
0104

> <Smiles>
CCCOc1cc([100NH:0][100C:0](=O)N2CCCC(n3nc(-c4ccc(Oc5ccc(F)cc5F)cc4)c(C(N)=O)c3N)C2)ccc1OCCC[101CH2:1][101O:1]c1ccc2c(c1)CN(C(=O)C(NC(=O)C(C)NC)C(C)(C)C)C(C(=O)NC1CCCc3ccccc31)C2

> <Shape>
0.325

> <Color>
0.174

> <Negative vol penalty>
0.000

$$$$

  -OEChem-04052301083D

 86 95  0     1  0  0  0  0  0999 V2000
  -26.7532  -34.8231   23.7493 C   0  0  0  0  0  0  0  0  0  0  0  0
  -27.1615  -33.5345   23.4202 C   0  0  0  0  0  0  0  0  0  0  0  0
  -22.5117  -13.4550   18.6438 C   0  0  0  0  0  0  0  0  0  0  0  0
  -23.2020  -11.2561   19.3687 C   0  0  0  0  0  0  0  0  0  0  0  0
  -25.4727  -35.0391   24.2568 C   0  0  0  0  0  0  0  0  0  0  0  0
  -26.2897  -32.4610   23.5995 C   0  0  0  0  0  0  0  0  0  0  0  0
  -26.2542  -29.3050   19.6393 C   0  0  0  0  0  0  0  0  0  0  0  0
  -29.8160  -21.5026   22.9415 C   0  0  0  0  0  0  0  0  0  0  0  0
  -29.5981  -20.1385   22.7482 C   0  0  0  0  0  0  0  0  0  0  0  0
  -21.5308  -12.8806   17.8354 C   0  0  0  0  0  0  0  0  0  0  0  0
  -22.2210  -10.6817   18.5603 C   0  0  0  0  0  0  0  0  0  0  0  0
  -27.3191  -28.4121   19.5271 C   0  0  0  0  0  0  0  0  0  0  0  0
  -18.4474  -11.5488   18.2252 C   0  0  0  0  0  0  0  0  0  0  0  0
  -17.1729  -12.1151   18.2508 C   0  0  0  0  0  0  0  0  0  0  0  0
  -25.9441  -26.6641   20.4614 C   0  0  0  0  0  0  0  0  0  0  0  0
  -29.3002  -21.9145   20.6175 C   0  0  0  0  0  0  0  0  0  0  0  0
  -17.3302  -12.5761   15.8844 C   0  0  0  0  0  0  0  0  0  0  0  0
  -23.3474  -12.6427   19.4104 C   0  0  0  0  0  0  0  0  0  0  0  0
  -24.2291  -13.6365   21.5881 C   0  0  0  0  0  0  0  0  0  0  0  0
  -24.5815  -33.9690   24.4333 C   0  0  0  0  0  0  0  0  0  0  0  0
  -25.0276  -28.8861   20.1744 C   0  0  0  0  0  0  0  0  0  0  0  0
  -24.9966  -32.6628   24.1111 C   0  0  0  0  0  0  0  0  0  0  0  0
  -24.8644  -27.5529   20.5769 C   0  0  0  0  0  0  0  0  0  0  0  0
  -29.0823  -20.5503   20.4240 C   0  0  0  0  0  0  0  0  0  0  0  0
  -29.6670  -22.3906   21.8762 C   0  0  0  0  0  0  0  0  0  0  0  0
  -29.2313  -19.6624   21.4894 C   0  0  0  0  0  0  0  0  0  0  0  0
  -21.3854  -11.4939   17.7937 C   0  0  0  0  0  0  0  0  0  0  0  0
  -27.1651  -27.0922   19.9408 C   0  0  0  0  0  0  0  0  0  0  0  0
  -19.1633  -11.4963   17.0292 C   0  0  0  0  0  0  0  0  0  0  0  0
  -16.6143  -12.6287   17.0804 C   0  0  0  0  0  0  0  0  0  0  0  0
  -18.6047  -12.0099   15.8588 C   0  0  0  0  0  0  0  0  0  0  0  0
  -24.3612  -13.2355   20.2452 C   0  0  0  0  0  0  0  0  0  0  0  0
  -25.4654  -14.1335   21.9212 C   0  0  0  0  0  0  0  0  0  0  0  0
  -30.2585  -24.4124   23.2873 C   0  0  0  0  0  0  0  0  0  0  0  0
  -23.0907  -13.5660   22.4569 C   0  0  0  0  0  0  0  0  0  0  0  0
  -23.2922  -29.6986   22.7105 C   0  0  0  0  0  0  0  0  0  0  0  0
  -21.1298  -27.6704   21.3940 C   0  0  0  0  0  0  0  0  0  0  0  0
  -20.5284  -25.0061   19.3479 C   0  0  0  0  0  0  0  0  0  0  0  0
  -29.7735  -17.4948   20.3926 C   0  0  0  0  0  0  0  0  0  0  0  0
  -23.2240  -34.2456   25.0295 C   0  0  0  0  0  0  0  0  0  0  0  0
  -23.8803  -29.8547   20.2640 C   0  0  0  0  0  0  0  0  0  0  0  0
  -23.5616  -27.0481   21.1393 C   0  0  0  0  0  0  0  0  0  0  0  0
  -30.3964  -25.8921   23.0173 C   0  0  0  0  0  0  0  0  0  0  0  0
  -22.2301  -33.1030   24.8375 C   0  0  0  0  0  0  0  0  0  0  0  0
  -30.5459  -25.9635   21.5094 C   0  0  0  0  0  0  0  0  0  0  0  0
  -29.8839  -13.9202   19.4869 C   0  0  0  0  0  0  0  0  0  0  0  0
  -22.8784  -31.7671   25.1868 C   0  0  0  0  0  0  0  0  0  0  0  0
  -28.4299  -13.4818   19.6532 C   0  0  0  0  0  0  0  0  0  0  0  0
  -29.9914  -15.3924   19.1007 C   0  0  0  0  0  0  0  0  0  0  0  0
  -27.8270  -15.8735   20.2025 C   0  0  0  0  0  0  0  0  0  0  0  0
  -24.0711  -31.4757   24.2680 C   0  0  1  0  0  0  0  0  0  0  0  0
  -22.8365  -29.4503   21.3004 C   0  0  1  0  0  0  0  0  0  0  0  0
  -27.6869  -14.4057   20.6337 C   0  0  1  0  0  0  0  0  0  0  0  0
  -29.7318  -24.7758   21.0084 C   0  0  2  0  0  0  0  0  0  0  0  0
  -28.6883  -20.0682   19.0657 C   0  0  0  0  0  0  0  0  0  0  0  0
  -18.6652  -23.5542   18.5006 C   0  0  0  0  0  0  0  0  0  0  0  0
  -21.0413  -26.2219   24.0781 C   0  0  0  0  0  0  0  0  0  0  0  0
  -19.9477  -24.2900   22.9205 C   0  0  0  0  0  0  0  0  0  0  0  0
  -18.8155  -26.5122   22.9754 C   0  0  0  0  0  0  0  0  0  0  0  0
  -28.1452  -17.5478   22.2675 C   0  0  0  0  0  0  0  0  0  0  0  0
  -21.0379  -25.7909   16.5402 C   0  0  0  0  0  0  0  0  0  0  0  0
  -28.2675  -25.1649   20.7929 C   0  0  0  0  0  0  0  0  0  1  0  0
  -20.8462  -26.1917   21.5038 C   0  0  1  0  0  0  0  0  0  0  0  0
  -19.5079  -24.7938   18.2442 C   0  0  2  0  0  0  0  0  0  0  0  0
  -20.1880  -25.8136   22.8607 C   0  0  0  0  0  0  0  0  0  0  0  0
  -25.5848  -13.4586   19.7584 N   0  0  0  0  0  0  0  0  0  0  0  0
  -26.2329  -14.0053   20.8011 N   0  0  0  0  0  0  0  0  0  0  0  0
  -29.8880  -23.7913   22.0756 N   0  0  0  0  0  0  0  0  0  0  0  0
  -22.4715  -28.0350   21.2126 N   0  0  0  0  0  0  0  0  0  0  0  0
  -29.2390  -16.2444   20.0224 N   0  0  0  0  0  0  0  0  0  0  0  0
  -25.9600  -14.6634   23.0601 N   0  0  0  0  0  0  0  0  0  0  0  0
  -21.8988  -13.0268   21.9538 N   0  0  0  0  0  0  0  0  0  0  0  0
  -23.6123  -31.0167   22.9745 N   0  0  0  0  0  0  0  0  0  0  0  0
  -20.0477  -25.8413   20.3341 N   0  0  0  0  0  0  0  0  0  0  0  0
  -29.0088  -18.2470   21.3104 N   0  0  0  0  0  0  0  0  0  0  0  0
  -20.1921  -24.6335   16.9300 N   0  3  0  0  0  0  0  0  0  0  0  0
  -30.4283  -23.9357   24.4002 O   0  0  0  0  0  0  0  0  0  0  0  0
  -23.1245  -13.9842   23.6390 O   0  0  0  0  0  0  0  0  0  0  0  0
  -23.3477  -28.7638   23.5009 O   0  0  0  0  0  0  0  0  0  0  0  0
  -20.1946  -28.4721   21.4595 O   0  0  0  0  0  0  0  0  0  0  0  0
  -21.6392  -24.4804   19.3381 O   0  0  0  0  0  0  0  0  0  0  0  0
  -30.8616  -17.8931   19.9601 O   0  0  0  0  0  0  0  0  0  0  0  0
  -20.4282  -10.9331   17.0052 O   0  0  0  0  0  0  0  0  0  0  0  0
  -28.2031  -26.2189   19.8330 O   0  0  0  0  0  0  0  0  0  1  0  0
  -15.3898  -13.1710   17.1049 F   0  0  0  0  0  0  0  0  0  0  0  0
  -19.2872  -11.9612   14.7066 F   0  0  0  0  0  0  0  0  0  0  0  0
  1  2  1  0  0  0  0
  1  5  2  0  0  0  0
  2  6  2  0  0  0  0
  3 10  2  0  0  0  0
  3 18  1  0  0  0  0
  4 11  1  0  0  0  0
  4 18  2  0  0  0  0
  5 20  1  0  0  0  0
  6 22  1  0  0  0  0
  7 12  2  0  0  0  0
  7 21  1  0  0  0  0
  8  9  2  0  0  0  0
  8 25  1  0  0  0  0
  9 26  1  0  0  0  0
 10 27  1  0  0  0  0
 11 27  2  0  0  0  0
 12 28  1  0  0  0  0
 13 14  2  0  0  0  0
 13 29  1  0  0  0  0
 14 30  1  0  0  0  0
 15 23  1  0  0  0  0
 15 28  2  0  0  0  0
 16 24  1  0  0  0  0
 16 25  2  0  0  0  0
 17 30  2  0  0  0  0
 17 31  1  0  0  0  0
 18 32  1  0  0  0  0
 19 32  1  0  0  0  0
 19 33  2  0  0  0  0
 19 35  1  0  0  0  0
 20 22  2  0  0  0  0
 20 40  1  0  0  0  0
 21 23  2  0  0  0  0
 21 41  1  0  0  0  0
 22 51  1  0  0  0  0
 23 42  1  0  0  0  0
 24 26  2  0  0  0  0
 24 55  1  0  0  0  0
 25 68  1  0  0  0  0
 26 75  1  0  0  0  0
 27 83  1  0  0  0  0
 28 84  1  0  0  0  0
 29 31  2  0  0  0  0
 29 83  1  0  0  0  0
 30 85  1  0  0  0  0
 31 86  1  0  0  0  0
 32 66  2  0  0  0  0
 33 67  1  0  0  0  0
 33 71  1  0  0  0  0
 34 43  1  0  0  0  0
 34 68  1  0  0  0  0
 34 77  2  0  0  0  0
 35 72  1  0  0  0  0
 35 78  2  0  0  0  0
 36 52  1  0  0  0  0
 36 73  1  0  0  0  0
 36 79  2  0  0  0  0
 37 63  1  0  0  0  0
 37 69  1  0  0  0  0
 37 80  2  0  0  0  0
 38 64  1  0  0  0  0
 38 74  1  0  0  0  0
 38 81  2  0  0  0  0
 39 70  1  0  0  0  0
 39 75  1  0  0  0  0
 39 82  2  0  0  0  0
 40 44  1  0  0  0  0
 41 52  1  0  0  0  0
 42 69  1  0  0  0  0
 43 45  1  0  0  0  0
 44 47  1  0  0  0  0
 45 54  1  0  0  0  0
 46 48  1  0  0  0  0
 46 49  1  0  0  0  0
 47 51  1  0  0  0  0
 48 53  1  0  0  0  0
 49 70  1  0  0  0  0
 50 53  1  0  0  0  0
 50 70  1  0  0  0  0
 51 73  1  0  0  0  0
 52 69  1  0  0  0  0
 53 67  1  0  0  0  0
 54 62  1  0  0  0  0
 54 68  1  0  0  0  0
 56 64  1  0  0  0  0
 57 65  1  0  0  0  0
 58 65  1  0  0  0  0
 59 65  1  0  0  0  0
 60 75  1  0  0  0  0
 61 76  1  0  0  0  0
 62 84  1  0  0  0  0
 63 65  1  0  0  0  0
 63 74  1  0  0  0  0
 64 76  1  0  0  0  0
 66 67  1  0  0  0  0
M  CHG  1  76   1
M  ISO  4  39 100  62 101  75 100  84 101
M  END
> <Batch ID>
0104

> <Smiles>
CNC(C)C(=O)NC(C(=O)N1Cc2cc([101O:1][101CH2:1]C3CCC(=O)N3c3ccc([100N:0](C)[100C:0](=O)N4CCCC(n5nc(-c6ccc(Oc7ccc(F)cc7F)cc6)c(C(N)=O)c5N)C4)c(C)c3)ccc2CC1C(=O)NC1CCCc2ccccc21)C(C)(C)C

> <Shape>
0.260

> <Color>
0.092

> <Negative vol penalty>
0.000

$$$$

  -OEChem-04052301083D

 85 94  0     1  0  0  0  0  0999 V2000
  -20.5574  -30.8997   23.9945 C   0  0  0  0  0  0  0  0  0  0  0  0
  -21.7693  -30.2551   23.7680 C   0  0  0  0  0  0  0  0  0  0  0  0
  -27.0160  -23.5518   23.2910 C   0  0  0  0  0  0  0  0  0  0  0  0
  -23.4899  -12.4553   20.5203 C   0  0  0  0  0  0  0  0  0  0  0  0
  -24.2837  -13.0098   22.7338 C   0  0  0  0  0  0  0  0  0  0  0  0
  -19.3596  -30.2634   23.6717 C   0  0  0  0  0  0  0  0  0  0  0  0
  -21.7840  -28.9732   23.2195 C   0  0  0  0  0  0  0  0  0  0  0  0
  -25.2492  -28.4649   19.5618 C   0  0  0  0  0  0  0  0  0  0  0  0
  -28.2828  -24.1343   23.3311 C   0  0  0  0  0  0  0  0  0  0  0  0
  -26.7951  -22.4157   22.5123 C   0  0  0  0  0  0  0  0  0  0  0  0
  -23.2853  -11.1360   20.9241 C   0  0  0  0  0  0  0  0  0  0  0  0
  -24.0790  -11.6904   23.1377 C   0  0  0  0  0  0  0  0  0  0  0  0
  -26.5755  -28.3021   19.9594 C   0  0  0  0  0  0  0  0  0  0  0  0
  -20.9750   -9.3974   22.6771 C   0  0  0  0  0  0  0  0  0  0  0  0
  -19.7772   -8.7851   22.3084 C   0  0  0  0  0  0  0  0  0  0  0  0
  -26.3853  -25.9244   19.5996 C   0  0  0  0  0  0  0  0  0  0  0  0
  -29.1078  -22.4448   21.8139 C   0  0  0  0  0  0  0  0  0  0  0  0
  -21.0126   -7.0929   21.1053 C   0  0  0  0  0  0  0  0  0  0  0  0
  -23.9892  -13.3922   21.4252 C   0  0  0  0  0  0  0  0  0  0  0  0
  -23.2796  -15.8171   21.0732 C   0  0  0  0  0  0  0  0  0  0  0  0
  -19.3600  -28.9768   23.1100 C   0  0  0  0  0  0  0  0  0  0  0  0
  -24.4764  -27.3554   19.1899 C   0  0  0  0  0  0  0  0  0  0  0  0
  -20.5850  -28.3185   22.8901 C   0  0  0  0  0  0  0  0  0  0  0  0
  -25.0502  -26.0760   19.1952 C   0  0  0  0  0  0  0  0  0  0  0  0
  -29.3286  -23.5809   22.5926 C   0  0  0  0  0  0  0  0  0  0  0  0
  -27.8410  -21.8623   21.7738 C   0  0  0  0  0  0  0  0  0  0  0  0
  -23.5798  -10.7535   22.2328 C   0  0  0  0  0  0  0  0  0  0  0  0
  -27.1429  -27.0314   19.9811 C   0  0  0  0  0  0  0  0  0  0  0  0
  -22.1916   -8.8576   22.2598 C   0  0  0  0  0  0  0  0  0  0  0  0
  -19.7960   -7.6328   21.5226 C   0  0  0  0  0  0  0  0  0  0  0  0
  -22.2104   -7.7054   21.4739 C   0  0  0  0  0  0  0  0  0  0  0  0
  -24.2014  -14.7551   21.0085 C   0  0  0  0  0  0  0  0  0  0  0  0
  -23.9602  -16.8943   20.5603 C   0  0  0  0  0  0  0  0  0  0  0  0
  -30.5202  -26.7073   22.3399 C   0  0  0  0  0  0  0  0  0  0  0  0
  -21.9289  -15.8290   21.5541 C   0  0  0  0  0  0  0  0  0  0  0  0
  -21.8235  -25.9976   20.2954 C   0  0  0  0  0  0  0  0  0  0  0  0
  -22.1311  -24.1495   17.6473 C   0  0  0  0  0  0  0  0  0  0  0  0
  -24.1752  -22.8470   15.2448 C   0  0  0  0  0  0  0  0  0  0  0  0
  -28.5445  -20.0329   20.1911 C   0  0  0  0  0  0  0  0  0  0  0  0
  -18.0382  -28.3104   22.8213 C   0  0  0  0  0  0  0  0  0  0  0  0
  -23.0552  -27.5510   18.7378 C   0  0  0  0  0  0  0  0  0  0  0  0
  -24.2693  -24.8550   18.7858 C   0  0  0  0  0  0  0  0  0  0  0  0
  -18.1547  -27.1017   21.8962 C   0  0  0  0  0  0  0  0  0  0  0  0
  -28.3924  -17.1354   18.1274 C   0  0  0  0  0  0  0  0  0  0  0  0
  -19.3011  -26.1985   22.3397 C   0  0  0  0  0  0  0  0  0  0  0  0
  -27.2127  -16.3452   18.6983 C   0  0  0  0  0  0  0  0  0  0  0  0
  -31.2886  -26.8315   20.0822 C   0  0  0  0  0  0  0  0  0  0  0  0
  -29.1903  -17.8361   19.2257 C   0  0  0  0  0  0  0  0  0  0  0  0
  -30.9645  -25.3900   20.4263 C   0  0  0  0  0  0  0  0  0  0  0  0
  -27.2165  -17.8895   20.6989 C   0  0  0  0  0  0  0  0  0  0  0  0
  -20.6431  -26.9376   22.2737 C   0  0  1  0  0  0  0  0  0  0  0  0
  -30.5670  -27.6537   21.1552 C   0  0  1  0  0  0  0  0  0  0  0  0
  -22.2066  -26.2903   18.8723 C   0  0  1  0  0  0  0  0  0  0  0  0
  -26.3445  -17.2192   19.6246 C   0  0  2  0  0  0  0  0  0  0  0  0
  -24.1454  -21.3411   13.2376 C   0  0  0  0  0  0  0  0  0  0  0  0
  -21.9602  -21.7152   19.4790 C   0  0  0  0  0  0  0  0  0  0  0  0
  -22.8721  -20.3280   17.6050 C   0  0  0  0  0  0  0  0  0  0  0  0
  -20.6867  -21.5007   17.3374 C   0  0  0  0  0  0  0  0  0  0  0  0
  -25.0960  -25.0187   13.4574 C   0  0  0  0  0  0  0  0  0  0  0  0
  -30.6919  -24.2083   22.6362 C   0  0  0  0  0  0  0  0  0  0  0  0
  -29.1553  -28.0453   20.7416 C   0  0  0  0  0  0  0  0  0  1  0  0
  -22.8260  -22.8482   17.3266 C   0  0  1  0  0  0  0  0  0  0  0  0
  -24.0359  -22.7741   13.7349 C   0  0  2  0  0  0  0  0  0  0  0  0
  -22.1007  -21.6206   17.9466 C   0  0  0  0  0  0  0  0  0  0  0  0
  -25.3778  -15.1240   20.4947 N   0  0  0  0  0  0  0  0  0  0  0  0
  -25.1998  -16.4299   20.2320 N   0  0  0  0  0  0  0  0  0  0  0  0
  -30.7539  -25.4237   21.8536 N   0  0  0  0  0  0  0  0  0  0  0  0
  -22.8816  -25.0971   18.3577 N   0  0  0  0  0  0  0  0  0  0  0  0
  -28.3031  -18.6489   20.0607 N   0  0  0  0  0  0  0  0  0  0  0  0
  -23.6132  -18.1838   20.3625 N   0  0  0  0  0  0  0  0  0  0  0  0
  -21.3848  -14.6353   22.0474 N   0  0  0  0  0  0  0  0  0  0  0  0
  -27.6165  -20.7078   20.9834 N   0  0  0  0  0  0  0  0  0  0  0  0
  -21.1121  -27.0124   20.9067 N   0  0  0  0  0  0  0  0  0  0  0  0
  -22.9491  -22.7984   15.8738 N   0  0  0  0  0  0  0  0  0  0  0  0
  -25.1009  -23.5826   13.0769 N   0  3  0  0  0  0  0  0  0  0  0  0
  -30.2702  -27.0433   23.4885 O   0  0  0  0  0  0  0  0  0  0  0  0
  -21.2199  -16.8636   21.5314 O   0  0  0  0  0  0  0  0  0  0  0  0
  -22.1479  -24.9294   20.8009 O   0  0  0  0  0  0  0  0  0  0  0  0
  -20.9679  -24.3217   17.2748 O   0  0  0  0  0  0  0  0  0  0  0  0
  -25.2631  -22.9341   15.8099 O   0  0  0  0  0  0  0  0  0  0  0  0
  -29.4881  -20.5839   19.6184 O   0  0  0  0  0  0  0  0  0  0  0  0
  -23.3799   -9.4663   22.6273 O   0  0  0  0  0  0  0  0  0  0  0  0
  -28.4371  -26.8697   20.3695 O   0  0  0  0  0  0  0  0  0  1  0  0
  -18.6457   -7.0440   21.1699 F   0  0  0  0  0  0  0  0  0  0  0  0
  -23.3762   -7.1814   21.0710 F   0  0  0  0  0  0  0  0  0  0  0  0
  1  2  1  0  0  0  0
  1  6  2  0  0  0  0
  2  7  2  0  0  0  0
  3  9  2  0  0  0  0
  3 10  1  0  0  0  0
  4 11  2  0  0  0  0
  4 19  1  0  0  0  0
  5 12  1  0  0  0  0
  5 19  2  0  0  0  0
  6 21  1  0  0  0  0
  7 23  1  0  0  0  0
  8 13  2  0  0  0  0
  8 22  1  0  0  0  0
  9 25  1  0  0  0  0
 10 26  2  0  0  0  0
 11 27  1  0  0  0  0
 12 27  2  0  0  0  0
 13 28  1  0  0  0  0
 14 15  2  0  0  0  0
 14 29  1  0  0  0  0
 15 30  1  0  0  0  0
 16 24  1  0  0  0  0
 16 28  2  0  0  0  0
 17 25  2  0  0  0  0
 17 26  1  0  0  0  0
 18 30  2  0  0  0  0
 18 31  1  0  0  0  0
 19 32  1  0  0  0  0
 20 32  1  0  0  0  0
 20 33  2  0  0  0  0
 20 35  1  0  0  0  0
 21 23  2  0  0  0  0
 21 40  1  0  0  0  0
 22 24  2  0  0  0  0
 22 41  1  0  0  0  0
 23 51  1  0  0  0  0
 24 42  1  0  0  0  0
 25 60  1  0  0  0  0
 26 72  1  0  0  0  0
 27 82  1  0  0  0  0
 28 83  1  0  0  0  0
 29 31  2  0  0  0  0
 29 82  1  0  0  0  0
 30 84  1  0  0  0  0
 31 85  1  0  0  0  0
 32 65  2  0  0  0  0
 33 66  1  0  0  0  0
 33 70  1  0  0  0  0
 34 52  1  0  0  0  0
 34 67  1  0  0  0  0
 34 76  2  0  0  0  0
 35 71  1  0  0  0  0
 35 77  2  0  0  0  0
 36 53  1  0  0  0  0
 36 73  1  0  0  0  0
 36 78  2  0  0  0  0
 37 62  1  0  0  0  0
 37 68  1  0  0  0  0
 37 79  2  0  0  0  0
 38 63  1  0  0  0  0
 38 74  1  0  0  0  0
 38 80  2  0  0  0  0
 39 69  1  0  0  0  0
 39 72  1  0  0  0  0
 39 81  2  0  0  0  0
 40 43  1  0  0  0  0
 41 53  1  0  0  0  0
 42 68  1  0  0  0  0
 43 45  1  0  0  0  0
 44 46  1  0  0  0  0
 44 48  1  0  0  0  0
 45 51  1  0  0  0  0
 46 54  1  0  0  0  0
 47 49  1  0  0  0  0
 47 52  1  0  0  0  0
 48 69  1  0  0  0  0
 49 67  1  0  0  0  0
 50 54  1  0  0  0  0
 50 69  1  0  0  0  0
 51 73  1  0  0  0  0
 52 61  1  0  0  0  0
 53 68  1  0  0  0  0
 54 66  1  0  0  0  0
 55 63  1  0  0  0  0
 56 64  1  0  0  0  0
 57 64  1  0  0  0  0
 58 64  1  0  0  0  0
 59 75  1  0  0  0  0
 60 67  1  0  0  0  0
 61 83  1  0  0  0  0
 62 64  1  0  0  0  0
 62 74  1  0  0  0  0
 63 75  1  0  0  0  0
 65 66  1  0  0  0  0
M  CHG  1  75   1
M  ISO  4  39 100  61 101  72 100  83 101
M  END
> <Batch ID>
0104

> <Smiles>
CNC(C)C(=O)NC(C(=O)N1Cc2cc([101O:1][101CH2:1]C3CCN(Cc4cccc([100NH:0][100C:0](=O)N5CCCC(n6nc(-c7ccc(Oc8ccc(F)cc8F)cc7)c(C(N)=O)c6N)C5)c4)C3=O)ccc2CC1C(=O)NC1CCCc2ccccc21)C(C)(C)C

> <Shape>
0.230

> <Color>
0.077

> <Negative vol penalty>
0.000

$$$$

  -OEChem-04052301083D

 83 91  0     1  0  0  0  0  0999 V2000
  -27.7576  -36.0940   15.7647 C   0  0  0  0  0  0  0  0  0  0  0  0
  -28.0100  -34.7518   16.0294 C   0  0  0  0  0  0  0  0  0  0  0  0
  -23.0210   -9.8881   19.9541 C   0  0  0  0  0  0  0  0  0  0  0  0
  -23.8765   -9.8246   22.2126 C   0  0  0  0  0  0  0  0  0  0  0  0
  -29.3344  -16.9098   19.8127 C   0  0  0  0  0  0  0  0  0  0  0  0
  -28.9942  -17.5153   22.1267 C   0  0  0  0  0  0  0  0  0  0  0  0
  -27.3227  -36.9353   16.7880 C   0  0  0  0  0  0  0  0  0  0  0  0
  -27.8288  -34.2502   17.3178 C   0  0  0  0  0  0  0  0  0  0  0  0
  -25.8636  -28.6553   18.8479 C   0  0  0  0  0  0  0  0  0  0  0  0
  -22.2690   -8.7408   20.2066 C   0  0  0  0  0  0  0  0  0  0  0  0
  -23.1245   -8.6773   22.4652 C   0  0  0  0  0  0  0  0  0  0  0  0
  -28.6277  -18.0436   19.4120 C   0  0  0  0  0  0  0  0  0  0  0  0
  -28.2875  -18.6492   21.7261 C   0  0  0  0  0  0  0  0  0  0  0  0
  -26.5374  -27.4980   19.2357 C   0  0  0  0  0  0  0  0  0  0  0  0
  -19.9116   -7.9152   23.1840 C   0  0  0  0  0  0  0  0  0  0  0  0
  -19.2039   -7.8573   24.3846 C   0  0  0  0  0  0  0  0  0  0  0  0
  -26.1644  -28.0639   21.5508 C   0  0  0  0  0  0  0  0  0  0  0  0
  -20.4424   -5.8824   25.0194 C   0  0  0  0  0  0  0  0  0  0  0  0
  -23.8248  -10.4300   20.9571 C   0  0  0  0  0  0  0  0  0  0  0  0
  -29.5176  -16.6456   21.1700 C   0  0  0  0  0  0  0  0  0  0  0  0
  -24.2036  -12.9517   20.8854 C   0  0  0  0  0  0  0  0  0  0  0  0
  -27.1267  -36.4417   18.0874 C   0  0  0  0  0  0  0  0  0  0  0  0
  -25.3438  -29.5327   19.8104 C   0  0  0  0  0  0  0  0  0  0  0  0
  -27.3922  -35.0860   18.3597 C   0  0  0  0  0  0  0  0  0  0  0  0
  -25.4822  -29.2304   21.1726 C   0  0  0  0  0  0  0  0  0  0  0  0
  -22.3207   -8.1354   21.4622 C   0  0  0  0  0  0  0  0  0  0  0  0
  -28.1043  -18.9134   20.3687 C   0  0  0  0  0  0  0  0  0  0  0  0
  -26.6904  -27.2036   20.5874 C   0  0  0  0  0  0  0  0  0  0  0  0
  -20.8846   -6.9567   22.9011 C   0  0  0  0  0  0  0  0  0  0  0  0
  -19.4693   -6.8410   25.3023 C   0  0  0  0  0  0  0  0  0  0  0  0
  -21.1501   -5.9403   23.8188 C   0  0  0  0  0  0  0  0  0  0  0  0
  -24.6023  -11.6148   20.6966 C   0  0  0  0  0  0  0  0  0  0  0  0
  -25.2920  -13.6929   20.4949 C   0  0  0  0  0  0  0  0  0  0  0  0
  -30.2545  -15.4635   21.5879 C   0  0  0  0  0  0  0  0  0  0  0  0
  -22.9607  -13.4766   21.3705 C   0  0  0  0  0  0  0  0  0  0  0  0
  -30.8235  -14.5198   20.5985 C   0  0  0  0  0  0  0  0  0  0  0  0
  -25.8664  -32.5688   20.5932 C   0  0  0  0  0  0  0  0  0  0  0  0
  -23.3607  -32.0778   22.5939 C   0  0  0  0  0  0  0  0  0  0  0  0
  -21.4624  -29.8679   24.3714 C   0  0  0  0  0  0  0  0  0  0  0  0
  -26.7009  -37.3999   19.1714 C   0  0  0  0  0  0  0  0  0  0  0  0
  -24.5963  -30.7633   19.3754 C   0  0  0  0  0  0  0  0  0  0  0  0
  -24.9249  -30.1292   22.2450 C   0  0  0  0  0  0  0  0  0  0  0  0
  -26.1740  -36.7063   20.4250 C   0  0  0  0  0  0  0  0  0  0  0  0
  -29.5107  -12.3428   18.0698 C   0  0  0  0  0  0  0  0  0  0  0  0
  -27.1027  -35.5679   20.8355 C   0  0  0  0  0  0  0  0  0  0  0  0
  -28.0971  -12.0387   18.5648 C   0  0  0  0  0  0  0  0  0  0  0  0
  -30.4874  -12.4985   19.2309 C   0  0  0  0  0  0  0  0  0  0  0  0
  -28.6544  -13.2243   20.7349 C   0  0  0  0  0  0  0  0  0  0  0  0
  -27.1835  -34.4991   19.7389 C   0  0  1  0  0  0  0  0  0  0  0  0
  -24.5561  -31.8481   20.4473 C   0  0  1  0  0  0  0  0  0  0  0  0
  -27.6340  -13.0877   19.5915 C   0  0  2  0  0  0  0  0  0  0  0  0
  -19.5076  -29.7681   25.9418 C   0  0  0  0  0  0  0  0  0  0  0  0
  -25.1330  -33.0933   24.8606 C   0  0  0  0  0  0  0  0  0  0  0  0
  -23.5090  -32.0955   26.4839 C   0  0  0  0  0  0  0  0  0  0  0  0
  -22.7701  -33.9088   24.9384 C   0  0  0  0  0  0  0  0  0  0  0  0
  -19.8961  -28.1933   22.5001 C   0  0  0  0  0  0  0  0  0  0  0  0
  -27.3151  -22.4354   20.0221 C   0  0  0  0  0  0  0  0  0  0  0  0
  -27.3941  -23.6766   20.9041 C   0  0  0  0  0  0  0  0  0  0  0  0
  -27.4700  -21.1573   20.8358 C   0  0  0  0  0  0  0  0  0  0  0  0
  -27.2824  -24.9554   20.0863 C   0  0  0  0  0  0  0  0  0  1  0  0
  -23.2068  -31.5956   24.0162 C   0  0  1  0  0  0  0  0  0  0  0  0
  -19.9584  -29.7005   24.4910 C   0  0  2  0  0  0  0  0  0  0  0  0
  -23.6670  -32.6572   25.0548 C   0  0  0  0  0  0  0  0  0  0  0  0
  -25.8467  -11.5098   20.2228 N   0  0  0  0  0  0  0  0  0  0  0  0
  -30.4655  -15.1557   22.8392 N   0  0  0  0  0  0  0  0  0  0  0  0
  -26.2393  -12.7902   20.1106 N   0  0  0  0  0  0  0  0  0  0  0  0
  -30.0005  -13.4742   20.2041 N   0  0  0  0  0  0  0  0  0  0  0  0
  -24.2077  -31.3237   21.7694 N   0  0  0  0  0  0  0  0  0  0  0  0
  -25.5215  -15.0224   20.4461 N   0  0  0  0  0  0  0  0  0  0  0  0
  -21.9487  -12.5751   21.7277 N   0  0  0  0  0  0  0  0  0  0  0  0
  -26.0025  -33.6629   19.7602 N   0  0  0  0  0  0  0  0  0  0  0  0
  -21.8145  -31.1840   24.1593 N   0  0  0  0  0  0  0  0  0  0  0  0
  -19.5372  -28.3861   23.9288 N   0  3  0  0  0  0  0  0  0  0  0  0
  -22.7478  -14.7089   21.4684 O   0  0  0  0  0  0  0  0  0  0  0  0
  -31.9657  -14.7643   20.2328 O   0  0  0  0  0  0  0  0  0  0  0  0
  -26.6922  -32.1632   21.4027 O   0  0  0  0  0  0  0  0  0  0  0  0
  -22.7464  -33.0822   22.2260 O   0  0  0  0  0  0  0  0  0  0  0  0
  -22.2467  -28.9259   24.4613 O   0  0  0  0  0  0  0  0  0  0  0  0
  -21.5869   -7.0160   21.7091 O   0  0  0  0  0  0  0  0  0  0  0  0
  -27.4097  -20.0275   19.9754 O   0  0  0  0  0  0  0  0  0  0  0  0
  -27.3482  -26.0750   20.9686 O   0  0  0  0  0  0  0  0  0  1  0  0
  -18.7907   -6.7864   26.4559 F   0  0  0  0  0  0  0  0  0  0  0  0
  -22.0846   -5.0173   23.5531 F   0  0  0  0  0  0  0  0  0  0  0  0
  1  2  1  0  0  0  0
  1  7  2  0  0  0  0
  2  8  2  0  0  0  0
  3 10  2  0  0  0  0
  3 19  1  0  0  0  0
  4 11  1  0  0  0  0
  4 19  2  0  0  0  0
  5 12  2  0  0  0  0
  5 20  1  0  0  0  0
  6 13  1  0  0  0  0
  6 20  2  0  0  0  0
  7 22  1  0  0  0  0
  8 24  1  0  0  0  0
  9 14  2  0  0  0  0
  9 23  1  0  0  0  0
 10 26  1  0  0  0  0
 11 26  2  0  0  0  0
 12 27  1  0  0  0  0
 13 27  2  0  0  0  0
 14 28  1  0  0  0  0
 15 16  2  0  0  0  0
 15 29  1  0  0  0  0
 16 30  1  0  0  0  0
 17 25  1  0  0  0  0
 17 28  2  0  0  0  0
 18 30  2  0  0  0  0
 18 31  1  0  0  0  0
 19 32  1  0  0  0  0
 20 34  1  0  0  0  0
 21 32  1  0  0  0  0
 21 33  2  0  0  0  0
 21 35  1  0  0  0  0
 22 24  2  0  0  0  0
 22 40  1  0  0  0  0
 23 25  2  0  0  0  0
 23 41  1  0  0  0  0
 24 49  1  0  0  0  0
 25 42  1  0  0  0  0
 26 79  1  0  0  0  0
 27 80  1  0  0  0  0
 28 81  1  0  0  0  0
 29 31  2  0  0  0  0
 29 79  1  0  0  0  0
 30 82  1  0  0  0  0
 31 83  1  0  0  0  0
 32 64  2  0  0  0  0
 33 66  1  0  0  0  0
 33 69  1  0  0  0  0
 34 36  1  0  0  0  0
 34 65  2  0  0  0  0
 35 70  1  0  0  0  0
 35 74  2  0  0  0  0
 36 67  1  0  0  0  0
 36 75  2  0  0  0  0
 37 50  1  0  0  0  0
 37 71  1  0  0  0  0
 37 76  2  0  0  0  0
 38 61  1  0  0  0  0
 38 68  1  0  0  0  0
 38 77  2  0  0  0  0
 39 62  1  0  0  0  0
 39 72  1  0  0  0  0
 39 78  2  0  0  0  0
 40 43  1  0  0  0  0
 41 50  1  0  0  0  0
 42 68  1  0  0  0  0
 43 45  1  0  0  0  0
 44 46  1  0  0  0  0
 44 47  1  0  0  0  0
 45 49  1  0  0  0  0
 46 51  1  0  0  0  0
 47 67  1  0  0  0  0
 48 51  1  0  0  0  0
 48 67  1  0  0  0  0
 49 71  1  0  0  0  0
 50 68  1  0  0  0  0
 51 66  1  0  0  0  0
 52 62  1  0  0  0  0
 53 63  1  0  0  0  0
 54 63  1  0  0  0  0
 55 63  1  0  0  0  0
 56 73  1  0  0  0  0
 57 58  1  0  0  0  0
 57 59  1  0  0  0  0
 58 60  1  0  0  0  0
 59 80  1  0  0  0  0
 60 81  1  0  0  0  0
 61 63  1  0  0  0  0
 61 72  1  0  0  0  0
 62 73  1  0  0  0  0
 64 66  1  0  0  0  0
M  CHG  1  73   1
M  ISO  4  34 100  36 100  60 101  81 101
M  END
> <Batch ID>
0104

> <Smiles>
CNC(C)C(=O)NC(C(=O)N1Cc2cc([101O:1][101CH2:1]CCCOc3ccc([100C:0](=N)[100C:0](=O)N4CCCC(n5nc(-c6ccc(Oc7ccc(F)cc7F)cc6)c(C(N)=O)c5N)C4)cc3)ccc2CC1C(=O)NC1CCCc2ccccc21)C(C)(C)C

> <Shape>
0.332

> <Color>
0.240

> <Negative vol penalty>
0.000

$$$$

  -OEChem-04052301083D

 88 97  0     1  0  0  0  0  0999 V2000
  -27.8204  -36.5759   27.2074 C   0  0  0  0  0  0  0  0  0  0  0  0
  -27.7791  -35.1886   27.3023 C   0  0  0  0  0  0  0  0  0  0  0  0
  -23.1317   -9.9935   19.8455 C   0  0  0  0  0  0  0  0  0  0  0  0
  -24.4826   -9.4308   21.7678 C   0  0  0  0  0  0  0  0  0  0  0  0
  -26.8877  -37.2476   26.4183 C   0  0  0  0  0  0  0  0  0  0  0  0
  -26.8042  -34.4722   26.6090 C   0  0  0  0  0  0  0  0  0  0  0  0
  -28.6269  -29.4384   21.7893 C   0  0  0  0  0  0  0  0  0  0  0  0
  -30.4285  -19.4353   21.9565 C   0  0  0  0  0  0  0  0  0  0  0  0
  -30.2459  -20.5034   21.0782 C   0  0  0  0  0  0  0  0  0  0  0  0
  -22.5648   -8.7193   19.8708 C   0  0  0  0  0  0  0  0  0  0  0  0
  -23.9157   -8.1566   21.7932 C   0  0  0  0  0  0  0  0  0  0  0  0
  -28.8932  -28.3144   21.0071 C   0  0  0  0  0  0  0  0  0  0  0  0
  -21.0348   -6.7343   22.8412 C   0  0  0  0  0  0  0  0  0  0  0  0
  -20.6284   -6.2320   24.0773 C   0  0  0  0  0  0  0  0  0  0  0  0
  -26.5309  -28.0513   20.5616 C   0  0  0  0  0  0  0  0  0  0  0  0
  -27.8591  -20.3883   21.4343 C   0  0  0  0  0  0  0  0  0  0  0  0
  -22.1535   -4.3753   23.8243 C   0  0  0  0  0  0  0  0  0  0  0  0
  -24.0906  -10.3492   20.7939 C   0  0  0  0  0  0  0  0  0  0  0  0
  -24.0073  -12.8969   20.8943 C   0  0  0  0  0  0  0  0  0  0  0  0
  -25.9068  -36.5384   25.7073 C   0  0  0  0  0  0  0  0  0  0  0  0
  -27.3113  -29.8827   21.9482 C   0  0  0  0  0  0  0  0  0  0  0  0
  -25.8566  -35.1351   25.8107 C   0  0  0  0  0  0  0  0  0  0  0  0
  -26.2592  -29.1839   21.3338 C   0  0  0  0  0  0  0  0  0  0  0  0
  -29.3263  -18.8436   22.5737 C   0  0  0  0  0  0  0  0  0  0  0  0
  -28.0416  -19.3201   22.3126 C   0  0  0  0  0  0  0  0  0  0  0  0
  -28.9612  -20.9799   20.8171 C   0  0  0  0  0  0  0  0  0  0  0  0
  -22.9567   -7.8008   20.8447 C   0  0  0  0  0  0  0  0  0  0  0  0
  -27.8478  -27.6225   20.3950 C   0  0  0  0  0  0  0  0  0  0  0  0
  -22.0006   -6.0571   22.0965 C   0  0  0  0  0  0  0  0  0  0  0  0
  -21.1877   -5.0525   24.5689 C   0  0  0  0  0  0  0  0  0  0  0  0
  -22.5599   -4.8776   22.5881 C   0  0  0  0  0  0  0  0  0  0  0  0
  -24.6770  -11.6651   20.7679 C   0  0  0  0  0  0  0  0  0  0  0  0
  -25.0022  -13.8395   20.8047 C   0  0  0  0  0  0  0  0  0  0  0  0
  -27.7519  -24.1770   19.3239 C   0  0  0  0  0  0  0  0  0  0  0  0
  -28.1841  -23.2985   20.2611 C   0  0  0  0  0  0  0  0  0  0  0  0
  -27.8693  -23.7848   17.8792 C   0  0  0  0  0  0  0  0  0  0  0  0
  -22.6106  -13.1651   21.0765 C   0  0  0  0  0  0  0  0  0  0  0  0
  -24.9947  -32.4162   23.4617 C   0  0  0  0  0  0  0  0  0  0  0  0
  -23.9828  -31.8705   20.6176 C   0  0  0  0  0  0  0  0  0  0  0  0
  -22.5912  -32.0609   17.5089 C   0  0  0  0  0  0  0  0  0  0  0  0
  -30.0899  -15.6895   22.1605 C   0  0  0  0  0  0  0  0  0  0  0  0
  -24.8906  -37.3116   24.9048 C   0  0  0  0  0  0  0  0  0  0  0  0
  -26.9720  -31.0523   22.8318 C   0  0  0  0  0  0  0  0  0  0  0  0
  -24.8566  -29.6779   21.5609 C   0  0  0  0  0  0  0  0  0  0  0  0
  -28.3303  -22.3860   17.5471 C   0  0  0  0  0  0  0  0  0  0  0  0
  -24.1223  -36.4517   23.9045 C   0  0  0  0  0  0  0  0  0  0  0  0
  -29.8564  -13.3848   19.4567 C   0  0  0  0  0  0  0  0  0  0  0  0
  -23.6445  -35.1624   24.5651 C   0  0  0  0  0  0  0  0  0  0  0  0
  -28.4357  -12.8294   19.5712 C   0  0  0  0  0  0  0  0  0  0  0  0
  -29.3151  -21.8585   18.5757 C   0  0  0  0  0  0  0  0  0  0  0  0
  -30.4763  -13.6363   20.8295 C   0  0  0  0  0  0  0  0  0  0  0  0
  -28.2485  -13.9276   21.8422 C   0  0  0  0  0  0  0  0  0  0  0  0
  -24.8296  -34.3210   25.0540 C   0  0  1  0  0  0  0  0  0  0  0  0
  -25.7881  -31.8831   22.3051 C   0  0  1  0  0  0  0  0  0  0  0  0
  -27.5610  -13.7104   20.4834 C   0  0  2  0  0  0  0  0  0  0  0  0
  -26.8465  -18.7016   22.9605 C   0  0  0  0  0  0  0  0  0  0  0  0
  -28.1432  -23.6780   21.7287 C   0  0  0  0  0  0  0  0  0  0  0  0
  -20.4381  -32.6152   16.3452 C   0  0  0  0  0  0  0  0  0  0  0  0
  -22.8288  -29.1820   21.4802 C   0  0  0  0  0  0  0  0  0  0  0  0
  -21.1880  -29.3625   19.5978 C   0  0  0  0  0  0  0  0  0  0  0  0
  -21.1762  -31.0583   21.4272 C   0  0  0  0  0  0  0  0  0  0  0  0
  -23.8401  -34.2854   16.0086 C   0  0  0  0  0  0  0  0  0  0  0  0
  -29.5467  -17.7007   23.5093 C   0  0  0  0  0  0  0  0  0  0  0  0
  -27.1135  -25.5138   19.5754 C   0  0  0  0  0  0  0  0  0  1  0  0
  -23.0558  -31.0723   19.7363 C   0  0  1  0  0  0  0  0  0  0  0  0
  -21.7750  -33.1493   16.8353 C   0  0  2  0  0  0  0  0  0  0  0  0
  -22.0902  -30.1699   20.5553 C   0  0  0  0  0  0  0  0  0  0  0  0
  -25.9955  -11.8089   20.6099 N   0  0  0  0  0  0  0  0  0  0  0  0
  -26.1622  -13.1422   20.6363 N   0  0  0  0  0  0  0  0  0  0  0  0
  -28.7761  -22.0671   19.9244 N   0  0  0  0  0  0  0  0  0  0  0  0
  -24.8208  -31.1462   21.4742 N   0  0  0  0  0  0  0  0  0  0  0  0
  -29.5980  -14.4793   21.6443 N   0  0  0  0  0  0  0  0  0  0  0  0
  -24.9893  -15.1885   20.8542 N   0  0  0  0  0  0  0  0  0  0  0  0
  -22.1109  -13.2468   22.3834 N   0  0  0  0  0  0  0  0  0  0  0  0
  -25.4495  -33.6284   23.9447 N   0  0  0  0  0  0  0  0  0  0  0  0
  -22.3837  -32.0364   18.8718 N   0  0  0  0  0  0  0  0  0  0  0  0
  -29.1903  -16.4308   22.9167 N   0  0  0  0  0  0  0  0  0  0  0  0
  -22.5159  -33.7047   15.6676 N   0  3  0  0  0  0  0  0  0  0  0  0
  -27.5446  -24.5659   16.9852 O   0  0  0  0  0  0  0  0  0  0  0  0
  -21.8258  -13.3111   20.1089 O   0  0  0  0  0  0  0  0  0  0  0  0
  -24.0389  -31.7766   23.8848 O   0  0  0  0  0  0  0  0  0  0  0  0
  -23.9626  -33.1029   20.5546 O   0  0  0  0  0  0  0  0  0  0  0  0
  -23.3354  -31.3055   16.8876 O   0  0  0  0  0  0  0  0  0  0  0  0
  -31.2436  -16.0829   21.9577 O   0  0  0  0  0  0  0  0  0  0  0  0
  -22.4036   -6.5575   20.8698 O   0  0  0  0  0  0  0  0  0  0  0  0
  -28.1153  -26.5286   19.6291 O   0  0  0  0  0  0  0  0  0  1  0  0
  -20.7984   -4.5711   25.7567 F   0  0  0  0  0  0  0  0  0  0  0  0
  -23.4889   -4.2232   21.8779 F   0  0  0  0  0  0  0  0  0  0  0  0
  1  2  1  0  0  0  0
  1  5  2  0  0  0  0
  2  6  2  0  0  0  0
  3 10  2  0  0  0  0
  3 18  1  0  0  0  0
  4 11  1  0  0  0  0
  4 18  2  0  0  0  0
  5 20  1  0  0  0  0
  6 22  1  0  0  0  0
  7 12  2  0  0  0  0
  7 21  1  0  0  0  0
  8  9  2  0  0  0  0
  8 24  1  0  0  0  0
  9 26  1  0  0  0  0
 10 27  1  0  0  0  0
 11 27  2  0  0  0  0
 12 28  1  0  0  0  0
 13 14  2  0  0  0  0
 13 29  1  0  0  0  0
 14 30  1  0  0  0  0
 15 23  1  0  0  0  0
 15 28  2  0  0  0  0
 16 25  1  0  0  0  0
 16 26  2  0  0  0  0
 17 30  2  0  0  0  0
 17 31  1  0  0  0  0
 18 32  1  0  0  0  0
 19 32  1  0  0  0  0
 19 33  2  0  0  0  0
 19 37  1  0  0  0  0
 20 22  2  0  0  0  0
 20 42  1  0  0  0  0
 21 23  2  0  0  0  0
 21 43  1  0  0  0  0
 22 53  1  0  0  0  0
 23 44  1  0  0  0  0
 24 25  2  0  0  0  0
 24 63  1  0  0  0  0
 25 56  1  0  0  0  0
 26 70  1  0  0  0  0
 27 85  1  0  0  0  0
 28 86  1  0  0  0  0
 29 31  2  0  0  0  0
 29 85  1  0  0  0  0
 30 87  1  0  0  0  0
 31 88  1  0  0  0  0
 32 68  2  0  0  0  0
 33 69  1  0  0  0  0
 33 73  1  0  0  0  0
 34 35  2  0  0  0  0
 34 36  1  0  0  0  0
 34 64  1  0  0  0  0
 35 57  1  0  0  0  0
 35 70  1  0  0  0  0
 36 45  1  0  0  0  0
 36 79  2  0  0  0  0
 37 74  1  0  0  0  0
 37 80  2  0  0  0  0
 38 54  1  0  0  0  0
 38 75  1  0  0  0  0
 38 81  2  0  0  0  0
 39 65  1  0  0  0  0
 39 71  1  0  0  0  0
 39 82  2  0  0  0  0
 40 66  1  0  0  0  0
 40 76  1  0  0  0  0
 40 83  2  0  0  0  0
 41 72  1  0  0  0  0
 41 77  1  0  0  0  0
 41 84  2  0  0  0  0
 42 46  1  0  0  0  0
 43 54  1  0  0  0  0
 44 71  1  0  0  0  0
 45 50  1  0  0  0  0
 46 48  1  0  0  0  0
 47 49  1  0  0  0  0
 47 51  1  0  0  0  0
 48 53  1  0  0  0  0
 49 55  1  0  0  0  0
 50 70  1  0  0  0  0
 51 72  1  0  0  0  0
 52 55  1  0  0  0  0
 52 72  1  0  0  0  0
 53 75  1  0  0  0  0
 54 71  1  0  0  0  0
 55 69  1  0  0  0  0
 58 66  1  0  0  0  0
 59 67  1  0  0  0  0
 60 67  1  0  0  0  0
 61 67  1  0  0  0  0
 62 78  1  0  0  0  0
 63 77  1  0  0  0  0
 64 86  1  0  0  0  0
 65 67  1  0  0  0  0
 65 76  1  0  0  0  0
 66 78  1  0  0  0  0
 68 69  1  0  0  0  0
M  CHG  1  78   1
M  ISO  4  41 100  64 101  77 100  86 101
M  END
> <Batch ID>
0104

> <Smiles>
CNC(C)C(=O)NC(C(=O)N1Cc2cc([101O:1][101CH2:1]C3=C(C)N(c4ccc(C[100NH:0][100C:0](=O)N5CCCC(n6nc(-c7ccc(Oc8ccc(F)cc8F)cc7)c(C(N)=O)c6N)C5)c(C)c4)CCC3=O)ccc2CC1C(=O)NC1CCCc2ccccc21)C(C)(C)C

> <Shape>
0.367

> <Color>
0.182

> <Negative vol penalty>
0.000

$$$$

  -OEChem-04052301083D

 86 94  0     1  0  0  0  0  0999 V2000
  -37.4416  -21.1948   23.6148 C   0  0  0  0  0  0  0  0  0  0  0  0
  -36.4712  -20.8493   24.5486 C   0  0  0  0  0  0  0  0  0  0  0  0
  -23.0725   -9.8699   19.9431 C   0  0  0  0  0  0  0  0  0  0  0  0
  -23.8350   -9.8781   22.2356 C   0  0  0  0  0  0  0  0  0  0  0  0
  -38.7369  -20.6986   23.7453 C   0  0  0  0  0  0  0  0  0  0  0  0
  -36.7987  -20.0172   25.6196 C   0  0  0  0  0  0  0  0  0  0  0  0
  -33.3561  -19.3581   29.0718 C   0  0  0  0  0  0  0  0  0  0  0  0
  -22.3291   -8.7167   20.1944 C   0  0  0  0  0  0  0  0  0  0  0  0
  -23.0916   -8.7249   22.4870 C   0  0  0  0  0  0  0  0  0  0  0  0
  -32.2091  -18.5955   28.8565 C   0  0  0  0  0  0  0  0  0  0  0  0
  -19.3828   -7.9201   21.6495 C   0  0  0  0  0  0  0  0  0  0  0  0
  -18.0753   -7.8733   21.1657 C   0  0  0  0  0  0  0  0  0  0  0  0
  -33.1736  -16.7939   30.1383 C   0  0  0  0  0  0  0  0  0  0  0  0
  -33.5553  -17.2203   24.4877 C   0  0  0  0  0  0  0  0  0  0  0  0
  -31.1600  -15.8381   24.1203 C   0  0  0  0  0  0  0  0  0  0  0  0
  -18.6340   -5.9297   19.8438 C   0  0  0  0  0  0  0  0  0  0  0  0
  -23.8254  -10.4506   20.9636 C   0  0  0  0  0  0  0  0  0  0  0  0
  -24.1665  -12.9757   20.8420 C   0  0  0  0  0  0  0  0  0  0  0  0
  -39.0765  -19.8499   24.8118 C   0  0  0  0  0  0  0  0  0  0  0  0
  -34.4268  -18.8394   29.8141 C   0  0  0  0  0  0  0  0  0  0  0  0
  -38.1065  -19.5254   25.7819 C   0  0  0  0  0  0  0  0  0  0  0  0
  -34.3321  -17.5530   30.3638 C   0  0  0  0  0  0  0  0  0  0  0  0
  -32.8152  -17.4056   23.3200 C   0  0  0  0  0  0  0  0  0  0  0  0
  -31.6176  -16.7146   23.1363 C   0  0  0  0  0  0  0  0  0  0  0  0
  -22.3387   -8.1442   21.4664 C   0  0  0  0  0  0  0  0  0  0  0  0
  -32.1188  -17.3120   29.3873 C   0  0  0  0  0  0  0  0  0  0  0  0
  -20.3159   -6.9717   21.2303 C   0  0  0  0  0  0  0  0  0  0  0  0
  -33.0978  -16.3439   25.4717 C   0  0  0  0  0  0  0  0  0  0  0  0
  -31.9002  -15.6528   25.2880 C   0  0  0  0  0  0  0  0  0  0  0  0
  -17.7009   -6.8781   20.2629 C   0  0  0  0  0  0  0  0  0  0  0  0
  -19.9414   -5.9766   20.3275 C   0  0  0  0  0  0  0  0  0  0  0  0
  -24.5939  -11.6415   20.7044 C   0  0  0  0  0  0  0  0  0  0  0  0
  -25.2581  -13.7253   20.4771 C   0  0  0  0  0  0  0  0  0  0  0  0
  -22.8964  -13.4915   21.2621 C   0  0  0  0  0  0  0  0  0  0  0  0
  -37.4738  -18.1789   29.1951 C   0  0  0  0  0  0  0  0  0  0  0  0
  -37.5829  -17.5670   32.3788 C   0  0  0  0  0  0  0  0  0  0  0  0
  -35.9039  -16.7090   35.2233 C   0  0  0  0  0  0  0  0  0  0  0  0
  -30.7418  -14.7457   20.6587 C   0  0  0  0  0  0  0  0  0  0  0  0
  -40.4955  -19.3478   24.9091 C   0  0  0  0  0  0  0  0  0  0  0  0
  -35.6462  -19.6849   30.0599 C   0  0  0  0  0  0  0  0  0  0  0  0
  -35.4454  -16.9576   31.1851 C   0  0  0  0  0  0  0  0  0  0  0  0
  -40.6339  -18.1286   25.8151 C   0  0  0  0  0  0  0  0  0  0  0  0
  -29.6020  -12.3598   18.2744 C   0  0  0  0  0  0  0  0  0  0  0  0
  -39.9374  -18.3861   27.1430 C   0  0  0  0  0  0  0  0  0  0  0  0
  -28.1652  -12.0659   18.7091 C   0  0  0  0  0  0  0  0  0  0  0  0
  -30.5205  -12.5814   19.4741 C   0  0  0  0  0  0  0  0  0  0  0  0
  -28.6202  -13.3127   20.8625 C   0  0  0  0  0  0  0  0  0  0  0  0
  -38.4320  -18.5971   26.9381 C   0  0  1  0  0  0  0  0  0  0  0  0
  -36.8858  -18.8620   30.3973 C   0  0  1  0  0  0  0  0  0  0  0  0
  -27.6447  -13.1373   19.6861 C   0  0  2  0  0  0  0  0  0  0  0  0
  -33.3243  -18.3500   22.2813 C   0  0  0  0  0  0  0  0  0  0  0  0
  -29.7877  -18.0370   22.0119 C   0  0  0  0  0  0  0  0  0  0  0  0
  -36.2685  -16.2487   37.6631 C   0  0  0  0  0  0  0  0  0  0  0  0
  -38.7478  -14.8333   31.6865 C   0  0  0  0  0  0  0  0  0  0  0  0
  -38.2038  -14.0894   34.0143 C   0  0  0  0  0  0  0  0  0  0  0  0
  -39.8172  -15.9564   33.6485 C   0  0  0  0  0  0  0  0  0  0  0  0
  -34.1329  -18.9395   36.0277 C   0  0  0  0  0  0  0  0  0  0  0  0
  -34.8119  -15.1377   26.5954 C   0  0  0  0  0  0  0  0  0  0  0  0
  -30.1017  -14.5350   28.2337 C   0  0  0  0  0  0  0  0  0  0  0  0
  -31.1652  -15.1485   29.1309 C   0  0  0  0  0  0  0  0  0  1  0  0
  -30.1700  -15.0801   26.8158 C   0  0  0  0  0  0  0  0  0  0  0  0
  -30.8086  -16.8969   21.8944 C   0  0  2  0  0  0  0  0  0  0  0  0
  -37.3531  -16.3501   33.2421 C   0  0  1  0  0  0  0  0  0  0  0  0
  -35.9221  -17.3008   36.6211 C   0  0  2  0  0  0  0  0  0  0  0  0
  -38.5101  -15.3175   33.1308 C   0  0  0  0  0  0  0  0  0  0  0  0
  -25.8583  -11.5458   20.2847 N   0  0  0  0  0  0  0  0  0  0  0  0
  -26.2348  -12.8294   20.1554 N   0  0  0  0  0  0  0  0  0  0  0  0
  -36.6196  -17.8212   31.3922 N   0  0  0  0  0  0  0  0  0  0  0  0
  -29.9707  -13.6102   20.3602 N   0  0  0  0  0  0  0  0  0  0  0  0
  -25.4681  -15.0568   20.4032 N   0  0  0  0  0  0  0  0  0  0  0  0
  -21.8851  -12.5822   21.6010 N   0  0  0  0  0  0  0  0  0  0  0  0
  -37.8442  -19.0428   28.1822 N   0  0  0  0  0  0  0  0  0  0  0  0
  -37.1233  -16.8465   34.5945 N   0  0  0  0  0  0  0  0  0  0  0  0
  -30.1434  -15.6748   21.5009 N   0  0  0  0  0  0  0  0  0  0  0  0
  -34.5886  -17.8747   36.9580 N   0  3  0  0  0  0  0  0  0  0  0  0
  -22.6599  -14.7221   21.3191 O   0  0  0  0  0  0  0  0  0  0  0  0
  -37.5847  -16.9585   29.1877 O   0  0  0  0  0  0  0  0  0  0  0  0
  -38.5766  -18.2704   32.5774 O   0  0  0  0  0  0  0  0  0  0  0  0
  -34.9086  -16.1745   34.7392 O   0  0  0  0  0  0  0  0  0  0  0  0
  -31.8772  -14.9212   20.2037 O   0  0  0  0  0  0  0  0  0  0  0  0
  -21.6133   -7.0191   21.7121 O   0  0  0  0  0  0  0  0  0  0  0  0
  -33.8296  -16.1717   26.6076 O   0  0  0  0  0  0  0  0  0  0  0  0
  -31.0006  -16.5652   29.1781 O   0  0  0  0  0  0  0  0  0  1  0  0
  -31.4399  -14.7894   26.2478 O   0  0  0  0  0  0  0  0  0  0  0  0
  -16.4449   -6.8324   19.7997 F   0  0  0  0  0  0  0  0  0  0  0  0
  -20.8331   -5.0620   19.9221 F   0  0  0  0  0  0  0  0  0  0  0  0
  1  2  1  0  0  0  0
  1  5  2  0  0  0  0
  2  6  2  0  0  0  0
  3  8  2  0  0  0  0
  3 17  1  0  0  0  0
  4  9  1  0  0  0  0
  4 17  2  0  0  0  0
  5 19  1  0  0  0  0
  6 21  1  0  0  0  0
  7 10  2  0  0  0  0
  7 20  1  0  0  0  0
  8 25  1  0  0  0  0
  9 25  2  0  0  0  0
 10 26  1  0  0  0  0
 11 12  2  0  0  0  0
 11 27  1  0  0  0  0
 12 30  1  0  0  0  0
 13 22  1  0  0  0  0
 13 26  2  0  0  0  0
 14 23  2  0  0  0  0
 14 28  1  0  0  0  0
 15 24  2  0  0  0  0
 15 29  1  0  0  0  0
 16 30  2  0  0  0  0
 16 31  1  0  0  0  0
 17 32  1  0  0  0  0
 18 32  1  0  0  0  0
 18 33  2  0  0  0  0
 18 34  1  0  0  0  0
 19 21  2  0  0  0  0
 19 39  1  0  0  0  0
 20 22  2  0  0  0  0
 20 40  1  0  0  0  0
 21 48  1  0  0  0  0
 22 41  1  0  0  0  0
 23 24  1  0  0  0  0
 23 51  1  0  0  0  0
 24 62  1  0  0  0  0
 25 81  1  0  0  0  0
 26 83  1  0  0  0  0
 27 31  2  0  0  0  0
 27 81  1  0  0  0  0
 28 29  2  0  0  0  0
 28 82  1  0  0  0  0
 29 84  1  0  0  0  0
 30 85  1  0  0  0  0
 31 86  1  0  0  0  0
 32 66  2  0  0  0  0
 33 67  1  0  0  0  0
 33 70  1  0  0  0  0
 34 71  1  0  0  0  0
 34 76  2  0  0  0  0
 35 49  1  0  0  0  0
 35 72  1  0  0  0  0
 35 77  2  0  0  0  0
 36 63  1  0  0  0  0
 36 68  1  0  0  0  0
 36 78  2  0  0  0  0
 37 64  1  0  0  0  0
 37 73  1  0  0  0  0
 37 79  2  0  0  0  0
 38 69  1  0  0  0  0
 38 74  1  0  0  0  0
 38 80  2  0  0  0  0
 39 42  1  0  0  0  0
 40 49  1  0  0  0  0
 41 68  1  0  0  0  0
 42 44  1  0  0  0  0
 43 45  1  0  0  0  0
 43 46  1  0  0  0  0
 44 48  1  0  0  0  0
 45 50  1  0  0  0  0
 46 69  1  0  0  0  0
 47 50  1  0  0  0  0
 47 69  1  0  0  0  0
 48 72  1  0  0  0  0
 49 68  1  0  0  0  0
 50 67  1  0  0  0  0
 52 62  1  0  0  0  0
 53 64  1  0  0  0  0
 54 65  1  0  0  0  0
 55 65  1  0  0  0  0
 56 65  1  0  0  0  0
 57 75  1  0  0  0  0
 58 82  1  0  0  0  0
 59 60  1  0  0  0  0
 59 61  1  0  0  0  0
 60 83  1  0  0  0  0
 61 84  1  0  0  0  0
 62 74  1  0  0  0  0
 63 65  1  0  0  0  0
 63 73  1  0  0  0  0
 64 75  1  0  0  0  0
 66 67  1  0  0  0  0
M  CHG  1  75   1
M  ISO  4  38 100  60 101  74 100  83 101
M  END
> <Batch ID>
0104

> <Smiles>
CNC(C)C(=O)NC(C(=O)N1Cc2cc([101O:1][101CH2:1]CCOc3cc(C(C)[100NH:0][100C:0](=O)N4CCCC(n5nc(-c6ccc(Oc7ccc(F)cc7F)cc6)c(C(N)=O)c5N)C4)c(C)cc3OC)ccc2CC1C(=O)NC1CCCc2ccccc21)C(C)(C)C

> <Shape>
0.149

> <Color>
0.191

> <Negative vol penalty>
0.000

$$$$

  -OEChem-04052301083D

 86 95  0     1  0  0  0  0  0999 V2000
  -30.6966  -24.8611   17.7403 C   0  0  0  0  0  0  0  0  0  0  0  0
  -29.3064  -24.8460   17.7901 C   0  0  0  0  0  0  0  0  0  0  0  0
  -27.6063  -16.1093   18.6326 C   0  0  0  0  0  0  0  0  0  0  0  0
  -27.1421  -16.7579   20.9131 C   0  0  0  0  0  0  0  0  0  0  0  0
  -31.4253  -25.3963   18.8017 C   0  0  0  0  0  0  0  0  0  0  0  0
  -28.6440  -25.3652   18.9019 C   0  0  0  0  0  0  0  0  0  0  0  0
  -23.2773  -28.3150   18.9443 C   0  0  0  0  0  0  0  0  0  0  0  0
  -17.4578  -20.4042   21.9487 C   0  0  0  0  0  0  0  0  0  0  0  0
  -17.4344  -21.7951   22.0506 C   0  0  0  0  0  0  0  0  0  0  0  0
  -28.8177  -16.7988   18.6830 C   0  0  0  0  0  0  0  0  0  0  0  0
  -28.3536  -17.4474   20.9636 C   0  0  0  0  0  0  0  0  0  0  0  0
  -21.9784  -27.8953   19.2282 C   0  0  0  0  0  0  0  0  0  0  0  0
  -31.1566  -19.6788   21.5750 C   0  0  0  0  0  0  0  0  0  0  0  0
  -31.1533  -20.9550   22.1380 C   0  0  0  0  0  0  0  0  0  0  0  0
  -22.2243  -28.6861   21.4938 C   0  0  0  0  0  0  0  0  0  0  0  0
  -19.8012  -20.4005   22.5364 C   0  0  0  0  0  0  0  0  0  0  0  0
  -29.5761  -21.6902   20.4620 C   0  0  0  0  0  0  0  0  0  0  0  0
  -26.7685  -16.0888   19.7476 C   0  0  0  0  0  0  0  0  0  0  0  0
  -25.2905  -14.0293   20.0335 C   0  0  0  0  0  0  0  0  0  0  0  0
  -30.7713  -25.9311   19.9228 C   0  0  0  0  0  0  0  0  0  0  0  0
  -24.0646  -28.9147   19.9378 C   0  0  0  0  0  0  0  0  0  0  0  0
  -29.3647  -25.9068   19.9799 C   0  0  0  0  0  0  0  0  0  0  0  0
  -23.5320  -29.1150   21.2194 C   0  0  0  0  0  0  0  0  0  0  0  0
  -18.6412  -19.7068   22.1917 C   0  0  0  0  0  0  0  0  0  0  0  0
  -19.7778  -21.7914   22.6382 C   0  0  0  0  0  0  0  0  0  0  0  0
  -18.5944  -22.4887   22.3953 C   0  0  0  0  0  0  0  0  0  0  0  0
  -29.1914  -17.4679   19.8485 C   0  0  0  0  0  0  0  0  0  0  0  0
  -21.4528  -28.0782   20.5038 C   0  0  0  0  0  0  0  0  0  0  0  0
  -30.3698  -19.4083   20.4554 C   0  0  0  0  0  0  0  0  0  0  0  0
  -30.3630  -21.9607   21.5815 C   0  0  0  0  0  0  0  0  0  0  0  0
  -29.5795  -20.4140   19.8989 C   0  0  0  0  0  0  0  0  0  0  0  0
  -25.5167  -15.3772   19.6960 C   0  0  0  0  0  0  0  0  0  0  0  0
  -23.9477  -13.8412   19.8146 C   0  0  0  0  0  0  0  0  0  0  0  0
  -19.3096  -24.8323   21.7433 C   0  0  0  0  0  0  0  0  0  0  0  0
  -26.2118  -13.0362   20.5030 C   0  0  0  0  0  0  0  0  0  0  0  0
  -26.8110  -28.1902   21.3648 C   0  0  0  0  0  0  0  0  0  0  0  0
  -26.4279  -31.1120   22.7207 C   0  0  0  0  0  0  0  0  0  0  0  0
  -24.3068  -33.6177   23.6531 C   0  0  0  0  0  0  0  0  0  0  0  0
  -19.2635  -17.5704   19.7606 C   0  0  0  0  0  0  0  0  0  0  0  0
  -31.6027  -26.4558   21.0665 C   0  0  0  0  0  0  0  0  0  0  0  0
  -25.4544  -29.3862   19.6083 C   0  0  0  0  0  0  0  0  0  0  0  0
  -24.3289  -29.7719   22.3156 C   0  0  0  0  0  0  0  0  0  0  0  0
  -30.8155  -27.3264   22.0425 C   0  0  0  0  0  0  0  0  0  0  0  0
  -20.3337  -15.4390   17.1170 C   0  0  0  0  0  0  0  0  0  0  0  0
  -29.4897  -26.6625   22.4004 C   0  0  0  0  0  0  0  0  0  0  0  0
  -21.7629  -15.0599   17.5087 C   0  0  0  0  0  0  0  0  0  0  0  0
  -18.1800  -26.0040   23.4798 C   0  0  0  0  0  0  0  0  0  0  0  0
  -20.0070  -16.8806   17.5006 C   0  0  0  0  0  0  0  0  0  0  0  0
  -17.6317  -24.5941   23.3870 C   0  0  0  0  0  0  0  0  0  0  0  0
  -21.6828  -16.8369   19.3071 C   0  0  0  0  0  0  0  0  0  0  0  0
  -28.6093  -26.4831   21.1578 C   0  0  1  0  0  0  0  0  0  0  0  0
  -18.8127  -26.2206   22.1129 C   0  0  1  0  0  0  0  0  0  0  0  0
  -26.3476  -29.5188   20.8379 C   0  0  1  0  0  0  0  0  0  0  0  0
  -22.0404  -15.3746   18.9910 C   0  0  2  0  0  0  0  0  0  0  0  0
  -21.0362  -22.5087   23.0063 C   0  0  0  0  0  0  0  0  0  0  0  0
  -24.2822  -35.8629   24.7736 C   0  0  0  0  0  0  0  0  0  0  0  0
  -26.7669  -29.7588   25.4343 C   0  0  0  0  0  0  0  0  0  0  0  0
  -25.8054  -31.8104   26.4995 C   0  0  0  0  0  0  0  0  0  0  0  0
  -27.9368  -31.9580   25.2118 C   0  0  0  0  0  0  0  0  0  0  0  0
  -23.2297  -34.9417   21.2353 C   0  0  0  0  0  0  0  0  0  0  0  0
  -18.6666  -18.2197   22.0804 C   0  0  0  0  0  0  0  0  0  0  0  0
  -19.9155  -27.2625   22.1248 C   0  0  0  0  0  0  0  0  0  1  0  0
  -25.7587  -31.6313   23.9703 C   0  0  1  0  0  0  0  0  0  0  0  0
  -24.3719  -35.1206   23.4494 C   0  0  2  0  0  0  0  0  0  0  0  0
  -26.5523  -31.2754   25.2591 C   0  0  0  0  0  0  0  0  0  0  0  0
  -24.4065  -16.0011   19.2931 N   0  0  0  0  0  0  0  0  0  0  0  0
  -23.4698  -15.0410   19.3760 N   0  0  0  0  0  0  0  0  0  0  0  0
  -18.5498  -23.9118   22.4943 N   0  0  0  0  0  0  0  0  0  0  0  0
  -25.6850  -30.2100   21.9459 N   0  0  0  0  0  0  0  0  0  0  0  0
  -20.2907  -17.1129   18.9188 N   0  0  0  0  0  0  0  0  0  0  0  0
  -23.1409  -12.7682   19.9563 N   0  0  0  0  0  0  0  0  0  0  0  0
  -27.5552  -13.3981   20.6727 N   0  0  0  0  0  0  0  0  0  0  0  0
  -27.9857  -27.7377   20.7949 N   0  0  0  0  0  0  0  0  0  0  0  0
  -25.5640  -33.0624   23.7645 N   0  0  0  0  0  0  0  0  0  0  0  0
  -19.6155  -17.7586   21.0916 N   0  0  0  0  0  0  0  0  0  0  0  0
  -23.2503  -35.5744   22.5793 N   0  3  0  0  0  0  0  0  0  0  0  0
  -20.1675  -24.6319   20.8958 O   0  0  0  0  0  0  0  0  0  0  0  0
  -25.8576  -11.8582   20.7487 O   0  0  0  0  0  0  0  0  0  0  0  0
  -26.1524  -27.6186   22.2257 O   0  0  0  0  0  0  0  0  0  0  0  0
  -27.5649  -31.4982   22.4385 O   0  0  0  0  0  0  0  0  0  0  0  0
  -23.2466  -32.9987   23.7117 O   0  0  0  0  0  0  0  0  0  0  0  0
  -18.1163  -17.7895   19.3572 O   0  0  0  0  0  0  0  0  0  0  0  0
  -30.3736  -18.1406   19.8981 O   0  0  0  0  0  0  0  0  0  0  0  0
  -20.1855  -27.6688   20.7837 O   0  0  0  0  0  0  0  0  0  1  0  0
  -30.3587  -23.1857   22.1232 F   0  0  0  0  0  0  0  0  0  0  0  0
  -28.8205  -20.1599   18.8241 F   0  0  0  0  0  0  0  0  0  0  0  0
  1  2  1  0  0  0  0
  1  5  2  0  0  0  0
  2  6  2  0  0  0  0
  3 10  2  0  0  0  0
  3 18  1  0  0  0  0
  4 11  1  0  0  0  0
  4 18  2  0  0  0  0
  5 20  1  0  0  0  0
  6 22  1  0  0  0  0
  7 12  2  0  0  0  0
  7 21  1  0  0  0  0
  8  9  2  0  0  0  0
  8 24  1  0  0  0  0
  9 26  1  0  0  0  0
 10 27  1  0  0  0  0
 11 27  2  0  0  0  0
 12 28  1  0  0  0  0
 13 14  2  0  0  0  0
 13 29  1  0  0  0  0
 14 30  1  0  0  0  0
 15 23  1  0  0  0  0
 15 28  2  0  0  0  0
 16 24  2  0  0  0  0
 16 25  1  0  0  0  0
 17 30  2  0  0  0  0
 17 31  1  0  0  0  0
 18 32  1  0  0  0  0
 19 32  1  0  0  0  0
 19 33  2  0  0  0  0
 19 35  1  0  0  0  0
 20 22  2  0  0  0  0
 20 40  1  0  0  0  0
 21 23  2  0  0  0  0
 21 41  1  0  0  0  0
 22 51  1  0  0  0  0
 23 42  1  0  0  0  0
 24 61  1  0  0  0  0
 25 26  2  0  0  0  0
 25 55  1  0  0  0  0
 26 68  1  0  0  0  0
 27 83  1  0  0  0  0
 28 84  1  0  0  0  0
 29 31  2  0  0  0  0
 29 83  1  0  0  0  0
 30 85  1  0  0  0  0
 31 86  1  0  0  0  0
 32 66  2  0  0  0  0
 33 67  1  0  0  0  0
 33 71  1  0  0  0  0
 34 52  1  0  0  0  0
 34 68  1  0  0  0  0
 34 77  2  0  0  0  0
 35 72  1  0  0  0  0
 35 78  2  0  0  0  0
 36 53  1  0  0  0  0
 36 73  1  0  0  0  0
 36 79  2  0  0  0  0
 37 63  1  0  0  0  0
 37 69  1  0  0  0  0
 37 80  2  0  0  0  0
 38 64  1  0  0  0  0
 38 74  1  0  0  0  0
 38 81  2  0  0  0  0
 39 70  1  0  0  0  0
 39 75  1  0  0  0  0
 39 82  2  0  0  0  0
 40 43  1  0  0  0  0
 41 53  1  0  0  0  0
 42 69  1  0  0  0  0
 43 45  1  0  0  0  0
 44 46  1  0  0  0  0
 44 48  1  0  0  0  0
 45 51  1  0  0  0  0
 46 54  1  0  0  0  0
 47 49  1  0  0  0  0
 47 52  1  0  0  0  0
 48 70  1  0  0  0  0
 49 68  1  0  0  0  0
 50 54  1  0  0  0  0
 50 70  1  0  0  0  0
 51 73  1  0  0  0  0
 52 62  1  0  0  0  0
 53 69  1  0  0  0  0
 54 67  1  0  0  0  0
 56 64  1  0  0  0  0
 57 65  1  0  0  0  0
 58 65  1  0  0  0  0
 59 65  1  0  0  0  0
 60 76  1  0  0  0  0
 61 75  1  0  0  0  0
 62 84  1  0  0  0  0
 63 65  1  0  0  0  0
 63 74  1  0  0  0  0
 64 76  1  0  0  0  0
 66 67  1  0  0  0  0
M  CHG  1  76   1
M  ISO  4  39 100  62 101  75 100  84 101
M  END
> <Batch ID>
0104

> <Smiles>
CNC(C)C(=O)NC(C(=O)N1Cc2cc([101O:1][101CH2:1]C3CCN(c4ccc(C[100NH:0][100C:0](=O)N5CCCC(n6nc(-c7ccc(Oc8ccc(F)cc8F)cc7)c(C(N)=O)c6N)C5)cc4C)C3=O)ccc2CC1C(=O)NC1CCCc2ccccc21)C(C)(C)C

> <Shape>
0.293

> <Color>
0.082

> <Negative vol penalty>
0.000

$$$$

  -OEChem-04052301083D

 87 95  0     1  0  0  0  0  0999 V2000
  -25.7987  -36.8676   16.5417 C   0  0  0  0  0  0  0  0  0  0  0  0
  -26.2201  -35.5426   16.4948 C   0  0  0  0  0  0  0  0  0  0  0  0
  -24.1689  -11.1697   23.8535 C   0  0  0  0  0  0  0  0  0  0  0  0
  -23.8888  -13.5682   23.7793 C   0  0  0  0  0  0  0  0  0  0  0  0
  -25.6721  -37.5146   17.7702 C   0  0  0  0  0  0  0  0  0  0  0  0
  -26.5161  -34.8641   17.6765 C   0  0  0  0  0  0  0  0  0  0  0  0
  -25.5791  -28.9260   18.8457 C   0  0  0  0  0  0  0  0  0  0  0  0
  -30.9348  -18.2633   23.9175 C   0  0  0  0  0  0  0  0  0  0  0  0
  -23.6556  -11.1497   25.1503 C   0  0  0  0  0  0  0  0  0  0  0  0
  -23.3755  -13.5483   25.0762 C   0  0  0  0  0  0  0  0  0  0  0  0
  -26.4243  -27.8179   18.8083 C   0  0  0  0  0  0  0  0  0  0  0  0
  -30.1142  -19.3909   23.9470 C   0  0  0  0  0  0  0  0  0  0  0  0
  -20.6185  -11.2920   26.6297 C   0  0  0  0  0  0  0  0  0  0  0  0
  -19.6740  -10.3131   26.9380 C   0  0  0  0  0  0  0  0  0  0  0  0
  -26.8072  -28.0376   21.1799 C   0  0  0  0  0  0  0  0  0  0  0  0
  -29.6909  -19.1447   21.5811 C   0  0  0  0  0  0  0  0  0  0  0  0
  -21.1350   -9.4442   28.6548 C   0  0  0  0  0  0  0  0  0  0  0  0
  -24.2855  -12.3789   23.1680 C   0  0  0  0  0  0  0  0  0  0  0  0
  -24.0942  -12.2789   20.6261 C   0  0  0  0  0  0  0  0  0  0  0  0
  -25.9574  -36.8407   18.9682 C   0  0  0  0  0  0  0  0  0  0  0  0
  -25.3497  -29.6060   20.0504 C   0  0  0  0  0  0  0  0  0  0  0  0
  -26.3944  -35.5030   18.9221 C   0  0  0  0  0  0  0  0  0  0  0  0
  -25.9566  -29.1525   21.2303 C   0  0  0  0  0  0  0  0  0  0  0  0
  -31.1335  -17.5765   22.7198 C   0  0  0  0  0  0  0  0  0  0  0  0
  -30.5116  -18.0171   21.5517 C   0  0  0  0  0  0  0  0  0  0  0  0
  -23.2589  -12.3391   25.7616 C   0  0  0  0  0  0  0  0  0  0  0  0
  -27.0408  -27.3753   19.9750 C   0  0  0  0  0  0  0  0  0  0  0  0
  -29.4923  -19.8315   22.7788 C   0  0  0  0  0  0  0  0  0  0  0  0
  -21.8214  -11.3470   27.3338 C   0  0  0  0  0  0  0  0  0  0  0  0
  -19.9322   -9.3892   27.9506 C   0  0  0  0  0  0  0  0  0  0  0  0
  -22.0796  -10.4231   28.3464 C   0  0  0  0  0  0  0  0  0  0  0  0
  -24.8161  -12.4002   21.8286 C   0  0  0  0  0  0  0  0  0  0  0  0
  -25.0492  -12.3609   19.6424 C   0  0  0  0  0  0  0  0  0  0  0  0
  -22.6861  -12.1075   20.4171 C   0  0  0  0  0  0  0  0  0  0  0  0
  -25.8863  -32.5592   21.0966 C   0  0  0  0  0  0  0  0  0  0  0  0
  -24.2351  -31.5228   23.6893 C   0  0  0  0  0  0  0  0  0  0  0  0
  -23.2025  -28.8947   25.6059 C   0  0  0  0  0  0  0  0  0  0  0  0
  -30.6378  -14.8520   19.9598 C   0  0  0  0  0  0  0  0  0  0  0  0
  -25.8512  -37.5962   20.2692 C   0  0  0  0  0  0  0  0  0  0  0  0
  -24.4142  -30.7834   20.0789 C   0  0  0  0  0  0  0  0  0  0  0  0
  -25.7273  -29.8352   22.5531 C   0  0  0  0  0  0  0  0  0  0  0  0
  -25.8245  -36.6915   21.4985 C   0  0  0  0  0  0  0  0  0  0  0  0
  -29.6694  -11.4697   18.8090 C   0  0  0  0  0  0  0  0  0  0  0  0
  -26.9155  -35.6297   21.4037 C   0  0  0  0  0  0  0  0  0  0  0  0
  -28.2788  -11.2964   19.4174 C   0  0  0  0  0  0  0  0  0  0  0  0
  -30.5398  -12.4065   19.6412 C   0  0  0  0  0  0  0  0  0  0  0  0
  -28.5314  -13.5631   20.5030 C   0  0  0  0  0  0  0  0  0  0  0  0
  -26.7011  -34.7257   20.1838 C   0  0  1  0  0  0  0  0  0  0  0  0
  -24.6574  -31.7112   21.2653 C   0  0  1  0  0  0  0  0  0  0  0  0
  -27.6136  -12.6617   19.6636 C   0  0  2  0  0  0  0  0  0  0  0  0
  -32.0164  -16.3720   22.7132 C   0  0  0  0  0  0  0  0  0  0  0  0
  -26.2973  -16.0588   21.3488 C   0  0  0  0  0  0  0  0  0  0  0  0
  -21.8973  -28.3639   27.6825 C   0  0  0  0  0  0  0  0  0  0  0  0
  -26.5859  -32.4480   25.4003 C   0  0  0  0  0  0  0  0  0  0  0  0
  -25.6732  -31.0658   27.2778 C   0  0  0  0  0  0  0  0  0  0  0  0
  -24.3331  -32.9586   26.3589 C   0  0  0  0  0  0  0  0  0  0  0  0
  -21.2244  -27.2951   24.0936 C   0  0  0  0  0  0  0  0  0  0  0  0
  -30.7105  -17.2985   20.2577 C   0  0  0  0  0  0  0  0  0  0  0  0
  -27.8117  -15.9307   21.4369 C   0  0  0  0  0  0  0  0  0  0  0  0
  -28.2659  -24.0561   20.7546 C   0  0  0  0  0  0  0  0  0  0  0  0
  -28.3374  -23.1631   21.9884 C   0  0  0  0  0  0  0  0  0  0  0  0
  -28.5045  -16.2047   20.1074 C   0  0  0  0  0  0  0  0  0  0  0  0
  -27.9434  -25.4982   21.1230 C   0  0  0  0  0  0  0  0  0  1  0  0
  -28.6173  -21.7135   21.6177 C   0  0  0  0  0  0  0  0  0  0  0  0
  -24.6001  -30.8497   24.9903 C   0  0  1  0  0  0  0  0  0  0  0  0
  -21.8409  -28.5348   26.1725 C   0  0  2  0  0  0  0  0  0  0  0  0
  -25.3041  -31.8186   25.9817 C   0  0  0  0  0  0  0  0  0  0  0  0
  -26.1286  -12.5478   21.6293 N   0  0  0  0  0  0  0  0  0  0  0  0
  -26.2389  -12.5198   20.2902 N   0  0  0  0  0  0  0  0  0  0  0  0
  -24.8091  -30.9859   22.5282 N   0  0  0  0  0  0  0  0  0  0  0  0
  -29.8661  -13.6801   19.8967 N   0  0  0  0  0  0  0  0  0  0  0  0
  -24.9790  -12.3118   18.2952 N   0  0  0  0  0  0  0  0  0  0  0  0
  -21.8472  -12.0434   21.5379 N   0  0  0  0  0  0  0  0  0  0  0  0
  -25.6579  -33.7582   20.4489 N   0  0  0  0  0  0  0  0  0  0  0  0
  -23.3688  -30.2597   25.5042 N   0  0  0  0  0  0  0  0  0  0  0  0
  -29.9554  -16.0552   20.1952 N   0  0  0  0  0  0  0  0  0  0  0  0
  -21.3507  -27.2613   25.5734 N   0  3  0  0  0  0  0  0  0  0  0  0
  -22.1886  -11.9976   19.2708 O   0  0  0  0  0  0  0  0  0  0  0  0
  -26.9617  -32.1561   21.5239 O   0  0  0  0  0  0  0  0  0  0  0  0
  -23.4632  -32.4849   23.7019 O   0  0  0  0  0  0  0  0  0  0  0  0
  -24.0367  -28.0495   25.2891 O   0  0  0  0  0  0  0  0  0  0  0  0
  -31.8654  -14.8256   19.8044 O   0  0  0  0  0  0  0  0  0  0  0  0
  -22.7578  -12.3200   27.0270 O   0  0  0  0  0  0  0  0  0  0  0  0
  -27.8668  -26.2943   19.9412 O   0  0  0  0  0  0  0  0  0  1  0  0
  -28.6862  -20.9398   22.8075 O   0  0  0  0  0  0  0  0  0  0  0  0
  -19.0244   -8.4502   28.2477 F   0  0  0  0  0  0  0  0  0  0  0  0
  -23.2329  -10.4717   29.0272 F   0  0  0  0  0  0  0  0  0  0  0  0
  1  2  1  0  0  0  0
  1  5  2  0  0  0  0
  2  6  2  0  0  0  0
  3  9  2  0  0  0  0
  3 18  1  0  0  0  0
  4 10  1  0  0  0  0
  4 18  2  0  0  0  0
  5 20  1  0  0  0  0
  6 22  1  0  0  0  0
  7 11  2  0  0  0  0
  7 21  1  0  0  0  0
  8 12  2  0  0  0  0
  8 24  1  0  0  0  0
  9 26  1  0  0  0  0
 10 26  2  0  0  0  0
 11 27  1  0  0  0  0
 12 28  1  0  0  0  0
 13 14  2  0  0  0  0
 13 29  1  0  0  0  0
 14 30  1  0  0  0  0
 15 23  1  0  0  0  0
 15 27  2  0  0  0  0
 16 25  1  0  0  0  0
 16 28  2  0  0  0  0
 17 30  2  0  0  0  0
 17 31  1  0  0  0  0
 18 32  1  0  0  0  0
 19 32  1  0  0  0  0
 19 33  2  0  0  0  0
 19 34  1  0  0  0  0
 20 22  2  0  0  0  0
 20 39  1  0  0  0  0
 21 23  2  0  0  0  0
 21 40  1  0  0  0  0
 22 48  1  0  0  0  0
 23 41  1  0  0  0  0
 24 25  2  0  0  0  0
 24 51  1  0  0  0  0
 25 58  1  0  0  0  0
 26 83  1  0  0  0  0
 27 84  1  0  0  0  0
 28 85  1  0  0  0  0
 29 31  2  0  0  0  0
 29 83  1  0  0  0  0
 30 86  1  0  0  0  0
 31 87  1  0  0  0  0
 32 68  2  0  0  0  0
 33 69  1  0  0  0  0
 33 72  1  0  0  0  0
 34 73  1  0  0  0  0
 34 78  2  0  0  0  0
 35 49  1  0  0  0  0
 35 74  1  0  0  0  0
 35 79  2  0  0  0  0
 36 65  1  0  0  0  0
 36 70  1  0  0  0  0
 36 80  2  0  0  0  0
 37 66  1  0  0  0  0
 37 75  1  0  0  0  0
 37 81  2  0  0  0  0
 38 71  1  0  0  0  0
 38 76  1  0  0  0  0
 38 82  2  0  0  0  0
 39 42  1  0  0  0  0
 40 49  1  0  0  0  0
 41 70  1  0  0  0  0
 42 44  1  0  0  0  0
 43 45  1  0  0  0  0
 43 46  1  0  0  0  0
 44 48  1  0  0  0  0
 45 50  1  0  0  0  0
 46 71  1  0  0  0  0
 47 50  1  0  0  0  0
 47 71  1  0  0  0  0
 48 74  1  0  0  0  0
 49 70  1  0  0  0  0
 50 69  1  0  0  0  0
 52 59  1  0  0  0  0
 53 66  1  0  0  0  0
 54 67  1  0  0  0  0
 55 67  1  0  0  0  0
 56 67  1  0  0  0  0
 57 77  1  0  0  0  0
 58 76  1  0  0  0  0
 59 62  1  0  0  0  0
 60 61  1  0  0  0  0
 60 63  1  0  0  0  0
 61 64  1  0  0  0  0
 62 76  1  0  0  0  0
 63 84  1  0  0  0  0
 64 85  1  0  0  0  0
 65 67  1  0  0  0  0
 65 75  1  0  0  0  0
 66 77  1  0  0  0  0
 68 69  1  0  0  0  0
M  CHG  1  77   1
M  ISO  4  38 100  63 101  76 100  84 101
M  END
> <Batch ID>
0104

> <Smiles>
CCC[100N:0](Cc1cc(OCCC[101CH2:1][101O:1]c2ccc3c(c2)CN(C(=O)C(NC(=O)C(C)NC)C(C)(C)C)C(C(=O)NC2CCCc4ccccc42)C3)ccc1C)[100C:0](=O)N1CCCC(n2nc(-c3ccc(Oc4ccc(F)cc4F)cc3)c(C(N)=O)c2N)C1

> <Shape>
0.234

> <Color>
0.136

> <Negative vol penalty>
0.000

$$$$

  -OEChem-04052301082D

  0  0  0     0  0  0  0  0  0999 V2000
M  END
$$$$

  -OEChem-04052301083D

 84 92  0     1  0  0  0  0  0999 V2000
  -16.8274  -26.7873   25.0910 C   0  0  0  0  0  0  0  0  0  0  0  0
  -17.9700  -26.1321   24.6430 C   0  0  0  0  0  0  0  0  0  0  0  0
  -26.7095  -12.0180   21.7261 C   0  0  0  0  0  0  0  0  0  0  0  0
  -25.7110  -13.8290   20.4770 C   0  0  0  0  0  0  0  0  0  0  0  0
  -16.5964  -28.1126   24.7247 C   0  0  0  0  0  0  0  0  0  0  0  0
  -18.8818  -26.8017   23.8276 C   0  0  0  0  0  0  0  0  0  0  0  0
  -24.9683  -26.1248   23.7817 C   0  0  0  0  0  0  0  0  0  0  0  0
  -25.4793  -11.3613   21.7574 C   0  0  0  0  0  0  0  0  0  0  0  0
  -24.4808  -13.1722   20.5082 C   0  0  0  0  0  0  0  0  0  0  0  0
  -25.8243  -25.3910   22.9615 C   0  0  0  0  0  0  0  0  0  0  0  0
  -23.6055   -9.4812   19.6629 C   0  0  0  0  0  0  0  0  0  0  0  0
  -23.5924   -8.1155   19.3796 C   0  0  0  0  0  0  0  0  0  0  0  0
  -26.2151  -27.3577   21.6203 C   0  0  0  0  0  0  0  0  0  0  0  0
  -22.6713   -7.6703   21.5684 C   0  0  0  0  0  0  0  0  0  0  0  0
  -26.8253  -13.2519   21.0859 C   0  0  0  0  0  0  0  0  0  0  0  0
  -29.1000  -13.8098   20.0748 C   0  0  0  0  0  0  0  0  0  0  0  0
  -17.5105  -28.8017   23.9123 C   0  0  0  0  0  0  0  0  0  0  0  0
  -24.7203  -27.4800   23.5204 C   0  0  0  0  0  0  0  0  0  0  0  0
  -18.6620  -28.1370   23.4491 C   0  0  0  0  0  0  0  0  0  0  0  0
  -25.3576  -28.1070   22.4401 C   0  0  0  0  0  0  0  0  0  0  0  0
  -24.3650  -11.9384   21.1484 C   0  0  0  0  0  0  0  0  0  0  0  0
  -26.4456  -26.0067   21.8789 C   0  0  0  0  0  0  0  0  0  0  0  0
  -23.1516   -9.9414   20.8990 C   0  0  0  0  0  0  0  0  0  0  0  0
  -23.1253   -7.2100   20.3323 C   0  0  0  0  0  0  0  0  0  0  0  0
  -22.6845   -9.0360   21.8517 C   0  0  0  0  0  0  0  0  0  0  0  0
  -28.0957  -13.9311   21.0538 C   0  0  0  0  0  0  0  0  0  0  0  0
  -30.0971  -14.6535   20.4994 C   0  0  0  0  0  0  0  0  0  0  0  0
  -27.4849  -23.4247   19.6094 C   0  0  0  0  0  0  0  0  0  0  0  0
  -26.7668  -24.2041   20.4235 C   0  0  0  0  0  0  0  0  0  1  0  0
  -29.1289  -13.0063   18.8877 C   0  0  0  0  0  0  0  0  0  0  0  0
  -22.1419  -29.1878   22.7862 C   0  0  0  0  0  0  0  0  0  0  0  0
  -24.1856  -31.6869   23.1030 C   0  0  0  0  0  0  0  0  0  0  0  0
  -32.1572  -20.5336   20.1200 C   0  0  0  0  0  0  0  0  0  0  0  0
  -27.4027  -32.8240   23.0441 C   0  0  0  0  0  0  0  0  0  0  0  0
  -31.2898  -19.8046   22.3667 C   0  0  0  0  0  0  0  0  0  0  0  0
  -17.1942  -30.2187   23.5040 C   0  0  0  0  0  0  0  0  0  0  0  0
  -23.8152  -28.2643   24.4304 C   0  0  0  0  0  0  0  0  0  0  0  0
  -25.1406  -29.5646   22.1288 C   0  0  0  0  0  0  0  0  0  0  0  0
  -26.9680  -22.2245   18.8736 C   0  0  0  0  0  0  0  0  0  0  0  0
  -28.9473  -23.5796   19.3372 C   0  0  0  0  0  0  0  0  0  0  0  0
  -18.3969  -30.9742   22.9445 C   0  0  0  0  0  0  0  0  0  0  0  0
  -30.7763  -17.0450   24.8793 C   0  0  0  0  0  0  0  0  0  0  0  0
  -19.1433  -30.1136   21.9301 C   0  0  0  0  0  0  0  0  0  0  0  0
  -30.0217  -16.0310   24.0250 C   0  0  0  0  0  0  0  0  0  0  0  0
  -30.5487  -18.4745   24.3973 C   0  0  0  0  0  0  0  0  0  0  0  0
  -30.1002  -17.6560   22.0911 C   0  0  0  0  0  0  0  0  0  0  0  0
  -28.2264  -21.4167   18.5855 C   0  0  0  0  0  0  0  0  0  0  0  0
  -19.6870  -28.8373   22.5834 C   0  0  1  0  0  0  0  0  0  0  0  0
  -23.2339  -29.5091   23.7670 C   0  0  1  0  0  0  0  0  0  0  0  0
  -30.3694  -16.2121   22.5400 C   0  0  2  0  0  0  0  0  0  0  0  0
  -28.7556  -34.9218   23.3020 C   0  0  0  0  0  0  0  0  0  0  0  0
  -23.3279  -32.5799   20.3143 C   0  0  0  0  0  0  0  0  0  0  0  0
  -25.3422  -34.0652   20.2464 C   0  0  0  0  0  0  0  0  0  0  0  0
  -23.5796  -34.4351   21.9724 C   0  0  0  0  0  0  0  0  0  0  0  0
  -31.6229  -23.1466   18.1957 C   0  0  0  0  0  0  0  0  0  0  0  0
  -30.8954  -20.8752   17.4174 C   0  0  0  0  0  0  0  0  0  0  0  0
  -32.9818  -18.5010   21.1996 C   0  0  0  0  0  0  0  0  0  0  0  0
  -28.8730  -31.7285   25.3673 C   0  0  0  0  0  0  0  0  0  0  0  0
  -30.9412  -21.4411   19.9136 C   0  0  0  0  0  0  0  0  0  0  0  0
  -25.1121  -32.4345   22.1748 C   0  0  1  0  0  0  0  0  0  0  0  0
  -28.1775  -33.7049   24.0076 C   0  0  2  0  0  0  0  0  0  0  0  0
  -24.3433  -33.3507   21.1814 C   0  0  0  0  0  0  0  0  0  0  0  0
  -30.6971  -21.9570   18.4818 C   0  0  0  0  0  0  0  0  0  0  0  0
  -28.4248  -14.7845   22.0271 N   0  0  0  0  0  0  0  0  0  0  0  0
  -29.6471  -15.2071   21.6618 N   0  0  0  0  0  0  0  0  0  0  0  0
  -24.2419  -30.2872   23.0440 N   0  0  0  0  0  0  0  0  0  0  0  0
  -30.7765  -18.6290   22.9525 N   0  0  0  0  0  0  0  0  0  0  0  0
  -31.3062  -14.9685   19.9882 N   0  0  0  0  0  0  0  0  0  0  0  0
  -28.0210  -12.1970   18.6015 N   0  0  0  0  0  0  0  0  0  0  0  0
  -20.8806  -29.1297   23.3477 N   0  0  0  0  0  0  0  0  0  0  0  0
  -26.0611  -33.1417   23.0279 N   0  0  0  0  0  0  0  0  0  0  0  0
  -32.0425  -19.6121   21.1894 N   0  0  0  0  0  0  0  0  0  0  0  0
  -29.2937  -22.4667   18.3741 N   0  3  2  0  0  0  0  0  0  0  0  0
  -29.2999  -32.9398   24.6207 N   0  3  0  0  0  0  0  0  0  0  0  0
  -30.1151  -12.9936   18.1125 O   0  0  0  0  0  0  0  0  0  0  0  0
  -22.4227  -29.0075   21.6071 O   0  0  0  0  0  0  0  0  0  0  0  0
  -23.4444  -32.3214   23.8578 O   0  0  0  0  0  0  0  0  0  0  0  0
  -33.1594  -20.6134   19.4080 O   0  0  0  0  0  0  0  0  0  0  0  0
  -27.9351  -31.9447   22.3704 O   0  0  0  0  0  0  0  0  0  0  0  0
  -31.1088  -20.9344   22.8323 O   0  0  0  0  0  0  0  0  0  0  0  0
  -23.1645  -11.2977   21.1784 O   0  0  0  0  0  0  0  0  0  0  0  0
  -27.2884  -25.2865   21.0694 O   0  0  0  0  0  0  0  0  0  1  0  0
  -23.1113   -5.8987   20.0595 F   0  0  0  0  0  0  0  0  0  0  0  0
  -22.2460   -9.4723   23.0405 F   0  0  0  0  0  0  0  0  0  0  0  0
  1  2  1  0  0  0  0
  1  5  2  0  0  0  0
  2  6  2  0  0  0  0
  3  8  2  0  0  0  0
  3 15  1  0  0  0  0
  4  9  1  0  0  0  0
  4 15  2  0  0  0  0
  5 17  1  0  0  0  0
  6 19  1  0  0  0  0
  7 10  2  0  0  0  0
  7 18  1  0  0  0  0
  8 21  1  0  0  0  0
  9 21  2  0  0  0  0
 10 22  1  0  0  0  0
 11 12  2  0  0  0  0
 11 23  1  0  0  0  0
 12 24  1  0  0  0  0
 13 20  1  0  0  0  0
 13 22  2  0  0  0  0
 14 24  2  0  0  0  0
 14 25  1  0  0  0  0
 15 26  1  0  0  0  0
 16 26  1  0  0  0  0
 16 27  2  0  0  0  0
 16 30  1  0  0  0  0
 17 19  2  0  0  0  0
 17 36  1  0  0  0  0
 18 20  2  0  0  0  0
 18 37  1  0  0  0  0
 19 48  1  0  0  0  0
 20 38  1  0  0  0  0
 21 81  1  0  0  0  0
 22 82  1  0  0  0  0
 23 25  2  0  0  0  0
 23 81  1  0  0  0  0
 24 83  1  0  0  0  0
 25 84  1  0  0  0  0
 26 64  2  0  0  0  0
 27 65  1  0  0  0  0
 27 68  1  0  0  0  0
 28 29  2  0  0  0  0
 28 39  1  0  0  0  0
 28 40  1  0  0  0  0
 29 82  1  0  0  0  0
 30 69  1  0  0  0  0
 30 75  2  0  0  0  0
 31 49  1  0  0  0  0
 31 70  1  0  0  0  0
 31 76  2  0  0  0  0
 32 60  1  0  0  0  0
 32 66  1  0  0  0  0
 32 77  2  0  0  0  0
 33 59  1  0  0  0  0
 33 72  1  0  0  0  0
 33 78  2  0  0  0  0
 34 61  1  0  0  0  0
 34 71  1  0  0  0  0
 34 79  2  0  0  0  0
 35 67  1  0  0  0  0
 35 72  1  0  0  0  0
 35 80  2  0  0  0  0
 36 41  1  0  0  0  0
 37 49  1  0  0  0  0
 38 66  1  0  0  0  0
 39 47  1  0  0  0  0
 40 73  1  0  0  0  0
 41 43  1  0  0  0  0
 42 44  1  0  0  0  0
 42 45  1  0  0  0  0
 43 48  1  0  0  0  0
 44 50  1  0  0  0  0
 45 67  1  0  0  0  0
 46 50  1  0  0  0  0
 46 67  1  0  0  0  0
 47 73  1  0  0  0  0
 48 70  1  0  0  0  0
 49 66  1  0  0  0  0
 50 65  1  0  0  0  0
 51 61  1  0  0  0  0
 52 62  1  0  0  0  0
 53 62  1  0  0  0  0
 54 62  1  0  0  0  0
 55 63  1  0  0  0  0
 56 63  1  0  0  0  0
 57 72  1  0  0  0  0
 58 74  1  0  0  0  0
 59 63  1  0  0  0  0
 60 62  1  0  0  0  0
 60 71  1  0  0  0  0
 61 74  1  0  0  0  0
 63 73  1  0  0  0  0
 64 65  1  0  0  0  0
M  CHG  2  73   1  74   1
M  ISO  4  29 101  35 100  72 100  82 101
M  END
> <Batch ID>
0104

> <Smiles>
CNC(C)C(=O)NC(C(=O)N1Cc2cc([101O:1][101CH:1]=C3CCN(C(C)(C)CC(=O)[100N:0](C)[100C:0](=O)N4CCCC(n5nc(-c6ccc(Oc7ccc(F)cc7F)cc6)c(C(N)=O)c5N)C4)C3)ccc2CC1C(=O)NC1CCCc2ccccc21)C(C)(C)C

> <Shape>
0.265

> <Color>
0.073

> <Negative vol penalty>
0.000

$$$$

  -OEChem-04052301083D

 83 91  0     1  0  0  0  0  0999 V2000
  -28.3518  -35.0180   15.6257 C   0  0  0  0  0  0  0  0  0  0  0  0
  -28.0200  -33.6673   15.6581 C   0  0  0  0  0  0  0  0  0  0  0  0
  -23.3554   -9.7586   21.6836 C   0  0  0  0  0  0  0  0  0  0  0  0
  -23.8884  -11.0439   23.6587 C   0  0  0  0  0  0  0  0  0  0  0  0
  -28.7250  -35.6712   16.7996 C   0  0  0  0  0  0  0  0  0  0  0  0
  -28.0624  -32.9688   16.8642 C   0  0  0  0  0  0  0  0  0  0  0  0
  -24.3441  -28.4316   18.6234 C   0  0  0  0  0  0  0  0  0  0  0  0
  -28.7652  -19.4509   19.3620 C   0  0  0  0  0  0  0  0  0  0  0  0
  -28.0512  -20.6351   19.5450 C   0  0  0  0  0  0  0  0  0  0  0  0
  -22.7053   -8.8118   22.4752 C   0  0  0  0  0  0  0  0  0  0  0  0
  -23.2382  -10.0972   24.4503 C   0  0  0  0  0  0  0  0  0  0  0  0
  -24.4851  -27.0447   18.6094 C   0  0  0  0  0  0  0  0  0  0  0  0
  -23.5632   -6.2245   24.4737 C   0  0  0  0  0  0  0  0  0  0  0  0
  -23.8181   -4.8781   24.2133 C   0  0  0  0  0  0  0  0  0  0  0  0
  -25.2068  -27.1009   20.9106 C   0  0  0  0  0  0  0  0  0  0  0  0
  -29.2082  -21.0101   21.6325 C   0  0  0  0  0  0  0  0  0  0  0  0
  -21.4732   -4.5235   23.7516 C   0  0  0  0  0  0  0  0  0  0  0  0
  -23.9470  -10.8746   22.2754 C   0  0  0  0  0  0  0  0  0  0  0  0
  -24.0546  -12.9979   20.8656 C   0  0  0  0  0  0  0  0  0  0  0  0
  -28.7626  -34.9827   18.0224 C   0  0  0  0  0  0  0  0  0  0  0  0
  -24.6444  -29.1660   19.7796 C   0  0  0  0  0  0  0  0  0  0  0  0
  -28.4377  -33.6132   18.0553 C   0  0  0  0  0  0  0  0  0  0  0  0
  -25.0664  -28.4969   20.9374 C   0  0  0  0  0  0  0  0  0  0  0  0
  -29.7006  -19.0462   20.3144 C   0  0  0  0  0  0  0  0  0  0  0  0
  -29.9221  -19.8258   21.4496 C   0  0  0  0  0  0  0  0  0  0  0  0
  -28.2728  -21.4147   20.6802 C   0  0  0  0  0  0  0  0  0  0  0  0
  -22.6466   -8.9811   23.8585 C   0  0  0  0  0  0  0  0  0  0  0  0
  -24.9192  -26.3794   19.7522 C   0  0  0  0  0  0  0  0  0  0  0  0
  -22.2634   -6.7205   24.3731 C   0  0  0  0  0  0  0  0  0  0  0  0
  -22.7731   -4.0276   23.8523 C   0  0  0  0  0  0  0  0  0  0  0  0
  -21.2184   -5.8700   24.0120 C   0  0  0  0  0  0  0  0  0  0  0  0
  -24.6193  -11.8526   21.4583 C   0  0  0  0  0  0  0  0  0  0  0  0
  -25.0995  -13.5902   20.1992 C   0  0  0  0  0  0  0  0  0  0  0  0
  -22.7063  -13.4831   20.9132 C   0  0  0  0  0  0  0  0  0  0  0  0
  -26.7480  -31.4330   20.5139 C   0  0  0  0  0  0  0  0  0  0  0  0
  -30.4345  -15.2696   20.1191 C   0  0  0  0  0  0  0  0  0  0  0  0
  -25.1227  -31.4877   23.3206 C   0  0  0  0  0  0  0  0  0  0  0  0
  -26.5894  -23.1663   20.0229 C   0  0  0  0  0  0  0  0  0  0  0  0
  -23.1202  -29.8432   25.5415 C   0  0  0  0  0  0  0  0  0  0  0  0
  -29.2178  -35.7200   19.2569 C   0  0  0  0  0  0  0  0  0  0  0  0
  -24.4616  -30.6590   19.7866 C   0  0  0  0  0  0  0  0  0  0  0  0
  -25.3822  -29.2370   22.2105 C   0  0  0  0  0  0  0  0  0  0  0  0
  -28.8754  -34.9987   20.5580 C   0  0  0  0  0  0  0  0  0  0  0  0
  -29.7392  -11.8885   19.1575 C   0  0  0  0  0  0  0  0  0  0  0  0
  -29.2419  -33.5211   20.4616 C   0  0  0  0  0  0  0  0  0  0  0  0
  -28.3099  -11.6623   19.6486 C   0  0  0  0  0  0  0  0  0  0  0  0
  -30.5171  -12.7983   20.1031 C   0  0  0  0  0  0  0  0  0  0  0  0
  -28.4270  -13.8899   20.8524 C   0  0  0  0  0  0  0  0  0  0  0  0
  -28.4477  -32.8272   19.3484 C   0  0  1  0  0  0  0  0  0  0  0  0
  -25.2883  -31.3572   20.8620 C   0  0  1  0  0  0  0  0  0  0  0  0
  -27.5968  -13.0009   19.9096 C   0  0  2  0  0  0  0  0  0  0  0  0
  -30.9200  -19.4135   22.4815 C   0  0  0  0  0  0  0  0  0  0  0  0
  -21.9875  -30.1330   27.7619 C   0  0  0  0  0  0  0  0  0  0  0  0
  -27.7987  -31.0981   24.7338 C   0  0  0  0  0  0  0  0  0  0  0  0
  -26.5360  -30.4516   26.7968 C   0  0  0  0  0  0  0  0  0  0  0  0
  -26.2657  -32.7379   25.8364 C   0  0  0  0  0  0  0  0  0  0  0  0
  -20.4362  -29.4692   24.3518 C   0  0  0  0  0  0  0  0  0  0  0  0
  -30.4522  -17.7740   20.0971 C   0  0  0  0  0  0  0  0  0  0  0  0
  -29.6265  -16.5148   20.3850 C   0  0  0  0  0  0  0  0  0  0  0  0
  -26.0584  -24.4685   20.5929 C   0  0  0  0  0  0  0  0  0  1  0  0
  -25.2407  -30.7613   24.6387 C   0  0  1  0  0  0  0  0  0  0  0  0
  -21.8472  -30.2642   26.2533 C   0  0  2  0  0  0  0  0  0  0  0  0
  -26.4563  -31.2482   25.4770 C   0  0  0  0  0  0  0  0  0  0  0  0
  -25.9216  -11.7230   21.1918 N   0  0  0  0  0  0  0  0  0  0  0  0
  -26.1841  -12.7945   20.4243 N   0  0  0  0  0  0  0  0  0  0  0  0
  -25.1939  -30.6965   22.1653 N   0  0  0  0  0  0  0  0  0  0  0  0
  -29.7962  -14.0496   20.3433 N   0  0  0  0  0  0  0  0  0  0  0  0
  -25.1870  -14.7088   19.4485 N   0  0  0  0  0  0  0  0  0  0  0  0
  -21.7588  -12.7527   21.6433 N   0  0  0  0  0  0  0  0  0  0  0  0
  -27.5501  -22.6173   20.8652 N   0  0  0  0  0  0  0  0  0  0  0  0
  -27.0954  -32.5553   19.7864 N   0  0  0  0  0  0  0  0  0  0  0  0
  -23.9532  -30.9166   25.3071 N   0  0  0  0  0  0  0  0  0  0  0  0
  -20.7029  -29.4174   25.8124 N   0  3  0  0  0  0  0  0  0  0  0  0
  -22.3485  -14.5244   20.3121 O   0  0  0  0  0  0  0  0  0  0  0  0
  -27.5035  -30.5402   20.8796 O   0  0  0  0  0  0  0  0  0  0  0  0
  -31.5972  -15.3799   19.7213 O   0  0  0  0  0  0  0  0  0  0  0  0
  -24.9658  -32.7113   23.3164 O   0  0  0  0  0  0  0  0  0  0  0  0
  -26.1807  -22.7177   18.9569 O   0  0  0  0  0  0  0  0  0  0  0  0
  -23.3540  -28.6779   25.2282 O   0  0  0  0  0  0  0  0  0  0  0  0
  -22.0121   -8.0576   24.6312 O   0  0  0  0  0  0  0  0  0  0  0  0
  -25.0583  -25.0257   19.7411 O   0  0  0  0  0  0  0  0  0  1  0  0
  -23.0182   -2.7350   23.6008 F   0  0  0  0  0  0  0  0  0  0  0  0
  -19.9677   -6.3409   23.9126 F   0  0  0  0  0  0  0  0  0  0  0  0
  1  2  1  0  0  0  0
  1  5  2  0  0  0  0
  2  6  2  0  0  0  0
  3 10  2  0  0  0  0
  3 18  1  0  0  0  0
  4 11  1  0  0  0  0
  4 18  2  0  0  0  0
  5 20  1  0  0  0  0
  6 22  1  0  0  0  0
  7 12  2  0  0  0  0
  7 21  1  0  0  0  0
  8  9  2  0  0  0  0
  8 24  1  0  0  0  0
  9 26  1  0  0  0  0
 10 27  1  0  0  0  0
 11 27  2  0  0  0  0
 12 28  1  0  0  0  0
 13 14  2  0  0  0  0
 13 29  1  0  0  0  0
 14 30  1  0  0  0  0
 15 23  1  0  0  0  0
 15 28  2  0  0  0  0
 16 25  1  0  0  0  0
 16 26  2  0  0  0  0
 17 30  2  0  0  0  0
 17 31  1  0  0  0  0
 18 32  1  0  0  0  0
 19 32  1  0  0  0  0
 19 33  2  0  0  0  0
 19 34  1  0  0  0  0
 20 22  2  0  0  0  0
 20 40  1  0  0  0  0
 21 23  2  0  0  0  0
 21 41  1  0  0  0  0
 22 49  1  0  0  0  0
 23 42  1  0  0  0  0
 24 25  2  0  0  0  0
 24 58  1  0  0  0  0
 25 52  1  0  0  0  0
 26 70  1  0  0  0  0
 27 80  1  0  0  0  0
 28 81  1  0  0  0  0
 29 31  2  0  0  0  0
 29 80  1  0  0  0  0
 30 82  1  0  0  0  0
 31 83  1  0  0  0  0
 32 64  2  0  0  0  0
 33 65  1  0  0  0  0
 33 68  1  0  0  0  0
 34 69  1  0  0  0  0
 34 74  2  0  0  0  0
 35 50  1  0  0  0  0
 35 71  1  0  0  0  0
 35 75  2  0  0  0  0
 36 59  1  0  0  0  0
 36 67  1  0  0  0  0
 36 76  2  0  0  0  0
 37 61  1  0  0  0  0
 37 66  1  0  0  0  0
 37 77  2  0  0  0  0
 38 60  1  0  0  0  0
 38 70  1  0  0  0  0
 38 78  2  0  0  0  0
 39 62  1  0  0  0  0
 39 72  1  0  0  0  0
 39 79  2  0  0  0  0
 40 43  1  0  0  0  0
 41 50  1  0  0  0  0
 42 66  1  0  0  0  0
 43 45  1  0  0  0  0
 44 46  1  0  0  0  0
 44 47  1  0  0  0  0
 45 49  1  0  0  0  0
 46 51  1  0  0  0  0
 47 67  1  0  0  0  0
 48 51  1  0  0  0  0
 48 67  1  0  0  0  0
 49 71  1  0  0  0  0
 50 66  1  0  0  0  0
 51 65  1  0  0  0  0
 53 62  1  0  0  0  0
 54 63  1  0  0  0  0
 55 63  1  0  0  0  0
 56 63  1  0  0  0  0
 57 73  1  0  0  0  0
 58 59  1  0  0  0  0
 60 81  1  0  0  0  0
 61 63  1  0  0  0  0
 61 72  1  0  0  0  0
 62 73  1  0  0  0  0
 64 65  1  0  0  0  0
M  CHG  1  73   1
M  ISO  4  36 100  59 100  60 101  81 101
M  END
> <Batch ID>
0104

> <Smiles>
CNC(C)C(=O)NC(C(=O)N1Cc2cc([101O:1][101CH2:1]C(=O)Nc3ccc(C[100CH2:0][100C:0](=O)N4CCCC(n5nc(-c6ccc(Oc7ccc(F)cc7F)cc6)c(C(N)=O)c5N)C4)c(C)c3)ccc2CC1C(=O)NC1CCCc2ccccc21)C(C)(C)C

> <Shape>
0.302

> <Color>
0.163

> <Negative vol penalty>
0.000

$$$$

  -OEChem-04052301083D

 92101  0     1  0  0  0  0  0999 V2000
  -22.8826  -31.6131   24.9242 C   0  0  0  0  0  0  0  0  0  0  0  0
  -22.5002  -31.5565   23.5878 C   0  0  0  0  0  0  0  0  0  0  0  0
  -22.8003  -10.0906   20.2000 C   0  0  0  0  0  0  0  0  0  0  0  0
  -24.1678   -9.6257   22.1367 C   0  0  0  0  0  0  0  0  0  0  0  0
  -27.1914  -16.8617   15.1359 C   0  0  0  0  0  0  0  0  0  0  0  0
  -24.2050  -31.3531   25.2813 C   0  0  0  0  0  0  0  0  0  0  0  0
  -23.4403  -31.2410   22.6075 C   0  0  0  0  0  0  0  0  0  0  0  0
  -22.5229  -25.5527   18.2840 C   0  0  0  0  0  0  0  0  0  0  0  0
  -26.0670  -17.5435   14.6707 C   0  0  0  0  0  0  0  0  0  0  0  0
  -22.0587   -8.9352   20.4462 C   0  0  0  0  0  0  0  0  0  0  0  0
  -23.4261   -8.4703   22.3830 C   0  0  0  0  0  0  0  0  0  0  0  0
  -22.3158  -24.6062   17.2802 C   0  0  0  0  0  0  0  0  0  0  0  0
  -20.4380   -7.6737   23.7456 C   0  0  0  0  0  0  0  0  0  0  0  0
  -20.0374   -7.4302   25.0593 C   0  0  0  0  0  0  0  0  0  0  0  0
  -24.4750  -25.1302   16.3257 C   0  0  0  0  0  0  0  0  0  0  0  0
  -26.6622  -19.4514   16.0282 C   0  0  0  0  0  0  0  0  0  0  0  0
  -21.2622   -5.3477   25.0468 C   0  0  0  0  0  0  0  0  0  0  0  0
  -23.8549  -10.4358   21.0452 C   0  0  0  0  0  0  0  0  0  0  0  0
  -28.0512  -17.4747   16.0473 C   0  0  0  0  0  0  0  0  0  0  0  0
  -24.1445  -12.9526   20.7460 C   0  0  0  0  0  0  0  0  0  0  0  0
  -25.1597  -31.0247   24.3059 C   0  0  0  0  0  0  0  0  0  0  0  0
  -23.7149  -26.2815   18.3213 C   0  0  0  0  0  0  0  0  0  0  0  0
  -24.7771  -30.9776   22.9517 C   0  0  0  0  0  0  0  0  0  0  0  0
  -24.6934  -26.0707   17.3359 C   0  0  0  0  0  0  0  0  0  0  0  0
  -27.7866  -18.7696   16.4935 C   0  0  0  0  0  0  0  0  0  0  0  0
  -25.8024  -18.8384   15.1168 C   0  0  0  0  0  0  0  0  0  0  0  0
  -22.3716   -8.1250   21.5377 C   0  0  0  0  0  0  0  0  0  0  0  0
  -23.2894  -24.3957   16.3034 C   0  0  0  0  0  0  0  0  0  0  0  0
  -21.2506   -6.7541   23.0824 C   0  0  0  0  0  0  0  0  0  0  0  0
  -20.4496   -6.2673   25.7100 C   0  0  0  0  0  0  0  0  0  0  0  0
  -21.6627   -5.5912   23.7330 C   0  0  0  0  0  0  0  0  0  0  0  0
  -24.6217  -11.6290   20.7910 C   0  0  0  0  0  0  0  0  0  0  0  0
  -25.2576  -13.7097   20.4731 C   0  0  0  0  0  0  0  0  0  0  0  0
  -21.6506  -19.2738   13.5178 C   0  0  0  0  0  0  0  0  0  0  0  0
  -23.9820  -20.5037   15.4386 C   0  0  0  0  0  0  0  0  0  0  0  0
  -29.2408  -16.7249   16.5264 C   0  0  0  0  0  0  0  0  0  0  0  0
  -22.8142  -13.4531   20.9342 C   0  0  0  0  0  0  0  0  0  0  0  0
  -25.7713  -28.8847   20.0736 C   0  0  0  0  0  0  0  0  0  0  0  0
  -27.6963  -26.6534   19.2214 C   0  0  0  0  0  0  0  0  0  0  0  0
  -30.2620  -24.4208   18.9572 C   0  0  0  0  0  0  0  0  0  0  0  0
  -29.9469  -14.6505   17.6762 C   0  0  0  0  0  0  0  0  0  0  0  0
  -26.5876  -30.7980   24.7351 C   0  0  0  0  0  0  0  0  0  0  0  0
  -23.9548  -27.3547   19.3481 C   0  0  0  0  0  0  0  0  0  0  0  0
  -25.9455  -26.9024   17.3957 C   0  0  0  0  0  0  0  0  0  0  0  0
  -22.8639  -18.3993   13.2935 C   0  0  0  0  0  0  0  0  0  0  0  0
  -21.6008  -20.0913   14.7892 C   0  0  0  0  0  0  0  0  0  0  0  0
  -27.4393  -30.1038   23.6754 C   0  0  0  0  0  0  0  0  0  0  0  0
  -30.1668  -12.4638   20.4452 C   0  0  0  0  0  0  0  0  0  0  0  0
  -27.2228  -30.7484   22.3100 C   0  0  0  0  0  0  0  0  0  0  0  0
  -28.7045  -12.1647   20.7861 C   0  0  0  0  0  0  0  0  0  0  0  0
  -24.1536  -19.2074   13.2778 C   0  0  0  0  0  0  0  0  0  0  0  0
  -30.3891  -12.5620   18.9366 C   0  0  0  0  0  0  0  0  0  0  0  0
  -28.0363  -13.1875   18.5744 C   0  0  0  0  0  0  0  0  0  0  0  0
  -25.7623  -30.6144   21.8620 C   0  0  1  0  0  0  0  0  0  0  0  0
  -22.7197  -21.1362   14.8314 C   0  0  1  0  0  0  0  0  0  0  0  0
  -25.4272  -27.4528   19.7859 C   0  0  1  0  0  0  0  0  0  0  0  0
  -27.7472  -13.1485   20.0837 C   0  0  1  0  0  0  0  0  0  0  0  0
  -29.4254  -19.6016   19.8887 C   0  0  0  0  0  0  0  0  0  0  0  0
  -32.6287  -23.5871   18.9205 C   0  0  0  0  0  0  0  0  0  0  0  0
  -27.5982  -27.5947   16.3217 C   0  0  0  0  0  0  0  0  0  0  0  0
  -29.8599  -26.5740   15.9881 C   0  0  0  0  0  0  0  0  0  0  0  0
  -29.5613  -28.4326   17.6250 C   0  0  0  0  0  0  0  0  0  0  0  0
  -30.2861  -24.0121   21.8883 C   0  0  0  0  0  0  0  0  0  0  0  0
  -28.6904  -19.4486   17.4702 C   0  0  0  0  0  0  0  0  0  0  0  0
  -22.2732  -22.3414   15.6672 C   0  0  0  0  0  0  0  0  0  1  0  0
  -28.4815  -18.9336   18.9014 C   0  0  0  0  0  0  0  0  0  0  0  0
  -28.6521  -26.1385   18.1750 C   0  0  1  0  0  0  0  0  0  0  0  0
  -31.5485  -24.2661   19.7481 C   0  0  2  0  0  0  0  0  0  0  0  0
  -28.8961  -27.1692   17.0368 C   0  0  0  0  0  0  0  0  0  0  0  0
  -25.9354  -11.5464   20.5646 N   0  0  0  0  0  0  0  0  0  0  0  0
  -26.2933  -12.8278   20.3747 N   0  0  0  0  0  0  0  0  0  0  0  0
  -24.6361  -19.5446   14.6338 N   0  0  0  0  0  0  0  0  0  0  0  0
  -26.4131  -27.0070   18.7868 N   0  0  0  0  0  0  0  0  0  0  0  0
  -29.4510  -13.5201   18.3489 N   0  0  0  0  0  0  0  0  0  0  0  0
  -25.4415  -15.0371   20.3100 N   0  0  0  0  0  0  0  0  0  0  0  0
  -21.7884  -12.5379   21.2072 N   0  0  0  0  0  0  0  0  0  0  0  0
  -28.9711  -15.5266   17.1880 N   0  0  0  0  0  0  0  0  0  0  0  0
  -25.5049  -29.2775   21.3713 N   0  0  0  0  0  0  0  0  0  0  0  0
  -29.8604  -25.7380   18.8877 N   0  0  0  0  0  0  0  0  0  0  0  0
  -31.3097  -23.4485   20.9710 N   0  3  0  0  0  0  0  0  0  0  0  0
  -20.7107  -19.2751   12.7220 O   0  0  0  0  0  0  0  0  0  0  0  0
  -24.3115  -20.7993   16.5903 O   0  0  0  0  0  0  0  0  0  0  0  0
  -30.3617  -17.1655   16.2871 O   0  0  0  0  0  0  0  0  0  0  0  0
  -22.5402  -14.6741   20.8462 O   0  0  0  0  0  0  0  0  0  0  0  0
  -26.2453  -29.5825   19.1847 O   0  0  0  0  0  0  0  0  0  0  0  0
  -28.0763  -26.7460   20.3920 O   0  0  0  0  0  0  0  0  0  0  0  0
  -29.6743  -23.4687   18.4486 O   0  0  0  0  0  0  0  0  0  0  0  0
  -31.1542  -14.8801   17.5539 O   0  0  0  0  0  0  0  0  0  0  0  0
  -21.6480   -6.9976   21.7784 O   0  0  0  0  0  0  0  0  0  0  0  0
  -23.0826  -23.4669   15.3291 O   0  0  0  0  0  0  0  0  0  1  0  0
  -20.0662   -6.0343   26.9721 F   0  0  0  0  0  0  0  0  0  0  0  0
  -22.4444   -4.7046   23.1015 F   0  0  0  0  0  0  0  0  0  0  0  0
  1  2  1  0  0  0  0
  1  6  2  0  0  0  0
  2  7  2  0  0  0  0
  3 10  2  0  0  0  0
  3 18  1  0  0  0  0
  4 11  1  0  0  0  0
  4 18  2  0  0  0  0
  5  9  2  0  0  0  0
  5 19  1  0  0  0  0
  6 21  1  0  0  0  0
  7 23  1  0  0  0  0
  8 12  2  0  0  0  0
  8 22  1  0  0  0  0
  9 26  1  0  0  0  0
 10 27  1  0  0  0  0
 11 27  2  0  0  0  0
 12 28  1  0  0  0  0
 13 14  2  0  0  0  0
 13 29  1  0  0  0  0
 14 30  1  0  0  0  0
 15 24  1  0  0  0  0
 15 28  2  0  0  0  0
 16 25  1  0  0  0  0
 16 26  2  0  0  0  0
 17 30  2  0  0  0  0
 17 31  1  0  0  0  0
 18 32  1  0  0  0  0
 19 25  2  0  0  0  0
 19 36  1  0  0  0  0
 20 32  1  0  0  0  0
 20 33  2  0  0  0  0
 20 37  1  0  0  0  0
 21 23  2  0  0  0  0
 21 42  1  0  0  0  0
 22 24  2  0  0  0  0
 22 43  1  0  0  0  0
 23 54  1  0  0  0  0
 24 44  1  0  0  0  0
 25 64  1  0  0  0  0
 26 72  1  0  0  0  0
 27 89  1  0  0  0  0
 28 90  1  0  0  0  0
 29 31  2  0  0  0  0
 29 89  1  0  0  0  0
 30 91  1  0  0  0  0
 31 92  1  0  0  0  0
 32 70  2  0  0  0  0
 33 71  1  0  0  0  0
 33 75  1  0  0  0  0
 34 45  1  0  0  0  0
 34 46  1  0  0  0  0
 34 81  2  0  0  0  0
 35 55  1  0  0  0  0
 35 72  1  0  0  0  0
 35 82  2  0  0  0  0
 36 77  1  0  0  0  0
 36 83  2  0  0  0  0
 37 76  1  0  0  0  0
 37 84  2  0  0  0  0
 38 56  1  0  0  0  0
 38 78  1  0  0  0  0
 38 85  2  0  0  0  0
 39 67  1  0  0  0  0
 39 73  1  0  0  0  0
 39 86  2  0  0  0  0
 40 68  1  0  0  0  0
 40 79  1  0  0  0  0
 40 87  2  0  0  0  0
 41 74  1  0  0  0  0
 41 77  1  0  0  0  0
 41 88  2  0  0  0  0
 42 47  1  0  0  0  0
 43 56  1  0  0  0  0
 44 73  1  0  0  0  0
 45 51  1  0  0  0  0
 46 55  1  0  0  0  0
 47 49  1  0  0  0  0
 48 50  1  0  0  0  0
 48 52  1  0  0  0  0
 49 54  1  0  0  0  0
 50 57  1  0  0  0  0
 51 72  1  0  0  0  0
 52 74  1  0  0  0  0
 53 57  1  0  0  0  0
 53 74  1  0  0  0  0
 54 78  1  0  0  0  0
 55 65  1  0  0  0  0
 56 73  1  0  0  0  0
 57 71  1  0  0  0  0
 58 66  1  0  0  0  0
 59 68  1  0  0  0  0
 60 69  1  0  0  0  0
 61 69  1  0  0  0  0
 62 69  1  0  0  0  0
 63 80  1  0  0  0  0
 64 66  1  0  0  0  0
 65 90  1  0  0  0  0
 67 69  1  0  0  0  0
 67 79  1  0  0  0  0
 68 80  1  0  0  0  0
 70 71  1  0  0  0  0
M  CHG  1  80   1
M  ISO  4  41 100  65 101  77 100  90 101
M  END
> <Batch ID>
0104

> <Smiles>
CCCc1cc(N2CCC(=O)CC([101CH2:1][101O:1]c3ccc4c(c3)CN(C(=O)C(NC(=O)C(C)NC)C(C)(C)C)C(C(=O)NC3CCCc5ccccc53)C4)C2=O)ccc1C(=O)[100NH:0][100C:0](=O)N1CCCC(n2nc(-c3ccc(Oc4ccc(F)cc4F)cc3)c(C(N)=O)c2N)C1

> <Shape>
0.298

> <Color>
0.190

> <Negative vol penalty>
0.000

$$$$

  -OEChem-04052301083D

 89 98  0     1  0  0  0  0  0999 V2000
  -26.2464  -35.2992   24.7923 C   0  0  0  0  0  0  0  0  0  0  0  0
  -26.8446  -34.0484   24.6779 C   0  0  0  0  0  0  0  0  0  0  0  0
  -24.0231  -12.8183   20.8169 C   0  0  0  0  0  0  0  0  0  0  0  0
  -26.4297  -12.6552   20.9523 C   0  0  0  0  0  0  0  0  0  0  0  0
  -24.8621  -35.4214   24.6806 C   0  0  0  0  0  0  0  0  0  0  0  0
  -26.0586  -32.9188   24.4529 C   0  0  0  0  0  0  0  0  0  0  0  0
  -27.9901  -29.8869   20.8862 C   0  0  0  0  0  0  0  0  0  0  0  0
  -30.6446  -21.8026   17.4591 C   0  0  0  0  0  0  0  0  0  0  0  0
  -31.0631  -22.8429   18.2886 C   0  0  0  0  0  0  0  0  0  0  0  0
  -23.9357  -11.4312   20.6987 C   0  0  0  0  0  0  0  0  0  0  0  0
  -26.3424  -11.2681   20.8341 C   0  0  0  0  0  0  0  0  0  0  0  0
  -29.0531  -29.0644   21.2569 C   0  0  0  0  0  0  0  0  0  0  0  0
  -24.0883   -8.7425   22.7433 C   0  0  0  0  0  0  0  0  0  0  0  0
  -23.1255   -8.0859   23.5098 C   0  0  0  0  0  0  0  0  0  0  0  0
  -27.5292  -27.2085   21.4863 C   0  0  0  0  0  0  0  0  0  0  0  0
  -31.5812  -21.2477   20.0277 C   0  0  0  0  0  0  0  0  0  0  0  0
  -22.0931   -7.2458   21.4935 C   0  0  0  0  0  0  0  0  0  0  0  0
  -25.2701  -13.4303   20.9437 C   0  0  0  0  0  0  0  0  0  0  0  0
  -25.3455  -15.6182   22.2533 C   0  0  0  0  0  0  0  0  0  0  0  0
  -24.0595  -34.2940   24.4445 C   0  0  0  0  0  0  0  0  0  0  0  0
  -26.6849  -29.3781   20.8232 C   0  0  0  0  0  0  0  0  0  0  0  0
  -24.6620  -33.0258   24.3393 C   0  0  0  0  0  0  0  0  0  0  0  0
  -26.4518  -28.0259   21.1120 C   0  0  0  0  0  0  0  0  0  0  0  0
  -30.6942  -20.4848   17.9139 C   0  0  0  0  0  0  0  0  0  0  0  0
  -31.5314  -22.5655   19.5729 C   0  0  0  0  0  0  0  0  0  0  0  0
  -25.0953  -10.6561   20.7073 C   0  0  0  0  0  0  0  0  0  0  0  0
  -28.8223  -27.7257   21.5598 C   0  0  0  0  0  0  0  0  0  0  0  0
  -24.0534   -8.6508   21.3518 C   0  0  0  0  0  0  0  0  0  0  0  0
  -31.1626  -20.2074   19.1981 C   0  0  0  0  0  0  0  0  0  0  0  0
  -22.1279   -7.3376   22.8849 C   0  0  0  0  0  0  0  0  0  0  0  0
  -23.0559   -7.9024   20.7270 C   0  0  0  0  0  0  0  0  0  0  0  0
  -25.3610  -14.8631   21.0652 C   0  0  0  0  0  0  0  0  0  0  0  0
  -25.4583  -16.9211   21.8336 C   0  0  0  0  0  0  0  0  0  0  0  0
  -31.9704  -25.9727   21.2748 C   0  0  0  0  0  0  0  0  0  0  0  0
  -33.1470  -25.8012   21.9206 C   0  0  0  0  0  0  0  0  0  0  0  0
  -31.4090  -24.9261   20.3405 C   0  0  0  0  0  0  0  0  0  0  0  0
  -25.2389  -15.1809   23.6146 C   0  0  0  0  0  0  0  0  0  0  0  0
  -23.9572  -30.0066   22.3292 C   0  0  0  0  0  0  0  0  0  0  0  0
  -22.7419  -27.8908   20.1918 C   0  0  0  0  0  0  0  0  0  0  0  0
  -23.2884  -25.2574   18.0910 C   0  0  0  0  0  0  0  0  0  0  0  0
  -27.7627  -19.4345   16.9118 C   0  0  0  0  0  0  0  0  0  0  0  0
  -22.5630  -34.4693   24.3783 C   0  0  0  0  0  0  0  0  0  0  0  0
  -25.5531  -30.2718   20.3956 C   0  0  0  0  0  0  0  0  0  0  0  0
  -25.0722  -27.4259   21.0397 C   0  0  0  0  0  0  0  0  0  0  0  0
  -33.8704  -24.4814   21.7470 C   0  0  0  0  0  0  0  0  0  0  0  0
  -21.8363  -33.2745   23.7663 C   0  0  0  0  0  0  0  0  0  0  0  0
  -24.4309  -19.7621   18.1236 C   0  0  0  0  0  0  0  0  0  0  0  0
  -22.3529  -31.9708   24.3666 C   0  0  0  0  0  0  0  0  0  0  0  0
  -24.2901  -18.6118   19.1221 C   0  0  0  0  0  0  0  0  0  0  0  0
  -32.8968  -23.3355   21.5122 C   0  0  0  0  0  0  0  0  0  0  0  0
  -25.2865  -19.3653   16.9225 C   0  0  0  0  0  0  0  0  0  0  0  0
  -26.4733  -17.6691   18.2598 C   0  0  0  0  0  0  0  0  0  0  0  0
  -23.8455  -31.7804   24.0705 C   0  0  1  0  0  0  0  0  0  0  0  0
  -24.1890  -29.7735   20.8631 C   0  0  1  0  0  0  0  0  0  0  0  0
  -25.6651  -18.0391   19.5152 C   0  0  2  0  0  0  0  0  0  0  0  0
  -22.0944  -23.7206   16.5067 C   0  0  0  0  0  0  0  0  0  0  0  0
  -21.5760  -26.3596   22.5596 C   0  0  0  0  0  0  0  0  0  0  0  0
  -21.2401  -24.4003   21.0377 C   0  0  0  0  0  0  0  0  0  0  0  0
  -20.0519  -26.5466   20.5857 C   0  0  0  0  0  0  0  0  0  0  0  0
  -24.9307  -26.1558   15.7987 C   0  0  0  0  0  0  0  0  0  0  0  0
  -31.7092  -18.7331   20.9824 C   0  0  0  0  0  0  0  0  0  0  0  0
  -30.2419  -19.3841   17.0123 C   0  0  0  0  0  0  0  0  0  0  0  0
  -31.1411  -27.2292   21.3796 C   0  0  0  0  0  0  0  0  0  1  0  0
  -22.5402  -26.3949   20.1648 C   0  0  1  0  0  0  0  0  0  0  0  0
  -22.8773  -25.0166   16.6497 C   0  0  2  0  0  0  0  0  0  0  0  0
  -21.3779  -25.9368   21.0903 C   0  0  0  0  0  0  0  0  0  0  0  0
  -25.4745  -15.6231   19.9727 N   0  0  0  0  0  0  0  0  0  0  0  0
  -25.5312  -16.8693   20.4726 N   0  0  0  0  0  0  0  0  0  0  0  0
  -31.9634  -23.6415   20.4308 N   0  0  0  0  0  0  0  0  0  0  0  0
  -23.9975  -28.3418   20.6229 N   0  0  0  0  0  0  0  0  0  0  0  0
  -26.5774  -18.8316   17.3639 N   0  0  0  0  0  0  0  0  0  0  0  0
  -25.5010  -18.0946   22.4996 N   0  0  0  0  0  0  0  0  0  0  0  0
  -25.1308  -13.8067   23.8684 N   0  0  0  0  0  0  0  0  0  0  0  0
  -24.0374  -31.3333   22.7076 N   0  0  0  0  0  0  0  0  0  0  0  0
  -22.3662  -26.0318   18.7626 N   0  0  0  0  0  0  0  0  0  0  0  0
  -28.9420  -18.8707   17.3831 N   0  0  0  0  0  0  0  0  0  0  0  0
  -24.0806  -24.9378   15.7740 N   0  3  0  0  0  0  0  0  0  0  0  0
  -33.7898  -26.5686   22.6914 O   0  5  0  0  0  0  0  0  0  0  0  0
  -30.4777  -25.2510   19.6021 O   0  0  0  0  0  0  0  0  0  0  0  0
  -25.2229  -15.9859   24.5764 O   0  0  0  0  0  0  0  0  0  0  0  0
  -23.7215  -29.0536   23.0627 O   0  0  0  0  0  0  0  0  0  0  0  0
  -21.8218  -28.6316   19.8366 O   0  0  0  0  0  0  0  0  0  0  0  0
  -24.3223  -24.8010   18.5739 O   0  0  0  0  0  0  0  0  0  0  0  0
  -27.7695  -20.4068   16.1493 O   0  0  0  0  0  0  0  0  0  0  0  0
  -25.0105   -9.3025   20.5923 O   0  0  0  0  0  0  0  0  0  0  0  0
  -31.2172  -18.9259   19.6577 O   0  0  0  0  0  0  0  0  0  0  0  0
  -29.8580  -26.9210   21.9226 O   0  0  0  0  0  0  0  0  0  1  0  0
  -21.2044   -6.7059   23.6212 F   0  0  0  0  0  0  0  0  0  0  0  0
  -23.0180   -7.8097   19.3906 F   0  0  0  0  0  0  0  0  0  0  0  0
  1  2  1  0  0  0  0
  1  5  2  0  0  0  0
  2  6  2  0  0  0  0
  3 10  2  0  0  0  0
  3 18  1  0  0  0  0
  4 11  1  0  0  0  0
  4 18  2  0  0  0  0
  5 20  1  0  0  0  0
  6 22  1  0  0  0  0
  7 12  2  0  0  0  0
  7 21  1  0  0  0  0
  8  9  2  0  0  0  0
  8 24  1  0  0  0  0
  9 25  1  0  0  0  0
 10 26  1  0  0  0  0
 11 26  2  0  0  0  0
 12 27  1  0  0  0  0
 13 14  2  0  0  0  0
 13 28  1  0  0  0  0
 14 30  1  0  0  0  0
 15 23  1  0  0  0  0
 15 27  2  0  0  0  0
 16 25  2  0  0  0  0
 16 29  1  0  0  0  0
 17 30  2  0  0  0  0
 17 31  1  0  0  0  0
 18 32  1  0  0  0  0
 19 32  1  0  0  0  0
 19 33  2  0  0  0  0
 19 37  1  0  0  0  0
 20 22  2  0  0  0  0
 20 42  1  0  0  0  0
 21 23  2  0  0  0  0
 21 43  1  0  0  0  0
 22 53  1  0  0  0  0
 23 44  1  0  0  0  0
 24 29  2  0  0  0  0
 24 62  1  0  0  0  0
 25 69  1  0  0  0  0
 26 85  1  0  0  0  0
 27 87  1  0  0  0  0
 28 31  2  0  0  0  0
 28 85  1  0  0  0  0
 29 86  1  0  0  0  0
 30 88  1  0  0  0  0
 31 89  1  0  0  0  0
 32 67  2  0  0  0  0
 33 68  1  0  0  0  0
 33 72  1  0  0  0  0
 34 35  2  0  0  0  0
 34 36  1  0  0  0  0
 34 63  1  0  0  0  0
 35 45  1  0  0  0  0
 35 78  1  0  0  0  0
 36 69  1  0  0  0  0
 36 79  2  0  0  0  0
 37 73  1  0  0  0  0
 37 80  2  0  0  0  0
 38 54  1  0  0  0  0
 38 74  1  0  0  0  0
 38 81  2  0  0  0  0
 39 64  1  0  0  0  0
 39 70  1  0  0  0  0
 39 82  2  0  0  0  0
 40 65  1  0  0  0  0
 40 75  1  0  0  0  0
 40 83  2  0  0  0  0
 41 71  1  0  0  0  0
 41 76  1  0  0  0  0
 41 84  2  0  0  0  0
 42 46  1  0  0  0  0
 43 54  1  0  0  0  0
 44 70  1  0  0  0  0
 45 50  1  0  0  0  0
 46 48  1  0  0  0  0
 47 49  1  0  0  0  0
 47 51  1  0  0  0  0
 48 53  1  0  0  0  0
 49 55  1  0  0  0  0
 50 69  1  0  0  0  0
 51 71  1  0  0  0  0
 52 55  1  0  0  0  0
 52 71  1  0  0  0  0
 53 74  1  0  0  0  0
 54 70  1  0  0  0  0
 55 68  1  0  0  0  0
 56 65  1  0  0  0  0
 57 66  1  0  0  0  0
 58 66  1  0  0  0  0
 59 66  1  0  0  0  0
 60 77  1  0  0  0  0
 61 86  1  0  0  0  0
 62 76  1  0  0  0  0
 63 87  1  0  0  0  0
 64 66  1  0  0  0  0
 64 75  1  0  0  0  0
 65 77  1  0  0  0  0
 67 68  1  0  0  0  0
M  CHG  2  77   1  78  -1
M  ISO  4  41 100  63 101  76 100  87 101
M  END
> <Batch ID>
0104

> <Smiles>
CNC(C)C(=O)NC(C(=O)N1Cc2cc([101O:1][101CH2:1]C3C(=O)CCN(c4ccc(C[100NH:0][100C:0](=O)N5CCCC(n6nc(-c7ccc(Oc8ccc(F)cc8F)cc7)c(C(N)=O)c6N)C5)c(OC)c4)C3=O)ccc2CC1C(=O)NC1CCCc2ccccc21)C(C)(C)C

> <Shape>
0.234

> <Color>
0.069

> <Negative vol penalty>
0.000

$$$$

  -OEChem-04052301083D

 83 91  0     1  0  0  0  0  0999 V2000
  -23.3440  -29.2181   24.4654 C   0  0  0  0  0  0  0  0  0  0  0  0
  -24.3026  -28.2127   24.5221 C   0  0  0  0  0  0  0  0  0  0  0  0
  -22.4935  -20.8985   21.0699 C   0  0  0  0  0  0  0  0  0  0  0  0
  -24.8964  -20.8808   21.3202 C   0  0  0  0  0  0  0  0  0  0  0  0
  -23.2450  -30.0182   23.3291 C   0  0  0  0  0  0  0  0  0  0  0  0
  -25.1703  -28.0148   23.4475 C   0  0  0  0  0  0  0  0  0  0  0  0
  -29.4366  -23.7619   22.5321 C   0  0  0  0  0  0  0  0  0  0  0  0
  -29.3542  -11.3834   19.0622 C   0  0  0  0  0  0  0  0  0  0  0  0
  -28.1321  -11.8652   19.5312 C   0  0  0  0  0  0  0  0  0  0  0  0
  -22.4053  -21.9426   21.9905 C   0  0  0  0  0  0  0  0  0  0  0  0
  -24.8082  -21.9250   22.2409 C   0  0  0  0  0  0  0  0  0  0  0  0
  -29.5241  -22.5026   21.9401 C   0  0  0  0  0  0  0  0  0  0  0  0
  -21.5773  -24.8542   24.0035 C   0  0  0  0  0  0  0  0  0  0  0  0
  -20.7385  -25.9243   23.6921 C   0  0  0  0  0  0  0  0  0  0  0  0
  -30.3594  -23.5181   19.9177 C   0  0  0  0  0  0  0  0  0  0  0  0
  -30.4344  -13.4203   19.7842 C   0  0  0  0  0  0  0  0  0  0  0  0
  -22.0361  -26.3620   21.7016 C   0  0  0  0  0  0  0  0  0  0  0  0
  -23.7391  -20.3676   20.7348 C   0  0  0  0  0  0  0  0  0  0  0  0
  -23.9773  -19.3957   18.3882 C   0  0  0  0  0  0  0  0  0  0  0  0
  -24.1041  -29.8212   22.2354 C   0  0  0  0  0  0  0  0  0  0  0  0
  -29.8002  -24.9116   21.8164 C   0  0  0  0  0  0  0  0  0  0  0  0
  -25.1019  -28.8276   22.3014 C   0  0  0  0  0  0  0  0  0  0  0  0
  -30.2781  -24.7905   20.5037 C   0  0  0  0  0  0  0  0  0  0  0  0
  -30.5054  -12.1610   19.1887 C   0  0  0  0  0  0  0  0  0  0  0  0
  -28.0611  -13.1246   20.1267 C   0  0  0  0  0  0  0  0  0  0  0  0
  -23.5626  -22.4559   22.5760 C   0  0  0  0  0  0  0  0  0  0  0  0
  -29.9827  -22.3809   20.6317 C   0  0  0  0  0  0  0  0  0  0  0  0
  -22.6455  -24.5381   23.1641 C   0  0  0  0  0  0  0  0  0  0  0  0
  -29.2123  -13.9022   20.2532 C   0  0  0  0  0  0  0  0  0  0  0  0
  -20.9679  -26.6782   22.5411 C   0  0  0  0  0  0  0  0  0  0  0  0
  -22.8749  -25.2919   22.0131 C   0  0  0  0  0  0  0  0  0  0  0  0
  -23.8309  -19.2886   19.7842 C   0  0  0  0  0  0  0  0  0  0  0  0
  -24.0147  -18.0958   17.9462 C   0  0  0  0  0  0  0  0  0  0  0  0
  -24.0713  -20.5656   17.5646 C   0  0  0  0  0  0  0  0  0  0  0  0
  -28.2761  -27.5290   20.8519 C   0  0  0  0  0  0  0  0  0  0  0  0
  -31.2462  -28.4449   19.9235 C   0  0  0  0  0  0  0  0  0  0  0  0
  -34.4038  -27.5339   19.0037 C   0  0  0  0  0  0  0  0  0  0  0  0
  -25.5824  -12.9457   20.5392 C   0  0  0  0  0  0  0  0  0  0  0  0
  -23.9582  -30.7211   21.0337 C   0  0  0  0  0  0  0  0  0  0  0  0
  -29.7254  -26.2602   22.4784 C   0  0  0  0  0  0  0  0  0  0  0  0
  -30.7001  -25.9920   19.6994 C   0  0  0  0  0  0  0  0  0  0  0  0
  -24.6174  -30.1522   19.7815 C   0  0  0  0  0  0  0  0  0  0  0  0
  -22.4356  -13.7144   19.0615 C   0  0  0  0  0  0  0  0  0  0  0  0
  -26.0372  -29.7068   20.0981 C   0  0  0  0  0  0  0  0  0  0  0  0
  -22.4521  -15.2404   18.9465 C   0  0  0  0  0  0  0  0  0  0  0  0
  -23.1224  -13.2344   20.3388 C   0  0  0  0  0  0  0  0  0  0  0  0
  -24.4987  -15.2757   20.4288 C   0  0  0  0  0  0  0  0  0  0  0  0
  -26.0364  -28.5740   21.1323 C   0  0  1  0  0  0  0  0  0  0  0  0
  -29.6354  -27.4112   21.4812 C   0  0  1  0  0  0  0  0  0  0  0  0
  -23.8755  -15.8037   19.1263 C   0  0  2  0  0  0  0  0  0  0  0  0
  -31.8118  -11.6455   18.6871 C   0  0  0  0  0  0  0  0  0  0  0  0
  -36.5978  -28.5034   18.2664 C   0  0  0  0  0  0  0  0  0  0  0  0
  -30.0850  -28.9559   17.1485 C   0  0  0  0  0  0  0  0  0  0  0  0
  -32.4228  -28.9912   16.2531 C   0  0  0  0  0  0  0  0  0  0  0  0
  -31.7078  -30.6884   17.9356 C   0  0  0  0  0  0  0  0  0  0  0  0
  -35.8208  -26.4069   21.3448 C   0  0  0  0  0  0  0  0  0  0  0  0
  -29.8555  -18.7478   20.0434 C   0  0  0  0  0  0  0  0  0  0  0  0
  -29.4238  -17.5233   20.8427 C   0  0  0  0  0  0  0  0  0  0  0  0
  -29.6719  -20.0323   20.8406 C   0  0  0  0  0  0  0  0  0  1  0  0
  -29.5666  -16.2433   20.0314 C   0  0  0  0  0  0  0  0  0  0  0  0
  -32.0669  -28.2946   18.6654 C   0  0  1  0  0  0  0  0  0  0  0  0
  -35.7663  -28.0329   19.4496 C   0  0  2  0  0  0  0  0  0  0  0  0
  -31.5609  -29.2099   17.5148 C   0  0  0  0  0  0  0  0  0  0  0  0
  -23.7786  -18.0209   20.2015 N   0  0  0  0  0  0  0  0  0  0  0  0
  -23.8927  -17.3194   19.0608 N   0  0  0  0  0  0  0  0  0  0  0  0
  -30.6026  -27.2893   20.3885 N   0  0  0  0  0  0  0  0  0  0  0  0
  -24.4676  -13.8048   20.4394 N   0  0  0  0  0  0  0  0  0  0  0  0
  -24.1395  -17.5526   16.7166 N   0  0  0  0  0  0  0  0  0  0  0  0
  -24.0156  -21.8230   18.1812 N   0  0  0  0  0  0  0  0  0  0  0  0
  -26.8120  -13.6010   20.5961 N   0  0  0  0  0  0  0  0  0  0  0  0
  -27.3953  -28.3242   21.5599 N   0  0  0  0  0  0  0  0  0  0  0  0
  -33.4535  -28.5318   19.0518 N   0  0  0  0  0  0  0  0  0  0  0  0
  -36.5128  -26.9476   20.1466 N   0  3  0  0  0  0  0  0  0  0  0  0
  -24.1843  -20.4980   16.3172 O   0  0  0  0  0  0  0  0  0  0  0  0
  -28.0440  -26.9430   19.8009 O   0  0  0  0  0  0  0  0  0  0  0  0
  -31.1843  -29.5454   20.4773 O   0  0  0  0  0  0  0  0  0  0  0  0
  -34.2034  -26.3756   18.6447 O   0  0  0  0  0  0  0  0  0  0  0  0
  -25.4575  -11.7184   20.5444 O   0  0  0  0  0  0  0  0  0  0  0  0
  -23.4769  -23.4749   23.4742 O   0  0  0  0  0  0  0  0  0  0  0  0
  -30.0685  -21.1530   20.0513 O   0  0  0  0  0  0  0  0  0  1  0  0
  -29.1641  -15.1425   20.8347 O   0  0  0  0  0  0  0  0  0  0  0  0
  -20.1614  -27.7048   22.2413 F   0  0  0  0  0  0  0  0  0  0  0  0
  -23.8988  -24.9923   21.2022 F   0  0  0  0  0  0  0  0  0  0  0  0
  1  2  1  0  0  0  0
  1  5  2  0  0  0  0
  2  6  2  0  0  0  0
  3 10  2  0  0  0  0
  3 18  1  0  0  0  0
  4 11  1  0  0  0  0
  4 18  2  0  0  0  0
  5 20  1  0  0  0  0
  6 22  1  0  0  0  0
  7 12  2  0  0  0  0
  7 21  1  0  0  0  0
  8  9  2  0  0  0  0
  8 24  1  0  0  0  0
  9 25  1  0  0  0  0
 10 26  1  0  0  0  0
 11 26  2  0  0  0  0
 12 27  1  0  0  0  0
 13 14  2  0  0  0  0
 13 28  1  0  0  0  0
 14 30  1  0  0  0  0
 15 23  1  0  0  0  0
 15 27  2  0  0  0  0
 16 24  2  0  0  0  0
 16 29  1  0  0  0  0
 17 30  2  0  0  0  0
 17 31  1  0  0  0  0
 18 32  1  0  0  0  0
 19 32  1  0  0  0  0
 19 33  2  0  0  0  0
 19 34  1  0  0  0  0
 20 22  2  0  0  0  0
 20 39  1  0  0  0  0
 21 23  2  0  0  0  0
 21 40  1  0  0  0  0
 22 48  1  0  0  0  0
 23 41  1  0  0  0  0
 24 51  1  0  0  0  0
 25 29  2  0  0  0  0
 25 70  1  0  0  0  0
 26 79  1  0  0  0  0
 27 80  1  0  0  0  0
 28 31  2  0  0  0  0
 28 79  1  0  0  0  0
 29 81  1  0  0  0  0
 30 82  1  0  0  0  0
 31 83  1  0  0  0  0
 32 64  2  0  0  0  0
 33 65  1  0  0  0  0
 33 68  1  0  0  0  0
 34 69  1  0  0  0  0
 34 74  2  0  0  0  0
 35 49  1  0  0  0  0
 35 71  1  0  0  0  0
 35 75  2  0  0  0  0
 36 61  1  0  0  0  0
 36 66  1  0  0  0  0
 36 76  2  0  0  0  0
 37 62  1  0  0  0  0
 37 72  1  0  0  0  0
 37 77  2  0  0  0  0
 38 67  1  0  0  0  0
 38 70  1  0  0  0  0
 38 78  2  0  0  0  0
 39 42  1  0  0  0  0
 40 49  1  0  0  0  0
 41 66  1  0  0  0  0
 42 44  1  0  0  0  0
 43 45  1  0  0  0  0
 43 46  1  0  0  0  0
 44 48  1  0  0  0  0
 45 50  1  0  0  0  0
 46 67  1  0  0  0  0
 47 50  1  0  0  0  0
 47 67  1  0  0  0  0
 48 71  1  0  0  0  0
 49 66  1  0  0  0  0
 50 65  1  0  0  0  0
 52 62  1  0  0  0  0
 53 63  1  0  0  0  0
 54 63  1  0  0  0  0
 55 63  1  0  0  0  0
 56 73  1  0  0  0  0
 57 58  1  0  0  0  0
 57 59  1  0  0  0  0
 58 60  1  0  0  0  0
 59 80  1  0  0  0  0
 60 81  1  0  0  0  0
 61 63  1  0  0  0  0
 61 72  1  0  0  0  0
 62 73  1  0  0  0  0
 64 65  1  0  0  0  0
M  CHG  1  73   1
M  ISO  4  38 100  59 101  70 100  80 101
M  END
> <Batch ID>
0104

> <Smiles>
CNC(C)C(=O)NC(C(=O)N1Cc2cc([101O:1][101CH2:1]CCCOc3cc(C)ccc3[100NH:0][100C:0](=O)N3CCCC(n4nc(-c5ccc(Oc6ccc(F)cc6F)cc5)c(C(N)=O)c4N)C3)ccc2CC1C(=O)NC1CCCc2ccccc21)C(C)(C)C

> <Shape>
0.222

> <Color>
0.071

> <Negative vol penalty>
0.000

$$$$

  -OEChem-04052301083D

 85 94  0     1  0  0  0  0  0999 V2000
  -28.8684  -34.3541   25.8768 C   0  0  0  0  0  0  0  0  0  0  0  0
  -28.8713  -33.0907   25.2944 C   0  0  0  0  0  0  0  0  0  0  0  0
  -23.1427   -8.9587   19.4713 C   0  0  0  0  0  0  0  0  0  0  0  0
  -24.6779   -8.4502   21.2662 C   0  0  0  0  0  0  0  0  0  0  0  0
  -27.6593  -34.9696   26.1981 C   0  0  0  0  0  0  0  0  0  0  0  0
  -27.6650  -32.4415   25.0340 C   0  0  0  0  0  0  0  0  0  0  0  0
  -27.5531  -30.3216   20.4363 C   0  0  0  0  0  0  0  0  0  0  0  0
  -27.7165  -19.7249   19.0186 C   0  0  0  0  0  0  0  0  0  0  0  0
  -27.8398  -18.3422   19.1547 C   0  0  0  0  0  0  0  0  0  0  0  0
  -22.0858   -8.4633   20.2348 C   0  0  0  0  0  0  0  0  0  0  0  0
  -23.6209   -7.9547   22.0298 C   0  0  0  0  0  0  0  0  0  0  0  0
  -28.2298  -29.1133   20.2757 C   0  0  0  0  0  0  0  0  0  0  0  0
  -21.7823   -5.1224   22.1980 C   0  0  0  0  0  0  0  0  0  0  0  0
  -21.9754   -3.9121   22.8638 C   0  0  0  0  0  0  0  0  0  0  0  0
  -26.1399  -27.9241   20.4691 C   0  0  0  0  0  0  0  0  0  0  0  0
  -30.0867  -19.9752   19.4143 C   0  0  0  0  0  0  0  0  0  0  0  0
  -21.5758   -5.0113   24.9778 C   0  0  0  0  0  0  0  0  0  0  0  0
  -24.4388   -8.9521   19.9869 C   0  0  0  0  0  0  0  0  0  0  0  0
  -25.9636   -8.9977   17.9423 C   0  0  0  0  0  0  0  0  0  0  0  0
  -26.4373  -34.3317   25.9325 C   0  0  0  0  0  0  0  0  0  0  0  0
  -26.1638  -30.3396   20.6258 C   0  0  0  0  0  0  0  0  0  0  0  0
  -26.4385  -33.0484   25.3532 C   0  0  0  0  0  0  0  0  0  0  0  0
  -25.4476  -29.1341   20.6293 C   0  0  0  0  0  0  0  0  0  0  0  0
  -30.2100  -18.5924   19.5505 C   0  0  0  0  0  0  0  0  0  0  0  0
  -28.8400  -20.5414   19.1484 C   0  0  0  0  0  0  0  0  0  0  0  0
  -29.0865  -17.7760   19.4207 C   0  0  0  0  0  0  0  0  0  0  0  0
  -22.3249   -7.9613   21.5141 C   0  0  0  0  0  0  0  0  0  0  0  0
  -27.5236  -27.9141   20.2949 C   0  0  0  0  0  0  0  0  0  0  0  0
  -21.4860   -6.2773   22.9221 C   0  0  0  0  0  0  0  0  0  0  0  0
  -21.8721   -3.8565   24.2537 C   0  0  0  0  0  0  0  0  0  0  0  0
  -21.3827   -6.2216   24.3120 C   0  0  0  0  0  0  0  0  0  0  0  0
  -25.5311   -9.4633   19.1985 C   0  0  0  0  0  0  0  0  0  0  0  0
  -27.0242   -9.8093   17.6218 C   0  0  0  0  0  0  0  0  0  0  0  0
  -28.4180  -24.7579   18.8307 C   0  0  0  0  0  0  0  0  0  0  0  0
  -27.8373  -25.9395   19.0811 C   0  0  0  0  0  0  0  0  0  1  0  0
  -25.4521   -7.9274   17.1370 C   0  0  0  0  0  0  0  0  0  0  0  0
  -24.2297  -31.3123   22.9532 C   0  0  0  0  0  0  0  0  0  0  0  0
  -21.9133  -30.5859   20.8016 C   0  0  0  0  0  0  0  0  0  0  0  0
  -20.9693  -28.7938   18.0549 C   0  0  0  0  0  0  0  0  0  0  0  0
  -28.1688  -15.4220   19.4507 C   0  0  0  0  0  0  0  0  0  0  0  0
  -25.1571  -35.0165   26.3408 C   0  0  0  0  0  0  0  0  0  0  0  0
  -25.4451  -31.6529   20.7708 C   0  0  0  0  0  0  0  0  0  0  0  0
  -23.9526  -29.1004   20.8091 C   0  0  0  0  0  0  0  0  0  0  0  0
  -28.0348  -23.8900   17.6660 C   0  0  0  0  0  0  0  0  0  0  0  0
  -29.4927  -24.1742   19.7036 C   0  0  0  0  0  0  0  0  0  0  0  0
  -23.9124  -34.4199   25.6888 C   0  0  0  0  0  0  0  0  0  0  0  0
  -30.1303  -12.2647   20.4037 C   0  0  0  0  0  0  0  0  0  0  0  0
  -23.9401  -32.8975   25.7790 C   0  0  0  0  0  0  0  0  0  0  0  0
  -29.4973  -11.2704   19.4330 C   0  0  0  0  0  0  0  0  0  0  0  0
  -27.6745  -22.4764   18.1297 C   0  0  0  0  0  0  0  0  0  0  0  0
  -29.1173  -22.7623   20.1575 C   0  0  0  0  0  0  0  0  0  0  0  0
  -29.9925  -13.7049   19.9266 C   0  0  0  0  0  0  0  0  0  0  0  0
  -27.6199  -12.9988   19.5681 C   0  0  0  0  0  0  0  0  0  0  0  0
  -25.1499  -32.3225   25.0324 C   0  0  1  0  0  0  0  0  0  0  0  0
  -24.0962  -31.5218   21.4713 C   0  0  1  0  0  0  0  0  0  0  0  0
  -28.1842  -11.7861   18.8117 C   0  0  2  0  0  0  0  0  0  0  0  0
  -31.5580  -18.0130   19.8338 C   0  0  0  0  0  0  0  0  0  0  0  0
  -19.0026  -28.3827   16.5515 C   0  0  0  0  0  0  0  0  0  0  0  0
  -20.6357  -28.8411   22.9541 C   0  0  0  0  0  0  0  0  0  0  0  0
  -19.2747  -27.7463   21.1605 C   0  0  0  0  0  0  0  0  0  0  0  0
  -19.0162  -30.1872   21.6052 C   0  0  0  0  0  0  0  0  0  0  0  0
  -22.4266  -29.7955   15.6818 C   0  0  0  0  0  0  0  0  0  0  0  0
  -21.1134  -29.3497   20.4684 C   0  0  1  0  0  0  0  0  0  0  0  0
  -20.2607  -29.2067   16.7775 C   0  0  2  0  0  0  0  0  0  0  0  0
  -20.0384  -29.0313   21.5456 C   0  0  0  0  0  0  0  0  0  0  0  0
  -26.2578  -10.4909   19.6456 N   0  0  0  0  0  0  0  0  0  0  0  0
  -27.1577  -10.6776   18.6651 N   0  0  0  0  0  0  0  0  0  0  0  0
  -28.7162  -21.9297   19.0111 N   0  0  0  0  0  0  0  0  0  0  0  0
  -23.2961  -30.4102   20.9533 N   0  0  0  0  0  0  0  0  0  0  0  0
  -28.6028  -14.0865   19.6360 N   0  0  0  0  0  0  0  0  0  0  0  0
  -27.8466   -9.8578   16.5523 N   0  0  0  0  0  0  0  0  0  0  0  0
  -24.3574   -7.1949   17.6161 N   0  0  0  0  0  0  0  0  0  0  0  0
  -29.1913  -16.3688   19.5538 N   0  0  0  0  0  0  0  0  0  0  0  0
  -24.9100  -32.3229   23.6053 N   0  0  0  0  0  0  0  0  0  0  0  0
  -20.5734  -29.5615   19.1297 N   0  0  0  0  0  0  0  0  0  0  0  0
  -21.1601  -29.0230   15.6036 N   0  3  0  0  0  0  0  0  0  0  0  0
  -25.9614   -7.6187   16.0330 O   0  0  0  0  0  0  0  0  0  0  0  0
  -23.7496  -30.3088   23.4671 O   0  0  0  0  0  0  0  0  0  0  0  0
  -21.3337  -31.6687   20.9159 O   0  0  0  0  0  0  0  0  0  0  0  0
  -21.7892  -27.8791   18.0960 O   0  0  0  0  0  0  0  0  0  0  0  0
  -26.9907  -15.6925   19.2084 O   0  0  0  0  0  0  0  0  0  0  0  0
  -21.2937   -7.4780   22.2595 O   0  0  0  0  0  0  0  0  0  0  0  0
  -28.1817  -26.7332   20.1390 O   0  0  0  0  0  0  0  0  0  1  0  0
  -22.0561   -2.6938   24.8928 F   0  0  0  0  0  0  0  0  0  0  0  0
  -21.0971   -7.3275   25.0129 F   0  0  0  0  0  0  0  0  0  0  0  0
  1  2  1  0  0  0  0
  1  5  2  0  0  0  0
  2  6  2  0  0  0  0
  3 10  2  0  0  0  0
  3 18  1  0  0  0  0
  4 11  1  0  0  0  0
  4 18  2  0  0  0  0
  5 20  1  0  0  0  0
  6 22  1  0  0  0  0
  7 12  2  0  0  0  0
  7 21  1  0  0  0  0
  8  9  2  0  0  0  0
  8 25  1  0  0  0  0
  9 26  1  0  0  0  0
 10 27  1  0  0  0  0
 11 27  2  0  0  0  0
 12 28  1  0  0  0  0
 13 14  2  0  0  0  0
 13 29  1  0  0  0  0
 14 30  1  0  0  0  0
 15 23  1  0  0  0  0
 15 28  2  0  0  0  0
 16 24  1  0  0  0  0
 16 25  2  0  0  0  0
 17 30  2  0  0  0  0
 17 31  1  0  0  0  0
 18 32  1  0  0  0  0
 19 32  1  0  0  0  0
 19 33  2  0  0  0  0
 19 36  1  0  0  0  0
 20 22  2  0  0  0  0
 20 41  1  0  0  0  0
 21 23  2  0  0  0  0
 21 42  1  0  0  0  0
 22 54  1  0  0  0  0
 23 43  1  0  0  0  0
 24 26  2  0  0  0  0
 24 57  1  0  0  0  0
 25 68  1  0  0  0  0
 26 73  1  0  0  0  0
 27 82  1  0  0  0  0
 28 83  1  0  0  0  0
 29 31  2  0  0  0  0
 29 82  1  0  0  0  0
 30 84  1  0  0  0  0
 31 85  1  0  0  0  0
 32 66  2  0  0  0  0
 33 67  1  0  0  0  0
 33 71  1  0  0  0  0
 34 35  2  0  0  0  0
 34 44  1  0  0  0  0
 34 45  1  0  0  0  0
 35 83  1  0  0  0  0
 36 72  1  0  0  0  0
 36 77  2  0  0  0  0
 37 55  1  0  0  0  0
 37 74  1  0  0  0  0
 37 78  2  0  0  0  0
 38 63  1  0  0  0  0
 38 69  1  0  0  0  0
 38 79  2  0  0  0  0
 39 64  1  0  0  0  0
 39 75  1  0  0  0  0
 39 80  2  0  0  0  0
 40 70  1  0  0  0  0
 40 73  1  0  0  0  0
 40 81  2  0  0  0  0
 41 46  1  0  0  0  0
 42 55  1  0  0  0  0
 43 69  1  0  0  0  0
 44 50  1  0  0  0  0
 45 51  1  0  0  0  0
 46 48  1  0  0  0  0
 47 49  1  0  0  0  0
 47 52  1  0  0  0  0
 48 54  1  0  0  0  0
 49 56  1  0  0  0  0
 50 68  1  0  0  0  0
 51 68  1  0  0  0  0
 52 70  1  0  0  0  0
 53 56  1  0  0  0  0
 53 70  1  0  0  0  0
 54 74  1  0  0  0  0
 55 69  1  0  0  0  0
 56 67  1  0  0  0  0
 58 64  1  0  0  0  0
 59 65  1  0  0  0  0
 60 65  1  0  0  0  0
 61 65  1  0  0  0  0
 62 76  1  0  0  0  0
 63 65  1  0  0  0  0
 63 75  1  0  0  0  0
 64 76  1  0  0  0  0
 66 67  1  0  0  0  0
M  CHG  1  76   1
M  ISO  4  35 101  40 100  73 100  83 101
M  END
> <Batch ID>
0104

> <Smiles>
CNC(C)C(=O)NC(C(=O)N1Cc2cc([101O:1][101CH:1]=C3CCN(c4ccc([100NH:0][100C:0](=O)N5CCCC(n6nc(-c7ccc(Oc8ccc(F)cc8F)cc7)c(C(N)=O)c6N)C5)c(C)c4)CC3)ccc2CC1C(=O)NC1CCCc2ccccc21)C(C)(C)C

> <Shape>
0.331

> <Color>
0.102

> <Negative vol penalty>
0.000

$$$$

  -OEChem-04052301083D

 86 95  0     1  0  0  0  0  0999 V2000
  -21.1525  -35.4798   21.6363 C   0  0  0  0  0  0  0  0  0  0  0  0
  -22.3430  -34.8189   21.3512 C   0  0  0  0  0  0  0  0  0  0  0  0
  -26.8324  -11.1147   20.6713 C   0  0  0  0  0  0  0  0  0  0  0  0
  -25.6690  -13.2017   20.3139 C   0  0  0  0  0  0  0  0  0  0  0  0
  -20.2053  -34.8807   22.4658 C   0  0  0  0  0  0  0  0  0  0  0  0
  -22.5876  -33.5590   21.8964 C   0  0  0  0  0  0  0  0  0  0  0  0
  -25.6225  -28.9356   19.2661 C   0  0  0  0  0  0  0  0  0  0  0  0
  -25.7224  -10.6121   21.3501 C   0  0  0  0  0  0  0  0  0  0  0  0
  -24.5589  -12.6991   20.9927 C   0  0  0  0  0  0  0  0  0  0  0  0
  -26.9357  -28.4841   19.3908 C   0  0  0  0  0  0  0  0  0  0  0  0
  -22.7012   -9.3122   20.5656 C   0  0  0  0  0  0  0  0  0  0  0  0
  -22.2840   -8.0175   20.2568 C   0  0  0  0  0  0  0  0  0  0  0  0
  -29.2246  -21.5337   18.9894 C   0  0  0  0  0  0  0  0  0  0  0  0
  -27.3997  -22.7178   17.9387 C   0  0  0  0  0  0  0  0  0  0  0  0
  -26.2133  -26.8487   21.0102 C   0  0  0  0  0  0  0  0  0  0  0  0
  -27.6913  -20.3523   17.5436 C   0  0  0  0  0  0  0  0  0  0  0  0
  -22.6421   -7.3546   22.5523 C   0  0  0  0  0  0  0  0  0  0  0  0
  -26.8057  -12.4096   20.1532 C   0  0  0  0  0  0  0  0  0  0  0  0
  -28.5191  -22.7169   18.7708 C   0  0  0  0  0  0  0  0  0  0  0  0
  -28.5429  -12.4096   18.2851 C   0  0  0  0  0  0  0  0  0  0  0  0
  -20.4343  -33.6087   23.0137 C   0  0  0  0  0  0  0  0  0  0  0  0
  -24.5949  -28.3532   20.0218 C   0  0  0  0  0  0  0  0  0  0  0  0
  -21.6432  -32.9430   22.7351 C   0  0  0  0  0  0  0  0  0  0  0  0
  -24.8875  -27.2928   20.8913 C   0  0  0  0  0  0  0  0  0  0  0  0
  -28.8108  -20.3513   18.3758 C   0  0  0  0  0  0  0  0  0  0  0  0
  -24.5856  -11.4043   21.5108 C   0  0  0  0  0  0  0  0  0  0  0  0
  -27.2317  -27.4425   20.2651 C   0  0  0  0  0  0  0  0  0  0  0  0
  -23.0889   -9.6281   21.8677 C   0  0  0  0  0  0  0  0  0  0  0  0
  -22.2544   -7.0388   21.2501 C   0  0  0  0  0  0  0  0  0  0  0  0
  -26.9857  -21.5355   17.3251 C   0  0  0  0  0  0  0  0  0  0  0  0
  -23.0594   -8.6493   22.8611 C   0  0  0  0  0  0  0  0  0  0  0  0
  -27.9523  -12.9295   19.4525 C   0  0  0  0  0  0  0  0  0  0  0  0
  -29.5919  -13.2570   18.0243 C   0  0  0  0  0  0  0  0  0  0  0  0
  -28.9562  -23.9632   19.4149 C   0  0  0  0  0  0  0  0  0  0  0  0
  -28.1760  -11.2632   17.5061 C   0  0  0  0  0  0  0  0  0  0  0  0
  -22.5683  -29.4007   22.2353 C   0  0  0  0  0  0  0  0  0  0  0  0
  -21.3118  -26.4252   21.9355 C   0  0  0  0  0  0  0  0  0  0  0  0
  -21.7724  -23.1614   21.0510 C   0  0  0  0  0  0  0  0  0  0  0  0
  -30.6584  -18.9746   19.3941 C   0  0  0  0  0  0  0  0  0  0  0  0
  -19.4014  -33.0219   23.9429 C   0  0  0  0  0  0  0  0  0  0  0  0
  -23.1793  -28.8338   19.8559 C   0  0  0  0  0  0  0  0  0  0  0  0
  -23.8171  -26.6203   21.7102 C   0  0  0  0  0  0  0  0  0  0  0  0
  -19.5752  -31.5237   24.1786 C   0  0  0  0  0  0  0  0  0  0  0  0
  -32.6888  -16.1709   20.2271 C   0  0  0  0  0  0  0  0  0  0  0  0
  -31.2094  -25.7209   17.0336 C   0  0  0  0  0  0  0  0  0  0  0  0
  -21.0354  -31.1956   24.4737 C   0  0  0  0  0  0  0  0  0  0  0  0
  -31.7602  -14.9738   20.0109 C   0  0  0  0  0  0  0  0  0  0  0  0
  -31.5986  -26.3135   18.3839 C   0  0  0  0  0  0  0  0  0  0  0  0
  -30.4451  -24.4623   17.4120 C   0  0  0  0  0  0  0  0  0  0  0  0
  -31.9399  -17.3738   20.7978 C   0  0  0  0  0  0  0  0  0  0  0  0
  -29.8194  -16.5818   19.8255 C   0  0  0  0  0  0  0  0  0  0  0  0
  -21.9344  -31.5645   23.2875 C   0  0  1  0  0  0  0  0  0  0  0  0
  -22.2942  -28.5110   21.0559 C   0  0  1  0  0  0  0  0  0  0  0  0
  -30.5157  -15.3668   19.1910 C   0  0  2  0  0  0  0  0  0  0  0  0
  -30.3963  -25.9979   19.2759 C   0  0  1  0  0  0  0  0  0  0  0  0
  -20.5734  -20.9591   20.9525 C   0  0  0  0  0  0  0  0  0  0  0  0
  -21.6075  -26.1317   24.9582 C   0  0  0  0  0  0  0  0  0  0  0  0
  -21.3106  -23.6617   24.6773 C   0  0  0  0  0  0  0  0  0  0  0  0
  -19.4742  -25.2190   24.0251 C   0  0  0  0  0  0  0  0  0  0  0  0
  -22.1078  -22.9784   18.1162 C   0  0  0  0  0  0  0  0  0  0  0  0
  -29.3532  -27.1142   19.2417 C   0  0  0  0  0  0  0  0  0  1  0  0
  -21.5560  -25.0900   22.5963 C   0  0  1  0  0  0  0  0  0  0  0  0
  -20.9427  -22.2237   20.1927 C   0  0  2  0  0  0  0  0  0  0  0  0
  -21.0078  -25.0393   24.0504 C   0  0  0  0  0  0  0  0  0  0  0  0
  -28.5745  -14.0225   19.9023 N   0  0  0  0  0  0  0  0  0  0  0  0
  -29.5670  -14.1962   19.0129 N   0  0  0  0  0  0  0  0  0  0  0  0
  -29.8646  -24.7515   18.7221 N   0  0  0  0  0  0  0  0  0  0  0  0
  -22.4495  -27.1301   21.5175 N   0  0  0  0  0  0  0  0  0  0  0  0
  -30.7761  -17.6907   19.9671 N   0  0  0  0  0  0  0  0  0  0  0  0
  -30.5239  -13.2829   17.0480 N   0  0  0  0  0  0  0  0  0  0  0  0
  -27.0720  -10.5029   17.9152 N   0  0  0  0  0  0  0  0  0  0  0  0
  -29.5271  -19.1491   18.5977 N   0  0  0  0  0  0  0  0  0  0  0  0
  -21.8282  -30.5677   22.2437 N   0  0  0  0  0  0  0  0  0  0  0  0
  -20.9853  -24.0840   21.7071 N   0  0  0  0  0  0  0  0  0  0  0  0
  -21.7008  -21.8331   18.9705 N   0  3  0  0  0  0  0  0  0  0  0  0
  -28.4783  -24.2226   20.5169 O   0  0  0  0  0  0  0  0  0  0  0  0
  -28.8185  -10.9136   16.4870 O   0  0  0  0  0  0  0  0  0  0  0  0
  -23.3892  -29.0535   23.0762 O   0  0  0  0  0  0  0  0  0  0  0  0
  -20.1540  -26.8246   21.7889 O   0  0  0  0  0  0  0  0  0  0  0  0
  -22.9960  -23.0810   21.1342 O   0  0  0  0  0  0  0  0  0  0  0  0
  -31.5133  -19.8459   19.5730 O   0  0  0  0  0  0  0  0  0  0  0  0
  -23.5021  -10.9141   22.1729 O   0  0  0  0  0  0  0  0  0  0  0  0
  -28.5127  -27.0004   20.3893 O   0  0  0  0  0  0  0  0  0  1  0  0
  -21.8523   -5.7959   20.9538 F   0  0  0  0  0  0  0  0  0  0  0  0
  -25.9126  -21.5370   16.5236 F   0  0  0  0  0  0  0  0  0  0  0  0
  -23.4296   -8.9471   24.1141 F   0  0  0  0  0  0  0  0  0  0  0  0
  1  2  1  0  0  0  0
  1  5  2  0  0  0  0
  2  6  2  0  0  0  0
  3  8  2  0  0  0  0
  3 18  1  0  0  0  0
  4  9  1  0  0  0  0
  4 18  2  0  0  0  0
  5 21  1  0  0  0  0
  6 23  1  0  0  0  0
  7 10  2  0  0  0  0
  7 22  1  0  0  0  0
  8 26  1  0  0  0  0
  9 26  2  0  0  0  0
 10 27  1  0  0  0  0
 11 12  2  0  0  0  0
 11 28  1  0  0  0  0
 12 29  1  0  0  0  0
 13 19  2  0  0  0  0
 13 25  1  0  0  0  0
 14 19  1  0  0  0  0
 14 30  2  0  0  0  0
 15 24  1  0  0  0  0
 15 27  2  0  0  0  0
 16 25  2  0  0  0  0
 16 30  1  0  0  0  0
 17 29  2  0  0  0  0
 17 31  1  0  0  0  0
 18 32  1  0  0  0  0
 19 34  1  0  0  0  0
 20 32  1  0  0  0  0
 20 33  2  0  0  0  0
 20 35  1  0  0  0  0
 21 23  2  0  0  0  0
 21 40  1  0  0  0  0
 22 24  2  0  0  0  0
 22 41  1  0  0  0  0
 23 52  1  0  0  0  0
 24 42  1  0  0  0  0
 25 72  1  0  0  0  0
 26 82  1  0  0  0  0
 27 83  1  0  0  0  0
 28 31  2  0  0  0  0
 28 82  1  0  0  0  0
 29 84  1  0  0  0  0
 30 85  1  0  0  0  0
 31 86  1  0  0  0  0
 32 65  2  0  0  0  0
 33 66  1  0  0  0  0
 33 70  1  0  0  0  0
 34 67  1  0  0  0  0
 34 76  2  0  0  0  0
 35 71  1  0  0  0  0
 35 77  2  0  0  0  0
 36 53  1  0  0  0  0
 36 73  1  0  0  0  0
 36 78  2  0  0  0  0
 37 62  1  0  0  0  0
 37 68  1  0  0  0  0
 37 79  2  0  0  0  0
 38 63  1  0  0  0  0
 38 74  1  0  0  0  0
 38 80  2  0  0  0  0
 39 69  1  0  0  0  0
 39 72  1  0  0  0  0
 39 81  2  0  0  0  0
 40 43  1  0  0  0  0
 41 53  1  0  0  0  0
 42 68  1  0  0  0  0
 43 46  1  0  0  0  0
 44 47  1  0  0  0  0
 44 50  1  0  0  0  0
 45 48  1  0  0  0  0
 45 49  1  0  0  0  0
 46 52  1  0  0  0  0
 47 54  1  0  0  0  0
 48 55  1  0  0  0  0
 49 67  1  0  0  0  0
 50 69  1  0  0  0  0
 51 54  1  0  0  0  0
 51 69  1  0  0  0  0
 52 73  1  0  0  0  0
 53 68  1  0  0  0  0
 54 66  1  0  0  0  0
 55 61  1  0  0  0  0
 55 67  1  0  0  0  0
 56 63  1  0  0  0  0
 57 64  1  0  0  0  0
 58 64  1  0  0  0  0
 59 64  1  0  0  0  0
 60 75  1  0  0  0  0
 61 83  1  0  0  0  0
 62 64  1  0  0  0  0
 62 74  1  0  0  0  0
 63 75  1  0  0  0  0
 65 66  1  0  0  0  0
M  CHG  1  75   1
M  ISO  4  39 100  61 101  72 100  83 101
M  END
> <Batch ID>
0104

> <Smiles>
CNC(C)C(=O)NC(C(=O)N1Cc2cc([101O:1][101CH2:1]C3CCCN3C(=O)c3cc(F)cc([100NH:0][100C:0](=O)N4CCCC(n5nc(-c6ccc(Oc7ccc(F)cc7F)cc6)c(C(N)=O)c5N)C4)c3)ccc2CC1C(=O)NC1CCCc2ccccc21)C(C)(C)C

> <Shape>
0.275

> <Color>
0.077

> <Negative vol penalty>
0.000

$$$$

  -OEChem-04052301083D

 89 98  0     1  0  0  0  0  0999 V2000
  -25.7592  -35.5394   21.1605 C   0  0  0  0  0  0  0  0  0  0  0  0
  -26.0673  -34.4266   20.3844 C   0  0  0  0  0  0  0  0  0  0  0  0
  -23.0825   -9.9080   19.9607 C   0  0  0  0  0  0  0  0  0  0  0  0
  -23.8308   -9.9529   22.2574 C   0  0  0  0  0  0  0  0  0  0  0  0
  -26.3532  -35.7016   22.4114 C   0  0  0  0  0  0  0  0  0  0  0  0
  -26.9705  -33.4758   20.8584 C   0  0  0  0  0  0  0  0  0  0  0  0
  -26.7939  -27.4300   19.8981 C   0  0  0  0  0  0  0  0  0  0  0  0
  -31.6854  -18.3377   19.9649 C   0  0  0  0  0  0  0  0  0  0  0  0
  -31.5110  -19.3517   19.0231 C   0  0  0  0  0  0  0  0  0  0  0  0
  -22.3296   -8.7647   20.2283 C   0  0  0  0  0  0  0  0  0  0  0  0
  -23.0779   -8.8096   22.5251 C   0  0  0  0  0  0  0  0  0  0  0  0
  -27.4599  -26.6041   18.9936 C   0  0  0  0  0  0  0  0  0  0  0  0
  -19.3687   -8.0152   21.6790 C   0  0  0  0  0  0  0  0  0  0  0  0
  -18.0640   -7.9686   21.1879 C   0  0  0  0  0  0  0  0  0  0  0  0
  -29.1143  -26.1049   20.6767 C   0  0  0  0  0  0  0  0  0  0  0  0
  -29.2566  -19.7023   19.8181 C   0  0  0  0  0  0  0  0  0  0  0  0
  -18.6172   -5.9973   19.9052 C   0  0  0  0  0  0  0  0  0  0  0  0
  -23.8332  -10.5020   20.9752 C   0  0  0  0  0  0  0  0  0  0  0  0
  -24.1927  -13.0222   20.8097 C   0  0  0  0  0  0  0  0  0  0  0  0
  -27.2568  -34.7474   22.9051 C   0  0  0  0  0  0  0  0  0  0  0  0
  -27.2900  -27.6084   21.1975 C   0  0  0  0  0  0  0  0  0  0  0  0
  -27.5782  -33.6261   22.1166 C   0  0  0  0  0  0  0  0  0  0  0  0
  -28.4514  -26.9316   21.5966 C   0  0  0  0  0  0  0  0  0  0  0  0
  -30.6454  -18.0058   20.8332 C   0  0  0  0  0  0  0  0  0  0  0  0
  -29.4310  -18.6882   20.7598 C   0  0  0  0  0  0  0  0  0  0  0  0
  -30.2967  -20.0340   18.9497 C   0  0  0  0  0  0  0  0  0  0  0  0
  -22.3272   -8.2155   21.5105 C   0  0  0  0  0  0  0  0  0  0  0  0
  -28.6218  -25.9437   19.3819 C   0  0  0  0  0  0  0  0  0  0  0  0
  -20.2977   -7.0529   21.2831 C   0  0  0  0  0  0  0  0  0  0  0  0
  -17.6883   -6.9597   20.3011 C   0  0  0  0  0  0  0  0  0  0  0  0
  -19.9220   -6.0440   20.3963 C   0  0  0  0  0  0  0  0  0  0  0  0
  -24.6116  -11.6827   20.6992 C   0  0  0  0  0  0  0  0  0  0  0  0
  -25.2918  -13.7574   20.4382 C   0  0  0  0  0  0  0  0  0  0  0  0
  -29.1370  -23.1867   17.1019 C   0  0  0  0  0  0  0  0  0  0  0  0
  -29.5410  -22.9216   15.8380 C   0  0  0  0  0  0  0  0  0  0  0  0
  -29.2616  -22.1700   18.2130 C   0  0  0  0  0  0  0  0  0  0  0  0
  -22.9237  -13.5542   21.2123 C   0  0  0  0  0  0  0  0  0  0  0  0
  -28.3529  -30.0929   22.8712 C   0  0  0  0  0  0  0  0  0  0  0  0
  -28.4384  -27.9313   25.2883 C   0  0  0  0  0  0  0  0  0  0  0  0
  -28.6379  -24.6615   26.2452 C   0  0  0  0  0  0  0  0  0  0  0  0
  -30.7813  -14.7431   20.6358 C   0  0  0  0  0  0  0  0  0  0  0  0
  -27.9096  -34.9898   24.2429 C   0  0  0  0  0  0  0  0  0  0  0  0
  -26.5452  -28.4817   22.1697 C   0  0  0  0  0  0  0  0  0  0  0  0
  -29.0140  -27.0736   22.9865 C   0  0  0  0  0  0  0  0  0  0  0  0
  -30.2050  -21.5872   15.5664 C   0  0  0  0  0  0  0  0  0  0  0  0
  -28.5707  -33.7465   24.8323 C   0  0  0  0  0  0  0  0  0  0  0  0
  -29.6396  -12.3219   18.2882 C   0  0  0  0  0  0  0  0  0  0  0  0
  -29.4078  -33.0346   23.7744 C   0  0  0  0  0  0  0  0  0  0  0  0
  -28.1980  -12.0460   18.7191 C   0  0  0  0  0  0  0  0  0  0  0  0
  -30.9611  -21.0791   16.7854 C   0  0  0  0  0  0  0  0  0  0  0  0
  -30.5521  -12.5591   19.4895 C   0  0  0  0  0  0  0  0  0  0  0  0
  -28.6484  -13.3287   20.8523 C   0  0  0  0  0  0  0  0  0  0  0  0
  -28.5342  -32.5603   22.6068 C   0  0  1  0  0  0  0  0  0  0  0  0
  -27.4239  -28.9950   23.3062 C   0  0  1  0  0  0  0  0  0  0  0  0
  -27.6790  -13.1386   19.6731 C   0  0  2  0  0  0  0  0  0  0  0  0
  -28.1549  -19.3685   22.8080 C   0  0  0  0  0  0  0  0  0  0  0  0
  -28.7238  -23.2091   28.2899 C   0  0  0  0  0  0  0  0  0  0  0  0
  -31.3540  -28.7194   25.7227 C   0  0  0  0  0  0  0  0  0  0  0  0
  -31.6433  -26.6337   27.0772 C   0  0  0  0  0  0  0  0  0  0  0  0
  -30.0379  -28.3910   27.8238 C   0  0  0  0  0  0  0  0  0  0  0  0
  -26.1353  -23.2675   25.5020 C   0  0  0  0  0  0  0  0  0  0  0  0
  -28.3043  -18.3515   21.6805 C   0  0  0  0  0  0  0  0  0  0  0  0
  -30.8554  -16.9160   21.8325 C   0  0  0  0  0  0  0  0  0  0  0  0
  -28.4825  -24.4839   17.5096 C   0  0  0  0  0  0  0  0  0  1  0  0
  -29.4660  -26.9609   25.8189 C   0  0  1  0  0  0  0  0  0  0  0  0
  -27.8283  -23.8527   27.2427 C   0  0  2  0  0  0  0  0  0  0  0  0
  -30.6160  -27.6749   26.5838 C   0  0  0  0  0  0  0  0  0  0  0  0
  -25.8779  -11.5706   20.2894 N   0  0  0  0  0  0  0  0  0  0  0  0
  -26.2641  -12.8490   20.1390 N   0  0  0  0  0  0  0  0  0  0  0  0
  -30.1165  -21.0840   17.9774 N   0  0  0  0  0  0  0  0  0  0  0  0
  -28.2533  -27.9436   23.8986 N   0  0  0  0  0  0  0  0  0  0  0  0
  -30.0041  -13.6077   20.3532 N   0  0  0  0  0  0  0  0  0  0  0  0
  -25.5115  -15.0858   20.3413 N   0  0  0  0  0  0  0  0  0  0  0  0
  -21.9039  -12.6583   21.5613 N   0  0  0  0  0  0  0  0  0  0  0  0
  -27.8117  -31.3604   22.9710 N   0  0  0  0  0  0  0  0  0  0  0  0
  -28.7320  -25.9857   26.6181 N   0  0  0  0  0  0  0  0  0  0  0  0
  -30.1842  -15.6916   21.4572 N   0  0  0  0  0  0  0  0  0  0  0  0
  -27.0729  -22.7749   26.5437 N   0  3  0  0  0  0  0  0  0  0  0  0
  -29.4765  -23.6149   14.7839 O   0  5  0  0  0  0  0  0  0  0  0  0
  -28.6502  -22.3825   19.2614 O   0  0  0  0  0  0  0  0  0  0  0  0
  -22.6955  -14.7872   21.2454 O   0  0  0  0  0  0  0  0  0  0  0  0
  -29.4781  -29.8111   22.4758 O   0  0  0  0  0  0  0  0  0  0  0  0
  -27.8177  -28.6468   26.0785 O   0  0  0  0  0  0  0  0  0  0  0  0
  -29.1400  -24.1673   25.2382 O   0  0  0  0  0  0  0  0  0  0  0  0
  -31.9207  -14.9025   20.1849 O   0  0  0  0  0  0  0  0  0  0  0  0
  -21.5925   -7.1001   21.7721 O   0  0  0  0  0  0  0  0  0  0  0  0
  -29.2742  -25.1374   18.5008 O   0  0  0  0  0  0  0  0  0  1  0  0
  -16.4349   -6.9141   19.8308 F   0  0  0  0  0  0  0  0  0  0  0  0
  -20.8097   -5.1161   20.0133 F   0  0  0  0  0  0  0  0  0  0  0  0
  1  2  1  0  0  0  0
  1  5  2  0  0  0  0
  2  6  2  0  0  0  0
  3 10  2  0  0  0  0
  3 18  1  0  0  0  0
  4 11  1  0  0  0  0
  4 18  2  0  0  0  0
  5 20  1  0  0  0  0
  6 22  1  0  0  0  0
  7 12  2  0  0  0  0
  7 21  1  0  0  0  0
  8  9  2  0  0  0  0
  8 24  1  0  0  0  0
  9 26  1  0  0  0  0
 10 27  1  0  0  0  0
 11 27  2  0  0  0  0
 12 28  1  0  0  0  0
 13 14  2  0  0  0  0
 13 29  1  0  0  0  0
 14 30  1  0  0  0  0
 15 23  1  0  0  0  0
 15 28  2  0  0  0  0
 16 25  1  0  0  0  0
 16 26  2  0  0  0  0
 17 30  2  0  0  0  0
 17 31  1  0  0  0  0
 18 32  1  0  0  0  0
 19 32  1  0  0  0  0
 19 33  2  0  0  0  0
 19 37  1  0  0  0  0
 20 22  2  0  0  0  0
 20 42  1  0  0  0  0
 21 23  2  0  0  0  0
 21 43  1  0  0  0  0
 22 53  1  0  0  0  0
 23 44  1  0  0  0  0
 24 25  2  0  0  0  0
 24 63  1  0  0  0  0
 25 62  1  0  0  0  0
 26 70  1  0  0  0  0
 27 86  1  0  0  0  0
 28 87  1  0  0  0  0
 29 31  2  0  0  0  0
 29 86  1  0  0  0  0
 30 88  1  0  0  0  0
 31 89  1  0  0  0  0
 32 68  2  0  0  0  0
 33 69  1  0  0  0  0
 33 73  1  0  0  0  0
 34 35  2  0  0  0  0
 34 36  1  0  0  0  0
 34 64  1  0  0  0  0
 35 45  1  0  0  0  0
 35 79  1  0  0  0  0
 36 70  1  0  0  0  0
 36 80  2  0  0  0  0
 37 74  1  0  0  0  0
 37 81  2  0  0  0  0
 38 54  1  0  0  0  0
 38 75  1  0  0  0  0
 38 82  2  0  0  0  0
 39 65  1  0  0  0  0
 39 71  1  0  0  0  0
 39 83  2  0  0  0  0
 40 66  1  0  0  0  0
 40 76  1  0  0  0  0
 40 84  2  0  0  0  0
 41 72  1  0  0  0  0
 41 77  1  0  0  0  0
 41 85  2  0  0  0  0
 42 46  1  0  0  0  0
 43 54  1  0  0  0  0
 44 71  1  0  0  0  0
 45 50  1  0  0  0  0
 46 48  1  0  0  0  0
 47 49  1  0  0  0  0
 47 51  1  0  0  0  0
 48 53  1  0  0  0  0
 49 55  1  0  0  0  0
 50 70  1  0  0  0  0
 51 72  1  0  0  0  0
 52 55  1  0  0  0  0
 52 72  1  0  0  0  0
 53 75  1  0  0  0  0
 54 71  1  0  0  0  0
 55 69  1  0  0  0  0
 56 62  1  0  0  0  0
 57 66  1  0  0  0  0
 58 67  1  0  0  0  0
 59 67  1  0  0  0  0
 60 67  1  0  0  0  0
 61 78  1  0  0  0  0
 63 77  1  0  0  0  0
 64 87  1  0  0  0  0
 65 67  1  0  0  0  0
 65 76  1  0  0  0  0
 66 78  1  0  0  0  0
 68 69  1  0  0  0  0
M  CHG  2  78   1  79  -1
M  ISO  4  41 100  64 101  77 100  87 101
M  END
> <Batch ID>
0104

> <Smiles>
CCc1cc(N2CCC(=O)C([101CH2:1][101O:1]c3ccc4c(c3)CN(C(=O)C(NC(=O)C(C)NC)C(C)(C)C)C(C(=O)NC3CCCc5ccccc53)C4)C2=O)ccc1C[100NH:0][100C:0](=O)N1CCCC(n2nc(-c3ccc(Oc4ccc(F)cc4F)cc3)c(C(N)=O)c2N)C1

> <Shape>
0.264

> <Color>
0.201

> <Negative vol penalty>
0.000

$$$$

  -OEChem-04052301083D

 84 92  0     1  0  0  0  0  0999 V2000
  -29.6684  -33.3971   23.5591 C   0  0  0  0  0  0  0  0  0  0  0  0
  -29.5428  -32.1214   23.0186 C   0  0  0  0  0  0  0  0  0  0  0  0
  -22.9927  -10.0278   19.8885 C   0  0  0  0  0  0  0  0  0  0  0  0
  -24.0345   -9.5310   22.0110 C   0  0  0  0  0  0  0  0  0  0  0  0
  -28.6576  -33.9122   24.3696 C   0  0  0  0  0  0  0  0  0  0  0  0
  -28.4067  -31.3595   23.2891 C   0  0  0  0  0  0  0  0  0  0  0  0
  -26.5560  -29.0956   19.1546 C   0  0  0  0  0  0  0  0  0  0  0  0
  -31.4890  -18.5028   20.9181 C   0  0  0  0  0  0  0  0  0  0  0  0
  -31.1891  -19.7109   20.2887 C   0  0  0  0  0  0  0  0  0  0  0  0
  -22.2857   -8.8272   19.9544 C   0  0  0  0  0  0  0  0  0  0  0  0
  -23.3275   -8.3304   22.0769 C   0  0  0  0  0  0  0  0  0  0  0  0
  -27.2110  -27.9479   18.7100 C   0  0  0  0  0  0  0  0  0  0  0  0
  -20.2003   -7.3234   22.8689 C   0  0  0  0  0  0  0  0  0  0  0  0
  -19.5964   -6.9946   24.0824 C   0  0  0  0  0  0  0  0  0  0  0  0
  -25.5219  -26.5839   19.7616 C   0  0  0  0  0  0  0  0  0  0  0  0
  -29.0563  -19.7718   21.4221 C   0  0  0  0  0  0  0  0  0  0  0  0
  -20.9199   -4.9764   24.1942 C   0  0  0  0  0  0  0  0  0  0  0  0
  -23.8671  -10.3797   20.9167 C   0  0  0  0  0  0  0  0  0  0  0  0
  -24.1919  -12.8740   21.3421 C   0  0  0  0  0  0  0  0  0  0  0  0
  -27.5041  -33.1600   24.6423 C   0  0  0  0  0  0  0  0  0  0  0  0
  -25.3831  -28.9957   19.9166 C   0  0  0  0  0  0  0  0  0  0  0  0
  -27.3801  -31.8645   24.1051 C   0  0  0  0  0  0  0  0  0  0  0  0
  -24.8526  -27.7319   20.2125 C   0  0  0  0  0  0  0  0  0  0  0  0
  -30.5726  -17.9291   21.7994 C   0  0  0  0  0  0  0  0  0  0  0  0
  -29.3562  -18.5636   22.0514 C   0  0  0  0  0  0  0  0  0  0  0  0
  -29.9728  -20.3454   20.5408 C   0  0  0  0  0  0  0  0  0  0  0  0
  -22.4531   -7.9785   21.0487 C   0  0  0  0  0  0  0  0  0  0  0  0
  -26.6955  -26.6918   19.0159 C   0  0  0  0  0  0  0  0  0  0  0  0
  -21.1640   -6.4787   22.3179 C   0  0  0  0  0  0  0  0  0  0  0  0
  -19.9562   -5.8211   24.7451 C   0  0  0  0  0  0  0  0  0  0  0  0
  -21.5238   -5.3053   22.9806 C   0  0  0  0  0  0  0  0  0  0  0  0
  -24.5981  -11.6196   20.8489 C   0  0  0  0  0  0  0  0  0  0  0  0
  -25.2300  -13.7178   21.0310 C   0  0  0  0  0  0  0  0  0  0  0  0
  -22.9842  -13.2434   22.0209 C   0  0  0  0  0  0  0  0  0  0  0  0
  -24.5360  -29.8645   22.8545 C   0  0  0  0  0  0  0  0  0  0  0  0
  -28.4544  -23.5390   19.2847 C   0  0  0  0  0  0  0  0  0  0  0  0
  -21.6055  -28.8679   21.8842 C   0  0  0  0  0  0  0  0  0  0  0  0
  -19.7591  -26.9140   19.7818 C   0  0  0  0  0  0  0  0  0  0  0  0
  -30.6943  -14.8236   20.7779 C   0  0  0  0  0  0  0  0  0  0  0  0
  -26.4596  -33.7406   25.5624 C   0  0  0  0  0  0  0  0  0  0  0  0
  -24.6739  -30.2437   20.3659 C   0  0  0  0  0  0  0  0  0  0  0  0
  -23.5852  -27.5708   21.0101 C   0  0  0  0  0  0  0  0  0  0  0  0
  -25.1180  -33.0154   25.4954 C   0  0  0  0  0  0  0  0  0  0  0  0
  -29.2653  -13.0177   18.0625 C   0  0  0  0  0  0  0  0  0  0  0  0
  -25.3242  -31.5051   25.5506 C   0  0  0  0  0  0  0  0  0  0  0  0
  -27.8935  -12.5914   18.5882 C   0  0  0  0  0  0  0  0  0  0  0  0
  -30.3261  -12.9837   19.1605 C   0  0  0  0  0  0  0  0  0  0  0  0
  -28.6137  -13.3228   20.9002 C   0  0  0  0  0  0  0  0  0  0  0  0
  -26.1515  -31.0171   24.3553 C   0  0  1  0  0  0  0  0  0  0  0  0
  -23.7680  -30.0149   21.5718 C   0  0  1  0  0  0  0  0  0  0  0  0
  -27.4993  -13.3947   19.8422 C   0  0  2  0  0  0  0  0  0  0  0  0
  -28.3589  -17.9676   22.9899 C   0  0  0  0  0  0  0  0  0  0  0  0
  -17.3887  -26.2827   19.2527 C   0  0  0  0  0  0  0  0  0  0  0  0
  -21.5307  -27.0843   24.3587 C   0  0  0  0  0  0  0  0  0  0  0  0
  -19.6472  -25.8172   23.3029 C   0  0  0  0  0  0  0  0  0  0  0  0
  -19.3737  -28.2381   23.8388 C   0  0  0  0  0  0  0  0  0  0  0  0
  -19.9719  -27.9669   17.0241 C   0  0  0  0  0  0  0  0  0  0  0  0
  -30.9155  -16.6345   22.4603 C   0  0  0  0  0  0  0  0  0  0  0  0
  -28.4466  -22.2728   20.1146 C   0  0  0  0  0  0  0  0  0  0  0  0
  -27.2118  -24.4012   19.3935 C   0  0  0  0  0  0  0  0  0  1  0  0
  -20.8597  -27.5556   21.9105 C   0  0  1  0  0  0  0  0  0  0  0  0
  -18.5405  -27.2221   18.9306 C   0  0  2  0  0  0  0  0  0  0  0  0
  -20.3778  -27.1765   23.3393 C   0  0  0  0  0  0  0  0  0  0  0  0
  -25.8004  -11.6585   20.2684 N   0  0  0  0  0  0  0  0  0  0  0  0
  -26.1586  -12.9476   20.3948 N   0  0  0  0  0  0  0  0  0  0  0  0
  -22.9319  -28.8209   21.4322 N   0  0  0  0  0  0  0  0  0  0  0  0
  -29.8914  -13.7657   20.3205 N   0  0  0  0  0  0  0  0  0  0  0  0
  -25.4300  -15.0360   21.2423 N   0  0  0  0  0  0  0  0  0  0  0  0
  -22.0224  -12.2524   22.2602 N   0  0  0  0  0  0  0  0  0  0  0  0
  -29.6753  -21.5477   19.9152 N   0  0  0  0  0  0  0  0  0  0  0  0
  -25.3304  -30.9516   23.1654 N   0  0  0  0  0  0  0  0  0  0  0  0
  -19.7860  -27.6766   20.9303 N   0  0  0  0  0  0  0  0  0  0  0  0
  -30.2059  -15.5172   21.8784 N   0  0  0  0  0  0  0  0  0  0  0  0
  -18.8704  -27.0826   17.4840 N   0  3  0  0  0  0  0  0  0  0  0  0
  -22.7574  -14.4208   22.3893 O   0  0  0  0  0  0  0  0  0  0  0  0
  -24.4156  -28.8387   23.5140 O   0  0  0  0  0  0  0  0  0  0  0  0
  -29.4007  -23.8573   18.5656 O   0  0  0  0  0  0  0  0  0  0  0  0
  -21.0301  -29.8978   22.2444 O   0  0  0  0  0  0  0  0  0  0  0  0
  -20.6009  -26.0776   19.4618 O   0  0  0  0  0  0  0  0  0  0  0  0
  -31.7644  -15.1308   20.2417 O   0  0  0  0  0  0  0  0  0  0  0  0
  -21.7633   -6.8070   21.1135 O   0  0  0  0  0  0  0  0  0  0  0  0
  -27.3331  -25.5699   18.5838 O   0  0  0  0  0  0  0  0  0  1  0  0
  -19.3772   -5.5062   25.9112 F   0  0  0  0  0  0  0  0  0  0  0  0
  -22.4498   -4.4904   22.4569 F   0  0  0  0  0  0  0  0  0  0  0  0
  1  2  1  0  0  0  0
  1  5  2  0  0  0  0
  2  6  2  0  0  0  0
  3 10  2  0  0  0  0
  3 18  1  0  0  0  0
  4 11  1  0  0  0  0
  4 18  2  0  0  0  0
  5 20  1  0  0  0  0
  6 22  1  0  0  0  0
  7 12  2  0  0  0  0
  7 21  1  0  0  0  0
  8  9  2  0  0  0  0
  8 24  1  0  0  0  0
  9 26  1  0  0  0  0
 10 27  1  0  0  0  0
 11 27  2  0  0  0  0
 12 28  1  0  0  0  0
 13 14  2  0  0  0  0
 13 29  1  0  0  0  0
 14 30  1  0  0  0  0
 15 23  1  0  0  0  0
 15 28  2  0  0  0  0
 16 25  1  0  0  0  0
 16 26  2  0  0  0  0
 17 30  2  0  0  0  0
 17 31  1  0  0  0  0
 18 32  1  0  0  0  0
 19 32  1  0  0  0  0
 19 33  2  0  0  0  0
 19 34  1  0  0  0  0
 20 22  2  0  0  0  0
 20 40  1  0  0  0  0
 21 23  2  0  0  0  0
 21 41  1  0  0  0  0
 22 49  1  0  0  0  0
 23 42  1  0  0  0  0
 24 25  2  0  0  0  0
 24 58  1  0  0  0  0
 25 52  1  0  0  0  0
 26 70  1  0  0  0  0
 27 81  1  0  0  0  0
 28 82  1  0  0  0  0
 29 31  2  0  0  0  0
 29 81  1  0  0  0  0
 30 83  1  0  0  0  0
 31 84  1  0  0  0  0
 32 64  2  0  0  0  0
 33 65  1  0  0  0  0
 33 68  1  0  0  0  0
 34 69  1  0  0  0  0
 34 75  2  0  0  0  0
 35 50  1  0  0  0  0
 35 71  1  0  0  0  0
 35 76  2  0  0  0  0
 36 59  1  0  0  0  0
 36 60  1  0  0  0  0
 36 77  2  0  0  0  0
 37 61  1  0  0  0  0
 37 66  1  0  0  0  0
 37 78  2  0  0  0  0
 38 62  1  0  0  0  0
 38 72  1  0  0  0  0
 38 79  2  0  0  0  0
 39 67  1  0  0  0  0
 39 73  1  0  0  0  0
 39 80  2  0  0  0  0
 40 43  1  0  0  0  0
 41 50  1  0  0  0  0
 42 66  1  0  0  0  0
 43 45  1  0  0  0  0
 44 46  1  0  0  0  0
 44 47  1  0  0  0  0
 45 49  1  0  0  0  0
 46 51  1  0  0  0  0
 47 67  1  0  0  0  0
 48 51  1  0  0  0  0
 48 67  1  0  0  0  0
 49 71  1  0  0  0  0
 50 66  1  0  0  0  0
 51 65  1  0  0  0  0
 53 62  1  0  0  0  0
 54 63  1  0  0  0  0
 55 63  1  0  0  0  0
 56 63  1  0  0  0  0
 57 74  1  0  0  0  0
 58 73  1  0  0  0  0
 59 70  1  0  0  0  0
 60 82  1  0  0  0  0
 61 63  1  0  0  0  0
 61 72  1  0  0  0  0
 62 74  1  0  0  0  0
 64 65  1  0  0  0  0
M  CHG  1  74   1
M  ISO  4  39 100  60 101  73 100  82 101
M  END
> <Batch ID>
0104

> <Smiles>
CNC(C)C(=O)NC(C(=O)N1Cc2cc([101O:1][101CH2:1]C(=O)CNc3ccc(C[100NH:0][100C:0](=O)N4CCCC(n5nc(-c6ccc(Oc7ccc(F)cc7F)cc6)c(C(N)=O)c5N)C4)c(C)c3)ccc2CC1C(=O)NC1CCCc2ccccc21)C(C)(C)C

> <Shape>
0.407

> <Color>
0.182

> <Negative vol penalty>
0.000

$$$$

  -OEChem-04052301083D

 89 98  0     1  0  0  0  0  0999 V2000
  -30.7693  -22.9415   21.6410 C   0  0  0  0  0  0  0  0  0  0  0  0
  -29.4991  -22.3770   21.5823 C   0  0  0  0  0  0  0  0  0  0  0  0
  -27.1233  -28.3501   19.5266 C   0  0  0  0  0  0  0  0  0  0  0  0
  -25.5704  -26.5442   19.9318 C   0  0  0  0  0  0  0  0  0  0  0  0
  -31.8217  -22.3621   20.9335 C   0  0  0  0  0  0  0  0  0  0  0  0
  -29.2804  -21.2333   20.8151 C   0  0  0  0  0  0  0  0  0  0  0  0
  -26.4904  -17.7717   23.2395 C   0  0  0  0  0  0  0  0  0  0  0  0
  -22.5623  -19.0012   16.2193 C   0  0  0  0  0  0  0  0  0  0  0  0
  -21.7975  -18.7146   17.3501 C   0  0  0  0  0  0  0  0  0  0  0  0
  -26.4084  -29.1624   20.4066 C   0  0  0  0  0  0  0  0  0  0  0  0
  -24.8554  -27.3565   20.8119 C   0  0  0  0  0  0  0  0  0  0  0  0
  -25.1143  -17.9886   23.2954 C   0  0  0  0  0  0  0  0  0  0  0  0
  -26.1201  -29.5615   23.7519 C   0  0  0  0  0  0  0  0  0  0  0  0
  -26.8462  -30.3111   24.6773 C   0  0  0  0  0  0  0  0  0  0  0  0
  -24.8011  -16.4308   21.4803 C   0  0  0  0  0  0  0  0  0  0  0  0
  -24.4846  -19.4129   17.6237 C   0  0  0  0  0  0  0  0  0  0  0  0
  -25.9274  -32.3446   23.7512 C   0  0  0  0  0  0  0  0  0  0  0  0
  -26.7043  -27.0410   19.2891 C   0  0  0  0  0  0  0  0  0  0  0  0
  -28.7916  -25.8149   18.4845 C   0  0  0  0  0  0  0  0  0  0  0  0
  -31.6180  -21.2052   20.1649 C   0  0  0  0  0  0  0  0  0  0  0  0
  -27.0341  -16.8895   22.2947 C   0  0  0  0  0  0  0  0  0  0  0  0
  -30.3308  -20.6387   20.0955 C   0  0  0  0  0  0  0  0  0  0  0  0
  -26.1842  -16.2025   21.4162 C   0  0  0  0  0  0  0  0  0  0  0  0
  -23.9058  -19.3503   16.3561 C   0  0  0  0  0  0  0  0  0  0  0  0
  -22.3762  -18.7772   18.6177 C   0  0  0  0  0  0  0  0  0  0  0  0
  -25.2744  -28.6656   21.0493 C   0  0  0  0  0  0  0  0  0  0  0  0
  -24.2697  -17.3202   22.4139 C   0  0  0  0  0  0  0  0  0  0  0  0
  -25.2976  -30.2035   22.8260 C   0  0  0  0  0  0  0  0  0  0  0  0
  -23.7198  -19.1264   18.7545 C   0  0  0  0  0  0  0  0  0  0  0  0
  -26.7499  -31.7026   24.6770 C   0  0  0  0  0  0  0  0  0  0  0  0
  -25.2012  -31.5950   22.8258 C   0  0  0  0  0  0  0  0  0  0  0  0
  -27.4421  -26.2015   18.3796 C   0  0  0  0  0  0  0  0  0  0  0  0
  -29.0092  -25.0252   17.3820 C   0  0  0  0  0  0  0  0  0  0  0  0
  -29.7618  -26.1404   19.4887 C   0  0  0  0  0  0  0  0  0  0  0  0
  -29.0575  -17.1781   19.8603 C   0  0  0  0  0  0  0  0  0  0  0  0
  -28.7945  -13.9463   19.7656 C   0  0  0  0  0  0  0  0  0  0  0  0
  -26.9563  -11.1664   20.5003 C   0  0  0  0  0  0  0  0  0  0  0  0
  -25.3783  -21.7277   13.9476 C   0  0  0  0  0  0  0  0  0  0  0  0
  -32.7759  -20.6422   19.3795 C   0  0  0  0  0  0  0  0  0  0  0  0
  -28.5181  -16.6463   22.2650 C   0  0  0  0  0  0  0  0  0  0  0  0
  -26.7160  -15.2297   20.3967 C   0  0  0  0  0  0  0  0  0  0  0  0
  -32.5432  -19.2151   18.8899 C   0  0  0  0  0  0  0  0  0  0  0  0
  -19.0607  -20.5547   22.3349 C   0  0  0  0  0  0  0  0  0  0  0  0
  -27.5079  -24.3761   12.8858 C   0  0  0  0  0  0  0  0  0  0  0  0
  -19.1110  -20.4919   20.8108 C   0  0  0  0  0  0  0  0  0  0  0  0
  -31.1573  -19.0840   18.2664 C   0  0  0  0  0  0  0  0  0  0  0  0
  -27.8543  -25.1094   14.1828 C   0  0  0  0  0  0  0  0  0  0  0  0
  -20.4011  -20.2267   22.9885 C   0  0  0  0  0  0  0  0  0  0  0  0
  -26.0704  -23.8609   12.8954 C   0  0  0  0  0  0  0  0  0  0  0  0
  -26.0651  -23.7615   15.3579 C   0  0  0  0  0  0  0  0  0  0  0  0
  -20.5172  -20.7087   20.2837 C   0  0  0  0  0  0  0  0  0  0  0  0
  -30.0594  -19.3840   19.2941 C   0  0  1  0  0  0  0  0  0  0  0  0
  -29.0099  -16.1157   20.9218 C   0  0  1  0  0  0  0  0  0  0  0  0
  -27.5222  -24.2509   15.4181 C   0  0  2  0  0  0  0  0  0  0  0  0
  -21.1627  -19.1475   22.2198 C   0  0  2  0  0  0  0  0  0  0  0  0
  -25.9224  -18.7108   14.9828 C   0  0  0  0  0  0  0  0  0  0  0  0
  -26.9837   -8.6680   20.2661 C   0  0  0  0  0  0  0  0  0  0  0  0
  -28.0648  -14.2173   16.8154 C   0  0  0  0  0  0  0  0  0  0  0  0
  -27.1963  -11.8701   16.8864 C   0  0  0  0  0  0  0  0  0  0  0  0
  -29.6080  -12.3200   17.3383 C   0  0  0  0  0  0  0  0  0  0  0  0
  -26.8997  -10.7747   23.4333 C   0  0  0  0  0  0  0  0  0  0  0  0
  -25.6788  -19.5560   20.0326 C   0  0  0  0  0  0  0  0  0  0  0  0
  -21.5380  -18.4672   19.8227 C   0  0  0  0  0  0  0  0  0  0  0  0
  -22.4864  -18.8157   22.9035 C   0  0  0  0  0  0  0  0  0  1  0  0
  -24.7233  -19.6559   15.1467 C   0  0  2  0  0  0  0  0  0  0  0  0
  -27.8810  -12.9680   19.0674 C   0  0  1  0  0  0  0  0  0  0  0  0
  -27.3375   -9.8506   21.1544 C   0  0  2  0  0  0  0  0  0  0  0  0
  -28.1774  -12.8636   17.5447 C   0  0  0  0  0  0  0  0  0  0  0  0
  -26.8444  -25.6990   17.2959 N   0  0  0  0  0  0  0  0  0  0  0  0
  -27.8231  -24.9886   16.7097 N   0  0  0  0  0  0  0  0  0  0  0  0
  -28.1747  -15.0306   20.4028 N   0  0  0  0  0  0  0  0  0  0  0  0
  -25.8211  -23.0530   14.0917 N   0  0  0  0  0  0  0  0  0  0  0  0
  -30.0976  -24.3656   16.9316 N   0  0  0  0  0  0  0  0  0  0  0  0
  -29.3708  -26.9637   20.5534 N   0  0  0  0  0  0  0  0  0  0  0  0
  -29.8685  -18.2517   20.1749 N   0  0  0  0  0  0  0  0  0  0  0  0
  -28.0066  -11.7061   19.7885 N   0  0  0  0  0  0  0  0  0  0  0  0
  -25.1724  -21.0303   15.1317 N   0  0  0  0  0  0  0  0  0  0  0  0
  -21.4463  -19.6208   20.7923 N   0  3  1  0  0  0  0  0  0  0  0  0
  -26.6246   -9.6923   22.4536 N   0  3  0  0  0  0  0  0  0  0  0  0
  -30.9449  -25.7270   19.4347 O   0  0  0  0  0  0  0  0  0  0  0  0
  -28.4078  -17.0336   18.8314 O   0  0  0  0  0  0  0  0  0  0  0  0
  -30.0125  -13.7516   19.7525 O   0  0  0  0  0  0  0  0  0  0  0  0
  -25.8374  -11.6637   20.6068 O   0  0  0  0  0  0  0  0  0  0  0  0
  -25.1862  -21.2031   12.8454 O   0  0  0  0  0  0  0  0  0  0  0  0
  -24.5767  -29.4579   21.9084 O   0  0  0  0  0  0  0  0  0  0  0  0
  -24.3009  -19.1911   19.9851 O   0  0  0  0  0  0  0  0  0  0  0  0
  -22.9262  -17.5306   22.4659 O   0  0  0  0  0  0  0  0  0  1  0  0
  -27.4461  -32.4222   25.5668 F   0  0  0  0  0  0  0  0  0  0  0  0
  -24.4118  -32.2173   21.9395 F   0  0  0  0  0  0  0  0  0  0  0  0
  1  2  1  0  0  0  0
  1  5  2  0  0  0  0
  2  6  2  0  0  0  0
  3 10  2  0  0  0  0
  3 18  1  0  0  0  0
  4 11  1  0  0  0  0
  4 18  2  0  0  0  0
  5 20  1  0  0  0  0
  6 22  1  0  0  0  0
  7 12  2  0  0  0  0
  7 21  1  0  0  0  0
  8  9  2  0  0  0  0
  8 24  1  0  0  0  0
  9 25  1  0  0  0  0
 10 26  1  0  0  0  0
 11 26  2  0  0  0  0
 12 27  1  0  0  0  0
 13 14  2  0  0  0  0
 13 28  1  0  0  0  0
 14 30  1  0  0  0  0
 15 23  1  0  0  0  0
 15 27  2  0  0  0  0
 16 24  2  0  0  0  0
 16 29  1  0  0  0  0
 17 30  2  0  0  0  0
 17 31  1  0  0  0  0
 18 32  1  0  0  0  0
 19 32  1  0  0  0  0
 19 33  2  0  0  0  0
 19 34  1  0  0  0  0
 20 22  2  0  0  0  0
 20 39  1  0  0  0  0
 21 23  2  0  0  0  0
 21 40  1  0  0  0  0
 22 52  1  0  0  0  0
 23 41  1  0  0  0  0
 24 65  1  0  0  0  0
 25 29  2  0  0  0  0
 25 63  1  0  0  0  0
 26 85  1  0  0  0  0
 27 87  1  0  0  0  0
 28 31  2  0  0  0  0
 28 85  1  0  0  0  0
 29 86  1  0  0  0  0
 30 88  1  0  0  0  0
 31 89  1  0  0  0  0
 32 69  2  0  0  0  0
 33 70  1  0  0  0  0
 33 73  1  0  0  0  0
 34 74  1  0  0  0  0
 34 80  2  0  0  0  0
 35 53  1  0  0  0  0
 35 75  1  0  0  0  0
 35 81  2  0  0  0  0
 36 66  1  0  0  0  0
 36 71  1  0  0  0  0
 36 82  2  0  0  0  0
 37 67  1  0  0  0  0
 37 76  1  0  0  0  0
 37 83  2  0  0  0  0
 38 72  1  0  0  0  0
 38 77  1  0  0  0  0
 38 84  2  0  0  0  0
 39 42  1  0  0  0  0
 40 53  1  0  0  0  0
 41 71  1  0  0  0  0
 42 46  1  0  0  0  0
 43 45  1  0  0  0  0
 43 48  1  0  0  0  0
 44 47  1  0  0  0  0
 44 49  1  0  0  0  0
 45 51  1  0  0  0  0
 46 52  1  0  0  0  0
 47 54  1  0  0  0  0
 48 55  1  0  0  0  0
 49 72  1  0  0  0  0
 50 54  1  0  0  0  0
 50 72  1  0  0  0  0
 51 78  1  0  0  0  0
 52 75  1  0  0  0  0
 53 71  1  0  0  0  0
 54 70  1  0  0  0  0
 55 64  1  0  0  0  0
 55 78  1  0  0  0  0
 56 65  1  0  0  0  0
 57 67  1  0  0  0  0
 58 68  1  0  0  0  0
 59 68  1  0  0  0  0
 60 68  1  0  0  0  0
 61 79  1  0  0  0  0
 62 86  1  0  0  0  0
 63 78  1  0  0  0  0
 64 87  1  0  0  0  0
 65 77  1  0  0  0  0
 66 68  1  0  0  0  0
 66 76  1  0  0  0  0
 67 79  1  0  0  0  0
 69 70  1  0  0  0  0
M  CHG  2  78   1  79   1
M  ISO  4  38 100  64 101  77 100  87 101
M  END
> <Batch ID>
0104

> <Smiles>
CNC(C)C(=O)NC(C(=O)N1Cc2cc([101O:1][101CH2:1]C3CCCCN3Cc3ccc(C(C)[100NH:0][100C:0](=O)N4CCCC(n5nc(-c6ccc(Oc7ccc(F)cc7F)cc6)c(C(N)=O)c5N)C4)cc3OC)ccc2CC1C(=O)NC1CCCc2ccccc21)C(C)(C)C

> <Shape>
0.213

> <Color>
0.049

> <Negative vol penalty>
0.000

$$$$

  -OEChem-04052301083D

 89 98  0     1  0  0  0  0  0999 V2000
  -18.3617  -27.6776   24.0713 C   0  0  0  0  0  0  0  0  0  0  0  0
  -18.9509  -26.5342   23.5414 C   0  0  0  0  0  0  0  0  0  0  0  0
  -23.1678   -9.8942   21.6643 C   0  0  0  0  0  0  0  0  0  0  0  0
  -23.8597  -11.0392   23.6762 C   0  0  0  0  0  0  0  0  0  0  0  0
  -28.6887  -17.9580   19.9142 C   0  0  0  0  0  0  0  0  0  0  0  0
  -18.5511  -28.9105   23.4484 C   0  0  0  0  0  0  0  0  0  0  0  0
  -19.7291  -26.6228   22.3878 C   0  0  0  0  0  0  0  0  0  0  0  0
  -24.7116  -23.3246   21.0454 C   0  0  0  0  0  0  0  0  0  0  0  0
  -27.9717  -18.6825   18.9621 C   0  0  0  0  0  0  0  0  0  0  0  0
  -22.4415   -8.9840   22.4321 C   0  0  0  0  0  0  0  0  0  0  0  0
  -23.1333  -10.1290   24.4440 C   0  0  0  0  0  0  0  0  0  0  0  0
  -24.9016  -22.1912   20.2561 C   0  0  0  0  0  0  0  0  0  0  0  0
  -19.9065   -9.6190   25.3088 C   0  0  0  0  0  0  0  0  0  0  0  0
  -19.1165  -10.1280   26.3395 C   0  0  0  0  0  0  0  0  0  0  0  0
  -29.2165  -16.2903   18.2478 C   0  0  0  0  0  0  0  0  0  0  0  0
  -25.5559  -23.5958   18.4072 C   0  0  0  0  0  0  0  0  0  0  0  0
  -20.3765   -8.8341   27.9443 C   0  0  0  0  0  0  0  0  0  0  0  0
  -23.8770  -10.9218   22.2864 C   0  0  0  0  0  0  0  0  0  0  0  0
  -29.3112  -16.7619   19.5571 C   0  0  0  0  0  0  0  0  0  0  0  0
  -24.1686  -13.0804   20.9586 C   0  0  0  0  0  0  0  0  0  0  0  0
  -19.3399  -29.0159   22.2920 C   0  0  0  0  0  0  0  0  0  0  0  0
  -24.9323  -24.6048   20.5174 C   0  0  0  0  0  0  0  0  0  0  0  0
  -19.9282  -27.8581   21.7481 C   0  0  0  0  0  0  0  0  0  0  0  0
  -25.3705  -24.7437   19.1927 C   0  0  0  0  0  0  0  0  0  0  0  0
  -27.8771  -18.2109   17.6528 C   0  0  0  0  0  0  0  0  0  0  0  0
  -22.4242   -9.1014   23.8219 C   0  0  0  0  0  0  0  0  0  0  0  0
  -25.3210  -22.3268   18.9359 C   0  0  0  0  0  0  0  0  0  0  0  0
  -20.9314   -8.7174   25.5958 C   0  0  0  0  0  0  0  0  0  0  0  0
  -28.4995  -17.0148   17.2956 C   0  0  0  0  0  0  0  0  0  0  0  0
  -19.3515   -9.7356   27.6572 C   0  0  0  0  0  0  0  0  0  0  0  0
  -21.1664   -8.3250   26.9135 C   0  0  0  0  0  0  0  0  0  0  0  0
  -24.6279  -11.8621   21.4938 C   0  0  0  0  0  0  0  0  0  0  0  0
  -25.2549  -13.5944   20.2935 C   0  0  0  0  0  0  0  0  0  0  0  0
  -30.0583  -16.0063   20.5503 C   0  0  0  0  0  0  0  0  0  0  0  0
  -22.8758  -13.6928   21.0542 C   0  0  0  0  0  0  0  0  0  0  0  0
  -30.7309  -14.7330   20.2046 C   0  0  0  0  0  0  0  0  0  0  0  0
  -23.1207  -27.1690   20.0203 C   0  0  0  0  0  0  0  0  0  0  0  0
  -25.9485  -28.5245   19.1903 C   0  0  0  0  0  0  0  0  0  0  0  0
  -29.1445  -28.1043   18.0698 C   0  0  0  0  0  0  0  0  0  0  0  0
  -19.4771  -30.3627   21.6271 C   0  0  0  0  0  0  0  0  0  0  0  0
  -24.7486  -25.8161   21.3899 C   0  0  0  0  0  0  0  0  0  0  0  0
  -25.6408  -26.0948   18.5844 C   0  0  0  0  0  0  0  0  0  0  0  0
  -20.6232  -30.4313   20.6211 C   0  0  0  0  0  0  0  0  0  0  0  0
  -29.6837  -11.4933   19.0801 C   0  0  0  0  0  0  0  0  0  0  0  0
  -20.6063  -29.2092   19.7084 C   0  0  0  0  0  0  0  0  0  0  0  0
  -22.8253  -18.4846   16.0174 C   0  0  0  0  0  0  0  0  0  0  0  0
  -28.2500  -11.3861   19.5985 C   0  0  0  0  0  0  0  0  0  0  0  0
  -23.3336  -19.8405   16.4896 C   0  0  0  0  0  0  0  0  0  0  0  0
  -30.5678  -12.2803   20.0421 C   0  0  0  0  0  0  0  0  0  0  0  0
  -28.6059  -13.5406   20.8857 C   0  0  0  0  0  0  0  0  0  0  0  0
  -25.1346  -17.5362   16.3128 C   0  0  0  0  0  0  0  0  0  0  0  0
  -20.7995  -27.9177   20.5122 C   0  0  1  0  0  0  0  0  0  0  0  0
  -24.5076  -27.0950   20.5938 C   0  0  1  0  0  0  0  0  0  0  0  0
  -23.6509  -17.3492   16.6226 C   0  0  2  0  0  0  0  0  0  0  0  0
  -27.6763  -12.7759   19.9273 C   0  0  2  0  0  0  0  0  0  0  0  0
  -24.8250  -20.0396   16.1954 C   0  0  1  0  0  0  0  0  0  0  0  0
  -23.1658  -15.9969   16.1026 C   0  0  0  0  0  0  0  0  0  0  0  0
  -31.2024  -29.4014   17.4532 C   0  0  0  0  0  0  0  0  0  0  0  0
  -24.6397  -29.3454   16.5591 C   0  0  0  0  0  0  0  0  0  0  0  0
  -26.9275  -29.7652   15.6326 C   0  0  0  0  0  0  0  0  0  0  0  0
  -26.1105  -31.0905   17.5817 C   0  0  0  0  0  0  0  0  0  0  0  0
  -30.7527  -26.7740   20.1681 C   0  0  0  0  0  0  0  0  0  0  0  0
  -29.0833  -15.3104   15.7432 C   0  0  0  0  0  0  0  0  0  0  0  0
  -27.1020  -19.0037   16.6419 C   0  0  0  0  0  0  0  0  0  0  0  0
  -25.2857  -21.3661   16.7606 C   0  0  0  0  0  0  0  0  0  1  0  0
  -26.7326  -28.6617   17.9076 C   0  0  1  0  0  0  0  0  0  0  0  0
  -30.4664  -28.6653   18.5620 C   0  0  2  0  0  0  0  0  0  0  0  0
  -26.0957  -29.6902   16.9308 C   0  0  0  0  0  0  0  0  0  0  0  0
  -25.9062  -11.6166   21.1944 N   0  0  0  0  0  0  0  0  0  0  0  0
  -30.1891  -16.3885   21.7918 N   0  0  0  0  0  0  0  0  0  0  0  0
  -26.2595  -12.6878   20.4638 N   0  0  0  0  0  0  0  0  0  0  0  0
  -29.9769  -13.5785   20.3612 N   0  0  0  0  0  0  0  0  0  0  0  0
  -25.4407  -27.2492   19.4759 N   0  0  0  0  0  0  0  0  0  0  0  0
  -25.4391  -14.7289   19.5853 N   0  0  0  0  0  0  0  0  0  0  0  0
  -21.8739  -13.0293   21.7755 N   0  0  0  0  0  0  0  0  0  0  0  0
  -22.1923  -27.7459   20.8657 N   0  0  0  0  0  0  0  0  0  0  0  0
  -28.1023  -28.9776   18.2983 N   0  0  0  0  0  0  0  0  0  0  0  0
  -25.6069  -18.8867   16.8184 N   0  3  2  0  0  0  0  0  0  0  0  0
  -31.3425  -27.5669   19.0588 N   0  3  0  0  0  0  0  0  0  0  0  0
  -22.6119  -14.7879   20.5021 O   0  0  0  0  0  0  0  0  0  0  0  0
  -31.8870  -14.8359   19.8158 O   0  0  0  0  0  0  0  0  0  0  0  0
  -22.9090  -26.7361   18.8935 O   0  0  0  0  0  0  0  0  0  0  0  0
  -25.7983  -29.5108   19.9158 O   0  0  0  0  0  0  0  0  0  0  0  0
  -29.0469  -27.0031   17.5327 O   0  0  0  0  0  0  0  0  0  0  0  0
  -21.7154   -8.2135   24.5715 O   0  0  0  0  0  0  0  0  0  0  0  0
  -28.4172  -16.5405   16.0211 O   0  0  0  0  0  0  0  0  0  0  0  0
  -25.5066  -21.2221   18.1631 O   0  0  0  0  0  0  0  0  0  1  0  0
  -18.5938  -10.2257   28.6471 F   0  0  0  0  0  0  0  0  0  0  0  0
  -22.1504   -7.4601   27.1955 F   0  0  0  0  0  0  0  0  0  0  0  0
  1  2  1  0  0  0  0
  1  6  2  0  0  0  0
  2  7  2  0  0  0  0
  3 10  2  0  0  0  0
  3 18  1  0  0  0  0
  4 11  1  0  0  0  0
  4 18  2  0  0  0  0
  5  9  2  0  0  0  0
  5 19  1  0  0  0  0
  6 21  1  0  0  0  0
  7 23  1  0  0  0  0
  8 12  2  0  0  0  0
  8 22  1  0  0  0  0
  9 25  1  0  0  0  0
 10 26  1  0  0  0  0
 11 26  2  0  0  0  0
 12 27  1  0  0  0  0
 13 14  2  0  0  0  0
 13 28  1  0  0  0  0
 14 30  1  0  0  0  0
 15 19  2  0  0  0  0
 15 29  1  0  0  0  0
 16 24  1  0  0  0  0
 16 27  2  0  0  0  0
 17 30  2  0  0  0  0
 17 31  1  0  0  0  0
 18 32  1  0  0  0  0
 19 34  1  0  0  0  0
 20 32  1  0  0  0  0
 20 33  2  0  0  0  0
 20 35  1  0  0  0  0
 21 23  2  0  0  0  0
 21 40  1  0  0  0  0
 22 24  2  0  0  0  0
 22 41  1  0  0  0  0
 23 52  1  0  0  0  0
 24 42  1  0  0  0  0
 25 29  2  0  0  0  0
 25 64  1  0  0  0  0
 26 85  1  0  0  0  0
 27 87  1  0  0  0  0
 28 31  2  0  0  0  0
 28 85  1  0  0  0  0
 29 86  1  0  0  0  0
 30 88  1  0  0  0  0
 31 89  1  0  0  0  0
 32 69  2  0  0  0  0
 33 71  1  0  0  0  0
 33 74  1  0  0  0  0
 34 36  1  0  0  0  0
 34 70  2  0  0  0  0
 35 75  1  0  0  0  0
 35 80  2  0  0  0  0
 36 72  1  0  0  0  0
 36 81  2  0  0  0  0
 37 53  1  0  0  0  0
 37 76  1  0  0  0  0
 37 82  2  0  0  0  0
 38 66  1  0  0  0  0
 38 73  1  0  0  0  0
 38 83  2  0  0  0  0
 39 67  1  0  0  0  0
 39 77  1  0  0  0  0
 39 84  2  0  0  0  0
 40 43  1  0  0  0  0
 41 53  1  0  0  0  0
 42 73  1  0  0  0  0
 43 45  1  0  0  0  0
 44 47  1  0  0  0  0
 44 49  1  0  0  0  0
 45 52  1  0  0  0  0
 46 48  1  0  0  0  0
 46 54  1  0  0  0  0
 47 55  1  0  0  0  0
 48 56  1  0  0  0  0
 49 72  1  0  0  0  0
 50 55  1  0  0  0  0
 50 72  1  0  0  0  0
 51 54  1  0  0  0  0
 51 78  1  0  0  0  0
 52 76  1  0  0  0  0
 53 73  1  0  0  0  0
 54 57  1  0  0  0  0
 55 71  1  0  0  0  0
 56 65  1  0  0  0  0
 56 78  1  0  0  0  0
 58 67  1  0  0  0  0
 59 68  1  0  0  0  0
 60 68  1  0  0  0  0
 61 68  1  0  0  0  0
 62 79  1  0  0  0  0
 63 86  1  0  0  0  0
 64 78  1  0  0  0  0
 65 87  1  0  0  0  0
 66 68  1  0  0  0  0
 66 77  1  0  0  0  0
 67 79  1  0  0  0  0
 69 71  1  0  0  0  0
M  CHG  2  78   1  79   1
M  ISO  4  34 100  36 100  65 101  87 101
M  END
> <Batch ID>
0104

> <Smiles>
CNC(C)C(=O)NC(C(=O)N1Cc2cc([101O:1][101CH2:1]C3CCC(C)CN3Cc3ccc([100C:0](=N)[100C:0](=O)N4CCCC(n5nc(-c6ccc(Oc7ccc(F)cc7F)cc6)c(C(N)=O)c5N)C4)cc3OC)ccc2CC1C(=O)NC1CCCc2ccccc21)C(C)(C)C

> <Shape>
0.218

> <Color>
0.130

> <Negative vol penalty>
0.000

$$$$

  -OEChem-04052301083D

 85 93  0     1  0  0  0  0  0999 V2000
  -22.4984  -30.8358   23.8023 C   0  0  0  0  0  0  0  0  0  0  0  0
  -22.1223  -29.5192   23.5564 C   0  0  0  0  0  0  0  0  0  0  0  0
  -28.6273  -13.4848   20.6493 C   0  0  0  0  0  0  0  0  0  0  0  0
  -28.0682  -12.1815   18.6933 C   0  0  0  0  0  0  0  0  0  0  0  0
  -23.5187  -31.4197   23.0527 C   0  0  0  0  0  0  0  0  0  0  0  0
  -22.7656  -28.7860   22.5599 C   0  0  0  0  0  0  0  0  0  0  0  0
  -23.9567  -24.0980   24.0596 C   0  0  0  0  0  0  0  0  0  0  0  0
  -29.9745  -13.4460   20.2901 C   0  0  0  0  0  0  0  0  0  0  0  0
  -29.4155  -12.1427   18.3341 C   0  0  0  0  0  0  0  0  0  0  0  0
  -22.9294  -23.1557   24.0797 C   0  0  0  0  0  0  0  0  0  0  0  0
  -32.0158  -15.0220   18.1032 C   0  0  0  0  0  0  0  0  0  0  0  0
  -32.7417  -16.2105   18.1806 C   0  0  0  0  0  0  0  0  0  0  0  0
  -21.0110  -15.6848   24.8693 C   0  0  0  0  0  0  0  0  0  0  0  0
  -18.6000  -15.5506   24.9457 C   0  0  0  0  0  0  0  0  0  0  0  0
  -23.7010  -22.2785   21.9691 C   0  0  0  0  0  0  0  0  0  0  0  0
  -34.2453  -15.1884   19.7717 C   0  0  0  0  0  0  0  0  0  0  0  0
  -27.6741  -12.8525   19.8510 C   0  0  0  0  0  0  0  0  0  0  0  0
  -19.8470  -14.9283   25.0047 C   0  0  0  0  0  0  0  0  0  0  0  0
  -25.3302  -13.8592   19.8490 C   0  0  0  0  0  0  0  0  0  0  0  0
  -24.1814  -30.6903   22.0530 C   0  0  0  0  0  0  0  0  0  0  0  0
  -24.8588  -24.1449   22.9870 C   0  0  0  0  0  0  0  0  0  0  0  0
  -23.7948  -29.3611   21.7953 C   0  0  0  0  0  0  0  0  0  0  0  0
  -24.7404  -23.2208   21.9390 C   0  0  0  0  0  0  0  0  0  0  0  0
  -20.9281  -17.0637   24.6752 C   0  0  0  0  0  0  0  0  0  0  0  0
  -18.5170  -16.9294   24.7516 C   0  0  0  0  0  0  0  0  0  0  0  0
  -30.3687  -12.7750   19.1325 C   0  0  0  0  0  0  0  0  0  0  0  0
  -22.7997  -22.2476   23.0329 C   0  0  0  0  0  0  0  0  0  0  0  0
  -32.4045  -13.9167   18.8601 C   0  0  0  0  0  0  0  0  0  0  0  0
  -19.6811  -17.6859   24.6163 C   0  0  0  0  0  0  0  0  0  0  0  0
  -33.8565  -16.2937   19.0148 C   0  0  0  0  0  0  0  0  0  0  0  0
  -33.5193  -13.9999   19.6943 C   0  0  0  0  0  0  0  0  0  0  0  0
  -26.2824  -12.8917   20.2218 C   0  0  0  0  0  0  0  0  0  0  0  0
  -24.1678  -13.4481   20.4542 C   0  0  0  0  0  0  0  0  0  0  0  0
  -19.9353  -13.4597   25.2102 C   0  0  0  0  0  0  0  0  0  0  0  0
  -25.4828  -15.0254   19.0289 C   0  0  0  0  0  0  0  0  0  0  0  0
  -25.6135  -26.3080   20.7836 C   0  0  0  0  0  0  0  0  0  0  0  0
  -27.9115  -24.1517   20.0140 C   0  0  0  0  0  0  0  0  0  0  0  0
  -28.9721  -20.9083   20.0569 C   0  0  0  0  0  0  0  0  0  0  0  0
  -21.3743  -11.4852   24.8178 C   0  0  0  0  0  0  0  0  0  0  0  0
  -25.2462  -31.3792   21.2368 C   0  0  0  0  0  0  0  0  0  0  0  0
  -25.9776  -25.1502   22.9933 C   0  0  0  0  0  0  0  0  0  0  0  0
  -25.6951  -23.2161   20.7742 C   0  0  0  0  0  0  0  0  0  0  0  0
  -26.1321  -30.4145   20.4527 C   0  0  0  0  0  0  0  0  0  0  0  0
  -23.0272   -9.1035   22.7947 C   0  0  0  0  0  0  0  0  0  0  0  0
  -25.2812  -29.3701   19.7370 C   0  0  0  0  0  0  0  0  0  0  0  0
  -23.9390   -9.9547   21.9067 C   0  0  0  0  0  0  0  0  0  0  0  0
  -22.9393   -9.6593   24.2154 C   0  0  0  0  0  0  0  0  0  0  0  0
  -23.4859  -11.9245   23.4228 C   0  0  0  0  0  0  0  0  0  0  0  0
  -24.4857  -28.5254   20.7397 C   0  0  1  0  0  0  0  0  0  0  0  0
  -26.5283  -25.4400   21.6004 C   0  0  1  0  0  0  0  0  0  0  0  0
  -23.5519  -11.4461   21.9634 C   0  0  1  0  0  0  0  0  0  0  0  0
  -22.1860  -17.8563   24.5343 C   0  0  0  0  0  0  0  0  0  0  0  0
  -30.8743  -19.4478   19.3179 C   0  0  0  0  0  0  0  0  0  0  0  0
  -26.8792  -24.2632   17.1448 C   0  0  0  0  0  0  0  0  0  0  0  0
  -28.1381  -22.1488   16.6836 C   0  0  0  0  0  0  0  0  0  0  0  0
  -29.3706  -24.2107   17.3558 C   0  0  0  0  0  0  0  0  0  0  0  0
  -29.5987  -20.1179   22.8393 C   0  0  0  0  0  0  0  0  0  0  0  0
  -19.4057  -21.0092   23.0508 C   0  0  0  0  0  0  0  0  0  0  0  0
  -20.5897  -21.6941   23.7152 C   0  0  0  0  0  0  0  0  0  1  0  0
  -19.5356  -19.4944   23.0787 C   0  0  0  0  0  0  0  0  0  0  0  0
  -27.9983  -22.9698   19.0789 C   0  0  1  0  0  0  0  0  0  0  0  0
  -30.3013  -20.2883   20.4484 C   0  0  2  0  0  0  0  0  0  0  0  0
  -28.0772  -23.3992   17.5866 C   0  0  0  0  0  0  0  0  0  0  0  0
  -25.7694  -11.9378   21.0034 N   0  0  0  0  0  0  0  0  0  0  0  0
  -24.4822  -12.3040   21.1268 N   0  0  0  0  0  0  0  0  0  0  0  0
  -26.7686  -24.2225   20.8231 N   0  0  0  0  0  0  0  0  0  0  0  0
  -22.5586  -11.0725   24.1825 N   0  0  0  0  0  0  0  0  0  0  0  0
  -17.2472  -17.5450   24.6949 N   0  0  0  0  0  0  0  0  0  0  0  0
  -22.9177  -13.9573   20.4713 N   0  0  0  0  0  0  0  0  0  0  0  0
  -26.7455  -15.2998   18.4860 N   0  0  0  0  0  0  0  0  0  0  0  0
  -21.0769  -12.8468   24.6930 N   0  0  0  0  0  0  0  0  0  0  0  0
  -25.3415  -27.5352   21.3574 N   0  0  0  0  0  0  0  0  0  0  0  0
  -29.1334  -22.1732   19.5322 N   0  0  0  0  0  0  0  0  0  0  0  0
  -30.1333  -19.4152   21.6445 N   0  3  0  0  0  0  0  0  0  0  0  0
  -19.0476  -12.8893   25.8383 O   0  0  0  0  0  0  0  0  0  0  0  0
  -24.5316  -15.8099   18.7982 O   0  0  0  0  0  0  0  0  0  0  0  0
  -25.1872  -25.8955   19.7113 O   0  0  0  0  0  0  0  0  0  0  0  0
  -28.8274  -24.9778   20.0311 O   0  0  0  0  0  0  0  0  0  0  0  0
  -27.8985  -20.3271   20.1986 O   0  0  0  0  0  0  0  0  0  0  0  0
  -20.6263  -10.7026   25.4122 O   0  0  0  0  0  0  0  0  0  0  0  0
  -31.6832  -12.7372   18.7815 O   0  0  0  0  0  0  0  0  0  0  0  0
  -21.7975  -21.3271   23.0497 O   0  0  0  0  0  0  0  0  0  1  0  0
  -19.6028  -19.0407   24.4239 O   0  0  0  0  0  0  0  0  0  0  0  0
  -34.5545  -17.4346   19.0878 F   0  0  0  0  0  0  0  0  0  0  0  0
  -33.8983  -12.9410   20.4229 F   0  0  0  0  0  0  0  0  0  0  0  0
  1  2  1  0  0  0  0
  1  5  2  0  0  0  0
  2  6  2  0  0  0  0
  3  8  2  0  0  0  0
  3 17  1  0  0  0  0
  4  9  1  0  0  0  0
  4 17  2  0  0  0  0
  5 20  1  0  0  0  0
  6 22  1  0  0  0  0
  7 10  2  0  0  0  0
  7 21  1  0  0  0  0
  8 26  1  0  0  0  0
  9 26  2  0  0  0  0
 10 27  1  0  0  0  0
 11 12  2  0  0  0  0
 11 28  1  0  0  0  0
 12 30  1  0  0  0  0
 13 18  1  0  0  0  0
 13 24  2  0  0  0  0
 14 18  2  0  0  0  0
 14 25  1  0  0  0  0
 15 23  1  0  0  0  0
 15 27  2  0  0  0  0
 16 30  2  0  0  0  0
 16 31  1  0  0  0  0
 17 32  1  0  0  0  0
 18 34  1  0  0  0  0
 19 32  1  0  0  0  0
 19 33  2  0  0  0  0
 19 35  1  0  0  0  0
 20 22  2  0  0  0  0
 20 40  1  0  0  0  0
 21 23  2  0  0  0  0
 21 41  1  0  0  0  0
 22 49  1  0  0  0  0
 23 42  1  0  0  0  0
 24 29  1  0  0  0  0
 24 52  1  0  0  0  0
 25 29  2  0  0  0  0
 25 68  1  0  0  0  0
 26 81  1  0  0  0  0
 27 82  1  0  0  0  0
 28 31  2  0  0  0  0
 28 81  1  0  0  0  0
 29 83  1  0  0  0  0
 30 84  1  0  0  0  0
 31 85  1  0  0  0  0
 32 64  2  0  0  0  0
 33 65  1  0  0  0  0
 33 69  1  0  0  0  0
 34 71  1  0  0  0  0
 34 75  2  0  0  0  0
 35 70  1  0  0  0  0
 35 76  2  0  0  0  0
 36 50  1  0  0  0  0
 36 72  1  0  0  0  0
 36 77  2  0  0  0  0
 37 61  1  0  0  0  0
 37 66  1  0  0  0  0
 37 78  2  0  0  0  0
 38 62  1  0  0  0  0
 38 73  1  0  0  0  0
 38 79  2  0  0  0  0
 39 67  1  0  0  0  0
 39 71  1  0  0  0  0
 39 80  2  0  0  0  0
 40 43  1  0  0  0  0
 41 50  1  0  0  0  0
 42 66  1  0  0  0  0
 43 45  1  0  0  0  0
 44 46  1  0  0  0  0
 44 47  1  0  0  0  0
 45 49  1  0  0  0  0
 46 51  1  0  0  0  0
 47 67  1  0  0  0  0
 48 51  1  0  0  0  0
 48 67  1  0  0  0  0
 49 72  1  0  0  0  0
 50 66  1  0  0  0  0
 51 65  1  0  0  0  0
 53 62  1  0  0  0  0
 54 63  1  0  0  0  0
 55 63  1  0  0  0  0
 56 63  1  0  0  0  0
 57 74  1  0  0  0  0
 58 59  1  0  0  0  0
 58 60  1  0  0  0  0
 59 82  1  0  0  0  0
 60 83  1  0  0  0  0
 61 63  1  0  0  0  0
 61 73  1  0  0  0  0
 62 74  1  0  0  0  0
 64 65  1  0  0  0  0
M  CHG  1  74   1
M  ISO  4  39 100  59 101  71 100  82 101
M  END
> <Batch ID>
0104

> <Smiles>
CNC(C)C(=O)NC(C(=O)N1Cc2cc([101O:1][101CH2:1]CCOc3c(C)cc(C(=O)[100NH:0][100C:0](=O)N4CCCC(n5nc(-c6ccc(Oc7ccc(F)cc7F)cc6)c(C(N)=O)c5N)C4)cc3N)ccc2CC1C(=O)NC1CCCc2ccccc21)C(C)(C)C

> <Shape>
0.198

> <Color>
0.081

> <Negative vol penalty>
0.000

$$$$

  -OEChem-04052301083D

 90 99  0     1  0  0  0  0  0999 V2000
  -22.6324  -38.2136   20.1125 C   0  0  0  0  0  0  0  0  0  0  0  0
  -22.0978  -36.9593   19.8408 C   0  0  0  0  0  0  0  0  0  0  0  0
  -22.1757  -14.5310   19.8430 C   0  0  0  0  0  0  0  0  0  0  0  0
  -23.2543  -13.1200   18.2051 C   0  0  0  0  0  0  0  0  0  0  0  0
  -23.9915  -38.3424   20.3908 C   0  0  0  0  0  0  0  0  0  0  0  0
  -22.9197  -35.8319   19.8590 C   0  0  0  0  0  0  0  0  0  0  0  0
  -24.8944  -28.1573   19.2080 C   0  0  0  0  0  0  0  0  0  0  0  0
  -29.5837  -21.3894   21.2198 C   0  0  0  0  0  0  0  0  0  0  0  0
  -30.6378  -20.8241   19.1207 C   0  0  0  0  0  0  0  0  0  0  0  0
  -29.2855  -20.0435   21.4325 C   0  0  0  0  0  0  0  0  0  0  0  0
  -30.3396  -19.4782   19.3334 C   0  0  0  0  0  0  0  0  0  0  0  0
  -21.0981  -14.7133   18.9763 C   0  0  0  0  0  0  0  0  0  0  0  0
  -22.1767  -13.3022   17.3384 C   0  0  0  0  0  0  0  0  0  0  0  0
  -25.9779  -27.2987   19.0278 C   0  0  0  0  0  0  0  0  0  0  0  0
  -18.3614  -12.9808   18.0058 C   0  0  0  0  0  0  0  0  0  0  0  0
  -17.0765  -12.8739   18.5377 C   0  0  0  0  0  0  0  0  0  0  0  0
  -27.0607  -28.2710   20.9517 C   0  0  0  0  0  0  0  0  0  0  0  0
  -16.6111  -15.1490   17.8713 C   0  0  0  0  0  0  0  0  0  0  0  0
  -23.2539  -13.7344   19.4573 C   0  0  0  0  0  0  0  0  0  0  0  0
  -24.3360  -12.9843   21.6423 C   0  0  0  0  0  0  0  0  0  0  0  0
  -24.8321  -37.2171   20.3999 C   0  0  0  0  0  0  0  0  0  0  0  0
  -24.8907  -29.0882   20.2567 C   0  0  0  0  0  0  0  0  0  0  0  0
  -24.2893  -35.9381   20.1613 C   0  0  0  0  0  0  0  0  0  0  0  0
  -25.9748  -29.1385   21.1446 C   0  0  0  0  0  0  0  0  0  0  0  0
  -30.2599  -21.7797   20.0639 C   0  0  0  0  0  0  0  0  0  0  0  0
  -29.6635  -19.0879   20.4893 C   0  0  0  0  0  0  0  0  0  0  0  0
  -21.0986  -14.0989   17.7241 C   0  0  0  0  0  0  0  0  0  0  0  0
  -27.0626  -27.3574   19.8979 C   0  0  0  0  0  0  0  0  0  0  0  0
  -18.7713  -14.1720   17.4066 C   0  0  0  0  0  0  0  0  0  0  0  0
  -16.2013  -13.9579   18.4705 C   0  0  0  0  0  0  0  0  0  0  0  0
  -17.8961  -15.2560   17.3393 C   0  0  0  0  0  0  0  0  0  0  0  0
  -24.3676  -13.5461   20.3519 C   0  0  0  0  0  0  0  0  0  0  0  0
  -25.6406  -13.0313   22.0693 C   0  0  0  0  0  0  0  0  0  0  0  0
  -32.8059  -24.2525   19.7244 C   0  0  0  0  0  0  0  0  0  0  0  0
  -29.7215  -24.1761   20.3683 C   0  0  0  0  0  0  0  0  0  0  0  0
  -23.2266  -12.4662   22.3883 C   0  0  0  0  0  0  0  0  0  0  0  0
  -24.7970  -32.2602   20.4401 C   0  0  0  0  0  0  0  0  0  0  0  0
  -24.5489  -31.6799   23.6219 C   0  0  0  0  0  0  0  0  0  0  0  0
  -26.0475  -29.4321   26.0134 C   0  0  0  0  0  0  0  0  0  0  0  0
  -30.1813  -16.6709   20.1972 C   0  0  0  0  0  0  0  0  0  0  0  0
  -26.2942  -37.4128   20.7150 C   0  0  0  0  0  0  0  0  0  0  0  0
  -23.7024  -29.9891   20.4536 C   0  0  0  0  0  0  0  0  0  0  0  0
  -26.0107  -30.1061   22.2983 C   0  0  0  0  0  0  0  0  0  0  0  0
  -32.5496  -24.6906   21.1464 C   0  0  0  0  0  0  0  0  0  0  0  0
  -31.7064  -23.5144   18.9756 C   0  0  0  0  0  0  0  0  0  0  0  0
  -27.1595  -36.2357   20.2767 C   0  0  0  0  0  0  0  0  0  0  0  0
  -31.4908  -25.7852   21.2234 C   0  0  0  0  0  0  0  0  0  0  0  0
  -30.1310  -12.9898   20.4362 C   0  0  0  0  0  0  0  0  0  0  0  0
  -26.5516  -34.9314   20.7706 C   0  0  0  0  0  0  0  0  0  0  0  0
  -28.6375  -12.6723   20.4861 C   0  0  0  0  0  0  0  0  0  0  0  0
  -30.4131  -14.2662   19.6492 C   0  0  0  0  0  0  0  0  0  0  0  0
  -28.1577  -15.1351   20.1865 C   0  0  0  0  0  0  0  0  0  0  0  0
  -25.1698  -34.7017   20.1454 C   0  0  1  0  0  0  0  0  0  0  0  0
  -30.2761  -25.6055   20.2967 C   0  0  2  0  0  0  0  0  0  0  0  0
  -24.0330  -31.2492   21.2475 C   0  0  1  0  0  0  0  0  0  0  0  0
  -27.8374  -13.8778   21.0090 C   0  0  1  0  0  0  0  0  0  0  0  0
  -25.8225  -17.3930   22.1861 C   0  0  0  0  0  0  0  0  0  0  0  0
  -25.1614  -28.5278   28.1801 C   0  0  0  0  0  0  0  0  0  0  0  0
  -26.0237  -34.0387   24.8752 C   0  0  0  0  0  0  0  0  0  0  0  0
  -26.6567  -32.5415   26.7794 C   0  0  0  0  0  0  0  0  0  0  0  0
  -24.2529  -33.0273   26.3228 C   0  0  0  0  0  0  0  0  0  0  0  0
  -26.4848  -26.6329   25.1578 C   0  0  0  0  0  0  0  0  0  0  0  0
  -29.1992  -26.6354   20.6525 C   0  0  0  0  0  0  0  0  0  1  0  0
  -26.9146  -17.7191   21.1769 C   0  0  0  0  0  0  0  0  0  0  0  0
  -28.3071  -17.3542   21.6772 C   0  0  0  0  0  0  0  0  0  0  0  0
  -25.5294  -31.5074   24.7568 C   0  0  1  0  0  0  0  0  0  0  0  0
  -25.3764  -28.2558   26.6993 C   0  0  2  0  0  0  0  0  0  0  0  0
  -25.6225  -32.7718   25.6568 C   0  0  0  0  0  0  0  0  0  0  0  0
  -25.5950  -13.9225   19.9834 N   0  0  0  0  0  0  0  0  0  0  0  0
  -26.3468  -13.5967   21.0486 N   0  0  0  0  0  0  0  0  0  0  0  0
  -30.5681  -23.1718   19.8435 N   0  0  0  0  0  0  0  0  0  0  0  0
  -24.8279  -30.9704   22.4452 N   0  0  0  0  0  0  0  0  0  0  0  0
  -29.6064  -15.3856   20.1369 N   0  0  0  0  0  0  0  0  0  0  0  0
  -26.2410  -12.6438   23.2146 N   0  0  0  0  0  0  0  0  0  0  0  0
  -21.9546  -12.4944   21.8003 N   0  0  0  0  0  0  0  0  0  0  0  0
  -24.5409  -33.5715   20.7926 N   0  0  0  0  0  0  0  0  0  0  0  0
  -25.1249  -30.2980   25.4654 N   0  0  0  0  0  0  0  0  0  0  0  0
  -29.3549  -17.6946   20.7092 N   0  0  0  0  0  0  0  0  0  0  0  0
  -26.2136  -27.0304   26.5633 N   0  3  0  0  0  0  0  0  0  0  0  0
  -33.8690  -24.5241   19.1625 O   0  0  0  0  0  0  0  0  0  0  0  0
  -28.6091  -23.9681   20.8590 O   0  0  0  0  0  0  0  0  0  0  0  0
  -23.3565  -12.0075   23.5485 O   0  0  0  0  0  0  0  0  0  0  0  0
  -25.5633  -31.8787   19.5632 O   0  0  0  0  0  0  0  0  0  0  0  0
  -23.5677  -32.4113   23.7763 O   0  0  0  0  0  0  0  0  0  0  0  0
  -27.2679  -29.5710   25.9713 O   0  0  0  0  0  0  0  0  0  0  0  0
  -31.3496  -16.8801   19.8492 O   0  0  0  0  0  0  0  0  0  0  0  0
  -20.0471  -14.2764   16.8783 O   0  0  0  0  0  0  0  0  0  0  0  0
  -28.1218  -26.5209   19.7238 O   0  0  0  0  0  0  0  0  0  1  0  0
  -14.9668  -13.8545   18.9800 F   0  0  0  0  0  0  0  0  0  0  0  0
  -18.2838  -16.4025   16.7639 F   0  0  0  0  0  0  0  0  0  0  0  0
  1  2  1  0  0  0  0
  1  5  2  0  0  0  0
  2  6  2  0  0  0  0
  3 12  2  0  0  0  0
  3 19  1  0  0  0  0
  4 13  1  0  0  0  0
  4 19  2  0  0  0  0
  5 21  1  0  0  0  0
  6 23  1  0  0  0  0
  7 14  2  0  0  0  0
  7 22  1  0  0  0  0
  8 10  2  0  0  0  0
  8 25  1  0  0  0  0
  9 11  1  0  0  0  0
  9 25  2  0  0  0  0
 10 26  1  0  0  0  0
 11 26  2  0  0  0  0
 12 27  1  0  0  0  0
 13 27  2  0  0  0  0
 14 28  1  0  0  0  0
 15 16  2  0  0  0  0
 15 29  1  0  0  0  0
 16 30  1  0  0  0  0
 17 24  1  0  0  0  0
 17 28  2  0  0  0  0
 18 30  2  0  0  0  0
 18 31  1  0  0  0  0
 19 32  1  0  0  0  0
 20 32  1  0  0  0  0
 20 33  2  0  0  0  0
 20 36  1  0  0  0  0
 21 23  2  0  0  0  0
 21 41  1  0  0  0  0
 22 24  2  0  0  0  0
 22 42  1  0  0  0  0
 23 53  1  0  0  0  0
 24 43  1  0  0  0  0
 25 71  1  0  0  0  0
 26 78  1  0  0  0  0
 27 87  1  0  0  0  0
 28 88  1  0  0  0  0
 29 31  2  0  0  0  0
 29 87  1  0  0  0  0
 30 89  1  0  0  0  0
 31 90  1  0  0  0  0
 32 69  2  0  0  0  0
 33 70  1  0  0  0  0
 33 74  1  0  0  0  0
 34 44  1  0  0  0  0
 34 45  1  0  0  0  0
 34 80  2  0  0  0  0
 35 54  1  0  0  0  0
 35 71  1  0  0  0  0
 35 81  2  0  0  0  0
 36 75  1  0  0  0  0
 36 82  2  0  0  0  0
 37 55  1  0  0  0  0
 37 76  1  0  0  0  0
 37 83  2  0  0  0  0
 38 66  1  0  0  0  0
 38 72  1  0  0  0  0
 38 84  2  0  0  0  0
 39 67  1  0  0  0  0
 39 77  1  0  0  0  0
 39 85  2  0  0  0  0
 40 73  1  0  0  0  0
 40 78  1  0  0  0  0
 40 86  2  0  0  0  0
 41 46  1  0  0  0  0
 42 55  1  0  0  0  0
 43 72  1  0  0  0  0
 44 47  1  0  0  0  0
 45 71  1  0  0  0  0
 46 49  1  0  0  0  0
 47 54  1  0  0  0  0
 48 50  1  0  0  0  0
 48 51  1  0  0  0  0
 49 53  1  0  0  0  0
 50 56  1  0  0  0  0
 51 73  1  0  0  0  0
 52 56  1  0  0  0  0
 52 73  1  0  0  0  0
 53 76  1  0  0  0  0
 54 63  1  0  0  0  0
 55 72  1  0  0  0  0
 56 70  1  0  0  0  0
 57 64  1  0  0  0  0
 58 67  1  0  0  0  0
 59 68  1  0  0  0  0
 60 68  1  0  0  0  0
 61 68  1  0  0  0  0
 62 79  1  0  0  0  0
 63 88  1  0  0  0  0
 64 65  1  0  0  0  0
 65 78  1  0  0  0  0
 66 68  1  0  0  0  0
 66 77  1  0  0  0  0
 67 79  1  0  0  0  0
 69 70  1  0  0  0  0
M  CHG  1  79   1
M  ISO  4  40 100  63 101  78 100  88 101
M  END
> <Batch ID>
0104

> <Smiles>
CCC[100N:0](c1ccc(N2CC(=O)CCC([101CH2:1][101O:1]c3ccc4c(c3)CN(C(=O)C(NC(=O)C(C)NC)C(C)(C)C)C(C(=O)NC3CCCc5ccccc53)C4)C2=O)cc1)[100C:0](=O)N1CCCC(n2nc(-c3ccc(Oc4ccc(F)cc4F)cc3)c(C(N)=O)c2N)C1

> <Shape>
0.259

> <Color>
0.106

> <Negative vol penalty>
0.000

$$$$

  -OEChem-04052301083D

 89 97  0     1  0  0  0  0  0999 V2000
  -34.7325  -30.6518   12.5164 C   0  0  0  0  0  0  0  0  0  0  0  0
  -34.8331  -29.3305   12.9400 C   0  0  0  0  0  0  0  0  0  0  0  0
  -22.9628   -9.9571   20.0028 C   0  0  0  0  0  0  0  0  0  0  0  0
  -23.7040   -9.9898   22.3020 C   0  0  0  0  0  0  0  0  0  0  0  0
  -33.9079  -31.5420   13.2031 C   0  0  0  0  0  0  0  0  0  0  0  0
  -34.1099  -28.8988   14.0513 C   0  0  0  0  0  0  0  0  0  0  0  0
  -31.6220  -23.3680   14.9031 C   0  0  0  0  0  0  0  0  0  0  0  0
  -22.1705   -8.8416   20.2740 C   0  0  0  0  0  0  0  0  0  0  0  0
  -22.9118   -8.8743   22.5733 C   0  0  0  0  0  0  0  0  0  0  0  0
  -32.0516  -22.2447   15.6084 C   0  0  0  0  0  0  0  0  0  0  0  0
  -23.0715   -5.5305   22.0995 C   0  0  0  0  0  0  0  0  0  0  0  0
  -23.6389   -4.4991   22.8477 C   0  0  0  0  0  0  0  0  0  0  0  0
  -30.7239  -22.9329   17.5013 C   0  0  0  0  0  0  0  0  0  0  0  0
  -29.5586  -18.1462   23.3327 C   0  0  0  0  0  0  0  0  0  0  0  0
  -28.2764  -19.9931   22.4485 C   0  0  0  0  0  0  0  0  0  0  0  0
  -21.9325   -4.7836   24.5342 C   0  0  0  0  0  0  0  0  0  0  0  0
  -23.7296  -10.5312   21.0168 C   0  0  0  0  0  0  0  0  0  0  0  0
  -24.1750  -13.0367   20.8384 C   0  0  0  0  0  0  0  0  0  0  0  0
  -33.1667  -31.1185   14.3175 C   0  0  0  0  0  0  0  0  0  0  0  0
  -30.7471  -24.2894   15.4965 C   0  0  0  0  0  0  0  0  0  0  0  0
  -33.2755  -29.7845   14.7544 C   0  0  0  0  0  0  0  0  0  0  0  0
  -30.2826  -24.0657   16.8004 C   0  0  0  0  0  0  0  0  0  0  0  0
  -30.0265  -17.8573   22.0508 C   0  0  0  0  0  0  0  0  0  0  0  0
  -29.6193  -18.6363   20.9678 C   0  0  0  0  0  0  0  0  0  0  0  0
  -22.1450   -8.3002   21.5593 C   0  0  0  0  0  0  0  0  0  0  0  0
  -31.6049  -22.0285   16.9087 C   0  0  0  0  0  0  0  0  0  0  0  0
  -21.9345   -6.1886   22.5687 C   0  0  0  0  0  0  0  0  0  0  0  0
  -28.6835  -19.2141   23.5315 C   0  0  0  0  0  0  0  0  0  0  0  0
  -28.7443  -19.7042   21.1666 C   0  0  0  0  0  0  0  0  0  0  0  0
  -23.0694   -4.1256   24.0650 C   0  0  0  0  0  0  0  0  0  0  0  0
  -21.3650   -5.8151   23.7860 C   0  0  0  0  0  0  0  0  0  0  0  0
  -24.5486  -11.6832   20.7370 C   0  0  0  0  0  0  0  0  0  0  0  0
  -25.2996  -13.7321   20.4668 C   0  0  0  0  0  0  0  0  0  0  0  0
  -31.1846  -19.2890   19.1298 C   0  0  0  0  0  0  0  0  0  0  0  0
  -31.0784  -20.0450   18.0307 C   0  0  0  0  0  0  0  0  0  1  0  0
  -22.9233  -13.6138   21.2333 C   0  0  0  0  0  0  0  0  0  0  0  0
  -30.9120  -27.3722   16.2534 C   0  0  0  0  0  0  0  0  0  0  0  0
  -27.7843  -26.9544   17.0055 C   0  0  0  0  0  0  0  0  0  0  0  0
  -25.0350  -25.0811   18.4018 C   0  0  0  0  0  0  0  0  0  0  0  0
  -30.8187  -14.5322   20.6795 C   0  0  0  0  0  0  0  0  0  0  0  0
  -32.3252  -32.1290   15.0562 C   0  0  0  0  0  0  0  0  0  0  0  0
  -30.2720  -25.4820   14.7127 C   0  0  0  0  0  0  0  0  0  0  0  0
  -29.3269  -25.0141   17.4754 C   0  0  0  0  0  0  0  0  0  0  0  0
  -31.3031  -31.4982   15.9984 C   0  0  0  0  0  0  0  0  0  0  0  0
  -29.6039  -12.1377   18.3413 C   0  0  0  0  0  0  0  0  0  0  0  0
  -31.9532  -30.3991   16.8327 C   0  0  0  0  0  0  0  0  0  0  0  0
  -28.1522  -11.9133   18.7683 C   0  0  0  0  0  0  0  0  0  0  0  0
  -30.5196  -12.3507   19.5446 C   0  0  0  0  0  0  0  0  0  0  0  0
  -28.6383  -13.1922   20.8959 C   0  0  0  0  0  0  0  0  0  0  0  0
  -32.4876  -29.2722   15.9405 C   0  0  1  0  0  0  0  0  0  0  0  0
  -29.7850  -26.6241   15.5992 C   0  0  1  0  0  0  0  0  0  0  0  0
  -27.6672  -13.0283   19.7142 C   0  0  2  0  0  0  0  0  0  0  0  0
  -22.5813  -25.6007   18.4833 C   0  0  0  0  0  0  0  0  0  0  0  0
  -28.4181  -28.1223   19.7522 C   0  0  0  0  0  0  0  0  0  0  0  0
  -26.2436  -27.1913   20.5726 C   0  0  0  0  0  0  0  0  0  0  0  0
  -26.2601  -28.9039   18.7589 C   0  0  0  0  0  0  0  0  0  0  0  0
  -24.3314  -22.5218   17.0927 C   0  0  0  0  0  0  0  0  0  0  0  0
  -27.3355  -20.6023   24.9142 C   0  0  0  0  0  0  0  0  0  0  0  0
  -27.4406  -21.5464   20.4164 C   0  0  0  0  0  0  0  0  0  0  0  0
  -30.1227  -18.3291   19.5797 C   0  0  0  0  0  0  0  0  0  0  0  0
  -33.1384  -15.6974   22.7885 C   0  0  0  0  0  0  0  0  0  0  0  0
  -31.8478  -16.4604   23.1090 C   0  0  0  0  0  0  0  0  0  0  0  0
  -34.0030  -15.5442   24.0315 C   0  0  0  0  0  0  0  0  0  0  0  0
  -30.9623  -16.7082   21.8642 C   0  0  1  0  0  0  0  0  0  0  0  0
  -27.0283  -26.5500   18.2480 C   0  0  1  0  0  0  0  0  0  0  0  0
  -23.6810  -24.8393   17.7595 C   0  0  2  0  0  0  0  0  0  0  0  0
  -27.0070  -27.6748   19.3212 C   0  0  0  0  0  0  0  0  0  0  0  0
  -25.8118  -11.5259   20.3325 N   0  0  0  0  0  0  0  0  0  0  0  0
  -26.2417  -12.7895   20.1764 N   0  0  0  0  0  0  0  0  0  0  0  0
  -28.8962  -26.1688   16.6702 N   0  0  0  0  0  0  0  0  0  0  0  0
  -30.0044  -13.4222   20.4004 N   0  0  0  0  0  0  0  0  0  0  0  0
  -25.5647  -15.0517   20.3633 N   0  0  0  0  0  0  0  0  0  0  0  0
  -21.8725  -12.7550   21.5835 N   0  0  0  0  0  0  0  0  0  0  0  0
  -31.4043  -28.4201   15.4992 N   0  0  0  0  0  0  0  0  0  0  0  0
  -25.7060  -26.1253   17.8012 N   0  0  0  0  0  0  0  0  0  0  0  0
  -30.2512  -15.5051   21.4933 N   0  0  0  0  0  0  0  0  0  0  0  0
  -35.2574  -14.8425   23.6671 N   0  3  0  0  0  0  0  0  0  0  0  0
  -23.3454  -23.3876   17.7892 N   0  3  0  0  0  0  0  0  0  0  0  0
  -22.7369  -14.8540   21.2586 O   0  0  0  0  0  0  0  0  0  0  0  0
  -31.3047  -27.0253   17.3612 O   0  0  0  0  0  0  0  0  0  0  0  0
  -27.3982  -27.9270   16.3524 O   0  0  0  0  0  0  0  0  0  0  0  0
  -25.4539  -24.4130   19.3445 O   0  0  0  0  0  0  0  0  0  0  0  0
  -31.9644  -14.6503   20.2319 O   0  0  0  0  0  0  0  0  0  0  0  0
  -21.3719   -7.2118   21.8244 O   0  0  0  0  0  0  0  0  0  0  0  0
  -32.0232  -20.9333   17.5997 O   0  0  0  0  0  0  0  0  0  1  0  0
  -28.2276  -19.4966   24.7825 O   0  0  0  0  0  0  0  0  0  0  0  0
  -28.3356  -20.4762   20.1207 O   0  0  0  0  0  0  0  0  0  0  0  0
  -23.6136   -3.1341   24.7826 F   0  0  0  0  0  0  0  0  0  0  0  0
  -20.2721   -6.4427   24.2413 F   0  0  0  0  0  0  0  0  0  0  0  0
  1  2  1  0  0  0  0
  1  5  2  0  0  0  0
  2  6  2  0  0  0  0
  3  8  2  0  0  0  0
  3 17  1  0  0  0  0
  4  9  1  0  0  0  0
  4 17  2  0  0  0  0
  5 19  1  0  0  0  0
  6 21  1  0  0  0  0
  7 10  2  0  0  0  0
  7 20  1  0  0  0  0
  8 25  1  0  0  0  0
  9 25  2  0  0  0  0
 10 26  1  0  0  0  0
 11 12  2  0  0  0  0
 11 27  1  0  0  0  0
 12 30  1  0  0  0  0
 13 22  1  0  0  0  0
 13 26  2  0  0  0  0
 14 23  1  0  0  0  0
 14 28  2  0  0  0  0
 15 28  1  0  0  0  0
 15 29  2  0  0  0  0
 16 30  2  0  0  0  0
 16 31  1  0  0  0  0
 17 32  1  0  0  0  0
 18 32  1  0  0  0  0
 18 33  2  0  0  0  0
 18 36  1  0  0  0  0
 19 21  2  0  0  0  0
 19 41  1  0  0  0  0
 20 22  2  0  0  0  0
 20 42  1  0  0  0  0
 21 50  1  0  0  0  0
 22 43  1  0  0  0  0
 23 24  2  0  0  0  0
 23 64  1  0  0  0  0
 24 29  1  0  0  0  0
 24 60  1  0  0  0  0
 25 84  1  0  0  0  0
 26 85  1  0  0  0  0
 27 31  2  0  0  0  0
 27 84  1  0  0  0  0
 28 86  1  0  0  0  0
 29 87  1  0  0  0  0
 30 88  1  0  0  0  0
 31 89  1  0  0  0  0
 32 68  2  0  0  0  0
 33 69  1  0  0  0  0
 33 72  1  0  0  0  0
 34 35  2  0  0  0  0
 34 60  1  0  0  0  0
 35 85  1  0  0  0  0
 36 73  1  0  0  0  0
 36 79  2  0  0  0  0
 37 51  1  0  0  0  0
 37 74  1  0  0  0  0
 37 80  2  0  0  0  0
 38 65  1  0  0  0  0
 38 70  1  0  0  0  0
 38 81  2  0  0  0  0
 39 66  1  0  0  0  0
 39 75  1  0  0  0  0
 39 82  2  0  0  0  0
 40 71  1  0  0  0  0
 40 76  1  0  0  0  0
 40 83  2  0  0  0  0
 41 44  1  0  0  0  0
 42 51  1  0  0  0  0
 43 70  1  0  0  0  0
 44 46  1  0  0  0  0
 45 47  1  0  0  0  0
 45 48  1  0  0  0  0
 46 50  1  0  0  0  0
 47 52  1  0  0  0  0
 48 71  1  0  0  0  0
 49 52  1  0  0  0  0
 49 71  1  0  0  0  0
 50 74  1  0  0  0  0
 51 70  1  0  0  0  0
 52 69  1  0  0  0  0
 53 66  1  0  0  0  0
 54 67  1  0  0  0  0
 55 67  1  0  0  0  0
 56 67  1  0  0  0  0
 57 78  1  0  0  0  0
 58 86  1  0  0  0  0
 59 87  1  0  0  0  0
 61 62  1  0  0  0  0
 61 63  1  0  0  0  0
 62 64  1  0  0  0  0
 63 77  1  0  0  0  0
 64 76  1  0  0  0  0
 65 67  1  0  0  0  0
 65 75  1  0  0  0  0
 66 78  1  0  0  0  0
 68 69  1  0  0  0  0
M  CHG  2  77   1  78   1
M  ISO  4  35 101  40 100  76 100  85 101
M  END
> <Batch ID>
0104

> <Smiles>
CNC(C)C(=O)NC(C(=O)N1Cc2cc([101O:1][101CH:1]=CCc3c(OC)cc(OC)cc3C(CCCN)[100NH:0][100C:0](=O)N3CCCC(n4nc(-c5ccc(Oc6ccc(F)cc6F)cc5)c(C(N)=O)c4N)C3)ccc2CC1C(=O)NC1CCCc2ccccc21)C(C)(C)C

> <Shape>
0.259

> <Color>
0.196

> <Negative vol penalty>
0.000

$$$$

  -OEChem-04052301083D

 90 98  0     1  0  0  0  0  0999 V2000
  -29.1004  -36.3747   22.7010 C   0  0  0  0  0  0  0  0  0  0  0  0
  -29.2753  -35.0182   22.4467 C   0  0  0  0  0  0  0  0  0  0  0  0
  -22.6536   -9.8131   20.2251 C   0  0  0  0  0  0  0  0  0  0  0  0
  -23.7355   -9.5578   22.3702 C   0  0  0  0  0  0  0  0  0  0  0  0
  -28.0054  -36.8072   23.4479 C   0  0  0  0  0  0  0  0  0  0  0  0
  -28.3557  -34.0932   22.9401 C   0  0  0  0  0  0  0  0  0  0  0  0
  -27.0489  -30.6235   19.4908 C   0  0  0  0  0  0  0  0  0  0  0  0
  -22.3931   -8.4432   20.1934 C   0  0  0  0  0  0  0  0  0  0  0  0
  -23.4749   -8.1878   22.3385 C   0  0  0  0  0  0  0  0  0  0  0  0
  -27.9526  -29.5884   19.2548 C   0  0  0  0  0  0  0  0  0  0  0  0
  -20.8501   -6.1393   22.9166 C   0  0  0  0  0  0  0  0  0  0  0  0
  -20.3556   -5.5482   24.0792 C   0  0  0  0  0  0  0  0  0  0  0  0
  -26.6479  -28.1348   20.6704 C   0  0  0  0  0  0  0  0  0  0  0  0
  -27.6197  -19.5559   20.4521 C   0  0  0  0  0  0  0  0  0  0  0  0
  -26.5958  -20.6081   22.3708 C   0  0  0  0  0  0  0  0  0  0  0  0
  -22.2799   -4.0893   24.1558 C   0  0  0  0  0  0  0  0  0  0  0  0
  -23.3249  -10.3704   21.3135 C   0  0  0  0  0  0  0  0  0  0  0  0
  -22.7729  -12.7954   21.8815 C   0  0  0  0  0  0  0  0  0  0  0  0
  -27.0668  -35.8880   23.9425 C   0  0  0  0  0  0  0  0  0  0  0  0
  -25.9420  -30.4249   20.3284 C   0  0  0  0  0  0  0  0  0  0  0  0
  -27.2479  -34.5138   23.6954 C   0  0  0  0  0  0  0  0  0  0  0  0
  -25.7302  -29.1682   20.9133 C   0  0  0  0  0  0  0  0  0  0  0  0
  -26.9379  -19.4548   21.6647 C   0  0  0  0  0  0  0  0  0  0  0  0
  -27.9596  -20.8104   19.9456 C   0  0  0  0  0  0  0  0  0  0  0  0
  -22.8037   -7.6306   21.2501 C   0  0  0  0  0  0  0  0  0  0  0  0
  -27.7538  -28.3446   19.8470 C   0  0  0  0  0  0  0  0  0  0  0  0
  -22.0594   -5.7054   22.3735 C   0  0  0  0  0  0  0  0  0  0  0  0
  -26.9356  -21.8625   21.8643 C   0  0  0  0  0  0  0  0  0  0  0  0
  -27.6175  -21.9637   20.6517 C   0  0  0  0  0  0  0  0  0  0  0  0
  -21.0705   -4.5232   24.6988 C   0  0  0  0  0  0  0  0  0  0  0  0
  -22.7743   -4.6804   22.9931 C   0  0  0  0  0  0  0  0  0  0  0  0
  -23.5949  -11.7854   21.3465 C   0  0  0  0  0  0  0  0  0  0  0  0
  -23.4734  -13.9573   21.6675 C   0  0  0  0  0  0  0  0  0  0  0  0
  -21.4910  -12.6924   22.5153 C   0  0  0  0  0  0  0  0  0  0  0  0
  -24.9462  -31.6922   23.0681 C   0  0  0  0  0  0  0  0  0  0  0  0
  -22.3255  -29.8636   22.5110 C   0  0  0  0  0  0  0  0  0  0  0  0
  -20.9722  -27.1299   20.9805 C   0  0  0  0  0  0  0  0  0  0  0  0
  -28.5334  -16.5169   22.0691 C   0  0  0  0  0  0  0  0  0  0  0  0
  -25.9248  -36.3988   24.7849 C   0  0  0  0  0  0  0  0  0  0  0  0
  -24.9619  -31.5438   20.5514 C   0  0  0  0  0  0  0  0  0  0  0  0
  -24.5465  -28.8976   21.8044 C   0  0  0  0  0  0  0  0  0  0  0  0
  -24.7931  -35.3884   24.9540 C   0  0  0  0  0  0  0  0  0  0  0  0
  -27.5866  -14.8787   18.8877 C   0  0  0  0  0  0  0  0  0  0  0  0
  -25.3527  -34.0146   25.3094 C   0  0  0  0  0  0  0  0  0  0  0  0
  -26.4423  -13.9603   19.3136 C   0  0  0  0  0  0  0  0  0  0  0  0
  -28.5680  -15.1286   20.0288 C   0  0  0  0  0  0  0  0  0  0  0  0
  -26.7857  -14.7284   21.6953 C   0  0  0  0  0  0  0  0  0  0  0  0
  -26.2587  -33.4821   24.1926 C   0  0  1  0  0  0  0  0  0  0  0  0
  -24.1499  -31.3804   21.8326 C   0  0  1  0  0  0  0  0  0  0  0  0
  -25.7538  -14.4938   20.5819 C   0  0  2  0  0  0  0  0  0  0  0  0
  -28.5175  -21.4317   16.1762 C   0  0  0  0  0  0  0  0  0  0  0  0
  -25.7554  -25.3662   23.9640 C   0  0  0  0  0  0  0  0  0  0  0  0
  -18.8138  -25.8721   20.7430 C   0  0  0  0  0  0  0  0  0  0  0  0
  -22.7045  -28.6910   25.3023 C   0  0  0  0  0  0  0  0  0  0  0  0
  -21.1640  -26.8274   24.6527 C   0  0  0  0  0  0  0  0  0  0  0  0
  -20.3294  -29.1779   24.6890 C   0  0  0  0  0  0  0  0  0  0  0  0
  -28.1864  -17.9206   24.0663 C   0  0  0  0  0  0  0  0  0  0  0  0
  -20.8975  -27.5795   18.0562 C   0  0  0  0  0  0  0  0  0  0  0  0
  -28.6904  -20.8987   18.6464 C   0  0  0  0  0  0  0  0  0  0  0  0
  -26.5756  -18.1139   22.2079 C   0  0  0  0  0  0  0  0  0  0  0  0
  -27.7650  -21.3093   17.4918 C   0  0  0  0  0  0  0  0  0  0  0  0
  -24.9460  -24.6925   22.8706 C   0  0  0  0  0  0  0  0  0  0  0  0
  -29.4362  -25.0712   19.8733 C   0  0  0  0  0  0  0  0  0  0  0  0
  -25.2094  -23.1956   22.8124 C   0  0  0  0  0  0  0  0  0  0  0  0
  -28.3697  -26.0846   20.2578 C   0  0  0  0  0  0  0  0  0  1  0  0
  -29.2111  -23.7257   20.5450 C   0  0  0  0  0  0  0  0  0  0  0  0
  -21.9130  -28.4530   22.8563 C   0  0  1  0  0  0  0  0  0  0  0  0
  -19.7057  -26.9579   20.1614 C   0  0  2  0  0  0  0  0  0  0  0  0
  -21.5512  -28.2926   24.3599 C   0  0  0  0  0  0  0  0  0  0  0  0
  -24.7305  -12.2638   20.8313 N   0  0  0  0  0  0  0  0  0  0  0  0
  -24.6271  -13.5871   21.0414 N   0  0  0  0  0  0  0  0  0  0  0  0
  -23.6199  -30.0253   21.9969 N   0  0  0  0  0  0  0  0  0  0  0  0
  -27.8821  -15.5935   21.2348 N   0  0  0  0  0  0  0  0  0  0  0  0
  -23.2087  -15.2493   21.9557 N   0  0  0  0  0  0  0  0  0  0  0  0
  -20.9144  -11.4225   22.6542 N   0  0  0  0  0  0  0  0  0  0  0  0
  -25.4631  -32.9734   23.0959 N   0  0  0  0  0  0  0  0  0  0  0  0
  -20.8302  -28.1088   21.9411 N   0  0  0  0  0  0  0  0  0  0  0  0
  -27.7256  -17.4171   22.7802 N   0  0  0  0  0  0  0  0  0  0  0  0
  -20.0429  -26.5874   18.7578 N   0  3  0  0  0  0  0  0  0  0  0  0
  -20.8677  -13.6985   22.9311 O   0  0  0  0  0  0  0  0  0  0  0  0
  -25.0803  -30.8344   23.9329 O   0  0  0  0  0  0  0  0  0  0  0  0
  -21.5261  -30.7869   22.6841 O   0  0  0  0  0  0  0  0  0  0  0  0
  -21.9849  -26.4601   20.7897 O   0  0  0  0  0  0  0  0  0  0  0  0
  -29.7672  -16.5419   22.1651 O   0  0  0  0  0  0  0  0  0  0  0  0
  -22.5494   -6.2938   21.2196 O   0  0  0  0  0  0  0  0  0  0  0  0
  -28.6347  -27.3328   19.6189 O   0  0  0  0  0  0  0  0  0  1  0  0
  -26.5974  -22.9810   22.5648 O   0  0  0  0  0  0  0  0  0  0  0  0
  -27.9494  -23.1984   20.1578 O   0  0  0  0  0  0  0  0  0  0  0  0
  -20.5963   -3.9566   25.8161 F   0  0  0  0  0  0  0  0  0  0  0  0
  -23.9373   -4.2601   22.4767 F   0  0  0  0  0  0  0  0  0  0  0  0
  1  2  1  0  0  0  0
  1  5  2  0  0  0  0
  2  6  2  0  0  0  0
  3  8  2  0  0  0  0
  3 17  1  0  0  0  0
  4  9  1  0  0  0  0
  4 17  2  0  0  0  0
  5 19  1  0  0  0  0
  6 21  1  0  0  0  0
  7 10  2  0  0  0  0
  7 20  1  0  0  0  0
  8 25  1  0  0  0  0
  9 25  2  0  0  0  0
 10 26  1  0  0  0  0
 11 12  2  0  0  0  0
 11 27  1  0  0  0  0
 12 30  1  0  0  0  0
 13 22  1  0  0  0  0
 13 26  2  0  0  0  0
 14 23  1  0  0  0  0
 14 24  2  0  0  0  0
 15 23  2  0  0  0  0
 15 28  1  0  0  0  0
 16 30  2  0  0  0  0
 16 31  1  0  0  0  0
 17 32  1  0  0  0  0
 18 32  1  0  0  0  0
 18 33  2  0  0  0  0
 18 34  1  0  0  0  0
 19 21  2  0  0  0  0
 19 39  1  0  0  0  0
 20 22  2  0  0  0  0
 20 40  1  0  0  0  0
 21 48  1  0  0  0  0
 22 41  1  0  0  0  0
 23 60  1  0  0  0  0
 24 29  1  0  0  0  0
 24 59  1  0  0  0  0
 25 85  1  0  0  0  0
 26 86  1  0  0  0  0
 27 31  2  0  0  0  0
 27 85  1  0  0  0  0
 28 29  2  0  0  0  0
 28 87  1  0  0  0  0
 29 88  1  0  0  0  0
 30 89  1  0  0  0  0
 31 90  1  0  0  0  0
 32 70  2  0  0  0  0
 33 71  1  0  0  0  0
 33 74  1  0  0  0  0
 34 75  1  0  0  0  0
 34 80  2  0  0  0  0
 35 49  1  0  0  0  0
 35 76  1  0  0  0  0
 35 81  2  0  0  0  0
 36 67  1  0  0  0  0
 36 72  1  0  0  0  0
 36 82  2  0  0  0  0
 37 68  1  0  0  0  0
 37 77  1  0  0  0  0
 37 83  2  0  0  0  0
 38 73  1  0  0  0  0
 38 78  1  0  0  0  0
 38 84  2  0  0  0  0
 39 42  1  0  0  0  0
 40 49  1  0  0  0  0
 41 72  1  0  0  0  0
 42 44  1  0  0  0  0
 43 45  1  0  0  0  0
 43 46  1  0  0  0  0
 44 48  1  0  0  0  0
 45 50  1  0  0  0  0
 46 73  1  0  0  0  0
 47 50  1  0  0  0  0
 47 73  1  0  0  0  0
 48 76  1  0  0  0  0
 49 72  1  0  0  0  0
 50 71  1  0  0  0  0
 51 61  1  0  0  0  0
 52 62  1  0  0  0  0
 53 68  1  0  0  0  0
 54 69  1  0  0  0  0
 55 69  1  0  0  0  0
 56 69  1  0  0  0  0
 57 78  1  0  0  0  0
 58 79  1  0  0  0  0
 59 61  1  0  0  0  0
 60 78  1  0  0  0  0
 62 64  1  0  0  0  0
 63 65  1  0  0  0  0
 63 66  1  0  0  0  0
 64 87  1  0  0  0  0
 65 86  1  0  0  0  0
 66 88  1  0  0  0  0
 67 69  1  0  0  0  0
 67 77  1  0  0  0  0
 68 79  1  0  0  0  0
 70 71  1  0  0  0  0
M  CHG  1  79   1
M  ISO  4  38 100  65 101  78 100  86 101
M  END
> <Batch ID>
0104

> <Smiles>
CCCOc1cc(C[100N:0](C)[100C:0](=O)N2CCCC(n3nc(-c4ccc(Oc5ccc(F)cc5F)cc4)c(C(N)=O)c3N)C2)cc(CCC)c1OCC[101CH2:1][101O:1]c1ccc2c(c1)CN(C(=O)C(NC(=O)C(C)NC)C(C)(C)C)C(C(=O)NC1CCCc3ccccc31)C2

> <Shape>
0.342

> <Color>
0.086

> <Negative vol penalty>
0.000

$$$$

  -OEChem-04052301083D

 85 94  0     1  0  0  0  0  0999 V2000
  -27.5533  -24.3058   16.8056 C   0  0  0  0  0  0  0  0  0  0  0  0
  -26.4855  -25.1368   17.1253 C   0  0  0  0  0  0  0  0  0  0  0  0
  -24.8741  -13.8196   20.8039 C   0  0  0  0  0  0  0  0  0  0  0  0
  -27.1613  -13.0640   20.6170 C   0  0  0  0  0  0  0  0  0  0  0  0
  -28.6488  -24.2241   17.6626 C   0  0  0  0  0  0  0  0  0  0  0  0
  -26.5181  -25.8953   18.2960 C   0  0  0  0  0  0  0  0  0  0  0  0
  -23.5898  -22.8638   21.4953 C   0  0  0  0  0  0  0  0  0  0  0  0
  -22.8840  -29.1453   18.9551 C   0  0  0  0  0  0  0  0  0  0  0  0
  -22.4716  -23.7004   21.4983 C   0  0  0  0  0  0  0  0  0  0  0  0
  -24.4249  -12.5483   20.4468 C   0  0  0  0  0  0  0  0  0  0  0  0
  -26.7121  -11.7926   20.2599 C   0  0  0  0  0  0  0  0  0  0  0  0
  -21.5786  -28.7643   19.2626 C   0  0  0  0  0  0  0  0  0  0  0  0
  -24.0254   -9.5384   21.9348 C   0  0  0  0  0  0  0  0  0  0  0  0
  -22.9829   -8.9864   22.6792 C   0  0  0  0  0  0  0  0  0  0  0  0
  -22.2793  -23.5310   19.0777 C   0  0  0  0  0  0  0  0  0  0  0  0
  -21.9387  -29.4062   21.5598 C   0  0  0  0  0  0  0  0  0  0  0  0
  -21.6291   -8.8507   20.6828 C   0  0  0  0  0  0  0  0  0  0  0  0
  -26.2423  -14.0775   20.8890 C   0  0  0  0  0  0  0  0  0  0  0  0
  -26.9703  -15.8660   22.5560 C   0  0  0  0  0  0  0  0  0  0  0  0
  -28.6885  -24.9728   18.8504 C   0  0  0  0  0  0  0  0  0  0  0  0
  -23.7315  -29.6503   19.9517 C   0  0  0  0  0  0  0  0  0  0  0  0
  -24.0369  -22.3758   20.2802 C   0  0  0  0  0  0  0  0  0  0  0  0
  -27.6254  -25.8447   19.1619 C   0  0  0  0  0  0  0  0  0  0  0  0
  -23.3892  -22.7051   19.0855 C   0  0  0  0  0  0  0  0  0  0  0  0
  -23.2536  -29.7954   21.2619 C   0  0  0  0  0  0  0  0  0  0  0  0
  -21.8208  -24.0310   20.2985 C   0  0  0  0  0  0  0  0  0  0  0  0
  -25.3439  -11.5348   20.1748 C   0  0  0  0  0  0  0  0  0  0  0  0
  -21.1067  -28.8920   20.5657 C   0  0  0  0  0  0  0  0  0  0  0  0
  -23.8697   -9.7466   20.5644 C   0  0  0  0  0  0  0  0  0  0  0  0
  -21.7848   -8.6425   22.0532 C   0  0  0  0  0  0  0  0  0  0  0  0
  -22.6716   -9.4027   19.9383 C   0  0  0  0  0  0  0  0  0  0  0  0
  -26.7070  -15.3907   21.2573 C   0  0  0  0  0  0  0  0  0  0  0  0
  -27.3843  -17.1623   22.3698 C   0  0  0  0  0  0  0  0  0  0  0  0
  -26.8515  -15.1956   23.8178 C   0  0  0  0  0  0  0  0  0  0  0  0
  -26.4915  -28.7263   21.2292 C   0  0  0  0  0  0  0  0  0  0  0  0
  -26.2860  -31.5747   22.7676 C   0  0  0  0  0  0  0  0  0  0  0  0
  -20.0975  -25.4681   21.4427 C   0  0  0  0  0  0  0  0  0  0  0  0
  -24.3119  -34.1067   23.9247 C   0  0  0  0  0  0  0  0  0  0  0  0
  -26.2926  -20.9451   17.7511 C   0  0  0  0  0  0  0  0  0  0  0  0
  -29.9022  -24.8521   19.7377 C   0  0  0  0  0  0  0  0  0  0  0  0
  -25.1284  -30.0819   19.5983 C   0  0  0  0  0  0  0  0  0  0  0  0
  -25.1835  -21.4556   20.0130 C   0  0  0  0  0  0  0  0  0  0  0  0
  -24.0727  -22.0556   17.9299 C   0  0  0  0  0  0  0  0  0  0  0  0
  -24.1169  -30.3510   22.3640 C   0  0  0  0  0  0  0  0  0  0  0  0
  -29.6514  -25.3464   21.1587 C   0  0  0  0  0  0  0  0  0  0  0  0
  -29.5424  -19.9891   19.1608 C   0  0  0  0  0  0  0  0  0  0  0  0
  -28.9995  -26.7206   21.1235 C   0  0  0  0  0  0  0  0  0  0  0  0
  -29.2065  -18.7145   19.9382 C   0  0  0  0  0  0  0  0  0  0  0  0
  -28.6316  -20.1787   17.9494 C   0  0  0  0  0  0  0  0  0  0  0  0
  -26.8640  -18.8364   19.0173 C   0  0  0  0  0  0  0  0  0  0  0  0
  -27.6252  -26.6558   20.4451 C   0  0  1  0  0  0  0  0  0  0  0  0
  -26.0692  -30.1026   20.7990 C   0  0  1  0  0  0  0  0  0  0  0  0
  -27.7067  -18.6516   20.2861 C   0  0  1  0  0  0  0  0  0  0  0  0
  -24.4261  -36.2794   25.1751 C   0  0  0  0  0  0  0  0  0  0  0  0
  -18.0396  -27.9947   19.3630 C   0  0  0  0  0  0  0  0  0  0  0  0
  -26.6598  -30.0474   25.3825 C   0  0  0  0  0  0  0  0  0  0  0  0
  -25.8280  -32.0698   26.6017 C   0  0  0  0  0  0  0  0  0  0  0  0
  -27.9173  -32.2048   25.2455 C   0  0  0  0  0  0  0  0  0  0  0  0
  -23.2102  -35.6181   21.6310 C   0  0  0  0  0  0  0  0  0  0  0  0
  -18.8957  -26.3109   21.0269 C   0  0  0  0  0  0  0  0  0  0  0  0
  -25.6847  -32.0455   24.0699 C   0  0  1  0  0  0  0  0  0  0  0  0
  -24.4362  -35.6150   23.8072 C   0  0  2  0  0  0  0  0  0  0  0  0
  -19.2663  -27.4622   20.0919 C   0  0  2  0  0  0  0  0  0  1  0  0
  -26.5066  -31.5796   25.3048 C   0  0  0  0  0  0  0  0  0  0  0  0
  -26.9344  -16.3103   20.3157 N   0  0  0  0  0  0  0  0  0  0  0  0
  -27.3449  -17.3764   21.0234 N   0  0  0  0  0  0  0  0  0  0  0  0
  -25.4772  -30.7530   21.9698 N   0  0  0  0  0  0  0  0  0  0  0  0
  -25.2119  -21.3491   18.5390 N   0  0  0  0  0  0  0  0  0  0  0  0
  -27.2252  -20.0835   18.3372 N   0  0  0  0  0  0  0  0  0  0  0  0
  -27.7744  -18.1285   23.2281 N   0  0  0  0  0  0  0  0  0  0  0  0
  -26.4119  -13.8648   23.8286 N   0  0  0  0  0  0  0  0  0  0  0  0
  -20.7045  -24.8684   20.3274 N   0  0  0  0  0  0  0  0  0  0  0  0
  -27.1342  -28.0013   20.2439 N   0  0  0  0  0  0  0  0  0  0  0  0
  -25.5464  -33.4933   23.9558 N   0  0  0  0  0  0  0  0  0  0  0  0
  -23.3060  -36.1673   23.0081 N   0  3  0  0  0  0  0  0  0  0  0  0
  -27.1113  -15.7652   24.9048 O   0  0  0  0  0  0  0  0  0  0  0  0
  -26.2534  -28.3505   22.3710 O   0  0  0  0  0  0  0  0  0  0  0  0
  -27.4284  -31.9290   22.4660 O   0  0  0  0  0  0  0  0  0  0  0  0
  -20.4472  -25.3613   22.6134 O   0  0  0  0  0  0  0  0  0  0  0  0
  -23.2280  -33.5305   23.9868 O   0  0  0  0  0  0  0  0  0  0  0  0
  -26.4477  -21.3756   16.6012 O   0  0  0  0  0  0  0  0  0  0  0  0
  -24.9059  -10.2940   19.8265 O   0  0  0  0  0  0  0  0  0  0  0  0
  -19.8261  -28.5181   20.8703 O   0  0  0  0  0  0  0  0  0  1  0  0
  -20.7844   -8.1110   22.7679 F   0  0  0  0  0  0  0  0  0  0  0  0
  -22.5166   -9.5993   18.6218 F   0  0  0  0  0  0  0  0  0  0  0  0
  1  2  1  0  0  0  0
  1  5  2  0  0  0  0
  2  6  2  0  0  0  0
  3 10  2  0  0  0  0
  3 18  1  0  0  0  0
  4 11  1  0  0  0  0
  4 18  2  0  0  0  0
  5 20  1  0  0  0  0
  6 23  1  0  0  0  0
  7  9  2  0  0  0  0
  7 22  1  0  0  0  0
  8 12  2  0  0  0  0
  8 21  1  0  0  0  0
  9 26  1  0  0  0  0
 10 27  1  0  0  0  0
 11 27  2  0  0  0  0
 12 28  1  0  0  0  0
 13 14  2  0  0  0  0
 13 29  1  0  0  0  0
 14 30  1  0  0  0  0
 15 24  1  0  0  0  0
 15 26  2  0  0  0  0
 16 25  1  0  0  0  0
 16 28  2  0  0  0  0
 17 30  2  0  0  0  0
 17 31  1  0  0  0  0
 18 32  1  0  0  0  0
 19 32  1  0  0  0  0
 19 33  2  0  0  0  0
 19 34  1  0  0  0  0
 20 23  2  0  0  0  0
 20 40  1  0  0  0  0
 21 25  2  0  0  0  0
 21 41  1  0  0  0  0
 22 24  2  0  0  0  0
 22 42  1  0  0  0  0
 23 51  1  0  0  0  0
 24 43  1  0  0  0  0
 25 44  1  0  0  0  0
 26 72  1  0  0  0  0
 27 82  1  0  0  0  0
 28 83  1  0  0  0  0
 29 31  2  0  0  0  0
 29 82  1  0  0  0  0
 30 84  1  0  0  0  0
 31 85  1  0  0  0  0
 32 65  2  0  0  0  0
 33 66  1  0  0  0  0
 33 70  1  0  0  0  0
 34 71  1  0  0  0  0
 34 76  2  0  0  0  0
 35 52  1  0  0  0  0
 35 73  1  0  0  0  0
 35 77  2  0  0  0  0
 36 61  1  0  0  0  0
 36 67  1  0  0  0  0
 36 78  2  0  0  0  0
 37 60  1  0  0  0  0
 37 72  1  0  0  0  0
 37 79  2  0  0  0  0
 38 62  1  0  0  0  0
 38 74  1  0  0  0  0
 38 80  2  0  0  0  0
 39 68  1  0  0  0  0
 39 69  1  0  0  0  0
 39 81  2  0  0  0  0
 40 45  1  0  0  0  0
 41 52  1  0  0  0  0
 42 68  1  0  0  0  0
 43 68  1  0  0  0  0
 44 67  1  0  0  0  0
 45 47  1  0  0  0  0
 46 48  1  0  0  0  0
 46 49  1  0  0  0  0
 47 51  1  0  0  0  0
 48 53  1  0  0  0  0
 49 69  1  0  0  0  0
 50 53  1  0  0  0  0
 50 69  1  0  0  0  0
 51 73  1  0  0  0  0
 52 67  1  0  0  0  0
 53 66  1  0  0  0  0
 54 62  1  0  0  0  0
 55 63  1  0  0  0  0
 56 64  1  0  0  0  0
 57 64  1  0  0  0  0
 58 64  1  0  0  0  0
 59 75  1  0  0  0  0
 60 63  1  0  0  0  0
 61 64  1  0  0  0  0
 61 74  1  0  0  0  0
 62 75  1  0  0  0  0
 63 83  1  0  0  0  0
 65 66  1  0  0  0  0
M  CHG  1  75   1
M  ISO  4  39 100  63 101  68 100  83 101
M  END
> <Batch ID>
0104

> <Smiles>
CNC(C)C(=O)NC(C(=O)N1Cc2cc([101O:1][101CH:1](C)CC(=O)Nc3ccc4c(c3)C[100N:0]([100C:0](=O)N3CCCC(n5nc(-c6ccc(Oc7ccc(F)cc7F)cc6)c(C(N)=O)c5N)C3)C4)ccc2CC1C(=O)NC1CCCc2ccccc21)C(C)(C)C

> <Shape>
0.300

> <Color>
0.087

> <Negative vol penalty>
0.000

$$$$

  -OEChem-04052301083D

 89 98  0     1  0  0  0  0  0999 V2000
  -18.8604  -27.3320   22.6614 C   0  0  0  0  0  0  0  0  0  0  0  0
  -20.0770  -27.1856   22.0026 C   0  0  0  0  0  0  0  0  0  0  0  0
  -23.7972   -9.6122   22.1490 C   0  0  0  0  0  0  0  0  0  0  0  0
  -24.7312   -8.6243   20.1517 C   0  0  0  0  0  0  0  0  0  0  0  0
  -18.4560  -28.5906   23.1044 C   0  0  0  0  0  0  0  0  0  0  0  0
  -20.8894  -28.2980   21.7856 C   0  0  0  0  0  0  0  0  0  0  0  0
  -25.7563  -27.3858   22.8468 C   0  0  0  0  0  0  0  0  0  0  0  0
  -22.8550   -8.5859   22.2160 C   0  0  0  0  0  0  0  0  0  0  0  0
  -23.7889   -7.5980   20.2188 C   0  0  0  0  0  0  0  0  0  0  0  0
  -26.4916  -26.6733   21.9005 C   0  0  0  0  0  0  0  0  0  0  0  0
  -22.7534   -5.3595   23.2225 C   0  0  0  0  0  0  0  0  0  0  0  0
  -22.5278   -4.7668   24.4648 C   0  0  0  0  0  0  0  0  0  0  0  0
  -27.4387  -28.7385   21.0901 C   0  0  0  0  0  0  0  0  0  0  0  0
  -30.0855  -20.5076   19.7331 C   0  0  0  0  0  0  0  0  0  0  0  0
  -27.7356  -20.7380   21.2189 C   0  0  0  0  0  0  0  0  0  0  0  0
  -20.2081   -5.4343   24.3621 C   0  0  0  0  0  0  0  0  0  0  0  0
  -24.7353   -9.6315   21.1168 C   0  0  0  0  0  0  0  0  0  0  0  0
  -26.9875  -10.7119   21.6345 C   0  0  0  0  0  0  0  0  0  0  0  0
  -19.2683  -29.7174   22.9013 C   0  0  0  0  0  0  0  0  0  0  0  0
  -25.8486  -28.7834   22.9147 C   0  0  0  0  0  0  0  0  0  0  0  0
  -20.4948  -29.5730   22.2252 C   0  0  0  0  0  0  0  0  0  0  0  0
  -26.7055  -29.4663   22.0398 C   0  0  0  0  0  0  0  0  0  0  0  0
  -29.1017  -19.5233   19.6392 C   0  0  0  0  0  0  0  0  0  0  0  0
  -29.8944  -21.6071   20.5700 C   0  0  0  0  0  0  0  0  0  0  0  0
  -27.9267  -19.6385   20.3821 C   0  0  0  0  0  0  0  0  0  0  0  0
  -22.8509   -7.5788   21.2510 C   0  0  0  0  0  0  0  0  0  0  0  0
  -27.3308  -27.3498   21.0201 C   0  0  0  0  0  0  0  0  0  0  0  0
  -21.7064   -5.9897   22.5500 C   0  0  0  0  0  0  0  0  0  0  0  0
  -28.7194  -21.7223   21.3128 C   0  0  0  0  0  0  0  0  0  0  0  0
  -21.2552   -4.8041   25.0346 C   0  0  0  0  0  0  0  0  0  0  0  0
  -20.4337   -6.0270   23.1197 C   0  0  0  0  0  0  0  0  0  0  0  0
  -25.7085  -10.6917   21.0466 C   0  0  0  0  0  0  0  0  0  0  0  0
  -27.5110  -11.9299   21.2758 C   0  0  0  0  0  0  0  0  0  0  0  0
  -30.5126  -25.1354   20.4818 C   0  0  0  0  0  0  0  0  0  0  0  0
  -27.6436   -9.7184   22.4333 C   0  0  0  0  0  0  0  0  0  0  0  0
  -23.8039  -31.1875   22.5360 C   0  0  0  0  0  0  0  0  0  0  0  0
  -26.3277  -32.9749   23.5147 C   0  0  0  0  0  0  0  0  0  0  0  0
  -29.7117  -33.2788   23.8357 C   0  0  0  0  0  0  0  0  0  0  0  0
  -27.1586  -17.2870   20.6502 C   0  0  0  0  0  0  0  0  0  0  0  0
  -18.7671  -31.0651   23.3564 C   0  0  0  0  0  0  0  0  0  0  0  0
  -25.0692  -29.5351   23.9588 C   0  0  0  0  0  0  0  0  0  0  0  0
  -26.8557  -30.9642   22.0850 C   0  0  0  0  0  0  0  0  0  0  0  0
  -19.8578  -32.1313   23.4186 C   0  0  0  0  0  0  0  0  0  0  0  0
  -25.9025  -15.3614   17.9377 C   0  0  0  0  0  0  0  0  0  0  0  0
  -20.7059  -32.1020   22.1511 C   0  0  0  0  0  0  0  0  0  0  0  0
  -25.8341  -13.9677   18.5611 C   0  0  0  0  0  0  0  0  0  0  0  0
  -29.6899  -25.1603   18.2426 C   0  0  0  0  0  0  0  0  0  0  0  0
  -25.4822  -16.4511   18.9246 C   0  0  0  0  0  0  0  0  0  0  0  0
  -30.3880  -23.8394   18.5060 C   0  0  0  0  0  0  0  0  0  0  0  0
  -26.1533  -15.0235   20.8314 C   0  0  0  0  0  0  0  0  0  0  0  0
  -21.4152  -30.7517   21.9930 C   0  0  1  0  0  0  0  0  0  0  0  0
  -30.2467  -26.0853   19.3274 C   0  0  1  0  0  0  0  0  0  0  0  0
  -24.8488  -31.0013   23.5995 C   0  0  1  0  0  0  0  0  0  0  0  0
  -26.6254  -13.9131   19.8798 C   0  0  1  0  0  0  0  0  0  0  0  0
  -29.3331  -18.3566   18.7346 C   0  0  0  0  0  0  0  0  0  0  0  0
  -31.4794  -34.8691   24.6380 C   0  0  0  0  0  0  0  0  0  0  0  0
  -25.9479  -34.6616   21.0006 C   0  0  0  0  0  0  0  0  0  0  0  0
  -28.2460  -35.5881   21.3593 C   0  0  0  0  0  0  0  0  0  0  0  0
  -26.4682  -35.9712   23.0667 C   0  0  0  0  0  0  0  0  0  0  0  0
  -25.5119  -19.0589   20.0809 C   0  0  0  0  0  0  0  0  0  0  0  0
  -30.6806  -31.3586   25.8686 C   0  0  0  0  0  0  0  0  0  0  0  0
  -27.2875  -22.8265   22.8576 C   0  0  0  0  0  0  0  0  0  0  0  0
  -30.9633  -22.6576   20.6594 C   0  0  0  0  0  0  0  0  0  0  0  0
  -29.3013  -27.2124   19.6958 C   0  0  0  0  0  0  0  0  0  1  0  0
  -27.4792  -33.6665   22.8257 C   0  0  1  0  0  0  0  0  0  0  0  0
  -30.5784  -33.7013   25.0082 C   0  0  2  0  0  0  0  0  0  0  0  0
  -27.0312  -34.9438   22.0607 C   0  0  0  0  0  0  0  0  0  0  0  0
  -25.4360  -11.8083   20.3662 N   0  0  0  0  0  0  0  0  0  0  0  0
  -26.5511  -12.5416   20.5244 N   0  0  0  0  0  0  0  0  0  0  0  0
  -30.6057  -23.8571   19.9337 N   0  0  0  0  0  0  0  0  0  0  0  0
  -26.0680  -31.6550   23.1194 N   0  0  0  0  0  0  0  0  0  0  0  0
  -26.2346  -16.3339   20.1817 N   0  0  0  0  0  0  0  0  0  0  0  0
  -28.6943  -12.5268   21.5330 N   0  0  0  0  0  0  0  0  0  0  0  0
  -26.9628   -8.5242   22.7065 N   0  0  0  0  0  0  0  0  0  0  0  0
  -22.5637  -30.6782   22.8705 N   0  0  0  0  0  0  0  0  0  0  0  0
  -28.4849  -33.9080   23.8546 N   0  0  0  0  0  0  0  0  0  0  0  0
  -26.8972  -18.6291   20.2999 N   0  0  0  0  0  0  0  0  0  0  0  0
  -31.4374  -32.5674   25.4524 N   0  3  0  0  0  0  0  0  0  0  0  0
  -30.6619  -25.4658   21.6488 O   0  0  0  0  0  0  0  0  0  0  0  0
  -28.7930   -9.8915   22.9049 O   0  0  0  0  0  0  0  0  0  0  0  0
  -24.1005  -31.7527   21.4899 O   0  0  0  0  0  0  0  0  0  0  0  0
  -25.6870  -33.5809   24.3771 O   0  0  0  0  0  0  0  0  0  0  0  0
  -30.0870  -32.4742   22.9858 O   0  0  0  0  0  0  0  0  0  0  0  0
  -28.1275  -16.9672   21.3493 O   0  0  0  0  0  0  0  0  0  0  0  0
  -21.9317   -6.5770   21.3163 O   0  0  0  0  0  0  0  0  0  0  0  0
  -28.5168  -22.7892   22.1355 O   0  0  0  0  0  0  0  0  0  0  0  0
  -28.0491  -26.6568   20.0951 O   0  0  0  0  0  0  0  0  0  1  0  0
  -21.0384   -4.2336   26.2269 F   0  0  0  0  0  0  0  0  0  0  0  0
  -19.4236   -6.6299   22.4779 F   0  0  0  0  0  0  0  0  0  0  0  0
  1  2  1  0  0  0  0
  1  5  2  0  0  0  0
  2  6  2  0  0  0  0
  3  8  2  0  0  0  0
  3 17  1  0  0  0  0
  4  9  1  0  0  0  0
  4 17  2  0  0  0  0
  5 19  1  0  0  0  0
  6 21  1  0  0  0  0
  7 10  2  0  0  0  0
  7 20  1  0  0  0  0
  8 26  1  0  0  0  0
  9 26  2  0  0  0  0
 10 27  1  0  0  0  0
 11 12  2  0  0  0  0
 11 28  1  0  0  0  0
 12 30  1  0  0  0  0
 13 22  1  0  0  0  0
 13 27  2  0  0  0  0
 14 23  2  0  0  0  0
 14 24  1  0  0  0  0
 15 25  2  0  0  0  0
 15 29  1  0  0  0  0
 16 30  2  0  0  0  0
 16 31  1  0  0  0  0
 17 32  1  0  0  0  0
 18 32  1  0  0  0  0
 18 33  2  0  0  0  0
 18 35  1  0  0  0  0
 19 21  2  0  0  0  0
 19 40  1  0  0  0  0
 20 22  2  0  0  0  0
 20 41  1  0  0  0  0
 21 51  1  0  0  0  0
 22 42  1  0  0  0  0
 23 25  1  0  0  0  0
 23 55  1  0  0  0  0
 24 29  2  0  0  0  0
 24 63  1  0  0  0  0
 25 77  1  0  0  0  0
 26 85  1  0  0  0  0
 27 87  1  0  0  0  0
 28 31  2  0  0  0  0
 28 85  1  0  0  0  0
 29 86  1  0  0  0  0
 30 88  1  0  0  0  0
 31 89  1  0  0  0  0
 32 68  2  0  0  0  0
 33 69  1  0  0  0  0
 33 73  1  0  0  0  0
 34 52  1  0  0  0  0
 34 70  1  0  0  0  0
 34 79  2  0  0  0  0
 35 74  1  0  0  0  0
 35 80  2  0  0  0  0
 36 53  1  0  0  0  0
 36 75  1  0  0  0  0
 36 81  2  0  0  0  0
 37 65  1  0  0  0  0
 37 71  1  0  0  0  0
 37 82  2  0  0  0  0
 38 66  1  0  0  0  0
 38 76  1  0  0  0  0
 38 83  2  0  0  0  0
 39 72  1  0  0  0  0
 39 77  1  0  0  0  0
 39 84  2  0  0  0  0
 40 43  1  0  0  0  0
 41 53  1  0  0  0  0
 42 71  1  0  0  0  0
 43 45  1  0  0  0  0
 44 46  1  0  0  0  0
 44 48  1  0  0  0  0
 45 51  1  0  0  0  0
 46 54  1  0  0  0  0
 47 49  1  0  0  0  0
 47 52  1  0  0  0  0
 48 72  1  0  0  0  0
 49 70  1  0  0  0  0
 50 54  1  0  0  0  0
 50 72  1  0  0  0  0
 51 75  1  0  0  0  0
 52 64  1  0  0  0  0
 53 71  1  0  0  0  0
 54 69  1  0  0  0  0
 56 66  1  0  0  0  0
 57 67  1  0  0  0  0
 58 67  1  0  0  0  0
 59 67  1  0  0  0  0
 60 77  1  0  0  0  0
 61 78  1  0  0  0  0
 62 86  1  0  0  0  0
 63 70  1  0  0  0  0
 64 87  1  0  0  0  0
 65 67  1  0  0  0  0
 65 76  1  0  0  0  0
 66 78  1  0  0  0  0
 68 69  1  0  0  0  0
M  CHG  1  78   1
M  ISO  4  39 100  64 101  77 100  87 101
M  END
> <Batch ID>
0104

> <Smiles>
CNC(C)C(=O)NC(C(=O)N1Cc2cc([101O:1][101CH2:1]C3CCN(Cc4cc(C)c([100N:0](C)[100C:0](=O)N5CCCC(n6nc(-c7ccc(Oc8ccc(F)cc8F)cc7)c(C(N)=O)c6N)C5)cc4OC)C3=O)ccc2CC1C(=O)NC1CCCc2ccccc21)C(C)(C)C

> <Shape>
0.336

> <Color>
0.086

> <Negative vol penalty>
0.000

$$$$

  -OEChem-04052301083D

 86 94  0     1  0  0  0  0  0999 V2000
  -32.2658  -24.6138   21.0290 C   0  0  0  0  0  0  0  0  0  0  0  0
  -32.2014  -25.9287   20.5820 C   0  0  0  0  0  0  0  0  0  0  0  0
  -26.4056  -12.7612   20.5604 C   0  0  0  0  0  0  0  0  0  0  0  0
  -24.6086  -14.3642   20.7562 C   0  0  0  0  0  0  0  0  0  0  0  0
  -31.4026  -23.6579   20.4975 C   0  0  0  0  0  0  0  0  0  0  0  0
  -31.2659  -26.2907   19.6121 C   0  0  0  0  0  0  0  0  0  0  0  0
  -23.7536  -27.8095   18.8946 C   0  0  0  0  0  0  0  0  0  0  0  0
  -25.5850  -11.7744   21.1066 C   0  0  0  0  0  0  0  0  0  0  0  0
  -23.7879  -13.3773   21.3024 C   0  0  0  0  0  0  0  0  0  0  0  0
  -22.6796  -27.2564   19.5905 C   0  0  0  0  0  0  0  0  0  0  0  0
  -23.0750   -9.7633   20.0633 C   0  0  0  0  0  0  0  0  0  0  0  0
  -23.0646   -8.5132   19.4446 C   0  0  0  0  0  0  0  0  0  0  0  0
  -23.8701  -22.1374   22.9876 C   0  0  0  0  0  0  0  0  0  0  0  0
  -23.9324  -27.4239   21.6451 C   0  0  0  0  0  0  0  0  0  0  0  0
  -25.8434  -23.1923   21.3216 C   0  0  0  0  0  0  0  0  0  0  0  0
  -23.8359   -7.4925   21.4942 C   0  0  0  0  0  0  0  0  0  0  0  0
  -25.9174  -14.0561   20.3852 C   0  0  0  0  0  0  0  0  0  0  0  0
  -25.2171  -21.9259   23.2815 C   0  0  0  0  0  0  0  0  0  0  0  0
  -26.9094  -15.4046   18.4603 C   0  0  0  0  0  0  0  0  0  0  0  0
  -30.4648  -24.0066   19.5116 C   0  0  0  0  0  0  0  0  0  0  0  0
  -24.9312  -28.1644   19.5682 C   0  0  0  0  0  0  0  0  0  0  0  0
  -30.3699  -25.3455   19.0807 C   0  0  0  0  0  0  0  0  0  0  0  0
  -25.0190  -27.9836   20.9559 C   0  0  0  0  0  0  0  0  0  0  0  0
  -26.2038  -22.4534   22.4485 C   0  0  0  0  0  0  0  0  0  0  0  0
  -24.2761  -12.0825   21.4776 C   0  0  0  0  0  0  0  0  0  0  0  0
  -22.7699  -27.0609   20.9655 C   0  0  0  0  0  0  0  0  0  0  0  0
  -23.4659   -9.8781   21.3974 C   0  0  0  0  0  0  0  0  0  0  0  0
  -23.5097  -22.8763   21.8607 C   0  0  0  0  0  0  0  0  0  0  0  0
  -24.4963  -23.4037   21.0277 C   0  0  0  0  0  0  0  0  0  0  0  0
  -23.4450   -7.3778   20.1601 C   0  0  0  0  0  0  0  0  0  0  0  0
  -23.8463   -8.7427   22.1128 C   0  0  0  0  0  0  0  0  0  0  0  0
  -26.7649  -15.0760   19.8215 C   0  0  0  0  0  0  0  0  0  0  0  0
  -27.8223  -16.4307   18.4498 C   0  0  0  0  0  0  0  0  0  0  0  0
  -25.2154  -19.8833   24.6390 C   0  0  0  0  0  0  0  0  0  0  0  0
  -25.5617  -21.1499   24.4656 C   0  0  0  0  0  0  0  0  0  0  0  0
  -26.2750  -14.8335   17.3083 C   0  0  0  0  0  0  0  0  0  0  0  0
  -27.9687  -27.2402   19.4148 C   0  0  0  0  0  0  0  0  0  0  0  0
  -28.4068  -29.6655   21.5239 C   0  0  0  0  0  0  0  0  0  0  0  0
  -27.0707  -31.7059   23.9111 C   0  0  0  0  0  0  0  0  0  0  0  0
  -29.4185  -20.5101   22.5317 C   0  0  0  0  0  0  0  0  0  0  0  0
  -29.5496  -22.9337   18.9765 C   0  0  0  0  0  0  0  0  0  0  0  0
  -26.0708  -28.7845   18.8072 C   0  0  0  0  0  0  0  0  0  0  0  0
  -26.2535  -28.3668   21.7290 C   0  0  0  0  0  0  0  0  0  0  0  0
  -28.9034  -23.3119   17.6477 C   0  0  0  0  0  0  0  0  0  0  0  0
  -31.5436  -18.1570   20.9121 C   0  0  0  0  0  0  0  0  0  0  0  0
  -28.2963  -24.7037   17.7425 C   0  0  0  0  0  0  0  0  0  0  0  0
  -30.5729  -17.1302   20.3261 C   0  0  0  0  0  0  0  0  0  0  0  0
  -31.0647  -18.6783   22.2652 C   0  0  0  0  0  0  0  0  0  0  0  0
  -28.7201  -18.1880   21.6852 C   0  0  0  0  0  0  0  0  0  0  0  0
  -29.3811  -25.7560   18.0045 C   0  0  1  0  0  0  0  0  0  0  0  0
  -27.4141  -28.6331   19.5144 C   0  0  1  0  0  0  0  0  0  0  0  0
  -29.1322  -17.6748   20.2948 C   0  0  2  0  0  0  0  0  0  0  0  0
  -27.6841  -33.5638   25.4825 C   0  0  0  0  0  0  0  0  0  0  0  0
  -29.7920  -27.6560   23.3551 C   0  0  0  0  0  0  0  0  0  0  0  0
  -29.5255  -29.2896   25.2336 C   0  0  0  0  0  0  0  0  0  0  0  0
  -30.8967  -29.8968   23.2401 C   0  0  0  0  0  0  0  0  0  0  0  0
  -25.1475  -33.5664   22.6467 C   0  0  0  0  0  0  0  0  0  0  0  0
  -23.9795  -23.4065   18.7064 C   0  0  0  0  0  0  0  0  0  0  0  0
  -27.6570  -22.2468   22.7324 C   0  0  0  0  0  0  0  0  0  0  0  0
  -20.3216  -24.5727   21.8969 C   0  0  0  0  0  0  0  0  0  0  0  0
  -20.8879  -25.6072   20.9371 C   0  0  0  0  0  0  0  0  0  1  0  0
  -21.4172  -23.7586   22.5671 C   0  0  0  0  0  0  0  0  0  0  0  0
  -28.3795  -29.7923   23.0280 C   0  0  1  0  0  0  0  0  0  0  0  0
  -27.1428  -33.2096   24.1061 C   0  0  2  0  0  0  0  0  0  0  0  0
  -29.6257  -29.1495   23.6996 C   0  0  0  0  0  0  0  0  0  0  0  0
  -27.5253  -15.8320   20.6180 N   0  0  0  0  0  0  0  0  0  0  0  0
  -28.1564  -16.6457   19.7546 N   0  0  0  0  0  0  0  0  0  0  0  0
  -27.3432  -28.9636   20.9391 N   0  0  0  0  0  0  0  0  0  0  0  0
  -29.6926  -19.1818   22.1665 N   0  0  0  0  0  0  0  0  0  0  0  0
  -28.3640  -17.1609   17.4519 N   0  0  0  0  0  0  0  0  0  0  0  0
  -25.3628  -13.7865   17.4982 N   0  0  0  0  0  0  0  0  0  0  0  0
  -28.7487  -27.0239   18.2949 N   0  0  0  0  0  0  0  0  0  0  0  0
  -28.2121  -31.2129   23.3148 N   0  0  0  0  0  0  0  0  0  0  0  0
  -28.0936  -20.9085   22.4021 N   0  0  0  0  0  0  0  0  0  0  0  0
  -25.7890  -33.8160   23.9632 N   0  3  0  0  0  0  0  0  0  0  0  0
  -26.5224  -15.2286   16.1438 O   0  0  0  0  0  0  0  0  0  0  0  0
  -27.7094  -26.4226   20.2901 O   0  0  0  0  0  0  0  0  0  0  0  0
  -29.3338  -30.1766   20.8907 O   0  0  0  0  0  0  0  0  0  0  0  0
  -26.1006  -31.0351   24.2567 O   0  0  0  0  0  0  0  0  0  0  0  0
  -30.2909  -21.2854   22.9378 O   0  0  0  0  0  0  0  0  0  0  0  0
  -23.4749  -11.1197   22.0104 O   0  0  0  0  0  0  0  0  0  0  0  0
  -24.1569  -24.1270   19.9244 O   0  0  0  0  0  0  0  0  0  0  0  0
  -21.7232  -26.5207   21.6471 O   0  0  0  0  0  0  0  0  0  1  0  0
  -22.1827  -23.0773   21.5824 O   0  0  0  0  0  0  0  0  0  0  0  0
  -23.4335   -6.1772   19.5663 F   0  0  0  0  0  0  0  0  0  0  0  0
  -24.2216   -8.8465   23.3951 F   0  0  0  0  0  0  0  0  0  0  0  0
  1  2  1  0  0  0  0
  1  5  2  0  0  0  0
  2  6  2  0  0  0  0
  3  8  2  0  0  0  0
  3 17  1  0  0  0  0
  4  9  1  0  0  0  0
  4 17  2  0  0  0  0
  5 20  1  0  0  0  0
  6 22  1  0  0  0  0
  7 10  2  0  0  0  0
  7 21  1  0  0  0  0
  8 25  1  0  0  0  0
  9 25  2  0  0  0  0
 10 26  1  0  0  0  0
 11 12  2  0  0  0  0
 11 27  1  0  0  0  0
 12 30  1  0  0  0  0
 13 18  1  0  0  0  0
 13 28  2  0  0  0  0
 14 23  1  0  0  0  0
 14 26  2  0  0  0  0
 15 24  1  0  0  0  0
 15 29  2  0  0  0  0
 16 30  2  0  0  0  0
 16 31  1  0  0  0  0
 17 32  1  0  0  0  0
 18 24  2  0  0  0  0
 18 35  1  0  0  0  0
 19 32  1  0  0  0  0
 19 33  2  0  0  0  0
 19 36  1  0  0  0  0
 20 22  2  0  0  0  0
 20 41  1  0  0  0  0
 21 23  2  0  0  0  0
 21 42  1  0  0  0  0
 22 50  1  0  0  0  0
 23 43  1  0  0  0  0
 24 59  1  0  0  0  0
 25 81  1  0  0  0  0
 26 83  1  0  0  0  0
 27 31  2  0  0  0  0
 27 81  1  0  0  0  0
 28 29  1  0  0  0  0
 28 84  1  0  0  0  0
 29 82  1  0  0  0  0
 30 85  1  0  0  0  0
 31 86  1  0  0  0  0
 32 66  2  0  0  0  0
 33 67  1  0  0  0  0
 33 70  1  0  0  0  0
 34 35  2  0  0  0  0
 36 71  1  0  0  0  0
 36 76  2  0  0  0  0
 37 51  1  0  0  0  0
 37 72  1  0  0  0  0
 37 77  2  0  0  0  0
 38 63  1  0  0  0  0
 38 68  1  0  0  0  0
 38 78  2  0  0  0  0
 39 64  1  0  0  0  0
 39 73  1  0  0  0  0
 39 79  2  0  0  0  0
 40 69  1  0  0  0  0
 40 74  1  0  0  0  0
 40 80  2  0  0  0  0
 41 44  1  0  0  0  0
 42 51  1  0  0  0  0
 43 68  1  0  0  0  0
 44 46  1  0  0  0  0
 45 47  1  0  0  0  0
 45 48  1  0  0  0  0
 46 50  1  0  0  0  0
 47 52  1  0  0  0  0
 48 69  1  0  0  0  0
 49 52  1  0  0  0  0
 49 69  1  0  0  0  0
 50 72  1  0  0  0  0
 51 68  1  0  0  0  0
 52 67  1  0  0  0  0
 53 64  1  0  0  0  0
 54 65  1  0  0  0  0
 55 65  1  0  0  0  0
 56 65  1  0  0  0  0
 57 75  1  0  0  0  0
 58 82  1  0  0  0  0
 59 74  1  0  0  0  0
 60 61  1  0  0  0  0
 60 62  1  0  0  0  0
 61 83  1  0  0  0  0
 62 84  1  0  0  0  0
 63 65  1  0  0  0  0
 63 73  1  0  0  0  0
 64 75  1  0  0  0  0
 66 67  1  0  0  0  0
M  CHG  1  75   1
M  ISO  4  40 100  61 101  74 100  83 101
M  END
> <Batch ID>
0104

> <Smiles>
C=Cc1cc(OCC[101CH2:1][101O:1]c2ccc3c(c2)CN(C(=O)C(NC(=O)C(C)NC)C(C)(C)C)C(C(=O)NC2CCCc4ccccc42)C3)c(OC)cc1C[100NH:0][100C:0](=O)N1CCCC(n2nc(-c3ccc(Oc4ccc(F)cc4F)cc3)c(C(N)=O)c2N)C1

> <Shape>
0.249

> <Color>
0.068

> <Negative vol penalty>
0.000

$$$$

  -OEChem-04052301083D

 85 93  0     1  0  0  0  0  0999 V2000
  -30.3907  -35.6711   24.4397 C   0  0  0  0  0  0  0  0  0  0  0  0
  -30.0839  -34.5488   23.6769 C   0  0  0  0  0  0  0  0  0  0  0  0
  -23.2100  -10.4062   21.0069 C   0  0  0  0  0  0  0  0  0  0  0  0
  -24.7101   -8.9449   22.2115 C   0  0  0  0  0  0  0  0  0  0  0  0
  -29.5695  -36.0330   25.5068 C   0  0  0  0  0  0  0  0  0  0  0  0
  -28.9563  -33.7871   23.9814 C   0  0  0  0  0  0  0  0  0  0  0  0
  -25.3100  -30.8633   20.0240 C   0  0  0  0  0  0  0  0  0  0  0  0
  -22.3185   -9.3477   20.8329 C   0  0  0  0  0  0  0  0  0  0  0  0
  -23.8187   -7.8863   22.0375 C   0  0  0  0  0  0  0  0  0  0  0  0
  -25.2481  -29.5327   19.6126 C   0  0  0  0  0  0  0  0  0  0  0  0
  -20.9336   -6.8076   23.4279 C   0  0  0  0  0  0  0  0  0  0  0  0
  -20.6657   -5.9997   24.5330 C   0  0  0  0  0  0  0  0  0  0  0  0
  -23.5139  -29.1173   21.2371 C   0  0  0  0  0  0  0  0  0  0  0  0
  -27.2818  -20.3022   18.5883 C   0  0  0  0  0  0  0  0  0  0  0  0
  -29.4971  -19.4220   20.0376 C   0  0  0  0  0  0  0  0  0  0  0  0
  -21.5046   -4.0786   23.3318 C   0  0  0  0  0  0  0  0  0  0  0  0
  -24.4058  -10.2049   21.6961 C   0  0  0  0  0  0  0  0  0  0  0  0
  -25.3620  -12.2138   22.9441 C   0  0  0  0  0  0  0  0  0  0  0  0
  -28.4259  -35.2809   25.8185 C   0  0  0  0  0  0  0  0  0  0  0  0
  -24.4805  -31.3291   21.0543 C   0  0  0  0  0  0  0  0  0  0  0  0
  -28.1198  -34.1386   25.0545 C   0  0  0  0  0  0  0  0  0  0  0  0
  -23.5653  -30.4549   21.6580 C   0  0  0  0  0  0  0  0  0  0  0  0
  -27.4798  -18.9377   18.7994 C   0  0  0  0  0  0  0  0  0  0  0  0
  -28.5874  -18.4976   19.5240 C   0  0  0  0  0  0  0  0  0  0  0  0
  -22.6228   -8.0877   21.3482 C   0  0  0  0  0  0  0  0  0  0  0  0
  -24.3520  -28.6587   20.2211 C   0  0  0  0  0  0  0  0  0  0  0  0
  -21.4869   -6.2510   22.2748 C   0  0  0  0  0  0  0  0  0  0  0  0
  -28.1915  -21.2266   19.1018 C   0  0  0  0  0  0  0  0  0  0  0  0
  -20.9512   -4.6352   24.4849 C   0  0  0  0  0  0  0  0  0  0  0  0
  -29.2992  -20.7865   19.8265 C   0  0  0  0  0  0  0  0  0  0  0  0
  -21.7724   -4.8865   22.2267 C   0  0  0  0  0  0  0  0  0  0  0  0
  -25.3274  -11.2978   21.8757 C   0  0  0  0  0  0  0  0  0  0  0  0
  -26.4128  -13.0472   22.6481 C   0  0  0  0  0  0  0  0  0  0  0  0
  -24.5196  -12.3033   24.1009 C   0  0  0  0  0  0  0  0  0  0  0  0
  -24.9687  -32.5608   23.9436 C   0  0  0  0  0  0  0  0  0  0  0  0
  -21.7540  -32.9895   23.8769 C   0  0  0  0  0  0  0  0  0  0  0  0
  -18.7308  -32.0438   22.6069 C   0  0  0  0  0  0  0  0  0  0  0  0
  -28.9768  -16.1889   18.6794 C   0  0  0  0  0  0  0  0  0  0  0  0
  -27.5947  -35.6841   27.0107 C   0  0  0  0  0  0  0  0  0  0  0  0
  -24.5406  -32.7739   21.4683 C   0  0  0  0  0  0  0  0  0  0  0  0
  -22.6388  -30.9103   22.7547 C   0  0  0  0  0  0  0  0  0  0  0  0
  -26.2114  -35.0390   27.0349 C   0  0  0  0  0  0  0  0  0  0  0  0
  -30.0388  -12.6878   19.1528 C   0  0  0  0  0  0  0  0  0  0  0  0
  -26.3131  -33.5464   26.7370 C   0  0  0  0  0  0  0  0  0  0  0  0
  -28.8746  -12.0815   19.9344 C   0  0  0  0  0  0  0  0  0  0  0  0
  -29.5809  -13.8259   18.2456 C   0  0  0  0  0  0  0  0  0  0  0  0
  -27.6639  -14.2912   19.7420 C   0  0  0  0  0  0  0  0  0  0  0  0
  -26.8916  -33.3012   25.3382 C   0  0  1  0  0  0  0  0  0  0  0  0
  -24.0106  -33.0139   22.8785 C   0  0  1  0  0  0  0  0  0  0  0  0
  -28.1000  -13.1701   20.6973 C   0  0  1  0  0  0  0  0  0  0  0  0
  -26.4893  -17.9701   18.2376 C   0  0  0  0  0  0  0  0  0  0  0  0
  -16.2789  -32.5523   22.7715 C   0  0  0  0  0  0  0  0  0  0  0  0
  -21.6258  -31.4985   26.5360 C   0  0  0  0  0  0  0  0  0  0  0  0
  -19.1658  -31.2062   26.1739 C   0  0  0  0  0  0  0  0  0  0  0  0
  -20.1298  -33.4971   26.3874 C   0  0  0  0  0  0  0  0  0  0  0  0
  -29.1059  -16.6412   21.1183 C   0  0  0  0  0  0  0  0  0  0  0  0
  -18.5808  -32.8151   19.7536 C   0  0  0  0  0  0  0  0  0  0  0  0
  -25.4928  -25.2780   19.5924 C   0  0  0  0  0  0  0  0  0  0  0  0
  -26.7704  -24.6156   19.0889 C   0  0  0  0  0  0  0  0  0  0  0  0
  -25.4916  -26.7762   19.3190 C   0  0  0  0  0  0  0  0  0  1  0  0
  -26.7914  -23.1257   19.4000 C   0  0  0  0  0  0  0  0  0  0  0  0
  -20.5567  -32.1640   24.2820 C   0  0  1  0  0  0  0  0  0  0  0  0
  -17.5782  -32.8536   22.0409 C   0  0  2  0  0  0  0  0  0  0  0  0
  -20.3882  -32.0821   25.8255 C   0  0  0  0  0  0  0  0  0  0  0  0
  -26.2804  -11.5276   20.9685 N   0  0  0  0  0  0  0  0  0  0  0  0
  -26.9237  -12.5975   21.4661 N   0  0  0  0  0  0  0  0  0  0  0  0
  -22.7398  -32.3306   23.1286 N   0  0  0  0  0  0  0  0  0  0  0  0
  -28.8084  -14.8238   18.9866 N   0  0  0  0  0  0  0  0  0  0  0  0
  -26.9405  -14.1135   23.2860 N   0  0  0  0  0  0  0  0  0  0  0  0
  -23.4871  -11.3672   24.2496 N   0  0  0  0  0  0  0  0  0  0  0  0
  -25.8810  -33.5253   24.3269 N   0  0  0  0  0  0  0  0  0  0  0  0
  -19.4106  -32.7379   23.5854 N   0  0  0  0  0  0  0  0  0  0  0  0
  -28.8104  -17.0896   19.7536 N   0  0  0  0  0  0  0  0  0  0  0  0
  -17.3876  -32.5433   20.5958 N   0  3  0  0  0  0  0  0  0  0  0  0
  -24.6674  -13.1972   24.9684 O   0  0  0  0  0  0  0  0  0  0  0  0
  -24.8854  -31.4211   24.3860 O   0  0  0  0  0  0  0  0  0  0  0  0
  -21.8090  -34.1770   24.2060 O   0  0  0  0  0  0  0  0  0  0  0  0
  -18.9988  -30.9077   22.2224 O   0  0  0  0  0  0  0  0  0  0  0  0
  -29.2810  -16.5691   17.5424 O   0  0  0  0  0  0  0  0  0  0  0  0
  -21.7530   -7.0546   21.1788 O   0  0  0  0  0  0  0  0  0  0  0  0
  -24.2900  -27.3592   19.8219 O   0  0  0  0  0  0  0  0  0  1  0  0
  -27.9960  -22.5673   18.8938 O   0  0  0  0  0  0  0  0  0  0  0  0
  -20.6953   -3.8597   25.5467 F   0  0  0  0  0  0  0  0  0  0  0  0
  -30.1766  -21.6698   20.3223 F   0  0  0  0  0  0  0  0  0  0  0  0
  -22.3052   -4.3463   21.1221 F   0  0  0  0  0  0  0  0  0  0  0  0
  1  2  1  0  0  0  0
  1  5  2  0  0  0  0
  2  6  2  0  0  0  0
  3  8  2  0  0  0  0
  3 17  1  0  0  0  0
  4  9  1  0  0  0  0
  4 17  2  0  0  0  0
  5 19  1  0  0  0  0
  6 21  1  0  0  0  0
  7 10  2  0  0  0  0
  7 20  1  0  0  0  0
  8 25  1  0  0  0  0
  9 25  2  0  0  0  0
 10 26  1  0  0  0  0
 11 12  2  0  0  0  0
 11 27  1  0  0  0  0
 12 29  1  0  0  0  0
 13 22  1  0  0  0  0
 13 26  2  0  0  0  0
 14 23  2  0  0  0  0
 14 28  1  0  0  0  0
 15 24  2  0  0  0  0
 15 30  1  0  0  0  0
 16 29  2  0  0  0  0
 16 31  1  0  0  0  0
 17 32  1  0  0  0  0
 18 32  1  0  0  0  0
 18 33  2  0  0  0  0
 18 34  1  0  0  0  0
 19 21  2  0  0  0  0
 19 39  1  0  0  0  0
 20 22  2  0  0  0  0
 20 40  1  0  0  0  0
 21 48  1  0  0  0  0
 22 41  1  0  0  0  0
 23 24  1  0  0  0  0
 23 51  1  0  0  0  0
 24 73  1  0  0  0  0
 25 80  1  0  0  0  0
 26 81  1  0  0  0  0
 27 31  2  0  0  0  0
 27 80  1  0  0  0  0
 28 30  2  0  0  0  0
 28 82  1  0  0  0  0
 29 83  1  0  0  0  0
 30 84  1  0  0  0  0
 31 85  1  0  0  0  0
 32 65  2  0  0  0  0
 33 66  1  0  0  0  0
 33 69  1  0  0  0  0
 34 70  1  0  0  0  0
 34 75  2  0  0  0  0
 35 49  1  0  0  0  0
 35 71  1  0  0  0  0
 35 76  2  0  0  0  0
 36 62  1  0  0  0  0
 36 67  1  0  0  0  0
 36 77  2  0  0  0  0
 37 63  1  0  0  0  0
 37 72  1  0  0  0  0
 37 78  2  0  0  0  0
 38 68  1  0  0  0  0
 38 73  1  0  0  0  0
 38 79  2  0  0  0  0
 39 42  1  0  0  0  0
 40 49  1  0  0  0  0
 41 67  1  0  0  0  0
 42 44  1  0  0  0  0
 43 45  1  0  0  0  0
 43 46  1  0  0  0  0
 44 48  1  0  0  0  0
 45 50  1  0  0  0  0
 46 68  1  0  0  0  0
 47 50  1  0  0  0  0
 47 68  1  0  0  0  0
 48 71  1  0  0  0  0
 49 67  1  0  0  0  0
 50 66  1  0  0  0  0
 52 63  1  0  0  0  0
 53 64  1  0  0  0  0
 54 64  1  0  0  0  0
 55 64  1  0  0  0  0
 56 73  1  0  0  0  0
 57 74  1  0  0  0  0
 58 59  1  0  0  0  0
 58 60  1  0  0  0  0
 59 61  1  0  0  0  0
 60 81  1  0  0  0  0
 61 82  1  0  0  0  0
 62 64  1  0  0  0  0
 62 72  1  0  0  0  0
 63 74  1  0  0  0  0
 65 66  1  0  0  0  0
M  CHG  1  74   1
M  ISO  4  38 100  60 101  73 100  81 101
M  END
> <Batch ID>
0104

> <Smiles>
CNC(C)C(=O)NC(C(=O)N1Cc2cc([101O:1][101CH2:1]CCCOc3cc(C)c([100N:0](C)[100C:0](=O)N4CCCC(n5nc(-c6ccc(Oc7ccc(F)cc7F)cc6)c(C(N)=O)c5N)C4)cc3F)ccc2CC1C(=O)NC1CCCc2ccccc21)C(C)(C)C

> <Shape>
0.282

> <Color>
0.120

> <Negative vol penalty>
0.000

$$$$

  -OEChem-04052301083D

 90 99  0     1  0  0  0  0  0999 V2000
  -32.0262  -11.3026   18.0784 C   0  0  0  0  0  0  0  0  0  0  0  0
  -32.2014  -12.5959   17.5968 C   0  0  0  0  0  0  0  0  0  0  0  0
  -23.9175  -21.5280   20.8936 C   0  0  0  0  0  0  0  0  0  0  0  0
  -21.5746  -21.0724   20.5190 C   0  0  0  0  0  0  0  0  0  0  0  0
  -30.9460  -11.0100   18.9100 C   0  0  0  0  0  0  0  0  0  0  0  0
  -31.2958  -13.5973   17.9455 C   0  0  0  0  0  0  0  0  0  0  0  0
  -30.9829  -20.6337   19.2517 C   0  0  0  0  0  0  0  0  0  0  0  0
  -24.2131  -30.8720   20.2678 C   0  0  0  0  0  0  0  0  0  0  0  0
  -24.5598  -29.6574   22.3273 C   0  0  0  0  0  0  0  0  0  0  0  0
  -25.5754  -30.7781   19.9831 C   0  0  0  0  0  0  0  0  0  0  0  0
  -25.9221  -29.5633   22.0425 C   0  0  0  0  0  0  0  0  0  0  0  0
  -24.2528  -20.6533   19.8603 C   0  0  0  0  0  0  0  0  0  0  0  0
  -21.9099  -20.1977   19.4855 C   0  0  0  0  0  0  0  0  0  0  0  0
  -30.2754  -21.7708   18.8639 C   0  0  0  0  0  0  0  0  0  0  0  0
  -24.3220  -20.7011   16.4800 C   0  0  0  0  0  0  0  0  0  0  0  0
  -25.2862  -21.1201   15.5633 C   0  0  0  0  0  0  0  0  0  0  0  0
  -28.4912  -21.1671   20.3710 C   0  0  0  0  0  0  0  0  0  0  0  0
  -26.6751  -19.2364   16.1630 C   0  0  0  0  0  0  0  0  0  0  0  0
  -22.5783  -21.7376   21.2231 C   0  0  0  0  0  0  0  0  0  0  0  0
  -22.6117  -22.5446   23.6428 C   0  0  0  0  0  0  0  0  0  0  0  0
  -30.0321  -12.0104   19.2769 C   0  0  0  0  0  0  0  0  0  0  0  0
  -30.4441  -19.7476   20.1955 C   0  0  0  0  0  0  0  0  0  0  0  0
  -30.2016  -13.3175   18.7816 C   0  0  0  0  0  0  0  0  0  0  0  0
  -29.1950  -20.0209   20.7709 C   0  0  0  0  0  0  0  0  0  0  0  0
  -23.7053  -30.3117   21.4400 C   0  0  0  0  0  0  0  0  0  0  0  0
  -26.4298  -30.1237   20.8704 C   0  0  0  0  0  0  0  0  0  0  0  0
  -23.2491  -19.9881   19.1562 C   0  0  0  0  0  0  0  0  0  0  0  0
  -29.0281  -22.0361   19.4214 C   0  0  0  0  0  0  0  0  0  0  0  0
  -24.5344  -19.5498   17.2384 C   0  0  0  0  0  0  0  0  0  0  0  0
  -26.4627  -20.3878   15.4047 C   0  0  0  0  0  0  0  0  0  0  0  0
  -25.7109  -18.8174   17.0798 C   0  0  0  0  0  0  0  0  0  0  0  0
  -22.2313  -22.6406   22.2909 C   0  0  0  0  0  0  0  0  0  0  0  0
  -22.0305  -23.6356   24.2414 C   0  0  0  0  0  0  0  0  0  0  0  0
  -23.4185  -21.5575   24.2989 C   0  0  0  0  0  0  0  0  0  0  0  0
  -29.5836  -16.6878   20.1643 C   0  0  0  0  0  0  0  0  0  0  0  0
  -28.1287  -29.2019   19.3152 C   0  0  0  0  0  0  0  0  0  0  0  0
  -29.1313  -17.1860   23.3375 C   0  0  0  0  0  0  0  0  0  0  0  0
  -27.7515  -19.7855   25.4247 C   0  0  0  0  0  0  0  0  0  0  0  0
  -20.2732  -28.9705   22.1671 C   0  0  0  0  0  0  0  0  0  0  0  0
  -28.8533  -11.6357   20.1398 C   0  0  0  0  0  0  0  0  0  0  0  0
  -31.2318  -18.5396   20.6230 C   0  0  0  0  0  0  0  0  0  0  0  0
  -28.5815  -19.1119   21.8033 C   0  0  0  0  0  0  0  0  0  0  0  0
  -28.1498  -12.8375   20.7652 C   0  0  0  0  0  0  0  0  0  0  0  0
  -18.2636  -26.5590   23.8472 C   0  0  0  0  0  0  0  0  0  0  0  0
  -27.9228  -13.9261   19.7210 C   0  0  0  0  0  0  0  0  0  0  0  0
  -19.0869  -25.2726   23.7609 C   0  0  0  0  0  0  0  0  0  0  0  0
  -27.9833  -25.6833   20.4502 C   0  0  0  0  0  0  0  0  0  0  0  0
  -18.4006  -27.4027   22.5818 C   0  0  0  0  0  0  0  0  0  0  0  0
  -27.5982  -27.1487   20.5843 C   0  0  0  0  0  0  0  0  0  0  0  0
  -20.6120  -26.4253   22.1043 C   0  0  0  0  0  0  0  0  0  0  0  0
  -29.2545  -14.4364   19.1575 C   0  0  1  0  0  0  0  0  0  0  0  0
  -30.3594  -17.4352   21.2117 C   0  0  1  0  0  0  0  0  0  0  0  0
  -28.3104  -25.5432   18.9603 C   0  0  1  0  0  0  0  0  0  0  0  0
  -20.5501  -25.5679   23.3800 C   0  0  2  0  0  0  0  0  0  0  0  0
  -28.9960  -26.8834   18.6284 C   0  0  2  0  0  0  0  0  0  0  0  0
  -31.0823  -28.2609   18.6898 C   0  0  0  0  0  0  0  0  0  0  0  0
  -28.5746  -31.3805   20.4071 C   0  0  0  0  0  0  0  0  0  0  0  0
  -28.2486  -20.4018   27.8059 C   0  0  0  0  0  0  0  0  0  0  0  0
  -26.7713  -15.3676   23.9966 C   0  0  0  0  0  0  0  0  0  0  0  0
  -26.1062  -16.9939   25.7802 C   0  0  0  0  0  0  0  0  0  0  0  0
  -28.3051  -15.8242   25.9185 C   0  0  0  0  0  0  0  0  0  0  0  0
  -28.3685  -22.5859   24.6929 C   0  0  0  0  0  0  0  0  0  0  0  0
  -22.2491  -30.4117   21.7452 C   0  0  0  0  0  0  0  0  0  0  0  0
  -29.0978  -24.2823   18.6433 C   0  0  0  0  0  0  0  0  0  1  0  0
  -30.4968  -26.9085   18.9278 C   0  0  0  0  0  0  0  0  0  0  0  0
  -27.9042  -30.0209   20.5605 C   0  0  1  0  0  0  0  0  0  0  0  0
  -27.9751  -17.6432   24.1938 C   0  0  1  0  0  0  0  0  0  0  0  0
  -28.5208  -20.7175   26.3434 C   0  0  2  0  0  0  0  0  0  0  0  0
  -27.2922  -16.4657   24.9453 C   0  0  0  0  0  0  0  0  0  0  0  0
  -21.4673  -23.7082   22.0448 N   0  0  0  0  0  0  0  0  0  0  0  0
  -21.3630  -24.2930   23.2502 N   0  0  0  0  0  0  0  0  0  0  0  0
  -29.3876  -17.9402   22.1837 N   0  0  0  0  0  0  0  0  0  0  0  0
  -28.2745  -27.8352   19.4901 N   0  0  0  0  0  0  0  0  0  0  0  0
  -19.8123  -27.6482   22.2770 N   0  0  0  0  0  0  0  0  0  0  0  0
  -22.0304  -24.0872   25.5136 N   0  0  0  0  0  0  0  0  0  0  0  0
  -22.7859  -20.4304   24.8411 N   0  0  0  0  0  0  0  0  0  0  0  0
  -29.8859  -15.3413   20.0939 N   0  0  0  0  0  0  0  0  0  0  0  0
  -28.5021  -18.6849   25.0687 N   0  0  0  0  0  0  0  0  0  0  0  0
  -21.6257  -29.1143   21.8825 N   0  0  0  0  0  0  0  0  0  0  0  0
  -28.1325  -22.1334   26.0880 N   0  3  0  0  0  0  0  0  0  0  0  0
  -24.6614  -21.6795   24.4158 O   0  0  0  0  0  0  0  0  0  0  0  0
  -28.7697  -17.2881   19.4721 O   0  0  0  0  0  0  0  0  0  0  0  0
  -28.1858  -29.7589   18.2161 O   0  0  0  0  0  0  0  0  0  0  0  0
  -29.7873  -16.2003   23.6835 O   0  0  0  0  0  0  0  0  0  0  0  0
  -26.5987  -20.0093   25.0623 O   0  0  0  0  0  0  0  0  0  0  0  0
  -19.5354  -29.9503   22.3171 O   0  0  0  0  0  0  0  0  0  0  0  0
  -23.5759  -19.1347   18.1476 O   0  0  0  0  0  0  0  0  0  0  0  0
  -28.3351  -23.1449   19.0443 O   0  0  0  0  0  0  0  0  0  1  0  0
  -27.3878  -20.7894   14.5232 F   0  0  0  0  0  0  0  0  0  0  0  0
  -25.9201  -17.7099   17.8046 F   0  0  0  0  0  0  0  0  0  0  0  0
  1  2  1  0  0  0  0
  1  5  2  0  0  0  0
  2  6  2  0  0  0  0
  3 12  2  0  0  0  0
  3 19  1  0  0  0  0
  4 13  1  0  0  0  0
  4 19  2  0  0  0  0
  5 21  1  0  0  0  0
  6 23  1  0  0  0  0
  7 14  2  0  0  0  0
  7 22  1  0  0  0  0
  8 10  2  0  0  0  0
  8 25  1  0  0  0  0
  9 11  1  0  0  0  0
  9 25  2  0  0  0  0
 10 26  1  0  0  0  0
 11 26  2  0  0  0  0
 12 27  1  0  0  0  0
 13 27  2  0  0  0  0
 14 28  1  0  0  0  0
 15 16  2  0  0  0  0
 15 29  1  0  0  0  0
 16 30  1  0  0  0  0
 17 24  1  0  0  0  0
 17 28  2  0  0  0  0
 18 30  2  0  0  0  0
 18 31  1  0  0  0  0
 19 32  1  0  0  0  0
 20 32  1  0  0  0  0
 20 33  2  0  0  0  0
 20 34  1  0  0  0  0
 21 23  2  0  0  0  0
 21 40  1  0  0  0  0
 22 24  2  0  0  0  0
 22 41  1  0  0  0  0
 23 51  1  0  0  0  0
 24 42  1  0  0  0  0
 25 63  1  0  0  0  0
 26 66  1  0  0  0  0
 27 87  1  0  0  0  0
 28 88  1  0  0  0  0
 29 31  2  0  0  0  0
 29 87  1  0  0  0  0
 30 89  1  0  0  0  0
 31 90  1  0  0  0  0
 32 70  2  0  0  0  0
 33 71  1  0  0  0  0
 33 75  1  0  0  0  0
 34 76  1  0  0  0  0
 34 81  2  0  0  0  0
 35 52  1  0  0  0  0
 35 77  1  0  0  0  0
 35 82  2  0  0  0  0
 36 66  1  0  0  0  0
 36 73  1  0  0  0  0
 36 83  2  0  0  0  0
 37 67  1  0  0  0  0
 37 72  1  0  0  0  0
 37 84  2  0  0  0  0
 38 68  1  0  0  0  0
 38 78  1  0  0  0  0
 38 85  2  0  0  0  0
 39 74  1  0  0  0  0
 39 79  1  0  0  0  0
 39 86  2  0  0  0  0
 40 43  1  0  0  0  0
 41 52  1  0  0  0  0
 42 72  1  0  0  0  0
 43 45  1  0  0  0  0
 44 46  1  0  0  0  0
 44 48  1  0  0  0  0
 45 51  1  0  0  0  0
 46 54  1  0  0  0  0
 47 49  1  0  0  0  0
 47 53  1  0  0  0  0
 48 74  1  0  0  0  0
 49 73  1  0  0  0  0
 50 54  1  0  0  0  0
 50 74  1  0  0  0  0
 51 77  1  0  0  0  0
 52 72  1  0  0  0  0
 53 55  1  0  0  0  0
 53 64  1  0  0  0  0
 54 71  1  0  0  0  0
 55 65  1  0  0  0  0
 55 73  1  0  0  0  0
 56 65  1  0  0  0  0
 57 66  1  0  0  0  0
 58 68  1  0  0  0  0
 59 69  1  0  0  0  0
 60 69  1  0  0  0  0
 61 69  1  0  0  0  0
 62 80  1  0  0  0  0
 63 79  1  0  0  0  0
 64 88  1  0  0  0  0
 67 69  1  0  0  0  0
 67 78  1  0  0  0  0
 68 80  1  0  0  0  0
 70 71  1  0  0  0  0
M  CHG  1  80   1
M  ISO  4  39 100  64 101  79 100  88 101
M  END
> <Batch ID>
0104

> <Smiles>
CCC1C([101CH2:1][101O:1]c2ccc3c(c2)CN(C(=O)C(NC(=O)C(C)NC)C(C)(C)C)C(C(=O)NC2CCCc4ccccc42)C3)CCN1C(=O)C(C)c1ccc(C[100NH:0][100C:0](=O)N2CCCC(n3nc(-c4ccc(Oc5ccc(F)cc5F)cc4)c(C(N)=O)c3N)C2)cc1

> <Shape>
0.218

> <Color>
0.062

> <Negative vol penalty>
0.000

$$$$

  -OEChem-04052301083D

 85 93  0     1  0  0  0  0  0999 V2000
  -26.1889  -33.2765   27.7964 C   0  0  0  0  0  0  0  0  0  0  0  0
  -26.7718  -32.2692   27.0343 C   0  0  0  0  0  0  0  0  0  0  0  0
  -23.8688   -9.8245   21.5630 C   0  0  0  0  0  0  0  0  0  0  0  0
  -24.4393  -10.9336   23.6321 C   0  0  0  0  0  0  0  0  0  0  0  0
  -24.8024  -33.4220   27.8141 C   0  0  0  0  0  0  0  0  0  0  0  0
  -25.9684  -31.4060   26.2902 C   0  0  0  0  0  0  0  0  0  0  0  0
  -27.2874  -28.9203   20.8507 C   0  0  0  0  0  0  0  0  0  0  0  0
  -23.3767   -8.7355   22.2823 C   0  0  0  0  0  0  0  0  0  0  0  0
  -23.9472   -9.8445   24.3515 C   0  0  0  0  0  0  0  0  0  0  0  0
  -27.7787  -27.6675   20.4863 C   0  0  0  0  0  0  0  0  0  0  0  0
  -20.5737   -7.9468   24.0010 C   0  0  0  0  0  0  0  0  0  0  0  0
  -19.3470   -7.4114   23.6083 C   0  0  0  0  0  0  0  0  0  0  0  0
  -25.5250  -26.9077   20.0830 C   0  0  0  0  0  0  0  0  0  0  0  0
  -32.4882  -17.6648   21.7557 C   0  0  0  0  0  0  0  0  0  0  0  0
  -30.3565  -19.0467   22.9084 C   0  0  0  0  0  0  0  0  0  0  0  0
  -20.4103   -5.2827   23.1896 C   0  0  0  0  0  0  0  0  0  0  0  0
  -24.4001  -10.9235   22.2379 C   0  0  0  0  0  0  0  0  0  0  0  0
  -24.1935  -13.1882   21.0820 C   0  0  0  0  0  0  0  0  0  0  0  0
  -23.9821  -32.5661   27.0623 C   0  0  0  0  0  0  0  0  0  0  0  0
  -25.9082  -29.1733   20.8445 C   0  0  0  0  0  0  0  0  0  0  0  0
  -24.5695  -31.5392   26.2989 C   0  0  0  0  0  0  0  0  0  0  0  0
  -25.0189  -28.1653   20.4454 C   0  0  0  0  0  0  0  0  0  0  0  0
  -31.5742  -16.9887   22.5637 C   0  0  0  0  0  0  0  0  0  0  0  0
  -30.5083  -17.6796   23.1401 C   0  0  0  0  0  0  0  0  0  0  0  0
  -32.3364  -19.0319   21.5240 C   0  0  0  0  0  0  0  0  0  0  0  0
  -23.4159   -8.7455   23.6766 C   0  0  0  0  0  0  0  0  0  0  0  0
  -26.8973  -26.6600   20.1052 C   0  0  0  0  0  0  0  0  0  0  0  0
  -21.7187   -7.1503   23.9879 C   0  0  0  0  0  0  0  0  0  0  0  0
  -31.2705  -19.7228   22.1004 C   0  0  0  0  0  0  0  0  0  0  0  0
  -19.2653   -6.0794   23.2026 C   0  0  0  0  0  0  0  0  0  0  0  0
  -21.6369   -5.8182   23.5823 C   0  0  0  0  0  0  0  0  0  0  0  0
  -24.9091  -12.0485   21.4953 C   0  0  0  0  0  0  0  0  0  0  0  0
  -25.1205  -13.9533   20.4173 C   0  0  0  0  0  0  0  0  0  0  0  0
  -22.8143  -13.5252   21.2811 C   0  0  0  0  0  0  0  0  0  0  0  0
  -23.7642  -29.9720   23.0511 C   0  0  0  0  0  0  0  0  0  0  0  0
  -21.7929  -30.2195   20.4869 C   0  0  0  0  0  0  0  0  0  0  0  0
  -21.0899  -29.3076   17.2742 C   0  0  0  0  0  0  0  0  0  0  0  0
  -31.0884  -14.3191   20.7359 C   0  0  0  0  0  0  0  0  0  0  0  0
  -22.4857  -32.7324   27.1502 C   0  0  0  0  0  0  0  0  0  0  0  0
  -25.3960  -30.5382   21.2146 C   0  0  0  0  0  0  0  0  0  0  0  0
  -23.5306  -28.3923   20.4022 C   0  0  0  0  0  0  0  0  0  0  0  0
  -21.7264  -32.0125   26.0387 C   0  0  0  0  0  0  0  0  0  0  0  0
  -29.1402  -13.5748   17.8503 C   0  0  0  0  0  0  0  0  0  0  0  0
  -22.2543  -30.5920   25.8650 C   0  0  0  0  0  0  0  0  0  0  0  0
  -27.7704  -13.2021   18.4199 C   0  0  0  0  0  0  0  0  0  0  0  0
  -30.2761  -13.0865   18.7467 C   0  0  0  0  0  0  0  0  0  0  0  0
  -28.8083  -13.1369   20.7258 C   0  0  0  0  0  0  0  0  0  0  0  0
  -23.7330  -30.5987   25.4588 C   0  0  1  0  0  0  0  0  0  0  0  0
  -23.9387  -30.5274   21.6659 C   0  0  1  0  0  0  0  0  0  0  0  0
  -27.6298  -13.6569   19.8851 C   0  0  2  0  0  0  0  0  0  0  0  0
  -29.5180  -16.9778   24.0106 C   0  0  0  0  0  0  0  0  0  0  0  0
  -19.3903  -29.6423   15.4586 C   0  0  0  0  0  0  0  0  0  0  0  0
  -19.8803  -28.3323   21.9327 C   0  0  0  0  0  0  0  0  0  0  0  0
  -18.7112  -27.9577   19.7507 C   0  0  0  0  0  0  0  0  0  0  0  0
  -18.7720  -30.2401   20.7554 C   0  0  0  0  0  0  0  0  0  0  0  0
  -23.0974  -30.4987   15.4548 C   0  0  0  0  0  0  0  0  0  0  0  0
  -31.7576  -15.5252   22.7992 C   0  0  0  0  0  0  0  0  0  0  0  0
  -28.6110  -23.4879   20.4605 C   0  0  0  0  0  0  0  0  0  0  0  0
  -29.8841  -22.9857   21.1327 C   0  0  0  0  0  0  0  0  0  0  0  0
  -28.5878  -25.0077   20.3659 C   0  0  0  0  0  0  0  0  0  1  0  0
  -29.8887  -21.4694   21.2663 C   0  0  0  0  0  0  0  0  0  0  0  0
  -20.8789  -29.2737   19.7458 C   0  0  1  0  0  0  0  0  0  0  0  0
  -20.7019  -30.1268   16.0566 C   0  0  2  0  0  0  0  0  0  0  0  0
  -19.5885  -28.9458   20.5487 C   0  0  0  0  0  0  0  0  0  0  0  0
  -26.1917  -12.0823   21.1241 N   0  0  0  0  0  0  0  0  0  0  0  0
  -26.2894  -13.2525   20.4705 N   0  0  0  0  0  0  0  0  0  0  0  0
  -23.0782  -29.7416   20.7792 N   0  0  0  0  0  0  0  0  0  0  0  0
  -30.0837  -13.5535   20.1218 N   0  0  0  0  0  0  0  0  0  0  0  0
  -33.2686  -19.7045   20.7038 N   0  0  0  0  0  0  0  0  0  0  0  0
  -25.0417  -15.1504   19.7982 N   0  0  0  0  0  0  0  0  0  0  0  0
  -22.0019  -12.6265   21.9859 N   0  0  0  0  0  0  0  0  0  0  0  0
  -23.8697  -30.9170   24.0537 N   0  0  0  0  0  0  0  0  0  0  0  0
  -20.6334  -29.8809   18.4422 N   0  0  0  0  0  0  0  0  0  0  0  0
  -30.8232  -14.7265   22.0377 N   0  0  0  0  0  0  0  0  0  0  0  0
  -21.7589  -30.0321   15.0102 N   0  3  0  0  0  0  0  0  0  0  0  0
  -22.3130  -14.5841   20.8327 O   0  0  0  0  0  0  0  0  0  0  0  0
  -23.5482  -28.7748   23.1992 O   0  0  0  0  0  0  0  0  0  0  0  0
  -21.3840  -31.3434   20.7887 O   0  0  0  0  0  0  0  0  0  0  0  0
  -21.7305  -28.2615   17.1967 O   0  0  0  0  0  0  0  0  0  0  0  0
  -32.1414  -14.6221   20.1646 O   0  0  0  0  0  0  0  0  0  0  0  0
  -22.9356   -7.6831   24.3789 O   0  0  0  0  0  0  0  0  0  0  0  0
  -27.3741  -25.4361   19.7496 O   0  0  0  0  0  0  0  0  0  1  0  0
  -31.1030  -21.0660   21.8842 O   0  0  0  0  0  0  0  0  0  0  0  0
  -18.0870   -5.5649   22.8270 F   0  0  0  0  0  0  0  0  0  0  0  0
  -22.7333   -5.0477   23.5688 F   0  0  0  0  0  0  0  0  0  0  0  0
  1  2  1  0  0  0  0
  1  5  2  0  0  0  0
  2  6  2  0  0  0  0
  3  8  2  0  0  0  0
  3 17  1  0  0  0  0
  4  9  1  0  0  0  0
  4 17  2  0  0  0  0
  5 19  1  0  0  0  0
  6 21  1  0  0  0  0
  7 10  2  0  0  0  0
  7 20  1  0  0  0  0
  8 26  1  0  0  0  0
  9 26  2  0  0  0  0
 10 27  1  0  0  0  0
 11 12  2  0  0  0  0
 11 28  1  0  0  0  0
 12 30  1  0  0  0  0
 13 22  1  0  0  0  0
 13 27  2  0  0  0  0
 14 23  2  0  0  0  0
 14 25  1  0  0  0  0
 15 24  2  0  0  0  0
 15 29  1  0  0  0  0
 16 30  2  0  0  0  0
 16 31  1  0  0  0  0
 17 32  1  0  0  0  0
 18 32  1  0  0  0  0
 18 33  2  0  0  0  0
 18 34  1  0  0  0  0
 19 21  2  0  0  0  0
 19 39  1  0  0  0  0
 20 22  2  0  0  0  0
 20 40  1  0  0  0  0
 21 48  1  0  0  0  0
 22 41  1  0  0  0  0
 23 24  1  0  0  0  0
 23 57  1  0  0  0  0
 24 51  1  0  0  0  0
 25 29  2  0  0  0  0
 25 69  1  0  0  0  0
 26 81  1  0  0  0  0
 27 82  1  0  0  0  0
 28 31  2  0  0  0  0
 28 81  1  0  0  0  0
 29 83  1  0  0  0  0
 30 84  1  0  0  0  0
 31 85  1  0  0  0  0
 32 65  2  0  0  0  0
 33 66  1  0  0  0  0
 33 70  1  0  0  0  0
 34 71  1  0  0  0  0
 34 76  2  0  0  0  0
 35 49  1  0  0  0  0
 35 72  1  0  0  0  0
 35 77  2  0  0  0  0
 36 62  1  0  0  0  0
 36 67  1  0  0  0  0
 36 78  2  0  0  0  0
 37 63  1  0  0  0  0
 37 73  1  0  0  0  0
 37 79  2  0  0  0  0
 38 68  1  0  0  0  0
 38 74  1  0  0  0  0
 38 80  2  0  0  0  0
 39 42  1  0  0  0  0
 40 49  1  0  0  0  0
 41 67  1  0  0  0  0
 42 44  1  0  0  0  0
 43 45  1  0  0  0  0
 43 46  1  0  0  0  0
 44 48  1  0  0  0  0
 45 50  1  0  0  0  0
 46 68  1  0  0  0  0
 47 50  1  0  0  0  0
 47 68  1  0  0  0  0
 48 72  1  0  0  0  0
 49 67  1  0  0  0  0
 50 66  1  0  0  0  0
 52 63  1  0  0  0  0
 53 64  1  0  0  0  0
 54 64  1  0  0  0  0
 55 64  1  0  0  0  0
 56 75  1  0  0  0  0
 57 74  1  0  0  0  0
 58 59  1  0  0  0  0
 58 60  1  0  0  0  0
 59 61  1  0  0  0  0
 60 82  1  0  0  0  0
 61 83  1  0  0  0  0
 62 64  1  0  0  0  0
 62 73  1  0  0  0  0
 63 75  1  0  0  0  0
 65 66  1  0  0  0  0
M  CHG  1  75   1
M  ISO  4  38 100  60 101  74 100  82 101
M  END
> <Batch ID>
0104

> <Smiles>
CNC(C)C(=O)NC(C(=O)N1Cc2cc([101O:1][101CH2:1]CCCOc3cc(C)c(C[100NH:0][100C:0](=O)N4CCCC(n5nc(-c6ccc(Oc7ccc(F)cc7F)cc6)c(C(N)=O)c5N)C4)cc3N)ccc2CC1C(=O)NC1CCCc2ccccc21)C(C)(C)C

> <Shape>
0.296

> <Color>
0.174

> <Negative vol penalty>
0.000

$$$$

  -OEChem-04052301083D

 84 92  0     1  0  0  0  0  0999 V2000
  -20.0781   -8.4821   19.1193 C   0  0  0  0  0  0  0  0  0  0  0  0
  -19.6945   -9.7502   19.5438 C   0  0  0  0  0  0  0  0  0  0  0  0
  -29.2092  -28.6084   20.0526 C   0  0  0  0  0  0  0  0  0  0  0  0
  -27.5221  -26.9063   19.7464 C   0  0  0  0  0  0  0  0  0  0  0  0
  -21.2986   -7.9495   19.5324 C   0  0  0  0  0  0  0  0  0  0  0  0
  -20.5308  -10.4860   20.3827 C   0  0  0  0  0  0  0  0  0  0  0  0
  -21.3009  -16.5615   20.4055 C   0  0  0  0  0  0  0  0  0  0  0  0
  -30.2076  -27.6528   19.8640 C   0  0  0  0  0  0  0  0  0  0  0  0
  -28.5205  -25.9507   19.5578 C   0  0  0  0  0  0  0  0  0  0  0  0
  -20.7607  -17.5725   21.1992 C   0  0  0  0  0  0  0  0  0  0  0  0
  -30.5944  -24.9743   17.0746 C   0  0  0  0  0  0  0  0  0  0  0  0
  -30.4399  -24.0781   16.0170 C   0  0  0  0  0  0  0  0  0  0  0  0
  -22.7165  -17.5019   22.6096 C   0  0  0  0  0  0  0  0  0  0  0  0
  -19.5574  -26.4547   23.6800 C   0  0  0  0  0  0  0  0  0  0  0  0
  -30.4659  -22.2332   17.5768 C   0  0  0  0  0  0  0  0  0  0  0  0
  -18.5011  -26.8151   21.5798 C   0  0  0  0  0  0  0  0  0  0  0  0
  -27.8664  -28.2352   19.9939 C   0  0  0  0  0  0  0  0  0  0  0  0
  -26.2163  -30.0121   19.2018 C   0  0  0  0  0  0  0  0  0  0  0  0
  -22.1546   -8.6831   20.3689 C   0  0  0  0  0  0  0  0  0  0  0  0
  -22.5501  -16.0046   20.7148 C   0  0  0  0  0  0  0  0  0  0  0  0
  -21.7632   -9.9621   20.8084 C   0  0  0  0  0  0  0  0  0  0  0  0
  -23.2714  -16.4857   21.8168 C   0  0  0  0  0  0  0  0  0  0  0  0
  -19.8978  -27.8025   23.7058 C   0  0  0  0  0  0  0  0  0  0  0  0
  -29.8632  -26.3239   19.6165 C   0  0  0  0  0  0  0  0  0  0  0  0
  -21.4672  -18.0408   22.3031 C   0  0  0  0  0  0  0  0  0  0  0  0
  -30.6846  -24.5000   18.3832 C   0  0  0  0  0  0  0  0  0  0  0  0
  -18.8458  -25.9436   22.6003 C   0  0  0  0  0  0  0  0  0  0  0  0
  -30.3756  -22.7075   16.2681 C   0  0  0  0  0  0  0  0  0  0  0  0
  -30.6204  -23.1295   18.6343 C   0  0  0  0  0  0  0  0  0  0  0  0
  -26.8347  -29.2218   20.1892 C   0  0  0  0  0  0  0  0  0  0  0  0
  -19.5062  -28.5908   22.6357 C   0  0  0  0  0  0  0  0  0  0  0  0
  -25.3132  -30.7816   19.8938 C   0  0  0  0  0  0  0  0  0  0  0  0
  -26.4383  -30.0474   17.7858 C   0  0  0  0  0  0  0  0  0  0  0  0
  -23.5782  -13.1035   21.5088 C   0  0  0  0  0  0  0  0  0  0  0  0
  -26.4967  -14.5010   21.2815 C   0  0  0  0  0  0  0  0  0  0  0  0
  -28.3548  -17.3618   21.3813 C   0  0  0  0  0  0  0  0  0  0  0  0
  -22.4718  -30.0334   25.1109 C   0  0  0  0  0  0  0  0  0  0  0  0
  -23.4426   -8.0464   20.8274 C   0  0  0  0  0  0  0  0  0  0  0  0
  -23.1309  -14.9333   19.8331 C   0  0  0  0  0  0  0  0  0  0  0  0
  -24.6256  -15.9353   22.1797 C   0  0  0  0  0  0  0  0  0  0  0  0
  -24.4396   -9.0427   21.4136 C   0  0  0  0  0  0  0  0  0  0  0  0
  -24.5884  -32.7461   24.1957 C   0  0  0  0  0  0  0  0  0  0  0  0
  -23.7438   -9.9785   22.3968 C   0  0  0  0  0  0  0  0  0  0  0  0
  -25.3483  -32.2218   22.9760 C   0  0  0  0  0  0  0  0  0  0  0  0
  -24.3488  -31.6458   25.2271 C   0  0  0  0  0  0  0  0  0  0  0  0
  -24.4522  -29.9106   23.4801 C   0  0  0  0  0  0  0  0  0  0  0  0
  -22.6542  -10.8011   21.6986 C   0  0  1  0  0  0  0  0  0  0  0  0
  -24.1807  -14.0816   20.5402 C   0  0  1  0  0  0  0  0  0  0  0  0
  -24.6687  -30.9710   22.3870 C   0  0  2  0  0  0  0  0  0  0  0  0
  -19.8444  -30.0455   22.6093 C   0  0  0  0  0  0  0  0  0  0  0  0
  -30.7192  -18.1824   21.1984 C   0  0  0  0  0  0  0  0  0  0  0  0
  -27.0663  -13.4806   24.1001 C   0  0  0  0  0  0  0  0  0  0  0  0
  -28.9798  -15.0905   24.2211 C   0  0  0  0  0  0  0  0  0  0  0  0
  -28.9850  -13.2762   22.5091 C   0  0  0  0  0  0  0  0  0  0  0  0
  -27.7163  -19.0290   19.0209 C   0  0  0  0  0  0  0  0  0  0  0  0
  -20.6600  -28.3560   24.8596 C   0  0  0  0  0  0  0  0  0  0  0  0
  -20.1965  -21.3233   23.1266 C   0  0  0  0  0  0  0  0  0  0  0  0
  -19.2765  -22.3576   22.4873 C   0  0  0  0  0  0  0  0  0  0  0  0
  -20.0814  -19.9687   22.4402 C   0  0  0  0  0  0  0  0  0  1  0  0
  -19.3591  -23.7002   23.1997 C   0  0  0  0  0  0  0  0  0  0  0  0
  -27.4084  -15.2337   22.2358 C   0  0  1  0  0  0  0  0  0  0  0  0
  -29.4258  -17.9003   20.4499 C   0  0  2  0  0  0  0  0  0  0  0  0
  -28.0835  -14.2795   23.2611 C   0  0  0  0  0  0  0  0  0  0  0  0
  -18.8141  -28.1302   21.5696 N   0  0  0  0  0  0  0  0  0  0  0  0
  -26.3643  -29.4668   21.4151 N   0  0  0  0  0  0  0  0  0  0  0  0
  -25.4408  -30.4198   21.2026 N   0  0  0  0  0  0  0  0  0  0  0  0
  -25.1482  -14.8847   21.2906 N   0  0  0  0  0  0  0  0  0  0  0  0
  -23.7003  -30.4891   24.6047 N   0  0  0  0  0  0  0  0  0  0  0  0
  -24.4304  -31.7257   19.5043 N   0  0  0  0  0  0  0  0  0  0  0  0
  -27.4032  -29.1903   17.2392 N   0  0  0  0  0  0  0  0  0  0  0  0
  -23.2450  -11.8865   20.9454 N   0  0  0  0  0  0  0  0  0  0  0  0
  -28.3478  -15.9832   21.4086 N   0  0  0  0  0  0  0  0  0  0  0  0
  -21.9226  -28.9360   24.4591 N   0  0  0  0  0  0  0  0  0  0  0  0
  -28.9674  -19.1658   19.8102 N   0  3  0  0  0  0  0  0  0  0  0  0
  -25.8115  -30.8278   17.0298 O   0  0  0  0  0  0  0  0  0  0  0  0
  -23.4281  -13.4284   22.6808 O   0  0  0  0  0  0  0  0  0  0  0  0
  -26.9652  -13.6254   20.5496 O   0  0  0  0  0  0  0  0  0  0  0  0
  -27.6023  -18.0912   22.0234 O   0  0  0  0  0  0  0  0  0  0  0  0
  -21.9037  -30.5684   26.0690 O   0  0  0  0  0  0  0  0  0  0  0  0
  -30.8372  -25.3912   19.4322 O   0  0  0  0  0  0  0  0  0  0  0  0
  -20.9420  -19.0271   23.0798 O   0  0  0  0  0  0  0  0  0  1  0  0
  -18.4933  -24.6199   22.5490 O   0  0  0  0  0  0  0  0  0  0  0  0
  -30.2258  -21.8470   15.2526 F   0  0  0  0  0  0  0  0  0  0  0  0
  -30.7053  -22.6679   19.8896 F   0  0  0  0  0  0  0  0  0  0  0  0
  1  2  1  0  0  0  0
  1  5  2  0  0  0  0
  2  6  2  0  0  0  0
  3  8  2  0  0  0  0
  3 17  1  0  0  0  0
  4  9  1  0  0  0  0
  4 17  2  0  0  0  0
  5 19  1  0  0  0  0
  6 21  1  0  0  0  0
  7 10  2  0  0  0  0
  7 20  1  0  0  0  0
  8 24  1  0  0  0  0
  9 24  2  0  0  0  0
 10 25  1  0  0  0  0
 11 12  2  0  0  0  0
 11 26  1  0  0  0  0
 12 28  1  0  0  0  0
 13 22  1  0  0  0  0
 13 25  2  0  0  0  0
 14 23  1  0  0  0  0
 14 27  2  0  0  0  0
 15 28  2  0  0  0  0
 15 29  1  0  0  0  0
 16 27  1  0  0  0  0
 16 64  2  0  0  0  0
 17 30  1  0  0  0  0
 18 30  1  0  0  0  0
 18 32  2  0  0  0  0
 18 33  1  0  0  0  0
 19 21  2  0  0  0  0
 19 38  1  0  0  0  0
 20 22  2  0  0  0  0
 20 39  1  0  0  0  0
 21 47  1  0  0  0  0
 22 40  1  0  0  0  0
 23 31  2  0  0  0  0
 23 56  1  0  0  0  0
 24 80  1  0  0  0  0
 25 81  1  0  0  0  0
 26 29  2  0  0  0  0
 26 80  1  0  0  0  0
 27 82  1  0  0  0  0
 28 83  1  0  0  0  0
 29 84  1  0  0  0  0
 30 65  2  0  0  0  0
 31 50  1  0  0  0  0
 31 64  1  0  0  0  0
 32 66  1  0  0  0  0
 32 69  1  0  0  0  0
 33 70  1  0  0  0  0
 33 75  2  0  0  0  0
 34 48  1  0  0  0  0
 34 71  1  0  0  0  0
 34 76  2  0  0  0  0
 35 61  1  0  0  0  0
 35 67  1  0  0  0  0
 35 77  2  0  0  0  0
 36 62  1  0  0  0  0
 36 72  1  0  0  0  0
 36 78  2  0  0  0  0
 37 68  1  0  0  0  0
 37 73  1  0  0  0  0
 37 79  2  0  0  0  0
 38 41  1  0  0  0  0
 39 48  1  0  0  0  0
 40 67  1  0  0  0  0
 41 43  1  0  0  0  0
 42 44  1  0  0  0  0
 42 45  1  0  0  0  0
 43 47  1  0  0  0  0
 44 49  1  0  0  0  0
 45 68  1  0  0  0  0
 46 49  1  0  0  0  0
 46 68  1  0  0  0  0
 47 71  1  0  0  0  0
 48 67  1  0  0  0  0
 49 66  1  0  0  0  0
 51 62  1  0  0  0  0
 52 63  1  0  0  0  0
 53 63  1  0  0  0  0
 54 63  1  0  0  0  0
 55 74  1  0  0  0  0
 56 73  1  0  0  0  0
 57 58  1  0  0  0  0
 57 59  1  0  0  0  0
 58 60  1  0  0  0  0
 59 81  1  0  0  0  0
 60 82  1  0  0  0  0
 61 63  1  0  0  0  0
 61 72  1  0  0  0  0
 62 74  1  0  0  0  0
 65 66  1  0  0  0  0
M  CHG  1  74   1
M  ISO  4  37 100  59 101  73 100  81 101
M  END
> <Batch ID>
0104

> <Smiles>
CNC(C)C(=O)NC(C(=O)N1Cc2cc([101O:1][101CH2:1]CCCOc3cnc(C)c(C[100NH:0][100C:0](=O)N4CCCC(n5nc(-c6ccc(Oc7ccc(F)cc7F)cc6)c(C(N)=O)c5N)C4)c3)ccc2CC1C(=O)NC1CCCc2ccccc21)C(C)(C)C

> <Shape>
0.285

> <Color>
0.057

> <Negative vol penalty>
0.000

$$$$

  -OEChem-04052301083D

 80 88  0     1  0  0  0  0  0999 V2000
  -29.5657  -19.7492   24.6541 C   0  0  0  0  0  0  0  0  0  0  0  0
  -16.6556  -24.4990   22.1364 C   0  0  0  0  0  0  0  0  0  0  0  0
  -18.0048  -24.7394   21.8971 C   0  0  0  0  0  0  0  0  0  0  0  0
  -30.4791  -18.7930   25.0981 C   0  0  0  0  0  0  0  0  0  0  0  0
  -23.0626   -9.8811   19.9500 C   0  0  0  0  0  0  0  0  0  0  0  0
  -23.8559   -9.8787   22.2321 C   0  0  0  0  0  0  0  0  0  0  0  0
  -29.1537  -19.7542   23.3215 C   0  0  0  0  0  0  0  0  0  0  0  0
  -16.2004  -23.1917   22.3029 C   0  0  0  0  0  0  0  0  0  0  0  0
  -18.8999  -23.6726   21.8253 C   0  0  0  0  0  0  0  0  0  0  0  0
  -24.9096  -21.6419   18.4973 C   0  0  0  0  0  0  0  0  0  0  0  0
  -30.9804  -17.8419   24.2095 C   0  0  0  0  0  0  0  0  0  0  0  0
  -22.3226   -8.7268   20.2060 C   0  0  0  0  0  0  0  0  0  0  0  0
  -23.1159   -8.7243   22.4881 C   0  0  0  0  0  0  0  0  0  0  0  0
  -26.1836  -21.1507   18.7792 C   0  0  0  0  0  0  0  0  0  0  0  0
  -19.9401   -5.9853   20.3577 C   0  0  0  0  0  0  0  0  0  0  0  0
  -18.6274   -5.9391   19.8883 C   0  0  0  0  0  0  0  0  0  0  0  0
  -25.2708  -18.9291   19.0037 C   0  0  0  0  0  0  0  0  0  0  0  0
  -18.0813   -7.8763   21.2248 C   0  0  0  0  0  0  0  0  0  0  0  0
  -23.8293  -10.4571   20.9631 C   0  0  0  0  0  0  0  0  0  0  0  0
  -29.6550  -18.8031   22.4329 C   0  0  0  0  0  0  0  0  0  0  0  0
  -24.1689  -12.9828   20.8486 C   0  0  0  0  0  0  0  0  0  0  0  0
  -17.0888  -22.1077   22.2235 C   0  0  0  0  0  0  0  0  0  0  0  0
  -23.8031  -20.7807   18.4772 C   0  0  0  0  0  0  0  0  0  0  0  0
  -18.4564  -22.3497   21.9923 C   0  0  0  0  0  0  0  0  0  0  0  0
  -23.9842  -19.4114   18.7188 C   0  0  0  0  0  0  0  0  0  0  0  0
  -30.5684  -17.8469   22.8768 C   0  0  0  0  0  0  0  0  0  0  0  0
  -22.3493   -8.1484   21.4750 C   0  0  0  0  0  0  0  0  0  0  0  0
  -26.3639  -19.7946   19.0353 C   0  0  0  0  0  0  0  0  0  0  0  0
  -20.3234   -6.9770   21.2607 C   0  0  0  0  0  0  0  0  0  0  0  0
  -17.6980   -6.8845   20.3218 C   0  0  0  0  0  0  0  0  0  0  0  0
  -19.3940   -7.9225   21.6942 C   0  0  0  0  0  0  0  0  0  0  0  0
  -24.5943  -11.6492   20.6991 C   0  0  0  0  0  0  0  0  0  0  0  0
  -25.2555  -13.7340   20.4726 C   0  0  0  0  0  0  0  0  0  0  0  0
  -29.2009  -18.8355   21.0323 C   0  0  0  0  0  0  0  0  0  0  0  0
  -28.0091  -19.2823   20.6170 C   0  0  0  0  0  0  0  0  0  1  0  0
  -22.9046  -13.4965   21.2882 C   0  0  0  0  0  0  0  0  0  0  0  0
  -21.1048  -20.5562   20.1422 C   0  0  0  0  0  0  0  0  0  0  0  0
  -30.7635  -14.6867   20.6815 C   0  0  0  0  0  0  0  0  0  0  0  0
  -20.4199  -18.2384   17.9786 C   0  0  0  0  0  0  0  0  0  0  0  0
  -21.5701  -15.9316   15.7420 C   0  0  0  0  0  0  0  0  0  0  0  0
  -16.5580  -20.7155   22.4572 C   0  0  0  0  0  0  0  0  0  0  0  0
  -22.4395  -21.3217   18.1451 C   0  0  0  0  0  0  0  0  0  0  0  0
  -22.8322  -18.4417   18.6892 C   0  0  0  0  0  0  0  0  0  0  0  0
  -17.5093  -19.6152   21.9939 C   0  0  0  0  0  0  0  0  0  0  0  0
  -29.5628  -12.4003   18.1974 C   0  0  0  0  0  0  0  0  0  0  0  0
  -18.9296  -19.9017   22.4708 C   0  0  0  0  0  0  0  0  0  0  0  0
  -28.1390  -12.0874   18.6558 C   0  0  0  0  0  0  0  0  0  0  0  0
  -30.5007  -12.5981   19.3841 C   0  0  0  0  0  0  0  0  0  0  0  0
  -28.6179  -13.3266   20.8145 C   0  0  0  0  0  0  0  0  0  0  0  0
  -19.4542  -21.2172   21.8828 C   0  0  1  0  0  0  0  0  0  0  0  0
  -21.3055  -20.4393   18.6577 C   0  0  1  0  0  0  0  0  0  0  0  0
  -27.6313  -13.1497   19.6467 C   0  0  2  0  0  0  0  0  0  0  0  0
  -20.7730  -14.1594   14.1542 C   0  0  0  0  0  0  0  0  0  0  0  0
  -19.8845  -16.3731   20.3332 C   0  0  0  0  0  0  0  0  0  0  0  0
  -20.0326  -14.4418   18.7470 C   0  0  0  0  0  0  0  0  0  0  0  0
  -18.2553  -16.1663   18.4471 C   0  0  0  0  0  0  0  0  0  0  0  0
  -22.7466  -17.3264   13.4119 C   0  0  0  0  0  0  0  0  0  0  0  0
  -31.1278  -16.8135   21.9527 C   0  0  0  0  0  0  0  0  0  0  0  0
  -30.1491  -15.6767   21.6388 C   0  0  0  0  0  0  0  0  0  0  0  0
  -20.6532  -16.7491   17.8973 C   0  0  1  0  0  0  0  0  0  0  0  0
  -21.1596  -15.6215   14.3138 C   0  0  2  0  0  0  0  0  0  0  0  0
  -19.7280  -15.9509   18.8587 C   0  0  0  0  0  0  0  0  0  0  0  0
  -25.8529  -11.5554   20.2620 N   0  0  0  0  0  0  0  0  0  0  0  0
  -26.2277  -12.8396   20.1336 N   0  0  0  0  0  0  0  0  0  0  0  0
  -21.5175  -19.0201   18.3660 N   0  0  0  0  0  0  0  0  0  0  0  0
  -29.9722  -13.5985   20.3132 N   0  0  0  0  0  0  0  0  0  0  0  0
  -25.4646  -15.0658   20.4021 N   0  0  0  0  0  0  0  0  0  0  0  0
  -21.8978  -12.5857   21.6364 N   0  0  0  0  0  0  0  0  0  0  0  0
  -19.8585  -21.0296   20.5059 N   0  0  0  0  0  0  0  0  0  0  0  0
  -20.5068  -16.3892   16.4911 N   0  0  0  0  0  0  0  0  0  0  0  0
  -22.2806  -15.9162   13.3770 N   0  3  0  0  0  0  0  0  0  0  0  0
  -22.6690  -14.7268   21.3542 O   0  0  0  0  0  0  0  0  0  0  0  0
  -22.0128  -20.2389   20.9015 O   0  0  0  0  0  0  0  0  0  0  0  0
  -31.9115  -14.8781   20.2719 O   0  0  0  0  0  0  0  0  0  0  0  0
  -19.3067  -18.6921   17.7016 O   0  0  0  0  0  0  0  0  0  0  0  0
  -22.7183  -15.7794   16.1530 O   0  0  0  0  0  0  0  0  0  0  0  0
  -21.6272   -7.0221   21.7252 O   0  0  0  0  0  0  0  0  0  0  0  0
  -27.6063  -19.3127   19.3114 O   0  0  0  0  0  0  0  0  0  1  0  0
  -16.4379   -6.8409   19.8698 F   0  0  0  0  0  0  0  0  0  0  0  0
  -19.7566   -8.8783   22.5607 F   0  0  0  0  0  0  0  0  0  0  0  0
  1  4  1  0  0  0  0
  1  7  2  0  0  0  0
  2  3  1  0  0  0  0
  2  8  2  0  0  0  0
  3  9  2  0  0  0  0
  4 11  2  0  0  0  0
  5 12  2  0  0  0  0
  5 19  1  0  0  0  0
  6 13  1  0  0  0  0
  6 19  2  0  0  0  0
  7 20  1  0  0  0  0
  8 22  1  0  0  0  0
  9 24  1  0  0  0  0
 10 14  2  0  0  0  0
 10 23  1  0  0  0  0
 11 26  1  0  0  0  0
 12 27  1  0  0  0  0
 13 27  2  0  0  0  0
 14 28  1  0  0  0  0
 15 16  2  0  0  0  0
 15 29  1  0  0  0  0
 16 30  1  0  0  0  0
 17 25  1  0  0  0  0
 17 28  2  0  0  0  0
 18 30  2  0  0  0  0
 18 31  1  0  0  0  0
 19 32  1  0  0  0  0
 20 26  2  0  0  0  0
 20 34  1  0  0  0  0
 21 32  1  0  0  0  0
 21 33  2  0  0  0  0
 21 36  1  0  0  0  0
 22 24  2  0  0  0  0
 22 41  1  0  0  0  0
 23 25  2  0  0  0  0
 23 42  1  0  0  0  0
 24 50  1  0  0  0  0
 25 43  1  0  0  0  0
 26 58  1  0  0  0  0
 27 77  1  0  0  0  0
 28 78  1  0  0  0  0
 29 31  2  0  0  0  0
 29 77  1  0  0  0  0
 30 79  1  0  0  0  0
 31 80  1  0  0  0  0
 32 63  2  0  0  0  0
 33 64  1  0  0  0  0
 33 67  1  0  0  0  0
 34 35  2  0  0  0  0
 35 78  1  0  0  0  0
 36 68  1  0  0  0  0
 36 72  2  0  0  0  0
 37 51  1  0  0  0  0
 37 69  1  0  0  0  0
 37 73  2  0  0  0  0
 38 59  1  0  0  0  0
 38 66  1  0  0  0  0
 38 74  2  0  0  0  0
 39 60  1  0  0  0  0
 39 65  1  0  0  0  0
 39 75  2  0  0  0  0
 40 61  1  0  0  0  0
 40 70  1  0  0  0  0
 40 76  2  0  0  0  0
 41 44  1  0  0  0  0
 42 51  1  0  0  0  0
 43 65  1  0  0  0  0
 44 46  1  0  0  0  0
 45 47  1  0  0  0  0
 45 48  1  0  0  0  0
 46 50  1  0  0  0  0
 47 52  1  0  0  0  0
 48 66  1  0  0  0  0
 49 52  1  0  0  0  0
 49 66  1  0  0  0  0
 50 69  1  0  0  0  0
 51 65  1  0  0  0  0
 52 64  1  0  0  0  0
 53 61  1  0  0  0  0
 54 62  1  0  0  0  0
 55 62  1  0  0  0  0
 56 62  1  0  0  0  0
 57 71  1  0  0  0  0
 58 59  1  0  0  0  0
 60 62  1  0  0  0  0
 60 70  1  0  0  0  0
 61 71  1  0  0  0  0
 63 64  1  0  0  0  0
M  CHG  1  71   1
M  ISO  4  35 101  38 100  59 100  78 101
M  END
> <Batch ID>
0104

> <Smiles>
CNC(C)C(=O)NC(C(=O)N1Cc2cc([101O:1][101CH:1]=Cc3ccccc3C[100CH2:0][100C:0](=O)N3CCCC(n4nc(-c5ccc(Oc6ccc(F)cc6F)cc5)c(C(N)=O)c4N)C3)ccc2CC1C(=O)NC1CCCc2ccccc21)C(C)(C)C

> <Shape>
0.172

> <Color>
0.204

> <Negative vol penalty>
0.000

$$$$

  -OEChem-04052301083D

 89 98  0     1  0  0  0  0  0999 V2000
  -26.9079  -35.9847   16.3456 C   0  0  0  0  0  0  0  0  0  0  0  0
  -27.7450  -34.9731   16.8051 C   0  0  0  0  0  0  0  0  0  0  0  0
  -31.3506  -16.6221   25.7403 C   0  0  0  0  0  0  0  0  0  0  0  0
  -32.4091  -14.5159   25.2106 C   0  0  0  0  0  0  0  0  0  0  0  0
  -25.7147  -36.2578   17.0132 C   0  0  0  0  0  0  0  0  0  0  0  0
  -27.3899  -34.2345   17.9333 C   0  0  0  0  0  0  0  0  0  0  0  0
  -26.6340  -27.0787   17.5943 C   0  0  0  0  0  0  0  0  0  0  0  0
  -25.9798  -17.6674   19.5172 C   0  0  0  0  0  0  0  0  0  0  0  0
  -25.4453  -16.3861   19.6520 C   0  0  0  0  0  0  0  0  0  0  0  0
  -31.7183  -16.4708   27.0772 C   0  0  0  0  0  0  0  0  0  0  0  0
  -32.7769  -14.3645   26.5476 C   0  0  0  0  0  0  0  0  0  0  0  0
  -26.6756  -25.6859   17.6598 C   0  0  0  0  0  0  0  0  0  0  0  0
  -31.3116  -13.4132   29.4422 C   0  0  0  0  0  0  0  0  0  0  0  0
  -31.1129  -12.1647   30.0316 C   0  0  0  0  0  0  0  0  0  0  0  0
  -25.9985  -25.7641   19.9801 C   0  0  0  0  0  0  0  0  0  0  0  0
  -27.6582  -17.1415   21.1735 C   0  0  0  0  0  0  0  0  0  0  0  0
  -33.4816  -11.9982   30.4772 C   0  0  0  0  0  0  0  0  0  0  0  0
  -31.6959  -15.6446   24.8070 C   0  0  0  0  0  0  0  0  0  0  0  0
  -31.6805  -16.8454   22.5563 C   0  0  0  0  0  0  0  0  0  0  0  0
  -25.3401  -35.5157   18.1445 C   0  0  0  0  0  0  0  0  0  0  0  0
  -26.2590  -27.8198   18.7184 C   0  0  0  0  0  0  0  0  0  0  0  0
  -26.1912  -34.4987   18.6175 C   0  0  0  0  0  0  0  0  0  0  0  0
  -25.9429  -27.1590   19.9168 C   0  0  0  0  0  0  0  0  0  0  0  0
  -27.1237  -15.8602   21.3083 C   0  0  0  0  0  0  0  0  0  0  0  0
  -27.0863  -18.0451   20.2779 C   0  0  0  0  0  0  0  0  0  0  0  0
  -26.0172  -15.4825   20.5476 C   0  0  0  0  0  0  0  0  0  0  0  0
  -32.4315  -15.3420   27.4809 C   0  0  0  0  0  0  0  0  0  0  0  0
  -26.3589  -25.0302   18.8498 C   0  0  0  0  0  0  0  0  0  0  0  0
  -32.5953  -13.9542   29.3701 C   0  0  0  0  0  0  0  0  0  0  0  0
  -32.1979  -11.4572   30.5491 C   0  0  0  0  0  0  0  0  0  0  0  0
  -33.6803  -13.2467   29.8877 C   0  0  0  0  0  0  0  0  0  0  0  0
  -31.3158  -15.8001   23.4259 C   0  0  0  0  0  0  0  0  0  0  0  0
  -31.0685  -16.5323   21.3673 C   0  0  0  0  0  0  0  0  0  0  0  0
  -27.3816  -21.7492   19.9528 C   0  0  0  0  0  0  0  0  0  0  0  0
  -26.9334  -20.5458   20.3862 C   0  0  0  0  0  0  0  0  0  0  0  0
  -28.6423  -21.7827   19.1377 C   0  0  0  0  0  0  0  0  0  0  0  0
  -32.4995  -17.9965   22.8014 C   0  0  0  0  0  0  0  0  0  0  0  0
  -25.6274  -31.2080   20.2006 C   0  0  0  0  0  0  0  0  0  0  0  0
  -23.4299  -29.3482   21.2602 C   0  0  0  0  0  0  0  0  0  0  0  0
  -20.5363  -27.9918   22.4536 C   0  0  0  0  0  0  0  0  0  0  0  0
  -26.1741  -12.9832   20.4065 C   0  0  0  0  0  0  0  0  0  0  0  0
  -24.0635  -35.8789   18.8608 C   0  0  0  0  0  0  0  0  0  0  0  0
  -26.2599  -29.3244   18.7112 C   0  0  0  0  0  0  0  0  0  0  0  0
  -25.5786  -27.9986   21.1106 C   0  0  0  0  0  0  0  0  0  0  0  0
  -29.2692  -20.4727   18.7253 C   0  0  0  0  0  0  0  0  0  0  0  0
  -23.5799  -34.8012   19.8277 C   0  0  0  0  0  0  0  0  0  0  0  0
  -29.5028  -12.8175   18.7988 C   0  0  0  0  0  0  0  0  0  0  0  0
  -24.7351  -34.2981   20.6876 C   0  0  0  0  0  0  0  0  0  0  0  0
  -30.3909  -13.5835   19.7776 C   0  0  0  0  0  0  0  0  0  0  0  0
  -29.0487  -19.3902   19.7674 C   0  0  0  0  0  0  0  0  0  0  0  0
  -28.3232  -12.1547   19.5037 C   0  0  0  0  0  0  0  0  0  0  0  0
  -28.3857  -13.8753   21.2861 C   0  0  0  0  0  0  0  0  0  0  0  0
  -25.8287  -33.6591   19.8232 C   0  0  1  0  0  0  0  0  0  0  0  0
  -25.1419  -29.9327   19.5767 C   0  0  1  0  0  0  0  0  0  0  0  0
  -29.5589  -14.5858   20.5945 C   0  0  1  0  0  0  0  0  0  0  0  0
  -25.6999  -20.4705   21.2651 C   0  0  0  0  0  0  0  0  0  0  0  0
  -26.9530  -14.7770   23.5631 C   0  0  0  0  0  0  0  0  0  0  0  0
  -18.8661  -28.2349   24.3107 C   0  0  0  0  0  0  0  0  0  0  0  0
  -25.3912  -28.0332   23.1910 C   0  0  0  0  0  0  0  0  0  0  0  0
  -23.4467  -27.4463   24.6548 C   0  0  0  0  0  0  0  0  0  0  0  0
  -23.9857  -29.8390   24.1999 C   0  0  0  0  0  0  0  0  0  0  0  0
  -24.0018  -14.0500   20.8243 C   0  0  0  0  0  0  0  0  0  0  0  0
  -18.3344  -28.5506   20.5565 C   0  0  0  0  0  0  0  0  0  0  0  0
  -27.7575  -14.9124   22.2743 C   0  0  0  0  0  0  0  0  0  0  0  0
  -26.7198  -23.0814   20.1649 C   0  0  0  0  0  0  0  0  0  1  0  0
  -22.9773  -28.4248   22.3628 C   0  0  1  0  0  0  0  0  0  0  0  0
  -19.2286  -28.6293   22.8874 C   0  0  2  0  0  0  0  0  0  0  0  0
  -23.9510  -28.4273   23.5750 C   0  0  0  0  0  0  0  0  0  0  0  0
  -30.5326  -14.8910   22.8393 N   0  0  0  0  0  0  0  0  0  0  0  0
  -30.4001  -15.3641   21.5884 N   0  0  0  0  0  0  0  0  0  0  0  0
  -27.6303  -19.3482   20.1402 N   0  0  0  0  0  0  0  0  0  0  0  0
  -24.6883  -29.0957   20.7004 N   0  0  0  0  0  0  0  0  0  0  0  0
  -27.5762  -13.1086   20.3251 N   0  0  0  0  0  0  0  0  0  0  0  0
  -31.0421  -17.1450   20.1646 N   0  0  0  0  0  0  0  0  0  0  0  0
  -31.8841  -19.1686   23.2615 N   0  0  0  0  0  0  0  0  0  0  0  0
  -25.4359  -32.3278   19.4138 N   0  0  0  0  0  0  0  0  0  0  0  0
  -21.6122  -28.8205   22.6920 N   0  0  0  0  0  0  0  0  0  0  0  0
  -25.4506  -14.1617   20.6710 N   0  0  0  0  0  0  0  0  0  0  0  0
  -18.1210  -28.2045   21.9854 N   0  3  0  0  0  0  0  0  0  0  0  0
  -29.1248  -22.8522   18.7660 O   0  0  0  0  0  0  0  0  0  0  0  0
  -33.7379  -17.9909   22.6021 O   0  0  0  0  0  0  0  0  0  0  0  0
  -26.1370  -31.1798   21.3147 O   0  0  0  0  0  0  0  0  0  0  0  0
  -22.6924  -30.2725   20.9067 O   0  0  0  0  0  0  0  0  0  0  0  0
  -20.5975  -26.8695   21.9565 O   0  0  0  0  0  0  0  0  0  0  0  0
  -25.6082  -11.8876   20.3062 O   0  0  0  0  0  0  0  0  0  0  0  0
  -32.7907  -15.1941   28.7853 O   0  0  0  0  0  0  0  0  0  0  0  0
  -26.3972  -23.6700   18.9056 O   0  0  0  0  0  0  0  0  0  1  0  0
  -32.0068  -10.2590   31.1165 F   0  0  0  0  0  0  0  0  0  0  0  0
  -34.9157  -13.7617   29.8224 F   0  0  0  0  0  0  0  0  0  0  0  0
  1  2  1  0  0  0  0
  1  5  2  0  0  0  0
  2  6  2  0  0  0  0
  3 10  2  0  0  0  0
  3 18  1  0  0  0  0
  4 11  1  0  0  0  0
  4 18  2  0  0  0  0
  5 20  1  0  0  0  0
  6 22  1  0  0  0  0
  7 12  2  0  0  0  0
  7 21  1  0  0  0  0
  8  9  2  0  0  0  0
  8 25  1  0  0  0  0
  9 26  1  0  0  0  0
 10 27  1  0  0  0  0
 11 27  2  0  0  0  0
 12 28  1  0  0  0  0
 13 14  2  0  0  0  0
 13 29  1  0  0  0  0
 14 30  1  0  0  0  0
 15 23  1  0  0  0  0
 15 28  2  0  0  0  0
 16 24  1  0  0  0  0
 16 25  2  0  0  0  0
 17 30  2  0  0  0  0
 17 31  1  0  0  0  0
 18 32  1  0  0  0  0
 19 32  1  0  0  0  0
 19 33  2  0  0  0  0
 19 37  1  0  0  0  0
 20 22  2  0  0  0  0
 20 42  1  0  0  0  0
 21 23  2  0  0  0  0
 21 43  1  0  0  0  0
 22 53  1  0  0  0  0
 23 44  1  0  0  0  0
 24 26  2  0  0  0  0
 24 64  1  0  0  0  0
 25 71  1  0  0  0  0
 26 78  1  0  0  0  0
 27 86  1  0  0  0  0
 28 87  1  0  0  0  0
 29 31  2  0  0  0  0
 29 86  1  0  0  0  0
 30 88  1  0  0  0  0
 31 89  1  0  0  0  0
 32 69  2  0  0  0  0
 33 70  1  0  0  0  0
 33 74  1  0  0  0  0
 34 35  2  0  0  0  0
 34 36  1  0  0  0  0
 34 65  1  0  0  0  0
 35 56  1  0  0  0  0
 35 71  1  0  0  0  0
 36 45  1  0  0  0  0
 36 80  2  0  0  0  0
 37 75  1  0  0  0  0
 37 81  2  0  0  0  0
 38 54  1  0  0  0  0
 38 76  1  0  0  0  0
 38 82  2  0  0  0  0
 39 66  1  0  0  0  0
 39 72  1  0  0  0  0
 39 83  2  0  0  0  0
 40 67  1  0  0  0  0
 40 77  1  0  0  0  0
 40 84  2  0  0  0  0
 41 73  1  0  0  0  0
 41 78  1  0  0  0  0
 41 85  2  0  0  0  0
 42 46  1  0  0  0  0
 43 54  1  0  0  0  0
 44 72  1  0  0  0  0
 45 50  1  0  0  0  0
 46 48  1  0  0  0  0
 47 49  1  0  0  0  0
 47 51  1  0  0  0  0
 48 53  1  0  0  0  0
 49 55  1  0  0  0  0
 50 71  1  0  0  0  0
 51 73  1  0  0  0  0
 52 55  1  0  0  0  0
 52 73  1  0  0  0  0
 53 76  1  0  0  0  0
 54 72  1  0  0  0  0
 55 70  1  0  0  0  0
 57 64  1  0  0  0  0
 58 67  1  0  0  0  0
 59 68  1  0  0  0  0
 60 68  1  0  0  0  0
 61 68  1  0  0  0  0
 62 78  1  0  0  0  0
 63 79  1  0  0  0  0
 65 87  1  0  0  0  0
 66 68  1  0  0  0  0
 66 77  1  0  0  0  0
 67 79  1  0  0  0  0
 69 70  1  0  0  0  0
M  CHG  1  79   1
M  ISO  4  41 100  65 101  78 100  87 101
M  END
> <Batch ID>
0104

> <Smiles>
CCc1cc(N2CCC(=O)C([101CH2:1][101O:1]c3ccc4c(c3)CN(C(=O)C(NC(=O)C(C)NC)C(C)(C)C)C(C(=O)NC3CCCc5ccccc53)C4)=C2C)ccc1[100N:0](C)[100C:0](=O)N1CCCC(n2nc(-c3ccc(Oc4ccc(F)cc4F)cc3)c(C(N)=O)c2N)C1

> <Shape>
0.237

> <Color>
0.080

> <Negative vol penalty>
0.000

$$$$

  -OEChem-04052301083D

 86 95  0     1  0  0  0  0  0999 V2000
  -21.6625  -11.5529   20.7133 C   0  0  0  0  0  0  0  0  0  0  0  0
  -21.6463  -12.8063   21.3168 C   0  0  0  0  0  0  0  0  0  0  0  0
  -29.9312  -24.5472   23.5823 C   0  0  0  0  0  0  0  0  0  0  0  0
  -27.5973  -24.4282   22.9693 C   0  0  0  0  0  0  0  0  0  0  0  0
  -22.8698  -11.0016   20.2864 C   0  0  0  0  0  0  0  0  0  0  0  0
  -22.8378  -13.5087   21.4947 C   0  0  0  0  0  0  0  0  0  0  0  0
  -22.4239  -18.3914   20.2170 C   0  0  0  0  0  0  0  0  0  0  0  0
  -22.2023  -27.8615   21.0165 C   0  0  0  0  0  0  0  0  0  0  0  0
  -20.0704  -28.6455   21.8394 C   0  0  0  0  0  0  0  0  0  0  0  0
  -21.8980  -26.5730   21.4555 C   0  0  0  0  0  0  0  0  0  0  0  0
  -19.7660  -27.3570   22.2785 C   0  0  0  0  0  0  0  0  0  0  0  0
  -29.8934  -23.2125   23.9855 C   0  0  0  0  0  0  0  0  0  0  0  0
  -27.5595  -23.0934   23.3724 C   0  0  0  0  0  0  0  0  0  0  0  0
  -21.7970  -19.2377   21.1306 C   0  0  0  0  0  0  0  0  0  0  0  0
  -28.8183  -21.4486   26.6608 C   0  0  0  0  0  0  0  0  0  0  0  0
  -29.4193  -21.1223   27.8765 C   0  0  0  0  0  0  0  0  0  0  0  0
  -23.9541  -20.0022   21.8932 C   0  0  0  0  0  0  0  0  0  0  0  0
  -30.9188  -19.6139   26.7305 C   0  0  0  0  0  0  0  0  0  0  0  0
  -28.7831  -25.1551   23.0743 C   0  0  0  0  0  0  0  0  0  0  0  0
  -29.6359  -27.0979   21.6579 C   0  0  0  0  0  0  0  0  0  0  0  0
  -24.0755  -11.7017   20.4504 C   0  0  0  0  0  0  0  0  0  0  0  0
  -23.8231  -18.3361   20.1421 C   0  0  0  0  0  0  0  0  0  0  0  0
  -24.0625  -12.9656   21.0707 C   0  0  0  0  0  0  0  0  0  0  0  0
  -24.5962  -19.1563   20.9761 C   0  0  0  0  0  0  0  0  0  0  0  0
  -21.2886  -28.8978   21.2085 C   0  0  0  0  0  0  0  0  0  0  0  0
  -20.6798  -26.3208   22.0865 C   0  0  0  0  0  0  0  0  0  0  0  0
  -28.7076  -22.4855   23.8806 C   0  0  0  0  0  0  0  0  0  0  0  0
  -22.5621  -20.0412   21.9709 C   0  0  0  0  0  0  0  0  0  0  0  0
  -29.2675  -20.8574   25.4799 C   0  0  0  0  0  0  0  0  0  0  0  0
  -30.4695  -20.2050   27.9114 C   0  0  0  0  0  0  0  0  0  0  0  0
  -30.3178  -19.9401   25.5148 C   0  0  0  0  0  0  0  0  0  0  0  0
  -28.8213  -26.5341   22.6581 C   0  0  0  0  0  0  0  0  0  0  0  0
  -29.2958  -28.4286   21.6479 C   0  0  0  0  0  0  0  0  0  0  0  0
  -21.1821  -23.8573   22.4153 C   0  0  0  0  0  0  0  0  0  0  0  0
  -30.6125  -26.4746   20.8134 C   0  0  0  0  0  0  0  0  0  0  0  0
  -26.0066  -16.0735   20.6078 C   0  0  0  0  0  0  0  0  0  0  0  0
  -24.3016  -31.3067   23.3469 C   0  0  0  0  0  0  0  0  0  0  0  0
  -28.0375  -18.3535   19.5126 C   0  0  0  0  0  0  0  0  0  0  0  0
  -28.6857  -21.6705   19.0387 C   0  0  0  0  0  0  0  0  0  0  0  0
  -25.3615  -11.0446   20.0156 C   0  0  0  0  0  0  0  0  0  0  0  0
  -24.4836  -17.4376   19.1327 C   0  0  0  0  0  0  0  0  0  0  0  0
  -26.1013  -19.1491   20.9211 C   0  0  0  0  0  0  0  0  0  0  0  0
  -26.5337  -12.0157   19.9021 C   0  0  0  0  0  0  0  0  0  0  0  0
  -27.6475  -31.9017   24.4831 C   0  0  0  0  0  0  0  0  0  0  0  0
  -26.6002  -12.9181   21.1302 C   0  0  0  0  0  0  0  0  0  0  0  0
  -28.3952  -30.6320   24.0784 C   0  0  0  0  0  0  0  0  0  0  0  0
  -19.0255  -23.1913   23.1703 C   0  0  0  0  0  0  0  0  0  0  0  0
  -26.2099  -31.5967   24.8924 C   0  0  0  0  0  0  0  0  0  0  0  0
  -19.1397  -24.7007   23.2466 C   0  0  0  0  0  0  0  0  0  0  0  0
  -26.1731  -29.5867   23.4501 C   0  0  0  0  0  0  0  0  0  0  0  0
  -25.3311  -13.7691   21.2589 C   0  0  1  0  0  0  0  0  0  0  0  0
  -20.4769  -22.7340   23.1582 C   0  0  1  0  0  0  0  0  0  0  0  0
  -25.9217  -17.0836   19.4986 C   0  0  1  0  0  0  0  0  0  0  0  0
  -27.6203  -29.8542   23.0000 C   0  0  2  0  0  0  0  0  0  0  0  0
  -30.4439  -23.2273   18.1543 C   0  0  0  0  0  0  0  0  0  0  0  0
  -29.6929  -17.9146   22.0379 C   0  0  0  0  0  0  0  0  0  0  0  0
  -30.8484  -20.0867   21.5740 C   0  0  0  0  0  0  0  0  0  0  0  0
  -31.0353  -18.2044   19.9477 C   0  0  0  0  0  0  0  0  0  0  0  0
  -26.8617  -22.7403   16.9681 C   0  0  0  0  0  0  0  0  0  0  0  0
  -21.6141  -30.2754   20.7390 C   0  0  0  0  0  0  0  0  0  0  0  0
  -23.6474  -30.4729   22.2742 C   0  0  0  0  0  0  0  0  0  0  0  0
  -20.6693  -21.3779   22.5056 C   0  0  0  0  0  0  0  0  0  1  0  0
  -22.3347  -31.1021   21.8181 C   0  0  0  0  0  0  0  0  0  0  0  0
  -28.8484  -19.4573   20.1476 C   0  0  1  0  0  0  0  0  0  0  0  0
  -29.1871  -22.4358   17.8274 C   0  0  2  0  0  0  0  0  0  0  0  0
  -30.0779  -18.9147   20.9294 C   0  0  0  0  0  0  0  0  0  0  0  0
  -28.0240  -27.4330   23.2413 N   0  0  0  0  0  0  0  0  0  0  0  0
  -28.3359  -28.5753   22.6056 N   0  0  0  0  0  0  0  0  0  0  0  0
  -20.3680  -25.0025   22.5356 N   0  0  0  0  0  0  0  0  0  0  0  0
  -26.7005  -18.2491   19.9219 N   0  0  0  0  0  0  0  0  0  0  0  0
  -25.5147  -30.8378   23.8513 N   0  0  0  0  0  0  0  0  0  0  0  0
  -29.7273  -29.4759   20.9134 N   0  0  0  0  0  0  0  0  0  0  0  0
  -31.9398  -26.4132   21.2593 N   0  0  0  0  0  0  0  0  0  0  0  0
  -25.3703  -14.8787   20.3306 N   0  0  0  0  0  0  0  0  0  0  0  0
  -29.1852  -20.3858   19.0739 N   0  0  0  0  0  0  0  0  0  0  0  0
  -28.1446  -23.3864   17.3473 N   0  3  0  0  0  0  0  0  0  0  0  0
  -22.2794  -23.7284   21.8921 O   0  0  0  0  0  0  0  0  0  0  0  0
  -30.3200  -26.0010   19.6892 O   0  0  0  0  0  0  0  0  0  0  0  0
  -26.6063  -16.3568   21.6383 O   0  0  0  0  0  0  0  0  0  0  0  0
  -23.7508  -32.3451   23.7220 O   0  0  0  0  0  0  0  0  0  0  0  0
  -28.5686  -17.6159   18.6787 O   0  0  0  0  0  0  0  0  0  0  0  0
  -27.9296  -22.1642   19.8725 O   0  0  0  0  0  0  0  0  0  0  0  0
  -28.6704  -21.1830   24.2736 O   0  0  0  0  0  0  0  0  0  0  0  0
  -21.9528  -20.8676   22.8639 O   0  0  0  0  0  0  0  0  0  1  0  0
  -31.0475  -19.8929   29.0788 F   0  0  0  0  0  0  0  0  0  0  0  0
  -30.7544  -19.3699   24.3834 F   0  0  0  0  0  0  0  0  0  0  0  0
  1  2  1  0  0  0  0
  1  5  2  0  0  0  0
  2  6  2  0  0  0  0
  3 12  2  0  0  0  0
  3 19  1  0  0  0  0
  4 13  1  0  0  0  0
  4 19  2  0  0  0  0
  5 21  1  0  0  0  0
  6 23  1  0  0  0  0
  7 14  2  0  0  0  0
  7 22  1  0  0  0  0
  8 10  2  0  0  0  0
  8 25  1  0  0  0  0
  9 11  1  0  0  0  0
  9 25  2  0  0  0  0
 10 26  1  0  0  0  0
 11 26  2  0  0  0  0
 12 27  1  0  0  0  0
 13 27  2  0  0  0  0
 14 28  1  0  0  0  0
 15 16  2  0  0  0  0
 15 29  1  0  0  0  0
 16 30  1  0  0  0  0
 17 24  1  0  0  0  0
 17 28  2  0  0  0  0
 18 30  2  0  0  0  0
 18 31  1  0  0  0  0
 19 32  1  0  0  0  0
 20 32  1  0  0  0  0
 20 33  2  0  0  0  0
 20 35  1  0  0  0  0
 21 23  2  0  0  0  0
 21 40  1  0  0  0  0
 22 24  2  0  0  0  0
 22 41  1  0  0  0  0
 23 51  1  0  0  0  0
 24 42  1  0  0  0  0
 25 60  1  0  0  0  0
 26 69  1  0  0  0  0
 27 83  1  0  0  0  0
 28 84  1  0  0  0  0
 29 31  2  0  0  0  0
 29 83  1  0  0  0  0
 30 85  1  0  0  0  0
 31 86  1  0  0  0  0
 32 67  2  0  0  0  0
 33 68  1  0  0  0  0
 33 72  1  0  0  0  0
 34 52  1  0  0  0  0
 34 69  1  0  0  0  0
 34 77  2  0  0  0  0
 35 73  1  0  0  0  0
 35 78  2  0  0  0  0
 36 53  1  0  0  0  0
 36 74  1  0  0  0  0
 36 79  2  0  0  0  0
 37 61  1  0  0  0  0
 37 71  1  0  0  0  0
 37 80  2  0  0  0  0
 38 64  1  0  0  0  0
 38 70  1  0  0  0  0
 38 81  2  0  0  0  0
 39 65  1  0  0  0  0
 39 75  1  0  0  0  0
 39 82  2  0  0  0  0
 40 43  1  0  0  0  0
 41 53  1  0  0  0  0
 42 70  1  0  0  0  0
 43 45  1  0  0  0  0
 44 46  1  0  0  0  0
 44 48  1  0  0  0  0
 45 51  1  0  0  0  0
 46 54  1  0  0  0  0
 47 49  1  0  0  0  0
 47 52  1  0  0  0  0
 48 71  1  0  0  0  0
 49 69  1  0  0  0  0
 50 54  1  0  0  0  0
 50 71  1  0  0  0  0
 51 74  1  0  0  0  0
 52 62  1  0  0  0  0
 53 70  1  0  0  0  0
 54 68  1  0  0  0  0
 55 65  1  0  0  0  0
 56 66  1  0  0  0  0
 57 66  1  0  0  0  0
 58 66  1  0  0  0  0
 59 76  1  0  0  0  0
 60 63  1  0  0  0  0
 61 63  1  0  0  0  0
 62 84  1  0  0  0  0
 64 66  1  0  0  0  0
 64 75  1  0  0  0  0
 65 76  1  0  0  0  0
 67 68  1  0  0  0  0
M  CHG  1  76   1
M  ISO  4  37 100  61 100  62 101  84 101
M  END
> <Batch ID>
0104

> <Smiles>
CNC(C)C(=O)NC(C(=O)N1Cc2cc([101O:1][101CH2:1]C3CCN(c4ccc(CC[100CH2:0][100C:0](=O)N5CCCC(n6nc(-c7ccc(Oc8ccc(F)cc8F)cc7)c(C(N)=O)c6N)C5)cc4)C3=O)ccc2CC1C(=O)NC1CCCc2ccccc21)C(C)(C)C

> <Shape>
0.239

> <Color>
0.065

> <Negative vol penalty>
0.000

$$$$

  -OEChem-04052301083D

 87 96  0     1  0  0  0  0  0999 V2000
  -26.0887  -35.3108   22.7971 C   0  0  0  0  0  0  0  0  0  0  0  0
  -26.6213  -34.0349   22.6427 C   0  0  0  0  0  0  0  0  0  0  0  0
  -24.3161  -12.7855   22.4119 C   0  0  0  0  0  0  0  0  0  0  0  0
  -22.6759  -12.1823   20.7437 C   0  0  0  0  0  0  0  0  0  0  0  0
  -24.7856  -35.4688   23.2671 C   0  0  0  0  0  0  0  0  0  0  0  0
  -25.8514  -32.9162   22.9593 C   0  0  0  0  0  0  0  0  0  0  0  0
  -26.1758  -29.2786   19.4511 C   0  0  0  0  0  0  0  0  0  0  0  0
  -24.8703  -11.5081   22.3289 C   0  0  0  0  0  0  0  0  0  0  0  0
  -23.2301  -10.9049   20.6607 C   0  0  0  0  0  0  0  0  0  0  0  0
  -27.3214  -28.4841   19.4617 C   0  0  0  0  0  0  0  0  0  0  0  0
  -23.1394   -8.0297   22.4371 C   0  0  0  0  0  0  0  0  0  0  0  0
  -22.2647   -6.9432   22.4268 C   0  0  0  0  0  0  0  0  0  0  0  0
  -28.2513  -20.7607   18.7736 C   0  0  0  0  0  0  0  0  0  0  0  0
  -26.1017  -26.7511   20.6141 C   0  0  0  0  0  0  0  0  0  0  0  0
  -26.0521  -20.9710   17.0701 C   0  0  0  0  0  0  0  0  0  0  0  0
  -23.1105   -6.2827   20.2622 C   0  0  0  0  0  0  0  0  0  0  0  0
  -23.2189  -13.1225   21.6193 C   0  0  0  0  0  0  0  0  0  0  0  0
  -28.3821  -21.4020   17.5418 C   0  0  0  0  0  0  0  0  0  0  0  0
  -22.0882  -15.0540   22.8435 C   0  0  0  0  0  0  0  0  0  0  0  0
  -23.9960  -34.3512   23.5804 C   0  0  0  0  0  0  0  0  0  0  0  0
  -24.9854  -28.8188   20.0326 C   0  0  0  0  0  0  0  0  0  0  0  0
  -24.5369  -33.0594   23.4352 C   0  0  0  0  0  0  0  0  0  0  0  0
  -24.9417  -27.5406   20.6073 C   0  0  0  0  0  0  0  0  0  0  0  0
  -27.0210  -20.2245   19.1536 C   0  0  0  0  0  0  0  0  0  0  0  0
  -27.2825  -21.5072   16.6901 C   0  0  0  0  0  0  0  0  0  0  0  0
  -25.9213  -20.3297   18.3019 C   0  0  0  0  0  0  0  0  0  0  0  0
  -24.3273  -10.5679   21.4533 C   0  0  0  0  0  0  0  0  0  0  0  0
  -27.2853  -27.2213   20.0458 C   0  0  0  0  0  0  0  0  0  0  0  0
  -23.9996   -8.2427   21.3598 C   0  0  0  0  0  0  0  0  0  0  0  0
  -22.2503   -6.0697   21.3394 C   0  0  0  0  0  0  0  0  0  0  0  0
  -23.9852   -7.3693   20.2724 C   0  0  0  0  0  0  0  0  0  0  0  0
  -22.6457  -14.4417   21.7050 C   0  0  0  0  0  0  0  0  0  0  0  0
  -21.6875  -16.2927   22.4056 C   0  0  0  0  0  0  0  0  0  0  0  0
  -29.6918  -21.9570   17.1654 C   0  0  0  0  0  0  0  0  0  0  0  0
  -21.9454  -14.5484   24.1775 C   0  0  0  0  0  0  0  0  0  0  0  0
  -23.1409  -29.7884   22.4329 C   0  0  0  0  0  0  0  0  0  0  0  0
  -21.1999  -27.4085   21.3885 C   0  0  0  0  0  0  0  0  0  0  0  0
  -20.8840  -24.4536   19.7106 C   0  0  0  0  0  0  0  0  0  0  0  0
  -23.4835  -19.8170   17.9270 C   0  0  0  0  0  0  0  0  0  0  0  0
  -22.6091  -34.5733   24.1300 C   0  0  0  0  0  0  0  0  0  0  0  0
  -23.7510  -29.6772   19.9892 C   0  0  0  0  0  0  0  0  0  0  0  0
  -23.6831  -26.9923   21.2269 C   0  0  0  0  0  0  0  0  0  0  0  0
  -21.7301  -33.3260   24.0872 C   0  0  0  0  0  0  0  0  0  0  0  0
  -20.1928  -18.5692   18.4664 C   0  0  0  0  0  0  0  0  0  0  0  0
  -22.4952  -32.1154   24.6124 C   0  0  0  0  0  0  0  0  0  0  0  0
  -20.3969  -17.4288   19.4664 C   0  0  0  0  0  0  0  0  0  0  0  0
  -31.0462  -25.3619   17.5836 C   0  0  0  0  0  0  0  0  0  0  0  0
  -21.3387  -18.6525   17.4596 C   0  0  0  0  0  0  0  0  0  0  0  0
  -31.2325  -23.8997   17.2090 C   0  0  0  0  0  0  0  0  0  0  0  0
  -29.1063  -24.1664   18.3020 C   0  0  0  0  0  0  0  0  0  0  0  0
  -22.8850  -17.5823   19.0510 C   0  0  0  0  0  0  0  0  0  0  0  0
  -23.7245  -31.8207   23.7444 C   0  0  1  0  0  0  0  0  0  0  0  0
  -22.7332  -29.3149   21.0664 C   0  0  1  0  0  0  0  0  0  0  0  0
  -30.0400  -25.2955   18.7348 C   0  0  2  0  0  0  0  0  0  0  0  0
  -21.7884  -17.4994   20.1254 C   0  0  2  0  0  0  0  0  0  0  0  0
  -26.9095  -19.5435   20.4790 C   0  0  0  0  0  0  0  0  0  0  0  0
  -27.3951  -22.1896   15.3658 C   0  0  0  0  0  0  0  0  0  0  0  0
  -19.1792  -22.7323   19.0562 C   0  0  0  0  0  0  0  0  0  0  0  0
  -21.2047  -26.3232   24.2402 C   0  0  0  0  0  0  0  0  0  0  0  0
  -20.3158  -24.1608   23.3445 C   0  0  0  0  0  0  0  0  0  0  0  0
  -18.9794  -26.2530   23.1010 C   0  0  0  0  0  0  0  0  0  0  0  0
  -21.3627  -24.9078   16.8255 C   0  0  0  0  0  0  0  0  0  0  0  0
  -29.3209  -26.6101   18.9787 C   0  0  0  0  0  0  0  0  0  1  0  0
  -21.0546  -25.9368   21.6918 C   0  0  1  0  0  0  0  0  0  0  0  0
  -19.9059  -24.0021   18.6411 C   0  0  2  0  0  0  0  0  0  0  0  0
  -20.4130  -25.6793   23.0845 C   0  0  0  0  0  0  0  0  0  0  0  0
  -22.6045  -15.2266   20.6251 N   0  0  0  0  0  0  0  0  0  0  0  0
  -22.0163  -16.3448   21.0830 N   0  0  0  0  0  0  0  0  0  0  0  0
  -29.9600  -23.2685   17.5261 N   0  0  0  0  0  0  0  0  0  0  0  0
  -22.5042  -27.8720   21.1652 N   0  0  0  0  0  0  0  0  0  0  0  0
  -22.6252  -18.7209   18.1561 N   0  0  0  0  0  0  0  0  0  0  0  0
  -21.0896  -17.3314   23.0268 N   0  0  0  0  0  0  0  0  0  0  0  0
  -20.7744  -13.8519   24.5063 N   0  0  0  0  0  0  0  0  0  0  0  0
  -24.6637  -19.7902   18.6693 N   0  0  0  0  0  0  0  0  0  0  0  0
  -23.3316  -31.1542   22.5214 N   0  0  0  0  0  0  0  0  0  0  0  0
  -20.3114  -25.3615   20.5760 N   0  0  0  0  0  0  0  0  0  0  0  0
  -20.6231  -23.7364   17.3620 N   0  3  0  0  0  0  0  0  0  0  0  0
  -30.4672  -21.2165   16.5638 O   0  0  0  0  0  0  0  0  0  0  0  0
  -22.8228  -14.7237   25.0567 O   0  0  0  0  0  0  0  0  0  0  0  0
  -23.2713  -28.9751   23.3402 O   0  0  0  0  0  0  0  0  0  0  0  0
  -20.1926  -28.1191   21.3441 O   0  0  0  0  0  0  0  0  0  0  0  0
  -22.0394  -24.0392   19.7743 O   0  0  0  0  0  0  0  0  0  0  0  0
  -23.1808  -20.7273   17.1513 O   0  0  0  0  0  0  0  0  0  0  0  0
  -24.8679   -9.3214   21.3719 O   0  0  0  0  0  0  0  0  0  0  0  0
  -28.4023  -26.4441   20.0581 O   0  0  0  0  0  0  0  0  0  1  0  0
  -21.4114   -5.0255   21.3304 F   0  0  0  0  0  0  0  0  0  0  0  0
  -24.8101   -7.5681   19.2352 F   0  0  0  0  0  0  0  0  0  0  0  0
  1  2  1  0  0  0  0
  1  5  2  0  0  0  0
  2  6  2  0  0  0  0
  3  8  2  0  0  0  0
  3 17  1  0  0  0  0
  4  9  1  0  0  0  0
  4 17  2  0  0  0  0
  5 20  1  0  0  0  0
  6 22  1  0  0  0  0
  7 10  2  0  0  0  0
  7 21  1  0  0  0  0
  8 27  1  0  0  0  0
  9 27  2  0  0  0  0
 10 28  1  0  0  0  0
 11 12  2  0  0  0  0
 11 29  1  0  0  0  0
 12 30  1  0  0  0  0
 13 18  1  0  0  0  0
 13 24  2  0  0  0  0
 14 23  1  0  0  0  0
 14 28  2  0  0  0  0
 15 25  1  0  0  0  0
 15 26  2  0  0  0  0
 16 30  2  0  0  0  0
 16 31  1  0  0  0  0
 17 32  1  0  0  0  0
 18 25  2  0  0  0  0
 18 34  1  0  0  0  0
 19 32  1  0  0  0  0
 19 33  2  0  0  0  0
 19 35  1  0  0  0  0
 20 22  2  0  0  0  0
 20 40  1  0  0  0  0
 21 23  2  0  0  0  0
 21 41  1  0  0  0  0
 22 52  1  0  0  0  0
 23 42  1  0  0  0  0
 24 26  1  0  0  0  0
 24 56  1  0  0  0  0
 25 57  1  0  0  0  0
 26 74  1  0  0  0  0
 27 84  1  0  0  0  0
 28 85  1  0  0  0  0
 29 31  2  0  0  0  0
 29 84  1  0  0  0  0
 30 86  1  0  0  0  0
 31 87  1  0  0  0  0
 32 67  2  0  0  0  0
 33 68  1  0  0  0  0
 33 72  1  0  0  0  0
 34 69  1  0  0  0  0
 34 78  2  0  0  0  0
 35 73  1  0  0  0  0
 35 79  2  0  0  0  0
 36 53  1  0  0  0  0
 36 75  1  0  0  0  0
 36 80  2  0  0  0  0
 37 64  1  0  0  0  0
 37 70  1  0  0  0  0
 37 81  2  0  0  0  0
 38 65  1  0  0  0  0
 38 76  1  0  0  0  0
 38 82  2  0  0  0  0
 39 71  1  0  0  0  0
 39 74  1  0  0  0  0
 39 83  2  0  0  0  0
 40 43  1  0  0  0  0
 41 53  1  0  0  0  0
 42 70  1  0  0  0  0
 43 45  1  0  0  0  0
 44 46  1  0  0  0  0
 44 48  1  0  0  0  0
 45 52  1  0  0  0  0
 46 55  1  0  0  0  0
 47 49  1  0  0  0  0
 47 54  1  0  0  0  0
 48 71  1  0  0  0  0
 49 69  1  0  0  0  0
 50 54  1  0  0  0  0
 50 69  1  0  0  0  0
 51 55  1  0  0  0  0
 51 71  1  0  0  0  0
 52 75  1  0  0  0  0
 53 70  1  0  0  0  0
 54 63  1  0  0  0  0
 55 68  1  0  0  0  0
 58 65  1  0  0  0  0
 59 66  1  0  0  0  0
 60 66  1  0  0  0  0
 61 66  1  0  0  0  0
 62 77  1  0  0  0  0
 63 85  1  0  0  0  0
 64 66  1  0  0  0  0
 64 76  1  0  0  0  0
 65 77  1  0  0  0  0
 67 68  1  0  0  0  0
M  CHG  1  77   1
M  ISO  4  39 100  63 101  74 100  85 101
M  END
> <Batch ID>
0104

> <Smiles>
CNC(C)C(=O)NC(C(=O)N1Cc2cc([101O:1][101CH2:1]C3CCN(C(=O)c4cc(C)c([100NH:0][100C:0](=O)N5CCCC(n6nc(-c7ccc(Oc8ccc(F)cc8F)cc7)c(C(N)=O)c6N)C5)cc4C)C3)ccc2CC1C(=O)NC1CCCc2ccccc21)C(C)(C)C

> <Shape>
0.234

> <Color>
0.066

> <Negative vol penalty>
0.000

$$$$

  -OEChem-04052301083D

 86 94  0     1  0  0  0  0  0999 V2000
  -30.7861  -26.1735   16.8584 C   0  0  0  0  0  0  0  0  0  0  0  0
  -29.4086  -26.0252   16.9852 C   0  0  0  0  0  0  0  0  0  0  0  0
  -23.4984  -13.4699   22.0156 C   0  0  0  0  0  0  0  0  0  0  0  0
  -25.8209  -13.1808   22.6150 C   0  0  0  0  0  0  0  0  0  0  0  0
  -31.5339  -26.6688   17.9258 C   0  0  0  0  0  0  0  0  0  0  0  0
  -28.7784  -26.3712   18.1800 C   0  0  0  0  0  0  0  0  0  0  0  0
  -23.1914  -28.7943   18.8277 C   0  0  0  0  0  0  0  0  0  0  0  0
  -23.2279  -12.1675   22.4354 C   0  0  0  0  0  0  0  0  0  0  0  0
  -25.5505  -11.8784   23.0348 C   0  0  0  0  0  0  0  0  0  0  0  0
  -21.9551  -28.2309   19.1405 C   0  0  0  0  0  0  0  0  0  0  0  0
  -22.7370  -10.5447   25.3609 C   0  0  0  0  0  0  0  0  0  0  0  0
  -21.6021  -10.3390   26.1452 C   0  0  0  0  0  0  0  0  0  0  0  0
  -21.9222  -22.2036   18.7279 C   0  0  0  0  0  0  0  0  0  0  0  0
  -22.2801  -28.8187   21.4574 C   0  0  0  0  0  0  0  0  0  0  0  0
  -22.8608  -24.3348   20.2640 C   0  0  0  0  0  0  0  0  0  0  0  0
  -20.7184   -8.8363   24.4725 C   0  0  0  0  0  0  0  0  0  0  0  0
  -24.7949  -13.9765   22.1053 C   0  0  0  0  0  0  0  0  0  0  0  0
  -23.1947  -22.7247   18.4939 C   0  0  0  0  0  0  0  0  0  0  0  0
  -25.0207  -16.4943   22.4482 C   0  0  0  0  0  0  0  0  0  0  0  0
  -30.9112  -27.0301   19.1309 C   0  0  0  0  0  0  0  0  0  0  0  0
  -23.9875  -29.3655   19.8309 C   0  0  0  0  0  0  0  0  0  0  0  0
  -29.5188  -26.8705   19.2650 C   0  0  0  0  0  0  0  0  0  0  0  0
  -23.5249  -29.3911   21.1543 C   0  0  0  0  0  0  0  0  0  0  0  0
  -23.6640  -23.7903   19.2620 C   0  0  0  0  0  0  0  0  0  0  0  0
  -24.2539  -11.3718   22.9450 C   0  0  0  0  0  0  0  0  0  0  0  0
  -21.5005  -28.2404   20.4559 C   0  0  0  0  0  0  0  0  0  0  0  0
  -22.8626   -9.8963   24.1322 C   0  0  0  0  0  0  0  0  0  0  0  0
  -21.5882  -23.8137   20.4979 C   0  0  0  0  0  0  0  0  0  0  0  0
  -20.5928   -9.4847   25.7011 C   0  0  0  0  0  0  0  0  0  0  0  0
  -21.1189  -22.7482   19.7299 C   0  0  0  0  0  0  0  0  0  0  0  0
  -21.8533   -9.0421   23.6881 C   0  0  0  0  0  0  0  0  0  0  0  0
  -25.0751  -15.3216   21.6713 C   0  0  0  0  0  0  0  0  0  0  0  0
  -25.3709  -17.4985   21.5791 C   0  0  0  0  0  0  0  0  0  0  0  0
  -24.0275  -22.1269   17.4188 C   0  0  0  0  0  0  0  0  0  0  0  0
  -24.6839  -16.6609   23.8319 C   0  0  0  0  0  0  0  0  0  0  0  0
  -26.8740  -28.7637   21.0183 C   0  0  0  0  0  0  0  0  0  0  0  0
  -26.3299  -31.4930   22.6847 C   0  0  0  0  0  0  0  0  0  0  0  0
  -24.0663  -33.6901   23.9868 C   0  0  0  0  0  0  0  0  0  0  0  0
  -25.0544  -20.0104   16.6508 C   0  0  0  0  0  0  0  0  0  0  0  0
  -31.7676  -27.5166   20.2732 C   0  0  0  0  0  0  0  0  0  0  0  0
  -25.3067  -29.9930   19.4728 C   0  0  0  0  0  0  0  0  0  0  0  0
  -24.3325  -30.0100   22.2648 C   0  0  0  0  0  0  0  0  0  0  0  0
  -30.9740  -28.2125   21.3760 C   0  0  0  0  0  0  0  0  0  0  0  0
  -27.2939  -17.2864   16.8982 C   0  0  0  0  0  0  0  0  0  0  0  0
  -29.7368  -27.3973   21.7390 C   0  0  0  0  0  0  0  0  0  0  0  0
  -26.9193  -16.6307   18.2302 C   0  0  0  0  0  0  0  0  0  0  0  0
  -26.0631  -17.8012   16.1532 C   0  0  0  0  0  0  0  0  0  0  0  0
  -24.8116  -18.0239   18.2609 C   0  0  0  0  0  0  0  0  0  0  0  0
  -28.7955  -27.2582   20.5365 C   0  0  1  0  0  0  0  0  0  0  0  0
  -26.2640  -30.0884   20.6569 C   0  0  1  0  0  0  0  0  0  0  0  0
  -26.0227  -17.5519   19.0816 C   0  0  1  0  0  0  0  0  0  0  0  0
  -26.1287  -23.4955   19.6157 C   0  0  0  0  0  0  0  0  0  0  0  0
  -23.9216  -35.8048   25.3301 C   0  0  0  0  0  0  0  0  0  0  0  0
  -26.9620  -29.9214   25.2225 C   0  0  0  0  0  0  0  0  0  0  0  0
  -25.8990  -31.7628   26.5443 C   0  0  0  0  0  0  0  0  0  0  0  0
  -27.9205  -32.2305   25.1595 C   0  0  0  0  0  0  0  0  0  0  0  0
  -22.7224  -35.1360   21.7818 C   0  0  0  0  0  0  0  0  0  0  0  0
  -25.0223  -24.3681   19.0312 C   0  0  0  0  0  0  0  0  0  0  0  0
  -19.1363  -25.9998   22.0375 C   0  0  0  0  0  0  0  0  0  0  0  0
  -20.1492  -27.1335   22.0698 C   0  0  0  0  0  0  0  0  0  1  0  0
  -19.5509  -24.8936   21.0800 C   0  0  0  0  0  0  0  0  0  0  0  0
  -25.7019  -31.8251   24.0168 C   0  0  1  0  0  0  0  0  0  0  0  0
  -23.9879  -35.2052   23.9341 C   0  0  2  0  0  0  0  0  0  0  0  0
  -26.6063  -31.4215   25.2154 C   0  0  0  0  0  0  0  0  0  0  0  0
  -25.4315  -15.5575   20.4058 N   0  0  0  0  0  0  0  0  0  0  0  0
  -25.6042  -16.8901   20.3810 N   0  0  0  0  0  0  0  0  0  0  0  0
  -25.6184  -30.6052   21.8654 N   0  0  0  0  0  0  0  0  0  0  0  0
  -25.2730  -18.6729   17.0245 N   0  0  0  0  0  0  0  0  0  0  0  0
  -25.4987  -18.8339   21.7305 N   0  0  0  0  0  0  0  0  0  0  0  0
  -24.3487  -15.5238   24.5795 N   0  0  0  0  0  0  0  0  0  0  0  0
  -24.3245  -20.7721   17.5701 N   0  0  0  0  0  0  0  0  0  0  0  0
  -28.0434  -28.4788   20.3394 N   0  0  0  0  0  0  0  0  0  0  0  0
  -25.3713  -33.2453   23.9694 N   0  0  0  0  0  0  0  0  0  0  0  0
  -22.7766  -35.6353   23.1799 N   0  3  0  0  0  0  0  0  0  0  0  0
  -24.3650  -22.8242   16.4661 O   0  0  0  0  0  0  0  0  0  0  0  0
  -24.6644  -17.7868   24.3846 O   0  0  0  0  0  0  0  0  0  0  0  0
  -26.3251  -28.0533   21.8524 O   0  0  0  0  0  0  0  0  0  0  0  0
  -27.4084  -32.0081   22.3794 O   0  0  0  0  0  0  0  0  0  0  0  0
  -23.0696  -32.9730   24.0420 O   0  0  0  0  0  0  0  0  0  0  0  0
  -25.5027  -20.4953   15.6072 O   0  0  0  0  0  0  0  0  0  0  0  0
  -23.9903  -10.1010   23.3550 O   0  0  0  0  0  0  0  0  0  0  0  0
  -20.2945  -27.6905   20.7640 O   0  0  0  0  0  0  0  0  0  1  0  0
  -20.8006  -24.3499   21.4832 O   0  0  0  0  0  0  0  0  0  0  0  0
  -19.5037   -9.2861   26.4551 F   0  0  0  0  0  0  0  0  0  0  0  0
  -19.8965  -22.2444   19.9487 F   0  0  0  0  0  0  0  0  0  0  0  0
  -21.9689   -8.4154   22.5092 F   0  0  0  0  0  0  0  0  0  0  0  0
  1  2  1  0  0  0  0
  1  5  2  0  0  0  0
  2  6  2  0  0  0  0
  3  8  2  0  0  0  0
  3 17  1  0  0  0  0
  4  9  1  0  0  0  0
  4 17  2  0  0  0  0
  5 20  1  0  0  0  0
  6 22  1  0  0  0  0
  7 10  2  0  0  0  0
  7 21  1  0  0  0  0
  8 25  1  0  0  0  0
  9 25  2  0  0  0  0
 10 26  1  0  0  0  0
 11 12  2  0  0  0  0
 11 27  1  0  0  0  0
 12 29  1  0  0  0  0
 13 18  1  0  0  0  0
 13 30  2  0  0  0  0
 14 23  1  0  0  0  0
 14 26  2  0  0  0  0
 15 24  1  0  0  0  0
 15 28  2  0  0  0  0
 16 29  2  0  0  0  0
 16 31  1  0  0  0  0
 17 32  1  0  0  0  0
 18 24  2  0  0  0  0
 18 34  1  0  0  0  0
 19 32  1  0  0  0  0
 19 33  2  0  0  0  0
 19 35  1  0  0  0  0
 20 22  2  0  0  0  0
 20 40  1  0  0  0  0
 21 23  2  0  0  0  0
 21 41  1  0  0  0  0
 22 49  1  0  0  0  0
 23 42  1  0  0  0  0
 24 58  1  0  0  0  0
 25 81  1  0  0  0  0
 26 82  1  0  0  0  0
 27 31  2  0  0  0  0
 27 81  1  0  0  0  0
 28 30  1  0  0  0  0
 28 83  1  0  0  0  0
 29 84  1  0  0  0  0
 30 85  1  0  0  0  0
 31 86  1  0  0  0  0
 32 65  2  0  0  0  0
 33 66  1  0  0  0  0
 33 69  1  0  0  0  0
 34 71  1  0  0  0  0
 34 75  2  0  0  0  0
 35 70  1  0  0  0  0
 35 76  2  0  0  0  0
 36 50  1  0  0  0  0
 36 72  1  0  0  0  0
 36 77  2  0  0  0  0
 37 62  1  0  0  0  0
 37 67  1  0  0  0  0
 37 78  2  0  0  0  0
 38 63  1  0  0  0  0
 38 73  1  0  0  0  0
 38 79  2  0  0  0  0
 39 68  1  0  0  0  0
 39 71  1  0  0  0  0
 39 80  2  0  0  0  0
 40 43  1  0  0  0  0
 41 50  1  0  0  0  0
 42 67  1  0  0  0  0
 43 45  1  0  0  0  0
 44 46  1  0  0  0  0
 44 47  1  0  0  0  0
 45 49  1  0  0  0  0
 46 51  1  0  0  0  0
 47 68  1  0  0  0  0
 48 51  1  0  0  0  0
 48 68  1  0  0  0  0
 49 72  1  0  0  0  0
 50 67  1  0  0  0  0
 51 66  1  0  0  0  0
 52 58  1  0  0  0  0
 53 63  1  0  0  0  0
 54 64  1  0  0  0  0
 55 64  1  0  0  0  0
 56 64  1  0  0  0  0
 57 74  1  0  0  0  0
 59 60  1  0  0  0  0
 59 61  1  0  0  0  0
 60 82  1  0  0  0  0
 61 83  1  0  0  0  0
 62 64  1  0  0  0  0
 62 73  1  0  0  0  0
 63 74  1  0  0  0  0
 65 66  1  0  0  0  0
M  CHG  1  74   1
M  ISO  4  39 100  60 101  71 100  82 101
M  END
> <Batch ID>
0104

> <Smiles>
CCc1cc(OCC[101CH2:1][101O:1]c2ccc3c(c2)CN(C(=O)C(NC(=O)C(C)NC)C(C)(C)C)C(C(=O)NC2CCCc4ccccc42)C3)c(F)cc1C(=O)[100NH:0][100C:0](=O)N1CCCC(n2nc(-c3ccc(Oc4ccc(F)cc4F)cc3)c(C(N)=O)c2N)C1

> <Shape>
0.218

> <Color>
0.070

> <Negative vol penalty>
0.000

$$$$

  -OEChem-04052301083D

 85 93  0     1  0  0  0  0  0999 V2000
  -26.8565  -34.8273   21.4542 C   0  0  0  0  0  0  0  0  0  0  0  0
  -27.2146  -33.4888   21.3297 C   0  0  0  0  0  0  0  0  0  0  0  0
  -22.9291  -10.0978   19.9934 C   0  0  0  0  0  0  0  0  0  0  0  0
  -24.0781   -9.4613   22.0211 C   0  0  0  0  0  0  0  0  0  0  0  0
  -25.7030  -35.1769   22.1550 C   0  0  0  0  0  0  0  0  0  0  0  0
  -26.4199  -32.4990   21.9069 C   0  0  0  0  0  0  0  0  0  0  0  0
  -25.6378  -28.5778   18.7993 C   0  0  0  0  0  0  0  0  0  0  0  0
  -31.7302  -18.2679   20.9351 C   0  0  0  0  0  0  0  0  0  0  0  0
  -31.4283  -19.5162   20.3909 C   0  0  0  0  0  0  0  0  0  0  0  0
  -22.1901   -8.9158   20.0411 C   0  0  0  0  0  0  0  0  0  0  0  0
  -23.3390   -8.2793   22.0689 C   0  0  0  0  0  0  0  0  0  0  0  0
  -26.6749  -27.6559   18.6639 C   0  0  0  0  0  0  0  0  0  0  0  0
  -20.2339   -7.3208   22.9964 C   0  0  0  0  0  0  0  0  0  0  0  0
  -19.6924   -6.9460   24.2260 C   0  0  0  0  0  0  0  0  0  0  0  0
  -25.5558  -26.1792   20.2086 C   0  0  0  0  0  0  0  0  0  0  0  0
  -29.3713  -19.5707   21.6570 C   0  0  0  0  0  0  0  0  0  0  0  0
  -20.9565   -4.8882   24.1554 C   0  0  0  0  0  0  0  0  0  0  0  0
  -23.8732  -10.3705   20.9834 C   0  0  0  0  0  0  0  0  0  0  0  0
  -24.3003  -12.8289   21.5140 C   0  0  0  0  0  0  0  0  0  0  0  0
  -24.8885  -34.1903   22.7328 C   0  0  0  0  0  0  0  0  0  0  0  0
  -24.5554  -28.3116   19.6502 C   0  0  0  0  0  0  0  0  0  0  0  0
  -25.2551  -32.8358   22.6172 C   0  0  0  0  0  0  0  0  0  0  0  0
  -24.5050  -27.0982   20.3511 C   0  0  0  0  0  0  0  0  0  0  0  0
  -30.8526  -17.6709   21.8402 C   0  0  0  0  0  0  0  0  0  0  0  0
  -30.2489  -20.1677   20.7519 C   0  0  0  0  0  0  0  0  0  0  0  0
  -22.3950   -8.0065   21.0788 C   0  0  0  0  0  0  0  0  0  0  0  0
  -26.6355  -26.4577   19.3708 C   0  0  0  0  0  0  0  0  0  0  0  0
  -21.1366   -6.4793   22.3462 C   0  0  0  0  0  0  0  0  0  0  0  0
  -29.6732  -18.3223   22.2011 C   0  0  0  0  0  0  0  0  0  0  0  0
  -20.0537   -5.7298   24.8055 C   0  0  0  0  0  0  0  0  0  0  0  0
  -21.4979   -5.2630   22.9257 C   0  0  0  0  0  0  0  0  0  0  0  0
  -24.6373  -11.5911   20.9343 C   0  0  0  0  0  0  0  0  0  0  0  0
  -25.3442  -13.6582   21.1839 C   0  0  0  0  0  0  0  0  0  0  0  0
  -23.1468  -13.1962   22.2823 C   0  0  0  0  0  0  0  0  0  0  0  0
  -23.3601  -29.6844   22.2560 C   0  0  0  0  0  0  0  0  0  0  0  0
  -28.7496  -23.4624   19.7627 C   0  0  0  0  0  0  0  0  0  0  0  0
  -21.0153  -27.4764   21.8701 C   0  0  0  0  0  0  0  0  0  0  0  0
  -20.0613  -24.4546   20.6029 C   0  0  0  0  0  0  0  0  0  0  0  0
  -30.8160  -14.6212   20.6573 C   0  0  0  0  0  0  0  0  0  0  0  0
  -23.6766  -34.6197   23.5212 C   0  0  0  0  0  0  0  0  0  0  0  0
  -23.4315  -29.3046   19.7647 C   0  0  0  0  0  0  0  0  0  0  0  0
  -23.3553  -26.7556   21.2618 C   0  0  0  0  0  0  0  0  0  0  0  0
  -22.6877  -33.4867   23.7832 C   0  0  0  0  0  0  0  0  0  0  0  0
  -29.1739  -13.0010   17.9453 C   0  0  0  0  0  0  0  0  0  0  0  0
  -23.4206  -32.2398   24.2680 C   0  0  0  0  0  0  0  0  0  0  0  0
  -27.8227  -12.5867   18.5308 C   0  0  0  0  0  0  0  0  0  0  0  0
  -30.2958  -12.8797   18.9742 C   0  0  0  0  0  0  0  0  0  0  0  0
  -28.7002  -13.1753   20.8291 C   0  0  0  0  0  0  0  0  0  0  0  0
  -24.4054  -31.7317   23.2081 C   0  0  1  0  0  0  0  0  0  0  0  0
  -22.6304  -29.1543   21.0542 C   0  0  1  0  0  0  0  0  0  0  0  0
  -27.5283  -13.3340   19.8453 C   0  0  2  0  0  0  0  0  0  0  0  0
  -18.0938  -22.9016   20.4820 C   0  0  0  0  0  0  0  0  0  0  0  0
  -21.5074  -26.6317   24.7604 C   0  0  0  0  0  0  0  0  0  0  0  0
  -20.2391  -24.5255   24.2876 C   0  0  0  0  0  0  0  0  0  0  0  0
  -19.0976  -26.7356   24.0999 C   0  0  0  0  0  0  0  0  0  0  0  0
  -19.9692  -24.6144   17.6491 C   0  0  0  0  0  0  0  0  0  0  0  0
  -27.6240  -18.4882   23.3965 C   0  0  0  0  0  0  0  0  0  0  0  0
  -31.1925  -16.3346   22.4128 C   0  0  0  0  0  0  0  0  0  0  0  0
  -28.7561  -22.1540   20.5242 C   0  0  0  0  0  0  0  0  0  0  0  0
  -27.5417  -24.3493   19.9947 C   0  0  0  0  0  0  0  0  0  1  0  0
  -20.7900  -26.0618   22.3466 C   0  0  1  0  0  0  0  0  0  0  0  0
  -18.8410  -24.0382   19.8018 C   0  0  2  0  0  0  0  0  0  0  0  0
  -20.4313  -25.9957   23.8581 C   0  0  0  0  0  0  0  0  0  0  0  0
  -25.8040  -11.6264   20.2850 N   0  0  0  0  0  0  0  0  0  0  0  0
  -26.2091  -12.8965   20.4546 N   0  0  0  0  0  0  0  0  0  0  0  0
  -22.2837  -27.7617   21.3452 N   0  0  0  0  0  0  0  0  0  0  0  0
  -29.9549  -13.6118   20.1964 N   0  0  0  0  0  0  0  0  0  0  0  0
  -25.5974  -14.9575   21.4491 N   0  0  0  0  0  0  0  0  0  0  0  0
  -22.1702  -12.2216   22.5289 N   0  0  0  0  0  0  0  0  0  0  0  0
  -29.9485  -21.4092   20.2100 N   0  0  0  0  0  0  0  0  0  0  0  0
  -23.7008  -31.0203   22.1632 N   0  0  0  0  0  0  0  0  0  0  0  0
  -19.7761  -25.4911   21.4664 N   0  0  0  0  0  0  0  0  0  0  0  0
  -30.4152  -15.2698   21.8190 N   0  0  0  0  0  0  0  0  0  0  0  0
  -19.2447  -23.5866   18.4401 N   0  3  0  0  0  0  0  0  0  0  0  0
  -22.9790  -14.3587   22.7228 O   0  0  0  0  0  0  0  0  0  0  0  0
  -23.5951  -28.9371   23.1983 O   0  0  0  0  0  0  0  0  0  0  0  0
  -29.6585  -23.7945   19.0028 O   0  0  0  0  0  0  0  0  0  0  0  0
  -20.0973  -28.2961   21.9536 O   0  0  0  0  0  0  0  0  0  0  0  0
  -21.1570  -23.9120   20.4782 O   0  0  0  0  0  0  0  0  0  0  0  0
  -31.8617  -14.9259   20.0737 O   0  0  0  0  0  0  0  0  0  0  0  0
  -21.6739   -6.8531   21.1258 O   0  0  0  0  0  0  0  0  0  0  0  0
  -28.8052  -17.7529   23.0837 O   0  0  0  0  0  0  0  0  0  0  0  0
  -27.6468  -25.5564   19.2410 O   0  0  0  0  0  0  0  0  0  1  0  0
  -19.5349   -5.3707   25.9870 F   0  0  0  0  0  0  0  0  0  0  0  0
  -22.3655   -4.4509   22.3064 F   0  0  0  0  0  0  0  0  0  0  0  0
  1  2  1  0  0  0  0
  1  5  2  0  0  0  0
  2  6  2  0  0  0  0
  3 10  2  0  0  0  0
  3 18  1  0  0  0  0
  4 11  1  0  0  0  0
  4 18  2  0  0  0  0
  5 20  1  0  0  0  0
  6 22  1  0  0  0  0
  7 12  2  0  0  0  0
  7 21  1  0  0  0  0
  8  9  2  0  0  0  0
  8 24  1  0  0  0  0
  9 25  1  0  0  0  0
 10 26  1  0  0  0  0
 11 26  2  0  0  0  0
 12 27  1  0  0  0  0
 13 14  2  0  0  0  0
 13 28  1  0  0  0  0
 14 30  1  0  0  0  0
 15 23  1  0  0  0  0
 15 27  2  0  0  0  0
 16 25  2  0  0  0  0
 16 29  1  0  0  0  0
 17 30  2  0  0  0  0
 17 31  1  0  0  0  0
 18 32  1  0  0  0  0
 19 32  1  0  0  0  0
 19 33  2  0  0  0  0
 19 34  1  0  0  0  0
 20 22  2  0  0  0  0
 20 40  1  0  0  0  0
 21 23  2  0  0  0  0
 21 41  1  0  0  0  0
 22 49  1  0  0  0  0
 23 42  1  0  0  0  0
 24 29  2  0  0  0  0
 24 58  1  0  0  0  0
 25 70  1  0  0  0  0
 26 81  1  0  0  0  0
 27 83  1  0  0  0  0
 28 31  2  0  0  0  0
 28 81  1  0  0  0  0
 29 82  1  0  0  0  0
 30 84  1  0  0  0  0
 31 85  1  0  0  0  0
 32 64  2  0  0  0  0
 33 65  1  0  0  0  0
 33 68  1  0  0  0  0
 34 69  1  0  0  0  0
 34 75  2  0  0  0  0
 35 50  1  0  0  0  0
 35 71  1  0  0  0  0
 35 76  2  0  0  0  0
 36 59  1  0  0  0  0
 36 60  1  0  0  0  0
 36 77  2  0  0  0  0
 37 61  1  0  0  0  0
 37 66  1  0  0  0  0
 37 78  2  0  0  0  0
 38 62  1  0  0  0  0
 38 72  1  0  0  0  0
 38 79  2  0  0  0  0
 39 67  1  0  0  0  0
 39 73  1  0  0  0  0
 39 80  2  0  0  0  0
 40 43  1  0  0  0  0
 41 50  1  0  0  0  0
 42 66  1  0  0  0  0
 43 45  1  0  0  0  0
 44 46  1  0  0  0  0
 44 47  1  0  0  0  0
 45 49  1  0  0  0  0
 46 51  1  0  0  0  0
 47 67  1  0  0  0  0
 48 51  1  0  0  0  0
 48 67  1  0  0  0  0
 49 71  1  0  0  0  0
 50 66  1  0  0  0  0
 51 65  1  0  0  0  0
 52 62  1  0  0  0  0
 53 63  1  0  0  0  0
 54 63  1  0  0  0  0
 55 63  1  0  0  0  0
 56 74  1  0  0  0  0
 57 82  1  0  0  0  0
 58 73  1  0  0  0  0
 59 70  1  0  0  0  0
 60 83  1  0  0  0  0
 61 63  1  0  0  0  0
 61 72  1  0  0  0  0
 62 74  1  0  0  0  0
 64 65  1  0  0  0  0
M  CHG  1  74   1
M  ISO  4  39 100  60 101  73 100  83 101
M  END
> <Batch ID>
0104

> <Smiles>
CNC(C)C(=O)NC(C(=O)N1Cc2cc([101O:1][101CH2:1]C(=O)CNc3ccc(C[100NH:0][100C:0](=O)N4CCCC(n5nc(-c6ccc(Oc7ccc(F)cc7F)cc6)c(C(N)=O)c5N)C4)c(OC)c3)ccc2CC1C(=O)NC1CCCc2ccccc21)C(C)(C)C

> <Shape>
0.367

> <Color>
0.174

> <Negative vol penalty>
0.000

$$$$

  -OEChem-04052301083D

 82 90  0     1  0  0  0  0  0999 V2000
  -28.5878  -23.0768   18.3377 C   0  0  0  0  0  0  0  0  0  0  0  0
  -27.3949  -23.3445   19.0016 C   0  0  0  0  0  0  0  0  0  0  0  0
  -26.1043  -15.2187   22.6495 C   0  0  0  0  0  0  0  0  0  0  0  0
  -24.1245  -15.2104   21.2649 C   0  0  0  0  0  0  0  0  0  0  0  0
  -29.7536  -23.7486   18.7033 C   0  0  0  0  0  0  0  0  0  0  0  0
  -27.3673  -24.2835   20.0321 C   0  0  0  0  0  0  0  0  0  0  0  0
  -23.3977  -27.4109   19.7050 C   0  0  0  0  0  0  0  0  0  0  0  0
  -26.5577  -14.0661   22.0082 C   0  0  0  0  0  0  0  0  0  0  0  0
  -24.5779  -14.0578   20.6235 C   0  0  0  0  0  0  0  0  0  0  0  0
  -22.1637  -26.9199   20.1291 C   0  0  0  0  0  0  0  0  0  0  0  0
  -28.0586  -13.2686   19.0851 C   0  0  0  0  0  0  0  0  0  0  0  0
  -29.3967  -13.2286   18.6933 C   0  0  0  0  0  0  0  0  0  0  0  0
  -22.4319  -28.0765   22.2290 C   0  0  0  0  0  0  0  0  0  0  0  0
  -19.1954  -23.0020   26.9351 C   0  0  0  0  0  0  0  0  0  0  0  0
  -29.7489  -11.2918   20.0939 C   0  0  0  0  0  0  0  0  0  0  0  0
  -24.8876  -15.7909   22.2780 C   0  0  0  0  0  0  0  0  0  0  0  0
  -19.2891  -24.6085   24.6562 C   0  0  0  0  0  0  0  0  0  0  0  0
  -24.6713  -18.3158   22.5706 C   0  0  0  0  0  0  0  0  0  0  0  0
  -29.7383  -24.7033   19.7323 C   0  0  0  0  0  0  0  0  0  0  0  0
  -24.1644  -28.2309   20.5454 C   0  0  0  0  0  0  0  0  0  0  0  0
  -28.5342  -24.9677   20.4126 C   0  0  0  0  0  0  0  0  0  0  0  0
  -23.6741  -28.5787   21.8122 C   0  0  0  0  0  0  0  0  0  0  0  0
  -19.0930  -25.1874   25.9101 C   0  0  0  0  0  0  0  0  0  0  0  0
  -19.4384  -23.2264   24.5418 C   0  0  0  0  0  0  0  0  0  0  0  0
  -19.0462  -24.3841   27.0495 C   0  0  0  0  0  0  0  0  0  0  0  0
  -19.3916  -22.4231   25.6812 C   0  0  0  0  0  0  0  0  0  0  0  0
  -25.7945  -13.4856   20.9951 C   0  0  0  0  0  0  0  0  0  0  0  0
  -21.6819  -27.2503   21.3923 C   0  0  0  0  0  0  0  0  0  0  0  0
  -27.5656  -12.3203   19.9814 C   0  0  0  0  0  0  0  0  0  0  0  0
  -30.2418  -12.2402   19.1977 C   0  0  0  0  0  0  0  0  0  0  0  0
  -28.4108  -11.3319   20.4858 C   0  0  0  0  0  0  0  0  0  0  0  0
  -24.4184  -16.9813   22.9405 C   0  0  0  0  0  0  0  0  0  0  0  0
  -24.0086  -19.0646   23.5122 C   0  0  0  0  0  0  0  0  0  0  0  0
  -19.3385  -25.4567   23.4534 C   0  0  0  0  0  0  0  0  0  0  0  0
  -20.4487  -25.9929   22.9314 C   0  0  0  0  0  0  0  0  0  1  0  0
  -25.4367  -18.8324   21.4739 C   0  0  0  0  0  0  0  0  0  0  0  0
  -27.0342  -28.0027   21.8929 C   0  0  0  0  0  0  0  0  0  0  0  0
  -26.4154  -31.0517   22.8111 C   0  0  0  0  0  0  0  0  0  0  0  0
  -24.0930  -33.4606   23.4823 C   0  0  0  0  0  0  0  0  0  0  0  0
  -19.5158  -20.0951   26.6357 C   0  0  0  0  0  0  0  0  0  0  0  0
  -31.0334  -25.3695   20.1238 C   0  0  0  0  0  0  0  0  0  0  0  0
  -25.4813  -28.7742   20.0628 C   0  0  0  0  0  0  0  0  0  0  0  0
  -24.4493  -29.4721   22.7447 C   0  0  0  0  0  0  0  0  0  0  0  0
  -30.8411  -26.6220   20.9751 C   0  0  0  0  0  0  0  0  0  0  0  0
  -21.8380  -17.6979   27.8760 C   0  0  0  0  0  0  0  0  0  0  0  0
  -29.8348  -26.3597   22.0910 C   0  0  0  0  0  0  0  0  0  0  0  0
  -22.7371  -17.4075   26.6721 C   0  0  0  0  0  0  0  0  0  0  0  0
  -20.3849  -17.9174   27.4587 C   0  0  0  0  0  0  0  0  0  0  0  0
  -21.0843  -18.6387   25.2094 C   0  0  0  0  0  0  0  0  0  0  0  0
  -28.4588  -25.9974   21.5191 C   0  0  1  0  0  0  0  0  0  0  0  0
  -26.4123  -29.1823   21.2004 C   0  0  1  0  0  0  0  0  0  0  0  0
  -22.5692  -18.4748   25.5729 C   0  0  2  0  0  0  0  0  0  0  0  0
  -18.9311  -26.6710   26.0461 C   0  0  0  0  0  0  0  0  0  0  0  0
  -19.6506  -22.5935   23.1999 C   0  0  0  0  0  0  0  0  0  0  0  0
  -23.8893  -35.8415   24.2487 C   0  0  0  0  0  0  0  0  0  0  0  0
  -27.0180  -30.1798   25.6723 C   0  0  0  0  0  0  0  0  0  0  0  0
  -25.9006  -32.2729   26.4715 C   0  0  0  0  0  0  0  0  0  0  0  0
  -27.9432  -32.4174   25.0469 C   0  0  0  0  0  0  0  0  0  0  0  0
  -22.7739  -34.2805   20.9630 C   0  0  0  0  0  0  0  0  0  0  0  0
  -25.7551  -31.6951   24.0065 C   0  0  1  0  0  0  0  0  0  0  0  0
  -23.9933  -34.9122   23.0494 C   0  0  2  0  0  0  0  0  0  0  0  0
  -26.6403  -31.6229   25.2828 C   0  0  0  0  0  0  0  0  0  0  0  0
  -23.6548  -16.8846   24.0321 N   0  0  0  0  0  0  0  0  0  0  0  0
  -23.4222  -18.1679   24.3563 N   0  0  0  0  0  0  0  0  0  0  0  0
  -25.7343  -29.9730   22.2296 N   0  0  0  0  0  0  0  0  0  0  0  0
  -20.3030  -18.9445   26.4180 N   0  0  0  0  0  0  0  0  0  0  0  0
  -18.8486  -24.9504   28.3285 N   0  0  0  0  0  0  0  0  0  0  0  0
  -23.8762  -20.3959   23.6924 N   0  0  0  0  0  0  0  0  0  0  0  0
  -26.0515  -17.9239   20.6015 N   0  0  0  0  0  0  0  0  0  0  0  0
  -19.5407  -21.0170   25.5897 N   0  0  0  0  0  0  0  0  0  0  0  0
  -27.7738  -27.1863   21.0588 N   0  0  0  0  0  0  0  0  0  0  0  0
  -25.4045  -33.0512   23.5985 N   0  0  0  0  0  0  0  0  0  0  0  0
  -22.7917  -35.1155   22.1916 N   0  3  0  0  0  0  0  0  0  0  0  0
  -25.5851  -20.0633   21.2829 O   0  0  0  0  0  0  0  0  0  0  0  0
  -26.8574  -27.8459   23.0954 O   0  0  0  0  0  0  0  0  0  0  0  0
  -27.4923  -31.4947   22.4038 O   0  0  0  0  0  0  0  0  0  0  0  0
  -23.1061  -32.7610   23.6996 O   0  0  0  0  0  0  0  0  0  0  0  0
  -18.8891  -20.2636   27.6849 O   0  0  0  0  0  0  0  0  0  0  0  0
  -26.2368  -12.3610   20.3689 O   0  0  0  0  0  0  0  0  0  0  0  0
  -20.4780  -26.7719   21.8089 O   0  0  0  0  0  0  0  0  0  1  0  0
  -31.5264  -12.2009   18.8201 F   0  0  0  0  0  0  0  0  0  0  0  0
  -27.9426  -10.4174   21.3463 F   0  0  0  0  0  0  0  0  0  0  0  0
  1  2  1  0  0  0  0
  1  5  2  0  0  0  0
  2  6  2  0  0  0  0
  3  8  2  0  0  0  0
  3 16  1  0  0  0  0
  4  9  1  0  0  0  0
  4 16  2  0  0  0  0
  5 19  1  0  0  0  0
  6 21  1  0  0  0  0
  7 10  2  0  0  0  0
  7 20  1  0  0  0  0
  8 27  1  0  0  0  0
  9 27  2  0  0  0  0
 10 28  1  0  0  0  0
 11 12  2  0  0  0  0
 11 29  1  0  0  0  0
 12 30  1  0  0  0  0
 13 22  1  0  0  0  0
 13 28  2  0  0  0  0
 14 25  1  0  0  0  0
 14 26  2  0  0  0  0
 15 30  2  0  0  0  0
 15 31  1  0  0  0  0
 16 32  1  0  0  0  0
 17 23  1  0  0  0  0
 17 24  2  0  0  0  0
 17 34  1  0  0  0  0
 18 32  1  0  0  0  0
 18 33  2  0  0  0  0
 18 36  1  0  0  0  0
 19 21  2  0  0  0  0
 19 41  1  0  0  0  0
 20 22  2  0  0  0  0
 20 42  1  0  0  0  0
 21 50  1  0  0  0  0
 22 43  1  0  0  0  0
 23 25  2  0  0  0  0
 23 53  1  0  0  0  0
 24 26  1  0  0  0  0
 24 54  1  0  0  0  0
 25 67  1  0  0  0  0
 26 70  1  0  0  0  0
 27 79  1  0  0  0  0
 28 80  1  0  0  0  0
 29 31  2  0  0  0  0
 29 79  1  0  0  0  0
 30 81  1  0  0  0  0
 31 82  1  0  0  0  0
 32 63  2  0  0  0  0
 33 64  1  0  0  0  0
 33 68  1  0  0  0  0
 34 35  2  0  0  0  0
 35 80  1  0  0  0  0
 36 69  1  0  0  0  0
 36 74  2  0  0  0  0
 37 51  1  0  0  0  0
 37 71  1  0  0  0  0
 37 75  2  0  0  0  0
 38 60  1  0  0  0  0
 38 65  1  0  0  0  0
 38 76  2  0  0  0  0
 39 61  1  0  0  0  0
 39 72  1  0  0  0  0
 39 77  2  0  0  0  0
 40 66  1  0  0  0  0
 40 70  1  0  0  0  0
 40 78  2  0  0  0  0
 41 44  1  0  0  0  0
 42 51  1  0  0  0  0
 43 65  1  0  0  0  0
 44 46  1  0  0  0  0
 45 47  1  0  0  0  0
 45 48  1  0  0  0  0
 46 50  1  0  0  0  0
 47 52  1  0  0  0  0
 48 66  1  0  0  0  0
 49 52  1  0  0  0  0
 49 66  1  0  0  0  0
 50 71  1  0  0  0  0
 51 65  1  0  0  0  0
 52 64  1  0  0  0  0
 55 61  1  0  0  0  0
 56 62  1  0  0  0  0
 57 62  1  0  0  0  0
 58 62  1  0  0  0  0
 59 73  1  0  0  0  0
 60 62  1  0  0  0  0
 60 72  1  0  0  0  0
 61 73  1  0  0  0  0
 63 64  1  0  0  0  0
M  CHG  1  73   1
M  ISO  4  35 101  40 100  70 100  80 101
M  END
> <Batch ID>
0104

> <Smiles>
CNC(C)C(=O)NC(C(=O)N1Cc2cc([101O:1][101CH:1]=Cc3c(C)c(N)cc([100NH:0][100C:0](=O)N4CCCC(n5nc(-c6ccc(Oc7ccc(F)cc7F)cc6)c(C(N)=O)c5N)C4)c3C)ccc2CC1C(=O)NC1CCCc2ccccc21)C(C)(C)C

> <Shape>
0.230

> <Color>
0.063

> <Negative vol penalty>
0.000

$$$$

  -OEChem-04052301083D

 88 97  0     1  0  0  0  0  0999 V2000
  -29.1426  -32.8562   25.5935 C   0  0  0  0  0  0  0  0  0  0  0  0
  -29.5101  -31.6170   25.0790 C   0  0  0  0  0  0  0  0  0  0  0  0
  -22.8845  -16.9735   25.0709 C   0  0  0  0  0  0  0  0  0  0  0  0
  -24.7324  -15.8563   26.1545 C   0  0  0  0  0  0  0  0  0  0  0  0
  -27.7961  -33.2124   25.6557 C   0  0  0  0  0  0  0  0  0  0  0  0
  -28.5310  -30.7328   24.6273 C   0  0  0  0  0  0  0  0  0  0  0  0
  -28.9799  -26.8302   19.9290 C   0  0  0  0  0  0  0  0  0  0  0  0
  -30.0852  -17.2414   21.1754 C   0  0  0  0  0  0  0  0  0  0  0  0
  -22.5004  -17.5240   26.2936 C   0  0  0  0  0  0  0  0  0  0  0  0
  -24.3483  -16.4068   27.3772 C   0  0  0  0  0  0  0  0  0  0  0  0
  -29.2622  -25.4663   19.8662 C   0  0  0  0  0  0  0  0  0  0  0  0
  -29.6759  -18.5714   21.0799 C   0  0  0  0  0  0  0  0  0  0  0  0
  -22.0149  -15.8173   29.7518 C   0  0  0  0  0  0  0  0  0  0  0  0
  -21.9942  -14.9753   30.8636 C   0  0  0  0  0  0  0  0  0  0  0  0
  -26.8990  -24.9862   19.8031 C   0  0  0  0  0  0  0  0  0  0  0  0
  -29.9880  -18.4955   18.6853 C   0  0  0  0  0  0  0  0  0  0  0  0
  -23.6216  -16.3842   31.9608 C   0  0  0  0  0  0  0  0  0  0  0  0
  -24.0005  -16.1396   25.0014 C   0  0  0  0  0  0  0  0  0  0  0  0
  -24.7684  -16.2649   22.5719 C   0  0  0  0  0  0  0  0  0  0  0  0
  -26.8007  -32.3360   25.1956 C   0  0  0  0  0  0  0  0  0  0  0  0
  -27.6526  -27.2825   19.9403 C   0  0  0  0  0  0  0  0  0  0  0  0
  -27.1698  -31.0771   24.6846 C   0  0  0  0  0  0  0  0  0  0  0  0
  -30.4460  -16.5385   20.0259 C   0  0  0  0  0  0  0  0  0  0  0  0
  -26.6026  -26.3565   19.8635 C   0  0  0  0  0  0  0  0  0  0  0  0
  -30.3974  -17.1655   18.7809 C   0  0  0  0  0  0  0  0  0  0  0  0
  -23.2323  -17.2407   27.4467 C   0  0  0  0  0  0  0  0  0  0  0  0
  -28.2216  -24.5440   19.8062 C   0  0  0  0  0  0  0  0  0  0  0  0
  -29.6273  -19.1985   19.8349 C   0  0  0  0  0  0  0  0  0  0  0  0
  -22.8390  -16.9427   29.7443 C   0  0  0  0  0  0  0  0  0  0  0  0
  -22.7975  -15.2588   31.9682 C   0  0  0  0  0  0  0  0  0  0  0  0
  -23.6424  -17.2261   30.8488 C   0  0  0  0  0  0  0  0  0  0  0  0
  -24.3974  -15.5701   23.7387 C   0  0  0  0  0  0  0  0  0  0  0  0
  -25.0531  -15.2777   21.6604 C   0  0  0  0  0  0  0  0  0  0  0  0
  -24.8485  -17.6764   22.3334 C   0  0  0  0  0  0  0  0  0  0  0  0
  -25.8554  -28.9115   21.9947 C   0  0  0  0  0  0  0  0  0  0  0  0
  -27.5224  -10.4093   20.4392 C   0  0  0  0  0  0  0  0  0  0  0  0
  -29.6876  -11.6158   20.7149 C   0  0  0  0  0  0  0  0  0  0  0  0
  -23.6990  -28.8290   19.5729 C   0  0  0  0  0  0  0  0  0  0  0  0
  -22.5766  -27.2841   16.7444 C   0  0  0  0  0  0  0  0  0  0  0  0
  -25.3552  -32.7461   25.3269 C   0  0  0  0  0  0  0  0  0  0  0  0
  -27.3652  -28.7584   19.9815 C   0  0  0  0  0  0  0  0  0  0  0  0
  -25.1607  -26.7916   19.8523 C   0  0  0  0  0  0  0  0  0  0  0  0
  -24.4038  -31.9033   24.4814 C   0  0  0  0  0  0  0  0  0  0  0  0
  -24.2161  -10.2994   21.8163 C   0  0  0  0  0  0  0  0  0  0  0  0
  -24.7180  -30.4194   24.6432 C   0  0  0  0  0  0  0  0  0  0  0  0
  -24.0109  -11.7088   22.3701 C   0  0  0  0  0  0  0  0  0  0  0  0
  -31.5455  -14.6930   21.4859 C   0  0  0  0  0  0  0  0  0  0  0  0
  -25.6642   -9.8446   21.9697 C   0  0  0  0  0  0  0  0  0  0  0  0
  -31.4623  -13.1749   21.4771 C   0  0  0  0  0  0  0  0  0  0  0  0
  -29.7518  -14.0657   20.0460 C   0  0  0  0  0  0  0  0  0  0  0  0
  -26.4581  -12.1874   21.9147 C   0  0  0  0  0  0  0  0  0  0  0  0
  -30.8866  -15.0967   20.1550 C   0  0  1  0  0  0  0  0  0  0  0  0
  -26.1386  -30.1006   24.1619 C   0  0  1  0  0  0  0  0  0  0  0  0
  -25.9695  -29.0809   20.5061 C   0  0  1  0  0  0  0  0  0  0  0  0
  -25.0153  -12.6974   21.7517 C   0  0  2  0  0  0  0  0  0  0  0  0
  -30.7801  -16.4333   17.5368 C   0  0  0  0  0  0  0  0  0  0  0  0
  -20.7712  -27.4249   15.0071 C   0  0  0  0  0  0  0  0  0  0  0  0
  -21.6983  -27.6650   21.5610 C   0  0  0  0  0  0  0  0  0  0  0  0
  -20.2864  -26.9563   19.6187 C   0  0  0  0  0  0  0  0  0  0  0  0
  -20.7476  -29.3771   20.0055 C   0  0  0  0  0  0  0  0  0  0  0  0
  -24.5421  -27.6760   14.5668 C   0  0  0  0  0  0  0  0  0  0  0  0
  -28.4370  -11.4725   19.8849 C   0  0  0  0  0  0  0  0  0  0  0  0
  -29.6932  -22.7652   20.3774 C   0  0  0  0  0  0  0  0  0  1  0  0
  -29.4975  -21.3407   20.8594 C   0  0  0  0  0  0  0  0  0  0  0  0
  -22.6001  -27.8834   19.1516 C   0  0  1  0  0  0  0  0  0  0  0  0
  -22.1869  -27.8330   15.3838 C   0  0  2  0  0  0  0  0  0  0  0  0
  -21.3601  -27.9618   20.0863 C   0  0  0  0  0  0  0  0  0  0  0  0
  -24.4414  -14.2440   23.5852 N   0  0  0  0  0  0  0  0  0  0  0  0
  -24.8432  -14.0976   22.3112 N   0  0  0  0  0  0  0  0  0  0  0  0
  -24.9309  -28.2450   19.9004 N   0  0  0  0  0  0  0  0  0  0  0  0
  -26.5880  -10.8210   21.3897 N   0  0  0  0  0  0  0  0  0  0  0  0
  -30.2526  -12.8785   20.7304 N   0  0  0  0  0  0  0  0  0  0  0  0
  -25.4600  -15.3127   20.3737 N   0  0  0  0  0  0  0  0  0  0  0  0
  -26.0606  -18.3302   22.5933 N   0  0  0  0  0  0  0  0  0  0  0  0
  -26.1817  -30.0438   22.7164 N   0  0  0  0  0  0  0  0  0  0  0  0
  -22.3145  -28.1866   17.7534 N   0  0  0  0  0  0  0  0  0  0  0  0
  -23.1169  -27.3265   14.3352 N   0  3  0  0  0  0  0  0  0  0  0  0
  -23.8692  -18.3412   21.9180 O   0  0  0  0  0  0  0  0  0  0  0  0
  -25.4965  -27.8338   22.4544 O   0  0  0  0  0  0  0  0  0  0  0  0
  -27.6347   -9.2487   20.0361 O   0  0  0  0  0  0  0  0  0  0  0  0
  -30.1488  -10.6467   21.3201 O   0  0  0  0  0  0  0  0  0  0  0  0
  -23.4748  -30.0416   19.6031 O   0  0  0  0  0  0  0  0  0  0  0  0
  -23.0612  -26.1650   16.8973 O   0  0  0  0  0  0  0  0  0  0  0  0
  -22.8579  -17.7780   28.6400 O   0  0  0  0  0  0  0  0  0  0  0  0
  -28.4944  -23.2121   19.7455 O   0  0  0  0  0  0  0  0  0  1  0  0
  -29.2257  -20.5050   19.7410 O   0  0  0  0  0  0  0  0  0  0  0  0
  -22.7764  -14.4511   33.0365 F   0  0  0  0  0  0  0  0  0  0  0  0
  -24.4352  -18.3065   30.8480 F   0  0  0  0  0  0  0  0  0  0  0  0
  1  2  1  0  0  0  0
  1  5  2  0  0  0  0
  2  6  2  0  0  0  0
  3  9  2  0  0  0  0
  3 18  1  0  0  0  0
  4 10  1  0  0  0  0
  4 18  2  0  0  0  0
  5 20  1  0  0  0  0
  6 22  1  0  0  0  0
  7 11  2  0  0  0  0
  7 21  1  0  0  0  0
  8 12  2  0  0  0  0
  8 23  1  0  0  0  0
  9 26  1  0  0  0  0
 10 26  2  0  0  0  0
 11 27  1  0  0  0  0
 12 28  1  0  0  0  0
 13 14  2  0  0  0  0
 13 29  1  0  0  0  0
 14 30  1  0  0  0  0
 15 24  1  0  0  0  0
 15 27  2  0  0  0  0
 16 25  1  0  0  0  0
 16 28  2  0  0  0  0
 17 30  2  0  0  0  0
 17 31  1  0  0  0  0
 18 32  1  0  0  0  0
 19 32  1  0  0  0  0
 19 33  2  0  0  0  0
 19 34  1  0  0  0  0
 20 22  2  0  0  0  0
 20 40  1  0  0  0  0
 21 24  2  0  0  0  0
 21 41  1  0  0  0  0
 22 53  1  0  0  0  0
 23 25  2  0  0  0  0
 23 52  1  0  0  0  0
 24 42  1  0  0  0  0
 25 56  1  0  0  0  0
 26 84  1  0  0  0  0
 27 85  1  0  0  0  0
 28 86  1  0  0  0  0
 29 31  2  0  0  0  0
 29 84  1  0  0  0  0
 30 87  1  0  0  0  0
 31 88  1  0  0  0  0
 32 68  2  0  0  0  0
 33 69  1  0  0  0  0
 33 73  1  0  0  0  0
 34 74  1  0  0  0  0
 34 78  2  0  0  0  0
 35 54  1  0  0  0  0
 35 75  1  0  0  0  0
 35 79  2  0  0  0  0
 36 62  1  0  0  0  0
 36 71  1  0  0  0  0
 36 80  2  0  0  0  0
 37 62  1  0  0  0  0
 37 72  1  0  0  0  0
 37 81  2  0  0  0  0
 38 65  1  0  0  0  0
 38 70  1  0  0  0  0
 38 82  2  0  0  0  0
 39 66  1  0  0  0  0
 39 76  1  0  0  0  0
 39 83  2  0  0  0  0
 40 43  1  0  0  0  0
 41 54  1  0  0  0  0
 42 70  1  0  0  0  0
 43 45  1  0  0  0  0
 44 46  1  0  0  0  0
 44 48  1  0  0  0  0
 45 53  1  0  0  0  0
 46 55  1  0  0  0  0
 47 49  1  0  0  0  0
 47 52  1  0  0  0  0
 48 71  1  0  0  0  0
 49 72  1  0  0  0  0
 50 52  1  0  0  0  0
 50 72  1  0  0  0  0
 51 55  1  0  0  0  0
 51 71  1  0  0  0  0
 53 75  1  0  0  0  0
 54 70  1  0  0  0  0
 55 69  1  0  0  0  0
 57 66  1  0  0  0  0
 58 67  1  0  0  0  0
 59 67  1  0  0  0  0
 60 67  1  0  0  0  0
 61 77  1  0  0  0  0
 63 64  1  0  0  0  0
 63 85  1  0  0  0  0
 64 86  1  0  0  0  0
 65 67  1  0  0  0  0
 65 76  1  0  0  0  0
 66 77  1  0  0  0  0
 68 69  1  0  0  0  0
M  CHG  1  77   1
M  ISO  4  36 100  62 100  63 101  85 101
M  END
> <Batch ID>
0104

> <Smiles>
CNC(C)C(=O)NC(C(=O)N1Cc2cc([101O:1][101CH2:1]COc3ccc(C4CCN(C(=O)[100CH2:0][100C:0](=O)N5CCCC(n6nc(-c7ccc(Oc8ccc(F)cc8F)cc7)c(C(N)=O)c6N)C5)C4)c(C)c3)ccc2CC1C(=O)NC1CCCc2ccccc21)C(C)(C)C

> <Shape>
0.246

> <Color>
0.076

> <Negative vol penalty>
0.000

$$$$

  -OEChem-04052301083D

 84 92  0     1  0  0  0  0  0999 V2000
  -38.2418  -29.8961   17.7166 C   0  0  0  0  0  0  0  0  0  0  0  0
  -37.2423  -28.9721   18.0042 C   0  0  0  0  0  0  0  0  0  0  0  0
  -23.7913   -9.6680   19.9976 C   0  0  0  0  0  0  0  0  0  0  0  0
  -23.0986  -10.1595   22.2594 C   0  0  0  0  0  0  0  0  0  0  0  0
  -38.4853  -30.9531   18.5926 C   0  0  0  0  0  0  0  0  0  0  0  0
  -36.4864  -29.1040   19.1685 C   0  0  0  0  0  0  0  0  0  0  0  0
  -31.5355  -28.4116   18.3598 C   0  0  0  0  0  0  0  0  0  0  0  0
  -31.4221  -16.3958   15.8914 C   0  0  0  0  0  0  0  0  0  0  0  0
  -23.0728   -8.4731   20.0372 C   0  0  0  0  0  0  0  0  0  0  0  0
  -22.3801   -8.9646   22.2990 C   0  0  0  0  0  0  0  0  0  0  0  0
  -31.0896  -27.0973   18.2278 C   0  0  0  0  0  0  0  0  0  0  0  0
  -31.8385  -17.7217   16.0101 C   0  0  0  0  0  0  0  0  0  0  0  0
  -23.0356   -5.6767   22.7366 C   0  0  0  0  0  0  0  0  0  0  0  0
  -23.1583   -4.8843   23.8779 C   0  0  0  0  0  0  0  0  0  0  0  0
  -30.3340  -27.1301   20.5185 C   0  0  0  0  0  0  0  0  0  0  0  0
  -31.1258  -17.7389   18.3186 C   0  0  0  0  0  0  0  0  0  0  0  0
  -20.7817   -5.0776   24.2674 C   0  0  0  0  0  0  0  0  0  0  0  0
  -23.8042  -10.5112   21.1088 C   0  0  0  0  0  0  0  0  0  0  0  0
  -24.0786  -13.0059   20.6516 C   0  0  0  0  0  0  0  0  0  0  0  0
  -37.7257  -31.1035   19.7634 C   0  0  0  0  0  0  0  0  0  0  0  0
  -31.3936  -29.0925   19.5774 C   0  0  0  0  0  0  0  0  0  0  0  0
  -36.7210  -30.1632   20.0617 C   0  0  0  0  0  0  0  0  0  0  0  0
  -30.7766  -28.4539   20.6625 C   0  0  0  0  0  0  0  0  0  0  0  0
  -30.8575  -15.7413   16.9863 C   0  0  0  0  0  0  0  0  0  0  0  0
  -30.7094  -16.4129   18.1999 C   0  0  0  0  0  0  0  0  0  0  0  0
  -22.3672   -8.1214   21.1879 C   0  0  0  0  0  0  0  0  0  0  0  0
  -30.4914  -26.4553   19.3081 C   0  0  0  0  0  0  0  0  0  0  0  0
  -31.6904  -18.3933   17.2237 C   0  0  0  0  0  0  0  0  0  0  0  0
  -21.7861   -6.1696   22.3607 C   0  0  0  0  0  0  0  0  0  0  0  0
  -22.0313   -4.5847   24.6433 C   0  0  0  0  0  0  0  0  0  0  0  0
  -20.6591   -5.8700   23.1261 C   0  0  0  0  0  0  0  0  0  0  0  0
  -24.5467  -11.7454   21.0687 C   0  0  0  0  0  0  0  0  0  0  0  0
  -25.1591  -13.8404   20.8021 C   0  0  0  0  0  0  0  0  0  0  0  0
  -22.7829  -13.3882   20.1713 C   0  0  0  0  0  0  0  0  0  0  0  0
  -33.4053  -30.3736   21.6788 C   0  0  0  0  0  0  0  0  0  0  0  0
  -30.6697  -31.4238   23.0701 C   0  0  0  0  0  0  0  0  0  0  0  0
  -27.3120  -31.0198   23.5280 C   0  0  0  0  0  0  0  0  0  0  0  0
  -30.7098  -14.5911   19.8958 C   0  0  0  0  0  0  0  0  0  0  0  0
  -38.0573  -32.2352   20.7036 C   0  0  0  0  0  0  0  0  0  0  0  0
  -31.8557  -30.5191   19.6955 C   0  0  0  0  0  0  0  0  0  0  0  0
  -30.5822  -29.1477   21.9851 C   0  0  0  0  0  0  0  0  0  0  0  0
  -36.9614  -32.5168   21.7283 C   0  0  0  0  0  0  0  0  0  0  0  0
  -29.6008  -13.1235   23.0937 C   0  0  0  0  0  0  0  0  0  0  0  0
  -36.4729  -31.2164   22.3584 C   0  0  0  0  0  0  0  0  0  0  0  0
  -28.1708  -12.6813   22.7876 C   0  0  0  0  0  0  0  0  0  0  0  0
  -30.4842  -13.0857   21.8502 C   0  0  0  0  0  0  0  0  0  0  0  0
  -28.5089  -13.4251   20.3965 C   0  0  0  0  0  0  0  0  0  0  0  0
  -35.8633  -30.2866   21.3023 C   0  0  1  0  0  0  0  0  0  0  0  0
  -32.1249  -30.9426   21.1361 C   0  0  1  0  0  0  0  0  0  0  0  0
  -27.5833  -13.4934   21.6205 C   0  0  1  0  0  0  0  0  0  0  0  0
  -30.4206  -14.3210   16.8302 C   0  0  0  0  0  0  0  0  0  0  0  0
  -25.3571  -32.0112   24.7498 C   0  0  0  0  0  0  0  0  0  0  0  0
  -31.6473  -30.1487   25.6640 C   0  0  0  0  0  0  0  0  0  0  0  0
  -29.3124  -30.3268   26.5499 C   0  0  0  0  0  0  0  0  0  0  0  0
  -30.5752  -32.3908   25.9431 C   0  0  0  0  0  0  0  0  0  0  0  0
  -29.0618  -16.4403   20.0817 C   0  0  0  0  0  0  0  0  0  0  0  0
  -25.8967  -31.6340   21.0024 C   0  0  0  0  0  0  0  0  0  0  0  0
  -30.6787  -22.8846   18.7246 C   0  0  0  0  0  0  0  0  0  0  0  0
  -31.4357  -21.9541   17.7833 C   0  0  0  0  0  0  0  0  0  0  0  0
  -30.7591  -24.3346   18.2657 C   0  0  0  0  0  0  0  0  0  1  0  0
  -31.3919  -20.5107   18.2645 C   0  0  0  0  0  0  0  0  0  0  0  0
  -29.7198  -30.8766   24.1080 C   0  0  1  0  0  0  0  0  0  0  0  0
  -26.1601  -32.0059   23.4582 C   0  0  2  0  0  0  0  0  0  0  0  0
  -30.3189  -30.9217   25.5421 C   0  0  0  0  0  0  0  0  0  0  0  0
  -25.8250  -11.7720   21.4549 N   0  0  0  0  0  0  0  0  0  0  0  0
  -26.1694  -13.0594   21.2811 N   0  0  0  0  0  0  0  0  0  0  0  0
  -31.0564  -30.5399   22.0528 N   0  0  0  0  0  0  0  0  0  0  0  0
  -29.8811  -13.8271   20.7419 N   0  0  0  0  0  0  0  0  0  0  0  0
  -25.3340  -15.1587   20.5699 N   0  0  0  0  0  0  0  0  0  0  0  0
  -21.7878  -12.4056   20.0792 N   0  0  0  0  0  0  0  0  0  0  0  0
  -34.5284  -30.7239   20.9539 N   0  0  0  0  0  0  0  0  0  0  0  0
  -28.4755  -31.6230   23.9565 N   0  0  0  0  0  0  0  0  0  0  0  0
  -30.1276  -15.7531   19.3448 N   0  0  0  0  0  0  0  0  0  0  0  0
  -25.2439  -31.6538   22.3367 N   0  3  0  0  0  0  0  0  0  0  0  0
  -22.5204  -14.5629   19.8182 O   0  0  0  0  0  0  0  0  0  0  0  0
  -33.3766  -29.6701   22.6817 O   0  0  0  0  0  0  0  0  0  0  0  0
  -31.0489  -32.5946   23.1548 O   0  0  0  0  0  0  0  0  0  0  0  0
  -27.1909  -29.8322   23.2354 O   0  0  0  0  0  0  0  0  0  0  0  0
  -31.8850  -14.2754   19.6749 O   0  0  0  0  0  0  0  0  0  0  0  0
  -21.6658   -6.9555   21.2268 O   0  0  0  0  0  0  0  0  0  0  0  0
  -30.0558  -25.1722   19.1822 O   0  0  0  0  0  0  0  0  0  1  0  0
  -32.0997  -19.6963   17.3399 O   0  0  0  0  0  0  0  0  0  0  0  0
  -22.1489   -3.8225   25.7385 F   0  0  0  0  0  0  0  0  0  0  0  0
  -19.4558   -6.3397   22.7693 F   0  0  0  0  0  0  0  0  0  0  0  0
  1  2  1  0  0  0  0
  1  5  2  0  0  0  0
  2  6  2  0  0  0  0
  3  9  2  0  0  0  0
  3 18  1  0  0  0  0
  4 10  1  0  0  0  0
  4 18  2  0  0  0  0
  5 20  1  0  0  0  0
  6 22  1  0  0  0  0
  7 11  2  0  0  0  0
  7 21  1  0  0  0  0
  8 12  2  0  0  0  0
  8 24  1  0  0  0  0
  9 26  1  0  0  0  0
 10 26  2  0  0  0  0
 11 27  1  0  0  0  0
 12 28  1  0  0  0  0
 13 14  2  0  0  0  0
 13 29  1  0  0  0  0
 14 30  1  0  0  0  0
 15 23  1  0  0  0  0
 15 27  2  0  0  0  0
 16 25  1  0  0  0  0
 16 28  2  0  0  0  0
 17 30  2  0  0  0  0
 17 31  1  0  0  0  0
 18 32  1  0  0  0  0
 19 32  1  0  0  0  0
 19 33  2  0  0  0  0
 19 34  1  0  0  0  0
 20 22  2  0  0  0  0
 20 39  1  0  0  0  0
 21 23  2  0  0  0  0
 21 40  1  0  0  0  0
 22 48  1  0  0  0  0
 23 41  1  0  0  0  0
 24 25  2  0  0  0  0
 24 51  1  0  0  0  0
 25 73  1  0  0  0  0
 26 80  1  0  0  0  0
 27 81  1  0  0  0  0
 28 82  1  0  0  0  0
 29 31  2  0  0  0  0
 29 80  1  0  0  0  0
 30 83  1  0  0  0  0
 31 84  1  0  0  0  0
 32 65  2  0  0  0  0
 33 66  1  0  0  0  0
 33 69  1  0  0  0  0
 34 70  1  0  0  0  0
 34 75  2  0  0  0  0
 35 49  1  0  0  0  0
 35 71  1  0  0  0  0
 35 76  2  0  0  0  0
 36 62  1  0  0  0  0
 36 67  1  0  0  0  0
 36 77  2  0  0  0  0
 37 63  1  0  0  0  0
 37 72  1  0  0  0  0
 37 78  2  0  0  0  0
 38 68  1  0  0  0  0
 38 73  1  0  0  0  0
 38 79  2  0  0  0  0
 39 42  1  0  0  0  0
 40 49  1  0  0  0  0
 41 67  1  0  0  0  0
 42 44  1  0  0  0  0
 43 45  1  0  0  0  0
 43 46  1  0  0  0  0
 44 48  1  0  0  0  0
 45 50  1  0  0  0  0
 46 68  1  0  0  0  0
 47 50  1  0  0  0  0
 47 68  1  0  0  0  0
 48 71  1  0  0  0  0
 49 67  1  0  0  0  0
 50 66  1  0  0  0  0
 52 63  1  0  0  0  0
 53 64  1  0  0  0  0
 54 64  1  0  0  0  0
 55 64  1  0  0  0  0
 56 73  1  0  0  0  0
 57 74  1  0  0  0  0
 58 59  1  0  0  0  0
 58 60  1  0  0  0  0
 59 61  1  0  0  0  0
 60 81  1  0  0  0  0
 61 82  1  0  0  0  0
 62 64  1  0  0  0  0
 62 72  1  0  0  0  0
 63 74  1  0  0  0  0
 65 66  1  0  0  0  0
M  CHG  1  74   1
M  ISO  4  38 100  60 101  73 100  81 101
M  END
> <Batch ID>
0104

> <Smiles>
CNC(C)C(=O)NC(C(=O)N1Cc2cc([101O:1][101CH2:1]CCCOc3ccc(C)c([100N:0](C)[100C:0](=O)N4CCCC(n5nc(-c6ccc(Oc7ccc(F)cc7F)cc6)c(C(N)=O)c5N)C4)c3)ccc2CC1C(=O)NC1CCCc2ccccc21)C(C)(C)C

> <Shape>
0.225

> <Color>
0.170

> <Negative vol penalty>
0.000

$$$$

  -OEChem-04052301083D

 93102  0     1  0  0  0  0  0999 V2000
  -19.7079  -36.1244   20.5062 C   0  0  0  0  0  0  0  0  0  0  0  0
  -20.9715  -35.8532   19.9912 C   0  0  0  0  0  0  0  0  0  0  0  0
  -22.6418  -11.5676   21.7640 C   0  0  0  0  0  0  0  0  0  0  0  0
  -24.1751   -9.8002   22.3660 C   0  0  0  0  0  0  0  0  0  0  0  0
  -19.4138  -35.8074   21.8317 C   0  0  0  0  0  0  0  0  0  0  0  0
  -21.9421  -35.2657   20.8018 C   0  0  0  0  0  0  0  0  0  0  0  0
  -24.9652  -28.9790   19.0048 C   0  0  0  0  0  0  0  0  0  0  0  0
  -21.8134  -11.2114   22.8281 C   0  0  0  0  0  0  0  0  0  0  0  0
  -23.3468   -9.4441   23.4302 C   0  0  0  0  0  0  0  0  0  0  0  0
  -25.7416  -27.8843   18.6239 C   0  0  0  0  0  0  0  0  0  0  0  0
  -20.4750   -7.7179   23.8825 C   0  0  0  0  0  0  0  0  0  0  0  0
  -20.2112   -6.3616   24.0726 C   0  0  0  0  0  0  0  0  0  0  0  0
  -26.9514  -28.0013   20.7145 C   0  0  0  0  0  0  0  0  0  0  0  0
  -28.2168  -20.6859   17.7211 C   0  0  0  0  0  0  0  0  0  0  0  0
  -27.9027  -20.5716   20.4907 C   0  0  0  0  0  0  0  0  0  0  0  0
  -21.1918   -6.4798   26.2775 C   0  0  0  0  0  0  0  0  0  0  0  0
  -23.8227  -10.8619   21.5328 C   0  0  0  0  0  0  0  0  0  0  0  0
  -24.3469  -11.2414   19.0653 C   0  0  0  0  0  0  0  0  0  0  0  0
  -20.3783  -35.2069   22.6562 C   0  0  0  0  0  0  0  0  0  0  0  0
  -25.1689  -29.5800   20.2501 C   0  0  0  0  0  0  0  0  0  0  0  0
  -21.6611  -34.9416   22.1400 C   0  0  0  0  0  0  0  0  0  0  0  0
  -26.1684  -29.0902   21.1067 C   0  0  0  0  0  0  0  0  0  0  0  0
  -28.2376  -19.4541   18.3750 C   0  0  0  0  0  0  0  0  0  0  0  0
  -28.0390  -21.8607   18.4520 C   0  0  0  0  0  0  0  0  0  0  0  0
  -28.0806  -19.3969   19.7598 C   0  0  0  0  0  0  0  0  0  0  0  0
  -22.1659  -10.1497   23.6613 C   0  0  0  0  0  0  0  0  0  0  0  0
  -26.7324  -27.3969   19.4765 C   0  0  0  0  0  0  0  0  0  0  0  0
  -21.0973   -8.4553   24.8899 C   0  0  0  0  0  0  0  0  0  0  0  0
  -27.8819  -21.8035   19.8368 C   0  0  0  0  0  0  0  0  0  0  0  0
  -20.5695   -5.7425   25.2701 C   0  0  0  0  0  0  0  0  0  0  0  0
  -21.4557   -7.8362   26.0874 C   0  0  0  0  0  0  0  0  0  0  0  0
  -24.6785  -11.2290   20.4333 C   0  0  0  0  0  0  0  0  0  0  0  0
  -25.4943  -11.6607   18.4376 C   0  0  0  0  0  0  0  0  0  0  0  0
  -23.1119  -10.9041   18.4196 C   0  0  0  0  0  0  0  0  0  0  0  0
  -24.1381  -32.2522   22.6735 C   0  0  0  0  0  0  0  0  0  0  0  0
  -24.6833  -29.7204   24.3176 C   0  0  0  0  0  0  0  0  0  0  0  0
  -29.3884  -17.3030   20.2907 C   0  0  0  0  0  0  0  0  0  0  0  0
  -24.9751  -26.6196   25.7095 C   0  0  0  0  0  0  0  0  0  0  0  0
  -30.1551  -14.9456   20.2194 C   0  0  0  0  0  0  0  0  0  0  0  0
  -20.0289  -34.9258   24.0961 C   0  0  0  0  0  0  0  0  0  0  0  0
  -24.3977  -30.7997   20.6761 C   0  0  0  0  0  0  0  0  0  0  0  0
  -26.3753  -29.7901   22.4222 C   0  0  0  0  0  0  0  0  0  0  0  0
  -20.9950  -33.9621   24.7804 C   0  0  0  0  0  0  0  0  0  0  0  0
  -31.5494  -25.7081   17.9920 C   0  0  0  0  0  0  0  0  0  0  0  0
  -30.2565  -11.6346   18.9294 C   0  0  0  0  0  0  0  0  0  0  0  0
  -31.5411  -24.3344   18.6440 C   0  0  0  0  0  0  0  0  0  0  0  0
  -22.4391  -34.3539   24.4841 C   0  0  0  0  0  0  0  0  0  0  0  0
  -28.8071  -11.1565   19.0404 C   0  0  0  0  0  0  0  0  0  0  0  0
  -30.1779  -26.3628   18.0852 C   0  0  0  0  0  0  0  0  0  0  0  0
  -30.6526  -12.5199   20.1094 C   0  0  0  0  0  0  0  0  0  0  0  0
  -28.3069  -13.1795   20.4714 C   0  0  0  0  0  0  0  0  0  0  0  0
  -30.4578  -23.4467   18.0554 C   0  0  0  0  0  0  0  0  0  0  0  0
  -22.7328  -34.2824   22.9808 C   0  0  1  0  0  0  0  0  0  0  0  0
  -24.1078  -30.8330   22.1874 C   0  0  1  0  0  0  0  0  0  0  0  0
  -27.8422  -12.3355   19.2730 C   0  0  2  0  0  0  0  0  0  0  0  0
  -29.0686  -25.4802   17.4993 C   0  0  2  0  0  0  0  0  0  0  0  0
  -28.4309  -18.2096   17.5723 C   0  0  0  0  0  0  0  0  0  0  0  0
  -29.1299  -24.4160   23.7126 C   0  0  0  0  0  0  0  0  0  0  0  0
  -24.8348  -25.4290   27.9140 C   0  0  0  0  0  0  0  0  0  0  0  0
  -27.4151  -30.8360   25.0897 C   0  0  0  0  0  0  0  0  0  0  0  0
  -27.6384  -28.9595   26.7320 C   0  0  0  0  0  0  0  0  0  0  0  0
  -25.7995  -30.6257   26.9871 C   0  0  0  0  0  0  0  0  0  0  0  0
  -22.7463  -24.9107   24.7763 C   0  0  0  0  0  0  0  0  0  0  0  0
  -28.0994  -18.0790   20.4882 C   0  0  0  0  0  0  0  0  0  0  0  0
  -28.0182  -23.1768   17.7321 C   0  0  0  0  0  0  0  0  0  0  0  0
  -27.7118  -26.1517   17.7024 C   0  0  0  0  0  0  0  0  0  1  0  0
  -28.5858  -24.3499   22.2969 C   0  0  0  0  0  0  0  0  0  0  0  0
  -28.1958  -22.9326   21.9061 C   0  0  0  0  0  0  0  0  0  0  0  0
  -25.6803  -28.9242   25.1210 C   0  0  1  0  0  0  0  0  0  0  0  0
  -24.0774  -25.8563   26.6665 C   0  0  2  0  0  0  0  0  0  0  0  0
  -26.6288  -29.8310   25.9549 C   0  0  0  0  0  0  0  0  0  0  0  0
  -25.9381  -11.6100   20.6620 N   0  0  0  0  0  0  0  0  0  0  0  0
  -26.4080  -11.8657   19.4292 N   0  0  0  0  0  0  0  0  0  0  0  0
  -25.0748  -30.1102   23.0310 N   0  0  0  0  0  0  0  0  0  0  0  0
  -29.6964  -13.6176   20.2680 N   0  0  0  0  0  0  0  0  0  0  0  0
  -25.8007  -11.8704   17.1397 N   0  0  0  0  0  0  0  0  0  0  0  0
  -22.9088   -9.5769   18.0178 N   0  0  0  0  0  0  0  0  0  0  0  0
  -22.9267  -32.9088   22.5684 N   0  0  0  0  0  0  0  0  0  0  0  0
  -29.1631  -15.9237   20.3443 N   0  0  0  0  0  0  0  0  0  0  0  0
  -24.9026  -27.9809   25.9171 N   0  0  0  0  0  0  0  0  0  0  0  0
  -29.1054  -24.1190   18.1903 N   0  3  1  0  0  0  0  0  0  0  0  0
  -23.5343  -24.6361   26.0054 N   0  3  0  0  0  0  0  0  0  0  0  0
  -22.2220  -11.7580   18.1905 O   0  0  0  0  0  0  0  0  0  0  0  0
  -25.1827  -32.7181   23.1132 O   0  0  0  0  0  0  0  0  0  0  0  0
  -23.5886  -29.9956   24.8168 O   0  0  0  0  0  0  0  0  0  0  0  0
  -30.4816  -17.8384   20.1276 O   0  0  0  0  0  0  0  0  0  0  0  0
  -25.6738  -26.0638   24.8649 O   0  0  0  0  0  0  0  0  0  0  0  0
  -31.3428  -15.2369   20.0468 O   0  0  0  0  0  0  0  0  0  0  0  0
  -21.3579   -9.8020   24.7000 O   0  0  0  0  0  0  0  0  0  0  0  0
  -27.4837  -26.3251   19.1003 O   0  0  0  0  0  0  0  0  0  1  0  0
  -27.7087  -22.9414   20.5659 O   0  0  0  0  0  0  0  0  0  0  0  0
  -20.3147   -4.4403   25.4531 F   0  0  0  0  0  0  0  0  0  0  0  0
  -22.0527   -8.5397   27.0593 F   0  0  0  0  0  0  0  0  0  0  0  0
  1  2  1  0  0  0  0
  1  5  2  0  0  0  0
  2  6  2  0  0  0  0
  3  8  2  0  0  0  0
  3 17  1  0  0  0  0
  4  9  1  0  0  0  0
  4 17  2  0  0  0  0
  5 19  1  0  0  0  0
  6 21  1  0  0  0  0
  7 10  2  0  0  0  0
  7 20  1  0  0  0  0
  8 26  1  0  0  0  0
  9 26  2  0  0  0  0
 10 27  1  0  0  0  0
 11 12  2  0  0  0  0
 11 28  1  0  0  0  0
 12 30  1  0  0  0  0
 13 22  1  0  0  0  0
 13 27  2  0  0  0  0
 14 23  2  0  0  0  0
 14 24  1  0  0  0  0
 15 25  2  0  0  0  0
 15 29  1  0  0  0  0
 16 30  2  0  0  0  0
 16 31  1  0  0  0  0
 17 32  1  0  0  0  0
 18 32  1  0  0  0  0
 18 33  2  0  0  0  0
 18 34  1  0  0  0  0
 19 21  2  0  0  0  0
 19 40  1  0  0  0  0
 20 22  2  0  0  0  0
 20 41  1  0  0  0  0
 21 53  1  0  0  0  0
 22 42  1  0  0  0  0
 23 25  1  0  0  0  0
 23 57  1  0  0  0  0
 24 29  2  0  0  0  0
 24 65  1  0  0  0  0
 25 64  1  0  0  0  0
 26 89  1  0  0  0  0
 27 90  1  0  0  0  0
 28 31  2  0  0  0  0
 28 89  1  0  0  0  0
 29 91  1  0  0  0  0
 30 92  1  0  0  0  0
 31 93  1  0  0  0  0
 32 72  2  0  0  0  0
 33 73  1  0  0  0  0
 33 76  1  0  0  0  0
 34 77  1  0  0  0  0
 34 83  2  0  0  0  0
 35 54  1  0  0  0  0
 35 78  1  0  0  0  0
 35 84  2  0  0  0  0
 36 69  1  0  0  0  0
 36 74  1  0  0  0  0
 36 85  2  0  0  0  0
 37 64  1  0  0  0  0
 37 79  1  0  0  0  0
 37 86  2  0  0  0  0
 38 70  1  0  0  0  0
 38 80  1  0  0  0  0
 38 87  2  0  0  0  0
 39 75  1  0  0  0  0
 39 79  1  0  0  0  0
 39 88  2  0  0  0  0
 40 43  1  0  0  0  0
 41 54  1  0  0  0  0
 42 74  1  0  0  0  0
 43 47  1  0  0  0  0
 44 46  1  0  0  0  0
 44 49  1  0  0  0  0
 45 48  1  0  0  0  0
 45 50  1  0  0  0  0
 46 52  1  0  0  0  0
 47 53  1  0  0  0  0
 48 55  1  0  0  0  0
 49 56  1  0  0  0  0
 50 75  1  0  0  0  0
 51 55  1  0  0  0  0
 51 75  1  0  0  0  0
 52 81  1  0  0  0  0
 53 78  1  0  0  0  0
 54 74  1  0  0  0  0
 55 73  1  0  0  0  0
 56 66  1  0  0  0  0
 56 81  1  0  0  0  0
 58 67  1  0  0  0  0
 59 70  1  0  0  0  0
 60 71  1  0  0  0  0
 61 71  1  0  0  0  0
 62 71  1  0  0  0  0
 63 82  1  0  0  0  0
 65 81  1  0  0  0  0
 66 90  1  0  0  0  0
 67 68  1  0  0  0  0
 68 91  1  0  0  0  0
 69 71  1  0  0  0  0
 69 80  1  0  0  0  0
 70 82  1  0  0  0  0
 72 73  1  0  0  0  0
M  CHG  2  81   1  82   1
M  ISO  4  39 100  66 101  79 100  90 101
M  END
> <Batch ID>
0104

> <Smiles>
CCCOc1cc(CC(=O)[100NH:0][100C:0](=O)N2CCCC(n3nc(-c4ccc(Oc5ccc(F)cc5F)cc4)c(C(N)=O)c3N)C2)c(C)cc1CN1CCCCC1[101CH2:1][101O:1]c1ccc2c(c1)CN(C(=O)C(NC(=O)C(C)NC)C(C)(C)C)C(C(=O)NC1CCCc3ccccc31)C2

> <Shape>
0.284

> <Color>
0.095

> <Negative vol penalty>
0.000

$$$$

  -OEChem-04052301083D

 82 90  0     1  0  0  0  0  0999 V2000
  -28.3802  -36.7812   19.9160 C   0  0  0  0  0  0  0  0  0  0  0  0
  -28.7093  -35.4467   19.7009 C   0  0  0  0  0  0  0  0  0  0  0  0
  -23.9117   -9.3123   20.3656 C   0  0  0  0  0  0  0  0  0  0  0  0
  -22.8701  -11.2558   21.3531 C   0  0  0  0  0  0  0  0  0  0  0  0
  -27.5214  -37.1269   20.9585 C   0  0  0  0  0  0  0  0  0  0  0  0
  -28.1806  -34.4572   20.5289 C   0  0  0  0  0  0  0  0  0  0  0  0
  -26.5932  -28.7668   18.9147 C   0  0  0  0  0  0  0  0  0  0  0  0
  -22.9585   -8.4937   20.9713 C   0  0  0  0  0  0  0  0  0  0  0  0
  -21.9169  -10.4371   21.9588 C   0  0  0  0  0  0  0  0  0  0  0  0
  -27.2499  -27.5422   19.0274 C   0  0  0  0  0  0  0  0  0  0  0  0
  -22.3846   -7.1849   24.0344 C   0  0  0  0  0  0  0  0  0  0  0  0
  -22.8338   -6.0223   24.6606 C   0  0  0  0  0  0  0  0  0  0  0  0
  -28.2046  -20.3500   18.4836 C   0  0  0  0  0  0  0  0  0  0  0  0
  -26.0577  -27.0983   21.0770 C   0  0  0  0  0  0  0  0  0  0  0  0
  -29.9149  -19.1480   20.3310 C   0  0  0  0  0  0  0  0  0  0  0  0
  -21.4639   -4.6946   23.1781 C   0  0  0  0  0  0  0  0  0  0  0  0
  -23.8675  -10.6934   20.5566 C   0  0  0  0  0  0  0  0  0  0  0  0
  -29.0662  -21.1350   19.2498 C   0  0  0  0  0  0  0  0  0  0  0  0
  -24.7724  -12.1421   18.6619 C   0  0  0  0  0  0  0  0  0  0  0  0
  -26.9742  -36.1402   21.7938 C   0  0  0  0  0  0  0  0  0  0  0  0
  -25.6703  -29.1720   19.8897 C   0  0  0  0  0  0  0  0  0  0  0  0
  -27.3147  -34.7901   21.5844 C   0  0  0  0  0  0  0  0  0  0  0  0
  -25.3888  -28.3275   20.9730 C   0  0  0  0  0  0  0  0  0  0  0  0
  -28.1981  -18.9640   18.6411 C   0  0  0  0  0  0  0  0  0  0  0  0
  -29.9213  -20.5340   20.1735 C   0  0  0  0  0  0  0  0  0  0  0  0
  -29.0533  -18.3631   19.5648 C   0  0  0  0  0  0  0  0  0  0  0  0
  -21.9611   -9.0561   21.7679 C   0  0  0  0  0  0  0  0  0  0  0  0
  -26.9844  -26.7090   20.1102 C   0  0  0  0  0  0  0  0  0  0  0  0
  -21.4750   -7.1024   22.9801 C   0  0  0  0  0  0  0  0  0  0  0  0
  -22.3735   -4.7771   24.2324 C   0  0  0  0  0  0  0  0  0  0  0  0
  -21.0147   -5.8573   22.5519 C   0  0  0  0  0  0  0  0  0  0  0  0
  -24.8522  -11.5395   19.9316 C   0  0  0  0  0  0  0  0  0  0  0  0
  -25.9502  -12.8377   18.5373 C   0  0  0  0  0  0  0  0  0  0  0  0
  -29.0498  -22.5952   19.0608 C   0  0  0  0  0  0  0  0  0  0  0  0
  -27.9780  -23.3854   19.2283 C   0  0  0  0  0  0  0  0  0  0  0  0
  -23.7271  -12.0789   17.6826 C   0  0  0  0  0  0  0  0  0  0  0  0
  -25.4892  -31.5969   21.9367 C   0  0  0  0  0  0  0  0  0  0  0  0
  -22.5524  -30.3587   22.5408 C   0  0  0  0  0  0  0  0  0  0  0  0
  -20.4887  -27.6410   22.4950 C   0  0  0  0  0  0  0  0  0  0  0  0
  -29.8535  -16.2194   20.6186 C   0  0  0  0  0  0  0  0  0  0  0  0
  -26.0879  -36.5667   22.9371 C   0  0  0  0  0  0  0  0  0  0  0  0
  -24.9505  -30.4841   19.7396 C   0  0  0  0  0  0  0  0  0  0  0  0
  -24.3916  -28.7070   22.0361 C   0  0  0  0  0  0  0  0  0  0  0  0
  -25.2739  -35.4227   23.5363 C   0  0  0  0  0  0  0  0  0  0  0  0
  -30.1422  -12.7517   21.3730 C   0  0  0  0  0  0  0  0  0  0  0  0
  -26.1586  -34.2016   23.7669 C   0  0  0  0  0  0  0  0  0  0  0  0
  -28.7851  -12.1768   20.9608 C   0  0  0  0  0  0  0  0  0  0  0  0
  -30.0062  -14.1466   21.9808 C   0  0  0  0  0  0  0  0  0  0  0  0
  -27.9110  -14.5382   20.7456 C   0  0  0  0  0  0  0  0  0  0  0  0
  -26.7418  -33.6856   22.4458 C   0  0  1  0  0  0  0  0  0  0  0  0
  -24.4112  -31.0243   21.0604 C   0  0  1  0  0  0  0  0  0  0  0  0
  -28.0036  -13.1610   20.0686 C   0  0  2  0  0  0  0  0  0  0  0  0
  -27.2638  -18.1481   17.8077 C   0  0  0  0  0  0  0  0  0  0  0  0
  -30.8576  -21.3442   21.0115 C   0  0  0  0  0  0  0  0  0  0  0  0
  -18.1563  -26.9286   23.0861 C   0  0  0  0  0  0  0  0  0  0  0  0
  -23.3188  -30.3083   25.4938 C   0  0  0  0  0  0  0  0  0  0  0  0
  -21.3988  -28.7520   25.8937 C   0  0  0  0  0  0  0  0  0  0  0  0
  -20.9766  -31.0563   25.0364 C   0  0  0  0  0  0  0  0  0  0  0  0
  -19.8726  -26.9243   19.6905 C   0  0  0  0  0  0  0  0  0  0  0  0
  -28.0066  -24.8644   19.0109 C   0  0  0  0  0  0  0  0  0  1  0  0
  -22.0023  -29.3306   23.4995 C   0  0  1  0  0  0  0  0  0  0  0  0
  -19.0673  -27.4640   21.9924 C   0  0  2  0  0  0  0  0  0  0  0  0
  -21.9444  -29.8552   24.9620 C   0  0  0  0  0  0  0  0  0  0  0  0
  -25.9907  -11.8269   20.5681 N   0  0  0  0  0  0  0  0  0  0  0  0
  -26.6372  -12.6177   19.6948 N   0  0  0  0  0  0  0  0  0  0  0  0
  -23.7184  -30.0027   21.8482 N   0  0  0  0  0  0  0  0  0  0  0  0
  -29.2589  -15.0252   21.0783 N   0  0  0  0  0  0  0  0  0  0  0  0
  -26.4548  -13.6099   17.5517 N   0  0  0  0  0  0  0  0  0  0  0  0
  -22.5855  -11.3191   17.9720 N   0  0  0  0  0  0  0  0  0  0  0  0
  -29.0608  -16.9570   19.7399 N   0  0  0  0  0  0  0  0  0  0  0  0
  -25.7448  -32.9362   21.7118 N   0  0  0  0  0  0  0  0  0  0  0  0
  -20.7103  -28.9199   22.9605 N   0  0  0  0  0  0  0  0  0  0  0  0
  -19.0377  -26.5104   20.8475 N   0  3  0  0  0  0  0  0  0  0  0  0
  -23.8103  -12.6651   16.5767 O   0  0  0  0  0  0  0  0  0  0  0  0
  -26.0466  -30.8774   22.7572 O   0  0  0  0  0  0  0  0  0  0  0  0
  -21.9652  -31.4351   22.4059 O   0  0  0  0  0  0  0  0  0  0  0  0
  -21.3184  -26.7344   22.4799 O   0  0  0  0  0  0  0  0  0  0  0  0
  -30.9933  -16.5487   20.9567 O   0  0  0  0  0  0  0  0  0  0  0  0
  -21.0307   -8.2576   22.3589 O   0  0  0  0  0  0  0  0  0  0  0  0
  -27.6244  -25.5134   20.2229 O   0  0  0  0  0  0  0  0  0  1  0  0
  -22.8061   -3.6606   24.8328 F   0  0  0  0  0  0  0  0  0  0  0  0
  -20.1418   -5.7716   21.5388 F   0  0  0  0  0  0  0  0  0  0  0  0
  1  2  1  0  0  0  0
  1  5  2  0  0  0  0
  2  6  2  0  0  0  0
  3  8  2  0  0  0  0
  3 17  1  0  0  0  0
  4  9  1  0  0  0  0
  4 17  2  0  0  0  0
  5 20  1  0  0  0  0
  6 22  1  0  0  0  0
  7 10  2  0  0  0  0
  7 21  1  0  0  0  0
  8 27  1  0  0  0  0
  9 27  2  0  0  0  0
 10 28  1  0  0  0  0
 11 12  2  0  0  0  0
 11 29  1  0  0  0  0
 12 30  1  0  0  0  0
 13 18  1  0  0  0  0
 13 24  2  0  0  0  0
 14 23  1  0  0  0  0
 14 28  2  0  0  0  0
 15 25  1  0  0  0  0
 15 26  2  0  0  0  0
 16 30  2  0  0  0  0
 16 31  1  0  0  0  0
 17 32  1  0  0  0  0
 18 25  2  0  0  0  0
 18 34  1  0  0  0  0
 19 32  1  0  0  0  0
 19 33  2  0  0  0  0
 19 36  1  0  0  0  0
 20 22  2  0  0  0  0
 20 41  1  0  0  0  0
 21 23  2  0  0  0  0
 21 42  1  0  0  0  0
 22 50  1  0  0  0  0
 23 43  1  0  0  0  0
 24 26  1  0  0  0  0
 24 53  1  0  0  0  0
 25 54  1  0  0  0  0
 26 70  1  0  0  0  0
 27 79  1  0  0  0  0
 28 80  1  0  0  0  0
 29 31  2  0  0  0  0
 29 79  1  0  0  0  0
 30 81  1  0  0  0  0
 31 82  1  0  0  0  0
 32 64  2  0  0  0  0
 33 65  1  0  0  0  0
 33 68  1  0  0  0  0
 34 35  2  0  0  0  0
 35 60  1  0  0  0  0
 36 69  1  0  0  0  0
 36 74  2  0  0  0  0
 37 51  1  0  0  0  0
 37 71  1  0  0  0  0
 37 75  2  0  0  0  0
 38 61  1  0  0  0  0
 38 66  1  0  0  0  0
 38 76  2  0  0  0  0
 39 62  1  0  0  0  0
 39 72  1  0  0  0  0
 39 77  2  0  0  0  0
 40 67  1  0  0  0  0
 40 70  1  0  0  0  0
 40 78  2  0  0  0  0
 41 44  1  0  0  0  0
 42 51  1  0  0  0  0
 43 66  1  0  0  0  0
 44 46  1  0  0  0  0
 45 47  1  0  0  0  0
 45 48  1  0  0  0  0
 46 50  1  0  0  0  0
 47 52  1  0  0  0  0
 48 67  1  0  0  0  0
 49 52  1  0  0  0  0
 49 67  1  0  0  0  0
 50 71  1  0  0  0  0
 51 66  1  0  0  0  0
 52 65  1  0  0  0  0
 55 62  1  0  0  0  0
 56 63  1  0  0  0  0
 57 63  1  0  0  0  0
 58 63  1  0  0  0  0
 59 73  1  0  0  0  0
 60 80  1  0  0  0  0
 61 63  1  0  0  0  0
 61 72  1  0  0  0  0
 62 73  1  0  0  0  0
 64 65  1  0  0  0  0
M  CHG  1  73   1
M  ISO  4  40 100  60 101  70 100  80 101
M  END
> <Batch ID>
0104

> <Smiles>
CNC(C)C(=O)NC(C(=O)N1Cc2cc([101O:1][101CH2:1]C=Cc3cc(C)c([100NH:0][100C:0](=O)N4CCCC(n5nc(-c6ccc(Oc7ccc(F)cc7F)cc6)c(C(N)=O)c5N)C4)cc3C)ccc2CC1C(=O)NC1CCCc2ccccc21)C(C)(C)C

> <Shape>
0.342

> <Color>
0.092

> <Negative vol penalty>
0.000

$$$$

  -OEChem-04052301083D

 85 94  0     1  0  0  0  0  0999 V2000
  -28.0991  -24.2735   17.2768 C   0  0  0  0  0  0  0  0  0  0  0  0
  -26.8864  -24.5780   17.8870 C   0  0  0  0  0  0  0  0  0  0  0  0
  -27.4291  -14.3971   20.6419 C   0  0  0  0  0  0  0  0  0  0  0  0
  -25.4212  -14.5446   19.3063 C   0  0  0  0  0  0  0  0  0  0  0  0
  -29.2929  -24.7261   17.8369 C   0  0  0  0  0  0  0  0  0  0  0  0
  -26.8670  -25.3344   19.0582 C   0  0  0  0  0  0  0  0  0  0  0  0
  -23.3179  -28.9459   18.9800 C   0  0  0  0  0  0  0  0  0  0  0  0
  -27.2019  -13.0342   20.8329 C   0  0  0  0  0  0  0  0  0  0  0  0
  -25.1940  -13.1817   19.4973 C   0  0  0  0  0  0  0  0  0  0  0  0
  -22.0027  -28.5514   19.2216 C   0  0  0  0  0  0  0  0  0  0  0  0
  -23.9679  -11.1771   21.9282 C   0  0  0  0  0  0  0  0  0  0  0  0
  -22.6724  -10.7754   22.2538 C   0  0  0  0  0  0  0  0  0  0  0  0
  -22.2001  -29.3114   21.5025 C   0  0  0  0  0  0  0  0  0  0  0  0
  -20.5502  -22.3177   21.6809 C   0  0  0  0  0  0  0  0  0  0  0  0
  -18.4908  -21.9661   20.4676 C   0  0  0  0  0  0  0  0  0  0  0  0
  -20.5634  -21.0620   19.6168 C   0  0  0  0  0  0  0  0  0  0  0  0
  -22.5932   -9.4143   20.2592 C   0  0  0  0  0  0  0  0  0  0  0  0
  -26.5387  -15.1523   19.8786 C   0  0  0  0  0  0  0  0  0  0  0  0
  -27.5074  -17.1627   18.6427 C   0  0  0  0  0  0  0  0  0  0  0  0
  -29.2876  -25.4967   19.0104 C   0  0  0  0  0  0  0  0  0  0  0  0
  -24.0890  -29.5170   20.0027 C   0  0  0  0  0  0  0  0  0  0  0  0
  -28.0620  -25.7966   19.6353 C   0  0  0  0  0  0  0  0  0  0  0  0
  -23.5240  -29.7146   21.2707 C   0  0  0  0  0  0  0  0  0  0  0  0
  -19.1729  -22.5019   21.5600 C   0  0  0  0  0  0  0  0  0  0  0  0
  -21.2455  -21.5978   20.7092 C   0  0  0  0  0  0  0  0  0  0  0  0
  -26.0844  -12.4265   20.2607 C   0  0  0  0  0  0  0  0  0  0  0  0
  -21.4445  -28.7315   20.4838 C   0  0  0  0  0  0  0  0  0  0  0  0
  -24.5760  -10.6974   20.7681 C   0  0  0  0  0  0  0  0  0  0  0  0
  -21.9851   -9.8940   21.4193 C   0  0  0  0  0  0  0  0  0  0  0  0
  -23.8887   -9.8160   19.9337 C   0  0  0  0  0  0  0  0  0  0  0  0
  -19.1861  -21.2462   19.4960 C   0  0  0  0  0  0  0  0  0  0  0  0
  -26.7725  -16.5604   19.6814 C   0  0  0  0  0  0  0  0  0  0  0  0
  -27.4313  -18.5089   18.9042 C   0  0  0  0  0  0  0  0  0  0  0  0
  -28.1971  -16.5594   17.5400 C   0  0  0  0  0  0  0  0  0  0  0  0
  -26.7768  -28.7168   21.4990 C   0  0  0  0  0  0  0  0  0  0  0  0
  -26.4176  -31.6310   22.8777 C   0  0  0  0  0  0  0  0  0  0  0  0
  -24.3249  -34.1718   23.7786 C   0  0  0  0  0  0  0  0  0  0  0  0
  -23.4730  -21.8774   21.8522 C   0  0  0  0  0  0  0  0  0  0  0  0
  -30.6064  -25.9235   19.6046 C   0  0  0  0  0  0  0  0  0  0  0  0
  -25.4975  -29.9617   19.7186 C   0  0  0  0  0  0  0  0  0  0  0  0
  -24.3029  -30.3417   22.3969 C   0  0  0  0  0  0  0  0  0  0  0  0
  -30.4757  -27.0364   20.6413 C   0  0  0  0  0  0  0  0  0  0  0  0
  -26.9566  -21.5978   22.5330 C   0  0  0  0  0  0  0  0  0  0  0  0
  -29.3464  -26.7257   21.6185 C   0  0  0  0  0  0  0  0  0  0  0  0
  -27.3729  -20.3324   21.7795 C   0  0  0  0  0  0  0  0  0  0  0  0
  -17.9889  -26.7572   23.3191 C   0  0  0  0  0  0  0  0  0  0  0  0
  -25.5597  -21.4646   23.1369 C   0  0  0  0  0  0  0  0  0  0  0  0
  -24.9268  -19.7964   21.4381 C   0  0  0  0  0  0  0  0  0  0  0  0
  -17.2415  -25.4421   23.1705 C   0  0  0  0  0  0  0  0  0  0  0  0
  -19.2131  -25.5040   21.7273 C   0  0  0  0  0  0  0  0  0  0  0  0
  -27.9984  -26.6356   20.8931 C   0  0  1  0  0  0  0  0  0  0  0  0
  -26.3575  -30.0611   20.9748 C   0  0  1  0  0  0  0  0  0  0  0  0
  -18.7223  -26.9164   21.9947 C   0  0  2  0  0  0  0  0  0  0  0  0
  -26.3008  -19.9070   20.7571 C   0  0  2  0  0  0  0  0  0  0  0  0
  -24.3163  -36.4044   24.9243 C   0  0  0  0  0  0  0  0  0  0  0  0
  -26.6490  -30.2405   25.5838 C   0  0  0  0  0  0  0  0  0  0  0  0
  -25.7014  -32.3005   26.6452 C   0  0  0  0  0  0  0  0  0  0  0  0
  -27.8718  -32.4160   25.4209 C   0  0  0  0  0  0  0  0  0  0  0  0
  -23.3467  -35.5459   21.3468 C   0  0  0  0  0  0  0  0  0  0  0  0
  -18.4252  -23.2768   22.6047 C   0  0  0  0  0  0  0  0  0  0  0  0
  -19.8439  -27.9315   22.0503 C   0  0  0  0  0  0  0  0  0  1  0  0
  -25.7240  -32.1508   24.1137 C   0  0  1  0  0  0  0  0  0  0  0  0
  -24.4281  -35.6751   23.5946 C   0  0  2  0  0  0  0  0  0  0  0  0
  -26.4722  -31.7633   25.4204 C   0  0  0  0  0  0  0  0  0  0  0  0
  -26.2669  -17.4508   20.5389 N   0  0  0  0  0  0  0  0  0  0  0  0
  -26.6848  -18.6265   20.0396 N   0  0  0  0  0  0  0  0  0  0  0  0
  -25.6782  -30.7541   22.0714 N   0  0  0  0  0  0  0  0  0  0  0  0
  -24.5964  -21.0633   22.1093 N   0  0  0  0  0  0  0  0  0  0  0  0
  -27.9309  -19.5918   18.2715 N   0  0  0  0  0  0  0  0  0  0  0  0
  -28.1744  -15.1630   17.4211 N   0  0  0  0  0  0  0  0  0  0  0  0
  -22.6448  -21.4115   20.8316 N   0  0  0  0  0  0  0  0  0  0  0  0
  -27.4959  -27.9595   20.5941 N   0  0  0  0  0  0  0  0  0  0  0  0
  -25.5661  -33.5880   23.9193 N   0  0  0  0  0  0  0  0  0  0  0  0
  -18.0393  -24.6483   22.1523 N   0  3  1  0  0  0  0  0  0  0  0  0
  -23.3422  -36.1630   22.6981 N   0  3  0  0  0  0  0  0  0  0  0  0
  -28.8289  -17.2373   16.6945 O   0  0  0  0  0  0  0  0  0  0  0  0
  -26.4719  -28.3915   22.6404 O   0  0  0  0  0  0  0  0  0  0  0  0
  -27.5704  -31.9954   22.6328 O   0  0  0  0  0  0  0  0  0  0  0  0
  -23.2504  -33.5755   23.7995 O   0  0  0  0  0  0  0  0  0  0  0  0
  -23.2759  -22.9258   22.4718 O   0  0  0  0  0  0  0  0  0  0  0  0
  -25.8625  -11.0966   20.4467 O   0  0  0  0  0  0  0  0  0  0  0  0
  -20.1612  -28.3467   20.7224 O   0  0  0  0  0  0  0  0  0  1  0  0
  -20.7416   -9.5072   21.7329 F   0  0  0  0  0  0  0  0  0  0  0  0
  -24.4682   -9.3509   18.8184 F   0  0  0  0  0  0  0  0  0  0  0  0
  -18.3450  -20.5867   18.1470 Cl  0  0  0  0  0  0  0  0  0  0  0  0
  1  2  1  0  0  0  0
  1  5  2  0  0  0  0
  2  6  2  0  0  0  0
  3  8  2  0  0  0  0
  3 18  1  0  0  0  0
  4  9  1  0  0  0  0
  4 18  2  0  0  0  0
  5 20  1  0  0  0  0
  6 22  1  0  0  0  0
  7 10  2  0  0  0  0
  7 21  1  0  0  0  0
  8 26  1  0  0  0  0
  9 26  2  0  0  0  0
 10 27  1  0  0  0  0
 11 12  2  0  0  0  0
 11 28  1  0  0  0  0
 12 29  1  0  0  0  0
 13 23  1  0  0  0  0
 13 27  2  0  0  0  0
 14 24  2  0  0  0  0
 14 25  1  0  0  0  0
 15 24  1  0  0  0  0
 15 31  2  0  0  0  0
 16 25  2  0  0  0  0
 16 31  1  0  0  0  0
 17 29  2  0  0  0  0
 17 30  1  0  0  0  0
 18 32  1  0  0  0  0
 19 32  1  0  0  0  0
 19 33  2  0  0  0  0
 19 34  1  0  0  0  0
 20 22  2  0  0  0  0
 20 39  1  0  0  0  0
 21 23  2  0  0  0  0
 21 40  1  0  0  0  0
 22 51  1  0  0  0  0
 23 41  1  0  0  0  0
 24 60  1  0  0  0  0
 25 71  1  0  0  0  0
 26 81  1  0  0  0  0
 27 82  1  0  0  0  0
 28 30  2  0  0  0  0
 28 81  1  0  0  0  0
 29 83  1  0  0  0  0
 30 84  1  0  0  0  0
 31 85  1  0  0  0  0
 32 65  2  0  0  0  0
 33 66  1  0  0  0  0
 33 69  1  0  0  0  0
 34 70  1  0  0  0  0
 34 76  2  0  0  0  0
 35 52  1  0  0  0  0
 35 72  1  0  0  0  0
 35 77  2  0  0  0  0
 36 62  1  0  0  0  0
 36 67  1  0  0  0  0
 36 78  2  0  0  0  0
 37 63  1  0  0  0  0
 37 73  1  0  0  0  0
 37 79  2  0  0  0  0
 38 68  1  0  0  0  0
 38 71  1  0  0  0  0
 38 80  2  0  0  0  0
 39 42  1  0  0  0  0
 40 52  1  0  0  0  0
 41 67  1  0  0  0  0
 42 44  1  0  0  0  0
 43 45  1  0  0  0  0
 43 47  1  0  0  0  0
 44 51  1  0  0  0  0
 45 54  1  0  0  0  0
 46 49  1  0  0  0  0
 46 53  1  0  0  0  0
 47 68  1  0  0  0  0
 48 54  1  0  0  0  0
 48 68  1  0  0  0  0
 49 74  1  0  0  0  0
 50 53  1  0  0  0  0
 50 74  1  0  0  0  0
 51 72  1  0  0  0  0
 52 67  1  0  0  0  0
 53 61  1  0  0  0  0
 54 66  1  0  0  0  0
 55 63  1  0  0  0  0
 56 64  1  0  0  0  0
 57 64  1  0  0  0  0
 58 64  1  0  0  0  0
 59 75  1  0  0  0  0
 60 74  1  0  0  0  0
 61 82  1  0  0  0  0
 62 64  1  0  0  0  0
 62 73  1  0  0  0  0
 63 75  1  0  0  0  0
 65 66  1  0  0  0  0
M  CHG  2  74   1  75   1
M  ISO  4  38 100  61 101  71 100  82 101
M  END
> <Batch ID>
0104

> <Smiles>
CNC(C)C(=O)NC(C(=O)N1Cc2cc([101O:1][101CH2:1]C3CCN(Cc4cc(Cl)cc([100NH:0][100C:0](=O)N5CCCC(n6nc(-c7ccc(Oc8ccc(F)cc8F)cc7)c(C(N)=O)c6N)C5)c4)C3)ccc2CC1C(=O)NC1CCCc2ccccc21)C(C)(C)C

> <Shape>
0.295

> <Color>
0.072

> <Negative vol penalty>
0.000

$$$$

  -OEChem-04052301083D

 87 96  0     1  0  0  0  0  0999 V2000
  -24.6751  -34.2521   16.1576 C   0  0  0  0  0  0  0  0  0  0  0  0
  -25.4437  -33.0957   16.0720 C   0  0  0  0  0  0  0  0  0  0  0  0
  -22.8365  -10.1445   20.0766 C   0  0  0  0  0  0  0  0  0  0  0  0
  -23.8949   -9.8135   22.2231 C   0  0  0  0  0  0  0  0  0  0  0  0
  -24.3653  -34.7910   17.4056 C   0  0  0  0  0  0  0  0  0  0  0  0
  -25.9040  -32.4781   17.2343 C   0  0  0  0  0  0  0  0  0  0  0  0
  -26.6198  -26.4690   18.1746 C   0  0  0  0  0  0  0  0  0  0  0  0
  -26.9736  -19.6803   19.0408 C   0  0  0  0  0  0  0  0  0  0  0  0
  -28.0728  -20.5320   18.9321 C   0  0  0  0  0  0  0  0  0  0  0  0
  -22.2261   -8.8950   20.1849 C   0  0  0  0  0  0  0  0  0  0  0  0
  -23.2845   -8.5640   22.3314 C   0  0  0  0  0  0  0  0  0  0  0  0
  -27.7366  -25.6367   18.1143 C   0  0  0  0  0  0  0  0  0  0  0  0
  -23.7584   -5.4458   21.1136 C   0  0  0  0  0  0  0  0  0  0  0  0
  -24.5437   -4.3760   21.5431 C   0  0  0  0  0  0  0  0  0  0  0  0
  -28.0240  -25.8595   20.4990 C   0  0  0  0  0  0  0  0  0  0  0  0
  -28.3322  -20.5040   21.3340 C   0  0  0  0  0  0  0  0  0  0  0  0
  -23.0789   -4.0618   23.4386 C   0  0  0  0  0  0  0  0  0  0  0  0
  -23.6710  -10.6037   21.0957 C   0  0  0  0  0  0  0  0  0  0  0  0
  -25.1920  -12.3213   19.9803 C   0  0  0  0  0  0  0  0  0  0  0  0
  -24.8139  -34.1743   18.5842 C   0  0  0  0  0  0  0  0  0  0  0  0
  -26.2025  -27.0125   19.3981 C   0  0  0  0  0  0  0  0  0  0  0  0
  -25.6011  -33.0100   18.4993 C   0  0  0  0  0  0  0  0  0  0  0  0
  -26.9001  -26.6964   20.5726 C   0  0  0  0  0  0  0  0  0  0  0  0
  -26.5535  -19.2405   20.2962 C   0  0  0  0  0  0  0  0  0  0  0  0
  -27.2329  -19.6523   21.4427 C   0  0  0  0  0  0  0  0  0  0  0  0
  -28.7521  -20.9438   20.0786 C   0  0  0  0  0  0  0  0  0  0  0  0
  -22.4501   -8.1047   21.3123 C   0  0  0  0  0  0  0  0  0  0  0  0
  -28.4407  -25.3341   19.2761 C   0  0  0  0  0  0  0  0  0  0  0  0
  -22.6334   -5.8237   21.8466 C   0  0  0  0  0  0  0  0  0  0  0  0
  -24.2039   -3.6840   22.7056 C   0  0  0  0  0  0  0  0  0  0  0  0
  -22.2937   -5.1317   23.0091 C   0  0  0  0  0  0  0  0  0  0  0  0
  -24.3022  -11.8941   20.9841 C   0  0  0  0  0  0  0  0  0  0  0  0
  -25.5031  -13.6140   20.3246 C   0  0  0  0  0  0  0  0  0  0  0  0
  -30.6609  -22.3119   21.0346 C   0  0  0  0  0  0  0  0  0  0  0  0
  -25.6925  -11.6129   18.8387 C   0  0  0  0  0  0  0  0  0  0  0  0
  -25.9001  -29.9564   20.5581 C   0  0  0  0  0  0  0  0  0  0  0  0
  -24.5736  -28.4071   23.0805 C   0  0  0  0  0  0  0  0  0  0  0  0
  -24.2840  -25.5236   24.8829 C   0  0  0  0  0  0  0  0  0  0  0  0
  -23.4399  -18.6428   21.9893 C   0  0  0  0  0  0  0  0  0  0  0  0
  -24.4935  -34.8203   19.9089 C   0  0  0  0  0  0  0  0  0  0  0  0
  -24.9799  -27.8872   19.4503 C   0  0  0  0  0  0  0  0  0  0  0  0
  -26.4810  -27.2379   21.9141 C   0  0  0  0  0  0  0  0  0  0  0  0
  -31.7508  -23.1734   20.4419 C   0  0  0  0  0  0  0  0  0  0  0  0
  -24.7050  -33.8953   21.1046 C   0  0  0  0  0  0  0  0  0  0  0  0
  -31.8016  -22.7305   18.9919 C   0  0  0  0  0  0  0  0  0  0  0  0
  -24.5881  -16.2264   24.5475 C   0  0  0  0  0  0  0  0  0  0  0  0
  -26.0460  -33.1769   20.9933 C   0  0  0  0  0  0  0  0  0  0  0  0
  -24.6169  -14.9099   23.7730 C   0  0  0  0  0  0  0  0  0  0  0  0
  -23.5513  -17.1934   23.9839 C   0  0  0  0  0  0  0  0  0  0  0  0
  -23.7331  -16.1426   21.7531 C   0  0  0  0  0  0  0  0  0  0  0  0
  -26.0980  -32.2973   19.7383 C   0  0  1  0  0  0  0  0  0  0  0  0
  -24.9492  -28.7988   20.6732 C   0  0  1  0  0  0  0  0  0  0  0  0
  -24.7997  -15.1636   22.2665 C   0  0  2  0  0  0  0  0  0  0  0  0
  -30.3637  -22.3261   18.6863 C   0  0  2  0  0  0  0  0  0  0  0  0
  -26.8025  -19.1926   22.7970 C   0  0  0  0  0  0  0  0  0  0  0  0
  -23.1562  -24.5751   26.9141 C   0  0  0  0  0  0  0  0  0  0  0  0
  -26.5659  -29.8720   24.8678 C   0  0  0  0  0  0  0  0  0  0  0  0
  -26.0507  -28.2204   26.6774 C   0  0  0  0  0  0  0  0  0  0  0  0
  -24.2513  -29.7090   25.8006 C   0  0  0  0  0  0  0  0  0  0  0  0
  -23.9273  -20.3235   20.2523 C   0  0  0  0  0  0  0  0  0  0  0  0
  -22.8332  -23.5047   23.2773 C   0  0  0  0  0  0  0  0  0  0  0  0
  -25.3735  -18.3296   20.3876 C   0  0  0  0  0  0  0  0  0  0  0  0
  -29.5473  -23.5253   18.1992 C   0  0  0  0  0  0  0  0  0  1  0  0
  -25.0978  -27.8089   24.3636 C   0  0  1  0  0  0  0  0  0  0  0  0
  -23.0683  -24.7832   25.4102 C   0  0  2  0  0  0  0  0  0  0  0  0
  -25.5007  -28.8938   25.4020 C   0  0  0  0  0  0  0  0  0  0  0  0
  -24.0636  -12.8388   21.8976 N   0  0  0  0  0  0  0  0  0  0  0  0
  -24.8081  -13.8724   21.4693 N   0  0  0  0  0  0  0  0  0  0  0  0
  -29.8820  -21.8166   19.9673 N   0  0  0  0  0  0  0  0  0  0  0  0
  -25.2829  -28.0936   21.9124 N   0  0  0  0  0  0  0  0  0  0  0  0
  -23.7212  -17.3830   22.5430 N   0  0  0  0  0  0  0  0  0  0  0  0
  -26.3007  -14.5435   19.7568 N   0  0  0  0  0  0  0  0  0  0  0  0
  -26.8765  -10.8755   18.9762 N   0  0  0  0  0  0  0  0  0  0  0  0
  -25.3576  -31.0718   19.9490 N   0  0  0  0  0  0  0  0  0  0  0  0
  -24.0708  -26.8850   24.8327 N   0  0  0  0  0  0  0  0  0  0  0  0
  -24.1746  -19.0217   20.8556 N   0  0  0  0  0  0  0  0  0  0  0  0
  -22.9511  -23.4487   24.7572 N   0  3  0  0  0  0  0  0  0  0  0  0
  -30.5384  -22.1566   22.2411 O   0  0  0  0  0  0  0  0  0  0  0  0
  -25.1160  -11.6464   17.7251 O   0  0  0  0  0  0  0  0  0  0  0  0
  -27.0411  -29.8464   20.9914 O   0  0  0  0  0  0  0  0  0  0  0  0
  -23.5676  -29.1202   23.1124 O   0  0  0  0  0  0  0  0  0  0  0  0
  -25.3206  -24.9520   24.5524 O   0  0  0  0  0  0  0  0  0  0  0  0
  -22.5878  -19.3905   22.4861 O   0  0  0  0  0  0  0  0  0  0  0  0
  -21.8544   -6.8855   21.4185 O   0  0  0  0  0  0  0  0  0  0  0  0
  -29.5315  -24.5224   19.2199 O   0  0  0  0  0  0  0  0  0  1  0  0
  -24.9572   -2.6557   23.1171 F   0  0  0  0  0  0  0  0  0  0  0  0
  -21.2134   -5.4893   23.7168 F   0  0  0  0  0  0  0  0  0  0  0  0
  1  2  1  0  0  0  0
  1  5  2  0  0  0  0
  2  6  2  0  0  0  0
  3 10  2  0  0  0  0
  3 18  1  0  0  0  0
  4 11  1  0  0  0  0
  4 18  2  0  0  0  0
  5 20  1  0  0  0  0
  6 22  1  0  0  0  0
  7 12  2  0  0  0  0
  7 21  1  0  0  0  0
  8  9  2  0  0  0  0
  8 24  1  0  0  0  0
  9 26  1  0  0  0  0
 10 27  1  0  0  0  0
 11 27  2  0  0  0  0
 12 28  1  0  0  0  0
 13 14  2  0  0  0  0
 13 29  1  0  0  0  0
 14 30  1  0  0  0  0
 15 23  1  0  0  0  0
 15 28  2  0  0  0  0
 16 25  1  0  0  0  0
 16 26  2  0  0  0  0
 17 30  2  0  0  0  0
 17 31  1  0  0  0  0
 18 32  1  0  0  0  0
 19 32  1  0  0  0  0
 19 33  2  0  0  0  0
 19 35  1  0  0  0  0
 20 22  2  0  0  0  0
 20 40  1  0  0  0  0
 21 23  2  0  0  0  0
 21 41  1  0  0  0  0
 22 51  1  0  0  0  0
 23 42  1  0  0  0  0
 24 25  2  0  0  0  0
 24 62  1  0  0  0  0
 25 55  1  0  0  0  0
 26 69  1  0  0  0  0
 27 84  1  0  0  0  0
 28 85  1  0  0  0  0
 29 31  2  0  0  0  0
 29 84  1  0  0  0  0
 30 86  1  0  0  0  0
 31 87  1  0  0  0  0
 32 67  2  0  0  0  0
 33 68  1  0  0  0  0
 33 72  1  0  0  0  0
 34 43  1  0  0  0  0
 34 69  1  0  0  0  0
 34 78  2  0  0  0  0
 35 73  1  0  0  0  0
 35 79  2  0  0  0  0
 36 52  1  0  0  0  0
 36 74  1  0  0  0  0
 36 80  2  0  0  0  0
 37 64  1  0  0  0  0
 37 70  1  0  0  0  0
 37 81  2  0  0  0  0
 38 65  1  0  0  0  0
 38 75  1  0  0  0  0
 38 82  2  0  0  0  0
 39 71  1  0  0  0  0
 39 76  1  0  0  0  0
 39 83  2  0  0  0  0
 40 44  1  0  0  0  0
 41 52  1  0  0  0  0
 42 70  1  0  0  0  0
 43 45  1  0  0  0  0
 44 47  1  0  0  0  0
 45 54  1  0  0  0  0
 46 48  1  0  0  0  0
 46 49  1  0  0  0  0
 47 51  1  0  0  0  0
 48 53  1  0  0  0  0
 49 71  1  0  0  0  0
 50 53  1  0  0  0  0
 50 71  1  0  0  0  0
 51 74  1  0  0  0  0
 52 70  1  0  0  0  0
 53 68  1  0  0  0  0
 54 63  1  0  0  0  0
 54 69  1  0  0  0  0
 56 65  1  0  0  0  0
 57 66  1  0  0  0  0
 58 66  1  0  0  0  0
 59 66  1  0  0  0  0
 60 76  1  0  0  0  0
 61 77  1  0  0  0  0
 62 76  1  0  0  0  0
 63 85  1  0  0  0  0
 64 66  1  0  0  0  0
 64 75  1  0  0  0  0
 65 77  1  0  0  0  0
 67 68  1  0  0  0  0
M  CHG  1  77   1
M  ISO  4  39 100  63 101  76 100  85 101
M  END
> <Batch ID>
0104

> <Smiles>
CNC(C)C(=O)NC(C(=O)N1Cc2cc([101O:1][101CH2:1]C3CCC(=O)N3c3ccc(C[100N:0](C)[100C:0](=O)N4CCCC(n5nc(-c6ccc(Oc7ccc(F)cc7F)cc6)c(C(N)=O)c5N)C4)c(C)c3)ccc2CC1C(=O)NC1CCCc2ccccc21)C(C)(C)C

> <Shape>
0.214

> <Color>
0.090

> <Negative vol penalty>
0.000

$$$$

  -OEChem-04052301083D

 85 93  0     1  0  0  0  0  0999 V2000
  -36.8891  -32.3371   20.9875 C   0  0  0  0  0  0  0  0  0  0  0  0
  -35.9196  -31.3786   20.7107 C   0  0  0  0  0  0  0  0  0  0  0  0
  -23.1510   -9.8455   19.9350 C   0  0  0  0  0  0  0  0  0  0  0  0
  -23.9426   -9.8701   22.2175 C   0  0  0  0  0  0  0  0  0  0  0  0
  -36.7265  -33.1986   22.0716 C   0  0  0  0  0  0  0  0  0  0  0  0
  -34.7873  -31.2802   21.5185 C   0  0  0  0  0  0  0  0  0  0  0  0
  -30.5225  -30.7821   18.8337 C   0  0  0  0  0  0  0  0  0  0  0  0
  -22.4623   -8.6590   20.1866 C   0  0  0  0  0  0  0  0  0  0  0  0
  -23.2538   -8.6836   22.4691 C   0  0  0  0  0  0  0  0  0  0  0  0
  -30.2462  -29.5218   18.3054 C   0  0  0  0  0  0  0  0  0  0  0  0
  -20.0728   -7.7401   23.1107 C   0  0  0  0  0  0  0  0  0  0  0  0
  -19.3351   -7.6587   24.2917 C   0  0  0  0  0  0  0  0  0  0  0  0
  -28.7144  -29.1031   20.1214 C   0  0  0  0  0  0  0  0  0  0  0  0
  -20.6710   -5.7728   24.9961 C   0  0  0  0  0  0  0  0  0  0  0  0
  -29.7257  -18.0120   18.9316 C   0  0  0  0  0  0  0  0  0  0  0  0
  -23.8913  -10.4511   20.9504 C   0  0  0  0  0  0  0  0  0  0  0  0
  -24.1199  -12.9896   20.8447 C   0  0  0  0  0  0  0  0  0  0  0  0
  -35.5870  -33.1171   22.8874 C   0  0  0  0  0  0  0  0  0  0  0  0
  -29.9040  -31.2088   20.0177 C   0  0  0  0  0  0  0  0  0  0  0  0
  -34.6099  -32.1405   22.6154 C   0  0  0  0  0  0  0  0  0  0  0  0
  -28.9827  -30.3703   20.6612 C   0  0  0  0  0  0  0  0  0  0  0  0
  -29.1673  -17.8611   20.1818 C   0  0  0  0  0  0  0  0  0  0  0  0
  -28.7930  -19.1107   20.7551 C   0  0  0  0  0  0  0  0  0  0  0  0
  -22.5136   -8.0781   21.4537 C   0  0  0  0  0  0  0  0  0  0  0  0
  -29.3443  -28.6809   18.9508 C   0  0  0  0  0  0  0  0  0  0  0  0
  -21.1095   -6.8378   22.8723 C   0  0  0  0  0  0  0  0  0  0  0  0
  -19.6342   -6.6751   25.2344 C   0  0  0  0  0  0  0  0  0  0  0  0
  -21.4086   -5.8542   23.8150 C   0  0  0  0  0  0  0  0  0  0  0  0
  -24.6035  -11.6765   20.6909 C   0  0  0  0  0  0  0  0  0  0  0  0
  -25.1728  -13.7890   20.4718 C   0  0  0  0  0  0  0  0  0  0  0  0
  -29.0799  -20.1691   19.9212 C   0  0  0  0  0  0  0  0  0  0  0  0
  -22.8341  -13.4460   21.2852 C   0  0  0  0  0  0  0  0  0  0  0  0
  -30.9280  -32.0398   22.9098 C   0  0  0  0  0  0  0  0  0  0  0  0
  -27.8091  -32.8047   23.3676 C   0  0  0  0  0  0  0  0  0  0  0  0
  -29.2040  -22.5727   19.1798 C   0  0  0  0  0  0  0  0  0  0  0  0
  -24.5490  -32.3317   22.4760 C   0  0  0  0  0  0  0  0  0  0  0  0
  -30.7502  -14.7440   21.0168 C   0  0  0  0  0  0  0  0  0  0  0  0
  -35.4779  -34.0388   24.0763 C   0  0  0  0  0  0  0  0  0  0  0  0
  -30.1926  -32.5817   20.5600 C   0  0  0  0  0  0  0  0  0  0  0  0
  -28.2766  -30.7891   21.9239 C   0  0  0  0  0  0  0  0  0  0  0  0
  -34.0694  -34.1163   24.6597 C   0  0  0  0  0  0  0  0  0  0  0  0
  -29.5413  -12.6647   18.2032 C   0  0  0  0  0  0  0  0  0  0  0  0
  -33.4774  -32.7188   24.8129 C   0  0  0  0  0  0  0  0  0  0  0  0
  -28.1346  -12.2772   18.6558 C   0  0  0  0  0  0  0  0  0  0  0  0
  -30.4706  -12.9111   19.3878 C   0  0  0  0  0  0  0  0  0  0  0  0
  -28.5459  -13.5221   20.8149 C   0  0  0  0  0  0  0  0  0  0  0  0
  -33.3559  -32.0191   23.4538 C   0  0  1  0  0  0  0  0  0  0  0  0
  -29.8938  -32.7104   22.0505 C   0  0  1  0  0  0  0  0  0  0  0  0
  -27.5721  -13.3122   19.6456 C   0  0  2  0  0  0  0  0  0  0  0  0
  -28.1676  -19.2563   22.0934 C   0  0  0  0  0  0  0  0  0  0  0  0
  -22.2214  -33.0694   23.0552 C   0  0  0  0  0  0  0  0  0  0  0  0
  -27.8701  -31.0369   25.8538 C   0  0  0  0  0  0  0  0  0  0  0  0
  -25.3666  -31.0456   25.8362 C   0  0  0  0  0  0  0  0  0  0  0  0
  -26.6174  -33.1836   26.1307 C   0  0  0  0  0  0  0  0  0  0  0  0
  -31.0866  -16.9498   22.0661 C   0  0  0  0  0  0  0  0  0  0  0  0
  -24.1018  -33.4399   19.7685 C   0  0  0  0  0  0  0  0  0  0  0  0
  -28.9828  -16.5464   20.8426 C   0  0  0  0  0  0  0  0  0  0  0  0
  -28.8229  -23.9333   19.7465 C   0  0  0  0  0  0  0  0  0  0  0  0
  -29.1549  -25.0791   18.7968 C   0  0  0  0  0  0  0  0  0  0  0  0
  -28.7219  -26.4231   19.3642 C   0  0  0  0  0  0  0  0  0  1  0  0
  -26.5889  -32.0666   23.8628 C   0  0  1  0  0  0  0  0  0  0  0  0
  -23.4347  -33.3168   22.1723 C   0  0  2  0  0  0  0  0  0  0  0  0
  -26.6253  -31.8242   25.3981 C   0  0  0  0  0  0  0  0  0  0  0  0
  -25.8652  -11.6394   20.2543 N   0  0  0  0  0  0  0  0  0  0  0  0
  -26.1834  -12.9392   20.1304 N   0  0  0  0  0  0  0  0  0  0  0  0
  -28.5970  -32.1383   22.4184 N   0  0  0  0  0  0  0  0  0  0  0  0
  -29.8926  -13.8657   20.3343 N   0  0  0  0  0  0  0  0  0  0  0  0
  -25.3233  -15.1290   20.4059 N   0  0  0  0  0  0  0  0  0  0  0  0
  -21.8681  -12.4908   21.6297 N   0  0  0  0  0  0  0  0  0  0  0  0
  -28.8823  -21.5613   20.0806 N   0  0  0  0  0  0  0  0  0  0  0  0
  -32.2100  -32.5222   22.7270 N   0  0  0  0  0  0  0  0  0  0  0  0
  -25.4347  -32.8333   23.4061 N   0  0  0  0  0  0  0  0  0  0  0  0
  -30.2323  -16.0000   21.3676 N   0  0  0  0  0  0  0  0  0  0  0  0
  -23.0118  -33.1976   20.7483 N   0  3  0  0  0  0  0  0  0  0  0  0
  -22.5448  -14.6646   21.3551 O   0  0  0  0  0  0  0  0  0  0  0  0
  -30.5879  -31.1517   23.6826 O   0  0  0  0  0  0  0  0  0  0  0  0
  -28.0503  -33.9339   23.8015 O   0  0  0  0  0  0  0  0  0  0  0  0
  -29.7213  -22.4494   18.0745 O   0  0  0  0  0  0  0  0  0  0  0  0
  -24.6240  -31.2262   21.9443 O   0  0  0  0  0  0  0  0  0  0  0  0
  -31.9155  -14.4274   21.2884 O   0  0  0  0  0  0  0  0  0  0  0  0
  -21.8414   -6.9204   21.6996 O   0  0  0  0  0  0  0  0  0  0  0  0
  -29.0733  -27.4500   18.4377 O   0  0  0  0  0  0  0  0  0  1  0  0
  -18.9268   -6.5981   26.3692 F   0  0  0  0  0  0  0  0  0  0  0  0
  -22.4042   -4.9853   23.5921 F   0  0  0  0  0  0  0  0  0  0  0  0
  -29.7972  -19.6548   18.4538 S   0  0  0  0  0  0  0  0  0  0  0  0
  1  2  1  0  0  0  0
  1  5  2  0  0  0  0
  2  6  2  0  0  0  0
  3  8  2  0  0  0  0
  3 16  1  0  0  0  0
  4  9  1  0  0  0  0
  4 16  2  0  0  0  0
  5 18  1  0  0  0  0
  6 20  1  0  0  0  0
  7 10  2  0  0  0  0
  7 19  1  0  0  0  0
  8 24  1  0  0  0  0
  9 24  2  0  0  0  0
 10 25  1  0  0  0  0
 11 12  2  0  0  0  0
 11 26  1  0  0  0  0
 12 27  1  0  0  0  0
 13 21  1  0  0  0  0
 13 25  2  0  0  0  0
 14 27  2  0  0  0  0
 14 28  1  0  0  0  0
 15 22  2  0  0  0  0
 15 85  1  0  0  0  0
 16 29  1  0  0  0  0
 17 29  1  0  0  0  0
 17 30  2  0  0  0  0
 17 32  1  0  0  0  0
 18 20  2  0  0  0  0
 18 38  1  0  0  0  0
 19 21  2  0  0  0  0
 19 39  1  0  0  0  0
 20 47  1  0  0  0  0
 21 40  1  0  0  0  0
 22 23  1  0  0  0  0
 22 57  1  0  0  0  0
 23 31  2  0  0  0  0
 23 50  1  0  0  0  0
 24 81  1  0  0  0  0
 25 82  1  0  0  0  0
 26 28  2  0  0  0  0
 26 81  1  0  0  0  0
 27 83  1  0  0  0  0
 28 84  1  0  0  0  0
 29 64  2  0  0  0  0
 30 65  1  0  0  0  0
 30 68  1  0  0  0  0
 31 70  1  0  0  0  0
 31 85  1  0  0  0  0
 32 69  1  0  0  0  0
 32 75  2  0  0  0  0
 33 48  1  0  0  0  0
 33 71  1  0  0  0  0
 33 76  2  0  0  0  0
 34 61  1  0  0  0  0
 34 66  1  0  0  0  0
 34 77  2  0  0  0  0
 35 58  1  0  0  0  0
 35 70  1  0  0  0  0
 35 78  2  0  0  0  0
 36 62  1  0  0  0  0
 36 72  1  0  0  0  0
 36 79  2  0  0  0  0
 37 67  1  0  0  0  0
 37 73  1  0  0  0  0
 37 80  2  0  0  0  0
 38 41  1  0  0  0  0
 39 48  1  0  0  0  0
 40 66  1  0  0  0  0
 41 43  1  0  0  0  0
 42 44  1  0  0  0  0
 42 45  1  0  0  0  0
 43 47  1  0  0  0  0
 44 49  1  0  0  0  0
 45 67  1  0  0  0  0
 46 49  1  0  0  0  0
 46 67  1  0  0  0  0
 47 71  1  0  0  0  0
 48 66  1  0  0  0  0
 49 65  1  0  0  0  0
 51 62  1  0  0  0  0
 52 63  1  0  0  0  0
 53 63  1  0  0  0  0
 54 63  1  0  0  0  0
 55 73  1  0  0  0  0
 56 74  1  0  0  0  0
 57 73  1  0  0  0  0
 58 59  1  0  0  0  0
 59 60  1  0  0  0  0
 60 82  1  0  0  0  0
 61 63  1  0  0  0  0
 61 72  1  0  0  0  0
 62 74  1  0  0  0  0
 64 65  1  0  0  0  0
M  CHG  1  74   1
M  ISO  4  37 100  60 101  73 100  82 101
M  END
> <Batch ID>
0104

> <Smiles>
CNC(C)C(=O)NC(C(=O)N1Cc2cc([101O:1][101CH2:1]CCC(=O)Nc3scc(C[100N:0](C)[100C:0](=O)N4CCCC(n5nc(-c6ccc(Oc7ccc(F)cc7F)cc6)c(C(N)=O)c5N)C4)c3C)ccc2CC1C(=O)NC1CCCc2ccccc21)C(C)(C)C

> <Shape>
0.326

> <Color>
0.206

> <Negative vol penalty>
0.000

$$$$

  -OEChem-04052301083D

 86 95  0     1  0  0  0  0  0999 V2000
  -26.3191  -29.1446   20.1900 C   0  0  0  0  0  0  0  0  0  0  0  0
  -25.7187  -28.5183   21.2774 C   0  0  0  0  0  0  0  0  0  0  0  0
  -28.1501  -13.5235   18.8685 C   0  0  0  0  0  0  0  0  0  0  0  0
  -28.5390  -12.9596   21.1853 C   0  0  0  0  0  0  0  0  0  0  0  0
  -26.6519  -28.4038   19.0567 C   0  0  0  0  0  0  0  0  0  0  0  0
  -25.4496  -27.1508   21.2317 C   0  0  0  0  0  0  0  0  0  0  0  0
  -25.1181  -21.3817   25.4654 C   0  0  0  0  0  0  0  0  0  0  0  0
  -29.5163  -13.7424   18.6924 C   0  0  0  0  0  0  0  0  0  0  0  0
  -29.9053  -13.1784   21.0092 C   0  0  0  0  0  0  0  0  0  0  0  0
  -24.2557  -20.3380   25.7981 C   0  0  0  0  0  0  0  0  0  0  0  0
  -32.2997  -11.8771   18.2383 C   0  0  0  0  0  0  0  0  0  0  0  0
  -32.9001  -11.3428   17.0984 C   0  0  0  0  0  0  0  0  0  0  0  0
  -24.9467  -19.1442   23.8190 C   0  0  0  0  0  0  0  0  0  0  0  0
  -23.1257  -12.7400   25.3823 C   0  0  0  0  0  0  0  0  0  0  0  0
  -33.5477  -13.5628   16.3989 C   0  0  0  0  0  0  0  0  0  0  0  0
  -22.1622  -10.7984   23.7248 C   0  0  0  0  0  0  0  0  0  0  0  0
  -27.6614  -13.1322   20.1150 C   0  0  0  0  0  0  0  0  0  0  0  0
  -25.2096  -13.8369   20.1144 C   0  0  0  0  0  0  0  0  0  0  0  0
  -26.3956  -27.0247   19.0009 C   0  0  0  0  0  0  0  0  0  0  0  0
  -25.8945  -21.3192   24.2993 C   0  0  0  0  0  0  0  0  0  0  0  0
  -25.7780  -26.3911   20.0961 C   0  0  0  0  0  0  0  0  0  0  0  0
  -25.8201  -20.1873   23.4751 C   0  0  0  0  0  0  0  0  0  0  0  0
  -23.5014  -11.4176   25.5902 C   0  0  0  0  0  0  0  0  0  0  0  0
  -23.0149  -10.4222   24.7500 C   0  0  0  0  0  0  0  0  0  0  0  0
  -30.3939  -13.5698   19.7627 C   0  0  0  0  0  0  0  0  0  0  0  0
  -24.1677  -19.2203   24.9733 C   0  0  0  0  0  0  0  0  0  0  0  0
  -32.3231  -13.2543   18.4586 C   0  0  0  0  0  0  0  0  0  0  0  0
  -33.5241  -12.1856   16.1786 C   0  0  0  0  0  0  0  0  0  0  0  0
  -32.9471  -14.0971   17.5389 C   0  0  0  0  0  0  0  0  0  0  0  0
  -26.2500  -12.9065   20.2977 C   0  0  0  0  0  0  0  0  0  0  0  0
  -22.2682  -13.0125   24.3286 C   0  0  0  0  0  0  0  0  0  0  0  0
  -24.0663  -13.1365   20.4122 C   0  0  0  0  0  0  0  0  0  0  0  0
  -21.8428  -16.6441   24.2784 C   0  0  0  0  0  0  0  0  0  0  0  0
  -22.3351  -17.8804   24.4106 C   0  0  0  0  0  0  0  0  0  1  0  0
  -25.2712  -15.2113   19.7108 C   0  0  0  0  0  0  0  0  0  0  0  0
  -26.0899  -23.0483   21.6393 C   0  0  0  0  0  0  0  0  0  0  0  0
  -28.6087  -21.0998   21.0217 C   0  0  0  0  0  0  0  0  0  0  0  0
  -30.1573  -18.1071   21.5623 C   0  0  0  0  0  0  0  0  0  0  0  0
  -23.4481   -8.1170   23.8614 C   0  0  0  0  0  0  0  0  0  0  0  0
  -26.7300  -26.2748   17.7358 C   0  0  0  0  0  0  0  0  0  0  0  0
  -26.8398  -22.4415   23.9686 C   0  0  0  0  0  0  0  0  0  0  0  0
  -26.6474  -20.0625   22.2227 C   0  0  0  0  0  0  0  0  0  0  0  0
  -20.7602  -16.2463   23.3257 C   0  0  0  0  0  0  0  0  0  0  0  0
  -22.3734  -15.4281   24.9765 C   0  0  0  0  0  0  0  0  0  0  0  0
  -26.7530  -24.7590   17.9143 C   0  0  0  0  0  0  0  0  0  0  0  0
  -22.2474   -8.7162   20.4129 C   0  0  0  0  0  0  0  0  0  0  0  0
  -25.5234  -24.2939   18.6881 C   0  0  0  0  0  0  0  0  0  0  0  0
  -23.1130   -9.8869   19.9508 C   0  0  0  0  0  0  0  0  0  0  0  0
  -21.1096  -14.7968   23.0005 C   0  0  0  0  0  0  0  0  0  0  0  0
  -22.9643   -7.8562   21.4493 C   0  0  0  0  0  0  0  0  0  0  0  0
  -24.3177   -9.8032   22.1697 C   0  0  0  0  0  0  0  0  0  0  0  0
  -25.4928  -24.9049   20.0942 C   0  0  1  0  0  0  0  0  0  0  0  0
  -27.2024  -22.5006   22.4879 C   0  0  1  0  0  0  0  0  0  0  0  0
  -23.6025  -10.7080   21.1551 C   0  0  1  0  0  0  0  0  0  0  0  0
  -24.4262  -11.0943   26.7176 C   0  0  0  0  0  0  0  0  0  0  0  0
  -22.0151   -8.1944   26.8008 C   0  0  0  0  0  0  0  0  0  0  0  0
  -31.9529  -16.3585   21.4377 C   0  0  0  0  0  0  0  0  0  0  0  0
  -27.3001  -20.4659   18.3392 C   0  0  0  0  0  0  0  0  0  0  0  0
  -28.8205  -18.4864   18.1443 C   0  0  0  0  0  0  0  0  0  0  0  0
  -29.7783  -20.7877   18.2409 C   0  0  0  0  0  0  0  0  0  0  0  0
  -31.5345  -19.1854   23.9497 C   0  0  0  0  0  0  0  0  0  0  0  0
  -23.4063   -8.5045   26.2862 C   0  0  0  0  0  0  0  0  0  0  0  0
  -28.7869  -19.7690   20.3317 C   0  0  1  0  0  0  0  0  0  0  0  0
  -31.5979  -17.7643   21.8966 C   0  0  2  0  0  0  0  0  0  0  0  0
  -28.6543  -19.8801   18.7865 C   0  0  0  0  0  0  0  0  0  0  0  0
  -21.7749  -12.0725   23.4916 N   0  0  0  0  0  0  0  0  0  0  0  0
  -25.8069  -11.7066   20.6824 N   0  0  0  0  0  0  0  0  0  0  0  0
  -24.4754  -11.8783   20.7433 N   0  0  0  0  0  0  0  0  0  0  0  0
  -21.9034  -14.3304   24.1349 N   0  0  3  0  0  0  0  0  0  0  0  0
  -27.5520  -21.1888   21.9389 N   0  0  0  0  0  0  0  0  0  0  0  0
  -23.4771   -8.6596   22.5603 N   0  0  0  0  0  0  0  0  0  0  0  0
  -22.7609  -13.4804   20.4207 N   0  0  0  0  0  0  0  0  0  0  0  0
  -25.2019  -15.5098   18.3432 N   0  0  0  0  0  0  0  0  0  0  0  0
  -26.4153  -24.2109   20.9670 N   0  0  0  0  0  0  0  0  0  0  0  0
  -30.0698  -19.2427   20.7850 N   0  0  0  0  0  0  0  0  0  0  0  0
  -23.3731   -9.0359   24.9254 N   0  0  0  0  0  0  0  0  0  0  0  0
  -31.8226  -17.8494   23.3674 N   0  3  0  0  0  0  0  0  0  0  0  0
  -25.4008  -16.1459   20.5374 O   0  0  0  0  0  0  0  0  0  0  0  0
  -25.0164  -22.4589   21.5964 O   0  0  0  0  0  0  0  0  0  0  0  0
  -29.3832  -22.0242   20.7620 O   0  0  0  0  0  0  0  0  0  0  0  0
  -29.2052  -17.4328   21.9487 O   0  0  0  0  0  0  0  0  0  0  0  0
  -23.5392   -6.9002   24.0651 O   0  0  0  0  0  0  0  0  0  0  0  0
  -31.7272  -13.7831   19.5912 O   0  0  0  0  0  0  0  0  0  0  0  0
  -23.3263  -18.2005   25.2953 O   0  0  0  0  0  0  0  0  0  1  0  0
  -34.1021  -11.6722   15.0848 F   0  0  0  0  0  0  0  0  0  0  0  0
  -32.9739  -15.4209   17.7457 F   0  0  0  0  0  0  0  0  0  0  0  0
  1  2  1  0  0  0  0
  1  5  2  0  0  0  0
  2  6  2  0  0  0  0
  3  8  2  0  0  0  0
  3 17  1  0  0  0  0
  4  9  1  0  0  0  0
  4 17  2  0  0  0  0
  5 19  1  0  0  0  0
  6 21  1  0  0  0  0
  7 10  2  0  0  0  0
  7 20  1  0  0  0  0
  8 25  1  0  0  0  0
  9 25  2  0  0  0  0
 10 26  1  0  0  0  0
 11 12  2  0  0  0  0
 11 27  1  0  0  0  0
 12 28  1  0  0  0  0
 13 22  1  0  0  0  0
 13 26  2  0  0  0  0
 14 23  1  0  0  0  0
 14 31  2  0  0  0  0
 15 28  2  0  0  0  0
 15 29  1  0  0  0  0
 16 24  1  0  0  0  0
 16 66  2  0  0  0  0
 17 30  1  0  0  0  0
 18 30  1  0  0  0  0
 18 32  2  0  0  0  0
 18 35  1  0  0  0  0
 19 21  2  0  0  0  0
 19 40  1  0  0  0  0
 20 22  2  0  0  0  0
 20 41  1  0  0  0  0
 21 52  1  0  0  0  0
 22 42  1  0  0  0  0
 23 24  2  0  0  0  0
 23 55  1  0  0  0  0
 24 76  1  0  0  0  0
 25 83  1  0  0  0  0
 26 84  1  0  0  0  0
 27 29  2  0  0  0  0
 27 83  1  0  0  0  0
 28 85  1  0  0  0  0
 29 86  1  0  0  0  0
 30 67  2  0  0  0  0
 31 66  1  0  0  0  0
 31 69  1  0  0  0  0
 32 68  1  0  0  0  0
 32 72  1  0  0  0  0
 33 34  2  0  0  0  0
 33 43  1  0  0  0  0
 33 44  1  0  0  0  0
 34 84  1  0  0  0  0
 35 73  1  0  0  0  0
 35 78  2  0  0  0  0
 36 53  1  0  0  0  0
 36 74  1  0  0  0  0
 36 79  2  0  0  0  0
 37 63  1  0  0  0  0
 37 70  1  0  0  0  0
 37 80  2  0  0  0  0
 38 64  1  0  0  0  0
 38 75  1  0  0  0  0
 38 81  2  0  0  0  0
 39 71  1  0  0  0  0
 39 76  1  0  0  0  0
 39 82  2  0  0  0  0
 40 45  1  0  0  0  0
 41 53  1  0  0  0  0
 42 70  1  0  0  0  0
 43 49  1  0  0  0  0
 44 69  1  0  0  0  0
 45 47  1  0  0  0  0
 46 48  1  0  0  0  0
 46 50  1  0  0  0  0
 47 52  1  0  0  0  0
 48 54  1  0  0  0  0
 49 69  1  0  0  0  0
 50 71  1  0  0  0  0
 51 54  1  0  0  0  0
 51 71  1  0  0  0  0
 52 74  1  0  0  0  0
 53 70  1  0  0  0  0
 54 68  1  0  0  0  0
 56 62  1  0  0  0  0
 57 64  1  0  0  0  0
 58 65  1  0  0  0  0
 59 65  1  0  0  0  0
 60 65  1  0  0  0  0
 61 77  1  0  0  0  0
 62 76  1  0  0  0  0
 63 65  1  0  0  0  0
 63 75  1  0  0  0  0
 64 77  1  0  0  0  0
 67 68  1  0  0  0  0
M  CHG  1  77   1
M  ISO  4  34 101  39 100  76 100  84 101
M  END
> <Batch ID>
0104

> <Smiles>
CC[100N:0](c1cnc(N2CCC(=[101CH:1][101O:1]c3ccc4c(c3)CN(C(=O)C(NC(=O)C(C)NC)C(C)(C)C)C(C(=O)NC3CCCc5ccccc53)C4)C2)cc1C)[100C:0](=O)N1CCCC(n2nc(-c3ccc(Oc4ccc(F)cc4F)cc3)c(C(N)=O)c2N)C1

> <Shape>
0.211

> <Color>
0.110

> <Negative vol penalty>
0.000

$$$$

  -OEChem-04052301083D

 87 96  0     1  0  0  0  0  0999 V2000
  -28.3226  -11.3113   19.0550 C   0  0  0  0  0  0  0  0  0  0  0  0
  -27.6885  -11.9824   20.0957 C   0  0  0  0  0  0  0  0  0  0  0  0
  -24.8716  -31.1070   24.6845 C   0  0  0  0  0  0  0  0  0  0  0  0
  -26.0749  -29.1848   23.8514 C   0  0  0  0  0  0  0  0  0  0  0  0
  -29.5033  -11.8204   18.5158 C   0  0  0  0  0  0  0  0  0  0  0  0
  -28.2354  -13.1624   20.5985 C   0  0  0  0  0  0  0  0  0  0  0  0
  -24.7549  -16.7744   21.2949 C   0  0  0  0  0  0  0  0  0  0  0  0
  -19.8580  -20.9002   22.9179 C   0  0  0  0  0  0  0  0  0  0  0  0
  -20.0573  -19.9822   23.9490 C   0  0  0  0  0  0  0  0  0  0  0  0
  -25.8903  -31.3449   25.6071 C   0  0  0  0  0  0  0  0  0  0  0  0
  -27.0937  -29.4227   24.7739 C   0  0  0  0  0  0  0  0  0  0  0  0
  -23.9499  -16.6728   22.4287 C   0  0  0  0  0  0  0  0  0  0  0  0
  -28.9808  -32.7166   25.6067 C   0  0  0  0  0  0  0  0  0  0  0  0
  -29.4290  -34.0293   25.7534 C   0  0  0  0  0  0  0  0  0  0  0  0
  -25.3305  -18.3040   23.5477 C   0  0  0  0  0  0  0  0  0  0  0  0
  -22.0023  -21.9046   23.3976 C   0  0  0  0  0  0  0  0  0  0  0  0
  -28.7947  -33.9854   28.0843 C   0  0  0  0  0  0  0  0  0  0  0  0
  -24.9638  -30.0269   23.8067 C   0  0  0  0  0  0  0  0  0  0  0  0
  -23.8147  -30.2872   21.5440 C   0  0  0  0  0  0  0  0  0  0  0  0
  -30.0598  -13.0124   19.0059 C   0  0  0  0  0  0  0  0  0  0  0  0
  -25.8620  -17.6349   21.2828 C   0  0  0  0  0  0  0  0  0  0  0  0
  -29.4254  -13.6872   20.0663 C   0  0  0  0  0  0  0  0  0  0  0  0
  -26.1464  -18.4166   22.4116 C   0  0  0  0  0  0  0  0  0  0  0  0
  -20.8306  -21.8614   22.6421 C   0  0  0  0  0  0  0  0  0  0  0  0
  -22.2016  -20.9866   24.4288 C   0  0  0  0  0  0  0  0  0  0  0  0
  -21.2291  -20.0254   24.7045 C   0  0  0  0  0  0  0  0  0  0  0  0
  -27.0014  -30.5028   25.6518 C   0  0  0  0  0  0  0  0  0  0  0  0
  -24.2393  -17.4355   23.5563 C   0  0  0  0  0  0  0  0  0  0  0  0
  -28.4395  -32.0383   26.6988 C   0  0  0  0  0  0  0  0  0  0  0  0
  -29.3360  -34.6637   26.9922 C   0  0  0  0  0  0  0  0  0  0  0  0
  -28.3465  -32.6727   27.9375 C   0  0  0  0  0  0  0  0  0  0  0  0
  -23.9115  -29.7803   22.8538 C   0  0  0  0  0  0  0  0  0  0  0  0
  -22.6420  -29.7624   21.0585 C   0  0  0  0  0  0  0  0  0  0  0  0
  -21.5924  -19.4294   27.1078 C   0  0  0  0  0  0  0  0  0  0  0  0
  -24.7054  -31.1547   20.8300 C   0  0  0  0  0  0  0  0  0  0  0  0
  -29.0000  -17.2483   20.9554 C   0  0  0  0  0  0  0  0  0  0  0  0
  -29.0054  -20.4921   20.9463 C   0  0  0  0  0  0  0  0  0  0  0  0
  -27.4447  -23.3944   21.8339 C   0  0  0  0  0  0  0  0  0  0  0  0
  -19.4873  -24.8640   22.4388 C   0  0  0  0  0  0  0  0  0  0  0  0
  -31.3630  -13.4986   18.4229 C   0  0  0  0  0  0  0  0  0  0  0  0
  -26.7048  -17.7528   20.0425 C   0  0  0  0  0  0  0  0  0  0  0  0
  -27.3115  -19.3706   22.4425 C   0  0  0  0  0  0  0  0  0  0  0  0
  -21.4653  -18.1693   27.9244 C   0  0  0  0  0  0  0  0  0  0  0  0
  -31.6762  -14.9539   18.7609 C   0  0  0  0  0  0  0  0  0  0  0  0
  -21.7208  -17.0630   26.9232 C   0  0  0  0  0  0  0  0  0  0  0  0
  -18.3432  -28.2351   22.5005 C   0  0  0  0  0  0  0  0  0  0  0  0
  -31.4416  -15.2197   20.2446 C   0  0  0  0  0  0  0  0  0  0  0  0
  -19.6319  -29.0591   22.4798 C   0  0  0  0  0  0  0  0  0  0  0  0
  -18.5029  -26.9583   23.3228 C   0  0  0  0  0  0  0  0  0  0  0  0
  -20.9329  -26.9333   22.9125 C   0  0  0  0  0  0  0  0  0  0  0  0
  -29.9743  -14.9832   20.6222 C   0  0  1  0  0  0  0  0  0  0  0  0
  -28.1090  -18.2793   20.3222 C   0  0  1  0  0  0  0  0  0  0  0  0
  -20.8380  -28.2030   22.0492 C   0  0  2  0  0  0  0  0  0  0  0  0
  -21.2511  -17.6376   25.5863 C   0  0  2  0  0  0  0  0  0  0  0  0
  -23.6528  -22.4179   25.8889 C   0  0  0  0  0  0  0  0  0  0  0  0
  -27.7099  -25.8873   21.7229 C   0  0  0  0  0  0  0  0  0  0  0  0
  -31.0678  -20.3703   23.1917 C   0  0  0  0  0  0  0  0  0  0  0  0
  -30.5839  -22.7792   23.6726 C   0  0  0  0  0  0  0  0  0  0  0  0
  -31.5166  -22.1145   21.4565 C   0  0  0  0  0  0  0  0  0  0  0  0
  -24.9688  -23.7032   20.2422 C   0  0  0  0  0  0  0  0  0  0  0  0
  -23.4651  -21.0582   25.2237 C   0  0  0  0  0  0  0  0  0  0  0  0
  -20.6163  -22.8444   21.5411 C   0  0  0  0  0  0  0  0  0  0  0  0
  -22.0804  -17.0156   24.4611 C   0  0  0  0  0  0  0  0  0  1  0  0
  -29.1105  -21.5640   22.0042 C   0  0  1  0  0  0  0  0  0  0  0  0
  -27.1348  -24.6536   21.0447 C   0  0  2  0  0  0  0  0  0  0  0  0
  -30.5488  -21.6876   22.5816 C   0  0  0  0  0  0  0  0  0  0  0  0
  -22.8822  -28.9941   23.1798 N   0  0  0  0  0  0  0  0  0  0  0  0
  -22.1274  -29.0030   22.0679 N   0  0  0  0  0  0  0  0  0  0  0  0
  -21.4140  -19.0778   25.7548 N   0  0  0  0  0  0  0  0  0  0  0  0
  -28.1095  -19.4457   21.2075 N   0  0  0  0  0  0  0  0  0  0  0  0
  -19.6633  -26.1915   22.8629 N   0  0  0  0  0  0  0  0  0  0  0  0
  -22.0109  -29.8811   19.8711 N   0  0  0  0  0  0  0  0  0  0  0  0
  -25.8654  -31.6011   21.4777 N   0  0  0  0  0  0  0  0  0  0  0  0
  -29.1576  -16.1013   20.2010 N   0  0  0  0  0  0  0  0  0  0  0  0
  -28.6035  -22.7891   21.3957 N   0  0  0  0  0  0  0  0  0  0  0  0
  -20.6375  -24.2112   22.0126 N   0  0  0  0  0  0  0  0  0  0  0  0
  -25.6612  -24.8332   20.9135 N   0  3  0  0  0  0  0  0  0  0  0  0
  -21.7234  -20.5337   27.6175 O   0  0  0  0  0  0  0  0  0  0  0  0
  -24.4710  -31.5363   19.6583 O   0  0  0  0  0  0  0  0  0  0  0  0
  -29.5081  -17.4771   22.0468 O   0  0  0  0  0  0  0  0  0  0  0  0
  -29.6876  -20.5837   19.9227 O   0  0  0  0  0  0  0  0  0  0  0  0
  -26.7321  -22.9903   22.7502 O   0  0  0  0  0  0  0  0  0  0  0  0
  -18.3858  -24.3040   22.4347 O   0  0  0  0  0  0  0  0  0  0  0  0
  -27.9958  -30.7348   26.5517 O   0  0  0  0  0  0  0  0  0  0  0  0
  -23.4556  -17.3378   24.6645 O   0  0  0  0  0  0  0  0  0  1  0  0
  -29.7678  -35.9238   27.1332 F   0  0  0  0  0  0  0  0  0  0  0  0
  -27.8285  -32.0257   28.9906 F   0  0  0  0  0  0  0  0  0  0  0  0
  1  2  1  0  0  0  0
  1  5  2  0  0  0  0
  2  6  2  0  0  0  0
  3 10  2  0  0  0  0
  3 18  1  0  0  0  0
  4 11  1  0  0  0  0
  4 18  2  0  0  0  0
  5 20  1  0  0  0  0
  6 22  1  0  0  0  0
  7 12  2  0  0  0  0
  7 21  1  0  0  0  0
  8  9  2  0  0  0  0
  8 24  1  0  0  0  0
  9 26  1  0  0  0  0
 10 27  1  0  0  0  0
 11 27  2  0  0  0  0
 12 28  1  0  0  0  0
 13 14  2  0  0  0  0
 13 29  1  0  0  0  0
 14 30  1  0  0  0  0
 15 23  1  0  0  0  0
 15 28  2  0  0  0  0
 16 24  2  0  0  0  0
 16 25  1  0  0  0  0
 17 30  2  0  0  0  0
 17 31  1  0  0  0  0
 18 32  1  0  0  0  0
 19 32  1  0  0  0  0
 19 33  2  0  0  0  0
 19 35  1  0  0  0  0
 20 22  2  0  0  0  0
 20 40  1  0  0  0  0
 21 23  2  0  0  0  0
 21 41  1  0  0  0  0
 22 51  1  0  0  0  0
 23 42  1  0  0  0  0
 24 62  1  0  0  0  0
 25 26  2  0  0  0  0
 25 61  1  0  0  0  0
 26 69  1  0  0  0  0
 27 84  1  0  0  0  0
 28 85  1  0  0  0  0
 29 31  2  0  0  0  0
 29 84  1  0  0  0  0
 30 86  1  0  0  0  0
 31 87  1  0  0  0  0
 32 67  2  0  0  0  0
 33 68  1  0  0  0  0
 33 72  1  0  0  0  0
 34 43  1  0  0  0  0
 34 69  1  0  0  0  0
 34 78  2  0  0  0  0
 35 73  1  0  0  0  0
 35 79  2  0  0  0  0
 36 52  1  0  0  0  0
 36 74  1  0  0  0  0
 36 80  2  0  0  0  0
 37 64  1  0  0  0  0
 37 70  1  0  0  0  0
 37 81  2  0  0  0  0
 38 65  1  0  0  0  0
 38 75  1  0  0  0  0
 38 82  2  0  0  0  0
 39 71  1  0  0  0  0
 39 76  1  0  0  0  0
 39 83  2  0  0  0  0
 40 44  1  0  0  0  0
 41 52  1  0  0  0  0
 42 70  1  0  0  0  0
 43 45  1  0  0  0  0
 44 47  1  0  0  0  0
 45 54  1  0  0  0  0
 46 48  1  0  0  0  0
 46 49  1  0  0  0  0
 47 51  1  0  0  0  0
 48 53  1  0  0  0  0
 49 71  1  0  0  0  0
 50 53  1  0  0  0  0
 50 71  1  0  0  0  0
 51 74  1  0  0  0  0
 52 70  1  0  0  0  0
 53 68  1  0  0  0  0
 54 63  1  0  0  0  0
 54 69  1  0  0  0  0
 55 61  1  0  0  0  0
 56 65  1  0  0  0  0
 57 66  1  0  0  0  0
 58 66  1  0  0  0  0
 59 66  1  0  0  0  0
 60 77  1  0  0  0  0
 62 76  1  0  0  0  0
 63 85  1  0  0  0  0
 64 66  1  0  0  0  0
 64 75  1  0  0  0  0
 65 77  1  0  0  0  0
 67 68  1  0  0  0  0
M  CHG  1  77   1
M  ISO  4  39 100  63 101  76 100  85 101
M  END
> <Batch ID>
0104

> <Smiles>
CCc1cc(C[100NH:0][100C:0](=O)N2CCCC(n3nc(-c4ccc(Oc5ccc(F)cc5F)cc4)c(C(N)=O)c3N)C2)ccc1N1C(=O)CCC1[101CH2:1][101O:1]c1ccc2c(c1)CN(C(=O)C(NC(=O)C(C)NC)C(C)(C)C)C(C(=O)NC1CCCc3ccccc31)C2

> <Shape>
0.230

> <Color>
0.064

> <Negative vol penalty>
0.000

$$$$

  -OEChem-04052301083D

 83 91  0     1  0  0  0  0  0999 V2000
  -36.5338  -18.2116   24.1274 C   0  0  0  0  0  0  0  0  0  0  0  0
  -35.4359  -18.7980   23.5059 C   0  0  0  0  0  0  0  0  0  0  0  0
  -25.7403  -26.6611   13.9505 C   0  0  0  0  0  0  0  0  0  0  0  0
  -20.1634  -26.4835   22.6961 C   0  0  0  0  0  0  0  0  0  0  0  0
  -19.7146  -28.5588   21.5434 C   0  0  0  0  0  0  0  0  0  0  0  0
  -25.8499  -27.8491   14.6731 C   0  0  0  0  0  0  0  0  0  0  0  0
  -36.8417  -16.8745   23.8798 C   0  0  0  0  0  0  0  0  0  0  0  0
  -34.6459  -18.0478   22.6355 C   0  0  0  0  0  0  0  0  0  0  0  0
  -29.6916  -18.7402   23.4234 C   0  0  0  0  0  0  0  0  0  0  0  0
  -26.3386  -25.4956   14.4296 C   0  0  0  0  0  0  0  0  0  0  0  0
  -19.1365  -26.7623   23.5979 C   0  0  0  0  0  0  0  0  0  0  0  0
  -18.6876  -28.8376   22.4452 C   0  0  0  0  0  0  0  0  0  0  0  0
  -29.1240  -19.9096   22.9192 C   0  0  0  0  0  0  0  0  0  0  0  0
  -18.3948  -30.0080   25.6035 C   0  0  0  0  0  0  0  0  0  0  0  0
  -18.3248  -31.2990   26.1270 C   0  0  0  0  0  0  0  0  0  0  0  0
  -27.1562  -26.7064   16.3538 C   0  0  0  0  0  0  0  0  0  0  0  0
  -28.2743  -18.6749   21.0290 C   0  0  0  0  0  0  0  0  0  0  0  0
  -16.1156  -31.5612   25.1846 C   0  0  0  0  0  0  0  0  0  0  0  0
  -20.4526  -27.3818   21.6689 C   0  0  0  0  0  0  0  0  0  0  0  0
  -26.5578  -27.8718   15.8747 C   0  0  0  0  0  0  0  0  0  0  0  0
  -21.4100  -26.3961   19.5196 C   0  0  0  0  0  0  0  0  0  0  0  0
  -36.0494  -16.1049   23.0135 C   0  0  0  0  0  0  0  0  0  0  0  0
  -29.5639  -17.5295   22.7274 C   0  0  0  0  0  0  0  0  0  0  0  0
  -34.9443  -16.6995   22.3751 C   0  0  0  0  0  0  0  0  0  0  0  0
  -28.8390  -17.4911   21.5278 C   0  0  0  0  0  0  0  0  0  0  0  0
  -18.3985  -27.9393   23.4724 C   0  0  0  0  0  0  0  0  0  0  0  0
  -27.0466  -25.5183   15.6312 C   0  0  0  0  0  0  0  0  0  0  0  0
  -28.4177  -19.8776   21.7203 C   0  0  0  0  0  0  0  0  0  0  0  0
  -17.3254  -29.4937   24.8705 C   0  0  0  0  0  0  0  0  0  0  0  0
  -17.1852  -32.0756   25.9176 C   0  0  0  0  0  0  0  0  0  0  0  0
  -16.1858  -30.2702   24.6610 C   0  0  0  0  0  0  0  0  0  0  0  0
  -21.5137  -27.0947   20.7374 C   0  0  0  0  0  0  0  0  0  0  0  0
  -22.6876  -26.3933   19.0155 C   0  0  0  0  0  0  0  0  0  0  0  0
  -26.6722  -29.1103   16.6287 C   0  0  0  0  0  0  0  0  0  0  0  0
  -20.2614  -25.8028   18.8996 C   0  0  0  0  0  0  0  0  0  0  0  0
  -27.4166  -29.1684   17.9077 C   0  0  0  0  0  0  0  0  0  0  0  0
  -31.5972  -15.4913   21.3801 C   0  0  0  0  0  0  0  0  0  0  0  0
  -28.9199  -13.7114   20.9483 C   0  0  0  0  0  0  0  0  0  0  0  0
  -25.5217  -13.6155   20.6485 C   0  0  0  0  0  0  0  0  0  0  0  0
  -36.4494  -14.6766   22.7402 C   0  0  0  0  0  0  0  0  0  0  0  0
  -30.1592  -16.2717   23.2983 C   0  0  0  0  0  0  0  0  0  0  0  0
  -28.6557  -16.2129   20.7525 C   0  0  0  0  0  0  0  0  0  0  0  0
  -35.3423  -13.8468   22.0951 C   0  0  0  0  0  0  0  0  0  0  0  0
  -27.0836  -27.6696   21.1480 C   0  0  0  0  0  0  0  0  0  0  0  0
  -34.6998  -14.6160   20.9451 C   0  0  0  0  0  0  0  0  0  0  0  0
  -25.5890  -27.3652   21.2443 C   0  0  0  0  0  0  0  0  0  0  0  0
  -27.3430  -28.9497   20.3603 C   0  0  0  0  0  0  0  0  0  0  0  0
  -25.2388  -28.6450   19.0844 C   0  0  0  0  0  0  0  0  0  0  0  0
  -34.0487  -15.9117   21.4438 C   0  0  1  0  0  0  0  0  0  0  0  0
  -30.4048  -15.1955   22.2452 C   0  0  1  0  0  0  0  0  0  0  0  0
  -24.9388  -27.3442   19.8495 C   0  0  2  0  0  0  0  0  0  0  0  0
  -23.6223  -12.0212   20.2644 C   0  0  0  0  0  0  0  0  0  0  0  0
  -29.6501  -13.5579   17.9897 C   0  0  0  0  0  0  0  0  0  0  0  0
  -27.3073  -12.8092   17.5219 C   0  0  0  0  0  0  0  0  0  0  0  0
  -28.7940  -11.4202   18.9652 C   0  0  0  0  0  0  0  0  0  0  0  0
  -24.2878  -14.2754   23.2564 C   0  0  0  0  0  0  0  0  0  0  0  0
  -27.7204  -22.7739   17.9031 C   0  0  0  0  0  0  0  0  0  0  0  0
  -27.8212  -22.5901   19.4133 C   0  0  0  0  0  0  0  0  0  0  0  0
  -27.7500  -24.2458   17.5132 C   0  0  0  0  0  0  0  0  0  0  0  0
  -27.7486  -21.1216   19.8070 C   0  0  0  0  0  0  0  0  0  1  0  0
  -27.8753  -13.5972   19.8645 C   0  0  1  0  0  0  0  0  0  0  0  0
  -24.4773  -12.7297   21.3035 C   0  0  2  0  0  0  0  0  0  0  0  0
  -28.4116  -12.8707   18.5987 C   0  0  0  0  0  0  0  0  0  0  0  0
  -22.7589  -27.5058   20.9916 N   0  0  0  0  0  0  0  0  0  0  0  0
  -26.1399  -30.2375   16.2401 N   0  0  0  0  0  0  0  0  0  0  0  0
  -23.4493  -27.0640   19.9266 N   0  0  0  0  0  0  0  0  0  0  0  0
  -26.6825  -28.9115   19.0571 N   0  0  0  0  0  0  0  0  0  0  0  0
  -29.2620  -15.0109   21.3486 N   0  0  0  0  0  0  0  0  0  0  0  0
  -23.2226  -25.8826   17.8862 N   0  0  0  0  0  0  0  0  0  0  0  0
  -19.0254  -25.8977   19.5533 N   0  0  0  0  0  0  0  0  0  0  0  0
  -32.7805  -15.6275   22.0805 N   0  0  0  0  0  0  0  0  0  0  0  0
  -26.7190  -12.9532   20.4782 N   0  0  0  0  0  0  0  0  0  0  0  0
  -23.5816  -13.5421   22.1744 N   0  3  0  0  0  0  0  0  0  0  0  0
  -20.3324  -25.1918   17.8063 O   0  0  0  0  0  0  0  0  0  0  0  0
  -28.6067  -29.4388   17.8134 O   0  0  0  0  0  0  0  0  0  0  0  0
  -31.4544  -15.5874   20.1668 O   0  0  0  0  0  0  0  0  0  0  0  0
  -29.4090  -12.6853   21.4274 O   0  0  0  0  0  0  0  0  0  0  0  0
  -25.2967  -14.7775   20.3174 O   0  0  0  0  0  0  0  0  0  0  0  0
  -17.3962  -28.2115   24.3520 O   0  0  0  0  0  0  0  0  0  0  0  0
  -27.6345  -24.3734   16.1022 O   0  0  0  0  0  0  0  0  0  0  0  0
  -27.8633  -21.0177   21.2256 O   0  0  0  0  0  0  0  0  0  1  0  0
  -17.1174  -33.3147   26.4218 F   0  0  0  0  0  0  0  0  0  0  0  0
  -15.1547  -29.7811   23.9587 F   0  0  0  0  0  0  0  0  0  0  0  0
  1  2  1  0  0  0  0
  1  7  2  0  0  0  0
  2  8  2  0  0  0  0
  3  6  1  0  0  0  0
  3 10  2  0  0  0  0
  4 11  2  0  0  0  0
  4 19  1  0  0  0  0
  5 12  1  0  0  0  0
  5 19  2  0  0  0  0
  6 20  2  0  0  0  0
  7 22  1  0  0  0  0
  8 24  1  0  0  0  0
  9 13  2  0  0  0  0
  9 23  1  0  0  0  0
 10 27  1  0  0  0  0
 11 26  1  0  0  0  0
 12 26  2  0  0  0  0
 13 28  1  0  0  0  0
 14 15  2  0  0  0  0
 14 29  1  0  0  0  0
 15 30  1  0  0  0  0
 16 20  1  0  0  0  0
 16 27  2  0  0  0  0
 17 25  1  0  0  0  0
 17 28  2  0  0  0  0
 18 30  2  0  0  0  0
 18 31  1  0  0  0  0
 19 32  1  0  0  0  0
 20 34  1  0  0  0  0
 21 32  1  0  0  0  0
 21 33  2  0  0  0  0
 21 35  1  0  0  0  0
 22 24  2  0  0  0  0
 22 40  1  0  0  0  0
 23 25  2  0  0  0  0
 23 41  1  0  0  0  0
 24 49  1  0  0  0  0
 25 42  1  0  0  0  0
 26 79  1  0  0  0  0
 27 80  1  0  0  0  0
 28 81  1  0  0  0  0
 29 31  2  0  0  0  0
 29 79  1  0  0  0  0
 30 82  1  0  0  0  0
 31 83  1  0  0  0  0
 32 64  2  0  0  0  0
 33 66  1  0  0  0  0
 33 69  1  0  0  0  0
 34 36  1  0  0  0  0
 34 65  2  0  0  0  0
 35 70  1  0  0  0  0
 35 74  2  0  0  0  0
 36 67  1  0  0  0  0
 36 75  2  0  0  0  0
 37 50  1  0  0  0  0
 37 71  1  0  0  0  0
 37 76  2  0  0  0  0
 38 61  1  0  0  0  0
 38 68  1  0  0  0  0
 38 77  2  0  0  0  0
 39 62  1  0  0  0  0
 39 72  1  0  0  0  0
 39 78  2  0  0  0  0
 40 43  1  0  0  0  0
 41 50  1  0  0  0  0
 42 68  1  0  0  0  0
 43 45  1  0  0  0  0
 44 46  1  0  0  0  0
 44 47  1  0  0  0  0
 45 49  1  0  0  0  0
 46 51  1  0  0  0  0
 47 67  1  0  0  0  0
 48 51  1  0  0  0  0
 48 67  1  0  0  0  0
 49 71  1  0  0  0  0
 50 68  1  0  0  0  0
 51 66  1  0  0  0  0
 52 62  1  0  0  0  0
 53 63  1  0  0  0  0
 54 63  1  0  0  0  0
 55 63  1  0  0  0  0
 56 73  1  0  0  0  0
 57 58  1  0  0  0  0
 57 59  1  0  0  0  0
 58 60  1  0  0  0  0
 59 80  1  0  0  0  0
 60 81  1  0  0  0  0
 61 63  1  0  0  0  0
 61 72  1  0  0  0  0
 62 73  1  0  0  0  0
 64 66  1  0  0  0  0
M  CHG  1  73   1
M  ISO  4  34 100  36 100  60 101  81 101
M  END
> <Batch ID>
0104

> <Smiles>
CNC(C)C(=O)NC(C(=O)N1Cc2cc([101O:1][101CH2:1]CCCOc3cccc([100C:0](=N)[100C:0](=O)N4CCCC(n5nc(-c6ccc(Oc7ccc(F)cc7F)cc6)c(C(N)=O)c5N)C4)c3)ccc2CC1C(=O)NC1CCCc2ccccc21)C(C)(C)C

> <Shape>
0.215

> <Color>
0.062

> <Negative vol penalty>
0.000

$$$$

  -OEChem-04052301083D

 87 96  0     1  0  0  0  0  0999 V2000
  -22.2799  -31.9323   26.6102 C   0  0  0  0  0  0  0  0  0  0  0  0
  -23.5832  -31.4702   26.4583 C   0  0  0  0  0  0  0  0  0  0  0  0
  -23.6027   -9.6821   20.8216 C   0  0  0  0  0  0  0  0  0  0  0  0
  -24.1994  -10.3751   23.0578 C   0  0  0  0  0  0  0  0  0  0  0  0
  -21.2488  -31.3650   25.8626 C   0  0  0  0  0  0  0  0  0  0  0  0
  -23.8561  -30.4398   25.5593 C   0  0  0  0  0  0  0  0  0  0  0  0
  -28.9718  -28.1165   21.1153 C   0  0  0  0  0  0  0  0  0  0  0  0
  -32.6704  -18.1315   22.4869 C   0  0  0  0  0  0  0  0  0  0  0  0
  -32.7361  -16.7383   22.4722 C   0  0  0  0  0  0  0  0  0  0  0  0
  -23.0190   -8.5244   21.3360 C   0  0  0  0  0  0  0  0  0  0  0  0
  -23.6157   -9.2174   23.5723 C   0  0  0  0  0  0  0  0  0  0  0  0
  -29.7073  -26.9680   20.8263 C   0  0  0  0  0  0  0  0  0  0  0  0
  -24.0461   -5.5134   22.4775 C   0  0  0  0  0  0  0  0  0  0  0  0
  -24.3238   -4.3074   21.8340 C   0  0  0  0  0  0  0  0  0  0  0  0
  -27.8589  -26.1177   19.5303 C   0  0  0  0  0  0  0  0  0  0  0  0
  -30.6626  -18.0227   23.8264 C   0  0  0  0  0  0  0  0  0  0  0  0
  -21.9692   -4.0043   21.3857 C   0  0  0  0  0  0  0  0  0  0  0  0
  -24.1930  -10.6074   21.6825 C   0  0  0  0  0  0  0  0  0  0  0  0
  -24.1721  -13.0459   20.9334 C   0  0  0  0  0  0  0  0  0  0  0  0
  -21.5106  -30.3337   24.9469 C   0  0  0  0  0  0  0  0  0  0  0  0
  -27.6680  -28.2697   20.6222 C   0  0  0  0  0  0  0  0  0  0  0  0
  -22.8273  -29.8572   24.7997 C   0  0  0  0  0  0  0  0  0  0  0  0
  -27.1099  -27.2703   19.8124 C   0  0  0  0  0  0  0  0  0  0  0  0
  -31.6337  -18.7737   23.1641 C   0  0  0  0  0  0  0  0  0  0  0  0
  -31.7651  -15.9873   23.1345 C   0  0  0  0  0  0  0  0  0  0  0  0
  -23.0255   -8.2921   22.7114 C   0  0  0  0  0  0  0  0  0  0  0  0
  -29.1499  -25.9670   20.0361 C   0  0  0  0  0  0  0  0  0  0  0  0
  -22.7299   -5.9648   22.5752 C   0  0  0  0  0  0  0  0  0  0  0  0
  -23.2854   -3.5529   21.2881 C   0  0  0  0  0  0  0  0  0  0  0  0
  -30.7283  -16.6294   23.8116 C   0  0  0  0  0  0  0  0  0  0  0  0
  -21.6914   -5.2103   22.0293 C   0  0  0  0  0  0  0  0  0  0  0  0
  -24.7966  -11.8032   21.1516 C   0  0  0  0  0  0  0  0  0  0  0  0
  -25.1657  -13.8443   20.4218 C   0  0  0  0  0  0  0  0  0  0  0  0
  -22.8152  -13.4430   21.1719 C   0  0  0  0  0  0  0  0  0  0  0  0
  -24.7934  -28.5851   21.9415 C   0  0  0  0  0  0  0  0  0  0  0  0
  -23.8656  -29.0634   18.8702 C   0  0  0  0  0  0  0  0  0  0  0  0
  -24.4834  -28.5816   15.5486 C   0  0  0  0  0  0  0  0  0  0  0  0
  -31.1352  -13.7156   20.8677 C   0  0  0  0  0  0  0  0  0  0  0  0
  -20.3561  -29.7195   24.1956 C   0  0  0  0  0  0  0  0  0  0  0  0
  -26.8977  -29.5266   20.9209 C   0  0  0  0  0  0  0  0  0  0  0  0
  -25.7217  -27.3954   19.2417 C   0  0  0  0  0  0  0  0  0  0  0  0
  -20.7873  -28.8868   22.9911 C   0  0  0  0  0  0  0  0  0  0  0  0
  -29.2095  -13.6212   17.8745 C   0  0  0  0  0  0  0  0  0  0  0  0
  -21.9377  -27.9587   23.3679 C   0  0  0  0  0  0  0  0  0  0  0  0
  -27.8038  -13.2567   18.3553 C   0  0  0  0  0  0  0  0  0  0  0  0
  -29.6267  -22.2011   20.9615 C   0  0  0  0  0  0  0  0  0  0  0  0
  -30.2869  -12.9051   18.6860 C   0  0  0  0  0  0  0  0  0  0  0  0
  -28.7793  -12.7214   20.6270 C   0  0  0  0  0  0  0  0  0  0  0  0
  -30.0481  -20.7669   21.2218 C   0  0  0  0  0  0  0  0  0  0  0  0
  -23.1670  -28.7581   23.8166 C   0  0  1  0  0  0  0  0  0  0  0  0
  -25.3882  -29.3473   20.7913 C   0  0  1  0  0  0  0  0  0  0  0  0
  -30.9410  -22.9105   20.6678 C   0  0  2  0  0  0  0  0  0  0  0  0
  -27.6602  -13.4622   19.8753 C   0  0  2  0  0  0  0  0  0  0  0  0
  -31.8665  -22.3339   21.7397 C   0  0  2  0  0  0  0  0  0  0  0  0
  -33.3443  -22.4318   21.3985 C   0  0  0  0  0  0  0  0  0  0  0  0
  -23.5264  -29.0561   13.2779 C   0  0  0  0  0  0  0  0  0  0  0  0
  -21.8003  -26.8555   19.2819 C   0  0  0  0  0  0  0  0  0  0  0  0
  -21.5508  -26.7209   16.7944 C   0  0  0  0  0  0  0  0  0  0  0  0
  -20.9720  -28.8313   17.9918 C   0  0  0  0  0  0  0  0  0  0  0  0
  -26.8544  -30.1637   14.7522 C   0  0  0  0  0  0  0  0  0  0  0  0
  -31.8371  -14.4976   23.1160 C   0  0  0  0  0  0  0  0  0  0  0  0
  -31.5628  -20.2723   23.1797 C   0  0  0  0  0  0  0  0  0  0  0  0
  -30.8168  -24.4180   20.7272 C   0  0  0  0  0  0  0  0  0  1  0  0
  -23.4005  -28.1735   17.7430 C   0  0  1  0  0  0  0  0  0  0  0  0
  -24.4659  -29.5399   14.3714 C   0  0  2  0  0  0  0  0  0  0  0  0
  -21.9564  -27.6418   17.9650 C   0  0  0  0  0  0  0  0  0  0  0  0
  -26.0869  -11.8070   20.8067 N   0  0  0  0  0  0  0  0  0  0  0  0
  -26.2813  -13.0618   20.3665 N   0  0  0  0  0  0  0  0  0  0  0  0
  -25.0061  -28.6401   19.5673 N   0  0  0  0  0  0  0  0  0  0  0  0
  -30.0946  -13.1417   20.1188 N   0  0  0  0  0  0  0  0  0  0  0  0
  -25.1851  -15.1324   20.0182 N   0  0  0  0  0  0  0  0  0  0  0  0
  -21.9257  -12.4980   21.7013 N   0  0  0  0  0  0  0  0  0  0  0  0
  -23.8627  -29.3014   22.6697 N   0  0  0  0  0  0  0  0  0  0  0  0
  -23.5712  -28.9451   16.5167 N   0  0  0  0  0  0  0  0  0  0  0  0
  -30.8680  -13.9115   22.2171 N   0  0  0  0  0  0  0  0  0  0  0  0
  -31.4457  -20.8689   21.8100 N   0  3  1  0  0  0  0  0  0  0  0  0
  -25.8324  -29.6734   13.7919 N   0  3  0  0  0  0  0  0  0  0  0  0
  -22.3996  -14.5967   20.9077 O   0  0  0  0  0  0  0  0  0  0  0  0
  -25.1511  -27.4321   22.1518 O   0  0  0  0  0  0  0  0  0  0  0  0
  -23.2442  -30.0998   19.1183 O   0  0  0  0  0  0  0  0  0  0  0  0
  -25.2288  -27.6058   15.6022 O   0  0  0  0  0  0  0  0  0  0  0  0
  -32.2200  -14.0348   20.3695 O   0  0  0  0  0  0  0  0  0  0  0  0
  -22.4558   -7.1626   23.2137 O   0  0  0  0  0  0  0  0  0  0  0  0
  -29.8654  -24.8447   19.7530 O   0  0  0  0  0  0  0  0  0  1  0  0
  -23.5524   -2.3956   20.6688 F   0  0  0  0  0  0  0  0  0  0  0  0
  -29.7902  -15.9160   24.4500 F   0  0  0  0  0  0  0  0  0  0  0  0
  -20.4251   -5.6393   22.1190 F   0  0  0  0  0  0  0  0  0  0  0  0
  1  2  1  0  0  0  0
  1  5  2  0  0  0  0
  2  6  2  0  0  0  0
  3 10  2  0  0  0  0
  3 18  1  0  0  0  0
  4 11  1  0  0  0  0
  4 18  2  0  0  0  0
  5 20  1  0  0  0  0
  6 22  1  0  0  0  0
  7 12  2  0  0  0  0
  7 21  1  0  0  0  0
  8  9  2  0  0  0  0
  8 24  1  0  0  0  0
  9 25  1  0  0  0  0
 10 26  1  0  0  0  0
 11 26  2  0  0  0  0
 12 27  1  0  0  0  0
 13 14  2  0  0  0  0
 13 28  1  0  0  0  0
 14 29  1  0  0  0  0
 15 23  1  0  0  0  0
 15 27  2  0  0  0  0
 16 24  2  0  0  0  0
 16 30  1  0  0  0  0
 17 29  2  0  0  0  0
 17 31  1  0  0  0  0
 18 32  1  0  0  0  0
 19 32  1  0  0  0  0
 19 33  2  0  0  0  0
 19 34  1  0  0  0  0
 20 22  2  0  0  0  0
 20 39  1  0  0  0  0
 21 23  2  0  0  0  0
 21 40  1  0  0  0  0
 22 50  1  0  0  0  0
 23 41  1  0  0  0  0
 24 62  1  0  0  0  0
 25 30  2  0  0  0  0
 25 61  1  0  0  0  0
 26 83  1  0  0  0  0
 27 84  1  0  0  0  0
 28 31  2  0  0  0  0
 28 83  1  0  0  0  0
 29 85  1  0  0  0  0
 30 86  1  0  0  0  0
 31 87  1  0  0  0  0
 32 67  2  0  0  0  0
 33 68  1  0  0  0  0
 33 71  1  0  0  0  0
 34 72  1  0  0  0  0
 34 78  2  0  0  0  0
 35 51  1  0  0  0  0
 35 73  1  0  0  0  0
 35 79  2  0  0  0  0
 36 64  1  0  0  0  0
 36 69  1  0  0  0  0
 36 80  2  0  0  0  0
 37 65  1  0  0  0  0
 37 74  1  0  0  0  0
 37 81  2  0  0  0  0
 38 70  1  0  0  0  0
 38 75  1  0  0  0  0
 38 82  2  0  0  0  0
 39 42  1  0  0  0  0
 40 51  1  0  0  0  0
 41 69  1  0  0  0  0
 42 44  1  0  0  0  0
 43 45  1  0  0  0  0
 43 47  1  0  0  0  0
 44 50  1  0  0  0  0
 45 53  1  0  0  0  0
 46 49  1  0  0  0  0
 46 52  1  0  0  0  0
 47 70  1  0  0  0  0
 48 53  1  0  0  0  0
 48 70  1  0  0  0  0
 49 76  1  0  0  0  0
 50 73  1  0  0  0  0
 51 69  1  0  0  0  0
 52 54  1  0  0  0  0
 52 63  1  0  0  0  0
 53 68  1  0  0  0  0
 54 55  1  0  0  0  0
 54 76  1  0  0  0  0
 56 65  1  0  0  0  0
 57 66  1  0  0  0  0
 58 66  1  0  0  0  0
 59 66  1  0  0  0  0
 60 77  1  0  0  0  0
 61 75  1  0  0  0  0
 62 76  1  0  0  0  0
 63 84  1  0  0  0  0
 64 66  1  0  0  0  0
 64 74  1  0  0  0  0
 65 77  1  0  0  0  0
 67 68  1  0  0  0  0
M  CHG  2  76   1  77   1
M  ISO  4  38 100  63 101  75 100  84 101
M  END
> <Batch ID>
0104

> <Smiles>
CNC(C)C(=O)NC(C(=O)N1Cc2cc([101O:1][101CH2:1]C3CCN(Cc4ccc(C[100NH:0][100C:0](=O)N5CCCC(n6nc(-c7ccc(Oc8ccc(F)cc8F)cc7)c(C(N)=O)c6N)C5)c(F)c4)C3C)ccc2CC1C(=O)NC1CCCc2ccccc21)C(C)(C)C

> <Shape>
0.285

> <Color>
0.165

> <Negative vol penalty>
0.000

$$$$

  -OEChem-04052301083D

 84 93  0     1  0  0  0  0  0999 V2000
  -22.1571  -27.5976   11.0093 C   0  0  0  0  0  0  0  0  0  0  0  0
  -22.6735  -26.6830   11.9215 C   0  0  0  0  0  0  0  0  0  0  0  0
  -23.0511   -9.8666   19.9686 C   0  0  0  0  0  0  0  0  0  0  0  0
  -23.8198   -9.8888   22.2590 C   0  0  0  0  0  0  0  0  0  0  0  0
  -22.2473  -28.9647   11.2676 C   0  0  0  0  0  0  0  0  0  0  0  0
  -23.2813  -27.1350   13.0922 C   0  0  0  0  0  0  0  0  0  0  0  0
  -23.1547  -24.4327   18.5865 C   0  0  0  0  0  0  0  0  0  0  0  0
  -22.2905   -8.7281   20.2349 C   0  0  0  0  0  0  0  0  0  0  0  0
  -23.0591   -8.7503   22.5253 C   0  0  0  0  0  0  0  0  0  0  0  0
  -24.0658  -23.6112   19.2490 C   0  0  0  0  0  0  0  0  0  0  0  0
  -19.8214   -8.0097   23.1489 C   0  0  0  0  0  0  0  0  0  0  0  0
  -19.0684   -7.9953   24.3229 C   0  0  0  0  0  0  0  0  0  0  0  0
  -24.9405  -25.5326   20.4161 C   0  0  0  0  0  0  0  0  0  0  0  0
  -28.8876  -18.6483   24.4086 C   0  0  0  0  0  0  0  0  0  0  0  0
  -20.2825   -6.0476   25.0777 C   0  0  0  0  0  0  0  0  0  0  0  0
  -23.8158  -10.4469   20.9806 C   0  0  0  0  0  0  0  0  0  0  0  0
  -24.1961  -12.9649   20.8295 C   0  0  0  0  0  0  0  0  0  0  0  0
  -22.8479  -29.4335   12.4466 C   0  0  0  0  0  0  0  0  0  0  0  0
  -23.1370  -25.8142   18.8262 C   0  0  0  0  0  0  0  0  0  0  0  0
  -23.3808  -28.5098   13.3659 C   0  0  0  0  0  0  0  0  0  0  0  0
  -24.0265  -26.3691   19.7573 C   0  0  0  0  0  0  0  0  0  0  0  0
  -29.7181  -17.5750   23.9746 C   0  0  0  0  0  0  0  0  0  0  0  0
  -22.2945   -8.1700   21.5132 C   0  0  0  0  0  0  0  0  0  0  0  0
  -24.9608  -24.1615   20.1618 C   0  0  0  0  0  0  0  0  0  0  0  0
  -20.8049   -7.0431   22.9392 C   0  0  0  0  0  0  0  0  0  0  0  0
  -19.2990   -7.0143   25.2874 C   0  0  0  0  0  0  0  0  0  0  0  0
  -21.0355   -6.0621   23.9036 C   0  0  0  0  0  0  0  0  0  0  0  0
  -24.6022  -11.6227   20.7060 C   0  0  0  0  0  0  0  0  0  0  0  0
  -30.0613  -17.6909   22.6456 C   0  0  0  0  0  0  0  0  0  0  0  0
  -25.2983  -13.6931   20.4535 C   0  0  0  0  0  0  0  0  0  0  0  0
  -28.6279  -19.5440   23.3945 C   0  0  0  0  0  0  0  0  0  0  0  0
  -26.6257  -22.5657   22.9125 C   0  0  0  0  0  0  0  0  0  0  0  0
  -25.8005  -23.3155   22.1742 C   0  0  0  0  0  0  0  0  0  1  0  0
  -22.9353  -13.5052   21.2470 C   0  0  0  0  0  0  0  0  0  0  0  0
  -23.6268  -28.4052   17.0513 C   0  0  0  0  0  0  0  0  0  0  0  0
  -22.6856  -29.9510   19.7433 C   0  0  0  0  0  0  0  0  0  0  0  0
  -22.3374  -29.9069   23.1379 C   0  0  0  0  0  0  0  0  0  0  0  0
  -30.7978  -14.6293   20.6098 C   0  0  0  0  0  0  0  0  0  0  0  0
  -22.9643  -30.9220   12.6598 C   0  0  0  0  0  0  0  0  0  0  0  0
  -22.1301  -26.6829   18.1233 C   0  0  0  0  0  0  0  0  0  0  0  0
  -24.0345  -27.8434   20.0653 C   0  0  0  0  0  0  0  0  0  0  0  0
  -26.6080  -22.4824   24.4061 C   0  0  0  0  0  0  0  0  0  0  0  0
  -27.6269  -21.5939   22.3642 C   0  0  0  0  0  0  0  0  0  0  0  0
  -23.2892  -31.3073   14.1008 C   0  0  0  0  0  0  0  0  0  0  0  0
  -29.6144  -12.2348   18.2555 C   0  0  0  0  0  0  0  0  0  0  0  0
  -24.4223  -30.4416   14.6424 C   0  0  0  0  0  0  0  0  0  0  0  0
  -28.1743  -11.9685   18.6971 C   0  0  0  0  0  0  0  0  0  0  0  0
  -27.0923  -21.0600   24.6727 C   0  0  0  0  0  0  0  0  0  0  0  0
  -30.5394  -12.4555   19.4504 C   0  0  0  0  0  0  0  0  0  0  0  0
  -28.6545  -13.2322   20.8352 C   0  0  0  0  0  0  0  0  0  0  0  0
  -24.0254  -28.9604   14.6588 C   0  0  1  0  0  0  0  0  0  0  0  0
  -22.5453  -28.1496   18.0625 C   0  0  1  0  0  0  0  0  0  0  0  0
  -27.6732  -13.0588   19.6632 C   0  0  2  0  0  0  0  0  0  0  0  0
  -30.1547  -16.4684   24.8592 C   0  0  0  0  0  0  0  0  0  0  0  0
  -21.5738  -31.3302   25.0585 C   0  0  0  0  0  0  0  0  0  0  0  0
  -25.2639  -31.5726   19.5635 C   0  0  0  0  0  0  0  0  0  0  0  0
  -24.9133  -32.2635   21.9442 C   0  0  0  0  0  0  0  0  0  0  0  0
  -23.2414  -32.8966   20.2045 C   0  0  0  0  0  0  0  0  0  0  0  0
  -20.2245  -27.9728   23.8822 C   0  0  0  0  0  0  0  0  0  0  0  0
  -30.9015  -16.7930   21.8210 C   0  0  0  0  0  0  0  0  0  0  0  0
  -23.3863  -30.4904   20.9668 C   0  0  1  0  0  0  0  0  0  0  0  0
  -21.1713  -30.2791   24.0358 C   0  0  2  0  0  0  0  0  0  0  0  0
  -24.2026  -31.7782   20.6627 C   0  0  0  0  0  0  0  0  0  0  0  0
  -25.8638  -11.5024   20.2843 N   0  0  0  0  0  0  0  0  0  0  0  0
  -26.2600  -12.7784   20.1395 N   0  0  0  0  0  0  0  0  0  0  0  0
  -27.8593  -20.6879   23.4862 N   0  0  3  0  0  0  0  0  0  0  0  0
  -23.0352  -28.6521   19.3478 N   0  0  0  0  0  0  0  0  0  0  0  0
  -30.0082  -13.5028   20.3261 N   0  0  0  0  0  0  0  0  0  0  0  0
  -25.5289  -15.0202   20.3640 N   0  0  0  0  0  0  0  0  0  0  0  0
  -21.9108  -12.6158   21.5986 N   0  0  0  0  0  0  0  0  0  0  0  0
  -23.1561  -28.6826   15.7820 N   0  0  0  0  0  0  0  0  0  0  0  0
  -22.3556  -30.6627   21.9848 N   0  0  0  0  0  0  0  0  0  0  0  0
  -30.2162  -15.5771   21.4430 N   0  0  0  0  0  0  0  0  0  0  0  0
  -20.6761  -29.0781   24.7662 N   0  3  0  0  0  0  0  0  0  0  0  0
  -22.7183  -14.7399   21.2906 O   0  0  0  0  0  0  0  0  0  0  0  0
  -24.8014  -28.3560   17.3972 O   0  0  0  0  0  0  0  0  0  0  0  0
  -21.8533  -30.6535   19.1641 O   0  0  0  0  0  0  0  0  0  0  0  0
  -23.1529  -29.0356   23.4319 O   0  0  0  0  0  0  0  0  0  0  0  0
  -31.9345  -14.7818   20.1500 O   0  0  0  0  0  0  0  0  0  0  0  0
  -21.5522   -7.0592   21.7734 O   0  0  0  0  0  0  0  0  0  0  0  0
  -25.8515  -23.3620   20.8093 O   0  0  0  0  0  0  0  0  0  1  0  0
  -18.5768   -7.0014   26.4154 F   0  0  0  0  0  0  0  0  0  0  0  0
  -21.9798   -5.1315   23.7083 F   0  0  0  0  0  0  0  0  0  0  0  0
  -29.3835  -19.0894   21.9266 S   0  0  0  0  0  0  0  0  0  0  0  0
  1  2  1  0  0  0  0
  1  5  2  0  0  0  0
  2  6  2  0  0  0  0
  3  8  2  0  0  0  0
  3 16  1  0  0  0  0
  4  9  1  0  0  0  0
  4 16  2  0  0  0  0
  5 18  1  0  0  0  0
  6 20  1  0  0  0  0
  7 10  2  0  0  0  0
  7 19  1  0  0  0  0
  8 23  1  0  0  0  0
  9 23  2  0  0  0  0
 10 24  1  0  0  0  0
 11 12  2  0  0  0  0
 11 25  1  0  0  0  0
 12 26  1  0  0  0  0
 13 21  1  0  0  0  0
 13 24  2  0  0  0  0
 14 22  1  0  0  0  0
 14 31  2  0  0  0  0
 15 26  2  0  0  0  0
 15 27  1  0  0  0  0
 16 28  1  0  0  0  0
 17 28  1  0  0  0  0
 17 30  2  0  0  0  0
 17 34  1  0  0  0  0
 18 20  2  0  0  0  0
 18 39  1  0  0  0  0
 19 21  2  0  0  0  0
 19 40  1  0  0  0  0
 20 51  1  0  0  0  0
 21 41  1  0  0  0  0
 22 29  2  0  0  0  0
 22 54  1  0  0  0  0
 23 80  1  0  0  0  0
 24 81  1  0  0  0  0
 25 27  2  0  0  0  0
 25 80  1  0  0  0  0
 26 82  1  0  0  0  0
 27 83  1  0  0  0  0
 28 64  2  0  0  0  0
 29 60  1  0  0  0  0
 29 84  1  0  0  0  0
 30 65  1  0  0  0  0
 30 69  1  0  0  0  0
 31 66  1  0  0  0  0
 31 84  1  0  0  0  0
 32 33  2  0  0  0  0
 32 42  1  0  0  0  0
 32 43  1  0  0  0  0
 33 81  1  0  0  0  0
 34 70  1  0  0  0  0
 34 75  2  0  0  0  0
 35 52  1  0  0  0  0
 35 71  1  0  0  0  0
 35 76  2  0  0  0  0
 36 61  1  0  0  0  0
 36 67  1  0  0  0  0
 36 77  2  0  0  0  0
 37 62  1  0  0  0  0
 37 72  1  0  0  0  0
 37 78  2  0  0  0  0
 38 68  1  0  0  0  0
 38 73  1  0  0  0  0
 38 79  2  0  0  0  0
 39 44  1  0  0  0  0
 40 52  1  0  0  0  0
 41 67  1  0  0  0  0
 42 48  1  0  0  0  0
 43 66  1  0  0  0  0
 44 46  1  0  0  0  0
 45 47  1  0  0  0  0
 45 49  1  0  0  0  0
 46 51  1  0  0  0  0
 47 53  1  0  0  0  0
 48 66  1  0  0  0  0
 49 68  1  0  0  0  0
 50 53  1  0  0  0  0
 50 68  1  0  0  0  0
 51 71  1  0  0  0  0
 52 67  1  0  0  0  0
 53 65  1  0  0  0  0
 55 62  1  0  0  0  0
 56 63  1  0  0  0  0
 57 63  1  0  0  0  0
 58 63  1  0  0  0  0
 59 74  1  0  0  0  0
 60 73  1  0  0  0  0
 61 63  1  0  0  0  0
 61 72  1  0  0  0  0
 62 74  1  0  0  0  0
 64 65  1  0  0  0  0
M  CHG  1  74   1
M  ISO  4  33 101  38 100  73 100  81 101
M  END
> <Batch ID>
0104

> <Smiles>
CNC(C)C(=O)NC(C(=O)N1Cc2cc([101O:1][101CH:1]=C3CCN(c4cc(C)c(C[100NH:0][100C:0](=O)N5CCCC(n6nc(-c7ccc(Oc8ccc(F)cc8F)cc7)c(C(N)=O)c6N)C5)s4)C3)ccc2CC1C(=O)NC1CCCc2ccccc21)C(C)(C)C

> <Shape>
0.248

> <Color>
0.219

> <Negative vol penalty>
0.000

$$$$

  -OEChem-04052301083D

 89 98  0     1  0  0  0  0  0999 V2000
  -19.4454  -25.5052   14.2882 C   0  0  0  0  0  0  0  0  0  0  0  0
  -19.5761  -24.4232   15.1529 C   0  0  0  0  0  0  0  0  0  0  0  0
  -23.0783   -9.8619   19.9501 C   0  0  0  0  0  0  0  0  0  0  0  0
  -23.8306   -9.8897   22.2458 C   0  0  0  0  0  0  0  0  0  0  0  0
  -20.0773  -26.7124   14.5836 C   0  0  0  0  0  0  0  0  0  0  0  0
  -20.3398  -24.5475   16.3129 C   0  0  0  0  0  0  0  0  0  0  0  0
  -20.6373  -22.2112   23.0783 C   0  0  0  0  0  0  0  0  0  0  0  0
  -22.3345   -8.7104   20.2078 C   0  0  0  0  0  0  0  0  0  0  0  0
  -23.0867   -8.7382   22.5035 C   0  0  0  0  0  0  0  0  0  0  0  0
  -21.5249  -21.6178   23.9748 C   0  0  0  0  0  0  0  0  0  0  0  0
  -19.8572   -7.9432   23.1023 C   0  0  0  0  0  0  0  0  0  0  0  0
  -19.0964   -7.9129   24.2710 C   0  0  0  0  0  0  0  0  0  0  0  0
  -22.5061  -23.7756   24.4224 C   0  0  0  0  0  0  0  0  0  0  0  0
  -29.3469  -18.9156   22.1489 C   0  0  0  0  0  0  0  0  0  0  0  0
  -28.8817  -18.3047   24.8309 C   0  0  0  0  0  0  0  0  0  0  0  0
  -20.3369   -5.9831   25.0287 C   0  0  0  0  0  0  0  0  0  0  0  0
  -23.8264  -10.4516   20.9691 C   0  0  0  0  0  0  0  0  0  0  0  0
  -24.1667  -12.9758   20.8280 C   0  0  0  0  0  0  0  0  0  0  0  0
  -20.8412  -26.8545   15.7527 C   0  0  0  0  0  0  0  0  0  0  0  0
  -20.6847  -23.5921   22.8385 C   0  0  0  0  0  0  0  0  0  0  0  0
  -20.9837  -25.7574   16.6235 C   0  0  0  0  0  0  0  0  0  0  0  0
  -21.6163  -24.3845   23.5243 C   0  0  0  0  0  0  0  0  0  0  0  0
  -28.5305  -19.7421   22.9209 C   0  0  0  0  0  0  0  0  0  0  0  0
  -29.9306  -17.7836   22.7178 C   0  0  0  0  0  0  0  0  0  0  0  0
  -28.2979  -19.4367   24.2619 C   0  0  0  0  0  0  0  0  0  0  0  0
  -22.3387   -8.1486   21.4845 C   0  0  0  0  0  0  0  0  0  0  0  0
  -22.4614  -22.3995   24.6448 C   0  0  0  0  0  0  0  0  0  0  0  0
  -20.8578   -6.9933   22.8967 C   0  0  0  0  0  0  0  0  0  0  0  0
  -29.6980  -17.4782   24.0588 C   0  0  0  0  0  0  0  0  0  0  0  0
  -19.3362   -6.9329   25.2342 C   0  0  0  0  0  0  0  0  0  0  0  0
  -21.0976   -6.0133   23.8599 C   0  0  0  0  0  0  0  0  0  0  0  0
  -24.5954  -11.6407   20.7035 C   0  0  0  0  0  0  0  0  0  0  0  0
  -25.2594  -13.7229   20.4617 C   0  0  0  0  0  0  0  0  0  0  0  0
  -26.1050  -20.5692   24.8429 C   0  0  0  0  0  0  0  0  0  0  0  0
  -22.8944  -13.4943   21.2381 C   0  0  0  0  0  0  0  0  0  0  0  0
  -21.2510  -25.4085   20.2923 C   0  0  0  0  0  0  0  0  0  0  0  0
  -20.4328  -27.8129   22.3102 C   0  0  0  0  0  0  0  0  0  0  0  0
  -20.1520  -28.9299   25.5227 C   0  0  0  0  0  0  0  0  0  0  0  0
  -30.7417  -14.7480   20.6593 C   0  0  0  0  0  0  0  0  0  0  0  0
  -21.5444  -28.1646   16.0056 C   0  0  0  0  0  0  0  0  0  0  0  0
  -19.7026  -24.2209   21.8885 C   0  0  0  0  0  0  0  0  0  0  0  0
  -21.6948  -25.8743   23.3176 C   0  0  0  0  0  0  0  0  0  0  0  0
  -22.0281  -28.3285   17.4441 C   0  0  0  0  0  0  0  0  0  0  0  0
  -29.6139  -12.3416   18.2899 C   0  0  0  0  0  0  0  0  0  0  0  0
  -22.7356  -27.0626   17.9169 C   0  0  0  0  0  0  0  0  0  0  0  0
  -28.1753  -12.0506   18.7206 C   0  0  0  0  0  0  0  0  0  0  0  0
  -26.9196  -21.9594   26.5945 C   0  0  0  0  0  0  0  0  0  0  0  0
  -30.5269  -12.5738   19.4918 C   0  0  0  0  0  0  0  0  0  0  0  0
  -27.9409  -20.8806   26.2942 C   0  0  0  0  0  0  0  0  0  0  0  0
  -28.6200  -13.3155   20.8656 C   0  0  0  0  0  0  0  0  0  0  0  0
  -21.7833  -25.8607   17.9042 C   0  0  1  0  0  0  0  0  0  0  0  0
  -25.6278  -21.3785   26.0380 C   0  0  1  0  0  0  0  0  0  0  0  0
  -20.1801  -25.5601   21.3353 C   0  0  1  0  0  0  0  0  0  0  0  0
  -27.6499  -13.1298   19.6863 C   0  0  2  0  0  0  0  0  0  0  0  0
  -27.0577  -20.5909   21.0779 C   0  0  0  0  0  0  0  0  0  0  0  0
  -19.4903  -30.9510   26.8548 C   0  0  0  0  0  0  0  0  0  0  0  0
  -23.0753  -29.1541   21.5832 C   0  0  0  0  0  0  0  0  0  0  0  0
  -22.8034  -30.6214   23.5935 C   0  0  0  0  0  0  0  0  0  0  0  0
  -21.1258  -30.7118   21.7495 C   0  0  0  0  0  0  0  0  0  0  0  0
  -17.9723  -27.4623   26.8845 C   0  0  0  0  0  0  0  0  0  0  0  0
  -29.9684  -16.1400   26.0061 C   0  0  0  0  0  0  0  0  0  0  0  0
  -27.9186  -20.9482   22.2854 C   0  0  0  0  0  0  0  0  0  0  0  0
  -30.8018  -16.9095   21.8774 C   0  0  0  0  0  0  0  0  0  0  0  0
  -24.6079  -22.4390   25.6680 C   0  0  0  0  0  0  0  0  0  1  0  0
  -21.1811  -28.6982   23.2774 C   0  0  1  0  0  0  0  0  0  0  0  0
  -19.0217  -29.6377   26.2479 C   0  0  2  0  0  0  0  0  0  0  0  0
  -22.0465  -29.7680   22.5536 C   0  0  0  0  0  0  0  0  0  0  0  0
  -25.8617  -11.5422   20.2902 N   0  0  0  0  0  0  0  0  0  0  0  0
  -26.2381  -12.8249   20.1518 N   0  0  0  0  0  0  0  0  0  0  0  0
  -27.4644  -20.2689   25.0677 N   0  0  0  0  0  0  0  0  0  0  0  0
  -20.7174  -26.4415   22.3739 N   0  0  0  0  0  0  0  0  0  0  0  0
  -29.9726  -13.6097   20.3668 N   0  0  0  0  0  0  0  0  0  0  0  0
  -25.4690  -15.0539   20.3777 N   0  0  0  0  0  0  0  0  0  0  0  0
  -21.8821  -12.5873   21.5800 N   0  0  0  0  0  0  0  0  0  0  0  0
  -20.9008  -25.9030   19.0504 N   0  0  0  0  0  0  0  0  0  0  0  0
  -20.1797  -29.2520   24.1823 N   0  0  0  0  0  0  0  0  0  0  0  0
  -30.1391  -15.6838   21.4911 N   0  0  0  0  0  0  0  0  0  0  0  0
  -18.4895  -28.7776   27.3424 N   0  3  0  0  0  0  0  0  0  0  0  0
  -25.3689  -20.2280   23.9284 O   0  0  0  0  0  0  0  0  0  0  0  0
  -22.6570  -14.7252   21.2838 O   0  0  0  0  0  0  0  0  0  0  0  0
  -22.3167  -24.8833   20.5924 O   0  0  0  0  0  0  0  0  0  0  0  0
  -19.6204  -28.3187   21.5319 O   0  0  0  0  0  0  0  0  0  0  0  0
  -20.9345  -28.1703   26.0895 O   0  0  0  0  0  0  0  0  0  0  0  0
  -31.8790  -14.9204   20.2079 O   0  0  0  0  0  0  0  0  0  0  0  0
  -21.6128   -7.0251   21.7363 O   0  0  0  0  0  0  0  0  0  0  0  0
  -30.2596  -16.3762   24.6301 O   0  0  0  0  0  0  0  0  0  0  0  0
  -23.3294  -21.8227   25.5199 O   0  0  0  0  0  0  0  0  0  1  0  0
  -18.6066   -6.9050   26.3571 F   0  0  0  0  0  0  0  0  0  0  0  0
  -22.0583   -5.0988   23.6686 F   0  0  0  0  0  0  0  0  0  0  0  0
  1  2  1  0  0  0  0
  1  5  2  0  0  0  0
  2  6  2  0  0  0  0
  3  8  2  0  0  0  0
  3 17  1  0  0  0  0
  4  9  1  0  0  0  0
  4 17  2  0  0  0  0
  5 19  1  0  0  0  0
  6 21  1  0  0  0  0
  7 10  2  0  0  0  0
  7 20  1  0  0  0  0
  8 26  1  0  0  0  0
  9 26  2  0  0  0  0
 10 27  1  0  0  0  0
 11 12  2  0  0  0  0
 11 28  1  0  0  0  0
 12 30  1  0  0  0  0
 13 22  1  0  0  0  0
 13 27  2  0  0  0  0
 14 23  1  0  0  0  0
 14 24  2  0  0  0  0
 15 25  1  0  0  0  0
 15 29  2  0  0  0  0
 16 30  2  0  0  0  0
 16 31  1  0  0  0  0
 17 32  1  0  0  0  0
 18 32  1  0  0  0  0
 18 33  2  0  0  0  0
 18 35  1  0  0  0  0
 19 21  2  0  0  0  0
 19 40  1  0  0  0  0
 20 22  2  0  0  0  0
 20 41  1  0  0  0  0
 21 51  1  0  0  0  0
 22 42  1  0  0  0  0
 23 25  2  0  0  0  0
 23 62  1  0  0  0  0
 24 29  1  0  0  0  0
 24 63  1  0  0  0  0
 25 70  1  0  0  0  0
 26 85  1  0  0  0  0
 27 87  1  0  0  0  0
 28 31  2  0  0  0  0
 28 85  1  0  0  0  0
 29 86  1  0  0  0  0
 30 88  1  0  0  0  0
 31 89  1  0  0  0  0
 32 68  2  0  0  0  0
 33 69  1  0  0  0  0
 33 73  1  0  0  0  0
 34 52  1  0  0  0  0
 34 70  1  0  0  0  0
 34 79  2  0  0  0  0
 35 74  1  0  0  0  0
 35 80  2  0  0  0  0
 36 53  1  0  0  0  0
 36 75  1  0  0  0  0
 36 81  2  0  0  0  0
 37 65  1  0  0  0  0
 37 71  1  0  0  0  0
 37 82  2  0  0  0  0
 38 66  1  0  0  0  0
 38 76  1  0  0  0  0
 38 83  2  0  0  0  0
 39 72  1  0  0  0  0
 39 77  1  0  0  0  0
 39 84  2  0  0  0  0
 40 43  1  0  0  0  0
 41 53  1  0  0  0  0
 42 71  1  0  0  0  0
 43 45  1  0  0  0  0
 44 46  1  0  0  0  0
 44 48  1  0  0  0  0
 45 51  1  0  0  0  0
 46 54  1  0  0  0  0
 47 49  1  0  0  0  0
 47 52  1  0  0  0  0
 48 72  1  0  0  0  0
 49 70  1  0  0  0  0
 50 54  1  0  0  0  0
 50 72  1  0  0  0  0
 51 75  1  0  0  0  0
 52 64  1  0  0  0  0
 53 71  1  0  0  0  0
 54 69  1  0  0  0  0
 55 62  1  0  0  0  0
 56 66  1  0  0  0  0
 57 67  1  0  0  0  0
 58 67  1  0  0  0  0
 59 67  1  0  0  0  0
 60 78  1  0  0  0  0
 61 86  1  0  0  0  0
 63 77  1  0  0  0  0
 64 87  1  0  0  0  0
 65 67  1  0  0  0  0
 65 76  1  0  0  0  0
 66 78  1  0  0  0  0
 68 69  1  0  0  0  0
M  CHG  1  78   1
M  ISO  4  39 100  64 101  77 100  87 101
M  END
> <Batch ID>
0104

> <Smiles>
CCc1cc(C[100NH:0][100C:0](=O)N2CCCC(n3nc(-c4ccc(Oc5ccc(F)cc5F)cc4)c(C(N)=O)c3N)C2)c(OC)cc1N1CCC([101CH2:1][101O:1]c2ccc3c(c2)CN(C(=O)C(NC(=O)C(C)NC)C(C)(C)C)C(C(=O)NC2CCCc4ccccc42)C3)C1=O

> <Shape>
0.241

> <Color>
0.184

> <Negative vol penalty>
0.000

$$$$

  -OEChem-04052301083D

 86 94  0     1  0  0  0  0  0999 V2000
  -26.6009  -32.3640   23.4728 C   0  0  0  0  0  0  0  0  0  0  0  0
  -27.0340  -31.0836   23.8023 C   0  0  0  0  0  0  0  0  0  0  0  0
  -23.3393  -17.3354   16.3115 C   0  0  0  0  0  0  0  0  0  0  0  0
  -21.7089  -17.6581   18.0650 C   0  0  0  0  0  0  0  0  0  0  0  0
  -25.6693  -32.5420   22.4509 C   0  0  0  0  0  0  0  0  0  0  0  0
  -26.5349  -29.9805   23.1107 C   0  0  0  0  0  0  0  0  0  0  0  0
  -29.5580  -24.8453   21.6976 C   0  0  0  0  0  0  0  0  0  0  0  0
  -22.4031  -17.7508   15.3646 C   0  0  0  0  0  0  0  0  0  0  0  0
  -20.7727  -18.0735   17.1181 C   0  0  0  0  0  0  0  0  0  0  0  0
  -29.5970  -23.5856   22.2937 C   0  0  0  0  0  0  0  0  0  0  0  0
  -20.0908  -20.8745   15.3545 C   0  0  0  0  0  0  0  0  0  0  0  0
  -19.3359  -22.0104   15.6467 C   0  0  0  0  0  0  0  0  0  0  0  0
  -27.9188  -22.8076   20.7454 C   0  0  0  0  0  0  0  0  0  0  0  0
  -30.0572  -14.7860   20.6060 C   0  0  0  0  0  0  0  0  0  0  0  0
  -28.7540  -14.2345   18.2018 C   0  0  0  0  0  0  0  0  0  0  0  0
  -17.3100  -20.7025   15.4972 C   0  0  0  0  0  0  0  0  0  0  0  0
  -22.9921  -17.2889   17.6617 C   0  0  0  0  0  0  0  0  0  0  0  0
  -24.8735  -17.6663   19.3427 C   0  0  0  0  0  0  0  0  0  0  0  0
  -25.1658  -31.4413   21.7399 C   0  0  0  0  0  0  0  0  0  0  0  0
  -28.6897  -25.0991   20.6261 C   0  0  0  0  0  0  0  0  0  0  0  0
  -25.5947  -30.1439   22.0792 C   0  0  0  0  0  0  0  0  0  0  0  0
  -27.8725  -24.0707   20.1358 C   0  0  0  0  0  0  0  0  0  0  0  0
  -29.5966  -13.4961   20.3423 C   0  0  0  0  0  0  0  0  0  0  0  0
  -28.9451  -13.2203   19.1402 C   0  0  0  0  0  0  0  0  0  0  0  0
  -21.1199  -18.1199   15.7678 C   0  0  0  0  0  0  0  0  0  0  0  0
  -28.7752  -22.5673   21.8195 C   0  0  0  0  0  0  0  0  0  0  0  0
  -19.4553  -19.6526   15.1335 C   0  0  0  0  0  0  0  0  0  0  0  0
  -29.8660  -15.8003   19.6676 C   0  0  0  0  0  0  0  0  0  0  0  0
  -17.9456  -21.9244   15.7181 C   0  0  0  0  0  0  0  0  0  0  0  0
  -18.0649  -19.5666   15.2049 C   0  0  0  0  0  0  0  0  0  0  0  0
  -29.2145  -15.5245   18.4655 C   0  0  0  0  0  0  0  0  0  0  0  0
  -23.9585  -16.8593   18.6403 C   0  0  0  0  0  0  0  0  0  0  0  0
  -25.5608  -16.7882   20.1446 C   0  0  0  0  0  0  0  0  0  0  0  0
  -25.0832  -19.0831   19.2764 C   0  0  0  0  0  0  0  0  0  0  0  0
  -26.2378  -27.0633   20.1428 C   0  0  0  0  0  0  0  0  0  0  0  0
  -26.4136  -25.9097   17.1161 C   0  0  0  0  0  0  0  0  0  0  0  0
  -27.3797  -23.3892   15.0279 C   0  0  0  0  0  0  0  0  0  0  0  0
  -27.5098  -11.2263   19.6454 C   0  0  0  0  0  0  0  0  0  0  0  0
  -24.1247  -31.6795   20.6750 C   0  0  0  0  0  0  0  0  0  0  0  0
  -28.6790  -26.4558   19.9768 C   0  0  0  0  0  0  0  0  0  0  0  0
  -26.9374  -24.2861   18.9749 C   0  0  0  0  0  0  0  0  0  0  0  0
  -23.9267  -30.4894   19.7397 C   0  0  0  0  0  0  0  0  0  0  0  0
  -24.7483  -12.2443   21.8883 C   0  0  0  0  0  0  0  0  0  0  0  0
  -23.8130  -29.1953   20.5392 C   0  0  0  0  0  0  0  0  0  0  0  0
  -24.2960  -13.5740   21.2877 C   0  0  0  0  0  0  0  0  0  0  0  0
  -25.3404  -11.3174   20.8310 C   0  0  0  0  0  0  0  0  0  0  0  0
  -26.0071  -13.2675   19.4547 C   0  0  0  0  0  0  0  0  0  0  0  0
  -25.0952  -28.9243   21.3354 C   0  0  1  0  0  0  0  0  0  0  0  0
  -27.3844  -26.7479   19.2244 C   0  0  1  0  0  0  0  0  0  0  0  0
  -25.4439  -14.2348   20.5067 C   0  0  1  0  0  0  0  0  0  0  0  0
  -29.8125  -12.4297   21.3665 C   0  0  0  0  0  0  0  0  0  0  0  0
  -30.4458  -10.5071   18.3955 C   0  0  0  0  0  0  0  0  0  0  0  0
  -27.3550  -22.7151   12.6108 C   0  0  0  0  0  0  0  0  0  0  0  0
  -23.4517  -25.2128   17.3433 C   0  0  0  0  0  0  0  0  0  0  0  0
  -23.7194  -23.7278   15.3454 C   0  0  0  0  0  0  0  0  0  0  0  0
  -24.1298  -26.1797   15.1389 C   0  0  0  0  0  0  0  0  0  0  0  0
  -30.3352  -23.2972   14.9033 C   0  0  0  0  0  0  0  0  0  0  0  0
  -30.1900  -19.4129   22.8758 C   0  0  0  0  0  0  0  0  0  0  0  0
  -30.1790  -18.9417   21.4257 C   0  0  0  0  0  0  0  0  0  0  0  0
  -29.1715  -11.1107   17.8406 C   0  0  0  0  0  0  0  0  0  0  0  0
  -30.0502  -20.9261   22.9757 C   0  0  0  0  0  0  0  0  0  1  0  0
  -30.3617  -17.4341   21.3231 C   0  0  0  0  0  0  0  0  0  0  0  0
  -25.8004  -24.7435   16.3792 C   0  0  1  0  0  0  0  0  0  0  0  0
  -28.1411  -23.4053   13.7147 C   0  0  2  0  0  0  0  0  0  0  0  0
  -24.2914  -24.9621   16.0749 C   0  0  0  0  0  0  0  0  0  0  0  0
  -24.0536  -15.5677   18.9670 N   0  0  0  0  0  0  0  0  0  0  0  0
  -25.0364  -15.5565   19.8835 N   0  0  0  0  0  0  0  0  0  0  0  0
  -26.9586  -25.6316   18.3777 N   0  0  0  0  0  0  0  0  0  0  0  0
  -26.3906  -11.9795   20.0554 N   0  0  0  0  0  0  0  0  0  0  0  0
  -26.5565  -16.9571   21.0403 N   0  0  0  0  0  0  0  0  0  0  0  0
  -24.2901  -19.8357   18.3995 N   0  0  0  0  0  0  0  0  0  0  0  0
  -26.1285  -28.4021   20.4670 N   0  0  0  0  0  0  0  0  0  0  0  0
  -26.6243  -24.5307   15.1942 N   0  0  0  0  0  0  0  0  0  0  0  0
  -28.4604  -11.8932   18.8492 N   0  0  0  0  0  0  0  0  0  0  0  0
  -29.4496  -22.7083   13.8660 N   0  3  0  0  0  0  0  0  0  0  0  0
  -25.9595  -19.6623   19.9621 O   0  0  0  0  0  0  0  0  0  0  0  0
  -25.5055  -26.1592   20.5276 O   0  0  0  0  0  0  0  0  0  0  0  0
  -26.4155  -27.0248   16.5887 O   0  0  0  0  0  0  0  0  0  0  0  0
  -27.4454  -22.4557   15.8246 O   0  0  0  0  0  0  0  0  0  0  0  0
  -27.6280  -10.0263   19.9221 O   0  0  0  0  0  0  0  0  0  0  0  0
  -20.2062  -18.5256   14.8442 O   0  0  0  0  0  0  0  0  0  0  0  0
  -28.8109  -21.3370   22.4000 O   0  0  0  0  0  0  0  0  0  1  0  0
  -30.3275  -17.0591   19.9530 O   0  0  0  0  0  0  0  0  0  0  0  0
  -17.2209  -23.0150   16.0004 F   0  0  0  0  0  0  0  0  0  0  0  0
  -17.4489  -18.3952   14.9947 F   0  0  0  0  0  0  0  0  0  0  0  0
  -28.9649  -16.7597   17.2875 Cl  0  0  0  0  0  0  0  0  0  0  0  0
  1  2  1  0  0  0  0
  1  5  2  0  0  0  0
  2  6  2  0  0  0  0
  3  8  2  0  0  0  0
  3 17  1  0  0  0  0
  4  9  1  0  0  0  0
  4 17  2  0  0  0  0
  5 19  1  0  0  0  0
  6 21  1  0  0  0  0
  7 10  2  0  0  0  0
  7 20  1  0  0  0  0
  8 25  1  0  0  0  0
  9 25  2  0  0  0  0
 10 26  1  0  0  0  0
 11 12  2  0  0  0  0
 11 27  1  0  0  0  0
 12 29  1  0  0  0  0
 13 22  1  0  0  0  0
 13 26  2  0  0  0  0
 14 23  1  0  0  0  0
 14 28  2  0  0  0  0
 15 24  1  0  0  0  0
 15 31  2  0  0  0  0
 16 29  2  0  0  0  0
 16 30  1  0  0  0  0
 17 32  1  0  0  0  0
 18 32  1  0  0  0  0
 18 33  2  0  0  0  0
 18 34  1  0  0  0  0
 19 21  2  0  0  0  0
 19 39  1  0  0  0  0
 20 22  2  0  0  0  0
 20 40  1  0  0  0  0
 21 48  1  0  0  0  0
 22 41  1  0  0  0  0
 23 24  2  0  0  0  0
 23 51  1  0  0  0  0
 24 74  1  0  0  0  0
 25 81  1  0  0  0  0
 26 82  1  0  0  0  0
 27 30  2  0  0  0  0
 27 81  1  0  0  0  0
 28 31  1  0  0  0  0
 28 83  1  0  0  0  0
 29 84  1  0  0  0  0
 30 85  1  0  0  0  0
 31 86  1  0  0  0  0
 32 66  2  0  0  0  0
 33 67  1  0  0  0  0
 33 70  1  0  0  0  0
 34 71  1  0  0  0  0
 34 76  2  0  0  0  0
 35 49  1  0  0  0  0
 35 72  1  0  0  0  0
 35 77  2  0  0  0  0
 36 63  1  0  0  0  0
 36 68  1  0  0  0  0
 36 78  2  0  0  0  0
 37 64  1  0  0  0  0
 37 73  1  0  0  0  0
 37 79  2  0  0  0  0
 38 69  1  0  0  0  0
 38 74  1  0  0  0  0
 38 80  2  0  0  0  0
 39 42  1  0  0  0  0
 40 49  1  0  0  0  0
 41 68  1  0  0  0  0
 42 44  1  0  0  0  0
 43 45  1  0  0  0  0
 43 46  1  0  0  0  0
 44 48  1  0  0  0  0
 45 50  1  0  0  0  0
 46 69  1  0  0  0  0
 47 50  1  0  0  0  0
 47 69  1  0  0  0  0
 48 72  1  0  0  0  0
 49 68  1  0  0  0  0
 50 67  1  0  0  0  0
 52 60  1  0  0  0  0
 53 64  1  0  0  0  0
 54 65  1  0  0  0  0
 55 65  1  0  0  0  0
 56 65  1  0  0  0  0
 57 75  1  0  0  0  0
 58 59  1  0  0  0  0
 58 61  1  0  0  0  0
 59 62  1  0  0  0  0
 60 74  1  0  0  0  0
 61 82  1  0  0  0  0
 62 83  1  0  0  0  0
 63 65  1  0  0  0  0
 63 73  1  0  0  0  0
 64 75  1  0  0  0  0
 66 67  1  0  0  0  0
M  CHG  1  75   1
M  ISO  4  38 100  61 101  74 100  82 101
M  END
> <Batch ID>
0104

> <Smiles>
CC[100N:0](c1cc(Cl)c(OCCC[101CH2:1][101O:1]c2ccc3c(c2)CN(C(=O)C(NC(=O)C(C)NC)C(C)(C)C)C(C(=O)NC2CCCc4ccccc42)C3)cc1C)[100C:0](=O)N1CCCC(n2nc(-c3ccc(Oc4ccc(F)cc4F)cc3)c(C(N)=O)c2N)C1

> <Shape>
0.203

> <Color>
0.052

> <Negative vol penalty>
0.000

$$$$

  -OEChem-04052301083D

 82 90  0     1  0  0  0  0  0999 V2000
  -17.6671  -27.2724   22.8402 C   0  0  0  0  0  0  0  0  0  0  0  0
  -18.5919  -26.2492   23.0220 C   0  0  0  0  0  0  0  0  0  0  0  0
  -23.1743   -9.7844   19.9536 C   0  0  0  0  0  0  0  0  0  0  0  0
  -23.7639   -9.9809   22.2883 C   0  0  0  0  0  0  0  0  0  0  0  0
  -18.1067  -28.5799   22.6370 C   0  0  0  0  0  0  0  0  0  0  0  0
  -19.9570  -26.5327   22.9997 C   0  0  0  0  0  0  0  0  0  0  0  0
  -24.3335  -23.8287   26.3224 C   0  0  0  0  0  0  0  0  0  0  0  0
  -22.4361   -8.6353   20.2366 C   0  0  0  0  0  0  0  0  0  0  0  0
  -23.0257   -8.8317   22.5714 C   0  0  0  0  0  0  0  0  0  0  0  0
  -25.2415  -22.8124   26.0282 C   0  0  0  0  0  0  0  0  0  0  0  0
  -19.7778   -8.0024   23.0001 C   0  0  0  0  0  0  0  0  0  0  0  0
  -18.9380   -8.0313   24.1134 C   0  0  0  0  0  0  0  0  0  0  0  0
  -31.5950  -17.7905   21.7505 C   0  0  0  0  0  0  0  0  0  0  0  0
  -26.9158  -24.4681   25.5042 C   0  0  0  0  0  0  0  0  0  0  0  0
  -20.1586   -6.1851   25.0822 C   0  0  0  0  0  0  0  0  0  0  0  0
  -23.8382  -10.4572   20.9794 C   0  0  0  0  0  0  0  0  0  0  0  0
  -31.6104  -19.0974   22.3179 C   0  0  0  0  0  0  0  0  0  0  0  0
  -24.1400  -12.9740   20.6923 C   0  0  0  0  0  0  0  0  0  0  0  0
  -19.4777  -28.8811   22.6218 C   0  0  0  0  0  0  0  0  0  0  0  0
  -24.7072  -25.1746   26.1990 C   0  0  0  0  0  0  0  0  0  0  0  0
  -20.4154  -27.8452   22.7947 C   0  0  0  0  0  0  0  0  0  0  0  0
  -26.0115  -25.4996   25.7999 C   0  0  0  0  0  0  0  0  0  0  0  0
  -22.3618   -8.1589   21.5455 C   0  0  0  0  0  0  0  0  0  0  0  0
  -26.5319  -23.1320   25.6163 C   0  0  0  0  0  0  0  0  0  0  0  0
  -20.8080   -7.0647   22.9277 C   0  0  0  0  0  0  0  0  0  0  0  0
  -19.1284   -7.1227   25.1545 C   0  0  0  0  0  0  0  0  0  0  0  0
  -20.9984   -6.1561   23.9688 C   0  0  0  0  0  0  0  0  0  0  0  0
  -24.6014  -11.6440   20.6875 C   0  0  0  0  0  0  0  0  0  0  0  0
  -30.4091  -19.4183   22.9107 C   0  0  0  0  0  0  0  0  0  0  0  0
  -25.2414  -13.7208   20.3522 C   0  0  0  0  0  0  0  0  0  0  0  0
  -30.3824  -17.1622   21.9315 C   0  0  0  0  0  0  0  0  0  0  0  0
  -30.0111  -20.6551   23.6037 C   0  0  0  0  0  0  0  0  0  0  0  0
  -28.7671  -21.1577   23.6371 C   0  0  0  0  0  0  0  0  0  0  0  0
  -32.7418  -19.9899   22.2833 C   0  0  0  0  0  0  0  0  0  0  0  0
  -22.8327  -13.4884   20.9787 C   0  0  0  0  0  0  0  0  0  0  0  0
  -23.7239  -27.6219   24.4248 C   0  0  0  0  0  0  0  0  0  0  0  0
  -25.8090  -29.2903   26.2662 C   0  0  0  0  0  0  0  0  0  0  0  0
  -28.5884  -29.2642   28.2463 C   0  0  0  0  0  0  0  0  0  0  0  0
  -30.6593  -14.9097   20.8379 C   0  0  0  0  0  0  0  0  0  0  0  0
  -19.9058  -30.3018   22.3515 C   0  0  0  0  0  0  0  0  0  0  0  0
  -23.7242  -26.2590   26.5458 C   0  0  0  0  0  0  0  0  0  0  0  0
  -26.4685  -26.9289   25.6711 C   0  0  0  0  0  0  0  0  0  0  0  0
  -21.3623  -30.5787   22.7153 C   0  0  0  0  0  0  0  0  0  0  0  0
  -29.7673  -12.2997   18.5863 C   0  0  0  0  0  0  0  0  0  0  0  0
  -22.2657  -29.4717   22.1811 C   0  0  0  0  0  0  0  0  0  0  0  0
  -28.3058  -12.0059   18.9327 C   0  0  0  0  0  0  0  0  0  0  0  0
  -30.5874  -12.6396   19.8295 C   0  0  0  0  0  0  0  0  0  0  0  0
  -28.5711  -13.4182   21.0116 C   0  0  0  0  0  0  0  0  0  0  0  0
  -21.9041  -28.1169   22.8017 C   0  0  1  0  0  0  0  0  0  0  0  0
  -24.0542  -27.5965   25.8904 C   0  0  1  0  0  0  0  0  0  0  0  0
  -27.6906  -13.1340   19.7838 C   0  0  2  0  0  0  0  0  0  0  0  0
  -30.0723  -30.7874   29.5787 C   0  0  0  0  0  0  0  0  0  0  0  0
  -27.0886  -30.2970   23.6857 C   0  0  0  0  0  0  0  0  0  0  0  0
  -29.0778  -31.0059   25.0306 C   0  0  0  0  0  0  0  0  0  0  0  0
  -26.8460  -32.0282   25.4742 C   0  0  0  0  0  0  0  0  0  0  0  0
  -27.9828  -27.8387   30.7683 C   0  0  0  0  0  0  0  0  0  0  0  0
  -28.4134  -22.4269   24.3439 C   0  0  0  0  0  0  0  0  0  1  0  0
  -27.2754  -29.6372   26.1748 C   0  0  1  0  0  0  0  0  0  0  0  0
  -28.8587  -29.8715   29.6111 C   0  0  2  0  0  0  0  0  0  0  0  0
  -27.5630  -30.7150   25.0918 C   0  0  0  0  0  0  0  0  0  0  0  0
  -25.8951  -11.5482   20.3694 N   0  0  0  0  0  0  0  0  0  0  0  0
  -26.2560  -12.8275   20.1711 N   0  0  0  0  0  0  0  0  0  0  0  0
  -25.4688  -27.9535   26.0154 N   0  0  0  0  0  0  0  0  0  0  0  0
  -29.9463  -13.7190   20.5837 N   0  0  0  0  0  0  0  0  0  0  0  0
  -25.4313  -15.0479   20.1934 N   0  0  0  0  0  0  0  0  0  0  0  0
  -33.9093  -19.5519   21.6515 N   0  0  0  0  0  0  0  0  0  0  0  0
  -21.8162  -12.5824   21.3109 N   0  0  0  0  0  0  0  0  0  0  0  0
  -29.9363  -15.8770   21.5352 N   0  0  0  0  0  0  0  0  0  0  0  0
  -22.4304  -28.0203   24.1464 N   0  0  0  0  0  0  0  0  0  0  0  0
  -27.6896  -30.0174   27.5210 N   0  0  0  0  0  0  0  0  0  0  0  0
  -29.1061  -28.7988   30.6156 N   0  3  0  0  0  0  0  0  0  0  0  0
  -32.7071  -21.1223   22.8122 O   0  0  0  0  0  0  0  0  0  0  0  0
  -22.5695  -14.7137   20.9252 O   0  0  0  0  0  0  0  0  0  0  0  0
  -24.5797  -27.3049   23.6070 O   0  0  0  0  0  0  0  0  0  0  0  0
  -24.9961  -30.1715   26.5567 O   0  0  0  0  0  0  0  0  0  0  0  0
  -29.1241  -28.2274   27.8607 O   0  0  0  0  0  0  0  0  0  0  0  0
  -31.8162  -15.0706   20.4409 O   0  0  0  0  0  0  0  0  0  0  0  0
  -21.6413   -7.0378   21.8221 O   0  0  0  0  0  0  0  0  0  0  0  0
  -27.4200  -22.1420   25.3280 O   0  0  0  0  0  0  0  0  0  1  0  0
  -18.3228   -7.1516   26.2242 F   0  0  0  0  0  0  0  0  0  0  0  0
  -21.9871   -5.2538   23.9055 F   0  0  0  0  0  0  0  0  0  0  0  0
  -29.2693  -18.1468   22.7821 S   0  0  0  0  0  0  0  0  0  0  0  0
  1  2  1  0  0  0  0
  1  5  2  0  0  0  0
  2  6  2  0  0  0  0
  3  8  2  0  0  0  0
  3 16  1  0  0  0  0
  4  9  1  0  0  0  0
  4 16  2  0  0  0  0
  5 19  1  0  0  0  0
  6 21  1  0  0  0  0
  7 10  2  0  0  0  0
  7 20  1  0  0  0  0
  8 23  1  0  0  0  0
  9 23  2  0  0  0  0
 10 24  1  0  0  0  0
 11 12  2  0  0  0  0
 11 25  1  0  0  0  0
 12 26  1  0  0  0  0
 13 17  1  0  0  0  0
 13 31  2  0  0  0  0
 14 22  1  0  0  0  0
 14 24  2  0  0  0  0
 15 26  2  0  0  0  0
 15 27  1  0  0  0  0
 16 28  1  0  0  0  0
 17 29  2  0  0  0  0
 17 34  1  0  0  0  0
 18 28  1  0  0  0  0
 18 30  2  0  0  0  0
 18 35  1  0  0  0  0
 19 21  2  0  0  0  0
 19 40  1  0  0  0  0
 20 22  2  0  0  0  0
 20 41  1  0  0  0  0
 21 49  1  0  0  0  0
 22 42  1  0  0  0  0
 23 78  1  0  0  0  0
 24 79  1  0  0  0  0
 25 27  2  0  0  0  0
 25 78  1  0  0  0  0
 26 80  1  0  0  0  0
 27 81  1  0  0  0  0
 28 61  2  0  0  0  0
 29 32  1  0  0  0  0
 29 82  1  0  0  0  0
 30 62  1  0  0  0  0
 30 65  1  0  0  0  0
 31 68  1  0  0  0  0
 31 82  1  0  0  0  0
 32 33  2  0  0  0  0
 33 57  1  0  0  0  0
 34 66  1  0  0  0  0
 34 72  2  0  0  0  0
 35 67  1  0  0  0  0
 35 73  2  0  0  0  0
 36 50  1  0  0  0  0
 36 69  1  0  0  0  0
 36 74  2  0  0  0  0
 37 58  1  0  0  0  0
 37 63  1  0  0  0  0
 37 75  2  0  0  0  0
 38 59  1  0  0  0  0
 38 70  1  0  0  0  0
 38 76  2  0  0  0  0
 39 64  1  0  0  0  0
 39 68  1  0  0  0  0
 39 77  2  0  0  0  0
 40 43  1  0  0  0  0
 41 50  1  0  0  0  0
 42 63  1  0  0  0  0
 43 45  1  0  0  0  0
 44 46  1  0  0  0  0
 44 47  1  0  0  0  0
 45 49  1  0  0  0  0
 46 51  1  0  0  0  0
 47 64  1  0  0  0  0
 48 51  1  0  0  0  0
 48 64  1  0  0  0  0
 49 69  1  0  0  0  0
 50 63  1  0  0  0  0
 51 62  1  0  0  0  0
 52 59  1  0  0  0  0
 53 60  1  0  0  0  0
 54 60  1  0  0  0  0
 55 60  1  0  0  0  0
 56 71  1  0  0  0  0
 57 79  1  0  0  0  0
 58 60  1  0  0  0  0
 58 70  1  0  0  0  0
 59 71  1  0  0  0  0
 61 62  1  0  0  0  0
M  CHG  1  71   1
M  ISO  4  39 100  57 101  68 100  79 101
M  END
> <Batch ID>
0104

> <Smiles>
CNC(C)C(=O)NC(C(=O)N1Cc2cc([101O:1][101CH2:1]C=Cc3sc([100NH:0][100C:0](=O)N4CCCC(n5nc(-c6ccc(Oc7ccc(F)cc7F)cc6)c(C(N)=O)c5N)C4)cc3C(N)=O)ccc2CC1C(=O)NC1CCCc2ccccc21)C(C)(C)C

> <Shape>
0.276

> <Color>
0.213

> <Negative vol penalty>
0.000

$$$$

  -OEChem-04052301083D

 88 97  0     1  0  0  0  0  0999 V2000
  -20.9999  -36.5614   17.5070 C   0  0  0  0  0  0  0  0  0  0  0  0
  -22.1632  -35.8665   17.1921 C   0  0  0  0  0  0  0  0  0  0  0  0
  -25.5948  -12.6537   20.7072 C   0  0  0  0  0  0  0  0  0  0  0  0
  -26.0179  -14.8376   19.7645 C   0  0  0  0  0  0  0  0  0  0  0  0
  -29.0637  -17.7096   18.1961 C   0  0  0  0  0  0  0  0  0  0  0  0
  -20.6695  -36.7970   18.8409 C   0  0  0  0  0  0  0  0  0  0  0  0
  -22.9976  -35.4079   18.2109 C   0  0  0  0  0  0  0  0  0  0  0  0
  -24.5371  -28.4019   18.8719 C   0  0  0  0  0  0  0  0  0  0  0  0
  -28.8651  -18.9929   18.7052 C   0  0  0  0  0  0  0  0  0  0  0  0
  -24.2388  -12.9625   20.8140 C   0  0  0  0  0  0  0  0  0  0  0  0
  -24.6619  -15.1464   19.8714 C   0  0  0  0  0  0  0  0  0  0  0  0
  -25.0477  -27.1054   18.9380 C   0  0  0  0  0  0  0  0  0  0  0  0
  -21.5467  -13.0987   18.7728 C   0  0  0  0  0  0  0  0  0  0  0  0
  -20.6277  -12.1340   18.3599 C   0  0  0  0  0  0  0  0  0  0  0  0
  -26.2943  -27.6861   20.9271 C   0  0  0  0  0  0  0  0  0  0  0  0
  -29.0519  -19.9062   16.4763 C   0  0  0  0  0  0  0  0  0  0  0  0
  -19.6883  -12.0765   20.5850 C   0  0  0  0  0  0  0  0  0  0  0  0
  -26.4844  -13.5913   20.1825 C   0  0  0  0  0  0  0  0  0  0  0  0
  -29.2565  -17.5246   16.8270 C   0  0  0  0  0  0  0  0  0  0  0  0
  -28.7648  -12.9339   21.1180 C   0  0  0  0  0  0  0  0  0  0  0  0
  -21.4952  -36.3327   19.8769 C   0  0  0  0  0  0  0  0  0  0  0  0
  -24.8915  -29.3423   19.8432 C   0  0  0  0  0  0  0  0  0  0  0  0
  -22.6786  -35.6388   19.5599 C   0  0  0  0  0  0  0  0  0  0  0  0
  -25.7762  -28.9829   20.8732 C   0  0  0  0  0  0  0  0  0  0  0  0
  -29.2506  -18.6229   15.9672 C   0  0  0  0  0  0  0  0  0  0  0  0
  -28.8592  -20.0912   17.8454 C   0  0  0  0  0  0  0  0  0  0  0  0
  -23.7723  -14.2088   20.3961 C   0  0  0  0  0  0  0  0  0  0  0  0
  -25.9244  -26.7485   19.9628 C   0  0  0  0  0  0  0  0  0  0  0  0
  -21.5366  -13.5522   20.0918 C   0  0  0  0  0  0  0  0  0  0  0  0
  -19.6985  -11.6230   19.2660 C   0  0  0  0  0  0  0  0  0  0  0  0
  -20.6074  -13.0411   20.9980 C   0  0  0  0  0  0  0  0  0  0  0  0
  -27.8854  -13.2731   20.0723 C   0  0  0  0  0  0  0  0  0  0  0  0
  -29.9721  -12.7253   20.4972 C   0  0  0  0  0  0  0  0  0  0  0  0
  -28.1581  -23.9998   19.3583 C   0  0  0  0  0  0  0  0  0  0  0  0
  -27.5833  -25.2105   19.3669 C   0  0  0  0  0  0  0  0  0  1  0  0
  -29.4634  -16.1574   16.3162 C   0  0  0  0  0  0  0  0  0  0  0  0
  -28.5130  -12.8178   22.5247 C   0  0  0  0  0  0  0  0  0  0  0  0
  -24.5175  -32.8459   21.1320 C   0  0  0  0  0  0  0  0  0  0  0  0
  -24.5278  -30.9935   23.5771 C   0  0  0  0  0  0  0  0  0  0  0  0
  -23.7014  -28.7279   25.5987 C   0  0  0  0  0  0  0  0  0  0  0  0
  -28.4669  -14.1052   15.4176 C   0  0  0  0  0  0  0  0  0  0  0  0
  -21.1209  -36.6528   21.3024 C   0  0  0  0  0  0  0  0  0  0  0  0
  -24.4141  -30.7676   19.7767 C   0  0  0  0  0  0  0  0  0  0  0  0
  -26.1568  -30.0372   21.8764 C   0  0  0  0  0  0  0  0  0  0  0  0
  -29.4419  -23.7103   18.6340 C   0  0  0  0  0  0  0  0  0  0  0  0
  -27.5627  -22.8077   20.0525 C   0  0  0  0  0  0  0  0  0  0  0  0
  -21.8661  -35.8075   22.3323 C   0  0  0  0  0  0  0  0  0  0  0  0
  -29.8706  -11.0100   16.4979 C   0  0  0  0  0  0  0  0  0  0  0  0
  -23.3549  -35.7562   22.0042 C   0  0  0  0  0  0  0  0  0  0  0  0
  -30.9232  -11.4010   17.5313 C   0  0  0  0  0  0  0  0  0  0  0  0
  -29.2772  -22.5278   17.6761 C   0  0  0  0  0  0  0  0  0  0  0  0
  -27.4055  -21.6357   19.0819 C   0  0  0  0  0  0  0  0  0  0  0  0
  -29.8142  -12.0255   15.3653 C   0  0  0  0  0  0  0  0  0  0  0  0
  -30.5428  -13.8481   16.8852 C   0  0  0  0  0  0  0  0  0  0  0  0
  -23.5965  -35.1039   20.6376 C   0  0  1  0  0  0  0  0  0  0  0  0
  -24.1681  -31.3870   21.1642 C   0  0  1  0  0  0  0  0  0  0  0  0
  -30.7658  -12.8450   18.0376 C   0  0  1  0  0  0  0  0  0  0  0  0
  -29.4538  -18.4524   14.4969 C   0  0  0  0  0  0  0  0  0  0  0  0
  -23.0939  -27.2174   27.5084 C   0  0  0  0  0  0  0  0  0  0  0  0
  -27.4520  -31.7034   24.0758 C   0  0  0  0  0  0  0  0  0  0  0  0
  -27.2915  -30.5167   26.2745 C   0  0  0  0  0  0  0  0  0  0  0  0
  -25.8669  -32.5158   25.8313 C   0  0  0  0  0  0  0  0  0  0  0  0
  -27.0517  -16.0786   15.6848 C   0  0  0  0  0  0  0  0  0  0  0  0
  -20.9112  -29.7136   25.6427 C   0  0  0  0  0  0  0  0  0  0  0  0
  -25.3420  -30.3362   24.6627 C   0  0  1  0  0  0  0  0  0  0  0  0
  -22.7824  -28.5206   26.7890 C   0  0  2  0  0  0  0  0  0  0  0  0
  -26.4819  -31.2545   25.1868 C   0  0  0  0  0  0  0  0  0  0  0  0
  -28.4831  -13.2808   18.8779 N   0  0  0  0  0  0  0  0  0  0  0  0
  -29.7511  -12.9440   19.1692 N   0  0  0  0  0  0  0  0  0  0  0  0
  -28.6616  -21.3798   18.3572 N   0  0  0  0  0  0  0  0  0  0  0  0
  -24.9699  -30.8172   22.2603 N   0  0  0  0  0  0  0  0  0  0  0  0
  -29.5857  -13.3782   15.8712 N   0  0  0  0  0  0  0  0  0  0  0  0
  -31.1906  -12.3781   20.9631 N   0  0  0  0  0  0  0  0  0  0  0  0
  -28.1136  -11.5736   23.0314 N   0  0  0  0  0  0  0  0  0  0  0  0
  -23.4772  -33.6649   20.7363 N   0  0  0  0  0  0  0  0  0  0  0  0
  -24.3926  -29.9176   25.6883 N   0  0  0  0  0  0  0  0  0  0  0  0
  -28.3314  -15.4120   15.9298 N   0  0  0  0  0  0  0  0  0  0  0  0
  -21.3602  -28.4840   26.3452 N   0  3  0  0  0  0  0  0  0  0  0  0
  -30.6276  -15.7640   16.2494 O   0  0  0  0  0  0  0  0  0  0  0  0
  -28.6225  -13.7926   23.3065 O   0  0  0  0  0  0  0  0  0  0  0  0
  -25.6471  -33.2037   21.4445 O   0  0  0  0  0  0  0  0  0  0  0  0
  -23.5298  -31.6507   23.8858 O   0  0  0  0  0  0  0  0  0  0  0  0
  -23.7994  -27.9139   24.6831 O   0  0  0  0  0  0  0  0  0  0  0  0
  -27.6596  -13.6464   14.6015 O   0  0  0  0  0  0  0  0  0  0  0  0
  -22.4491  -14.5104   20.5000 O   0  0  0  0  0  0  0  0  0  0  0  0
  -26.4156  -25.4797   20.0239 O   0  0  0  0  0  0  0  0  0  1  0  0
  -18.8150  -10.6978   18.8689 F   0  0  0  0  0  0  0  0  0  0  0  0
  -20.5921  -13.4738   22.2662 F   0  0  0  0  0  0  0  0  0  0  0  0
  1  2  1  0  0  0  0
  1  6  2  0  0  0  0
  2  7  2  0  0  0  0
  3 10  2  0  0  0  0
  3 18  1  0  0  0  0
  4 11  1  0  0  0  0
  4 18  2  0  0  0  0
  5  9  2  0  0  0  0
  5 19  1  0  0  0  0
  6 21  1  0  0  0  0
  7 23  1  0  0  0  0
  8 12  2  0  0  0  0
  8 22  1  0  0  0  0
  9 26  1  0  0  0  0
 10 27  1  0  0  0  0
 11 27  2  0  0  0  0
 12 28  1  0  0  0  0
 13 14  2  0  0  0  0
 13 29  1  0  0  0  0
 14 30  1  0  0  0  0
 15 24  1  0  0  0  0
 15 28  2  0  0  0  0
 16 25  1  0  0  0  0
 16 26  2  0  0  0  0
 17 30  2  0  0  0  0
 17 31  1  0  0  0  0
 18 32  1  0  0  0  0
 19 25  2  0  0  0  0
 19 36  1  0  0  0  0
 20 32  1  0  0  0  0
 20 33  2  0  0  0  0
 20 37  1  0  0  0  0
 21 23  2  0  0  0  0
 21 42  1  0  0  0  0
 22 24  2  0  0  0  0
 22 43  1  0  0  0  0
 23 55  1  0  0  0  0
 24 44  1  0  0  0  0
 25 58  1  0  0  0  0
 26 70  1  0  0  0  0
 27 85  1  0  0  0  0
 28 86  1  0  0  0  0
 29 31  2  0  0  0  0
 29 85  1  0  0  0  0
 30 87  1  0  0  0  0
 31 88  1  0  0  0  0
 32 68  2  0  0  0  0
 33 69  1  0  0  0  0
 33 73  1  0  0  0  0
 34 35  2  0  0  0  0
 34 45  1  0  0  0  0
 34 46  1  0  0  0  0
 35 86  1  0  0  0  0
 36 77  1  0  0  0  0
 36 79  2  0  0  0  0
 37 74  1  0  0  0  0
 37 80  2  0  0  0  0
 38 56  1  0  0  0  0
 38 75  1  0  0  0  0
 38 81  2  0  0  0  0
 39 65  1  0  0  0  0
 39 71  1  0  0  0  0
 39 82  2  0  0  0  0
 40 66  1  0  0  0  0
 40 76  1  0  0  0  0
 40 83  2  0  0  0  0
 41 72  1  0  0  0  0
 41 77  1  0  0  0  0
 41 84  2  0  0  0  0
 42 47  1  0  0  0  0
 43 56  1  0  0  0  0
 44 71  1  0  0  0  0
 45 51  1  0  0  0  0
 46 52  1  0  0  0  0
 47 49  1  0  0  0  0
 48 50  1  0  0  0  0
 48 53  1  0  0  0  0
 49 55  1  0  0  0  0
 50 57  1  0  0  0  0
 51 70  1  0  0  0  0
 52 70  1  0  0  0  0
 53 72  1  0  0  0  0
 54 57  1  0  0  0  0
 54 72  1  0  0  0  0
 55 75  1  0  0  0  0
 56 71  1  0  0  0  0
 57 69  1  0  0  0  0
 59 66  1  0  0  0  0
 60 67  1  0  0  0  0
 61 67  1  0  0  0  0
 62 67  1  0  0  0  0
 63 77  1  0  0  0  0
 64 78  1  0  0  0  0
 65 67  1  0  0  0  0
 65 76  1  0  0  0  0
 66 78  1  0  0  0  0
 68 69  1  0  0  0  0
M  CHG  1  78   1
M  ISO  4  35 101  41 100  77 100  86 101
M  END
> <Batch ID>
0104

> <Smiles>
CNC(C)C(=O)NC(C(=O)N1Cc2cc([101O:1][101CH:1]=C3CCN(c4ccc(C(=O)[100N:0](C)[100C:0](=O)N5CCCC(n6nc(-c7ccc(Oc8ccc(F)cc8F)cc7)c(C(N)=O)c6N)C5)c(C)c4)CC3)ccc2CC1C(=O)NC1CCCc2ccccc21)C(C)(C)C

> <Shape>
0.238

> <Color>
0.106

> <Negative vol penalty>
0.000

$$$$

  -OEChem-04052301083D

 87 96  0     1  0  0  0  0  0999 V2000
  -25.9644  -37.2968   17.6904 C   0  0  0  0  0  0  0  0  0  0  0  0
  -25.8077  -36.0465   17.1007 C   0  0  0  0  0  0  0  0  0  0  0  0
  -23.0247  -10.0356   19.8657 C   0  0  0  0  0  0  0  0  0  0  0  0
  -24.0618   -9.5901   22.0019 C   0  0  0  0  0  0  0  0  0  0  0  0
  -26.5339  -37.4017   18.9587 C   0  0  0  0  0  0  0  0  0  0  0  0
  -26.2216  -34.9004   17.7786 C   0  0  0  0  0  0  0  0  0  0  0  0
  -24.5314  -27.9888   18.6089 C   0  0  0  0  0  0  0  0  0  0  0  0
  -31.4706  -18.5779   20.7427 C   0  0  0  0  0  0  0  0  0  0  0  0
  -31.1662  -19.7706   20.0866 C   0  0  0  0  0  0  0  0  0  0  0  0
  -22.3242   -8.8327   19.9549 C   0  0  0  0  0  0  0  0  0  0  0  0
  -23.3612   -8.3872   22.0911 C   0  0  0  0  0  0  0  0  0  0  0  0
  -25.1106  -26.7225   18.5396 C   0  0  0  0  0  0  0  0  0  0  0  0
  -20.2368   -7.3800   22.8937 C   0  0  0  0  0  0  0  0  0  0  0  0
  -19.6304   -7.0738   24.1119 C   0  0  0  0  0  0  0  0  0  0  0  0
  -26.0087  -27.0185   20.7588 C   0  0  0  0  0  0  0  0  0  0  0  0
  -29.0291  -19.8438   21.2111 C   0  0  0  0  0  0  0  0  0  0  0  0
  -20.9646   -5.0659   24.2715 C   0  0  0  0  0  0  0  0  0  0  0  0
  -23.8936  -10.4143   20.8891 C   0  0  0  0  0  0  0  0  0  0  0  0
  -24.2031  -12.9188   21.2621 C   0  0  0  0  0  0  0  0  0  0  0  0
  -26.9461  -36.2555   19.6565 C   0  0  0  0  0  0  0  0  0  0  0  0
  -24.6959  -28.7852   19.7513 C   0  0  0  0  0  0  0  0  0  0  0  0
  -26.7985  -34.9902   19.0569 C   0  0  0  0  0  0  0  0  0  0  0  0
  -25.4284  -28.2935   20.8411 C   0  0  0  0  0  0  0  0  0  0  0  0
  -30.5541  -18.0181   21.6329 C   0  0  0  0  0  0  0  0  0  0  0  0
  -29.3335  -18.6511   21.8671 C   0  0  0  0  0  0  0  0  0  0  0  0
  -29.9455  -20.4036   20.3208 C   0  0  0  0  0  0  0  0  0  0  0  0
  -22.4924   -8.0086   21.0676 C   0  0  0  0  0  0  0  0  0  0  0  0
  -25.8518  -26.2383   19.6135 C   0  0  0  0  0  0  0  0  0  0  0  0
  -21.2071   -6.5291   22.3643 C   0  0  0  0  0  0  0  0  0  0  0  0
  -19.9943   -5.9168   24.8008 C   0  0  0  0  0  0  0  0  0  0  0  0
  -21.5710   -5.3721   23.0532 C   0  0  0  0  0  0  0  0  0  0  0  0
  -24.6179  -11.6564   20.7973 C   0  0  0  0  0  0  0  0  0  0  0  0
  -25.2376  -13.7615   20.9366 C   0  0  0  0  0  0  0  0  0  0  0  0
  -28.8214  -22.5990   20.1982 C   0  0  0  0  0  0  0  0  0  0  0  0
  -28.4546  -23.7510   19.6190 C   0  0  0  0  0  0  0  0  0  0  0  0
  -28.9033  -23.9693   18.2150 C   0  0  0  0  0  0  0  0  0  0  0  0
  -22.9910  -13.2959   21.9287 C   0  0  0  0  0  0  0  0  0  0  0  0
  -26.0183  -31.6148   20.3417 C   0  0  0  0  0  0  0  0  0  0  0  0
  -24.7610  -31.1498   23.2956 C   0  0  0  0  0  0  0  0  0  0  0  0
  -23.6375  -28.9528   25.6532 C   0  0  0  0  0  0  0  0  0  0  0  0
  -30.6966  -14.8922   20.6786 C   0  0  0  0  0  0  0  0  0  0  0  0
  -27.5998  -36.4227   21.0054 C   0  0  0  0  0  0  0  0  0  0  0  0
  -24.0424  -30.1381   19.8210 C   0  0  0  0  0  0  0  0  0  0  0  0
  -25.6177  -29.1008   22.0984 C   0  0  0  0  0  0  0  0  0  0  0  0
  -29.5449  -22.8054   17.4895 C   0  0  0  0  0  0  0  0  0  0  0  0
  -27.6688  -35.1293   21.8133 C   0  0  0  0  0  0  0  0  0  0  0  0
  -29.2873  -13.0206   17.9976 C   0  0  0  0  0  0  0  0  0  0  0  0
  -28.1680  -33.9814   20.9417 C   0  0  0  0  0  0  0  0  0  0  0  0
  -27.9160  -12.5981   18.5276 C   0  0  0  0  0  0  0  0  0  0  0  0
  -30.3689  -21.9110   18.4120 C   0  0  0  0  0  0  0  0  0  0  0  0
  -30.3443  -13.0161   19.0997 C   0  0  0  0  0  0  0  0  0  0  0  0
  -28.6239  -13.3827   20.8259 C   0  0  0  0  0  0  0  0  0  0  0  0
  -27.2124  -33.7217   19.7709 C   0  0  1  0  0  0  0  0  0  0  0  0
  -24.7055  -31.0708   20.8298 C   0  0  1  0  0  0  0  0  0  0  0  0
  -27.5129  -13.4258   19.7628 C   0  0  2  0  0  0  0  0  0  0  0  0
  -28.3361  -18.0697   22.8148 C   0  0  0  0  0  0  0  0  0  0  0  0
  -22.7073  -28.8679   27.9823 C   0  0  0  0  0  0  0  0  0  0  0  0
  -27.5501  -31.6546   24.4253 C   0  0  0  0  0  0  0  0  0  0  0  0
  -26.7838  -30.6411   26.5826 C   0  0  0  0  0  0  0  0  0  0  0  0
  -25.6919  -32.7125   25.7225 C   0  0  0  0  0  0  0  0  0  0  0  0
  -21.1107  -27.7239   24.7237 C   0  0  0  0  0  0  0  0  0  0  0  0
  -30.9019  -16.7399   22.3226 C   0  0  0  0  0  0  0  0  0  0  0  0
  -27.6275  -24.8036   20.2800 C   0  0  0  0  0  0  0  0  0  1  0  0
  -25.2427  -30.5058   24.5733 C   0  0  1  0  0  0  0  0  0  0  0  0
  -22.3774  -28.9408   26.4995 C   0  0  2  0  0  0  0  0  0  0  0  0
  -26.3154  -31.3638   25.3016 C   0  0  0  0  0  0  0  0  0  0  0  0
  -25.8221  -11.6896   20.2202 N   0  0  0  0  0  0  0  0  0  0  0  0
  -26.1727  -12.9831   20.3202 N   0  0  0  0  0  0  0  0  0  0  0  0
  -29.6366  -21.6181   19.6534 N   0  0  0  0  0  0  0  0  0  0  0  0
  -24.9645  -30.4201   22.1158 N   0  0  0  0  0  0  0  0  0  0  0  0
  -29.9012  -13.8203   20.2412 N   0  0  0  0  0  0  0  0  0  0  0  0
  -25.4296  -15.0851   21.1202 N   0  0  0  0  0  0  0  0  0  0  0  0
  -22.0338  -12.3050   22.1859 N   0  0  0  0  0  0  0  0  0  0  0  0
  -26.0474  -32.9911   20.2219 N   0  0  0  0  0  0  0  0  0  0  0  0
  -24.0502  -30.2376   25.3699 N   0  0  0  0  0  0  0  0  0  0  0  0
  -30.2005  -15.6064   21.7623 N   0  0  0  0  0  0  0  0  0  0  0  0
  -21.5289  -27.7670   26.1486 N   0  3  0  0  0  0  0  0  0  0  0  0
  -28.6913  -25.0382   17.6454 O   0  0  0  0  0  0  0  0  0  0  0  0
  -22.7564  -14.4797   22.2710 O   0  0  0  0  0  0  0  0  0  0  0  0
  -26.9373  -30.8431   20.0937 O   0  0  0  0  0  0  0  0  0  0  0  0
  -24.2177  -32.2562   23.3436 O   0  0  0  0  0  0  0  0  0  0  0  0
  -24.2016  -27.9253   25.2836 O   0  0  0  0  0  0  0  0  0  0  0  0
  -31.7669  -15.1939   20.1396 O   0  0  0  0  0  0  0  0  0  0  0  0
  -21.8088   -6.8349   21.1551 O   0  0  0  0  0  0  0  0  0  0  0  0
  -26.4188  -25.0030   19.5482 O   0  0  0  0  0  0  0  0  0  1  0  0
  -19.4129   -5.6237   25.9714 F   0  0  0  0  0  0  0  0  0  0  0  0
  -22.5033   -4.5514   22.5502 F   0  0  0  0  0  0  0  0  0  0  0  0
  1  2  1  0  0  0  0
  1  5  2  0  0  0  0
  2  6  2  0  0  0  0
  3 10  2  0  0  0  0
  3 18  1  0  0  0  0
  4 11  1  0  0  0  0
  4 18  2  0  0  0  0
  5 20  1  0  0  0  0
  6 22  1  0  0  0  0
  7 12  2  0  0  0  0
  7 21  1  0  0  0  0
  8  9  2  0  0  0  0
  8 24  1  0  0  0  0
  9 26  1  0  0  0  0
 10 27  1  0  0  0  0
 11 27  2  0  0  0  0
 12 28  1  0  0  0  0
 13 14  2  0  0  0  0
 13 29  1  0  0  0  0
 14 30  1  0  0  0  0
 15 23  1  0  0  0  0
 15 28  2  0  0  0  0
 16 25  1  0  0  0  0
 16 26  2  0  0  0  0
 17 30  2  0  0  0  0
 17 31  1  0  0  0  0
 18 32  1  0  0  0  0
 19 32  1  0  0  0  0
 19 33  2  0  0  0  0
 19 37  1  0  0  0  0
 20 22  2  0  0  0  0
 20 42  1  0  0  0  0
 21 23  2  0  0  0  0
 21 43  1  0  0  0  0
 22 53  1  0  0  0  0
 23 44  1  0  0  0  0
 24 25  2  0  0  0  0
 24 62  1  0  0  0  0
 25 56  1  0  0  0  0
 26 69  1  0  0  0  0
 27 84  1  0  0  0  0
 28 85  1  0  0  0  0
 29 31  2  0  0  0  0
 29 84  1  0  0  0  0
 30 86  1  0  0  0  0
 31 87  1  0  0  0  0
 32 67  2  0  0  0  0
 33 68  1  0  0  0  0
 33 72  1  0  0  0  0
 34 35  2  0  0  0  0
 34 69  1  0  0  0  0
 35 36  1  0  0  0  0
 35 63  1  0  0  0  0
 36 45  1  0  0  0  0
 36 78  2  0  0  0  0
 37 73  1  0  0  0  0
 37 79  2  0  0  0  0
 38 54  1  0  0  0  0
 38 74  1  0  0  0  0
 38 80  2  0  0  0  0
 39 64  1  0  0  0  0
 39 70  1  0  0  0  0
 39 81  2  0  0  0  0
 40 65  1  0  0  0  0
 40 75  1  0  0  0  0
 40 82  2  0  0  0  0
 41 71  1  0  0  0  0
 41 76  1  0  0  0  0
 41 83  2  0  0  0  0
 42 46  1  0  0  0  0
 43 54  1  0  0  0  0
 44 70  1  0  0  0  0
 45 50  1  0  0  0  0
 46 48  1  0  0  0  0
 47 49  1  0  0  0  0
 47 51  1  0  0  0  0
 48 53  1  0  0  0  0
 49 55  1  0  0  0  0
 50 69  1  0  0  0  0
 51 71  1  0  0  0  0
 52 55  1  0  0  0  0
 52 71  1  0  0  0  0
 53 74  1  0  0  0  0
 54 70  1  0  0  0  0
 55 68  1  0  0  0  0
 57 65  1  0  0  0  0
 58 66  1  0  0  0  0
 59 66  1  0  0  0  0
 60 66  1  0  0  0  0
 61 77  1  0  0  0  0
 62 76  1  0  0  0  0
 63 85  1  0  0  0  0
 64 66  1  0  0  0  0
 64 75  1  0  0  0  0
 65 77  1  0  0  0  0
 67 68  1  0  0  0  0
M  CHG  1  77   1
M  ISO  4  41 100  63 101  76 100  85 101
M  END
> <Batch ID>
0104

> <Smiles>
CNC(C)C(=O)NC(C(=O)N1Cc2cc([101O:1][101CH2:1]C3=CN(c4ccc(C[100NH:0][100C:0](=O)N5CCCC(n6nc(-c7ccc(Oc8ccc(F)cc8F)cc7)c(C(N)=O)c6N)C5)c(C)c4)CCC3=O)ccc2CC1C(=O)NC1CCCc2ccccc21)C(C)(C)C

> <Shape>
0.364

> <Color>
0.215

> <Negative vol penalty>
0.000

$$$$

  -OEChem-04052301083D

 83 92  0     1  0  0  0  0  0999 V2000
  -26.9625  -33.9322   25.8532 C   0  0  0  0  0  0  0  0  0  0  0  0
  -27.1544  -32.5619   25.7086 C   0  0  0  0  0  0  0  0  0  0  0  0
  -23.2837   -9.8108   19.8377 C   0  0  0  0  0  0  0  0  0  0  0  0
  -23.8102   -9.7887   22.1956 C   0  0  0  0  0  0  0  0  0  0  0  0
  -25.9952  -34.5839   25.0893 C   0  0  0  0  0  0  0  0  0  0  0  0
  -26.3783  -31.8423   24.8007 C   0  0  0  0  0  0  0  0  0  0  0  0
  -28.1447  -27.0292   21.4511 C   0  0  0  0  0  0  0  0  0  0  0  0
  -22.5806   -8.6150   19.9834 C   0  0  0  0  0  0  0  0  0  0  0  0
  -23.1070   -8.5929   22.3413 C   0  0  0  0  0  0  0  0  0  0  0  0
  -27.9817  -25.6554   21.6242 C   0  0  0  0  0  0  0  0  0  0  0  0
  -19.8817   -7.6168   22.5956 C   0  0  0  0  0  0  0  0  0  0  0  0
  -19.0151   -7.5046   23.6828 C   0  0  0  0  0  0  0  0  0  0  0  0
  -26.0425  -25.7110   20.1905 C   0  0  0  0  0  0  0  0  0  0  0  0
  -27.9315  -19.2404   19.2066 C   0  0  0  0  0  0  0  0  0  0  0  0
  -28.3169  -20.7447   17.3322 C   0  0  0  0  0  0  0  0  0  0  0  0
  -20.2777   -5.6111   24.4938 C   0  0  0  0  0  0  0  0  0  0  0  0
  -23.8985  -10.3977   20.9438 C   0  0  0  0  0  0  0  0  0  0  0  0
  -24.1166  -12.9392   20.9198 C   0  0  0  0  0  0  0  0  0  0  0  0
  -25.2135  -33.8736   24.1646 C   0  0  0  0  0  0  0  0  0  0  0  0
  -27.2500  -27.7573   20.6539 C   0  0  0  0  0  0  0  0  0  0  0  0
  -25.3987  -32.4849   24.0247 C   0  0  0  0  0  0  0  0  0  0  0  0
  -26.1979  -27.0935   20.0068 C   0  0  0  0  0  0  0  0  0  0  0  0
  -28.3500  -18.1944   18.4032 C   0  0  0  0  0  0  0  0  0  0  0  0
  -28.7464  -18.4119   17.0800 C   0  0  0  0  0  0  0  0  0  0  0  0
  -28.7351  -19.6811   16.5294 C   0  0  0  0  0  0  0  0  0  0  0  0
  -22.4923   -8.0060   21.2352 C   0  0  0  0  0  0  0  0  0  0  0  0
  -26.9288  -24.9966   20.9962 C   0  0  0  0  0  0  0  0  0  0  0  0
  -20.9462   -6.7261   22.4574 C   0  0  0  0  0  0  0  0  0  0  0  0
  -27.9185  -20.5260   18.6612 C   0  0  0  0  0  0  0  0  0  0  0  0
  -19.2131   -6.5018   24.6320 C   0  0  0  0  0  0  0  0  0  0  0  0
  -21.1443   -5.7233   23.4065 C   0  0  0  0  0  0  0  0  0  0  0  0
  -24.6254  -11.6327   20.7938 C   0  0  0  0  0  0  0  0  0  0  0  0
  -25.1984  -13.7529   20.6868 C   0  0  0  0  0  0  0  0  0  0  0  0
  -22.7853  -13.3782   21.2207 C   0  0  0  0  0  0  0  0  0  0  0  0
  -25.2158  -30.1443   21.1714 C   0  0  0  0  0  0  0  0  0  0  0  0
  -24.8683  -30.0300   17.9483 C   0  0  0  0  0  0  0  0  0  0  0  0
  -25.1002  -28.2077   15.0721 C   0  0  0  0  0  0  0  0  0  0  0  0
  -29.6429  -14.8921   17.4243 C   0  0  0  0  0  0  0  0  0  0  0  0
  -24.1478  -34.6133   23.3953 C   0  0  0  0  0  0  0  0  0  0  0  0
  -27.4553  -29.2341   20.4557 C   0  0  0  0  0  0  0  0  0  0  0  0
  -25.2218  -27.8259   19.1241 C   0  0  0  0  0  0  0  0  0  0  0  0
  -28.4333  -16.7406   18.7383 C   0  0  0  0  0  0  0  0  0  0  0  0
  -29.1525  -17.1258   16.4431 C   0  0  0  0  0  0  0  0  0  0  0  0
  -23.6245  -33.8431   22.1856 C   0  0  0  0  0  0  0  0  0  0  0  0
  -30.1273  -12.6744   20.3057 C   0  0  0  0  0  0  0  0  0  0  0  0
  -23.3247  -32.3959   22.5630 C   0  0  0  0  0  0  0  0  0  0  0  0
  -28.6936  -12.2816   20.6691 C   0  0  0  0  0  0  0  0  0  0  0  0
  -30.2847  -12.9532   18.8122 C   0  0  0  0  0  0  0  0  0  0  0  0
  -27.8954  -13.5209   18.6252 C   0  0  0  0  0  0  0  0  0  0  0  0
  -24.5936  -31.6740   23.0325 C   0  0  1  0  0  0  0  0  0  0  0  0
  -26.1827  -29.9632   20.0357 C   0  0  1  0  0  0  0  0  0  0  0  0
  -27.6794  -13.3084   20.1293 C   0  0  1  0  0  0  0  0  0  0  0  0
  -29.1573  -19.9214   15.1221 C   0  0  0  0  0  0  0  0  0  0  0  0
  -24.7121  -28.3735   12.5984 C   0  0  0  0  0  0  0  0  0  0  0  0
  -21.8611  -29.7910   18.4064 C   0  0  0  0  0  0  0  0  0  0  0  0
  -21.6320  -29.0173   16.0364 C   0  0  0  0  0  0  0  0  0  0  0  0
  -22.5125  -31.3002   16.5216 C   0  0  0  0  0  0  0  0  0  0  0  0
  -27.9498  -27.6797   14.4724 C   0  0  0  0  0  0  0  0  0  0  0  0
  -27.9445  -22.8826   21.3904 C   0  0  0  0  0  0  0  0  0  1  0  0
  -27.7452  -21.4880   20.8293 C   0  0  0  0  0  0  0  0  0  0  0  0
  -23.9639  -29.2852   16.9962 C   0  0  1  0  0  0  0  0  0  0  0  0
  -25.7223  -28.5270   13.7247 C   0  0  2  0  0  0  0  0  0  0  0  0
  -22.5095  -29.8347   17.0083 C   0  0  0  0  0  0  0  0  0  0  0  0
  -25.9289  -11.6127   20.5030 N   0  0  0  0  0  0  0  0  0  0  0  0
  -26.2483  -12.9168   20.4444 N   0  0  0  0  0  0  0  0  0  0  0  0
  -25.4609  -29.2701   18.9667 N   0  0  0  0  0  0  0  0  0  0  0  0
  -29.0048  -16.1314   17.5190 N   0  0  0  0  0  0  0  0  0  0  0  0
  -29.2814  -13.9135   18.3552 N   0  0  0  0  0  0  0  0  0  0  0  0
  -25.3443  -15.0948   20.6675 N   0  0  0  0  0  0  0  0  0  0  0  0
  -21.7943  -12.4099   21.4321 N   0  0  0  0  0  0  0  0  0  0  0  0
  -25.4127  -31.3027   21.8986 N   0  0  0  0  0  0  0  0  0  0  0  0
  -24.6123  -29.3394   15.6905 N   0  0  0  0  0  0  0  0  0  0  0  0
  -26.8695  -27.6149   13.4547 N   0  3  0  0  0  0  0  0  0  0  0  0
  -22.4798  -14.5932   21.2836 O   0  0  0  0  0  0  0  0  0  0  0  0
  -24.3538  -29.2967   21.3720 O   0  0  0  0  0  0  0  0  0  0  0  0
  -25.0481  -31.2400   17.7897 O   0  0  0  0  0  0  0  0  0  0  0  0
  -25.0485  -27.0677   15.5286 O   0  0  0  0  0  0  0  0  0  0  0  0
  -30.5308  -14.6872   16.5868 O   0  0  0  0  0  0  0  0  0  0  0  0
  -21.8061   -6.8392   21.3778 O   0  0  0  0  0  0  0  0  0  0  0  0
  -26.7659  -23.6468   21.1651 O   0  0  0  0  0  0  0  0  0  1  0  0
  -27.5139  -21.5795   19.4251 O   0  0  0  0  0  0  0  0  0  0  0  0
  -18.3818   -6.3952   25.6768 F   0  0  0  0  0  0  0  0  0  0  0  0
  -22.1659   -4.8654   23.2797 F   0  0  0  0  0  0  0  0  0  0  0  0
  1  2  1  0  0  0  0
  1  5  2  0  0  0  0
  2  6  2  0  0  0  0
  3  8  2  0  0  0  0
  3 17  1  0  0  0  0
  4  9  1  0  0  0  0
  4 17  2  0  0  0  0
  5 19  1  0  0  0  0
  6 21  1  0  0  0  0
  7 10  2  0  0  0  0
  7 20  1  0  0  0  0
  8 26  1  0  0  0  0
  9 26  2  0  0  0  0
 10 27  1  0  0  0  0
 11 12  2  0  0  0  0
 11 28  1  0  0  0  0
 12 30  1  0  0  0  0
 13 22  1  0  0  0  0
 13 27  2  0  0  0  0
 14 23  1  0  0  0  0
 14 29  2  0  0  0  0
 15 25  2  0  0  0  0
 15 29  1  0  0  0  0
 16 30  2  0  0  0  0
 16 31  1  0  0  0  0
 17 32  1  0  0  0  0
 18 32  1  0  0  0  0
 18 33  2  0  0  0  0
 18 34  1  0  0  0  0
 19 21  2  0  0  0  0
 19 39  1  0  0  0  0
 20 22  2  0  0  0  0
 20 40  1  0  0  0  0
 21 50  1  0  0  0  0
 22 41  1  0  0  0  0
 23 24  2  0  0  0  0
 23 42  1  0  0  0  0
 24 25  1  0  0  0  0
 24 43  1  0  0  0  0
 25 53  1  0  0  0  0
 26 79  1  0  0  0  0
 27 80  1  0  0  0  0
 28 31  2  0  0  0  0
 28 79  1  0  0  0  0
 29 81  1  0  0  0  0
 30 82  1  0  0  0  0
 31 83  1  0  0  0  0
 32 64  2  0  0  0  0
 33 65  1  0  0  0  0
 33 69  1  0  0  0  0
 34 70  1  0  0  0  0
 34 74  2  0  0  0  0
 35 51  1  0  0  0  0
 35 71  1  0  0  0  0
 35 75  2  0  0  0  0
 36 61  1  0  0  0  0
 36 66  1  0  0  0  0
 36 76  2  0  0  0  0
 37 62  1  0  0  0  0
 37 72  1  0  0  0  0
 37 77  2  0  0  0  0
 38 67  1  0  0  0  0
 38 68  1  0  0  0  0
 38 78  2  0  0  0  0
 39 44  1  0  0  0  0
 40 51  1  0  0  0  0
 41 66  1  0  0  0  0
 42 67  1  0  0  0  0
 43 67  1  0  0  0  0
 44 46  1  0  0  0  0
 45 47  1  0  0  0  0
 45 48  1  0  0  0  0
 46 50  1  0  0  0  0
 47 52  1  0  0  0  0
 48 68  1  0  0  0  0
 49 52  1  0  0  0  0
 49 68  1  0  0  0  0
 50 71  1  0  0  0  0
 51 66  1  0  0  0  0
 52 65  1  0  0  0  0
 54 62  1  0  0  0  0
 55 63  1  0  0  0  0
 56 63  1  0  0  0  0
 57 63  1  0  0  0  0
 58 73  1  0  0  0  0
 59 60  1  0  0  0  0
 59 80  1  0  0  0  0
 60 81  1  0  0  0  0
 61 63  1  0  0  0  0
 61 72  1  0  0  0  0
 62 73  1  0  0  0  0
 64 65  1  0  0  0  0
M  CHG  1  73   1
M  ISO  4  38 100  59 101  67 100  80 101
M  END
> <Batch ID>
0104

> <Smiles>
CNC(C)C(=O)NC(C(=O)N1Cc2cc([101O:1][101CH2:1]COc3cc(C)c4c(c3)C[100N:0]([100C:0](=O)N3CCCC(n5nc(-c6ccc(Oc7ccc(F)cc7F)cc6)c(C(N)=O)c5N)C3)C4)ccc2CC1C(=O)NC1CCCc2ccccc21)C(C)(C)C

> <Shape>
0.299

> <Color>
0.190

> <Negative vol penalty>
0.000

$$$$

  -OEChem-04052301083D

 85 93  0     1  0  0  0  0  0999 V2000
  -36.4517  -23.0582   16.6460 C   0  0  0  0  0  0  0  0  0  0  0  0
  -35.2652  -22.6829   16.0240 C   0  0  0  0  0  0  0  0  0  0  0  0
  -23.3207   -9.7865   19.8730 C   0  0  0  0  0  0  0  0  0  0  0  0
  -23.7766   -9.8726   22.2440 C   0  0  0  0  0  0  0  0  0  0  0  0
  -36.4412  -23.4564   17.9822 C   0  0  0  0  0  0  0  0  0  0  0  0
  -34.0678  -22.7044   16.7382 C   0  0  0  0  0  0  0  0  0  0  0  0
  -30.2742  -24.7862   14.1077 C   0  0  0  0  0  0  0  0  0  0  0  0
  -22.6293   -8.5880   20.0494 C   0  0  0  0  0  0  0  0  0  0  0  0
  -23.0851   -8.6741   22.4205 C   0  0  0  0  0  0  0  0  0  0  0  0
  -29.6688  -23.9973   13.1305 C   0  0  0  0  0  0  0  0  0  0  0  0
  -21.1313   -5.8230   23.5483 C   0  0  0  0  0  0  0  0  0  0  0  0
  -20.2350   -5.7414   24.6140 C   0  0  0  0  0  0  0  0  0  0  0  0
  -27.8585  -23.5147   14.6502 C   0  0  0  0  0  0  0  0  0  0  0  0
  -28.6053  -17.2663   13.8336 C   0  0  0  0  0  0  0  0  0  0  0  0
  -29.5409  -18.1713   16.3011 C   0  0  0  0  0  0  0  0  0  0  0  0
  -18.9688   -7.5798   23.6899 C   0  0  0  0  0  0  0  0  0  0  0  0
  -23.8944  -10.4288   20.9703 C   0  0  0  0  0  0  0  0  0  0  0  0
  -24.0799  -12.9699   20.8432 C   0  0  0  0  0  0  0  0  0  0  0  0
  -35.2416  -23.4920   18.7103 C   0  0  0  0  0  0  0  0  0  0  0  0
  -29.6807  -24.9368   15.3693 C   0  0  0  0  0  0  0  0  0  0  0  0
  -34.0415  -23.1021   18.0857 C   0  0  0  0  0  0  0  0  0  0  0  0
  -28.4571  -24.3082   15.6407 C   0  0  0  0  0  0  0  0  0  0  0  0
  -28.5686  -16.4242   14.9449 C   0  0  0  0  0  0  0  0  0  0  0  0
  -29.0363  -16.8766   16.1787 C   0  0  0  0  0  0  0  0  0  0  0  0
  -22.5115   -8.0318   21.3231 C   0  0  0  0  0  0  0  0  0  0  0  0
  -28.4623  -23.3590   13.4026 C   0  0  0  0  0  0  0  0  0  0  0  0
  -20.9464   -6.7832   22.5535 C   0  0  0  0  0  0  0  0  0  0  0  0
  -29.1099  -18.5610   13.9560 C   0  0  0  0  0  0  0  0  0  0  0  0
  -29.5777  -19.0135   15.1898 C   0  0  0  0  0  0  0  0  0  0  0  0
  -19.1538   -6.6197   24.6848 C   0  0  0  0  0  0  0  0  0  0  0  0
  -19.8651   -7.6615   22.6243 C   0  0  0  0  0  0  0  0  0  0  0  0
  -24.6092  -11.6666   20.7885 C   0  0  0  0  0  0  0  0  0  0  0  0
  -25.1573  -13.7883   20.6071 C   0  0  0  0  0  0  0  0  0  0  0  0
  -22.7345  -13.4021   21.0857 C   0  0  0  0  0  0  0  0  0  0  0  0
  -30.5293  -24.2197   18.3474 C   0  0  0  0  0  0  0  0  0  0  0  0
  -27.8079  -25.8195   19.0937 C   0  0  0  0  0  0  0  0  0  0  0  0
  -24.7237  -26.9040   18.1149 C   0  0  0  0  0  0  0  0  0  0  0  0
  -29.7047  -14.7936   17.3659 C   0  0  0  0  0  0  0  0  0  0  0  0
  -35.2873  -23.8842   20.1659 C   0  0  0  0  0  0  0  0  0  0  0  0
  -30.3329  -25.8129   16.4034 C   0  0  0  0  0  0  0  0  0  0  0  0
  -27.7687  -24.4542   16.9724 C   0  0  0  0  0  0  0  0  0  0  0  0
  -33.9197  -24.2378   20.7447 C   0  0  0  0  0  0  0  0  0  0  0  0
  -30.1022  -12.7822   20.4328 C   0  0  0  0  0  0  0  0  0  0  0  0
  -32.8837  -23.1926   20.3434 C   0  0  0  0  0  0  0  0  0  0  0  0
  -28.6675  -12.3696   20.7578 C   0  0  0  0  0  0  0  0  0  0  0  0
  -30.3111  -12.9739   18.9336 C   0  0  0  0  0  0  0  0  0  0  0  0
  -27.9135  -13.5154   18.6355 C   0  0  0  0  0  0  0  0  0  0  0  0
  -32.7186  -23.1360   18.8199 C   0  0  1  0  0  0  0  0  0  0  0  0
  -29.8988  -25.4806   17.8277 C   0  0  1  0  0  0  0  0  0  0  0  0
  -27.6602  -13.3562   20.1423 C   0  0  1  0  0  0  0  0  0  0  0  0
  -28.0242  -15.0419   14.7843 C   0  0  0  0  0  0  0  0  0  0  0  0
  -22.7165  -28.1537   18.9558 C   0  0  0  0  0  0  0  0  0  0  0  0
  -26.9503  -23.3638   20.6888 C   0  0  0  0  0  0  0  0  0  0  0  0
  -24.6165  -24.2702   20.6966 C   0  0  0  0  0  0  0  0  0  0  0  0
  -26.4539  -25.5515   21.7943 C   0  0  0  0  0  0  0  0  0  0  0  0
  -28.4431  -16.5508   18.5867 C   0  0  0  0  0  0  0  0  0  0  0  0
  -25.0315  -29.0126   16.0611 C   0  0  0  0  0  0  0  0  0  0  0  0
  -30.5306  -20.6602   16.6167 C   0  0  0  0  0  0  0  0  0  0  0  0
  -28.1036  -20.6212   11.0727 C   0  0  0  0  0  0  0  0  0  0  0  0
  -28.7282  -21.9345   11.5169 C   0  0  0  0  0  0  0  0  0  1  0  0
  -27.8930  -19.6683   12.2388 C   0  0  0  0  0  0  0  0  0  0  0  0
  -26.3579  -25.4382   19.2704 C   0  0  1  0  0  0  0  0  0  0  0  0
  -24.0489  -28.2589   18.2303 C   0  0  2  0  0  0  0  0  0  0  0  0
  -26.1084  -24.6514   20.5880 C   0  0  0  0  0  0  0  0  0  0  0  0
  -25.9210  -11.6529   20.5373 N   0  0  0  0  0  0  0  0  0  0  0  0
  -26.2249  -12.9577   20.4319 N   0  0  0  0  0  0  0  0  0  0  0  0
  -28.4492  -25.3162   17.9529 N   0  0  0  0  0  0  0  0  0  0  0  0
  -29.3127  -13.8805   18.3653 N   0  0  0  0  0  0  0  0  0  0  0  0
  -25.2862  -15.1301   20.5343 N   0  0  0  0  0  0  0  0  0  0  0  0
  -21.7504  -12.4296   21.3095 N   0  0  0  0  0  0  0  0  0  0  0  0
  -31.9109  -24.2442   18.3575 N   0  0  0  0  0  0  0  0  0  0  0  0
  -25.5940  -26.6762   19.1599 N   0  0  0  0  0  0  0  0  0  0  0  0
  -29.0066  -16.0204   17.3409 N   0  0  0  0  0  0  0  0  0  0  0  0
  -23.8030  -28.8321   16.8768 N   0  3  0  0  0  0  0  0  0  0  0  0
  -22.4114  -14.6142   21.0872 O   0  0  0  0  0  0  0  0  0  0  0  0
  -29.8152  -23.2936   18.7136 O   0  0  0  0  0  0  0  0  0  0  0  0
  -28.3496  -26.5431   19.9331 O   0  0  0  0  0  0  0  0  0  0  0  0
  -24.4982  -26.1240   17.1923 O   0  0  0  0  0  0  0  0  0  0  0  0
  -30.6251  -14.5437   16.5785 O   0  0  0  0  0  0  0  0  0  0  0  0
  -21.8366   -6.8624   21.4957 O   0  0  0  0  0  0  0  0  0  0  0  0
  -30.0728  -20.2757   15.3218 O   0  0  0  0  0  0  0  0  0  0  0  0
  -27.8696  -22.5878   12.4509 O   0  0  0  0  0  0  0  0  0  1  0  0
  -29.1397  -19.3794   12.8569 O   0  0  0  0  0  0  0  0  0  0  0  0
  -18.2923   -6.5402   25.7073 F   0  0  0  0  0  0  0  0  0  0  0  0
  -19.6816   -8.5852   21.6709 F   0  0  0  0  0  0  0  0  0  0  0  0
  1  2  1  0  0  0  0
  1  5  2  0  0  0  0
  2  6  2  0  0  0  0
  3  8  2  0  0  0  0
  3 17  1  0  0  0  0
  4  9  1  0  0  0  0
  4 17  2  0  0  0  0
  5 19  1  0  0  0  0
  6 21  1  0  0  0  0
  7 10  2  0  0  0  0
  7 20  1  0  0  0  0
  8 25  1  0  0  0  0
  9 25  2  0  0  0  0
 10 26  1  0  0  0  0
 11 12  2  0  0  0  0
 11 27  1  0  0  0  0
 12 30  1  0  0  0  0
 13 22  1  0  0  0  0
 13 26  2  0  0  0  0
 14 23  2  0  0  0  0
 14 28  1  0  0  0  0
 15 24  2  0  0  0  0
 15 29  1  0  0  0  0
 16 30  2  0  0  0  0
 16 31  1  0  0  0  0
 17 32  1  0  0  0  0
 18 32  1  0  0  0  0
 18 33  2  0  0  0  0
 18 34  1  0  0  0  0
 19 21  2  0  0  0  0
 19 39  1  0  0  0  0
 20 22  2  0  0  0  0
 20 40  1  0  0  0  0
 21 48  1  0  0  0  0
 22 41  1  0  0  0  0
 23 24  1  0  0  0  0
 23 51  1  0  0  0  0
 24 73  1  0  0  0  0
 25 80  1  0  0  0  0
 26 82  1  0  0  0  0
 27 31  2  0  0  0  0
 27 80  1  0  0  0  0
 28 29  2  0  0  0  0
 28 83  1  0  0  0  0
 29 81  1  0  0  0  0
 30 84  1  0  0  0  0
 31 85  1  0  0  0  0
 32 65  2  0  0  0  0
 33 66  1  0  0  0  0
 33 69  1  0  0  0  0
 34 70  1  0  0  0  0
 34 75  2  0  0  0  0
 35 49  1  0  0  0  0
 35 71  1  0  0  0  0
 35 76  2  0  0  0  0
 36 62  1  0  0  0  0
 36 67  1  0  0  0  0
 36 77  2  0  0  0  0
 37 63  1  0  0  0  0
 37 72  1  0  0  0  0
 37 78  2  0  0  0  0
 38 68  1  0  0  0  0
 38 73  1  0  0  0  0
 38 79  2  0  0  0  0
 39 42  1  0  0  0  0
 40 49  1  0  0  0  0
 41 67  1  0  0  0  0
 42 44  1  0  0  0  0
 43 45  1  0  0  0  0
 43 46  1  0  0  0  0
 44 48  1  0  0  0  0
 45 50  1  0  0  0  0
 46 68  1  0  0  0  0
 47 50  1  0  0  0  0
 47 68  1  0  0  0  0
 48 71  1  0  0  0  0
 49 67  1  0  0  0  0
 50 66  1  0  0  0  0
 52 63  1  0  0  0  0
 53 64  1  0  0  0  0
 54 64  1  0  0  0  0
 55 64  1  0  0  0  0
 56 73  1  0  0  0  0
 57 74  1  0  0  0  0
 58 81  1  0  0  0  0
 59 60  1  0  0  0  0
 59 61  1  0  0  0  0
 60 82  1  0  0  0  0
 61 83  1  0  0  0  0
 62 64  1  0  0  0  0
 62 72  1  0  0  0  0
 63 74  1  0  0  0  0
 65 66  1  0  0  0  0
M  CHG  1  74   1
M  ISO  4  38 100  60 101  73 100  82 101
M  END
> <Batch ID>
0104

> <Smiles>
CNC(C)C(=O)NC(C(=O)N1Cc2cc([101O:1][101CH2:1]CCOc3cc(C)c([100N:0](C)[100C:0](=O)N4CCCC(n5nc(-c6ccc(Oc7ccc(F)cc7F)cc6)c(C(N)=O)c5N)C4)cc3OC)ccc2CC1C(=O)NC1CCCc2ccccc21)C(C)(C)C

> <Shape>
0.190

> <Color>
0.208

> <Negative vol penalty>
0.000

$$$$

  -OEChem-04052301083D

 85 93  0     1  0  0  0  0  0999 V2000
  -31.1059  -11.6659   22.1935 C   0  0  0  0  0  0  0  0  0  0  0  0
  -30.6696  -12.9640   22.4381 C   0  0  0  0  0  0  0  0  0  0  0  0
  -28.7605  -26.7253   19.3734 C   0  0  0  0  0  0  0  0  0  0  0  0
  -26.6262  -25.6213   19.1225 C   0  0  0  0  0  0  0  0  0  0  0  0
  -30.3801  -10.8371   21.3390 C   0  0  0  0  0  0  0  0  0  0  0  0
  -29.5077  -13.4345   21.8273 C   0  0  0  0  0  0  0  0  0  0  0  0
  -25.4190  -17.3280   24.1999 C   0  0  0  0  0  0  0  0  0  0  0  0
  -29.4126  -25.5053   19.1951 C   0  0  0  0  0  0  0  0  0  0  0  0
  -27.2784  -24.4012   18.9442 C   0  0  0  0  0  0  0  0  0  0  0  0
  -25.2317  -18.7009   24.0453 C   0  0  0  0  0  0  0  0  0  0  0  0
  -28.3674  -20.9375   18.7814 C   0  0  0  0  0  0  0  0  0  0  0  0
  -27.8696  -19.8299   19.4676 C   0  0  0  0  0  0  0  0  0  0  0  0
  -23.5715  -18.2771   22.3473 C   0  0  0  0  0  0  0  0  0  0  0  0
  -18.4605  -26.4597   21.8107 C   0  0  0  0  0  0  0  0  0  0  0  0
  -20.0878  -26.8789   23.5466 C   0  0  0  0  0  0  0  0  0  0  0  0
  -28.2654  -20.9541   21.5692 C   0  0  0  0  0  0  0  0  0  0  0  0
  -27.3673  -26.7833   19.3371 C   0  0  0  0  0  0  0  0  0  0  0  0
  -26.3316  -28.9683   18.5240 C   0  0  0  0  0  0  0  0  0  0  0  0
  -29.2034  -11.2944   20.7251 C   0  0  0  0  0  0  0  0  0  0  0  0
  -24.6906  -16.4181   23.4203 C   0  0  0  0  0  0  0  0  0  0  0  0
  -28.7662  -12.6115   20.9627 C   0  0  0  0  0  0  0  0  0  0  0  0
  -23.7495  -16.8932   22.4957 C   0  0  0  0  0  0  0  0  0  0  0  0
  -18.2476  -27.8319   21.6788 C   0  0  0  0  0  0  0  0  0  0  0  0
  -19.8750  -28.2512   23.4146 C   0  0  0  0  0  0  0  0  0  0  0  0
  -28.6716  -24.3432   18.9805 C   0  0  0  0  0  0  0  0  0  0  0  0
  -24.3099  -19.1757   23.1169 C   0  0  0  0  0  0  0  0  0  0  0  0
  -28.8144  -22.0534   19.4890 C   0  0  0  0  0  0  0  0  0  0  0  0
  -19.3805  -25.9832   22.7447 C   0  0  0  0  0  0  0  0  0  0  0  0
  -27.8186  -19.8382   20.8615 C   0  0  0  0  0  0  0  0  0  0  0  0
  -28.7633  -22.0617   20.8829 C   0  0  0  0  0  0  0  0  0  0  0  0
  -18.9549  -28.7276   22.4807 C   0  0  0  0  0  0  0  0  0  0  0  0
  -26.6931  -28.0433   19.5218 C   0  0  0  0  0  0  0  0  0  0  0  0
  -25.7213  -29.9907   19.2086 C   0  0  0  0  0  0  0  0  0  0  0  0
  -26.5298  -28.9086   17.1053 C   0  0  0  0  0  0  0  0  0  0  0  0
  -25.4434  -14.1974   21.2742 C   0  0  0  0  0  0  0  0  0  0  0  0
  -22.2723  -13.5312   21.4263 C   0  0  0  0  0  0  0  0  0  0  0  0
  -19.1153  -14.6141   22.1386 C   0  0  0  0  0  0  0  0  0  0  0  0
  -22.8760  -30.2466   24.4707 C   0  0  0  0  0  0  0  0  0  0  0  0
  -28.4783  -10.3776   19.7721 C   0  0  0  0  0  0  0  0  0  0  0  0
  -24.8850  -14.9397   23.6180 C   0  0  0  0  0  0  0  0  0  0  0  0
  -22.9277  -15.9574   21.6486 C   0  0  0  0  0  0  0  0  0  0  0  0
  -27.0539  -10.8283   19.4584 C   0  0  0  0  0  0  0  0  0  0  0  0
  -25.7096  -32.1581   23.4739 C   0  0  0  0  0  0  0  0  0  0  0  0
  -27.0239  -12.3196   19.1393 C   0  0  0  0  0  0  0  0  0  0  0  0
  -26.2504  -31.4037   22.2580 C   0  0  0  0  0  0  0  0  0  0  0  0
  -25.1601  -31.2035   24.5317 C   0  0  0  0  0  0  0  0  0  0  0  0
  -24.6945  -29.4906   22.8221 C   0  0  0  0  0  0  0  0  0  0  0  0
  -27.4972  -13.1500   20.3384 C   0  0  1  0  0  0  0  0  0  0  0  0
  -24.4603  -14.1141   22.4075 C   0  0  1  0  0  0  0  0  0  0  0  0
  -25.2087  -30.4133   21.7038 C   0  0  2  0  0  0  0  0  0  0  0  0
  -17.2615  -28.3377   20.6807 C   0  0  0  0  0  0  0  0  0  0  0  0
  -16.7234  -13.8550   22.1294 C   0  0  0  0  0  0  0  0  0  0  0  0
  -22.1910  -13.8324   18.3910 C   0  0  0  0  0  0  0  0  0  0  0  0
  -19.6986  -14.0124   18.5454 C   0  0  0  0  0  0  0  0  0  0  0  0
  -20.8449  -11.9244   19.2865 C   0  0  0  0  0  0  0  0  0  0  0  0
  -18.8535  -15.0214   25.0583 C   0  0  0  0  0  0  0  0  0  0  0  0
  -20.6317  -29.2054   24.2755 C   0  0  0  0  0  0  0  0  0  0  0  0
  -22.5586  -22.3472   23.1019 C   0  0  0  0  0  0  0  0  0  0  0  0
  -21.1718  -22.8451   22.7098 C   0  0  0  0  0  0  0  0  0  0  0  0
  -22.8282  -20.9502   22.5586 C   0  0  0  0  0  0  0  0  0  1  0  0
  -20.8851  -24.2235   23.2883 C   0  0  0  0  0  0  0  0  0  0  0  0
  -21.0423  -14.0139   20.6961 C   0  0  1  0  0  0  0  0  0  0  0  0
  -17.9957  -13.9896   22.9516 C   0  0  2  0  0  0  0  0  0  0  0  0
  -20.9609  -13.4637   19.2442 C   0  0  0  0  0  0  0  0  0  0  0  0
  -26.3418  -28.4428   20.7470 N   0  0  0  0  0  0  0  0  0  0  0  0
  -25.7533  -29.6302   20.5236 N   0  0  0  0  0  0  0  0  0  0  0  0
  -23.1586  -14.5210   21.8743 N   0  0  0  0  0  0  0  0  0  0  0  0
  -24.1764  -30.2924   23.9417 N   0  0  0  0  0  0  0  0  0  0  0  0
  -25.1658  -31.1540   18.8080 N   0  0  0  0  0  0  0  0  0  0  0  0
  -27.1744  -27.7863   16.5673 N   0  0  0  0  0  0  0  0  0  0  0  0
  -26.4476  -13.2498   21.3298 N   0  0  0  0  0  0  0  0  0  0  0  0
  -19.9033  -13.6570   21.5350 N   0  0  0  0  0  0  0  0  0  0  0  0
  -22.0046  -29.3607   23.8490 N   0  0  0  0  0  0  0  0  0  0  0  0
  -17.6957  -14.8258   24.1481 N   0  3  0  0  0  0  0  0  0  0  0  0
  -26.1612  -29.8309   16.3391 O   0  0  0  0  0  0  0  0  0  0  0  0
  -25.3005  -15.0567   20.4123 O   0  0  0  0  0  0  0  0  0  0  0  0
  -22.4370  -12.3210   21.5992 O   0  0  0  0  0  0  0  0  0  0  0  0
  -19.2727  -15.8294   22.0452 O   0  0  0  0  0  0  0  0  0  0  0  0
  -22.5166  -30.9473   25.4229 O   0  0  0  0  0  0  0  0  0  0  0  0
  -29.3076  -23.1525   18.8062 O   0  0  0  0  0  0  0  0  0  0  0  0
  -24.1256  -20.5153   22.9635 O   0  0  0  0  0  0  0  0  0  1  0  0
  -19.5891  -24.6347   22.8755 O   0  0  0  0  0  0  0  0  0  0  0  0
  -27.3390  -18.7751   21.5204 F   0  0  0  0  0  0  0  0  0  0  0  0
  -29.1901  -23.1314   21.5682 F   0  0  0  0  0  0  0  0  0  0  0  0
  -18.7495  -30.0471   22.3545 F   0  0  0  0  0  0  0  0  0  0  0  0
  1  2  1  0  0  0  0
  1  5  2  0  0  0  0
  2  6  2  0  0  0  0
  3  8  2  0  0  0  0
  3 17  1  0  0  0  0
  4  9  1  0  0  0  0
  4 17  2  0  0  0  0
  5 19  1  0  0  0  0
  6 21  1  0  0  0  0
  7 10  2  0  0  0  0
  7 20  1  0  0  0  0
  8 25  1  0  0  0  0
  9 25  2  0  0  0  0
 10 26  1  0  0  0  0
 11 12  2  0  0  0  0
 11 27  1  0  0  0  0
 12 29  1  0  0  0  0
 13 22  1  0  0  0  0
 13 26  2  0  0  0  0
 14 23  2  0  0  0  0
 14 28  1  0  0  0  0
 15 24  1  0  0  0  0
 15 28  2  0  0  0  0
 16 29  2  0  0  0  0
 16 30  1  0  0  0  0
 17 32  1  0  0  0  0
 18 32  1  0  0  0  0
 18 33  2  0  0  0  0
 18 34  1  0  0  0  0
 19 21  2  0  0  0  0
 19 39  1  0  0  0  0
 20 22  2  0  0  0  0
 20 40  1  0  0  0  0
 21 48  1  0  0  0  0
 22 41  1  0  0  0  0
 23 31  1  0  0  0  0
 23 51  1  0  0  0  0
 24 31  2  0  0  0  0
 24 57  1  0  0  0  0
 25 80  1  0  0  0  0
 26 81  1  0  0  0  0
 27 30  2  0  0  0  0
 27 80  1  0  0  0  0
 28 82  1  0  0  0  0
 29 83  1  0  0  0  0
 30 84  1  0  0  0  0
 31 85  1  0  0  0  0
 32 65  2  0  0  0  0
 33 66  1  0  0  0  0
 33 69  1  0  0  0  0
 34 70  1  0  0  0  0
 34 75  2  0  0  0  0
 35 49  1  0  0  0  0
 35 71  1  0  0  0  0
 35 76  2  0  0  0  0
 36 62  1  0  0  0  0
 36 67  1  0  0  0  0
 36 77  2  0  0  0  0
 37 63  1  0  0  0  0
 37 72  1  0  0  0  0
 37 78  2  0  0  0  0
 38 68  1  0  0  0  0
 38 73  1  0  0  0  0
 38 79  2  0  0  0  0
 39 42  1  0  0  0  0
 40 49  1  0  0  0  0
 41 67  1  0  0  0  0
 42 44  1  0  0  0  0
 43 45  1  0  0  0  0
 43 46  1  0  0  0  0
 44 48  1  0  0  0  0
 45 50  1  0  0  0  0
 46 68  1  0  0  0  0
 47 50  1  0  0  0  0
 47 68  1  0  0  0  0
 48 71  1  0  0  0  0
 49 67  1  0  0  0  0
 50 66  1  0  0  0  0
 52 63  1  0  0  0  0
 53 64  1  0  0  0  0
 54 64  1  0  0  0  0
 55 64  1  0  0  0  0
 56 74  1  0  0  0  0
 57 73  1  0  0  0  0
 58 59  1  0  0  0  0
 58 60  1  0  0  0  0
 59 61  1  0  0  0  0
 60 81  1  0  0  0  0
 61 82  1  0  0  0  0
 62 64  1  0  0  0  0
 62 72  1  0  0  0  0
 63 74  1  0  0  0  0
 65 66  1  0  0  0  0
M  CHG  1  74   1
M  ISO  4  38 100  60 101  73 100  81 101
M  END
> <Batch ID>
0104

> <Smiles>
CNC(C)C(=O)NC(C(=O)N1Cc2cc([101O:1][101CH2:1]CCCOc3cc(C)c(F)c(C[100NH:0][100C:0](=O)N4CCCC(n5nc(-c6ccc(Oc7ccc(F)cc7F)cc6)c(C(N)=O)c5N)C4)c3)ccc2CC1C(=O)NC1CCCc2ccccc21)C(C)(C)C

> <Shape>
0.245

> <Color>
0.066

> <Negative vol penalty>
0.000

$$$$

  -OEChem-04052301083D

 83 91  0     1  0  0  0  0  0999 V2000
  -16.9114  -24.7467   22.9576 C   0  0  0  0  0  0  0  0  0  0  0  0
  -17.6106  -24.3163   21.8345 C   0  0  0  0  0  0  0  0  0  0  0  0
  -25.4238  -13.5258   21.4474 C   0  0  0  0  0  0  0  0  0  0  0  0
  -25.9521  -13.5588   19.0902 C   0  0  0  0  0  0  0  0  0  0  0  0
  -17.2476  -25.9554   23.5658 C   0  0  0  0  0  0  0  0  0  0  0  0
  -18.6457  -25.0950   21.3182 C   0  0  0  0  0  0  0  0  0  0  0  0
  -23.8019  -23.0914   18.6905 C   0  0  0  0  0  0  0  0  0  0  0  0
  -24.4611  -12.5429   21.2179 C   0  0  0  0  0  0  0  0  0  0  0  0
  -24.9895  -12.5758   18.8606 C   0  0  0  0  0  0  0  0  0  0  0  0
  -24.1768  -22.9388   17.3564 C   0  0  0  0  0  0  0  0  0  0  0  0
  -24.3866   -9.2031   20.6953 C   0  0  0  0  0  0  0  0  0  0  0  0
  -24.3520   -8.1138   21.5658 C   0  0  0  0  0  0  0  0  0  0  0  0
  -25.2618  -25.0924   17.4212 C   0  0  0  0  0  0  0  0  0  0  0  0
  -29.4493  -22.4700   16.1882 C   0  0  0  0  0  0  0  0  0  0  0  0
  -30.6828  -20.4145   15.8875 C   0  0  0  0  0  0  0  0  0  0  0  0
  -22.0826   -8.6740   22.1767 C   0  0  0  0  0  0  0  0  0  0  0  0
  -26.1693  -14.0338   20.3835 C   0  0  0  0  0  0  0  0  0  0  0  0
  -28.5243  -14.8532   20.9220 C   0  0  0  0  0  0  0  0  0  0  0  0
  -18.2937  -26.7447   23.0625 C   0  0  0  0  0  0  0  0  0  0  0  0
  -24.1453  -24.2524   19.3980 C   0  0  0  0  0  0  0  0  0  0  0  0
  -18.9953  -26.3161   21.9194 C   0  0  0  0  0  0  0  0  0  0  0  0
  -24.8923  -25.2561   18.7650 C   0  0  0  0  0  0  0  0  0  0  0  0
  -29.9151  -22.9298   14.9565 C   0  0  0  0  0  0  0  0  0  0  0  0
  -29.8332  -21.2123   16.6538 C   0  0  0  0  0  0  0  0  0  0  0  0
  -30.7648  -22.1319   14.1902 C   0  0  0  0  0  0  0  0  0  0  0  0
  -24.2439  -12.0678   19.9245 C   0  0  0  0  0  0  0  0  0  0  0  0
  -24.9043  -23.9406   16.7207 C   0  0  0  0  0  0  0  0  0  0  0  0
  -23.2692  -10.0279   20.5655 C   0  0  0  0  0  0  0  0  0  0  0  0
  -23.2001   -7.8492   22.3065 C   0  0  0  0  0  0  0  0  0  0  0  0
  -31.1486  -20.8743   14.6557 C   0  0  0  0  0  0  0  0  0  0  0  0
  -22.1172   -9.7634   21.3062 C   0  0  0  0  0  0  0  0  0  0  0  0
  -27.1635  -15.0496   20.6199 C   0  0  0  0  0  0  0  0  0  0  0  0
  -29.0335  -16.1221   21.0530 C   0  0  0  0  0  0  0  0  0  0  0  0
  -29.2622  -13.6329   21.0708 C   0  0  0  0  0  0  0  0  0  0  0  0
  -22.5112  -26.5819   20.8147 C   0  0  0  0  0  0  0  0  0  0  0  0
  -25.4571  -27.5240   21.7925 C   0  0  0  0  0  0  0  0  0  0  0  0
  -28.8292  -27.4999   21.2678 C   0  0  0  0  0  0  0  0  0  0  0  0
  -28.5112  -21.4100   18.7891 C   0  0  0  0  0  0  0  0  0  0  0  0
  -18.5895  -28.0666   23.7256 C   0  0  0  0  0  0  0  0  0  0  0  0
  -23.7564  -24.3900   20.8445 C   0  0  0  0  0  0  0  0  0  0  0  0
  -25.3035  -26.5128   19.4862 C   0  0  0  0  0  0  0  0  0  0  0  0
  -19.9456  -28.6516   23.3397 C   0  0  0  0  0  0  0  0  0  0  0  0
  -27.0877  -20.5830   21.9461 C   0  0  0  0  0  0  0  0  0  0  0  0
  -20.1497  -28.5756   21.8299 C   0  0  0  0  0  0  0  0  0  0  0  0
  -27.0945  -19.0526   21.9572 C   0  0  0  0  0  0  0  0  0  0  0  0
  -26.7848  -21.1387   20.5557 C   0  0  0  0  0  0  0  0  0  0  0  0
  -27.6476  -19.0913   19.4915 C   0  0  0  0  0  0  0  0  0  0  0  0
  -20.1407  -27.1210   21.3446 C   0  0  1  0  0  0  0  0  0  0  0  0
  -23.7172  -25.8399   21.3174 C   0  0  1  0  0  0  0  0  0  0  0  0
  -28.0122  -18.4852   20.8565 C   0  0  2  0  0  0  0  0  0  0  0  0
  -30.9764  -28.3902   22.2135 C   0  0  0  0  0  0  0  0  0  0  0  0
  -24.8272  -30.2731   20.6281 C   0  0  0  0  0  0  0  0  0  0  0  0
  -27.2718  -30.8024   20.7372 C   0  0  0  0  0  0  0  0  0  0  0  0
  -26.0074  -30.3193   22.8326 C   0  0  0  0  0  0  0  0  0  0  0  0
  -29.8785  -24.7761   21.7565 C   0  0  0  0  0  0  0  0  0  0  0  0
  -29.4844  -24.2934   14.4781 C   0  0  0  0  0  0  0  0  0  0  0  0
  -28.4070  -24.2556   13.3886 C   0  0  0  0  0  0  0  0  0  0  0  0
  -27.0942  -23.6334   13.8662 C   0  0  0  0  0  0  0  0  0  0  0  0
  -26.4805  -24.4312   15.0087 C   0  0  0  0  0  0  0  0  0  1  0  0
  -26.5294  -28.4295   21.2363 C   0  0  1  0  0  0  0  0  0  0  0  0
  -29.9926  -27.2306   22.2051 C   0  0  2  0  0  0  0  0  0  0  0  0
  -26.1497  -29.9334   21.3441 C   0  0  0  0  0  0  0  0  0  0  0  0
  -26.8292  -16.3415   20.5626 N   0  0  0  0  0  0  0  0  0  0  0  0
  -27.9874  -16.9684   20.8305 N   0  0  0  0  0  0  0  0  0  0  0  0
  -24.8940  -26.6034   20.8974 N   0  0  0  0  0  0  0  0  0  0  0  0
  -27.6959  -20.5599   19.5659 N   0  0  0  0  0  0  0  0  0  0  0  0
  -31.2447  -22.5834   12.9413 N   0  0  0  0  0  0  0  0  0  0  0  0
  -30.2696  -16.5853   21.3359 N   0  0  0  0  0  0  0  0  0  0  0  0
  -28.5846  -12.4177   20.9026 N   0  0  0  0  0  0  0  0  0  0  0  0
  -29.3600  -20.7449   17.9049 N   0  0  0  0  0  0  0  0  0  0  0  0
  -21.4059  -26.4824   21.6379 N   0  0  0  0  0  0  0  0  0  0  0  0
  -27.7635  -28.0737   21.9283 N   0  0  0  0  0  0  0  0  0  0  0  0
  -30.7207  -25.9995   21.7865 N   0  3  0  0  0  0  0  0  0  0  0  0
  -30.4825  -13.6204   21.3609 O   0  0  0  0  0  0  0  0  0  0  0  0
  -22.5790  -27.2002   19.7588 O   0  0  0  0  0  0  0  0  0  0  0  0
  -25.1362  -27.6248   22.9793 O   0  0  0  0  0  0  0  0  0  0  0  0
  -28.8639  -27.2317   20.0689 O   0  0  0  0  0  0  0  0  0  0  0  0
  -28.4798  -22.6364   18.9194 O   0  0  0  0  0  0  0  0  0  0  0  0
  -23.3048  -11.1085   19.7002 O   0  0  0  0  0  0  0  0  0  0  0  0
  -25.2709  -23.7945   15.4183 O   0  0  0  0  0  0  0  0  0  1  0  0
  -23.1665   -6.8022   23.1412 F   0  0  0  0  0  0  0  0  0  0  0  0
  -31.9645  -20.0982   13.9278 F   0  0  0  0  0  0  0  0  0  0  0  0
  -21.0402  -10.5515   21.1848 F   0  0  0  0  0  0  0  0  0  0  0  0
  1  2  1  0  0  0  0
  1  5  2  0  0  0  0
  2  6  2  0  0  0  0
  3  8  2  0  0  0  0
  3 17  1  0  0  0  0
  4  9  1  0  0  0  0
  4 17  2  0  0  0  0
  5 19  1  0  0  0  0
  6 21  1  0  0  0  0
  7 10  2  0  0  0  0
  7 20  1  0  0  0  0
  8 26  1  0  0  0  0
  9 26  2  0  0  0  0
 10 27  1  0  0  0  0
 11 12  2  0  0  0  0
 11 28  1  0  0  0  0
 12 29  1  0  0  0  0
 13 22  1  0  0  0  0
 13 27  2  0  0  0  0
 14 23  1  0  0  0  0
 14 24  2  0  0  0  0
 15 24  1  0  0  0  0
 15 30  2  0  0  0  0
 16 29  2  0  0  0  0
 16 31  1  0  0  0  0
 17 32  1  0  0  0  0
 18 32  1  0  0  0  0
 18 33  2  0  0  0  0
 18 34  1  0  0  0  0
 19 21  2  0  0  0  0
 19 39  1  0  0  0  0
 20 22  2  0  0  0  0
 20 40  1  0  0  0  0
 21 48  1  0  0  0  0
 22 41  1  0  0  0  0
 23 25  2  0  0  0  0
 23 56  1  0  0  0  0
 24 70  1  0  0  0  0
 25 30  1  0  0  0  0
 25 67  1  0  0  0  0
 26 79  1  0  0  0  0
 27 80  1  0  0  0  0
 28 31  2  0  0  0  0
 28 79  1  0  0  0  0
 29 81  1  0  0  0  0
 30 82  1  0  0  0  0
 31 83  1  0  0  0  0
 32 63  2  0  0  0  0
 33 64  1  0  0  0  0
 33 68  1  0  0  0  0
 34 69  1  0  0  0  0
 34 74  2  0  0  0  0
 35 49  1  0  0  0  0
 35 71  1  0  0  0  0
 35 75  2  0  0  0  0
 36 60  1  0  0  0  0
 36 65  1  0  0  0  0
 36 76  2  0  0  0  0
 37 61  1  0  0  0  0
 37 72  1  0  0  0  0
 37 77  2  0  0  0  0
 38 66  1  0  0  0  0
 38 70  1  0  0  0  0
 38 78  2  0  0  0  0
 39 42  1  0  0  0  0
 40 49  1  0  0  0  0
 41 65  1  0  0  0  0
 42 44  1  0  0  0  0
 43 45  1  0  0  0  0
 43 46  1  0  0  0  0
 44 48  1  0  0  0  0
 45 50  1  0  0  0  0
 46 66  1  0  0  0  0
 47 50  1  0  0  0  0
 47 66  1  0  0  0  0
 48 71  1  0  0  0  0
 49 65  1  0  0  0  0
 50 64  1  0  0  0  0
 51 61  1  0  0  0  0
 52 62  1  0  0  0  0
 53 62  1  0  0  0  0
 54 62  1  0  0  0  0
 55 73  1  0  0  0  0
 56 57  1  0  0  0  0
 57 58  1  0  0  0  0
 58 59  1  0  0  0  0
 59 80  1  0  0  0  0
 60 62  1  0  0  0  0
 60 72  1  0  0  0  0
 61 73  1  0  0  0  0
 63 64  1  0  0  0  0
M  CHG  1  73   1
M  ISO  4  38 100  59 101  70 100  80 101
M  END
> <Batch ID>
0104

> <Smiles>
CNC(C)C(=O)NC(C(=O)N1Cc2cc([101O:1][101CH2:1]CCCc3cc([100NH:0][100C:0](=O)N4CCCC(n5nc(-c6ccc(Oc7ccc(F)cc7F)cc6)c(C(N)=O)c5N)C4)cc(F)c3N)ccc2CC1C(=O)NC1CCCc2ccccc21)C(C)(C)C

> <Shape>
0.246

> <Color>
0.075

> <Negative vol penalty>
0.000

$$$$

  -OEChem-04052301083D

 91100  0     1  0  0  0  0  0999 V2000
  -25.1285  -33.7069   17.9822 C   0  0  0  0  0  0  0  0  0  0  0  0
  -25.8943  -32.9434   18.8574 C   0  0  0  0  0  0  0  0  0  0  0  0
  -22.8818   -9.9578   20.0061 C   0  0  0  0  0  0  0  0  0  0  0  0
  -24.3680   -9.3229   21.8020 C   0  0  0  0  0  0  0  0  0  0  0  0
  -23.7554  -33.8339   18.1882 C   0  0  0  0  0  0  0  0  0  0  0  0
  -25.2875  -32.3073   19.9399 C   0  0  0  0  0  0  0  0  0  0  0  0
  -25.6760  -25.1581   20.7335 C   0  0  0  0  0  0  0  0  0  0  0  0
  -28.8909  -14.5219   24.4256 C   0  0  0  0  0  0  0  0  0  0  0  0
  -28.1031  -15.6680   24.3194 C   0  0  0  0  0  0  0  0  0  0  0  0
  -22.2090   -8.7426   20.1332 C   0  0  0  0  0  0  0  0  0  0  0  0
  -23.6951   -8.1077   21.9292 C   0  0  0  0  0  0  0  0  0  0  0  0
  -25.8838  -23.8199   21.0686 C   0  0  0  0  0  0  0  0  0  0  0  0
  -20.8220   -6.9860   23.3105 C   0  0  0  0  0  0  0  0  0  0  0  0
  -20.5019   -6.5560   24.5982 C   0  0  0  0  0  0  0  0  0  0  0  0
  -24.4668  -24.0754   23.0115 C   0  0  0  0  0  0  0  0  0  0  0  0
  -30.0045  -17.0310   24.9228 C   0  0  0  0  0  0  0  0  0  0  0  0
  -21.8206   -4.5601   24.2595 C   0  0  0  0  0  0  0  0  0  0  0  0
  -23.9614  -10.2479   20.8404 C   0  0  0  0  0  0  0  0  0  0  0  0
  -24.1170  -12.7941   20.8583 C   0  0  0  0  0  0  0  0  0  0  0  0
  -23.1300  -33.1912   19.2682 C   0  0  0  0  0  0  0  0  0  0  0  0
  -24.8495  -25.9569   21.5286 C   0  0  0  0  0  0  0  0  0  0  0  0
  -23.9050  -32.4269   20.1612 C   0  0  0  0  0  0  0  0  0  0  0  0
  -24.2450  -25.4132   22.6739 C   0  0  0  0  0  0  0  0  0  0  0  0
  -30.2356  -14.6303   24.7804 C   0  0  0  0  0  0  0  0  0  0  0  0
  -30.7924  -15.8848   25.0290 C   0  0  0  0  0  0  0  0  0  0  0  0
  -28.6598  -16.9225   24.5680 C   0  0  0  0  0  0  0  0  0  0  0  0
  -22.6155   -7.8176   21.0948 C   0  0  0  0  0  0  0  0  0  0  0  0
  -25.2808  -23.2800   22.2049 C   0  0  0  0  0  0  0  0  0  0  0  0
  -21.6414   -6.2031   22.4973 C   0  0  0  0  0  0  0  0  0  0  0  0
  -21.0012   -5.3430   25.0727 C   0  0  0  0  0  0  0  0  0  0  0  0
  -22.1407   -4.9902   22.9718 C   0  0  0  0  0  0  0  0  0  0  0  0
  -24.6573  -11.5027   20.7091 C   0  0  0  0  0  0  0  0  0  0  0  0
  -25.1777  -13.6379   20.6360 C   0  0  0  0  0  0  0  0  0  0  0  0
  -26.3087  -20.4371   24.1470 C   0  0  0  0  0  0  0  0  0  0  0  0
  -26.0613  -21.6863   23.7293 C   0  0  0  0  0  0  0  0  0  1  0  0
  -22.7762  -13.1951   21.1700 C   0  0  0  0  0  0  0  0  0  0  0  0
  -23.3013  -29.3291   22.0827 C   0  0  0  0  0  0  0  0  0  0  0  0
  -32.5110  -11.6827   23.7107 C   0  0  0  0  0  0  0  0  0  0  0  0
  -21.1529  -27.2424   22.7465 C   0  0  0  0  0  0  0  0  0  0  0  0
  -18.9499  -24.6477   22.9738 C   0  0  0  0  0  0  0  0  0  0  0  0
  -31.1031  -12.9686   21.1765 C   0  0  0  0  0  0  0  0  0  0  0  0
  -21.6505  -33.3965   19.4771 C   0  0  0  0  0  0  0  0  0  0  0  0
  -24.6466  -27.4196   21.2400 C   0  0  0  0  0  0  0  0  0  0  0  0
  -23.3916  -26.3191   23.5188 C   0  0  0  0  0  0  0  0  0  0  0  0
  -26.9422  -20.1301   25.4740 C   0  0  0  0  0  0  0  0  0  0  0  0
  -25.9984  -19.2222   23.3192 C   0  0  0  0  0  0  0  0  0  0  0  0
  -21.0242  -32.3846   20.4332 C   0  0  0  0  0  0  0  0  0  0  0  0
  -29.3130  -13.9046   18.2446 C   0  0  0  0  0  0  0  0  0  0  0  0
  -21.8832  -32.2295   21.6841 C   0  0  0  0  0  0  0  0  0  0  0  0
  -27.8681  -13.5117   18.5572 C   0  0  0  0  0  0  0  0  0  0  0  0
  -28.1751  -19.2395   25.3008 C   0  0  0  0  0  0  0  0  0  0  0  0
  -27.2401  -18.3436   23.1565 C   0  0  0  0  0  0  0  0  0  0  0  0
  -30.3088  -12.9063   18.8310 C   0  0  0  0  0  0  0  0  0  0  0  0
  -28.7066  -12.2573   20.5875 C   0  0  0  0  0  0  0  0  0  0  0  0
  -23.2793  -31.7014   21.3327 C   0  0  1  0  0  0  0  0  0  0  0  0
  -23.2316  -27.9133   21.5908 C   0  0  1  0  0  0  0  0  0  0  0  0
  -27.6679  -13.2642   20.0645 C   0  0  2  0  0  0  0  0  0  0  0  0
  -32.2292  -16.0253   25.4118 C   0  0  0  0  0  0  0  0  0  0  0  0
  -34.6752  -10.4508   24.1457 C   0  0  0  0  0  0  0  0  0  0  0  0
  -16.5494  -24.1424   23.5026 C   0  0  0  0  0  0  0  0  0  0  0  0
  -21.7310  -27.6235   25.7171 C   0  0  0  0  0  0  0  0  0  0  0  0
  -19.7069  -26.2372   26.2163 C   0  0  0  0  0  0  0  0  0  0  0  0
  -19.4667  -28.3946   24.9873 C   0  0  0  0  0  0  0  0  0  0  0  0
  -18.4707  -23.5274   20.2767 C   0  0  0  0  0  0  0  0  0  0  0  0
  -31.0588  -13.3890   24.8889 C   0  0  0  0  0  0  0  0  0  0  0  0
  -33.9872  -11.8006   24.0542 C   0  0  0  0  0  0  0  0  0  0  0  0
  -31.7468  -12.9942   23.5732 C   0  0  2  0  0  0  0  0  0  0  0  0
  -20.4891  -26.4046   23.8098 C   0  0  1  0  0  0  0  0  0  0  0  0
  -17.5549  -24.4578   22.4061 C   0  0  2  0  0  0  0  0  0  0  0  0
  -20.3694  -27.1546   25.1665 C   0  0  0  0  0  0  0  0  0  0  0  0
  -25.9600  -11.5197   20.4146 N   0  0  0  0  0  0  0  0  0  0  0  0
  -26.2471  -12.8320   20.3770 N   0  0  0  0  0  0  0  0  0  0  0  0
  -27.8686  -18.0731   24.4604 N   0  0  0  0  0  0  0  0  0  0  0  0
  -22.5479  -27.1621   22.6573 N   0  0  0  0  0  0  0  0  0  0  0  0
  -30.0658  -12.7177   20.2632 N   0  0  0  0  0  0  0  0  0  0  0  0
  -25.2906  -14.9831   20.6388 N   0  0  0  0  0  0  0  0  0  0  0  0
  -22.4232  -13.3568   22.5167 N   0  0  0  0  0  0  0  0  0  0  0  0
  -23.2321  -30.2772   21.0799 N   0  0  0  0  0  0  0  0  0  0  0  0
  -19.2124  -25.9726   23.2512 N   0  0  0  0  0  0  0  0  0  0  0  0
  -30.7868  -12.7714   22.5151 N   0  0  0  0  0  0  0  0  0  0  0  0
  -17.5439  -23.3385   21.4223 N   0  3  0  0  0  0  0  0  0  0  0  0
  -21.9120  -13.3878   20.2814 O   0  0  0  0  0  0  0  0  0  0  0  0
  -23.4084  -29.5468   23.2839 O   0  0  0  0  0  0  0  0  0  0  0  0
  -31.9611  -10.5935   23.5443 O   0  0  0  0  0  0  0  0  0  0  0  0
  -20.4565  -27.9540   22.0172 O   0  0  0  0  0  0  0  0  0  0  0  0
  -19.7276  -23.7137   23.1565 O   0  0  0  0  0  0  0  0  0  0  0  0
  -32.2262  -13.3459   20.8254 O   0  0  0  0  0  0  0  0  0  0  0  0
  -21.9590   -6.6318   21.2194 O   0  0  0  0  0  0  0  0  0  0  0  0
  -25.4843  -21.9717   22.5238 O   0  0  0  0  0  0  0  0  0  1  0  0
  -20.6949   -4.9309   26.3098 F   0  0  0  0  0  0  0  0  0  0  0  0
  -22.9294   -4.2343   22.1955 F   0  0  0  0  0  0  0  0  0  0  0  0
  1  2  1  0  0  0  0
  1  5  2  0  0  0  0
  2  6  2  0  0  0  0
  3 10  2  0  0  0  0
  3 18  1  0  0  0  0
  4 11  1  0  0  0  0
  4 18  2  0  0  0  0
  5 20  1  0  0  0  0
  6 22  1  0  0  0  0
  7 12  2  0  0  0  0
  7 21  1  0  0  0  0
  8  9  2  0  0  0  0
  8 24  1  0  0  0  0
  9 26  1  0  0  0  0
 10 27  1  0  0  0  0
 11 27  2  0  0  0  0
 12 28  1  0  0  0  0
 13 14  2  0  0  0  0
 13 29  1  0  0  0  0
 14 30  1  0  0  0  0
 15 23  1  0  0  0  0
 15 28  2  0  0  0  0
 16 25  1  0  0  0  0
 16 26  2  0  0  0  0
 17 30  2  0  0  0  0
 17 31  1  0  0  0  0
 18 32  1  0  0  0  0
 19 32  1  0  0  0  0
 19 33  2  0  0  0  0
 19 36  1  0  0  0  0
 20 22  2  0  0  0  0
 20 42  1  0  0  0  0
 21 23  2  0  0  0  0
 21 43  1  0  0  0  0
 22 55  1  0  0  0  0
 23 44  1  0  0  0  0
 24 25  2  0  0  0  0
 24 65  1  0  0  0  0
 25 58  1  0  0  0  0
 26 73  1  0  0  0  0
 27 88  1  0  0  0  0
 28 89  1  0  0  0  0
 29 31  2  0  0  0  0
 29 88  1  0  0  0  0
 30 90  1  0  0  0  0
 31 91  1  0  0  0  0
 32 71  2  0  0  0  0
 33 72  1  0  0  0  0
 33 76  1  0  0  0  0
 34 35  2  0  0  0  0
 34 45  1  0  0  0  0
 34 46  1  0  0  0  0
 35 89  1  0  0  0  0
 36 77  1  0  0  0  0
 36 82  2  0  0  0  0
 37 56  1  0  0  0  0
 37 78  1  0  0  0  0
 37 83  2  0  0  0  0
 38 66  1  0  0  0  0
 38 67  1  0  0  0  0
 38 84  2  0  0  0  0
 39 68  1  0  0  0  0
 39 74  1  0  0  0  0
 39 85  2  0  0  0  0
 40 69  1  0  0  0  0
 40 79  1  0  0  0  0
 40 86  2  0  0  0  0
 41 75  1  0  0  0  0
 41 80  1  0  0  0  0
 41 87  2  0  0  0  0
 42 47  1  0  0  0  0
 43 56  1  0  0  0  0
 44 74  1  0  0  0  0
 45 51  1  0  0  0  0
 46 52  1  0  0  0  0
 47 49  1  0  0  0  0
 48 50  1  0  0  0  0
 48 53  1  0  0  0  0
 49 55  1  0  0  0  0
 50 57  1  0  0  0  0
 51 73  1  0  0  0  0
 52 73  1  0  0  0  0
 53 75  1  0  0  0  0
 54 57  1  0  0  0  0
 54 75  1  0  0  0  0
 55 78  1  0  0  0  0
 56 74  1  0  0  0  0
 57 72  1  0  0  0  0
 59 66  1  0  0  0  0
 60 69  1  0  0  0  0
 61 70  1  0  0  0  0
 62 70  1  0  0  0  0
 63 70  1  0  0  0  0
 64 81  1  0  0  0  0
 65 67  1  0  0  0  0
 67 80  1  0  0  0  0
 68 70  1  0  0  0  0
 68 79  1  0  0  0  0
 69 81  1  0  0  0  0
 71 72  1  0  0  0  0
M  CHG  1  81   1
M  ISO  4  35 101  41 100  80 100  89 101
M  END
> <Batch ID>
0104

> <Smiles>
CCC(=O)C(Cc1ccc(N2CCC(=[101CH:1][101O:1]c3ccc4c(c3)CN(C(=O)C(NC(=O)C(C)NC)C(C)(C)C)C(C(=O)NC3CCCc5ccccc53)C4)CC2)cc1C)[100NH:0][100C:0](=O)N1CCCC(n2nc(-c3ccc(Oc4ccc(F)cc4F)cc3)c(C(N)=O)c2N)C1

> <Shape>
0.222

> <Color>
0.169

> <Negative vol penalty>
0.000

$$$$

  -OEChem-04052301083D

 86 95  0     1  0  0  0  0  0999 V2000
  -32.9469  -29.4068   14.1201 C   0  0  0  0  0  0  0  0  0  0  0  0
  -33.3197  -28.3903   14.9936 C   0  0  0  0  0  0  0  0  0  0  0  0
  -23.2765   -9.8042   19.9169 C   0  0  0  0  0  0  0  0  0  0  0  0
  -23.7290   -9.9444   22.2860 C   0  0  0  0  0  0  0  0  0  0  0  0
  -32.0846  -30.4139   14.5517 C   0  0  0  0  0  0  0  0  0  0  0  0
  -32.8313  -28.3808   16.2997 C   0  0  0  0  0  0  0  0  0  0  0  0
  -31.4270  -23.4637   19.6695 C   0  0  0  0  0  0  0  0  0  0  0  0
  -22.5426   -8.6367   20.1261 C   0  0  0  0  0  0  0  0  0  0  0  0
  -22.9951   -8.7768   22.4953 C   0  0  0  0  0  0  0  0  0  0  0  0
  -32.1259  -22.7742   20.6593 C   0  0  0  0  0  0  0  0  0  0  0  0
  -19.7423   -7.8871   22.7146 C   0  0  0  0  0  0  0  0  0  0  0  0
  -18.8402   -7.8723   23.7784 C   0  0  0  0  0  0  0  0  0  0  0  0
  -30.9651  -24.0407   22.3528 C   0  0  0  0  0  0  0  0  0  0  0  0
  -32.8442  -15.2910   23.6791 C   0  0  0  0  0  0  0  0  0  0  0  0
  -30.8039  -16.5161   25.1348 C   0  0  0  0  0  0  0  0  0  0  0  0
  -20.0342   -6.0184   24.7654 C   0  0  0  0  0  0  0  0  0  0  0  0
  -23.8698  -10.4581   20.9969 C   0  0  0  0  0  0  0  0  0  0  0  0
  -24.1455  -12.9861   20.7955 C   0  0  0  0  0  0  0  0  0  0  0  0
  -31.5778  -30.4115   15.8608 C   0  0  0  0  0  0  0  0  0  0  0  0
  -30.4982  -24.4562   20.0141 C   0  0  0  0  0  0  0  0  0  0  0  0
  -31.9625  -29.3896   16.7496 C   0  0  0  0  0  0  0  0  0  0  0  0
  -30.2538  -24.7395   21.3654 C   0  0  0  0  0  0  0  0  0  0  0  0
  -31.7447  -14.5445   24.1026 C   0  0  0  0  0  0  0  0  0  0  0  0
  -32.9237  -16.6499   23.9834 C   0  0  0  0  0  0  0  0  0  0  0  0
  -30.7245  -15.1571   24.8304 C   0  0  0  0  0  0  0  0  0  0  0  0
  -31.9035  -17.2625   24.7112 C   0  0  0  0  0  0  0  0  0  0  0  0
  -22.4019   -8.1229   21.4153 C   0  0  0  0  0  0  0  0  0  0  0  0
  -31.8972  -23.0647   22.0011 C   0  0  0  0  0  0  0  0  0  0  0  0
  -20.7904   -6.9674   22.6762 C   0  0  0  0  0  0  0  0  0  0  0  0
  -18.9861   -6.9380   24.8038 C   0  0  0  0  0  0  0  0  0  0  0  0
  -20.9364   -6.0331   23.7016 C   0  0  0  0  0  0  0  0  0  0  0  0
  -24.6285  -11.6639   20.7813 C   0  0  0  0  0  0  0  0  0  0  0  0
  -25.2520  -13.7586   20.5394 C   0  0  0  0  0  0  0  0  0  0  0  0
  -22.8157  -13.4726   21.0203 C   0  0  0  0  0  0  0  0  0  0  0  0
  -30.2498  -27.5794   19.4777 C   0  0  0  0  0  0  0  0  0  0  0  0
  -27.3616  -27.1996   20.9049 C   0  0  0  0  0  0  0  0  0  0  0  0
  -25.3916  -25.3859   23.0206 C   0  0  0  0  0  0  0  0  0  0  0  0
  -31.1176  -12.8783   21.3579 C   0  0  0  0  0  0  0  0  0  0  0  0
  -30.6860  -31.5473   16.2960 C   0  0  0  0  0  0  0  0  0  0  0  0
  -29.7329  -25.1722   18.9352 C   0  0  0  0  0  0  0  0  0  0  0  0
  -29.2523  -25.7818   21.7886 C   0  0  0  0  0  0  0  0  0  0  0  0
  -29.9161  -31.2587   17.5822 C   0  0  0  0  0  0  0  0  0  0  0  0
  -29.4725  -13.6252   18.2899 C   0  0  0  0  0  0  0  0  0  0  0  0
  -30.8436  -30.6655   18.6379 C   0  0  0  0  0  0  0  0  0  0  0  0
  -28.0009  -13.3266   18.5818 C   0  0  0  0  0  0  0  0  0  0  0  0
  -31.7543  -20.6298   26.2040 C   0  0  0  0  0  0  0  0  0  0  0  0
  -30.3997  -12.6405   18.9990 C   0  0  0  0  0  0  0  0  0  0  0  0
  -31.9720  -19.1291   26.3848 C   0  0  0  0  0  0  0  0  0  0  0  0
  -32.0269  -19.6736   24.0273 C   0  0  0  0  0  0  0  0  0  0  0  0
  -28.7109  -12.2239   20.7449 C   0  0  0  0  0  0  0  0  0  0  0  0
  -31.4342  -29.3311   18.1665 C   0  0  1  0  0  0  0  0  0  0  0  0
  -29.1854  -26.5227   19.3867 C   0  0  1  0  0  0  0  0  0  0  0  0
  -32.3951  -20.9143   24.8487 C   0  0  1  0  0  0  0  0  0  0  0  0
  -27.7392  -13.2248   20.0965 C   0  0  2  0  0  0  0  0  0  0  0  0
  -34.1140  -17.4248   23.5196 C   0  0  0  0  0  0  0  0  0  0  0  0
  -29.5383  -14.3777   25.2950 C   0  0  0  0  0  0  0  0  0  0  0  0
  -23.0894  -25.3436   24.0182 C   0  0  0  0  0  0  0  0  0  0  0  0
  -28.1514  -29.4427   22.8167 C   0  0  0  0  0  0  0  0  0  0  0  0
  -26.2888  -28.7187   24.3248 C   0  0  0  0  0  0  0  0  0  0  0  0
  -25.7817  -29.5347   22.0227 C   0  0  0  0  0  0  0  0  0  0  0  0
  -24.7792  -22.7663   21.7870 C   0  0  0  0  0  0  0  0  0  0  0  0
  -31.6817  -13.0909   23.7653 C   0  0  0  0  0  0  0  0  0  0  0  0
  -31.9182  -22.2124   24.2213 C   0  0  0  0  0  0  0  0  0  1  0  0
  -26.8541  -27.2652   22.3251 C   0  0  1  0  0  0  0  0  0  0  0  0
  -23.9733  -24.8640   22.8774 C   0  0  2  0  0  0  0  0  0  0  0  0
  -26.7894  -28.7220   22.8646 C   0  0  0  0  0  0  0  0  0  0  0  0
  -25.9396  -11.5964   20.5354 N   0  0  0  0  0  0  0  0  0  0  0  0
  -26.2899  -12.8860   20.3926 N   0  0  0  0  0  0  0  0  0  0  0  0
  -31.9664  -18.6043   25.0216 N   0  0  3  0  0  0  0  0  0  0  0  0
  -28.5338  -26.4591   20.6965 N   0  0  0  0  0  0  0  0  0  0  0  0
  -30.1005  -12.5925   20.4322 N   0  0  0  0  0  0  0  0  0  0  0  0
  -25.4285  -15.0923   20.4275 N   0  0  0  0  0  0  0  0  0  0  0  0
  -21.7971  -12.5425   21.2691 N   0  0  0  0  0  0  0  0  0  0  0  0
  -30.4579  -28.2712   18.2997 N   0  0  0  0  0  0  0  0  0  0  0  0
  -25.5729  -26.5675   22.3334 N   0  0  0  0  0  0  0  0  0  0  0  0
  -30.7480  -12.8166   22.6959 N   0  0  0  0  0  0  0  0  0  0  0  0
  -23.9677  -23.3738   22.8731 N   0  3  0  0  0  0  0  0  0  0  0  0
  -22.5357  -14.6949   20.9848 O   0  0  0  0  0  0  0  0  0  0  0  0
  -30.8375  -27.7551   20.5385 O   0  0  0  0  0  0  0  0  0  0  0  0
  -26.7370  -27.7780   20.0122 O   0  0  0  0  0  0  0  0  0  0  0  0
  -26.2516  -24.8055   23.6795 O   0  0  0  0  0  0  0  0  0  0  0  0
  -32.2684  -13.1723   21.0170 O   0  0  0  0  0  0  0  0  0  0  0  0
  -21.6856   -6.9838   21.6198 O   0  0  0  0  0  0  0  0  0  0  0  0
  -32.5785  -22.3937   22.9693 O   0  0  0  0  0  0  0  0  0  1  0  0
  -18.1207   -6.9250   25.8260 F   0  0  0  0  0  0  0  0  0  0  0  0
  -21.9419   -5.1478   23.6707 F   0  0  0  0  0  0  0  0  0  0  0  0
  1  2  1  0  0  0  0
  1  5  2  0  0  0  0
  2  6  2  0  0  0  0
  3  8  2  0  0  0  0
  3 17  1  0  0  0  0
  4  9  1  0  0  0  0
  4 17  2  0  0  0  0
  5 19  1  0  0  0  0
  6 21  1  0  0  0  0
  7 10  2  0  0  0  0
  7 20  1  0  0  0  0
  8 27  1  0  0  0  0
  9 27  2  0  0  0  0
 10 28  1  0  0  0  0
 11 12  2  0  0  0  0
 11 29  1  0  0  0  0
 12 30  1  0  0  0  0
 13 22  1  0  0  0  0
 13 28  2  0  0  0  0
 14 23  2  0  0  0  0
 14 24  1  0  0  0  0
 15 25  2  0  0  0  0
 15 26  1  0  0  0  0
 16 30  2  0  0  0  0
 16 31  1  0  0  0  0
 17 32  1  0  0  0  0
 18 32  1  0  0  0  0
 18 33  2  0  0  0  0
 18 34  1  0  0  0  0
 19 21  2  0  0  0  0
 19 39  1  0  0  0  0
 20 22  2  0  0  0  0
 20 40  1  0  0  0  0
 21 51  1  0  0  0  0
 22 41  1  0  0  0  0
 23 25  1  0  0  0  0
 23 62  1  0  0  0  0
 24 26  2  0  0  0  0
 24 55  1  0  0  0  0
 25 56  1  0  0  0  0
 26 69  1  0  0  0  0
 27 83  1  0  0  0  0
 28 84  1  0  0  0  0
 29 31  2  0  0  0  0
 29 83  1  0  0  0  0
 30 85  1  0  0  0  0
 31 86  1  0  0  0  0
 32 67  2  0  0  0  0
 33 68  1  0  0  0  0
 33 72  1  0  0  0  0
 34 73  1  0  0  0  0
 34 78  2  0  0  0  0
 35 52  1  0  0  0  0
 35 74  1  0  0  0  0
 35 79  2  0  0  0  0
 36 64  1  0  0  0  0
 36 70  1  0  0  0  0
 36 80  2  0  0  0  0
 37 65  1  0  0  0  0
 37 75  1  0  0  0  0
 37 81  2  0  0  0  0
 38 71  1  0  0  0  0
 38 76  1  0  0  0  0
 38 82  2  0  0  0  0
 39 42  1  0  0  0  0
 40 52  1  0  0  0  0
 41 70  1  0  0  0  0
 42 44  1  0  0  0  0
 43 45  1  0  0  0  0
 43 47  1  0  0  0  0
 44 51  1  0  0  0  0
 45 54  1  0  0  0  0
 46 48  1  0  0  0  0
 46 53  1  0  0  0  0
 47 71  1  0  0  0  0
 48 69  1  0  0  0  0
 49 53  1  0  0  0  0
 49 69  1  0  0  0  0
 50 54  1  0  0  0  0
 50 71  1  0  0  0  0
 51 74  1  0  0  0  0
 52 70  1  0  0  0  0
 53 63  1  0  0  0  0
 54 68  1  0  0  0  0
 57 65  1  0  0  0  0
 58 66  1  0  0  0  0
 59 66  1  0  0  0  0
 60 66  1  0  0  0  0
 61 77  1  0  0  0  0
 62 76  1  0  0  0  0
 63 84  1  0  0  0  0
 64 66  1  0  0  0  0
 64 75  1  0  0  0  0
 65 77  1  0  0  0  0
 67 68  1  0  0  0  0
M  CHG  1  77   1
M  ISO  4  38 100  63 101  76 100  84 101
M  END
> <Batch ID>
0104

> <Smiles>
CNC(C)C(=O)NC(C(=O)N1Cc2cc([101O:1][101CH2:1]C3CCN(c4cc(C)c(C[100NH:0][100C:0](=O)N5CCCC(n6nc(-c7ccc(Oc8ccc(F)cc8F)cc7)c(C(N)=O)c6N)C5)cc4C)C3)ccc2CC1C(=O)NC1CCCc2ccccc21)C(C)(C)C

> <Shape>
0.206

> <Color>
0.178

> <Negative vol penalty>
0.000

$$$$

  -OEChem-04052301083D

 87 96  0     1  0  0  0  0  0999 V2000
  -25.4381  -19.5482   24.3466 C   0  0  0  0  0  0  0  0  0  0  0  0
  -25.3280  -20.7829   23.7151 C   0  0  0  0  0  0  0  0  0  0  0  0
  -30.6014  -26.1229   18.9985 C   0  0  0  0  0  0  0  0  0  0  0  0
  -26.7091  -12.3205   20.5875 C   0  0  0  0  0  0  0  0  0  0  0  0
  -25.2427  -14.2384   20.4955 C   0  0  0  0  0  0  0  0  0  0  0  0
  -24.5632  -18.5153   24.0127 C   0  0  0  0  0  0  0  0  0  0  0  0
  -24.3436  -20.9850   22.7484 C   0  0  0  0  0  0  0  0  0  0  0  0
  -21.9341  -25.4019   23.3234 C   0  0  0  0  0  0  0  0  0  0  0  0
  -29.5646  -26.9997   19.3173 C   0  0  0  0  0  0  0  0  0  0  0  0
  -30.3367  -24.7649   18.8208 C   0  0  0  0  0  0  0  0  0  0  0  0
  -25.6911  -11.5703   21.1762 C   0  0  0  0  0  0  0  0  0  0  0  0
  -24.2247  -13.4882   21.0842 C   0  0  0  0  0  0  0  0  0  0  0  0
  -22.5927  -26.5487   22.8821 C   0  0  0  0  0  0  0  0  0  0  0  0
  -22.8959   -9.9497   20.1796 C   0  0  0  0  0  0  0  0  0  0  0  0
  -22.6768   -8.6606   19.6940 C   0  0  0  0  0  0  0  0  0  0  0  0
  -21.2787  -26.5176   20.8593 C   0  0  0  0  0  0  0  0  0  0  0  0
  -27.9982  -25.1606   19.2809 C   0  0  0  0  0  0  0  0  0  0  0  0
  -23.1432   -7.7559   21.8852 C   0  0  0  0  0  0  0  0  0  0  0  0
  -26.4849  -13.6545   20.2472 C   0  0  0  0  0  0  0  0  0  0  0  0
  -28.1920  -14.1666   18.4221 C   0  0  0  0  0  0  0  0  0  0  0  0
  -23.5614  -18.7078   23.0484 C   0  0  0  0  0  0  0  0  0  0  0  0
  -20.9488  -24.7970   22.5299 C   0  0  0  0  0  0  0  0  0  0  0  0
  -23.4553  -19.9533   22.4004 C   0  0  0  0  0  0  0  0  0  0  0  0
  -20.6072  -25.3647   21.2940 C   0  0  0  0  0  0  0  0  0  0  0  0
  -28.2629  -26.5186   19.4585 C   0  0  0  0  0  0  0  0  0  0  0  0
  -24.4489  -12.1542   21.4246 C   0  0  0  0  0  0  0  0  0  0  0  0
  -22.2671  -27.1051   21.6486 C   0  0  0  0  0  0  0  0  0  0  0  0
  -29.0351  -24.2838   18.9620 C   0  0  0  0  0  0  0  0  0  0  0  0
  -23.2388  -10.1419   21.5180 C   0  0  0  0  0  0  0  0  0  0  0  0
  -22.8004   -7.5637   20.5468 C   0  0  0  0  0  0  0  0  0  0  0  0
  -23.3624   -9.0450   22.3707 C   0  0  0  0  0  0  0  0  0  0  0  0
  -27.5363  -14.4301   19.6396 C   0  0  0  0  0  0  0  0  0  0  0  0
  -29.1000  -15.1891   18.2928 C   0  0  0  0  0  0  0  0  0  0  0  0
  -27.9978  -13.0936   17.4912 C   0  0  0  0  0  0  0  0  0  0  0  0
  -20.6198  -21.9582   21.1382 C   0  0  0  0  0  0  0  0  0  0  0  0
  -29.2286  -20.7519   20.5621 C   0  0  0  0  0  0  0  0  0  0  0  0
  -17.6616  -23.0839   20.4281 C   0  0  0  0  0  0  0  0  0  0  0  0
  -16.2277  -26.2021   19.3153 C   0  0  0  0  0  0  0  0  0  0  0  0
  -22.6691  -17.5469   22.6868 C   0  0  0  0  0  0  0  0  0  0  0  0
  -20.2287  -23.5757   23.0321 C   0  0  0  0  0  0  0  0  0  0  0  0
  -19.5425  -24.7654   20.4133 C   0  0  0  0  0  0  0  0  0  0  0  0
  -21.4142  -17.9585   21.9213 C   0  0  0  0  0  0  0  0  0  0  0  0
  -31.7381  -18.2143   20.8825 C   0  0  0  0  0  0  0  0  0  0  0  0
  -21.7671  -18.9329   20.8020 C   0  0  0  0  0  0  0  0  0  0  0  0
  -30.9973  -16.9287   20.5170 C   0  0  0  0  0  0  0  0  0  0  0  0
  -26.4917  -29.4168   21.0015 C   0  0  0  0  0  0  0  0  0  0  0  0
  -25.0332  -28.4008   19.2382 C   0  0  0  0  0  0  0  0  0  0  0  0
  -30.8290  -19.1921   21.6204 C   0  0  0  0  0  0  0  0  0  0  0  0
  -27.3294  -28.1383   21.0438 C   0  0  0  0  0  0  0  0  0  0  0  0
  -25.8715  -27.1222   19.2813 C   0  0  0  0  0  0  0  0  0  0  0  0
  -28.8282  -18.2401   20.5194 C   0  0  0  0  0  0  0  0  0  0  0  0
  -22.3846  -20.2189   21.3644 C   0  0  1  0  0  0  0  0  0  0  0  0
  -19.6035  -22.7483   21.9133 C   0  0  1  0  0  0  0  0  0  0  0  0
  -29.7021  -17.2373   19.7453 C   0  0  2  0  0  0  0  0  0  0  0  0
  -25.0319  -29.1799   20.5676 C   0  0  0  0  0  0  0  0  0  0  0  0
  -24.3402  -30.5391   20.3570 C   0  0  0  0  0  0  0  0  0  0  0  0
  -13.9271  -27.1491   19.6436 C   0  0  0  0  0  0  0  0  0  0  0  0
  -17.0668  -21.8131   17.7186 C   0  0  0  0  0  0  0  0  0  0  0  0
  -15.6746  -23.8181   17.1619 C   0  0  0  0  0  0  0  0  0  0  0  0
  -15.0425  -22.3572   19.0826 C   0  0  0  0  0  0  0  0  0  0  0  0
  -17.2962  -28.6909   20.5082 C   0  0  0  0  0  0  0  0  0  0  0  0
  -27.9522  -20.9292   19.7789 C   0  0  0  0  0  0  0  0  0  0  0  0
  -24.2542  -28.4117   21.6526 C   0  0  0  0  0  0  0  0  0  1  0  0
  -27.6934  -22.4052   19.5335 C   0  0  0  0  0  0  0  0  0  0  0  0
  -17.0613  -23.8657   19.2847 C   0  0  1  0  0  0  0  0  0  0  0  0
  -15.3673  -27.1494   20.1320 C   0  0  2  0  0  0  0  0  0  0  0  0
  -16.2386  -22.9665   18.3193 C   0  0  0  0  0  0  0  0  0  0  0  0
  -27.9892  -15.5334   20.2410 N   0  0  0  0  0  0  0  0  0  0  0  0
  -28.9393  -15.9721   19.3979 N   0  0  0  0  0  0  0  0  0  0  0  0
  -27.2215  -27.3993   19.7800 N   0  0  0  0  0  0  0  0  0  0  0  0
  -18.8714  -23.5679   20.9456 N   0  0  0  0  0  0  0  0  0  0  0  0
  -29.5997  -19.4419   20.8655 N   0  0  0  0  0  0  0  0  0  0  0  0
  -30.0121  -15.4856   17.3429 N   0  0  0  0  0  0  0  0  0  0  0  0
  -27.0657  -13.2653   16.4587 N   0  0  0  0  0  0  0  0  0  0  0  0
  -21.3549  -21.0778   21.9089 N   0  0  0  0  0  0  0  0  0  0  0  0
  -16.2954  -24.9502   19.8894 N   0  0  0  0  0  0  0  0  0  0  0  0
  -15.8951  -28.5399   20.0380 N   0  3  0  0  0  0  0  0  0  0  0  0
  -28.6201  -12.0082   17.5822 O   0  0  0  0  0  0  0  0  0  0  0  0
  -20.7279  -22.1333   19.9302 O   0  0  0  0  0  0  0  0  0  0  0  0
  -29.8765  -21.7490   20.8910 O   0  0  0  0  0  0  0  0  0  0  0  0
  -17.0749  -22.0847   20.8513 O   0  0  0  0  0  0  0  0  0  0  0  0
  -16.7811  -26.5379   18.2706 O   0  0  0  0  0  0  0  0  0  0  0  0
  -23.4552  -11.4224   21.9988 O   0  0  0  0  0  0  0  0  0  0  0  0
  -22.9089  -28.2240   21.2151 O   0  0  0  0  0  0  0  0  0  1  0  0
  -28.7770  -22.9587   18.7884 O   0  0  0  0  0  0  0  0  0  0  0  0
  -22.5884   -6.3260   20.0807 F   0  0  0  0  0  0  0  0  0  0  0  0
  -23.6903   -9.2235   23.6578 F   0  0  0  0  0  0  0  0  0  0  0  0
  1  2  1  0  0  0  0
  1  6  2  0  0  0  0
  2  7  2  0  0  0  0
  3  9  2  0  0  0  0
  3 10  1  0  0  0  0
  4 11  2  0  0  0  0
  4 19  1  0  0  0  0
  5 12  1  0  0  0  0
  5 19  2  0  0  0  0
  6 21  1  0  0  0  0
  7 23  1  0  0  0  0
  8 13  2  0  0  0  0
  8 22  1  0  0  0  0
  9 25  1  0  0  0  0
 10 28  2  0  0  0  0
 11 26  1  0  0  0  0
 12 26  2  0  0  0  0
 13 27  1  0  0  0  0
 14 15  2  0  0  0  0
 14 29  1  0  0  0  0
 15 30  1  0  0  0  0
 16 24  1  0  0  0  0
 16 27  2  0  0  0  0
 17 25  2  0  0  0  0
 17 28  1  0  0  0  0
 18 30  2  0  0  0  0
 18 31  1  0  0  0  0
 19 32  1  0  0  0  0
 20 32  1  0  0  0  0
 20 33  2  0  0  0  0
 20 34  1  0  0  0  0
 21 23  2  0  0  0  0
 21 39  1  0  0  0  0
 22 24  2  0  0  0  0
 22 40  1  0  0  0  0
 23 52  1  0  0  0  0
 24 41  1  0  0  0  0
 25 70  1  0  0  0  0
 26 83  1  0  0  0  0
 27 84  1  0  0  0  0
 28 85  1  0  0  0  0
 29 31  2  0  0  0  0
 29 83  1  0  0  0  0
 30 86  1  0  0  0  0
 31 87  1  0  0  0  0
 32 68  2  0  0  0  0
 33 69  1  0  0  0  0
 33 73  1  0  0  0  0
 34 74  1  0  0  0  0
 34 78  2  0  0  0  0
 35 53  1  0  0  0  0
 35 75  1  0  0  0  0
 35 79  2  0  0  0  0
 36 62  1  0  0  0  0
 36 72  1  0  0  0  0
 36 80  2  0  0  0  0
 37 65  1  0  0  0  0
 37 71  1  0  0  0  0
 37 81  2  0  0  0  0
 38 66  1  0  0  0  0
 38 76  1  0  0  0  0
 38 82  2  0  0  0  0
 39 42  1  0  0  0  0
 40 53  1  0  0  0  0
 41 71  1  0  0  0  0
 42 44  1  0  0  0  0
 43 45  1  0  0  0  0
 43 48  1  0  0  0  0
 44 52  1  0  0  0  0
 45 54  1  0  0  0  0
 46 49  1  0  0  0  0
 46 55  1  0  0  0  0
 47 50  1  0  0  0  0
 47 55  1  0  0  0  0
 48 72  1  0  0  0  0
 49 70  1  0  0  0  0
 50 70  1  0  0  0  0
 51 54  1  0  0  0  0
 51 72  1  0  0  0  0
 52 75  1  0  0  0  0
 53 71  1  0  0  0  0
 54 69  1  0  0  0  0
 55 56  1  0  0  0  0
 55 63  1  0  0  0  0
 57 66  1  0  0  0  0
 58 67  1  0  0  0  0
 59 67  1  0  0  0  0
 60 67  1  0  0  0  0
 61 77  1  0  0  0  0
 62 64  1  0  0  0  0
 63 84  1  0  0  0  0
 64 85  1  0  0  0  0
 65 67  1  0  0  0  0
 65 76  1  0  0  0  0
 66 77  1  0  0  0  0
 68 69  1  0  0  0  0
M  CHG  1  77   1
M  ISO  4  36 100  62 100  63 101  84 101
M  END
> <Batch ID>
0104

> <Smiles>
CNC(C)C(=O)NC(C(=O)N1Cc2cc([101O:1][101CH2:1]C3(C)CCN(c4cccc(OC[100CH2:0][100C:0](=O)N5CCCC(n6nc(-c7ccc(Oc8ccc(F)cc8F)cc7)c(C(N)=O)c6N)C5)c4)CC3)ccc2CC1C(=O)NC1CCCc2ccccc21)C(C)(C)C

> <Shape>
0.238

> <Color>
0.072

> <Negative vol penalty>
0.000

$$$$

  -OEChem-04052301083D

 85 94  0     1  0  0  0  0  0999 V2000
  -29.0064  -35.3921   13.9782 C   0  0  0  0  0  0  0  0  0  0  0  0
  -29.4671  -34.2427   14.6122 C   0  0  0  0  0  0  0  0  0  0  0  0
  -24.4601   -9.5394   21.3933 C   0  0  0  0  0  0  0  0  0  0  0  0
  -24.8773  -10.5789   23.5339 C   0  0  0  0  0  0  0  0  0  0  0  0
  -28.2128  -36.3014   14.6763 C   0  0  0  0  0  0  0  0  0  0  0  0
  -29.1355  -34.0025   15.9452 C   0  0  0  0  0  0  0  0  0  0  0  0
  -28.0785  -28.5631   18.5533 C   0  0  0  0  0  0  0  0  0  0  0  0
  -24.1464   -8.3418   22.0360 C   0  0  0  0  0  0  0  0  0  0  0  0
  -24.5636   -9.3814   24.1766 C   0  0  0  0  0  0  0  0  0  0  0  0
  -28.8806  -27.7185   19.3193 C   0  0  0  0  0  0  0  0  0  0  0  0
  -21.5134   -7.0213   23.6961 C   0  0  0  0  0  0  0  0  0  0  0  0
  -20.3781   -6.3336   23.2674 C   0  0  0  0  0  0  0  0  0  0  0  0
  -27.9419  -28.6617   21.3314 C   0  0  0  0  0  0  0  0  0  0  0  0
  -27.6915  -19.7168   21.6863 C   0  0  0  0  0  0  0  0  0  0  0  0
  -30.0896  -19.6058   21.4146 C   0  0  0  0  0  0  0  0  0  0  0  0
  -21.7474   -4.4247   22.7033 C   0  0  0  0  0  0  0  0  0  0  0  0
  -24.8257  -10.6579   22.1422 C   0  0  0  0  0  0  0  0  0  0  0  0
  -24.2660  -12.9382   21.1449 C   0  0  0  0  0  0  0  0  0  0  0  0
  -27.8632  -36.0674   16.0156 C   0  0  0  0  0  0  0  0  0  0  0  0
  -27.2084  -29.4726   19.1716 C   0  0  0  0  0  0  0  0  0  0  0  0
  -28.3376  -34.9102   16.6622 C   0  0  0  0  0  0  0  0  0  0  0  0
  -27.1278  -29.5150   20.5709 C   0  0  0  0  0  0  0  0  0  0  0  0
  -27.8113  -20.9996   22.2207 C   0  0  0  0  0  0  0  0  0  0  0  0
  -29.0703  -21.5855   22.3521 C   0  0  0  0  0  0  0  0  0  0  0  0
  -28.8306  -19.0199   21.2832 C   0  0  0  0  0  0  0  0  0  0  0  0
  -30.2095  -20.8887   21.9490 C   0  0  0  0  0  0  0  0  0  0  0  0
  -24.1981   -8.2628   23.4276 C   0  0  0  0  0  0  0  0  0  0  0  0
  -28.8145  -27.7697   20.7086 C   0  0  0  0  0  0  0  0  0  0  0  0
  -22.7657   -6.4107   23.6284 C   0  0  0  0  0  0  0  0  0  0  0  0
  -20.4951   -5.0353   22.7710 C   0  0  0  0  0  0  0  0  0  0  0  0
  -22.8827   -5.1124   23.1320 C   0  0  0  0  0  0  0  0  0  0  0  0
  -25.1504  -11.8951   21.4789 C   0  0  0  0  0  0  0  0  0  0  0  0
  -25.0593  -13.8787   20.5345 C   0  0  0  0  0  0  0  0  0  0  0  0
  -22.8537  -13.0473   21.3667 C   0  0  0  0  0  0  0  0  0  0  0  0
  -26.9358  -32.6392   19.2177 C   0  0  0  0  0  0  0  0  0  0  0  0
  -24.2311  -31.9923   20.8875 C   0  0  0  0  0  0  0  0  0  0  0  0
  -22.5018  -29.8218   22.8739 C   0  0  0  0  0  0  0  0  0  0  0  0
  -29.7373  -16.8888   20.2919 C   0  0  0  0  0  0  0  0  0  0  0  0
  -27.0424  -37.1026   16.7430 C   0  0  0  0  0  0  0  0  0  0  0  0
  -26.3303  -30.3582   18.3309 C   0  0  0  0  0  0  0  0  0  0  0  0
  -26.1954  -30.4593   21.2832 C   0  0  0  0  0  0  0  0  0  0  0  0
  -26.4255  -36.5885   18.0413 C   0  0  0  0  0  0  0  0  0  0  0  0
  -29.8504  -13.6032   18.9248 C   0  0  0  0  0  0  0  0  0  0  0  0
  -27.4636  -35.8293   18.8616 C   0  0  0  0  0  0  0  0  0  0  0  0
  -28.5650  -12.9517   19.4399 C   0  0  0  0  0  0  0  0  0  0  0  0
  -29.1375  -24.6414   24.4129 C   0  0  0  0  0  0  0  0  0  0  0  0
  -30.4689  -14.5367   19.9638 C   0  0  0  0  0  0  0  0  0  0  0  0
  -29.3571  -23.1340   24.3040 C   0  0  0  0  0  0  0  0  0  0  0  0
  -29.1411  -24.0797   22.0868 C   0  0  0  0  0  0  0  0  0  0  0  0
  -28.2732  -14.9031   21.0191 C   0  0  0  0  0  0  0  0  0  0  0  0
  -27.9787  -34.6022   18.0997 C   0  0  1  0  0  0  0  0  0  0  0  0
  -25.8557  -31.6050   19.0709 C   0  0  1  0  0  0  0  0  0  0  0  0
  -29.6180  -25.1623   23.0616 C   0  0  1  0  0  0  0  0  0  0  0  0
  -27.5786  -14.0039   19.9834 C   0  0  2  0  0  0  0  0  0  0  0  0
  -26.5730  -21.7214   22.6437 C   0  0  0  0  0  0  0  0  0  0  0  0
  -20.3324  -29.5870   24.1131 C   0  0  0  0  0  0  0  0  0  0  0  0
  -25.2666  -33.8765   23.0526 C   0  0  0  0  0  0  0  0  0  0  0  0
  -23.5855  -32.8856   24.6211 C   0  0  0  0  0  0  0  0  0  0  0  0
  -22.8213  -34.0841   22.5712 C   0  0  0  0  0  0  0  0  0  0  0  0
  -21.7177  -27.4508   21.2857 C   0  0  0  0  0  0  0  0  0  0  0  0
  -29.0861  -26.5454   22.7293 C   0  0  0  0  0  0  0  0  0  1  0  0
  -23.8947  -31.8061   22.3474 C   0  0  1  0  0  0  0  0  0  0  0  0
  -21.0704  -29.3204   22.8104 C   0  0  2  0  0  0  0  0  0  0  0  0
  -23.9111  -33.1465   23.1350 C   0  0  0  0  0  0  0  0  0  0  0  0
  -26.4091  -12.1486   21.1110 N   0  0  0  0  0  0  0  0  0  0  0  0
  -26.3214  -13.3618   20.5394 N   0  0  0  0  0  0  0  0  0  0  0  0
  -29.1851  -22.8537   22.8808 N   0  0  3  0  0  0  0  0  0  0  0  0
  -25.3618  -31.3094   20.4173 N   0  0  0  0  0  0  0  0  0  0  0  0
  -29.4776  -15.5088   20.4299 N   0  0  0  0  0  0  0  0  0  0  0  0
  -31.4950  -21.4622   22.0726 N   0  0  0  0  0  0  0  0  0  0  0  0
  -24.7934  -15.0892   19.9993 N   0  0  0  0  0  0  0  0  0  0  0  0
  -22.1944  -11.9897   22.0079 N   0  0  0  0  0  0  0  0  0  0  0  0
  -28.7087  -17.7167   20.7403 N   0  0  0  0  0  0  0  0  0  0  0  0
  -27.0123  -33.5267   18.1613 N   0  0  0  0  0  0  0  0  0  0  0  0
  -22.6152  -31.1063   22.3854 N   0  0  0  0  0  0  0  0  0  0  0  0
  -21.0466  -27.8535   22.5485 N   0  3  0  0  0  0  0  0  0  0  0  0
  -22.1930  -14.0457   20.9922 O   0  0  0  0  0  0  0  0  0  0  0  0
  -27.6462  -32.6333   20.2162 O   0  0  0  0  0  0  0  0  0  0  0  0
  -23.5128  -32.7113   20.1884 O   0  0  0  0  0  0  0  0  0  0  0  0
  -23.4263  -29.1435   23.3163 O   0  0  0  0  0  0  0  0  0  0  0  0
  -30.7829  -17.3050   19.7864 O   0  0  0  0  0  0  0  0  0  0  0  0
  -23.8918   -7.0945   24.0551 O   0  0  0  0  0  0  0  0  0  0  0  0
  -29.5969  -26.9469   21.4587 O   0  0  0  0  0  0  0  0  0  1  0  0
  -19.4046   -4.3744   22.3608 F   0  0  0  0  0  0  0  0  0  0  0  0
  -24.0830   -4.5202   23.0656 F   0  0  0  0  0  0  0  0  0  0  0  0
  1  2  1  0  0  0  0
  1  5  2  0  0  0  0
  2  6  2  0  0  0  0
  3  8  2  0  0  0  0
  3 17  1  0  0  0  0
  4  9  1  0  0  0  0
  4 17  2  0  0  0  0
  5 19  1  0  0  0  0
  6 21  1  0  0  0  0
  7 10  2  0  0  0  0
  7 20  1  0  0  0  0
  8 27  1  0  0  0  0
  9 27  2  0  0  0  0
 10 28  1  0  0  0  0
 11 12  2  0  0  0  0
 11 29  1  0  0  0  0
 12 30  1  0  0  0  0
 13 22  1  0  0  0  0
 13 28  2  0  0  0  0
 14 23  2  0  0  0  0
 14 25  1  0  0  0  0
 15 25  2  0  0  0  0
 15 26  1  0  0  0  0
 16 30  2  0  0  0  0
 16 31  1  0  0  0  0
 17 32  1  0  0  0  0
 18 32  1  0  0  0  0
 18 33  2  0  0  0  0
 18 34  1  0  0  0  0
 19 21  2  0  0  0  0
 19 39  1  0  0  0  0
 20 22  2  0  0  0  0
 20 40  1  0  0  0  0
 21 51  1  0  0  0  0
 22 41  1  0  0  0  0
 23 24  1  0  0  0  0
 23 55  1  0  0  0  0
 24 26  2  0  0  0  0
 24 67  1  0  0  0  0
 25 73  1  0  0  0  0
 26 70  1  0  0  0  0
 27 82  1  0  0  0  0
 28 83  1  0  0  0  0
 29 31  2  0  0  0  0
 29 82  1  0  0  0  0
 30 84  1  0  0  0  0
 31 85  1  0  0  0  0
 32 65  2  0  0  0  0
 33 66  1  0  0  0  0
 33 71  1  0  0  0  0
 34 72  1  0  0  0  0
 34 77  2  0  0  0  0
 35 52  1  0  0  0  0
 35 74  1  0  0  0  0
 35 78  2  0  0  0  0
 36 62  1  0  0  0  0
 36 68  1  0  0  0  0
 36 79  2  0  0  0  0
 37 63  1  0  0  0  0
 37 75  1  0  0  0  0
 37 80  2  0  0  0  0
 38 69  1  0  0  0  0
 38 73  1  0  0  0  0
 38 81  2  0  0  0  0
 39 42  1  0  0  0  0
 40 52  1  0  0  0  0
 41 68  1  0  0  0  0
 42 44  1  0  0  0  0
 43 45  1  0  0  0  0
 43 47  1  0  0  0  0
 44 51  1  0  0  0  0
 45 54  1  0  0  0  0
 46 48  1  0  0  0  0
 46 53  1  0  0  0  0
 47 69  1  0  0  0  0
 48 67  1  0  0  0  0
 49 53  1  0  0  0  0
 49 67  1  0  0  0  0
 50 54  1  0  0  0  0
 50 69  1  0  0  0  0
 51 74  1  0  0  0  0
 52 68  1  0  0  0  0
 53 61  1  0  0  0  0
 54 66  1  0  0  0  0
 56 63  1  0  0  0  0
 57 64  1  0  0  0  0
 58 64  1  0  0  0  0
 59 64  1  0  0  0  0
 60 76  1  0  0  0  0
 61 83  1  0  0  0  0
 62 64  1  0  0  0  0
 62 75  1  0  0  0  0
 63 76  1  0  0  0  0
 65 66  1  0  0  0  0
M  CHG  1  76   1
M  ISO  4  38 100  61 101  73 100  83 101
M  END
> <Batch ID>
0104

> <Smiles>
CNC(C)C(=O)NC(C(=O)N1Cc2cc([101O:1][101CH2:1]C3CCN(c4c(C)cc([100NH:0][100C:0](=O)N5CCCC(n6nc(-c7ccc(Oc8ccc(F)cc8F)cc7)c(C(N)=O)c6N)C5)cc4N)C3)ccc2CC1C(=O)NC1CCCc2ccccc21)C(C)(C)C

> <Shape>
0.265

> <Color>
0.121

> <Negative vol penalty>
0.000

$$$$

  -OEChem-04052301083D

 84 93  0     1  0  0  0  0  0999 V2000
  -17.3550  -26.6716   20.0255 C   0  0  0  0  0  0  0  0  0  0  0  0
  -18.5712  -27.0120   19.4420 C   0  0  0  0  0  0  0  0  0  0  0  0
  -31.9415  -23.8613   16.4643 C   0  0  0  0  0  0  0  0  0  0  0  0
  -25.6210  -15.0138   21.4659 C   0  0  0  0  0  0  0  0  0  0  0  0
  -24.9915  -15.9643   19.3358 C   0  0  0  0  0  0  0  0  0  0  0  0
  -17.1687  -26.8431   21.3965 C   0  0  0  0  0  0  0  0  0  0  0  0
  -19.6015  -27.5251   20.2292 C   0  0  0  0  0  0  0  0  0  0  0  0
  -25.6096  -26.5931   19.4943 C   0  0  0  0  0  0  0  0  0  0  0  0
  -31.7576  -25.2440   16.4702 C   0  0  0  0  0  0  0  0  0  0  0  0
  -31.3743  -23.0780   17.4696 C   0  0  0  0  0  0  0  0  0  0  0  0
  -24.5374  -14.1385   21.3956 C   0  0  0  0  0  0  0  0  0  0  0  0
  -23.9078  -15.0889   19.2654 C   0  0  0  0  0  0  0  0  0  0  0  0
  -26.6118  -27.3589   18.9003 C   0  0  0  0  0  0  0  0  0  0  0  0
  -23.7705  -11.2450   19.8231 C   0  0  0  0  0  0  0  0  0  0  0  0
  -23.9954   -9.9075   20.1486 C   0  0  0  0  0  0  0  0  0  0  0  0
  -27.1998  -28.2548   21.0616 C   0  0  0  0  0  0  0  0  0  0  0  0
  -30.4396  -25.0602   18.4866 C   0  0  0  0  0  0  0  0  0  0  0  0
  -22.3717  -10.0681   21.9305 C   0  0  0  0  0  0  0  0  0  0  0  0
  -25.8481  -15.9268   20.4360 C   0  0  0  0  0  0  0  0  0  0  0  0
  -28.2707  -16.6119   20.0247 C   0  0  0  0  0  0  0  0  0  0  0  0
  -18.2005  -27.3494   22.2025 C   0  0  0  0  0  0  0  0  0  0  0  0
  -25.3873  -26.6607   20.8772 C   0  0  0  0  0  0  0  0  0  0  0  0
  -19.4283  -27.7047   21.6121 C   0  0  0  0  0  0  0  0  0  0  0  0
  -26.1957  -27.4869   21.6710 C   0  0  0  0  0  0  0  0  0  0  0  0
  -31.0067  -25.8434   17.4813 C   0  0  0  0  0  0  0  0  0  0  0  0
  -30.6234  -23.6775   18.4807 C   0  0  0  0  0  0  0  0  0  0  0  0
  -23.6808  -14.1759   20.2954 C   0  0  0  0  0  0  0  0  0  0  0  0
  -27.4052  -28.1921   19.6835 C   0  0  0  0  0  0  0  0  0  0  0  0
  -22.8462  -11.9941   20.5513 C   0  0  0  0  0  0  0  0  0  0  0  0
  -23.2961   -9.3190   21.2023 C   0  0  0  0  0  0  0  0  0  0  0  0
  -22.1468  -11.4056   21.6049 C   0  0  0  0  0  0  0  0  0  0  0  0
  -26.9670  -16.8317   20.5083 C   0  0  0  0  0  0  0  0  0  0  0  0
  -28.9512  -17.7635   20.3364 C   0  0  0  0  0  0  0  0  0  0  0  0
  -28.8176  -15.4690   19.3536 C   0  0  0  0  0  0  0  0  0  0  0  0
  -22.9506  -27.5447   22.7170 C   0  0  0  0  0  0  0  0  0  0  0  0
  -24.8582  -26.4472   25.1001 C   0  0  0  0  0  0  0  0  0  0  0  0
  -28.0514  -26.0191   26.7242 C   0  0  0  0  0  0  0  0  0  0  0  0
  -29.2741  -23.3170   20.5773 C   0  0  0  0  0  0  0  0  0  0  0  0
  -17.9361  -27.5614   23.6721 C   0  0  0  0  0  0  0  0  0  0  0  0
  -24.3198  -25.8081   21.5063 C   0  0  0  0  0  0  0  0  0  0  0  0
  -26.0111  -27.5802   23.1629 C   0  0  0  0  0  0  0  0  0  0  0  0
  -19.2053  -27.7597   24.4969 C   0  0  0  0  0  0  0  0  0  0  0  0
  -27.6430  -21.6687   23.2792 C   0  0  0  0  0  0  0  0  0  0  0  0
  -33.0926  -29.6408   18.8352 C   0  0  0  0  0  0  0  0  0  0  0  0
  -20.1368  -28.7550   23.8123 C   0  0  0  0  0  0  0  0  0  0  0  0
  -27.4290  -20.2453   22.7594 C   0  0  0  0  0  0  0  0  0  0  0  0
  -31.8934  -30.1348   19.6198 C   0  0  0  0  0  0  0  0  0  0  0  0
  -27.4694  -22.7084   22.1735 C   0  0  0  0  0  0  0  0  0  0  0  0
  -28.0629  -21.0515   20.4496 C   0  0  0  0  0  0  0  0  0  0  0  0
  -32.8556  -28.1473   18.7209 C   0  0  0  0  0  0  0  0  0  0  0  0
  -20.5784  -28.2410   22.4367 C   0  0  1  0  0  0  0  0  0  0  0  0
  -23.8436  -26.3439   22.8530 C   0  0  1  0  0  0  0  0  0  0  0  0
  -28.2912  -19.9649   21.5130 C   0  0  2  0  0  0  0  0  0  0  0  0
  -30.7421  -29.3607   18.9952 C   0  0  2  0  0  0  0  0  0  0  0  0
  -28.6639  -24.7768   28.8168 C   0  0  0  0  0  0  0  0  0  0  0  0
  -24.4966  -29.1519   26.4654 C   0  0  0  0  0  0  0  0  0  0  0  0
  -26.4628  -28.6044   27.9154 C   0  0  0  0  0  0  0  0  0  0  0  0
  -24.4135  -27.1851   28.0080 C   0  0  0  0  0  0  0  0  0  0  0  0
  -30.0900  -24.4067   25.3088 C   0  0  0  0  0  0  0  0  0  0  0  0
  -30.8093  -27.3307   17.4872 C   0  0  0  0  0  0  0  0  0  0  0  0
  -29.5315  -29.2348   19.9017 C   0  0  0  0  0  0  0  0  0  1  0  0
  -25.9218  -27.0537   25.9832 C   0  0  1  0  0  0  0  0  0  0  0  0
  -28.6139  -24.7309   27.2975 C   0  0  2  0  0  0  0  0  0  0  0  0
  -25.3262  -27.9987   27.0647 C   0  0  0  0  0  0  0  0  0  0  0  0
  -26.8255  -18.0288   21.0836 N   0  0  0  0  0  0  0  0  0  0  0  0
  -28.0490  -18.5715   20.9636 N   0  0  0  0  0  0  0  0  0  0  0  0
  -24.9500  -26.7318   23.7302 N   0  0  0  0  0  0  0  0  0  0  0  0
  -28.3197  -22.3802   21.0271 N   0  0  0  0  0  0  0  0  0  0  0  0
  -30.2274  -18.1537   20.1325 N   0  0  0  0  0  0  0  0  0  0  0  0
  -27.9799  -14.3716   19.1124 N   0  0  0  0  0  0  0  0  0  0  0  0
  -30.0469  -22.8814   19.5014 N   0  0  0  0  0  0  0  0  0  0  0  0
  -21.6106  -27.2367   22.5799 N   0  0  0  0  0  0  0  0  0  0  0  0
  -26.6897  -25.9369   26.5230 N   0  0  0  0  0  0  0  0  0  0  0  0
  -31.3444  -27.9891   18.7222 N   0  3  1  0  0  0  0  0  0  0  0  0
  -29.9949  -24.4971   26.7886 N   0  3  0  0  0  0  0  0  0  0  0  0
  -30.0180  -15.4158   18.9936 O   0  0  0  0  0  0  0  0  0  0  0  0
  -23.4410  -28.6676   22.7366 O   0  0  0  0  0  0  0  0  0  0  0  0
  -23.9825  -25.7410   25.6060 O   0  0  0  0  0  0  0  0  0  0  0  0
  -28.7494  -27.0014   26.4827 O   0  0  0  0  0  0  0  0  0  0  0  0
  -29.4153  -24.4134   21.1249 O   0  0  0  0  0  0  0  0  0  0  0  0
  -22.6234  -13.3217   20.2264 O   0  0  0  0  0  0  0  0  0  0  0  0
  -28.3837  -28.9411   19.1062 O   0  0  0  0  0  0  0  0  0  1  0  0
  -23.5111   -8.0341   21.5138 F   0  0  0  0  0  0  0  0  0  0  0  0
  -21.2567  -12.1199   22.3073 F   0  0  0  0  0  0  0  0  0  0  0  0
  1  2  1  0  0  0  0
  1  6  2  0  0  0  0
  2  7  2  0  0  0  0
  3  9  2  0  0  0  0
  3 10  1  0  0  0  0
  4 11  2  0  0  0  0
  4 19  1  0  0  0  0
  5 12  1  0  0  0  0
  5 19  2  0  0  0  0
  6 21  1  0  0  0  0
  7 23  1  0  0  0  0
  8 13  2  0  0  0  0
  8 22  1  0  0  0  0
  9 25  1  0  0  0  0
 10 26  2  0  0  0  0
 11 27  1  0  0  0  0
 12 27  2  0  0  0  0
 13 28  1  0  0  0  0
 14 15  2  0  0  0  0
 14 29  1  0  0  0  0
 15 30  1  0  0  0  0
 16 24  1  0  0  0  0
 16 28  2  0  0  0  0
 17 25  2  0  0  0  0
 17 26  1  0  0  0  0
 18 30  2  0  0  0  0
 18 31  1  0  0  0  0
 19 32  1  0  0  0  0
 20 32  1  0  0  0  0
 20 33  2  0  0  0  0
 20 34  1  0  0  0  0
 21 23  2  0  0  0  0
 21 39  1  0  0  0  0
 22 24  2  0  0  0  0
 22 40  1  0  0  0  0
 23 51  1  0  0  0  0
 24 41  1  0  0  0  0
 25 60  1  0  0  0  0
 26 71  1  0  0  0  0
 27 81  1  0  0  0  0
 28 82  1  0  0  0  0
 29 31  2  0  0  0  0
 29 81  1  0  0  0  0
 30 83  1  0  0  0  0
 31 84  1  0  0  0  0
 32 65  2  0  0  0  0
 33 66  1  0  0  0  0
 33 69  1  0  0  0  0
 34 70  1  0  0  0  0
 34 76  2  0  0  0  0
 35 52  1  0  0  0  0
 35 72  1  0  0  0  0
 35 77  2  0  0  0  0
 36 62  1  0  0  0  0
 36 67  1  0  0  0  0
 36 78  2  0  0  0  0
 37 63  1  0  0  0  0
 37 73  1  0  0  0  0
 37 79  2  0  0  0  0
 38 68  1  0  0  0  0
 38 71  1  0  0  0  0
 38 80  2  0  0  0  0
 39 42  1  0  0  0  0
 40 52  1  0  0  0  0
 41 67  1  0  0  0  0
 42 45  1  0  0  0  0
 43 46  1  0  0  0  0
 43 48  1  0  0  0  0
 44 47  1  0  0  0  0
 44 50  1  0  0  0  0
 45 51  1  0  0  0  0
 46 53  1  0  0  0  0
 47 54  1  0  0  0  0
 48 68  1  0  0  0  0
 49 53  1  0  0  0  0
 49 68  1  0  0  0  0
 50 74  1  0  0  0  0
 51 72  1  0  0  0  0
 52 67  1  0  0  0  0
 53 66  1  0  0  0  0
 54 61  1  0  0  0  0
 54 74  1  0  0  0  0
 55 63  1  0  0  0  0
 56 64  1  0  0  0  0
 57 64  1  0  0  0  0
 58 64  1  0  0  0  0
 59 75  1  0  0  0  0
 60 74  1  0  0  0  0
 61 82  1  0  0  0  0
 62 64  1  0  0  0  0
 62 73  1  0  0  0  0
 63 75  1  0  0  0  0
 65 66  1  0  0  0  0
M  CHG  2  74   1  75   1
M  ISO  4  38 100  61 101  71 100  82 101
M  END
> <Batch ID>
0104

> <Smiles>
CNC(C)C(=O)NC(C(=O)N1Cc2cc([101O:1][101CH2:1]C3CCCN3Cc3cccc([100NH:0][100C:0](=O)N4CCCC(n5nc(-c6ccc(Oc7ccc(F)cc7F)cc6)c(C(N)=O)c5N)C4)c3)ccc2CC1C(=O)NC1CCCc2ccccc21)C(C)(C)C

> <Shape>
0.238

> <Color>
0.056

> <Negative vol penalty>
0.000

$$$$

  -OEChem-04052301083D

 85 93  0     1  0  0  0  0  0999 V2000
  -29.3320  -33.0062   28.3217 C   0  0  0  0  0  0  0  0  0  0  0  0
  -29.7453  -32.4446   27.1179 C   0  0  0  0  0  0  0  0  0  0  0  0
  -23.2592  -10.0220   20.7256 C   0  0  0  0  0  0  0  0  0  0  0  0
  -24.6070   -8.7143   22.2456 C   0  0  0  0  0  0  0  0  0  0  0  0
  -28.0707  -32.7044   28.8336 C   0  0  0  0  0  0  0  0  0  0  0  0
  -28.8980  -31.5800   26.4258 C   0  0  0  0  0  0  0  0  0  0  0  0
  -27.1673  -29.6074   19.7602 C   0  0  0  0  0  0  0  0  0  0  0  0
  -22.3221   -8.9904   20.6690 C   0  0  0  0  0  0  0  0  0  0  0  0
  -23.6699   -7.6827   22.1890 C   0  0  0  0  0  0  0  0  0  0  0  0
  -27.0361  -28.4625   18.9756 C   0  0  0  0  0  0  0  0  0  0  0  0
  -20.6566   -6.9799   23.5480 C   0  0  0  0  0  0  0  0  0  0  0  0
  -20.2833   -6.3789   24.7501 C   0  0  0  0  0  0  0  0  0  0  0  0
  -24.8487  -28.0758   19.9162 C   0  0  0  0  0  0  0  0  0  0  0  0
  -30.0762  -18.4611   18.7097 C   0  0  0  0  0  0  0  0  0  0  0  0
  -27.9977  -19.1871   16.9964 C   0  0  0  0  0  0  0  0  0  0  0  0
  -21.0814   -4.2497   23.9336 C   0  0  0  0  0  0  0  0  0  0  0  0
  -24.4017   -9.8839   21.5138 C   0  0  0  0  0  0  0  0  0  0  0  0
  -25.3954  -12.0267   22.4776 C   0  0  0  0  0  0  0  0  0  0  0  0
  -27.2037  -31.8433   28.1427 C   0  0  0  0  0  0  0  0  0  0  0  0
  -26.1429  -29.9897   20.6383 C   0  0  0  0  0  0  0  0  0  0  0  0
  -27.6245  -31.2653   26.9297 C   0  0  0  0  0  0  0  0  0  0  0  0
  -24.9682  -29.2274   20.7090 C   0  0  0  0  0  0  0  0  0  0  0  0
  -29.9657  -19.7791   18.2667 C   0  0  0  0  0  0  0  0  0  0  0  0
  -28.1082  -17.8691   17.4394 C   0  0  0  0  0  0  0  0  0  0  0  0
  -29.1474  -17.5061   18.2960 C   0  0  0  0  0  0  0  0  0  0  0  0
  -22.5274   -7.8207   21.4008 C   0  0  0  0  0  0  0  0  0  0  0  0
  -25.8779  -27.6948   19.0556 C   0  0  0  0  0  0  0  0  0  0  0  0
  -21.2423   -6.2157   22.5386 C   0  0  0  0  0  0  0  0  0  0  0  0
  -28.9265  -20.1421   17.4100 C   0  0  0  0  0  0  0  0  0  0  0  0
  -20.4957   -5.0139   24.9429 C   0  0  0  0  0  0  0  0  0  0  0  0
  -21.4546   -4.8507   22.7314 C   0  0  0  0  0  0  0  0  0  0  0  0
  -25.3704  -10.9490   21.5722 C   0  0  0  0  0  0  0  0  0  0  0  0
  -26.5053  -12.7514   22.1181 C   0  0  0  0  0  0  0  0  0  0  0  0
  -24.4957  -12.3442   23.5478 C   0  0  0  0  0  0  0  0  0  0  0  0
  -25.9075  -30.3550   23.7870 C   0  0  0  0  0  0  0  0  0  0  0  0
  -22.9665  -31.5030   23.0421 C   0  0  0  0  0  0  0  0  0  0  0  0
  -20.3669  -31.5960   20.8330 C   0  0  0  0  0  0  0  0  0  0  0  0
  -29.4561  -15.0743   17.8646 C   0  0  0  0  0  0  0  0  0  0  0  0
  -25.8684  -31.5096   28.7593 C   0  0  0  0  0  0  0  0  0  0  0  0
  -26.2887  -31.2423   21.4582 C   0  0  0  0  0  0  0  0  0  0  0  0
  -23.8308  -29.6061   21.6208 C   0  0  0  0  0  0  0  0  0  0  0  0
  -24.8845  -30.8789   27.7771 C   0  0  0  0  0  0  0  0  0  0  0  0
  -30.2961  -11.6556   18.9680 C   0  0  0  0  0  0  0  0  0  0  0  0
  -25.5668  -29.7787   26.9704 C   0  0  0  0  0  0  0  0  0  0  0  0
  -29.0583  -11.2401   19.7613 C   0  0  0  0  0  0  0  0  0  0  0  0
  -29.9529  -12.6474   17.8604 C   0  0  0  0  0  0  0  0  0  0  0  0
  -27.9836  -13.4396   19.1349 C   0  0  0  0  0  0  0  0  0  0  0  0
  -26.7242  -30.3424   26.1373 C   0  0  1  0  0  0  0  0  0  0  0  0
  -25.3970  -31.2533   22.6960 C   0  0  1  0  0  0  0  0  0  0  0  0
  -28.3032  -12.4737   20.2858 C   0  0  1  0  0  0  0  0  0  0  0  0
  -30.9700  -20.7873   18.7186 C   0  0  0  0  0  0  0  0  0  0  0  0
  -27.0994  -16.8667   16.9805 C   0  0  0  0  0  0  0  0  0  0  0  0
  -18.0853  -32.5918   20.5167 C   0  0  0  0  0  0  0  0  0  0  0  0
  -21.8160  -29.4908   25.0263 C   0  0  0  0  0  0  0  0  0  0  0  0
  -19.5676  -29.8574   23.9877 C   0  0  0  0  0  0  0  0  0  0  0  0
  -20.7507  -31.7523   25.0978 C   0  0  0  0  0  0  0  0  0  0  0  0
  -29.4731  -15.9178   20.2008 C   0  0  0  0  0  0  0  0  0  0  0  0
  -21.2077  -33.0376   18.3888 C   0  0  0  0  0  0  0  0  0  0  0  0
  -26.6395  -24.3932   17.7731 C   0  0  0  0  0  0  0  0  0  0  0  0
  -27.8962  -23.5983   17.4362 C   0  0  0  0  0  0  0  0  0  0  0  0
  -26.9443  -25.8737   17.9592 C   0  0  0  0  0  0  0  0  0  1  0  0
  -27.5997  -22.1123   17.2923 C   0  0  0  0  0  0  0  0  0  0  0  0
  -21.5939  -30.8977   22.8728 C   0  0  1  0  0  0  0  0  0  0  0  0
  -19.5748  -32.7563   20.2578 C   0  0  2  0  0  0  0  0  0  0  0  0
  -20.9541  -30.4911   24.2303 C   0  0  0  0  0  0  0  0  0  0  0  0
  -26.3839  -10.9822   20.7029 N   0  0  0  0  0  0  0  0  0  0  0  0
  -27.0561  -12.0897   21.0603 N   0  0  0  0  0  0  0  0  0  0  0  0
  -24.0236  -30.8358   22.4070 N   0  0  0  0  0  0  0  0  0  0  0  0
  -29.1960  -13.7878   18.3781 N   0  0  0  0  0  0  0  0  0  0  0  0
  -27.0541  -13.8839   22.6068 N   0  0  0  0  0  0  0  0  0  0  0  0
  -23.4067  -11.4930   23.7800 N   0  0  0  0  0  0  0  0  0  0  0  0
  -26.2186  -31.0157   24.9602 N   0  0  0  0  0  0  0  0  0  0  0  0
  -20.8125  -31.8649   22.1098 N   0  0  0  0  0  0  0  0  0  0  0  0
  -29.2796  -16.1469   18.7652 N   0  0  0  0  0  0  0  0  0  0  0  0
  -19.7885  -32.8503   18.7859 N   0  3  0  0  0  0  0  0  0  0  0  0
  -24.6436  -13.3619   24.2662 O   0  0  0  0  0  0  0  0  0  0  0  0
  -26.0101  -29.1515   23.5803 O   0  0  0  0  0  0  0  0  0  0  0  0
  -23.0950  -32.5340   23.7071 O   0  0  0  0  0  0  0  0  0  0  0  0
  -20.5669  -30.5538   20.2131 O   0  0  0  0  0  0  0  0  0  0  0  0
  -29.8439  -15.2469   16.7029 O   0  0  0  0  0  0  0  0  0  0  0  0
  -21.6130   -6.8140   21.3460 O   0  0  0  0  0  0  0  0  0  0  0  0
  -25.7476  -26.5765   18.2913 O   0  0  0  0  0  0  0  0  0  1  0  0
  -28.8040  -21.4328   16.9650 O   0  0  0  0  0  0  0  0  0  0  0  0
  -20.1386   -4.4372   26.0980 F   0  0  0  0  0  0  0  0  0  0  0  0
  -22.0179   -4.1117   21.7658 F   0  0  0  0  0  0  0  0  0  0  0  0
  1  2  1  0  0  0  0
  1  5  2  0  0  0  0
  2  6  2  0  0  0  0
  3  8  2  0  0  0  0
  3 17  1  0  0  0  0
  4  9  1  0  0  0  0
  4 17  2  0  0  0  0
  5 19  1  0  0  0  0
  6 21  1  0  0  0  0
  7 10  2  0  0  0  0
  7 20  1  0  0  0  0
  8 26  1  0  0  0  0
  9 26  2  0  0  0  0
 10 27  1  0  0  0  0
 11 12  2  0  0  0  0
 11 28  1  0  0  0  0
 12 30  1  0  0  0  0
 13 22  1  0  0  0  0
 13 27  2  0  0  0  0
 14 23  1  0  0  0  0
 14 25  2  0  0  0  0
 15 24  2  0  0  0  0
 15 29  1  0  0  0  0
 16 30  2  0  0  0  0
 16 31  1  0  0  0  0
 17 32  1  0  0  0  0
 18 32  1  0  0  0  0
 18 33  2  0  0  0  0
 18 34  1  0  0  0  0
 19 21  2  0  0  0  0
 19 39  1  0  0  0  0
 20 22  2  0  0  0  0
 20 40  1  0  0  0  0
 21 48  1  0  0  0  0
 22 41  1  0  0  0  0
 23 29  2  0  0  0  0
 23 51  1  0  0  0  0
 24 25  1  0  0  0  0
 24 52  1  0  0  0  0
 25 74  1  0  0  0  0
 26 81  1  0  0  0  0
 27 82  1  0  0  0  0
 28 31  2  0  0  0  0
 28 81  1  0  0  0  0
 29 83  1  0  0  0  0
 30 84  1  0  0  0  0
 31 85  1  0  0  0  0
 32 66  2  0  0  0  0
 33 67  1  0  0  0  0
 33 70  1  0  0  0  0
 34 71  1  0  0  0  0
 34 76  2  0  0  0  0
 35 49  1  0  0  0  0
 35 72  1  0  0  0  0
 35 77  2  0  0  0  0
 36 63  1  0  0  0  0
 36 68  1  0  0  0  0
 36 78  2  0  0  0  0
 37 64  1  0  0  0  0
 37 73  1  0  0  0  0
 37 79  2  0  0  0  0
 38 69  1  0  0  0  0
 38 74  1  0  0  0  0
 38 80  2  0  0  0  0
 39 42  1  0  0  0  0
 40 49  1  0  0  0  0
 41 68  1  0  0  0  0
 42 44  1  0  0  0  0
 43 45  1  0  0  0  0
 43 46  1  0  0  0  0
 44 48  1  0  0  0  0
 45 50  1  0  0  0  0
 46 69  1  0  0  0  0
 47 50  1  0  0  0  0
 47 69  1  0  0  0  0
 48 72  1  0  0  0  0
 49 68  1  0  0  0  0
 50 67  1  0  0  0  0
 53 64  1  0  0  0  0
 54 65  1  0  0  0  0
 55 65  1  0  0  0  0
 56 65  1  0  0  0  0
 57 74  1  0  0  0  0
 58 75  1  0  0  0  0
 59 60  1  0  0  0  0
 59 61  1  0  0  0  0
 60 62  1  0  0  0  0
 61 82  1  0  0  0  0
 62 83  1  0  0  0  0
 63 65  1  0  0  0  0
 63 73  1  0  0  0  0
 64 75  1  0  0  0  0
 66 67  1  0  0  0  0
M  CHG  1  75   1
M  ISO  4  38 100  61 101  74 100  82 101
M  END
> <Batch ID>
0104

> <Smiles>
CNC(C)C(=O)NC(C(=O)N1Cc2cc([101O:1][101CH2:1]CCCOc3cc(C)c([100N:0](C)[100C:0](=O)N4CCCC(n5nc(-c6ccc(Oc7ccc(F)cc7F)cc6)c(C(N)=O)c5N)C4)cc3C)ccc2CC1C(=O)NC1CCCc2ccccc21)C(C)(C)C

> <Shape>
0.276

> <Color>
0.112

> <Negative vol penalty>
0.000

$$$$

  -OEChem-04052301083D

 85 93  0     1  0  0  0  0  0999 V2000
  -28.3962  -25.1194   16.2263 C   0  0  0  0  0  0  0  0  0  0  0  0
  -27.2304  -25.7551   16.6384 C   0  0  0  0  0  0  0  0  0  0  0  0
  -23.8982  -13.6428   21.6424 C   0  0  0  0  0  0  0  0  0  0  0  0
  -26.2336  -13.4132   22.2171 C   0  0  0  0  0  0  0  0  0  0  0  0
  -29.5281  -25.1530   17.0380 C   0  0  0  0  0  0  0  0  0  0  0  0
  -27.1998  -26.4348   17.8566 C   0  0  0  0  0  0  0  0  0  0  0  0
  -23.1500  -29.0415   18.8602 C   0  0  0  0  0  0  0  0  0  0  0  0
  -23.6737  -12.3208   22.0262 C   0  0  0  0  0  0  0  0  0  0  0  0
  -26.0091  -12.0911   22.6010 C   0  0  0  0  0  0  0  0  0  0  0  0
  -21.9317  -28.4463   19.1850 C   0  0  0  0  0  0  0  0  0  0  0  0
  -24.1513   -9.2360   20.7300 C   0  0  0  0  0  0  0  0  0  0  0  0
  -23.3776   -8.4394   19.8859 C   0  0  0  0  0  0  0  0  0  0  0  0
  -22.2917  -28.9908   21.5073 C   0  0  0  0  0  0  0  0  0  0  0  0
  -21.0826  -23.4375   19.3221 C   0  0  0  0  0  0  0  0  0  0  0  0
  -23.0712  -24.0441   20.5527 C   0  0  0  0  0  0  0  0  0  0  0  0
  -21.7842   -8.0971   21.6695 C   0  0  0  0  0  0  0  0  0  0  0  0
  -25.1782  -14.1890   21.7378 C   0  0  0  0  0  0  0  0  0  0  0  0
  -23.2650  -22.9800   18.3924 C   0  0  0  0  0  0  0  0  0  0  0  0
  -25.3244  -16.7020   22.1519 C   0  0  0  0  0  0  0  0  0  0  0  0
  -29.5067  -25.8231   18.2723 C   0  0  0  0  0  0  0  0  0  0  0  0
  -23.9547  -29.6071   19.8597 C   0  0  0  0  0  0  0  0  0  0  0  0
  -28.3391  -26.5005   18.6789 C   0  0  0  0  0  0  0  0  0  0  0  0
  -23.5185  -29.5948   21.1923 C   0  0  0  0  0  0  0  0  0  0  0  0
  -21.8747  -22.9304   18.2920 C   0  0  0  0  0  0  0  0  0  0  0  0
  -23.8633  -23.5369   19.5227 C   0  0  0  0  0  0  0  0  0  0  0  0
  -24.7291  -11.5449   22.5055 C   0  0  0  0  0  0  0  0  0  0  0  0
  -21.5038  -28.4183   20.5091 C   0  0  0  0  0  0  0  0  0  0  0  0
  -23.7415   -9.4631   22.0438 C   0  0  0  0  0  0  0  0  0  0  0  0
  -21.6808  -23.9945   20.4524 C   0  0  0  0  0  0  0  0  0  0  0  0
  -22.1941   -7.8700   20.3557 C   0  0  0  0  0  0  0  0  0  0  0  0
  -22.5580   -8.8937   22.5136 C   0  0  0  0  0  0  0  0  0  0  0  0
  -25.4109  -15.5545   21.3410 C   0  0  0  0  0  0  0  0  0  0  0  0
  -25.6347  -17.7417   21.3099 C   0  0  0  0  0  0  0  0  0  0  0  0
  -24.1085  -22.4410   17.2947 C   0  0  0  0  0  0  0  0  0  0  0  0
  -24.9931  -16.8176   23.5421 C   0  0  0  0  0  0  0  0  0  0  0  0
  -26.8760  -29.0390   20.9763 C   0  0  0  0  0  0  0  0  0  0  0  0
  -26.3113  -31.7202   22.7126 C   0  0  0  0  0  0  0  0  0  0  0  0
  -24.0310  -33.8421   24.1070 C   0  0  0  0  0  0  0  0  0  0  0  0
  -25.1979  -20.3823   16.4587 C   0  0  0  0  0  0  0  0  0  0  0  0
  -30.7627  -25.8347   19.1075 C   0  0  0  0  0  0  0  0  0  0  0  0
  -25.2536  -30.2690   19.4894 C   0  0  0  0  0  0  0  0  0  0  0  0
  -24.3359  -30.2061   22.2999 C   0  0  0  0  0  0  0  0  0  0  0  0
  -30.5030  -26.1947   20.5667 C   0  0  0  0  0  0  0  0  0  0  0  0
  -27.5270  -17.7274   16.6116 C   0  0  0  0  0  0  0  0  0  0  0  0
  -29.6505  -27.4521   20.6480 C   0  0  0  0  0  0  0  0  0  0  0  0
  -27.1844  -17.0218   17.9266 C   0  0  0  0  0  0  0  0  0  0  0  0
  -26.2742  -18.2226   15.8904 C   0  0  0  0  0  0  0  0  0  0  0  0
  -25.0327  -18.3435   18.0122 C   0  0  0  0  0  0  0  0  0  0  0  0
  -28.2732  -27.2200   20.0139 C   0  0  1  0  0  0  0  0  0  0  0  0
  -26.2325  -30.3585   20.6561 C   0  0  1  0  0  0  0  0  0  0  0  0
  -26.2649  -17.8882   18.8106 C   0  0  1  0  0  0  0  0  0  0  0  0
  -21.2045  -22.3408   17.0937 C   0  0  0  0  0  0  0  0  0  0  0  0
  -25.3499  -23.6048   19.6576 C   0  0  0  0  0  0  0  0  0  0  0  0
  -23.8714  -35.9240   25.4989 C   0  0  0  0  0  0  0  0  0  0  0  0
  -27.0260  -30.1076   25.2023 C   0  0  0  0  0  0  0  0  0  0  0  0
  -25.9533  -31.8981   26.5849 C   0  0  0  0  0  0  0  0  0  0  0  0
  -27.9366  -32.4366   25.1710 C   0  0  0  0  0  0  0  0  0  0  0  0
  -22.6142  -35.3073   21.9612 C   0  0  0  0  0  0  0  0  0  0  0  0
  -19.2173  -26.0964   22.0877 C   0  0  0  0  0  0  0  0  0  0  0  0
  -20.2078  -27.2496   22.1247 C   0  0  0  0  0  0  0  0  0  1  0  0
  -19.6345  -25.0197   21.0982 C   0  0  0  0  0  0  0  0  0  0  0  0
  -25.7039  -32.0107   24.0637 C   0  0  1  0  0  0  0  0  0  0  0  0
  -23.9213  -35.3560   24.0891 C   0  0  2  0  0  0  0  0  0  0  0  0
  -26.6402  -31.5999   25.2351 C   0  0  0  0  0  0  0  0  0  0  0  0
  -25.7495  -15.8383   20.0805 N   0  0  0  0  0  0  0  0  0  0  0  0
  -25.8784  -17.1759   20.0931 N   0  0  0  0  0  0  0  0  0  0  0  0
  -25.6013  -30.8358   21.8882 N   0  0  0  0  0  0  0  0  0  0  0  0
  -25.4629  -19.0426   16.7919 N   0  0  0  0  0  0  0  0  0  0  0  0
  -25.7201  -19.0756   21.4990 N   0  0  0  0  0  0  0  0  0  0  0  0
  -24.7010  -15.6492   24.2588 N   0  0  0  0  0  0  0  0  0  0  0  0
  -24.4507  -21.0929   17.4047 N   0  0  0  0  0  0  0  0  0  0  0  0
  -27.5766  -28.4842   19.9223 N   0  0  0  0  0  0  0  0  0  0  0  0
  -25.3441  -33.4245   24.0540 N   0  0  0  0  0  0  0  0  0  0  0  0
  -22.6867  -35.7774   23.3686 N   0  3  0  0  0  0  0  0  0  0  0  0
  -24.4155  -23.1761   16.3603 O   0  0  0  0  0  0  0  0  0  0  0  0
  -24.9412  -17.9259   24.1273 O   0  0  0  0  0  0  0  0  0  0  0  0
  -26.7477  -28.5604   22.0971 O   0  0  0  0  0  0  0  0  0  0  0  0
  -27.3729  -32.2636   22.3973 O   0  0  0  0  0  0  0  0  0  0  0  0
  -23.0502  -33.1038   24.1662 O   0  0  0  0  0  0  0  0  0  0  0  0
  -25.6219  -20.9114   15.4264 O   0  0  0  0  0  0  0  0  0  0  0  0
  -24.5104  -10.2548   22.8803 O   0  0  0  0  0  0  0  0  0  0  0  0
  -20.3155  -27.8374   20.8289 O   0  0  0  0  0  0  0  0  0  1  0  0
  -20.9027  -24.4932   21.4645 O   0  0  0  0  0  0  0  0  0  0  0  0
  -21.4504   -7.1063   19.5446 F   0  0  0  0  0  0  0  0  0  0  0  0
  -22.1586   -9.1093   23.7744 F   0  0  0  0  0  0  0  0  0  0  0  0
  1  2  1  0  0  0  0
  1  5  2  0  0  0  0
  2  6  2  0  0  0  0
  3  8  2  0  0  0  0
  3 17  1  0  0  0  0
  4  9  1  0  0  0  0
  4 17  2  0  0  0  0
  5 20  1  0  0  0  0
  6 22  1  0  0  0  0
  7 10  2  0  0  0  0
  7 21  1  0  0  0  0
  8 26  1  0  0  0  0
  9 26  2  0  0  0  0
 10 27  1  0  0  0  0
 11 12  2  0  0  0  0
 11 28  1  0  0  0  0
 12 30  1  0  0  0  0
 13 23  1  0  0  0  0
 13 27  2  0  0  0  0
 14 24  2  0  0  0  0
 14 29  1  0  0  0  0
 15 25  1  0  0  0  0
 15 29  2  0  0  0  0
 16 30  2  0  0  0  0
 16 31  1  0  0  0  0
 17 32  1  0  0  0  0
 18 24  1  0  0  0  0
 18 25  2  0  0  0  0
 18 34  1  0  0  0  0
 19 32  1  0  0  0  0
 19 33  2  0  0  0  0
 19 35  1  0  0  0  0
 20 22  2  0  0  0  0
 20 40  1  0  0  0  0
 21 23  2  0  0  0  0
 21 41  1  0  0  0  0
 22 49  1  0  0  0  0
 23 42  1  0  0  0  0
 24 52  1  0  0  0  0
 25 53  1  0  0  0  0
 26 81  1  0  0  0  0
 27 82  1  0  0  0  0
 28 31  2  0  0  0  0
 28 81  1  0  0  0  0
 29 83  1  0  0  0  0
 30 84  1  0  0  0  0
 31 85  1  0  0  0  0
 32 65  2  0  0  0  0
 33 66  1  0  0  0  0
 33 69  1  0  0  0  0
 34 71  1  0  0  0  0
 34 75  2  0  0  0  0
 35 70  1  0  0  0  0
 35 76  2  0  0  0  0
 36 50  1  0  0  0  0
 36 72  1  0  0  0  0
 36 77  2  0  0  0  0
 37 62  1  0  0  0  0
 37 67  1  0  0  0  0
 37 78  2  0  0  0  0
 38 63  1  0  0  0  0
 38 73  1  0  0  0  0
 38 79  2  0  0  0  0
 39 68  1  0  0  0  0
 39 71  1  0  0  0  0
 39 80  2  0  0  0  0
 40 43  1  0  0  0  0
 41 50  1  0  0  0  0
 42 67  1  0  0  0  0
 43 45  1  0  0  0  0
 44 46  1  0  0  0  0
 44 47  1  0  0  0  0
 45 49  1  0  0  0  0
 46 51  1  0  0  0  0
 47 68  1  0  0  0  0
 48 51  1  0  0  0  0
 48 68  1  0  0  0  0
 49 72  1  0  0  0  0
 50 67  1  0  0  0  0
 51 66  1  0  0  0  0
 54 63  1  0  0  0  0
 55 64  1  0  0  0  0
 56 64  1  0  0  0  0
 57 64  1  0  0  0  0
 58 74  1  0  0  0  0
 59 60  1  0  0  0  0
 59 61  1  0  0  0  0
 60 82  1  0  0  0  0
 61 83  1  0  0  0  0
 62 64  1  0  0  0  0
 62 73  1  0  0  0  0
 63 74  1  0  0  0  0
 65 66  1  0  0  0  0
M  CHG  1  74   1
M  ISO  4  39 100  60 101  71 100  82 101
M  END
> <Batch ID>
0104

> <Smiles>
CNC(C)C(=O)NC(C(=O)N1Cc2cc([101O:1][101CH2:1]CCOc3cc(C)c(C(=O)[100NH:0][100C:0](=O)N4CCCC(n5nc(-c6ccc(Oc7ccc(F)cc7F)cc6)c(C(N)=O)c5N)C4)c(C)c3)ccc2CC1C(=O)NC1CCCc2ccccc21)C(C)(C)C

> <Shape>
0.251

> <Color>
0.082

> <Negative vol penalty>
0.000

$$$$

  -OEChem-04052301083D

 86 95  0     1  0  0  0  0  0999 V2000
  -29.3640  -37.2655   24.3817 C   0  0  0  0  0  0  0  0  0  0  0  0
  -29.7053  -36.0886   23.7232 C   0  0  0  0  0  0  0  0  0  0  0  0
  -24.7032   -8.7750   21.0034 C   0  0  0  0  0  0  0  0  0  0  0  0
  -22.7564  -10.1263   20.5334 C   0  0  0  0  0  0  0  0  0  0  0  0
  -28.2990  -37.2759   25.2815 C   0  0  0  0  0  0  0  0  0  0  0  0
  -28.9824  -34.9209   23.9649 C   0  0  0  0  0  0  0  0  0  0  0  0
  -27.6829  -30.4949   19.9366 C   0  0  0  0  0  0  0  0  0  0  0  0
  -25.9194  -21.3480   19.3834 C   0  0  0  0  0  0  0  0  0  0  0  0
  -26.2341  -20.1674   20.0563 C   0  0  0  0  0  0  0  0  0  0  0  0
  -23.8775   -7.7018   21.3381 C   0  0  0  0  0  0  0  0  0  0  0  0
  -21.9307   -9.0531   20.8680 C   0  0  0  0  0  0  0  0  0  0  0  0
  -28.2714  -29.2572   19.6807 C   0  0  0  0  0  0  0  0  0  0  0  0
  -22.0766   -5.3441   19.7160 C   0  0  0  0  0  0  0  0  0  0  0  0
  -22.4089   -4.0879   19.2091 C   0  0  0  0  0  0  0  0  0  0  0  0
  -26.6375  -28.1934   21.1012 C   0  0  0  0  0  0  0  0  0  0  0  0
  -26.0368  -18.9355   17.9873 C   0  0  0  0  0  0  0  0  0  0  0  0
  -22.6199   -3.2354   21.4599 C   0  0  0  0  0  0  0  0  0  0  0  0
  -24.1427   -9.9873   20.6011 C   0  0  0  0  0  0  0  0  0  0  0  0
  -25.5159  -11.4049   18.9849 C   0  0  0  0  0  0  0  0  0  0  0  0
  -27.5566  -36.1101   25.5272 C   0  0  0  0  0  0  0  0  0  0  0  0
  -26.5721  -30.5927   20.7869 C   0  0  0  0  0  0  0  0  0  0  0  0
  -27.9074  -34.9154   24.8699 C   0  0  0  0  0  0  0  0  0  0  0  0
  -26.0352  -29.4332   21.3643 C   0  0  0  0  0  0  0  0  0  0  0  0
  -25.6632  -21.3223   18.0124 C   0  0  0  0  0  0  0  0  0  0  0  0
  -25.7220  -20.1161   17.3144 C   0  0  0  0  0  0  0  0  0  0  0  0
  -26.2929  -18.9612   19.3583 C   0  0  0  0  0  0  0  0  0  0  0  0
  -22.4912   -7.8408   21.2703 C   0  0  0  0  0  0  0  0  0  0  0  0
  -27.7505  -28.1065   20.2653 C   0  0  0  0  0  0  0  0  0  0  0  0
  -22.0160   -5.5461   21.0949 C   0  0  0  0  0  0  0  0  0  0  0  0
  -22.6806   -3.0335   20.0810 C   0  0  0  0  0  0  0  0  0  0  0  0
  -22.2877   -4.4917   21.9668 C   0  0  0  0  0  0  0  0  0  0  0  0
  -24.9951  -11.0965   20.2559 C   0  0  0  0  0  0  0  0  0  0  0  0
  -26.2571  -12.5438   19.1847 C   0  0  0  0  0  0  0  0  0  0  0  0
  -25.3448  -10.7230   17.7353 C   0  0  0  0  0  0  0  0  0  0  0  0
  -25.9832  -32.0506   23.5494 C   0  0  0  0  0  0  0  0  0  0  0  0
  -22.9608  -31.0028   23.0114 C   0  0  0  0  0  0  0  0  0  0  0  0
  -20.9047  -28.7527   21.4764 C   0  0  0  0  0  0  0  0  0  0  0  0
  -26.8979  -17.6126   21.3982 C   0  0  0  0  0  0  0  0  0  0  0  0
  -26.4438  -36.1589   26.5439 C   0  0  0  0  0  0  0  0  0  0  0  0
  -25.9324  -31.9319   21.0316 C   0  0  0  0  0  0  0  0  0  0  0  0
  -24.8316  -29.4817   22.2684 C   0  0  0  0  0  0  0  0  0  0  0  0
  -25.4917  -34.9685   26.4625 C   0  0  0  0  0  0  0  0  0  0  0  0
  -27.6985  -14.8270   23.4662 C   0  0  0  0  0  0  0  0  0  0  0  0
  -26.2756  -33.6640   26.3589 C   0  0  0  0  0  0  0  0  0  0  0  0
  -27.1094  -13.6335   22.7108 C   0  0  0  0  0  0  0  0  0  0  0  0
  -29.5167  -24.9758   17.0028 C   0  0  0  0  0  0  0  0  0  0  0  0
  -26.8160  -16.0678   23.3430 C   0  0  0  0  0  0  0  0  0  0  0  0
  -25.8821  -15.2569   21.2124 C   0  0  0  0  0  0  0  0  0  0  0  0
  -28.9589  -23.6156   16.6166 C   0  0  0  0  0  0  0  0  0  0  0  0
  -27.4512  -24.7861   18.1433 C   0  0  0  0  0  0  0  0  0  0  0  0
  -27.1315  -33.6343   25.0869 C   0  0  1  0  0  0  0  0  0  0  0  0
  -25.1197  -31.9790   22.3218 C   0  0  1  0  0  0  0  0  0  0  0  0
  -28.8767  -25.2672   18.3529 C   0  0  2  0  0  0  0  0  0  0  0  0
  -26.7686  -14.0015   21.2534 C   0  0  2  0  0  0  0  0  0  0  0  0
  -25.4536  -20.0648   15.8461 C   0  0  0  0  0  0  0  0  0  0  0  0
  -18.4846  -28.1263   21.2567 C   0  0  0  0  0  0  0  0  0  0  0  0
  -23.0381  -29.7400   25.7879 C   0  0  0  0  0  0  0  0  0  0  0  0
  -21.0453  -28.3683   25.1433 C   0  0  0  0  0  0  0  0  0  0  0  0
  -20.8762  -30.8562   25.2094 C   0  0  0  0  0  0  0  0  0  0  0  0
  -20.9240  -29.2387   18.5571 C   0  0  0  0  0  0  0  0  0  0  0  0
  -25.3258  -22.6057   17.3101 C   0  0  0  0  0  0  0  0  0  0  0  0
  -28.9561  -26.7257   18.7502 C   0  0  0  0  0  0  0  0  0  1  0  0
  -26.4704  -23.1714   16.4756 C   0  0  0  0  0  0  0  0  0  0  0  0
  -22.1867  -29.7519   23.3505 C   0  0  1  0  0  0  0  0  0  0  0  0
  -19.6304  -28.9378   20.6724 C   0  0  2  0  0  0  0  0  0  0  0  0
  -21.8105  -29.6781   24.8573 C   0  0  0  0  0  0  0  0  0  0  0  0
  -25.3736  -11.9689   21.1938 N   0  0  0  0  0  0  0  0  0  0  0  0
  -26.1401  -12.8367   20.5116 N   0  0  0  0  0  0  0  0  0  0  0  0
  -24.2455  -30.8153   22.4820 N   0  0  0  0  0  0  0  0  0  0  0  0
  -26.5384  -16.3580   21.9346 N   0  0  0  0  0  0  0  0  0  0  0  0
  -26.9911  -13.3132   18.3530 N   0  0  0  0  0  0  0  0  0  0  0  0
  -24.5509   -9.5683   17.7075 N   0  0  0  0  0  0  0  0  0  0  0  0
  -26.6146  -17.7620   20.0410 N   0  0  0  0  0  0  0  0  0  0  0  0
  -26.3110  -33.3372   23.9324 N   0  0  0  0  0  0  0  0  0  0  0  0
  -21.0418  -29.7227   22.4467 N   0  0  0  0  0  0  0  0  0  0  0  0
  -27.6343  -23.5103   17.3501 N   0  3  1  0  0  0  0  0  0  0  0  0
  -19.8406  -28.5060   19.2617 N   0  3  0  0  0  0  0  0  0  0  0  0
  -25.8934  -11.1164   16.6781 O   0  0  0  0  0  0  0  0  0  0  0  0
  -26.3254  -31.0153   24.1086 O   0  0  0  0  0  0  0  0  0  0  0  0
  -22.4419  -32.1055   23.2022 O   0  0  0  0  0  0  0  0  0  0  0  0
  -21.6971  -27.8368   21.2672 O   0  0  0  0  0  0  0  0  0  0  0  0
  -27.4435  -18.4799   22.0854 O   0  0  0  0  0  0  0  0  0  0  0  0
  -21.6852   -6.7937   21.5966 O   0  0  0  0  0  0  0  0  0  0  0  0
  -28.3234  -26.8972   20.0177 O   0  0  0  0  0  0  0  0  0  1  0  0
  -22.9982   -1.8268   19.5940 F   0  0  0  0  0  0  0  0  0  0  0  0
  -22.2299   -4.6794   23.2924 F   0  0  0  0  0  0  0  0  0  0  0  0
  1  2  1  0  0  0  0
  1  5  2  0  0  0  0
  2  6  2  0  0  0  0
  3 10  2  0  0  0  0
  3 18  1  0  0  0  0
  4 11  1  0  0  0  0
  4 18  2  0  0  0  0
  5 20  1  0  0  0  0
  6 22  1  0  0  0  0
  7 12  2  0  0  0  0
  7 21  1  0  0  0  0
  8  9  2  0  0  0  0
  8 24  1  0  0  0  0
  9 26  1  0  0  0  0
 10 27  1  0  0  0  0
 11 27  2  0  0  0  0
 12 28  1  0  0  0  0
 13 14  2  0  0  0  0
 13 29  1  0  0  0  0
 14 30  1  0  0  0  0
 15 23  1  0  0  0  0
 15 28  2  0  0  0  0
 16 25  1  0  0  0  0
 16 26  2  0  0  0  0
 17 30  2  0  0  0  0
 17 31  1  0  0  0  0
 18 32  1  0  0  0  0
 19 32  1  0  0  0  0
 19 33  2  0  0  0  0
 19 34  1  0  0  0  0
 20 22  2  0  0  0  0
 20 39  1  0  0  0  0
 21 23  2  0  0  0  0
 21 40  1  0  0  0  0
 22 51  1  0  0  0  0
 23 41  1  0  0  0  0
 24 25  2  0  0  0  0
 24 61  1  0  0  0  0
 25 55  1  0  0  0  0
 26 73  1  0  0  0  0
 27 83  1  0  0  0  0
 28 84  1  0  0  0  0
 29 31  2  0  0  0  0
 29 83  1  0  0  0  0
 30 85  1  0  0  0  0
 31 86  1  0  0  0  0
 32 67  2  0  0  0  0
 33 68  1  0  0  0  0
 33 71  1  0  0  0  0
 34 72  1  0  0  0  0
 34 78  2  0  0  0  0
 35 52  1  0  0  0  0
 35 74  1  0  0  0  0
 35 79  2  0  0  0  0
 36 64  1  0  0  0  0
 36 69  1  0  0  0  0
 36 80  2  0  0  0  0
 37 65  1  0  0  0  0
 37 75  1  0  0  0  0
 37 81  2  0  0  0  0
 38 70  1  0  0  0  0
 38 73  1  0  0  0  0
 38 82  2  0  0  0  0
 39 42  1  0  0  0  0
 40 52  1  0  0  0  0
 41 69  1  0  0  0  0
 42 44  1  0  0  0  0
 43 45  1  0  0  0  0
 43 47  1  0  0  0  0
 44 51  1  0  0  0  0
 45 54  1  0  0  0  0
 46 49  1  0  0  0  0
 46 53  1  0  0  0  0
 47 70  1  0  0  0  0
 48 54  1  0  0  0  0
 48 70  1  0  0  0  0
 49 76  1  0  0  0  0
 50 53  1  0  0  0  0
 50 76  1  0  0  0  0
 51 74  1  0  0  0  0
 52 69  1  0  0  0  0
 53 62  1  0  0  0  0
 54 68  1  0  0  0  0
 56 65  1  0  0  0  0
 57 66  1  0  0  0  0
 58 66  1  0  0  0  0
 59 66  1  0  0  0  0
 60 77  1  0  0  0  0
 61 63  1  0  0  0  0
 62 84  1  0  0  0  0
 63 76  1  0  0  0  0
 64 66  1  0  0  0  0
 64 75  1  0  0  0  0
 65 77  1  0  0  0  0
 67 68  1  0  0  0  0
M  CHG  2  76   1  77   1
M  ISO  4  38 100  62 101  73 100  84 101
M  END
> <Batch ID>
0104

> <Smiles>
CNC(C)C(=O)NC(C(=O)N1Cc2cc([101O:1][101CH2:1]C3CCN(CCc4ccc([100NH:0][100C:0](=O)N5CCCC(n6nc(-c7ccc(Oc8ccc(F)cc8F)cc7)c(C(N)=O)c6N)C5)cc4C)C3)ccc2CC1C(=O)NC1CCCc2ccccc21)C(C)(C)C

> <Shape>
0.253

> <Color>
0.102

> <Negative vol penalty>
0.000

$$$$

  -OEChem-04052301083D

 86 94  0     1  0  0  0  0  0999 V2000
  -32.6882  -19.5878   19.5122 C   0  0  0  0  0  0  0  0  0  0  0  0
  -31.5420  -19.7925   18.7508 C   0  0  0  0  0  0  0  0  0  0  0  0
  -23.2631   -9.7819   19.9023 C   0  0  0  0  0  0  0  0  0  0  0  0
  -23.6953   -9.9067   22.2760 C   0  0  0  0  0  0  0  0  0  0  0  0
  -32.9035  -20.3445   20.6633 C   0  0  0  0  0  0  0  0  0  0  0  0
  -30.6097  -20.7533   19.1408 C   0  0  0  0  0  0  0  0  0  0  0  0
  -29.0188  -23.6011   15.2673 C   0  0  0  0  0  0  0  0  0  0  0  0
  -22.5188   -8.6187   20.0989 C   0  0  0  0  0  0  0  0  0  0  0  0
  -22.9510   -8.7435   22.4727 C   0  0  0  0  0  0  0  0  0  0  0  0
  -28.0719  -23.0401   14.4114 C   0  0  0  0  0  0  0  0  0  0  0  0
  -20.8049   -5.4158   19.9330 C   0  0  0  0  0  0  0  0  0  0  0  0
  -21.0225   -4.3495   19.0605 C   0  0  0  0  0  0  0  0  0  0  0  0
  -27.4665  -18.5733   17.1923 C   0  0  0  0  0  0  0  0  0  0  0  0
  -26.3302  -24.2648   15.5454 C   0  0  0  0  0  0  0  0  0  0  0  0
  -26.3989  -18.2471   14.6356 C   0  0  0  0  0  0  0  0  0  0  0  0
  -23.3388   -4.2645   19.7422 C   0  0  0  0  0  0  0  0  0  0  0  0
  -23.8514  -10.4259   20.9908 C   0  0  0  0  0  0  0  0  0  0  0  0
  -28.0511  -17.6724   16.3021 C   0  0  0  0  0  0  0  0  0  0  0  0
  -24.1473  -12.9528   20.8050 C   0  0  0  0  0  0  0  0  0  0  0  0
  -31.9781  -21.3218   21.0622 C   0  0  0  0  0  0  0  0  0  0  0  0
  -28.6265  -24.4912   16.2773 C   0  0  0  0  0  0  0  0  0  0  0  0
  -30.8121  -21.5229   20.2990 C   0  0  0  0  0  0  0  0  0  0  0  0
  -27.2744  -24.8376   16.4111 C   0  0  0  0  0  0  0  0  0  0  0  0
  -26.3481  -19.3110   16.8042 C   0  0  0  0  0  0  0  0  0  0  0  0
  -27.5173  -17.5094   15.0238 C   0  0  0  0  0  0  0  0  0  0  0  0
  -22.3628   -8.0995   21.3841 C   0  0  0  0  0  0  0  0  0  0  0  0
  -26.7271  -23.3697   14.5522 C   0  0  0  0  0  0  0  0  0  0  0  0
  -21.8543   -5.9065   20.7101 C   0  0  0  0  0  0  0  0  0  0  0  0
  -25.8143  -19.1479   15.5259 C   0  0  0  0  0  0  0  0  0  0  0  0
  -22.2895   -3.7739   18.9651 C   0  0  0  0  0  0  0  0  0  0  0  0
  -23.1212   -5.3308   20.6147 C   0  0  0  0  0  0  0  0  0  0  0  0
  -24.6207  -11.6272   20.7883 C   0  0  0  0  0  0  0  0  0  0  0  0
  -25.2616  -13.7185   20.5627 C   0  0  0  0  0  0  0  0  0  0  0  0
  -29.2401  -16.8984   16.7425 C   0  0  0  0  0  0  0  0  0  0  0  0
  -22.8191  -13.4479   21.0203 C   0  0  0  0  0  0  0  0  0  0  0  0
  -28.7766  -24.4882   19.4524 C   0  0  0  0  0  0  0  0  0  0  0  0
  -27.6495  -27.5116   19.1199 C   0  0  0  0  0  0  0  0  0  0  0  0
  -25.9510  -29.7773   17.2150 C   0  0  0  0  0  0  0  0  0  0  0  0
  -29.9441  -14.7721   17.7947 C   0  0  0  0  0  0  0  0  0  0  0  0
  -32.2308  -22.0822   22.3399 C   0  0  0  0  0  0  0  0  0  0  0  0
  -29.6634  -25.1082   17.1753 C   0  0  0  0  0  0  0  0  0  0  0  0
  -26.8040  -25.8038   17.4664 C   0  0  0  0  0  0  0  0  0  0  0  0
  -31.3775  -23.3403   22.4789 C   0  0  0  0  0  0  0  0  0  0  0  0
  -30.1671  -12.4617   20.4610 C   0  0  0  0  0  0  0  0  0  0  0  0
  -29.9231  -23.0401   22.1303 C   0  0  0  0  0  0  0  0  0  0  0  0
  -28.7050  -12.1514   20.7932 C   0  0  0  0  0  0  0  0  0  0  0  0
  -30.3845  -12.6275   18.9576 C   0  0  0  0  0  0  0  0  0  0  0  0
  -28.0323  -13.2751   18.6324 C   0  0  0  0  0  0  0  0  0  0  0  0
  -29.7896  -22.5730   20.6758 C   0  0  1  0  0  0  0  0  0  0  0  0
  -29.0886  -25.6059   18.4979 C   0  0  1  0  0  0  0  0  0  0  0  0
  -27.7482  -13.1686   20.1394 C   0  0  1  0  0  0  0  0  0  0  0  0
  -25.7335  -20.2692   17.7705 C   0  0  0  0  0  0  0  0  0  0  0  0
  -27.3154  -15.2608   13.9330 C   0  0  0  0  0  0  0  0  0  0  0  0
  -25.1577  -32.1580   17.2247 C   0  0  0  0  0  0  0  0  0  0  0  0
  -25.4082  -26.7543   21.0467 C   0  0  0  0  0  0  0  0  0  0  0  0
  -24.1618  -28.7882   20.2864 C   0  0  0  0  0  0  0  0  0  0  0  0
  -26.3739  -29.0319   21.4133 C   0  0  0  0  0  0  0  0  0  0  0  0
  -27.5559  -30.4438   14.8193 C   0  0  0  0  0  0  0  0  0  0  0  0
  -28.1227  -16.5498   14.0519 C   0  0  0  0  0  0  0  0  0  0  0  0
  -23.8224  -21.4517   13.5545 C   0  0  0  0  0  0  0  0  0  0  0  0
  -24.4869  -22.6340   14.2423 C   0  0  0  0  0  0  0  0  0  1  0  0
  -24.6116  -20.1659   13.7445 C   0  0  0  0  0  0  0  0  0  0  0  0
  -26.2786  -28.1398   19.0496 C   0  0  1  0  0  0  0  0  0  0  0  0
  -26.2748  -31.2076   16.8228 C   0  0  2  0  0  0  0  0  0  0  0  0
  -25.5639  -28.1588   20.4303 C   0  0  0  0  0  0  0  0  0  0  0  0
  -25.9335  -11.5514   20.5537 N   0  0  0  0  0  0  0  0  0  0  0  0
  -26.2944  -12.8391   20.4207 N   0  0  0  0  0  0  0  0  0  0  0  0
  -27.8551  -26.3757   18.3241 N   0  0  0  0  0  0  0  0  0  0  0  0
  -29.4472  -13.6137   18.4172 N   0  0  0  0  0  0  0  0  0  0  0  0
  -25.4488  -15.0514   20.4592 N   0  0  0  0  0  0  0  0  0  0  0  0
  -21.7916  -12.5241   21.2552 N   0  0  0  0  0  0  0  0  0  0  0  0
  -28.9691  -15.6721   17.3501 N   0  0  0  0  0  0  0  0  0  0  0  0
  -29.8666  -23.7017   19.7733 N   0  0  0  0  0  0  0  0  0  0  0  0
  -26.4641  -29.4589   18.4546 N   0  0  0  0  0  0  0  0  0  0  0  0
  -26.4706  -31.3090   15.3489 N   0  3  0  0  0  0  0  0  0  0  0  0
  -30.3615  -17.3463   16.5195 O   0  0  0  0  0  0  0  0  0  0  0  0
  -22.5483  -14.6723   20.9886 O   0  0  0  0  0  0  0  0  0  0  0  0
  -27.6321  -24.3504   19.8682 O   0  0  0  0  0  0  0  0  0  0  0  0
  -28.5086  -28.0146   19.8483 O   0  0  0  0  0  0  0  0  0  0  0  0
  -25.3042  -29.0195   16.4953 O   0  0  0  0  0  0  0  0  0  0  0  0
  -31.1516  -15.0037   17.6787 O   0  0  0  0  0  0  0  0  0  0  0  0
  -21.6364   -6.9646   21.5764 O   0  0  0  0  0  0  0  0  0  0  0  0
  -25.8007  -22.8232   13.7185 O   0  0  0  0  0  0  0  0  0  1  0  0
  -24.7143  -19.8630   15.1293 O   0  0  0  0  0  0  0  0  0  0  0  0
  -22.4979   -2.7489   18.1283 F   0  0  0  0  0  0  0  0  0  0  0  0
  -24.1329   -5.7971   21.3595 F   0  0  0  0  0  0  0  0  0  0  0  0
  1  2  1  0  0  0  0
  1  5  2  0  0  0  0
  2  6  2  0  0  0  0
  3  8  2  0  0  0  0
  3 17  1  0  0  0  0
  4  9  1  0  0  0  0
  4 17  2  0  0  0  0
  5 20  1  0  0  0  0
  6 22  1  0  0  0  0
  7 10  2  0  0  0  0
  7 21  1  0  0  0  0
  8 26  1  0  0  0  0
  9 26  2  0  0  0  0
 10 27  1  0  0  0  0
 11 12  2  0  0  0  0
 11 28  1  0  0  0  0
 12 30  1  0  0  0  0
 13 18  1  0  0  0  0
 13 24  2  0  0  0  0
 14 23  1  0  0  0  0
 14 27  2  0  0  0  0
 15 25  1  0  0  0  0
 15 29  2  0  0  0  0
 16 30  2  0  0  0  0
 16 31  1  0  0  0  0
 17 32  1  0  0  0  0
 18 25  2  0  0  0  0
 18 34  1  0  0  0  0
 19 32  1  0  0  0  0
 19 33  2  0  0  0  0
 19 35  1  0  0  0  0
 20 22  2  0  0  0  0
 20 40  1  0  0  0  0
 21 23  2  0  0  0  0
 21 41  1  0  0  0  0
 22 49  1  0  0  0  0
 23 42  1  0  0  0  0
 24 29  1  0  0  0  0
 24 52  1  0  0  0  0
 25 59  1  0  0  0  0
 26 82  1  0  0  0  0
 27 83  1  0  0  0  0
 28 31  2  0  0  0  0
 28 82  1  0  0  0  0
 29 84  1  0  0  0  0
 30 85  1  0  0  0  0
 31 86  1  0  0  0  0
 32 66  2  0  0  0  0
 33 67  1  0  0  0  0
 33 70  1  0  0  0  0
 34 72  1  0  0  0  0
 34 76  2  0  0  0  0
 35 71  1  0  0  0  0
 35 77  2  0  0  0  0
 36 50  1  0  0  0  0
 36 73  1  0  0  0  0
 36 78  2  0  0  0  0
 37 63  1  0  0  0  0
 37 68  1  0  0  0  0
 37 79  2  0  0  0  0
 38 64  1  0  0  0  0
 38 74  1  0  0  0  0
 38 80  2  0  0  0  0
 39 69  1  0  0  0  0
 39 72  1  0  0  0  0
 39 81  2  0  0  0  0
 40 43  1  0  0  0  0
 41 50  1  0  0  0  0
 42 68  1  0  0  0  0
 43 45  1  0  0  0  0
 44 46  1  0  0  0  0
 44 47  1  0  0  0  0
 45 49  1  0  0  0  0
 46 51  1  0  0  0  0
 47 69  1  0  0  0  0
 48 51  1  0  0  0  0
 48 69  1  0  0  0  0
 49 73  1  0  0  0  0
 50 68  1  0  0  0  0
 51 67  1  0  0  0  0
 53 59  1  0  0  0  0
 54 64  1  0  0  0  0
 55 65  1  0  0  0  0
 56 65  1  0  0  0  0
 57 65  1  0  0  0  0
 58 75  1  0  0  0  0
 60 61  1  0  0  0  0
 60 62  1  0  0  0  0
 61 83  1  0  0  0  0
 62 84  1  0  0  0  0
 63 65  1  0  0  0  0
 63 74  1  0  0  0  0
 64 75  1  0  0  0  0
 66 67  1  0  0  0  0
M  CHG  1  75   1
M  ISO  4  39 100  61 101  72 100  83 101
M  END
> <Batch ID>
0104

> <Smiles>
CCc1cc(OCC[101CH2:1][101O:1]c2ccc3c(c2)CN(C(=O)C(NC(=O)C(C)NC)C(C)(C)C)C(C(=O)NC2CCCc4ccccc42)C3)c(C)cc1C(=O)[100NH:0][100C:0](=O)N1CCCC(n2nc(-c3ccc(Oc4ccc(F)cc4F)cc3)c(C(N)=O)c2N)C1

> <Shape>
0.198

> <Color>
0.174

> <Negative vol penalty>
0.000

$$$$

  -OEChem-04052301083D

 85 94  0     1  0  0  0  0  0999 V2000
  -22.6501  -23.0422   23.2962 C   0  0  0  0  0  0  0  0  0  0  0  0
  -23.5840  -22.6655   22.3364 C   0  0  0  0  0  0  0  0  0  0  0  0
  -26.7042  -25.5938   20.1346 C   0  0  0  0  0  0  0  0  0  0  0  0
  -29.0183  -26.2798   20.2418 C   0  0  0  0  0  0  0  0  0  0  0  0
  -22.3407  -22.1760   24.3439 C   0  0  0  0  0  0  0  0  0  0  0  0
  -24.2100  -21.4226   22.4245 C   0  0  0  0  0  0  0  0  0  0  0  0
  -26.8778  -16.2104   18.2974 C   0  0  0  0  0  0  0  0  0  0  0  0
  -33.2841  -17.2829   21.1687 C   0  0  0  0  0  0  0  0  0  0  0  0
  -32.4082  -15.7777   22.8433 C   0  0  0  0  0  0  0  0  0  0  0  0
  -32.9920  -16.3480   20.1756 C   0  0  0  0  0  0  0  0  0  0  0  0
  -32.1160  -14.8428   21.8502 C   0  0  0  0  0  0  0  0  0  0  0  0
  -26.3239  -26.9142   19.8946 C   0  0  0  0  0  0  0  0  0  0  0  0
  -28.6380  -27.6002   20.0018 C   0  0  0  0  0  0  0  0  0  0  0  0
  -28.0411  -15.4613   18.1259 C   0  0  0  0  0  0  0  0  0  0  0  0
  -25.8690  -29.7407   21.6914 C   0  0  0  0  0  0  0  0  0  0  0  0
  -24.7769  -30.2391   22.4017 C   0  0  0  0  0  0  0  0  0  0  0  0
  -27.3693  -14.0147   19.9356 C   0  0  0  0  0  0  0  0  0  0  0  0
  -23.6175  -30.6595   20.3242 C   0  0  0  0  0  0  0  0  0  0  0  0
  -28.0514  -25.2766   20.3083 C   0  0  0  0  0  0  0  0  0  0  0  0
  -28.7788  -22.9366   19.5993 C   0  0  0  0  0  0  0  0  0  0  0  0
  -22.9561  -20.9179   24.4395 C   0  0  0  0  0  0  0  0  0  0  0  0
  -25.9552  -15.8731   19.2982 C   0  0  0  0  0  0  0  0  0  0  0  0
  -23.9096  -20.5392   23.4752 C   0  0  0  0  0  0  0  0  0  0  0  0
  -26.1939  -14.7595   20.1161 C   0  0  0  0  0  0  0  0  0  0  0  0
  -32.9922  -16.9977   22.5026 C   0  0  0  0  0  0  0  0  0  0  0  0
  -32.4079  -15.1280   20.5164 C   0  0  0  0  0  0  0  0  0  0  0  0
  -27.2907  -27.9174   19.8281 C   0  0  0  0  0  0  0  0  0  0  0  0
  -28.2884  -14.3651   18.9469 C   0  0  0  0  0  0  0  0  0  0  0  0
  -25.8353  -29.7017   20.2974 C   0  0  0  0  0  0  0  0  0  0  0  0
  -23.6512  -30.6985   21.7181 C   0  0  0  0  0  0  0  0  0  0  0  0
  -24.7096  -30.1611   19.6138 C   0  0  0  0  0  0  0  0  0  0  0  0
  -28.4448  -23.9130   20.5569 C   0  0  0  0  0  0  0  0  0  0  0  0
  -29.0770  -21.8183   20.3389 C   0  0  0  0  0  0  0  0  0  0  0  0
  -32.3455  -14.3187   18.1142 C   0  0  0  0  0  0  0  0  0  0  0  0
  -28.8163  -23.0320   18.1692 C   0  0  0  0  0  0  0  0  0  0  0  0
  -24.8181  -17.3305   21.8841 C   0  0  0  0  0  0  0  0  0  0  0  0
  -22.8722  -14.7384   22.0120 C   0  0  0  0  0  0  0  0  0  0  0  0
  -22.3380  -11.4727   21.1774 C   0  0  0  0  0  0  0  0  0  0  0  0
  -31.5861  -19.3885   24.6916 C   0  0  0  0  0  0  0  0  0  0  0  0
  -22.6243  -20.0350   25.6164 C   0  0  0  0  0  0  0  0  0  0  0  0
  -24.6922  -16.6752   19.4529 C   0  0  0  0  0  0  0  0  0  0  0  0
  -25.2253  -14.3436   21.1919 C   0  0  0  0  0  0  0  0  0  0  0  0
  -31.8889  -13.0505   17.4326 C   0  0  0  0  0  0  0  0  0  0  0  0
  -23.0556  -18.5827   25.4291 C   0  0  0  0  0  0  0  0  0  0  0  0
  -31.8386  -12.0403   18.5632 C   0  0  0  0  0  0  0  0  0  0  0  0
  -28.3838  -20.8398   25.2530 C   0  0  0  0  0  0  0  0  0  0  0  0
  -24.4830  -18.5144   24.8954 C   0  0  0  0  0  0  0  0  0  0  0  0
  -28.1449  -21.6925   24.0057 C   0  0  0  0  0  0  0  0  0  0  0  0
  -29.8510  -20.8571   25.6760 C   0  0  0  0  0  0  0  0  0  0  0  0
  -30.5669  -21.3390   23.3675 C   0  0  0  0  0  0  0  0  0  0  0  0
  -24.5916  -19.1891   23.5227 C   0  0  1  0  0  0  0  0  0  0  0  0
  -24.0708  -16.5495   20.8405 C   0  0  1  0  0  0  0  0  0  0  0  0
  -29.1118  -21.3078   22.8698 C   0  0  2  0  0  0  0  0  0  0  0  0
  -31.4806  -12.8808   19.7838 C   0  0  2  0  0  0  0  0  0  0  0  0
  -20.6736   -9.6153   21.4556 C   0  0  0  0  0  0  0  0  0  0  0  0
  -23.8077  -14.3340   24.8880 C   0  0  0  0  0  0  0  0  0  0  0  0
  -22.8880  -12.0076   24.7864 C   0  0  0  0  0  0  0  0  0  0  0  0
  -21.3613  -13.9630   24.5249 C   0  0  0  0  0  0  0  0  0  0  0  0
  -21.9081  -11.2643   18.2567 C   0  0  0  0  0  0  0  0  0  0  0  0
  -33.3047  -17.9974   23.5643 C   0  0  0  0  0  0  0  0  0  0  0  0
  -29.9633  -13.0012   19.9423 C   0  0  0  0  0  0  0  0  0  1  0  0
  -22.9515  -13.3725   22.6501 C   0  0  1  0  0  0  0  0  0  0  0  0
  -21.1326  -10.7701   20.5790 C   0  0  2  0  0  0  0  0  0  0  0  0
  -22.7715  -13.4280   24.1934 C   0  0  0  0  0  0  0  0  0  0  0  0
  -28.5231  -23.4551   21.8092 N   0  0  0  0  0  0  0  0  0  0  0  0
  -28.9096  -22.1787   21.6436 N   0  0  0  0  0  0  0  0  0  0  0  0
  -32.1076  -14.1681   19.4970 N   0  0  0  0  0  0  0  0  0  0  0  0
  -24.0078  -15.1633   21.3081 N   0  0  0  0  0  0  0  0  0  0  0  0
  -30.7147  -20.4815   24.5539 N   0  0  0  0  0  0  0  0  0  0  0  0
  -29.4633  -20.5716   19.9939 N   0  0  0  0  0  0  0  0  0  0  0  0
  -28.4807  -24.2548   17.5722 N   0  0  0  0  0  0  0  0  0  0  0  0
  -24.0685  -18.3207   22.4899 N   0  0  0  0  0  0  0  0  0  0  0  0
  -21.9671  -12.5433   21.9632 N   0  0  0  0  0  0  0  0  0  0  0  0
  -32.3649  -19.0962   23.5785 N   0  0  0  0  0  0  0  0  0  0  0  0
  -21.4637  -10.2327   19.2290 N   0  3  0  0  0  0  0  0  0  0  0  0
  -32.7996  -15.2660   17.4889 O   0  0  0  0  0  0  0  0  0  0  0  0
  -29.1220  -22.0570   17.4417 O   0  0  0  0  0  0  0  0  0  0  0  0
  -25.9878  -17.0542   22.1231 O   0  0  0  0  0  0  0  0  0  0  0  0
  -21.8380  -15.4008   22.1277 O   0  0  0  0  0  0  0  0  0  0  0  0
  -23.4928  -11.1059   20.9717 O   0  0  0  0  0  0  0  0  0  0  0  0
  -31.6605  -18.7192   25.7276 O   0  0  0  0  0  0  0  0  0  0  0  0
  -26.9200  -29.2058   19.5937 O   0  0  0  0  0  0  0  0  0  0  0  0
  -29.4234  -13.6326   18.7820 O   0  0  0  0  0  0  0  0  0  1  0  0
  -22.6019  -31.1757   22.4004 F   0  0  0  0  0  0  0  0  0  0  0  0
  -24.6710  -30.1250   18.2748 F   0  0  0  0  0  0  0  0  0  0  0  0
  1  2  1  0  0  0  0
  1  5  2  0  0  0  0
  2  6  2  0  0  0  0
  3 12  2  0  0  0  0
  3 19  1  0  0  0  0
  4 13  1  0  0  0  0
  4 19  2  0  0  0  0
  5 21  1  0  0  0  0
  6 23  1  0  0  0  0
  7 14  2  0  0  0  0
  7 22  1  0  0  0  0
  8 10  2  0  0  0  0
  8 25  1  0  0  0  0
  9 11  1  0  0  0  0
  9 25  2  0  0  0  0
 10 26  1  0  0  0  0
 11 26  2  0  0  0  0
 12 27  1  0  0  0  0
 13 27  2  0  0  0  0
 14 28  1  0  0  0  0
 15 16  2  0  0  0  0
 15 29  1  0  0  0  0
 16 30  1  0  0  0  0
 17 24  1  0  0  0  0
 17 28  2  0  0  0  0
 18 30  2  0  0  0  0
 18 31  1  0  0  0  0
 19 32  1  0  0  0  0
 20 32  1  0  0  0  0
 20 33  2  0  0  0  0
 20 35  1  0  0  0  0
 21 23  2  0  0  0  0
 21 40  1  0  0  0  0
 22 24  2  0  0  0  0
 22 41  1  0  0  0  0
 23 51  1  0  0  0  0
 24 42  1  0  0  0  0
 25 60  1  0  0  0  0
 26 67  1  0  0  0  0
 27 82  1  0  0  0  0
 28 83  1  0  0  0  0
 29 31  2  0  0  0  0
 29 82  1  0  0  0  0
 30 84  1  0  0  0  0
 31 85  1  0  0  0  0
 32 65  2  0  0  0  0
 33 66  1  0  0  0  0
 33 70  1  0  0  0  0
 34 43  1  0  0  0  0
 34 67  1  0  0  0  0
 34 76  2  0  0  0  0
 35 71  1  0  0  0  0
 35 77  2  0  0  0  0
 36 52  1  0  0  0  0
 36 72  1  0  0  0  0
 36 78  2  0  0  0  0
 37 62  1  0  0  0  0
 37 68  1  0  0  0  0
 37 79  2  0  0  0  0
 38 63  1  0  0  0  0
 38 73  1  0  0  0  0
 38 80  2  0  0  0  0
 39 69  1  0  0  0  0
 39 74  1  0  0  0  0
 39 81  2  0  0  0  0
 40 44  1  0  0  0  0
 41 52  1  0  0  0  0
 42 68  1  0  0  0  0
 43 45  1  0  0  0  0
 44 47  1  0  0  0  0
 45 54  1  0  0  0  0
 46 48  1  0  0  0  0
 46 49  1  0  0  0  0
 47 51  1  0  0  0  0
 48 53  1  0  0  0  0
 49 69  1  0  0  0  0
 50 53  1  0  0  0  0
 50 69  1  0  0  0  0
 51 72  1  0  0  0  0
 52 68  1  0  0  0  0
 53 66  1  0  0  0  0
 54 61  1  0  0  0  0
 54 67  1  0  0  0  0
 55 63  1  0  0  0  0
 56 64  1  0  0  0  0
 57 64  1  0  0  0  0
 58 64  1  0  0  0  0
 59 75  1  0  0  0  0
 60 74  1  0  0  0  0
 61 83  1  0  0  0  0
 62 64  1  0  0  0  0
 62 73  1  0  0  0  0
 63 75  1  0  0  0  0
 65 66  1  0  0  0  0
M  CHG  1  75   1
M  ISO  4  39 100  61 101  74 100  83 101
M  END
> <Batch ID>
0104

> <Smiles>
CNC(C)C(=O)NC(C(=O)N1Cc2cc([101O:1][101CH2:1]C3CCC(=O)N3c3ccc(C[100NH:0][100C:0](=O)N4CCCC(n5nc(-c6ccc(Oc7ccc(F)cc7F)cc6)c(C(N)=O)c5N)C4)cc3)ccc2CC1C(=O)NC1CCCc2ccccc21)C(C)(C)C

> <Shape>
0.203

> <Color>
0.056

> <Negative vol penalty>
0.000

$$$$

  -OEChem-04052301083D

 89 97  0     1  0  0  0  0  0999 V2000
  -25.9286  -38.2055   23.0807 C   0  0  0  0  0  0  0  0  0  0  0  0
  -26.5202  -36.9634   23.2869 C   0  0  0  0  0  0  0  0  0  0  0  0
  -23.9172   -9.8717   22.2280 C   0  0  0  0  0  0  0  0  0  0  0  0
  -22.8859   -9.9867   20.0462 C   0  0  0  0  0  0  0  0  0  0  0  0
  -24.5397  -38.3258   23.0949 C   0  0  0  0  0  0  0  0  0  0  0  0
  -25.7231  -35.8410   23.5087 C   0  0  0  0  0  0  0  0  0  0  0  0
  -27.2523  -31.8151   20.8442 C   0  0  0  0  0  0  0  0  0  0  0  0
  -22.9893   -8.9052   22.6157 C   0  0  0  0  0  0  0  0  0  0  0  0
  -21.9580   -9.0201   20.4339 C   0  0  0  0  0  0  0  0  0  0  0  0
  -28.3583  -31.1159   21.3254 C   0  0  0  0  0  0  0  0  0  0  0  0
  -22.5145   -5.5873   22.1692 C   0  0  0  0  0  0  0  0  0  0  0  0
  -22.9914   -4.4673   22.8502 C   0  0  0  0  0  0  0  0  0  0  0  0
  -29.9840  -21.6043   20.7447 C   0  0  0  0  0  0  0  0  0  0  0  0
  -28.1892  -21.7890   22.3514 C   0  0  0  0  0  0  0  0  0  0  0  0
  -26.8876  -29.4604   22.2824 C   0  0  0  0  0  0  0  0  0  0  0  0
  -21.5937   -5.0220   24.7413 C   0  0  0  0  0  0  0  0  0  0  0  0
  -23.8654  -10.4126   20.9433 C   0  0  0  0  0  0  0  0  0  0  0  0
  -29.0062  -21.0040   21.5378 C   0  0  0  0  0  0  0  0  0  0  0  0
  -30.1449  -22.9898   20.7652 C   0  0  0  0  0  0  0  0  0  0  0  0
  -26.0762  -11.1940   19.9384 C   0  0  0  0  0  0  0  0  0  0  0  0
  -23.7249  -37.2026   23.3074 C   0  0  0  0  0  0  0  0  0  0  0  0
  -25.9530  -31.3473   21.0883 C   0  0  0  0  0  0  0  0  0  0  0  0
  -24.3220  -35.9466   23.5272 C   0  0  0  0  0  0  0  0  0  0  0  0
  -25.7669  -30.1542   21.8011 C   0  0  0  0  0  0  0  0  0  0  0  0
  -22.0097   -8.4793   21.7187 C   0  0  0  0  0  0  0  0  0  0  0  0
  -28.1760  -29.9398   22.0471 C   0  0  0  0  0  0  0  0  0  0  0  0
  -21.5773   -6.4248   22.7743 C   0  0  0  0  0  0  0  0  0  0  0  0
  -28.3500  -23.1744   22.3718 C   0  0  0  0  0  0  0  0  0  0  0  0
  -29.3279  -23.7748   21.5787 C   0  0  0  0  0  0  0  0  0  0  0  0
  -22.5310   -4.1846   24.1362 C   0  0  0  0  0  0  0  0  0  0  0  0
  -21.1169   -6.1421   24.0603 C   0  0  0  0  0  0  0  0  0  0  0  0
  -24.8233  -11.4115   20.5424 C   0  0  0  0  0  0  0  0  0  0  0  0
  -26.5942  -12.4533   19.7590 C   0  0  0  0  0  0  0  0  0  0  0  0
  -28.8389  -19.5593   21.5172 C   0  0  0  0  0  0  0  0  0  0  0  0
  -27.7330  -18.8932   21.9122 C   0  0  0  0  0  0  0  0  0  0  0  0
  -31.1715  -23.5961   19.9284 C   0  0  0  0  0  0  0  0  0  0  0  0
  -26.7147   -9.9635   19.5723 C   0  0  0  0  0  0  0  0  0  0  0  0
  -27.7130  -17.4194   21.8209 C   0  0  0  0  0  0  0  0  0  0  0  0
  -23.4140  -32.4792   22.6297 C   0  0  0  0  0  0  0  0  0  0  0  0
  -21.9764  -29.8471   21.3937 C   0  0  0  0  0  0  0  0  0  0  0  0
  -22.2973  -26.6851   20.1504 C   0  0  0  0  0  0  0  0  0  0  0  0
  -22.2294  -37.3903   23.3611 C   0  0  0  0  0  0  0  0  0  0  0  0
  -24.7715  -32.0990   20.5395 C   0  0  0  0  0  0  0  0  0  0  0  0
  -24.3936  -29.5988   22.0727 C   0  0  0  0  0  0  0  0  0  0  0  0
  -21.4467  -36.0862   23.2302 C   0  0  0  0  0  0  0  0  0  0  0  0
  -24.4562  -16.9999   20.1932 C   0  0  0  0  0  0  0  0  0  0  0  0
  -22.0410  -35.0136   24.1375 C   0  0  0  0  0  0  0  0  0  0  0  0
  -24.3504  -15.4783   20.1361 C   0  0  0  0  0  0  0  0  0  0  0  0
  -25.1884  -17.4754   21.4471 C   0  0  0  0  0  0  0  0  0  0  0  0
  -26.4272  -15.3326   21.5663 C   0  0  0  0  0  0  0  0  0  0  0  0
  -23.4905  -34.7013   23.7464 C   0  0  1  0  0  0  0  0  0  0  0  0
  -23.4755  -31.8044   21.2886 C   0  0  1  0  0  0  0  0  0  0  0  0
  -25.7354  -14.8301   20.2895 C   0  0  1  0  0  0  0  0  0  0  0  0
  -32.3979  -22.7819   19.6400 C   0  0  0  0  0  0  0  0  0  0  0  0
  -25.7493  -25.5564   24.7467 C   0  0  0  0  0  0  0  0  0  0  0  0
  -20.9402  -24.7722   19.2579 C   0  0  0  0  0  0  0  0  0  0  0  0
  -21.1075  -29.1422   24.2324 C   0  0  0  0  0  0  0  0  0  0  0  0
  -20.6136  -26.8224   23.4306 C   0  0  0  0  0  0  0  0  0  0  0  0
  -19.3623  -28.7609   22.4822 C   0  0  0  0  0  0  0  0  0  0  0  0
  -23.6536  -26.7974   17.5223 C   0  0  0  0  0  0  0  0  0  0  0  0
  -25.5134  -25.1965   23.2909 C   0  0  0  0  0  0  0  0  0  0  0  0
  -30.4701  -27.1741   22.4221 C   0  0  0  0  0  0  0  0  0  0  0  0
  -26.1420  -23.8594   22.9295 C   0  0  0  0  0  0  0  0  0  0  0  0
  -29.1210  -27.8403   22.6426 C   0  0  0  0  0  0  0  0  0  1  0  0
  -30.3878  -25.6623   22.5635 C   0  0  0  0  0  0  0  0  0  0  0  0
  -21.7859  -28.4201   21.8482 C   0  0  1  0  0  0  0  0  0  0  0  0
  -21.7232  -26.0281   18.9081 C   0  0  2  0  0  0  0  0  0  0  0  0
  -20.7433  -28.2977   22.9951 C   0  0  0  0  0  0  0  0  0  0  0  0
  -24.5613  -12.7071   20.7340 N   0  0  0  0  0  0  0  0  0  0  0  0
  -25.6567  -13.3150   20.2477 N   0  0  0  0  0  0  0  0  0  0  0  0
  -26.4845  -16.7982   21.6030 N   0  0  0  0  0  0  0  0  0  0  0  0
  -23.2697  -30.3733   21.5208 N   0  0  0  0  0  0  0  0  0  0  0  0
  -27.7556  -12.8965   19.2326 N   0  0  0  0  0  0  0  0  0  0  0  0
  -26.0426   -8.7603   19.8274 N   0  0  0  0  0  0  0  0  0  0  0  0
  -23.5262  -33.8553   22.5728 N   0  0  0  0  0  0  0  0  0  0  0  0
  -21.4529  -27.6522   20.6533 N   0  0  0  0  0  0  0  0  0  0  0  0
  -22.8170  -25.6534   17.9678 N   0  3  0  0  0  0  0  0  0  0  0  0
  -31.1088  -24.7271   19.4452 O   0  0  0  0  0  0  0  0  0  0  0  0
  -27.8546   -9.9311   19.0498 O   0  0  0  0  0  0  0  0  0  0  0  0
  -28.7862  -16.8272   21.9482 O   0  0  0  0  0  0  0  0  0  0  0  0
  -23.2736  -31.8016   23.6411 O   0  0  0  0  0  0  0  0  0  0  0  0
  -21.0148  -30.4694   20.9359 O   0  0  0  0  0  0  0  0  0  0  0  0
  -23.3843  -26.3692   20.6291 O   0  0  0  0  0  0  0  0  0  0  0  0
  -21.1043   -7.5359   22.0966 O   0  0  0  0  0  0  0  0  0  0  0  0
  -29.2538  -29.2557   22.5184 O   0  0  0  0  0  0  0  0  0  1  0  0
  -27.5458  -23.9296   23.1712 O   0  0  0  0  0  0  0  0  0  0  0  0
  -29.4803  -25.1367   21.6043 O   0  0  0  0  0  0  0  0  0  0  0  0
  -22.9878   -3.1081   24.7894 F   0  0  0  0  0  0  0  0  0  0  0  0
  -20.2157   -6.9423   24.6462 F   0  0  0  0  0  0  0  0  0  0  0  0
  1  2  1  0  0  0  0
  1  5  2  0  0  0  0
  2  6  2  0  0  0  0
  3  8  2  0  0  0  0
  3 17  1  0  0  0  0
  4  9  1  0  0  0  0
  4 17  2  0  0  0  0
  5 21  1  0  0  0  0
  6 23  1  0  0  0  0
  7 10  2  0  0  0  0
  7 22  1  0  0  0  0
  8 25  1  0  0  0  0
  9 25  2  0  0  0  0
 10 26  1  0  0  0  0
 11 12  2  0  0  0  0
 11 27  1  0  0  0  0
 12 30  1  0  0  0  0
 13 18  1  0  0  0  0
 13 19  2  0  0  0  0
 14 18  2  0  0  0  0
 14 28  1  0  0  0  0
 15 24  1  0  0  0  0
 15 26  2  0  0  0  0
 16 30  2  0  0  0  0
 16 31  1  0  0  0  0
 17 32  1  0  0  0  0
 18 34  1  0  0  0  0
 19 29  1  0  0  0  0
 19 36  1  0  0  0  0
 20 32  1  0  0  0  0
 20 33  2  0  0  0  0
 20 37  1  0  0  0  0
 21 23  2  0  0  0  0
 21 42  1  0  0  0  0
 22 24  2  0  0  0  0
 22 43  1  0  0  0  0
 23 51  1  0  0  0  0
 24 44  1  0  0  0  0
 25 84  1  0  0  0  0
 26 85  1  0  0  0  0
 27 31  2  0  0  0  0
 27 84  1  0  0  0  0
 28 29  2  0  0  0  0
 28 86  1  0  0  0  0
 29 87  1  0  0  0  0
 30 88  1  0  0  0  0
 31 89  1  0  0  0  0
 32 69  2  0  0  0  0
 33 70  1  0  0  0  0
 33 73  1  0  0  0  0
 34 35  2  0  0  0  0
 35 38  1  0  0  0  0
 36 54  1  0  0  0  0
 36 78  2  0  0  0  0
 37 74  1  0  0  0  0
 37 79  2  0  0  0  0
 38 71  1  0  0  0  0
 38 80  2  0  0  0  0
 39 52  1  0  0  0  0
 39 75  1  0  0  0  0
 39 81  2  0  0  0  0
 40 66  1  0  0  0  0
 40 72  1  0  0  0  0
 40 82  2  0  0  0  0
 41 67  1  0  0  0  0
 41 76  1  0  0  0  0
 41 83  2  0  0  0  0
 42 45  1  0  0  0  0
 43 52  1  0  0  0  0
 44 72  1  0  0  0  0
 45 47  1  0  0  0  0
 46 48  1  0  0  0  0
 46 49  1  0  0  0  0
 47 51  1  0  0  0  0
 48 53  1  0  0  0  0
 49 71  1  0  0  0  0
 50 53  1  0  0  0  0
 50 71  1  0  0  0  0
 51 75  1  0  0  0  0
 52 72  1  0  0  0  0
 53 70  1  0  0  0  0
 55 61  1  0  0  0  0
 56 67  1  0  0  0  0
 57 68  1  0  0  0  0
 58 68  1  0  0  0  0
 59 68  1  0  0  0  0
 60 77  1  0  0  0  0
 61 63  1  0  0  0  0
 62 64  1  0  0  0  0
 62 65  1  0  0  0  0
 63 86  1  0  0  0  0
 64 85  1  0  0  0  0
 65 87  1  0  0  0  0
 66 68  1  0  0  0  0
 66 76  1  0  0  0  0
 67 77  1  0  0  0  0
 69 70  1  0  0  0  0
M  CHG  1  77   1
M  ISO  4  35 100  38 100  64 101  85 101
M  END
> <Batch ID>
0104

> <Smiles>
CCCOc1cc(C=[100CH:0][100C:0](=O)N2CCCC(n3nc(-c4ccc(Oc5ccc(F)cc5F)cc4)c(C(N)=O)c3N)C2)cc(C(C)=O)c1OCC[101CH2:1][101O:1]c1ccc2c(c1)CN(C(=O)C(NC(=O)C(C)NC)C(C)(C)C)C(C(=O)NC1CCCc3ccccc31)C2

> <Shape>
0.312

> <Color>
0.089

> <Negative vol penalty>
0.000

$$$$

  -OEChem-04052301083D

 92101  0     1  0  0  0  0  0999 V2000
  -26.5302  -35.2373   25.5844 C   0  0  0  0  0  0  0  0  0  0  0  0
  -25.7532  -34.3062   26.2661 C   0  0  0  0  0  0  0  0  0  0  0  0
  -23.0568   -9.5679   20.8899 C   0  0  0  0  0  0  0  0  0  0  0  0
  -23.9516  -10.8409   22.7381 C   0  0  0  0  0  0  0  0  0  0  0  0
  -26.6347  -35.1731   24.1955 C   0  0  0  0  0  0  0  0  0  0  0  0
  -25.0792  -33.3110   25.5591 C   0  0  0  0  0  0  0  0  0  0  0  0
  -25.3909  -25.5435   26.3312 C   0  0  0  0  0  0  0  0  0  0  0  0
  -22.3748   -8.7454   21.7866 C   0  0  0  0  0  0  0  0  0  0  0  0
  -23.2696  -10.0184   23.6348 C   0  0  0  0  0  0  0  0  0  0  0  0
  -25.4801  -24.1528   26.2667 C   0  0  0  0  0  0  0  0  0  0  0  0
  -23.0927   -6.1404   23.8170 C   0  0  0  0  0  0  0  0  0  0  0  0
  -23.1434   -4.7635   23.5997 C   0  0  0  0  0  0  0  0  0  0  0  0
  -24.8467  -24.2097   23.9336 C   0  0  0  0  0  0  0  0  0  0  0  0
  -28.2566  -17.0840   25.2269 C   0  0  0  0  0  0  0  0  0  0  0  0
  -29.0045  -18.0915   22.7353 C   0  0  0  0  0  0  0  0  0  0  0  0
  -20.7375   -4.7085   23.3862 C   0  0  0  0  0  0  0  0  0  0  0  0
  -23.8453  -10.6156   21.3657 C   0  0  0  0  0  0  0  0  0  0  0  0
  -23.9916  -12.2660   19.4260 C   0  0  0  0  0  0  0  0  0  0  0  0
  -25.9695  -34.1708   23.4720 C   0  0  0  0  0  0  0  0  0  0  0  0
  -25.0438  -26.2746   25.1918 C   0  0  0  0  0  0  0  0  0  0  0  0
  -25.1739  -33.2342   24.1591 C   0  0  0  0  0  0  0  0  0  0  0  0
  -24.7679  -25.6038   23.9889 C   0  0  0  0  0  0  0  0  0  0  0  0
  -29.1568  -16.3766   24.4302 C   0  0  0  0  0  0  0  0  0  0  0  0
  -27.7302  -18.2952   24.7777 C   0  0  0  0  0  0  0  0  0  0  0  0
  -29.5308  -16.8803   23.1844 C   0  0  0  0  0  0  0  0  0  0  0  0
  -22.4812   -8.9707   23.1590 C   0  0  0  0  0  0  0  0  0  0  0  0
  -25.2084  -23.4876   25.0709 C   0  0  0  0  0  0  0  0  0  0  0  0
  -21.8643   -6.8013   23.8191 C   0  0  0  0  0  0  0  0  0  0  0  0
  -28.1042  -18.7990   23.5319 C   0  0  0  0  0  0  0  0  0  0  0  0
  -21.9658   -4.0476   23.3842 C   0  0  0  0  0  0  0  0  0  0  0  0
  -20.6867   -6.0854   23.6036 C   0  0  0  0  0  0  0  0  0  0  0  0
  -24.5505  -11.4652   20.4400 C   0  0  0  0  0  0  0  0  0  0  0  0
  -25.0718  -12.8721   18.8325 C   0  0  0  0  0  0  0  0  0  0  0  0
  -22.6187  -12.4458   19.0538 C   0  0  0  0  0  0  0  0  0  0  0  0
  -24.4284  -29.6483   23.6702 C   0  0  0  0  0  0  0  0  0  0  0  0
  -25.9570  -27.9962   21.5859 C   0  0  0  0  0  0  0  0  0  0  0  0
  -28.0065  -25.9911   19.7375 C   0  0  0  0  0  0  0  0  0  0  0  0
  -30.5789  -14.1970   20.7735 C   0  0  0  0  0  0  0  0  0  0  0  0
  -26.0745  -34.1704   21.9675 C   0  0  0  0  0  0  0  0  0  0  0  0
  -24.8756  -27.7693   25.2309 C   0  0  0  0  0  0  0  0  0  0  0  0
  -24.3646  -26.4289   22.7975 C   0  0  0  0  0  0  0  0  0  0  0  0
  -25.6303  -32.8583   21.3263 C   0  0  0  0  0  0  0  0  0  0  0  0
  -22.5414  -18.9132   24.6005 C   0  0  0  0  0  0  0  0  0  0  0  0
  -29.7262  -12.1999   17.9520 C   0  0  0  0  0  0  0  0  0  0  0  0
  -23.5562  -18.1176   23.7945 C   0  0  0  0  0  0  0  0  0  0  0  0
  -24.3077  -32.3917   21.9262 C   0  0  0  0  0  0  0  0  0  0  0  0
  -28.2526  -11.8574   18.1782 C   0  0  0  0  0  0  0  0  0  0  0  0
  -23.1337  -20.2361   25.0667 C   0  0  0  0  0  0  0  0  0  0  0  0
  -30.5057  -12.2337   19.2647 C   0  0  0  0  0  0  0  0  0  0  0  0
  -28.4589  -12.7680   20.5292 C   0  0  0  0  0  0  0  0  0  0  0  0
  -24.8436  -17.9089   24.5736 C   0  0  0  0  0  0  0  0  0  0  0  0
  -24.4476  -32.1248   23.4298 C   0  0  1  0  0  0  0  0  0  0  0  0
  -25.3079  -28.4596   23.9248 C   0  0  1  0  0  0  0  0  0  0  0  0
  -27.6198  -12.7769   19.2399 C   0  0  2  0  0  0  0  0  0  0  0  0
  -24.4374  -20.0474   25.8527 C   0  0  2  0  0  0  0  0  0  0  0  0
  -30.7965  -15.2818   25.9792 C   0  0  0  0  0  0  0  0  0  0  0  0
  -26.0839  -21.2597   19.8894 C   0  0  0  0  0  0  0  0  0  0  0  0
  -29.2453  -25.9167   17.5564 C   0  0  0  0  0  0  0  0  0  0  0  0
  -23.3364  -27.4606   20.1199 C   0  0  0  0  0  0  0  0  0  0  0  0
  -24.6699  -26.4815   18.2407 C   0  0  0  0  0  0  0  0  0  0  0  0
  -24.9656  -28.8797   18.8604 C   0  0  0  0  0  0  0  0  0  0  0  0
  -30.6223  -25.7393   21.0988 C   0  0  0  0  0  0  0  0  0  0  0  0
  -29.7063  -15.0812   24.9309 C   0  0  0  0  0  0  0  0  0  0  0  0
  -30.4930  -16.1411   22.3137 C   0  0  0  0  0  0  0  0  0  0  0  0
  -26.7639  -19.0432   25.6482 C   0  0  0  0  0  0  0  0  0  0  0  0
  -25.0253  -21.4099   26.2142 C   0  0  0  0  0  0  0  0  0  1  0  0
  -26.3019  -21.0685   21.3796 C   0  0  0  0  0  0  0  0  0  0  0  0
  -27.4597  -20.1245   21.6656 C   0  0  0  0  0  0  0  0  0  0  0  0
  -25.8764  -27.0833   20.3886 C   0  0  1  0  0  0  0  0  0  0  0  0
  -29.3220  -26.2706   19.0335 C   0  0  2  0  0  0  0  0  0  0  0  0
  -24.7146  -27.4660   19.4288 C   0  0  0  0  0  0  0  0  0  0  0  0
  -25.8823  -11.5525   20.4907 N   0  0  0  0  0  0  0  0  0  0  0  0
  -26.1694  -12.4151   19.5009 N   0  0  0  0  0  0  0  0  0  0  0  0
  -25.2073  -27.6317   22.7108 N   0  0  0  0  0  0  0  0  0  0  0  0
  -29.8541  -13.1248   20.2276 N   0  0  0  0  0  0  0  0  0  0  0  0
  -25.1804  -13.7460   17.8094 N   0  0  0  0  0  0  0  0  0  0  0  0
  -21.6358  -11.7473   19.7681 N   0  0  0  0  0  0  0  0  0  0  0  0
  -25.1024  -30.8546   23.6588 N   0  0  0  0  0  0  0  0  0  0  0  0
  -27.1964  -27.1065   19.7679 N   0  0  0  0  0  0  0  0  0  0  0  0
  -29.8845  -14.9965   21.6732 N   0  0  0  0  0  0  0  0  0  0  0  0
  -25.4170  -19.2472   24.9973 N   0  3  1  0  0  0  0  0  0  0  0  0
  -30.4196  -25.4740   19.6512 N   0  3  0  0  0  0  0  0  0  0  0  0
  -22.2751  -13.1909   18.1049 O   0  0  0  0  0  0  0  0  0  0  0  0
  -23.2267  -29.4844   23.4952 O   0  0  0  0  0  0  0  0  0  0  0  0
  -26.6604  -29.0086   21.5261 O   0  0  0  0  0  0  0  0  0  0  0  0
  -27.7241  -24.8921   20.2098 O   0  0  0  0  0  0  0  0  0  0  0  0
  -31.7560  -14.4281   20.4768 O   0  0  0  0  0  0  0  0  0  0  0  0
  -21.8156   -8.1684   24.0342 O   0  0  0  0  0  0  0  0  0  0  0  0
  -25.3018  -22.1301   25.0137 O   0  0  0  0  0  0  0  0  0  1  0  0
  -27.5985  -19.9797   23.0776 O   0  0  0  0  0  0  0  0  0  0  0  0
  -22.0149   -2.7256   23.1740 F   0  0  0  0  0  0  0  0  0  0  0  0
  -19.5038   -6.7151   23.6032 F   0  0  0  0  0  0  0  0  0  0  0  0
  1  2  1  0  0  0  0
  1  5  2  0  0  0  0
  2  6  2  0  0  0  0
  3  8  2  0  0  0  0
  3 17  1  0  0  0  0
  4  9  1  0  0  0  0
  4 17  2  0  0  0  0
  5 19  1  0  0  0  0
  6 21  1  0  0  0  0
  7 10  2  0  0  0  0
  7 20  1  0  0  0  0
  8 26  1  0  0  0  0
  9 26  2  0  0  0  0
 10 27  1  0  0  0  0
 11 12  2  0  0  0  0
 11 28  1  0  0  0  0
 12 30  1  0  0  0  0
 13 22  1  0  0  0  0
 13 27  2  0  0  0  0
 14 23  2  0  0  0  0
 14 24  1  0  0  0  0
 15 25  2  0  0  0  0
 15 29  1  0  0  0  0
 16 30  2  0  0  0  0
 16 31  1  0  0  0  0
 17 32  1  0  0  0  0
 18 32  1  0  0  0  0
 18 33  2  0  0  0  0
 18 34  1  0  0  0  0
 19 21  2  0  0  0  0
 19 39  1  0  0  0  0
 20 22  2  0  0  0  0
 20 40  1  0  0  0  0
 21 52  1  0  0  0  0
 22 41  1  0  0  0  0
 23 25  1  0  0  0  0
 23 63  1  0  0  0  0
 24 29  2  0  0  0  0
 24 65  1  0  0  0  0
 25 64  1  0  0  0  0
 26 88  1  0  0  0  0
 27 89  1  0  0  0  0
 28 31  2  0  0  0  0
 28 88  1  0  0  0  0
 29 90  1  0  0  0  0
 30 91  1  0  0  0  0
 31 92  1  0  0  0  0
 32 72  2  0  0  0  0
 33 73  1  0  0  0  0
 33 76  1  0  0  0  0
 34 77  1  0  0  0  0
 34 83  2  0  0  0  0
 35 53  1  0  0  0  0
 35 78  1  0  0  0  0
 35 84  2  0  0  0  0
 36 69  1  0  0  0  0
 36 74  1  0  0  0  0
 36 85  2  0  0  0  0
 37 70  1  0  0  0  0
 37 79  1  0  0  0  0
 37 86  2  0  0  0  0
 38 75  1  0  0  0  0
 38 80  1  0  0  0  0
 38 87  2  0  0  0  0
 39 42  1  0  0  0  0
 40 53  1  0  0  0  0
 41 74  1  0  0  0  0
 42 46  1  0  0  0  0
 43 45  1  0  0  0  0
 43 48  1  0  0  0  0
 44 47  1  0  0  0  0
 44 49  1  0  0  0  0
 45 51  1  0  0  0  0
 46 52  1  0  0  0  0
 47 54  1  0  0  0  0
 48 55  1  0  0  0  0
 49 75  1  0  0  0  0
 50 54  1  0  0  0  0
 50 75  1  0  0  0  0
 51 81  1  0  0  0  0
 52 78  1  0  0  0  0
 53 74  1  0  0  0  0
 54 73  1  0  0  0  0
 55 66  1  0  0  0  0
 55 81  1  0  0  0  0
 56 63  1  0  0  0  0
 57 67  1  0  0  0  0
 58 70  1  0  0  0  0
 59 71  1  0  0  0  0
 60 71  1  0  0  0  0
 61 71  1  0  0  0  0
 62 82  1  0  0  0  0
 64 80  1  0  0  0  0
 65 81  1  0  0  0  0
 66 89  1  0  0  0  0
 67 68  1  0  0  0  0
 68 90  1  0  0  0  0
 69 71  1  0  0  0  0
 69 79  1  0  0  0  0
 70 82  1  0  0  0  0
 72 73  1  0  0  0  0
M  CHG  2  81   1  82   1
M  ISO  4  38 100  66 101  80 100  89 101
M  END
> <Batch ID>
0104

> <Smiles>
CCCOc1cc(C[100NH:0][100C:0](=O)N2CCCC(n3nc(-c4ccc(Oc5ccc(F)cc5F)cc4)c(C(N)=O)c3N)C2)c(CC)cc1CN1CCCCC1[101CH2:1][101O:1]c1ccc2c(c1)CN(C(=O)C(NC(=O)C(C)NC)C(C)(C)C)C(C(=O)NC1CCCc3ccccc31)C2

> <Shape>
0.261

> <Color>
0.083

> <Negative vol penalty>
0.000

$$$$

  -OEChem-04052301083D

 88 97  0     1  0  0  0  0  0999 V2000
  -29.3381  -24.3798   18.0191 C   0  0  0  0  0  0  0  0  0  0  0  0
  -28.1491  -24.4964   18.7320 C   0  0  0  0  0  0  0  0  0  0  0  0
  -24.4492  -11.7648   19.9329 C   0  0  0  0  0  0  0  0  0  0  0  0
  -24.9506  -13.6625   21.3417 C   0  0  0  0  0  0  0  0  0  0  0  0
  -30.4441  -25.1482   18.3797 C   0  0  0  0  0  0  0  0  0  0  0  0
  -28.0659  -25.3810   19.8068 C   0  0  0  0  0  0  0  0  0  0  0  0
  -23.7974  -28.1054   19.7546 C   0  0  0  0  0  0  0  0  0  0  0  0
  -25.8110  -11.5841   19.6917 C   0  0  0  0  0  0  0  0  0  0  0  0
  -26.3125  -13.4817   21.1005 C   0  0  0  0  0  0  0  0  0  0  0  0
  -22.6340  -27.4745   20.1930 C   0  0  0  0  0  0  0  0  0  0  0  0
  -28.5170  -14.1642   18.6296 C   0  0  0  0  0  0  0  0  0  0  0  0
  -29.2781  -15.2945   18.3319 C   0  0  0  0  0  0  0  0  0  0  0  0
  -20.6175  -21.6883   25.3440 C   0  0  0  0  0  0  0  0  0  0  0  0
  -20.6592  -19.3182   24.8775 C   0  0  0  0  0  0  0  0  0  0  0  0
  -22.8618  -28.5573   22.3365 C   0  0  0  0  0  0  0  0  0  0  0  0
  -19.6192  -20.8388   23.3145 C   0  0  0  0  0  0  0  0  0  0  0  0
  -30.6607  -14.8737   20.2679 C   0  0  0  0  0  0  0  0  0  0  0  0
  -24.0189  -12.8041   20.7579 C   0  0  0  0  0  0  0  0  0  0  0  0
  -20.9781  -20.3914   25.7095 C   0  0  0  0  0  0  0  0  0  0  0  0
  -21.7237  -12.0735   21.5981 C   0  0  0  0  0  0  0  0  0  0  0  0
  -30.3714  -26.0497   19.4534 C   0  0  0  0  0  0  0  0  0  0  0  0
  -24.5089  -28.9599   20.6089 C   0  0  0  0  0  0  0  0  0  0  0  0
  -29.1724  -26.1612   20.1830 C   0  0  0  0  0  0  0  0  0  0  0  0
  -24.0326  -29.1998   21.9057 C   0  0  0  0  0  0  0  0  0  0  0  0
  -19.9380  -21.9120   24.1465 C   0  0  0  0  0  0  0  0  0  0  0  0
  -19.9798  -19.5419   23.6800 C   0  0  0  0  0  0  0  0  0  0  0  0
  -26.7427  -12.4424   20.2754 C   0  0  0  0  0  0  0  0  0  0  0  0
  -22.1676  -27.6981   21.4851 C   0  0  0  0  0  0  0  0  0  0  0  0
  -28.8277  -13.3886   19.7466 C   0  0  0  0  0  0  0  0  0  0  0  0
  -30.3499  -15.6493   19.1510 C   0  0  0  0  0  0  0  0  0  0  0  0
  -29.8996  -13.7433   20.5657 C   0  0  0  0  0  0  0  0  0  0  0  0
  -22.6122  -12.9917   21.0070 C   0  0  0  0  0  0  0  0  0  0  0  0
  -20.5140  -12.7239   21.6079 C   0  0  0  0  0  0  0  0  0  0  0  0
  -20.0674  -25.5875   23.5241 C   0  0  0  0  0  0  0  0  0  0  0  0
  -20.4705  -24.2945   23.5725 C   0  0  0  0  0  0  0  0  0  0  0  0
  -18.6123  -25.8837   23.7474 C   0  0  0  0  0  0  0  0  0  0  0  0
  -21.5225  -20.8972   28.0468 C   0  0  0  0  0  0  0  0  0  0  0  0
  -21.6865  -20.1581   26.9582 C   0  0  0  0  0  0  0  0  0  0  0  0
  -21.9699  -10.7510   22.0942 C   0  0  0  0  0  0  0  0  0  0  0  0
  -27.4338  -28.9612   21.8535 C   0  0  0  0  0  0  0  0  0  0  0  0
  -26.5500  -31.8886   22.9358 C   0  0  0  0  0  0  0  0  0  0  0  0
  -24.0265  -34.0197   23.7942 C   0  0  0  0  0  0  0  0  0  0  0  0
  -18.9850  -18.5004   21.6131 C   0  0  0  0  0  0  0  0  0  0  0  0
  -31.6076  -26.8245   19.8357 C   0  0  0  0  0  0  0  0  0  0  0  0
  -25.7475  -29.6537   20.1119 C   0  0  0  0  0  0  0  0  0  0  0  0
  -24.7486  -30.1241   22.8552 C   0  0  0  0  0  0  0  0  0  0  0  0
  -17.6995  -24.7506   24.1499 C   0  0  0  0  0  0  0  0  0  0  0  0
  -31.3232  -28.0121   20.7516 C   0  0  0  0  0  0  0  0  0  0  0  0
  -18.0297  -16.0469   19.2162 C   0  0  0  0  0  0  0  0  0  0  0  0
  -30.3884  -27.6005   21.8846 C   0  0  0  0  0  0  0  0  0  0  0  0
  -19.0116  -14.8990   19.4613 C   0  0  0  0  0  0  0  0  0  0  0  0
  -18.1368  -23.4309   23.5387 C   0  0  0  0  0  0  0  0  0  0  0  0
  -18.6940  -17.4104   19.3990 C   0  0  0  0  0  0  0  0  0  0  0  0
  -20.3723  -16.4472   20.9237 C   0  0  0  0  0  0  0  0  0  0  0  0
  -29.0354  -27.1277   21.3393 C   0  0  1  0  0  0  0  0  0  0  0  0
  -26.6739  -30.1020   21.2381 C   0  0  1  0  0  0  0  0  0  0  0  0
  -19.7326  -15.0534   20.8148 C   0  0  2  0  0  0  0  0  0  0  0  0
  -21.9185  -23.9430   23.2907 C   0  0  0  0  0  0  0  0  0  0  0  0
  -23.6160  -36.3315   24.6799 C   0  0  0  0  0  0  0  0  0  0  0  0
  -27.3383  -30.9547   25.7316 C   0  0  0  0  0  0  0  0  0  0  0  0
  -26.0489  -32.8873   26.6649 C   0  0  0  0  0  0  0  0  0  0  0  0
  -28.0147  -33.2997   25.1857 C   0  0  0  0  0  0  0  0  0  0  0  0
  -22.5431  -34.8146   21.3597 C   0  0  0  0  0  0  0  0  0  0  0  0
  -20.9410  -26.7911   23.3096 C   0  0  0  0  0  0  0  0  0  1  0  0
  -25.8727  -32.4084   24.1808 C   0  0  1  0  0  0  0  0  0  0  0  0
  -23.7683  -35.4718   23.4348 C   0  0  2  0  0  0  0  0  0  0  0  0
  -26.8060  -32.3685   25.4238 C   0  0  0  0  0  0  0  0  0  0  0  0
  -22.0176  -14.1380   20.6658 N   0  0  0  0  0  0  0  0  0  0  0  0
  -20.7425  -13.9444   21.0436 N   0  0  0  0  0  0  0  0  0  0  0  0
  -19.5711  -23.2312   23.7747 N   0  0  0  0  0  0  0  0  0  0  0  0
  -25.9584  -30.7739   22.3248 N   0  0  0  0  0  0  0  0  0  0  0  0
  -19.3529  -17.4853   20.7048 N   0  0  0  0  0  0  0  0  0  0  0  0
  -19.2878  -12.3652   22.0439 N   0  0  0  0  0  0  0  0  0  0  0  0
  -22.3434  -10.5997   23.4365 N   0  0  0  0  0  0  0  0  0  0  0  0
  -19.6557  -18.4518   22.8347 N   0  0  0  0  0  0  0  0  0  0  0  0
  -28.2201  -28.2612   20.9584 N   0  0  0  0  0  0  0  0  0  0  0  0
  -25.3754  -33.7393   23.8495 N   0  0  0  0  0  0  0  0  0  0  0  0
  -22.5224  -35.5915   22.6258 N   0  3  0  0  0  0  0  0  0  0  0  0
  -18.1820  -27.0334   23.6591 O   0  0  0  0  0  0  0  0  0  0  0  0
  -21.8778   -9.7350   21.3643 O   0  0  0  0  0  0  0  0  0  0  0  0
  -27.3167  -28.7338   23.0519 O   0  0  0  0  0  0  0  0  0  0  0  0
  -27.5625  -32.4552   22.5168 O   0  0  0  0  0  0  0  0  0  0  0  0
  -23.1220  -33.2155   24.0084 O   0  0  0  0  0  0  0  0  0  0  0  0
  -18.1178  -19.3338   21.3385 O   0  0  0  0  0  0  0  0  0  0  0  0
  -28.0717  -12.2662   20.0405 O   0  0  0  0  0  0  0  0  0  0  0  0
  -21.0326  -27.0831   21.9158 O   0  0  0  0  0  0  0  0  0  1  0  0
  -31.0816  -16.7339   18.8640 F   0  0  0  0  0  0  0  0  0  0  0  0
  -30.2037  -13.0014   21.6395 F   0  0  0  0  0  0  0  0  0  0  0  0
  1  2  1  0  0  0  0
  1  5  2  0  0  0  0
  2  6  2  0  0  0  0
  3  8  2  0  0  0  0
  3 18  1  0  0  0  0
  4  9  1  0  0  0  0
  4 18  2  0  0  0  0
  5 21  1  0  0  0  0
  6 23  1  0  0  0  0
  7 10  2  0  0  0  0
  7 22  1  0  0  0  0
  8 27  1  0  0  0  0
  9 27  2  0  0  0  0
 10 28  1  0  0  0  0
 11 12  2  0  0  0  0
 11 29  1  0  0  0  0
 12 30  1  0  0  0  0
 13 19  2  0  0  0  0
 13 25  1  0  0  0  0
 14 19  1  0  0  0  0
 14 26  2  0  0  0  0
 15 24  1  0  0  0  0
 15 28  2  0  0  0  0
 16 25  2  0  0  0  0
 16 26  1  0  0  0  0
 17 30  2  0  0  0  0
 17 31  1  0  0  0  0
 18 32  1  0  0  0  0
 19 38  1  0  0  0  0
 20 32  1  0  0  0  0
 20 33  2  0  0  0  0
 20 39  1  0  0  0  0
 21 23  2  0  0  0  0
 21 44  1  0  0  0  0
 22 24  2  0  0  0  0
 22 45  1  0  0  0  0
 23 55  1  0  0  0  0
 24 46  1  0  0  0  0
 25 70  1  0  0  0  0
 26 75  1  0  0  0  0
 27 85  1  0  0  0  0
 28 86  1  0  0  0  0
 29 31  2  0  0  0  0
 29 85  1  0  0  0  0
 30 87  1  0  0  0  0
 31 88  1  0  0  0  0
 32 68  2  0  0  0  0
 33 69  1  0  0  0  0
 33 73  1  0  0  0  0
 34 35  2  0  0  0  0
 34 36  1  0  0  0  0
 34 64  1  0  0  0  0
 35 58  1  0  0  0  0
 35 70  1  0  0  0  0
 36 47  1  0  0  0  0
 36 79  2  0  0  0  0
 37 38  2  0  0  0  0
 39 74  1  0  0  0  0
 39 80  2  0  0  0  0
 40 56  1  0  0  0  0
 40 76  1  0  0  0  0
 40 81  2  0  0  0  0
 41 65  1  0  0  0  0
 41 71  1  0  0  0  0
 41 82  2  0  0  0  0
 42 66  1  0  0  0  0
 42 77  1  0  0  0  0
 42 83  2  0  0  0  0
 43 72  1  0  0  0  0
 43 75  1  0  0  0  0
 43 84  2  0  0  0  0
 44 48  1  0  0  0  0
 45 56  1  0  0  0  0
 46 71  1  0  0  0  0
 47 52  1  0  0  0  0
 48 50  1  0  0  0  0
 49 51  1  0  0  0  0
 49 53  1  0  0  0  0
 50 55  1  0  0  0  0
 51 57  1  0  0  0  0
 52 70  1  0  0  0  0
 53 72  1  0  0  0  0
 54 57  1  0  0  0  0
 54 72  1  0  0  0  0
 55 76  1  0  0  0  0
 56 71  1  0  0  0  0
 57 69  1  0  0  0  0
 59 66  1  0  0  0  0
 60 67  1  0  0  0  0
 61 67  1  0  0  0  0
 62 67  1  0  0  0  0
 63 78  1  0  0  0  0
 64 86  1  0  0  0  0
 65 67  1  0  0  0  0
 65 77  1  0  0  0  0
 66 78  1  0  0  0  0
 68 69  1  0  0  0  0
M  CHG  1  78   1
M  ISO  4  43 100  64 101  75 100  86 101
M  END
> <Batch ID>
0104

> <Smiles>
C=Cc1cc([100NH:0][100C:0](=O)N2CCCC(n3nc(-c4ccc(Oc5ccc(F)cc5F)cc4)c(C(N)=O)c3N)C2)cc(N2CCC(=O)C([101CH2:1][101O:1]c3ccc4c(c3)CN(C(=O)C(NC(=O)C(C)NC)C(C)(C)C)C(C(=O)NC3CCCc5ccccc53)C4)=C2C)c1

> <Shape>
0.288

> <Color>
0.068

> <Negative vol penalty>
0.000

$$$$

  -OEChem-04052301083D

 87 96  0     1  0  0  0  0  0999 V2000
  -27.7987  -36.2750   20.4023 C   0  0  0  0  0  0  0  0  0  0  0  0
  -28.1262  -34.9343   20.5778 C   0  0  0  0  0  0  0  0  0  0  0  0
  -23.7092   -9.8465   22.0929 C   0  0  0  0  0  0  0  0  0  0  0  0
  -21.6138  -10.6973   21.2429 C   0  0  0  0  0  0  0  0  0  0  0  0
  -26.6383  -36.7893   20.9792 C   0  0  0  0  0  0  0  0  0  0  0  0
  -27.2938  -34.1073   21.3311 C   0  0  0  0  0  0  0  0  0  0  0  0
  -26.4868  -29.6257   19.1156 C   0  0  0  0  0  0  0  0  0  0  0  0
  -23.0173   -8.9124   22.8637 C   0  0  0  0  0  0  0  0  0  0  0  0
  -20.9218   -9.7630   22.0137 C   0  0  0  0  0  0  0  0  0  0  0  0
  -27.5035  -28.6764   19.2101 C   0  0  0  0  0  0  0  0  0  0  0  0
  -21.4850   -5.9359   22.3886 C   0  0  0  0  0  0  0  0  0  0  0  0
  -21.9555   -4.6228   22.3925 C   0  0  0  0  0  0  0  0  0  0  0  0
  -29.6744  -21.0553   20.6407 C   0  0  0  0  0  0  0  0  0  0  0  0
  -26.3123  -27.5881   21.0034 C   0  0  0  0  0  0  0  0  0  0  0  0
  -27.9461  -20.2943   18.5873 C   0  0  0  0  0  0  0  0  0  0  0  0
  -22.2880   -4.7492   24.7822 C   0  0  0  0  0  0  0  0  0  0  0  0
  -23.0075  -10.7390   21.2825 C   0  0  0  0  0  0  0  0  0  0  0  0
  -29.9672  -21.3967   19.3203 C   0  0  0  0  0  0  0  0  0  0  0  0
  -24.6700  -11.4418   19.4798 C   0  0  0  0  0  0  0  0  0  0  0  0
  -25.7862  -35.9659   21.7320 C   0  0  0  0  0  0  0  0  0  0  0  0
  -25.3786  -29.5695   19.9730 C   0  0  0  0  0  0  0  0  0  0  0  0
  -26.1215  -34.6113   21.9197 C   0  0  0  0  0  0  0  0  0  0  0  0
  -25.2816  -28.5363   20.9159 C   0  0  0  0  0  0  0  0  0  0  0  0
  -29.1030  -21.0162   18.2936 C   0  0  0  0  0  0  0  0  0  0  0  0
  -21.6236   -8.8706   22.8241 C   0  0  0  0  0  0  0  0  0  0  0  0
  -27.4177  -27.6591   20.1560 C   0  0  0  0  0  0  0  0  0  0  0  0
  -21.4161   -6.6557   23.5814 C   0  0  0  0  0  0  0  0  0  0  0  0
  -27.6534  -19.9529   19.9077 C   0  0  0  0  0  0  0  0  0  0  0  0
  -22.3570   -4.0294   23.5894 C   0  0  0  0  0  0  0  0  0  0  0  0
  -28.5176  -20.3334   20.9344 C   0  0  0  0  0  0  0  0  0  0  0  0
  -21.8176   -6.0623   24.7782 C   0  0  0  0  0  0  0  0  0  0  0  0
  -23.7216  -11.7046   20.4865 C   0  0  0  0  0  0  0  0  0  0  0  0
  -25.0494  -12.6839   19.0329 C   0  0  0  0  0  0  0  0  0  0  0  0
  -31.1955  -22.1565   19.0391 C   0  0  0  0  0  0  0  0  0  0  0  0
  -25.1636  -10.1871   18.9922 C   0  0  0  0  0  0  0  0  0  0  0  0
  -24.1574  -31.4932   22.1893 C   0  0  0  0  0  0  0  0  0  0  0  0
  -21.7680  -29.2996   22.2199 C   0  0  0  0  0  0  0  0  0  0  0  0
  -20.7688  -26.0951   21.6036 C   0  0  0  0  0  0  0  0  0  0  0  0
  -26.6639  -17.8423   20.1806 C   0  0  0  0  0  0  0  0  0  0  0  0
  -24.5673  -36.5780   22.3756 C   0  0  0  0  0  0  0  0  0  0  0  0
  -24.2774  -30.5855   19.8403 C   0  0  0  0  0  0  0  0  0  0  0  0
  -24.1029  -28.4198   21.8463 C   0  0  0  0  0  0  0  0  0  0  0  0
  -23.5446  -35.5471   22.8465 C   0  0  0  0  0  0  0  0  0  0  0  0
  -23.0845  -17.2529   19.9058 C   0  0  0  0  0  0  0  0  0  0  0  0
  -24.2348  -34.4197   23.6077 C   0  0  0  0  0  0  0  0  0  0  0  0
  -23.0133  -15.7285   19.9903 C   0  0  0  0  0  0  0  0  0  0  0  0
  -31.7241  -25.7906   18.6987 C   0  0  0  0  0  0  0  0  0  0  0  0
  -24.2061  -17.8121   20.7766 C   0  0  0  0  0  0  0  0  0  0  0  0
  -32.2743  -24.3762   18.7973 C   0  0  0  0  0  0  0  0  0  0  0  0
  -29.9390  -24.3532   19.3736 C   0  0  0  0  0  0  0  0  0  0  0  0
  -25.4797  -15.6935   20.5631 C   0  0  0  0  0  0  0  0  0  0  0  0
  -25.2311  -33.6767   22.7095 C   0  0  1  0  0  0  0  0  0  0  0  0
  -23.4430  -30.7314   21.1091 C   0  0  1  0  0  0  0  0  0  0  0  0
  -30.5054  -25.7498   19.6236 C   0  0  2  0  0  0  0  0  0  0  0  0
  -24.3788  -15.0938   19.6727 C   0  0  1  0  0  0  0  0  0  0  0  0
  -29.3936  -21.3676   16.8709 C   0  0  0  0  0  0  0  0  0  0  0  0
  -18.7666  -24.5908   21.7632 C   0  0  0  0  0  0  0  0  0  0  0  0
  -22.1715  -29.0865   25.2368 C   0  0  0  0  0  0  0  0  0  0  0  0
  -20.8624  -26.9529   25.1910 C   0  0  0  0  0  0  0  0  0  0  0  0
  -19.7811  -29.0926   24.5019 C   0  0  0  0  0  0  0  0  0  0  0  0
  -20.7496  -25.6181   18.6828 C   0  0  0  0  0  0  0  0  0  0  0  0
  -29.5079  -26.8610   19.3498 C   0  0  0  0  0  0  0  0  0  1  0  0
  -21.4965  -28.0251   22.9821 C   0  0  1  0  0  0  0  0  0  0  0  0
  -19.5575  -25.5399   20.8764 C   0  0  2  0  0  0  0  0  0  0  0  0
  -21.1011  -28.2923   24.4619 C   0  0  0  0  0  0  0  0  0  0  0  0
  -23.5117  -13.0110   20.6687 N   0  0  0  0  0  0  0  0  0  0  0  0
  -24.3335  -13.5802   19.7705 N   0  0  0  0  0  0  0  0  0  0  0  0
  -31.1104  -23.5402   19.0511 N   0  0  0  0  0  0  0  0  0  0  0  0
  -23.0550  -29.4408   21.6819 N   0  0  0  0  0  0  0  0  0  0  0  0
  -25.4824  -17.1550   20.4775 N   0  0  0  0  0  0  0  0  0  0  0  0
  -25.9224  -13.0859   18.0849 N   0  0  0  0  0  0  0  0  0  0  0  0
  -24.6673   -9.0068   19.5621 N   0  0  0  0  0  0  0  0  0  0  0  0
  -24.5335  -32.7711   21.8219 N   0  0  0  0  0  0  0  0  0  0  0  0
  -20.4895  -27.2983   22.2165 N   0  0  0  0  0  0  0  0  0  0  0  0
  -19.9814  -24.7985   19.6551 N   0  3  0  0  0  0  0  0  0  0  0  0
  -32.2203  -21.5130   18.8218 O   0  0  0  0  0  0  0  0  0  0  0  0
  -26.0317  -10.1152   18.0895 O   0  0  0  0  0  0  0  0  0  0  0  0
  -24.3518  -30.9615   23.2761 O   0  0  0  0  0  0  0  0  0  0  0  0
  -20.8690  -30.1357   22.1000 O   0  0  0  0  0  0  0  0  0  0  0  0
  -21.8533  -25.5173   21.6289 O   0  0  0  0  0  0  0  0  0  0  0  0
  -27.7376  -17.2963   19.9289 O   0  0  0  0  0  0  0  0  0  0  0  0
  -20.9481   -7.9590   23.5759 O   0  0  0  0  0  0  0  0  0  0  0  0
  -26.4928  -19.2294   20.2002 O   0  0  0  0  0  0  0  0  0  0  0  0
  -28.4090  -26.7316   20.2509 O   0  0  0  0  0  0  0  0  0  1  0  0
  -22.8073   -2.7679   23.5933 F   0  0  0  0  0  0  0  0  0  0  0  0
  -28.2427  -20.0069   22.2047 F   0  0  0  0  0  0  0  0  0  0  0  0
  -21.7526   -6.7484   25.9275 F   0  0  0  0  0  0  0  0  0  0  0  0
  1  2  1  0  0  0  0
  1  5  2  0  0  0  0
  2  6  2  0  0  0  0
  3  8  2  0  0  0  0
  3 17  1  0  0  0  0
  4  9  1  0  0  0  0
  4 17  2  0  0  0  0
  5 20  1  0  0  0  0
  6 22  1  0  0  0  0
  7 10  2  0  0  0  0
  7 21  1  0  0  0  0
  8 25  1  0  0  0  0
  9 25  2  0  0  0  0
 10 26  1  0  0  0  0
 11 12  2  0  0  0  0
 11 27  1  0  0  0  0
 12 29  1  0  0  0  0
 13 18  1  0  0  0  0
 13 30  2  0  0  0  0
 14 23  1  0  0  0  0
 14 26  2  0  0  0  0
 15 24  1  0  0  0  0
 15 28  2  0  0  0  0
 16 29  2  0  0  0  0
 16 31  1  0  0  0  0
 17 32  1  0  0  0  0
 18 24  2  0  0  0  0
 18 34  1  0  0  0  0
 19 32  1  0  0  0  0
 19 33  2  0  0  0  0
 19 35  1  0  0  0  0
 20 22  2  0  0  0  0
 20 40  1  0  0  0  0
 21 23  2  0  0  0  0
 21 41  1  0  0  0  0
 22 52  1  0  0  0  0
 23 42  1  0  0  0  0
 24 56  1  0  0  0  0
 25 82  1  0  0  0  0
 26 84  1  0  0  0  0
 27 31  2  0  0  0  0
 27 82  1  0  0  0  0
 28 30  1  0  0  0  0
 28 83  1  0  0  0  0
 29 85  1  0  0  0  0
 30 86  1  0  0  0  0
 31 87  1  0  0  0  0
 32 66  2  0  0  0  0
 33 67  1  0  0  0  0
 33 71  1  0  0  0  0
 34 68  1  0  0  0  0
 34 76  2  0  0  0  0
 35 72  1  0  0  0  0
 35 77  2  0  0  0  0
 36 53  1  0  0  0  0
 36 73  1  0  0  0  0
 36 78  2  0  0  0  0
 37 63  1  0  0  0  0
 37 69  1  0  0  0  0
 37 79  2  0  0  0  0
 38 64  1  0  0  0  0
 38 74  1  0  0  0  0
 38 80  2  0  0  0  0
 39 70  1  0  0  0  0
 39 81  2  0  0  0  0
 39 83  1  0  0  0  0
 40 43  1  0  0  0  0
 41 53  1  0  0  0  0
 42 69  1  0  0  0  0
 43 45  1  0  0  0  0
 44 46  1  0  0  0  0
 44 48  1  0  0  0  0
 45 52  1  0  0  0  0
 46 55  1  0  0  0  0
 47 49  1  0  0  0  0
 47 54  1  0  0  0  0
 48 70  1  0  0  0  0
 49 68  1  0  0  0  0
 50 54  1  0  0  0  0
 50 68  1  0  0  0  0
 51 55  1  0  0  0  0
 51 70  1  0  0  0  0
 52 73  1  0  0  0  0
 53 69  1  0  0  0  0
 54 62  1  0  0  0  0
 55 67  1  0  0  0  0
 57 64  1  0  0  0  0
 58 65  1  0  0  0  0
 59 65  1  0  0  0  0
 60 65  1  0  0  0  0
 61 75  1  0  0  0  0
 62 84  1  0  0  0  0
 63 65  1  0  0  0  0
 63 74  1  0  0  0  0
 64 75  1  0  0  0  0
 66 67  1  0  0  0  0
M  CHG  1  75   1
M  ISO  4  39 100  62 101  83 100  84 101
M  END
> <Batch ID>
0104

> <Smiles>
CNC(C)C(=O)NC(C(=O)N1Cc2cc([101O:1][101CH2:1]C3CCN(C(=O)c4cc(F)c([100O:0][100C:0](=O)N5CCCC(n6nc(-c7ccc(Oc8ccc(F)cc8F)cc7)c(C(N)=O)c6N)C5)cc4C)C3)ccc2CC1C(=O)NC1CCCc2ccccc21)C(C)(C)C

> <Shape>
0.313

> <Color>
0.072

> <Negative vol penalty>
0.000

$$$$

  -OEChem-04052301083D

 85 93  0     1  0  0  0  0  0999 V2000
  -29.7793  -36.4238   20.8943 C   0  0  0  0  0  0  0  0  0  0  0  0
  -29.8624  -35.0949   20.4910 C   0  0  0  0  0  0  0  0  0  0  0  0
  -23.1144  -15.2440   23.7700 C   0  0  0  0  0  0  0  0  0  0  0  0
  -23.1750  -16.1791   21.5432 C   0  0  0  0  0  0  0  0  0  0  0  0
  -29.0109  -36.7669   22.0060 C   0  0  0  0  0  0  0  0  0  0  0  0
  -29.1780  -34.1082   21.1999 C   0  0  0  0  0  0  0  0  0  0  0  0
  -26.5797  -29.0594   18.9056 C   0  0  0  0  0  0  0  0  0  0  0  0
  -22.1975  -16.2219   24.1557 C   0  0  0  0  0  0  0  0  0  0  0  0
  -22.2581  -17.1570   21.9288 C   0  0  0  0  0  0  0  0  0  0  0  0
  -27.0094  -27.7353   18.8289 C   0  0  0  0  0  0  0  0  0  0  0  0
  -22.2975  -20.0730   23.6395 C   0  0  0  0  0  0  0  0  0  0  0  0
  -22.5522  -21.3887   23.2527 C   0  0  0  0  0  0  0  0  0  0  0  0
  -30.8718  -17.7242   19.9333 C   0  0  0  0  0  0  0  0  0  0  0  0
  -25.7872  -27.2281   20.8459 C   0  0  0  0  0  0  0  0  0  0  0  0
  -28.7179  -18.7279   18.4718 C   0  0  0  0  0  0  0  0  0  0  0  0
  -20.4641  -21.4357   22.0381 C   0  0  0  0  0  0  0  0  0  0  0  0
  -23.6032  -15.2227   22.4638 C   0  0  0  0  0  0  0  0  0  0  0  0
  -30.0286  -16.8515   19.2455 C   0  0  0  0  0  0  0  0  0  0  0  0
  -24.2650  -12.9451   21.5244 C   0  0  0  0  0  0  0  0  0  0  0  0
  -28.3091  -35.7852   22.7231 C   0  0  0  0  0  0  0  0  0  0  0  0
  -25.7579  -29.4810   19.9608 C   0  0  0  0  0  0  0  0  0  0  0  0
  -28.4007  -34.4384   22.3230 C   0  0  0  0  0  0  0  0  0  0  0  0
  -25.3463  -28.5574   20.9323 C   0  0  0  0  0  0  0  0  0  0  0  0
  -28.9516  -17.3534   18.5147 C   0  0  0  0  0  0  0  0  0  0  0  0
  -21.7694  -17.1783   23.2351 C   0  0  0  0  0  0  0  0  0  0  0  0
  -26.6156  -26.8201   19.8007 C   0  0  0  0  0  0  0  0  0  0  0  0
  -21.1262  -19.4385   23.2255 C   0  0  0  0  0  0  0  0  0  0  0  0
  -29.5612  -19.6005   19.1596 C   0  0  0  0  0  0  0  0  0  0  0  0
  -21.6355  -22.0701   22.4520 C   0  0  0  0  0  0  0  0  0  0  0  0
  -30.6381  -19.0987   19.8904 C   0  0  0  0  0  0  0  0  0  0  0  0
  -20.2095  -20.1199   22.4249 C   0  0  0  0  0  0  0  0  0  0  0  0
  -24.5508  -14.2132   22.0649 C   0  0  0  0  0  0  0  0  0  0  0  0
  -25.4970  -12.3744   21.3175 C   0  0  0  0  0  0  0  0  0  0  0  0
  -30.2945  -15.4207   19.3094 C   0  0  0  0  0  0  0  0  0  0  0  0
  -22.9990  -12.3374   21.2353 C   0  0  0  0  0  0  0  0  0  0  0  0
  -30.9319  -14.8091   20.4981 C   0  0  0  0  0  0  0  0  0  0  0  0
  -26.0411  -31.5949   22.3177 C   0  0  0  0  0  0  0  0  0  0  0  0
  -22.9400  -30.8165   22.8649 C   0  0  0  0  0  0  0  0  0  0  0  0
  -20.4250  -28.5329   22.5379 C   0  0  0  0  0  0  0  0  0  0  0  0
  -27.5295  -36.1981   23.9464 C   0  0  0  0  0  0  0  0  0  0  0  0
  -25.2811  -30.9065   20.0146 C   0  0  0  0  0  0  0  0  0  0  0  0
  -24.4482  -28.9549   22.0742 C   0  0  0  0  0  0  0  0  0  0  0  0
  -26.5337  -35.1421   24.4192 C   0  0  0  0  0  0  0  0  0  0  0  0
  -29.9751  -12.4017   22.9772 C   0  0  0  0  0  0  0  0  0  0  0  0
  -27.1901  -33.7655   24.4508 C   0  0  0  0  0  0  0  0  0  0  0  0
  -28.4506  -12.5068   23.0015 C   0  0  0  0  0  0  0  0  0  0  0  0
  -30.6237  -13.7547   22.7031 C   0  0  0  0  0  0  0  0  0  0  0  0
  -28.6135  -14.5193   21.4689 C   0  0  0  0  0  0  0  0  0  0  0  0
  -27.6529  -33.3427   23.0513 C   0  0  1  0  0  0  0  0  0  0  0  0
  -24.8659  -31.3453   21.4154 C   0  0  1  0  0  0  0  0  0  0  0  0
  -27.9221  -13.1670   21.7156 C   0  0  2  0  0  0  0  0  0  0  0  0
  -28.0325  -16.4407   17.7703 C   0  0  0  0  0  0  0  0  0  0  0  0
  -18.0118  -28.1635   23.1188 C   0  0  0  0  0  0  0  0  0  0  0  0
  -23.7280  -30.2268   25.7530 C   0  0  0  0  0  0  0  0  0  0  0  0
  -21.5676  -28.9891   26.0164 C   0  0  0  0  0  0  0  0  0  0  0  0
  -21.5500  -31.4275   25.4903 C   0  0  0  0  0  0  0  0  0  0  0  0
  -19.6504  -28.3280   19.6889 C   0  0  0  0  0  0  0  0  0  0  0  0
  -26.3635  -23.2161   19.5294 C   0  0  0  0  0  0  0  0  0  0  0  0
  -27.7925  -22.7024   19.6670 C   0  0  0  0  0  0  0  0  0  0  0  0
  -26.1660  -24.5323   20.2697 C   0  0  0  0  0  0  0  0  0  1  0  0
  -27.9795  -21.3657   18.9635 C   0  0  0  0  0  0  0  0  0  0  0  0
  -22.2296  -29.7779   23.6989 C   0  0  1  0  0  0  0  0  0  0  0  0
  -18.9876  -28.6774   22.0716 C   0  0  2  0  0  0  0  0  0  0  0  0
  -22.2873  -30.0980   25.2193 C   0  0  0  0  0  0  0  0  0  0  0  0
  -25.8616  -14.4354   22.1934 N   0  0  0  0  0  0  0  0  0  0  0  0
  -29.9945  -14.5947   18.3455 N   0  0  0  0  0  0  0  0  0  0  0  0
  -26.4103  -13.2992   21.7308 N   0  0  0  0  0  0  0  0  0  0  0  0
  -30.0739  -14.3697   21.4966 N   0  0  0  0  0  0  0  0  0  0  0  0
  -24.0137  -30.3615   22.0865 N   0  0  0  0  0  0  0  0  0  0  0  0
  -25.8774  -11.1768   20.8241 N   0  0  0  0  0  0  0  0  0  0  0  0
  -21.8315  -13.0629   21.5090 N   0  0  0  0  0  0  0  0  0  0  0  0
  -26.5278  -32.8870   22.2632 N   0  0  0  0  0  0  0  0  0  0  0  0
  -20.8774  -29.6770   23.1604 N   0  0  0  0  0  0  0  0  0  0  0  0
  -18.7721  -27.9106   20.8120 N   0  3  0  0  0  0  0  0  0  0  0  0
  -22.9054  -11.1787   20.7639 O   0  0  0  0  0  0  0  0  0  0  0  0
  -32.1546  -14.7567   20.4726 O   0  0  0  0  0  0  0  0  0  0  0  0
  -26.4734  -30.6831   23.0130 O   0  0  0  0  0  0  0  0  0  0  0  0
  -22.5519  -31.9869   22.8972 O   0  0  0  0  0  0  0  0  0  0  0  0
  -21.0797  -27.5063   22.3702 O   0  0  0  0  0  0  0  0  0  0  0  0
  -20.8745  -18.1325   23.6110 O   0  0  0  0  0  0  0  0  0  0  0  0
  -27.0342  -25.5272   19.7285 O   0  0  0  0  0  0  0  0  0  1  0  0
  -29.3300  -20.9509   19.1159 O   0  0  0  0  0  0  0  0  0  0  0  0
  -21.8794  -23.3341   22.0820 F   0  0  0  0  0  0  0  0  0  0  0  0
  -31.4507  -19.9319   20.5548 F   0  0  0  0  0  0  0  0  0  0  0  0
  -19.0820  -19.5161   22.0251 F   0  0  0  0  0  0  0  0  0  0  0  0
  1  2  1  0  0  0  0
  1  5  2  0  0  0  0
  2  6  2  0  0  0  0
  3  8  2  0  0  0  0
  3 17  1  0  0  0  0
  4  9  1  0  0  0  0
  4 17  2  0  0  0  0
  5 20  1  0  0  0  0
  6 22  1  0  0  0  0
  7 10  2  0  0  0  0
  7 21  1  0  0  0  0
  8 25  1  0  0  0  0
  9 25  2  0  0  0  0
 10 26  1  0  0  0  0
 11 12  2  0  0  0  0
 11 27  1  0  0  0  0
 12 29  1  0  0  0  0
 13 18  2  0  0  0  0
 13 30  1  0  0  0  0
 14 23  1  0  0  0  0
 14 26  2  0  0  0  0
 15 24  2  0  0  0  0
 15 28  1  0  0  0  0
 16 29  2  0  0  0  0
 16 31  1  0  0  0  0
 17 32  1  0  0  0  0
 18 24  1  0  0  0  0
 18 34  1  0  0  0  0
 19 32  1  0  0  0  0
 19 33  2  0  0  0  0
 19 35  1  0  0  0  0
 20 22  2  0  0  0  0
 20 40  1  0  0  0  0
 21 23  2  0  0  0  0
 21 41  1  0  0  0  0
 22 49  1  0  0  0  0
 23 42  1  0  0  0  0
 24 52  1  0  0  0  0
 25 80  1  0  0  0  0
 26 81  1  0  0  0  0
 27 31  2  0  0  0  0
 27 80  1  0  0  0  0
 28 30  2  0  0  0  0
 28 82  1  0  0  0  0
 29 83  1  0  0  0  0
 30 84  1  0  0  0  0
 31 85  1  0  0  0  0
 32 65  2  0  0  0  0
 33 67  1  0  0  0  0
 33 70  1  0  0  0  0
 34 36  1  0  0  0  0
 34 66  2  0  0  0  0
 35 71  1  0  0  0  0
 35 75  2  0  0  0  0
 36 68  1  0  0  0  0
 36 76  2  0  0  0  0
 37 50  1  0  0  0  0
 37 72  1  0  0  0  0
 37 77  2  0  0  0  0
 38 62  1  0  0  0  0
 38 69  1  0  0  0  0
 38 78  2  0  0  0  0
 39 63  1  0  0  0  0
 39 73  1  0  0  0  0
 39 79  2  0  0  0  0
 40 43  1  0  0  0  0
 41 50  1  0  0  0  0
 42 69  1  0  0  0  0
 43 45  1  0  0  0  0
 44 46  1  0  0  0  0
 44 47  1  0  0  0  0
 45 49  1  0  0  0  0
 46 51  1  0  0  0  0
 47 68  1  0  0  0  0
 48 51  1  0  0  0  0
 48 68  1  0  0  0  0
 49 72  1  0  0  0  0
 50 69  1  0  0  0  0
 51 67  1  0  0  0  0
 53 63  1  0  0  0  0
 54 64  1  0  0  0  0
 55 64  1  0  0  0  0
 56 64  1  0  0  0  0
 57 74  1  0  0  0  0
 58 59  1  0  0  0  0
 58 60  1  0  0  0  0
 59 61  1  0  0  0  0
 60 81  1  0  0  0  0
 61 82  1  0  0  0  0
 62 64  1  0  0  0  0
 62 73  1  0  0  0  0
 63 74  1  0  0  0  0
 65 67  1  0  0  0  0
M  CHG  1  74   1
M  ISO  4  34 100  36 100  60 101  81 101
M  END
> <Batch ID>
0104

> <Smiles>
CNC(C)C(=O)NC(C(=O)N1Cc2cc([101O:1][101CH2:1]CCCOc3cc(C)c([100C:0](=N)[100C:0](=O)N4CCCC(n5nc(-c6ccc(Oc7ccc(F)cc7F)cc6)c(C(N)=O)c5N)C4)cc3F)ccc2CC1C(=O)NC1CCCc2ccccc21)C(C)(C)C

> <Shape>
0.243

> <Color>
0.101

> <Negative vol penalty>
0.000

$$$$

  -OEChem-04052301083D

 80 87  0     1  0  0  0  0  0999 V2000
  -17.5968  -25.3073   21.4539 C   0  0  0  0  0  0  0  0  0  0  0  0
  -18.9312  -24.9955   21.2140 C   0  0  0  0  0  0  0  0  0  0  0  0
  -24.2495  -15.7357   21.7671 C   0  0  0  0  0  0  0  0  0  0  0  0
  -23.2350  -15.2098   19.6384 C   0  0  0  0  0  0  0  0  0  0  0  0
  -17.2616  -26.5279   22.0384 C   0  0  0  0  0  0  0  0  0  0  0  0
  -19.9312  -25.9046   21.5575 C   0  0  0  0  0  0  0  0  0  0  0  0
  -23.8475  -23.6962   23.8878 C   0  0  0  0  0  0  0  0  0  0  0  0
  -23.5349  -16.9327   21.8121 C   0  0  0  0  0  0  0  0  0  0  0  0
  -22.5203  -16.4069   19.6834 C   0  0  0  0  0  0  0  0  0  0  0  0
  -24.7584  -23.0076   23.0880 C   0  0  0  0  0  0  0  0  0  0  0  0
  -21.7047  -19.9572   22.6593 C   0  0  0  0  0  0  0  0  0  0  0  0
  -21.0863  -20.2985   23.8620 C   0  0  0  0  0  0  0  0  0  0  0  0
  -26.2524  -24.8997   23.1710 C   0  0  0  0  0  0  0  0  0  0  0  0
  -19.7727  -18.2733   23.7613 C   0  0  0  0  0  0  0  0  0  0  0  0
  -24.0997  -14.8743   20.6803 C   0  0  0  0  0  0  0  0  0  0  0  0
  -24.4334  -12.3863   21.1348 C   0  0  0  0  0  0  0  0  0  0  0  0
  -18.2586  -27.4484   22.3982 C   0  0  0  0  0  0  0  0  0  0  0  0
  -24.1279  -24.9981   24.3270 C   0  0  0  0  0  0  0  0  0  0  0  0
  -19.6089  -27.1392   22.1462 C   0  0  0  0  0  0  0  0  0  0  0  0
  -25.3445  -25.6017   23.9784 C   0  0  0  0  0  0  0  0  0  0  0  0
  -22.6703  -17.2683   20.7702 C   0  0  0  0  0  0  0  0  0  0  0  0
  -25.9598  -23.6104   22.7270 C   0  0  0  0  0  0  0  0  0  0  0  0
  -21.3571  -18.7740   22.0075 C   0  0  0  0  0  0  0  0  0  0  0  0
  -20.1203  -19.4566   24.4131 C   0  0  0  0  0  0  0  0  0  0  0  0
  -20.3912  -17.9320   22.5585 C   0  0  0  0  0  0  0  0  0  0  0  0
  -24.8380  -13.6379   20.6330 C   0  0  0  0  0  0  0  0  0  0  0  0
  -25.4792  -11.5451   20.8432 C   0  0  0  0  0  0  0  0  0  0  0  0
  -23.2206  -12.0172   21.8045 C   0  0  0  0  0  0  0  0  0  0  0  0
  -22.7775  -27.8454   23.9109 C   0  0  0  0  0  0  0  0  0  0  0  0
  -27.5898  -21.0269   20.6600 C   0  0  0  0  0  0  0  0  0  0  0  0
  -25.0072  -28.7851   26.0714 C   0  0  0  0  0  0  0  0  0  0  0  0
  -29.3696  -17.4236   18.0256 C   0  0  0  0  0  0  0  0  0  0  0  0
  -28.0332  -28.2194   27.5445 C   0  0  0  0  0  0  0  0  0  0  0  0
  -28.5827  -15.1052   18.0621 C   0  0  0  0  0  0  0  0  0  0  0  0
  -17.8445  -28.7749   22.9842 C   0  0  0  0  0  0  0  0  0  0  0  0
  -23.1465  -25.7173   25.2113 C   0  0  0  0  0  0  0  0  0  0  0  0
  -25.7022  -26.9899   24.4406 C   0  0  0  0  0  0  0  0  0  0  0  0
  -18.9883  -29.5251   23.6618 C   0  0  0  0  0  0  0  0  0  0  0  0
  -29.4761  -13.2472   20.9781 C   0  0  0  0  0  0  0  0  0  0  0  0
  -20.2297  -29.5192   22.7754 C   0  0  0  0  0  0  0  0  0  0  0  0
  -28.8444  -11.8739   20.7694 C   0  0  0  0  0  0  0  0  0  0  0  0
  -29.9769  -13.8234   19.6611 C   0  0  0  0  0  0  0  0  0  0  0  0
  -28.2265  -12.5981   18.3946 C   0  0  0  0  0  0  0  0  0  0  0  0
  -20.7237  -28.0888   22.5275 C   0  0  1  0  0  0  0  0  0  0  0  0
  -23.3100  -27.2337   25.1758 C   0  0  1  0  0  0  0  0  0  0  0  0
  -27.7645  -11.8670   19.6739 C   0  0  2  0  0  0  0  0  0  0  0  0
  -29.6051  -29.1805   29.2482 C   0  0  0  0  0  0  0  0  0  0  0  0
  -25.8585  -30.9283   24.0733 C   0  0  0  0  0  0  0  0  0  0  0  0
  -27.9753  -31.2076   25.3809 C   0  0  0  0  0  0  0  0  0  0  0  0
  -25.7759  -31.6941   26.4527 C   0  0  0  0  0  0  0  0  0  0  0  0
  -30.9013  -15.5403   17.4523 C   0  0  0  0  0  0  0  0  0  0  0  0
  -27.8624  -25.7984   29.2381 C   0  0  0  0  0  0  0  0  0  0  0  0
  -26.5041  -21.6305   21.5272 C   0  0  0  0  0  0  0  0  0  1  0  0
  -27.3186  -19.6307   20.1383 C   0  0  0  0  0  0  0  0  0  0  0  0
  -28.1794  -17.8658   18.8536 C   0  0  0  0  0  0  0  0  0  0  0  0
  -26.4259  -29.2949   25.9907 C   0  0  1  0  0  0  0  0  0  0  0  0
  -28.4585  -28.2124   29.0017 C   0  0  2  0  0  0  0  0  0  0  0  0
  -26.5016  -30.7558   25.4639 C   0  0  0  0  0  0  0  0  0  0  0  0
  -26.0467  -13.5997   20.0659 N   0  0  0  0  0  0  0  0  0  0  0  0
  -26.4106  -12.3140   20.2095 N   0  0  0  0  0  0  0  0  0  0  0  0
  -24.7072  -27.6546   25.2983 N   0  0  0  0  0  0  0  0  0  0  0  0
  -28.9133  -13.8724   18.6591 N   0  0  0  0  0  0  0  0  0  0  0  0
  -25.6839  -10.2301   21.0697 N   0  0  0  0  0  0  0  0  0  0  0  0
  -22.2509  -13.0052   22.0234 N   0  0  0  0  0  0  0  0  0  0  0  0
  -21.4378  -27.5931   23.6846 N   0  0  0  0  0  0  0  0  0  0  0  0
  -27.0030  -29.1074   27.3174 N   0  0  0  0  0  0  0  0  0  0  0  0
  -29.6307  -16.0443   17.9681 N   0  0  0  0  0  0  0  0  0  0  0  0
  -28.9005  -26.8477   29.4057 N   0  3  0  0  0  0  0  0  0  0  0  0
  -23.0102  -10.8496   22.2117 O   0  0  0  0  0  0  0  0  0  0  0  0
  -23.5262  -28.4991   23.1941 O   0  0  0  0  0  0  0  0  0  0  0  0
  -28.6274  -21.6327   20.3964 O   0  0  0  0  0  0  0  0  0  0  0  0
  -24.1970  -29.3643   26.7992 O   0  0  0  0  0  0  0  0  0  0  0  0
  -30.0532  -18.2781   17.4538 O   0  0  0  0  0  0  0  0  0  0  0  0
  -28.5644  -27.5110   26.6921 O   0  0  0  0  0  0  0  0  0  0  0  0
  -27.4441  -15.3703   17.6600 O   0  0  0  0  0  0  0  0  0  0  0  0
  -21.9726  -18.4361   20.8139 O   0  0  0  0  0  0  0  0  0  0  0  0
  -26.8596  -22.9338   21.9378 O   0  0  0  0  0  0  0  0  0  1  0  0
  -28.4096  -19.1662   19.3512 O   0  0  0  0  0  0  0  0  0  0  0  0
  -19.5276  -19.7837   25.5689 F   0  0  0  0  0  0  0  0  0  0  0  0
  -20.0539  -16.7934   21.9376 F   0  0  0  0  0  0  0  0  0  0  0  0
  1  2  1  0  0  0  0
  1  5  2  0  0  0  0
  2  6  2  0  0  0  0
  3  8  2  0  0  0  0
  3 15  1  0  0  0  0
  4  9  1  0  0  0  0
  4 15  2  0  0  0  0
  5 17  1  0  0  0  0
  6 19  1  0  0  0  0
  7 10  2  0  0  0  0
  7 18  1  0  0  0  0
  8 21  1  0  0  0  0
  9 21  2  0  0  0  0
 10 22  1  0  0  0  0
 11 12  2  0  0  0  0
 11 23  1  0  0  0  0
 12 24  1  0  0  0  0
 13 20  1  0  0  0  0
 13 22  2  0  0  0  0
 14 24  2  0  0  0  0
 14 25  1  0  0  0  0
 15 26  1  0  0  0  0
 16 26  1  0  0  0  0
 16 27  2  0  0  0  0
 16 28  1  0  0  0  0
 17 19  2  0  0  0  0
 17 35  1  0  0  0  0
 18 20  2  0  0  0  0
 18 36  1  0  0  0  0
 19 44  1  0  0  0  0
 20 37  1  0  0  0  0
 21 76  1  0  0  0  0
 22 77  1  0  0  0  0
 23 25  2  0  0  0  0
 23 76  1  0  0  0  0
 24 79  1  0  0  0  0
 25 80  1  0  0  0  0
 26 59  2  0  0  0  0
 27 60  1  0  0  0  0
 27 63  1  0  0  0  0
 28 64  1  0  0  0  0
 28 69  2  0  0  0  0
 29 45  1  0  0  0  0
 29 65  1  0  0  0  0
 29 70  2  0  0  0  0
 30 53  1  0  0  0  0
 30 54  1  0  0  0  0
 30 71  2  0  0  0  0
 31 56  1  0  0  0  0
 31 61  1  0  0  0  0
 31 72  2  0  0  0  0
 32 55  1  0  0  0  0
 32 67  1  0  0  0  0
 32 73  2  0  0  0  0
 33 57  1  0  0  0  0
 33 66  1  0  0  0  0
 33 74  2  0  0  0  0
 34 62  1  0  0  0  0
 34 67  1  0  0  0  0
 34 75  2  0  0  0  0
 35 38  1  0  0  0  0
 36 45  1  0  0  0  0
 37 61  1  0  0  0  0
 38 40  1  0  0  0  0
 39 41  1  0  0  0  0
 39 42  1  0  0  0  0
 40 44  1  0  0  0  0
 41 46  1  0  0  0  0
 42 62  1  0  0  0  0
 43 46  1  0  0  0  0
 43 62  1  0  0  0  0
 44 65  1  0  0  0  0
 45 61  1  0  0  0  0
 46 60  1  0  0  0  0
 47 57  1  0  0  0  0
 48 58  1  0  0  0  0
 49 58  1  0  0  0  0
 50 58  1  0  0  0  0
 51 67  1  0  0  0  0
 52 68  1  0  0  0  0
 53 77  1  0  0  0  0
 54 78  1  0  0  0  0
 55 78  1  0  0  0  0
 56 58  1  0  0  0  0
 56 66  1  0  0  0  0
 57 68  1  0  0  0  0
 59 60  1  0  0  0  0
M  CHG  1  68   1
M  ISO  4  34 100  53 101  67 100  77 101
M  END
> <Batch ID>
0104

> <Smiles>
CNC(C)C(=O)NC(C(=O)N1Cc2cc([101O:1][101CH2:1]C(=O)COCC(=O)[100N:0](C)[100C:0](=O)N3CCCC(n4nc(-c5ccc(Oc6ccc(F)cc6F)cc5)c(C(N)=O)c4N)C3)ccc2CC1C(=O)NC1CCCc2ccccc21)C(C)(C)C

> <Shape>
0.228

> <Color>
0.113

> <Negative vol penalty>
0.000

$$$$

  -OEChem-04052301083D

 84 92  0     1  0  0  0  0  0999 V2000
  -29.4445  -23.4213   25.1577 C   0  0  0  0  0  0  0  0  0  0  0  0
  -28.1657  -23.2913   24.6255 C   0  0  0  0  0  0  0  0  0  0  0  0
  -31.8162  -26.4580   19.3604 C   0  0  0  0  0  0  0  0  0  0  0  0
  -30.7343  -24.7481   20.6807 C   0  0  0  0  0  0  0  0  0  0  0  0
  -30.4798  -22.6152   24.6862 C   0  0  0  0  0  0  0  0  0  0  0  0
  -27.9218  -22.3558   23.6206 C   0  0  0  0  0  0  0  0  0  0  0  0
  -23.6723  -19.7177   24.4126 C   0  0  0  0  0  0  0  0  0  0  0  0
  -18.6394  -27.0296   23.6061 C   0  0  0  0  0  0  0  0  0  0  0  0
  -19.0520  -28.3365   23.8659 C   0  0  0  0  0  0  0  0  0  0  0  0
  -33.0551  -26.0652   19.8669 C   0  0  0  0  0  0  0  0  0  0  0  0
  -31.9732  -24.3553   21.1872 C   0  0  0  0  0  0  0  0  0  0  0  0
  -22.4660  -20.3474   24.1092 C   0  0  0  0  0  0  0  0  0  0  0  0
  -34.8884  -22.6660   22.5531 C   0  0  0  0  0  0  0  0  0  0  0  0
  -35.1637  -21.2998   22.6083 C   0  0  0  0  0  0  0  0  0  0  0  0
  -22.3771  -19.1545   22.0144 C   0  0  0  0  0  0  0  0  0  0  0  0
  -19.5886  -27.1706   21.3889 C   0  0  0  0  0  0  0  0  0  0  0  0
  -34.8917  -21.1483   20.2124 C   0  0  0  0  0  0  0  0  0  0  0  0
  -30.6558  -25.7995   19.7674 C   0  0  0  0  0  0  0  0  0  0  0  0
  -28.7358  -25.7176   18.0897 C   0  0  0  0  0  0  0  0  0  0  0  0
  -30.2463  -21.6626   23.6819 C   0  0  0  0  0  0  0  0  0  0  0  0
  -24.2465  -18.8083   23.5128 C   0  0  0  0  0  0  0  0  0  0  0  0
  -28.9552  -21.5371   23.1343 C   0  0  0  0  0  0  0  0  0  0  0  0
  -23.5894  -18.5127   22.3099 C   0  0  0  0  0  0  0  0  0  0  0  0
  -18.9077  -26.4467   22.3676 C   0  0  0  0  0  0  0  0  0  0  0  0
  -19.7328  -29.0604   22.8871 C   0  0  0  0  0  0  0  0  0  0  0  0
  -20.0011  -28.4775   21.6486 C   0  0  0  0  0  0  0  0  0  0  0  0
  -33.1336  -25.0139   20.7803 C   0  0  0  0  0  0  0  0  0  0  0  0
  -21.8196  -20.0681   22.9087 C   0  0  0  0  0  0  0  0  0  0  0  0
  -34.6147  -23.2735   21.3277 C   0  0  0  0  0  0  0  0  0  0  0  0
  -35.1654  -20.5409   21.4379 C   0  0  0  0  0  0  0  0  0  0  0  0
  -34.6163  -22.5146   20.1573 C   0  0  0  0  0  0  0  0  0  0  0  0
  -29.3757  -26.2051   19.2450 C   0  0  0  0  0  0  0  0  0  0  0  0
  -27.5554  -26.4172   18.0299 C   0  0  0  0  0  0  0  0  0  0  0  0
  -29.1697  -24.7214   17.1542 C   0  0  0  0  0  0  0  0  0  0  0  0
  -26.9666  -18.6900   21.8725 C   0  0  0  0  0  0  0  0  0  0  0  0
  -25.9056  -15.7291   21.0790 C   0  0  0  0  0  0  0  0  0  0  0  0
  -19.5272  -22.7976   22.2432 C   0  0  0  0  0  0  0  0  0  0  0  0
  -23.2620  -13.6052   20.6951 C   0  0  0  0  0  0  0  0  0  0  0  0
  -23.0413  -28.3457   20.4487 C   0  0  0  0  0  0  0  0  0  0  0  0
  -31.4073  -20.8467   23.1711 C   0  0  0  0  0  0  0  0  0  0  0  0
  -25.5347  -18.1173   23.8668 C   0  0  0  0  0  0  0  0  0  0  0  0
  -24.1538  -17.5288   21.3190 C   0  0  0  0  0  0  0  0  0  0  0  0
  -30.9830  -19.6202   22.3673 C   0  0  0  0  0  0  0  0  0  0  0  0
  -25.9793  -30.4497   20.6464 C   0  0  0  0  0  0  0  0  0  0  0  0
  -29.9027  -19.9920   21.3566 C   0  0  0  0  0  0  0  0  0  0  0  0
  -27.0769  -29.4821   20.2000 C   0  0  0  0  0  0  0  0  0  0  0  0
  -24.9275  -29.7397   21.4936 C   0  0  0  0  0  0  0  0  0  0  0  0
  -25.4000  -27.5870   20.3908 C   0  0  0  0  0  0  0  0  0  0  0  0
  -28.6455  -20.5166   22.0606 C   0  0  1  0  0  0  0  0  0  0  0  0
  -26.2879  -17.5958   22.6470 C   0  0  1  0  0  0  0  0  0  0  0  0
  -26.4823  -28.2393   19.5115 C   0  0  2  0  0  0  0  0  0  0  0  0
  -20.1636  -30.4585   23.1879 C   0  0  0  0  0  0  0  0  0  0  0  0
  -22.7044  -11.2600   19.9976 C   0  0  0  0  0  0  0  0  0  0  0  0
  -26.3027  -16.5068   18.1554 C   0  0  0  0  0  0  0  0  0  0  0  0
  -24.8726  -14.5544   17.5142 C   0  0  0  0  0  0  0  0  0  0  0  0
  -27.0224  -14.1800   18.7228 C   0  0  0  0  0  0  0  0  0  0  0  0
  -22.1275  -12.9611   23.3516 C   0  0  0  0  0  0  0  0  0  0  0  0
  -18.4631  -25.0401   22.0881 C   0  0  0  0  0  0  0  0  0  0  0  0
  -20.7283  -29.2335   20.5854 C   0  0  0  0  0  0  0  0  0  0  0  0
  -20.4383  -21.9898   23.1427 C   0  0  0  0  0  0  0  0  0  1  0  0
  -25.0538  -15.1603   19.9700 C   0  0  1  0  0  0  0  0  0  0  0  0
  -23.0404  -12.1780   21.1625 C   0  0  2  0  0  0  0  0  0  0  0  0
  -25.8030  -15.1204   18.6082 C   0  0  0  0  0  0  0  0  0  0  0  0
  -28.6610  -27.1421   19.8737 N   0  0  0  0  0  0  0  0  0  0  0  0
  -27.5599  -27.2490   19.1107 N   0  0  0  0  0  0  0  0  0  0  0  0
  -25.4188  -16.8838   21.7078 N   0  0  0  0  0  0  0  0  0  0  0  0
  -24.3882  -28.5775   20.7735 N   0  0  0  0  0  0  0  0  0  0  0  0
  -26.5244  -26.3958   17.1587 N   0  0  0  0  0  0  0  0  0  0  0  0
  -30.4088  -24.1013   17.3652 N   0  0  0  0  0  0  0  0  0  0  0  0
  -27.8791  -19.4192   22.6107 N   0  0  0  0  0  0  0  0  0  0  0  0
  -19.2995  -24.0668   22.7515 N   0  0  0  0  0  0  0  0  0  0  0  0
  -24.5928  -13.8572   20.4368 N   0  0  0  0  0  0  0  0  0  0  0  0
  -22.1461  -29.3286   20.8529 N   0  0  0  0  0  0  0  0  0  0  0  0
  -21.9197  -12.1222   22.1432 N   0  3  0  0  0  0  0  0  0  0  0  0
  -28.4865  -24.4026   16.1517 O   0  0  0  0  0  0  0  0  0  0  0  0
  -26.6844  -18.8592   20.6920 O   0  0  0  0  0  0  0  0  0  0  0  0
  -26.9605  -15.1654   21.3810 O   0  0  0  0  0  0  0  0  0  0  0  0
  -19.0616  -22.3530   21.1975 O   0  0  0  0  0  0  0  0  0  0  0  0
  -22.3457  -14.4144   20.5681 O   0  0  0  0  0  0  0  0  0  0  0  0
  -22.6646  -27.3394   19.8384 O   0  0  0  0  0  0  0  0  0  0  0  0
  -34.3423  -24.6302   21.2745 O   0  0  0  0  0  0  0  0  0  0  0  0
  -20.6425  -20.6819   22.6098 O   0  0  0  0  0  0  0  0  0  1  0  0
  -35.4313  -19.2291   21.4908 F   0  0  0  0  0  0  0  0  0  0  0  0
  -34.3553  -23.0928   18.9769 F   0  0  0  0  0  0  0  0  0  0  0  0
  1  2  1  0  0  0  0
  1  5  2  0  0  0  0
  2  6  2  0  0  0  0
  3 10  2  0  0  0  0
  3 18  1  0  0  0  0
  4 11  1  0  0  0  0
  4 18  2  0  0  0  0
  5 20  1  0  0  0  0
  6 22  1  0  0  0  0
  7 12  2  0  0  0  0
  7 21  1  0  0  0  0
  8  9  2  0  0  0  0
  8 24  1  0  0  0  0
  9 25  1  0  0  0  0
 10 27  1  0  0  0  0
 11 27  2  0  0  0  0
 12 28  1  0  0  0  0
 13 14  2  0  0  0  0
 13 29  1  0  0  0  0
 14 30  1  0  0  0  0
 15 23  1  0  0  0  0
 15 28  2  0  0  0  0
 16 24  2  0  0  0  0
 16 26  1  0  0  0  0
 17 30  2  0  0  0  0
 17 31  1  0  0  0  0
 18 32  1  0  0  0  0
 19 32  1  0  0  0  0
 19 33  2  0  0  0  0
 19 34  1  0  0  0  0
 20 22  2  0  0  0  0
 20 40  1  0  0  0  0
 21 23  2  0  0  0  0
 21 41  1  0  0  0  0
 22 49  1  0  0  0  0
 23 42  1  0  0  0  0
 24 58  1  0  0  0  0
 25 26  2  0  0  0  0
 25 52  1  0  0  0  0
 26 59  1  0  0  0  0
 27 81  1  0  0  0  0
 28 82  1  0  0  0  0
 29 31  2  0  0  0  0
 29 81  1  0  0  0  0
 30 83  1  0  0  0  0
 31 84  1  0  0  0  0
 32 64  2  0  0  0  0
 33 65  1  0  0  0  0
 33 68  1  0  0  0  0
 34 69  1  0  0  0  0
 34 75  2  0  0  0  0
 35 50  1  0  0  0  0
 35 70  1  0  0  0  0
 35 76  2  0  0  0  0
 36 61  1  0  0  0  0
 36 66  1  0  0  0  0
 36 77  2  0  0  0  0
 37 60  1  0  0  0  0
 37 71  1  0  0  0  0
 37 78  2  0  0  0  0
 38 62  1  0  0  0  0
 38 72  1  0  0  0  0
 38 79  2  0  0  0  0
 39 67  1  0  0  0  0
 39 73  1  0  0  0  0
 39 80  2  0  0  0  0
 40 43  1  0  0  0  0
 41 50  1  0  0  0  0
 42 66  1  0  0  0  0
 43 45  1  0  0  0  0
 44 46  1  0  0  0  0
 44 47  1  0  0  0  0
 45 49  1  0  0  0  0
 46 51  1  0  0  0  0
 47 67  1  0  0  0  0
 48 51  1  0  0  0  0
 48 67  1  0  0  0  0
 49 70  1  0  0  0  0
 50 66  1  0  0  0  0
 51 65  1  0  0  0  0
 53 62  1  0  0  0  0
 54 63  1  0  0  0  0
 55 63  1  0  0  0  0
 56 63  1  0  0  0  0
 57 74  1  0  0  0  0
 58 71  1  0  0  0  0
 59 73  1  0  0  0  0
 60 82  1  0  0  0  0
 61 63  1  0  0  0  0
 61 72  1  0  0  0  0
 62 74  1  0  0  0  0
 64 65  1  0  0  0  0
M  CHG  1  74   1
M  ISO  4  39 100  60 101  73 100  82 101
M  END
> <Batch ID>
0104

> <Smiles>
CNC(C)C(=O)NC(C(=O)N1Cc2cc([101O:1][101CH2:1]C(=O)NCc3ccc(C)c(C[100NH:0][100C:0](=O)N4CCCC(n5nc(-c6ccc(Oc7ccc(F)cc7F)cc6)c(C(N)=O)c5N)C4)c3)ccc2CC1C(=O)NC1CCCc2ccccc21)C(C)(C)C

> <Shape>
0.189

> <Color>
0.078

> <Negative vol penalty>
0.000

$$$$

  -OEChem-04052301083D

 87 96  0     1  0  0  0  0  0999 V2000
  -24.7224  -12.0538   20.2195 C   0  0  0  0  0  0  0  0  0  0  0  0
  -24.0895  -13.1715   20.7537 C   0  0  0  0  0  0  0  0  0  0  0  0
  -23.8068  -32.2936   21.0522 C   0  0  0  0  0  0  0  0  0  0  0  0
  -24.9941  -30.8907   22.6205 C   0  0  0  0  0  0  0  0  0  0  0  0
  -26.1143  -12.0068   20.1545 C   0  0  0  0  0  0  0  0  0  0  0  0
  -24.8482  -14.2427   21.2243 C   0  0  0  0  0  0  0  0  0  0  0  0
  -23.0279  -18.7223   19.7197 C   0  0  0  0  0  0  0  0  0  0  0  0
  -20.6628  -23.7115   25.8911 C   0  0  0  0  0  0  0  0  0  0  0  0
  -20.6347  -22.4031   25.4085 C   0  0  0  0  0  0  0  0  0  0  0  0
  -24.7005  -33.3340   21.3063 C   0  0  0  0  0  0  0  0  0  0  0  0
  -25.8878  -31.9311   22.8745 C   0  0  0  0  0  0  0  0  0  0  0  0
  -21.9173  -19.2194   20.4003 C   0  0  0  0  0  0  0  0  0  0  0  0
  -26.4563  -36.4781   21.8111 C   0  0  0  0  0  0  0  0  0  0  0  0
  -25.9292  -37.7547   22.0065 C   0  0  0  0  0  0  0  0  0  0  0  0
  -23.3604  -20.6565   21.6931 C   0  0  0  0  0  0  0  0  0  0  0  0
  -18.3115  -23.5643   26.4267 C   0  0  0  0  0  0  0  0  0  0  0  0
  -24.6668  -36.9436   23.9001 C   0  0  0  0  0  0  0  0  0  0  0  0
  -23.9536  -31.0719   21.7094 C   0  0  0  0  0  0  0  0  0  0  0  0
  -23.1473  -28.9964   20.4645 C   0  0  0  0  0  0  0  0  0  0  0  0
  -26.8903  -13.0820   20.6156 C   0  0  0  0  0  0  0  0  0  0  0  0
  -24.3163  -19.1815   20.0287 C   0  0  0  0  0  0  0  0  0  0  0  0
  -26.2519  -14.2095   21.1666 C   0  0  0  0  0  0  0  0  0  0  0  0
  -24.4854  -20.1656   21.0131 C   0  0  0  0  0  0  0  0  0  0  0  0
  -19.5011  -24.2921   26.4003 C   0  0  0  0  0  0  0  0  0  0  0  0
  -19.4451  -21.6753   25.4350 C   0  0  0  0  0  0  0  0  0  0  0  0
  -25.7410  -33.1527   22.2174 C   0  0  0  0  0  0  0  0  0  0  0  0
  -22.0837  -20.1846   21.3892 C   0  0  0  0  0  0  0  0  0  0  0  0
  -26.0886  -35.4343   22.6601 C   0  0  0  0  0  0  0  0  0  0  0  0
  -25.0345  -37.9874   23.0510 C   0  0  0  0  0  0  0  0  0  0  0  0
  -18.2834  -22.2559   25.9441 C   0  0  0  0  0  0  0  0  0  0  0  0
  -25.1939  -35.6670   23.7046 C   0  0  0  0  0  0  0  0  0  0  0  0
  -23.0304  -29.9970   21.4478 C   0  0  0  0  0  0  0  0  0  0  0  0
  -22.0233  -28.2237   20.6256 C   0  0  0  0  0  0  0  0  0  0  0  0
  -17.3633  -19.2786   23.8392 C   0  0  0  0  0  0  0  0  0  0  0  0
  -24.1797  -28.7843   19.4924 C   0  0  0  0  0  0  0  0  0  0  0  0
  -26.9703  -17.8339   21.1442 C   0  0  0  0  0  0  0  0  0  0  0  0
  -28.2364  -20.7637   20.5649 C   0  0  0  0  0  0  0  0  0  0  0  0
  -27.7249  -24.1151   20.1738 C   0  0  0  0  0  0  0  0  0  0  0  0
  -18.4141  -27.1992   25.2920 C   0  0  0  0  0  0  0  0  0  0  0  0
  -28.3932  -12.9656   20.5679 C   0  0  0  0  0  0  0  0  0  0  0  0
  -25.5014  -18.6546   19.2668 C   0  0  0  0  0  0  0  0  0  0  0  0
  -25.8455  -20.7064   21.3684 C   0  0  0  0  0  0  0  0  0  0  0  0
  -16.6935  -19.4025   22.4926 C   0  0  0  0  0  0  0  0  0  0  0  0
  -29.1134  -14.3000   20.7440 C   0  0  0  0  0  0  0  0  0  0  0  0
  -17.2671  -20.6989   21.9278 C   0  0  0  0  0  0  0  0  0  0  0  0
  -17.4809  -28.4842   22.1054 C   0  0  0  0  0  0  0  0  0  0  0  0
  -28.5178  -15.0778   21.9132 C   0  0  0  0  0  0  0  0  0  0  0  0
  -18.8079  -28.9274   21.4868 C   0  0  0  0  0  0  0  0  0  0  0  0
  -17.4467  -28.7398   23.6105 C   0  0  0  0  0  0  0  0  0  0  0  0
  -19.9039  -28.6064   23.7438 C   0  0  0  0  0  0  0  0  0  0  0  0
  -27.0397  -15.4018   21.6645 C   0  0  1  0  0  0  0  0  0  0  0  0
  -26.8176  -18.8195   20.0204 C   0  0  1  0  0  0  0  0  0  0  0  0
  -20.0075  -28.3173   22.2365 C   0  0  2  0  0  0  0  0  0  0  0  0
  -18.6535  -20.8035   22.5557 C   0  0  2  0  0  0  0  0  0  0  0  0
  -28.9570  -26.2593   19.7475 C   0  0  0  0  0  0  0  0  0  0  0  0
  -29.2072  -20.7782   23.4575 C   0  0  0  0  0  0  0  0  0  0  0  0
  -29.5651  -23.2475   23.2519 C   0  0  0  0  0  0  0  0  0  0  0  0
  -30.8508  -21.6776   21.8010 C   0  0  0  0  0  0  0  0  0  0  0  0
  -26.2526  -24.5950   17.6517 C   0  0  0  0  0  0  0  0  0  0  0  0
  -19.4176  -20.2675   24.9137 C   0  0  0  0  0  0  0  0  0  0  0  0
  -19.5310  -25.6910   26.9159 C   0  0  0  0  0  0  0  0  0  0  0  0
  -19.7249  -20.1479   21.6904 C   0  0  0  0  0  0  0  0  0  1  0  0
  -28.3879  -22.0389   21.3586 C   0  0  1  0  0  0  0  0  0  0  0  0
  -28.2119  -25.0921   19.1189 C   0  0  2  0  0  0  0  0  0  0  0  0
  -29.4772  -21.9241   22.4621 C   0  0  0  0  0  0  0  0  0  0  0  0
  -21.9197  -29.8738   22.1793 N   0  0  0  0  0  0  0  0  0  0  0  0
  -21.3283  -28.7868   21.6553 N   0  0  0  0  0  0  0  0  0  0  0  0
  -18.4794  -20.1123   23.8207 N   0  0  0  0  0  0  0  0  0  0  0  0
  -26.9737  -20.1552   20.5997 N   0  0  0  0  0  0  0  0  0  0  0  0
  -18.6105  -28.1340   24.2621 N   0  0  0  0  0  0  0  0  0  0  0  0
  -21.5714  -27.1244   19.9855 N   0  0  0  0  0  0  0  0  0  0  0  0
  -25.2639  -29.6721   19.4646 N   0  0  0  0  0  0  0  0  0  0  0  0
  -26.9134  -16.5122   20.7451 N   0  0  0  0  0  0  0  0  0  0  0  0
  -28.6319  -23.0985   20.3860 N   0  0  0  0  0  0  0  0  0  0  0  0
  -19.5702  -26.6687   25.8513 N   0  0  0  0  0  0  0  0  0  0  0  0
  -27.0604  -25.6328   18.3426 N   0  3  0  0  0  0  0  0  0  0  0  0
  -16.9836  -18.5428   24.7378 O   0  0  0  0  0  0  0  0  0  0  0  0
  -24.1338  -27.8452   18.6620 O   0  0  0  0  0  0  0  0  0  0  0  0
  -27.1295  -18.2423   22.2886 O   0  0  0  0  0  0  0  0  0  0  0  0
  -29.2008  -20.3275   19.9314 O   0  0  0  0  0  0  0  0  0  0  0  0
  -26.6492  -24.2433   20.7543 O   0  0  0  0  0  0  0  0  0  0  0  0
  -17.2916  -26.8583   25.6803 O   0  0  0  0  0  0  0  0  0  0  0  0
  -26.6134  -34.1676   22.4653 O   0  0  0  0  0  0  0  0  0  0  0  0
  -21.0015  -20.6710   22.0555 O   0  0  0  0  0  0  0  0  0  1  0  0
  -24.5296  -39.2137   23.2394 F   0  0  0  0  0  0  0  0  0  0  0  0
  -17.1354  -21.5646   25.9727 F   0  0  0  0  0  0  0  0  0  0  0  0
  -24.8379  -34.6684   24.5243 F   0  0  0  0  0  0  0  0  0  0  0  0
  1  2  1  0  0  0  0
  1  5  2  0  0  0  0
  2  6  2  0  0  0  0
  3 10  2  0  0  0  0
  3 18  1  0  0  0  0
  4 11  1  0  0  0  0
  4 18  2  0  0  0  0
  5 20  1  0  0  0  0
  6 22  1  0  0  0  0
  7 12  2  0  0  0  0
  7 21  1  0  0  0  0
  8  9  2  0  0  0  0
  8 24  1  0  0  0  0
  9 25  1  0  0  0  0
 10 26  1  0  0  0  0
 11 26  2  0  0  0  0
 12 27  1  0  0  0  0
 13 14  2  0  0  0  0
 13 28  1  0  0  0  0
 14 29  1  0  0  0  0
 15 23  1  0  0  0  0
 15 27  2  0  0  0  0
 16 24  2  0  0  0  0
 16 30  1  0  0  0  0
 17 29  2  0  0  0  0
 17 31  1  0  0  0  0
 18 32  1  0  0  0  0
 19 32  1  0  0  0  0
 19 33  2  0  0  0  0
 19 35  1  0  0  0  0
 20 22  2  0  0  0  0
 20 40  1  0  0  0  0
 21 23  2  0  0  0  0
 21 41  1  0  0  0  0
 22 51  1  0  0  0  0
 23 42  1  0  0  0  0
 24 61  1  0  0  0  0
 25 30  2  0  0  0  0
 25 60  1  0  0  0  0
 26 83  1  0  0  0  0
 27 84  1  0  0  0  0
 28 31  2  0  0  0  0
 28 83  1  0  0  0  0
 29 85  1  0  0  0  0
 30 86  1  0  0  0  0
 31 87  1  0  0  0  0
 32 66  2  0  0  0  0
 33 67  1  0  0  0  0
 33 71  1  0  0  0  0
 34 43  1  0  0  0  0
 34 68  1  0  0  0  0
 34 77  2  0  0  0  0
 35 72  1  0  0  0  0
 35 78  2  0  0  0  0
 36 52  1  0  0  0  0
 36 73  1  0  0  0  0
 36 79  2  0  0  0  0
 37 63  1  0  0  0  0
 37 69  1  0  0  0  0
 37 80  2  0  0  0  0
 38 64  1  0  0  0  0
 38 74  1  0  0  0  0
 38 81  2  0  0  0  0
 39 70  1  0  0  0  0
 39 75  1  0  0  0  0
 39 82  2  0  0  0  0
 40 44  1  0  0  0  0
 41 52  1  0  0  0  0
 42 69  1  0  0  0  0
 43 45  1  0  0  0  0
 44 47  1  0  0  0  0
 45 54  1  0  0  0  0
 46 48  1  0  0  0  0
 46 49  1  0  0  0  0
 47 51  1  0  0  0  0
 48 53  1  0  0  0  0
 49 70  1  0  0  0  0
 50 53  1  0  0  0  0
 50 70  1  0  0  0  0
 51 73  1  0  0  0  0
 52 69  1  0  0  0  0
 53 67  1  0  0  0  0
 54 62  1  0  0  0  0
 54 68  1  0  0  0  0
 55 64  1  0  0  0  0
 56 65  1  0  0  0  0
 57 65  1  0  0  0  0
 58 65  1  0  0  0  0
 59 76  1  0  0  0  0
 60 68  1  0  0  0  0
 61 75  1  0  0  0  0
 62 84  1  0  0  0  0
 63 65  1  0  0  0  0
 63 74  1  0  0  0  0
 64 76  1  0  0  0  0
 66 67  1  0  0  0  0
M  CHG  1  76   1
M  ISO  4  39 100  62 101  75 100  84 101
M  END
> <Batch ID>
0104

> <Smiles>
CNC(C)C(=O)NC(C(=O)N1Cc2cc([101O:1][101CH2:1]C3CCC(=O)N3Cc3ccc(C[100NH:0][100C:0](=O)N4CCCC(n5nc(-c6ccc(Oc7ccc(F)cc7F)cc6)c(C(N)=O)c5N)C4)cc3F)ccc2CC1C(=O)NC1CCCc2ccccc21)C(C)(C)C

> <Shape>
0.227

> <Color>
0.052

> <Negative vol penalty>
0.000

$$$$

  -OEChem-04052301083D

 87 95  0     1  0  0  0  0  0999 V2000
  -21.2968  -20.6666   24.1465 C   0  0  0  0  0  0  0  0  0  0  0  0
  -22.3537  -21.1094   23.3577 C   0  0  0  0  0  0  0  0  0  0  0  0
  -24.8170  -11.6809   20.2404 C   0  0  0  0  0  0  0  0  0  0  0  0
  -25.5021  -12.5007   22.4074 C   0  0  0  0  0  0  0  0  0  0  0  0
  -20.1533  -21.4526   24.2830 C   0  0  0  0  0  0  0  0  0  0  0  0
  -22.2674  -22.3381   22.7040 C   0  0  0  0  0  0  0  0  0  0  0  0
  -26.8406  -26.2681   21.6333 C   0  0  0  0  0  0  0  0  0  0  0  0
  -25.0698  -10.3733   20.6551 C   0  0  0  0  0  0  0  0  0  0  0  0
  -25.7548  -11.1931   22.8221 C   0  0  0  0  0  0  0  0  0  0  0  0
  -27.6299  -26.5049   20.5087 C   0  0  0  0  0  0  0  0  0  0  0  0
  -25.1914   -6.7913   21.2625 C   0  0  0  0  0  0  0  0  0  0  0  0
  -24.2398   -5.8184   20.9566 C   0  0  0  0  0  0  0  0  0  0  0  0
  -26.1679  -28.3148   19.8713 C   0  0  0  0  0  0  0  0  0  0  0  0
  -25.8727  -22.2107   17.4792 C   0  0  0  0  0  0  0  0  0  0  0  0
  -24.9789  -24.3665   16.8547 C   0  0  0  0  0  0  0  0  0  0  0  0
  -24.2049  -23.2745   18.8661 C   0  0  0  0  0  0  0  0  0  0  0  0
  -22.5841   -7.0397   22.2233 C   0  0  0  0  0  0  0  0  0  0  0  0
  -25.0332  -12.7446   21.1165 C   0  0  0  0  0  0  0  0  0  0  0  0
  -23.5624  -14.8052   20.8030 C   0  0  0  0  0  0  0  0  0  0  0  0
  -20.0568  -22.6959   23.6385 C   0  0  0  0  0  0  0  0  0  0  0  0
  -25.7010  -27.0471   21.8800 C   0  0  0  0  0  0  0  0  0  0  0  0
  -21.1210  -23.1408   22.8310 C   0  0  0  0  0  0  0  0  0  0  0  0
  -25.3673  -28.0875   21.0011 C   0  0  0  0  0  0  0  0  0  0  0  0
  -25.8328  -23.2933   16.6006 C   0  0  0  0  0  0  0  0  0  0  0  0
  -25.0588  -22.2013   18.6119 C   0  0  0  0  0  0  0  0  0  0  0  0
  -24.1649  -24.3572   17.9875 C   0  0  0  0  0  0  0  0  0  0  0  0
  -25.5387  -10.1294   21.9460 C   0  0  0  0  0  0  0  0  0  0  0  0
  -27.2919  -27.5265   19.6260 C   0  0  0  0  0  0  0  0  0  0  0  0
  -24.8395   -7.8883   22.0489 C   0  0  0  0  0  0  0  0  0  0  0  0
  -22.9361   -5.9427   21.4369 C   0  0  0  0  0  0  0  0  0  0  0  0
  -23.5358   -8.0125   22.5292 C   0  0  0  0  0  0  0  0  0  0  0  0
  -24.7728  -14.0956   20.6885 C   0  0  0  0  0  0  0  0  0  0  0  0
  -23.8320  -16.0348   20.2535 C   0  0  0  0  0  0  0  0  0  0  0  0
  -22.3067  -14.3900   21.3565 C   0  0  0  0  0  0  0  0  0  0  0  0
  -22.5865  -26.4555   22.1110 C   0  0  0  0  0  0  0  0  0  0  0  0
  -22.4543  -29.5775   22.9817 C   0  0  0  0  0  0  0  0  0  0  0  0
  -28.8724  -24.3791   15.9381 C   0  0  0  0  0  0  0  0  0  0  0  0
  -23.8851  -32.6744   22.8883 C   0  0  0  0  0  0  0  0  0  0  0  0
  -27.4878  -20.3845   20.0744 C   0  0  0  0  0  0  0  0  0  0  0  0
  -18.7815  -23.4888   23.7779 C   0  0  0  0  0  0  0  0  0  0  0  0
  -24.8752  -26.7961   23.1118 C   0  0  0  0  0  0  0  0  0  0  0  0
  -24.1654  -28.9654   21.2316 C   0  0  0  0  0  0  0  0  0  0  0  0
  -18.9223  -24.9484   23.3536 C   0  0  0  0  0  0  0  0  0  0  0  0
  -27.7898  -17.6687   17.5774 C   0  0  0  0  0  0  0  0  0  0  0  0
  -19.6550  -25.0482   22.0195 C   0  0  0  0  0  0  0  0  0  0  0  0
  -26.9878  -16.5369   18.2177 C   0  0  0  0  0  0  0  0  0  0  0  0
  -28.3895  -18.6019   18.6249 C   0  0  0  0  0  0  0  0  0  0  0  0
  -26.5893  -18.0255   20.2191 C   0  0  0  0  0  0  0  0  0  0  0  0
  -21.0750  -24.4791   22.1260 C   0  0  1  0  0  0  0  0  0  0  0  0
  -23.4469  -27.3182   22.9902 C   0  0  1  0  0  0  0  0  0  0  0  0
  -25.9329  -17.0936   19.1895 C   0  0  2  0  0  0  0  0  0  0  0  0
  -23.5245  -35.0350   23.6593 C   0  0  0  0  0  0  0  0  0  0  0  0
  -20.3609  -29.9687   20.7967 C   0  0  0  0  0  0  0  0  0  0  0  0
  -20.7420  -32.4371   20.9704 C   0  0  0  0  0  0  0  0  0  0  0  0
  -19.8734  -31.1696   22.9355 C   0  0  0  0  0  0  0  0  0  0  0  0
  -26.3024  -22.0445   21.4596 C   0  0  0  0  0  0  0  0  0  0  0  0
  -26.3733  -32.6541   24.4906 C   0  0  0  0  0  0  0  0  0  0  0  0
  -26.7088  -23.3033   15.3813 C   0  0  0  0  0  0  0  0  0  0  0  0
  -25.1016  -21.0436   19.5512 C   0  0  0  0  0  0  0  0  0  0  0  0
  -29.6091  -25.6984   15.7895 C   0  0  0  0  0  0  0  0  0  0  0  0
  -28.8756  -26.8544   16.4600 C   0  0  0  0  0  0  0  0  0  0  0  0
  -28.7395  -26.6397   17.9604 C   0  0  0  0  0  0  0  0  0  1  0  0
  -22.2896  -30.8861   22.2474 C   0  0  1  0  0  0  0  0  0  0  0  0
  -24.1587  -33.6910   23.9820 C   0  0  2  0  0  0  0  0  0  0  0  0
  -20.8381  -31.0978   21.7318 C   0  0  0  0  0  0  0  0  0  0  0  0
  -25.7394  -14.8144   20.1115 N   0  0  0  0  0  0  0  0  0  0  0  0
  -25.1366  -15.9886   19.8584 N   0  0  0  0  0  0  0  0  0  0  0  0
  -23.3859  -28.6765   22.4467 N   0  0  0  0  0  0  0  0  0  0  0  0
  -27.3727  -19.0820   19.5613 N   0  0  0  0  0  0  0  0  0  0  0  0
  -23.3015  -25.4424   18.2444 N   0  0  0  0  0  0  0  0  0  0  0  0
  -23.0780  -17.1401   20.0745 N   0  0  0  0  0  0  0  0  0  0  0  0
  -22.2027  -13.0937   21.8790 N   0  0  0  0  0  0  0  0  0  0  0  0
  -21.9515  -25.4268   22.7803 N   0  0  0  0  0  0  0  0  0  0  0  0
  -27.6075  -24.4332   15.3711 N   0  0  0  0  0  0  0  0  0  0  0  0
  -22.7584  -31.9262   23.1566 N   0  0  0  0  0  0  0  0  0  0  0  0
  -26.2966  -21.0543   20.3921 N   0  0  0  0  0  0  0  0  0  0  0  0
  -25.6261  -33.8914   24.1477 N   0  3  0  0  0  0  0  0  0  0  0  0
  -21.3017  -15.1406   21.3720 O   0  0  0  0  0  0  0  0  0  0  0  0
  -22.5036  -26.7056   20.9142 O   0  0  0  0  0  0  0  0  0  0  0  0
  -21.7863  -29.3654   23.9968 O   0  0  0  0  0  0  0  0  0  0  0  0
  -29.3544  -23.3961   16.4944 O   0  0  0  0  0  0  0  0  0  0  0  0
  -24.5975  -32.5582   21.8935 O   0  0  0  0  0  0  0  0  0  0  0  0
  -28.5920  -20.9216   20.2302 O   0  0  0  0  0  0  0  0  0  0  0  0
  -25.7852   -8.8536   22.3511 O   0  0  0  0  0  0  0  0  0  0  0  0
  -28.0602  -27.7594   18.5271 O   0  0  0  0  0  0  0  0  0  1  0  0
  -22.0220   -5.0092   21.1417 F   0  0  0  0  0  0  0  0  0  0  0  0
  -23.1915   -9.0648   23.2842 F   0  0  0  0  0  0  0  0  0  0  0  0
  1  2  1  0  0  0  0
  1  5  2  0  0  0  0
  2  6  2  0  0  0  0
  3  8  2  0  0  0  0
  3 18  1  0  0  0  0
  4  9  1  0  0  0  0
  4 18  2  0  0  0  0
  5 20  1  0  0  0  0
  6 22  1  0  0  0  0
  7 10  2  0  0  0  0
  7 21  1  0  0  0  0
  8 27  1  0  0  0  0
  9 27  2  0  0  0  0
 10 28  1  0  0  0  0
 11 12  2  0  0  0  0
 11 29  1  0  0  0  0
 12 30  1  0  0  0  0
 13 23  1  0  0  0  0
 13 28  2  0  0  0  0
 14 24  2  0  0  0  0
 14 25  1  0  0  0  0
 15 24  1  0  0  0  0
 15 26  2  0  0  0  0
 16 25  2  0  0  0  0
 16 26  1  0  0  0  0
 17 30  2  0  0  0  0
 17 31  1  0  0  0  0
 18 32  1  0  0  0  0
 19 32  1  0  0  0  0
 19 33  2  0  0  0  0
 19 34  1  0  0  0  0
 20 22  2  0  0  0  0
 20 40  1  0  0  0  0
 21 23  2  0  0  0  0
 21 41  1  0  0  0  0
 22 49  1  0  0  0  0
 23 42  1  0  0  0  0
 24 58  1  0  0  0  0
 25 59  1  0  0  0  0
 26 70  1  0  0  0  0
 27 84  1  0  0  0  0
 28 85  1  0  0  0  0
 29 31  2  0  0  0  0
 29 84  1  0  0  0  0
 30 86  1  0  0  0  0
 31 87  1  0  0  0  0
 32 66  2  0  0  0  0
 33 67  1  0  0  0  0
 33 71  1  0  0  0  0
 34 72  1  0  0  0  0
 34 78  2  0  0  0  0
 35 50  1  0  0  0  0
 35 73  1  0  0  0  0
 35 79  2  0  0  0  0
 36 63  1  0  0  0  0
 36 68  1  0  0  0  0
 36 80  2  0  0  0  0
 37 60  1  0  0  0  0
 37 74  1  0  0  0  0
 37 81  2  0  0  0  0
 38 64  1  0  0  0  0
 38 75  1  0  0  0  0
 38 82  2  0  0  0  0
 39 69  1  0  0  0  0
 39 76  1  0  0  0  0
 39 83  2  0  0  0  0
 40 43  1  0  0  0  0
 41 50  1  0  0  0  0
 42 68  1  0  0  0  0
 43 45  1  0  0  0  0
 44 46  1  0  0  0  0
 44 47  1  0  0  0  0
 45 49  1  0  0  0  0
 46 51  1  0  0  0  0
 47 69  1  0  0  0  0
 48 51  1  0  0  0  0
 48 69  1  0  0  0  0
 49 73  1  0  0  0  0
 50 68  1  0  0  0  0
 51 67  1  0  0  0  0
 52 64  1  0  0  0  0
 53 65  1  0  0  0  0
 54 65  1  0  0  0  0
 55 65  1  0  0  0  0
 56 76  1  0  0  0  0
 57 77  1  0  0  0  0
 58 74  1  0  0  0  0
 59 76  1  0  0  0  0
 60 61  1  0  0  0  0
 61 62  1  0  0  0  0
 62 85  1  0  0  0  0
 63 65  1  0  0  0  0
 63 75  1  0  0  0  0
 64 77  1  0  0  0  0
 66 67  1  0  0  0  0
M  CHG  1  77   1
M  ISO  4  39 100  62 101  76 100  85 101
M  END
> <Batch ID>
0104

> <Smiles>
CNC(C)C(=O)NC(C(=O)N1Cc2cc([101O:1][101CH2:1]CCC(=O)NCc3cc(N)cc(C[100N:0](C)[100C:0](=O)N4CCCC(n5nc(-c6ccc(Oc7ccc(F)cc7F)cc6)c(C(N)=O)c5N)C4)c3)ccc2CC1C(=O)NC1CCCc2ccccc21)C(C)(C)C

> <Shape>
0.208

> <Color>
0.066

> <Negative vol penalty>
0.000

$$$$

  -OEChem-04052301083D

 85 93  0     1  0  0  0  0  0999 V2000
  -25.4131  -37.6740   19.4505 C   0  0  0  0  0  0  0  0  0  0  0  0
  -26.1185  -36.4997   19.2082 C   0  0  0  0  0  0  0  0  0  0  0  0
  -22.5889  -11.9521   18.9746 C   0  0  0  0  0  0  0  0  0  0  0  0
  -22.5420  -10.4416   20.8596 C   0  0  0  0  0  0  0  0  0  0  0  0
  -30.1006  -17.2072   21.4679 C   0  0  0  0  0  0  0  0  0  0  0  0
  -24.6398  -37.7960   20.6041 C   0  0  0  0  0  0  0  0  0  0  0  0
  -26.0518  -35.4468   20.1201 C   0  0  0  0  0  0  0  0  0  0  0  0
  -26.1598  -29.4582   18.8434 C   0  0  0  0  0  0  0  0  0  0  0  0
  -29.5082  -18.4396   21.7431 C   0  0  0  0  0  0  0  0  0  0  0  0
  -21.3897  -11.4111   18.5112 C   0  0  0  0  0  0  0  0  0  0  0  0
  -21.3427   -9.9006   20.3963 C   0  0  0  0  0  0  0  0  0  0  0  0
  -27.1821  -28.5107   18.8749 C   0  0  0  0  0  0  0  0  0  0  0  0
  -18.0672  -10.7320   20.4098 C   0  0  0  0  0  0  0  0  0  0  0  0
  -17.0480  -10.5276   21.3399 C   0  0  0  0  0  0  0  0  0  0  0  0
  -26.4858  -27.8416   21.0855 C   0  0  0  0  0  0  0  0  0  0  0  0
  -30.6220  -19.4028   19.8277 C   0  0  0  0  0  0  0  0  0  0  0  0
  -17.0623   -8.1647   20.8361 C   0  0  0  0  0  0  0  0  0  0  0  0
  -23.1651  -11.4673   20.1488 C   0  0  0  0  0  0  0  0  0  0  0  0
  -30.9539  -17.0726   20.3726 C   0  0  0  0  0  0  0  0  0  0  0  0
  -24.5629  -13.1149   21.5050 C   0  0  0  0  0  0  0  0  0  0  0  0
  -24.5558  -36.7405   21.5258 C   0  0  0  0  0  0  0  0  0  0  0  0
  -25.2982  -29.6122   19.9390 C   0  0  0  0  0  0  0  0  0  0  0  0
  -25.2776  -35.5553   21.2878 C   0  0  0  0  0  0  0  0  0  0  0  0
  -25.4518  -28.7900   21.0644 C   0  0  0  0  0  0  0  0  0  0  0  0
  -31.2145  -18.1704   19.5526 C   0  0  0  0  0  0  0  0  0  0  0  0
  -29.7688  -19.5374   20.9230 C   0  0  0  0  0  0  0  0  0  0  0  0
  -20.7666  -10.3854   19.2220 C   0  0  0  0  0  0  0  0  0  0  0  0
  -27.3470  -27.7042   19.9972 C   0  0  0  0  0  0  0  0  0  0  0  0
  -18.5839   -9.6528   19.6928 C   0  0  0  0  0  0  0  0  0  0  0  0
  -16.5456   -9.2439   21.5531 C   0  0  0  0  0  0  0  0  0  0  0  0
  -18.0814   -8.3692   19.9059 C   0  0  0  0  0  0  0  0  0  0  0  0
  -24.4042  -12.0254   20.6277 C   0  0  0  0  0  0  0  0  0  0  0  0
  -25.9228  -13.2471   21.6458 C   0  0  0  0  0  0  0  0  0  0  0  0
  -31.5705  -15.7483   20.1028 C   0  0  0  0  0  0  0  0  0  0  0  0
  -23.5700  -13.9342   22.1362 C   0  0  0  0  0  0  0  0  0  0  0  0
  -24.6335  -31.9785   21.9546 C   0  0  0  0  0  0  0  0  0  0  0  0
  -22.3575  -29.9209   23.0073 C   0  0  0  0  0  0  0  0  0  0  0  0
  -21.2838  -26.6955   23.3092 C   0  0  0  0  0  0  0  0  0  0  0  0
  -31.0490  -13.3936   19.5485 C   0  0  0  0  0  0  0  0  0  0  0  0
  -23.7446  -36.9366   22.7821 C   0  0  0  0  0  0  0  0  0  0  0  0
  -24.1837  -30.6205   19.8787 C   0  0  0  0  0  0  0  0  0  0  0  0
  -24.5407  -28.9019   22.2585 C   0  0  0  0  0  0  0  0  0  0  0  0
  -23.4285  -35.6340   23.5125 C   0  0  0  0  0  0  0  0  0  0  0  0
  -29.6987  -10.1935   20.2062 C   0  0  0  0  0  0  0  0  0  0  0  0
  -24.6795  -34.7686   23.6265 C   0  0  0  0  0  0  0  0  0  0  0  0
  -28.2139  -10.4722   20.4552 C   0  0  0  0  0  0  0  0  0  0  0  0
  -30.2658  -11.0843   19.1019 C   0  0  0  0  0  0  0  0  0  0  0  0
  -28.5506  -12.7977   19.5263 C   0  0  0  0  0  0  0  0  0  0  0  0
  -25.2107  -34.3817   22.2410 C   0  0  1  0  0  0  0  0  0  0  0  0
  -23.6859  -31.0441   21.2571 C   0  0  1  0  0  0  0  0  0  0  0  0
  -27.9500  -11.9750   20.6777 C   0  0  1  0  0  0  0  0  0  0  0  0
  -32.1236  -18.0533   18.3728 C   0  0  0  0  0  0  0  0  0  0  0  0
  -19.4048  -25.3248   24.2514 C   0  0  0  0  0  0  0  0  0  0  0  0
  -23.4955  -30.2943   25.8137 C   0  0  0  0  0  0  0  0  0  0  0  0
  -22.2466  -28.2419   26.5178 C   0  0  0  0  0  0  0  0  0  0  0  0
  -20.9978  -30.2402   25.6995 C   0  0  0  0  0  0  0  0  0  0  0  0
  -20.5519  -25.6513   20.6384 C   0  0  0  0  0  0  0  0  0  0  0  0
  -28.6555  -23.1447   21.0001 C   0  0  0  0  0  0  0  0  0  0  0  0
  -28.8922  -24.4340   20.2124 C   0  0  0  0  0  0  0  0  0  0  0  0
  -29.3944  -21.9491   20.4044 C   0  0  0  0  0  0  0  0  0  0  0  0
  -28.1128  -25.6020   20.8035 C   0  0  0  0  0  0  0  0  0  1  0  0
  -22.3008  -28.8328   24.0523 C   0  0  1  0  0  0  0  0  0  0  0  0
  -19.9388  -26.0510   23.0265 C   0  0  2  0  0  0  0  0  0  0  0  0
  -22.2787  -29.4013   25.4992 C   0  0  0  0  0  0  0  0  0  0  0  0
  -25.5700  -11.5027   20.2385 N   0  0  0  0  0  0  0  0  0  0  0  0
  -26.4744  -12.2671   20.8740 N   0  0  0  0  0  0  0  0  0  0  0  0
  -23.4699  -29.9069   22.1541 N   0  0  0  0  0  0  0  0  0  0  0  0
  -29.9826  -12.4910   19.3920 N   0  0  0  0  0  0  0  0  0  0  0  0
  -26.6885  -14.1048   22.3531 N   0  0  0  0  0  0  0  0  0  0  0  0
  -22.2188  -13.6612   21.8829 N   0  0  0  0  0  0  0  0  0  0  0  0
  -29.1814  -20.7622   21.1979 N   0  0  0  0  0  0  0  0  0  0  0  0
  -30.6758  -14.7044   19.8658 N   0  0  0  0  0  0  0  0  0  0  0  0
  -24.4149  -33.3139   21.6746 N   0  0  0  0  0  0  0  0  0  0  0  0
  -21.1468  -28.0053   23.7177 N   0  0  0  0  0  0  0  0  0  0  0  0
  -20.0591  -25.0681   21.9128 N   0  3  0  0  0  0  0  0  0  0  0  0
  -32.7943  -15.6551   20.0644 O   0  0  0  0  0  0  0  0  0  0  0  0
  -23.8722  -14.8908   22.8894 O   0  0  0  0  0  0  0  0  0  0  0  0
  -25.4980  -31.5218   22.6933 O   0  0  0  0  0  0  0  0  0  0  0  0
  -21.4447  -30.7483   22.9457 O   0  0  0  0  0  0  0  0  0  0  0  0
  -22.3493  -26.0958   23.1839 O   0  0  0  0  0  0  0  0  0  0  0  0
  -32.2325  -13.0541   19.4520 O   0  0  0  0  0  0  0  0  0  0  0  0
  -19.5962   -9.8573   18.7703 O   0  0  0  0  0  0  0  0  0  0  0  0
  -28.3445  -26.7791   20.0307 O   0  0  0  0  0  0  0  0  0  1  0  0
  -15.5680   -9.0475   22.4474 F   0  0  0  0  0  0  0  0  0  0  0  0
  -18.5746   -7.3283   19.2209 F   0  0  0  0  0  0  0  0  0  0  0  0
  1  2  1  0  0  0  0
  1  6  2  0  0  0  0
  2  7  2  0  0  0  0
  3 10  2  0  0  0  0
  3 18  1  0  0  0  0
  4 11  1  0  0  0  0
  4 18  2  0  0  0  0
  5  9  2  0  0  0  0
  5 19  1  0  0  0  0
  6 21  1  0  0  0  0
  7 23  1  0  0  0  0
  8 12  2  0  0  0  0
  8 22  1  0  0  0  0
  9 26  1  0  0  0  0
 10 27  1  0  0  0  0
 11 27  2  0  0  0  0
 12 28  1  0  0  0  0
 13 14  2  0  0  0  0
 13 29  1  0  0  0  0
 14 30  1  0  0  0  0
 15 24  1  0  0  0  0
 15 28  2  0  0  0  0
 16 25  1  0  0  0  0
 16 26  2  0  0  0  0
 17 30  2  0  0  0  0
 17 31  1  0  0  0  0
 18 32  1  0  0  0  0
 19 25  2  0  0  0  0
 19 34  1  0  0  0  0
 20 32  1  0  0  0  0
 20 33  2  0  0  0  0
 20 35  1  0  0  0  0
 21 23  2  0  0  0  0
 21 40  1  0  0  0  0
 22 24  2  0  0  0  0
 22 41  1  0  0  0  0
 23 49  1  0  0  0  0
 24 42  1  0  0  0  0
 25 52  1  0  0  0  0
 26 71  1  0  0  0  0
 27 82  1  0  0  0  0
 28 83  1  0  0  0  0
 29 31  2  0  0  0  0
 29 82  1  0  0  0  0
 30 84  1  0  0  0  0
 31 85  1  0  0  0  0
 32 65  2  0  0  0  0
 33 66  1  0  0  0  0
 33 69  1  0  0  0  0
 34 72  1  0  0  0  0
 34 76  2  0  0  0  0
 35 70  1  0  0  0  0
 35 77  2  0  0  0  0
 36 50  1  0  0  0  0
 36 73  1  0  0  0  0
 36 78  2  0  0  0  0
 37 62  1  0  0  0  0
 37 67  1  0  0  0  0
 37 79  2  0  0  0  0
 38 63  1  0  0  0  0
 38 74  1  0  0  0  0
 38 80  2  0  0  0  0
 39 68  1  0  0  0  0
 39 72  1  0  0  0  0
 39 81  2  0  0  0  0
 40 43  1  0  0  0  0
 41 50  1  0  0  0  0
 42 67  1  0  0  0  0
 43 45  1  0  0  0  0
 44 46  1  0  0  0  0
 44 47  1  0  0  0  0
 45 49  1  0  0  0  0
 46 51  1  0  0  0  0
 47 68  1  0  0  0  0
 48 51  1  0  0  0  0
 48 68  1  0  0  0  0
 49 73  1  0  0  0  0
 50 67  1  0  0  0  0
 51 66  1  0  0  0  0
 53 63  1  0  0  0  0
 54 64  1  0  0  0  0
 55 64  1  0  0  0  0
 56 64  1  0  0  0  0
 57 75  1  0  0  0  0
 58 59  1  0  0  0  0
 58 60  1  0  0  0  0
 59 61  1  0  0  0  0
 60 71  1  0  0  0  0
 61 83  1  0  0  0  0
 62 64  1  0  0  0  0
 62 74  1  0  0  0  0
 63 75  1  0  0  0  0
 65 66  1  0  0  0  0
M  CHG  1  75   1
M  ISO  4  39 100  61 101  72 100  83 101
M  END
> <Batch ID>
0104

> <Smiles>
CNC(C)C(=O)NC(C(=O)N1Cc2cc([101O:1][101CH2:1]CCCNc3ccc(C(=O)[100NH:0][100C:0](=O)N4CCCC(n5nc(-c6ccc(Oc7ccc(F)cc7F)cc6)c(C(N)=O)c5N)C4)c(C)c3)ccc2CC1C(=O)NC1CCCc2ccccc21)C(C)(C)C

> <Shape>
0.282

> <Color>
0.099

> <Negative vol penalty>
0.000

$$$$

  -OEChem-04052301083D

 86 95  0     1  0  0  0  0  0999 V2000
  -14.8529  -11.1850   21.1580 C   0  0  0  0  0  0  0  0  0  0  0  0
  -15.6290  -12.0238   21.9514 C   0  0  0  0  0  0  0  0  0  0  0  0
  -23.0724   -9.8709   19.9420 C   0  0  0  0  0  0  0  0  0  0  0  0
  -23.8354   -9.8779   22.2343 C   0  0  0  0  0  0  0  0  0  0  0  0
  -15.0594  -11.1433   19.7798 C   0  0  0  0  0  0  0  0  0  0  0  0
  -16.6128  -12.8207   21.3671 C   0  0  0  0  0  0  0  0  0  0  0  0
  -18.3162  -18.4386   23.1118 C   0  0  0  0  0  0  0  0  0  0  0  0
  -28.5448  -19.7175   22.9910 C   0  0  0  0  0  0  0  0  0  0  0  0
  -29.3554  -18.9044   22.1989 C   0  0  0  0  0  0  0  0  0  0  0  0
  -22.3289   -8.7177   20.1929 C   0  0  0  0  0  0  0  0  0  0  0  0
  -23.0919   -8.7247   22.4853 C   0  0  0  0  0  0  0  0  0  0  0  0
  -19.3792  -18.8977   23.8883 C   0  0  0  0  0  0  0  0  0  0  0  0
  -19.9442   -5.9771   20.3246 C   0  0  0  0  0  0  0  0  0  0  0  0
  -18.6378   -5.9290   19.8381 C   0  0  0  0  0  0  0  0  0  0  0  0
  -20.6479  -19.3331   21.8833 C   0  0  0  0  0  0  0  0  0  0  0  0
  -28.9134  -18.2501   24.8746 C   0  0  0  0  0  0  0  0  0  0  0  0
  -18.0743   -7.8719   21.1591 C   0  0  0  0  0  0  0  0  0  0  0  0
  -23.8257  -10.4510   20.9626 C   0  0  0  0  0  0  0  0  0  0  0  0
  -24.1672  -12.9761   20.8421 C   0  0  0  0  0  0  0  0  0  0  0  0
  -16.0397  -11.9473   19.1771 C   0  0  0  0  0  0  0  0  0  0  0  0
  -18.4153  -18.4131   21.7132 C   0  0  0  0  0  0  0  0  0  0  0  0
  -16.8335  -12.7888   19.9797 C   0  0  0  0  0  0  0  0  0  0  0  0
  -19.5837  -18.8757   21.0912 C   0  0  0  0  0  0  0  0  0  0  0  0
  -28.3239  -19.3904   24.3289 C   0  0  0  0  0  0  0  0  0  0  0  0
  -29.9449  -17.7640   22.7446 C   0  0  0  0  0  0  0  0  0  0  0  0
  -22.3387   -8.1446   21.4646 C   0  0  0  0  0  0  0  0  0  0  0  0
  -20.5464  -19.3423   23.2742 C   0  0  0  0  0  0  0  0  0  0  0  0
  -20.3156   -6.9726   21.2285 C   0  0  0  0  0  0  0  0  0  0  0  0
  -17.7029   -6.8764   20.2553 C   0  0  0  0  0  0  0  0  0  0  0  0
  -29.7239  -17.4369   24.0825 C   0  0  0  0  0  0  0  0  0  0  0  0
  -19.3807   -7.9199   21.6456 C   0  0  0  0  0  0  0  0  0  0  0  0
  -24.5943  -11.6419   20.7038 C   0  0  0  0  0  0  0  0  0  0  0  0
  -25.2588  -13.7257   20.4773 C   0  0  0  0  0  0  0  0  0  0  0  0
  -22.8972  -13.4919   21.2628 C   0  0  0  0  0  0  0  0  0  0  0  0
  -18.3281  -16.1337   19.4995 C   0  0  0  0  0  0  0  0  0  0  0  0
  -18.4067  -18.6541   17.4588 C   0  0  0  0  0  0  0  0  0  0  0  0
  -19.2450  -21.9174   16.9161 C   0  0  0  0  0  0  0  0  0  0  0  0
  -30.7427  -14.7451   20.6582 C   0  0  0  0  0  0  0  0  0  0  0  0
  -16.2582  -11.8330   17.6892 C   0  0  0  0  0  0  0  0  0  0  0  0
  -17.2496  -17.9400   20.8888 C   0  0  0  0  0  0  0  0  0  0  0  0
  -19.7327  -18.8878   19.5925 C   0  0  0  0  0  0  0  0  0  0  0  0
  -17.0676  -12.9865   17.1020 C   0  0  0  0  0  0  0  0  0  0  0  0
  -29.6020  -12.3605   18.2730 C   0  0  0  0  0  0  0  0  0  0  0  0
  -18.2965  -13.2678   17.9608 C   0  0  0  0  0  0  0  0  0  0  0  0
  -28.1652  -12.0667   18.7079 C   0  0  0  0  0  0  0  0  0  0  0  0
  -23.9167  -20.6788   25.5622 C   0  0  0  0  0  0  0  0  0  0  0  0
  -30.5208  -12.5814   19.4726 C   0  0  0  0  0  0  0  0  0  0  0  0
  -28.6209  -13.3124   20.8618 C   0  0  0  0  0  0  0  0  0  0  0  0
  -25.2134  -20.5127   26.3376 C   0  0  0  0  0  0  0  0  0  0  0  0
  -25.3205  -19.3632   24.1832 C   0  0  0  0  0  0  0  0  0  0  0  0
  -17.8937  -13.6867   19.3799 C   0  0  1  0  0  0  0  0  0  0  0  0
  -17.6540  -17.4766   19.4927 C   0  0  1  0  0  0  0  0  0  0  0  0
  -23.8770  -19.4644   24.6452 C   0  0  2  0  0  0  0  0  0  0  0  0
  -27.6451  -13.1377   19.6855 C   0  0  2  0  0  0  0  0  0  0  0  0
  -19.2224  -23.6875   15.1375 C   0  0  0  0  0  0  0  0  0  0  0  0
  -20.8048  -17.3304   16.1146 C   0  0  0  0  0  0  0  0  0  0  0  0
  -21.3102  -19.5224   15.0155 C   0  0  0  0  0  0  0  0  0  0  0  0
  -19.1583  -18.3555   14.5358 C   0  0  0  0  0  0  0  0  0  0  0  0
  -17.4703  -23.6650   18.5147 C   0  0  0  0  0  0  0  0  0  0  0  0
  -30.8101  -16.8957   21.8950 C   0  0  0  0  0  0  0  0  0  0  0  0
  -27.4518  -20.2649   25.1809 C   0  0  0  0  0  0  0  0  0  0  0  0
  -22.8985  -19.6116   23.4997 C   0  0  0  0  0  0  0  0  0  1  0  0
  -19.4979  -19.4529   16.7880 C   0  0  1  0  0  0  0  0  0  0  0  0
  -18.4677  -23.0686   16.3038 C   0  0  2  0  0  0  0  0  0  0  0  0
  -20.1910  -18.6634   15.6418 C   0  0  0  0  0  0  0  0  0  0  0  0
  -25.8586  -11.5462   20.2838 N   0  0  0  0  0  0  0  0  0  0  0  0
  -26.2353  -12.8297   20.1550 N   0  0  0  0  0  0  0  0  0  0  0  0
  -18.5676  -18.4096   18.8300 N   0  0  0  0  0  0  0  0  0  0  0  0
  -29.9713  -13.6099   20.3594 N   0  0  0  0  0  0  0  0  0  0  0  0
  -25.4690  -15.0572   20.4040 N   0  0  0  0  0  0  0  0  0  0  0  0
  -21.8858  -12.5826   21.6014 N   0  0  0  0  0  0  0  0  0  0  0  0
  -17.4568  -15.0663   19.3947 N   0  0  0  0  0  0  0  0  0  0  0  0
  -18.8842  -20.7066   16.3639 N   0  0  0  0  0  0  0  0  0  0  0  0
  -30.1446  -15.6739   21.5011 N   0  0  0  0  0  0  0  0  0  0  0  0
  -26.1041  -19.6728   25.4405 N   0  3  1  0  0  0  0  0  0  0  0  0
  -18.2247  -24.1293   17.3221 N   0  3  0  0  0  0  0  0  0  0  0  0
  -22.6610  -14.7225   21.3204 O   0  0  0  0  0  0  0  0  0  0  0  0
  -19.5485  -16.0708   19.5913 O   0  0  0  0  0  0  0  0  0  0  0  0
  -17.4433  -18.2675   16.7924 O   0  0  0  0  0  0  0  0  0  0  0  0
  -20.0905  -22.0768   17.7938 O   0  0  0  0  0  0  0  0  0  0  0  0
  -31.8780  -14.9207   20.2030 O   0  0  0  0  0  0  0  0  0  0  0  0
  -21.6131   -7.0194   21.7100 O   0  0  0  0  0  0  0  0  0  0  0  0
  -21.5857  -19.7903   24.0298 O   0  0  0  0  0  0  0  0  0  1  0  0
  -16.4488   -6.8310   19.7868 F   0  0  0  0  0  0  0  0  0  0  0  0
  -30.2853  -16.3426   24.6153 F   0  0  0  0  0  0  0  0  0  0  0  0
  -19.7320   -8.8793   22.5128 F   0  0  0  0  0  0  0  0  0  0  0  0
  1  2  1  0  0  0  0
  1  5  2  0  0  0  0
  2  6  2  0  0  0  0
  3 10  2  0  0  0  0
  3 18  1  0  0  0  0
  4 11  1  0  0  0  0
  4 18  2  0  0  0  0
  5 20  1  0  0  0  0
  6 22  1  0  0  0  0
  7 12  2  0  0  0  0
  7 21  1  0  0  0  0
  8  9  2  0  0  0  0
  8 24  1  0  0  0  0
  9 25  1  0  0  0  0
 10 26  1  0  0  0  0
 11 26  2  0  0  0  0
 12 27  1  0  0  0  0
 13 14  2  0  0  0  0
 13 28  1  0  0  0  0
 14 29  1  0  0  0  0
 15 23  1  0  0  0  0
 15 27  2  0  0  0  0
 16 24  2  0  0  0  0
 16 30  1  0  0  0  0
 17 29  2  0  0  0  0
 17 31  1  0  0  0  0
 18 32  1  0  0  0  0
 19 32  1  0  0  0  0
 19 33  2  0  0  0  0
 19 34  1  0  0  0  0
 20 22  2  0  0  0  0
 20 39  1  0  0  0  0
 21 23  2  0  0  0  0
 21 40  1  0  0  0  0
 22 51  1  0  0  0  0
 23 41  1  0  0  0  0
 24 61  1  0  0  0  0
 25 30  2  0  0  0  0
 25 60  1  0  0  0  0
 26 82  1  0  0  0  0
 27 83  1  0  0  0  0
 28 31  2  0  0  0  0
 28 82  1  0  0  0  0
 29 84  1  0  0  0  0
 30 85  1  0  0  0  0
 31 86  1  0  0  0  0
 32 66  2  0  0  0  0
 33 67  1  0  0  0  0
 33 70  1  0  0  0  0
 34 71  1  0  0  0  0
 34 77  2  0  0  0  0
 35 52  1  0  0  0  0
 35 72  1  0  0  0  0
 35 78  2  0  0  0  0
 36 63  1  0  0  0  0
 36 68  1  0  0  0  0
 36 79  2  0  0  0  0
 37 64  1  0  0  0  0
 37 73  1  0  0  0  0
 37 80  2  0  0  0  0
 38 69  1  0  0  0  0
 38 74  1  0  0  0  0
 38 81  2  0  0  0  0
 39 42  1  0  0  0  0
 40 52  1  0  0  0  0
 41 68  1  0  0  0  0
 42 44  1  0  0  0  0
 43 45  1  0  0  0  0
 43 47  1  0  0  0  0
 44 51  1  0  0  0  0
 45 54  1  0  0  0  0
 46 49  1  0  0  0  0
 46 53  1  0  0  0  0
 47 69  1  0  0  0  0
 48 54  1  0  0  0  0
 48 69  1  0  0  0  0
 49 75  1  0  0  0  0
 50 53  1  0  0  0  0
 50 75  1  0  0  0  0
 51 72  1  0  0  0  0
 52 68  1  0  0  0  0
 53 62  1  0  0  0  0
 54 67  1  0  0  0  0
 55 64  1  0  0  0  0
 56 65  1  0  0  0  0
 57 65  1  0  0  0  0
 58 65  1  0  0  0  0
 59 76  1  0  0  0  0
 60 74  1  0  0  0  0
 61 75  1  0  0  0  0
 62 83  1  0  0  0  0
 63 65  1  0  0  0  0
 63 73  1  0  0  0  0
 64 76  1  0  0  0  0
 66 67  1  0  0  0  0
M  CHG  2  75   1  76   1
M  ISO  4  38 100  62 101  74 100  83 101
M  END
> <Batch ID>
0104

> <Smiles>
CNC(C)C(=O)NC(C(=O)N1Cc2cc([101O:1][101CH2:1]C3CCN(Cc4ccc(C[100NH:0][100C:0](=O)N5CCCC(n6nc(-c7ccc(Oc8ccc(F)cc8F)cc7)c(C(N)=O)c6N)C5)c(F)c4)C3)ccc2CC1C(=O)NC1CCCc2ccccc21)C(C)(C)C

> <Shape>
0.147

> <Color>
0.187

> <Negative vol penalty>
0.000

$$$$

  -OEChem-04052301083D

 85 93  0     1  0  0  0  0  0999 V2000
  -16.7194  -28.9601   24.0929 C   0  0  0  0  0  0  0  0  0  0  0  0
  -17.3324  -28.1496   23.1428 C   0  0  0  0  0  0  0  0  0  0  0  0
  -26.9094  -17.1986   20.1545 C   0  0  0  0  0  0  0  0  0  0  0  0
  -28.8253  -16.9815   21.6102 C   0  0  0  0  0  0  0  0  0  0  0  0
  -17.2365  -30.2259   24.3657 C   0  0  0  0  0  0  0  0  0  0  0  0
  -18.4622  -28.6049   22.4640 C   0  0  0  0  0  0  0  0  0  0  0  0
  -22.0984  -25.0926   22.1694 C   0  0  0  0  0  0  0  0  0  0  0  0
  -27.6712  -21.2621   15.9660 C   0  0  0  0  0  0  0  0  0  0  0  0
  -28.6519  -20.9072   15.0397 C   0  0  0  0  0  0  0  0  0  0  0  0
  -26.3414  -16.0635   20.7327 C   0  0  0  0  0  0  0  0  0  0  0  0
  -28.2572  -15.8464   22.1885 C   0  0  0  0  0  0  0  0  0  0  0  0
  -21.9383  -24.0889   21.2150 C   0  0  0  0  0  0  0  0  0  0  0  0
  -26.6968  -12.7099   20.5059 C   0  0  0  0  0  0  0  0  0  0  0  0
  -26.1371  -11.7595   19.6520 C   0  0  0  0  0  0  0  0  0  0  0  0
  -23.4565  -25.2527   19.7453 C   0  0  0  0  0  0  0  0  0  0  0  0
  -26.8156  -19.0030   15.9257 C   0  0  0  0  0  0  0  0  0  0  0  0
  -23.9921  -12.0613   20.7221 C   0  0  0  0  0  0  0  0  0  0  0  0
  -28.1514  -17.6576   20.5932 C   0  0  0  0  0  0  0  0  0  0  0  0
  -28.5772  -20.1660   20.4083 C   0  0  0  0  0  0  0  0  0  0  0  0
  -18.3788  -30.6931   23.6968 C   0  0  0  0  0  0  0  0  0  0  0  0
  -22.9316  -26.1912   21.9141 C   0  0  0  0  0  0  0  0  0  0  0  0
  -18.9942  -29.8786   22.7271 C   0  0  0  0  0  0  0  0  0  0  0  0
  -23.6274  -26.2677   20.6991 C   0  0  0  0  0  0  0  0  0  0  0  0
  -27.7962  -18.6481   14.9994 C   0  0  0  0  0  0  0  0  0  0  0  0
  -26.7531  -20.3100   16.4091 C   0  0  0  0  0  0  0  0  0  0  0  0
  -28.7143  -19.6002   14.5564 C   0  0  0  0  0  0  0  0  0  0  0  0
  -27.0152  -15.3874   21.7498 C   0  0  0  0  0  0  0  0  0  0  0  0
  -22.6152  -24.1703   20.0016 C   0  0  0  0  0  0  0  0  0  0  0  0
  -25.9042  -13.3359   21.4680 C   0  0  0  0  0  0  0  0  0  0  0  0
  -24.7848  -11.4353   19.7600 C   0  0  0  0  0  0  0  0  0  0  0  0
  -24.5518  -13.0117   21.5760 C   0  0  0  0  0  0  0  0  0  0  0  0
  -28.7390  -18.8298   19.9958 C   0  0  0  0  0  0  0  0  0  0  0  0
  -29.3340  -20.8929   19.5221 C   0  0  0  0  0  0  0  0  0  0  0  0
  -24.6585  -21.0957   16.8418 C   0  0  0  0  0  0  0  0  0  0  0  0
  -27.8115  -20.7022   21.4954 C   0  0  0  0  0  0  0  0  0  0  0  0
  -23.5636  -21.4974   17.7758 C   0  0  0  0  0  0  0  0  0  0  0  0
  -22.4951  -29.3310   21.6800 C   0  0  0  0  0  0  0  0  0  0  0  0
  -25.7309  -29.3711   21.4558 C   0  0  0  0  0  0  0  0  0  0  0  0
  -28.6014  -27.7017   20.6680 C   0  0  0  0  0  0  0  0  0  0  0  0
  -31.1148  -19.3670   13.8675 C   0  0  0  0  0  0  0  0  0  0  0  0
  -18.8732  -32.0872   23.9914 C   0  0  0  0  0  0  0  0  0  0  0  0
  -23.1144  -27.2520   22.9646 C   0  0  0  0  0  0  0  0  0  0  0  0
  -24.5496  -27.4161   20.3843 C   0  0  0  0  0  0  0  0  0  0  0  0
  -20.2943  -32.3465   23.4978 C   0  0  0  0  0  0  0  0  0  0  0  0
  -33.1756  -20.5684   16.6964 C   0  0  0  0  0  0  0  0  0  0  0  0
  -20.4634  -31.8416   22.0684 C   0  0  0  0  0  0  0  0  0  0  0  0
  -32.2852  -20.2918   17.9064 C   0  0  0  0  0  0  0  0  0  0  0  0
  -32.9065  -19.5878   15.5591 C   0  0  0  0  0  0  0  0  0  0  0  0
  -30.5804  -19.2650   16.3505 C   0  0  0  0  0  0  0  0  0  0  0  0
  -20.2360  -30.3273   21.9877 C   0  0  1  0  0  0  0  0  0  0  0  0
  -23.5875  -28.5846   22.3922 C   0  0  1  0  0  0  0  0  0  0  0  0
  -30.8040  -20.2648   17.4949 C   0  0  1  0  0  0  0  0  0  0  0  0
  -27.8403  -17.2404   14.4994 C   0  0  0  0  0  0  0  0  0  0  0  0
  -29.0997  -20.3213   11.4742 C   0  0  0  0  0  0  0  0  0  0  0  0
  -31.0892  -28.0084   20.5493 C   0  0  0  0  0  0  0  0  0  0  0  0
  -25.4077  -30.9763   18.8811 C   0  0  0  0  0  0  0  0  0  0  0  0
  -27.7887  -30.4356   18.3273 C   0  0  0  0  0  0  0  0  0  0  0  0
  -27.2555  -31.7591   20.3735 C   0  0  0  0  0  0  0  0  0  0  0  0
  -29.0761  -25.5702   22.6655 C   0  0  0  0  0  0  0  0  0  0  0  0
  -23.5662  -22.9397   18.2024 C   0  0  0  0  0  0  0  0  0  1  0  0
  -29.3301  -19.0204   12.2164 C   0  0  0  0  0  0  0  0  0  0  0  0
  -26.7252  -29.2876   20.3229 C   0  0  1  0  0  0  0  0  0  0  0  0
  -29.9185  -27.5576   21.4089 C   0  0  2  0  0  0  0  0  0  0  0  0
  -26.7754  -30.5939   19.4810 C   0  0  0  0  0  0  0  0  0  0  0  0
  -29.5358  -18.7119   18.9304 N   0  0  0  0  0  0  0  0  0  0  0  0
  -25.7653  -20.6678   17.3419 N   0  0  0  0  0  0  0  0  0  0  0  0
  -29.8815  -19.9834   18.6658 N   0  0  0  0  0  0  0  0  0  0  0  0
  -24.6903  -28.4315   21.4410 N   0  0  0  0  0  0  0  0  0  0  0  0
  -31.4841  -19.5283   15.2188 N   0  0  0  0  0  0  0  0  0  0  0  0
  -29.5779  -22.2150   19.3996 N   0  0  0  0  0  0  0  0  0  0  0  0
  -27.0926  -19.8148   22.3079 N   0  0  0  0  0  0  0  0  0  0  0  0
  -21.3990  -29.6150   22.4720 N   0  0  0  0  0  0  0  0  0  0  0  0
  -28.0006  -28.9158   20.9257 N   0  0  0  0  0  0  0  0  0  0  0  0
  -29.7372  -19.2528   13.6004 N   0  0  0  0  0  0  0  0  0  0  0  0
  -30.1411  -26.1364   21.7982 N   0  3  0  0  0  0  0  0  0  0  0  0
  -27.7529  -21.9333   21.7291 O   0  0  0  0  0  0  0  0  0  0  0  0
  -22.7507  -20.6506   18.1113 O   0  0  0  0  0  0  0  0  0  0  0  0
  -22.6368  -29.6285   20.4997 O   0  0  0  0  0  0  0  0  0  0  0  0
  -25.8764  -30.2334   22.3257 O   0  0  0  0  0  0  0  0  0  0  0  0
  -28.1523  -26.8264   19.9313 O   0  0  0  0  0  0  0  0  0  0  0  0
  -31.9567  -19.2747   12.9656 O   0  0  0  0  0  0  0  0  0  0  0  0
  -26.4611  -14.2798   22.3145 O   0  0  0  0  0  0  0  0  0  0  0  0
  -22.4602  -23.1924   19.0680 O   0  0  0  0  0  0  0  0  0  1  0  0
  -24.2471  -10.5237   18.9389 F   0  0  0  0  0  0  0  0  0  0  0  0
  -23.7851  -13.6106   22.4975 F   0  0  0  0  0  0  0  0  0  0  0  0
  1  2  1  0  0  0  0
  1  5  2  0  0  0  0
  2  6  2  0  0  0  0
  3 10  2  0  0  0  0
  3 18  1  0  0  0  0
  4 11  1  0  0  0  0
  4 18  2  0  0  0  0
  5 20  1  0  0  0  0
  6 22  1  0  0  0  0
  7 12  2  0  0  0  0
  7 21  1  0  0  0  0
  8  9  2  0  0  0  0
  8 25  1  0  0  0  0
  9 26  1  0  0  0  0
 10 27  1  0  0  0  0
 11 27  2  0  0  0  0
 12 28  1  0  0  0  0
 13 14  2  0  0  0  0
 13 29  1  0  0  0  0
 14 30  1  0  0  0  0
 15 23  1  0  0  0  0
 15 28  2  0  0  0  0
 16 24  1  0  0  0  0
 16 25  2  0  0  0  0
 17 30  2  0  0  0  0
 17 31  1  0  0  0  0
 18 32  1  0  0  0  0
 19 32  1  0  0  0  0
 19 33  2  0  0  0  0
 19 35  1  0  0  0  0
 20 22  2  0  0  0  0
 20 41  1  0  0  0  0
 21 23  2  0  0  0  0
 21 42  1  0  0  0  0
 22 50  1  0  0  0  0
 23 43  1  0  0  0  0
 24 26  2  0  0  0  0
 24 53  1  0  0  0  0
 25 66  1  0  0  0  0
 26 74  1  0  0  0  0
 27 82  1  0  0  0  0
 28 83  1  0  0  0  0
 29 31  2  0  0  0  0
 29 82  1  0  0  0  0
 30 84  1  0  0  0  0
 31 85  1  0  0  0  0
 32 65  2  0  0  0  0
 33 67  1  0  0  0  0
 33 70  1  0  0  0  0
 34 36  1  0  0  0  0
 34 66  2  0  0  0  0
 35 71  1  0  0  0  0
 35 76  2  0  0  0  0
 36 60  1  0  0  0  0
 36 77  2  0  0  0  0
 37 51  1  0  0  0  0
 37 72  1  0  0  0  0
 37 78  2  0  0  0  0
 38 62  1  0  0  0  0
 38 68  1  0  0  0  0
 38 79  2  0  0  0  0
 39 63  1  0  0  0  0
 39 73  1  0  0  0  0
 39 80  2  0  0  0  0
 40 69  1  0  0  0  0
 40 74  1  0  0  0  0
 40 81  2  0  0  0  0
 41 44  1  0  0  0  0
 42 51  1  0  0  0  0
 43 68  1  0  0  0  0
 44 46  1  0  0  0  0
 45 47  1  0  0  0  0
 45 48  1  0  0  0  0
 46 50  1  0  0  0  0
 47 52  1  0  0  0  0
 48 69  1  0  0  0  0
 49 52  1  0  0  0  0
 49 69  1  0  0  0  0
 50 72  1  0  0  0  0
 51 68  1  0  0  0  0
 52 67  1  0  0  0  0
 54 61  1  0  0  0  0
 55 63  1  0  0  0  0
 56 64  1  0  0  0  0
 57 64  1  0  0  0  0
 58 64  1  0  0  0  0
 59 75  1  0  0  0  0
 60 83  1  0  0  0  0
 61 74  1  0  0  0  0
 62 64  1  0  0  0  0
 62 73  1  0  0  0  0
 63 75  1  0  0  0  0
 65 67  1  0  0  0  0
M  CHG  1  75   1
M  ISO  4  40 100  60 101  74 100  83 101
M  END
> <Batch ID>
0104

> <Smiles>
C=C[100N:0](c1ccc(NCC(=O)[101CH2:1][101O:1]c2ccc3c(c2)CN(C(=O)C(NC(=O)C(C)NC)C(C)(C)C)C(C(=O)NC2CCCc4ccccc42)C3)cc1C)[100C:0](=O)N1CCCC(n2nc(-c3ccc(Oc4ccc(F)cc4F)cc3)c(C(N)=O)c2N)C1

> <Shape>
0.212

> <Color>
0.082

> <Negative vol penalty>
0.000

$$$$

  -OEChem-04052301083D

 88 97  0     1  0  0  0  0  0999 V2000
  -27.5138  -33.1596   21.7186 C   0  0  0  0  0  0  0  0  0  0  0  0
  -27.0835  -31.9282   21.2349 C   0  0  0  0  0  0  0  0  0  0  0  0
  -26.7330  -12.4723   21.6539 C   0  0  0  0  0  0  0  0  0  0  0  0
  -26.0446  -14.0036   19.9165 C   0  0  0  0  0  0  0  0  0  0  0  0
  -27.1279  -33.5811   22.9904 C   0  0  0  0  0  0  0  0  0  0  0  0
  -26.2680  -31.1171   22.0232 C   0  0  0  0  0  0  0  0  0  0  0  0
  -22.3974  -29.1417   19.4228 C   0  0  0  0  0  0  0  0  0  0  0  0
  -25.4511  -11.9229   21.6775 C   0  0  0  0  0  0  0  0  0  0  0  0
  -24.7627  -13.4541   19.9401 C   0  0  0  0  0  0  0  0  0  0  0  0
  -22.6741  -28.0511   18.5996 C   0  0  0  0  0  0  0  0  0  0  0  0
  -23.6452   -9.7331   19.8400 C   0  0  0  0  0  0  0  0  0  0  0  0
  -23.5363   -8.3429   19.8702 C   0  0  0  0  0  0  0  0  0  0  0  0
  -28.2602  -23.9785   20.0828 C   0  0  0  0  0  0  0  0  0  0  0  0
  -29.4120  -22.6680   21.7539 C   0  0  0  0  0  0  0  0  0  0  0  0
  -21.8143  -26.5630   20.2923 C   0  0  0  0  0  0  0  0  0  0  0  0
  -28.7803  -21.6589   19.6516 C   0  0  0  0  0  0  0  0  0  0  0  0
  -22.3503   -8.4814   21.9706 C   0  0  0  0  0  0  0  0  0  0  0  0
  -27.0297  -13.5127   20.7734 C   0  0  0  0  0  0  0  0  0  0  0  0
  -28.8547  -23.8780   21.3406 C   0  0  0  0  0  0  0  0  0  0  0  0
  -29.4408  -13.6694   19.9550 C   0  0  0  0  0  0  0  0  0  0  0  0
  -26.2993  -32.7791   23.7908 C   0  0  0  0  0  0  0  0  0  0  0  0
  -21.8362  -28.9501   20.6936 C   0  0  0  0  0  0  0  0  0  0  0  0
  -25.8717  -31.5277   23.3074 C   0  0  0  0  0  0  0  0  0  0  0  0
  -21.5291  -27.6530   21.1287 C   0  0  0  0  0  0  0  0  0  0  0  0
  -28.2229  -22.8690   19.2383 C   0  0  0  0  0  0  0  0  0  0  0  0
  -29.3748  -21.5584   20.9094 C   0  0  0  0  0  0  0  0  0  0  0  0
  -24.4660  -12.4138   20.8207 C   0  0  0  0  0  0  0  0  0  0  0  0
  -22.3852  -26.7613   19.0354 C   0  0  0  0  0  0  0  0  0  0  0  0
  -23.1068  -10.4976   20.8751 C   0  0  0  0  0  0  0  0  0  0  0  0
  -22.8888   -7.7170   20.9355 C   0  0  0  0  0  0  0  0  0  0  0  0
  -22.4593   -9.8717   21.9404 C   0  0  0  0  0  0  0  0  0  0  0  0
  -28.3535  -14.0810   20.7488 C   0  0  0  0  0  0  0  0  0  0  0  0
  -30.4607  -14.5218   20.3010 C   0  0  0  0  0  0  0  0  0  0  0  0
  -25.3438  -24.1301   18.0582 C   0  0  0  0  0  0  0  0  0  0  0  0
  -28.8934  -25.0350   22.2210 C   0  0  0  0  0  0  0  0  0  0  0  0
  -29.5216  -12.6112   18.9910 C   0  0  0  0  0  0  0  0  0  0  0  0
  -22.7664  -29.5587   23.6715 C   0  0  0  0  0  0  0  0  0  0  0  0
  -19.7652  -28.5648   24.3976 C   0  0  0  0  0  0  0  0  0  0  0  0
  -17.0242  -26.7363   23.5085 C   0  0  0  0  0  0  0  0  0  0  0  0
  -30.5693  -20.0592   22.5439 C   0  0  0  0  0  0  0  0  0  0  0  0
  -25.9472  -33.2562   25.1775 C   0  0  0  0  0  0  0  0  0  0  0  0
  -21.5191  -30.1389   21.5588 C   0  0  0  0  0  0  0  0  0  0  0  0
  -20.9074  -27.3950   22.4761 C   0  0  0  0  0  0  0  0  0  0  0  0
  -24.7751  -32.5032   25.8015 C   0  0  0  0  0  0  0  0  0  0  0  0
  -32.0587  -17.1554   23.9677 C   0  0  0  0  0  0  0  0  0  0  0  0
  -24.9447  -30.9993   25.6111 C   0  0  0  0  0  0  0  0  0  0  0  0
  -31.3809  -16.0002   23.2273 C   0  0  0  0  0  0  0  0  0  0  0  0
  -23.9971  -22.1871   18.3787 C   0  0  0  0  0  0  0  0  0  0  0  0
  -31.0904  -18.3079   24.2282 C   0  0  0  0  0  0  0  0  0  0  0  0
  -25.3669  -21.7710   17.8767 C   0  0  0  0  0  0  0  0  0  0  0  0
  -29.7046  -17.6490   22.3008 C   0  0  0  0  0  0  0  0  0  0  0  0
  -24.9660  -30.6305   24.1228 C   0  0  1  0  0  0  0  0  0  0  0  0
  -23.9010  -23.6627   17.9837 C   0  0  1  0  0  0  0  0  0  0  0  0
  -21.4224  -29.7904   23.0409 C   0  0  1  0  0  0  0  0  0  0  0  0
  -30.6569  -16.4916   21.9585 C   0  0  2  0  0  0  0  0  0  0  0  0
  -28.9470  -26.3918   21.5811 C   0  0  0  0  0  0  0  0  0  0  0  0
  -14.7412  -26.0861   24.3226 C   0  0  0  0  0  0  0  0  0  0  0  0
  -21.0269  -26.5880   26.3498 C   0  0  0  0  0  0  0  0  0  0  0  0
  -18.8462  -25.3593   26.4065 C   0  0  0  0  0  0  0  0  0  0  0  0
  -18.9658  -27.7216   27.1991 C   0  0  0  0  0  0  0  0  0  0  0  0
  -15.7058  -28.0113   21.1858 C   0  0  0  0  0  0  0  0  0  0  0  0
  -27.5829  -22.9768   17.8844 C   0  0  0  0  0  0  0  0  0  0  0  0
  -22.9741  -24.4625   18.8787 C   0  0  0  0  0  0  0  0  0  1  0  0
  -19.1289  -27.2351   24.7235 C   0  0  1  0  0  0  0  0  0  0  0  0
  -15.5453  -27.0787   23.4973 C   0  0  2  0  0  0  0  0  0  0  0  0
  -19.5054  -26.7304   26.1450 C   0  0  0  0  0  0  0  0  0  0  0  0
  -28.6546  -15.1145   21.5397 N   0  0  0  0  0  0  0  0  0  0  0  0
  -29.9426  -15.3593   21.2446 N   0  0  0  0  0  0  0  0  0  0  0  0
  -26.1386  -22.9885   17.9677 N   0  0  0  0  0  0  0  0  0  0  0  0
  -20.6220  -28.5894   23.2881 N   0  0  0  0  0  0  0  0  0  0  0  0
  -30.4451  -18.7233   22.9808 N   0  0  0  0  0  0  0  0  0  0  0  0
  -31.7412  -14.6290   19.8872 N   0  0  0  0  0  0  0  0  0  0  0  0
  -28.3805  -11.8318   18.7572 N   0  0  0  0  0  0  0  0  0  0  0  0
  -29.9412  -20.3291   21.3285 N   0  0  0  0  0  0  0  0  0  0  0  0
  -23.6241  -30.6383   23.5809 N   0  0  0  0  0  0  0  0  0  0  0  0
  -17.6957  -27.4053   24.5100 N   0  0  0  0  0  0  0  0  0  0  0  0
  -15.0208  -27.0640   22.1025 N   0  3  0  0  0  0  0  0  0  0  0  0
  -25.7063  -25.2948   18.1315 O   0  0  0  0  0  0  0  0  0  0  0  0
  -28.8903  -24.9857   23.4528 O   0  0  0  0  0  0  0  0  0  0  0  0
  -30.5793  -12.3536   18.3676 O   0  0  0  0  0  0  0  0  0  0  0  0
  -23.0069  -28.4807   24.2024 O   0  0  0  0  0  0  0  0  0  0  0  0
  -19.5059  -29.5470   25.0974 O   0  0  0  0  0  0  0  0  0  0  0  0
  -17.5322  -25.9509   22.7112 O   0  0  0  0  0  0  0  0  0  0  0  0
  -31.2103  -20.8950   23.1862 O   0  0  0  0  0  0  0  0  0  0  0  0
  -23.2151  -11.8778   20.8433 O   0  0  0  0  0  0  0  0  0  0  0  0
  -22.6548  -25.6949   18.2341 O   0  0  0  0  0  0  0  0  0  1  0  0
  -22.7829   -6.3821   20.9636 F   0  0  0  0  0  0  0  0  0  0  0  0
  -21.9391  -10.6009   22.9371 F   0  0  0  0  0  0  0  0  0  0  0  0
  1  2  1  0  0  0  0
  1  5  2  0  0  0  0
  2  6  2  0  0  0  0
  3  8  2  0  0  0  0
  3 18  1  0  0  0  0
  4  9  1  0  0  0  0
  4 18  2  0  0  0  0
  5 21  1  0  0  0  0
  6 23  1  0  0  0  0
  7 10  2  0  0  0  0
  7 22  1  0  0  0  0
  8 27  1  0  0  0  0
  9 27  2  0  0  0  0
 10 28  1  0  0  0  0
 11 12  2  0  0  0  0
 11 29  1  0  0  0  0
 12 30  1  0  0  0  0
 13 19  1  0  0  0  0
 13 25  2  0  0  0  0
 14 19  2  0  0  0  0
 14 26  1  0  0  0  0
 15 24  1  0  0  0  0
 15 28  2  0  0  0  0
 16 25  1  0  0  0  0
 16 26  2  0  0  0  0
 17 30  2  0  0  0  0
 17 31  1  0  0  0  0
 18 32  1  0  0  0  0
 19 35  1  0  0  0  0
 20 32  1  0  0  0  0
 20 33  2  0  0  0  0
 20 36  1  0  0  0  0
 21 23  2  0  0  0  0
 21 41  1  0  0  0  0
 22 24  2  0  0  0  0
 22 42  1  0  0  0  0
 23 52  1  0  0  0  0
 24 43  1  0  0  0  0
 25 62  1  0  0  0  0
 26 74  1  0  0  0  0
 27 85  1  0  0  0  0
 28 86  1  0  0  0  0
 29 31  2  0  0  0  0
 29 85  1  0  0  0  0
 30 87  1  0  0  0  0
 31 88  1  0  0  0  0
 32 67  2  0  0  0  0
 33 68  1  0  0  0  0
 33 72  1  0  0  0  0
 34 53  1  0  0  0  0
 34 69  1  0  0  0  0
 34 78  2  0  0  0  0
 35 56  1  0  0  0  0
 35 79  2  0  0  0  0
 36 73  1  0  0  0  0
 36 80  2  0  0  0  0
 37 54  1  0  0  0  0
 37 75  1  0  0  0  0
 37 81  2  0  0  0  0
 38 64  1  0  0  0  0
 38 70  1  0  0  0  0
 38 82  2  0  0  0  0
 39 65  1  0  0  0  0
 39 76  1  0  0  0  0
 39 83  2  0  0  0  0
 40 71  1  0  0  0  0
 40 74  1  0  0  0  0
 40 84  2  0  0  0  0
 41 44  1  0  0  0  0
 42 54  1  0  0  0  0
 43 70  1  0  0  0  0
 44 46  1  0  0  0  0
 45 47  1  0  0  0  0
 45 49  1  0  0  0  0
 46 52  1  0  0  0  0
 47 55  1  0  0  0  0
 48 50  1  0  0  0  0
 48 53  1  0  0  0  0
 49 71  1  0  0  0  0
 50 69  1  0  0  0  0
 51 55  1  0  0  0  0
 51 71  1  0  0  0  0
 52 75  1  0  0  0  0
 53 63  1  0  0  0  0
 54 70  1  0  0  0  0
 55 68  1  0  0  0  0
 57 65  1  0  0  0  0
 58 66  1  0  0  0  0
 59 66  1  0  0  0  0
 60 66  1  0  0  0  0
 61 77  1  0  0  0  0
 62 69  1  0  0  0  0
 63 86  1  0  0  0  0
 64 66  1  0  0  0  0
 64 76  1  0  0  0  0
 65 77  1  0  0  0  0
 67 68  1  0  0  0  0
M  CHG  1  77   1
M  ISO  4  40 100  63 101  74 100  86 101
M  END
> <Batch ID>
0104

> <Smiles>
CNC(C)C(=O)NC(C(=O)N1Cc2cc([101O:1][101CH2:1]C3CCN(Cc4cc([100NH:0][100C:0](=O)N5CCCC(n6nc(-c7ccc(Oc8ccc(F)cc8F)cc7)c(C(N)=O)c6N)C5)cc(C(C)=O)c4)C3=O)ccc2CC1C(=O)NC1CCCc2ccccc21)C(C)(C)C

> <Shape>
0.299

> <Color>
0.053

> <Negative vol penalty>
0.000

$$$$

  -OEChem-04052301083D

 83 91  0     1  0  0  0  0  0999 V2000
  -29.1482  -34.8493   25.5151 C   0  0  0  0  0  0  0  0  0  0  0  0
  -29.4454  -33.8411   24.6037 C   0  0  0  0  0  0  0  0  0  0  0  0
  -24.0411  -10.0045   22.5492 C   0  0  0  0  0  0  0  0  0  0  0  0
  -24.4102  -11.7071   24.2231 C   0  0  0  0  0  0  0  0  0  0  0  0
  -28.1084  -34.6780   26.4279 C   0  0  0  0  0  0  0  0  0  0  0  0
  -28.7035  -32.6604   24.6054 C   0  0  0  0  0  0  0  0  0  0  0  0
  -27.1977  -29.2516   19.7455 C   0  0  0  0  0  0  0  0  0  0  0  0
  -29.8569  -18.5438   22.0769 C   0  0  0  0  0  0  0  0  0  0  0  0
  -31.8472  -18.4295   20.7120 C   0  0  0  0  0  0  0  0  0  0  0  0
  -29.5417  -19.7803   21.5137 C   0  0  0  0  0  0  0  0  0  0  0  0
  -31.5319  -19.6660   20.1488 C   0  0  0  0  0  0  0  0  0  0  0  0
  -23.6068   -9.1243   23.5402 C   0  0  0  0  0  0  0  0  0  0  0  0
  -23.9758  -10.8270   25.2141 C   0  0  0  0  0  0  0  0  0  0  0  0
  -27.7513  -28.0916   19.2056 C   0  0  0  0  0  0  0  0  0  0  0  0
  -20.7965   -8.5953   25.3445 C   0  0  0  0  0  0  0  0  0  0  0  0
  -19.6410   -7.8556   25.0934 C   0  0  0  0  0  0  0  0  0  0  0  0
  -26.1330  -26.7669   20.4080 C   0  0  0  0  0  0  0  0  0  0  0  0
  -20.8999   -5.8075   25.3335 C   0  0  0  0  0  0  0  0  0  0  0  0
  -24.4429  -11.2959   22.8906 C   0  0  0  0  0  0  0  0  0  0  0  0
  -24.1050  -13.1061   21.1251 C   0  0  0  0  0  0  0  0  0  0  0  0
  -27.3471  -33.4986   26.4344 C   0  0  0  0  0  0  0  0  0  0  0  0
  -26.1126  -29.1773   20.6307 C   0  0  0  0  0  0  0  0  0  0  0  0
  -27.6533  -32.4726   25.5201 C   0  0  0  0  0  0  0  0  0  0  0  0
  -25.5658  -27.9277   20.9557 C   0  0  0  0  0  0  0  0  0  0  0  0
  -31.0097  -17.8684   21.6761 C   0  0  0  0  0  0  0  0  0  0  0  0
  -30.3791  -20.3414   20.5496 C   0  0  0  0  0  0  0  0  0  0  0  0
  -23.5741   -9.5355   24.8727 C   0  0  0  0  0  0  0  0  0  0  0  0
  -27.2209  -26.8488   19.5391 C   0  0  0  0  0  0  0  0  0  0  0  0
  -22.0038   -7.9412   25.5901 C   0  0  0  0  0  0  0  0  0  0  0  0
  -19.6926   -6.4617   25.0879 C   0  0  0  0  0  0  0  0  0  0  0  0
  -22.0555   -6.5473   25.5846 C   0  0  0  0  0  0  0  0  0  0  0  0
  -24.8923  -12.2054   21.8674 C   0  0  0  0  0  0  0  0  0  0  0  0
  -24.9968  -13.7344   20.2906 C   0  0  0  0  0  0  0  0  0  0  0  0
  -22.6939  -13.3527   21.1848 C   0  0  0  0  0  0  0  0  0  0  0  0
  -25.6310  -29.9999   23.6630 C   0  0  0  0  0  0  0  0  0  0  0  0
  -28.8659  -23.6239   19.5409 C   0  0  0  0  0  0  0  0  0  0  0  0
  -22.5726  -29.1443   23.0024 C   0  0  0  0  0  0  0  0  0  0  0  0
  -20.4263  -27.3203   21.0754 C   0  0  0  0  0  0  0  0  0  0  0  0
  -30.8886  -14.7437   20.6355 C   0  0  0  0  0  0  0  0  0  0  0  0
  -26.2634  -33.3398   27.4713 C   0  0  0  0  0  0  0  0  0  0  0  0
  -25.5098  -30.4396   21.1835 C   0  0  0  0  0  0  0  0  0  0  0  0
  -24.3883  -27.7949   21.8854 C   0  0  0  0  0  0  0  0  0  0  0  0
  -25.2832  -32.2118   27.1599 C   0  0  0  0  0  0  0  0  0  0  0  0
  -29.1593  -13.0244   18.0412 C   0  0  0  0  0  0  0  0  0  0  0  0
  -26.0348  -30.9500   26.7479 C   0  0  0  0  0  0  0  0  0  0  0  0
  -27.7986  -12.7008   18.6606 C   0  0  0  0  0  0  0  0  0  0  0  0
  -30.2852  -12.9230   19.0678 C   0  0  0  0  0  0  0  0  0  0  0  0
  -28.7198  -13.3958   20.9116 C   0  0  0  0  0  0  0  0  0  0  0  0
  -26.8553  -31.1877   25.4744 C   0  0  1  0  0  0  0  0  0  0  0  0
  -24.7334  -30.2142   22.4772 C   0  0  1  0  0  0  0  0  0  0  0  0
  -27.5458  -13.5393   19.9280 C   0  0  2  0  0  0  0  0  0  0  0  0
  -17.9878  -26.7960   20.7990 C   0  0  0  0  0  0  0  0  0  0  0  0
  -22.6965  -27.2998   25.4299 C   0  0  0  0  0  0  0  0  0  0  0  0
  -20.6571  -26.1354   24.5620 C   0  0  0  0  0  0  0  0  0  0  0  0
  -20.5452  -28.5500   25.1784 C   0  0  0  0  0  0  0  0  0  0  0  0
  -20.3778  -28.4371   18.3351 C   0  0  0  0  0  0  0  0  0  0  0  0
  -31.3479  -16.5465   22.2780 C   0  0  0  0  0  0  0  0  0  0  0  0
  -28.8968  -22.3374   20.3383 C   0  0  0  0  0  0  0  0  0  0  0  0
  -27.6798  -24.5306   19.8062 C   0  0  0  0  0  0  0  0  0  1  0  0
  -21.7802  -27.8618   23.0824 C   0  0  1  0  0  0  0  0  0  0  0  0
  -19.1352  -27.6981   20.3719 C   0  0  2  0  0  0  0  0  0  0  0  0
  -21.4432  -27.4638   24.5472 C   0  0  0  0  0  0  0  0  0  0  0  0
  -26.1847  -12.2541   21.5337 N   0  0  0  0  0  0  0  0  0  0  0  0
  -26.2163  -13.1928   20.5725 N   0  0  0  0  0  0  0  0  0  0  0  0
  -23.8381  -29.0577   22.4050 N   0  0  0  0  0  0  0  0  0  0  0  0
  -29.9845  -13.7423   20.2443 N   0  0  0  0  0  0  0  0  0  0  0  0
  -24.8488  -14.6918   19.3504 N   0  0  0  0  0  0  0  0  0  0  0  0
  -21.9255  -12.6193   22.0991 N   0  0  0  0  0  0  0  0  0  0  0  0
  -30.0648  -21.5705   19.9878 N   0  0  0  0  0  0  0  0  0  0  0  0
  -25.9976  -31.1652   24.3090 N   0  0  0  0  0  0  0  0  0  0  0  0
  -20.6111  -28.0505   22.2304 N   0  0  0  0  0  0  0  0  0  0  0  0
  -30.5242  -15.4783   21.7572 N   0  0  0  0  0  0  0  0  0  0  0  0
  -19.2977  -27.5844   18.8949 N   0  3  0  0  0  0  0  0  0  0  0  0
  -22.1285  -14.1867   20.4375 O   0  0  0  0  0  0  0  0  0  0  0  0
  -25.9650  -28.8616   23.9701 O   0  0  0  0  0  0  0  0  0  0  0  0
  -29.7397  -23.9242   18.7284 O   0  0  0  0  0  0  0  0  0  0  0  0
  -22.0837  -30.1859   23.4470 O   0  0  0  0  0  0  0  0  0  0  0  0
  -21.1922  -26.4606   20.6455 O   0  0  0  0  0  0  0  0  0  0  0  0
  -31.9399  -14.9700   20.0268 O   0  0  0  0  0  0  0  0  0  0  0  0
  -23.1500   -8.6770   25.8400 O   0  0  0  0  0  0  0  0  0  0  0  0
  -27.7598  -25.7149   19.0141 O   0  0  0  0  0  0  0  0  0  1  0  0
  -18.5826   -5.7514   24.8483 F   0  0  0  0  0  0  0  0  0  0  0  0
  -23.2122   -5.9132   25.8210 F   0  0  0  0  0  0  0  0  0  0  0  0
  1  2  1  0  0  0  0
  1  5  2  0  0  0  0
  2  6  2  0  0  0  0
  3 12  2  0  0  0  0
  3 19  1  0  0  0  0
  4 13  1  0  0  0  0
  4 19  2  0  0  0  0
  5 21  1  0  0  0  0
  6 23  1  0  0  0  0
  7 14  2  0  0  0  0
  7 22  1  0  0  0  0
  8 10  2  0  0  0  0
  8 25  1  0  0  0  0
  9 11  1  0  0  0  0
  9 25  2  0  0  0  0
 10 26  1  0  0  0  0
 11 26  2  0  0  0  0
 12 27  1  0  0  0  0
 13 27  2  0  0  0  0
 14 28  1  0  0  0  0
 15 16  2  0  0  0  0
 15 29  1  0  0  0  0
 16 30  1  0  0  0  0
 17 24  1  0  0  0  0
 17 28  2  0  0  0  0
 18 30  2  0  0  0  0
 18 31  1  0  0  0  0
 19 32  1  0  0  0  0
 20 32  1  0  0  0  0
 20 33  2  0  0  0  0
 20 34  1  0  0  0  0
 21 23  2  0  0  0  0
 21 40  1  0  0  0  0
 22 24  2  0  0  0  0
 22 41  1  0  0  0  0
 23 49  1  0  0  0  0
 24 42  1  0  0  0  0
 25 57  1  0  0  0  0
 26 69  1  0  0  0  0
 27 80  1  0  0  0  0
 28 81  1  0  0  0  0
 29 31  2  0  0  0  0
 29 80  1  0  0  0  0
 30 82  1  0  0  0  0
 31 83  1  0  0  0  0
 32 63  2  0  0  0  0
 33 64  1  0  0  0  0
 33 67  1  0  0  0  0
 34 68  1  0  0  0  0
 34 74  2  0  0  0  0
 35 50  1  0  0  0  0
 35 70  1  0  0  0  0
 35 75  2  0  0  0  0
 36 58  1  0  0  0  0
 36 59  1  0  0  0  0
 36 76  2  0  0  0  0
 37 60  1  0  0  0  0
 37 65  1  0  0  0  0
 37 77  2  0  0  0  0
 38 61  1  0  0  0  0
 38 71  1  0  0  0  0
 38 78  2  0  0  0  0
 39 66  1  0  0  0  0
 39 72  1  0  0  0  0
 39 79  2  0  0  0  0
 40 43  1  0  0  0  0
 41 50  1  0  0  0  0
 42 65  1  0  0  0  0
 43 45  1  0  0  0  0
 44 46  1  0  0  0  0
 44 47  1  0  0  0  0
 45 49  1  0  0  0  0
 46 51  1  0  0  0  0
 47 66  1  0  0  0  0
 48 51  1  0  0  0  0
 48 66  1  0  0  0  0
 49 70  1  0  0  0  0
 50 65  1  0  0  0  0
 51 64  1  0  0  0  0
 52 61  1  0  0  0  0
 53 62  1  0  0  0  0
 54 62  1  0  0  0  0
 55 62  1  0  0  0  0
 56 73  1  0  0  0  0
 57 72  1  0  0  0  0
 58 69  1  0  0  0  0
 59 81  1  0  0  0  0
 60 62  1  0  0  0  0
 60 71  1  0  0  0  0
 61 73  1  0  0  0  0
 63 64  1  0  0  0  0
M  CHG  1  73   1
M  ISO  4  39 100  59 101  72 100  81 101
M  END
> <Batch ID>
0104

> <Smiles>
CNC(C)C(=O)NC(C(=O)N1Cc2cc([101O:1][101CH2:1]C(=O)CNc3ccc(C[100NH:0][100C:0](=O)N4CCCC(n5nc(-c6ccc(Oc7ccc(F)cc7F)cc6)c(C(N)=O)c5N)C4)cc3)ccc2CC1C(=O)NC1CCCc2ccccc21)C(C)(C)C

> <Shape>
0.334

> <Color>
0.124

> <Negative vol penalty>
0.000

$$$$

  -OEChem-04052301083D

 85 93  0     1  0  0  0  0  0999 V2000
  -21.6412  -21.8228   15.1066 C   0  0  0  0  0  0  0  0  0  0  0  0
  -22.8682  -21.5408   15.6985 C   0  0  0  0  0  0  0  0  0  0  0  0
  -20.6726  -27.1981   23.5131 C   0  0  0  0  0  0  0  0  0  0  0  0
  -19.5051  -27.2617   21.3989 C   0  0  0  0  0  0  0  0  0  0  0  0
  -20.4584  -21.4691   15.7545 C   0  0  0  0  0  0  0  0  0  0  0  0
  -22.9131  -20.9059   16.9392 C   0  0  0  0  0  0  0  0  0  0  0  0
  -27.1048  -16.8770   18.8637 C   0  0  0  0  0  0  0  0  0  0  0  0
  -19.5361  -27.6893   24.1555 C   0  0  0  0  0  0  0  0  0  0  0  0
  -18.3685  -27.7528   22.0413 C   0  0  0  0  0  0  0  0  0  0  0  0
  -28.2381  -17.0127   19.6643 C   0  0  0  0  0  0  0  0  0  0  0  0
  -15.2763  -29.3630   23.0687 C   0  0  0  0  0  0  0  0  0  0  0  0
  -14.6045  -30.4300   22.4722 C   0  0  0  0  0  0  0  0  0  0  0  0
  -28.6537  -22.8962   20.6747 C   0  0  0  0  0  0  0  0  0  0  0  0
  -26.9554  -16.3212   21.5867 C   0  0  0  0  0  0  0  0  0  0  0  0
  -30.4417  -22.2326   22.7107 C   0  0  0  0  0  0  0  0  0  0  0  0
  -16.5982  -31.7834   22.6480 C   0  0  0  0  0  0  0  0  0  0  0  0
  -20.6571  -26.9844   22.1348 C   0  0  0  0  0  0  0  0  0  0  0  0
  -29.6471  -23.7996   21.0524 C   0  0  0  0  0  0  0  0  0  0  0  0
  -22.1647  -25.1287   21.2454 C   0  0  0  0  0  0  0  0  0  0  0  0
  -20.4889  -20.8209   16.9993 C   0  0  0  0  0  0  0  0  0  0  0  0
  -25.8836  -16.4722   19.4215 C   0  0  0  0  0  0  0  0  0  0  0  0
  -21.7295  -20.5444   17.6049 C   0  0  0  0  0  0  0  0  0  0  0  0
  -25.8087  -16.1786   20.7906 C   0  0  0  0  0  0  0  0  0  0  0  0
  -28.5542  -21.6610   21.3152 C   0  0  0  0  0  0  0  0  0  0  0  0
  -30.5411  -23.4678   22.0703 C   0  0  0  0  0  0  0  0  0  0  0  0
  -18.3841  -27.9666   23.4197 C   0  0  0  0  0  0  0  0  0  0  0  0
  -28.1628  -16.7376   21.0265 C   0  0  0  0  0  0  0  0  0  0  0  0
  -16.6090  -29.5061   23.4549 C   0  0  0  0  0  0  0  0  0  0  0  0
  -29.4482  -21.3292   22.3331 C   0  0  0  0  0  0  0  0  0  0  0  0
  -15.2655  -31.6402   22.2619 C   0  0  0  0  0  0  0  0  0  0  0  0
  -17.2699  -30.7163   23.2445 C   0  0  0  0  0  0  0  0  0  0  0  0
  -21.8310  -26.4777   21.4705 C   0  0  0  0  0  0  0  0  0  0  0  0
  -23.3665  -25.1783   20.5823 C   0  0  0  0  0  0  0  0  0  0  0  0
  -29.7287  -25.1087   20.3548 C   0  0  0  0  0  0  0  0  0  0  0  0
  -21.4521  -23.9373   21.6037 C   0  0  0  0  0  0  0  0  0  0  0  0
  -23.0029  -17.7852   19.7068 C   0  0  0  0  0  0  0  0  0  0  0  0
  -22.2174  -14.8662   20.8837 C   0  0  0  0  0  0  0  0  0  0  0  0
  -23.2395  -11.9767   22.3847 C   0  0  0  0  0  0  0  0  0  0  0  0
  -28.4813  -27.1984   19.9068 C   0  0  0  0  0  0  0  0  0  0  0  0
  -19.1834  -20.5006   17.6831 C   0  0  0  0  0  0  0  0  0  0  0  0
  -24.6767  -16.3048   18.5395 C   0  0  0  0  0  0  0  0  0  0  0  0
  -24.5264  -15.7211   21.4346 C   0  0  0  0  0  0  0  0  0  0  0  0
  -19.3233  -19.4940   18.8222 C   0  0  0  0  0  0  0  0  0  0  0  0
  -25.8362  -29.0910   18.5217 C   0  0  0  0  0  0  0  0  0  0  0  0
  -20.5003  -19.8634   19.7194 C   0  0  0  0  0  0  0  0  0  0  0  0
  -24.5826  -28.4655   19.1394 C   0  0  0  0  0  0  0  0  0  0  0  0
  -26.9939  -29.1431   19.5176 C   0  0  0  0  0  0  0  0  0  0  0  0
  -26.0663  -27.2450   20.7805 C   0  0  0  0  0  0  0  0  0  0  0  0
  -21.8197  -19.8347   18.9384 C   0  0  1  0  0  0  0  0  0  0  0  0
  -23.3605  -16.3817   19.3069 C   0  0  1  0  0  0  0  0  0  0  0  0
  -24.8938  -27.1056   19.7962 C   0  0  1  0  0  0  0  0  0  0  0  0
  -27.4833  -20.7069   20.9000 C   0  0  0  0  0  0  0  0  0  0  0  0
  -31.6128  -24.4179   22.4955 C   0  0  0  0  0  0  0  0  0  0  0  0
  -22.3631   -9.7924   23.2553 C   0  0  0  0  0  0  0  0  0  0  0  0
  -21.1039  -16.2945   23.3393 C   0  0  0  0  0  0  0  0  0  0  0  0
  -21.1269  -14.0983   24.5410 C   0  0  0  0  0  0  0  0  0  0  0  0
  -19.7038  -14.3939   22.5137 C   0  0  0  0  0  0  0  0  0  0  0  0
  -24.9013  -10.4228   20.4919 C   0  0  0  0  0  0  0  0  0  0  0  0
  -30.2535  -18.0037   23.6982 C   0  0  0  0  0  0  0  0  0  0  0  0
  -29.0558  -17.2258   23.1760 C   0  0  0  0  0  0  0  0  0  1  0  0
  -30.5007  -19.2726   22.8974 C   0  0  0  0  0  0  0  0  0  0  0  0
  -22.2133  -14.2315   22.2535 C   0  0  1  0  0  0  0  0  0  0  0  0
  -22.9603  -10.5201   22.0610 C   0  0  2  0  0  0  0  0  0  0  0  0
  -21.0608  -14.7650   23.1504 C   0  0  0  0  0  0  0  0  0  0  0  0
  -22.7469  -27.3226   20.9896 N   0  0  0  0  0  0  0  0  0  0  0  0
  -23.6680  -26.5024   20.4558 N   0  0  0  0  0  0  0  0  0  0  0  0
  -23.3724  -15.5787   20.5314 N   0  0  0  0  0  0  0  0  0  0  0  0
  -27.2310  -27.8153   20.0869 N   0  0  0  0  0  0  0  0  0  0  0  0
  -24.1843  -24.2180   20.1010 N   0  0  0  0  0  0  0  0  0  0  0  0
  -20.2324  -24.0667   22.2819 N   0  0  0  0  0  0  0  0  0  0  0  0
  -28.5938  -25.9143   20.4514 N   0  0  0  0  0  0  0  0  0  0  0  0
  -22.2701  -18.4713   18.7572 N   0  0  0  0  0  0  0  0  0  0  0  0
  -22.1819  -12.7894   22.0350 N   0  0  0  0  0  0  0  0  0  0  0  0
  -24.2196   -9.8260   21.6692 N   0  3  0  0  0  0  0  0  0  0  0  0
  -30.7707  -25.4179   19.7834 O   0  0  0  0  0  0  0  0  0  0  0  0
  -21.8920  -22.7914   21.3449 O   0  0  0  0  0  0  0  0  0  0  0  0
  -23.3637  -18.2134   20.7968 O   0  0  0  0  0  0  0  0  0  0  0  0
  -21.2350  -14.7287   20.1506 O   0  0  0  0  0  0  0  0  0  0  0  0
  -24.2892  -12.3552   22.8999 O   0  0  0  0  0  0  0  0  0  0  0  0
  -29.4053  -27.7288   19.2823 O   0  0  0  0  0  0  0  0  0  0  0  0
  -17.2748  -28.4456   24.0462 O   0  0  0  0  0  0  0  0  0  0  0  0
  -29.2673  -16.8699   21.8104 O   0  0  0  0  0  0  0  0  0  1  0  0
  -29.3630  -20.1209   22.9744 O   0  0  0  0  0  0  0  0  0  0  0  0
  -14.6207  -32.6642   21.6877 F   0  0  0  0  0  0  0  0  0  0  0  0
  -18.5506  -30.8595   23.6124 F   0  0  0  0  0  0  0  0  0  0  0  0
  1  2  1  0  0  0  0
  1  5  2  0  0  0  0
  2  6  2  0  0  0  0
  3  8  2  0  0  0  0
  3 17  1  0  0  0  0
  4  9  1  0  0  0  0
  4 17  2  0  0  0  0
  5 20  1  0  0  0  0
  6 22  1  0  0  0  0
  7 10  2  0  0  0  0
  7 21  1  0  0  0  0
  8 26  1  0  0  0  0
  9 26  2  0  0  0  0
 10 27  1  0  0  0  0
 11 12  2  0  0  0  0
 11 28  1  0  0  0  0
 12 30  1  0  0  0  0
 13 18  2  0  0  0  0
 13 24  1  0  0  0  0
 14 23  1  0  0  0  0
 14 27  2  0  0  0  0
 15 25  2  0  0  0  0
 15 29  1  0  0  0  0
 16 30  2  0  0  0  0
 16 31  1  0  0  0  0
 17 32  1  0  0  0  0
 18 25  1  0  0  0  0
 18 34  1  0  0  0  0
 19 32  1  0  0  0  0
 19 33  2  0  0  0  0
 19 35  1  0  0  0  0
 20 22  2  0  0  0  0
 20 40  1  0  0  0  0
 21 23  2  0  0  0  0
 21 41  1  0  0  0  0
 22 49  1  0  0  0  0
 23 42  1  0  0  0  0
 24 29  2  0  0  0  0
 24 52  1  0  0  0  0
 25 53  1  0  0  0  0
 26 81  1  0  0  0  0
 27 82  1  0  0  0  0
 28 31  2  0  0  0  0
 28 81  1  0  0  0  0
 29 83  1  0  0  0  0
 30 84  1  0  0  0  0
 31 85  1  0  0  0  0
 32 65  2  0  0  0  0
 33 66  1  0  0  0  0
 33 69  1  0  0  0  0
 34 71  1  0  0  0  0
 34 75  2  0  0  0  0
 35 70  1  0  0  0  0
 35 76  2  0  0  0  0
 36 50  1  0  0  0  0
 36 72  1  0  0  0  0
 36 77  2  0  0  0  0
 37 62  1  0  0  0  0
 37 67  1  0  0  0  0
 37 78  2  0  0  0  0
 38 63  1  0  0  0  0
 38 73  1  0  0  0  0
 38 79  2  0  0  0  0
 39 68  1  0  0  0  0
 39 71  1  0  0  0  0
 39 80  2  0  0  0  0
 40 43  1  0  0  0  0
 41 50  1  0  0  0  0
 42 67  1  0  0  0  0
 43 45  1  0  0  0  0
 44 46  1  0  0  0  0
 44 47  1  0  0  0  0
 45 49  1  0  0  0  0
 46 51  1  0  0  0  0
 47 68  1  0  0  0  0
 48 51  1  0  0  0  0
 48 68  1  0  0  0  0
 49 72  1  0  0  0  0
 50 67  1  0  0  0  0
 51 66  1  0  0  0  0
 54 63  1  0  0  0  0
 55 64  1  0  0  0  0
 56 64  1  0  0  0  0
 57 64  1  0  0  0  0
 58 74  1  0  0  0  0
 59 60  1  0  0  0  0
 59 61  1  0  0  0  0
 60 82  1  0  0  0  0
 61 83  1  0  0  0  0
 62 64  1  0  0  0  0
 62 73  1  0  0  0  0
 63 74  1  0  0  0  0
 65 66  1  0  0  0  0
M  CHG  1  74   1
M  ISO  4  39 100  60 101  71 100  82 101
M  END
> <Batch ID>
0104

> <Smiles>
CNC(C)C(=O)NC(C(=O)N1Cc2cc([101O:1][101CH2:1]CCOc3cc(C)c(C(=O)[100NH:0][100C:0](=O)N4CCCC(n5nc(-c6ccc(Oc7ccc(F)cc7F)cc6)c(C(N)=O)c5N)C4)cc3C)ccc2CC1C(=O)NC1CCCc2ccccc21)C(C)(C)C

> <Shape>
0.204

> <Color>
0.074

> <Negative vol penalty>
0.000

$$$$

  -OEChem-04052301083D

 86 95  0     1  0  0  0  0  0999 V2000
  -27.5778  -24.7704   25.8407 C   0  0  0  0  0  0  0  0  0  0  0  0
  -27.2694  -23.4258   25.6606 C   0  0  0  0  0  0  0  0  0  0  0  0
  -26.9071  -25.4570   20.4481 C   0  0  0  0  0  0  0  0  0  0  0  0
  -27.7932  -25.8019   18.2271 C   0  0  0  0  0  0  0  0  0  0  0  0
  -26.5627  -25.7260   25.8203 C   0  0  0  0  0  0  0  0  0  0  0  0
  -25.9455  -23.0360   25.4611 C   0  0  0  0  0  0  0  0  0  0  0  0
  -25.4562  -19.6673   21.7117 C   0  0  0  0  0  0  0  0  0  0  0  0
  -26.0187  -26.5153   20.2581 C   0  0  0  0  0  0  0  0  0  0  0  0
  -26.9046  -26.8602   18.0370 C   0  0  0  0  0  0  0  0  0  0  0  0
  -25.7953  -18.3451   21.9955 C   0  0  0  0  0  0  0  0  0  0  0  0
  -26.1158  -29.8930   20.3356 C   0  0  0  0  0  0  0  0  0  0  0  0
  -25.9762  -30.8152   21.3727 C   0  0  0  0  0  0  0  0  0  0  0  0
  -29.7874  -12.5754   18.6507 C   0  0  0  0  0  0  0  0  0  0  0  0
  -28.5548  -11.9555   18.9663 C   0  0  0  0  0  0  0  0  0  0  0  0
  -23.4595  -17.8136   22.2802 C   0  0  0  0  0  0  0  0  0  0  0  0
  -23.6250  -30.2820   21.5304 C   0  0  0  0  0  0  0  0  0  0  0  0
  -27.7945  -25.1003   19.4326 C   0  0  0  0  0  0  0  0  0  0  0  0
  -29.7080  -23.9005   20.6186 C   0  0  0  0  0  0  0  0  0  0  0  0
  -25.2269  -25.3487   25.6108 C   0  0  0  0  0  0  0  0  0  0  0  0
  -24.1148  -20.0758   21.7208 C   0  0  0  0  0  0  0  0  0  0  0  0
  -24.9115  -23.9873   25.4393 C   0  0  0  0  0  0  0  0  0  0  0  0
  -23.1059  -19.1410   21.9937 C   0  0  0  0  0  0  0  0  0  0  0  0
  -26.0174  -27.2169   19.0525 C   0  0  0  0  0  0  0  0  0  0  0  0
  -24.7971  -17.4186   22.2826 C   0  0  0  0  0  0  0  0  0  0  0  0
  -25.0100  -29.1653   19.8958 C   0  0  0  0  0  0  0  0  0  0  0  0
  -24.7308  -31.0097   21.9701 C   0  0  0  0  0  0  0  0  0  0  0  0
  -23.7646  -29.3598   20.4933 C   0  0  0  0  0  0  0  0  0  0  0  0
  -28.7129  -24.0075   19.6286 C   0  0  0  0  0  0  0  0  0  0  0  0
  -29.7292  -13.8387   19.1916 C   0  0  0  0  0  0  0  0  0  0  0  0
  -30.3019  -22.6856   20.3785 C   0  0  0  0  0  0  0  0  0  0  0  0
  -27.8314  -12.8842   19.6778 C   0  0  0  0  0  0  0  0  0  0  0  0
  -25.7169  -11.6588   20.1537 C   0  0  0  0  0  0  0  0  0  0  0  0
  -25.8652  -14.0189   20.6857 C   0  0  0  0  0  0  0  0  0  0  0  0
  -30.0636  -24.8173   21.6620 C   0  0  0  0  0  0  0  0  0  0  0  0
  -22.4175  -22.1649   23.4115 C   0  0  0  0  0  0  0  0  0  0  0  0
  -20.0770  -21.3739   21.3094 C   0  0  0  0  0  0  0  0  0  0  0  0
  -18.8438  -18.3619   19.7523 C   0  0  0  0  0  0  0  0  0  0  0  0
  -29.9192  -17.3284   19.3292 C   0  0  0  0  0  0  0  0  0  0  0  0
  -24.1583  -26.4125   25.6442 C   0  0  0  0  0  0  0  0  0  0  0  0
  -23.7637  -21.4996   21.3864 C   0  0  0  0  0  0  0  0  0  0  0  0
  -21.6493  -19.5242   21.9962 C   0  0  0  0  0  0  0  0  0  0  0  0
  -24.7151  -11.4549   21.2698 C   0  0  0  0  0  0  0  0  0  0  0  0
  -22.8266  -25.9569   25.0533 C   0  0  0  0  0  0  0  0  0  0  0  0
  -23.9331  -12.7201   21.5404 C   0  0  0  0  0  0  0  0  0  0  0  0
  -29.8675  -19.5243   16.4530 C   0  0  0  0  0  0  0  0  0  0  0  0
  -22.4475  -24.5803   25.5902 C   0  0  0  0  0  0  0  0  0  0  0  0
  -29.6431  -20.8857   17.1137 C   0  0  0  0  0  0  0  0  0  0  0  0
  -29.0813  -18.4278   17.1655 C   0  0  0  0  0  0  0  0  0  0  0  0
  -29.1355  -19.6792   19.2878 C   0  0  0  0  0  0  0  0  0  0  0  0
  -23.4904  -23.5278   25.1954 C   0  0  1  0  0  0  0  0  0  0  0  0
  -24.9130  -13.8351   21.8644 C   0  0  2  0  0  0  0  0  0  0  0  0
  -22.4019  -21.9224   21.9287 C   0  0  1  0  0  0  0  0  0  0  0  0
  -29.9214  -20.8266   18.6274 C   0  0  2  0  0  0  0  0  0  0  0  0
  -17.6572  -18.0230   17.5673 C   0  0  0  0  0  0  0  0  0  0  0  0
  -17.5375  -21.5772   22.9885 C   0  0  0  0  0  0  0  0  0  0  0  0
  -16.5334  -19.7820   21.5611 C   0  0  0  0  0  0  0  0  0  0  0  0
  -17.2021  -21.9573   20.5395 C   0  0  0  0  0  0  0  0  0  0  0  0
  -20.8489  -16.3869   18.8370 C   0  0  0  0  0  0  0  0  0  0  0  0
  -30.6713  -14.9664   19.2163 C   0  0  0  0  0  0  0  0  0  0  0  0
  -24.1729  -15.1250   22.2083 C   0  0  0  0  0  0  0  0  0  1  0  0
  -18.9924  -20.3249   21.2619 C   0  0  1  0  0  0  0  0  0  0  0  0
  -18.9918  -17.9665   18.2941 C   0  0  2  0  0  0  0  0  0  0  0  0
  -17.5908  -20.9059   21.6016 C   0  0  0  0  0  0  0  0  0  0  0  0
  -28.6739  -22.9453   18.8197 N   0  0  0  0  0  0  0  0  0  0  0  0
  -29.6520  -22.1594   19.3010 N   0  0  0  0  0  0  0  0  0  0  0  0
  -26.4972  -12.8264   20.2693 N   0  0  0  0  0  0  0  0  0  0  0  0
  -21.3572  -20.9297   21.6694 N   0  0  0  0  0  0  0  0  0  0  0  0
  -29.4058  -18.4129   18.5988 N   0  0  0  0  0  0  0  0  0  0  0  0
  -31.3116  -22.0267   20.9860 N   0  0  0  0  0  0  0  0  0  0  0  0
  -31.0378  -25.7888   21.3945 N   0  0  0  0  0  0  0  0  0  0  0  0
  -23.3148  -23.1359   23.8134 N   0  0  0  0  0  0  0  0  0  0  0  0
  -19.0796  -19.7070   19.9432 N   0  0  0  0  0  0  0  0  0  0  0  0
  -30.1404  -16.1640   18.6039 N   0  0  0  0  0  0  0  0  0  0  0  0
  -19.5280  -16.5803   18.1852 N   0  3  0  0  0  0  0  0  0  0  0  0
  -25.7554  -10.8408   19.2336 O   0  0  0  0  0  0  0  0  0  0  0  0
  -25.9948  -15.1197   20.1485 O   0  0  0  0  0  0  0  0  0  0  0  0
  -29.5451  -24.7658   22.8030 O   0  0  0  0  0  0  0  0  0  0  0  0
  -21.6696  -21.5200   24.1371 O   0  0  0  0  0  0  0  0  0  0  0  0
  -19.8001  -22.5431   21.0301 O   0  0  0  0  0  0  0  0  0  0  0  0
  -18.5450  -17.5586   20.6332 O   0  0  0  0  0  0  0  0  0  0  0  0
  -30.1675  -17.3943   20.5380 O   0  0  0  0  0  0  0  0  0  0  0  0
  -28.5402  -14.0348   19.8195 O   0  0  0  0  0  0  0  0  0  0  0  0
  -25.1503  -28.2495   18.8666 O   0  0  0  0  0  0  0  0  0  0  0  0
  -25.1253  -16.1276   22.5606 O   0  0  0  0  0  0  0  0  0  1  0  0
  -24.5973  -31.8942   22.9671 F   0  0  0  0  0  0  0  0  0  0  0  0
  -22.6989  -28.6627   20.0759 F   0  0  0  0  0  0  0  0  0  0  0  0
  1  2  1  0  0  0  0
  1  5  2  0  0  0  0
  2  6  2  0  0  0  0
  3  8  2  0  0  0  0
  3 17  1  0  0  0  0
  4  9  1  0  0  0  0
  4 17  2  0  0  0  0
  5 19  1  0  0  0  0
  6 21  1  0  0  0  0
  7 10  2  0  0  0  0
  7 20  1  0  0  0  0
  8 23  1  0  0  0  0
  9 23  2  0  0  0  0
 10 24  1  0  0  0  0
 11 12  2  0  0  0  0
 11 25  1  0  0  0  0
 12 26  1  0  0  0  0
 13 14  1  0  0  0  0
 13 29  2  0  0  0  0
 14 31  2  0  0  0  0
 15 22  1  0  0  0  0
 15 24  2  0  0  0  0
 16 26  2  0  0  0  0
 16 27  1  0  0  0  0
 17 28  1  0  0  0  0
 18 28  1  0  0  0  0
 18 30  2  0  0  0  0
 18 34  1  0  0  0  0
 19 21  2  0  0  0  0
 19 39  1  0  0  0  0
 20 22  2  0  0  0  0
 20 40  1  0  0  0  0
 21 50  1  0  0  0  0
 22 41  1  0  0  0  0
 23 83  1  0  0  0  0
 24 84  1  0  0  0  0
 25 27  2  0  0  0  0
 25 83  1  0  0  0  0
 26 85  1  0  0  0  0
 27 86  1  0  0  0  0
 28 64  2  0  0  0  0
 29 59  1  0  0  0  0
 29 82  1  0  0  0  0
 30 65  1  0  0  0  0
 30 69  1  0  0  0  0
 31 66  1  0  0  0  0
 31 82  1  0  0  0  0
 32 42  1  0  0  0  0
 32 66  1  0  0  0  0
 32 75  2  0  0  0  0
 33 51  1  0  0  0  0
 33 66  1  0  0  0  0
 33 76  2  0  0  0  0
 34 70  1  0  0  0  0
 34 77  2  0  0  0  0
 35 52  1  0  0  0  0
 35 71  1  0  0  0  0
 35 78  2  0  0  0  0
 36 61  1  0  0  0  0
 36 67  1  0  0  0  0
 36 79  2  0  0  0  0
 37 62  1  0  0  0  0
 37 72  1  0  0  0  0
 37 80  2  0  0  0  0
 38 68  1  0  0  0  0
 38 73  1  0  0  0  0
 38 81  2  0  0  0  0
 39 43  1  0  0  0  0
 40 52  1  0  0  0  0
 41 67  1  0  0  0  0
 42 44  1  0  0  0  0
 43 46  1  0  0  0  0
 44 51  1  0  0  0  0
 45 47  1  0  0  0  0
 45 48  1  0  0  0  0
 46 50  1  0  0  0  0
 47 53  1  0  0  0  0
 48 68  1  0  0  0  0
 49 53  1  0  0  0  0
 49 68  1  0  0  0  0
 50 71  1  0  0  0  0
 51 60  1  0  0  0  0
 52 67  1  0  0  0  0
 53 65  1  0  0  0  0
 54 62  1  0  0  0  0
 55 63  1  0  0  0  0
 56 63  1  0  0  0  0
 57 63  1  0  0  0  0
 58 74  1  0  0  0  0
 59 73  1  0  0  0  0
 60 84  1  0  0  0  0
 61 63  1  0  0  0  0
 61 72  1  0  0  0  0
 62 74  1  0  0  0  0
 64 65  1  0  0  0  0
M  CHG  1  74   1
M  ISO  4  38 100  60 101  73 100  84 101
M  END
> <Batch ID>
0104

> <Smiles>
CNC(C)C(=O)NC(C(=O)N1Cc2cc([101O:1][101CH2:1]C3CCC(=O)N(c4ccc(C[100NH:0][100C:0](=O)N5CCCC(n6nc(-c7ccc(Oc8ccc(F)cc8F)cc7)c(C(N)=O)c6N)C5)o4)C3=O)ccc2CC1C(=O)NC1CCCc2ccccc21)C(C)(C)C

> <Shape>
0.198

> <Color>
0.094

> <Negative vol penalty>
0.000

$$$$

  -OEChem-04052301083D

 84 92  0     1  0  0  0  0  0999 V2000
  -30.0680  -31.8536   25.3994 C   0  0  0  0  0  0  0  0  0  0  0  0
  -29.7446  -30.7987   24.5521 C   0  0  0  0  0  0  0  0  0  0  0  0
  -24.1036   -8.8439   21.1143 C   0  0  0  0  0  0  0  0  0  0  0  0
  -22.8608  -10.7903   20.4045 C   0  0  0  0  0  0  0  0  0  0  0  0
  -29.0864  -32.4202   26.2114 C   0  0  0  0  0  0  0  0  0  0  0  0
  -28.4394  -30.3090   24.5171 C   0  0  0  0  0  0  0  0  0  0  0  0
  -26.7815  -29.5330   19.7954 C   0  0  0  0  0  0  0  0  0  0  0  0
  -23.0155   -8.4289   21.8820 C   0  0  0  0  0  0  0  0  0  0  0  0
  -21.7726  -10.3753   21.1721 C   0  0  0  0  0  0  0  0  0  0  0  0
  -27.2235  -28.3808   19.1467 C   0  0  0  0  0  0  0  0  0  0  0  0
  -20.8568  -10.4223   24.4264 C   0  0  0  0  0  0  0  0  0  0  0  0
  -20.2139  -11.3802   25.2104 C   0  0  0  0  0  0  0  0  0  0  0  0
  -25.1327  -27.2946   19.6642 C   0  0  0  0  0  0  0  0  0  0  0  0
  -29.2879  -20.0220   20.9915 C   0  0  0  0  0  0  0  0  0  0  0  0
  -30.5700  -19.7503   18.9618 C   0  0  0  0  0  0  0  0  0  0  0  0
  -18.1537  -10.9759   24.0149 C   0  0  0  0  0  0  0  0  0  0  0  0
  -24.0263  -10.0246   20.3757 C   0  0  0  0  0  0  0  0  0  0  0  0
  -25.4145  -10.1325   18.2381 C   0  0  0  0  0  0  0  0  0  0  0  0
  -27.7664  -31.9435   26.1793 C   0  0  0  0  0  0  0  0  0  0  0  0
  -25.5139  -29.5710   20.3939 C   0  0  0  0  0  0  0  0  0  0  0  0
  -27.4395  -30.8688   25.3304 C   0  0  0  0  0  0  0  0  0  0  0  0
  -24.6760  -28.4493   20.3177 C   0  0  0  0  0  0  0  0  0  0  0  0
  -29.4328  -18.6620   21.2651 C   0  0  0  0  0  0  0  0  0  0  0  0
  -30.1463  -17.8461   20.3871 C   0  0  0  0  0  0  0  0  0  0  0  0
  -29.8564  -20.5662   19.8398 C   0  0  0  0  0  0  0  0  0  0  0  0
  -21.8499   -9.1946   21.9109 C   0  0  0  0  0  0  0  0  0  0  0  0
  -26.4003  -27.2604   19.0835 C   0  0  0  0  0  0  0  0  0  0  0  0
  -20.1482   -9.7412   23.4366 C   0  0  0  0  0  0  0  0  0  0  0  0
  -18.8623  -11.6570   25.0046 C   0  0  0  0  0  0  0  0  0  0  0  0
  -30.7149  -18.3903   19.2354 C   0  0  0  0  0  0  0  0  0  0  0  0
  -18.7967  -10.0180   23.2309 C   0  0  0  0  0  0  0  0  0  0  0  0
  -25.1503  -10.4540   19.5830 C   0  0  0  0  0  0  0  0  0  0  0  0
  -26.5912  -10.7816   17.9546 C   0  0  0  0  0  0  0  0  0  0  0  0
  -24.6632   -9.3198   17.3266 C   0  0  0  0  0  0  0  0  0  0  0  0
  -24.4451  -29.9711   23.3606 C   0  0  0  0  0  0  0  0  0  0  0  0
  -29.0476  -15.6203   20.3689 C   0  0  0  0  0  0  0  0  0  0  0  0
  -21.5488  -29.9811   21.8998 C   0  0  0  0  0  0  0  0  0  0  0  0
  -19.6549  -29.0583   19.2149 C   0  0  0  0  0  0  0  0  0  0  0  0
  -26.7503  -32.5567   27.1100 C   0  0  0  0  0  0  0  0  0  0  0  0
  -25.0414  -30.8305   21.0667 C   0  0  0  0  0  0  0  0  0  0  0  0
  -23.2984  -28.4458   20.9265 C   0  0  0  0  0  0  0  0  0  0  0  0
  -25.3069  -32.2264   26.7388 C   0  0  0  0  0  0  0  0  0  0  0  0
  -30.6027  -12.3512   20.0206 C   0  0  0  0  0  0  0  0  0  0  0  0
  -25.1598  -30.7378   26.4401 C   0  0  0  0  0  0  0  0  0  0  0  0
  -29.3870  -11.4592   19.7726 C   0  0  0  0  0  0  0  0  0  0  0  0
  -30.2788  -13.4848   20.9901 C   0  0  0  0  0  0  0  0  0  0  0  0
  -27.8962  -13.4308   20.3231 C   0  0  0  0  0  0  0  0  0  0  0  0
  -26.0294  -30.3262   25.2460 C   0  0  1  0  0  0  0  0  0  0  0  0
  -23.9345  -30.5837   22.0871 C   0  0  1  0  0  0  0  0  0  0  0  0
  -28.1728  -12.2926   19.3267 C   0  0  2  0  0  0  0  0  0  0  0  0
  -28.8148  -18.1020   22.5040 C   0  0  0  0  0  0  0  0  0  0  0  0
  -17.3123  -29.1761   18.3229 C   0  0  0  0  0  0  0  0  0  0  0  0
  -20.7020  -27.7842   23.8405 C   0  0  0  0  0  0  0  0  0  0  0  0
  -18.7663  -27.2928   22.3305 C   0  0  0  0  0  0  0  0  0  0  0  0
  -18.9618  -29.5298   23.4170 C   0  0  0  0  0  0  0  0  0  0  0  0
  -20.5147  -30.5922   16.8344 C   0  0  0  0  0  0  0  0  0  0  0  0
  -30.3123  -16.3875   20.6620 C   0  0  0  0  0  0  0  0  0  0  0  0
  -29.9849  -24.0635   18.4218 C   0  0  0  0  0  0  0  0  0  0  0  0
  -28.4890  -24.3805   18.3965 C   0  0  0  0  0  0  0  0  0  0  0  0
  -30.2671  -22.5634   18.4017 C   0  0  0  0  0  0  0  0  0  0  0  0
  -28.2339  -25.8813   18.4575 C   0  0  0  0  0  0  0  0  0  1  0  0
  -20.5337  -28.9262   21.5311 C   0  0  1  0  0  0  0  0  0  0  0  0
  -18.6800  -29.8405   18.3534 C   0  0  2  0  0  0  0  0  0  0  0  0
  -19.7676  -28.3824   22.7699 C   0  0  0  0  0  0  0  0  0  0  0  0
  -26.0842  -11.2457   20.1169 N   0  0  0  0  0  0  0  0  0  0  0  0
  -26.9468  -11.4270   19.1023 N   0  0  0  0  0  0  0  0  0  0  0  0
  -22.8842  -29.6989   21.5788 N   0  0  0  0  0  0  0  0  0  0  0  0
  -29.1000  -14.2372   20.5443 N   0  0  0  0  0  0  0  0  0  0  0  0
  -27.3463  -10.8574   16.8381 N   0  0  0  0  0  0  0  0  0  0  0  0
  -23.4772   -8.7274   17.7813 N   0  0  0  0  0  0  0  0  0  0  0  0
  -29.7131  -21.9175   19.5677 N   0  0  0  0  0  0  0  0  0  0  0  0
  -25.4053  -30.7285   24.0038 N   0  0  0  0  0  0  0  0  0  0  0  0
  -19.6762  -29.5231   20.5129 N   0  0  0  0  0  0  0  0  0  0  0  0
  -19.1866  -29.9374   16.9553 N   0  3  0  0  0  0  0  0  0  0  0  0
  -25.0412   -9.1114   16.1488 O   0  0  0  0  0  0  0  0  0  0  0  0
  -23.9997  -28.8918   23.7328 O   0  0  0  0  0  0  0  0  0  0  0  0
  -28.0451  -16.2333   19.9929 O   0  0  0  0  0  0  0  0  0  0  0  0
  -21.1700  -31.0203   22.4457 O   0  0  0  0  0  0  0  0  0  0  0  0
  -20.3274  -28.1256   18.7808 O   0  0  0  0  0  0  0  0  0  0  0  0
  -20.7878   -8.7899   22.6596 O   0  0  0  0  0  0  0  0  0  0  0  0
  -26.8295  -26.1343   18.4514 O   0  0  0  0  0  0  0  0  0  1  0  0
  -18.2447  -12.5758   25.7586 F   0  0  0  0  0  0  0  0  0  0  0  0
  -31.4023  -17.6148   18.3852 F   0  0  0  0  0  0  0  0  0  0  0  0
  -18.1104   -9.3660   22.2823 F   0  0  0  0  0  0  0  0  0  0  0  0
  1  2  1  0  0  0  0
  1  5  2  0  0  0  0
  2  6  2  0  0  0  0
  3  8  2  0  0  0  0
  3 17  1  0  0  0  0
  4  9  1  0  0  0  0
  4 17  2  0  0  0  0
  5 19  1  0  0  0  0
  6 21  1  0  0  0  0
  7 10  2  0  0  0  0
  7 20  1  0  0  0  0
  8 26  1  0  0  0  0
  9 26  2  0  0  0  0
 10 27  1  0  0  0  0
 11 12  2  0  0  0  0
 11 28  1  0  0  0  0
 12 29  1  0  0  0  0
 13 22  1  0  0  0  0
 13 27  2  0  0  0  0
 14 23  2  0  0  0  0
 14 25  1  0  0  0  0
 15 25  2  0  0  0  0
 15 30  1  0  0  0  0
 16 29  2  0  0  0  0
 16 31  1  0  0  0  0
 17 32  1  0  0  0  0
 18 32  1  0  0  0  0
 18 33  2  0  0  0  0
 18 34  1  0  0  0  0
 19 21  2  0  0  0  0
 19 39  1  0  0  0  0
 20 22  2  0  0  0  0
 20 40  1  0  0  0  0
 21 48  1  0  0  0  0
 22 41  1  0  0  0  0
 23 24  1  0  0  0  0
 23 51  1  0  0  0  0
 24 30  2  0  0  0  0
 24 57  1  0  0  0  0
 25 71  1  0  0  0  0
 26 80  1  0  0  0  0
 27 81  1  0  0  0  0
 28 31  2  0  0  0  0
 28 80  1  0  0  0  0
 29 82  1  0  0  0  0
 30 83  1  0  0  0  0
 31 84  1  0  0  0  0
 32 65  2  0  0  0  0
 33 66  1  0  0  0  0
 33 69  1  0  0  0  0
 34 70  1  0  0  0  0
 34 75  2  0  0  0  0
 35 49  1  0  0  0  0
 35 72  1  0  0  0  0
 35 76  2  0  0  0  0
 36 57  1  0  0  0  0
 36 68  1  0  0  0  0
 36 77  2  0  0  0  0
 37 62  1  0  0  0  0
 37 67  1  0  0  0  0
 37 78  2  0  0  0  0
 38 63  1  0  0  0  0
 38 73  1  0  0  0  0
 38 79  2  0  0  0  0
 39 42  1  0  0  0  0
 40 49  1  0  0  0  0
 41 67  1  0  0  0  0
 42 44  1  0  0  0  0
 43 45  1  0  0  0  0
 43 46  1  0  0  0  0
 44 48  1  0  0  0  0
 45 50  1  0  0  0  0
 46 68  1  0  0  0  0
 47 50  1  0  0  0  0
 47 68  1  0  0  0  0
 48 72  1  0  0  0  0
 49 67  1  0  0  0  0
 50 66  1  0  0  0  0
 52 63  1  0  0  0  0
 53 64  1  0  0  0  0
 54 64  1  0  0  0  0
 55 64  1  0  0  0  0
 56 74  1  0  0  0  0
 58 59  1  0  0  0  0
 58 60  1  0  0  0  0
 59 61  1  0  0  0  0
 60 71  1  0  0  0  0
 61 81  1  0  0  0  0
 62 64  1  0  0  0  0
 62 73  1  0  0  0  0
 63 74  1  0  0  0  0
 65 66  1  0  0  0  0
M  CHG  1  74   1
M  ISO  4  36 100  57 100  61 101  81 101
M  END
> <Batch ID>
0104

> <Smiles>
CNC(C)C(=O)NC(C(=O)N1Cc2cc([101O:1][101CH2:1]CCCNc3cc(C)c([100CH2:0][100C:0](=O)N4CCCC(n5nc(-c6ccc(Oc7ccc(F)cc7F)cc6)c(C(N)=O)c5N)C4)c(F)c3)ccc2CC1C(=O)NC1CCCc2ccccc21)C(C)(C)C

> <Shape>
0.308

> <Color>
0.084

> <Negative vol penalty>
0.000

$$$$

  -OEChem-04052301083D

 85 93  0     1  0  0  0  0  0999 V2000
  -25.0826  -16.1390   15.2299 C   0  0  0  0  0  0  0  0  0  0  0  0
  -25.5852  -16.2646   16.5210 C   0  0  0  0  0  0  0  0  0  0  0  0
  -23.1025   -9.8605   21.4145 C   0  0  0  0  0  0  0  0  0  0  0  0
  -23.8653  -10.7054   23.5456 C   0  0  0  0  0  0  0  0  0  0  0  0
  -24.2320  -17.1169   14.7160 C   0  0  0  0  0  0  0  0  0  0  0  0
  -25.2384  -17.3689   17.2986 C   0  0  0  0  0  0  0  0  0  0  0  0
  -24.3920  -17.4814   23.3630 C   0  0  0  0  0  0  0  0  0  0  0  0
  -22.3830   -8.8604   22.0685 C   0  0  0  0  0  0  0  0  0  0  0  0
  -23.1457   -9.7053   24.1996 C   0  0  0  0  0  0  0  0  0  0  0  0
  -25.2182  -17.8652   24.4184 C   0  0  0  0  0  0  0  0  0  0  0  0
  -23.0241   -5.8795   23.5271 C   0  0  0  0  0  0  0  0  0  0  0  0
  -23.1110   -4.5829   23.0205 C   0  0  0  0  0  0  0  0  0  0  0  0
  -24.1941  -20.0493   24.4179 C   0  0  0  0  0  0  0  0  0  0  0  0
  -30.1669  -18.9470   24.0128 C   0  0  0  0  0  0  0  0  0  0  0  0
  -29.3240  -19.2188   21.3674 C   0  0  0  0  0  0  0  0  0  0  0  0
  -20.7230   -4.5664   22.6535 C   0  0  0  0  0  0  0  0  0  0  0  0
  -23.8437  -10.7829   22.1530 C   0  0  0  0  0  0  0  0  0  0  0  0
  -24.1331  -13.1022   21.1309 C   0  0  0  0  0  0  0  0  0  0  0  0
  -23.8668  -18.2289   15.4912 C   0  0  0  0  0  0  0  0  0  0  0  0
  -23.4667  -18.3838   22.8190 C   0  0  0  0  0  0  0  0  0  0  0  0
  -24.3832  -18.3633   16.7941 C   0  0  0  0  0  0  0  0  0  0  0  0
  -23.3556  -19.6737   23.3573 C   0  0  0  0  0  0  0  0  0  0  0  0
  -30.6314  -18.0635   23.0386 C   0  0  0  0  0  0  0  0  0  0  0  0
  -30.2100  -18.1994   21.7159 C   0  0  0  0  0  0  0  0  0  0  0  0
  -22.4045   -8.7828   23.4611 C   0  0  0  0  0  0  0  0  0  0  0  0
  -25.1213  -19.1502   24.9441 C   0  0  0  0  0  0  0  0  0  0  0  0
  -21.7868   -6.5196   23.5971 C   0  0  0  0  0  0  0  0  0  0  0  0
  -28.8594  -20.1023   22.3417 C   0  0  0  0  0  0  0  0  0  0  0  0
  -29.2808  -19.9664   23.6644 C   0  0  0  0  0  0  0  0  0  0  0  0
  -21.9604   -3.9263   22.5837 C   0  0  0  0  0  0  0  0  0  0  0  0
  -20.6362   -5.8631   23.1602 C   0  0  0  0  0  0  0  0  0  0  0  0
  -24.5876  -11.8159   21.4780 C   0  0  0  0  0  0  0  0  0  0  0  0
  -25.2090  -13.6915   20.5131 C   0  0  0  0  0  0  0  0  0  0  0  0
  -22.8528  -13.7102   21.3476 C   0  0  0  0  0  0  0  0  0  0  0  0
  -23.0407  -19.7105   19.9621 C   0  0  0  0  0  0  0  0  0  0  0  0
  -20.3368  -20.8644   21.3331 C   0  0  0  0  0  0  0  0  0  0  0  0
  -18.6741  -21.7212   24.1875 C   0  0  0  0  0  0  0  0  0  0  0  0
  -30.6708  -14.8130   20.2750 C   0  0  0  0  0  0  0  0  0  0  0  0
  -22.9823  -19.2840   14.8756 C   0  0  0  0  0  0  0  0  0  0  0  0
  -22.5642  -17.9457   21.6983 C   0  0  0  0  0  0  0  0  0  0  0  0
  -22.3643  -20.6736   22.8224 C   0  0  0  0  0  0  0  0  0  0  0  0
  -22.3646  -20.2337   15.8987 C   0  0  0  0  0  0  0  0  0  0  0  0
  -29.5794  -11.7092   18.9142 C   0  0  0  0  0  0  0  0  0  0  0  0
  -23.4211  -20.7108   16.8901 C   0  0  0  0  0  0  0  0  0  0  0  0
  -28.1489  -11.5637   19.4362 C   0  0  0  0  0  0  0  0  0  0  0  0
  -30.4934  -12.3640   19.9475 C   0  0  0  0  0  0  0  0  0  0  0  0
  -28.5789  -13.5086   20.9954 C   0  0  0  0  0  0  0  0  0  0  0  0
  -24.0103  -19.5342   17.6774 C   0  0  1  0  0  0  0  0  0  0  0  0
  -22.0150  -19.1122   20.8827 C   0  0  1  0  0  0  0  0  0  0  0  0
  -27.6069  -12.9042   19.9677 C   0  0  2  0  0  0  0  0  0  0  0  0
  -31.5803  -16.9808   23.4351 C   0  0  0  0  0  0  0  0  0  0  0  0
  -16.4936  -22.6716   24.9873 C   0  0  0  0  0  0  0  0  0  0  0  0
  -21.2357  -23.6488   20.4676 C   0  0  0  0  0  0  0  0  0  0  0  0
  -19.5727  -24.6090   22.0740 C   0  0  0  0  0  0  0  0  0  0  0  0
  -18.7936  -23.2009   20.1680 C   0  0  0  0  0  0  0  0  0  0  0  0
  -18.0378  -19.2734   25.7245 C   0  0  0  0  0  0  0  0  0  0  0  0
  -27.6137  -21.1639   20.6163 C   0  0  0  0  0  0  0  0  0  0  0  0
  -30.6939  -17.2652   20.6561 C   0  0  0  0  0  0  0  0  0  0  0  0
  -27.6422  -21.0555   26.7124 C   0  0  0  0  0  0  0  0  0  0  0  0
  -26.2821  -20.9077   26.0486 C   0  0  0  0  0  0  0  0  0  1  0  0
  -28.7301  -20.3137   25.9517 C   0  0  0  0  0  0  0  0  0  0  0  0
  -19.9800  -22.1063   22.1138 C   0  0  1  0  0  0  0  0  0  0  0  0
  -17.2701  -21.4033   24.6695 C   0  0  2  0  0  0  0  0  0  0  0  0
  -19.9157  -23.3733   21.2149 C   0  0  0  0  0  0  0  0  0  0  0  0
  -25.8536  -11.5999   21.1110 N   0  0  0  0  0  0  0  0  0  0  0  0
  -26.2037  -12.7585   20.5269 N   0  0  0  0  0  0  0  0  0  0  0  0
  -21.5085  -20.1998   21.7221 N   0  0  0  0  0  0  0  0  0  0  0  0
  -29.9230  -13.6316   20.4096 N   0  0  0  0  0  0  0  0  0  0  0  0
  -25.3917  -14.9115   19.9648 N   0  0  0  0  0  0  0  0  0  0  0  0
  -21.8604  -12.9641   21.9978 N   0  0  0  0  0  0  0  0  0  0  0  0
  -23.0958  -19.1133   18.7172 N   0  0  0  0  0  0  0  0  0  0  0  0
  -18.7352  -21.8056   22.8126 N   0  0  0  0  0  0  0  0  0  0  0  0
  -30.0537  -15.9709   20.7323 N   0  0  0  0  0  0  0  0  0  0  0  0
  -17.3225  -20.5636   25.8996 N   0  3  0  0  0  0  0  0  0  0  0  0
  -22.5912  -14.8745   20.9611 O   0  0  0  0  0  0  0  0  0  0  0  0
  -23.7300  -20.6457   20.3518 O   0  0  0  0  0  0  0  0  0  0  0  0
  -19.5991  -20.4935   20.4166 O   0  0  0  0  0  0  0  0  0  0  0  0
  -19.6210  -21.8826   24.9543 O   0  0  0  0  0  0  0  0  0  0  0  0
  -31.8022  -14.8350   19.7787 O   0  0  0  0  0  0  0  0  0  0  0  0
  -21.7023   -7.8073   24.0996 O   0  0  0  0  0  0  0  0  0  0  0  0
  -27.9948  -21.0942   21.9889 O   0  0  0  0  0  0  0  0  0  0  0  0
  -25.9270  -19.5276   25.9739 O   0  0  0  0  0  0  0  0  0  1  0  0
  -28.8317  -20.8283   24.6309 O   0  0  0  0  0  0  0  0  0  0  0  0
  -22.0442   -2.6817   22.0957 F   0  0  0  0  0  0  0  0  0  0  0  0
  -19.4448   -6.4733   23.2238 F   0  0  0  0  0  0  0  0  0  0  0  0
  1  2  1  0  0  0  0
  1  5  2  0  0  0  0
  2  6  2  0  0  0  0
  3  8  2  0  0  0  0
  3 17  1  0  0  0  0
  4  9  1  0  0  0  0
  4 17  2  0  0  0  0
  5 19  1  0  0  0  0
  6 21  1  0  0  0  0
  7 10  2  0  0  0  0
  7 20  1  0  0  0  0
  8 25  1  0  0  0  0
  9 25  2  0  0  0  0
 10 26  1  0  0  0  0
 11 12  2  0  0  0  0
 11 27  1  0  0  0  0
 12 30  1  0  0  0  0
 13 22  1  0  0  0  0
 13 26  2  0  0  0  0
 14 23  2  0  0  0  0
 14 29  1  0  0  0  0
 15 24  2  0  0  0  0
 15 28  1  0  0  0  0
 16 30  2  0  0  0  0
 16 31  1  0  0  0  0
 17 32  1  0  0  0  0
 18 32  1  0  0  0  0
 18 33  2  0  0  0  0
 18 34  1  0  0  0  0
 19 21  2  0  0  0  0
 19 39  1  0  0  0  0
 20 22  2  0  0  0  0
 20 40  1  0  0  0  0
 21 48  1  0  0  0  0
 22 41  1  0  0  0  0
 23 24  1  0  0  0  0
 23 51  1  0  0  0  0
 24 58  1  0  0  0  0
 25 80  1  0  0  0  0
 26 82  1  0  0  0  0
 27 31  2  0  0  0  0
 27 80  1  0  0  0  0
 28 29  2  0  0  0  0
 28 81  1  0  0  0  0
 29 83  1  0  0  0  0
 30 84  1  0  0  0  0
 31 85  1  0  0  0  0
 32 65  2  0  0  0  0
 33 66  1  0  0  0  0
 33 69  1  0  0  0  0
 34 70  1  0  0  0  0
 34 75  2  0  0  0  0
 35 49  1  0  0  0  0
 35 71  1  0  0  0  0
 35 76  2  0  0  0  0
 36 62  1  0  0  0  0
 36 67  1  0  0  0  0
 36 77  2  0  0  0  0
 37 63  1  0  0  0  0
 37 72  1  0  0  0  0
 37 78  2  0  0  0  0
 38 68  1  0  0  0  0
 38 73  1  0  0  0  0
 38 79  2  0  0  0  0
 39 42  1  0  0  0  0
 40 49  1  0  0  0  0
 41 67  1  0  0  0  0
 42 44  1  0  0  0  0
 43 45  1  0  0  0  0
 43 46  1  0  0  0  0
 44 48  1  0  0  0  0
 45 50  1  0  0  0  0
 46 68  1  0  0  0  0
 47 50  1  0  0  0  0
 47 68  1  0  0  0  0
 48 71  1  0  0  0  0
 49 67  1  0  0  0  0
 50 66  1  0  0  0  0
 52 63  1  0  0  0  0
 53 64  1  0  0  0  0
 54 64  1  0  0  0  0
 55 64  1  0  0  0  0
 56 74  1  0  0  0  0
 57 81  1  0  0  0  0
 58 73  1  0  0  0  0
 59 60  1  0  0  0  0
 59 61  1  0  0  0  0
 60 82  1  0  0  0  0
 61 83  1  0  0  0  0
 62 64  1  0  0  0  0
 62 72  1  0  0  0  0
 63 74  1  0  0  0  0
 65 66  1  0  0  0  0
M  CHG  1  74   1
M  ISO  4  38 100  60 101  73 100  82 101
M  END
> <Batch ID>
0104

> <Smiles>
CNC(C)C(=O)NC(C(=O)N1Cc2cc([101O:1][101CH2:1]CCOc3cc(C)c(C[100NH:0][100C:0](=O)N4CCCC(n5nc(-c6ccc(Oc7ccc(F)cc7F)cc6)c(C(N)=O)c5N)C4)cc3OC)ccc2CC1C(=O)NC1CCCc2ccccc21)C(C)(C)C

> <Shape>
0.171

> <Color>
0.153

> <Negative vol penalty>
0.000

$$$$

  -OEChem-04052301083D

 86 95  0     1  0  0  0  0  0999 V2000
  -22.7168  -27.2314   18.5980 C   0  0  0  0  0  0  0  0  0  0  0  0
  -23.0854  -25.9875   18.0958 C   0  0  0  0  0  0  0  0  0  0  0  0
  -26.3694  -28.3719   18.8414 C   0  0  0  0  0  0  0  0  0  0  0  0
  -26.1783  -27.6720   21.1459 C   0  0  0  0  0  0  0  0  0  0  0  0
  -22.3152  -27.3541   19.9275 C   0  0  0  0  0  0  0  0  0  0  0  0
  -23.0536  -24.8655   18.9233 C   0  0  0  0  0  0  0  0  0  0  0  0
  -21.8123  -17.8133   18.7215 C   0  0  0  0  0  0  0  0  0  0  0  0
  -25.4103  -29.3604   19.0621 C   0  0  0  0  0  0  0  0  0  0  0  0
  -25.2192  -28.6605   21.3666 C   0  0  0  0  0  0  0  0  0  0  0  0
  -22.4006  -16.6050   19.0929 C   0  0  0  0  0  0  0  0  0  0  0  0
  -22.9832  -31.2338   22.6301 C   0  0  0  0  0  0  0  0  0  0  0  0
  -23.0971  -32.0018   23.7889 C   0  0  0  0  0  0  0  0  0  0  0  0
  -21.6139  -16.9229   21.3510 C   0  0  0  0  0  0  0  0  0  0  0  0
  -29.5782  -15.4540   19.4766 C   0  0  0  0  0  0  0  0  0  0  0  0
  -28.3432  -13.3826   19.3321 C   0  0  0  0  0  0  0  0  0  0  0  0
  -27.3651  -15.2978   20.4332 C   0  0  0  0  0  0  0  0  0  0  0  0
  -25.2731  -32.7656   23.0688 C   0  0  0  0  0  0  0  0  0  0  0  0
  -26.7534  -27.5277   19.8833 C   0  0  0  0  0  0  0  0  0  0  0  0
  -29.1381  -26.6250   19.8078 C   0  0  0  0  0  0  0  0  0  0  0  0
  -22.2692  -26.2314   20.7690 C   0  0  0  0  0  0  0  0  0  0  0  0
  -21.1285  -18.5920   19.6663 C   0  0  0  0  0  0  0  0  0  0  0  0
  -22.6522  -24.9735   20.2657 C   0  0  0  0  0  0  0  0  0  0  0  0
  -21.0156  -18.1394   20.9886 C   0  0  0  0  0  0  0  0  0  0  0  0
  -29.4926  -14.1251   19.0615 C   0  0  0  0  0  0  0  0  0  0  0  0
  -28.5145  -16.0403   20.1626 C   0  0  0  0  0  0  0  0  0  0  0  0
  -27.2795  -13.9689   20.0180 C   0  0  0  0  0  0  0  0  0  0  0  0
  -24.8352  -29.5047   20.3246 C   0  0  0  0  0  0  0  0  0  0  0  0
  -22.3039  -16.1611   20.4084 C   0  0  0  0  0  0  0  0  0  0  0  0
  -24.0143  -31.2316   21.6907 C   0  0  0  0  0  0  0  0  0  0  0  0
  -24.2420  -32.7677   24.0082 C   0  0  0  0  0  0  0  0  0  0  0  0
  -25.1593  -31.9975   21.9100 C   0  0  0  0  0  0  0  0  0  0  0  0
  -27.7437  -26.5061   19.6559 C   0  0  0  0  0  0  0  0  0  0  0  0
  -29.6269  -25.3859   19.4729 C   0  0  0  0  0  0  0  0  0  0  0  0
  -25.8736  -11.8603   19.9385 C   0  0  0  0  0  0  0  0  0  0  0  0
  -29.9216  -27.7545   20.2154 C   0  0  0  0  0  0  0  0  0  0  0  0
  -21.5092  -21.5112   20.8650 C   0  0  0  0  0  0  0  0  0  0  0  0
  -28.1848  -19.8768   20.0942 C   0  0  0  0  0  0  0  0  0  0  0  0
  -18.6796  -20.8631   22.3125 C   0  0  0  0  0  0  0  0  0  0  0  0
  -16.4824  -18.5171   23.4595 C   0  0  0  0  0  0  0  0  0  0  0  0
  -21.8736  -26.4215   22.2119 C   0  0  0  0  0  0  0  0  0  0  0  0
  -20.4766  -19.8799   19.2437 C   0  0  0  0  0  0  0  0  0  0  0  0
  -20.2751  -18.9283   22.0363 C   0  0  0  0  0  0  0  0  0  0  0  0
  -24.5070  -11.4752   20.4537 C   0  0  0  0  0  0  0  0  0  0  0  0
  -21.5089  -25.1193   22.9201 C   0  0  0  0  0  0  0  0  0  0  0  0
  -24.2178  -12.5270   21.5079 C   0  0  0  0  0  0  0  0  0  0  0  0
  -27.9335  -21.5471   16.8733 C   0  0  0  0  0  0  0  0  0  0  0  0
  -22.5478  -24.0421   22.6252 C   0  0  0  0  0  0  0  0  0  0  0  0
  -27.9635  -23.0175   17.2884 C   0  0  0  0  0  0  0  0  0  0  0  0
  -27.1956  -20.6896   17.8981 C   0  0  0  0  0  0  0  0  0  0  0  0
  -27.7642  -22.2835   19.7039 C   0  0  0  0  0  0  0  0  0  0  0  0
  -22.6072  -23.7288   21.1252 C   0  0  1  0  0  0  0  0  0  0  0  0
  -20.2452  -20.8417   20.4051 C   0  0  1  0  0  0  0  0  0  0  0  0
  -28.5261  -23.1778   18.7116 C   0  0  2  0  0  0  0  0  0  0  0  0
  -24.9441  -13.7647   20.9932 C   0  0  2  0  0  0  0  0  0  0  0  0
  -30.6300  -13.4982   18.3283 C   0  0  0  0  0  0  0  0  0  0  0  0
  -14.2740  -18.2919   24.6298 C   0  0  0  0  0  0  0  0  0  0  0  0
  -20.0125  -21.5830   24.9611 C   0  0  0  0  0  0  0  0  0  0  0  0
  -18.1169  -20.4519   26.1425 C   0  0  0  0  0  0  0  0  0  0  0  0
  -17.6775  -22.4401   24.7014 C   0  0  0  0  0  0  0  0  0  0  0  0
  -15.2780  -17.0943   21.1608 C   0  0  0  0  0  0  0  0  0  0  0  0
  -28.6062  -17.4612   20.6063 C   0  0  0  0  0  0  0  0  0  0  0  0
  -28.0875  -18.4662   19.5699 C   0  0  0  0  0  0  0  0  0  0  0  0
  -24.0463  -14.5804   20.0601 C   0  0  0  0  0  0  0  0  0  1  0  0
  -18.2677  -20.2321   23.6206 C   0  0  1  0  0  0  0  0  0  0  0  0
  -14.9813  -18.3728   23.2859 C   0  0  2  0  0  0  0  0  0  0  0  0
  -18.5343  -21.1626   24.8373 C   0  0  0  0  0  0  0  0  0  0  0  0
  -27.3707  -25.2877   19.2554 N   0  0  0  0  0  0  0  0  0  0  0  0
  -28.5380  -24.6297   19.1528 N   0  0  0  0  0  0  0  0  0  0  0  0
  -26.0994  -13.2066   20.2958 N   0  0  0  0  0  0  0  0  0  0  0  0
  -19.6602  -20.1841   21.5755 N   0  0  0  0  0  0  0  0  0  0  0  0
  -27.7433  -20.8916   19.2448 N   0  0  0  0  0  0  0  0  0  0  0  0
  -30.8777  -24.8804   19.4238 N   0  0  0  0  0  0  0  0  0  0  0  0
  -29.2594  -28.9509   20.5231 N   0  0  0  0  0  0  0  0  0  0  0  0
  -21.4944  -22.8873   20.7402 N   0  0  0  0  0  0  0  0  0  0  0  0
  -16.8714  -19.8399   23.4629 N   0  0  0  0  0  0  0  0  0  0  0  0
  -14.6654  -17.1381   22.5135 N   0  3  0  0  0  0  0  0  0  0  0  0
  -26.5736  -11.0821   19.3068 O   0  0  0  0  0  0  0  0  0  0  0  0
  -31.1730  -27.7092   20.2883 O   0  0  0  0  0  0  0  0  0  0  0  0
  -22.4293  -20.8299   21.3020 O   0  0  0  0  0  0  0  0  0  0  0  0
  -28.6422  -20.0690   21.2237 O   0  0  0  0  0  0  0  0  0  0  0  0
  -18.1456  -21.9158   21.9543 O   0  0  0  0  0  0  0  0  0  0  0  0
  -17.2343  -17.5528   23.5836 O   0  0  0  0  0  0  0  0  0  0  0  0
  -23.8994  -30.4692   20.5404 O   0  0  0  0  0  0  0  0  0  0  0  0
  -22.8778  -14.9825   20.7736 O   0  0  0  0  0  0  0  0  0  1  0  0
  -24.3506  -33.5064   25.1203 F   0  0  0  0  0  0  0  0  0  0  0  0
  -26.1526  -32.0004   21.0105 F   0  0  0  0  0  0  0  0  0  0  0  0
  1  2  1  0  0  0  0
  1  5  2  0  0  0  0
  2  6  2  0  0  0  0
  3  8  2  0  0  0  0
  3 18  1  0  0  0  0
  4  9  1  0  0  0  0
  4 18  2  0  0  0  0
  5 20  1  0  0  0  0
  6 22  1  0  0  0  0
  7 10  2  0  0  0  0
  7 21  1  0  0  0  0
  8 27  1  0  0  0  0
  9 27  2  0  0  0  0
 10 28  1  0  0  0  0
 11 12  2  0  0  0  0
 11 29  1  0  0  0  0
 12 30  1  0  0  0  0
 13 23  1  0  0  0  0
 13 28  2  0  0  0  0
 14 24  1  0  0  0  0
 14 25  2  0  0  0  0
 15 24  2  0  0  0  0
 15 26  1  0  0  0  0
 16 25  1  0  0  0  0
 16 26  2  0  0  0  0
 17 30  2  0  0  0  0
 17 31  1  0  0  0  0
 18 32  1  0  0  0  0
 19 32  1  0  0  0  0
 19 33  2  0  0  0  0
 19 35  1  0  0  0  0
 20 22  2  0  0  0  0
 20 40  1  0  0  0  0
 21 23  2  0  0  0  0
 21 41  1  0  0  0  0
 22 51  1  0  0  0  0
 23 42  1  0  0  0  0
 24 55  1  0  0  0  0
 25 61  1  0  0  0  0
 26 69  1  0  0  0  0
 27 83  1  0  0  0  0
 28 84  1  0  0  0  0
 29 31  2  0  0  0  0
 29 83  1  0  0  0  0
 30 85  1  0  0  0  0
 31 86  1  0  0  0  0
 32 67  2  0  0  0  0
 33 68  1  0  0  0  0
 33 72  1  0  0  0  0
 34 43  1  0  0  0  0
 34 69  1  0  0  0  0
 34 77  2  0  0  0  0
 35 73  1  0  0  0  0
 35 78  2  0  0  0  0
 36 52  1  0  0  0  0
 36 74  1  0  0  0  0
 36 79  2  0  0  0  0
 37 62  1  0  0  0  0
 37 71  1  0  0  0  0
 37 80  2  0  0  0  0
 38 64  1  0  0  0  0
 38 70  1  0  0  0  0
 38 81  2  0  0  0  0
 39 65  1  0  0  0  0
 39 75  1  0  0  0  0
 39 82  2  0  0  0  0
 40 44  1  0  0  0  0
 41 52  1  0  0  0  0
 42 70  1  0  0  0  0
 43 45  1  0  0  0  0
 44 47  1  0  0  0  0
 45 54  1  0  0  0  0
 46 48  1  0  0  0  0
 46 49  1  0  0  0  0
 47 51  1  0  0  0  0
 48 53  1  0  0  0  0
 49 71  1  0  0  0  0
 50 53  1  0  0  0  0
 50 71  1  0  0  0  0
 51 74  1  0  0  0  0
 52 70  1  0  0  0  0
 53 68  1  0  0  0  0
 54 63  1  0  0  0  0
 54 69  1  0  0  0  0
 56 65  1  0  0  0  0
 57 66  1  0  0  0  0
 58 66  1  0  0  0  0
 59 66  1  0  0  0  0
 60 76  1  0  0  0  0
 61 62  1  0  0  0  0
 63 84  1  0  0  0  0
 64 66  1  0  0  0  0
 64 75  1  0  0  0  0
 65 76  1  0  0  0  0
 67 68  1  0  0  0  0
M  CHG  1  76   1
M  ISO  4  37 100  62 100  63 101  84 101
M  END
> <Batch ID>
0104

> <Smiles>
CNC(C)C(=O)NC(C(=O)N1Cc2cc([101O:1][101CH2:1]C3CCC(=O)N3c3cc(C)cc(C[100CH2:0][100C:0](=O)N4CCCC(n5nc(-c6ccc(Oc7ccc(F)cc7F)cc6)c(C(N)=O)c5N)C4)c3)ccc2CC1C(=O)NC1CCCc2ccccc21)C(C)(C)C

> <Shape>
0.221

> <Color>
0.069

> <Negative vol penalty>
0.000

$$$$

  -OEChem-04052301083D

 89 97  0     1  0  0  0  0  0999 V2000
  -25.4452  -19.4981   14.0640 C   0  0  0  0  0  0  0  0  0  0  0  0
  -26.4703  -18.7691   14.6583 C   0  0  0  0  0  0  0  0  0  0  0  0
  -24.8542  -30.3200   22.0371 C   0  0  0  0  0  0  0  0  0  0  0  0
  -23.7327  -30.1660   19.9028 C   0  0  0  0  0  0  0  0  0  0  0  0
  -24.2998  -19.8112   14.7945 C   0  0  0  0  0  0  0  0  0  0  0  0
  -26.3508  -18.3536   15.9840 C   0  0  0  0  0  0  0  0  0  0  0  0
  -28.4772  -13.1514   18.4175 C   0  0  0  0  0  0  0  0  0  0  0  0
  -25.0236  -31.6916   21.8491 C   0  0  0  0  0  0  0  0  0  0  0  0
  -23.9020  -31.5377   19.7148 C   0  0  0  0  0  0  0  0  0  0  0  0
  -29.6257  -12.8604   19.1523 C   0  0  0  0  0  0  0  0  0  0  0  0
  -23.1510  -34.4935   22.1239 C   0  0  0  0  0  0  0  0  0  0  0  0
  -22.8669  -35.3351   23.1993 C   0  0  0  0  0  0  0  0  0  0  0  0
  -30.0221  -19.2081   21.0542 C   0  0  0  0  0  0  0  0  0  0  0  0
  -28.3678  -13.0898   21.1978 C   0  0  0  0  0  0  0  0  0  0  0  0
  -32.5981  -18.9387   22.0908 C   0  0  0  0  0  0  0  0  0  0  0  0
  -25.1451  -36.1391   23.1720 C   0  0  0  0  0  0  0  0  0  0  0  0
  -24.2088  -29.5571   21.0639 C   0  0  0  0  0  0  0  0  0  0  0  0
  -30.5852  -20.2431   21.8008 C   0  0  0  0  0  0  0  0  0  0  0  0
  -22.9464  -27.4941   21.8751 C   0  0  0  0  0  0  0  0  0  0  0  0
  -24.1620  -19.3911   16.1269 C   0  0  0  0  0  0  0  0  0  0  0  0
  -27.2658  -13.4250   19.0687 C   0  0  0  0  0  0  0  0  0  0  0  0
  -25.2030  -18.6625   16.7335 C   0  0  0  0  0  0  0  0  0  0  0  0
  -27.2047  -13.3815   20.4689 C   0  0  0  0  0  0  0  0  0  0  0  0
  -31.8732  -20.1084   22.3191 C   0  0  0  0  0  0  0  0  0  0  0  0
  -32.0349  -17.9037   21.3442 C   0  0  0  0  0  0  0  0  0  0  0  0
  -24.5475  -32.3005   20.6880 C   0  0  0  0  0  0  0  0  0  0  0  0
  -29.5718  -12.8324   20.5428 C   0  0  0  0  0  0  0  0  0  0  0  0
  -24.4322  -34.4746   21.5725 C   0  0  0  0  0  0  0  0  0  0  0  0
  -30.7470  -18.0384   20.8260 C   0  0  0  0  0  0  0  0  0  0  0  0
  -23.8639  -36.1579   23.7234 C   0  0  0  0  0  0  0  0  0  0  0  0
  -25.4292  -35.2974   22.0966 C   0  0  0  0  0  0  0  0  0  0  0  0
  -24.0340  -28.1400   21.2572 C   0  0  0  0  0  0  0  0  0  0  0  0
  -23.2570  -26.1579   21.8073 C   0  0  0  0  0  0  0  0  0  0  0  0
  -29.8025  -21.4517   22.0233 C   0  0  0  0  0  0  0  0  0  0  0  0
  -29.3093  -22.2515   21.0559 C   0  0  0  0  0  0  0  0  0  0  0  0
  -21.7613  -28.0520   22.4581 C   0  0  0  0  0  0  0  0  0  0  0  0
  -28.5234  -23.4404   21.4430 C   0  0  0  0  0  0  0  0  0  0  0  0
  -25.3160  -15.9309   19.2192 C   0  0  0  0  0  0  0  0  0  0  0  0
  -23.4340  -13.8744   20.8779 C   0  0  0  0  0  0  0  0  0  0  0  0
  -32.9627  -14.3029   21.9322 C   0  0  0  0  0  0  0  0  0  0  0  0
  -23.2057  -11.0633   22.7994 C   0  0  0  0  0  0  0  0  0  0  0  0
  -22.9258  -19.7941   16.8911 C   0  0  0  0  0  0  0  0  0  0  0  0
  -26.0297  -13.7109   18.2608 C   0  0  0  0  0  0  0  0  0  0  0  0
  -25.9240  -13.6480   21.2154 C   0  0  0  0  0  0  0  0  0  0  0  0
  -22.7153  -18.9946   18.1744 C   0  0  0  0  0  0  0  0  0  0  0  0
  -25.6747  -22.9938   19.1809 C   0  0  0  0  0  0  0  0  0  0  0  0
  -24.0164  -18.9022   18.9652 C   0  0  0  0  0  0  0  0  0  0  0  0
  -24.8550  -24.2435   19.4907 C   0  0  0  0  0  0  0  0  0  0  0  0
  -27.1766  -23.2555   19.2824 C   0  0  0  0  0  0  0  0  0  0  0  0
  -26.7730  -25.0880   20.9007 C   0  0  0  0  0  0  0  0  0  0  0  0
  -25.0998  -18.1727   18.1617 C   0  0  1  0  0  0  0  0  0  0  0  0
  -24.9692  -14.4796   19.0431 C   0  0  1  0  0  0  0  0  0  0  0  0
  -25.2580  -24.8356   20.8505 C   0  0  1  0  0  0  0  0  0  0  0  0
  -32.5083  -21.1970   23.1232 C   0  0  0  0  0  0  0  0  0  0  0  0
  -30.2085  -16.7054   16.3544 C   0  0  0  0  0  0  0  0  0  0  0  0
  -21.5395   -9.6545   24.0390 C   0  0  0  0  0  0  0  0  0  0  0  0
  -23.3239  -15.9635   23.0991 C   0  0  0  0  0  0  0  0  0  0  0  0
  -22.4856  -14.1782   24.6413 C   0  0  0  0  0  0  0  0  0  0  0  0
  -21.1493  -14.8189   22.6347 C   0  0  0  0  0  0  0  0  0  0  0  0
  -23.8036   -8.6882   21.1379 C   0  0  0  0  0  0  0  0  0  0  0  0
  -32.8291  -16.6513   21.1096 C   0  0  0  0  0  0  0  0  0  0  0  0
  -32.2649  -13.3551   22.8951 C   0  0  0  0  0  0  0  0  0  0  0  0
  -30.5506  -16.4219   17.8060 C   0  0  0  0  0  0  0  0  0  0  0  0
  -30.7977  -13.1393   22.5575 C   0  0  0  0  0  0  0  0  0  1  0  0
  -29.8047  -17.3479   18.7545 C   0  0  0  0  0  0  0  0  0  0  0  0
  -23.2840  -13.4985   22.3322 C   0  0  1  0  0  0  0  0  0  0  0  0
  -22.2762   -9.8654   22.7253 C   0  0  2  0  0  0  0  0  0  0  0  0
  -22.5855  -14.6116   23.1631 C   0  0  0  0  0  0  0  0  0  0  0  0
  -24.9659  -27.2846   20.8286 N   0  0  0  0  0  0  0  0  0  0  0  0
  -24.4649  -26.0874   21.1778 N   0  0  0  0  0  0  0  0  0  0  0  0
  -27.5293  -23.8755   20.5684 N   0  0  0  0  0  0  0  0  0  0  0  0
  -24.7440  -13.9290   20.3811 N   0  0  0  0  0  0  0  0  0  0  0  0
  -22.6121  -25.0481   22.2255 N   0  0  0  0  0  0  0  0  0  0  0  0
  -21.6009  -29.4443   22.4428 N   0  0  0  0  0  0  0  0  0  0  0  0
  -24.8752  -16.7433   18.1920 N   0  0  0  0  0  0  0  0  0  0  0  0
  -32.3679  -15.5564   21.9325 N   0  0  0  0  0  0  0  0  0  0  0  0
  -22.5919  -12.2143   22.3526 N   0  0  0  0  0  0  0  0  0  0  0  0
  -23.0484   -8.6289   22.4158 N   0  3  0  0  0  0  0  0  0  0  0  0
  -20.8787  -27.3382   22.9919 O   0  0  0  0  0  0  0  0  0  0  0  0
  -28.7990  -23.9793   22.5164 O   0  0  0  0  0  0  0  0  0  0  0  0
  -25.9363  -16.2874   20.2141 O   0  0  0  0  0  0  0  0  0  0  0  0
  -22.4257  -14.1041   20.2055 O   0  0  0  0  0  0  0  0  0  0  0  0
  -33.9303  -13.9777   21.2496 O   0  0  0  0  0  0  0  0  0  0  0  0
  -24.3595  -10.9864   23.2156 O   0  0  0  0  0  0  0  0  0  0  0  0
  -24.7124  -33.6390   20.5044 O   0  0  0  0  0  0  0  0  0  0  0  0
  -30.6915  -12.5492   21.2625 O   0  0  0  0  0  0  0  0  0  1  0  0
  -30.1825  -17.0372   20.0941 O   0  0  0  0  0  0  0  0  0  0  0  0
  -23.5906  -36.9672   24.7551 F   0  0  0  0  0  0  0  0  0  0  0  0
  -26.6616  -35.2844   21.5703 F   0  0  0  0  0  0  0  0  0  0  0  0
  1  2  1  0  0  0  0
  1  5  2  0  0  0  0
  2  6  2  0  0  0  0
  3  8  2  0  0  0  0
  3 17  1  0  0  0  0
  4  9  1  0  0  0  0
  4 17  2  0  0  0  0
  5 20  1  0  0  0  0
  6 22  1  0  0  0  0
  7 10  2  0  0  0  0
  7 21  1  0  0  0  0
  8 26  1  0  0  0  0
  9 26  2  0  0  0  0
 10 27  1  0  0  0  0
 11 12  2  0  0  0  0
 11 28  1  0  0  0  0
 12 30  1  0  0  0  0
 13 18  2  0  0  0  0
 13 29  1  0  0  0  0
 14 23  1  0  0  0  0
 14 27  2  0  0  0  0
 15 24  2  0  0  0  0
 15 25  1  0  0  0  0
 16 30  2  0  0  0  0
 16 31  1  0  0  0  0
 17 32  1  0  0  0  0
 18 24  1  0  0  0  0
 18 34  1  0  0  0  0
 19 32  1  0  0  0  0
 19 33  2  0  0  0  0
 19 36  1  0  0  0  0
 20 22  2  0  0  0  0
 20 42  1  0  0  0  0
 21 23  2  0  0  0  0
 21 43  1  0  0  0  0
 22 51  1  0  0  0  0
 23 44  1  0  0  0  0
 24 54  1  0  0  0  0
 25 29  2  0  0  0  0
 25 61  1  0  0  0  0
 26 85  1  0  0  0  0
 27 86  1  0  0  0  0
 28 31  2  0  0  0  0
 28 85  1  0  0  0  0
 29 87  1  0  0  0  0
 30 88  1  0  0  0  0
 31 89  1  0  0  0  0
 32 69  2  0  0  0  0
 33 70  1  0  0  0  0
 33 73  1  0  0  0  0
 34 35  2  0  0  0  0
 35 37  1  0  0  0  0
 36 74  1  0  0  0  0
 36 79  2  0  0  0  0
 37 71  1  0  0  0  0
 37 80  2  0  0  0  0
 38 52  1  0  0  0  0
 38 75  1  0  0  0  0
 38 81  2  0  0  0  0
 39 66  1  0  0  0  0
 39 72  1  0  0  0  0
 39 82  2  0  0  0  0
 40 62  1  0  0  0  0
 40 76  1  0  0  0  0
 40 83  2  0  0  0  0
 41 67  1  0  0  0  0
 41 77  1  0  0  0  0
 41 84  2  0  0  0  0
 42 45  1  0  0  0  0
 43 52  1  0  0  0  0
 44 72  1  0  0  0  0
 45 47  1  0  0  0  0
 46 48  1  0  0  0  0
 46 49  1  0  0  0  0
 47 51  1  0  0  0  0
 48 53  1  0  0  0  0
 49 71  1  0  0  0  0
 50 53  1  0  0  0  0
 50 71  1  0  0  0  0
 51 75  1  0  0  0  0
 52 72  1  0  0  0  0
 53 70  1  0  0  0  0
 55 63  1  0  0  0  0
 56 67  1  0  0  0  0
 57 68  1  0  0  0  0
 58 68  1  0  0  0  0
 59 68  1  0  0  0  0
 60 78  1  0  0  0  0
 61 76  1  0  0  0  0
 62 64  1  0  0  0  0
 63 65  1  0  0  0  0
 64 86  1  0  0  0  0
 65 87  1  0  0  0  0
 66 68  1  0  0  0  0
 66 77  1  0  0  0  0
 67 78  1  0  0  0  0
 69 70  1  0  0  0  0
M  CHG  1  78   1
M  ISO  4  35 100  37 100  64 101  86 101
M  END
> <Batch ID>
0104

> <Smiles>
CCCOc1cc(C=[100CH:0][100C:0](=O)N2CCCC(n3nc(-c4ccc(Oc5ccc(F)cc5F)cc4)c(C(N)=O)c3N)C2)c(C)cc1CNC(=O)C[101CH2:1][101O:1]c1ccc2c(c1)CN(C(=O)C(NC(=O)C(C)NC)C(C)(C)C)C(C(=O)NC1CCCc3ccccc31)C2

> <Shape>
0.228

> <Color>
0.076

> <Negative vol penalty>
0.000

$$$$

  -OEChem-04052301083D

 81 89  0     1  0  0  0  0  0999 V2000
  -30.3719  -17.8672   19.1527 C   0  0  0  0  0  0  0  0  0  0  0  0
  -29.2331  -18.3707   18.5321 C   0  0  0  0  0  0  0  0  0  0  0  0
  -24.2353  -16.6251   23.4466 C   0  0  0  0  0  0  0  0  0  0  0  0
  -25.4837  -18.1659   22.0664 C   0  0  0  0  0  0  0  0  0  0  0  0
  -30.9047  -18.5191   20.2641 C   0  0  0  0  0  0  0  0  0  0  0  0
  -28.6259  -19.5259   19.0232 C   0  0  0  0  0  0  0  0  0  0  0  0
  -24.9835  -25.2870   16.8190 C   0  0  0  0  0  0  0  0  0  0  0  0
  -24.2400  -15.6924   22.4096 C   0  0  0  0  0  0  0  0  0  0  0  0
  -25.4884  -17.2331   21.0294 C   0  0  0  0  0  0  0  0  0  0  0  0
  -23.8008  -25.9780   17.0790 C   0  0  0  0  0  0  0  0  0  0  0  0
  -24.2352  -12.7663   20.2525 C   0  0  0  0  0  0  0  0  0  0  0  0
  -24.5323  -11.4417   20.5730 C   0  0  0  0  0  0  0  0  0  0  0  0
  -20.9471  -27.4731   22.4421 C   0  0  0  0  0  0  0  0  0  0  0  0
  -18.7992  -27.8549   21.4041 C   0  0  0  0  0  0  0  0  0  0  0  0
  -24.8554  -27.0645   18.9569 C   0  0  0  0  0  0  0  0  0  0  0  0
  -18.9309  -27.3855   23.7703 C   0  0  0  0  0  0  0  0  0  0  0  0
  -26.6953  -12.1275   21.4026 C   0  0  0  0  0  0  0  0  0  0  0  0
  -24.8571  -17.8619   23.2750 C   0  0  0  0  0  0  0  0  0  0  0  0
  -20.1872  -27.7568   21.3073 C   0  0  0  0  0  0  0  0  0  0  0  0
  -25.8099  -18.9663   25.3680 C   0  0  0  0  0  0  0  0  0  0  0  0
  -30.3092  -19.6883   20.7631 C   0  0  0  0  0  0  0  0  0  0  0  0
  -26.1096  -25.4718   17.6340 C   0  0  0  0  0  0  0  0  0  0  0  0
  -29.1504  -20.1933   20.1431 C   0  0  0  0  0  0  0  0  0  0  0  0
  -26.0520  -26.3766   18.7036 C   0  0  0  0  0  0  0  0  0  0  0  0
  -20.3189  -27.2874   23.6736 C   0  0  0  0  0  0  0  0  0  0  0  0
  -18.1710  -27.6693   22.6356 C   0  0  0  0  0  0  0  0  0  0  0  0
  -24.8665  -15.9963   21.2010 C   0  0  0  0  0  0  0  0  0  0  0  0
  -23.7357  -26.8647   18.1498 C   0  0  0  0  0  0  0  0  0  0  0  0
  -25.1682  -13.7715   20.5069 C   0  0  0  0  0  0  0  0  0  0  0  0
  -25.7623  -11.1223   21.1481 C   0  0  0  0  0  0  0  0  0  0  0  0
  -26.3982  -13.4521   21.0820 C   0  0  0  0  0  0  0  0  0  0  0  0
  -24.8522  -18.8262   24.3457 C   0  0  0  0  0  0  0  0  0  0  0  0
  -25.3524  -20.0167   26.1254 C   0  0  0  0  0  0  0  0  0  0  0  0
  -20.8501  -27.9516   20.0068 C   0  0  0  0  0  0  0  0  0  0  0  0
  -21.9843  -27.3539   19.6208 C   0  0  0  0  0  0  0  0  0  1  0  0
  -27.0061  -18.2141   25.6111 C   0  0  0  0  0  0  0  0  0  0  0  0
  -27.8440  -23.5935   19.5228 C   0  0  0  0  0  0  0  0  0  0  0  0
  -29.7248  -26.2257   19.7599 C   0  0  0  0  0  0  0  0  0  0  0  0
  -29.9972  -29.6208   19.5451 C   0  0  0  0  0  0  0  0  0  0  0  0
  -21.9261  -24.6340   24.7849 C   0  0  0  0  0  0  0  0  0  0  0  0
  -30.8939  -20.3315   21.9957 C   0  0  0  0  0  0  0  0  0  0  0  0
  -27.3860  -24.7389   17.3242 C   0  0  0  0  0  0  0  0  0  0  0  0
  -27.2392  -26.6259   19.5963 C   0  0  0  0  0  0  0  0  0  0  0  0
  -30.4079  -21.7602   22.2259 C   0  0  0  0  0  0  0  0  0  0  0  0
  -21.3044  -22.2230   27.4113 C   0  0  0  0  0  0  0  0  0  0  0  0
  -28.8943  -21.8432   22.0557 C   0  0  0  0  0  0  0  0  0  0  0  0
  -22.2460  -21.0862   27.0098 C   0  0  0  0  0  0  0  0  0  0  0  0
  -20.6779  -22.8809   26.1854 C   0  0  0  0  0  0  0  0  0  0  0  0
  -22.6039  -22.2501   24.7833 C   0  0  0  0  0  0  0  0  0  0  0  0
  -28.4775  -21.4578   20.6312 C   0  0  1  0  0  0  0  0  0  0  0  0
  -28.3135  -24.6184   18.5294 C   0  0  1  0  0  0  0  0  0  0  0  0
  -23.2867  -21.5589   25.9775 C   0  0  2  0  0  0  0  0  0  0  0  0
  -31.6511  -31.4863   19.8313 C   0  0  0  0  0  0  0  0  0  0  0  0
  -29.4834  -25.9716   22.7909 C   0  0  0  0  0  0  0  0  0  0  0  0
  -30.3171  -28.3244   22.9847 C   0  0  0  0  0  0  0  0  0  0  0  0
  -31.7704  -26.5674   21.9729 C   0  0  0  0  0  0  0  0  0  0  0  0
  -29.7270  -30.4496   16.7169 C   0  0  0  0  0  0  0  0  0  0  0  0
  -21.1314  -26.9824   24.8866 C   0  0  0  0  0  0  0  0  0  0  0  0
  -29.7759  -27.4241   20.6765 C   0  0  1  0  0  0  0  0  0  0  0  0
  -31.0175  -30.5078   18.8547 C   0  0  2  0  0  0  0  0  0  0  0  0
  -30.3136  -27.0660   22.0908 C   0  0  0  0  0  0  0  0  0  0  0  0
  -23.8611  -19.7163   24.4421 N   0  0  0  0  0  0  0  0  0  0  0  0
  -24.1935  -20.4258   25.5340 N   0  0  0  0  0  0  0  0  0  0  0  0
  -28.4626  -25.8807   19.2564 N   0  0  0  0  0  0  0  0  0  0  0  0
  -21.7224  -23.3247   25.2516 N   0  0  0  0  0  0  0  0  0  0  0  0
  -16.7672  -27.7644   22.7332 N   0  0  0  0  0  0  0  0  0  0  0  0
  -25.8324  -20.6211   27.2330 N   0  0  0  0  0  0  0  0  0  0  0  0
  -27.3272  -17.1682   24.7353 N   0  0  0  0  0  0  0  0  0  0  0  0
  -28.7302  -22.5512   19.7174 N   0  0  0  0  0  0  0  0  0  0  0  0
  -30.5587  -28.4385   19.9789 N   0  0  0  0  0  0  0  0  0  0  0  0
  -21.0441  -25.5912   25.2712 N   0  0  0  0  0  0  0  0  0  0  0  0
  -30.3707  -31.2872   17.7614 N   0  3  0  0  0  0  0  0  0  0  0  0
  -27.7590  -18.4517   26.5859 O   0  0  0  0  0  0  0  0  0  0  0  0
  -26.7587  -23.7384   20.0733 O   0  0  0  0  0  0  0  0  0  0  0  0
  -30.7675  -25.6224   19.4946 O   0  0  0  0  0  0  0  0  0  0  0  0
  -28.8207  -29.9459   19.6888 O   0  0  0  0  0  0  0  0  0  0  0  0
  -22.8309  -24.9294   23.9968 O   0  0  0  0  0  0  0  0  0  0  0  0
  -24.8715  -15.0862   20.1889 O   0  0  0  0  0  0  0  0  0  0  0  0
  -22.5824  -27.5399   18.4061 O   0  0  0  0  0  0  0  0  0  1  0  0
  -26.0468   -9.8504   21.4572 F   0  0  0  0  0  0  0  0  0  0  0  0
  -27.2981  -14.4137   21.3299 F   0  0  0  0  0  0  0  0  0  0  0  0
  1  2  1  0  0  0  0
  1  5  2  0  0  0  0
  2  6  2  0  0  0  0
  3  8  2  0  0  0  0
  3 18  1  0  0  0  0
  4  9  1  0  0  0  0
  4 18  2  0  0  0  0
  5 21  1  0  0  0  0
  6 23  1  0  0  0  0
  7 10  2  0  0  0  0
  7 22  1  0  0  0  0
  8 27  1  0  0  0  0
  9 27  2  0  0  0  0
 10 28  1  0  0  0  0
 11 12  2  0  0  0  0
 11 29  1  0  0  0  0
 12 30  1  0  0  0  0
 13 19  2  0  0  0  0
 13 25  1  0  0  0  0
 14 19  1  0  0  0  0
 14 26  2  0  0  0  0
 15 24  1  0  0  0  0
 15 28  2  0  0  0  0
 16 25  2  0  0  0  0
 16 26  1  0  0  0  0
 17 30  2  0  0  0  0
 17 31  1  0  0  0  0
 18 32  1  0  0  0  0
 19 34  1  0  0  0  0
 20 32  1  0  0  0  0
 20 33  2  0  0  0  0
 20 36  1  0  0  0  0
 21 23  2  0  0  0  0
 21 41  1  0  0  0  0
 22 24  2  0  0  0  0
 22 42  1  0  0  0  0
 23 50  1  0  0  0  0
 24 43  1  0  0  0  0
 25 58  1  0  0  0  0
 26 66  1  0  0  0  0
 27 78  1  0  0  0  0
 28 79  1  0  0  0  0
 29 31  2  0  0  0  0
 29 78  1  0  0  0  0
 30 80  1  0  0  0  0
 31 81  1  0  0  0  0
 32 62  2  0  0  0  0
 33 63  1  0  0  0  0
 33 67  1  0  0  0  0
 34 35  2  0  0  0  0
 35 79  1  0  0  0  0
 36 68  1  0  0  0  0
 36 73  2  0  0  0  0
 37 51  1  0  0  0  0
 37 69  1  0  0  0  0
 37 74  2  0  0  0  0
 38 59  1  0  0  0  0
 38 64  1  0  0  0  0
 38 75  2  0  0  0  0
 39 60  1  0  0  0  0
 39 70  1  0  0  0  0
 39 76  2  0  0  0  0
 40 65  1  0  0  0  0
 40 71  1  0  0  0  0
 40 77  2  0  0  0  0
 41 44  1  0  0  0  0
 42 51  1  0  0  0  0
 43 64  1  0  0  0  0
 44 46  1  0  0  0  0
 45 47  1  0  0  0  0
 45 48  1  0  0  0  0
 46 50  1  0  0  0  0
 47 52  1  0  0  0  0
 48 65  1  0  0  0  0
 49 52  1  0  0  0  0
 49 65  1  0  0  0  0
 50 69  1  0  0  0  0
 51 64  1  0  0  0  0
 52 63  1  0  0  0  0
 53 60  1  0  0  0  0
 54 61  1  0  0  0  0
 55 61  1  0  0  0  0
 56 61  1  0  0  0  0
 57 72  1  0  0  0  0
 58 71  1  0  0  0  0
 59 61  1  0  0  0  0
 59 70  1  0  0  0  0
 60 72  1  0  0  0  0
 62 63  1  0  0  0  0
M  CHG  1  72   1
M  ISO  4  35 101  40 100  71 100  79 101
M  END
> <Batch ID>
0104

> <Smiles>
CNC(C)C(=O)NC(C(=O)N1Cc2cc([101O:1][101CH:1]=Cc3cc(N)cc(C[100NH:0][100C:0](=O)N4CCCC(n5nc(-c6ccc(Oc7ccc(F)cc7F)cc6)c(C(N)=O)c5N)C4)c3)ccc2CC1C(=O)NC1CCCc2ccccc21)C(C)(C)C

> <Shape>
0.192

> <Color>
0.066

> <Negative vol penalty>
0.000

$$$$

  -OEChem-04052301083D

 89 98  0     1  0  0  0  0  0999 V2000
  -25.8410  -23.8971   14.5306 C   0  0  0  0  0  0  0  0  0  0  0  0
  -26.2140  -23.3202   15.7404 C   0  0  0  0  0  0  0  0  0  0  0  0
  -23.1253   -9.9083   19.9051 C   0  0  0  0  0  0  0  0  0  0  0  0
  -23.8108   -9.8910   22.2218 C   0  0  0  0  0  0  0  0  0  0  0  0
  -26.5638  -24.9752   14.0215 C   0  0  0  0  0  0  0  0  0  0  0  0
  -27.3108  -23.8205   16.4413 C   0  0  0  0  0  0  0  0  0  0  0  0
  -27.9617  -24.1349   22.5227 C   0  0  0  0  0  0  0  0  0  0  0  0
  -22.3750   -8.7520   20.1185 C   0  0  0  0  0  0  0  0  0  0  0  0
  -23.0605   -8.7347   22.4352 C   0  0  0  0  0  0  0  0  0  0  0  0
  -28.6225  -23.3177   23.4388 C   0  0  0  0  0  0  0  0  0  0  0  0
  -19.8154   -7.9281   22.9246 C   0  0  0  0  0  0  0  0  0  0  0  0
  -19.0211   -7.8750   24.0700 C   0  0  0  0  0  0  0  0  0  0  0  0
  -30.5448  -24.7718   23.3403 C   0  0  0  0  0  0  0  0  0  0  0  0
  -30.8118  -16.9479   24.8559 C   0  0  0  0  0  0  0  0  0  0  0  0
  -31.9315  -16.2534   22.3969 C   0  0  0  0  0  0  0  0  0  0  0  0
  -20.2402   -5.9306   24.8252 C   0  0  0  0  0  0  0  0  0  0  0  0
  -23.8433  -10.4778   20.9567 C   0  0  0  0  0  0  0  0  0  0  0  0
  -24.1861  -13.0043   20.8750 C   0  0  0  0  0  0  0  0  0  0  0  0
  -27.6642  -25.4951   14.7213 C   0  0  0  0  0  0  0  0  0  0  0  0
  -28.5927  -25.2727   21.9993 C   0  0  0  0  0  0  0  0  0  0  0  0
  -28.0498  -24.9057   15.9404 C   0  0  0  0  0  0  0  0  0  0  0  0
  -29.8889  -25.6032   22.4196 C   0  0  0  0  0  0  0  0  0  0  0  0
  -31.7657  -17.7765   24.2650 C   0  0  0  0  0  0  0  0  0  0  0  0
  -30.9777  -15.4247   22.9879 C   0  0  0  0  0  0  0  0  0  0  0  0
  -22.3426   -8.1652   21.3835 C   0  0  0  0  0  0  0  0  0  0  0  0
  -29.9153  -23.6345   23.8455 C   0  0  0  0  0  0  0  0  0  0  0  0
  -20.8221   -6.9824   22.7294 C   0  0  0  0  0  0  0  0  0  0  0  0
  -32.3255  -17.4293   23.0355 C   0  0  0  0  0  0  0  0  0  0  0  0
  -19.2335   -6.8762   25.0203 C   0  0  0  0  0  0  0  0  0  0  0  0
  -30.4179  -15.7720   24.2174 C   0  0  0  0  0  0  0  0  0  0  0  0
  -21.0345   -5.9837   23.6797 C   0  0  0  0  0  0  0  0  0  0  0  0
  -24.6190  -11.6719   20.7368 C   0  0  0  0  0  0  0  0  0  0  0  0
  -25.2886  -13.7585   20.5553 C   0  0  0  0  0  0  0  0  0  0  0  0
  -32.4758  -21.4395   25.1459 C   0  0  0  0  0  0  0  0  0  0  0  0
  -33.3201  -21.3052   26.1947 C   0  0  0  0  0  0  0  0  0  0  0  0
  -31.9908  -20.2501   24.3500 C   0  0  0  0  0  0  0  0  0  0  0  0
  -22.9022  -13.5147   21.2583 C   0  0  0  0  0  0  0  0  0  0  0  0
  -29.4651  -26.2162   19.0920 C   0  0  0  0  0  0  0  0  0  0  0  0
  -30.2121  -28.9703   20.6345 C   0  0  0  0  0  0  0  0  0  0  0  0
  -31.0500  -30.5177   23.5585 C   0  0  0  0  0  0  0  0  0  0  0  0
  -31.0373  -13.7421   21.1139 C   0  0  0  0  0  0  0  0  0  0  0  0
  -28.4435  -26.6313   14.1079 C   0  0  0  0  0  0  0  0  0  0  0  0
  -27.8563  -26.1587   21.0323 C   0  0  0  0  0  0  0  0  0  0  0  0
  -30.6027  -26.8247   21.9030 C   0  0  0  0  0  0  0  0  0  0  0  0
  -33.7191  -19.9053   26.6145 C   0  0  0  0  0  0  0  0  0  0  0  0
  -29.3648  -27.3415   15.0963 C   0  0  0  0  0  0  0  0  0  0  0  0
  -29.4605  -12.9339   18.0256 C   0  0  0  0  0  0  0  0  0  0  0  0
  -30.1547  -26.3251   15.9148 C   0  0  0  0  0  0  0  0  0  0  0  0
  -28.0086  -12.6561   18.4217 C   0  0  0  0  0  0  0  0  0  0  0  0
  -32.6167  -18.8974   26.3235 C   0  0  0  0  0  0  0  0  0  0  0  0
  -30.4424  -12.4366   19.0850 C   0  0  0  0  0  0  0  0  0  0  0  0
  -28.7295  -12.6393   20.8439 C   0  0  0  0  0  0  0  0  0  0  0  0
  -29.2186  -25.4360   16.7423 C   0  0  1  0  0  0  0  0  0  0  0  0
  -28.7871  -27.0091   20.1733 C   0  0  1  0  0  0  0  0  0  0  0  0
  -27.7005  -13.1806   19.8379 C   0  0  2  0  0  0  0  0  0  0  0  0
  -31.6360  -32.7697   24.4980 C   0  0  0  0  0  0  0  0  0  0  0  0
  -32.9987  -28.7530   19.4108 C   0  0  0  0  0  0  0  0  0  0  0  0
  -33.7912  -30.4321   21.0903 C   0  0  0  0  0  0  0  0  0  0  0  0
  -32.0435  -31.0642   19.4264 C   0  0  0  0  0  0  0  0  0  0  0  0
  -28.7215  -30.4905   25.3851 C   0  0  0  0  0  0  0  0  0  0  0  0
  -34.6251  -17.9682   22.7583 C   0  0  0  0  0  0  0  0  0  0  0  0
  -31.9849  -22.7742   24.6408 C   0  0  0  0  0  0  0  0  0  1  0  0
  -31.4411  -29.5087   21.3262 C   0  0  1  0  0  0  0  0  0  0  0  0
  -30.5185  -31.7762   24.2205 C   0  0  2  0  0  0  0  0  0  0  0  0
  -32.5562  -29.9154   20.3219 C   0  0  0  0  0  0  0  0  0  0  0  0
  -25.8968  -11.5815   20.3585 N   0  0  0  0  0  0  0  0  0  0  0  0
  -26.2763  -12.8667   20.2563 N   0  0  0  0  0  0  0  0  0  0  0  0
  -32.1621  -18.9890   24.9381 N   0  0  0  0  0  0  0  0  0  0  0  0
  -29.8433  -27.6560   20.9545 N   0  0  0  0  0  0  0  0  0  0  0  0
  -30.0908  -12.9773   20.3998 N   0  0  0  0  0  0  0  0  0  0  0  0
  -25.4998  -15.0908   20.5034 N   0  0  0  0  0  0  0  0  0  0  0  0
  -21.8809  -12.6012   21.5529 N   0  0  0  0  0  0  0  0  0  0  0  0
  -30.5792  -14.2309   22.3370 N   0  0  0  0  0  0  0  0  0  0  0  0
  -28.7492  -26.1471   17.9121 N   0  0  0  0  0  0  0  0  0  0  0  0
  -30.9834  -30.5967   22.1836 N   0  0  0  0  0  0  0  0  0  0  0  0
  -29.8557  -31.4415   25.5126 N   0  3  0  0  0  0  0  0  0  0  0  0
  -33.8625  -22.1699   26.9392 O   0  5  0  0  0  0  0  0  0  0  0  0
  -31.4377  -20.4646   23.2700 O   0  0  0  0  0  0  0  0  0  0  0  0
  -22.6629  -14.7444   21.3212 O   0  0  0  0  0  0  0  0  0  0  0  0
  -30.5575  -25.7061   19.3115 O   0  0  0  0  0  0  0  0  0  0  0  0
  -29.5976  -29.6918   19.8449 O   0  0  0  0  0  0  0  0  0  0  0  0
  -31.4845  -29.5618   24.1973 O   0  0  0  0  0  0  0  0  0  0  0  0
  -32.1617  -13.9711   20.6606 O   0  0  0  0  0  0  0  0  0  0  0  0
  -21.6103   -7.0370   21.5922 O   0  0  0  0  0  0  0  0  0  0  0  0
  -33.2589  -18.2250   22.4411 O   0  0  0  0  0  0  0  0  0  0  0  0
  -30.5627  -22.8381   24.7391 O   0  0  0  0  0  0  0  0  0  1  0  0
  -18.4717   -6.8263   26.1209 F   0  0  0  0  0  0  0  0  0  0  0  0
  -29.5007  -14.9830   24.7950 F   0  0  0  0  0  0  0  0  0  0  0  0
  -22.0008   -5.0731   23.4983 F   0  0  0  0  0  0  0  0  0  0  0  0
  1  2  1  0  0  0  0
  1  5  2  0  0  0  0
  2  6  2  0  0  0  0
  3  8  2  0  0  0  0
  3 17  1  0  0  0  0
  4  9  1  0  0  0  0
  4 17  2  0  0  0  0
  5 19  1  0  0  0  0
  6 21  1  0  0  0  0
  7 10  2  0  0  0  0
  7 20  1  0  0  0  0
  8 25  1  0  0  0  0
  9 25  2  0  0  0  0
 10 26  1  0  0  0  0
 11 12  2  0  0  0  0
 11 27  1  0  0  0  0
 12 29  1  0  0  0  0
 13 22  1  0  0  0  0
 13 26  2  0  0  0  0
 14 23  1  0  0  0  0
 14 30  2  0  0  0  0
 15 24  2  0  0  0  0
 15 28  1  0  0  0  0
 16 29  2  0  0  0  0
 16 31  1  0  0  0  0
 17 32  1  0  0  0  0
 18 32  1  0  0  0  0
 18 33  2  0  0  0  0
 18 37  1  0  0  0  0
 19 21  2  0  0  0  0
 19 42  1  0  0  0  0
 20 22  2  0  0  0  0
 20 43  1  0  0  0  0
 21 53  1  0  0  0  0
 22 44  1  0  0  0  0
 23 28  2  0  0  0  0
 23 68  1  0  0  0  0
 24 30  1  0  0  0  0
 24 73  1  0  0  0  0
 25 84  1  0  0  0  0
 26 86  1  0  0  0  0
 27 31  2  0  0  0  0
 27 84  1  0  0  0  0
 28 85  1  0  0  0  0
 29 87  1  0  0  0  0
 30 88  1  0  0  0  0
 31 89  1  0  0  0  0
 32 66  2  0  0  0  0
 33 67  1  0  0  0  0
 33 71  1  0  0  0  0
 34 35  2  0  0  0  0
 34 36  1  0  0  0  0
 34 62  1  0  0  0  0
 35 45  1  0  0  0  0
 35 77  1  0  0  0  0
 36 68  1  0  0  0  0
 36 78  2  0  0  0  0
 37 72  1  0  0  0  0
 37 79  2  0  0  0  0
 38 54  1  0  0  0  0
 38 74  1  0  0  0  0
 38 80  2  0  0  0  0
 39 63  1  0  0  0  0
 39 69  1  0  0  0  0
 39 81  2  0  0  0  0
 40 64  1  0  0  0  0
 40 75  1  0  0  0  0
 40 82  2  0  0  0  0
 41 70  1  0  0  0  0
 41 73  1  0  0  0  0
 41 83  2  0  0  0  0
 42 46  1  0  0  0  0
 43 54  1  0  0  0  0
 44 69  1  0  0  0  0
 45 50  1  0  0  0  0
 46 48  1  0  0  0  0
 47 49  1  0  0  0  0
 47 51  1  0  0  0  0
 48 53  1  0  0  0  0
 49 55  1  0  0  0  0
 50 68  1  0  0  0  0
 51 70  1  0  0  0  0
 52 55  1  0  0  0  0
 52 70  1  0  0  0  0
 53 74  1  0  0  0  0
 54 69  1  0  0  0  0
 55 67  1  0  0  0  0
 56 64  1  0  0  0  0
 57 65  1  0  0  0  0
 58 65  1  0  0  0  0
 59 65  1  0  0  0  0
 60 76  1  0  0  0  0
 61 85  1  0  0  0  0
 62 86  1  0  0  0  0
 63 65  1  0  0  0  0
 63 75  1  0  0  0  0
 64 76  1  0  0  0  0
 66 67  1  0  0  0  0
M  CHG  2  76   1  77  -1
M  ISO  4  41 100  62 101  73 100  86 101
M  END
> <Batch ID>
0104

> <Smiles>
CNC(C)C(=O)NC(C(=O)N1Cc2cc([101O:1][101CH2:1]C3C(=O)CCN(c4cc(F)c([100NH:0][100C:0](=O)N5CCCC(n6nc(-c7ccc(Oc8ccc(F)cc8F)cc7)c(C(N)=O)c6N)C5)cc4OC)C3=O)ccc2CC1C(=O)NC1CCCc2ccccc21)C(C)(C)C

> <Shape>
0.208

> <Color>
0.195

> <Negative vol penalty>
0.000

$$$$

  -OEChem-04052301083D

 89 98  0     1  0  0  0  0  0999 V2000
  -23.6699  -12.6288   16.4158 C   0  0  0  0  0  0  0  0  0  0  0  0
  -24.1424  -13.9353   16.3440 C   0  0  0  0  0  0  0  0  0  0  0  0
  -20.9832  -26.5996   22.3671 C   0  0  0  0  0  0  0  0  0  0  0  0
  -20.0022  -28.7699   22.7726 C   0  0  0  0  0  0  0  0  0  0  0  0
  -23.2849  -12.0945   17.6447 C   0  0  0  0  0  0  0  0  0  0  0  0
  -24.2292  -14.7087   17.5010 C   0  0  0  0  0  0  0  0  0  0  0  0
  -28.4794  -18.9213   18.8033 C   0  0  0  0  0  0  0  0  0  0  0  0
  -26.9208  -25.2023   21.9791 C   0  0  0  0  0  0  0  0  0  0  0  0
  -27.0712  -25.5669   23.3170 C   0  0  0  0  0  0  0  0  0  0  0  0
  -19.7777  -25.9898   22.7142 C   0  0  0  0  0  0  0  0  0  0  0  0
  -18.7967  -28.1602   23.1196 C   0  0  0  0  0  0  0  0  0  0  0  0
  -28.4840  -20.3117   18.7015 C   0  0  0  0  0  0  0  0  0  0  0  0
  -16.7772  -25.4021   21.2705 C   0  0  0  0  0  0  0  0  0  0  0  0
  -16.3111  -24.3741   20.4510 C   0  0  0  0  0  0  0  0  0  0  0  0
  -27.8674  -20.4781   21.0277 C   0  0  0  0  0  0  0  0  0  0  0  0
  -28.2603  -27.5584   22.6405 C   0  0  0  0  0  0  0  0  0  0  0  0
  -16.3826  -22.8490   22.3235 C   0  0  0  0  0  0  0  0  0  0  0  0
  -21.0955  -27.9897   22.3963 C   0  0  0  0  0  0  0  0  0  0  0  0
  -22.7427  -29.0415   20.7567 C   0  0  0  0  0  0  0  0  0  0  0  0
  -23.3761  -12.8586   18.8188 C   0  0  0  0  0  0  0  0  0  0  0  0
  -28.1575  -18.2976   20.0173 C   0  0  0  0  0  0  0  0  0  0  0  0
  -23.8438  -14.1846   18.7466 C   0  0  0  0  0  0  0  0  0  0  0  0
  -27.8619  -19.0796   21.1430 C   0  0  0  0  0  0  0  0  0  0  0  0
  -27.4402  -26.0156   20.9719 C   0  0  0  0  0  0  0  0  0  0  0  0
  -27.7409  -26.7450   23.6477 C   0  0  0  0  0  0  0  0  0  0  0  0
  -18.6844  -26.7701   23.0904 C   0  0  0  0  0  0  0  0  0  0  0  0
  -28.1752  -21.0903   19.8130 C   0  0  0  0  0  0  0  0  0  0  0  0
  -17.0460  -25.1536   22.6165 C   0  0  0  0  0  0  0  0  0  0  0  0
  -28.1099  -27.1937   21.3026 C   0  0  0  0  0  0  0  0  0  0  0  0
  -16.1138  -23.0975   20.9775 C   0  0  0  0  0  0  0  0  0  0  0  0
  -16.8487  -23.8770   23.1430 C   0  0  0  0  0  0  0  0  0  0  0  0
  -22.3407  -28.6201   22.0384 C   0  0  0  0  0  0  0  0  0  0  0  0
  -23.9948  -29.5728   20.9470 C   0  0  0  0  0  0  0  0  0  0  0  0
  -28.9723  -26.1813   17.7704 C   0  0  0  0  0  0  0  0  0  0  0  0
  -22.0464  -28.9599   19.5060 C   0  0  0  0  0  0  0  0  0  0  0  0
  -25.8641  -16.3206   20.9846 C   0  0  0  0  0  0  0  0  0  0  0  0
  -27.6026  -16.2679   23.7227 C   0  0  0  0  0  0  0  0  0  0  0  0
  -29.8667  -17.8238   25.7475 C   0  0  0  0  0  0  0  0  0  0  0  0
  -27.9735  -28.4591   25.4640 C   0  0  0  0  0  0  0  0  0  0  0  0
  -22.9036  -12.2536   20.1171 C   0  0  0  0  0  0  0  0  0  0  0  0
  -28.1831  -16.7970   20.1177 C   0  0  0  0  0  0  0  0  0  0  0  0
  -27.5293  -18.4592   22.4745 C   0  0  0  0  0  0  0  0  0  0  0  0
  -30.3300  -25.6516   17.3787 C   0  0  0  0  0  0  0  0  0  0  0  0
  -23.3793  -13.0142   21.3522 C   0  0  0  0  0  0  0  0  0  0  0  0
  -30.7859  -24.8891   18.6193 C   0  0  0  0  0  0  0  0  0  0  0  0
  -26.7181  -31.7172   24.2384 C   0  0  0  0  0  0  0  0  0  0  0  0
  -23.1656  -14.5136   21.1710 C   0  0  0  0  0  0  0  0  0  0  0  0
  -25.4395  -31.3310   23.4972 C   0  0  0  0  0  0  0  0  0  0  0  0
  -27.0315  -30.7448   25.3715 C   0  0  0  0  0  0  0  0  0  0  0  0
  -25.8276  -28.9318   24.1862 C   0  0  0  0  0  0  0  0  0  0  0  0
  -23.9759  -15.0468   19.9833 C   0  0  1  0  0  0  0  0  0  0  0  0
  -27.3383  -16.2607   21.2692 C   0  0  1  0  0  0  0  0  0  0  0  0
  -25.5118  -29.8730   23.0142 C   0  0  1  0  0  0  0  0  0  0  0  0
  -29.4895  -24.4123   19.2671 C   0  0  2  0  0  0  0  0  0  0  0  0
  -29.7243  -25.7360   25.9317 C   0  0  0  0  0  0  0  0  0  0  0  0
  -31.0640  -17.5539   27.9363 C   0  0  0  0  0  0  0  0  0  0  0  0
  -25.0502  -17.0310   25.2103 C   0  0  0  0  0  0  0  0  0  0  0  0
  -26.4675  -17.6664   27.1739 C   0  0  0  0  0  0  0  0  0  0  0  0
  -26.4522  -15.3084   26.3599 C   0  0  0  0  0  0  0  0  0  0  0  0
  -32.5173  -17.8315   24.4310 C   0  0  0  0  0  0  0  0  0  0  0  0
  -29.2925  -29.1839   20.7581 C   0  0  0  0  0  0  0  0  0  0  0  0
  -27.2690  -25.6071   19.5373 C   0  0  0  0  0  0  0  0  0  0  0  0
  -29.0772  -23.0295   18.7729 C   0  0  0  0  0  0  0  0  0  1  0  0
  -28.2487  -26.0759   25.9898 C   0  0  0  0  0  0  0  0  0  0  0  0
  -27.6223  -17.0842   24.9925 C   0  0  1  0  0  0  0  0  0  0  0  0
  -31.1200  -17.3139   26.4357 C   0  0  2  0  0  0  0  0  0  0  0  0
  -26.4024  -16.7845   25.9087 C   0  0  0  0  0  0  0  0  0  0  0  0
  -23.2629  -28.8627   22.9737 N   0  0  0  0  0  0  0  0  0  0  0  0
  -24.2567  -29.4422   22.2791 N   0  0  0  0  0  0  0  0  0  0  0  0
  -28.5418  -25.4368   18.8665 N   0  0  0  0  0  0  0  0  0  0  0  0
  -27.5614  -16.9880   22.5204 N   0  0  0  0  0  0  0  0  0  0  0  0
  -27.0378  -29.3560   24.9090 N   0  0  0  0  0  0  0  0  0  0  0  0
  -24.8864  -30.1343   20.1030 N   0  0  0  0  0  0  0  0  0  0  0  0
  -20.7684  -28.3847   19.4890 N   0  0  0  0  0  0  0  0  0  0  0  0
  -25.3679  -15.1986   20.3486 N   0  0  0  0  0  0  0  0  0  0  0  0
  -28.9158  -16.8336   25.6188 N   0  0  0  0  0  0  0  0  0  0  0  0
  -27.8970  -27.1215   25.0315 N   0  0  0  0  0  0  0  0  0  0  0  0
  -32.3252  -18.0033   25.8941 N   0  3  0  0  0  0  0  0  0  0  0  0
  -28.3806  -27.0751   17.1836 O   0  0  0  0  0  0  0  0  0  0  0  0
  -22.5494  -29.3697   18.4325 O   0  0  0  0  0  0  0  0  0  0  0  0
  -25.2240  -17.3107   21.3187 O   0  0  0  0  0  0  0  0  0  0  0  0
  -27.6301  -15.0367   23.7948 O   0  0  0  0  0  0  0  0  0  0  0  0
  -29.7420  -18.9855   25.3659 O   0  0  0  0  0  0  0  0  0  0  0  0
  -28.7859  -28.8124   26.3276 O   0  0  0  0  0  0  0  0  0  0  0  0
  -17.5079  -26.1754   23.4290 O   0  0  0  0  0  0  0  0  0  0  0  0
  -28.6234  -27.9991   20.3310 O   0  0  0  0  0  0  0  0  0  0  0  0
  -28.1783  -22.4477   19.7162 O   0  0  0  0  0  0  0  0  0  1  0  0
  -15.6648  -22.1108   20.1908 F   0  0  0  0  0  0  0  0  0  0  0  0
  -17.1040  -23.6325   24.4356 F   0  0  0  0  0  0  0  0  0  0  0  0
  1  2  1  0  0  0  0
  1  5  2  0  0  0  0
  2  6  2  0  0  0  0
  3 10  2  0  0  0  0
  3 18  1  0  0  0  0
  4 11  1  0  0  0  0
  4 18  2  0  0  0  0
  5 20  1  0  0  0  0
  6 22  1  0  0  0  0
  7 12  2  0  0  0  0
  7 21  1  0  0  0  0
  8  9  2  0  0  0  0
  8 24  1  0  0  0  0
  9 25  1  0  0  0  0
 10 26  1  0  0  0  0
 11 26  2  0  0  0  0
 12 27  1  0  0  0  0
 13 14  2  0  0  0  0
 13 28  1  0  0  0  0
 14 30  1  0  0  0  0
 15 23  1  0  0  0  0
 15 27  2  0  0  0  0
 16 25  2  0  0  0  0
 16 29  1  0  0  0  0
 17 30  2  0  0  0  0
 17 31  1  0  0  0  0
 18 32  1  0  0  0  0
 19 32  1  0  0  0  0
 19 33  2  0  0  0  0
 19 35  1  0  0  0  0
 20 22  2  0  0  0  0
 20 40  1  0  0  0  0
 21 23  2  0  0  0  0
 21 41  1  0  0  0  0
 22 51  1  0  0  0  0
 23 42  1  0  0  0  0
 24 29  2  0  0  0  0
 24 62  1  0  0  0  0
 25 77  1  0  0  0  0
 26 85  1  0  0  0  0
 27 87  1  0  0  0  0
 28 31  2  0  0  0  0
 28 85  1  0  0  0  0
 29 86  1  0  0  0  0
 30 88  1  0  0  0  0
 31 89  1  0  0  0  0
 32 68  2  0  0  0  0
 33 69  1  0  0  0  0
 33 73  1  0  0  0  0
 34 43  1  0  0  0  0
 34 70  1  0  0  0  0
 34 79  2  0  0  0  0
 35 74  1  0  0  0  0
 35 80  2  0  0  0  0
 36 52  1  0  0  0  0
 36 75  1  0  0  0  0
 36 81  2  0  0  0  0
 37 65  1  0  0  0  0
 37 71  1  0  0  0  0
 37 82  2  0  0  0  0
 38 66  1  0  0  0  0
 38 76  1  0  0  0  0
 38 83  2  0  0  0  0
 39 72  1  0  0  0  0
 39 77  1  0  0  0  0
 39 84  2  0  0  0  0
 40 44  1  0  0  0  0
 41 52  1  0  0  0  0
 42 71  1  0  0  0  0
 43 45  1  0  0  0  0
 44 47  1  0  0  0  0
 45 54  1  0  0  0  0
 46 48  1  0  0  0  0
 46 49  1  0  0  0  0
 47 51  1  0  0  0  0
 48 53  1  0  0  0  0
 49 72  1  0  0  0  0
 50 53  1  0  0  0  0
 50 72  1  0  0  0  0
 51 75  1  0  0  0  0
 52 71  1  0  0  0  0
 53 69  1  0  0  0  0
 54 63  1  0  0  0  0
 54 70  1  0  0  0  0
 55 64  1  0  0  0  0
 56 66  1  0  0  0  0
 57 67  1  0  0  0  0
 58 67  1  0  0  0  0
 59 67  1  0  0  0  0
 60 78  1  0  0  0  0
 61 86  1  0  0  0  0
 62 70  1  0  0  0  0
 63 87  1  0  0  0  0
 64 77  1  0  0  0  0
 65 67  1  0  0  0  0
 65 76  1  0  0  0  0
 66 78  1  0  0  0  0
 68 69  1  0  0  0  0
M  CHG  1  78   1
M  ISO  4  39 100  63 101  77 100  87 101
M  END
> <Batch ID>
0104

> <Smiles>
CC[100N:0](c1ccc(CN2C(=O)CCC2[101CH2:1][101O:1]c2ccc3c(c2)CN(C(=O)C(NC(=O)C(C)NC)C(C)(C)C)C(C(=O)NC2CCCc4ccccc42)C3)c(OC)c1)[100C:0](=O)N1CCCC(n2nc(-c3ccc(Oc4ccc(F)cc4F)cc3)c(C(N)=O)c2N)C1

> <Shape>
0.229

> <Color>
0.056

> <Negative vol penalty>
0.000

$$$$

  -OEChem-04052301083D

 76 83  0     1  0  0  0  0  0999 V2000
  -24.8354  -10.7881   21.2125 C   0  0  0  0  0  0  0  0  0  0  0  0
  -25.0082  -11.8576   22.0838 C   0  0  0  0  0  0  0  0  0  0  0  0
  -25.3890  -27.5148   21.0847 C   0  0  0  0  0  0  0  0  0  0  0  0
  -25.5039  -25.2950   20.1378 C   0  0  0  0  0  0  0  0  0  0  0  0
  -25.1020  -10.9503   19.8546 C   0  0  0  0  0  0  0  0  0  0  0  0
  -25.4362  -13.0927   21.5959 C   0  0  0  0  0  0  0  0  0  0  0  0
  -27.6336  -20.7309   21.8242 C   0  0  0  0  0  0  0  0  0  0  0  0
  -24.0079  -27.5266   20.8894 C   0  0  0  0  0  0  0  0  0  0  0  0
  -24.1228  -25.3069   19.9425 C   0  0  0  0  0  0  0  0  0  0  0  0
  -28.3169  -21.7139   21.1096 C   0  0  0  0  0  0  0  0  0  0  0  0
  -21.2669  -26.2511   22.4037 C   0  0  0  0  0  0  0  0  0  0  0  0
  -20.4682  -26.7123   23.4501 C   0  0  0  0  0  0  0  0  0  0  0  0
  -26.8814  -21.3227   19.2108 C   0  0  0  0  0  0  0  0  0  0  0  0
  -19.6037  -28.4579   22.0208 C   0  0  0  0  0  0  0  0  0  0  0  0
  -26.1370  -26.3990   20.7089 C   0  0  0  0  0  0  0  0  0  0  0  0
  -28.2578  -25.9361   22.0489 C   0  0  0  0  0  0  0  0  0  0  0  0
  -25.5454  -12.1849   19.3525 C   0  0  0  0  0  0  0  0  0  0  0  0
  -26.5744  -20.0276   21.2327 C   0  0  0  0  0  0  0  0  0  0  0  0
  -25.6876  -13.2830   20.2251 C   0  0  0  0  0  0  0  0  0  0  0  0
  -26.1847  -20.3330   19.9209 C   0  0  0  0  0  0  0  0  0  0  0  0
  -23.3748  -26.4227   20.3183 C   0  0  0  0  0  0  0  0  0  0  0  0
  -27.9427  -22.0079   19.8017 C   0  0  0  0  0  0  0  0  0  0  0  0
  -21.2342  -26.8934   21.1659 C   0  0  0  0  0  0  0  0  0  0  0  0
  -19.6366  -27.8157   23.2586 C   0  0  0  0  0  0  0  0  0  0  0  0
  -20.4025  -27.9967   20.9744 C   0  0  0  0  0  0  0  0  0  0  0  0
  -27.5637  -26.3863   20.9099 C   0  0  0  0  0  0  0  0  0  0  0  0
  -29.5824  -26.1337   21.7442 C   0  0  0  0  0  0  0  0  0  0  0  0
  -27.7505  -25.3882   23.2729 C   0  0  0  0  0  0  0  0  0  0  0  0
  -26.0287  -16.9791   20.5169 C   0  0  0  0  0  0  0  0  0  0  0  0
  -30.7528  -23.6518   18.2073 C   0  0  0  0  0  0  0  0  0  0  0  0
  -23.0883  -18.0965   19.7242 C   0  0  0  0  0  0  0  0  0  0  0  0
  -21.1566  -20.7389   18.7585 C   0  0  0  0  0  0  0  0  0  0  0  0
  -32.8815  -25.7792   16.8378 C   0  0  0  0  0  0  0  0  0  0  0  0
  -25.8117  -12.3070   17.8729 C   0  0  0  0  0  0  0  0  0  0  0  0
  -25.8303  -18.9888   22.0262 C   0  0  0  0  0  0  0  0  0  0  0  0
  -25.0413  -19.6209   19.2472 C   0  0  0  0  0  0  0  0  0  0  0  0
  -26.6790  -13.5117   17.5224 C   0  0  0  0  0  0  0  0  0  0  0  0
  -32.0532  -28.9601   18.5400 C   0  0  0  0  0  0  0  0  0  0  0  0
  -26.1294  -14.7610   18.1946 C   0  0  0  0  0  0  0  0  0  0  0  0
  -30.8291  -28.5833   19.3728 C   0  0  0  0  0  0  0  0  0  0  0  0
  -32.1721  -28.1004   17.2852 C   0  0  0  0  0  0  0  0  0  0  0  0
  -30.9427  -26.2600   18.3878 C   0  0  0  0  0  0  0  0  0  0  0  0
  -26.1815  -14.6273   19.7218 C   0  0  1  0  0  0  0  0  0  0  0  0
  -25.0998  -17.9769   21.1488 C   0  0  1  0  0  0  0  0  0  0  0  0
  -30.8195  -27.0763   19.6832 C   0  0  2  0  0  0  0  0  0  0  0  0
  -19.0713  -22.0138   18.1896 C   0  0  0  0  0  0  0  0  0  0  0  0
  -23.4573  -16.7728   16.9999 C   0  0  0  0  0  0  0  0  0  0  0  0
  -21.5635  -18.1683   16.1431 C   0  0  0  0  0  0  0  0  0  0  0  0
  -21.1692  -16.5256   17.9785 C   0  0  0  0  0  0  0  0  0  0  0  0
  -33.5953  -23.4559   16.4226 C   0  0  0  0  0  0  0  0  0  0  0  0
  -20.7356  -21.5357   21.5775 C   0  0  0  0  0  0  0  0  0  0  0  0
  -32.2273  -23.9184   18.4227 C   0  0  0  0  0  0  0  0  0  0  0  0
  -29.9851  -23.1649   19.4200 C   0  0  0  0  0  0  0  0  0  1  0  0
  -22.4563  -18.6459   18.4682 C   0  0  1  0  0  0  0  0  0  0  0  0
  -19.8225  -21.2515   19.2701 C   0  0  2  0  0  0  0  0  0  0  0  0
  -22.1844  -17.5404   17.4092 C   0  0  0  0  0  0  0  0  0  0  0  0
  -28.3799  -26.8362   19.9531 N   0  0  0  0  0  0  0  0  0  0  0  0
  -29.6005  -26.6698   20.4902 N   0  0  0  0  0  0  0  0  0  0  0  0
  -24.3489  -18.6090   20.0621 N   0  0  0  0  0  0  0  0  0  0  0  0
  -32.1167  -26.6735   17.6046 N   0  0  0  0  0  0  0  0  0  0  0  0
  -30.7217  -25.8997   22.4294 N   0  0  0  0  0  0  0  0  0  0  0  0
  -26.3632  -25.2542   23.4206 N   0  0  0  0  0  0  0  0  0  0  0  0
  -25.4648  -15.7335   20.3172 N   0  0  0  0  0  0  0  0  0  0  0  0
  -21.2644  -19.3710   18.8945 N   0  0  0  0  0  0  0  0  0  0  0  0
  -32.8115  -24.4205   17.1809 N   0  0  0  0  0  0  0  0  0  0  0  0
  -20.0284  -22.1627   20.4313 N   0  3  0  0  0  0  0  0  0  0  0  0
  -28.5042  -25.0433   24.2144 O   0  0  0  0  0  0  0  0  0  0  0  0
  -27.1718  -17.3150   20.2304 O   0  0  0  0  0  0  0  0  0  0  0  0
  -30.2172  -23.7702   17.1056 O   0  0  0  0  0  0  0  0  0  0  0  0
  -22.4827  -17.2492   20.3852 O   0  0  0  0  0  0  0  0  0  0  0  0
  -22.0157  -21.4776   18.2822 O   0  0  0  0  0  0  0  0  0  0  0  0
  -33.5942  -26.1739   15.9060 O   0  0  0  0  0  0  0  0  0  0  0  0
  -22.0272  -26.4339   20.1278 O   0  0  0  0  0  0  0  0  0  0  0  0
  -28.6083  -22.9665   19.1017 O   0  0  0  0  0  0  0  0  0  1  0  0
  -18.8684  -28.2575   24.2631 F   0  0  0  0  0  0  0  0  0  0  0  0
  -20.3659  -28.6171   19.7872 F   0  0  0  0  0  0  0  0  0  0  0  0
  1  2  1  0  0  0  0
  1  5  2  0  0  0  0
  2  6  2  0  0  0  0
  3  8  2  0  0  0  0
  3 15  1  0  0  0  0
  4  9  1  0  0  0  0
  4 15  2  0  0  0  0
  5 17  1  0  0  0  0
  6 19  1  0  0  0  0
  7 10  2  0  0  0  0
  7 18  1  0  0  0  0
  8 21  1  0  0  0  0
  9 21  2  0  0  0  0
 10 22  1  0  0  0  0
 11 12  2  0  0  0  0
 11 23  1  0  0  0  0
 12 24  1  0  0  0  0
 13 20  1  0  0  0  0
 13 22  2  0  0  0  0
 14 24  2  0  0  0  0
 14 25  1  0  0  0  0
 15 26  1  0  0  0  0
 16 26  1  0  0  0  0
 16 27  2  0  0  0  0
 16 28  1  0  0  0  0
 17 19  2  0  0  0  0
 17 34  1  0  0  0  0
 18 20  2  0  0  0  0
 18 35  1  0  0  0  0
 19 43  1  0  0  0  0
 20 36  1  0  0  0  0
 21 73  1  0  0  0  0
 22 74  1  0  0  0  0
 23 25  2  0  0  0  0
 23 73  1  0  0  0  0
 24 75  1  0  0  0  0
 25 76  1  0  0  0  0
 26 57  2  0  0  0  0
 27 58  1  0  0  0  0
 27 61  1  0  0  0  0
 28 62  1  0  0  0  0
 28 67  2  0  0  0  0
 29 44  1  0  0  0  0
 29 63  1  0  0  0  0
 29 68  2  0  0  0  0
 30 52  1  0  0  0  0
 30 53  1  0  0  0  0
 30 69  2  0  0  0  0
 31 54  1  0  0  0  0
 31 59  1  0  0  0  0
 31 70  2  0  0  0  0
 32 55  1  0  0  0  0
 32 64  1  0  0  0  0
 32 71  2  0  0  0  0
 33 60  1  0  0  0  0
 33 65  1  0  0  0  0
 33 72  2  0  0  0  0
 34 37  1  0  0  0  0
 35 44  1  0  0  0  0
 36 59  1  0  0  0  0
 37 39  1  0  0  0  0
 38 40  1  0  0  0  0
 38 41  1  0  0  0  0
 39 43  1  0  0  0  0
 40 45  1  0  0  0  0
 41 60  1  0  0  0  0
 42 45  1  0  0  0  0
 42 60  1  0  0  0  0
 43 63  1  0  0  0  0
 44 59  1  0  0  0  0
 45 58  1  0  0  0  0
 46 55  1  0  0  0  0
 47 56  1  0  0  0  0
 48 56  1  0  0  0  0
 49 56  1  0  0  0  0
 50 65  1  0  0  0  0
 51 66  1  0  0  0  0
 52 65  1  0  0  0  0
 53 74  1  0  0  0  0
 54 56  1  0  0  0  0
 54 64  1  0  0  0  0
 55 66  1  0  0  0  0
 57 58  1  0  0  0  0
M  CHG  1  66   1
M  ISO  4  33 100  53 101  65 100  74 101
M  END
> <Batch ID>
0104

> <Smiles>
CNC(C)C(=O)NC(C(=O)N1Cc2cc([101O:1][101CH2:1]C(=O)C[100N:0](C)[100C:0](=O)N3CCCC(n4nc(-c5ccc(Oc6ccc(F)cc6F)cc5)c(C(N)=O)c4N)C3)ccc2CC1C(=O)NC1CCCc2ccccc21)C(C)(C)C

> <Shape>
0.168

> <Color>
0.071

> <Negative vol penalty>
0.000

$$$$

  -OEChem-04052301083D

 85 93  0     1  0  0  0  0  0999 V2000
  -29.2408  -36.8664   25.3797 C   0  0  0  0  0  0  0  0  0  0  0  0
  -29.5746  -35.6040   24.8999 C   0  0  0  0  0  0  0  0  0  0  0  0
  -24.5608   -9.4242   21.4231 C   0  0  0  0  0  0  0  0  0  0  0  0
  -24.8164  -10.5864   23.5256 C   0  0  0  0  0  0  0  0  0  0  0  0
  -27.9258  -37.1451   25.7497 C   0  0  0  0  0  0  0  0  0  0  0  0
  -28.5936  -34.6190   24.7909 C   0  0  0  0  0  0  0  0  0  0  0  0
  -28.2026  -30.2722   20.4946 C   0  0  0  0  0  0  0  0  0  0  0  0
  -24.3302   -8.2323   22.1099 C   0  0  0  0  0  0  0  0  0  0  0  0
  -24.5858   -9.3945   24.2125 C   0  0  0  0  0  0  0  0  0  0  0  0
  -28.5761  -28.9290   20.4825 C   0  0  0  0  0  0  0  0  0  0  0  0
  -21.7673   -6.7586   23.7509 C   0  0  0  0  0  0  0  0  0  0  0  0
  -20.7101   -5.9567   23.3209 C   0  0  0  0  0  0  0  0  0  0  0  0
  -28.7014  -18.3708   23.1566 C   0  0  0  0  0  0  0  0  0  0  0  0
  -26.3200  -28.3028   21.0632 C   0  0  0  0  0  0  0  0  0  0  0  0
  -28.6468  -20.6006   24.0852 C   0  0  0  0  0  0  0  0  0  0  0  0
  -22.2564   -4.1525   22.8838 C   0  0  0  0  0  0  0  0  0  0  0  0
  -24.8039  -10.6013   22.1309 C   0  0  0  0  0  0  0  0  0  0  0  0
  -28.3197  -18.8786   21.9148 C   0  0  0  0  0  0  0  0  0  0  0  0
  -24.0834  -12.7794   21.0155 C   0  0  0  0  0  0  0  0  0  0  0  0
  -26.9262  -36.1660   25.6360 C   0  0  0  0  0  0  0  0  0  0  0  0
  -26.8854  -30.6420   20.8023 C   0  0  0  0  0  0  0  0  0  0  0  0
  -27.2642  -34.8844   25.1610 C   0  0  0  0  0  0  0  0  0  0  0  0
  -25.9318  -29.6512   21.0760 C   0  0  0  0  0  0  0  0  0  0  0  0
  -28.1016  -20.2474   21.7582 C   0  0  0  0  0  0  0  0  0  0  0  0
  -28.2651  -21.1084   22.8434 C   0  0  0  0  0  0  0  0  0  0  0  0
  -24.3427   -8.2174   23.5046 C   0  0  0  0  0  0  0  0  0  0  0  0
  -27.6354  -27.9442   20.7697 C   0  0  0  0  0  0  0  0  0  0  0  0
  -23.0691   -6.2575   23.7473 C   0  0  0  0  0  0  0  0  0  0  0  0
  -20.9546   -4.6537   22.8874 C   0  0  0  0  0  0  0  0  0  0  0  0
  -28.8650  -19.2318   24.2418 C   0  0  0  0  0  0  0  0  0  0  0  0
  -23.3136   -4.9544   23.3138 C   0  0  0  0  0  0  0  0  0  0  0  0
  -25.0427  -11.8327   21.4220 C   0  0  0  0  0  0  0  0  0  0  0  0
  -24.8125  -13.7588   20.3865 C   0  0  0  0  0  0  0  0  0  0  0  0
  -28.1567  -17.9541   20.8006 C   0  0  0  0  0  0  0  0  0  0  0  0
  -22.6604  -12.7741   21.1910 C   0  0  0  0  0  0  0  0  0  0  0  0
  -29.2831  -17.1205   20.3217 C   0  0  0  0  0  0  0  0  0  0  0  0
  -25.5174  -32.3689   23.0936 C   0  0  0  0  0  0  0  0  0  0  0  0
  -22.8460  -31.8983   21.3147 C   0  0  0  0  0  0  0  0  0  0  0  0
  -21.1975  -29.9956   19.0106 C   0  0  0  0  0  0  0  0  0  0  0  0
  -25.5281  -36.4994   26.0929 C   0  0  0  0  0  0  0  0  0  0  0  0
  -26.4922  -32.0937   20.7849 C   0  0  0  0  0  0  0  0  0  0  0  0
  -24.4999  -29.9946   21.3925 C   0  0  0  0  0  0  0  0  0  0  0  0
  -24.4733  -35.5153   25.5939 C   0  0  0  0  0  0  0  0  0  0  0  0
  -29.6389  -13.8465   18.9036 C   0  0  0  0  0  0  0  0  0  0  0  0
  -24.9430  -34.0789   25.8006 C   0  0  0  0  0  0  0  0  0  0  0  0
  -28.4156  -13.0980   19.4318 C   0  0  0  0  0  0  0  0  0  0  0  0
  -30.1608  -14.8534   19.9235 C   0  0  0  0  0  0  0  0  0  0  0  0
  -27.9010  -15.0866   20.9171 C   0  0  0  0  0  0  0  0  0  0  0  0
  -26.2232  -33.7971   25.0048 C   0  0  1  0  0  0  0  0  0  0  0  0
  -25.2464  -32.3852   21.6158 C   0  0  1  0  0  0  0  0  0  0  0  0
  -27.3287  -14.0802   19.9037 C   0  0  2  0  0  0  0  0  0  0  0  0
  -27.6925  -20.7916   20.4249 C   0  0  0  0  0  0  0  0  0  0  0  0
  -19.0146  -29.8409   17.7824 C   0  0  0  0  0  0  0  0  0  0  0  0
  -21.5036  -30.8340   23.8396 C   0  0  0  0  0  0  0  0  0  0  0  0
  -19.7225  -29.8381   22.3890 C   0  0  0  0  0  0  0  0  0  0  0  0
  -20.0565  -32.3098   22.4316 C   0  0  0  0  0  0  0  0  0  0  0  0
  -22.5252  -30.2714   16.3800 C   0  0  0  0  0  0  0  0  0  0  0  0
  -28.5582  -24.8500   22.9902 C   0  0  0  0  0  0  0  0  0  0  0  0
  -29.4228  -24.9430   21.7321 C   0  0  0  0  0  0  0  0  0  0  0  0
  -28.5837  -23.4588   23.6180 C   0  0  0  0  0  0  0  0  0  0  0  0
  -29.3486  -26.3288   21.1034 C   0  0  0  0  0  0  0  0  0  1  0  0
  -21.7621  -30.8485   21.2707 C   0  0  1  0  0  0  0  0  0  0  0  0
  -20.4394  -30.3718   17.7504 C   0  0  2  0  0  0  0  0  0  0  0  0
  -20.7885  -30.9509   22.4787 C   0  0  0  0  0  0  0  0  0  0  0  0
  -26.2864  -12.1794   21.0797 N   0  0  0  0  0  0  0  0  0  0  0  0
  -27.0305  -17.7976   20.1616 N   0  0  0  0  0  0  0  0  0  0  0  0
  -26.1135  -13.3547   20.4515 N   0  0  0  0  0  0  0  0  0  0  0  0
  -29.0964  -15.7463   20.3770 N   0  0  0  0  0  0  0  0  0  0  0  0
  -24.1658  -31.4282   21.3692 N   0  0  0  0  0  0  0  0  0  0  0  0
  -24.4612  -14.9175   19.7895 N   0  0  0  0  0  0  0  0  0  0  0  0
  -22.0738  -11.6912   21.8600 N   0  0  0  0  0  0  0  0  0  0  0  0
  -28.0536  -22.4713   22.7081 N   0  0  0  0  0  0  0  0  0  0  0  0
  -25.9136  -33.5893   23.6064 N   0  0  0  0  0  0  0  0  0  0  0  0
  -21.1161  -30.9830   19.9696 N   0  0  0  0  0  0  0  0  0  0  0  0
  -21.1221  -29.8136   16.5490 N   0  3  0  0  0  0  0  0  0  0  0  0
  -21.9290  -13.6940   20.7526 O   0  0  0  0  0  0  0  0  0  0  0  0
  -30.2643  -17.7364   19.9265 O   0  0  0  0  0  0  0  0  0  0  0  0
  -25.3761  -31.3265   23.7223 O   0  0  0  0  0  0  0  0  0  0  0  0
  -22.5335  -33.0914   21.2940 O   0  0  0  0  0  0  0  0  0  0  0  0
  -21.7985  -28.9306   19.1335 O   0  0  0  0  0  0  0  0  0  0  0  0
  -24.1175   -7.0546   24.1752 O   0  0  0  0  0  0  0  0  0  0  0  0
  -27.9974  -26.6324   20.7593 O   0  0  0  0  0  0  0  0  0  1  0  0
  -19.9391   -3.8832   22.4760 F   0  0  0  0  0  0  0  0  0  0  0  0
  -29.2324  -18.7443   25.4341 F   0  0  0  0  0  0  0  0  0  0  0  0
  -24.5619   -4.4671   23.3092 F   0  0  0  0  0  0  0  0  0  0  0  0
  1  2  1  0  0  0  0
  1  5  2  0  0  0  0
  2  6  2  0  0  0  0
  3  8  2  0  0  0  0
  3 17  1  0  0  0  0
  4  9  1  0  0  0  0
  4 17  2  0  0  0  0
  5 20  1  0  0  0  0
  6 22  1  0  0  0  0
  7 10  2  0  0  0  0
  7 21  1  0  0  0  0
  8 26  1  0  0  0  0
  9 26  2  0  0  0  0
 10 27  1  0  0  0  0
 11 12  2  0  0  0  0
 11 28  1  0  0  0  0
 12 29  1  0  0  0  0
 13 18  2  0  0  0  0
 13 30  1  0  0  0  0
 14 23  1  0  0  0  0
 14 27  2  0  0  0  0
 15 25  1  0  0  0  0
 15 30  2  0  0  0  0
 16 29  2  0  0  0  0
 16 31  1  0  0  0  0
 17 32  1  0  0  0  0
 18 24  1  0  0  0  0
 18 34  1  0  0  0  0
 19 32  1  0  0  0  0
 19 33  2  0  0  0  0
 19 35  1  0  0  0  0
 20 22  2  0  0  0  0
 20 40  1  0  0  0  0
 21 23  2  0  0  0  0
 21 41  1  0  0  0  0
 22 49  1  0  0  0  0
 23 42  1  0  0  0  0
 24 25  2  0  0  0  0
 24 52  1  0  0  0  0
 25 72  1  0  0  0  0
 26 81  1  0  0  0  0
 27 82  1  0  0  0  0
 28 31  2  0  0  0  0
 28 81  1  0  0  0  0
 29 83  1  0  0  0  0
 30 84  1  0  0  0  0
 31 85  1  0  0  0  0
 32 65  2  0  0  0  0
 33 67  1  0  0  0  0
 33 70  1  0  0  0  0
 34 36  1  0  0  0  0
 34 66  2  0  0  0  0
 35 71  1  0  0  0  0
 35 76  2  0  0  0  0
 36 68  1  0  0  0  0
 36 77  2  0  0  0  0
 37 50  1  0  0  0  0
 37 73  1  0  0  0  0
 37 78  2  0  0  0  0
 38 62  1  0  0  0  0
 38 69  1  0  0  0  0
 38 79  2  0  0  0  0
 39 63  1  0  0  0  0
 39 74  1  0  0  0  0
 39 80  2  0  0  0  0
 40 43  1  0  0  0  0
 41 50  1  0  0  0  0
 42 69  1  0  0  0  0
 43 45  1  0  0  0  0
 44 46  1  0  0  0  0
 44 47  1  0  0  0  0
 45 49  1  0  0  0  0
 46 51  1  0  0  0  0
 47 68  1  0  0  0  0
 48 51  1  0  0  0  0
 48 68  1  0  0  0  0
 49 73  1  0  0  0  0
 50 69  1  0  0  0  0
 51 67  1  0  0  0  0
 53 63  1  0  0  0  0
 54 64  1  0  0  0  0
 55 64  1  0  0  0  0
 56 64  1  0  0  0  0
 57 75  1  0  0  0  0
 58 59  1  0  0  0  0
 58 60  1  0  0  0  0
 59 61  1  0  0  0  0
 60 72  1  0  0  0  0
 61 82  1  0  0  0  0
 62 64  1  0  0  0  0
 62 74  1  0  0  0  0
 63 75  1  0  0  0  0
 65 67  1  0  0  0  0
M  CHG  1  75   1
M  ISO  4  34 100  36 100  61 101  82 101
M  END
> <Batch ID>
0104

> <Smiles>
CNC(C)C(=O)NC(C(=O)N1Cc2cc([101O:1][101CH2:1]CCCNc3cc(F)cc([100C:0](=N)[100C:0](=O)N4CCCC(n5nc(-c6ccc(Oc7ccc(F)cc7F)cc6)c(C(N)=O)c5N)C4)c3C)ccc2CC1C(=O)NC1CCCc2ccccc21)C(C)(C)C

> <Shape>
0.293

> <Color>
0.115

> <Negative vol penalty>
0.000

$$$$

  -OEChem-04052301083D

 86 94  0     1  0  0  0  0  0999 V2000
  -16.8474  -29.0560   24.3132 C   0  0  0  0  0  0  0  0  0  0  0  0
  -17.4743  -28.0804   23.5448 C   0  0  0  0  0  0  0  0  0  0  0  0
  -19.3807  -17.6893   24.0774 C   0  0  0  0  0  0  0  0  0  0  0  0
  -21.3763  -18.9611   23.5907 C   0  0  0  0  0  0  0  0  0  0  0  0
  -17.2841  -30.3786   24.2502 C   0  0  0  0  0  0  0  0  0  0  0  0
  -18.5376  -28.4270   22.7119 C   0  0  0  0  0  0  0  0  0  0  0  0
  -22.3993  -25.1667   23.0324 C   0  0  0  0  0  0  0  0  0  0  0  0
  -19.1554  -18.4752   25.2075 C   0  0  0  0  0  0  0  0  0  0  0  0
  -21.1511  -19.7471   24.7208 C   0  0  0  0  0  0  0  0  0  0  0  0
  -22.2696  -23.9571   22.3512 C   0  0  0  0  0  0  0  0  0  0  0  0
  -19.1703  -22.3425   25.5932 C   0  0  0  0  0  0  0  0  0  0  0  0
  -19.3149  -23.7233   25.4597 C   0  0  0  0  0  0  0  0  0  0  0  0
  -23.6343  -24.8254   20.5616 C   0  0  0  0  0  0  0  0  0  0  0  0
  -29.1369  -17.8721   20.0218 C   0  0  0  0  0  0  0  0  0  0  0  0
  -29.2176  -15.6273   20.9113 C   0  0  0  0  0  0  0  0  0  0  0  0
  -27.5127  -16.2314   19.3096 C   0  0  0  0  0  0  0  0  0  0  0  0
  -21.0495  -23.7043   27.1414 C   0  0  0  0  0  0  0  0  0  0  0  0
  -20.4912  -17.9322   23.2690 C   0  0  0  0  0  0  0  0  0  0  0  0
  -20.2565  -17.3554   20.7952 C   0  0  0  0  0  0  0  0  0  0  0  0
  -18.3595  -30.7399   23.4235 C   0  0  0  0  0  0  0  0  0  0  0  0
  -23.1397  -26.2203   22.4773 C   0  0  0  0  0  0  0  0  0  0  0  0
  -18.9882  -29.7560   22.6368 C   0  0  0  0  0  0  0  0  0  0  0  0
  -23.7741  -26.0465   21.2389 C   0  0  0  0  0  0  0  0  0  0  0  0
  -29.7321  -16.9224   20.8522 C   0  0  0  0  0  0  0  0  0  0  0  0
  -28.0272  -17.5266   19.2506 C   0  0  0  0  0  0  0  0  0  0  0  0
  -28.1079  -15.2817   20.1400 C   0  0  0  0  0  0  0  0  0  0  0  0
  -20.0406  -19.5042   25.5292 C   0  0  0  0  0  0  0  0  0  0  0  0
  -22.8847  -23.7874   21.1144 C   0  0  0  0  0  0  0  0  0  0  0  0
  -19.9652  -21.6425   26.5009 C   0  0  0  0  0  0  0  0  0  0  0  0
  -20.2545  -24.4043   26.2337 C   0  0  0  0  0  0  0  0  0  0  0  0
  -20.9048  -22.3234   27.2749 C   0  0  0  0  0  0  0  0  0  0  0  0
  -20.7247  -17.1203   22.1018 C   0  0  0  0  0  0  0  0  0  0  0  0
  -20.7479  -16.3045   20.0600 C   0  0  0  0  0  0  0  0  0  0  0  0
  -19.4495  -18.4279   20.2910 C   0  0  0  0  0  0  0  0  0  0  0  0
  -22.4698  -29.1828   21.5401 C   0  0  0  0  0  0  0  0  0  0  0  0
  -25.6814  -29.3595   21.1198 C   0  0  0  0  0  0  0  0  0  0  0  0
  -25.2520  -19.2991   19.3709 C   0  0  0  0  0  0  0  0  0  0  0  0
  -28.6265  -27.7233   20.5755 C   0  0  0  0  0  0  0  0  0  0  0  0
  -25.4661  -12.6867   20.7683 C   0  0  0  0  0  0  0  0  0  0  0  0
  -18.7653  -32.1908   23.3529 C   0  0  0  0  0  0  0  0  0  0  0  0
  -23.2922  -27.5094   23.2370 C   0  0  0  0  0  0  0  0  0  0  0  0
  -24.5969  -27.1395   20.6091 C   0  0  0  0  0  0  0  0  0  0  0  0
  -20.1411  -32.4087   22.7283 C   0  0  0  0  0  0  0  0  0  0  0  0
  -22.0507  -11.7207   20.4880 C   0  0  0  0  0  0  0  0  0  0  0  0
  -20.2827  -31.5892   21.4496 C   0  0  0  0  0  0  0  0  0  0  0  0
  -21.2813  -13.0162   20.7519 C   0  0  0  0  0  0  0  0  0  0  0  0
  -23.3060  -11.6238   21.3521 C   0  0  0  0  0  0  0  0  0  0  0  0
  -23.4438  -14.0785   21.5227 C   0  0  0  0  0  0  0  0  0  0  0  0
  -20.1610  -30.0884   21.7400 C   0  0  1  0  0  0  0  0  0  0  0  0
  -23.6431  -28.6931   22.3408 C   0  0  1  0  0  0  0  0  0  0  0  0
  -22.1995  -14.2476   20.6341 C   0  0  2  0  0  0  0  0  0  0  0  0
  -30.9189  -17.2923   21.6763 C   0  0  0  0  0  0  0  0  0  0  0  0
  -31.0783  -28.1393   20.2397 C   0  0  0  0  0  0  0  0  0  0  0  0
  -25.1311  -30.2841   18.2646 C   0  0  0  0  0  0  0  0  0  0  0  0
  -27.5179  -29.7689   17.7118 C   0  0  0  0  0  0  0  0  0  0  0  0
  -26.9821  -31.5073   19.4187 C   0  0  0  0  0  0  0  0  0  0  0  0
  -29.3400  -26.1600   22.9850 C   0  0  0  0  0  0  0  0  0  0  0  0
  -27.3863  -18.5483   18.3563 C   0  0  0  0  0  0  0  0  0  0  0  0
  -27.5580  -13.8967   20.2035 C   0  0  0  0  0  0  0  0  0  0  0  0
  -24.6629  -20.4480   20.1697 C   0  0  0  0  0  0  0  0  0  0  0  0
  -23.1833  -20.2466   20.4763 C   0  0  0  0  0  0  0  0  0  0  0  0
  -22.6000  -21.4294   21.2357 C   0  0  0  0  0  0  0  0  0  1  0  0
  -26.6282  -29.0678   19.9808 C   0  0  1  0  0  0  0  0  0  0  0  0
  -29.9819  -27.8377   21.2494 C   0  0  2  0  0  0  0  0  0  0  0  0
  -26.5478  -30.1369   18.8547 C   0  0  0  0  0  0  0  0  0  0  0  0
  -21.4573  -16.0073   22.1946 N   0  0  0  0  0  0  0  0  0  0  0  0
  -21.4530  -15.5336   20.9369 N   0  0  0  0  0  0  0  0  0  0  0  0
  -24.7111  -28.3836   21.3880 N   0  0  0  0  0  0  0  0  0  0  0  0
  -24.1341  -12.8217   21.1932 N   0  0  0  0  0  0  0  0  0  0  0  0
  -20.6414  -15.9737   18.7555 N   0  0  0  0  0  0  0  0  0  0  0  0
  -19.0306  -19.4250   21.1825 N   0  0  0  0  0  0  0  0  0  0  0  0
  -21.3922  -29.5818   22.3075 N   0  0  0  0  0  0  0  0  0  0  0  0
  -26.5980  -19.5005   19.1020 N   0  0  0  0  0  0  0  0  0  0  0  0
  -27.9523  -28.9261   20.5767 N   0  0  0  0  0  0  0  0  0  0  0  0
  -26.1789  -13.8722   20.6374 N   0  0  0  0  0  0  0  0  0  0  0  0
  -30.3225  -26.5656   21.9471 N   0  3  0  0  0  0  0  0  0  0  0  0
  -19.0962  -18.4912   19.0891 O   0  0  0  0  0  0  0  0  0  0  0  0
  -22.5378  -29.1988   20.3166 O   0  0  0  0  0  0  0  0  0  0  0  0
  -25.8030  -30.4111   21.7531 O   0  0  0  0  0  0  0  0  0  0  0  0
  -24.6009  -18.3201   19.0163 O   0  0  0  0  0  0  0  0  0  0  0  0
  -28.2092  -26.6729   20.0927 O   0  0  0  0  0  0  0  0  0  0  0  0
  -25.9803  -11.5912   20.5185 O   0  0  0  0  0  0  0  0  0  0  0  0
  -19.8209  -20.2714   26.6317 O   0  0  0  0  0  0  0  0  0  0  0  0
  -22.7592  -22.6080   20.4471 O   0  0  0  0  0  0  0  0  0  1  0  0
  -20.3944  -25.7301   26.1043 F   0  0  0  0  0  0  0  0  0  0  0  0
  -21.6721  -21.6562   28.1478 F   0  0  0  0  0  0  0  0  0  0  0  0
  1  2  1  0  0  0  0
  1  5  2  0  0  0  0
  2  6  2  0  0  0  0
  3  8  2  0  0  0  0
  3 18  1  0  0  0  0
  4  9  1  0  0  0  0
  4 18  2  0  0  0  0
  5 20  1  0  0  0  0
  6 22  1  0  0  0  0
  7 10  2  0  0  0  0
  7 21  1  0  0  0  0
  8 27  1  0  0  0  0
  9 27  2  0  0  0  0
 10 28  1  0  0  0  0
 11 12  2  0  0  0  0
 11 29  1  0  0  0  0
 12 30  1  0  0  0  0
 13 23  1  0  0  0  0
 13 28  2  0  0  0  0
 14 24  2  0  0  0  0
 14 25  1  0  0  0  0
 15 24  1  0  0  0  0
 15 26  2  0  0  0  0
 16 25  2  0  0  0  0
 16 26  1  0  0  0  0
 17 30  2  0  0  0  0
 17 31  1  0  0  0  0
 18 32  1  0  0  0  0
 19 32  1  0  0  0  0
 19 33  2  0  0  0  0
 19 34  1  0  0  0  0
 20 22  2  0  0  0  0
 20 40  1  0  0  0  0
 21 23  2  0  0  0  0
 21 41  1  0  0  0  0
 22 49  1  0  0  0  0
 23 42  1  0  0  0  0
 24 52  1  0  0  0  0
 25 58  1  0  0  0  0
 26 59  1  0  0  0  0
 27 83  1  0  0  0  0
 28 84  1  0  0  0  0
 29 31  2  0  0  0  0
 29 83  1  0  0  0  0
 30 85  1  0  0  0  0
 31 86  1  0  0  0  0
 32 66  2  0  0  0  0
 33 67  1  0  0  0  0
 33 70  1  0  0  0  0
 34 71  1  0  0  0  0
 34 77  2  0  0  0  0
 35 50  1  0  0  0  0
 35 72  1  0  0  0  0
 35 78  2  0  0  0  0
 36 63  1  0  0  0  0
 36 68  1  0  0  0  0
 36 79  2  0  0  0  0
 37 60  1  0  0  0  0
 37 73  1  0  0  0  0
 37 80  2  0  0  0  0
 38 64  1  0  0  0  0
 38 74  1  0  0  0  0
 38 81  2  0  0  0  0
 39 69  1  0  0  0  0
 39 75  1  0  0  0  0
 39 82  2  0  0  0  0
 40 43  1  0  0  0  0
 41 50  1  0  0  0  0
 42 68  1  0  0  0  0
 43 45  1  0  0  0  0
 44 46  1  0  0  0  0
 44 47  1  0  0  0  0
 45 49  1  0  0  0  0
 46 51  1  0  0  0  0
 47 69  1  0  0  0  0
 48 51  1  0  0  0  0
 48 69  1  0  0  0  0
 49 72  1  0  0  0  0
 50 68  1  0  0  0  0
 51 67  1  0  0  0  0
 53 64  1  0  0  0  0
 54 65  1  0  0  0  0
 55 65  1  0  0  0  0
 56 65  1  0  0  0  0
 57 76  1  0  0  0  0
 58 73  1  0  0  0  0
 59 75  1  0  0  0  0
 60 61  1  0  0  0  0
 61 62  1  0  0  0  0
 62 84  1  0  0  0  0
 63 65  1  0  0  0  0
 63 74  1  0  0  0  0
 64 76  1  0  0  0  0
 66 67  1  0  0  0  0
M  CHG  1  76   1
M  ISO  4  39 100  62 101  75 100  84 101
M  END
> <Batch ID>
0104

> <Smiles>
CNC(C)C(=O)NC(C(=O)N1Cc2cc([101O:1][101CH2:1]CCC(=O)NCc3cc(C)cc(C[100NH:0][100C:0](=O)N4CCCC(n5nc(-c6ccc(Oc7ccc(F)cc7F)cc6)c(C(N)=O)c5N)C4)c3)ccc2CC1C(=O)NC1CCCc2ccccc21)C(C)(C)C

> <Shape>
0.195

> <Color>
0.076

> <Negative vol penalty>
0.000

$$$$

  -OEChem-04052301083D

 84 93  0     1  0  0  0  0  0999 V2000
  -30.4663  -35.4272   23.3908 C   0  0  0  0  0  0  0  0  0  0  0  0
  -30.3763  -34.0484   23.2295 C   0  0  0  0  0  0  0  0  0  0  0  0
  -23.6144   -9.6763   19.7790 C   0  0  0  0  0  0  0  0  0  0  0  0
  -24.4742   -9.6173   22.0361 C   0  0  0  0  0  0  0  0  0  0  0  0
  -29.3122  -36.1798   23.6043 C   0  0  0  0  0  0  0  0  0  0  0  0
  -29.1320  -33.4211   23.2826 C   0  0  0  0  0  0  0  0  0  0  0  0
  -27.3312  -28.5359   20.0581 C   0  0  0  0  0  0  0  0  0  0  0  0
  -23.1487   -8.3694   19.9222 C   0  0  0  0  0  0  0  0  0  0  0  0
  -24.0084   -8.3103   22.1793 C   0  0  0  0  0  0  0  0  0  0  0  0
  -27.2586  -27.1795   20.3722 C   0  0  0  0  0  0  0  0  0  0  0  0
  -21.0618   -6.7701   22.7843 C   0  0  0  0  0  0  0  0  0  0  0  0
  -20.3933   -6.4477   23.9653 C   0  0  0  0  0  0  0  0  0  0  0  0
  -30.4202  -20.0357   22.9187 C   0  0  0  0  0  0  0  0  0  0  0  0
  -30.5688  -18.8615   22.1254 C   0  0  0  0  0  0  0  0  0  0  0  0
  -24.9273  -27.4407   20.9343 C   0  0  0  0  0  0  0  0  0  0  0  0
  -22.0574   -4.7639   24.4477 C   0  0  0  0  0  0  0  0  0  0  0  0
  -24.2772  -10.3003   20.8359 C   0  0  0  0  0  0  0  0  0  0  0  0
  -24.0639  -12.8380   20.9845 C   0  0  0  0  0  0  0  0  0  0  0  0
  -28.0522  -35.5626   23.6505 C   0  0  0  0  0  0  0  0  0  0  0  0
  -26.2033  -29.3586   20.1904 C   0  0  0  0  0  0  0  0  0  0  0  0
  -27.9601  -34.1659   23.4983 C   0  0  0  0  0  0  0  0  0  0  0  0
  -24.9876  -28.8067   20.6188 C   0  0  0  0  0  0  0  0  0  0  0  0
  -23.3457   -7.6864   21.1224 C   0  0  0  0  0  0  0  0  0  0  0  0
  -26.0572  -26.6323   20.8131 C   0  0  0  0  0  0  0  0  0  0  0  0
  -22.2281   -6.0893   22.4350 C   0  0  0  0  0  0  0  0  0  0  0  0
  -20.8911   -5.4447   24.7970 C   0  0  0  0  0  0  0  0  0  0  0  0
  -22.7259   -5.0863   23.2666 C   0  0  0  0  0  0  0  0  0  0  0  0
  -24.7590  -11.6502   20.6884 C   0  0  0  0  0  0  0  0  0  0  0  0
  -29.2743  -20.0025   23.6826 C   0  0  0  0  0  0  0  0  0  0  0  0
  -24.9498  -13.8407   20.6741 C   0  0  0  0  0  0  0  0  0  0  0  0
  -29.5308  -17.9754   22.3133 C   0  0  0  0  0  0  0  0  0  0  0  0
  -22.7362  -13.0189   21.4945 C   0  0  0  0  0  0  0  0  0  0  0  0
  -25.4812  -31.9102   21.9429 C   0  0  0  0  0  0  0  0  0  0  0  0
  -22.7783  -31.8933   20.1495 C   0  0  0  0  0  0  0  0  0  0  0  0
  -20.5844  -30.1162   18.2323 C   0  0  0  0  0  0  0  0  0  0  0  0
  -30.0671  -16.0315   20.8033 C   0  0  0  0  0  0  0  0  0  0  0  0
  -26.8378  -36.4118   23.9309 C   0  0  0  0  0  0  0  0  0  0  0  0
  -26.2914  -30.8142   19.8220 C   0  0  0  0  0  0  0  0  0  0  0  0
  -23.7426  -29.6429   20.7583 C   0  0  0  0  0  0  0  0  0  0  0  0
  -25.5193  -35.7173   23.6000 C   0  0  0  0  0  0  0  0  0  0  0  0
  -29.3727  -13.6847   18.2173 C   0  0  0  0  0  0  0  0  0  0  0  0
  -25.5108  -34.2961   24.1539 C   0  0  0  0  0  0  0  0  0  0  0  0
  -28.0533  -13.0439   18.6540 C   0  0  0  0  0  0  0  0  0  0  0  0
  -30.2792  -13.9852   19.4097 C   0  0  0  0  0  0  0  0  0  0  0  0
  -28.3364  -14.1323   20.9173 C   0  0  0  0  0  0  0  0  0  0  0  0
  -26.7624  -22.4292   25.1953 C   0  0  0  0  0  0  0  0  0  0  0  0
  -28.0347  -22.8673   23.1025 C   0  0  0  0  0  0  0  0  0  0  0  0
  -25.5885  -23.1509   24.5571 C   0  0  0  0  0  0  0  0  0  0  0  0
  -26.6260  -33.4522   23.5249 C   0  0  1  0  0  0  0  0  0  0  0  0
  -25.2123  -31.6647   20.4852 C   0  0  1  0  0  0  0  0  0  0  0  0
  -27.3629  -13.8708   19.7565 C   0  0  2  0  0  0  0  0  0  0  0  0
  -26.7894  -23.5657   22.5640 C   0  0  2  0  0  0  0  0  0  0  0  0
  -18.4514  -30.3668   16.9342 C   0  0  0  0  0  0  0  0  0  0  0  0
  -21.1965  -31.9204   22.7585 C   0  0  0  0  0  0  0  0  0  0  0  0
  -19.1748  -31.2190   21.4589 C   0  0  0  0  0  0  0  0  0  0  0  0
  -20.2770  -33.4018   20.9657 C   0  0  0  0  0  0  0  0  0  0  0  0
  -21.9006  -29.3428   15.6969 C   0  0  0  0  0  0  0  0  0  0  0  0
  -28.7604  -21.0361   24.6410 C   0  0  0  0  0  0  0  0  0  0  0  0
  -27.1723  -24.6886   21.6097 C   0  0  0  0  0  0  0  0  0  1  0  0
  -21.4166  -31.2536   20.2739 C   0  0  1  0  0  0  0  0  0  0  0  0
  -19.9706  -30.4047   16.8742 C   0  0  2  0  0  0  0  0  0  0  0  0
  -20.5400  -31.9331   21.3636 C   0  0  0  0  0  0  0  0  0  0  0  0
  -25.9914  -11.8757   20.2254 N   0  0  0  0  0  0  0  0  0  0  0  0
  -26.0777  -13.2168   20.2281 N   0  0  0  0  0  0  0  0  0  0  0  0
  -23.8810  -31.0621   20.3920 N   0  0  0  0  0  0  0  0  0  0  0  0
  -29.5594  -14.7749   20.4111 N   0  0  0  0  0  0  0  0  0  0  0  0
  -24.8663  -15.1864   20.7419 N   0  0  0  0  0  0  0  0  0  0  0  0
  -21.9614  -11.8814   21.7591 N   0  0  0  0  0  0  0  0  0  0  0  0
  -29.2806  -16.7053   21.7371 N   0  0  0  0  0  0  0  0  0  0  0  0
  -26.2503  -33.0307   22.1923 N   0  0  0  0  0  0  0  0  0  0  0  0
  -20.8319  -31.2749   18.9375 N   0  0  0  0  0  0  0  0  0  0  0  0
  -27.5981  -21.8166   24.0971 N   0  3  1  0  0  0  0  0  0  0  0  0
  -20.4267  -29.3974   15.8751 N   0  3  0  0  0  0  0  0  0  0  0  0
  -22.2454  -14.1560   21.6937 O   0  0  0  0  0  0  0  0  0  0  0  0
  -25.0234  -31.1407   22.7797 O   0  0  0  0  0  0  0  0  0  0  0  0
  -22.8607  -33.0849   19.8411 O   0  0  0  0  0  0  0  0  0  0  0  0
  -20.8174  -28.9767   18.6295 O   0  0  0  0  0  0  0  0  0  0  0  0
  -31.1079  -16.4891   20.3244 O   0  0  0  0  0  0  0  0  0  0  0  0
  -26.0467  -24.1458   23.6417 O   0  0  0  0  0  0  0  0  0  0  0  0
  -22.8911   -6.4111   21.2625 O   0  0  0  0  0  0  0  0  0  0  0  0
  -25.9837  -25.3088   21.1210 O   0  0  0  0  0  0  0  0  0  1  0  0
  -20.2499   -5.1362   25.9318 F   0  0  0  0  0  0  0  0  0  0  0  0
  -23.8466   -4.4296   22.9369 F   0  0  0  0  0  0  0  0  0  0  0  0
  -28.3834  -18.5600   23.4421 S   0  0  0  0  0  0  0  0  0  0  0  0
  1  2  1  0  0  0  0
  1  5  2  0  0  0  0
  2  6  2  0  0  0  0
  3  8  2  0  0  0  0
  3 17  1  0  0  0  0
  4  9  1  0  0  0  0
  4 17  2  0  0  0  0
  5 19  1  0  0  0  0
  6 21  1  0  0  0  0
  7 10  2  0  0  0  0
  7 20  1  0  0  0  0
  8 23  1  0  0  0  0
  9 23  2  0  0  0  0
 10 24  1  0  0  0  0
 11 12  2  0  0  0  0
 11 25  1  0  0  0  0
 12 26  1  0  0  0  0
 13 14  1  0  0  0  0
 13 29  2  0  0  0  0
 14 31  2  0  0  0  0
 15 22  1  0  0  0  0
 15 24  2  0  0  0  0
 16 26  2  0  0  0  0
 16 27  1  0  0  0  0
 17 28  1  0  0  0  0
 18 28  1  0  0  0  0
 18 30  2  0  0  0  0
 18 32  1  0  0  0  0
 19 21  2  0  0  0  0
 19 37  1  0  0  0  0
 20 22  2  0  0  0  0
 20 38  1  0  0  0  0
 21 49  1  0  0  0  0
 22 39  1  0  0  0  0
 23 80  1  0  0  0  0
 24 81  1  0  0  0  0
 25 27  2  0  0  0  0
 25 80  1  0  0  0  0
 26 82  1  0  0  0  0
 27 83  1  0  0  0  0
 28 63  2  0  0  0  0
 29 58  1  0  0  0  0
 29 84  1  0  0  0  0
 30 64  1  0  0  0  0
 30 67  1  0  0  0  0
 31 69  1  0  0  0  0
 31 84  1  0  0  0  0
 32 68  1  0  0  0  0
 32 74  2  0  0  0  0
 33 50  1  0  0  0  0
 33 70  1  0  0  0  0
 33 75  2  0  0  0  0
 34 60  1  0  0  0  0
 34 65  1  0  0  0  0
 34 76  2  0  0  0  0
 35 61  1  0  0  0  0
 35 71  1  0  0  0  0
 35 77  2  0  0  0  0
 36 66  1  0  0  0  0
 36 69  1  0  0  0  0
 36 78  2  0  0  0  0
 37 40  1  0  0  0  0
 38 50  1  0  0  0  0
 39 65  1  0  0  0  0
 40 42  1  0  0  0  0
 41 43  1  0  0  0  0
 41 44  1  0  0  0  0
 42 49  1  0  0  0  0
 43 51  1  0  0  0  0
 44 66  1  0  0  0  0
 45 51  1  0  0  0  0
 45 66  1  0  0  0  0
 46 48  1  0  0  0  0
 46 72  1  0  0  0  0
 47 52  1  0  0  0  0
 47 72  1  0  0  0  0
 48 79  1  0  0  0  0
 49 70  1  0  0  0  0
 50 65  1  0  0  0  0
 51 64  1  0  0  0  0
 52 59  1  0  0  0  0
 52 79  1  0  0  0  0
 53 61  1  0  0  0  0
 54 62  1  0  0  0  0
 55 62  1  0  0  0  0
 56 62  1  0  0  0  0
 57 73  1  0  0  0  0
 58 72  1  0  0  0  0
 59 81  1  0  0  0  0
 60 62  1  0  0  0  0
 60 71  1  0  0  0  0
 61 73  1  0  0  0  0
 63 64  1  0  0  0  0
M  CHG  2  72   1  73   1
M  ISO  4  36 100  59 101  69 100  81 101
M  END
> <Batch ID>
0104

> <Smiles>
CNC(C)C(=O)NC(C(=O)N1Cc2cc([101O:1][101CH2:1]C3CN(Cc4ccc([100NH:0][100C:0](=O)N5CCCC(n6nc(-c7ccc(Oc8ccc(F)cc8F)cc7)c(C(N)=O)c6N)C5)s4)CCO3)ccc2CC1C(=O)NC1CCCc2ccccc21)C(C)(C)C

> <Shape>
0.278

> <Color>
0.141

> <Negative vol penalty>
0.000

$$$$

  -OEChem-04052301083D

 87 95  0     1  0  0  0  0  0999 V2000
  -21.7402  -11.8082   21.7377 C   0  0  0  0  0  0  0  0  0  0  0  0
  -22.1350  -12.8040   22.6254 C   0  0  0  0  0  0  0  0  0  0  0  0
  -25.9171  -27.4124   20.7332 C   0  0  0  0  0  0  0  0  0  0  0  0
  -25.2753  -29.7235   20.4435 C   0  0  0  0  0  0  0  0  0  0  0  0
  -22.5930  -11.4172   20.7063 C   0  0  0  0  0  0  0  0  0  0  0  0
  -23.3834  -13.4087   22.4828 C   0  0  0  0  0  0  0  0  0  0  0  0
  -23.1684  -18.4455   22.9613 C   0  0  0  0  0  0  0  0  0  0  0  0
  -20.3161  -24.1509   24.1884 C   0  0  0  0  0  0  0  0  0  0  0  0
  -26.8665  -27.5490   19.7205 C   0  0  0  0  0  0  0  0  0  0  0  0
  -26.2247  -29.8602   19.4308 C   0  0  0  0  0  0  0  0  0  0  0  0
  -23.0754  -18.9588   24.2542 C   0  0  0  0  0  0  0  0  0  0  0  0
  -21.3071  -24.0353   25.1631 C   0  0  0  0  0  0  0  0  0  0  0  0
  -26.9127  -27.6051   16.3413 C   0  0  0  0  0  0  0  0  0  0  0  0
  -26.9882  -26.5935   15.3840 C   0  0  0  0  0  0  0  0  0  0  0  0
  -25.4406  -19.4326   24.2296 C   0  0  0  0  0  0  0  0  0  0  0  0
  -21.7807  -23.1067   22.5754 C   0  0  0  0  0  0  0  0  0  0  0  0
  -29.2854  -26.1768   16.0054 C   0  0  0  0  0  0  0  0  0  0  0  0
  -25.1215  -28.4996   21.0947 C   0  0  0  0  0  0  0  0  0  0  0  0
  -24.3271  -28.5836   23.5174 C   0  0  0  0  0  0  0  0  0  0  0  0
  -23.8485  -12.0242   20.5451 C   0  0  0  0  0  0  0  0  0  0  0  0
  -24.4023  -18.4118   22.2959 C   0  0  0  0  0  0  0  0  0  0  0  0
  -24.2544  -13.0245   21.4490 C   0  0  0  0  0  0  0  0  0  0  0  0
  -25.5461  -18.9207   22.9274 C   0  0  0  0  0  0  0  0  0  0  0  0
  -20.5529  -23.6865   22.8945 C   0  0  0  0  0  0  0  0  0  0  0  0
  -22.7718  -22.9911   23.5501 C   0  0  0  0  0  0  0  0  0  0  0  0
  -27.0203  -28.7729   19.0693 C   0  0  0  0  0  0  0  0  0  0  0  0
  -24.2122  -19.4498   24.8897 C   0  0  0  0  0  0  0  0  0  0  0  0
  -22.5350  -23.4554   24.8440 C   0  0  0  0  0  0  0  0  0  0  0  0
  -28.0236  -27.9026   17.1307 C   0  0  0  0  0  0  0  0  0  0  0  0
  -28.1745  -25.8793   15.2160 C   0  0  0  0  0  0  0  0  0  0  0  0
  -29.2099  -27.1885   16.9628 C   0  0  0  0  0  0  0  0  0  0  0  0
  -24.1402  -28.3589   22.1403 C   0  0  0  0  0  0  0  0  0  0  0  0
  -23.1026  -28.3148   24.0785 C   0  0  0  0  0  0  0  0  0  0  0  0
  -25.5025  -28.9984   24.2260 C   0  0  0  0  0  0  0  0  0  0  0  0
  -26.2612  -16.1108   21.1325 C   0  0  0  0  0  0  0  0  0  0  0  0
  -18.3230  -21.7379   21.6733 C   0  0  0  0  0  0  0  0  0  0  0  0
  -27.9842  -18.6135   19.9965 C   0  0  0  0  0  0  0  0  0  0  0  0
  -28.8381  -21.9061   20.2726 C   0  0  0  0  0  0  0  0  0  0  0  0
  -18.5702  -24.8381   21.8776 C   0  0  0  0  0  0  0  0  0  0  0  0
  -24.7553  -11.5350   19.4437 C   0  0  0  0  0  0  0  0  0  0  0  0
  -24.4808  -17.8793   20.8913 C   0  0  0  0  0  0  0  0  0  0  0  0
  -26.8906  -18.9259   22.2486 C   0  0  0  0  0  0  0  0  0  0  0  0
  -25.9077  -12.4875   19.1354 C   0  0  0  0  0  0  0  0  0  0  0  0
  -18.4241  -28.3281   23.0990 C   0  0  0  0  0  0  0  0  0  0  0  0
  -26.5766  -12.9512   20.4255 C   0  0  0  0  0  0  0  0  0  0  0  0
  -19.8833  -28.7742   23.0266 C   0  0  0  0  0  0  0  0  0  0  0  0
  -18.1056  -27.2615   22.0557 C   0  0  0  0  0  0  0  0  0  0  0  0
  -20.4697  -26.5182   22.0531 C   0  0  0  0  0  0  0  0  0  0  0  0
  -25.5906  -13.7215   21.3122 C   0  0  1  0  0  0  0  0  0  0  0  0
  -25.8835  -17.4219   20.5033 C   0  0  1  0  0  0  0  0  0  0  0  0
  -20.8261  -27.5632   23.1209 C   0  0  1  0  0  0  0  0  0  0  0  0
  -18.5189  -20.2619   21.4404 C   0  0  0  0  0  0  0  0  0  0  0  0
  -18.7875  -23.1105   19.6377 C   0  0  0  0  0  0  0  0  0  0  0  0
  -29.9048  -24.0940   19.6623 C   0  0  0  0  0  0  0  0  0  0  0  0
  -30.4262  -17.3867   21.3536 C   0  0  0  0  0  0  0  0  0  0  0  0
  -31.5888  -19.5891   21.0964 C   0  0  0  0  0  0  0  0  0  0  0  0
  -30.8590  -18.3224   19.0751 C   0  0  0  0  0  0  0  0  0  0  0  0
  -26.5211  -22.7057   18.6138 C   0  0  0  0  0  0  0  0  0  0  0  0
  -24.4066  -21.9167   27.5221 C   0  0  0  0  0  0  0  0  0  0  0  0
  -25.0451  -20.9817   26.5070 C   0  0  0  0  0  0  0  0  0  1  0  0
  -23.1610  -22.5915   26.9694 C   0  0  0  0  0  0  0  0  0  0  0  0
  -19.3116  -22.6705   20.9926 C   0  0  1  0  0  0  0  0  0  0  0  0
  -29.1223  -19.4543   20.5224 C   0  0  1  0  0  0  0  0  0  0  0  0
  -28.9192  -23.0157   19.2398 C   0  0  2  0  0  0  0  0  0  0  0  0
  -30.4742  -18.6864   20.5257 C   0  0  0  0  0  0  0  0  0  0  0  0
  -22.8950  -27.9766   21.8447 N   0  0  0  0  0  0  0  0  0  0  0  0
  -22.2885  -27.9589   23.0438 N   0  0  0  0  0  0  0  0  0  0  0  0
  -26.9172  -18.3889   20.8780 N   0  0  0  0  0  0  0  0  0  0  0  0
  -19.0477  -26.1429   22.1178 N   0  0  0  0  0  0  0  0  0  0  0  0
  -24.0100  -22.4020   23.2135 N   0  0  0  0  0  0  0  0  0  0  0  0
  -22.6537  -28.3505   25.3512 N   0  0  0  0  0  0  0  0  0  0  0  0
  -26.6756  -29.2318   23.4955 N   0  0  0  0  0  0  0  0  0  0  0  0
  -25.4107  -15.0689   20.8156 N   0  0  0  0  0  0  0  0  0  0  0  0
  -29.1306  -20.6753   19.7240 N   0  0  0  0  0  0  0  0  0  0  0  0
  -19.5272  -23.8055   21.8872 N   0  0  0  0  0  0  0  0  0  0  0  0
  -27.5827  -23.6478   19.0525 N   0  3  0  0  0  0  0  0  0  0  0  0
  -25.5166  -29.1415   25.4722 O   0  0  0  0  0  0  0  0  0  0  0  0
  -27.2519  -16.0487   21.8511 O   0  0  0  0  0  0  0  0  0  0  0  0
  -17.3792  -22.1526   22.3465 O   0  0  0  0  0  0  0  0  0  0  0  0
  -28.0365  -18.1780   18.8436 O   0  0  0  0  0  0  0  0  0  0  0  0
  -28.5481  -22.1112   21.4492 O   0  0  0  0  0  0  0  0  0  0  0  0
  -17.3818  -24.6139   21.6170 O   0  0  0  0  0  0  0  0  0  0  0  0
  -27.9468  -28.9067   18.0813 O   0  0  0  0  0  0  0  0  0  0  0  0
  -24.1244  -19.9509   26.1519 O   0  0  0  0  0  0  0  0  0  1  0  0
  -23.4956  -23.3515   25.8161 O   0  0  0  0  0  0  0  0  0  0  0  0
  -28.2464  -24.9068   14.2977 F   0  0  0  0  0  0  0  0  0  0  0  0
  -30.2801  -27.4690   17.7190 F   0  0  0  0  0  0  0  0  0  0  0  0
  1  2  1  0  0  0  0
  1  5  2  0  0  0  0
  2  6  2  0  0  0  0
  3  9  2  0  0  0  0
  3 18  1  0  0  0  0
  4 10  1  0  0  0  0
  4 18  2  0  0  0  0
  5 20  1  0  0  0  0
  6 22  1  0  0  0  0
  7 11  2  0  0  0  0
  7 21  1  0  0  0  0
  8 12  2  0  0  0  0
  8 24  1  0  0  0  0
  9 26  1  0  0  0  0
 10 26  2  0  0  0  0
 11 27  1  0  0  0  0
 12 28  1  0  0  0  0
 13 14  2  0  0  0  0
 13 29  1  0  0  0  0
 14 30  1  0  0  0  0
 15 23  1  0  0  0  0
 15 27  2  0  0  0  0
 16 24  2  0  0  0  0
 16 25  1  0  0  0  0
 17 30  2  0  0  0  0
 17 31  1  0  0  0  0
 18 32  1  0  0  0  0
 19 32  1  0  0  0  0
 19 33  2  0  0  0  0
 19 34  1  0  0  0  0
 20 22  2  0  0  0  0
 20 40  1  0  0  0  0
 21 23  2  0  0  0  0
 21 41  1  0  0  0  0
 22 49  1  0  0  0  0
 23 42  1  0  0  0  0
 24 75  1  0  0  0  0
 25 28  2  0  0  0  0
 25 70  1  0  0  0  0
 26 83  1  0  0  0  0
 27 84  1  0  0  0  0
 28 85  1  0  0  0  0
 29 31  2  0  0  0  0
 29 83  1  0  0  0  0
 30 86  1  0  0  0  0
 31 87  1  0  0  0  0
 32 66  2  0  0  0  0
 33 67  1  0  0  0  0
 33 71  1  0  0  0  0
 34 72  1  0  0  0  0
 34 77  2  0  0  0  0
 35 50  1  0  0  0  0
 35 73  1  0  0  0  0
 35 78  2  0  0  0  0
 36 52  1  0  0  0  0
 36 62  1  0  0  0  0
 36 79  2  0  0  0  0
 37 63  1  0  0  0  0
 37 68  1  0  0  0  0
 37 80  2  0  0  0  0
 38 64  1  0  0  0  0
 38 74  1  0  0  0  0
 38 81  2  0  0  0  0
 39 69  1  0  0  0  0
 39 75  1  0  0  0  0
 39 82  2  0  0  0  0
 40 43  1  0  0  0  0
 41 50  1  0  0  0  0
 42 68  1  0  0  0  0
 43 45  1  0  0  0  0
 44 46  1  0  0  0  0
 44 47  1  0  0  0  0
 45 49  1  0  0  0  0
 46 51  1  0  0  0  0
 47 69  1  0  0  0  0
 48 51  1  0  0  0  0
 48 69  1  0  0  0  0
 49 73  1  0  0  0  0
 50 68  1  0  0  0  0
 51 67  1  0  0  0  0
 53 62  1  0  0  0  0
 54 64  1  0  0  0  0
 55 65  1  0  0  0  0
 56 65  1  0  0  0  0
 57 65  1  0  0  0  0
 58 76  1  0  0  0  0
 59 60  1  0  0  0  0
 59 61  1  0  0  0  0
 60 84  1  0  0  0  0
 61 85  1  0  0  0  0
 62 75  1  0  0  0  0
 63 65  1  0  0  0  0
 63 74  1  0  0  0  0
 64 76  1  0  0  0  0
 66 67  1  0  0  0  0
M  CHG  1  76   1
M  ISO  4  39 100  60 101  75 100  84 101
M  END
> <Batch ID>
0104

> <Smiles>
CNC(C)C(=O)NC(C(=O)N1Cc2cc([101O:1][101CH2:1]CCOc3ccc([100N:0](C(C)C(C)=O)[100C:0](=O)N4CCCC(n5nc(-c6ccc(Oc7ccc(F)cc7F)cc6)c(C(N)=O)c5N)C4)cc3N)ccc2CC1C(=O)NC1CCCc2ccccc21)C(C)(C)C

> <Shape>
0.213

> <Color>
0.068

> <Negative vol penalty>
0.000

$$$$

  -OEChem-04052301083D

 87 96  0     1  0  0  0  0  0999 V2000
  -16.9635  -28.4840   19.8313 C   0  0  0  0  0  0  0  0  0  0  0  0
  -18.2365  -28.2277   19.3319 C   0  0  0  0  0  0  0  0  0  0  0  0
  -25.9666  -12.0352   18.6846 C   0  0  0  0  0  0  0  0  0  0  0  0
  -26.3189  -11.6382   21.0416 C   0  0  0  0  0  0  0  0  0  0  0  0
  -16.7971  -29.3817   20.8851 C   0  0  0  0  0  0  0  0  0  0  0  0
  -19.3436  -28.8699   19.8853 C   0  0  0  0  0  0  0  0  0  0  0  0
  -30.7982  -22.2184   18.7519 C   0  0  0  0  0  0  0  0  0  0  0  0
  -23.2255  -25.7151   20.6748 C   0  0  0  0  0  0  0  0  0  0  0  0
  -30.8077  -21.0386   19.4958 C   0  0  0  0  0  0  0  0  0  0  0  0
  -24.6596  -11.5619   18.8002 C   0  0  0  0  0  0  0  0  0  0  0  0
  -25.0118  -11.1649   21.1572 C   0  0  0  0  0  0  0  0  0  0  0  0
  -23.9938  -25.3611   19.5666 C   0  0  0  0  0  0  0  0  0  0  0  0
  -23.3237   -8.3170   20.4715 C   0  0  0  0  0  0  0  0  0  0  0  0
  -23.1213   -7.1437   21.1981 C   0  0  0  0  0  0  0  0  0  0  0  0
  -25.6602  -26.9816   20.2117 C   0  0  0  0  0  0  0  0  0  0  0  0
  -29.3542  -21.1771   17.1187 C   0  0  0  0  0  0  0  0  0  0  0  0
  -21.6821   -8.3389   22.7270 C   0  0  0  0  0  0  0  0  0  0  0  0
  -26.7962  -12.0733   19.8053 C   0  0  0  0  0  0  0  0  0  0  0  0
  -29.1699  -12.0417   18.8714 C   0  0  0  0  0  0  0  0  0  0  0  0
  -30.0714  -22.2877   17.5633 C   0  0  0  0  0  0  0  0  0  0  0  0
  -17.9038  -30.0279   21.4580 C   0  0  0  0  0  0  0  0  0  0  0  0
  -23.6644  -26.7144   21.5553 C   0  0  0  0  0  0  0  0  0  0  0  0
  -19.1917  -29.7781   20.9468 C   0  0  0  0  0  0  0  0  0  0  0  0
  -24.8969  -27.3447   21.3318 C   0  0  0  0  0  0  0  0  0  0  0  0
  -30.0904  -19.9279   19.0512 C   0  0  0  0  0  0  0  0  0  0  0  0
  -24.1822  -11.1268   20.0365 C   0  0  0  0  0  0  0  0  0  0  0  0
  -25.2100  -25.9964   19.3333 C   0  0  0  0  0  0  0  0  0  0  0  0
  -22.7055   -9.5013   20.8727 C   0  0  0  0  0  0  0  0  0  0  0  0
  -22.3005   -7.1546   22.3259 C   0  0  0  0  0  0  0  0  0  0  0  0
  -29.3637  -19.9972   17.8626 C   0  0  0  0  0  0  0  0  0  0  0  0
  -21.8846   -9.5122   22.0004 C   0  0  0  0  0  0  0  0  0  0  0  0
  -28.1466  -12.5616   19.6864 C   0  0  0  0  0  0  0  0  0  0  0  0
  -30.2508  -12.8525   19.1181 C   0  0  0  0  0  0  0  0  0  0  0  0
  -29.1456  -10.9256   17.9716 C   0  0  0  0  0  0  0  0  0  0  0  0
  -22.5557  -29.5531   22.4588 C   0  0  0  0  0  0  0  0  0  0  0  0
  -28.0093  -24.7401   17.4940 C   0  0  0  0  0  0  0  0  0  0  0  0
  -25.0453  -29.4301   24.5345 C   0  0  0  0  0  0  0  0  0  0  0  0
  -28.5029  -28.4033   24.4418 C   0  0  0  0  0  0  0  0  0  0  0  0
  -30.7726  -18.4967   21.0089 C   0  0  0  0  0  0  0  0  0  0  0  0
  -17.6692  -31.0259   22.5643 C   0  0  0  0  0  0  0  0  0  0  0  0
  -22.8366  -27.0660   22.7609 C   0  0  0  0  0  0  0  0  0  0  0  0
  -25.4225  -28.4096   22.2582 C   0  0  0  0  0  0  0  0  0  0  0  0
  -18.9336  -31.3811   23.3424 C   0  0  0  0  0  0  0  0  0  0  0  0
  -32.3151  -24.7778   17.0547 C   0  0  0  0  0  0  0  0  0  0  0  0
  -31.5500  -26.0005   17.5302 C   0  0  0  0  0  0  0  0  0  0  0  0
  -32.1668  -15.6005   22.5403 C   0  0  0  0  0  0  0  0  0  0  0  0
  -31.4372  -23.9240   16.1517 C   0  0  0  0  0  0  0  0  0  0  0  0
  -20.0861  -31.6692   22.3855 C   0  0  0  0  0  0  0  0  0  0  0  0
  -31.3914  -14.4449   21.9036 C   0  0  0  0  0  0  0  0  0  0  0  0
  -30.2595  -25.6186   18.2416 C   0  0  0  0  0  0  0  0  0  0  0  0
  -31.2772  -16.8205   22.7726 C   0  0  0  0  0  0  0  0  0  0  0  0
  -29.7657  -16.1306   20.9537 C   0  0  0  0  0  0  0  0  0  0  0  0
  -30.0618  -23.5773   16.7491 C   0  0  2  0  0  0  0  0  0  0  0  0
  -20.4200  -30.4362   21.5370 C   0  0  1  0  0  0  0  0  0  0  0  0
  -23.1378  -28.4581   23.3072 C   0  0  1  0  0  0  0  0  0  0  0  0
  -30.6351  -14.9018   20.6407 C   0  0  2  0  0  0  0  0  0  0  0  0
  -30.0061  -27.5676   26.2692 C   0  0  0  0  0  0  0  0  0  0  0  0
  -25.8919  -32.3514   24.7778 C   0  0  0  0  0  0  0  0  0  0  0  0
  -28.2344  -31.5663   25.1834 C   0  0  0  0  0  0  0  0  0  0  0  0
  -26.4185  -30.9428   26.7760 C   0  0  0  0  0  0  0  0  0  0  0  0
  -29.1472  -25.9349   22.9416 C   0  0  0  0  0  0  0  0  0  0  0  0
  -27.3768  -25.7885   18.3753 C   0  0  0  0  0  0  0  0  0  1  0  0
  -26.4929  -29.8565   24.4943 C   0  0  1  0  0  0  0  0  0  0  0  0
  -29.1054  -27.1790   25.1070 C   0  0  2  0  0  0  0  0  0  0  0  0
  -26.7455  -31.1716   25.2842 C   0  0  0  0  0  0  0  0  0  0  0  0
  -28.5420  -13.6206   20.3978 N   0  0  0  0  0  0  0  0  0  0  0  0
  -29.8258  -13.7727   20.0306 N   0  0  0  0  0  0  0  0  0  0  0  0
  -24.5736  -28.7227   23.4196 N   0  0  0  0  0  0  0  0  0  0  0  0
  -29.4125  -24.6999   17.4643 N   0  0  0  0  0  0  0  0  0  0  0  0
  -30.5962  -17.1983   21.5323 N   0  0  0  0  0  0  0  0  0  0  0  0
  -31.5137  -12.8608   18.6414 N   0  0  0  0  0  0  0  0  0  0  0  0
  -27.9533  -10.2012   17.8377 N   0  0  0  0  0  0  0  0  0  0  0  0
  -30.1023  -18.7305   19.8086 N   0  0  0  0  0  0  0  0  0  0  0  0
  -21.1836  -29.4815   22.3114 N   0  0  0  0  0  0  0  0  0  0  0  0
  -27.2679  -28.7156   24.9697 N   0  0  0  0  0  0  0  0  0  0  0  0
  -29.9136  -26.4013   24.1257 N   0  3  0  0  0  0  0  0  0  0  0  0
  -30.1561  -10.5710   17.3184 O   0  0  0  0  0  0  0  0  0  0  0  0
  -23.2963  -30.4010   21.9749 O   0  0  0  0  0  0  0  0  0  0  0  0
  -27.2819  -23.9790   16.8500 O   0  0  0  0  0  0  0  0  0  0  0  0
  -24.3603  -29.7079   25.5220 O   0  0  0  0  0  0  0  0  0  0  0  0
  -29.0725  -29.0230   23.5463 O   0  0  0  0  0  0  0  0  0  0  0  0
  -31.4889  -19.3304   21.5690 O   0  0  0  0  0  0  0  0  0  0  0  0
  -22.9068  -10.6651   20.1498 O   0  0  0  0  0  0  0  0  0  0  0  0
  -25.9616  -25.6532   18.2520 O   0  0  0  0  0  0  0  0  0  1  0  0
  -22.1049   -6.0275   23.0226 F   0  0  0  0  0  0  0  0  0  0  0  0
  -28.6719  -18.9354   17.4249 F   0  0  0  0  0  0  0  0  0  0  0  0
  -21.2870  -10.6466   22.3900 F   0  0  0  0  0  0  0  0  0  0  0  0
  1  2  1  0  0  0  0
  1  5  2  0  0  0  0
  2  6  2  0  0  0  0
  3 10  2  0  0  0  0
  3 18  1  0  0  0  0
  4 11  1  0  0  0  0
  4 18  2  0  0  0  0
  5 21  1  0  0  0  0
  6 23  1  0  0  0  0
  7  9  2  0  0  0  0
  7 20  1  0  0  0  0
  8 12  2  0  0  0  0
  8 22  1  0  0  0  0
  9 25  1  0  0  0  0
 10 26  1  0  0  0  0
 11 26  2  0  0  0  0
 12 27  1  0  0  0  0
 13 14  2  0  0  0  0
 13 28  1  0  0  0  0
 14 29  1  0  0  0  0
 15 24  1  0  0  0  0
 15 27  2  0  0  0  0
 16 20  2  0  0  0  0
 16 30  1  0  0  0  0
 17 29  2  0  0  0  0
 17 31  1  0  0  0  0
 18 32  1  0  0  0  0
 19 32  1  0  0  0  0
 19 33  2  0  0  0  0
 19 34  1  0  0  0  0
 20 53  1  0  0  0  0
 21 23  2  0  0  0  0
 21 40  1  0  0  0  0
 22 24  2  0  0  0  0
 22 41  1  0  0  0  0
 23 54  1  0  0  0  0
 24 42  1  0  0  0  0
 25 30  2  0  0  0  0
 25 73  1  0  0  0  0
 26 83  1  0  0  0  0
 27 84  1  0  0  0  0
 28 31  2  0  0  0  0
 28 83  1  0  0  0  0
 29 85  1  0  0  0  0
 30 86  1  0  0  0  0
 31 87  1  0  0  0  0
 32 66  2  0  0  0  0
 33 67  1  0  0  0  0
 33 71  1  0  0  0  0
 34 72  1  0  0  0  0
 34 77  2  0  0  0  0
 35 55  1  0  0  0  0
 35 74  1  0  0  0  0
 35 78  2  0  0  0  0
 36 62  1  0  0  0  0
 36 69  1  0  0  0  0
 36 79  2  0  0  0  0
 37 63  1  0  0  0  0
 37 68  1  0  0  0  0
 37 80  2  0  0  0  0
 38 64  1  0  0  0  0
 38 75  1  0  0  0  0
 38 81  2  0  0  0  0
 39 70  1  0  0  0  0
 39 73  1  0  0  0  0
 39 82  2  0  0  0  0
 40 43  1  0  0  0  0
 41 55  1  0  0  0  0
 42 68  1  0  0  0  0
 43 48  1  0  0  0  0
 44 45  1  0  0  0  0
 44 47  1  0  0  0  0
 45 50  1  0  0  0  0
 46 49  1  0  0  0  0
 46 51  1  0  0  0  0
 47 53  1  0  0  0  0
 48 54  1  0  0  0  0
 49 56  1  0  0  0  0
 50 69  1  0  0  0  0
 51 70  1  0  0  0  0
 52 56  1  0  0  0  0
 52 70  1  0  0  0  0
 53 69  1  0  0  0  0
 54 74  1  0  0  0  0
 55 68  1  0  0  0  0
 56 67  1  0  0  0  0
 57 64  1  0  0  0  0
 58 65  1  0  0  0  0
 59 65  1  0  0  0  0
 60 65  1  0  0  0  0
 61 76  1  0  0  0  0
 62 84  1  0  0  0  0
 63 65  1  0  0  0  0
 63 75  1  0  0  0  0
 64 76  1  0  0  0  0
 66 67  1  0  0  0  0
M  CHG  1  76   1
M  ISO  4  39 100  62 101  73 100  84 101
M  END
> <Batch ID>
0104

> <Smiles>
CNC(C)C(=O)NC(C(=O)N1Cc2cc([101O:1][101CH2:1]C(=O)N3CCCCC3c3ccc([100NH:0][100C:0](=O)N4CCCC(n5nc(-c6ccc(Oc7ccc(F)cc7F)cc6)c(C(N)=O)c5N)C4)c(F)c3)ccc2CC1C(=O)NC1CCCc2ccccc21)C(C)(C)C

> <Shape>
0.295

> <Color>
0.062

> <Negative vol penalty>
0.000

$$$$

  -OEChem-04052301083D

 86 95  0     1  0  0  0  0  0999 V2000
  -25.8321  -19.2619   27.4161 C   0  0  0  0  0  0  0  0  0  0  0  0
  -25.9695  -20.5987   27.0561 C   0  0  0  0  0  0  0  0  0  0  0  0
  -25.6647  -15.4236   21.6221 C   0  0  0  0  0  0  0  0  0  0  0  0
  -25.1538  -16.1861   19.3872 C   0  0  0  0  0  0  0  0  0  0  0  0
  -24.9577  -18.4373   26.7097 C   0  0  0  0  0  0  0  0  0  0  0  0
  -25.2333  -21.1113   25.9886 C   0  0  0  0  0  0  0  0  0  0  0  0
  -22.9268  -26.7621   25.4839 C   0  0  0  0  0  0  0  0  0  0  0  0
  -27.0632  -26.9766   19.6263 C   0  0  0  0  0  0  0  0  0  0  0  0
  -26.2442  -28.0167   20.0657 C   0  0  0  0  0  0  0  0  0  0  0  0
  -24.4436  -14.7512   21.6719 C   0  0  0  0  0  0  0  0  0  0  0  0
  -23.9327  -15.5136   19.4369 C   0  0  0  0  0  0  0  0  0  0  0  0
  -23.3782  -27.9039   24.8235 C   0  0  0  0  0  0  0  0  0  0  0  0
  -23.1429  -11.8592   20.4982 C   0  0  0  0  0  0  0  0  0  0  0  0
  -23.1401  -10.5566   20.9969 C   0  0  0  0  0  0  0  0  0  0  0  0
  -21.9766  -27.3596   22.9371 C   0  0  0  0  0  0  0  0  0  0  0  0
  -27.8440  -28.5449   21.7973 C   0  0  0  0  0  0  0  0  0  0  0  0
  -21.6171  -11.2301   22.7474 C   0  0  0  0  0  0  0  0  0  0  0  0
  -26.0197  -16.1411   20.4798 C   0  0  0  0  0  0  0  0  0  0  0  0
  -28.5128  -16.3296   19.9733 C   0  0  0  0  0  0  0  0  0  0  0  0
  -24.2031  -18.9424   25.6391 C   0  0  0  0  0  0  0  0  0  0  0  0
  -22.0035  -25.9032   24.8704 C   0  0  0  0  0  0  0  0  0  0  0  0
  -24.3489  -20.2923   25.2663 C   0  0  0  0  0  0  0  0  0  0  0  0
  -21.5131  -26.2089   23.5929 C   0  0  0  0  0  0  0  0  0  0  0  0
  -28.2726  -26.7206   20.2725 C   0  0  0  0  0  0  0  0  0  0  0  0
  -28.6630  -27.5047   21.3580 C   0  0  0  0  0  0  0  0  0  0  0  0
  -26.6346  -28.8009   21.1512 C   0  0  0  0  0  0  0  0  0  0  0  0
  -23.5777  -14.7962   20.5793 C   0  0  0  0  0  0  0  0  0  0  0  0
  -22.9053  -28.2013   23.5487 C   0  0  0  0  0  0  0  0  0  0  0  0
  -22.3829  -12.8473   21.1242 C   0  0  0  0  0  0  0  0  0  0  0  0
  -22.3772  -10.2420   22.1215 C   0  0  0  0  0  0  0  0  0  0  0  0
  -21.6200  -12.5327   22.2487 C   0  0  0  0  0  0  0  0  0  0  0  0
  -27.2807  -16.8364   20.4280 C   0  0  0  0  0  0  0  0  0  0  0  0
  -29.3916  -17.3738   20.1277 C   0  0  0  0  0  0  0  0  0  0  0  0
  -26.0603  -30.7404   22.6800 C   0  0  0  0  0  0  0  0  0  0  0  0
  -28.8343  -15.0311   19.4573 C   0  0  0  0  0  0  0  0  0  0  0  0
  -22.0358  -22.8589   23.9567 C   0  0  0  0  0  0  0  0  0  0  0  0
  -18.9066  -23.4237   23.3152 C   0  0  0  0  0  0  0  0  0  0  0  0
  -16.4624  -25.6902   22.5834 C   0  0  0  0  0  0  0  0  0  0  0  0
  -28.5770  -23.2206   20.2116 C   0  0  0  0  0  0  0  0  0  0  0  0
  -23.3060  -18.0009   24.8752 C   0  0  0  0  0  0  0  0  0  0  0  0
  -21.5062  -24.6897   25.6070 C   0  0  0  0  0  0  0  0  0  0  0  0
  -20.5059  -25.3301   22.8989 C   0  0  0  0  0  0  0  0  0  0  0  0
  -24.9112  -31.7164   22.7710 C   0  0  0  0  0  0  0  0  0  0  0  0
  -22.2830  -18.7141   23.9949 C   0  0  0  0  0  0  0  0  0  0  0  0
  -24.2605  -31.6245   21.4037 C   0  0  0  0  0  0  0  0  0  0  0  0
  -30.1533  -21.2611   22.8141 C   0  0  0  0  0  0  0  0  0  0  0  0
  -22.9504  -19.8306   23.1982 C   0  0  0  0  0  0  0  0  0  0  0  0
  -29.7043  -19.8464   22.4438 C   0  0  0  0  0  0  0  0  0  0  0  0
  -29.0464  -22.2784   22.5535 C   0  0  0  0  0  0  0  0  0  0  0  0
  -28.0738  -20.8628   20.7860 C   0  0  0  0  0  0  0  0  0  0  0  0
  -23.5490  -20.8914   24.1299 C   0  0  1  0  0  0  0  0  0  0  0  0
  -20.9546  -23.6118   24.6790 C   0  0  1  0  0  0  0  0  0  0  0  0
  -29.1567  -19.7908   21.0053 C   0  0  2  0  0  0  0  0  0  0  0  0
  -24.5105  -30.1813   20.9803 C   0  0  2  0  0  0  0  0  0  0  0  0
  -29.9543  -27.2504   22.0638 C   0  0  0  0  0  0  0  0  0  0  0  0
  -14.0097  -25.8476   22.0765 C   0  0  0  0  0  0  0  0  0  0  0  0
  -19.4243  -22.3752   20.4969 C   0  0  0  0  0  0  0  0  0  0  0  0
  -17.2642  -23.4222   19.7857 C   0  0  0  0  0  0  0  0  0  0  0  0
  -17.2664  -21.6203   21.5108 C   0  0  0  0  0  0  0  0  0  0  0  0
  -15.9640  -27.3942   24.9513 C   0  0  0  0  0  0  0  0  0  0  0  0
  -29.1322  -25.6010   19.7844 C   0  0  0  0  0  0  0  0  0  0  0  0
  -23.3926  -29.2615   21.4764 C   0  0  0  0  0  0  0  0  0  1  0  0
  -18.1332  -23.9169   22.1162 C   0  0  1  0  0  0  0  0  0  0  0  0
  -15.0740  -25.8963   23.1617 C   0  0  2  0  0  0  0  0  0  0  0  0
  -18.0425  -22.8494   20.9894 C   0  0  0  0  0  0  0  0  0  0  0  0
  -27.3652  -18.1039   20.8406 N   0  0  0  0  0  0  0  0  0  0  0  0
  -28.6609  -18.4024   20.6458 N   0  0  0  0  0  0  0  0  0  0  0  0
  -25.7951  -29.8701   21.6013 N   0  0  0  0  0  0  0  0  0  0  0  0
  -20.0549  -24.1517   23.6576 N   0  0  0  0  0  0  0  0  0  0  0  0
  -28.5824  -22.1862   21.1620 N   0  0  0  0  0  0  0  0  0  0  0  0
  -30.7103  -17.5033   19.8697 N   0  0  0  0  0  0  0  0  0  0  0  0
  -27.8121  -14.0766   19.3661 N   0  0  0  0  0  0  0  0  0  0  0  0
  -22.5095  -21.7574   24.6436 N   0  0  0  0  0  0  0  0  0  0  0  0
  -16.8396  -24.3644   22.6209 N   0  0  0  0  0  0  0  0  0  0  0  0
  -29.0688  -24.4441   20.6496 N   0  0  0  0  0  0  0  0  0  0  0  0
  -14.9884  -27.2179   23.8449 N   0  3  0  0  0  0  0  0  0  0  0  0
  -26.9953  -30.7612   23.4673 O   0  0  0  0  0  0  0  0  0  0  0  0
  -29.9971  -14.7211   19.1033 O   0  0  0  0  0  0  0  0  0  0  0  0
  -22.4114  -23.2476   22.8569 O   0  0  0  0  0  0  0  0  0  0  0  0
  -18.5028  -22.4333   23.9297 O   0  0  0  0  0  0  0  0  0  0  0  0
  -17.1426  -26.6124   22.1393 O   0  0  0  0  0  0  0  0  0  0  0  0
  -28.1690  -23.0641   19.0557 O   0  0  0  0  0  0  0  0  0  0  0  0
  -22.3862  -14.1399   20.6274 O   0  0  0  0  0  0  0  0  0  0  0  0
  -23.3448  -29.3149   22.9016 O   0  0  0  0  0  0  0  0  0  1  0  0
  -22.3733   -8.9906   22.5993 F   0  0  0  0  0  0  0  0  0  0  0  0
  -20.8870  -13.4775   22.8536 F   0  0  0  0  0  0  0  0  0  0  0  0
  1  2  1  0  0  0  0
  1  5  2  0  0  0  0
  2  6  2  0  0  0  0
  3 10  2  0  0  0  0
  3 18  1  0  0  0  0
  4 11  1  0  0  0  0
  4 18  2  0  0  0  0
  5 20  1  0  0  0  0
  6 22  1  0  0  0  0
  7 12  2  0  0  0  0
  7 21  1  0  0  0  0
  8  9  2  0  0  0  0
  8 24  1  0  0  0  0
  9 26  1  0  0  0  0
 10 27  1  0  0  0  0
 11 27  2  0  0  0  0
 12 28  1  0  0  0  0
 13 14  2  0  0  0  0
 13 29  1  0  0  0  0
 14 30  1  0  0  0  0
 15 23  1  0  0  0  0
 15 28  2  0  0  0  0
 16 25  1  0  0  0  0
 16 26  2  0  0  0  0
 17 30  2  0  0  0  0
 17 31  1  0  0  0  0
 18 32  1  0  0  0  0
 19 32  1  0  0  0  0
 19 33  2  0  0  0  0
 19 35  1  0  0  0  0
 20 22  2  0  0  0  0
 20 40  1  0  0  0  0
 21 23  2  0  0  0  0
 21 41  1  0  0  0  0
 22 51  1  0  0  0  0
 23 42  1  0  0  0  0
 24 25  2  0  0  0  0
 24 61  1  0  0  0  0
 25 55  1  0  0  0  0
 26 68  1  0  0  0  0
 27 83  1  0  0  0  0
 28 84  1  0  0  0  0
 29 31  2  0  0  0  0
 29 83  1  0  0  0  0
 30 85  1  0  0  0  0
 31 86  1  0  0  0  0
 32 66  2  0  0  0  0
 33 67  1  0  0  0  0
 33 71  1  0  0  0  0
 34 43  1  0  0  0  0
 34 68  1  0  0  0  0
 34 77  2  0  0  0  0
 35 72  1  0  0  0  0
 35 78  2  0  0  0  0
 36 52  1  0  0  0  0
 36 73  1  0  0  0  0
 36 79  2  0  0  0  0
 37 63  1  0  0  0  0
 37 69  1  0  0  0  0
 37 80  2  0  0  0  0
 38 64  1  0  0  0  0
 38 74  1  0  0  0  0
 38 81  2  0  0  0  0
 39 70  1  0  0  0  0
 39 75  1  0  0  0  0
 39 82  2  0  0  0  0
 40 44  1  0  0  0  0
 41 52  1  0  0  0  0
 42 69  1  0  0  0  0
 43 45  1  0  0  0  0
 44 47  1  0  0  0  0
 45 54  1  0  0  0  0
 46 48  1  0  0  0  0
 46 49  1  0  0  0  0
 47 51  1  0  0  0  0
 48 53  1  0  0  0  0
 49 70  1  0  0  0  0
 50 53  1  0  0  0  0
 50 70  1  0  0  0  0
 51 73  1  0  0  0  0
 52 69  1  0  0  0  0
 53 67  1  0  0  0  0
 54 62  1  0  0  0  0
 54 68  1  0  0  0  0
 56 64  1  0  0  0  0
 57 65  1  0  0  0  0
 58 65  1  0  0  0  0
 59 65  1  0  0  0  0
 60 76  1  0  0  0  0
 61 75  1  0  0  0  0
 62 84  1  0  0  0  0
 63 65  1  0  0  0  0
 63 74  1  0  0  0  0
 64 76  1  0  0  0  0
 66 67  1  0  0  0  0
M  CHG  1  76   1
M  ISO  4  39 100  62 101  75 100  84 101
M  END
> <Batch ID>
0104

> <Smiles>
CNC(C)C(=O)NC(C(=O)N1Cc2cc([101O:1][101CH2:1]C3CCC(=O)N3c3ccc(C[100NH:0][100C:0](=O)N4CCCC(n5nc(-c6ccc(Oc7ccc(F)cc7F)cc6)c(C(N)=O)c5N)C4)c(C)c3)ccc2CC1C(=O)NC1CCCc2ccccc21)C(C)(C)C

> <Shape>
0.230

> <Color>
0.060

> <Negative vol penalty>
0.000

$$$$
