
  -OEChem-04052301113D

 87 96  0     1  0  0  0  0  0999 V2000
  -18.0594  -28.9822   23.1784 C   0  0  0  0  0  0  0  0  0  0  0  0
  -19.4336  -29.1693   23.2883 C   0  0  0  0  0  0  0  0  0  0  0  0
  -24.7469  -14.6674   21.2462 C   0  0  0  0  0  0  0  0  0  0  0  0
  -26.2509  -13.1024   20.1850 C   0  0  0  0  0  0  0  0  0  0  0  0
  -17.5599  -27.8193   22.5936 C   0  0  0  0  0  0  0  0  0  0  0  0
  -20.3091  -28.1930   22.8144 C   0  0  0  0  0  0  0  0  0  0  0  0
  -25.7901  -29.1009   20.2376 C   0  0  0  0  0  0  0  0  0  0  0  0
  -23.7097  -13.7405   21.1431 C   0  0  0  0  0  0  0  0  0  0  0  0
  -25.2136  -12.1755   20.0819 C   0  0  0  0  0  0  0  0  0  0  0  0
  -27.0872  -29.0368   20.7448 C   0  0  0  0  0  0  0  0  0  0  0  0
  -23.6321   -9.9747   22.1007 C   0  0  0  0  0  0  0  0  0  0  0  0
  -23.9083   -8.6535   22.4524 C   0  0  0  0  0  0  0  0  0  0  0  0
  -27.2847  -26.7725   19.9365 C   0  0  0  0  0  0  0  0  0  0  0  0
  -30.8875  -25.1909   21.8521 C   0  0  0  0  0  0  0  0  0  0  0  0
  -28.9733  -24.4481   23.1254 C   0  0  0  0  0  0  0  0  0  0  0  0
  -23.3288   -7.9379   20.2188 C   0  0  0  0  0  0  0  0  0  0  0  0
  -26.0176  -14.3483   20.7671 C   0  0  0  0  0  0  0  0  0  0  0  0
  -27.9956  -15.4525   21.9400 C   0  0  0  0  0  0  0  0  0  0  0  0
  -18.4299  -26.8326   22.1035 C   0  0  0  0  0  0  0  0  0  0  0  0
  -25.2257  -27.9957   19.5846 C   0  0  0  0  0  0  0  0  0  0  0  0
  -19.8208  -27.0151   22.2237 C   0  0  0  0  0  0  0  0  0  0  0  0
  -25.9812  -26.8261   19.4198 C   0  0  0  0  0  0  0  0  0  0  0  0
  -30.8498  -24.0119   21.1077 C   0  0  0  0  0  0  0  0  0  0  0  0
  -28.9356  -23.2691   22.3810 C   0  0  0  0  0  0  0  0  0  0  0  0
  -29.9493  -25.4090   22.8610 C   0  0  0  0  0  0  0  0  0  0  0  0
  -29.8739  -23.0510   21.3721 C   0  0  0  0  0  0  0  0  0  0  0  0
  -23.9430  -12.4946   20.5609 C   0  0  0  0  0  0  0  0  0  0  0  0
  -27.8337  -27.8714   20.5968 C   0  0  0  0  0  0  0  0  0  0  0  0
  -23.2042  -10.2776   20.8081 C   0  0  0  0  0  0  0  0  0  0  0  0
  -23.7567   -7.6351   21.5114 C   0  0  0  0  0  0  0  0  0  0  0  0
  -23.0526   -9.2591   19.8671 C   0  0  0  0  0  0  0  0  0  0  0  0
  -27.0893  -15.3055   20.8729 C   0  0  0  0  0  0  0  0  0  0  0  0
  -28.8092  -16.4915   21.5590 C   0  0  0  0  0  0  0  0  0  0  0  0
  -29.5768  -26.7712   24.9669 C   0  0  0  0  0  0  0  0  0  0  0  0
  -28.0934  -14.7158   23.1661 C   0  0  0  0  0  0  0  0  0  0  0  0
  -22.7205  -26.1136   20.1184 C   0  0  0  0  0  0  0  0  0  0  0  0
  -23.5242  -24.8797   17.2281 C   0  0  0  0  0  0  0  0  0  0  0  0
  -25.9364  -24.3533   14.8721 C   0  0  0  0  0  0  0  0  0  0  0  0
  -29.0794  -21.7372   19.4131 C   0  0  0  0  0  0  0  0  0  0  0  0
  -17.8427  -25.5709   21.5221 C   0  0  0  0  0  0  0  0  0  0  0  0
  -23.8349  -28.0902   19.0197 C   0  0  0  0  0  0  0  0  0  0  0  0
  -25.4286  -25.6187   18.7088 C   0  0  0  0  0  0  0  0  0  0  0  0
  -29.8190  -28.2100   25.3574 C   0  0  0  0  0  0  0  0  0  0  0  0
  -18.8413  -24.7540   20.7062 C   0  0  0  0  0  0  0  0  0  0  0  0
  -30.8136  -28.6950   24.3197 C   0  0  0  0  0  0  0  0  0  0  0  0
  -29.3033  -18.8531   17.1235 C   0  0  0  0  0  0  0  0  0  0  0  0
  -20.1612  -24.6183   21.4587 C   0  0  0  0  0  0  0  0  0  0  0  0
  -28.7579  -17.7037   17.9695 C   0  0  0  0  0  0  0  0  0  0  0  0
  -28.6846  -20.1907   17.5185 C   0  0  0  0  0  0  0  0  0  0  0  0
  -28.2760  -19.3609   19.8152 C   0  0  0  0  0  0  0  0  0  0  0  0
  -20.8028  -25.9902   21.6990 C   0  0  1  0  0  0  0  0  0  0  0  0
  -23.1753  -26.7284   18.8251 C   0  0  1  0  0  0  0  0  0  0  0  0
  -28.9120  -18.0058   19.4701 C   0  0  1  0  0  0  0  0  0  0  0  0
  -30.4622  -27.8863   23.0759 C   0  0  2  0  0  0  0  0  0  0  0  0
  -31.8691  -23.8062   20.0341 C   0  0  0  0  0  0  0  0  0  0  0  0
  -27.8780  -22.2583   22.6871 C   0  0  0  0  0  0  0  0  0  0  0  0
  -26.3021  -23.2818   12.6326 C   0  0  0  0  0  0  0  0  0  0  0  0
  -23.5627  -22.1310   18.5522 C   0  0  0  0  0  0  0  0  0  0  0  0
  -24.8272  -21.2709   16.5699 C   0  0  0  0  0  0  0  0  0  0  0  0
  -22.5223  -22.1792   16.2785 C   0  0  0  0  0  0  0  0  0  0  0  0
  -30.7816  -20.7613   20.9362 C   0  0  0  0  0  0  0  0  0  0  0  0
  -26.6719  -26.9356   13.6273 C   0  0  0  0  0  0  0  0  0  0  0  0
  -29.3872  -28.5927   22.2467 C   0  0  0  0  0  0  0  0  0  1  0  0
  -24.4299  -23.7687   16.7544 C   0  0  1  0  0  0  0  0  0  0  0  0
  -25.9384  -24.5620   13.3685 C   0  0  2  0  0  0  0  0  0  0  0  0
  -23.8455  -22.3594   17.0539 C   0  0  0  0  0  0  0  0  0  0  0  0
  -27.3062  -16.1812   19.8879 N   0  0  0  0  0  0  0  0  0  0  0  0
  -28.3580  -16.8884   20.3346 N   0  0  0  0  0  0  0  0  0  0  0  0
  -29.9885  -26.6191   23.6257 N   0  0  0  0  0  0  0  0  0  0  0  0
  -24.0619  -25.7580   18.1796 N   0  0  0  0  0  0  0  0  0  0  0  0
  -28.8043  -20.4324   18.9569 N   0  0  0  0  0  0  0  0  0  0  0  0
  -29.8592  -17.0952   22.1552 N   0  0  0  0  0  0  0  0  0  0  0  0
  -27.1781  -13.6800   23.3980 N   0  0  0  0  0  0  0  0  0  0  0  0
  -21.4381  -26.4697   20.4904 N   0  0  0  0  0  0  0  0  0  0  0  0
  -24.6822  -24.0228   15.3402 N   0  0  0  0  0  0  0  0  0  0  0  0
  -29.8346  -21.8301   20.6022 N   0  0  0  0  0  0  0  0  0  0  0  0
  -26.9231  -25.6158   12.9932 N   0  3  0  0  0  0  0  0  0  0  0  0
  -29.0785  -25.9631   25.7372 O   0  0  0  0  0  0  0  0  0  0  0  0
  -28.9562  -14.9791   24.0377 O   0  0  0  0  0  0  0  0  0  0  0  0
  -23.4764  -25.3700   20.7327 O   0  0  0  0  0  0  0  0  0  0  0  0
  -22.3842  -24.9693   16.7656 O   0  0  0  0  0  0  0  0  0  0  0  0
  -26.9471  -24.4680   15.5619 O   0  0  0  0  0  0  0  0  0  0  0  0
  -28.7055  -22.7383   18.7907 O   0  0  0  0  0  0  0  0  0  0  0  0
  -22.9311  -11.5899   20.4603 O   0  0  0  0  0  0  0  0  0  0  0  0
  -29.0998  -27.8059   21.0914 O   0  0  0  0  0  0  0  0  0  1  0  0
  -24.0235   -6.3666   21.8488 F   0  0  0  0  0  0  0  0  0  0  0  0
  -22.6429   -9.5441   18.6234 F   0  0  0  0  0  0  0  0  0  0  0  0
  1  2  1  0  0  0  0
  1  5  2  0  0  0  0
  2  6  2  0  0  0  0
  3  8  2  0  0  0  0
  3 17  1  0  0  0  0
  4  9  1  0  0  0  0
  4 17  2  0  0  0  0
  5 19  1  0  0  0  0
  6 21  1  0  0  0  0
  7 10  2  0  0  0  0
  7 20  1  0  0  0  0
  8 27  1  0  0  0  0
  9 27  2  0  0  0  0
 10 28  1  0  0  0  0
 11 12  2  0  0  0  0
 11 29  1  0  0  0  0
 12 30  1  0  0  0  0
 13 22  1  0  0  0  0
 13 28  2  0  0  0  0
 14 23  2  0  0  0  0
 14 25  1  0  0  0  0
 15 24  1  0  0  0  0
 15 25  2  0  0  0  0
 16 30  2  0  0  0  0
 16 31  1  0  0  0  0
 17 32  1  0  0  0  0
 18 32  1  0  0  0  0
 18 33  2  0  0  0  0
 18 35  1  0  0  0  0
 19 21  2  0  0  0  0
 19 40  1  0  0  0  0
 20 22  2  0  0  0  0
 20 41  1  0  0  0  0
 21 51  1  0  0  0  0
 22 42  1  0  0  0  0
 23 26  1  0  0  0  0
 23 55  1  0  0  0  0
 24 26  2  0  0  0  0
 24 56  1  0  0  0  0
 25 69  1  0  0  0  0
 26 76  1  0  0  0  0
 27 84  1  0  0  0  0
 28 85  1  0  0  0  0
 29 31  2  0  0  0  0
 29 84  1  0  0  0  0
 30 86  1  0  0  0  0
 31 87  1  0  0  0  0
 32 67  2  0  0  0  0
 33 68  1  0  0  0  0
 33 72  1  0  0  0  0
 34 43  1  0  0  0  0
 34 69  1  0  0  0  0
 34 78  2  0  0  0  0
 35 73  1  0  0  0  0
 35 79  2  0  0  0  0
 36 52  1  0  0  0  0
 36 74  1  0  0  0  0
 36 80  2  0  0  0  0
 37 64  1  0  0  0  0
 37 70  1  0  0  0  0
 37 81  2  0  0  0  0
 38 65  1  0  0  0  0
 38 75  1  0  0  0  0
 38 82  2  0  0  0  0
 39 71  1  0  0  0  0
 39 76  1  0  0  0  0
 39 83  2  0  0  0  0
 40 44  1  0  0  0  0
 41 52  1  0  0  0  0
 42 70  1  0  0  0  0
 43 45  1  0  0  0  0
 44 47  1  0  0  0  0
 45 54  1  0  0  0  0
 46 48  1  0  0  0  0
 46 49  1  0  0  0  0
 47 51  1  0  0  0  0
 48 53  1  0  0  0  0
 49 71  1  0  0  0  0
 50 53  1  0  0  0  0
 50 71  1  0  0  0  0
 51 74  1  0  0  0  0
 52 70  1  0  0  0  0
 53 68  1  0  0  0  0
 54 63  1  0  0  0  0
 54 69  1  0  0  0  0
 57 65  1  0  0  0  0
 58 66  1  0  0  0  0
 59 66  1  0  0  0  0
 60 66  1  0  0  0  0
 61 76  1  0  0  0  0
 62 77  1  0  0  0  0
 63 85  1  0  0  0  0
 64 66  1  0  0  0  0
 64 75  1  0  0  0  0
 65 77  1  0  0  0  0
 67 68  1  0  0  0  0
M  CHG  1  77   1
M  ISO  4  39 100  63 101  76 100  85 101
M  END
> <Batch ID>
0105

> <Smiles>
CNC(C)C(=O)NC(C(=O)N1Cc2cc([101O:1][101CH2:1]C3CCC(=O)N3c3cc(C)c([100N:0](C)[100C:0](=O)N4CCCC(n5nc(-c6ccc(Oc7ccc(F)cc7F)cc6)c(C(N)=O)c5N)C4)c(C)c3)ccc2CC1C(=O)NC1CCCc2ccccc21)C(C)(C)C

> <Shape>
0.252

> <Color>
0.073

> <Negative vol penalty>
0.000

$$$$

  -OEChem-04052301113D

 94103  0     1  0  0  0  0  0999 V2000
  -24.4386  -33.5392   23.1744 C   0  0  0  0  0  0  0  0  0  0  0  0
  -23.0871  -33.2334   23.0619 C   0  0  0  0  0  0  0  0  0  0  0  0
  -29.7077  -17.7541   20.3873 C   0  0  0  0  0  0  0  0  0  0  0  0
  -31.7014  -17.6975   21.7507 C   0  0  0  0  0  0  0  0  0  0  0  0
  -25.3874  -32.7220   22.5635 C   0  0  0  0  0  0  0  0  0  0  0  0
  -22.6845  -32.1038   22.3486 C   0  0  0  0  0  0  0  0  0  0  0  0
  -21.3940  -24.7970   21.3941 C   0  0  0  0  0  0  0  0  0  0  0  0
  -30.0045  -16.4812   19.9003 C   0  0  0  0  0  0  0  0  0  0  0  0
  -31.9983  -16.4245   21.2637 C   0  0  0  0  0  0  0  0  0  0  0  0
  -22.1586  -23.6322   21.4424 C   0  0  0  0  0  0  0  0  0  0  0  0
  -29.7314  -13.2822   20.9607 C   0  0  0  0  0  0  0  0  0  0  0  0
  -28.6922  -12.3540   20.8969 C   0  0  0  0  0  0  0  0  0  0  0  0
  -22.9247  -24.2337   23.6493 C   0  0  0  0  0  0  0  0  0  0  0  0
  -27.6864  -21.4568   18.5512 C   0  0  0  0  0  0  0  0  0  0  0  0
  -27.1330  -23.0233   20.3053 C   0  0  0  0  0  0  0  0  0  0  0  0
  -29.0057  -12.1673   18.5085 C   0  0  0  0  0  0  0  0  0  0  0  0
  -30.5561  -18.3623   21.3125 C   0  0  0  0  0  0  0  0  0  0  0  0
  -29.4826  -19.9956   22.9518 C   0  0  0  0  0  0  0  0  0  0  0  0
  -24.9947  -31.5890   21.8321 C   0  0  0  0  0  0  0  0  0  0  0  0
  -21.3975  -25.6959   22.4704 C   0  0  0  0  0  0  0  0  0  0  0  0
  -23.6283  -31.2532   21.7450 C   0  0  0  0  0  0  0  0  0  0  0  0
  -22.1573  -25.4080   23.6132 C   0  0  0  0  0  0  0  0  0  0  0  0
  -28.4563  -22.4345   17.9210 C   0  0  0  0  0  0  0  0  0  0  0  0
  -27.0247  -21.7513   19.7433 C   0  0  0  0  0  0  0  0  0  0  0  0
  -28.5645  -23.7065   18.4829 C   0  0  0  0  0  0  0  0  0  0  0  0
  -31.1498  -15.8164   20.3385 C   0  0  0  0  0  0  0  0  0  0  0  0
  -22.9264  -23.3518   22.5689 C   0  0  0  0  0  0  0  0  0  0  0  0
  -30.4077  -13.6531   19.7985 C   0  0  0  0  0  0  0  0  0  0  0  0
  -27.9029  -24.0010   19.6751 C   0  0  0  0  0  0  0  0  0  0  0  0
  -28.3294  -11.7965   19.6708 C   0  0  0  0  0  0  0  0  0  0  0  0
  -30.0449  -13.0956   18.5724 C   0  0  0  0  0  0  0  0  0  0  0  0
  -30.2503  -19.6774   21.8155 C   0  0  0  0  0  0  0  0  0  0  0  0
  -29.4908  -21.3683   22.9983 C   0  0  0  0  0  0  0  0  0  0  0  0
  -26.0310  -19.4268   19.9391 C   0  0  0  0  0  0  0  0  0  0  0  0
  -28.8212  -19.1280   23.8821 C   0  0  0  0  0  0  0  0  0  0  0  0
  -22.2594  -28.7311   22.8552 C   0  0  0  0  0  0  0  0  0  0  0  0
  -20.9846  -28.3121   25.8084 C   0  0  0  0  0  0  0  0  0  0  0  0
  -19.7710  -26.2194   27.8229 C   0  0  0  0  0  0  0  0  0  0  0  0
  -30.4666  -25.3411   18.4443 C   0  0  0  0  0  0  0  0  0  0  0  0
  -26.0640  -30.7349   21.1978 C   0  0  0  0  0  0  0  0  0  0  0  0
  -20.5465  -26.9348   22.4137 C   0  0  0  0  0  0  0  0  0  0  0  0
  -22.1798  -26.3304   24.8037 C   0  0  0  0  0  0  0  0  0  0  0  0
  -25.1454  -18.7320   20.9462 C   0  0  0  0  0  0  0  0  0  0  0  0
  -25.5235  -29.8224   20.1016 C   0  0  0  0  0  0  0  0  0  0  0  0
  -25.2753  -19.5961   22.1862 C   0  0  0  0  0  0  0  0  0  0  0  0
  -32.1140  -25.1652   21.7531 C   0  0  0  0  0  0  0  0  0  0  0  0
  -24.2996  -29.0727   20.6060 C   0  0  0  0  0  0  0  0  0  0  0  0
  -31.8257  -23.7332   22.2000 C   0  0  0  0  0  0  0  0  0  0  0  0
  -32.1745  -25.2829   20.2332 C   0  0  0  0  0  0  0  0  0  0  0  0
  -30.6602  -23.3357   19.9942 C   0  0  0  0  0  0  0  0  0  0  0  0
  -23.1652  -30.0468   20.9485 C   0  0  1  0  0  0  0  0  0  0  0  0
  -21.0269  -28.0334   23.3569 C   0  0  1  0  0  0  0  0  0  0  0  0
  -30.5542  -23.1986   21.5204 C   0  0  1  0  0  0  0  0  0  0  0  0
  -25.5008  -20.9972   21.6289 C   0  0  2  0  0  0  0  0  0  0  0  0
  -29.1533  -22.0893   16.6448 C   0  0  0  0  0  0  0  0  0  0  0  0
  -26.7743  -27.1725   23.2189 C   0  0  0  0  0  0  0  0  0  0  0  0
  -18.7563  -24.8816   29.6879 C   0  0  0  0  0  0  0  0  0  0  0  0
  -28.3000  -27.7866   14.8121 C   0  0  0  0  0  0  0  0  0  0  0  0
  -26.1042  -28.0332   15.9865 C   0  0  0  0  0  0  0  0  0  0  0  0
  -23.6256  -29.3224   26.9549 C   0  0  0  0  0  0  0  0  0  0  0  0
  -22.9458  -28.3756   29.1706 C   0  0  0  0  0  0  0  0  0  0  0  0
  -21.5861  -30.1830   28.1185 C   0  0  0  0  0  0  0  0  0  0  0  0
  -17.0220  -26.9589   27.0133 C   0  0  0  0  0  0  0  0  0  0  0  0
  -24.1699  -21.7102   21.3794 C   0  0  0  0  0  0  0  0  0  1  0  0
  -27.4936  -26.8812   21.9141 C   0  0  0  0  0  0  0  0  0  0  0  0
  -27.7641  -26.3617   16.8610 C   0  0  0  0  0  0  0  0  0  0  0  0
  -28.8425  -25.3117   16.6023 C   0  0  0  0  0  0  0  0  0  0  0  0
  -27.2824  -25.4451   21.4598 C   0  0  0  0  0  0  0  0  0  0  0  0
  -21.5128  -27.8507   27.1453 C   0  0  1  0  0  0  0  0  0  0  0  0
  -18.5790  -26.0658   28.7502 C   0  0  2  0  0  0  0  0  0  0  0  0
  -27.2128  -27.0513   15.5971 C   0  0  0  0  0  0  0  0  0  0  0  0
  -22.4189  -28.9163   27.8243 C   0  0  0  0  0  0  0  0  0  0  0  0
  -30.7125  -20.7607   21.1856 N   0  0  0  0  0  0  0  0  0  0  0  0
  -30.2337  -21.7731   21.9285 N   0  0  0  0  0  0  0  0  0  0  0  0
  -26.2324  -20.7487   20.3898 N   0  0  0  0  0  0  0  0  0  0  0  0
  -21.3359  -27.5321   24.6976 N   0  0  0  0  0  0  0  0  0  0  0  0
  -30.9845  -24.7156   19.5970 N   0  0  0  0  0  0  0  0  0  0  0  0
  -28.9349  -22.2565   23.8494 N   0  0  0  0  0  0  0  0  0  0  0  0
  -28.9145  -17.7433   23.6868 N   0  0  0  0  0  0  0  0  0  0  0  0
  -22.1061  -29.3222   21.6156 N   0  0  0  0  0  0  0  0  0  0  0  0
  -20.3473  -27.4671   27.9344 N   0  0  0  0  0  0  0  0  0  0  0  0
  -29.3594  -24.7208   17.8347 N   0  0  0  0  0  0  0  0  0  0  0  0
  -17.3321  -25.8576   27.9609 N   0  3  0  0  0  0  0  0  0  0  0  0
  -26.4277  -18.8678   18.9267 O   0  0  0  0  0  0  0  0  0  0  0  0
  -28.1532  -19.5680   24.8483 O   0  0  0  0  0  0  0  0  0  0  0  0
  -23.2739  -28.7344   23.5425 O   0  0  0  0  0  0  0  0  0  0  0  0
  -20.2802  -29.3232   25.7529 O   0  0  0  0  0  0  0  0  0  0  0  0
  -20.1549  -25.3211   27.0771 O   0  0  0  0  0  0  0  0  0  0  0  0
  -30.9884  -26.3519   17.9580 O   0  0  0  0  0  0  0  0  0  0  0  0
  -31.4397  -14.5742   19.8637 O   0  0  0  0  0  0  0  0  0  0  0  0
  -23.6741  -22.2159   22.6183 O   0  0  0  0  0  0  0  0  0  1  0  0
  -27.9939  -25.2376   20.2419 O   0  0  0  0  0  0  0  0  0  0  0  0
  -27.3325  -10.9039   19.6099 F   0  0  0  0  0  0  0  0  0  0  0  0
  -30.6917  -13.4472   17.4527 F   0  0  0  0  0  0  0  0  0  0  0  0
  1  2  1  0  0  0  0
  1  5  2  0  0  0  0
  2  6  2  0  0  0  0
  3  8  2  0  0  0  0
  3 17  1  0  0  0  0
  4  9  1  0  0  0  0
  4 17  2  0  0  0  0
  5 19  1  0  0  0  0
  6 21  1  0  0  0  0
  7 10  2  0  0  0  0
  7 20  1  0  0  0  0
  8 26  1  0  0  0  0
  9 26  2  0  0  0  0
 10 27  1  0  0  0  0
 11 12  2  0  0  0  0
 11 28  1  0  0  0  0
 12 30  1  0  0  0  0
 13 22  1  0  0  0  0
 13 27  2  0  0  0  0
 14 23  2  0  0  0  0
 14 24  1  0  0  0  0
 15 24  2  0  0  0  0
 15 29  1  0  0  0  0
 16 30  2  0  0  0  0
 16 31  1  0  0  0  0
 17 32  1  0  0  0  0
 18 32  1  0  0  0  0
 18 33  2  0  0  0  0
 18 35  1  0  0  0  0
 19 21  2  0  0  0  0
 19 40  1  0  0  0  0
 20 22  2  0  0  0  0
 20 41  1  0  0  0  0
 21 51  1  0  0  0  0
 22 42  1  0  0  0  0
 23 25  1  0  0  0  0
 23 55  1  0  0  0  0
 24 75  1  0  0  0  0
 25 29  2  0  0  0  0
 25 82  1  0  0  0  0
 26 90  1  0  0  0  0
 27 91  1  0  0  0  0
 28 31  2  0  0  0  0
 28 90  1  0  0  0  0
 29 92  1  0  0  0  0
 30 93  1  0  0  0  0
 31 94  1  0  0  0  0
 32 73  2  0  0  0  0
 33 74  1  0  0  0  0
 33 78  1  0  0  0  0
 34 43  1  0  0  0  0
 34 75  1  0  0  0  0
 34 84  2  0  0  0  0
 35 79  1  0  0  0  0
 35 85  2  0  0  0  0
 36 52  1  0  0  0  0
 36 80  1  0  0  0  0
 36 86  2  0  0  0  0
 37 69  1  0  0  0  0
 37 76  1  0  0  0  0
 37 87  2  0  0  0  0
 38 70  1  0  0  0  0
 38 81  1  0  0  0  0
 38 88  2  0  0  0  0
 39 77  1  0  0  0  0
 39 82  1  0  0  0  0
 39 89  2  0  0  0  0
 40 44  1  0  0  0  0
 41 52  1  0  0  0  0
 42 76  1  0  0  0  0
 43 45  1  0  0  0  0
 44 47  1  0  0  0  0
 45 54  1  0  0  0  0
 46 48  1  0  0  0  0
 46 49  1  0  0  0  0
 47 51  1  0  0  0  0
 48 53  1  0  0  0  0
 49 77  1  0  0  0  0
 50 53  1  0  0  0  0
 50 77  1  0  0  0  0
 51 80  1  0  0  0  0
 52 76  1  0  0  0  0
 53 74  1  0  0  0  0
 54 64  1  0  0  0  0
 54 75  1  0  0  0  0
 56 65  1  0  0  0  0
 57 70  1  0  0  0  0
 58 71  1  0  0  0  0
 59 71  1  0  0  0  0
 60 72  1  0  0  0  0
 61 72  1  0  0  0  0
 62 72  1  0  0  0  0
 63 83  1  0  0  0  0
 64 91  1  0  0  0  0
 65 68  1  0  0  0  0
 66 67  1  0  0  0  0
 66 71  1  0  0  0  0
 67 82  1  0  0  0  0
 68 92  1  0  0  0  0
 69 72  1  0  0  0  0
 69 81  1  0  0  0  0
 70 83  1  0  0  0  0
 73 74  1  0  0  0  0
M  CHG  1  83   1
M  ISO  4  39 100  64 101  82 100  91 101
M  END
> <Batch ID>
0105

> <Smiles>
CCCOc1cc(N2C(=O)CCC2[101CH2:1][101O:1]c2ccc3c(c2)CN(C(=O)C(NC(=O)C(C)NC)C(C)(C)C)C(C(=O)NC2CCCc4ccccc42)C3)cc(C)c1[100N:0](CCC(C)C)[100C:0](=O)N1CCCC(n2nc(-c3ccc(Oc4ccc(F)cc4F)cc3)c(C(N)=O)c2N)C1

> <Shape>
0.223

> <Color>
0.075

> <Negative vol penalty>
0.000

$$$$

  -OEChem-04052301113D

 88 97  0     1  0  0  0  0  0999 V2000
  -24.5158  -22.3764   30.6846 C   0  0  0  0  0  0  0  0  0  0  0  0
  -25.0976  -22.4196   29.4216 C   0  0  0  0  0  0  0  0  0  0  0  0
  -22.5925  -10.3407   20.3698 C   0  0  0  0  0  0  0  0  0  0  0  0
  -24.4051   -9.2930   21.5756 C   0  0  0  0  0  0  0  0  0  0  0  0
  -23.1638  -22.6801   30.8388 C   0  0  0  0  0  0  0  0  0  0  0  0
  -24.3273  -22.7655   28.3119 C   0  0  0  0  0  0  0  0  0  0  0  0
  -26.6772  -26.0592   25.2664 C   0  0  0  0  0  0  0  0  0  0  0  0
  -29.3107  -17.3008   20.8781 C   0  0  0  0  0  0  0  0  0  0  0  0
  -29.2485  -18.6742   20.6426 C   0  0  0  0  0  0  0  0  0  0  0  0
  -21.8507   -9.1631   20.4616 C   0  0  0  0  0  0  0  0  0  0  0  0
  -23.6632   -8.1153   21.6675 C   0  0  0  0  0  0  0  0  0  0  0  0
  -27.6598  -25.5520   24.4173 C   0  0  0  0  0  0  0  0  0  0  0  0
  -21.1243   -6.9129   23.5460 C   0  0  0  0  0  0  0  0  0  0  0  0
  -21.0921   -6.2637   24.7801 C   0  0  0  0  0  0  0  0  0  0  0  0
  -26.0800  -25.5599   22.5943 C   0  0  0  0  0  0  0  0  0  0  0  0
  -31.2992  -18.9799   21.8829 C   0  0  0  0  0  0  0  0  0  0  0  0
  -22.0717   -4.2987   23.7720 C   0  0  0  0  0  0  0  0  0  0  0  0
  -23.8698  -10.4057   20.9267 C   0  0  0  0  0  0  0  0  0  0  0  0
  -24.2869  -12.8890   21.3350 C   0  0  0  0  0  0  0  0  0  0  0  0
  -22.3789  -23.0393   29.7318 C   0  0  0  0  0  0  0  0  0  0  0  0
  -25.3834  -26.3107   24.7877 C   0  0  0  0  0  0  0  0  0  0  0  0
  -22.9633  -23.0730   28.4512 C   0  0  0  0  0  0  0  0  0  0  0  0
  -25.0835  -26.0727   23.4388 C   0  0  0  0  0  0  0  0  0  0  0  0
  -30.3672  -16.7669   21.6161 C   0  0  0  0  0  0  0  0  0  0  0  0
  -30.2427  -19.5138   21.1450 C   0  0  0  0  0  0  0  0  0  0  0  0
  -22.3860   -8.0504   21.1104 C   0  0  0  0  0  0  0  0  0  0  0  0
  -27.3605  -25.2996   23.0817 C   0  0  0  0  0  0  0  0  0  0  0  0
  -21.6302   -6.2550   22.4248 C   0  0  0  0  0  0  0  0  0  0  0  0
  -31.3614  -17.6064   22.1184 C   0  0  0  0  0  0  0  0  0  0  0  0
  -21.5657   -4.9566   24.8931 C   0  0  0  0  0  0  0  0  0  0  0  0
  -22.1039   -4.9479   22.5378 C   0  0  0  0  0  0  0  0  0  0  0  0
  -24.6368  -11.6217   20.8317 C   0  0  0  0  0  0  0  0  0  0  0  0
  -25.3402  -13.6992   20.9877 C   0  0  0  0  0  0  0  0  0  0  0  0
  -28.9580  -22.9991   20.8059 C   0  0  0  0  0  0  0  0  0  0  0  0
  -29.1285  -21.7541   21.3135 C   0  0  0  0  0  0  0  0  0  0  0  0
  -29.9019  -23.4612   19.7334 C   0  0  0  0  0  0  0  0  0  0  0  0
  -23.1147  -13.2973   22.0525 C   0  0  0  0  0  0  0  0  0  0  0  0
  -22.4847  -25.1959   25.4651 C   0  0  0  0  0  0  0  0  0  0  0  0
  -30.8579  -14.5444   20.6258 C   0  0  0  0  0  0  0  0  0  0  0  0
  -21.5380  -27.5065   23.3946 C   0  0  0  0  0  0  0  0  0  0  0  0
  -22.6499  -28.8158   20.2217 C   0  0  0  0  0  0  0  0  0  0  0  0
  -20.9106  -23.3132   29.9412 C   0  0  0  0  0  0  0  0  0  0  0  0
  -24.3421  -26.8830   25.7100 C   0  0  0  0  0  0  0  0  0  0  0  0
  -23.7154  -26.3449   22.8705 C   0  0  0  0  0  0  0  0  0  0  0  0
  -30.9003  -22.4745   19.1777 C   0  0  0  0  0  0  0  0  0  0  0  0
  -20.2522  -24.0346   28.7680 C   0  0  0  0  0  0  0  0  0  0  0  0
  -29.2441  -12.8906   17.8870 C   0  0  0  0  0  0  0  0  0  0  0  0
  -20.6516  -23.3824   27.4482 C   0  0  0  0  0  0  0  0  0  0  0  0
  -27.8850  -12.4906   18.4597 C   0  0  0  0  0  0  0  0  0  0  0  0
  -31.3517  -21.4769   20.2301 C   0  0  0  0  0  0  0  0  0  0  0  0
  -30.3415  -12.8074   18.9434 C   0  0  0  0  0  0  0  0  0  0  0  0
  -28.6999  -13.2033   20.7517 C   0  0  0  0  0  0  0  0  0  0  0  0
  -22.1665  -23.4678   27.2267 C   0  0  1  0  0  0  0  0  0  0  0  0
  -22.9156  -26.6175   25.2388 C   0  0  1  0  0  0  0  0  0  0  0  0
  -27.5576  -13.3030   19.7252 C   0  0  2  0  0  0  0  0  0  0  0  0
  -28.2387  -21.2694   22.4417 C   0  0  0  0  0  0  0  0  0  0  0  0
  -22.3608  -31.0914   19.2042 C   0  0  0  0  0  0  0  0  0  0  0  0
  -19.0848  -26.2791   22.0583 C   0  0  0  0  0  0  0  0  0  0  0  0
  -19.6378  -27.5896   19.9979 C   0  0  0  0  0  0  0  0  0  0  0  0
  -19.0964  -28.7791   22.1227 C   0  0  0  0  0  0  0  0  0  0  0  0
  -25.5658  -29.1396   19.8325 C   0  0  0  0  0  0  0  0  0  0  0  0
  -33.3715  -18.0305   23.3166 C   0  0  0  0  0  0  0  0  0  0  0  0
  -30.4176  -15.2945   21.8577 C   0  0  0  0  0  0  0  0  0  0  0  0
  -27.8781  -23.9769   21.1742 C   0  0  0  0  0  0  0  0  0  1  0  0
  -21.3106  -27.5784   21.9039 C   0  0  1  0  0  0  0  0  0  0  0  0
  -23.2936  -30.1676   19.9718 C   0  0  2  0  0  0  0  0  0  0  0  0
  -19.8014  -27.5387   21.5320 C   0  0  0  0  0  0  0  0  0  0  0  0
  -25.8198  -11.6218   20.2116 N   0  0  0  0  0  0  0  0  0  0  0  0
  -26.2224  -12.8991   20.3230 N   0  0  0  0  0  0  0  0  0  0  0  0
  -30.1788  -20.9108   20.9059 N   0  0  0  0  0  0  0  0  0  0  0  0
  -22.7297  -26.8983   23.8137 N   0  0  0  0  0  0  0  0  0  0  0  0
  -29.9828  -13.5735   20.1382 N   0  0  0  0  0  0  0  0  0  0  0  0
  -25.5885  -15.0107   21.1890 N   0  0  0  0  0  0  0  0  0  0  0  0
  -23.1265  -13.2187   23.4518 N   0  0  0  0  0  0  0  0  0  0  0  0
  -22.5389  -24.7952   26.7865 N   0  0  0  0  0  0  0  0  0  0  0  0
  -22.0086  -28.7732   21.4416 N   0  0  0  0  0  0  0  0  0  0  0  0
  -24.5482  -30.0061   19.1838 N   0  3  0  0  0  0  0  0  0  0  0  0
  -29.8282  -24.6018   19.2769 O   0  0  0  0  0  0  0  0  0  0  0  0
  -22.0812  -13.7039   21.4692 O   0  0  0  0  0  0  0  0  0  0  0  0
  -22.1281  -24.5136   24.5117 O   0  0  0  0  0  0  0  0  0  0  0  0
  -31.9460  -14.8167   20.1119 O   0  0  0  0  0  0  0  0  0  0  0  0
  -20.6928  -27.9792   24.1587 O   0  0  0  0  0  0  0  0  0  0  0  0
  -22.7067  -27.8913   19.4138 O   0  0  0  0  0  0  0  0  0  0  0  0
  -21.6623   -6.9012   21.2004 O   0  0  0  0  0  0  0  0  0  0  0  0
  -32.4000  -17.1010   22.8413 O   0  0  0  0  0  0  0  0  0  0  0  0
  -28.3175  -24.8039   22.2509 O   0  0  0  0  0  0  0  0  0  1  0  0
  -21.5361   -4.3338   26.0786 F   0  0  0  0  0  0  0  0  0  0  0  0
  -22.5922   -4.3111   21.4645 F   0  0  0  0  0  0  0  0  0  0  0  0
  1  2  1  0  0  0  0
  1  5  2  0  0  0  0
  2  6  2  0  0  0  0
  3 10  2  0  0  0  0
  3 18  1  0  0  0  0
  4 11  1  0  0  0  0
  4 18  2  0  0  0  0
  5 20  1  0  0  0  0
  6 22  1  0  0  0  0
  7 12  2  0  0  0  0
  7 21  1  0  0  0  0
  8  9  2  0  0  0  0
  8 24  1  0  0  0  0
  9 25  1  0  0  0  0
 10 26  1  0  0  0  0
 11 26  2  0  0  0  0
 12 27  1  0  0  0  0
 13 14  2  0  0  0  0
 13 28  1  0  0  0  0
 14 30  1  0  0  0  0
 15 23  1  0  0  0  0
 15 27  2  0  0  0  0
 16 25  2  0  0  0  0
 16 29  1  0  0  0  0
 17 30  2  0  0  0  0
 17 31  1  0  0  0  0
 18 32  1  0  0  0  0
 19 32  1  0  0  0  0
 19 33  2  0  0  0  0
 19 37  1  0  0  0  0
 20 22  2  0  0  0  0
 20 42  1  0  0  0  0
 21 23  2  0  0  0  0
 21 43  1  0  0  0  0
 22 53  1  0  0  0  0
 23 44  1  0  0  0  0
 24 29  2  0  0  0  0
 24 63  1  0  0  0  0
 25 70  1  0  0  0  0
 26 84  1  0  0  0  0
 27 86  1  0  0  0  0
 28 31  2  0  0  0  0
 28 84  1  0  0  0  0
 29 85  1  0  0  0  0
 30 87  1  0  0  0  0
 31 88  1  0  0  0  0
 32 68  2  0  0  0  0
 33 69  1  0  0  0  0
 33 73  1  0  0  0  0
 34 35  2  0  0  0  0
 34 36  1  0  0  0  0
 34 64  1  0  0  0  0
 35 56  1  0  0  0  0
 35 70  1  0  0  0  0
 36 45  1  0  0  0  0
 36 78  2  0  0  0  0
 37 74  1  0  0  0  0
 37 79  2  0  0  0  0
 38 54  1  0  0  0  0
 38 75  1  0  0  0  0
 38 80  2  0  0  0  0
 39 63  1  0  0  0  0
 39 72  1  0  0  0  0
 39 81  2  0  0  0  0
 40 65  1  0  0  0  0
 40 71  1  0  0  0  0
 40 82  2  0  0  0  0
 41 66  1  0  0  0  0
 41 76  1  0  0  0  0
 41 83  2  0  0  0  0
 42 46  1  0  0  0  0
 43 54  1  0  0  0  0
 44 71  1  0  0  0  0
 45 50  1  0  0  0  0
 46 48  1  0  0  0  0
 47 49  1  0  0  0  0
 47 51  1  0  0  0  0
 48 53  1  0  0  0  0
 49 55  1  0  0  0  0
 50 70  1  0  0  0  0
 51 72  1  0  0  0  0
 52 55  1  0  0  0  0
 52 72  1  0  0  0  0
 53 75  1  0  0  0  0
 54 71  1  0  0  0  0
 55 69  1  0  0  0  0
 57 66  1  0  0  0  0
 58 67  1  0  0  0  0
 59 67  1  0  0  0  0
 60 67  1  0  0  0  0
 61 77  1  0  0  0  0
 62 85  1  0  0  0  0
 64 86  1  0  0  0  0
 65 67  1  0  0  0  0
 65 76  1  0  0  0  0
 66 77  1  0  0  0  0
 68 69  1  0  0  0  0
M  CHG  1  77   1
M  ISO  4  39 100  63 100  64 101  86 101
M  END
> <Batch ID>
0105

> <Smiles>
CNC(C)C(=O)NC(C(=O)N1Cc2cc([101O:1][101CH2:1]C3=C(C)N(c4ccc([100CH2:0][100C:0](=O)N5CCCC(n6nc(-c7ccc(Oc8ccc(F)cc8F)cc7)c(C(N)=O)c6N)C5)c(OC)c4)CCC3=O)ccc2CC1C(=O)NC1CCCc2ccccc21)C(C)(C)C

> <Shape>
0.327

> <Color>
0.171

> <Negative vol penalty>
0.000

$$$$

  -OEChem-04052301113D

 86 94  0     1  0  0  0  0  0999 V2000
  -26.4478  -17.2236   25.8017 C   0  0  0  0  0  0  0  0  0  0  0  0
  -27.3448  -18.1820   25.3437 C   0  0  0  0  0  0  0  0  0  0  0  0
  -23.3862   -9.7306   19.9162 C   0  0  0  0  0  0  0  0  0  0  0  0
  -23.7969   -9.9624   22.2858 C   0  0  0  0  0  0  0  0  0  0  0  0
  -25.1070  -17.5579   25.9795 C   0  0  0  0  0  0  0  0  0  0  0  0
  -26.9037  -19.4782   25.0747 C   0  0  0  0  0  0  0  0  0  0  0  0
  -30.3379  -22.8242   23.9732 C   0  0  0  0  0  0  0  0  0  0  0  0
  -22.7043   -8.5367   20.1512 C   0  0  0  0  0  0  0  0  0  0  0  0
  -23.1150   -8.7685   22.5207 C   0  0  0  0  0  0  0  0  0  0  0  0
  -31.0248  -22.8281   22.7600 C   0  0  0  0  0  0  0  0  0  0  0  0
  -21.1706   -5.9667   23.7809 C   0  0  0  0  0  0  0  0  0  0  0  0
  -20.2556   -5.9379   24.8332 C   0  0  0  0  0  0  0  0  0  0  0  0
  -30.0337  -19.2261   18.6135 C   0  0  0  0  0  0  0  0  0  0  0  0
  -29.6585  -24.6649   21.9992 C   0  0  0  0  0  0  0  0  0  0  0  0
  -28.5014  -19.1929   20.9446 C   0  0  0  0  0  0  0  0  0  0  0  0
  -18.9875   -7.7036   23.7788 C   0  0  0  0  0  0  0  0  0  0  0  0
  -23.9326  -10.4434   20.9835 C   0  0  0  0  0  0  0  0  0  0  0  0
  -29.8062  -18.0229   19.2815 C   0  0  0  0  0  0  0  0  0  0  0  0
  -24.0936  -12.9745   20.7089 C   0  0  0  0  0  0  0  0  0  0  0  0
  -24.6477  -18.8557   25.7004 C   0  0  0  0  0  0  0  0  0  0  0  0
  -29.2972  -23.7351   24.2048 C   0  0  0  0  0  0  0  0  0  0  0  0
  -25.5590  -19.8416   25.2707 C   0  0  0  0  0  0  0  0  0  0  0  0
  -28.9618  -24.6722   23.2172 C   0  0  0  0  0  0  0  0  0  0  0  0
  -29.0400  -18.0063   20.4470 C   0  0  0  0  0  0  0  0  0  0  0  0
  -28.7289  -20.3961   20.2766 C   0  0  0  0  0  0  0  0  0  0  0  0
  -22.5687   -8.0556   21.4534 C   0  0  0  0  0  0  0  0  0  0  0  0
  -30.6832  -23.7466   21.7716 C   0  0  0  0  0  0  0  0  0  0  0  0
  -20.9942   -6.8640   22.7275 C   0  0  0  0  0  0  0  0  0  0  0  0
  -29.4951  -20.4127   19.1111 C   0  0  0  0  0  0  0  0  0  0  0  0
  -19.1640   -6.8063   24.8322 C   0  0  0  0  0  0  0  0  0  0  0  0
  -19.9026   -7.7324   22.7265 C   0  0  0  0  0  0  0  0  0  0  0  0
  -24.6375  -11.6765   20.7414 C   0  0  0  0  0  0  0  0  0  0  0  0
  -25.1666  -13.7899   20.4440 C   0  0  0  0  0  0  0  0  0  0  0  0
  -31.6845  -16.6007   18.5998 C   0  0  0  0  0  0  0  0  0  0  0  0
  -30.3822  -16.8004   18.7370 C   0  0  0  0  0  0  0  0  0  0  0  0
  -22.7394  -13.4046   20.9011 C   0  0  0  0  0  0  0  0  0  0  0  0
  -26.1846  -23.4813   24.7976 C   0  0  0  0  0  0  0  0  0  0  0  0
  -26.3984  -26.6914   25.2124 C   0  0  0  0  0  0  0  0  0  0  0  0
  -28.0611  -29.5951   24.5409 C   0  0  0  0  0  0  0  0  0  0  0  0
  -30.5488  -15.0323   21.7876 C   0  0  0  0  0  0  0  0  0  0  0  0
  -23.1875  -19.1652   25.9180 C   0  0  0  0  0  0  0  0  0  0  0  0
  -28.5839  -23.7356   25.5291 C   0  0  0  0  0  0  0  0  0  0  0  0
  -27.8657  -25.6844   23.4240 C   0  0  0  0  0  0  0  0  0  0  0  0
  -22.7320  -20.4254   25.1894 C   0  0  0  0  0  0  0  0  0  0  0  0
  -29.8784  -12.6950   18.9966 C   0  0  0  0  0  0  0  0  0  0  0  0
  -23.6940  -21.5684   25.4767 C   0  0  0  0  0  0  0  0  0  0  0  0
  -28.4302  -12.2800   19.2504 C   0  0  0  0  0  0  0  0  0  0  0  0
  -30.5954  -13.0712   20.2897 C   0  0  0  0  0  0  0  0  0  0  0  0
  -28.4466  -13.7010   21.3386 C   0  0  0  0  0  0  0  0  0  0  0  0
  -25.0961  -21.2495   24.9424 C   0  0  1  0  0  0  0  0  0  0  0  0
  -27.1982  -24.3702   25.4611 C   0  0  1  0  0  0  0  0  0  0  0  0
  -27.6820  -13.3603   20.0507 C   0  0  2  0  0  0  0  0  0  0  0  0
  -27.9758  -32.0627   24.9889 C   0  0  0  0  0  0  0  0  0  0  0  0
  -24.1317  -26.9777   23.1900 C   0  0  0  0  0  0  0  0  0  0  0  0
  -24.7296  -29.3987   22.9674 C   0  0  0  0  0  0  0  0  0  0  0  0
  -23.9654  -28.5016   25.1660 C   0  0  0  0  0  0  0  0  0  0  0  0
  -30.6399  -17.3236   22.6937 C   0  0  0  0  0  0  0  0  0  0  0  0
  -30.6900  -29.5568   25.8997 C   0  0  0  0  0  0  0  0  0  0  0  0
  -28.7758  -16.7354   21.1888 C   0  0  0  0  0  0  0  0  0  0  0  0
  -31.1784  -23.4926   18.1937 C   0  0  0  0  0  0  0  0  0  0  0  0
  -30.6262  -24.1782   19.4336 C   0  0  0  0  0  0  0  0  0  1  0  0
  -31.0878  -21.9779   18.2931 C   0  0  0  0  0  0  0  0  0  0  0  0
  -26.2673  -27.8967   24.3129 C   0  0  1  0  0  0  0  0  0  0  0  0
  -28.5274  -30.7212   25.4458 C   0  0  2  0  0  0  0  0  0  0  0  0
  -24.7929  -28.1734   23.9041 C   0  0  0  0  0  0  0  0  0  0  0  0
  -25.9538  -11.6632   20.5150 N   0  0  0  0  0  0  0  0  0  0  0  0
  -26.2459  -12.9630   20.3377 N   0  0  0  0  0  0  0  0  0  0  0  0
  -27.1935  -25.6407   24.7331 N   0  0  0  0  0  0  0  0  0  0  0  0
  -29.8416  -14.0675   21.0515 N   0  0  0  0  0  0  0  0  0  0  0  0
  -28.1777  -21.5898   20.7912 N   0  0  0  0  0  0  0  0  0  0  0  0
  -25.2826  -15.1265   20.2939 N   0  0  0  0  0  0  0  0  0  0  0  0
  -21.7616  -12.4357   21.1646 N   0  0  0  0  0  0  0  0  0  0  0  0
  -26.0214  -22.2558   25.4147 N   0  0  0  0  0  0  0  0  0  0  0  0
  -26.9102  -29.0020   25.0152 N   0  0  0  0  0  0  0  0  0  0  0  0
  -29.9409  -16.2866   21.9482 N   0  0  0  0  0  0  0  0  0  0  0  0
  -30.0155  -30.8012   25.4485 N   0  3  0  0  0  0  0  0  0  0  0  0
  -22.4036  -14.6108   20.8247 O   0  0  0  0  0  0  0  0  0  0  0  0
  -25.5933  -23.8785   23.8005 O   0  0  0  0  0  0  0  0  0  0  0  0
  -25.8226  -26.6854   26.3033 O   0  0  0  0  0  0  0  0  0  0  0  0
  -28.6561  -29.2760   23.5139 O   0  0  0  0  0  0  0  0  0  0  0  0
  -31.6644  -14.7895   22.2655 O   0  0  0  0  0  0  0  0  0  0  0  0
  -21.9031   -6.8908   21.6831 O   0  0  0  0  0  0  0  0  0  0  0  0
  -31.3516  -23.7521   20.5863 O   0  0  0  0  0  0  0  0  0  1  0  0
  -29.7300  -21.5846   18.4402 O   0  0  0  0  0  0  0  0  0  0  0  0
  -18.2845   -6.7775   25.8420 F   0  0  0  0  0  0  0  0  0  0  0  0
  -19.7272   -8.5957   21.7167 F   0  0  0  0  0  0  0  0  0  0  0  0
  1  2  1  0  0  0  0
  1  5  2  0  0  0  0
  2  6  2  0  0  0  0
  3  8  2  0  0  0  0
  3 17  1  0  0  0  0
  4  9  1  0  0  0  0
  4 17  2  0  0  0  0
  5 20  1  0  0  0  0
  6 22  1  0  0  0  0
  7 10  2  0  0  0  0
  7 21  1  0  0  0  0
  8 26  1  0  0  0  0
  9 26  2  0  0  0  0
 10 27  1  0  0  0  0
 11 12  2  0  0  0  0
 11 28  1  0  0  0  0
 12 30  1  0  0  0  0
 13 18  1  0  0  0  0
 13 29  2  0  0  0  0
 14 23  1  0  0  0  0
 14 27  2  0  0  0  0
 15 24  1  0  0  0  0
 15 25  2  0  0  0  0
 16 30  2  0  0  0  0
 16 31  1  0  0  0  0
 17 32  1  0  0  0  0
 18 24  2  0  0  0  0
 18 35  1  0  0  0  0
 19 32  1  0  0  0  0
 19 33  2  0  0  0  0
 19 36  1  0  0  0  0
 20 22  2  0  0  0  0
 20 41  1  0  0  0  0
 21 23  2  0  0  0  0
 21 42  1  0  0  0  0
 22 50  1  0  0  0  0
 23 43  1  0  0  0  0
 24 59  1  0  0  0  0
 25 29  1  0  0  0  0
 25 70  1  0  0  0  0
 26 82  1  0  0  0  0
 27 83  1  0  0  0  0
 28 31  2  0  0  0  0
 28 82  1  0  0  0  0
 29 84  1  0  0  0  0
 30 85  1  0  0  0  0
 31 86  1  0  0  0  0
 32 66  2  0  0  0  0
 33 67  1  0  0  0  0
 33 71  1  0  0  0  0
 34 35  2  0  0  0  0
 36 72  1  0  0  0  0
 36 77  2  0  0  0  0
 37 51  1  0  0  0  0
 37 73  1  0  0  0  0
 37 78  2  0  0  0  0
 38 63  1  0  0  0  0
 38 68  1  0  0  0  0
 38 79  2  0  0  0  0
 39 64  1  0  0  0  0
 39 74  1  0  0  0  0
 39 80  2  0  0  0  0
 40 69  1  0  0  0  0
 40 75  1  0  0  0  0
 40 81  2  0  0  0  0
 41 44  1  0  0  0  0
 42 51  1  0  0  0  0
 43 68  1  0  0  0  0
 44 46  1  0  0  0  0
 45 47  1  0  0  0  0
 45 48  1  0  0  0  0
 46 50  1  0  0  0  0
 47 52  1  0  0  0  0
 48 69  1  0  0  0  0
 49 52  1  0  0  0  0
 49 69  1  0  0  0  0
 50 73  1  0  0  0  0
 51 68  1  0  0  0  0
 52 67  1  0  0  0  0
 53 64  1  0  0  0  0
 54 65  1  0  0  0  0
 55 65  1  0  0  0  0
 56 65  1  0  0  0  0
 57 75  1  0  0  0  0
 58 76  1  0  0  0  0
 59 75  1  0  0  0  0
 60 61  1  0  0  0  0
 60 62  1  0  0  0  0
 61 83  1  0  0  0  0
 62 84  1  0  0  0  0
 63 65  1  0  0  0  0
 63 74  1  0  0  0  0
 64 76  1  0  0  0  0
 66 67  1  0  0  0  0
M  CHG  1  76   1
M  ISO  4  40 100  61 101  75 100  83 101
M  END
> <Batch ID>
0105

> <Smiles>
C=Cc1cc(OCC[101CH2:1][101O:1]c2ccc3c(c2)CN(C(=O)C(NC(=O)C(C)NC)C(C)(C)C)C(C(=O)NC2CCCc4ccccc42)C3)c(N)cc1C[100N:0](C)[100C:0](=O)N1CCCC(n2nc(-c3ccc(Oc4ccc(F)cc4F)cc3)c(C(N)=O)c2N)C1

> <Shape>
0.250

> <Color>
0.161

> <Negative vol penalty>
0.000

$$$$

  -OEChem-04052301113D

 86 94  0     1  0  0  0  0  0999 V2000
  -29.8080  -25.1589   17.5019 C   0  0  0  0  0  0  0  0  0  0  0  0
  -28.6466  -25.9049   17.3360 C   0  0  0  0  0  0  0  0  0  0  0  0
  -25.6377  -14.6856   21.8256 C   0  0  0  0  0  0  0  0  0  0  0  0
  -27.9746  -14.1513   21.5241 C   0  0  0  0  0  0  0  0  0  0  0  0
  -30.3469  -24.9894   18.7755 C   0  0  0  0  0  0  0  0  0  0  0  0
  -28.0303  -26.4915   18.4418 C   0  0  0  0  0  0  0  0  0  0  0  0
  -22.8215  -29.6231   18.8758 C   0  0  0  0  0  0  0  0  0  0  0  0
  -25.2878  -13.4193   21.3570 C   0  0  0  0  0  0  0  0  0  0  0  0
  -27.6246  -12.8850   21.0555 C   0  0  0  0  0  0  0  0  0  0  0  0
  -21.4787  -29.3555   19.1387 C   0  0  0  0  0  0  0  0  0  0  0  0
  -23.7656  -10.4553   19.9005 C   0  0  0  0  0  0  0  0  0  0  0  0
  -22.7237  -10.3689   18.9772 C   0  0  0  0  0  0  0  0  0  0  0  0
  -21.8190  -29.9510   21.4514 C   0  0  0  0  0  0  0  0  0  0  0  0
  -21.9484  -24.0955   21.3110 C   0  0  0  0  0  0  0  0  0  0  0  0
  -23.1489  -25.7306   22.6234 C   0  0  0  0  0  0  0  0  0  0  0  0
  -23.9629  -11.7698   17.4477 C   0  0  0  0  0  0  0  0  0  0  0  0
  -26.9812  -15.0516   21.9091 C   0  0  0  0  0  0  0  0  0  0  0  0
  -27.6006  -16.7323   23.7255 C   0  0  0  0  0  0  0  0  0  0  0  0
  -29.7294  -25.5642   19.8986 C   0  0  0  0  0  0  0  0  0  0  0  0
  -23.6771  -30.0469   19.9028 C   0  0  0  0  0  0  0  0  0  0  0  0
  -28.5722  -26.3519   19.7324 C   0  0  0  0  0  0  0  0  0  0  0  0
  -23.1716  -30.2258   21.1984 C   0  0  0  0  0  0  0  0  0  0  0  0
  -23.1094  -23.3301   21.2026 C   0  0  0  0  0  0  0  0  0  0  0  0
  -21.9681  -25.2958   22.0214 C   0  0  0  0  0  0  0  0  0  0  0  0
  -24.2902  -23.7649   21.8046 C   0  0  0  0  0  0  0  0  0  0  0  0
  -26.2812  -12.5190   20.9720 C   0  0  0  0  0  0  0  0  0  0  0  0
  -20.9779  -29.5166   20.4272 C   0  0  0  0  0  0  0  0  0  0  0  0
  -24.9062  -11.1990   19.5975 C   0  0  0  0  0  0  0  0  0  0  0  0
  -22.8223  -11.0261   17.7508 C   0  0  0  0  0  0  0  0  0  0  0  0
  -24.3099  -24.9651   22.5150 C   0  0  0  0  0  0  0  0  0  0  0  0
  -25.0048  -11.8562   18.3711 C   0  0  0  0  0  0  0  0  0  0  0  0
  -27.3433  -16.3598   22.3926 C   0  0  0  0  0  0  0  0  0  0  0  0
  -27.8987  -18.0713   23.6564 C   0  0  0  0  0  0  0  0  0  0  0  0
  -27.5728  -15.9389   24.9194 C   0  0  0  0  0  0  0  0  0  0  0  0
  -26.3038  -28.8790   21.2593 C   0  0  0  0  0  0  0  0  0  0  0  0
  -26.2970  -31.7260   22.8139 C   0  0  0  0  0  0  0  0  0  0  0  0
  -19.5360  -25.7911   21.5952 C   0  0  0  0  0  0  0  0  0  0  0  0
  -24.5141  -34.4139   23.9289 C   0  0  0  0  0  0  0  0  0  0  0  0
  -26.0788  -22.6882   20.4493 C   0  0  0  0  0  0  0  0  0  0  0  0
  -30.3597  -25.3554   21.2530 C   0  0  0  0  0  0  0  0  0  0  0  0
  -25.1168  -30.3571   19.5973 C   0  0  0  0  0  0  0  0  0  0  0  0
  -24.0439  -30.6981   22.3318 C   0  0  0  0  0  0  0  0  0  0  0  0
  -29.4005  -25.6370   22.4049 C   0  0  0  0  0  0  0  0  0  0  0  0
  -29.4098  -21.1416   20.0999 C   0  0  0  0  0  0  0  0  0  0  0  0
  -28.7215  -26.9826   22.1987 C   0  0  0  0  0  0  0  0  0  0  0  0
  -29.2113  -19.7611   20.7235 C   0  0  0  0  0  0  0  0  0  0  0  0
  -28.1211  -21.6745   19.4809 C   0  0  0  0  0  0  0  0  0  0  0  0
  -26.7681  -20.3177   21.0488 C   0  0  0  0  0  0  0  0  0  0  0  0
  -27.8675  -26.9738   20.9245 C   0  0  1  0  0  0  0  0  0  0  0  0
  -26.0167  -30.2892   20.8273 C   0  0  1  0  0  0  0  0  0  0  0  0
  -28.0382  -19.7721   21.7188 C   0  0  1  0  0  0  0  0  0  0  0  0
  -23.0592  -22.0490   20.4344 C   0  0  0  0  0  0  0  0  0  0  0  0
  -24.7763  -36.5616   25.2002 C   0  0  0  0  0  0  0  0  0  0  0  0
  -26.4524  -30.1577   25.4266 C   0  0  0  0  0  0  0  0  0  0  0  0
  -25.7605  -32.2380   26.6355 C   0  0  0  0  0  0  0  0  0  0  0  0
  -27.8963  -32.1981   25.3473 C   0  0  0  0  0  0  0  0  0  0  0  0
  -26.2600  -22.7077   22.9265 C   0  0  0  0  0  0  0  0  0  0  0  0
  -23.6223  -36.0281   21.6141 C   0  0  0  0  0  0  0  0  0  0  0  0
  -18.5457  -26.8919   21.9493 C   0  0  0  0  0  0  0  0  0  0  0  0
  -17.9584  -27.5722   20.7176 C   0  0  0  0  0  0  0  0  0  0  0  0
  -19.0338  -28.2577   19.8874 C   0  0  0  0  0  0  0  0  0  1  0  0
  -25.6973  -32.2402   24.1004 C   0  0  1  0  0  0  0  0  0  0  0  0
  -24.7727  -35.9063   23.8278 C   0  0  2  0  0  0  0  0  0  0  0  0
  -26.4354  -31.6977   25.3567 C   0  0  0  0  0  0  0  0  0  0  0  0
  -27.4669  -17.3798   21.5391 N   0  0  0  0  0  0  0  0  0  0  0  0
  -27.8051  -18.4064   22.3377 N   0  0  0  0  0  0  0  0  0  0  0  0
  -25.4460  -30.9823   21.9841 N   0  0  0  0  0  0  0  0  0  0  0  0
  -27.0114  -21.6316   20.4338 N   0  0  0  0  0  0  0  0  0  0  0  0
  -28.2290  -18.9829   24.5957 N   0  0  0  0  0  0  0  0  0  0  0  0
  -27.2474  -14.5799   24.8111 N   0  0  0  0  0  0  0  0  0  0  0  0
  -20.7901  -26.0724   22.1299 N   0  0  0  0  0  0  0  0  0  0  0  0
  -27.4118  -28.3192   20.6523 N   0  0  0  0  0  0  0  0  0  0  0  0
  -25.6890  -33.6952   23.9940 N   0  0  0  0  0  0  0  0  0  0  0  0
  -25.5007  -22.9845   21.7027 N   0  0  0  0  0  0  0  0  0  0  0  0
  -23.7211  -36.5593   22.9980 N   0  3  0  0  0  0  0  0  0  0  0  0
  -27.8129  -16.4244   26.0509 O   0  0  0  0  0  0  0  0  0  0  0  0
  -25.5750  -28.3393   22.0834 O   0  0  0  0  0  0  0  0  0  0  0  0
  -27.4750  -31.9811   22.5515 O   0  0  0  0  0  0  0  0  0  0  0  0
  -19.2129  -24.8150   20.9265 O   0  0  0  0  0  0  0  0  0  0  0  0
  -23.3829  -33.9340   23.9519 O   0  0  0  0  0  0  0  0  0  0  0  0
  -25.8075  -23.3340   19.4300 O   0  0  0  0  0  0  0  0  0  0  0  0
  -25.9400  -11.2831   20.5149 O   0  0  0  0  0  0  0  0  0  0  0  0
  -19.6678  -29.2555   20.6867 O   0  0  0  0  0  0  0  0  0  1  0  0
  -21.8224  -10.9418   16.8636 F   0  0  0  0  0  0  0  0  0  0  0  0
  -25.4388  -25.3935   23.0978 F   0  0  0  0  0  0  0  0  0  0  0  0
  -26.0986  -12.5711   18.0739 F   0  0  0  0  0  0  0  0  0  0  0  0
  1  2  1  0  0  0  0
  1  5  2  0  0  0  0
  2  6  2  0  0  0  0
  3  8  2  0  0  0  0
  3 17  1  0  0  0  0
  4  9  1  0  0  0  0
  4 17  2  0  0  0  0
  5 19  1  0  0  0  0
  6 21  1  0  0  0  0
  7 10  2  0  0  0  0
  7 20  1  0  0  0  0
  8 26  1  0  0  0  0
  9 26  2  0  0  0  0
 10 27  1  0  0  0  0
 11 12  2  0  0  0  0
 11 28  1  0  0  0  0
 12 29  1  0  0  0  0
 13 22  1  0  0  0  0
 13 27  2  0  0  0  0
 14 23  2  0  0  0  0
 14 24  1  0  0  0  0
 15 24  2  0  0  0  0
 15 30  1  0  0  0  0
 16 29  2  0  0  0  0
 16 31  1  0  0  0  0
 17 32  1  0  0  0  0
 18 32  1  0  0  0  0
 18 33  2  0  0  0  0
 18 34  1  0  0  0  0
 19 21  2  0  0  0  0
 19 40  1  0  0  0  0
 20 22  2  0  0  0  0
 20 41  1  0  0  0  0
 21 49  1  0  0  0  0
 22 42  1  0  0  0  0
 23 25  1  0  0  0  0
 23 52  1  0  0  0  0
 24 71  1  0  0  0  0
 25 30  2  0  0  0  0
 25 74  1  0  0  0  0
 26 82  1  0  0  0  0
 27 83  1  0  0  0  0
 28 31  2  0  0  0  0
 28 82  1  0  0  0  0
 29 84  1  0  0  0  0
 30 85  1  0  0  0  0
 31 86  1  0  0  0  0
 32 65  2  0  0  0  0
 33 66  1  0  0  0  0
 33 69  1  0  0  0  0
 34 70  1  0  0  0  0
 34 76  2  0  0  0  0
 35 50  1  0  0  0  0
 35 72  1  0  0  0  0
 35 77  2  0  0  0  0
 36 62  1  0  0  0  0
 36 67  1  0  0  0  0
 36 78  2  0  0  0  0
 37 59  1  0  0  0  0
 37 71  1  0  0  0  0
 37 79  2  0  0  0  0
 38 63  1  0  0  0  0
 38 73  1  0  0  0  0
 38 80  2  0  0  0  0
 39 68  1  0  0  0  0
 39 74  1  0  0  0  0
 39 81  2  0  0  0  0
 40 43  1  0  0  0  0
 41 50  1  0  0  0  0
 42 67  1  0  0  0  0
 43 45  1  0  0  0  0
 44 46  1  0  0  0  0
 44 47  1  0  0  0  0
 45 49  1  0  0  0  0
 46 51  1  0  0  0  0
 47 68  1  0  0  0  0
 48 51  1  0  0  0  0
 48 68  1  0  0  0  0
 49 72  1  0  0  0  0
 50 67  1  0  0  0  0
 51 66  1  0  0  0  0
 53 63  1  0  0  0  0
 54 64  1  0  0  0  0
 55 64  1  0  0  0  0
 56 64  1  0  0  0  0
 57 74  1  0  0  0  0
 58 75  1  0  0  0  0
 59 60  1  0  0  0  0
 60 61  1  0  0  0  0
 61 83  1  0  0  0  0
 62 64  1  0  0  0  0
 62 73  1  0  0  0  0
 63 75  1  0  0  0  0
 65 66  1  0  0  0  0
M  CHG  1  75   1
M  ISO  4  39 100  61 101  74 100  83 101
M  END
> <Batch ID>
0105

> <Smiles>
CNC(C)C(=O)NC(C(=O)N1Cc2cc([101O:1][101CH2:1]CCC(=O)Nc3cc(C)c([100N:0](C)[100C:0](=O)N4CCCC(n5nc(-c6ccc(Oc7ccc(F)cc7F)cc6)c(C(N)=O)c5N)C4)c(F)c3)ccc2CC1C(=O)NC1CCCc2ccccc21)C(C)(C)C

> <Shape>
0.284

> <Color>
0.070

> <Negative vol penalty>
0.000

$$$$

  -OEChem-04052301113D

 84 93  0     1  0  0  0  0  0999 V2000
  -29.1059  -35.8358   23.7564 C   0  0  0  0  0  0  0  0  0  0  0  0
  -29.1389  -34.4602   23.5512 C   0  0  0  0  0  0  0  0  0  0  0  0
  -23.0063  -10.3999   21.1324 C   0  0  0  0  0  0  0  0  0  0  0  0
  -24.7039   -8.6996   21.3853 C   0  0  0  0  0  0  0  0  0  0  0  0
  -27.9058  -36.4607   24.0927 C   0  0  0  0  0  0  0  0  0  0  0  0
  -27.9718  -33.7086   23.6832 C   0  0  0  0  0  0  0  0  0  0  0  0
  -27.3818  -30.3612   19.9293 C   0  0  0  0  0  0  0  0  0  0  0  0
  -29.2984  -18.7180   18.2097 C   0  0  0  0  0  0  0  0  0  0  0  0
  -29.5708  -20.0540   18.5185 C   0  0  0  0  0  0  0  0  0  0  0  0
  -22.0139   -9.4286   21.2637 C   0  0  0  0  0  0  0  0  0  0  0  0
  -23.7115   -7.7283   21.5167 C   0  0  0  0  0  0  0  0  0  0  0  0
  -28.1350  -29.1899   19.9964 C   0  0  0  0  0  0  0  0  0  0  0  0
  -21.6124   -6.6239   23.9239 C   0  0  0  0  0  0  0  0  0  0  0  0
  -21.7602   -5.6821   24.9420 C   0  0  0  0  0  0  0  0  0  0  0  0
  -27.2008  -20.5848   18.5201 C   0  0  0  0  0  0  0  0  0  0  0  0
  -26.2133  -28.0102   20.8534 C   0  0  0  0  0  0  0  0  0  0  0  0
  -21.7718   -3.9093   23.3006 C   0  0  0  0  0  0  0  0  0  0  0  0
  -24.3513  -10.0354   21.1932 C   0  0  0  0  0  0  0  0  0  0  0  0
  -25.9748  -11.7881   22.0876 C   0  0  0  0  0  0  0  0  0  0  0  0
  -26.7215  -35.7178   24.2194 C   0  0  0  0  0  0  0  0  0  0  0  0
  -26.0394  -30.3683   20.3348 C   0  0  0  0  0  0  0  0  0  0  0  0
  -26.7550  -34.3240   24.0228 C   0  0  0  0  0  0  0  0  0  0  0  0
  -26.9390  -19.2568   18.2217 C   0  0  0  0  0  0  0  0  0  0  0  0
  -25.4444  -29.1822   20.7881 C   0  0  0  0  0  0  0  0  0  0  0  0
  -27.9736  -18.3329   18.0644 C   0  0  0  0  0  0  0  0  0  0  0  0
  -28.5298  -20.9810   18.6729 C   0  0  0  0  0  0  0  0  0  0  0  0
  -22.3664   -8.0928   21.4558 C   0  0  0  0  0  0  0  0  0  0  0  0
  -27.5517  -28.0149   20.4612 C   0  0  0  0  0  0  0  0  0  0  0  0
  -21.5442   -6.2085   22.5940 C   0  0  0  0  0  0  0  0  0  0  0  0
  -21.8399   -4.3248   24.6304 C   0  0  0  0  0  0  0  0  0  0  0  0
  -21.6240   -4.8512   22.2824 C   0  0  0  0  0  0  0  0  0  0  0  0
  -25.3770  -11.0382   21.0571 C   0  0  0  0  0  0  0  0  0  0  0  0
  -26.8805  -12.5954   21.4438 C   0  0  0  0  0  0  0  0  0  0  0  0
  -25.7331  -11.7576   23.5005 C   0  0  0  0  0  0  0  0  0  0  0  0
  -24.3863  -31.8746   22.5935 C   0  0  0  0  0  0  0  0  0  0  0  0
  -28.5072  -24.5817   19.7648 C   0  0  0  0  0  0  0  0  0  0  0  0
  -21.8559  -30.4578   21.1402 C   0  0  0  0  0  0  0  0  0  0  0  0
  -20.6875  -27.9143   19.1876 C   0  0  0  0  0  0  0  0  0  0  0  0
  -28.1890  -15.9990   17.2371 C   0  0  0  0  0  0  0  0  0  0  0  0
  -25.4578  -36.4308   24.6309 C   0  0  0  0  0  0  0  0  0  0  0  0
  -25.2329  -31.6337   20.2310 C   0  0  0  0  0  0  0  0  0  0  0  0
  -25.6071  -18.6342   17.9527 C   0  0  0  0  0  0  0  0  0  0  0  0
  -24.0013  -29.1322   21.2161 C   0  0  0  0  0  0  0  0  0  0  0  0
  -24.1908  -35.6160   24.3840 C   0  0  0  0  0  0  0  0  0  0  0  0
  -28.5837  -12.5316   16.7004 C   0  0  0  0  0  0  0  0  0  0  0  0
  -24.3702  -34.1857   24.8828 C   0  0  0  0  0  0  0  0  0  0  0  0
  -27.8098  -11.8858   17.8466 C   0  0  0  0  0  0  0  0  0  0  0  0
  -25.9696  -17.1453   17.8837 C   0  0  0  0  0  0  0  0  0  0  0  0
  -27.8649  -13.7759   16.1972 C   0  0  0  0  0  0  0  0  0  0  0  0
  -26.8845  -14.1855   18.4404 C   0  0  0  0  0  0  0  0  0  0  0  0
  -25.5050  -33.4780   24.1325 C   0  0  1  0  0  0  0  0  0  0  0  0
  -24.0188  -31.6458   21.1547 C   0  0  1  0  0  0  0  0  0  0  0  0
  -27.5577  -12.9028   18.9707 C   0  0  1  0  0  0  0  0  0  0  0  0
  -18.5676  -27.0006   18.2035 C   0  0  0  0  0  0  0  0  0  0  0  0
  -21.0718  -29.3433   23.8702 C   0  0  0  0  0  0  0  0  0  0  0  0
  -19.5685  -27.7201   22.6981 C   0  0  0  0  0  0  0  0  0  0  0  0
  -19.1562  -30.1717   22.4922 C   0  0  0  0  0  0  0  0  0  0  0  0
  -21.6840  -28.2628   16.4228 C   0  0  0  0  0  0  0  0  0  0  0  0
  -27.8757  -23.2221   19.5532 C   0  0  0  0  0  0  0  0  0  0  0  0
  -27.6002  -25.6391   20.3637 C   0  0  0  0  0  0  0  0  0  1  0  0
  -21.1320  -29.1424   21.2968 C   0  0  1  0  0  0  0  0  0  0  0  0
  -19.7647  -27.9120   17.9822 C   0  0  2  0  0  0  0  0  0  0  0  0
  -20.2599  -29.0954   22.5832 C   0  0  0  0  0  0  0  0  0  0  0  0
  -25.8619  -11.3422   19.8502 N   0  0  0  0  0  0  0  0  0  0  0  0
  -26.7740  -12.2921   20.1184 N   0  0  0  0  0  0  0  0  0  0  0  0
  -27.4465  -17.0550   17.7699 N   0  0  0  0  0  0  0  0  0  0  0  0
  -23.2562  -30.3969   21.1022 N   0  0  0  0  0  0  0  0  0  0  0  0
  -27.6011  -14.7260   17.2788 N   0  0  0  0  0  0  0  0  0  0  0  0
  -27.7495  -13.5282   21.8879 N   0  0  0  0  0  0  0  0  0  0  0  0
  -24.7684  -10.8689   23.9943 N   0  0  0  0  0  0  0  0  0  0  0  0
  -28.8305  -22.3254   18.9806 N   0  0  0  0  0  0  0  0  0  0  0  0
  -25.0597  -33.0597   22.8206 N   0  0  0  0  0  0  0  0  0  0  0  0
  -20.3848  -28.9379   20.0606 N   0  0  0  0  0  0  0  0  0  0  0  0
  -20.4955  -27.4425   16.7713 N   0  3  0  0  0  0  0  0  0  0  0  0
  -26.3426  -12.5082   24.2997 O   0  0  0  0  0  0  0  0  0  0  0  0
  -24.0802  -31.0386   23.4356 O   0  0  0  0  0  0  0  0  0  0  0  0
  -29.6777  -24.8242   19.4735 O   0  0  0  0  0  0  0  0  0  0  0  0
  -21.2029  -31.5002   21.0475 O   0  0  0  0  0  0  0  0  0  0  0  0
  -21.5845  -27.0884   19.3414 O   0  0  0  0  0  0  0  0  0  0  0  0
  -29.2838  -16.1709   16.6869 O   0  0  0  0  0  0  0  0  0  0  0  0
  -21.3983   -7.1448   21.5842 O   0  0  0  0  0  0  0  0  0  0  0  0
  -28.2925  -26.8585   20.5290 O   0  0  0  0  0  0  0  0  0  1  0  0
  -21.9834   -3.4206   25.6082 F   0  0  0  0  0  0  0  0  0  0  0  0
  -21.5603   -4.4461   21.0066 F   0  0  0  0  0  0  0  0  0  0  0  0
  1  2  1  0  0  0  0
  1  5  2  0  0  0  0
  2  6  2  0  0  0  0
  3 10  2  0  0  0  0
  3 18  1  0  0  0  0
  4 11  1  0  0  0  0
  4 18  2  0  0  0  0
  5 20  1  0  0  0  0
  6 22  1  0  0  0  0
  7 12  2  0  0  0  0
  7 21  1  0  0  0  0
  8  9  2  0  0  0  0
  8 25  1  0  0  0  0
  9 26  1  0  0  0  0
 10 27  1  0  0  0  0
 11 27  2  0  0  0  0
 12 28  1  0  0  0  0
 13 14  2  0  0  0  0
 13 29  1  0  0  0  0
 14 30  1  0  0  0  0
 15 23  1  0  0  0  0
 15 26  2  0  0  0  0
 16 24  1  0  0  0  0
 16 28  2  0  0  0  0
 17 30  2  0  0  0  0
 17 31  1  0  0  0  0
 18 32  1  0  0  0  0
 19 32  1  0  0  0  0
 19 33  2  0  0  0  0
 19 34  1  0  0  0  0
 20 22  2  0  0  0  0
 20 40  1  0  0  0  0
 21 24  2  0  0  0  0
 21 41  1  0  0  0  0
 22 51  1  0  0  0  0
 23 25  2  0  0  0  0
 23 42  1  0  0  0  0
 24 43  1  0  0  0  0
 25 66  1  0  0  0  0
 26 71  1  0  0  0  0
 27 81  1  0  0  0  0
 28 82  1  0  0  0  0
 29 31  2  0  0  0  0
 29 81  1  0  0  0  0
 30 83  1  0  0  0  0
 31 84  1  0  0  0  0
 32 64  2  0  0  0  0
 33 65  1  0  0  0  0
 33 69  1  0  0  0  0
 34 70  1  0  0  0  0
 34 75  2  0  0  0  0
 35 52  1  0  0  0  0
 35 72  1  0  0  0  0
 35 76  2  0  0  0  0
 36 59  1  0  0  0  0
 36 60  1  0  0  0  0
 36 77  2  0  0  0  0
 37 61  1  0  0  0  0
 37 67  1  0  0  0  0
 37 78  2  0  0  0  0
 38 62  1  0  0  0  0
 38 73  1  0  0  0  0
 38 79  2  0  0  0  0
 39 66  1  0  0  0  0
 39 68  1  0  0  0  0
 39 80  2  0  0  0  0
 40 44  1  0  0  0  0
 41 52  1  0  0  0  0
 42 48  1  0  0  0  0
 43 67  1  0  0  0  0
 44 46  1  0  0  0  0
 45 47  1  0  0  0  0
 45 49  1  0  0  0  0
 46 51  1  0  0  0  0
 47 53  1  0  0  0  0
 48 66  1  0  0  0  0
 49 68  1  0  0  0  0
 50 53  1  0  0  0  0
 50 68  1  0  0  0  0
 51 72  1  0  0  0  0
 52 67  1  0  0  0  0
 53 65  1  0  0  0  0
 54 62  1  0  0  0  0
 55 63  1  0  0  0  0
 56 63  1  0  0  0  0
 57 63  1  0  0  0  0
 58 74  1  0  0  0  0
 59 71  1  0  0  0  0
 60 82  1  0  0  0  0
 61 63  1  0  0  0  0
 61 73  1  0  0  0  0
 62 74  1  0  0  0  0
 64 65  1  0  0  0  0
M  CHG  1  74   1
M  ISO  4  39 100  60 101  66 100  82 101
M  END
> <Batch ID>
0105

> <Smiles>
CNC(C)C(=O)NC(C(=O)N1Cc2cc([101O:1][101CH2:1]C(=O)CNc3ccc4c(c3)CC[100N:0]4[100C:0](=O)N3CCCC(n4nc(-c5ccc(Oc6ccc(F)cc6F)cc5)c(C(N)=O)c4N)C3)ccc2CC1C(=O)NC1CCCc2ccccc21)C(C)(C)C

> <Shape>
0.322

> <Color>
0.117

> <Negative vol penalty>
0.000

$$$$

  -OEChem-04052301113D

 85 94  0     1  0  0  0  0  0999 V2000
  -26.8312  -37.8129   19.6794 C   0  0  0  0  0  0  0  0  0  0  0  0
  -27.3809  -36.5600   19.4276 C   0  0  0  0  0  0  0  0  0  0  0  0
  -24.6202   -8.5630   20.6274 C   0  0  0  0  0  0  0  0  0  0  0  0
  -23.1795  -10.4646   21.0088 C   0  0  0  0  0  0  0  0  0  0  0  0
  -26.0143  -38.0035   20.7931 C   0  0  0  0  0  0  0  0  0  0  0  0
  -27.1149  -35.4971   20.2901 C   0  0  0  0  0  0  0  0  0  0  0  0
  -26.4716  -29.5984   18.7743 C   0  0  0  0  0  0  0  0  0  0  0  0
  -23.5522   -7.7027   20.8820 C   0  0  0  0  0  0  0  0  0  0  0  0
  -22.1114   -9.6043   21.2634 C   0  0  0  0  0  0  0  0  0  0  0  0
  -27.3495  -28.5165   18.8224 C   0  0  0  0  0  0  0  0  0  0  0  0
  -20.8372   -6.5461   19.2314 C   0  0  0  0  0  0  0  0  0  0  0  0
  -20.6499   -5.4707   18.3632 C   0  0  0  0  0  0  0  0  0  0  0  0
  -26.4363  -27.8782   20.9619 C   0  0  0  0  0  0  0  0  0  0  0  0
  -28.7188  -19.7978   19.7513 C   0  0  0  0  0  0  0  0  0  0  0  0
  -29.6541  -18.8104   22.1871 C   0  0  0  0  0  0  0  0  0  0  0  0
  -20.9285   -3.9338   20.2064 C   0  0  0  0  0  0  0  0  0  0  0  0
  -24.4338   -9.9440   20.6909 C   0  0  0  0  0  0  0  0  0  0  0  0
  -25.9176  -11.3714   19.1847 C   0  0  0  0  0  0  0  0  0  0  0  0
  -25.7304  -36.9400   21.6643 C   0  0  0  0  0  0  0  0  0  0  0  0
  -25.5754  -29.8351   19.8265 C   0  0  0  0  0  0  0  0  0  0  0  0
  -26.2946  -35.6739   21.4173 C   0  0  0  0  0  0  0  0  0  0  0  0
  -25.5462  -28.9623   20.9236 C   0  0  0  0  0  0  0  0  0  0  0  0
  -28.7262  -18.4236   19.9902 C   0  0  0  0  0  0  0  0  0  0  0  0
  -29.1791  -20.6783   20.7304 C   0  0  0  0  0  0  0  0  0  0  0  0
  -29.1939  -17.9299   21.2080 C   0  0  0  0  0  0  0  0  0  0  0  0
  -29.6467  -20.1846   21.9482 C   0  0  0  0  0  0  0  0  0  0  0  0
  -22.2978   -8.2234   21.1999 C   0  0  0  0  0  0  0  0  0  0  0  0
  -27.3340  -27.6578   19.9176 C   0  0  0  0  0  0  0  0  0  0  0  0
  -21.0703   -6.3154   20.5873 C   0  0  0  0  0  0  0  0  0  0  0  0
  -20.6955   -4.1646   18.8506 C   0  0  0  0  0  0  0  0  0  0  0  0
  -21.1159   -5.0093   21.0747 C   0  0  0  0  0  0  0  0  0  0  0  0
  -25.5369  -10.8332   20.4285 C   0  0  0  0  0  0  0  0  0  0  0  0
  -27.0151  -12.1472   19.4678 C   0  0  0  0  0  0  0  0  0  0  0  0
  -25.3316  -11.1867   17.8893 C   0  0  0  0  0  0  0  0  0  0  0  0
  -25.1241  -32.2025   21.8991 C   0  0  0  0  0  0  0  0  0  0  0  0
  -22.5269  -30.4503   22.7396 C   0  0  0  0  0  0  0  0  0  0  0  0
  -21.0021  -27.3990   22.8484 C   0  0  0  0  0  0  0  0  0  0  0  0
  -29.6412  -15.9009   22.6327 C   0  0  0  0  0  0  0  0  0  0  0  0
  -24.8802  -37.2058   22.8814 C   0  0  0  0  0  0  0  0  0  0  0  0
  -24.6164  -30.9911   19.7472 C   0  0  0  0  0  0  0  0  0  0  0  0
  -24.5894  -29.1609   22.0697 C   0  0  0  0  0  0  0  0  0  0  0  0
  -24.3440  -35.9367   23.5388 C   0  0  0  0  0  0  0  0  0  0  0  0
  -29.8008  -12.5015   23.6793 C   0  0  0  0  0  0  0  0  0  0  0  0
  -25.4545  -34.9012   23.6851 C   0  0  0  0  0  0  0  0  0  0  0  0
  -28.7370  -11.8087   22.8245 C   0  0  0  0  0  0  0  0  0  0  0  0
  -29.9007  -24.2310   20.0616 C   0  0  0  0  0  0  0  0  0  0  0  0
  -29.3695  -13.9078   24.0916 C   0  0  0  0  0  0  0  0  0  0  0  0
  -30.2713  -22.7628   19.8633 C   0  0  0  0  0  0  0  0  0  0  0  0
  -28.0400  -22.9134   20.7885 C   0  0  0  0  0  0  0  0  0  0  0  0
  -27.8891  -14.0860   22.1305 C   0  0  0  0  0  0  0  0  0  0  0  0
  -26.0093  -34.4902   22.3159 C   0  0  1  0  0  0  0  0  0  0  0  0
  -24.1000  -31.4340   21.1127 C   0  0  1  0  0  0  0  0  0  0  0  0
  -28.3750  -24.2109   20.0443 C   0  0  1  0  0  0  0  0  0  0  0  0
  -28.3061  -12.6911   21.6366 C   0  0  2  0  0  0  0  0  0  0  0  0
  -28.2270  -17.5035   18.9236 C   0  0  0  0  0  0  0  0  0  0  0  0
  -18.8988  -26.2747   23.6289 C   0  0  0  0  0  0  0  0  0  0  0  0
  -23.5353  -30.5666   25.6170 C   0  0  0  0  0  0  0  0  0  0  0  0
  -21.9751  -28.6871   26.1662 C   0  0  0  0  0  0  0  0  0  0  0  0
  -21.0654  -30.8671   25.3643 C   0  0  0  0  0  0  0  0  0  0  0  0
  -20.2944  -26.5576   20.1007 C   0  0  0  0  0  0  0  0  0  0  0  0
  -27.7525  -25.4433   20.6769 C   0  0  0  0  0  0  0  0  0  1  0  0
  -22.2580  -29.3466   23.7339 C   0  0  1  0  0  0  0  0  0  0  0  0
  -19.6003  -26.9593   22.4662 C   0  0  2  0  0  0  0  0  0  0  0  0
  -22.2279  -29.8639   25.1998 C   0  0  0  0  0  0  0  0  0  0  0  0
  -26.3283  -11.2330   21.4274 N   0  0  0  0  0  0  0  0  0  0  0  0
  -27.2173  -12.0307   20.8116 N   0  0  0  0  0  0  0  0  0  0  0  0
  -29.1633  -22.0330   20.4743 N   0  0  3  0  0  0  0  0  0  0  0  0
  -23.6759  -30.3090   21.9486 N   0  0  0  0  0  0  0  0  0  0  0  0
  -28.9795  -14.6870   22.9145 N   0  0  0  0  0  0  0  0  0  0  0  0
  -30.1167  -21.0590   22.9537 N   0  0  0  0  0  0  0  0  0  0  0  0
  -27.8173  -12.9107   18.6959 N   0  0  0  0  0  0  0  0  0  0  0  0
  -24.2078  -10.3569   17.7765 N   0  0  0  0  0  0  0  0  0  0  0  0
  -29.2077  -16.5374   21.4701 N   0  0  0  0  0  0  0  0  0  0  0  0
  -25.1091  -33.5639   21.6631 N   0  0  0  0  0  0  0  0  0  0  0  0
  -21.0229  -28.7007   23.3027 N   0  0  0  0  0  0  0  0  0  0  0  0
  -19.6504  -26.0070   21.3209 N   0  3  0  0  0  0  0  0  0  0  0  0
  -25.8009  -11.7280   16.8596 O   0  0  0  0  0  0  0  0  0  0  0  0
  -25.8715  -31.6047   22.6644 O   0  0  0  0  0  0  0  0  0  0  0  0
  -21.7424  -31.3991   22.6625 O   0  0  0  0  0  0  0  0  0  0  0  0
  -21.9801  -26.6604   22.7568 O   0  0  0  0  0  0  0  0  0  0  0  0
  -30.5458  -16.3295   23.3537 O   0  0  0  0  0  0  0  0  0  0  0  0
  -21.2553   -7.3842   21.4482 O   0  0  0  0  0  0  0  0  0  0  0  0
  -28.1903  -26.6014   19.9673 O   0  0  0  0  0  0  0  0  0  1  0  0
  -20.5141   -3.1320   18.0170 F   0  0  0  0  0  0  0  0  0  0  0  0
  -21.3382   -4.7815   22.3765 F   0  0  0  0  0  0  0  0  0  0  0  0
  1  2  1  0  0  0  0
  1  5  2  0  0  0  0
  2  6  2  0  0  0  0
  3  8  2  0  0  0  0
  3 17  1  0  0  0  0
  4  9  1  0  0  0  0
  4 17  2  0  0  0  0
  5 19  1  0  0  0  0
  6 21  1  0  0  0  0
  7 10  2  0  0  0  0
  7 20  1  0  0  0  0
  8 27  1  0  0  0  0
  9 27  2  0  0  0  0
 10 28  1  0  0  0  0
 11 12  2  0  0  0  0
 11 29  1  0  0  0  0
 12 30  1  0  0  0  0
 13 22  1  0  0  0  0
 13 28  2  0  0  0  0
 14 23  2  0  0  0  0
 14 24  1  0  0  0  0
 15 25  2  0  0  0  0
 15 26  1  0  0  0  0
 16 30  2  0  0  0  0
 16 31  1  0  0  0  0
 17 32  1  0  0  0  0
 18 32  1  0  0  0  0
 18 33  2  0  0  0  0
 18 34  1  0  0  0  0
 19 21  2  0  0  0  0
 19 39  1  0  0  0  0
 20 22  2  0  0  0  0
 20 40  1  0  0  0  0
 21 51  1  0  0  0  0
 22 41  1  0  0  0  0
 23 25  1  0  0  0  0
 23 55  1  0  0  0  0
 24 26  2  0  0  0  0
 24 67  1  0  0  0  0
 25 73  1  0  0  0  0
 26 70  1  0  0  0  0
 27 82  1  0  0  0  0
 28 83  1  0  0  0  0
 29 31  2  0  0  0  0
 29 82  1  0  0  0  0
 30 84  1  0  0  0  0
 31 85  1  0  0  0  0
 32 65  2  0  0  0  0
 33 66  1  0  0  0  0
 33 71  1  0  0  0  0
 34 72  1  0  0  0  0
 34 77  2  0  0  0  0
 35 52  1  0  0  0  0
 35 74  1  0  0  0  0
 35 78  2  0  0  0  0
 36 62  1  0  0  0  0
 36 68  1  0  0  0  0
 36 79  2  0  0  0  0
 37 63  1  0  0  0  0
 37 75  1  0  0  0  0
 37 80  2  0  0  0  0
 38 69  1  0  0  0  0
 38 73  1  0  0  0  0
 38 81  2  0  0  0  0
 39 42  1  0  0  0  0
 40 52  1  0  0  0  0
 41 68  1  0  0  0  0
 42 44  1  0  0  0  0
 43 45  1  0  0  0  0
 43 47  1  0  0  0  0
 44 51  1  0  0  0  0
 45 54  1  0  0  0  0
 46 48  1  0  0  0  0
 46 53  1  0  0  0  0
 47 69  1  0  0  0  0
 48 67  1  0  0  0  0
 49 53  1  0  0  0  0
 49 67  1  0  0  0  0
 50 54  1  0  0  0  0
 50 69  1  0  0  0  0
 51 74  1  0  0  0  0
 52 68  1  0  0  0  0
 53 61  1  0  0  0  0
 54 66  1  0  0  0  0
 56 63  1  0  0  0  0
 57 64  1  0  0  0  0
 58 64  1  0  0  0  0
 59 64  1  0  0  0  0
 60 76  1  0  0  0  0
 61 83  1  0  0  0  0
 62 64  1  0  0  0  0
 62 75  1  0  0  0  0
 63 76  1  0  0  0  0
 65 66  1  0  0  0  0
M  CHG  1  76   1
M  ISO  4  38 100  61 101  73 100  83 101
M  END
> <Batch ID>
0105

> <Smiles>
CNC(C)C(=O)NC(C(=O)N1Cc2cc([101O:1][101CH2:1]C3CCN(c4cc(C)c([100NH:0][100C:0](=O)N5CCCC(n6nc(-c7ccc(Oc8ccc(F)cc8F)cc7)c(C(N)=O)c6N)C5)cc4N)C3)ccc2CC1C(=O)NC1CCCc2ccccc21)C(C)(C)C

> <Shape>
0.314

> <Color>
0.091

> <Negative vol penalty>
0.000

$$$$

  -OEChem-04052301113D

 81 88  0     1  0  0  0  0  0999 V2000
  -20.7534  -32.8463   18.8219 C   0  0  0  0  0  0  0  0  0  0  0  0
  -22.0137  -32.2714   18.9503 C   0  0  0  0  0  0  0  0  0  0  0  0
  -26.2002  -12.7162   21.7732 C   0  0  0  0  0  0  0  0  0  0  0  0
  -25.7259  -13.7780   19.6555 C   0  0  0  0  0  0  0  0  0  0  0  0
  -19.8292  -32.7363   19.8600 C   0  0  0  0  0  0  0  0  0  0  0  0
  -22.3509  -31.5871   20.1176 C   0  0  0  0  0  0  0  0  0  0  0  0
  -24.6912  -27.1938   19.1864 C   0  0  0  0  0  0  0  0  0  0  0  0
  -25.0235  -11.9751   21.6652 C   0  0  0  0  0  0  0  0  0  0  0  0
  -24.5492  -13.0368   19.5474 C   0  0  0  0  0  0  0  0  0  0  0  0
  -26.0403  -27.2520   18.8394 C   0  0  0  0  0  0  0  0  0  0  0  0
  -23.9547   -9.2246   20.0143 C   0  0  0  0  0  0  0  0  0  0  0  0
  -24.0162   -7.8634   20.3127 C   0  0  0  0  0  0  0  0  0  0  0  0
  -26.6411  -26.6680   21.1015 C   0  0  0  0  0  0  0  0  0  0  0  0
  -22.3889   -8.1753   22.0710 C   0  0  0  0  0  0  0  0  0  0  0  0
  -26.5514  -13.6177   20.7683 C   0  0  0  0  0  0  0  0  0  0  0  0
  -29.0446  -14.0236   20.4124 C   0  0  0  0  0  0  0  0  0  0  0  0
  -20.1518  -32.0420   21.0366 C   0  0  0  0  0  0  0  0  0  0  0  0
  -24.3065  -26.8823   20.4985 C   0  0  0  0  0  0  0  0  0  0  0  0
  -21.4306  -31.4688   21.1729 C   0  0  0  0  0  0  0  0  0  0  0  0
  -25.2865  -26.6039   21.4620 C   0  0  0  0  0  0  0  0  0  0  0  0
  -24.1980  -12.1354   20.5523 C   0  0  0  0  0  0  0  0  0  0  0  0
  -27.0155  -26.9919   19.7977 C   0  0  0  0  0  0  0  0  0  0  0  0
  -23.1103  -10.0612   20.7444 C   0  0  0  0  0  0  0  0  0  0  0  0
  -23.2333   -7.3388   21.3410 C   0  0  0  0  0  0  0  0  0  0  0  0
  -22.3274   -9.5365   21.7727 C   0  0  0  0  0  0  0  0  0  0  0  0
  -27.7665  -14.3840   20.8796 C   0  0  0  0  0  0  0  0  0  0  0  0
  -29.8487  -15.0810   20.7616 C   0  0  0  0  0  0  0  0  0  0  0  0
  -29.4673  -12.8389   19.7243 C   0  0  0  0  0  0  0  0  0  0  0  0
  -22.7116  -28.4030   22.7892 C   0  0  0  0  0  0  0  0  0  0  0  0
  -22.9738  -25.5565   24.3226 C   0  0  0  0  0  0  0  0  0  0  0  0
  -24.6554  -22.6102   24.6946 C   0  0  0  0  0  0  0  0  0  0  0  0
  -30.4550  -24.8349   20.2415 C   0  0  0  0  0  0  0  0  0  0  0  0
  -28.6605  -20.7910   21.6775 C   0  0  0  0  0  0  0  0  0  0  0  0
  -19.1364  -31.9901   22.1505 C   0  0  0  0  0  0  0  0  0  0  0  0
  -22.8466  -26.7973   20.8502 C   0  0  0  0  0  0  0  0  0  0  0  0
  -24.9255  -26.2450   22.8795 C   0  0  0  0  0  0  0  0  0  0  0  0
  -19.4407  -30.9272   23.2031 C   0  0  0  0  0  0  0  0  0  0  0  0
  -30.2598  -18.5534   24.0297 C   0  0  0  0  0  0  0  0  0  0  0  0
  -20.9097  -30.9840   23.6100 C   0  0  0  0  0  0  0  0  0  0  0  0
  -29.9161  -17.1878   23.4322 C   0  0  0  0  0  0  0  0  0  0  0  0
  -29.1008  -19.5333   23.8722 C   0  0  0  0  0  0  0  0  0  0  0  0
  -28.2874  -18.3485   21.8702 C   0  0  0  0  0  0  0  0  0  0  0  0
  -21.8250  -30.6972   22.4136 C   0  0  1  0  0  0  0  0  0  0  0  0
  -22.5800  -26.9746   22.3418 C   0  0  1  0  0  0  0  0  0  0  0  0
  -29.4274  -17.3195   21.9775 C   0  0  2  0  0  0  0  0  0  0  0  0
  -30.4701  -21.7026   16.7260 C   0  0  0  0  0  0  0  0  0  0  0  0
  -24.6569  -20.5010   26.0542 C   0  0  0  0  0  0  0  0  0  0  0  0
  -24.1792  -27.0778   26.6768 C   0  0  0  0  0  0  0  0  0  0  0  0
  -25.0149  -24.8935   27.5705 C   0  0  0  0  0  0  0  0  0  0  0  0
  -22.5636  -25.2786   27.3147 C   0  0  0  0  0  0  0  0  0  0  0  0
  -24.2280  -20.9274   22.2979 C   0  0  0  0  0  0  0  0  0  0  0  0
  -30.4306  -23.4897   20.9749 C   0  0  0  0  0  0  0  0  0  0  0  0
  -30.8773  -22.9462   17.5034 C   0  0  0  0  0  0  0  0  0  0  0  0
  -29.0784  -23.2366   21.6362 C   0  0  0  0  0  0  0  0  0  0  0  0
  -29.6895  -23.6587   18.1390 C   0  0  0  0  0  0  0  0  0  0  0  0
  -30.0480  -26.0775   18.0849 C   0  0  0  0  0  0  0  0  0  0  0  0
  -28.6745  -26.7238   18.1149 C   0  0  0  0  0  0  0  0  0  1  0  0
  -23.9857  -24.9327   25.2531 C   0  0  1  0  0  0  0  0  0  0  0  0
  -24.1667  -21.1756   24.7825 C   0  0  2  0  0  0  0  0  0  0  0  0
  -23.9430  -25.5543   26.6777 C   0  0  0  0  0  0  0  0  0  0  0  0
  -27.7545  -15.5771   21.4799 N   0  0  0  0  0  0  0  0  0  0  0  0
  -29.0350  -15.9755   21.3924 N   0  0  0  0  0  0  0  0  0  0  0  0
  -23.4848  -26.1809   23.1759 N   0  0  0  0  0  0  0  0  0  0  0  0
  -28.6962  -19.6265   22.4624 N   0  0  0  0  0  0  0  0  0  0  0  0
  -31.1652  -15.3235   20.5875 N   0  0  0  0  0  0  0  0  0  0  0  0
  -28.5122  -11.8521   19.4443 N   0  0  0  0  0  0  0  0  0  0  0  0
  -21.8642  -29.2774   22.1360 N   0  0  0  0  0  0  0  0  0  0  0  0
  -23.7383  -23.4953   25.2208 N   0  0  0  0  0  0  0  0  0  0  0  0
  -29.0564  -21.9602   22.3154 N   0  0  0  0  0  0  0  0  0  0  0  0
  -30.0903  -24.8742   18.8726 N   0  0  0  0  0  0  0  0  0  0  0  0
  -24.6559  -20.3893   23.6148 N   0  3  0  0  0  0  0  0  0  0  0  0
  -30.6600  -12.6533   19.3827 O   0  0  0  0  0  0  0  0  0  0  0  0
  -23.5208  -28.6902   23.6635 O   0  0  0  0  0  0  0  0  0  0  0  0
  -21.7738  -25.4860   24.5992 O   0  0  0  0  0  0  0  0  0  0  0  0
  -25.7435  -22.9148   24.2112 O   0  0  0  0  0  0  0  0  0  0  0  0
  -28.3069  -20.7884   20.4934 O   0  0  0  0  0  0  0  0  0  0  0  0
  -23.0498  -11.4122   20.4464 O   0  0  0  0  0  0  0  0  0  0  0  0
  -28.3330  -27.0487   19.4618 O   0  0  0  0  0  0  0  0  0  1  0  0
  -23.2913   -6.0313   21.6264 F   0  0  0  0  0  0  0  0  0  0  0  0
  -21.5135  -10.3350   22.4767 F   0  0  0  0  0  0  0  0  0  0  0  0
  -30.9389  -26.1824   21.1480 S   0  0  0  0  0  0  0  0  0  0  0  0
  1  2  1  0  0  0  0
  1  5  2  0  0  0  0
  2  6  2  0  0  0  0
  3  8  2  0  0  0  0
  3 15  1  0  0  0  0
  4  9  1  0  0  0  0
  4 15  2  0  0  0  0
  5 17  1  0  0  0  0
  6 19  1  0  0  0  0
  7 10  2  0  0  0  0
  7 18  1  0  0  0  0
  8 21  1  0  0  0  0
  9 21  2  0  0  0  0
 10 22  1  0  0  0  0
 11 12  2  0  0  0  0
 11 23  1  0  0  0  0
 12 24  1  0  0  0  0
 13 20  1  0  0  0  0
 13 22  2  0  0  0  0
 14 24  2  0  0  0  0
 14 25  1  0  0  0  0
 15 26  1  0  0  0  0
 16 26  1  0  0  0  0
 16 27  2  0  0  0  0
 16 28  1  0  0  0  0
 17 19  2  0  0  0  0
 17 34  1  0  0  0  0
 18 20  2  0  0  0  0
 18 35  1  0  0  0  0
 19 43  1  0  0  0  0
 20 36  1  0  0  0  0
 21 77  1  0  0  0  0
 22 78  1  0  0  0  0
 23 25  2  0  0  0  0
 23 77  1  0  0  0  0
 24 79  1  0  0  0  0
 25 80  1  0  0  0  0
 26 61  2  0  0  0  0
 27 62  1  0  0  0  0
 27 65  1  0  0  0  0
 28 66  1  0  0  0  0
 28 72  2  0  0  0  0
 29 44  1  0  0  0  0
 29 67  1  0  0  0  0
 29 73  2  0  0  0  0
 30 58  1  0  0  0  0
 30 63  1  0  0  0  0
 30 74  2  0  0  0  0
 31 59  1  0  0  0  0
 31 68  1  0  0  0  0
 31 75  2  0  0  0  0
 32 52  1  0  0  0  0
 32 70  1  0  0  0  0
 32 81  2  0  0  0  0
 33 64  1  0  0  0  0
 33 69  1  0  0  0  0
 33 76  2  0  0  0  0
 34 37  1  0  0  0  0
 35 44  1  0  0  0  0
 36 63  1  0  0  0  0
 37 39  1  0  0  0  0
 38 40  1  0  0  0  0
 38 41  1  0  0  0  0
 39 43  1  0  0  0  0
 40 45  1  0  0  0  0
 41 64  1  0  0  0  0
 42 45  1  0  0  0  0
 42 64  1  0  0  0  0
 43 67  1  0  0  0  0
 44 63  1  0  0  0  0
 45 62  1  0  0  0  0
 46 53  1  0  0  0  0
 47 59  1  0  0  0  0
 48 60  1  0  0  0  0
 49 60  1  0  0  0  0
 50 60  1  0  0  0  0
 51 71  1  0  0  0  0
 52 54  1  0  0  0  0
 53 55  1  0  0  0  0
 54 69  1  0  0  0  0
 55 70  1  0  0  0  0
 56 57  1  0  0  0  0
 56 70  1  0  0  0  0
 57 78  1  0  0  0  0
 58 60  1  0  0  0  0
 58 68  1  0  0  0  0
 59 71  1  0  0  0  0
 61 62  1  0  0  0  0
M  CHG  1  71   1
M  ISO  4  33 100  57 101  69 100  78 101
M  END
> <Batch ID>
0105

> <Smiles>
CCCN(C[101CH2:1][101O:1]c1ccc2c(c1)CN(C(=O)C(NC(=O)C(C)NC)C(C)(C)C)C(C(=O)NC1CCCc3ccccc31)C2)C(=S)CC[100NH:0][100C:0](=O)N1CCCC(n2nc(-c3ccc(Oc4ccc(F)cc4F)cc3)c(C(N)=O)c2N)C1

> <Shape>
0.239

> <Color>
0.093

> <Negative vol penalty>
0.000

$$$$

  -OEChem-04052301113D

 83 91  0     1  0  0  0  0  0999 V2000
  -29.3347  -22.5651   16.7350 C   0  0  0  0  0  0  0  0  0  0  0  0
  -28.0165  -22.5721   17.1796 C   0  0  0  0  0  0  0  0  0  0  0  0
  -28.3285  -14.9168   20.8189 C   0  0  0  0  0  0  0  0  0  0  0  0
  -26.1033  -15.8571   20.8572 C   0  0  0  0  0  0  0  0  0  0  0  0
  -30.3224  -23.2129   17.4757 C   0  0  0  0  0  0  0  0  0  0  0  0
  -27.6854  -23.2260   18.3659 C   0  0  0  0  0  0  0  0  0  0  0  0
  -22.4867  -26.2225   19.5908 C   0  0  0  0  0  0  0  0  0  0  0  0
  -27.7853  -13.6344   20.7411 C   0  0  0  0  0  0  0  0  0  0  0  0
  -25.5601  -14.5747   20.7793 C   0  0  0  0  0  0  0  0  0  0  0  0
  -21.3316  -25.8541   20.2790 C   0  0  0  0  0  0  0  0  0  0  0  0
  -25.0172  -12.2420   18.3951 C   0  0  0  0  0  0  0  0  0  0  0  0
  -23.9674  -12.0378   17.4998 C   0  0  0  0  0  0  0  0  0  0  0  0
  -22.1927  -26.9030   22.2735 C   0  0  0  0  0  0  0  0  0  0  0  0
  -24.3126  -23.0683   23.9215 C   0  0  0  0  0  0  0  0  0  0  0  0
  -22.5383  -11.3665   19.3284 C   0  0  0  0  0  0  0  0  0  0  0  0
  -22.1280  -22.5156   25.5036 C   0  0  0  0  0  0  0  0  0  0  0  0
  -27.4875  -16.0281   20.8771 C   0  0  0  0  0  0  0  0  0  0  0  0
  -28.3871  -18.1997   19.8857 C   0  0  0  0  0  0  0  0  0  0  0  0
  -30.0017  -23.8833   18.6666 C   0  0  0  0  0  0  0  0  0  0  0  0
  -23.5100  -26.9256   20.2427 C   0  0  0  0  0  0  0  0  0  0  0  0
  -28.6701  -23.8823   19.1239 C   0  0  0  0  0  0  0  0  0  0  0  0
  -23.3587  -27.2813   21.5906 C   0  0  0  0  0  0  0  0  0  0  0  0
  -23.0438  -23.0193   23.3520 C   0  0  0  0  0  0  0  0  0  0  0  0
  -26.4011  -13.4634   20.7212 C   0  0  0  0  0  0  0  0  0  0  0  0
  -21.1857  -26.1918   21.6213 C   0  0  0  0  0  0  0  0  0  0  0  0
  -24.8276  -12.0083   19.7572 C   0  0  0  0  0  0  0  0  0  0  0  0
  -21.9368  -22.7402   24.1477 C   0  0  0  0  0  0  0  0  0  0  0  0
  -22.7279  -11.6001   17.9664 C   0  0  0  0  0  0  0  0  0  0  0  0
  -23.5882  -11.5706   20.2238 C   0  0  0  0  0  0  0  0  0  0  0  0
  -28.0480  -17.3530   20.9581 C   0  0  0  0  0  0  0  0  0  0  0  0
  -24.4436  -22.8355   25.2832 C   0  0  0  0  0  0  0  0  0  0  0  0
  -28.8761  -19.3344   20.4855 C   0  0  0  0  0  0  0  0  0  0  0  0
  -28.2705  -17.9800   18.4737 C   0  0  0  0  0  0  0  0  0  0  0  0
  -26.5640  -26.3421   20.9034 C   0  0  0  0  0  0  0  0  0  0  0  0
  -26.5161  -29.4073   21.9639 C   0  0  0  0  0  0  0  0  0  0  0  0
  -24.6913  -32.0296   23.1640 C   0  0  0  0  0  0  0  0  0  0  0  0
  -28.0017  -21.7996   25.8715 C   0  0  0  0  0  0  0  0  0  0  0  0
  -31.1116  -24.5292   19.4577 C   0  0  0  0  0  0  0  0  0  0  0  0
  -24.7382  -27.3389   19.4791 C   0  0  0  0  0  0  0  0  0  0  0  0
  -24.4191  -28.0533   22.3308 C   0  0  0  0  0  0  0  0  0  0  0  0
  -30.6145  -25.5176   20.5094 C   0  0  0  0  0  0  0  0  0  0  0  0
  -31.1119  -20.8075   24.4506 C   0  0  0  0  0  0  0  0  0  0  0  0
  -29.4600  -24.9157   21.3042 C   0  0  0  0  0  0  0  0  0  0  0  0
  -30.7100  -19.8861   23.2976 C   0  0  0  0  0  0  0  0  0  0  0  0
  -30.1831  -20.6464   25.6519 C   0  0  0  0  0  0  0  0  0  0  0  0
  -28.3460  -19.8823   24.1977 C   0  0  0  0  0  0  0  0  0  0  0  0
  -28.2673  -24.6018   20.3929 C   0  0  1  0  0  0  0  0  0  0  0  0
  -25.9404  -27.6049   20.3797 C   0  0  1  0  0  0  0  0  0  0  0  0
  -29.2198  -20.0493   22.9427 C   0  0  2  0  0  0  0  0  0  0  0  0
  -24.9355  -34.3912   23.9769 C   0  0  0  0  0  0  0  0  0  0  0  0
  -27.6416  -28.3786   24.6068 C   0  0  0  0  0  0  0  0  0  0  0  0
  -26.9762  -30.5522   25.6560 C   0  0  0  0  0  0  0  0  0  0  0  0
  -28.6506  -30.5227   23.8072 C   0  0  0  0  0  0  0  0  0  0  0  0
  -22.9429  -33.0726   21.0160 C   0  0  0  0  0  0  0  0  0  0  0  0
  -25.7627  -22.8660   25.9654 C   0  0  0  0  0  0  0  0  0  0  0  0
  -18.7218  -23.9769   23.0625 C   0  0  0  0  0  0  0  0  0  0  0  0
  -19.4034  -24.6376   21.8746 C   0  0  0  0  0  0  0  0  0  1  0  0
  -19.7160  -23.5910   24.1465 C   0  0  0  0  0  0  0  0  0  0  0  0
  -26.2177  -30.0776   23.2832 C   0  0  1  0  0  0  0  0  0  0  0  0
  -24.6623  -33.4973   22.7773 C   0  0  2  0  0  0  0  0  0  0  0  0
  -27.3522  -29.8665   24.3252 C   0  0  0  0  0  0  0  0  0  0  0  0
  -28.3004  -17.9029   22.1489 N   0  0  0  0  0  0  0  0  0  0  0  0
  -28.8033  -19.1072   21.8283 N   0  0  0  0  0  0  0  0  0  0  0  0
  -23.3608  -22.5690   26.0261 N   0  3  0  0  0  0  0  0  0  0  0  0
  -25.6043  -28.4291   21.5424 N   0  0  0  0  0  0  0  0  0  0  0  0
  -28.7850  -20.8144   25.2479 N   0  0  0  0  0  0  0  0  0  0  0  0
  -22.8944  -23.2525   21.9679 N   0  0  0  0  0  0  0  0  0  0  0  0
  -29.3570  -20.4944   19.9899 N   0  0  0  0  0  0  0  0  0  0  0  0
  -27.7474  -16.7583   18.0285 N   0  0  0  0  0  0  0  0  0  0  0  0
  -27.5384  -25.8121   20.0794 N   0  0  0  0  0  0  0  0  0  0  0  0
  -25.9405  -31.4767   22.9767 N   0  0  0  0  0  0  0  0  0  0  0  0
  -26.6895  -21.8966   25.4250 N   0  0  0  0  0  0  0  0  0  0  0  0
  -23.3300  -33.8587   22.2157 N   0  3  0  0  0  0  0  0  0  0  0  0
  -28.6351  -18.8351   17.6314 O   0  0  0  0  0  0  0  0  0  0  0  0
  -26.1898  -25.8834   21.9764 O   0  0  0  0  0  0  0  0  0  0  0  0
  -27.5174  -29.7444   21.3271 O   0  0  0  0  0  0  0  0  0  0  0  0
  -23.7055  -31.4342   23.5931 O   0  0  0  0  0  0  0  0  0  0  0  0
  -28.4409  -22.5417   26.7566 O   0  0  0  0  0  0  0  0  0  0  0  0
  -25.8707  -12.2122   20.6450 O   0  0  0  0  0  0  0  0  0  0  0  0
  -20.0595  -25.8329   22.2957 O   0  0  0  0  0  0  0  0  0  1  0  0
  -20.6726  -22.6804   23.6216 O   0  0  0  0  0  0  0  0  0  0  0  0
  -21.7194  -11.4056   17.1066 F   0  0  0  0  0  0  0  0  0  0  0  0
  -23.3997  -11.3456   21.5314 F   0  0  0  0  0  0  0  0  0  0  0  0
  1  2  1  0  0  0  0
  1  5  2  0  0  0  0
  2  6  2  0  0  0  0
  3  8  2  0  0  0  0
  3 17  1  0  0  0  0
  4  9  1  0  0  0  0
  4 17  2  0  0  0  0
  5 19  1  0  0  0  0
  6 21  1  0  0  0  0
  7 10  2  0  0  0  0
  7 20  1  0  0  0  0
  8 24  1  0  0  0  0
  9 24  2  0  0  0  0
 10 25  1  0  0  0  0
 11 12  2  0  0  0  0
 11 26  1  0  0  0  0
 12 28  1  0  0  0  0
 13 22  1  0  0  0  0
 13 25  2  0  0  0  0
 14 23  1  0  0  0  0
 14 31  2  0  0  0  0
 15 28  2  0  0  0  0
 15 29  1  0  0  0  0
 16 27  1  0  0  0  0
 16 64  2  0  0  0  0
 17 30  1  0  0  0  0
 18 30  1  0  0  0  0
 18 32  2  0  0  0  0
 18 33  1  0  0  0  0
 19 21  2  0  0  0  0
 19 38  1  0  0  0  0
 20 22  2  0  0  0  0
 20 39  1  0  0  0  0
 21 47  1  0  0  0  0
 22 40  1  0  0  0  0
 23 27  2  0  0  0  0
 23 67  1  0  0  0  0
 24 79  1  0  0  0  0
 25 80  1  0  0  0  0
 26 29  2  0  0  0  0
 26 79  1  0  0  0  0
 27 81  1  0  0  0  0
 28 82  1  0  0  0  0
 29 83  1  0  0  0  0
 30 62  2  0  0  0  0
 31 55  1  0  0  0  0
 31 64  1  0  0  0  0
 32 63  1  0  0  0  0
 32 68  1  0  0  0  0
 33 69  1  0  0  0  0
 33 74  2  0  0  0  0
 34 48  1  0  0  0  0
 34 70  1  0  0  0  0
 34 75  2  0  0  0  0
 35 59  1  0  0  0  0
 35 65  1  0  0  0  0
 35 76  2  0  0  0  0
 36 60  1  0  0  0  0
 36 71  1  0  0  0  0
 36 77  2  0  0  0  0
 37 66  1  0  0  0  0
 37 72  1  0  0  0  0
 37 78  2  0  0  0  0
 38 41  1  0  0  0  0
 39 48  1  0  0  0  0
 40 65  1  0  0  0  0
 41 43  1  0  0  0  0
 42 44  1  0  0  0  0
 42 45  1  0  0  0  0
 43 47  1  0  0  0  0
 44 49  1  0  0  0  0
 45 66  1  0  0  0  0
 46 49  1  0  0  0  0
 46 66  1  0  0  0  0
 47 70  1  0  0  0  0
 48 65  1  0  0  0  0
 49 63  1  0  0  0  0
 50 60  1  0  0  0  0
 51 61  1  0  0  0  0
 52 61  1  0  0  0  0
 53 61  1  0  0  0  0
 54 73  1  0  0  0  0
 55 72  1  0  0  0  0
 56 57  1  0  0  0  0
 56 58  1  0  0  0  0
 57 80  1  0  0  0  0
 58 81  1  0  0  0  0
 59 61  1  0  0  0  0
 59 71  1  0  0  0  0
 60 73  1  0  0  0  0
 62 63  1  0  0  0  0
M  CHG  2  64   1  73   1
M  ISO  4  37 100  57 101  72 100  80 101
M  END
> <Batch ID>
0105

> <Smiles>
CNC(C)C(=O)NC(C(=O)N1Cc2cc([101O:1][101CH2:1]CCOc3cnc(C[100NH:0][100C:0](=O)N4CCCC(n5nc(-c6ccc(Oc7ccc(F)cc7F)cc6)c(C(N)=O)c5N)C4)cc3N)ccc2CC1C(=O)NC1CCCc2ccccc21)C(C)(C)C

> <Shape>
0.225

> <Color>
0.043

> <Negative vol penalty>
0.000

$$$$

  -OEChem-04052301113D

 86 95  0     1  0  0  0  0  0999 V2000
  -16.4322  -26.3190   24.9442 C   0  0  0  0  0  0  0  0  0  0  0  0
  -17.4667  -25.9018   24.1128 C   0  0  0  0  0  0  0  0  0  0  0  0
  -24.8514   -8.4333   21.6020 C   0  0  0  0  0  0  0  0  0  0  0  0
  -23.3303   -9.7603   20.2745 C   0  0  0  0  0  0  0  0  0  0  0  0
  -16.1721  -27.6796   25.1022 C   0  0  0  0  0  0  0  0  0  0  0  0
  -18.2410  -26.8450   23.4381 C   0  0  0  0  0  0  0  0  0  0  0  0
  -23.1946  -25.8197   23.6747 C   0  0  0  0  0  0  0  0  0  0  0  0
  -23.7793   -7.9630   22.3603 C   0  0  0  0  0  0  0  0  0  0  0  0
  -22.2581   -9.2899   21.0327 C   0  0  0  0  0  0  0  0  0  0  0  0
  -23.6801  -24.8252   22.8267 C   0  0  0  0  0  0  0  0  0  0  0  0
  -21.3286   -5.6547   22.0457 C   0  0  0  0  0  0  0  0  0  0  0  0
  -21.2801   -4.2884   22.3221 C   0  0  0  0  0  0  0  0  0  0  0  0
  -24.4801  -26.5197   21.3074 C   0  0  0  0  0  0  0  0  0  0  0  0
  -25.1042  -19.5360   17.8753 C   0  0  0  0  0  0  0  0  0  0  0  0
  -26.9814  -18.3917   18.8771 C   0  0  0  0  0  0  0  0  0  0  0  0
  -25.3720  -17.1547   17.5669 C   0  0  0  0  0  0  0  0  0  0  0  0
  -21.3524   -4.7648   24.6896 C   0  0  0  0  0  0  0  0  0  0  0  0
  -24.6269   -9.3320   20.5591 C   0  0  0  0  0  0  0  0  0  0  0  0
  -26.2604   -9.2479   18.6015 C   0  0  0  0  0  0  0  0  0  0  0  0
  -16.9498  -28.6403   24.4367 C   0  0  0  0  0  0  0  0  0  0  0  0
  -23.3387  -27.1737   23.3395 C   0  0  0  0  0  0  0  0  0  0  0  0
  -17.9902  -28.2197   23.5864 C   0  0  0  0  0  0  0  0  0  0  0  0
  -23.9977  -27.5294   22.1540 C   0  0  0  0  0  0  0  0  0  0  0  0
  -26.2664  -19.5669   18.6460 C   0  0  0  0  0  0  0  0  0  0  0  0
  -24.6569  -18.3299   17.3358 C   0  0  0  0  0  0  0  0  0  0  0  0
  -26.5342  -17.1856   18.3376 C   0  0  0  0  0  0  0  0  0  0  0  0
  -22.4827   -8.3913   22.0757 C   0  0  0  0  0  0  0  0  0  0  0  0
  -24.3204  -25.1751   21.6415 C   0  0  0  0  0  0  0  0  0  0  0  0
  -21.3890   -6.5761   23.0913 C   0  0  0  0  0  0  0  0  0  0  0  0
  -21.2920   -3.8434   23.6440 C   0  0  0  0  0  0  0  0  0  0  0  0
  -21.4009   -6.1311   24.4132 C   0  0  0  0  0  0  0  0  0  0  0  0
  -25.7340   -9.8187   19.7757 C   0  0  0  0  0  0  0  0  0  0  0  0
  -27.2939  -10.0808   18.2484 C   0  0  0  0  0  0  0  0  0  0  0  0
  -26.6458  -22.8248   20.2423 C   0  0  0  0  0  0  0  0  0  0  0  0
  -26.0768  -23.7711   20.9976 C   0  0  0  0  0  0  0  0  0  1  0  0
  -25.8518   -8.0702   17.8933 C   0  0  0  0  0  0  0  0  0  0  0  0
  -21.3290  -29.5658   22.7538 C   0  0  0  0  0  0  0  0  0  0  0  0
  -24.0564  -31.3195   22.6646 C   0  0  0  0  0  0  0  0  0  0  0  0
  -27.4339  -31.4010   22.1823 C   0  0  0  0  0  0  0  0  0  0  0  0
  -28.4340  -15.8491   19.3126 C   0  0  0  0  0  0  0  0  0  0  0  0
  -16.6005  -30.0982   24.6019 C   0  0  0  0  0  0  0  0  0  0  0  0
  -22.8331  -28.2350   24.2778 C   0  0  0  0  0  0  0  0  0  0  0  0
  -24.1959  -28.9691   21.7582 C   0  0  0  0  0  0  0  0  0  0  0  0
  -28.0431  -22.3187   20.4096 C   0  0  0  0  0  0  0  0  0  0  0  0
  -17.7070  -31.0452   24.1445 C   0  0  0  0  0  0  0  0  0  0  0  0
  -30.5060  -13.0785   20.1539 C   0  0  0  0  0  0  0  0  0  0  0  0
  -18.2500  -30.6149   22.7855 C   0  0  0  0  0  0  0  0  0  0  0  0
  -29.5668  -11.8755   20.0396 C   0  0  0  0  0  0  0  0  0  0  0  0
  -27.9240  -20.8547   19.9984 C   0  0  0  0  0  0  0  0  0  0  0  0
  -29.7892  -14.3065   20.7122 C   0  0  0  0  0  0  0  0  0  0  0  0
  -27.6191  -13.4790   19.8907 C   0  0  0  0  0  0  0  0  0  0  0  0
  -18.8681  -29.2134   22.8570 C   0  0  1  0  0  0  0  0  0  0  0  0
  -25.9432  -22.0163   19.1818 C   0  0  1  0  0  0  0  0  0  0  0  0
  -22.5791  -29.5714   23.5873 C   0  0  1  0  0  0  0  0  0  0  0  0
  -28.2798  -12.2363   19.2721 C   0  0  2  0  0  0  0  0  0  0  0  0
  -25.3527  -24.0422   17.8358 C   0  0  0  0  0  0  0  0  0  0  0  0
  -29.3797  -32.9851   22.1377 C   0  0  0  0  0  0  0  0  0  0  0  0
  -23.1729  -32.3236   19.9222 C   0  0  0  0  0  0  0  0  0  0  0  0
  -25.5181  -33.1082   19.5311 C   0  0  0  0  0  0  0  0  0  0  0  0
  -24.1771  -34.0735   21.4000 C   0  0  0  0  0  0  0  0  0  0  0  0
  -28.7777  -29.9965   24.4140 C   0  0  0  0  0  0  0  0  0  0  0  0
  -26.0390  -22.7143   17.8262 C   0  0  0  0  0  0  0  0  0  0  0  0
  -25.0442  -31.7062   21.5905 C   0  0  1  0  0  0  0  0  0  0  0  0
  -28.5517  -32.0359   22.9898 C   0  0  2  0  0  0  0  0  0  0  0  0
  -24.4728  -32.7756   20.6172 C   0  0  0  0  0  0  0  0  0  0  0  0
  -26.3797  -10.9284   20.1441 N   0  0  0  0  0  0  0  0  0  0  0  0
  -27.3227  -11.0615   19.1958 N   0  0  0  0  0  0  0  0  0  0  0  0
  -26.7103  -20.7640   19.1817 N   0  0  3  0  0  0  0  0  0  0  0  0
  -23.6783  -29.9700   22.7058 N   0  0  0  0  0  0  0  0  0  0  0  0
  -28.5822  -14.5905   19.9329 N   0  0  0  0  0  0  0  0  0  0  0  0
  -23.4816  -18.2986   16.5567 N   0  0  0  0  0  0  0  0  0  0  0  0
  -28.1718  -10.0626   17.2230 N   0  0  0  0  0  0  0  0  0  0  0  0
  -24.7714   -7.3308   18.3936 N   0  0  0  0  0  0  0  0  0  0  0  0
  -27.2613  -15.9922   18.5717 N   0  0  0  0  0  0  0  0  0  0  0  0
  -20.1808  -29.2703   23.4636 N   0  0  0  0  0  0  0  0  0  0  0  0
  -26.2603  -32.1178   22.2833 N   0  0  0  0  0  0  0  0  0  0  0  0
  -29.4561  -30.9856   23.5374 N   0  3  0  0  0  0  0  0  0  0  0  0
  -26.4381   -7.6758   16.8569 O   0  0  0  0  0  0  0  0  0  0  0  0
  -21.4006  -29.8127   21.5556 O   0  0  0  0  0  0  0  0  0  0  0  0
  -23.6413  -32.1815   23.4432 O   0  0  0  0  0  0  0  0  0  0  0  0
  -27.5876  -30.3742   21.5246 O   0  0  0  0  0  0  0  0  0  0  0  0
  -29.2975  -16.7251   19.4076 O   0  0  0  0  0  0  0  0  0  0  0  0
  -21.4363   -7.9323   22.8152 O   0  0  0  0  0  0  0  0  0  0  0  0
  -24.7947  -24.2063   20.8117 O   0  0  0  0  0  0  0  0  0  1  0  0
  -21.2439   -2.5314   23.9093 F   0  0  0  0  0  0  0  0  0  0  0  0
  -21.4577   -7.0115   25.4219 F   0  0  0  0  0  0  0  0  0  0  0  0
  1  2  1  0  0  0  0
  1  5  2  0  0  0  0
  2  6  2  0  0  0  0
  3  8  2  0  0  0  0
  3 18  1  0  0  0  0
  4  9  1  0  0  0  0
  4 18  2  0  0  0  0
  5 20  1  0  0  0  0
  6 22  1  0  0  0  0
  7 10  2  0  0  0  0
  7 21  1  0  0  0  0
  8 27  1  0  0  0  0
  9 27  2  0  0  0  0
 10 28  1  0  0  0  0
 11 12  2  0  0  0  0
 11 29  1  0  0  0  0
 12 30  1  0  0  0  0
 13 23  1  0  0  0  0
 13 28  2  0  0  0  0
 14 24  1  0  0  0  0
 14 25  2  0  0  0  0
 15 24  2  0  0  0  0
 15 26  1  0  0  0  0
 16 25  1  0  0  0  0
 16 26  2  0  0  0  0
 17 30  2  0  0  0  0
 17 31  1  0  0  0  0
 18 32  1  0  0  0  0
 19 32  1  0  0  0  0
 19 33  2  0  0  0  0
 19 36  1  0  0  0  0
 20 22  2  0  0  0  0
 20 41  1  0  0  0  0
 21 23  2  0  0  0  0
 21 42  1  0  0  0  0
 22 52  1  0  0  0  0
 23 43  1  0  0  0  0
 24 68  1  0  0  0  0
 25 71  1  0  0  0  0
 26 74  1  0  0  0  0
 27 83  1  0  0  0  0
 28 84  1  0  0  0  0
 29 31  2  0  0  0  0
 29 83  1  0  0  0  0
 30 85  1  0  0  0  0
 31 86  1  0  0  0  0
 32 66  2  0  0  0  0
 33 67  1  0  0  0  0
 33 72  1  0  0  0  0
 34 35  2  0  0  0  0
 34 44  1  0  0  0  0
 34 53  1  0  0  0  0
 35 84  1  0  0  0  0
 36 73  1  0  0  0  0
 36 78  2  0  0  0  0
 37 54  1  0  0  0  0
 37 75  1  0  0  0  0
 37 79  2  0  0  0  0
 38 63  1  0  0  0  0
 38 69  1  0  0  0  0
 38 80  2  0  0  0  0
 39 64  1  0  0  0  0
 39 76  1  0  0  0  0
 39 81  2  0  0  0  0
 40 70  1  0  0  0  0
 40 74  1  0  0  0  0
 40 82  2  0  0  0  0
 41 45  1  0  0  0  0
 42 54  1  0  0  0  0
 43 69  1  0  0  0  0
 44 49  1  0  0  0  0
 45 47  1  0  0  0  0
 46 48  1  0  0  0  0
 46 50  1  0  0  0  0
 47 52  1  0  0  0  0
 48 55  1  0  0  0  0
 49 68  1  0  0  0  0
 50 70  1  0  0  0  0
 51 55  1  0  0  0  0
 51 70  1  0  0  0  0
 52 75  1  0  0  0  0
 53 62  1  0  0  0  0
 53 68  1  0  0  0  0
 54 69  1  0  0  0  0
 55 67  1  0  0  0  0
 56 62  1  0  0  0  0
 57 64  1  0  0  0  0
 58 65  1  0  0  0  0
 59 65  1  0  0  0  0
 60 65  1  0  0  0  0
 61 77  1  0  0  0  0
 63 65  1  0  0  0  0
 63 76  1  0  0  0  0
 64 77  1  0  0  0  0
 66 67  1  0  0  0  0
M  CHG  1  77   1
M  ISO  4  35 101  40 100  74 100  84 101
M  END
> <Batch ID>
0105

> <Smiles>
CCC1C(=[101CH:1][101O:1]c2ccc3c(c2)CN(C(=O)C(NC(=O)C(C)NC)C(C)(C)C)C(C(=O)NC2CCCc4ccccc42)C3)CCN1c1cc(N)cc([100NH:0][100C:0](=O)N2CCCC(n3nc(-c4ccc(Oc5ccc(F)cc5F)cc4)c(C(N)=O)c3N)C2)c1

> <Shape>
0.250

> <Color>
0.086

> <Negative vol penalty>
0.000

$$$$

  -OEChem-04052301113D

 88 97  0     1  0  0  0  0  0999 V2000
  -36.0049  -25.7956   24.8731 C   0  0  0  0  0  0  0  0  0  0  0  0
  -35.3292  -24.9846   23.9669 C   0  0  0  0  0  0  0  0  0  0  0  0
  -23.0776   -9.8658   19.9429 C   0  0  0  0  0  0  0  0  0  0  0  0
  -23.8362   -9.8765   22.2367 C   0  0  0  0  0  0  0  0  0  0  0  0
  -35.2870  -26.6059   25.7516 C   0  0  0  0  0  0  0  0  0  0  0  0
  -33.9350  -24.9827   23.9396 C   0  0  0  0  0  0  0  0  0  0  0  0
  -32.0841  -25.1831   19.2301 C   0  0  0  0  0  0  0  0  0  0  0  0
  -22.3344   -8.7125   20.1941 C   0  0  0  0  0  0  0  0  0  0  0  0
  -23.0930   -8.7232   22.4879 C   0  0  0  0  0  0  0  0  0  0  0  0
  -32.0930  -24.0006   18.4916 C   0  0  0  0  0  0  0  0  0  0  0  0
  -19.8651   -7.9239   23.0898 C   0  0  0  0  0  0  0  0  0  0  0  0
  -19.1075   -7.8850   24.2603 C   0  0  0  0  0  0  0  0  0  0  0  0
  -29.7576  -23.6730   18.9993 C   0  0  0  0  0  0  0  0  0  0  0  0
  -30.5804  -19.8748   21.4869 C   0  0  0  0  0  0  0  0  0  0  0  0
  -31.1464  -17.7028   20.5931 C   0  0  0  0  0  0  0  0  0  0  0  0
  -29.5140  -17.8923   22.3642 C   0  0  0  0  0  0  0  0  0  0  0  0
  -20.3499   -5.9495   25.0001 C   0  0  0  0  0  0  0  0  0  0  0  0
  -23.8286  -10.4478   20.9642 C   0  0  0  0  0  0  0  0  0  0  0  0
  -24.1686  -12.9730   20.8409 C   0  0  0  0  0  0  0  0  0  0  0  0
  -33.8834  -26.6212   25.7284 C   0  0  0  0  0  0  0  0  0  0  0  0
  -30.9127  -25.6145   19.8689 C   0  0  0  0  0  0  0  0  0  0  0  0
  -33.1976  -25.7930   24.8195 C   0  0  0  0  0  0  0  0  0  0  0  0
  -29.7358  -24.8626   19.7432 C   0  0  0  0  0  0  0  0  0  0  0  0
  -31.3132  -19.0877   20.5987 C   0  0  0  0  0  0  0  0  0  0  0  0
  -29.6808  -19.2771   22.3697 C   0  0  0  0  0  0  0  0  0  0  0  0
  -30.2468  -17.1051   21.4759 C   0  0  0  0  0  0  0  0  0  0  0  0
  -22.3421   -8.1412   21.4666 C   0  0  0  0  0  0  0  0  0  0  0  0
  -30.9304  -23.2439   18.3785 C   0  0  0  0  0  0  0  0  0  0  0  0
  -20.8651   -6.9755   22.8743 C   0  0  0  0  0  0  0  0  0  0  0  0
  -19.3500   -6.8979   25.2155 C   0  0  0  0  0  0  0  0  0  0  0  0
  -21.1075   -5.9884   23.8296 C   0  0  0  0  0  0  0  0  0  0  0  0
  -24.5969  -11.6389   20.7053 C   0  0  0  0  0  0  0  0  0  0  0  0
  -25.2604  -13.7228   20.4771 C   0  0  0  0  0  0  0  0  0  0  0  0
  -32.7751  -18.7626   17.3809 C   0  0  0  0  0  0  0  0  0  0  0  0
  -22.8975  -13.4885   21.2584 C   0  0  0  0  0  0  0  0  0  0  0  0
  -30.0671  -26.1398   22.8876 C   0  0  0  0  0  0  0  0  0  0  0  0
  -27.3479  -27.2634   21.5216 C   0  0  0  0  0  0  0  0  0  0  0  0
  -25.2361  -27.2576   18.8407 C   0  0  0  0  0  0  0  0  0  0  0  0
  -30.7258  -14.7726   20.6534 C   0  0  0  0  0  0  0  0  0  0  0  0
  -33.1501  -27.4783   26.7296 C   0  0  0  0  0  0  0  0  0  0  0  0
  -30.9127  -26.9062   20.6396 C   0  0  0  0  0  0  0  0  0  0  0  0
  -28.4468  -25.2927   20.3929 C   0  0  0  0  0  0  0  0  0  0  0  0
  -31.9891  -18.5439   16.1116 C   0  0  0  0  0  0  0  0  0  0  0  0
  -31.6801  -27.6984   26.3820 C   0  0  0  0  0  0  0  0  0  0  0  0
  -30.8579  -19.5598   16.2118 C   0  0  0  0  0  0  0  0  0  0  0  0
  -29.6144  -12.3547   18.2879 C   0  0  0  0  0  0  0  0  0  0  0  0
  -31.0215  -26.3801   25.9882 C   0  0  0  0  0  0  0  0  0  0  0  0
  -28.1747  -12.0627   18.7171 C   0  0  0  0  0  0  0  0  0  0  0  0
  -30.5287  -12.5858   19.4898 C   0  0  0  0  0  0  0  0  0  0  0  0
  -28.6204  -13.3109   20.8689 C   0  0  0  0  0  0  0  0  0  0  0  0
  -31.6863  -25.7818   24.7425 C   0  0  1  0  0  0  0  0  0  0  0  0
  -29.7949  -26.9842   21.6750 C   0  0  1  0  0  0  0  0  0  0  0  0
  -27.6484  -13.1352   19.6908 C   0  0  2  0  0  0  0  0  0  0  0  0
  -30.6288  -19.7085   17.7117 C   0  0  2  0  0  0  0  0  0  0  0  0
  -29.7764  -20.9519   24.2615 C   0  0  0  0  0  0  0  0  0  0  0  0
  -23.0766  -28.2475   18.0321 C   0  0  0  0  0  0  0  0  0  0  0  0
  -25.7991  -25.3600   23.3349 C   0  0  0  0  0  0  0  0  0  0  0  0
  -23.8052  -25.6849   21.8562 C   0  0  0  0  0  0  0  0  0  0  0  0
  -24.7745  -27.6275   23.0847 C   0  0  0  0  0  0  0  0  0  0  0  0
  -26.5633  -28.5694   16.5437 C   0  0  0  0  0  0  0  0  0  0  0  0
  -32.2815  -19.7311   19.6487 C   0  0  0  0  0  0  0  0  0  0  0  0
  -30.0352  -21.0622   18.0708 C   0  0  0  0  0  0  0  0  0  1  0  0
  -28.8973  -20.1190   23.3193 C   0  0  1  0  0  0  0  0  0  0  0  0
  -26.0267  -26.6572   21.1143 C   0  0  1  0  0  0  0  0  0  0  0  0
  -24.5902  -28.3913   18.0648 C   0  0  2  0  0  0  0  0  0  0  0  0
  -25.1260  -26.3230   22.3367 C   0  0  0  0  0  0  0  0  0  0  0  0
  -25.8621  -11.5434   20.2878 N   0  0  0  0  0  0  0  0  0  0  0  0
  -26.2381  -12.8271   20.1579 N   0  0  0  0  0  0  0  0  0  0  0  0
  -31.9479  -19.4559   18.2649 N   0  0  0  0  0  0  0  0  0  0  0  0
  -28.4993  -26.5596   21.1410 N   0  0  0  0  0  0  0  0  0  0  0  0
  -29.9685  -13.6175   20.3654 N   0  0  0  0  0  0  0  0  0  0  0  0
  -25.4699  -15.0543   20.4024 N   0  0  0  0  0  0  0  0  0  0  0  0
  -21.8861  -12.5791   21.5963 N   0  0  0  0  0  0  0  0  0  0  0  0
  -30.0773  -15.6984   21.4702 N   0  0  0  0  0  0  0  0  0  0  0  0
  -31.2347  -26.4667   23.5503 N   0  0  0  0  0  0  0  0  0  0  0  0
  -25.4254  -27.5885   20.1659 N   0  0  0  0  0  0  0  0  0  0  0  0
  -27.9514  -21.0668   22.6362 N   0  3  0  0  0  0  0  0  0  0  0  0
  -25.0910  -28.4096   16.6613 N   0  3  0  0  0  0  0  0  0  0  0  0
  -33.9085  -18.3475   17.5736 O   0  0  0  0  0  0  0  0  0  0  0  0
  -22.6603  -14.7190   21.3138 O   0  0  0  0  0  0  0  0  0  0  0  0
  -29.2755  -25.2580   23.1998 O   0  0  0  0  0  0  0  0  0  0  0  0
  -27.3582  -28.3260   22.1480 O   0  0  0  0  0  0  0  0  0  0  0  0
  -25.5387  -26.1844   18.3239 O   0  0  0  0  0  0  0  0  0  0  0  0
  -31.8550  -14.9415   20.1862 O   0  0  0  0  0  0  0  0  0  0  0  0
  -21.6168   -7.0159   21.7121 O   0  0  0  0  0  0  0  0  0  0  0  0
  -30.9365  -22.0889   17.6588 O   0  0  0  0  0  0  0  0  0  1  0  0
  -18.6234   -6.8617   26.3402 F   0  0  0  0  0  0  0  0  0  0  0  0
  -22.0676   -5.0753   23.6287 F   0  0  0  0  0  0  0  0  0  0  0  0
  1  2  1  0  0  0  0
  1  5  2  0  0  0  0
  2  6  2  0  0  0  0
  3  8  2  0  0  0  0
  3 18  1  0  0  0  0
  4  9  1  0  0  0  0
  4 18  2  0  0  0  0
  5 20  1  0  0  0  0
  6 22  1  0  0  0  0
  7 10  2  0  0  0  0
  7 21  1  0  0  0  0
  8 27  1  0  0  0  0
  9 27  2  0  0  0  0
 10 28  1  0  0  0  0
 11 12  2  0  0  0  0
 11 29  1  0  0  0  0
 12 30  1  0  0  0  0
 13 23  1  0  0  0  0
 13 28  2  0  0  0  0
 14 24  2  0  0  0  0
 14 25  1  0  0  0  0
 15 24  1  0  0  0  0
 15 26  2  0  0  0  0
 16 25  2  0  0  0  0
 16 26  1  0  0  0  0
 17 30  2  0  0  0  0
 17 31  1  0  0  0  0
 18 32  1  0  0  0  0
 19 32  1  0  0  0  0
 19 33  2  0  0  0  0
 19 35  1  0  0  0  0
 20 22  2  0  0  0  0
 20 40  1  0  0  0  0
 21 23  2  0  0  0  0
 21 41  1  0  0  0  0
 22 51  1  0  0  0  0
 23 42  1  0  0  0  0
 24 61  1  0  0  0  0
 25 63  1  0  0  0  0
 26 74  1  0  0  0  0
 27 85  1  0  0  0  0
 28 86  1  0  0  0  0
 29 31  2  0  0  0  0
 29 85  1  0  0  0  0
 30 87  1  0  0  0  0
 31 88  1  0  0  0  0
 32 67  2  0  0  0  0
 33 68  1  0  0  0  0
 33 72  1  0  0  0  0
 34 43  1  0  0  0  0
 34 69  1  0  0  0  0
 34 79  2  0  0  0  0
 35 73  1  0  0  0  0
 35 80  2  0  0  0  0
 36 52  1  0  0  0  0
 36 75  1  0  0  0  0
 36 81  2  0  0  0  0
 37 64  1  0  0  0  0
 37 70  1  0  0  0  0
 37 82  2  0  0  0  0
 38 65  1  0  0  0  0
 38 76  1  0  0  0  0
 38 83  2  0  0  0  0
 39 71  1  0  0  0  0
 39 74  1  0  0  0  0
 39 84  2  0  0  0  0
 40 44  1  0  0  0  0
 41 52  1  0  0  0  0
 42 70  1  0  0  0  0
 43 45  1  0  0  0  0
 44 47  1  0  0  0  0
 45 54  1  0  0  0  0
 46 48  1  0  0  0  0
 46 49  1  0  0  0  0
 47 51  1  0  0  0  0
 48 53  1  0  0  0  0
 49 71  1  0  0  0  0
 50 53  1  0  0  0  0
 50 71  1  0  0  0  0
 51 75  1  0  0  0  0
 52 70  1  0  0  0  0
 53 68  1  0  0  0  0
 54 62  1  0  0  0  0
 54 69  1  0  0  0  0
 55 63  1  0  0  0  0
 56 65  1  0  0  0  0
 57 66  1  0  0  0  0
 58 66  1  0  0  0  0
 59 66  1  0  0  0  0
 60 78  1  0  0  0  0
 61 69  1  0  0  0  0
 62 86  1  0  0  0  0
 63 77  1  0  0  0  0
 64 66  1  0  0  0  0
 64 76  1  0  0  0  0
 65 78  1  0  0  0  0
 67 68  1  0  0  0  0
M  CHG  2  77   1  78   1
M  ISO  4  39 100  62 101  74 100  86 101
M  END
> <Batch ID>
0105

> <Smiles>
CNC(C)C(=O)NC(C(=O)N1Cc2cc([101O:1][101CH2:1]C3CCC(=O)N3Cc3cc([100NH:0][100C:0](=O)N4CCCC(n5nc(-c6ccc(Oc7ccc(F)cc7F)cc6)c(C(N)=O)c5N)C4)cc(C(C)N)c3)ccc2CC1C(=O)NC1CCCc2ccccc21)C(C)(C)C

> <Shape>
0.265

> <Color>
0.184

> <Negative vol penalty>
0.000

$$$$

  -OEChem-04052301113D

 85 94  0     1  0  0  0  0  0999 V2000
  -22.6501  -23.0422   23.2962 C   0  0  0  0  0  0  0  0  0  0  0  0
  -23.5840  -22.6655   22.3364 C   0  0  0  0  0  0  0  0  0  0  0  0
  -26.7042  -25.5938   20.1346 C   0  0  0  0  0  0  0  0  0  0  0  0
  -29.0183  -26.2798   20.2418 C   0  0  0  0  0  0  0  0  0  0  0  0
  -22.3407  -22.1760   24.3439 C   0  0  0  0  0  0  0  0  0  0  0  0
  -24.2100  -21.4226   22.4245 C   0  0  0  0  0  0  0  0  0  0  0  0
  -26.8778  -16.2104   18.2974 C   0  0  0  0  0  0  0  0  0  0  0  0
  -33.2841  -17.2829   21.1687 C   0  0  0  0  0  0  0  0  0  0  0  0
  -32.4082  -15.7777   22.8433 C   0  0  0  0  0  0  0  0  0  0  0  0
  -32.9920  -16.3480   20.1756 C   0  0  0  0  0  0  0  0  0  0  0  0
  -32.1160  -14.8428   21.8502 C   0  0  0  0  0  0  0  0  0  0  0  0
  -26.3239  -26.9142   19.8946 C   0  0  0  0  0  0  0  0  0  0  0  0
  -28.6380  -27.6002   20.0018 C   0  0  0  0  0  0  0  0  0  0  0  0
  -28.0411  -15.4613   18.1259 C   0  0  0  0  0  0  0  0  0  0  0  0
  -25.8690  -29.7407   21.6914 C   0  0  0  0  0  0  0  0  0  0  0  0
  -24.7769  -30.2391   22.4017 C   0  0  0  0  0  0  0  0  0  0  0  0
  -27.3693  -14.0147   19.9356 C   0  0  0  0  0  0  0  0  0  0  0  0
  -23.6175  -30.6595   20.3242 C   0  0  0  0  0  0  0  0  0  0  0  0
  -28.0514  -25.2766   20.3083 C   0  0  0  0  0  0  0  0  0  0  0  0
  -28.7788  -22.9366   19.5993 C   0  0  0  0  0  0  0  0  0  0  0  0
  -22.9561  -20.9179   24.4395 C   0  0  0  0  0  0  0  0  0  0  0  0
  -25.9552  -15.8731   19.2982 C   0  0  0  0  0  0  0  0  0  0  0  0
  -23.9096  -20.5392   23.4752 C   0  0  0  0  0  0  0  0  0  0  0  0
  -26.1939  -14.7595   20.1161 C   0  0  0  0  0  0  0  0  0  0  0  0
  -32.9922  -16.9977   22.5026 C   0  0  0  0  0  0  0  0  0  0  0  0
  -32.4079  -15.1280   20.5164 C   0  0  0  0  0  0  0  0  0  0  0  0
  -27.2907  -27.9174   19.8281 C   0  0  0  0  0  0  0  0  0  0  0  0
  -28.2884  -14.3651   18.9469 C   0  0  0  0  0  0  0  0  0  0  0  0
  -25.8353  -29.7017   20.2974 C   0  0  0  0  0  0  0  0  0  0  0  0
  -23.6512  -30.6985   21.7181 C   0  0  0  0  0  0  0  0  0  0  0  0
  -24.7096  -30.1611   19.6138 C   0  0  0  0  0  0  0  0  0  0  0  0
  -28.4448  -23.9130   20.5569 C   0  0  0  0  0  0  0  0  0  0  0  0
  -29.0770  -21.8183   20.3389 C   0  0  0  0  0  0  0  0  0  0  0  0
  -32.3455  -14.3187   18.1142 C   0  0  0  0  0  0  0  0  0  0  0  0
  -28.8163  -23.0320   18.1692 C   0  0  0  0  0  0  0  0  0  0  0  0
  -24.8181  -17.3305   21.8841 C   0  0  0  0  0  0  0  0  0  0  0  0
  -22.8722  -14.7384   22.0120 C   0  0  0  0  0  0  0  0  0  0  0  0
  -22.3380  -11.4727   21.1774 C   0  0  0  0  0  0  0  0  0  0  0  0
  -31.5861  -19.3885   24.6916 C   0  0  0  0  0  0  0  0  0  0  0  0
  -22.6243  -20.0350   25.6164 C   0  0  0  0  0  0  0  0  0  0  0  0
  -24.6922  -16.6752   19.4529 C   0  0  0  0  0  0  0  0  0  0  0  0
  -25.2253  -14.3436   21.1919 C   0  0  0  0  0  0  0  0  0  0  0  0
  -31.8889  -13.0505   17.4326 C   0  0  0  0  0  0  0  0  0  0  0  0
  -23.0556  -18.5827   25.4291 C   0  0  0  0  0  0  0  0  0  0  0  0
  -31.8386  -12.0403   18.5632 C   0  0  0  0  0  0  0  0  0  0  0  0
  -28.3838  -20.8398   25.2530 C   0  0  0  0  0  0  0  0  0  0  0  0
  -24.4830  -18.5144   24.8954 C   0  0  0  0  0  0  0  0  0  0  0  0
  -28.1449  -21.6925   24.0057 C   0  0  0  0  0  0  0  0  0  0  0  0
  -29.8510  -20.8571   25.6760 C   0  0  0  0  0  0  0  0  0  0  0  0
  -30.5669  -21.3390   23.3675 C   0  0  0  0  0  0  0  0  0  0  0  0
  -24.5916  -19.1891   23.5227 C   0  0  1  0  0  0  0  0  0  0  0  0
  -24.0708  -16.5495   20.8405 C   0  0  1  0  0  0  0  0  0  0  0  0
  -29.1118  -21.3078   22.8698 C   0  0  2  0  0  0  0  0  0  0  0  0
  -31.4806  -12.8808   19.7838 C   0  0  2  0  0  0  0  0  0  0  0  0
  -20.6736   -9.6153   21.4556 C   0  0  0  0  0  0  0  0  0  0  0  0
  -23.8077  -14.3340   24.8880 C   0  0  0  0  0  0  0  0  0  0  0  0
  -22.8880  -12.0076   24.7864 C   0  0  0  0  0  0  0  0  0  0  0  0
  -21.3613  -13.9630   24.5249 C   0  0  0  0  0  0  0  0  0  0  0  0
  -21.9081  -11.2643   18.2567 C   0  0  0  0  0  0  0  0  0  0  0  0
  -33.3047  -17.9974   23.5643 C   0  0  0  0  0  0  0  0  0  0  0  0
  -29.9633  -13.0012   19.9423 C   0  0  0  0  0  0  0  0  0  1  0  0
  -22.9515  -13.3725   22.6501 C   0  0  1  0  0  0  0  0  0  0  0  0
  -21.1326  -10.7701   20.5790 C   0  0  2  0  0  0  0  0  0  0  0  0
  -22.7715  -13.4280   24.1934 C   0  0  0  0  0  0  0  0  0  0  0  0
  -28.5231  -23.4551   21.8092 N   0  0  0  0  0  0  0  0  0  0  0  0
  -28.9096  -22.1787   21.6436 N   0  0  0  0  0  0  0  0  0  0  0  0
  -32.1076  -14.1681   19.4970 N   0  0  0  0  0  0  0  0  0  0  0  0
  -24.0078  -15.1633   21.3081 N   0  0  0  0  0  0  0  0  0  0  0  0
  -30.7147  -20.4815   24.5539 N   0  0  0  0  0  0  0  0  0  0  0  0
  -29.4633  -20.5716   19.9939 N   0  0  0  0  0  0  0  0  0  0  0  0
  -28.4807  -24.2548   17.5722 N   0  0  0  0  0  0  0  0  0  0  0  0
  -24.0685  -18.3207   22.4899 N   0  0  0  0  0  0  0  0  0  0  0  0
  -21.9671  -12.5433   21.9632 N   0  0  0  0  0  0  0  0  0  0  0  0
  -32.3649  -19.0962   23.5785 N   0  0  0  0  0  0  0  0  0  0  0  0
  -21.4637  -10.2327   19.2290 N   0  3  0  0  0  0  0  0  0  0  0  0
  -32.7996  -15.2660   17.4889 O   0  0  0  0  0  0  0  0  0  0  0  0
  -29.1220  -22.0570   17.4417 O   0  0  0  0  0  0  0  0  0  0  0  0
  -25.9878  -17.0542   22.1231 O   0  0  0  0  0  0  0  0  0  0  0  0
  -21.8380  -15.4008   22.1277 O   0  0  0  0  0  0  0  0  0  0  0  0
  -23.4928  -11.1059   20.9717 O   0  0  0  0  0  0  0  0  0  0  0  0
  -31.6605  -18.7192   25.7276 O   0  0  0  0  0  0  0  0  0  0  0  0
  -26.9200  -29.2058   19.5937 O   0  0  0  0  0  0  0  0  0  0  0  0
  -29.4234  -13.6326   18.7820 O   0  0  0  0  0  0  0  0  0  1  0  0
  -22.6019  -31.1757   22.4004 F   0  0  0  0  0  0  0  0  0  0  0  0
  -24.6710  -30.1250   18.2748 F   0  0  0  0  0  0  0  0  0  0  0  0
  1  2  1  0  0  0  0
  1  5  2  0  0  0  0
  2  6  2  0  0  0  0
  3 12  2  0  0  0  0
  3 19  1  0  0  0  0
  4 13  1  0  0  0  0
  4 19  2  0  0  0  0
  5 21  1  0  0  0  0
  6 23  1  0  0  0  0
  7 14  2  0  0  0  0
  7 22  1  0  0  0  0
  8 10  2  0  0  0  0
  8 25  1  0  0  0  0
  9 11  1  0  0  0  0
  9 25  2  0  0  0  0
 10 26  1  0  0  0  0
 11 26  2  0  0  0  0
 12 27  1  0  0  0  0
 13 27  2  0  0  0  0
 14 28  1  0  0  0  0
 15 16  2  0  0  0  0
 15 29  1  0  0  0  0
 16 30  1  0  0  0  0
 17 24  1  0  0  0  0
 17 28  2  0  0  0  0
 18 30  2  0  0  0  0
 18 31  1  0  0  0  0
 19 32  1  0  0  0  0
 20 32  1  0  0  0  0
 20 33  2  0  0  0  0
 20 35  1  0  0  0  0
 21 23  2  0  0  0  0
 21 40  1  0  0  0  0
 22 24  2  0  0  0  0
 22 41  1  0  0  0  0
 23 51  1  0  0  0  0
 24 42  1  0  0  0  0
 25 60  1  0  0  0  0
 26 67  1  0  0  0  0
 27 82  1  0  0  0  0
 28 83  1  0  0  0  0
 29 31  2  0  0  0  0
 29 82  1  0  0  0  0
 30 84  1  0  0  0  0
 31 85  1  0  0  0  0
 32 65  2  0  0  0  0
 33 66  1  0  0  0  0
 33 70  1  0  0  0  0
 34 43  1  0  0  0  0
 34 67  1  0  0  0  0
 34 76  2  0  0  0  0
 35 71  1  0  0  0  0
 35 77  2  0  0  0  0
 36 52  1  0  0  0  0
 36 72  1  0  0  0  0
 36 78  2  0  0  0  0
 37 62  1  0  0  0  0
 37 68  1  0  0  0  0
 37 79  2  0  0  0  0
 38 63  1  0  0  0  0
 38 73  1  0  0  0  0
 38 80  2  0  0  0  0
 39 69  1  0  0  0  0
 39 74  1  0  0  0  0
 39 81  2  0  0  0  0
 40 44  1  0  0  0  0
 41 52  1  0  0  0  0
 42 68  1  0  0  0  0
 43 45  1  0  0  0  0
 44 47  1  0  0  0  0
 45 54  1  0  0  0  0
 46 48  1  0  0  0  0
 46 49  1  0  0  0  0
 47 51  1  0  0  0  0
 48 53  1  0  0  0  0
 49 69  1  0  0  0  0
 50 53  1  0  0  0  0
 50 69  1  0  0  0  0
 51 72  1  0  0  0  0
 52 68  1  0  0  0  0
 53 66  1  0  0  0  0
 54 61  1  0  0  0  0
 54 67  1  0  0  0  0
 55 63  1  0  0  0  0
 56 64  1  0  0  0  0
 57 64  1  0  0  0  0
 58 64  1  0  0  0  0
 59 75  1  0  0  0  0
 60 74  1  0  0  0  0
 61 83  1  0  0  0  0
 62 64  1  0  0  0  0
 62 73  1  0  0  0  0
 63 75  1  0  0  0  0
 65 66  1  0  0  0  0
M  CHG  1  75   1
M  ISO  4  39 100  61 101  74 100  83 101
M  END
> <Batch ID>
0105

> <Smiles>
CNC(C)C(=O)NC(C(=O)N1Cc2cc([101O:1][101CH2:1]C3CCC(=O)N3c3ccc(C[100NH:0][100C:0](=O)N4CCCC(n5nc(-c6ccc(Oc7ccc(F)cc7F)cc6)c(C(N)=O)c5N)C4)cc3)ccc2CC1C(=O)NC1CCCc2ccccc21)C(C)(C)C

> <Shape>
0.203

> <Color>
0.056

> <Negative vol penalty>
0.000

$$$$

  -OEChem-04052301113D

 87 96  0     1  0  0  0  0  0999 V2000
  -17.4043  -11.1985   22.7884 C   0  0  0  0  0  0  0  0  0  0  0  0
  -17.7276  -12.4205   22.2073 C   0  0  0  0  0  0  0  0  0  0  0  0
  -27.4036  -28.5250   22.6647 C   0  0  0  0  0  0  0  0  0  0  0  0
  -27.8791  -30.0075   20.8172 C   0  0  0  0  0  0  0  0  0  0  0  0
  -18.3668  -10.4959   23.5122 C   0  0  0  0  0  0  0  0  0  0  0  0
  -19.0132  -12.9411   22.3505 C   0  0  0  0  0  0  0  0  0  0  0  0
  -22.1343  -16.2277   18.2319 C   0  0  0  0  0  0  0  0  0  0  0  0
  -25.9481  -21.8737   18.5824 C   0  0  0  0  0  0  0  0  0  0  0  0
  -27.3007  -21.6071   18.7946 C   0  0  0  0  0  0  0  0  0  0  0  0
  -27.5981  -29.5774   23.5592 C   0  0  0  0  0  0  0  0  0  0  0  0
  -28.0736  -31.0599   21.7118 C   0  0  0  0  0  0  0  0  0  0  0  0
  -22.3402  -17.5990   18.0876 C   0  0  0  0  0  0  0  0  0  0  0  0
  -25.8576  -32.2538   24.6730 C   0  0  0  0  0  0  0  0  0  0  0  0
  -24.9274  -32.4117   25.7003 C   0  0  0  0  0  0  0  0  0  0  0  0
  -24.4431  -17.3997   19.2527 C   0  0  0  0  0  0  0  0  0  0  0  0
  -26.9296  -21.6238   21.1819 C   0  0  0  0  0  0  0  0  0  0  0  0
  -26.6824  -32.1177   27.3346 C   0  0  0  0  0  0  0  0  0  0  0  0
  -27.5442  -28.7400   21.2937 C   0  0  0  0  0  0  0  0  0  0  0  0
  -26.1367  -27.2728   19.7529 C   0  0  0  0  0  0  0  0  0  0  0  0
  -19.6676  -11.0035   23.6563 C   0  0  0  0  0  0  0  0  0  0  0  0
  -23.0776  -15.4325   18.8985 C   0  0  0  0  0  0  0  0  0  0  0  0
  -19.9936  -12.2452   23.0781 C   0  0  0  0  0  0  0  0  0  0  0  0
  -24.2479  -16.0182   19.4020 C   0  0  0  0  0  0  0  0  0  0  0  0
  -25.0862  -22.0154   19.6700 C   0  0  0  0  0  0  0  0  0  0  0  0
  -27.7915  -21.4821   20.0943 C   0  0  0  0  0  0  0  0  0  0  0  0
  -27.9330  -30.8449   23.0828 C   0  0  0  0  0  0  0  0  0  0  0  0
  -23.4934  -18.1857   18.6005 C   0  0  0  0  0  0  0  0  0  0  0  0
  -27.2002  -32.0278   24.9764 C   0  0  0  0  0  0  0  0  0  0  0  0
  -25.3398  -32.3436   27.0311 C   0  0  0  0  0  0  0  0  0  0  0  0
  -25.5770  -21.8904   20.9697 C   0  0  0  0  0  0  0  0  0  0  0  0
  -27.6126  -31.9597   26.3072 C   0  0  0  0  0  0  0  0  0  0  0  0
  -27.3439  -27.6532   20.3691 C   0  0  0  0  0  0  0  0  0  0  0  0
  -26.4744  -26.1938   18.9730 C   0  0  0  0  0  0  0  0  0  0  0  0
  -22.8448  -23.0146   20.3077 C   0  0  0  0  0  0  0  0  0  0  0  0
  -24.8272  -27.8437   19.8745 C   0  0  0  0  0  0  0  0  0  0  0  0
  -23.0426  -13.6292   21.5158 C   0  0  0  0  0  0  0  0  0  0  0  0
  -26.0273  -12.8263   20.5310 C   0  0  0  0  0  0  0  0  0  0  0  0
  -28.8039  -13.6545   18.7278 C   0  0  0  0  0  0  0  0  0  0  0  0
  -30.2074  -21.6296   19.4367 C   0  0  0  0  0  0  0  0  0  0  0  0
  -20.6606  -10.2305   24.4877 C   0  0  0  0  0  0  0  0  0  0  0  0
  -22.8533  -13.9504   19.0224 C   0  0  0  0  0  0  0  0  0  0  0  0
  -25.3011  -15.2052   20.1080 C   0  0  0  0  0  0  0  0  0  0  0  0
  -21.4818  -23.0653   19.6589 C   0  0  0  0  0  0  0  0  0  0  0  0
  -22.1065  -10.6721   24.2765 C   0  0  0  0  0  0  0  0  0  0  0  0
  -21.7707  -22.7450   18.2046 C   0  0  0  0  0  0  0  0  0  0  0  0
  -30.6559  -24.4186   17.0464 C   0  0  0  0  0  0  0  0  0  0  0  0
  -22.2108  -12.1935   24.3138 C   0  0  0  0  0  0  0  0  0  0  0  0
  -29.7994  -25.5277   17.6546 C   0  0  0  0  0  0  0  0  0  0  0  0
  -31.1962  -23.4710   18.1130 C   0  0  0  0  0  0  0  0  0  0  0  0
  -29.2726  -23.9885   19.5872 C   0  0  0  0  0  0  0  0  0  0  0  0
  -21.3844  -12.8309   23.1903 C   0  0  1  0  0  0  0  0  0  0  0  0
  -23.6368  -13.3214   20.1704 C   0  0  1  0  0  0  0  0  0  0  0  0
  -28.6832  -24.9332   18.5290 C   0  0  1  0  0  0  0  0  0  0  0  0
  -22.9767  -21.8146   18.2715 C   0  0  2  0  0  0  0  0  0  0  0  0
  -29.3542  -18.8092   20.8568 C   0  0  0  0  0  0  0  0  0  0  0  0
  -31.0963  -12.8166   18.1448 C   0  0  0  0  0  0  0  0  0  0  0  0
  -27.0211  -13.6236   23.3034 C   0  0  0  0  0  0  0  0  0  0  0  0
  -29.3464  -13.6801   22.3773 C   0  0  0  0  0  0  0  0  0  0  0  0
  -28.0590  -11.5435   22.3815 C   0  0  0  0  0  0  0  0  0  0  0  0
  -28.1620  -13.5614   15.8402 C   0  0  0  0  0  0  0  0  0  0  0  0
  -22.5378  -20.3554   18.4136 C   0  0  0  0  0  0  0  0  0  1  0  0
  -29.5427  -20.2318   21.3435 C   0  0  0  0  0  0  0  0  0  0  0  0
  -27.4138  -13.3760   20.7637 C   0  0  1  0  0  0  0  0  0  0  0  0
  -29.6329  -12.8614   17.7337 C   0  0  2  0  0  0  0  0  0  0  0  0
  -27.9395  -13.0717   22.1949 C   0  0  0  0  0  0  0  0  0  0  0  0
  -28.3718  -26.8787   20.0116 N   0  0  0  0  0  0  0  0  0  0  0  0
  -27.8113  -26.0008   19.1623 N   0  0  0  0  0  0  0  0  0  0  0  0
  -23.6981  -22.2892   19.4492 N   0  0  0  0  0  0  0  0  0  0  0  0
  -25.0330  -13.7612   20.2096 N   0  0  0  0  0  0  0  0  0  0  0  0
  -30.1298  -22.9599   18.9756 N   0  0  0  0  0  0  0  0  0  0  0  0
  -25.7553  -25.4008   18.1506 N   0  0  0  0  0  0  0  0  0  0  0  0
  -24.6561  -28.9494   20.7187 N   0  0  0  0  0  0  0  0  0  0  0  0
  -22.0823  -12.7246   21.9269 N   0  0  0  0  0  0  0  0  0  0  0  0
  -28.2496  -12.8417   19.6939 N   0  0  0  0  0  0  0  0  0  0  0  0
  -29.1903  -21.2064   20.3134 N   0  0  0  0  0  0  0  0  0  0  0  0
  -29.5439  -13.4754   16.3787 N   0  3  0  0  0  0  0  0  0  0  0  0
  -23.0641  -23.5169   21.4005 O   0  0  0  0  0  0  0  0  0  0  0  0
  -23.8348  -27.3768   19.2658 O   0  0  0  0  0  0  0  0  0  0  0  0
  -23.4281  -14.6135   22.1356 O   0  0  0  0  0  0  0  0  0  0  0  0
  -25.8350  -11.6114   20.6237 O   0  0  0  0  0  0  0  0  0  0  0  0
  -28.6651  -14.8736   18.6567 O   0  0  0  0  0  0  0  0  0  0  0  0
  -31.1484  -20.8858   19.1333 O   0  0  0  0  0  0  0  0  0  0  0  0
  -28.1227  -31.8721   23.9554 O   0  0  0  0  0  0  0  0  0  0  0  0
  -23.6966  -19.5241   18.4616 O   0  0  0  0  0  0  0  0  0  1  0  0
  -24.4467  -32.4968   28.0175 F   0  0  0  0  0  0  0  0  0  0  0  0
  -24.7579  -22.0253   22.0227 F   0  0  0  0  0  0  0  0  0  0  0  0
  -28.9013  -31.7440   26.6049 F   0  0  0  0  0  0  0  0  0  0  0  0
  1  2  1  0  0  0  0
  1  5  2  0  0  0  0
  2  6  2  0  0  0  0
  3 10  2  0  0  0  0
  3 18  1  0  0  0  0
  4 11  1  0  0  0  0
  4 18  2  0  0  0  0
  5 20  1  0  0  0  0
  6 22  1  0  0  0  0
  7 12  2  0  0  0  0
  7 21  1  0  0  0  0
  8  9  2  0  0  0  0
  8 24  1  0  0  0  0
  9 25  1  0  0  0  0
 10 26  1  0  0  0  0
 11 26  2  0  0  0  0
 12 27  1  0  0  0  0
 13 14  2  0  0  0  0
 13 28  1  0  0  0  0
 14 29  1  0  0  0  0
 15 23  1  0  0  0  0
 15 27  2  0  0  0  0
 16 25  2  0  0  0  0
 16 30  1  0  0  0  0
 17 29  2  0  0  0  0
 17 31  1  0  0  0  0
 18 32  1  0  0  0  0
 19 32  1  0  0  0  0
 19 33  2  0  0  0  0
 19 35  1  0  0  0  0
 20 22  2  0  0  0  0
 20 40  1  0  0  0  0
 21 23  2  0  0  0  0
 21 41  1  0  0  0  0
 22 51  1  0  0  0  0
 23 42  1  0  0  0  0
 24 30  2  0  0  0  0
 24 68  1  0  0  0  0
 25 75  1  0  0  0  0
 26 83  1  0  0  0  0
 27 84  1  0  0  0  0
 28 31  2  0  0  0  0
 28 83  1  0  0  0  0
 29 85  1  0  0  0  0
 30 86  1  0  0  0  0
 31 87  1  0  0  0  0
 32 66  2  0  0  0  0
 33 67  1  0  0  0  0
 33 71  1  0  0  0  0
 34 43  1  0  0  0  0
 34 68  1  0  0  0  0
 34 77  2  0  0  0  0
 35 72  1  0  0  0  0
 35 78  2  0  0  0  0
 36 52  1  0  0  0  0
 36 73  1  0  0  0  0
 36 79  2  0  0  0  0
 37 63  1  0  0  0  0
 37 69  1  0  0  0  0
 37 80  2  0  0  0  0
 38 64  1  0  0  0  0
 38 74  1  0  0  0  0
 38 81  2  0  0  0  0
 39 70  1  0  0  0  0
 39 75  1  0  0  0  0
 39 82  2  0  0  0  0
 40 44  1  0  0  0  0
 41 52  1  0  0  0  0
 42 69  1  0  0  0  0
 43 45  1  0  0  0  0
 44 47  1  0  0  0  0
 45 54  1  0  0  0  0
 46 48  1  0  0  0  0
 46 49  1  0  0  0  0
 47 51  1  0  0  0  0
 48 53  1  0  0  0  0
 49 70  1  0  0  0  0
 50 53  1  0  0  0  0
 50 70  1  0  0  0  0
 51 73  1  0  0  0  0
 52 69  1  0  0  0  0
 53 67  1  0  0  0  0
 54 61  1  0  0  0  0
 54 68  1  0  0  0  0
 55 62  1  0  0  0  0
 56 64  1  0  0  0  0
 57 65  1  0  0  0  0
 58 65  1  0  0  0  0
 59 65  1  0  0  0  0
 60 76  1  0  0  0  0
 61 84  1  0  0  0  0
 62 75  1  0  0  0  0
 63 65  1  0  0  0  0
 63 74  1  0  0  0  0
 64 76  1  0  0  0  0
 66 67  1  0  0  0  0
M  CHG  1  76   1
M  ISO  4  39 100  61 101  75 100  84 101
M  END
> <Batch ID>
0105

> <Smiles>
CC[100N:0](c1ccc(N2C(=O)CCC2[101CH2:1][101O:1]c2ccc3c(c2)CN(C(=O)C(NC(=O)C(C)NC)C(C)(C)C)C(C(=O)NC2CCCc4ccccc42)C3)c(F)c1)[100C:0](=O)N1CCCC(n2nc(-c3ccc(Oc4ccc(F)cc4F)cc3)c(C(N)=O)c2N)C1

> <Shape>
0.259

> <Color>
0.058

> <Negative vol penalty>
0.000

$$$$

  -OEChem-04052301113D

 88 97  0     1  0  0  0  0  0999 V2000
  -17.4674  -30.9153   24.5563 C   0  0  0  0  0  0  0  0  0  0  0  0
  -17.6611  -30.9350   23.1788 C   0  0  0  0  0  0  0  0  0  0  0  0
  -23.0622  -10.1303   21.9781 C   0  0  0  0  0  0  0  0  0  0  0  0
  -23.9600   -9.3855   19.8624 C   0  0  0  0  0  0  0  0  0  0  0  0
  -28.0229  -19.2233   16.4183 C   0  0  0  0  0  0  0  0  0  0  0  0
  -26.9430  -17.0893   16.0766 C   0  0  0  0  0  0  0  0  0  0  0  0
  -18.5634  -30.8099   25.4117 C   0  0  0  0  0  0  0  0  0  0  0  0
  -18.9510  -30.8504   22.6559 C   0  0  0  0  0  0  0  0  0  0  0  0
  -20.7868  -25.5341   18.1550 C   0  0  0  0  0  0  0  0  0  0  0  0
  -26.9107  -19.8720   15.8819 C   0  0  0  0  0  0  0  0  0  0  0  0
  -25.8307  -17.7380   15.5403 C   0  0  0  0  0  0  0  0  0  0  0  0
  -22.3775   -8.9226   22.1127 C   0  0  0  0  0  0  0  0  0  0  0  0
  -23.2753   -8.1777   19.9970 C   0  0  0  0  0  0  0  0  0  0  0  0
  -21.1557  -24.6694   17.1244 C   0  0  0  0  0  0  0  0  0  0  0  0
  -23.0880   -5.7442   23.0215 C   0  0  0  0  0  0  0  0  0  0  0  0
  -23.1351   -5.1070   24.2614 C   0  0  0  0  0  0  0  0  0  0  0  0
  -23.3956  -25.5806   17.1472 C   0  0  0  0  0  0  0  0  0  0  0  0
  -20.7293   -5.2527   24.4278 C   0  0  0  0  0  0  0  0  0  0  0  0
  -23.8534  -10.3618   20.8529 C   0  0  0  0  0  0  0  0  0  0  0  0
  -28.0391  -17.8319   16.5156 C   0  0  0  0  0  0  0  0  0  0  0  0
  -24.0034  -12.9012   20.6618 C   0  0  0  0  0  0  0  0  0  0  0  0
  -19.8666  -30.7143   24.8988 C   0  0  0  0  0  0  0  0  0  0  0  0
  -21.7262  -26.4158   18.6968 C   0  0  0  0  0  0  0  0  0  0  0  0
  -20.0655  -30.7450   23.5053 C   0  0  0  0  0  0  0  0  0  0  0  0
  -23.0353  -26.4404   18.1882 C   0  0  0  0  0  0  0  0  0  0  0  0
  -25.8146  -19.1294   15.4429 C   0  0  0  0  0  0  0  0  0  0  0  0
  -22.4840   -7.9463   21.1222 C   0  0  0  0  0  0  0  0  0  0  0  0
  -22.4568  -24.6927   16.6216 C   0  0  0  0  0  0  0  0  0  0  0  0
  -21.8614   -6.1357   22.4848 C   0  0  0  0  0  0  0  0  0  0  0  0
  -21.9558   -4.8612   24.9645 C   0  0  0  0  0  0  0  0  0  0  0  0
  -20.6821   -5.8899   23.1879 C   0  0  0  0  0  0  0  0  0  0  0  0
  -24.5605  -11.6094   20.7130 C   0  0  0  0  0  0  0  0  0  0  0  0
  -25.0850  -13.7364   20.5241 C   0  0  0  0  0  0  0  0  0  0  0  0
  -23.0256  -21.5535   14.9336 C   0  0  0  0  0  0  0  0  0  0  0  0
  -23.8913  -20.7331   15.5773 C   0  0  0  0  0  0  0  0  0  0  0  0
  -22.9584  -21.4758   13.4356 C   0  0  0  0  0  0  0  0  0  0  0  0
  -29.2236  -17.1410   17.0869 C   0  0  0  0  0  0  0  0  0  0  0  0
  -22.6309  -13.3097   20.7326 C   0  0  0  0  0  0  0  0  0  0  0  0
  -22.4534  -29.0999   21.2152 C   0  0  0  0  0  0  0  0  0  0  0  0
  -24.9020  -27.2533   21.1490 C   0  0  0  0  0  0  0  0  0  0  0  0
  -27.6964  -25.4383   21.8800 C   0  0  0  0  0  0  0  0  0  0  0  0
  -29.9508  -15.0737   18.2363 C   0  0  0  0  0  0  0  0  0  0  0  0
  -21.0237  -30.6496   25.8641 C   0  0  0  0  0  0  0  0  0  0  0  0
  -21.3566  -27.4078   19.7659 C   0  0  0  0  0  0  0  0  0  0  0  0
  -24.0029  -27.4296   18.7781 C   0  0  0  0  0  0  0  0  0  0  0  0
  -23.9476  -20.5926   12.7142 C   0  0  0  0  0  0  0  0  0  0  0  0
  -22.3285  -30.1871   25.2207 C   0  0  0  0  0  0  0  0  0  0  0  0
  -30.0456  -12.8036   20.9445 C   0  0  0  0  0  0  0  0  0  0  0  0
  -22.5661  -30.9239   23.9064 C   0  0  0  0  0  0  0  0  0  0  0  0
  -28.5801  -12.4006   21.1294 C   0  0  0  0  0  0  0  0  0  0  0  0
  -24.3199  -19.3726   13.5383 C   0  0  0  0  0  0  0  0  0  0  0  0
  -30.4061  -12.9717   19.4692 C   0  0  0  0  0  0  0  0  0  0  0  0
  -28.0633  -13.4610   18.8950 C   0  0  0  0  0  0  0  0  0  0  0  0
  -21.4475  -30.6305   22.8994 C   0  0  1  0  0  0  0  0  0  0  0  0
  -22.4961  -27.6685   20.7673 C   0  0  1  0  0  0  0  0  0  0  0  0
  -27.6324  -13.3477   20.3663 C   0  0  1  0  0  0  0  0  0  0  0  0
  -23.9477  -20.7332   17.0928 C   0  0  0  0  0  0  0  0  0  0  0  0
  -30.0242  -25.6843   22.7847 C   0  0  0  0  0  0  0  0  0  0  0  0
  -25.8048  -28.4471   18.4912 C   0  0  0  0  0  0  0  0  0  0  0  0
  -28.1495  -27.7906   19.0738 C   0  0  0  0  0  0  0  0  0  0  0  0
  -26.9207  -29.4221   20.5058 C   0  0  0  0  0  0  0  0  0  0  0  0
  -27.1275  -23.6334   24.1555 C   0  0  0  0  0  0  0  0  0  0  0  0
  -22.1350  -22.5875   15.5624 C   0  0  0  0  0  0  0  0  0  1  0  0
  -26.2655  -26.9809   20.5658 C   0  0  1  0  0  0  0  0  0  0  0  0
  -28.5704  -25.3898   23.1203 C   0  0  2  0  0  0  0  0  0  0  0  0
  -26.7644  -28.1407   19.6583 C   0  0  0  0  0  0  0  0  0  0  0  0
  -25.8926  -11.6181   20.6155 N   0  0  0  0  0  0  0  0  0  0  0  0
  -26.1816  -12.9257   20.5017 N   0  0  0  0  0  0  0  0  0  0  0  0
  -24.6833  -19.7893   14.8973 N   0  0  0  0  0  0  0  0  0  0  0  0
  -23.8566  -27.4639   20.2417 N   0  0  0  0  0  0  0  0  0  0  0  0
  -29.4680  -13.8901   18.8213 N   0  0  0  0  0  0  0  0  0  0  0  0
  -25.1957  -15.0779   20.4212 N   0  0  0  0  0  0  0  0  0  0  0  0
  -21.9022  -13.4131   19.5398 N   0  0  0  0  0  0  0  0  0  0  0  0
  -28.9710  -15.9043   17.6811 N   0  0  0  0  0  0  0  0  0  0  0  0
  -21.6330  -29.3244   22.3043 N   0  0  0  0  0  0  0  0  0  0  0  0
  -27.1411  -26.6868   21.6950 N   0  0  0  0  0  0  0  0  0  0  0  0
  -28.4977  -24.0424   23.7529 N   0  3  0  0  0  0  0  0  0  0  0  0
  -22.1527  -22.1590   12.8042 O   0  0  0  0  0  0  0  0  0  0  0  0
  -30.3308  -17.6598   16.9736 O   0  0  0  0  0  0  0  0  0  0  0  0
  -22.0720  -13.5910   21.8198 O   0  0  0  0  0  0  0  0  0  0  0  0
  -23.1167  -29.9398   20.6184 O   0  0  0  0  0  0  0  0  0  0  0  0
  -24.7659  -27.2848   22.3752 O   0  0  0  0  0  0  0  0  0  0  0  0
  -27.5264  -24.4669   21.1465 O   0  0  0  0  0  0  0  0  0  0  0  0
  -31.1464  -15.3832   18.2415 O   0  0  0  0  0  0  0  0  0  0  0  0
  -21.8162   -6.7676   21.2533 O   0  0  0  0  0  0  0  0  0  0  0  0
  -22.8115  -23.8427   15.6184 O   0  0  0  0  0  0  0  0  0  1  0  0
  -22.0011   -4.2479   26.1544 F   0  0  0  0  0  0  0  0  0  0  0  0
  -19.5007   -6.2627   22.6768 F   0  0  0  0  0  0  0  0  0  0  0  0
  1  2  1  0  0  0  0
  1  7  2  0  0  0  0
  2  8  2  0  0  0  0
  3 12  2  0  0  0  0
  3 19  1  0  0  0  0
  4 13  1  0  0  0  0
  4 19  2  0  0  0  0
  5 10  2  0  0  0  0
  5 20  1  0  0  0  0
  6 11  1  0  0  0  0
  6 20  2  0  0  0  0
  7 22  1  0  0  0  0
  8 24  1  0  0  0  0
  9 14  2  0  0  0  0
  9 23  1  0  0  0  0
 10 26  1  0  0  0  0
 11 26  2  0  0  0  0
 12 27  1  0  0  0  0
 13 27  2  0  0  0  0
 14 28  1  0  0  0  0
 15 16  2  0  0  0  0
 15 29  1  0  0  0  0
 16 30  1  0  0  0  0
 17 25  1  0  0  0  0
 17 28  2  0  0  0  0
 18 30  2  0  0  0  0
 18 31  1  0  0  0  0
 19 32  1  0  0  0  0
 20 37  1  0  0  0  0
 21 32  1  0  0  0  0
 21 33  2  0  0  0  0
 21 38  1  0  0  0  0
 22 24  2  0  0  0  0
 22 43  1  0  0  0  0
 23 25  2  0  0  0  0
 23 44  1  0  0  0  0
 24 54  1  0  0  0  0
 25 45  1  0  0  0  0
 26 69  1  0  0  0  0
 27 85  1  0  0  0  0
 28 86  1  0  0  0  0
 29 31  2  0  0  0  0
 29 85  1  0  0  0  0
 30 87  1  0  0  0  0
 31 88  1  0  0  0  0
 32 67  2  0  0  0  0
 33 68  1  0  0  0  0
 33 72  1  0  0  0  0
 34 35  2  0  0  0  0
 34 36  1  0  0  0  0
 34 63  1  0  0  0  0
 35 57  1  0  0  0  0
 35 69  1  0  0  0  0
 36 46  1  0  0  0  0
 36 78  2  0  0  0  0
 37 74  1  0  0  0  0
 37 79  2  0  0  0  0
 38 73  1  0  0  0  0
 38 80  2  0  0  0  0
 39 55  1  0  0  0  0
 39 75  1  0  0  0  0
 39 81  2  0  0  0  0
 40 64  1  0  0  0  0
 40 70  1  0  0  0  0
 40 82  2  0  0  0  0
 41 65  1  0  0  0  0
 41 76  1  0  0  0  0
 41 83  2  0  0  0  0
 42 71  1  0  0  0  0
 42 74  1  0  0  0  0
 42 84  2  0  0  0  0
 43 47  1  0  0  0  0
 44 55  1  0  0  0  0
 45 70  1  0  0  0  0
 46 51  1  0  0  0  0
 47 49  1  0  0  0  0
 48 50  1  0  0  0  0
 48 52  1  0  0  0  0
 49 54  1  0  0  0  0
 50 56  1  0  0  0  0
 51 69  1  0  0  0  0
 52 71  1  0  0  0  0
 53 56  1  0  0  0  0
 53 71  1  0  0  0  0
 54 75  1  0  0  0  0
 55 70  1  0  0  0  0
 56 68  1  0  0  0  0
 58 65  1  0  0  0  0
 59 66  1  0  0  0  0
 60 66  1  0  0  0  0
 61 66  1  0  0  0  0
 62 77  1  0  0  0  0
 63 86  1  0  0  0  0
 64 66  1  0  0  0  0
 64 76  1  0  0  0  0
 65 77  1  0  0  0  0
 67 68  1  0  0  0  0
M  CHG  1  77   1
M  ISO  4  42 100  63 101  74 100  86 101
M  END
> <Batch ID>
0105

> <Smiles>
CNC(C)C(=O)NC(C(=O)N1Cc2cc([101O:1][101CH2:1]C3=C(C)N(c4ccc(C(=O)[100NH:0][100C:0](=O)N5CCCC(n6nc(-c7ccc(Oc8ccc(F)cc8F)cc7)c(C(N)=O)c6N)C5)cc4)CCC3=O)ccc2CC1C(=O)NC1CCCc2ccccc21)C(C)(C)C

> <Shape>
0.228

> <Color>
0.174

> <Negative vol penalty>
0.000

$$$$

  -OEChem-04052301113D

 86 94  0     1  0  0  0  0  0999 V2000
  -25.7441  -11.1460   20.7428 C   0  0  0  0  0  0  0  0  0  0  0  0
  -26.1658  -12.0502   19.7732 C   0  0  0  0  0  0  0  0  0  0  0  0
  -18.9447  -28.7687   22.8737 C   0  0  0  0  0  0  0  0  0  0  0  0
  -20.3167  -26.7887   22.6880 C   0  0  0  0  0  0  0  0  0  0  0  0
  -24.7368  -11.5046   21.6376 C   0  0  0  0  0  0  0  0  0  0  0  0
  -25.5797  -13.3131   19.6972 C   0  0  0  0  0  0  0  0  0  0  0  0
  -28.3261  -18.5583   18.1317 C   0  0  0  0  0  0  0  0  0  0  0  0
  -17.7986  -27.9893   22.7163 C   0  0  0  0  0  0  0  0  0  0  0  0
  -19.1707  -26.0093   22.5306 C   0  0  0  0  0  0  0  0  0  0  0  0
  -28.3779  -19.2687   16.9331 C   0  0  0  0  0  0  0  0  0  0  0  0
  -16.7614  -24.6985   24.5049 C   0  0  0  0  0  0  0  0  0  0  0  0
  -16.6828  -23.5103   25.2312 C   0  0  0  0  0  0  0  0  0  0  0  0
  -26.5556  -20.6589   17.6855 C   0  0  0  0  0  0  0  0  0  0  0  0
  -29.4967  -25.6739   19.0556 C   0  0  0  0  0  0  0  0  0  0  0  0
  -29.7826  -26.0465   16.3057 C   0  0  0  0  0  0  0  0  0  0  0  0
  -16.5107  -22.2617   23.1700 C   0  0  0  0  0  0  0  0  0  0  0  0
  -20.2037  -28.1684   22.8595 C   0  0  0  0  0  0  0  0  0  0  0  0
  -21.7203  -29.7844   24.1228 C   0  0  0  0  0  0  0  0  0  0  0  0
  -24.1447  -12.7760   21.5787 C   0  0  0  0  0  0  0  0  0  0  0  0
  -27.3800  -18.8864   19.1133 C   0  0  0  0  0  0  0  0  0  0  0  0
  -24.5626  -13.6885   20.5912 C   0  0  0  0  0  0  0  0  0  0  0  0
  -26.4956  -19.9528   18.8967 C   0  0  0  0  0  0  0  0  0  0  0  0
  -29.6189  -26.9623   18.5354 C   0  0  0  0  0  0  0  0  0  0  0  0
  -29.7619  -27.1486   17.1605 C   0  0  0  0  0  0  0  0  0  0  0  0
  -17.9116  -26.6096   22.5448 C   0  0  0  0  0  0  0  0  0  0  0  0
  -27.4906  -20.3173   16.7087 C   0  0  0  0  0  0  0  0  0  0  0  0
  -16.7146  -24.6683   23.1111 C   0  0  0  0  0  0  0  0  0  0  0  0
  -29.5175  -24.5718   18.2009 C   0  0  0  0  0  0  0  0  0  0  0  0
  -29.6604  -24.7581   16.8260 C   0  0  0  0  0  0  0  0  0  0  0  0
  -16.5575  -22.2919   24.5638 C   0  0  0  0  0  0  0  0  0  0  0  0
  -16.5893  -23.4499   22.4437 C   0  0  0  0  0  0  0  0  0  0  0  0
  -21.3880  -28.9730   23.0215 C   0  0  0  0  0  0  0  0  0  0  0  0
  -22.9349  -30.3332   23.7909 C   0  0  0  0  0  0  0  0  0  0  0  0
  -20.9960  -30.0208   25.3374 C   0  0  0  0  0  0  0  0  0  0  0  0
  -24.9542  -17.3613   20.4893 C   0  0  0  0  0  0  0  0  0  0  0  0
  -24.8460  -20.0185   22.3467 C   0  0  0  0  0  0  0  0  0  0  0  0
  -25.5631  -23.3361   22.7021 C   0  0  0  0  0  0  0  0  0  0  0  0
  -27.2558  -28.4609   20.2301 C   0  0  0  0  0  0  0  0  0  0  0  0
  -23.0266  -13.1012   22.5371 C   0  0  0  0  0  0  0  0  0  0  0  0
  -27.3548  -18.1277   20.4118 C   0  0  0  0  0  0  0  0  0  0  0  0
  -25.4744  -20.3579   19.9269 C   0  0  0  0  0  0  0  0  0  0  0  0
  -22.7176  -14.5933   22.6289 C   0  0  0  0  0  0  0  0  0  0  0  0
  -25.5420  -31.6398   19.9958 C   0  0  0  0  0  0  0  0  0  0  0  0
  -22.6331  -15.2077   21.2353 C   0  0  0  0  0  0  0  0  0  0  0  0
  -24.3057  -31.3833   20.8594 C   0  0  0  0  0  0  0  0  0  0  0  0
  -25.9251  -30.3981   19.1961 C   0  0  0  0  0  0  0  0  0  0  0  0
  -24.9098  -28.9187   20.8855 C   0  0  0  0  0  0  0  0  0  0  0  0
  -23.9683  -15.0768   20.4927 C   0  0  1  0  0  0  0  0  0  0  0  0
  -26.0114  -18.2159   21.1294 C   0  0  1  0  0  0  0  0  0  0  0  0
  -24.4849  -30.1295   21.7359 C   0  0  2  0  0  0  0  0  0  0  0  0
  -30.0734  -21.5016   20.1252 C   0  0  0  0  0  0  0  0  0  0  0  0
  -25.3192  -25.2423   24.3159 C   0  0  0  0  0  0  0  0  0  0  0  0
  -21.8941  -20.2591   21.6128 C   0  0  0  0  0  0  0  0  0  0  0  0
  -21.9528  -22.6215   22.4397 C   0  0  0  0  0  0  0  0  0  0  0  0
  -22.4154  -20.7400   24.0110 C   0  0  0  0  0  0  0  0  0  0  0  0
  -28.4942  -23.6896   22.9071 C   0  0  0  0  0  0  0  0  0  0  0  0
  -29.5951  -28.1246   19.4740 C   0  0  0  0  0  0  0  0  0  0  0  0
  -28.8784  -22.4085   14.0986 C   0  0  0  0  0  0  0  0  0  0  0  0
  -30.3895  -22.9062   19.6573 C   0  0  0  0  0  0  0  0  0  0  0  0
  -28.8088  -21.1167   14.8978 C   0  0  0  0  0  0  0  0  0  1  0  0
  -28.6747  -23.6327   14.9773 C   0  0  0  0  0  0  0  0  0  0  0  0
  -24.1406  -21.3508   22.2667 C   0  0  1  0  0  0  0  0  0  0  0  0
  -26.2135  -24.1104   23.8343 C   0  0  2  0  0  0  0  0  0  0  0  0
  -22.6185  -21.2342   22.5621 C   0  0  0  0  0  0  0  0  0  0  0  0
  -22.3163  -29.0011   22.0616 N   0  0  0  0  0  0  0  0  0  0  0  0
  -23.2439  -29.8368   22.5587 N   0  0  0  0  0  0  0  0  0  0  0  0
  -25.4851  -19.5815   21.1777 N   0  0  0  0  0  0  0  0  0  0  0  0
  -26.0987  -29.2453   20.0910 N   0  0  0  0  0  0  0  0  0  0  0  0
  -29.8852  -28.4458   16.6160 N   0  0  0  0  0  0  0  0  0  0  0  0
  -23.7579  -31.1872   24.4356 N   0  0  0  0  0  0  0  0  0  0  0  0
  -21.2336  -29.1781   26.4318 N   0  0  0  0  0  0  0  0  0  0  0  0
  -24.9108  -16.0663   20.9693 N   0  0  0  0  0  0  0  0  0  0  0  0
  -24.8572  -22.2469   23.1677 N   0  0  0  0  0  0  0  0  0  0  0  0
  -28.3346  -28.8323   19.4371 N   0  0  0  0  0  0  0  0  0  0  0  0
  -27.5093  -24.6937   23.3855 N   0  3  0  0  0  0  0  0  0  0  0  0
  -20.1508  -30.9416   25.4437 O   0  0  0  0  0  0  0  0  0  0  0  0
  -24.2304  -17.8417   19.6250 O   0  0  0  0  0  0  0  0  0  0  0  0
  -24.8365  -19.3921   23.4093 O   0  0  0  0  0  0  0  0  0  0  0  0
  -25.6674  -23.6667   21.5230 O   0  0  0  0  0  0  0  0  0  0  0  0
  -27.3244  -27.5030   21.0078 O   0  0  0  0  0  0  0  0  0  0  0  0
  -16.7935  -25.8488   22.3914 O   0  0  0  0  0  0  0  0  0  0  0  0
  -27.5385  -21.0119   15.5395 O   0  0  0  0  0  0  0  0  0  1  0  0
  -29.3965  -23.3182   18.7201 O   0  0  0  0  0  0  0  0  0  0  0  0
  -29.6847  -23.6832   15.9758 O   0  0  0  0  0  0  0  0  0  0  0  0
  -16.4836  -21.1508   25.2614 F   0  0  0  0  0  0  0  0  0  0  0  0
  -16.5450  -23.4145   21.1048 F   0  0  0  0  0  0  0  0  0  0  0  0
  1  2  1  0  0  0  0
  1  5  2  0  0  0  0
  2  6  2  0  0  0  0
  3  8  2  0  0  0  0
  3 17  1  0  0  0  0
  4  9  1  0  0  0  0
  4 17  2  0  0  0  0
  5 19  1  0  0  0  0
  6 21  1  0  0  0  0
  7 10  2  0  0  0  0
  7 20  1  0  0  0  0
  8 25  1  0  0  0  0
  9 25  2  0  0  0  0
 10 26  1  0  0  0  0
 11 12  2  0  0  0  0
 11 27  1  0  0  0  0
 12 30  1  0  0  0  0
 13 22  1  0  0  0  0
 13 26  2  0  0  0  0
 14 23  2  0  0  0  0
 14 28  1  0  0  0  0
 15 24  2  0  0  0  0
 15 29  1  0  0  0  0
 16 30  2  0  0  0  0
 16 31  1  0  0  0  0
 17 32  1  0  0  0  0
 18 32  1  0  0  0  0
 18 33  2  0  0  0  0
 18 34  1  0  0  0  0
 19 21  2  0  0  0  0
 19 39  1  0  0  0  0
 20 22  2  0  0  0  0
 20 40  1  0  0  0  0
 21 48  1  0  0  0  0
 22 41  1  0  0  0  0
 23 24  1  0  0  0  0
 23 57  1  0  0  0  0
 24 69  1  0  0  0  0
 25 81  1  0  0  0  0
 26 82  1  0  0  0  0
 27 31  2  0  0  0  0
 27 81  1  0  0  0  0
 28 29  2  0  0  0  0
 28 83  1  0  0  0  0
 29 84  1  0  0  0  0
 30 85  1  0  0  0  0
 31 86  1  0  0  0  0
 32 65  2  0  0  0  0
 33 66  1  0  0  0  0
 33 70  1  0  0  0  0
 34 71  1  0  0  0  0
 34 76  2  0  0  0  0
 35 49  1  0  0  0  0
 35 72  1  0  0  0  0
 35 77  2  0  0  0  0
 36 62  1  0  0  0  0
 36 67  1  0  0  0  0
 36 78  2  0  0  0  0
 37 63  1  0  0  0  0
 37 73  1  0  0  0  0
 37 79  2  0  0  0  0
 38 68  1  0  0  0  0
 38 74  1  0  0  0  0
 38 80  2  0  0  0  0
 39 42  1  0  0  0  0
 40 49  1  0  0  0  0
 41 67  1  0  0  0  0
 42 44  1  0  0  0  0
 43 45  1  0  0  0  0
 43 46  1  0  0  0  0
 44 48  1  0  0  0  0
 45 50  1  0  0  0  0
 46 68  1  0  0  0  0
 47 50  1  0  0  0  0
 47 68  1  0  0  0  0
 48 72  1  0  0  0  0
 49 67  1  0  0  0  0
 50 66  1  0  0  0  0
 51 59  1  0  0  0  0
 52 63  1  0  0  0  0
 53 64  1  0  0  0  0
 54 64  1  0  0  0  0
 55 64  1  0  0  0  0
 56 75  1  0  0  0  0
 57 74  1  0  0  0  0
 58 60  1  0  0  0  0
 58 61  1  0  0  0  0
 59 83  1  0  0  0  0
 60 82  1  0  0  0  0
 61 84  1  0  0  0  0
 62 64  1  0  0  0  0
 62 73  1  0  0  0  0
 63 75  1  0  0  0  0
 65 66  1  0  0  0  0
M  CHG  1  75   1
M  ISO  4  38 100  60 101  74 100  82 101
M  END
> <Batch ID>
0105

> <Smiles>
CCOc1cc(C[100NH:0][100C:0](=O)N2CCCC(n3nc(-c4ccc(Oc5ccc(F)cc5F)cc4)c(C(N)=O)c3N)C2)c(N)cc1OCC[101CH2:1][101O:1]c1ccc2c(c1)CN(C(=O)C(NC(=O)C(C)NC)C(C)(C)C)C(C(=O)NC1CCCc3ccccc31)C2

> <Shape>
0.214

> <Color>
0.070

> <Negative vol penalty>
0.000

$$$$

  -OEChem-04052301113D

 89 98  0     1  0  0  0  0  0999 V2000
  -30.1164  -20.0410   22.0241 C   0  0  0  0  0  0  0  0  0  0  0  0
  -28.7564  -20.1288   21.7446 C   0  0  0  0  0  0  0  0  0  0  0  0
  -28.2209  -29.2677   20.0991 C   0  0  0  0  0  0  0  0  0  0  0  0
  -26.9137  -27.2955   20.5881 C   0  0  0  0  0  0  0  0  0  0  0  0
  -30.7942  -18.8410   21.8132 C   0  0  0  0  0  0  0  0  0  0  0  0
  -28.0737  -19.0168   21.2530 C   0  0  0  0  0  0  0  0  0  0  0  0
  -23.6175  -18.3013   23.5499 C   0  0  0  0  0  0  0  0  0  0  0  0
  -29.3431  -28.4692   19.8786 C   0  0  0  0  0  0  0  0  0  0  0  0
  -28.0360  -26.4970   20.3676 C   0  0  0  0  0  0  0  0  0  0  0  0
  -22.5588  -19.1174   23.1539 C   0  0  0  0  0  0  0  0  0  0  0  0
  -29.7307  -25.2626   17.7172 C   0  0  0  0  0  0  0  0  0  0  0  0
  -29.5642  -24.1120   16.9465 C   0  0  0  0  0  0  0  0  0  0  0  0
  -21.7114  -17.3349   21.7669 C   0  0  0  0  0  0  0  0  0  0  0  0
  -18.2974  -26.4753   22.3718 C   0  0  0  0  0  0  0  0  0  0  0  0
  -19.7994  -24.1251   22.3172 C   0  0  0  0  0  0  0  0  0  0  0  0
  -30.2991  -22.7587   18.8081 C   0  0  0  0  0  0  0  0  0  0  0  0
  -27.0062  -28.6808   20.4539 C   0  0  0  0  0  0  0  0  0  0  0  0
  -25.2277  -30.3748   19.7646 C   0  0  0  0  0  0  0  0  0  0  0  0
  -30.1174  -17.7110   21.3279 C   0  0  0  0  0  0  0  0  0  0  0  0
  -23.7374  -16.9973   23.0481 C   0  0  0  0  0  0  0  0  0  0  0  0
  -28.7433  -17.8009   21.0341 C   0  0  0  0  0  0  0  0  0  0  0  0
  -22.7711  -16.5033   22.1601 C   0  0  0  0  0  0  0  0  0  0  0  0
  -18.1080  -25.5504   21.3451 C   0  0  0  0  0  0  0  0  0  0  0  0
  -19.2379  -26.2252   23.3712 C   0  0  0  0  0  0  0  0  0  0  0  0
  -18.8589  -24.3752   21.3178 C   0  0  0  0  0  0  0  0  0  0  0  0
  -29.2507  -27.0839   20.0128 C   0  0  0  0  0  0  0  0  0  0  0  0
  -21.6071  -18.6352   22.2600 C   0  0  0  0  0  0  0  0  0  0  0  0
  -30.1814  -25.1612   19.0334 C   0  0  0  0  0  0  0  0  0  0  0  0
  -19.9888  -25.0501   23.3438 C   0  0  0  0  0  0  0  0  0  0  0  0
  -29.8484  -22.8600   17.4919 C   0  0  0  0  0  0  0  0  0  0  0  0
  -30.4656  -23.9093   19.5788 C   0  0  0  0  0  0  0  0  0  0  0  0
  -25.8467  -29.5051   20.6824 C   0  0  0  0  0  0  0  0  0  0  0  0
  -24.1771  -30.9189   20.4620 C   0  0  0  0  0  0  0  0  0  0  0  0
  -19.9386  -21.0210   18.8845 C   0  0  0  0  0  0  0  0  0  0  0  0
  -19.4598  -20.4942   20.0267 C   0  0  0  0  0  0  0  0  0  0  0  0
  -25.5718  -30.6649   18.4032 C   0  0  0  0  0  0  0  0  0  0  0  0
  -25.9009  -15.4554   21.3031 C   0  0  0  0  0  0  0  0  0  0  0  0
  -24.0145  -12.8934   21.9353 C   0  0  0  0  0  0  0  0  0  0  0  0
  -20.4768  -12.1992   22.0774 C   0  0  0  0  0  0  0  0  0  0  0  0
  -20.9867  -29.0260   25.1620 C   0  0  0  0  0  0  0  0  0  0  0  0
  -30.9026  -16.4492   21.0712 C   0  0  0  0  0  0  0  0  0  0  0  0
  -24.8705  -16.1205   23.5058 C   0  0  0  0  0  0  0  0  0  0  0  0
  -22.8432  -15.1039   21.6080 C   0  0  0  0  0  0  0  0  0  0  0  0
  -19.4847  -22.2766   18.2006 C   0  0  0  0  0  0  0  0  0  0  0  0
  -18.3407  -21.0627   20.8720 C   0  0  0  0  0  0  0  0  0  0  0  0
  -30.0266  -15.2104   20.9023 C   0  0  0  0  0  0  0  0  0  0  0  0
  -22.8256  -32.0641   24.9065 C   0  0  0  0  0  0  0  0  0  0  0  0
  -28.8634  -15.5036   19.9601 C   0  0  0  0  0  0  0  0  0  0  0  0
  -23.7526  -31.8312   23.7121 C   0  0  0  0  0  0  0  0  0  0  0  0
  -19.4839  -23.5361   19.0710 C   0  0  0  0  0  0  0  0  0  0  0  0
  -17.6889  -22.3672   20.4091 C   0  0  0  0  0  0  0  0  0  0  0  0
  -22.6311  -30.7906   25.7266 C   0  0  0  0  0  0  0  0  0  0  0  0
  -23.1074  -29.3857   23.7585 C   0  0  0  0  0  0  0  0  0  0  0  0
  -27.9626  -16.6095   20.5231 C   0  0  1  0  0  0  0  0  0  0  0  0
  -25.1781  -14.9856   22.5337 C   0  0  1  0  0  0  0  0  0  0  0  0
  -23.2896  -30.6277   22.8693 C   0  0  2  0  0  0  0  0  0  0  0  0
  -17.0947  -25.8431   20.2867 C   0  0  0  0  0  0  0  0  0  0  0  0
  -19.2032  -10.4787   23.3871 C   0  0  0  0  0  0  0  0  0  0  0  0
  -24.2719  -11.2011   19.4094 C   0  0  0  0  0  0  0  0  0  0  0  0
  -21.9442  -10.3717   19.8117 C   0  0  0  0  0  0  0  0  0  0  0  0
  -23.7379   -9.9074   21.4819 C   0  0  0  0  0  0  0  0  0  0  0  0
  -18.7376  -14.2540   23.3069 C   0  0  0  0  0  0  0  0  0  0  0  0
  -21.6337  -23.5648   24.2065 C   0  0  0  0  0  0  0  0  0  0  0  0
  -19.4271  -27.2269   24.4622 C   0  0  0  0  0  0  0  0  0  0  0  0
  -20.0418  -19.2120   20.5650 C   0  0  0  0  0  0  0  0  0  1  0  0
  -22.8211  -12.2538   21.2677 C   0  0  1  0  0  0  0  0  0  0  0  0
  -19.6529  -11.9301   23.3237 C   0  0  2  0  0  0  0  0  0  0  0  0
  -23.1990  -10.9613   20.4903 C   0  0  0  0  0  0  0  0  0  0  0  0
  -25.2399  -29.4943   21.8722 N   0  0  0  0  0  0  0  0  0  0  0  0
  -24.2287  -30.3639   21.7068 N   0  0  0  0  0  0  0  0  0  0  0  0
  -18.6811  -23.4363   20.2963 N   0  0  3  0  0  0  0  0  0  0  0  0
  -23.9733  -14.2873   22.0808 N   0  0  0  0  0  0  0  0  0  0  0  0
  -22.1903  -29.6881   24.8686 N   0  0  0  0  0  0  0  0  0  0  0  0
  -23.2233  -31.8132   20.1259 N   0  0  0  0  0  0  0  0  0  0  0  0
  -25.0042  -29.8814   17.3892 N   0  0  0  0  0  0  0  0  0  0  0  0
  -27.1047  -16.0824   21.5626 N   0  0  0  0  0  0  0  0  0  0  0  0
  -21.8269  -12.0514   22.3159 N   0  0  0  0  0  0  0  0  0  0  0  0
  -20.6393  -27.9972   24.2951 N   0  0  0  0  0  0  0  0  0  0  0  0
  -18.4420  -12.7986   23.3416 N   0  3  0  0  0  0  0  0  0  0  0  0
  -26.3719  -31.5808   18.0962 O   0  0  0  0  0  0  0  0  0  0  0  0
  -25.4041  -15.2620   20.1997 O   0  0  0  0  0  0  0  0  0  0  0  0
  -24.9457  -12.1817   22.3201 O   0  0  0  0  0  0  0  0  0  0  0  0
  -19.9730  -12.5059   20.9992 O   0  0  0  0  0  0  0  0  0  0  0  0
  -20.2718  -29.3328   26.1221 O   0  0  0  0  0  0  0  0  0  0  0  0
  -30.3455  -26.3044   19.7975 O   0  0  0  0  0  0  0  0  0  0  0  0
  -20.9110  -24.7897   24.3124 O   0  0  0  0  0  0  0  0  0  0  0  0
  -20.5731  -19.4300   21.8714 O   0  0  0  0  0  0  0  0  0  1  0  0
  -29.6870  -21.7551   16.7522 F   0  0  0  0  0  0  0  0  0  0  0  0
  -30.8978  -23.8055   20.8430 F   0  0  0  0  0  0  0  0  0  0  0  0
  1  2  1  0  0  0  0
  1  5  2  0  0  0  0
  2  6  2  0  0  0  0
  3  8  2  0  0  0  0
  3 17  1  0  0  0  0
  4  9  1  0  0  0  0
  4 17  2  0  0  0  0
  5 19  1  0  0  0  0
  6 21  1  0  0  0  0
  7 10  2  0  0  0  0
  7 20  1  0  0  0  0
  8 26  1  0  0  0  0
  9 26  2  0  0  0  0
 10 27  1  0  0  0  0
 11 12  2  0  0  0  0
 11 28  1  0  0  0  0
 12 30  1  0  0  0  0
 13 22  1  0  0  0  0
 13 27  2  0  0  0  0
 14 23  1  0  0  0  0
 14 24  2  0  0  0  0
 15 25  1  0  0  0  0
 15 29  2  0  0  0  0
 16 30  2  0  0  0  0
 16 31  1  0  0  0  0
 17 32  1  0  0  0  0
 18 32  1  0  0  0  0
 18 33  2  0  0  0  0
 18 36  1  0  0  0  0
 19 21  2  0  0  0  0
 19 41  1  0  0  0  0
 20 22  2  0  0  0  0
 20 42  1  0  0  0  0
 21 54  1  0  0  0  0
 22 43  1  0  0  0  0
 23 25  2  0  0  0  0
 23 57  1  0  0  0  0
 24 29  1  0  0  0  0
 24 64  1  0  0  0  0
 25 71  1  0  0  0  0
 26 85  1  0  0  0  0
 27 87  1  0  0  0  0
 28 31  2  0  0  0  0
 28 85  1  0  0  0  0
 29 86  1  0  0  0  0
 30 88  1  0  0  0  0
 31 89  1  0  0  0  0
 32 69  2  0  0  0  0
 33 70  1  0  0  0  0
 33 74  1  0  0  0  0
 34 35  2  0  0  0  0
 34 44  1  0  0  0  0
 35 45  1  0  0  0  0
 35 65  1  0  0  0  0
 36 75  1  0  0  0  0
 36 80  2  0  0  0  0
 37 55  1  0  0  0  0
 37 76  1  0  0  0  0
 37 81  2  0  0  0  0
 38 66  1  0  0  0  0
 38 72  1  0  0  0  0
 38 82  2  0  0  0  0
 39 67  1  0  0  0  0
 39 77  1  0  0  0  0
 39 83  2  0  0  0  0
 40 73  1  0  0  0  0
 40 78  1  0  0  0  0
 40 84  2  0  0  0  0
 41 46  1  0  0  0  0
 42 55  1  0  0  0  0
 43 72  1  0  0  0  0
 44 50  1  0  0  0  0
 45 51  1  0  0  0  0
 46 48  1  0  0  0  0
 47 49  1  0  0  0  0
 47 52  1  0  0  0  0
 48 54  1  0  0  0  0
 49 56  1  0  0  0  0
 50 71  1  0  0  0  0
 51 71  1  0  0  0  0
 52 73  1  0  0  0  0
 53 56  1  0  0  0  0
 53 73  1  0  0  0  0
 54 76  1  0  0  0  0
 55 72  1  0  0  0  0
 56 70  1  0  0  0  0
 58 67  1  0  0  0  0
 59 68  1  0  0  0  0
 60 68  1  0  0  0  0
 61 68  1  0  0  0  0
 62 79  1  0  0  0  0
 63 86  1  0  0  0  0
 64 78  1  0  0  0  0
 65 87  1  0  0  0  0
 66 68  1  0  0  0  0
 66 77  1  0  0  0  0
 67 79  1  0  0  0  0
 69 70  1  0  0  0  0
M  CHG  1  79   1
M  ISO  4  40 100  65 101  78 100  87 101
M  END
> <Batch ID>
0105

> <Smiles>
CNC(C)C(=O)NC(C(=O)N1Cc2cc([101O:1][101CH2:1]C3=CCCN(c4cc(OC)c(C[100NH:0][100C:0](=O)N5CCCC(n6nc(-c7ccc(Oc8ccc(F)cc8F)cc7)c(C(N)=O)c6N)C5)cc4C)CC3)ccc2CC1C(=O)NC1CCCc2ccccc21)C(C)(C)C

> <Shape>
0.244

> <Color>
0.051

> <Negative vol penalty>
0.000

$$$$

  -OEChem-04052301113D

 84 92  0     1  0  0  0  0  0999 V2000
  -28.7917  -29.1343   13.0233 C   0  0  0  0  0  0  0  0  0  0  0  0
  -29.2159  -28.6346   14.2504 C   0  0  0  0  0  0  0  0  0  0  0  0
  -23.8202   -9.6549   21.3170 C   0  0  0  0  0  0  0  0  0  0  0  0
  -24.3875  -10.6337   23.4517 C   0  0  0  0  0  0  0  0  0  0  0  0
  -27.9745  -30.2630   12.9765 C   0  0  0  0  0  0  0  0  0  0  0  0
  -28.8239  -29.2639   15.4314 C   0  0  0  0  0  0  0  0  0  0  0  0
  -27.3188  -25.9765   18.9772 C   0  0  0  0  0  0  0  0  0  0  0  0
  -23.3097   -8.5317   21.9676 C   0  0  0  0  0  0  0  0  0  0  0  0
  -23.8769   -9.5105   24.1024 C   0  0  0  0  0  0  0  0  0  0  0  0
  -28.3137  -25.2965   19.6784 C   0  0  0  0  0  0  0  0  0  0  0  0
  -20.4840   -7.6782   23.6168 C   0  0  0  0  0  0  0  0  0  0  0  0
  -19.2542   -7.1818   23.1845 C   0  0  0  0  0  0  0  0  0  0  0  0
  -28.0575  -26.8330   21.5203 C   0  0  0  0  0  0  0  0  0  0  0  0
  -30.4029  -18.7024   23.2447 C   0  0  0  0  0  0  0  0  0  0  0  0
  -32.3935  -18.7439   21.8763 C   0  0  0  0  0  0  0  0  0  0  0  0
  -20.2955   -5.0684   22.6491 C   0  0  0  0  0  0  0  0  0  0  0  0
  -24.3592  -10.7059   22.0590 C   0  0  0  0  0  0  0  0  0  0  0  0
  -24.1886  -13.0369   21.0367 C   0  0  0  0  0  0  0  0  0  0  0  0
  -27.5643  -30.9007   14.1579 C   0  0  0  0  0  0  0  0  0  0  0  0
  -26.6924  -27.0984   19.5389 C   0  0  0  0  0  0  0  0  0  0  0  0
  -28.0014  -30.4029   15.4002 C   0  0  0  0  0  0  0  0  0  0  0  0
  -27.0532  -27.5240   20.8253 C   0  0  0  0  0  0  0  0  0  0  0  0
  -31.6006  -16.6536   22.7923 C   0  0  0  0  0  0  0  0  0  0  0  0
  -31.3308  -19.4130   22.4833 C   0  0  0  0  0  0  0  0  0  0  0  0
  -30.5378  -17.3227   23.3992 C   0  0  0  0  0  0  0  0  0  0  0  0
  -23.3379   -8.4595   23.3603 C   0  0  0  0  0  0  0  0  0  0  0  0
  -28.6852  -25.7264   20.9489 C   0  0  0  0  0  0  0  0  0  0  0  0
  -21.6195   -6.8697   23.5652 C   0  0  0  0  0  0  0  0  0  0  0  0
  -19.1600   -5.8769   22.7007 C   0  0  0  0  0  0  0  0  0  0  0  0
  -32.5285  -17.3641   22.0308 C   0  0  0  0  0  0  0  0  0  0  0  0
  -21.5253   -5.5649   23.0814 C   0  0  0  0  0  0  0  0  0  0  0  0
  -24.8874  -11.8662   21.3875 C   0  0  0  0  0  0  0  0  0  0  0  0
  -25.1298  -13.8281   20.4248 C   0  0  0  0  0  0  0  0  0  0  0  0
  -30.3425  -23.0002   22.5900 C   0  0  0  0  0  0  0  0  0  0  0  0
  -29.4552  -23.7438   21.9221 C   0  0  0  0  0  0  0  0  0  1  0  0
  -22.8119  -13.3785   21.2454 C   0  0  0  0  0  0  0  0  0  0  0  0
  -26.4720  -30.1712   18.7558 C   0  0  0  0  0  0  0  0  0  0  0  0
  -24.4192  -30.2620   21.2659 C   0  0  0  0  0  0  0  0  0  0  0  0
  -23.3804  -28.8842   24.2103 C   0  0  0  0  0  0  0  0  0  0  0  0
  -31.0989  -14.1014   20.8073 C   0  0  0  0  0  0  0  0  0  0  0  0
  -26.7193  -32.1457   14.0550 C   0  0  0  0  0  0  0  0  0  0  0  0
  -25.6024  -27.8049   18.7806 C   0  0  0  0  0  0  0  0  0  0  0  0
  -26.3972  -28.7105   21.4812 C   0  0  0  0  0  0  0  0  0  0  0  0
  -26.0420  -32.5323   15.3673 C   0  0  0  0  0  0  0  0  0  0  0  0
  -29.1649  -13.5515   17.8689 C   0  0  0  0  0  0  0  0  0  0  0  0
  -27.0374  -32.4667   16.5213 C   0  0  0  0  0  0  0  0  0  0  0  0
  -27.7863  -13.1628   18.4058 C   0  0  0  0  0  0  0  0  0  0  0  0
  -30.2877  -12.9976   18.7432 C   0  0  0  0  0  0  0  0  0  0  0  0
  -28.8051  -12.9499   20.7113 C   0  0  0  0  0  0  0  0  0  0  0  0
  -27.5771  -31.0431   16.7042 C   0  0  1  0  0  0  0  0  0  0  0  0
  -25.3922  -29.2448   19.2390 C   0  0  1  0  0  0  0  0  0  0  0  0
  -27.6395  -13.5327   19.8941 C   0  0  2  0  0  0  0  0  0  0  0  0
  -21.7048  -29.2022   26.0511 C   0  0  0  0  0  0  0  0  0  0  0  0
  -26.0935  -32.5511   22.3913 C   0  0  0  0  0  0  0  0  0  0  0  0
  -24.9789  -32.1864   24.6033 C   0  0  0  0  0  0  0  0  0  0  0  0
  -23.6218  -32.8559   22.6201 C   0  0  0  0  0  0  0  0  0  0  0  0
  -22.1214  -26.2599   23.6751 C   0  0  0  0  0  0  0  0  0  0  0  0
  -31.7660  -15.1760   22.9425 C   0  0  0  0  0  0  0  0  0  0  0  0
  -30.1315  -21.5572   22.9189 C   0  0  0  0  0  0  0  0  0  0  0  0
  -24.5543  -30.5094   22.7490 C   0  0  1  0  0  0  0  0  0  0  0  0
  -21.9970  -28.5245   24.7214 C   0  0  2  0  0  0  0  0  0  0  0  0
  -24.8261  -32.0045   23.0780 C   0  0  0  0  0  0  0  0  0  0  0  0
  -26.1732  -11.9059   21.0282 N   0  0  0  0  0  0  0  0  0  0  0  0
  -26.2898  -13.1111   20.4451 N   0  0  0  0  0  0  0  0  0  0  0  0
  -25.3413  -29.3720   20.6969 N   0  0  0  0  0  0  0  0  0  0  0  0
  -30.0900  -13.3854   20.1420 N   0  0  0  0  0  0  0  0  0  0  0  0
  -29.5890  -16.6197   24.1737 N   0  0  0  0  0  0  0  0  0  0  0  0
  -25.0700  -15.0603   19.8765 N   0  0  0  0  0  0  0  0  0  0  0  0
  -21.9834  -12.4501   21.8903 N   0  0  0  0  0  0  0  0  0  0  0  0
  -31.1964  -20.7848   22.3295 N   0  0  0  0  0  0  0  0  0  0  0  0
  -26.6014  -30.2157   17.3808 N   0  0  0  0  0  0  0  0  0  0  0  0
  -23.3453  -29.9724   23.3641 N   0  0  0  0  0  0  0  0  0  0  0  0
  -30.8283  -14.4349   22.1287 N   0  0  0  0  0  0  0  0  0  0  0  0
  -21.8814  -27.0507   24.9096 N   0  3  0  0  0  0  0  0  0  0  0  0
  -22.3267  -14.4679   20.8563 O   0  0  0  0  0  0  0  0  0  0  0  0
  -27.1374  -30.8003   19.5702 O   0  0  0  0  0  0  0  0  0  0  0  0
  -23.5241  -30.8316   20.6368 O   0  0  0  0  0  0  0  0  0  0  0  0
  -24.3916  -28.2645   24.5326 O   0  0  0  0  0  0  0  0  0  0  0  0
  -32.1598  -14.4244   20.2622 O   0  0  0  0  0  0  0  0  0  0  0  0
  -22.8396   -7.3637   23.9955 O   0  0  0  0  0  0  0  0  0  0  0  0
  -29.6564  -25.0648   21.6351 O   0  0  0  0  0  0  0  0  0  1  0  0
  -17.9787   -5.3999   22.2870 F   0  0  0  0  0  0  0  0  0  0  0  0
  -33.5523  -16.7305   21.4416 F   0  0  0  0  0  0  0  0  0  0  0  0
  -22.6125   -4.7830   23.0306 F   0  0  0  0  0  0  0  0  0  0  0  0
  1  2  1  0  0  0  0
  1  5  2  0  0  0  0
  2  6  2  0  0  0  0
  3  8  2  0  0  0  0
  3 17  1  0  0  0  0
  4  9  1  0  0  0  0
  4 17  2  0  0  0  0
  5 19  1  0  0  0  0
  6 21  1  0  0  0  0
  7 10  2  0  0  0  0
  7 20  1  0  0  0  0
  8 26  1  0  0  0  0
  9 26  2  0  0  0  0
 10 27  1  0  0  0  0
 11 12  2  0  0  0  0
 11 28  1  0  0  0  0
 12 29  1  0  0  0  0
 13 22  1  0  0  0  0
 13 27  2  0  0  0  0
 14 24  1  0  0  0  0
 14 25  2  0  0  0  0
 15 24  2  0  0  0  0
 15 30  1  0  0  0  0
 16 29  2  0  0  0  0
 16 31  1  0  0  0  0
 17 32  1  0  0  0  0
 18 32  1  0  0  0  0
 18 33  2  0  0  0  0
 18 36  1  0  0  0  0
 19 21  2  0  0  0  0
 19 41  1  0  0  0  0
 20 22  2  0  0  0  0
 20 42  1  0  0  0  0
 21 50  1  0  0  0  0
 22 43  1  0  0  0  0
 23 25  1  0  0  0  0
 23 30  2  0  0  0  0
 23 58  1  0  0  0  0
 24 70  1  0  0  0  0
 25 67  1  0  0  0  0
 26 80  1  0  0  0  0
 27 81  1  0  0  0  0
 28 31  2  0  0  0  0
 28 80  1  0  0  0  0
 29 82  1  0  0  0  0
 30 83  1  0  0  0  0
 31 84  1  0  0  0  0
 32 63  2  0  0  0  0
 33 64  1  0  0  0  0
 33 68  1  0  0  0  0
 34 35  2  0  0  0  0
 34 59  1  0  0  0  0
 35 81  1  0  0  0  0
 36 69  1  0  0  0  0
 36 75  2  0  0  0  0
 37 51  1  0  0  0  0
 37 71  1  0  0  0  0
 37 76  2  0  0  0  0
 38 60  1  0  0  0  0
 38 65  1  0  0  0  0
 38 77  2  0  0  0  0
 39 61  1  0  0  0  0
 39 72  1  0  0  0  0
 39 78  2  0  0  0  0
 40 66  1  0  0  0  0
 40 73  1  0  0  0  0
 40 79  2  0  0  0  0
 41 44  1  0  0  0  0
 42 51  1  0  0  0  0
 43 65  1  0  0  0  0
 44 46  1  0  0  0  0
 45 47  1  0  0  0  0
 45 48  1  0  0  0  0
 46 50  1  0  0  0  0
 47 52  1  0  0  0  0
 48 66  1  0  0  0  0
 49 52  1  0  0  0  0
 49 66  1  0  0  0  0
 50 71  1  0  0  0  0
 51 65  1  0  0  0  0
 52 64  1  0  0  0  0
 53 61  1  0  0  0  0
 54 62  1  0  0  0  0
 55 62  1  0  0  0  0
 56 62  1  0  0  0  0
 57 74  1  0  0  0  0
 58 73  1  0  0  0  0
 59 70  1  0  0  0  0
 60 62  1  0  0  0  0
 60 72  1  0  0  0  0
 61 74  1  0  0  0  0
 63 64  1  0  0  0  0
M  CHG  1  74   1
M  ISO  4  35 101  40 100  73 100  81 101
M  END
> <Batch ID>
0105

> <Smiles>
CNC(C)C(=O)NC(C(=O)N1Cc2cc([101O:1][101CH:1]=CCNc3cc(N)c(C[100NH:0][100C:0](=O)N4CCCC(n5nc(-c6ccc(Oc7ccc(F)cc7F)cc6)c(C(N)=O)c5N)C4)c(F)c3)ccc2CC1C(=O)NC1CCCc2ccccc21)C(C)(C)C

> <Shape>
0.267

> <Color>
0.151

> <Negative vol penalty>
0.000

$$$$

  -OEChem-04052301113D

 85 94  0     1  0  0  0  0  0999 V2000
  -24.3471  -38.5970   20.3940 C   0  0  0  0  0  0  0  0  0  0  0  0
  -24.8815  -37.6115   19.5702 C   0  0  0  0  0  0  0  0  0  0  0  0
  -24.4503   -9.1247   21.5438 C   0  0  0  0  0  0  0  0  0  0  0  0
  -24.4346  -10.4508   23.5632 C   0  0  0  0  0  0  0  0  0  0  0  0
  -24.3477  -38.4235   21.7774 C   0  0  0  0  0  0  0  0  0  0  0  0
  -25.4177  -36.4521   20.1296 C   0  0  0  0  0  0  0  0  0  0  0  0
  -26.2104  -29.4591   18.7932 C   0  0  0  0  0  0  0  0  0  0  0  0
  -24.1953   -7.9775   22.2951 C   0  0  0  0  0  0  0  0  0  0  0  0
  -24.1795   -9.3036   24.3146 C   0  0  0  0  0  0  0  0  0  0  0  0
  -27.1982  -28.4763   18.7484 C   0  0  0  0  0  0  0  0  0  0  0  0
  -21.5327   -6.5095   23.7744 C   0  0  0  0  0  0  0  0  0  0  0  0
  -20.5598   -5.6284   23.3023 C   0  0  0  0  0  0  0  0  0  0  0  0
  -27.0731  -28.2499   21.1468 C   0  0  0  0  0  0  0  0  0  0  0  0
  -28.4084  -20.0442   19.7186 C   0  0  0  0  0  0  0  0  0  0  0  0
  -22.2140   -3.8724   23.1707 C   0  0  0  0  0  0  0  0  0  0  0  0
  -24.5700  -10.3614   22.1779 C   0  0  0  0  0  0  0  0  0  0  0  0
  -23.8866  -12.4138   20.8258 C   0  0  0  0  0  0  0  0  0  0  0  0
  -24.8754  -37.2571   22.3534 C   0  0  0  0  0  0  0  0  0  0  0  0
  -25.6533  -29.8531   20.0183 C   0  0  0  0  0  0  0  0  0  0  0  0
  -25.4265  -36.2634   21.5220 C   0  0  0  0  0  0  0  0  0  0  0  0
  -26.0765  -29.2361   21.2041 C   0  0  0  0  0  0  0  0  0  0  0  0
  -27.7849  -21.3241   19.6609 C   0  0  0  0  0  0  0  0  0  0  0  0
  -24.0599   -8.0669   23.6805 C   0  0  0  0  0  0  0  0  0  0  0  0
  -27.6318  -27.8736   19.9256 C   0  0  0  0  0  0  0  0  0  0  0  0
  -22.8463   -6.0720   23.9445 C   0  0  0  0  0  0  0  0  0  0  0  0
  -20.9004   -4.3099   23.0005 C   0  0  0  0  0  0  0  0  0  0  0  0
  -23.1869   -4.7535   23.6427 C   0  0  0  0  0  0  0  0  0  0  0  0
  -24.8340  -11.5467   21.4023 C   0  0  0  0  0  0  0  0  0  0  0  0
  -26.4642  -21.2742   20.0493 C   0  0  0  0  0  0  0  0  0  0  0  0
  -24.6392  -13.3773   20.1999 C   0  0  0  0  0  0  0  0  0  0  0  0
  -27.5405  -19.0648   20.1491 C   0  0  0  0  0  0  0  0  0  0  0  0
  -28.1563  -23.8321   19.6880 C   0  0  0  0  0  0  0  0  0  0  0  0
  -25.5014  -22.3266   20.1318 C   0  0  0  0  0  0  0  0  0  0  0  0
  -22.4544  -12.3537   20.8535 C   0  0  0  0  0  0  0  0  0  0  0  0
  -25.5402  -32.5727   21.6598 C   0  0  0  0  0  0  0  0  0  0  0  0
  -23.5813  -30.8655   23.6015 C   0  0  0  0  0  0  0  0  0  0  0  0
  -22.5858  -27.8102   24.7508 C   0  0  0  0  0  0  0  0  0  0  0  0
  -28.9095  -16.9501   20.1460 C   0  0  0  0  0  0  0  0  0  0  0  0
  -24.8967  -37.1354   23.8565 C   0  0  0  0  0  0  0  0  0  0  0  0
  -24.5695  -30.8957   20.0469 C   0  0  0  0  0  0  0  0  0  0  0  0
  -25.4959  -29.6089   22.5430 C   0  0  0  0  0  0  0  0  0  0  0  0
  -25.1444  -35.7118   24.3489 C   0  0  0  0  0  0  0  0  0  0  0  0
  -29.6072  -13.5755   19.2501 C   0  0  0  0  0  0  0  0  0  0  0  0
  -26.3050  -35.0783   23.5883 C   0  0  0  0  0  0  0  0  0  0  0  0
  -28.3496  -12.8182   19.6827 C   0  0  0  0  0  0  0  0  0  0  0  0
  -29.6841  -23.9469   17.8668 C   0  0  0  0  0  0  0  0  0  0  0  0
  -29.9569  -14.6980   20.2255 C   0  0  0  0  0  0  0  0  0  0  0  0
  -29.5665  -22.5096   18.3330 C   0  0  0  0  0  0  0  0  0  0  0  0
  -27.6066  -14.8800   20.9413 C   0  0  0  0  0  0  0  0  0  0  0  0
  -25.9949  -34.9809   22.0897 C   0  0  1  0  0  0  0  0  0  0  0  0
  -29.2065  -24.7428   19.0727 C   0  0  1  0  0  0  0  0  0  0  0  0
  -24.4384  -31.5842   21.4019 C   0  0  1  0  0  0  0  0  0  0  0  0
  -27.1775  -13.7813   19.9552 C   0  0  2  0  0  0  0  0  0  0  0  0
  -20.9902  -26.7360   26.3626 C   0  0  0  0  0  0  0  0  0  0  0  0
  -25.3917  -31.6659   25.9235 C   0  0  0  0  0  0  0  0  0  0  0  0
  -24.3394  -29.8442   27.2808 C   0  0  0  0  0  0  0  0  0  0  0  0
  -22.9451  -31.7329   26.4372 C   0  0  0  0  0  0  0  0  0  0  0  0
  -21.1957  -26.3519   22.5828 C   0  0  0  0  0  0  0  0  0  0  0  0
  -28.6648  -26.1119   18.7070 C   0  0  0  0  0  0  0  0  0  1  0  0
  -23.7782  -29.9848   24.8118 C   0  0  1  0  0  0  0  0  0  0  0  0
  -21.2065  -27.2024   24.9313 C   0  0  2  0  0  0  0  0  0  0  0  0
  -24.1261  -30.8011   26.0885 C   0  0  0  0  0  0  0  0  0  0  0  0
  -26.0923  -11.9258   21.1638 N   0  0  0  0  0  0  0  0  0  0  0  0
  -25.9409  -13.0417   20.4304 N   0  0  0  0  0  0  0  0  0  0  0  0
  -28.4423  -22.5225   19.2505 N   0  0  0  0  0  0  0  0  0  0  0  0
  -24.4434  -30.6380   22.5195 N   0  0  0  0  0  0  0  0  0  0  0  0
  -28.8005  -15.5727   20.4318 N   0  0  0  0  0  0  0  0  0  0  0  0
  -24.3079  -14.4704   19.4804 N   0  0  0  0  0  0  0  0  0  0  0  0
  -21.8432  -11.2969   21.5419 N   0  0  0  0  0  0  0  0  0  0  0  0
  -27.7363  -17.6758   20.3494 N   0  0  0  0  0  0  0  0  0  0  0  0
  -25.1019  -33.8722   21.8294 N   0  0  0  0  0  0  0  0  0  0  0  0
  -22.5689  -29.1772   24.9300 N   0  0  0  0  0  0  0  0  0  0  0  0
  -21.0333  -26.0324   24.0246 N   0  3  0  0  0  0  0  0  0  0  0  0
  -27.2955  -24.2290   20.4601 O   0  0  0  0  0  0  0  0  0  0  0  0
  -24.5551  -22.3467   20.9456 O   0  0  0  0  0  0  0  0  0  0  0  0
  -21.7379  -13.2027   20.2709 O   0  0  0  0  0  0  0  0  0  0  0  0
  -26.7018  -32.1850   21.7032 O   0  0  0  0  0  0  0  0  0  0  0  0
  -22.6906  -31.7188   23.6131 O   0  0  0  0  0  0  0  0  0  0  0  0
  -23.5795  -27.1388   24.4818 O   0  0  0  0  0  0  0  0  0  0  0  0
  -29.9582  -17.4443   19.7241 O   0  0  0  0  0  0  0  0  0  0  0  0
  -23.8108   -6.9478   24.4139 O   0  0  0  0  0  0  0  0  0  0  0  0
  -28.5964  -26.9145   19.8848 O   0  0  0  0  0  0  0  0  0  1  0  0
  -19.9657   -3.4635   22.5487 F   0  0  0  0  0  0  0  0  0  0  0  0
  -24.4469   -4.3272   23.8052 F   0  0  0  0  0  0  0  0  0  0  0  0
  -25.9810  -19.6892   20.4813 S   0  0  0  0  0  0  0  0  0  0  0  0
  1  2  1  0  0  0  0
  1  5  2  0  0  0  0
  2  6  2  0  0  0  0
  3  8  2  0  0  0  0
  3 16  1  0  0  0  0
  4  9  1  0  0  0  0
  4 16  2  0  0  0  0
  5 18  1  0  0  0  0
  6 20  1  0  0  0  0
  7 10  2  0  0  0  0
  7 19  1  0  0  0  0
  8 23  1  0  0  0  0
  9 23  2  0  0  0  0
 10 24  1  0  0  0  0
 11 12  2  0  0  0  0
 11 25  1  0  0  0  0
 12 26  1  0  0  0  0
 13 21  1  0  0  0  0
 13 24  2  0  0  0  0
 14 22  1  0  0  0  0
 14 31  2  0  0  0  0
 15 26  2  0  0  0  0
 15 27  1  0  0  0  0
 16 28  1  0  0  0  0
 17 28  1  0  0  0  0
 17 30  2  0  0  0  0
 17 34  1  0  0  0  0
 18 20  2  0  0  0  0
 18 39  1  0  0  0  0
 19 21  2  0  0  0  0
 19 40  1  0  0  0  0
 20 50  1  0  0  0  0
 21 41  1  0  0  0  0
 22 29  2  0  0  0  0
 22 65  1  0  0  0  0
 23 81  1  0  0  0  0
 24 82  1  0  0  0  0
 25 27  2  0  0  0  0
 25 81  1  0  0  0  0
 26 83  1  0  0  0  0
 27 84  1  0  0  0  0
 28 63  2  0  0  0  0
 29 33  1  0  0  0  0
 29 85  1  0  0  0  0
 30 64  1  0  0  0  0
 30 68  1  0  0  0  0
 31 70  1  0  0  0  0
 31 85  1  0  0  0  0
 32 51  1  0  0  0  0
 32 65  1  0  0  0  0
 32 74  2  0  0  0  0
 33 75  2  0  0  0  0
 34 69  1  0  0  0  0
 34 76  2  0  0  0  0
 35 52  1  0  0  0  0
 35 71  1  0  0  0  0
 35 77  2  0  0  0  0
 36 60  1  0  0  0  0
 36 66  1  0  0  0  0
 36 78  2  0  0  0  0
 37 61  1  0  0  0  0
 37 72  1  0  0  0  0
 37 79  2  0  0  0  0
 38 67  1  0  0  0  0
 38 70  1  0  0  0  0
 38 80  2  0  0  0  0
 39 42  1  0  0  0  0
 40 52  1  0  0  0  0
 41 66  1  0  0  0  0
 42 44  1  0  0  0  0
 43 45  1  0  0  0  0
 43 47  1  0  0  0  0
 44 50  1  0  0  0  0
 45 53  1  0  0  0  0
 46 48  1  0  0  0  0
 46 51  1  0  0  0  0
 47 67  1  0  0  0  0
 48 65  1  0  0  0  0
 49 53  1  0  0  0  0
 49 67  1  0  0  0  0
 50 71  1  0  0  0  0
 51 59  1  0  0  0  0
 52 66  1  0  0  0  0
 53 64  1  0  0  0  0
 54 61  1  0  0  0  0
 55 62  1  0  0  0  0
 56 62  1  0  0  0  0
 57 62  1  0  0  0  0
 58 73  1  0  0  0  0
 59 82  1  0  0  0  0
 60 62  1  0  0  0  0
 60 72  1  0  0  0  0
 61 73  1  0  0  0  0
 63 64  1  0  0  0  0
M  CHG  1  73   1
M  ISO  4  38 100  59 101  70 100  82 101
M  END
> <Batch ID>
0105

> <Smiles>
CNC(C)C(=O)NC(C(=O)N1Cc2cc([101O:1][101CH2:1]C3CCN(c4cc([100NH:0][100C:0](=O)N5CCCC(n6nc(-c7ccc(Oc8ccc(F)cc8F)cc7)c(C(N)=O)c6N)C5)sc4C=O)C3=O)ccc2CC1C(=O)NC1CCCc2ccccc21)C(C)(C)C

> <Shape>
0.323

> <Color>
0.123

> <Negative vol penalty>
0.000

$$$$

  -OEChem-04052301113D

 88 97  0     1  0  0  0  0  0999 V2000
  -32.1511  -27.9098   17.8459 C   0  0  0  0  0  0  0  0  0  0  0  0
  -31.2766  -26.9994   18.4305 C   0  0  0  0  0  0  0  0  0  0  0  0
  -29.5295  -18.6172   25.0368 C   0  0  0  0  0  0  0  0  0  0  0  0
  -22.2263  -13.5294   17.9686 C   0  0  0  0  0  0  0  0  0  0  0  0
  -23.1737  -15.6209   18.7201 C   0  0  0  0  0  0  0  0  0  0  0  0
  -30.3132  -17.7491   24.2768 C   0  0  0  0  0  0  0  0  0  0  0  0
  -32.1295  -29.2470   18.2399 C   0  0  0  0  0  0  0  0  0  0  0  0
  -30.3806  -27.4256   19.4104 C   0  0  0  0  0  0  0  0  0  0  0  0
  -25.7178  -25.5762   18.7159 C   0  0  0  0  0  0  0  0  0  0  0  0
  -28.3234  -19.0965   24.5257 C   0  0  0  0  0  0  0  0  0  0  0  0
  -21.2392  -14.2267   17.2722 C   0  0  0  0  0  0  0  0  0  0  0  0
  -22.1866  -16.3183   18.0237 C   0  0  0  0  0  0  0  0  0  0  0  0
  -25.4940  -24.2538   19.0968 C   0  0  0  0  0  0  0  0  0  0  0  0
  -20.1303  -18.6585   16.1493 C   0  0  0  0  0  0  0  0  0  0  0  0
  -20.5260  -19.7607   15.3917 C   0  0  0  0  0  0  0  0  0  0  0  0
  -28.6847  -17.8395   22.4944 C   0  0  0  0  0  0  0  0  0  0  0  0
  -24.4837  -25.0219   21.1482 C   0  0  0  0  0  0  0  0  0  0  0  0
  -21.9627  -18.3369   14.0704 C   0  0  0  0  0  0  0  0  0  0  0  0
  -23.1936  -14.2265   18.6926 C   0  0  0  0  0  0  0  0  0  0  0  0
  -29.8908  -17.3602   23.0056 C   0  0  0  0  0  0  0  0  0  0  0  0
  -24.0236  -12.5729   20.4488 C   0  0  0  0  0  0  0  0  0  0  0  0
  -31.2263  -29.6918   19.2181 C   0  0  0  0  0  0  0  0  0  0  0  0
  -25.3354  -26.6329   19.5547 C   0  0  0  0  0  0  0  0  0  0  0  0
  -30.3479  -28.7698   19.8188 C   0  0  0  0  0  0  0  0  0  0  0  0
  -24.7014  -26.3569   20.7745 C   0  0  0  0  0  0  0  0  0  0  0  0
  -27.9010  -18.7076   23.2545 C   0  0  0  0  0  0  0  0  0  0  0  0
  -21.2194  -15.6211   17.2997 C   0  0  0  0  0  0  0  0  0  0  0  0
  -24.8795  -23.9764   20.3144 C   0  0  0  0  0  0  0  0  0  0  0  0
  -20.6509  -17.3954   15.8675 C   0  0  0  0  0  0  0  0  0  0  0  0
  -21.4422  -19.5999   14.3522 C   0  0  0  0  0  0  0  0  0  0  0  0
  -21.5670  -17.2346   14.8281 C   0  0  0  0  0  0  0  0  0  0  0  0
  -24.2132  -13.5067   19.4126 C   0  0  0  0  0  0  0  0  0  0  0  0
  -25.2937  -12.1799   20.7936 C   0  0  0  0  0  0  0  0  0  0  0  0
  -25.0991  -20.9876   22.3249 C   0  0  0  0  0  0  0  0  0  0  0  0
  -26.3669  -20.5525   22.5251 C   0  0  0  0  0  0  0  0  0  0  0  0
  -23.9877  -19.9795   22.3830 C   0  0  0  0  0  0  0  0  0  0  0  0
  -30.7252  -16.4353   22.1961 C   0  0  0  0  0  0  0  0  0  0  0  0
  -22.8080  -12.1027   21.0463 C   0  0  0  0  0  0  0  0  0  0  0  0
  -26.8748  -28.9685   21.0642 C   0  0  0  0  0  0  0  0  0  0  0  0
  -23.8701  -29.9477   21.7958 C   0  0  0  0  0  0  0  0  0  0  0  0
  -20.7728  -28.4044   22.8166 C   0  0  0  0  0  0  0  0  0  0  0  0
  -30.6340  -14.7571   20.3798 C   0  0  0  0  0  0  0  0  0  0  0  0
  -31.2724  -31.1375   19.6452 C   0  0  0  0  0  0  0  0  0  0  0  0
  -25.5596  -28.0544   19.1173 C   0  0  0  0  0  0  0  0  0  0  0  0
  -24.2534  -27.4558   21.7019 C   0  0  0  0  0  0  0  0  0  0  0  0
  -24.3179  -18.5655   22.7962 C   0  0  0  0  0  0  0  0  0  0  0  0
  -30.0361  -31.5830   20.4218 C   0  0  0  0  0  0  0  0  0  0  0  0
  -29.6873  -11.6673   18.9466 C   0  0  0  0  0  0  0  0  0  0  0  0
  -29.6807  -30.5574   21.4936 C   0  0  0  0  0  0  0  0  0  0  0  0
  -28.1577  -11.6931   19.0106 C   0  0  0  0  0  0  0  0  0  0  0  0
  -25.7107  -18.1585   22.3480 C   0  0  0  0  0  0  0  0  0  0  0  0
  -30.2651  -13.0449   18.6253 C   0  0  0  0  0  0  0  0  0  0  0  0
  -28.2763  -14.1575   19.5555 C   0  0  0  0  0  0  0  0  0  0  0  0
  -29.3444  -29.1987   20.8672 C   0  0  1  0  0  0  0  0  0  0  0  0
  -25.5941  -29.0395   20.2817 C   0  0  1  0  0  0  0  0  0  0  0  0
  -27.6494  -12.8091   19.9453 C   0  0  1  0  0  0  0  0  0  0  0  0
  -27.5260  -21.5238   22.4130 C   0  0  0  0  0  0  0  0  0  0  0  0
  -18.3973  -29.1502   22.5030 C   0  0  0  0  0  0  0  0  0  0  0  0
  -24.1976  -31.1843   24.5659 C   0  0  0  0  0  0  0  0  0  0  0  0
  -21.8443  -30.4976   25.0742 C   0  0  0  0  0  0  0  0  0  0  0  0
  -22.2994  -32.1115   23.2274 C   0  0  0  0  0  0  0  0  0  0  0  0
  -20.0252  -25.8600   21.5027 C   0  0  0  0  0  0  0  0  0  0  0  0
  -24.6656  -22.4067   22.0882 C   0  0  0  0  0  0  0  0  0  1  0  0
  -22.9009  -29.6751   22.9206 C   0  0  1  0  0  0  0  0  0  0  0  0
  -19.5128  -28.2570   21.9828 C   0  0  2  0  0  0  0  0  0  0  0  0
  -22.8299  -30.8478   23.9390 C   0  0  0  0  0  0  0  0  0  0  0  0
  -25.5023  -13.6958   19.1184 N   0  0  0  0  0  0  0  0  0  0  0  0
  -26.1341  -12.8754   19.9750 N   0  0  0  0  0  0  0  0  0  0  0  0
  -26.6741  -19.1953   22.7347 N   0  0  0  0  0  0  0  0  0  0  0  0
  -24.5005  -28.8292   21.2325 N   0  0  0  0  0  0  0  0  0  0  0  0
  -29.7425  -14.0427   19.5606 N   0  0  0  0  0  0  0  0  0  0  0  0
  -25.7624  -11.3108   21.7141 N   0  0  0  0  0  0  0  0  0  0  0  0
  -22.2976  -12.7927   22.1542 N   0  0  0  0  0  0  0  0  0  0  0  0
  -30.0335  -15.6557   21.2686 N   0  0  0  0  0  0  0  0  0  0  0  0
  -28.0078  -29.2149   20.3125 N   0  0  0  0  0  0  0  0  0  0  0  0
  -21.6251  -29.3523   22.2910 N   0  0  0  0  0  0  0  0  0  0  0  0
  -19.0359  -26.8454   22.0099 N   0  3  0  0  0  0  0  0  0  0  0  0
  -22.8244  -20.3093   22.1535 O   0  0  0  0  0  0  0  0  0  0  0  0
  -31.9430  -16.4356   22.3535 O   0  0  0  0  0  0  0  0  0  0  0  0
  -22.2014  -11.0905   20.6206 O   0  0  0  0  0  0  0  0  0  0  0  0
  -26.8377  -28.7108   22.2617 O   0  0  0  0  0  0  0  0  0  0  0  0
  -24.0554  -31.1097   21.4255 O   0  0  0  0  0  0  0  0  0  0  0  0
  -20.9785  -27.7472   23.8346 O   0  0  0  0  0  0  0  0  0  0  0  0
  -31.8563  -14.5825   20.3499 O   0  0  0  0  0  0  0  0  0  0  0  0
  -20.2564  -16.3019   16.6201 O   0  0  0  0  0  0  0  0  0  0  0  0
  -24.6606  -22.6866   20.6889 O   0  0  0  0  0  0  0  0  0  1  0  0
  -21.8209  -20.6583   13.6238 F   0  0  0  0  0  0  0  0  0  0  0  0
  -22.0696  -16.0234   14.5520 F   0  0  0  0  0  0  0  0  0  0  0  0
  1  2  1  0  0  0  0
  1  7  2  0  0  0  0
  2  8  2  0  0  0  0
  3  6  1  0  0  0  0
  3 10  2  0  0  0  0
  4 11  2  0  0  0  0
  4 19  1  0  0  0  0
  5 12  1  0  0  0  0
  5 19  2  0  0  0  0
  6 20  2  0  0  0  0
  7 22  1  0  0  0  0
  8 24  1  0  0  0  0
  9 13  2  0  0  0  0
  9 23  1  0  0  0  0
 10 26  1  0  0  0  0
 11 27  1  0  0  0  0
 12 27  2  0  0  0  0
 13 28  1  0  0  0  0
 14 15  2  0  0  0  0
 14 29  1  0  0  0  0
 15 30  1  0  0  0  0
 16 20  1  0  0  0  0
 16 26  2  0  0  0  0
 17 25  1  0  0  0  0
 17 28  2  0  0  0  0
 18 30  2  0  0  0  0
 18 31  1  0  0  0  0
 19 32  1  0  0  0  0
 20 37  1  0  0  0  0
 21 32  1  0  0  0  0
 21 33  2  0  0  0  0
 21 38  1  0  0  0  0
 22 24  2  0  0  0  0
 22 43  1  0  0  0  0
 23 25  2  0  0  0  0
 23 44  1  0  0  0  0
 24 54  1  0  0  0  0
 25 45  1  0  0  0  0
 26 69  1  0  0  0  0
 27 85  1  0  0  0  0
 28 86  1  0  0  0  0
 29 31  2  0  0  0  0
 29 85  1  0  0  0  0
 30 87  1  0  0  0  0
 31 88  1  0  0  0  0
 32 67  2  0  0  0  0
 33 68  1  0  0  0  0
 33 72  1  0  0  0  0
 34 35  2  0  0  0  0
 34 36  1  0  0  0  0
 34 63  1  0  0  0  0
 35 57  1  0  0  0  0
 35 69  1  0  0  0  0
 36 46  1  0  0  0  0
 36 78  2  0  0  0  0
 37 74  1  0  0  0  0
 37 79  2  0  0  0  0
 38 73  1  0  0  0  0
 38 80  2  0  0  0  0
 39 55  1  0  0  0  0
 39 75  1  0  0  0  0
 39 81  2  0  0  0  0
 40 64  1  0  0  0  0
 40 70  1  0  0  0  0
 40 82  2  0  0  0  0
 41 65  1  0  0  0  0
 41 76  1  0  0  0  0
 41 83  2  0  0  0  0
 42 71  1  0  0  0  0
 42 74  1  0  0  0  0
 42 84  2  0  0  0  0
 43 47  1  0  0  0  0
 44 55  1  0  0  0  0
 45 70  1  0  0  0  0
 46 51  1  0  0  0  0
 47 49  1  0  0  0  0
 48 50  1  0  0  0  0
 48 52  1  0  0  0  0
 49 54  1  0  0  0  0
 50 56  1  0  0  0  0
 51 69  1  0  0  0  0
 52 71  1  0  0  0  0
 53 56  1  0  0  0  0
 53 71  1  0  0  0  0
 54 75  1  0  0  0  0
 55 70  1  0  0  0  0
 56 68  1  0  0  0  0
 58 65  1  0  0  0  0
 59 66  1  0  0  0  0
 60 66  1  0  0  0  0
 61 66  1  0  0  0  0
 62 77  1  0  0  0  0
 63 86  1  0  0  0  0
 64 66  1  0  0  0  0
 64 76  1  0  0  0  0
 65 77  1  0  0  0  0
 67 68  1  0  0  0  0
M  CHG  1  77   1
M  ISO  4  42 100  63 101  74 100  86 101
M  END
> <Batch ID>
0105

> <Smiles>
CNC(C)C(=O)NC(C(=O)N1Cc2cc([101O:1][101CH2:1]C3=C(C)N(c4cccc(C(=O)[100NH:0][100C:0](=O)N5CCCC(n6nc(-c7ccc(Oc8ccc(F)cc8F)cc7)c(C(N)=O)c6N)C5)c4)CCC3=O)ccc2CC1C(=O)NC1CCCc2ccccc21)C(C)(C)C

> <Shape>
0.234

> <Color>
0.089

> <Negative vol penalty>
0.000

$$$$

  -OEChem-04052301113D

 86 94  0     1  0  0  0  0  0999 V2000
  -29.8049  -25.1557   17.5039 C   0  0  0  0  0  0  0  0  0  0  0  0
  -28.6444  -25.9029   17.3370 C   0  0  0  0  0  0  0  0  0  0  0  0
  -25.6335  -14.6866   21.8254 C   0  0  0  0  0  0  0  0  0  0  0  0
  -27.9711  -14.1538   21.5274 C   0  0  0  0  0  0  0  0  0  0  0  0
  -30.3425  -24.9855   18.7779 C   0  0  0  0  0  0  0  0  0  0  0  0
  -28.0279  -26.4902   18.4424 C   0  0  0  0  0  0  0  0  0  0  0  0
  -22.8221  -29.6274   18.8722 C   0  0  0  0  0  0  0  0  0  0  0  0
  -25.2850  -13.4201   21.3563 C   0  0  0  0  0  0  0  0  0  0  0  0
  -27.6226  -12.8872   21.0583 C   0  0  0  0  0  0  0  0  0  0  0  0
  -21.4788  -29.3613   19.1340 C   0  0  0  0  0  0  0  0  0  0  0  0
  -23.7669  -10.4551   19.8976 C   0  0  0  0  0  0  0  0  0  0  0  0
  -22.7264  -10.3680   18.9727 C   0  0  0  0  0  0  0  0  0  0  0  0
  -21.8179  -29.9563   21.4470 C   0  0  0  0  0  0  0  0  0  0  0  0
  -21.9398  -24.1008   21.3062 C   0  0  0  0  0  0  0  0  0  0  0  0
  -24.3020  -24.9651   22.5128 C   0  0  0  0  0  0  0  0  0  0  0  0
  -23.9670  -11.7696   17.4451 C   0  0  0  0  0  0  0  0  0  0  0  0
  -26.9766  -15.0535   21.9109 C   0  0  0  0  0  0  0  0  0  0  0  0
  -27.5923  -16.7346   23.7281 C   0  0  0  0  0  0  0  0  0  0  0  0
  -29.7247  -25.5609   19.9005 C   0  0  0  0  0  0  0  0  0  0  0  0
  -23.6773  -30.0503   19.9000 C   0  0  0  0  0  0  0  0  0  0  0  0
  -28.5685  -26.3499   19.7334 C   0  0  0  0  0  0  0  0  0  0  0  0
  -23.1710  -30.2297   21.1952 C   0  0  0  0  0  0  0  0  0  0  0  0
  -23.0993  -23.3329   21.1988 C   0  0  0  0  0  0  0  0  0  0  0  0
  -21.9614  -25.3009   22.0169 C   0  0  0  0  0  0  0  0  0  0  0  0
  -24.2803  -23.7650   21.8021 C   0  0  0  0  0  0  0  0  0  0  0  0
  -26.2795  -12.5204   20.9728 C   0  0  0  0  0  0  0  0  0  0  0  0
  -20.9772  -29.5229   20.4221 C   0  0  0  0  0  0  0  0  0  0  0  0
  -24.9074  -11.1995   19.5963 C   0  0  0  0  0  0  0  0  0  0  0  0
  -22.8265  -11.0253   17.7464 C   0  0  0  0  0  0  0  0  0  0  0  0
  -23.1425  -25.7330   22.6202 C   0  0  0  0  0  0  0  0  0  0  0  0
  -25.0075  -11.8567   18.3700 C   0  0  0  0  0  0  0  0  0  0  0  0
  -27.3372  -16.3619   22.3948 C   0  0  0  0  0  0  0  0  0  0  0  0
  -27.8896  -18.0737   23.6594 C   0  0  0  0  0  0  0  0  0  0  0  0
  -27.5632  -15.9412   24.9220 C   0  0  0  0  0  0  0  0  0  0  0  0
  -26.3017  -28.8794   21.2585 C   0  0  0  0  0  0  0  0  0  0  0  0
  -26.2967  -31.7264   22.8133 C   0  0  0  0  0  0  0  0  0  0  0  0
  -19.5301  -25.7990   21.5887 C   0  0  0  0  0  0  0  0  0  0  0  0
  -24.5158  -34.4162   23.9269 C   0  0  0  0  0  0  0  0  0  0  0  0
  -26.0716  -22.6894   20.4495 C   0  0  0  0  0  0  0  0  0  0  0  0
  -30.3537  -25.3513   21.2554 C   0  0  0  0  0  0  0  0  0  0  0  0
  -25.1176  -30.3589   19.5956 C   0  0  0  0  0  0  0  0  0  0  0  0
  -24.0429  -30.7009   22.3293 C   0  0  0  0  0  0  0  0  0  0  0  0
  -29.3939  -25.6339   22.4065 C   0  0  0  0  0  0  0  0  0  0  0  0
  -29.4042  -21.1449   20.1051 C   0  0  0  0  0  0  0  0  0  0  0  0
  -28.7164  -26.9804   22.1998 C   0  0  0  0  0  0  0  0  0  0  0  0
  -29.2056  -19.7643   20.7284 C   0  0  0  0  0  0  0  0  0  0  0  0
  -28.1161  -21.6770   19.4841 C   0  0  0  0  0  0  0  0  0  0  0  0
  -26.7615  -20.3194   21.0501 C   0  0  0  0  0  0  0  0  0  0  0  0
  -27.8635  -26.9726   20.9249 C   0  0  1  0  0  0  0  0  0  0  0  0
  -26.0164  -30.2900   20.8264 C   0  0  1  0  0  0  0  0  0  0  0  0
  -28.0310  -19.7746   21.7220 C   0  0  1  0  0  0  0  0  0  0  0  0
  -23.0473  -22.0518   20.4312 C   0  0  0  0  0  0  0  0  0  0  0  0
  -24.7793  -36.5635   25.1986 C   0  0  0  0  0  0  0  0  0  0  0  0
  -26.4482  -30.1577   25.4260 C   0  0  0  0  0  0  0  0  0  0  0  0
  -25.7576  -32.2388   26.6345 C   0  0  0  0  0  0  0  0  0  0  0  0
  -27.8944  -32.1966   25.3480 C   0  0  0  0  0  0  0  0  0  0  0  0
  -26.2492  -22.7092   22.9269 C   0  0  0  0  0  0  0  0  0  0  0  0
  -23.6277  -36.0314   21.6115 C   0  0  0  0  0  0  0  0  0  0  0  0
  -18.5408  -26.9008   21.9421 C   0  0  0  0  0  0  0  0  0  0  0  0
  -17.9552  -27.5818   20.7099 C   0  0  0  0  0  0  0  0  0  0  0  0
  -19.0321  -28.2662   19.8806 C   0  0  0  0  0  0  0  0  0  1  0  0
  -25.6965  -32.2411   24.0993 C   0  0  1  0  0  0  0  0  0  0  0  0
  -24.7762  -35.9083   23.8262 C   0  0  2  0  0  0  0  0  0  0  0  0
  -26.4329  -31.6978   25.3562 C   0  0  0  0  0  0  0  0  0  0  0  0
  -27.4614  -17.3819   21.5415 N   0  0  0  0  0  0  0  0  0  0  0  0
  -27.7978  -18.4088   22.3406 N   0  0  0  0  0  0  0  0  0  0  0  0
  -25.4456  -30.9836   21.9828 N   0  0  0  0  0  0  0  0  0  0  0  0
  -27.0049  -21.6335   20.4354 N   0  0  0  0  0  0  0  0  0  0  0  0
  -28.2180  -18.9856   24.5992 N   0  0  0  0  0  0  0  0  0  0  0  0
  -27.2388  -14.5820   24.8133 N   0  0  0  0  0  0  0  0  0  0  0  0
  -20.7841  -26.0788   22.1245 N   0  0  0  0  0  0  0  0  0  0  0  0
  -27.4095  -28.3185   20.6524 N   0  0  0  0  0  0  0  0  0  0  0  0
  -25.6899  -33.6961   23.9929 N   0  0  0  0  0  0  0  0  0  0  0  0
  -25.4916  -22.9854   21.7020 N   0  0  0  0  0  0  0  0  0  0  0  0
  -23.7259  -36.5624   22.9955 N   0  3  0  0  0  0  0  0  0  0  0  0
  -27.8013  -16.4268   26.0538 O   0  0  0  0  0  0  0  0  0  0  0  0
  -25.5716  -28.3405   22.0820 O   0  0  0  0  0  0  0  0  0  0  0  0
  -27.4752  -31.9802   22.5518 O   0  0  0  0  0  0  0  0  0  0  0  0
  -19.2065  -24.8232   20.9197 O   0  0  0  0  0  0  0  0  0  0  0  0
  -23.3840  -33.9375   23.9490 O   0  0  0  0  0  0  0  0  0  0  0  0
  -25.8015  -23.3350   19.4297 O   0  0  0  0  0  0  0  0  0  0  0  0
  -25.9399  -11.2843   20.5152 O   0  0  0  0  0  0  0  0  0  0  0  0
  -19.6666  -29.2632   20.6805 O   0  0  0  0  0  0  0  0  0  1  0  0
  -21.8279  -10.9403   16.8577 F   0  0  0  0  0  0  0  0  0  0  0  0
  -23.1737  -26.8845   23.3061 F   0  0  0  0  0  0  0  0  0  0  0  0
  -26.1012  -12.5723   18.0744 F   0  0  0  0  0  0  0  0  0  0  0  0
  1  2  1  0  0  0  0
  1  5  2  0  0  0  0
  2  6  2  0  0  0  0
  3  8  2  0  0  0  0
  3 17  1  0  0  0  0
  4  9  1  0  0  0  0
  4 17  2  0  0  0  0
  5 19  1  0  0  0  0
  6 21  1  0  0  0  0
  7 10  2  0  0  0  0
  7 20  1  0  0  0  0
  8 26  1  0  0  0  0
  9 26  2  0  0  0  0
 10 27  1  0  0  0  0
 11 12  2  0  0  0  0
 11 28  1  0  0  0  0
 12 29  1  0  0  0  0
 13 22  1  0  0  0  0
 13 27  2  0  0  0  0
 14 23  2  0  0  0  0
 14 24  1  0  0  0  0
 15 25  2  0  0  0  0
 15 30  1  0  0  0  0
 16 29  2  0  0  0  0
 16 31  1  0  0  0  0
 17 32  1  0  0  0  0
 18 32  1  0  0  0  0
 18 33  2  0  0  0  0
 18 34  1  0  0  0  0
 19 21  2  0  0  0  0
 19 40  1  0  0  0  0
 20 22  2  0  0  0  0
 20 41  1  0  0  0  0
 21 49  1  0  0  0  0
 22 42  1  0  0  0  0
 23 25  1  0  0  0  0
 23 52  1  0  0  0  0
 24 30  2  0  0  0  0
 24 71  1  0  0  0  0
 25 74  1  0  0  0  0
 26 82  1  0  0  0  0
 27 83  1  0  0  0  0
 28 31  2  0  0  0  0
 28 82  1  0  0  0  0
 29 84  1  0  0  0  0
 30 85  1  0  0  0  0
 31 86  1  0  0  0  0
 32 65  2  0  0  0  0
 33 66  1  0  0  0  0
 33 69  1  0  0  0  0
 34 70  1  0  0  0  0
 34 76  2  0  0  0  0
 35 50  1  0  0  0  0
 35 72  1  0  0  0  0
 35 77  2  0  0  0  0
 36 62  1  0  0  0  0
 36 67  1  0  0  0  0
 36 78  2  0  0  0  0
 37 59  1  0  0  0  0
 37 71  1  0  0  0  0
 37 79  2  0  0  0  0
 38 63  1  0  0  0  0
 38 73  1  0  0  0  0
 38 80  2  0  0  0  0
 39 68  1  0  0  0  0
 39 74  1  0  0  0  0
 39 81  2  0  0  0  0
 40 43  1  0  0  0  0
 41 50  1  0  0  0  0
 42 67  1  0  0  0  0
 43 45  1  0  0  0  0
 44 46  1  0  0  0  0
 44 47  1  0  0  0  0
 45 49  1  0  0  0  0
 46 51  1  0  0  0  0
 47 68  1  0  0  0  0
 48 51  1  0  0  0  0
 48 68  1  0  0  0  0
 49 72  1  0  0  0  0
 50 67  1  0  0  0  0
 51 66  1  0  0  0  0
 53 63  1  0  0  0  0
 54 64  1  0  0  0  0
 55 64  1  0  0  0  0
 56 64  1  0  0  0  0
 57 74  1  0  0  0  0
 58 75  1  0  0  0  0
 59 60  1  0  0  0  0
 60 61  1  0  0  0  0
 61 83  1  0  0  0  0
 62 64  1  0  0  0  0
 62 73  1  0  0  0  0
 63 75  1  0  0  0  0
 65 66  1  0  0  0  0
M  CHG  1  75   1
M  ISO  4  39 100  61 101  74 100  83 101
M  END
> <Batch ID>
0105

> <Smiles>
CNC(C)C(=O)NC(C(=O)N1Cc2cc([101O:1][101CH2:1]CCC(=O)Nc3cc(C)c([100N:0](C)[100C:0](=O)N4CCCC(n5nc(-c6ccc(Oc7ccc(F)cc7F)cc6)c(C(N)=O)c5N)C4)cc3F)ccc2CC1C(=O)NC1CCCc2ccccc21)C(C)(C)C

> <Shape>
0.286

> <Color>
0.070

> <Negative vol penalty>
0.000

$$$$

  -OEChem-04052301113D

 86 94  0     1  0  0  0  0  0999 V2000
  -16.5725  -30.2433   23.7026 C   0  0  0  0  0  0  0  0  0  0  0  0
  -17.4409  -29.6009   24.5793 C   0  0  0  0  0  0  0  0  0  0  0  0
  -26.3268  -13.8809   21.1068 C   0  0  0  0  0  0  0  0  0  0  0  0
  -26.5342  -12.1182   19.4677 C   0  0  0  0  0  0  0  0  0  0  0  0
  -16.8909  -30.3324   22.3482 C   0  0  0  0  0  0  0  0  0  0  0  0
  -18.6278  -29.0462   24.1018 C   0  0  0  0  0  0  0  0  0  0  0  0
  -25.3985  -27.7968   26.0799 C   0  0  0  0  0  0  0  0  0  0  0  0
  -25.0517  -13.4228   21.4382 C   0  0  0  0  0  0  0  0  0  0  0  0
  -25.2591  -11.6600   19.7991 C   0  0  0  0  0  0  0  0  0  0  0  0
  -26.3262  -26.7584   26.1491 C   0  0  0  0  0  0  0  0  0  0  0  0
  -23.8336   -9.8229   22.2514 C   0  0  0  0  0  0  0  0  0  0  0  0
  -23.6640   -8.4488   22.4205 C   0  0  0  0  0  0  0  0  0  0  0  0
  -27.3081  -19.4037   19.9653 C   0  0  0  0  0  0  0  0  0  0  0  0
  -27.9360  -21.3901   18.7420 C   0  0  0  0  0  0  0  0  0  0  0  0
  -26.8099  -27.0423   23.8029 C   0  0  0  0  0  0  0  0  0  0  0  0
  -22.0348   -8.4303   20.6366 C   0  0  0  0  0  0  0  0  0  0  0  0
  -27.0680  -13.2286   20.1215 C   0  0  0  0  0  0  0  0  0  0  0  0
  -27.6390  -20.0274   18.7624 C   0  0  0  0  0  0  0  0  0  0  0  0
  -29.6070  -13.3082   20.3559 C   0  0  0  0  0  0  0  0  0  0  0  0
  -18.0870  -29.7870   21.8555 C   0  0  0  0  0  0  0  0  0  0  0  0
  -25.1612  -28.4596   24.8671 C   0  0  0  0  0  0  0  0  0  0  0  0
  -18.9619  -29.1270   22.7393 C   0  0  0  0  0  0  0  0  0  0  0  0
  -25.8805  -28.0905   23.7215 C   0  0  0  0  0  0  0  0  0  0  0  0
  -27.2742  -20.1427   21.1479 C   0  0  0  0  0  0  0  0  0  0  0  0
  -27.9021  -22.1291   19.9245 C   0  0  0  0  0  0  0  0  0  0  0  0
  -24.5178  -12.3123   20.7844 C   0  0  0  0  0  0  0  0  0  0  0  0
  -27.0300  -26.3790   25.0098 C   0  0  0  0  0  0  0  0  0  0  0  0
  -23.1037  -10.5008   21.2749 C   0  0  0  0  0  0  0  0  0  0  0  0
  -27.5712  -21.5054   21.1275 C   0  0  0  0  0  0  0  0  0  0  0  0
  -22.7646   -7.7525   21.6132 C   0  0  0  0  0  0  0  0  0  0  0  0
  -22.2043   -9.8044   20.4675 C   0  0  0  0  0  0  0  0  0  0  0  0
  -28.3850  -13.7018   19.7783 C   0  0  0  0  0  0  0  0  0  0  0  0
  -30.5555  -14.0416   19.6860 C   0  0  0  0  0  0  0  0  0  0  0  0
  -27.6761  -19.2462   17.5129 C   0  0  0  0  0  0  0  0  0  0  0  0
  -29.8619  -12.3639   21.4043 C   0  0  0  0  0  0  0  0  0  0  0  0
  -22.6378  -28.8312   22.9703 C   0  0  0  0  0  0  0  0  0  0  0  0
  -24.6258  -30.8319   21.3681 C   0  0  0  0  0  0  0  0  0  0  0  0
  -27.8266  -31.7463   20.6158 C   0  0  0  0  0  0  0  0  0  0  0  0
  -27.1666  -17.0303   16.5951 C   0  0  0  0  0  0  0  0  0  0  0  0
  -18.3656  -29.8667   20.3754 C   0  0  0  0  0  0  0  0  0  0  0  0
  -24.1766  -29.5955   24.8152 C   0  0  0  0  0  0  0  0  0  0  0  0
  -25.6773  -28.7837   22.4000 C   0  0  0  0  0  0  0  0  0  0  0  0
  -19.8208  -29.5809   20.0133 C   0  0  0  0  0  0  0  0  0  0  0  0
  -29.7962  -14.8923   15.4852 C   0  0  0  0  0  0  0  0  0  0  0  0
  -20.3183  -28.3375   20.7436 C   0  0  0  0  0  0  0  0  0  0  0  0
  -30.9213  -15.1053   16.4939 C   0  0  0  0  0  0  0  0  0  0  0  0
  -29.0492  -16.1916   15.2184 C   0  0  0  0  0  0  0  0  0  0  0  0
  -29.5549  -17.0195   17.5035 C   0  0  0  0  0  0  0  0  0  0  0  0
  -20.2707  -28.5345   22.2636 C   0  0  1  0  0  0  0  0  0  0  0  0
  -23.6415  -29.8588   23.4110 C   0  0  1  0  0  0  0  0  0  0  0  0
  -30.4517  -15.7949   17.7862 C   0  0  1  0  0  0  0  0  0  0  0  0
  -26.9159  -19.4569   22.4253 C   0  0  0  0  0  0  0  0  0  0  0  0
  -29.1347  -33.3946   19.2486 C   0  0  0  0  0  0  0  0  0  0  0  0
  -23.9953  -29.2359   18.8451 C   0  0  0  0  0  0  0  0  0  0  0  0
  -25.9950  -30.2860   17.7650 C   0  0  0  0  0  0  0  0  0  0  0  0
  -24.0917  -31.7132   18.5156 C   0  0  0  0  0  0  0  0  0  0  0  0
  -25.4030  -18.2506   17.7652 C   0  0  0  0  0  0  0  0  0  0  0  0
  -29.1081  -32.9002   23.0210 C   0  0  0  0  0  0  0  0  0  0  0  0
  -28.5464  -23.1770   24.2620 C   0  0  0  0  0  0  0  0  0  0  0  0
  -28.1301  -24.5917   23.8911 C   0  0  0  0  0  0  0  0  0  1  0  0
  -28.7478  -22.3029   23.0341 C   0  0  0  0  0  0  0  0  0  0  0  0
  -25.6197  -30.6763   20.2425 C   0  0  1  0  0  0  0  0  0  0  0  0
  -28.5107  -33.1014   20.6041 C   0  0  2  0  0  0  0  0  0  0  0  0
  -24.9281  -30.4633   18.8664 C   0  0  0  0  0  0  0  0  0  0  0  0
  -28.5401  -14.6145   18.8156 N   0  0  0  0  0  0  0  0  0  0  0  0
  -29.8707  -14.8006   18.7831 N   0  0  0  0  0  0  0  0  0  0  0  0
  -24.6992  -29.8841   22.3987 N   0  0  0  0  0  0  0  0  0  0  0  0
  -28.5472  -16.7836   16.4575 N   0  0  0  0  0  0  0  0  0  0  0  0
  -28.2046  -23.5082   19.8875 N   0  0  0  0  0  0  0  0  0  0  0  0
  -31.9002  -14.1049   19.7870 N   0  0  0  0  0  0  0  0  0  0  0  0
  -28.7729  -11.6984   21.9834 N   0  0  0  0  0  0  0  0  0  0  0  0
  -21.3843  -29.3476   22.7030 N   0  0  0  0  0  0  0  0  0  0  0  0
  -26.4882  -31.8471   20.3000 N   0  0  0  0  0  0  0  0  0  0  0  0
  -26.8144  -18.1372   17.3946 N   0  0  0  0  0  0  0  0  0  0  0  0
  -29.5849  -33.1482   21.6360 N   0  3  0  0  0  0  0  0  0  0  0  0
  -28.4580  -19.6319   16.6444 O   0  0  0  0  0  0  0  0  0  0  0  0
  -31.0196  -12.1298   21.8267 O   0  0  0  0  0  0  0  0  0  0  0  0
  -22.9760  -27.6569   22.8781 O   0  0  0  0  0  0  0  0  0  0  0  0
  -23.8189  -31.7644   21.3377 O   0  0  0  0  0  0  0  0  0  0  0  0
  -28.4209  -30.7023   20.8752 O   0  0  0  0  0  0  0  0  0  0  0  0
  -26.3069  -16.3414   16.0342 O   0  0  0  0  0  0  0  0  0  0  0  0
  -23.2737  -11.8649   21.1076 O   0  0  0  0  0  0  0  0  0  0  0  0
  -27.9356  -25.3653   25.0744 O   0  0  0  0  0  0  0  0  0  1  0  0
  -27.5384  -22.2286   22.2913 O   0  0  0  0  0  0  0  0  0  0  0  0
  -22.6030   -6.4326   21.7747 F   0  0  0  0  0  0  0  0  0  0  0  0
  -21.5012  -10.4499   19.5269 F   0  0  0  0  0  0  0  0  0  0  0  0
  1  2  1  0  0  0  0
  1  5  2  0  0  0  0
  2  6  2  0  0  0  0
  3  8  2  0  0  0  0
  3 17  1  0  0  0  0
  4  9  1  0  0  0  0
  4 17  2  0  0  0  0
  5 20  1  0  0  0  0
  6 22  1  0  0  0  0
  7 10  2  0  0  0  0
  7 21  1  0  0  0  0
  8 26  1  0  0  0  0
  9 26  2  0  0  0  0
 10 27  1  0  0  0  0
 11 12  2  0  0  0  0
 11 28  1  0  0  0  0
 12 30  1  0  0  0  0
 13 18  1  0  0  0  0
 13 24  2  0  0  0  0
 14 18  2  0  0  0  0
 14 25  1  0  0  0  0
 15 23  1  0  0  0  0
 15 27  2  0  0  0  0
 16 30  2  0  0  0  0
 16 31  1  0  0  0  0
 17 32  1  0  0  0  0
 18 34  1  0  0  0  0
 19 32  1  0  0  0  0
 19 33  2  0  0  0  0
 19 35  1  0  0  0  0
 20 22  2  0  0  0  0
 20 40  1  0  0  0  0
 21 23  2  0  0  0  0
 21 41  1  0  0  0  0
 22 49  1  0  0  0  0
 23 42  1  0  0  0  0
 24 29  1  0  0  0  0
 24 52  1  0  0  0  0
 25 29  2  0  0  0  0
 25 69  1  0  0  0  0
 26 82  1  0  0  0  0
 27 83  1  0  0  0  0
 28 31  2  0  0  0  0
 28 82  1  0  0  0  0
 29 84  1  0  0  0  0
 30 85  1  0  0  0  0
 31 86  1  0  0  0  0
 32 65  2  0  0  0  0
 33 66  1  0  0  0  0
 33 70  1  0  0  0  0
 34 74  1  0  0  0  0
 34 76  2  0  0  0  0
 35 71  1  0  0  0  0
 35 77  2  0  0  0  0
 36 50  1  0  0  0  0
 36 72  1  0  0  0  0
 36 78  2  0  0  0  0
 37 62  1  0  0  0  0
 37 67  1  0  0  0  0
 37 79  2  0  0  0  0
 38 63  1  0  0  0  0
 38 73  1  0  0  0  0
 38 80  2  0  0  0  0
 39 68  1  0  0  0  0
 39 74  1  0  0  0  0
 39 81  2  0  0  0  0
 40 43  1  0  0  0  0
 41 50  1  0  0  0  0
 42 67  1  0  0  0  0
 43 45  1  0  0  0  0
 44 46  1  0  0  0  0
 44 47  1  0  0  0  0
 45 49  1  0  0  0  0
 46 51  1  0  0  0  0
 47 68  1  0  0  0  0
 48 51  1  0  0  0  0
 48 68  1  0  0  0  0
 49 72  1  0  0  0  0
 50 67  1  0  0  0  0
 51 66  1  0  0  0  0
 53 63  1  0  0  0  0
 54 64  1  0  0  0  0
 55 64  1  0  0  0  0
 56 64  1  0  0  0  0
 57 74  1  0  0  0  0
 58 75  1  0  0  0  0
 59 60  1  0  0  0  0
 59 61  1  0  0  0  0
 60 83  1  0  0  0  0
 61 84  1  0  0  0  0
 62 64  1  0  0  0  0
 62 73  1  0  0  0  0
 63 75  1  0  0  0  0
 65 66  1  0  0  0  0
M  CHG  1  75   1
M  ISO  4  39 100  60 101  74 100  83 101
M  END
> <Batch ID>
0105

> <Smiles>
CNC(C)C(=O)NC(C(=O)N1Cc2cc([101O:1][101CH2:1]CCOc3c(C)cc(C(=O)[100N:0](C)[100C:0](=O)N4CCCC(n5nc(-c6ccc(Oc7ccc(F)cc7F)cc6)c(C(N)=O)c5N)C4)cc3N)ccc2CC1C(=O)NC1CCCc2ccccc21)C(C)(C)C

> <Shape>
0.243

> <Color>
0.086

> <Negative vol penalty>
0.000

$$$$

  -OEChem-04052301113D

 90 99  0     1  0  0  0  0  0999 V2000
  -16.4192  -29.5607   23.6962 C   0  0  0  0  0  0  0  0  0  0  0  0
  -16.9614  -28.6316   22.8141 C   0  0  0  0  0  0  0  0  0  0  0  0
  -23.0747  -12.5842   22.3847 C   0  0  0  0  0  0  0  0  0  0  0  0
  -23.7699  -13.6720   20.3426 C   0  0  0  0  0  0  0  0  0  0  0  0
  -17.1545  -30.6889   24.0574 C   0  0  0  0  0  0  0  0  0  0  0  0
  -18.2388  -28.8306   22.2918 C   0  0  0  0  0  0  0  0  0  0  0  0
  -23.4586  -23.9709   23.3061 C   0  0  0  0  0  0  0  0  0  0  0  0
  -29.4210  -16.8133   23.5092 C   0  0  0  0  0  0  0  0  0  0  0  0
  -29.5741  -15.5853   22.8656 C   0  0  0  0  0  0  0  0  0  0  0  0
  -22.3224  -13.7078   22.7271 C   0  0  0  0  0  0  0  0  0  0  0  0
  -23.0176  -14.7956   20.6849 C   0  0  0  0  0  0  0  0  0  0  0  0
  -24.4511  -22.9909   23.2772 C   0  0  0  0  0  0  0  0  0  0  0  0
  -23.3193  -17.4646   22.7383 C   0  0  0  0  0  0  0  0  0  0  0  0
  -23.9129  -18.7162   22.5753 C   0  0  0  0  0  0  0  0  0  0  0  0
  -25.9301  -24.5081   22.1117 C   0  0  0  0  0  0  0  0  0  0  0  0
  -29.7530  -17.9565   21.4068 C   0  0  0  0  0  0  0  0  0  0  0  0
  -22.1645  -19.3443   21.0306 C   0  0  0  0  0  0  0  0  0  0  0  0
  -23.7985  -12.5663   21.1925 C   0  0  0  0  0  0  0  0  0  0  0  0
  -24.1049  -10.0942   20.6427 C   0  0  0  0  0  0  0  0  0  0  0  0
  -18.4455  -30.8970   23.5468 C   0  0  0  0  0  0  0  0  0  0  0  0
  -23.7039  -25.2298   22.7509 C   0  0  0  0  0  0  0  0  0  0  0  0
  -18.9916  -29.9633   22.6454 C   0  0  0  0  0  0  0  0  0  0  0  0
  -24.9443  -25.4978   22.1487 C   0  0  0  0  0  0  0  0  0  0  0  0
  -29.9062  -16.7285   20.7632 C   0  0  0  0  0  0  0  0  0  0  0  0
  -29.5104  -17.9989   22.7797 C   0  0  0  0  0  0  0  0  0  0  0  0
  -29.8167  -15.5429   21.4927 C   0  0  0  0  0  0  0  0  0  0  0  0
  -22.2939  -14.8135   21.8772 C   0  0  0  0  0  0  0  0  0  0  0  0
  -25.6837  -23.2589   22.6812 C   0  0  0  0  0  0  0  0  0  0  0  0
  -22.1483  -17.1527   22.0474 C   0  0  0  0  0  0  0  0  0  0  0  0
  -23.3355  -19.6561   21.7215 C   0  0  0  0  0  0  0  0  0  0  0  0
  -21.5709  -18.0926   21.1936 C   0  0  0  0  0  0  0  0  0  0  0  0
  -24.5762  -11.4062   20.8385 C   0  0  0  0  0  0  0  0  0  0  0  0
  -25.2278   -9.3698   20.3251 C   0  0  0  0  0  0  0  0  0  0  0  0
  -29.7416  -19.3604   24.8054 C   0  0  0  0  0  0  0  0  0  0  0  0
  -28.7952  -20.3460   22.6962 C   0  0  0  0  0  0  0  0  0  0  0  0
  -22.7713   -9.5765   20.7392 C   0  0  0  0  0  0  0  0  0  0  0  0
  -22.4001  -28.6741   22.0346 C   0  0  0  0  0  0  0  0  0  0  0  0
  -25.3262  -28.9910   22.8995 C   0  0  0  0  0  0  0  0  0  0  0  0
  -31.1447  -13.9054   20.1685 C   0  0  0  0  0  0  0  0  0  0  0  0
  -28.3067  -30.0882   24.1444 C   0  0  0  0  0  0  0  0  0  0  0  0
  -29.0220  -13.2620   21.1543 C   0  0  0  0  0  0  0  0  0  0  0  0
  -19.1834  -32.1555   23.9294 C   0  0  0  0  0  0  0  0  0  0  0  0
  -22.6425  -26.2953   22.7047 C   0  0  0  0  0  0  0  0  0  0  0  0
  -25.1513  -26.8548   21.5333 C   0  0  0  0  0  0  0  0  0  0  0  0
  -29.4124  -20.6460   25.5356 C   0  0  0  0  0  0  0  0  0  0  0  0
  -20.6779  -32.1022   23.6233 C   0  0  0  0  0  0  0  0  0  0  0  0
  -28.4065  -21.5195   24.8232 C   0  0  0  0  0  0  0  0  0  0  0  0
  -28.2649  -11.4196   18.0444 C   0  0  0  0  0  0  0  0  0  0  0  0
  -20.9158  -31.5630   22.2163 C   0  0  0  0  0  0  0  0  0  0  0  0
  -28.0483  -10.0039   18.5654 C   0  0  0  0  0  0  0  0  0  0  0  0
  -29.3072  -12.1723   18.8648 C   0  0  0  0  0  0  0  0  0  0  0  0
  -28.7313  -10.8159   20.8744 C   0  0  0  0  0  0  0  0  0  0  0  0
  -20.3839  -30.1316   22.0769 C   0  0  1  0  0  0  0  0  0  0  0  0
  -28.8636  -21.7007   23.3868 C   0  0  2  0  0  0  0  0  0  0  0  0
  -23.2085  -27.7181   22.8616 C   0  0  1  0  0  0  0  0  0  0  0  0
  -27.7310   -9.9679   20.0681 C   0  0  1  0  0  0  0  0  0  0  0  0
  -30.1632  -16.7125   19.2914 C   0  0  0  0  0  0  0  0  0  0  0  0
  -31.3355  -12.4357   19.8618 C   0  0  0  0  0  0  0  0  0  0  0  0
  -29.9127  -32.0111   24.0021 C   0  0  0  0  0  0  0  0  0  0  0  0
  -26.2984  -27.9739   20.1932 C   0  0  0  0  0  0  0  0  0  0  0  0
  -28.4169  -29.2594   20.5507 C   0  0  0  0  0  0  0  0  0  0  0  0
  -26.2372  -30.4645   20.4113 C   0  0  0  0  0  0  0  0  0  0  0  0
  -28.0004  -30.7078   27.0221 C   0  0  0  0  0  0  0  0  0  0  0  0
  -28.0057  -22.7435   22.6741 C   0  0  0  0  0  0  0  0  0  1  0  0
  -26.7677  -29.0966   22.4703 C   0  0  1  0  0  0  0  0  0  0  0  0
  -28.7203  -31.4221   24.7395 C   0  0  2  0  0  0  0  0  0  0  0  0
  -26.9215  -29.1792   20.9253 C   0  0  0  0  0  0  0  0  0  0  0  0
  -25.8957  -11.5120   20.6603 N   0  0  0  0  0  0  0  0  0  0  0  0
  -26.2631  -10.2573   20.3493 N   0  0  0  0  0  0  0  0  0  0  0  0
  -29.3485  -19.2748   23.4482 N   0  0  0  0  0  0  0  0  0  0  0  0
  -24.6007  -27.8957   22.4153 N   0  0  0  0  0  0  0  0  0  0  0  0
  -29.0102  -12.1365   20.3026 N   0  0  0  0  0  0  0  0  0  0  0  0
  -25.4207   -8.0666   20.0303 N   0  0  0  0  0  0  0  0  0  0  0  0
  -21.9691   -9.5785   19.5900 N   0  0  0  0  0  0  0  0  0  0  0  0
  -21.2980  -29.1909   22.6886 N   0  0  0  0  0  0  0  0  0  0  0  0
  -27.3247  -30.2380   23.1881 N   0  0  0  0  0  0  0  0  0  0  0  0
  -29.9704  -14.2624   20.8455 N   0  0  0  0  0  0  0  0  0  0  0  0
  -29.0893  -31.2572   26.1739 N   0  3  0  0  0  0  0  0  0  0  0  0
  -30.4010  -18.5073   25.4082 O   0  0  0  0  0  0  0  0  0  0  0  0
  -28.2766  -20.2374   21.5832 O   0  0  0  0  0  0  0  0  0  0  0  0
  -22.2994   -9.1407   21.8167 O   0  0  0  0  0  0  0  0  0  0  0  0
  -22.7503  -28.9264   20.8877 O   0  0  0  0  0  0  0  0  0  0  0  0
  -24.8521  -29.8578   23.6392 O   0  0  0  0  0  0  0  0  0  0  0  0
  -32.0259  -14.7123   19.8590 O   0  0  0  0  0  0  0  0  0  0  0  0
  -28.8075  -29.0205   24.4905 O   0  0  0  0  0  0  0  0  0  0  0  0
  -28.2951  -13.3488   22.1517 O   0  0  0  0  0  0  0  0  0  0  0  0
  -21.5597  -15.9099   22.2109 O   0  0  0  0  0  0  0  0  0  0  0  0
  -26.6497  -22.2991   22.6605 O   0  0  0  0  0  0  0  0  0  1  0  0
  -23.9049  -20.8585   21.5662 F   0  0  0  0  0  0  0  0  0  0  0  0
  -20.4454  -17.7992   20.5281 F   0  0  0  0  0  0  0  0  0  0  0  0
  1  2  1  0  0  0  0
  1  5  2  0  0  0  0
  2  6  2  0  0  0  0
  3 10  2  0  0  0  0
  3 18  1  0  0  0  0
  4 11  1  0  0  0  0
  4 18  2  0  0  0  0
  5 20  1  0  0  0  0
  6 22  1  0  0  0  0
  7 12  2  0  0  0  0
  7 21  1  0  0  0  0
  8  9  2  0  0  0  0
  8 25  1  0  0  0  0
  9 26  1  0  0  0  0
 10 27  1  0  0  0  0
 11 27  2  0  0  0  0
 12 28  1  0  0  0  0
 13 14  2  0  0  0  0
 13 29  1  0  0  0  0
 14 30  1  0  0  0  0
 15 23  1  0  0  0  0
 15 28  2  0  0  0  0
 16 24  1  0  0  0  0
 16 25  2  0  0  0  0
 17 30  2  0  0  0  0
 17 31  1  0  0  0  0
 18 32  1  0  0  0  0
 19 32  1  0  0  0  0
 19 33  2  0  0  0  0
 19 36  1  0  0  0  0
 20 22  2  0  0  0  0
 20 42  1  0  0  0  0
 21 23  2  0  0  0  0
 21 43  1  0  0  0  0
 22 53  1  0  0  0  0
 23 44  1  0  0  0  0
 24 26  2  0  0  0  0
 24 57  1  0  0  0  0
 25 70  1  0  0  0  0
 26 77  1  0  0  0  0
 27 87  1  0  0  0  0
 28 88  1  0  0  0  0
 29 31  2  0  0  0  0
 29 87  1  0  0  0  0
 30 89  1  0  0  0  0
 31 90  1  0  0  0  0
 32 68  2  0  0  0  0
 33 69  1  0  0  0  0
 33 73  1  0  0  0  0
 34 45  1  0  0  0  0
 34 70  1  0  0  0  0
 34 79  2  0  0  0  0
 35 54  1  0  0  0  0
 35 70  1  0  0  0  0
 35 80  2  0  0  0  0
 36 74  1  0  0  0  0
 36 81  2  0  0  0  0
 37 55  1  0  0  0  0
 37 75  1  0  0  0  0
 37 82  2  0  0  0  0
 38 65  1  0  0  0  0
 38 71  1  0  0  0  0
 38 83  2  0  0  0  0
 39 58  1  0  0  0  0
 39 77  1  0  0  0  0
 39 84  2  0  0  0  0
 40 66  1  0  0  0  0
 40 76  1  0  0  0  0
 40 85  2  0  0  0  0
 41 72  1  0  0  0  0
 41 77  1  0  0  0  0
 41 86  2  0  0  0  0
 42 46  1  0  0  0  0
 43 55  1  0  0  0  0
 44 71  1  0  0  0  0
 45 47  1  0  0  0  0
 46 49  1  0  0  0  0
 47 54  1  0  0  0  0
 48 50  1  0  0  0  0
 48 51  1  0  0  0  0
 49 53  1  0  0  0  0
 50 56  1  0  0  0  0
 51 72  1  0  0  0  0
 52 56  1  0  0  0  0
 52 72  1  0  0  0  0
 53 75  1  0  0  0  0
 54 64  1  0  0  0  0
 55 71  1  0  0  0  0
 56 69  1  0  0  0  0
 59 66  1  0  0  0  0
 60 67  1  0  0  0  0
 61 67  1  0  0  0  0
 62 67  1  0  0  0  0
 63 78  1  0  0  0  0
 64 88  1  0  0  0  0
 65 67  1  0  0  0  0
 65 76  1  0  0  0  0
 66 78  1  0  0  0  0
 68 69  1  0  0  0  0
M  CHG  1  78   1
M  ISO  4  41 100  64 101  77 100  88 101
M  END
> <Batch ID>
0105

> <Smiles>
CNC(C)C(=O)NC(C(=O)N1Cc2cc([101O:1][101CH2:1]C3CCC(=O)N(c4ccc([100N:0](C(C)=O)[100C:0](=O)N5CCCC(n6nc(-c7ccc(Oc8ccc(F)cc8F)cc7)c(C(N)=O)c6N)C5)c(C)c4)C3=O)ccc2CC1C(=O)NC1CCCc2ccccc21)C(C)(C)C

> <Shape>
0.258

> <Color>
0.069

> <Negative vol penalty>
0.000

$$$$

  -OEChem-04052301113D

 86 94  0     1  0  0  0  0  0999 V2000
  -32.5052  -32.7771   20.8167 C   0  0  0  0  0  0  0  0  0  0  0  0
  -32.0752  -31.6890   20.0639 C   0  0  0  0  0  0  0  0  0  0  0  0
  -23.1320   -9.7780   20.8541 C   0  0  0  0  0  0  0  0  0  0  0  0
  -23.8196  -10.4612   23.0671 C   0  0  0  0  0  0  0  0  0  0  0  0
  -32.0007  -32.9779   22.1008 C   0  0  0  0  0  0  0  0  0  0  0  0
  -31.1413  -30.8004   20.5954 C   0  0  0  0  0  0  0  0  0  0  0  0
  -26.7362  -27.8311   17.5485 C   0  0  0  0  0  0  0  0  0  0  0  0
  -22.4028   -8.7247   21.4058 C   0  0  0  0  0  0  0  0  0  0  0  0
  -23.0903   -9.4079   23.6189 C   0  0  0  0  0  0  0  0  0  0  0  0
  -26.6562  -26.5344   17.0424 C   0  0  0  0  0  0  0  0  0  0  0  0
  -19.8606   -8.7282   24.3455 C   0  0  0  0  0  0  0  0  0  0  0  0
  -19.0684   -9.0042   25.4598 C   0  0  0  0  0  0  0  0  0  0  0  0
  -29.6838  -17.1447   18.9697 C   0  0  0  0  0  0  0  0  0  0  0  0
  -25.4964  -25.8336   19.0381 C   0  0  0  0  0  0  0  0  0  0  0  0
  -27.5009  -18.5335   20.0133 C   0  0  0  0  0  0  0  0  0  0  0  0
  -20.3228   -7.3928   26.7509 C   0  0  0  0  0  0  0  0  0  0  0  0
  -23.8404  -10.6462   21.6848 C   0  0  0  0  0  0  0  0  0  0  0  0
  -29.2867  -16.9298   20.2894 C   0  0  0  0  0  0  0  0  0  0  0  0
  -24.1377  -13.0399   20.8544 C   0  0  0  0  0  0  0  0  0  0  0  0
  -31.0528  -32.0967   22.6446 C   0  0  0  0  0  0  0  0  0  0  0  0
  -26.2056  -28.1368   18.8100 C   0  0  0  0  0  0  0  0  0  0  0  0
  -30.6246  -30.9888   21.8886 C   0  0  0  0  0  0  0  0  0  0  0  0
  -25.5686  -27.1354   19.5568 C   0  0  0  0  0  0  0  0  0  0  0  0
  -28.1953  -17.6241   20.8113 C   0  0  0  0  0  0  0  0  0  0  0  0
  -22.3819   -8.5396   22.7882 C   0  0  0  0  0  0  0  0  0  0  0  0
  -26.0388  -25.5348   17.7885 C   0  0  0  0  0  0  0  0  0  0  0  0
  -20.8840   -7.7844   24.4338 C   0  0  0  0  0  0  0  0  0  0  0  0
  -27.8980  -18.7485   18.6936 C   0  0  0  0  0  0  0  0  0  0  0  0
  -19.2994   -8.3366   26.6625 C   0  0  0  0  0  0  0  0  0  0  0  0
  -28.9895  -18.0541   18.1717 C   0  0  0  0  0  0  0  0  0  0  0  0
  -21.1151   -7.1168   25.6365 C   0  0  0  0  0  0  0  0  0  0  0  0
  -24.5944  -11.7341   21.1154 C   0  0  0  0  0  0  0  0  0  0  0  0
  -25.2262  -13.6836   20.3184 C   0  0  0  0  0  0  0  0  0  0  0  0
  -30.0312  -15.9762   21.1009 C   0  0  0  0  0  0  0  0  0  0  0  0
  -22.8452  -13.6192   21.0767 C   0  0  0  0  0  0  0  0  0  0  0  0
  -30.7035  -14.8064   20.4904 C   0  0  0  0  0  0  0  0  0  0  0  0
  -27.4112  -29.1957   21.5538 C   0  0  0  0  0  0  0  0  0  0  0  0
  -26.5702  -21.9528   17.6544 C   0  0  0  0  0  0  0  0  0  0  0  0
  -24.2904  -29.3114   22.4308 C   0  0  0  0  0  0  0  0  0  0  0  0
  -21.1073  -28.1698   21.9703 C   0  0  0  0  0  0  0  0  0  0  0  0
  -30.5717  -32.3283   24.0551 C   0  0  0  0  0  0  0  0  0  0  0  0
  -26.2763  -29.5463   19.3301 C   0  0  0  0  0  0  0  0  0  0  0  0
  -24.9652  -27.4164   20.9079 C   0  0  0  0  0  0  0  0  0  0  0  0
  -29.3045  -31.5509   24.4018 C   0  0  0  0  0  0  0  0  0  0  0  0
  -29.6563  -11.8869   18.6913 C   0  0  0  0  0  0  0  0  0  0  0  0
  -29.4252  -30.1012   23.9426 C   0  0  0  0  0  0  0  0  0  0  0  0
  -28.2211  -11.6726   19.1708 C   0  0  0  0  0  0  0  0  0  0  0  0
  -30.5385  -12.4467   19.8025 C   0  0  0  0  0  0  0  0  0  0  0  0
  -28.5756  -13.4983   20.8932 C   0  0  0  0  0  0  0  0  0  0  0  0
  -29.5941  -30.0168   22.4209 C   0  0  1  0  0  0  0  0  0  0  0  0
  -26.1573  -29.6295   20.8488 C   0  0  1  0  0  0  0  0  0  0  0  0
  -27.6479  -12.9597   19.7902 C   0  0  2  0  0  0  0  0  0  0  0  0
  -28.1852  -18.5508   23.1410 C   0  0  0  0  0  0  0  0  0  0  0  0
  -18.7756  -28.4224   22.8627 C   0  0  0  0  0  0  0  0  0  0  0  0
  -25.0401  -27.6246   24.8603 C   0  0  0  0  0  0  0  0  0  0  0  0
  -22.6078  -27.1202   25.1735 C   0  0  0  0  0  0  0  0  0  0  0  0
  -23.4225  -29.4726   25.3323 C   0  0  0  0  0  0  0  0  0  0  0  0
  -20.0888  -29.1293   19.3624 C   0  0  0  0  0  0  0  0  0  0  0  0
  -27.7501  -17.4137   22.2217 C   0  0  0  0  0  0  0  0  0  0  0  0
  -25.9518  -23.2027   18.2464 C   0  0  0  0  0  0  0  0  0  1  0  0
  -26.6045  -20.7397   18.5612 C   0  0  0  0  0  0  0  0  0  0  0  0
  -23.3234  -28.3452   23.0715 C   0  0  1  0  0  0  0  0  0  0  0  0
  -19.7849  -28.9020   21.8312 C   0  0  2  0  0  0  0  0  0  0  0  0
  -23.6114  -28.1346   24.5848 C   0  0  0  0  0  0  0  0  0  0  0  0
  -25.8733  -11.5571   20.7733 N   0  0  0  0  0  0  0  0  0  0  0  0
  -30.1570  -16.0843   22.3947 N   0  0  0  0  0  0  0  0  0  0  0  0
  -26.2295  -12.7601   20.2917 N   0  0  0  0  0  0  0  0  0  0  0  0
  -29.9480  -13.6463   20.3925 N   0  0  0  0  0  0  0  0  0  0  0  0
  -25.0653  -28.8087   21.3759 N   0  0  0  0  0  0  0  0  0  0  0  0
  -25.4134  -14.9438   19.8720 N   0  0  0  0  0  0  0  0  0  0  0  0
  -21.8407  -12.8173   21.6355 N   0  0  0  0  0  0  0  0  0  0  0  0
  -28.3222  -30.2143   21.7594 N   0  0  0  0  0  0  0  0  0  0  0  0
  -21.9868  -28.8537   22.7828 N   0  0  0  0  0  0  0  0  0  0  0  0
  -19.2107  -28.6811   20.4738 N   0  3  0  0  0  0  0  0  0  0  0  0
  -22.5839  -14.8080   20.7731 O   0  0  0  0  0  0  0  0  0  0  0  0
  -31.8608  -14.9890   20.1358 O   0  0  0  0  0  0  0  0  0  0  0  0
  -27.5420  -28.0240   21.8880 O   0  0  0  0  0  0  0  0  0  0  0  0
  -27.0171  -21.9250   16.5088 O   0  0  0  0  0  0  0  0  0  0  0  0
  -24.3506  -30.4714   22.8460 O   0  0  0  0  0  0  0  0  0  0  0  0
  -21.3359  -27.0965   21.4167 O   0  0  0  0  0  0  0  0  0  0  0  0
  -21.6702   -7.5121   23.3269 O   0  0  0  0  0  0  0  0  0  0  0  0
  -25.9599  -24.2682   17.2972 O   0  0  0  0  0  0  0  0  0  1  0  0
  -27.2122  -19.6450   17.9087 O   0  0  0  0  0  0  0  0  0  0  0  0
  -18.5395   -8.6028   27.7329 F   0  0  0  0  0  0  0  0  0  0  0  0
  -29.3769  -18.2577   16.9051 F   0  0  0  0  0  0  0  0  0  0  0  0
  -22.0975   -6.2099   25.7278 F   0  0  0  0  0  0  0  0  0  0  0  0
  1  2  1  0  0  0  0
  1  5  2  0  0  0  0
  2  6  2  0  0  0  0
  3  8  2  0  0  0  0
  3 17  1  0  0  0  0
  4  9  1  0  0  0  0
  4 17  2  0  0  0  0
  5 20  1  0  0  0  0
  6 22  1  0  0  0  0
  7 10  2  0  0  0  0
  7 21  1  0  0  0  0
  8 25  1  0  0  0  0
  9 25  2  0  0  0  0
 10 26  1  0  0  0  0
 11 12  2  0  0  0  0
 11 27  1  0  0  0  0
 12 29  1  0  0  0  0
 13 18  1  0  0  0  0
 13 30  2  0  0  0  0
 14 23  1  0  0  0  0
 14 26  2  0  0  0  0
 15 24  1  0  0  0  0
 15 28  2  0  0  0  0
 16 29  2  0  0  0  0
 16 31  1  0  0  0  0
 17 32  1  0  0  0  0
 18 24  2  0  0  0  0
 18 34  1  0  0  0  0
 19 32  1  0  0  0  0
 19 33  2  0  0  0  0
 19 35  1  0  0  0  0
 20 22  2  0  0  0  0
 20 41  1  0  0  0  0
 21 23  2  0  0  0  0
 21 42  1  0  0  0  0
 22 50  1  0  0  0  0
 23 43  1  0  0  0  0
 24 59  1  0  0  0  0
 25 81  1  0  0  0  0
 26 82  1  0  0  0  0
 27 31  2  0  0  0  0
 27 81  1  0  0  0  0
 28 30  1  0  0  0  0
 28 83  1  0  0  0  0
 29 84  1  0  0  0  0
 30 85  1  0  0  0  0
 31 86  1  0  0  0  0
 32 65  2  0  0  0  0
 33 67  1  0  0  0  0
 33 70  1  0  0  0  0
 34 36  1  0  0  0  0
 34 66  2  0  0  0  0
 35 71  1  0  0  0  0
 35 75  2  0  0  0  0
 36 68  1  0  0  0  0
 36 76  2  0  0  0  0
 37 51  1  0  0  0  0
 37 72  1  0  0  0  0
 37 77  2  0  0  0  0
 38 60  1  0  0  0  0
 38 61  1  0  0  0  0
 38 78  2  0  0  0  0
 39 62  1  0  0  0  0
 39 69  1  0  0  0  0
 39 79  2  0  0  0  0
 40 63  1  0  0  0  0
 40 73  1  0  0  0  0
 40 80  2  0  0  0  0
 41 44  1  0  0  0  0
 42 51  1  0  0  0  0
 43 69  1  0  0  0  0
 44 46  1  0  0  0  0
 45 47  1  0  0  0  0
 45 48  1  0  0  0  0
 46 50  1  0  0  0  0
 47 52  1  0  0  0  0
 48 68  1  0  0  0  0
 49 52  1  0  0  0  0
 49 68  1  0  0  0  0
 50 72  1  0  0  0  0
 51 69  1  0  0  0  0
 52 67  1  0  0  0  0
 53 59  1  0  0  0  0
 54 63  1  0  0  0  0
 55 64  1  0  0  0  0
 56 64  1  0  0  0  0
 57 64  1  0  0  0  0
 58 74  1  0  0  0  0
 60 82  1  0  0  0  0
 61 83  1  0  0  0  0
 62 64  1  0  0  0  0
 62 73  1  0  0  0  0
 63 74  1  0  0  0  0
 65 67  1  0  0  0  0
M  CHG  1  74   1
M  ISO  4  34 100  36 100  60 101  82 101
M  END
> <Batch ID>
0105

> <Smiles>
CCc1cc(OCC(=O)[101CH2:1][101O:1]c2ccc3c(c2)CN(C(=O)C(NC(=O)C(C)NC)C(C)(C)C)C(C(=O)NC2CCCc4ccccc42)C3)c(F)cc1[100C:0](=N)[100C:0](=O)N1CCCC(n2nc(-c3ccc(Oc4ccc(F)cc4F)cc3)c(C(N)=O)c2N)C1

> <Shape>
0.277

> <Color>
0.175

> <Negative vol penalty>
0.000

$$$$

  -OEChem-04052301113D

 87 95  0     1  0  0  0  0  0999 V2000
  -19.8110  -24.0811   21.2038 C   0  0  0  0  0  0  0  0  0  0  0  0
  -20.7975  -24.6991   20.4420 C   0  0  0  0  0  0  0  0  0  0  0  0
  -27.8541  -13.4008   20.2444 C   0  0  0  0  0  0  0  0  0  0  0  0
  -30.1523  -14.0217   19.8323 C   0  0  0  0  0  0  0  0  0  0  0  0
  -19.0106  -24.8416   22.0553 C   0  0  0  0  0  0  0  0  0  0  0  0
  -20.9835  -26.0782   20.5305 C   0  0  0  0  0  0  0  0  0  0  0  0
  -25.8704  -27.3618   20.8699 C   0  0  0  0  0  0  0  0  0  0  0  0
  -33.2499  -22.2841   17.3926 C   0  0  0  0  0  0  0  0  0  0  0  0
  -32.2640  -21.7029   18.1899 C   0  0  0  0  0  0  0  0  0  0  0  0
  -28.0591  -12.1959   19.5724 C   0  0  0  0  0  0  0  0  0  0  0  0
  -30.3574  -12.8168   19.1603 C   0  0  0  0  0  0  0  0  0  0  0  0
  -26.6167  -27.3439   19.6924 C   0  0  0  0  0  0  0  0  0  0  0  0
  -27.8801   -9.1129   17.6522 C   0  0  0  0  0  0  0  0  0  0  0  0
  -26.9084   -8.7047   16.7386 C   0  0  0  0  0  0  0  0  0  0  0  0
  -30.5932  -23.0974   17.1406 C   0  0  0  0  0  0  0  0  0  0  0  0
  -26.3819  -29.7382   19.5144 C   0  0  0  0  0  0  0  0  0  0  0  0
  -27.2689  -10.7194   15.4548 C   0  0  0  0  0  0  0  0  0  0  0  0
  -28.9007  -14.3138   20.3744 C   0  0  0  0  0  0  0  0  0  0  0  0
  -31.5791  -23.6786   16.3433 C   0  0  0  0  0  0  0  0  0  0  0  0
  -28.8688  -15.8077   22.4420 C   0  0  0  0  0  0  0  0  0  0  0  0
  -19.1933  -26.2294   22.1614 C   0  0  0  0  0  0  0  0  0  0  0  0
  -25.3642  -28.5687   21.3735 C   0  0  0  0  0  0  0  0  0  0  0  0
  -20.1839  -26.8582   21.3831 C   0  0  0  0  0  0  0  0  0  0  0  0
  -25.6317  -29.7690   20.6999 C   0  0  0  0  0  0  0  0  0  0  0  0
  -32.9074  -23.2720   16.4693 C   0  0  0  0  0  0  0  0  0  0  0  0
  -30.9357  -22.1095   18.0640 C   0  0  0  0  0  0  0  0  0  0  0  0
  -29.3107  -11.9038   19.0303 C   0  0  0  0  0  0  0  0  0  0  0  0
  -26.8701  -28.5318   19.0129 C   0  0  0  0  0  0  0  0  0  0  0  0
  -28.5462  -10.3245   17.4672 C   0  0  0  0  0  0  0  0  0  0  0  0
  -26.6028   -9.5079   15.6399 C   0  0  0  0  0  0  0  0  0  0  0  0
  -28.2406  -11.1277   16.3685 C   0  0  0  0  0  0  0  0  0  0  0  0
  -28.6894  -15.5589   21.0680 C   0  0  0  0  0  0  0  0  0  0  0  0
  -28.5396  -17.1321   22.5969 C   0  0  0  0  0  0  0  0  0  0  0  0
  -31.1854  -24.7314   15.3645 C   0  0  0  0  0  0  0  0  0  0  0  0
  -29.2949  -14.9209   23.4849 C   0  0  0  0  0  0  0  0  0  0  0  0
  -29.3970  -26.1673   15.5176 C   0  0  0  0  0  0  0  0  0  0  0  0
  -28.8350  -27.4212   16.1249 C   0  0  0  0  0  0  0  0  0  0  0  0
  -22.4555  -29.7187   21.9398 C   0  0  0  0  0  0  0  0  0  0  0  0
  -24.1092  -32.1865   23.2426 C   0  0  0  0  0  0  0  0  0  0  0  0
  -27.0130  -33.9740   23.3847 C   0  0  0  0  0  0  0  0  0  0  0  0
  -28.5704  -21.8084   18.8772 C   0  0  0  0  0  0  0  0  0  0  0  0
  -18.2723  -27.0161   23.0600 C   0  0  0  0  0  0  0  0  0  0  0  0
  -24.5836  -28.5744   22.6592 C   0  0  0  0  0  0  0  0  0  0  0  0
  -25.1281  -31.0937   21.2097 C   0  0  0  0  0  0  0  0  0  0  0  0
  -18.7825  -28.4197   23.3762 C   0  0  0  0  0  0  0  0  0  0  0  0
  -25.7788  -20.5519   20.6952 C   0  0  0  0  0  0  0  0  0  0  0  0
  -19.2639  -29.1117   22.1049 C   0  0  0  0  0  0  0  0  0  0  0  0
  -26.2270  -19.1539   21.1273 C   0  0  0  0  0  0  0  0  0  0  0  0
  -26.2939  -20.9071   19.3015 C   0  0  0  0  0  0  0  0  0  0  0  0
  -28.1908  -19.3549   19.5493 C   0  0  0  0  0  0  0  0  0  0  0  0
  -20.4326  -28.3484   21.4700 C   0  0  1  0  0  0  0  0  0  0  0  0
  -23.6815  -29.7959   22.8051 C   0  0  1  0  0  0  0  0  0  0  0  0
  -27.7504  -18.9778   20.9732 C   0  0  2  0  0  0  0  0  0  0  0  0
  -33.9831  -23.8779   15.6278 C   0  0  0  0  0  0  0  0  0  0  0  0
  -28.7468  -25.9204   13.1259 C   0  0  0  0  0  0  0  0  0  0  0  0
  -28.0508  -35.9592   24.5156 C   0  0  0  0  0  0  0  0  0  0  0  0
  -22.5061  -34.0508   21.4359 C   0  0  0  0  0  0  0  0  0  0  0  0
  -24.1984  -35.8377   21.8953 C   0  0  0  0  0  0  0  0  0  0  0  0
  -22.8452  -34.8933   23.7660 C   0  0  0  0  0  0  0  0  0  0  0  0
  -29.1287  -32.3118   24.6174 C   0  0  0  0  0  0  0  0  0  0  0  0
  -28.5092  -25.4326   14.5436 C   0  0  0  0  0  0  0  0  0  0  0  0
  -28.0706  -27.2494   17.4098 C   0  0  0  0  0  0  0  0  0  1  0  0
  -24.6713  -33.4885   22.7249 C   0  0  1  0  0  0  0  0  0  0  0  0
  -27.8443  -34.4532   24.5610 C   0  0  2  0  0  0  0  0  0  0  0  0
  -23.5632  -34.5425   22.4446 C   0  0  0  0  0  0  0  0  0  0  0  0
  -28.2780  -16.6386   20.3979 N   0  0  0  0  0  0  0  0  0  0  0  0
  -30.5968  -25.8550   15.8927 N   0  0  0  0  0  0  0  0  0  0  0  0
  -28.1961  -17.5786   21.3548 N   0  0  0  0  0  0  0  0  0  0  0  0
  -24.3644  -31.0465   22.4674 N   0  0  0  0  0  0  0  0  0  0  0  0
  -27.7448  -20.7205   19.2315 N   0  0  0  0  0  0  0  0  0  0  0  0
  -28.5133  -17.9466   23.6732 N   0  0  0  0  0  0  0  0  0  0  0  0
  -29.5933  -13.5925   23.1520 N   0  0  0  0  0  0  0  0  0  0  0  0
  -29.9348  -21.5202   18.8756 N   0  0  0  0  0  0  0  0  0  0  0  0
  -21.6604  -28.6160   22.1877 N   0  0  0  0  0  0  0  0  0  0  0  0
  -25.6712  -33.9167   23.6971 N   0  0  0  0  0  0  0  0  0  0  0  0
  -29.1813  -33.7950   24.5527 N   0  3  0  0  0  0  0  0  0  0  0  0
  -31.4290  -24.5708   14.1730 O   0  0  0  0  0  0  0  0  0  0  0  0
  -29.3920  -15.2910   24.6795 O   0  0  0  0  0  0  0  0  0  0  0  0
  -29.0510  -28.4775   15.5516 O   0  0  0  0  0  0  0  0  0  0  0  0
  -22.2457  -30.5954   21.1098 O   0  0  0  0  0  0  0  0  0  0  0  0
  -23.4735  -32.1802   24.2997 O   0  0  0  0  0  0  0  0  0  0  0  0
  -27.5043  -33.6833   22.2962 O   0  0  0  0  0  0  0  0  0  0  0  0
  -28.1034  -22.9215   18.6224 O   0  0  0  0  0  0  0  0  0  0  0  0
  -29.5112  -10.7281   18.3746 O   0  0  0  0  0  0  0  0  0  0  0  0
  -27.5977  -28.5172   17.8630 O   0  0  0  0  0  0  0  0  0  1  0  0
  -25.6707   -9.1150   14.7618 F   0  0  0  0  0  0  0  0  0  0  0  0
  -28.8780  -12.2921   16.1848 F   0  0  0  0  0  0  0  0  0  0  0  0
  1  2  1  0  0  0  0
  1  5  2  0  0  0  0
  2  6  2  0  0  0  0
  3 10  2  0  0  0  0
  3 18  1  0  0  0  0
  4 11  1  0  0  0  0
  4 18  2  0  0  0  0
  5 21  1  0  0  0  0
  6 23  1  0  0  0  0
  7 12  2  0  0  0  0
  7 22  1  0  0  0  0
  8  9  2  0  0  0  0
  8 25  1  0  0  0  0
  9 26  1  0  0  0  0
 10 27  1  0  0  0  0
 11 27  2  0  0  0  0
 12 28  1  0  0  0  0
 13 14  2  0  0  0  0
 13 29  1  0  0  0  0
 14 30  1  0  0  0  0
 15 19  1  0  0  0  0
 15 26  2  0  0  0  0
 16 24  1  0  0  0  0
 16 28  2  0  0  0  0
 17 30  2  0  0  0  0
 17 31  1  0  0  0  0
 18 32  1  0  0  0  0
 19 25  2  0  0  0  0
 19 34  1  0  0  0  0
 20 32  1  0  0  0  0
 20 33  2  0  0  0  0
 20 35  1  0  0  0  0
 21 23  2  0  0  0  0
 21 42  1  0  0  0  0
 22 24  2  0  0  0  0
 22 43  1  0  0  0  0
 23 51  1  0  0  0  0
 24 44  1  0  0  0  0
 25 54  1  0  0  0  0
 26 73  1  0  0  0  0
 27 84  1  0  0  0  0
 28 85  1  0  0  0  0
 29 31  2  0  0  0  0
 29 84  1  0  0  0  0
 30 86  1  0  0  0  0
 31 87  1  0  0  0  0
 32 66  2  0  0  0  0
 33 68  1  0  0  0  0
 33 71  1  0  0  0  0
 34 67  1  0  0  0  0
 34 77  2  0  0  0  0
 35 72  1  0  0  0  0
 35 78  2  0  0  0  0
 36 37  1  0  0  0  0
 36 61  1  0  0  0  0
 36 67  2  0  0  0  0
 37 62  1  0  0  0  0
 37 79  2  0  0  0  0
 38 52  1  0  0  0  0
 38 74  1  0  0  0  0
 38 80  2  0  0  0  0
 39 63  1  0  0  0  0
 39 69  1  0  0  0  0
 39 81  2  0  0  0  0
 40 64  1  0  0  0  0
 40 75  1  0  0  0  0
 40 82  2  0  0  0  0
 41 70  1  0  0  0  0
 41 73  1  0  0  0  0
 41 83  2  0  0  0  0
 42 45  1  0  0  0  0
 43 52  1  0  0  0  0
 44 69  1  0  0  0  0
 45 47  1  0  0  0  0
 46 48  1  0  0  0  0
 46 49  1  0  0  0  0
 47 51  1  0  0  0  0
 48 53  1  0  0  0  0
 49 70  1  0  0  0  0
 50 53  1  0  0  0  0
 50 70  1  0  0  0  0
 51 74  1  0  0  0  0
 52 69  1  0  0  0  0
 53 68  1  0  0  0  0
 55 61  1  0  0  0  0
 56 64  1  0  0  0  0
 57 65  1  0  0  0  0
 58 65  1  0  0  0  0
 59 65  1  0  0  0  0
 60 76  1  0  0  0  0
 62 85  1  0  0  0  0
 63 65  1  0  0  0  0
 63 75  1  0  0  0  0
 64 76  1  0  0  0  0
 66 68  1  0  0  0  0
M  CHG  1  76   1
M  ISO  4  41 100  62 101  73 100  85 101
M  END
> <Batch ID>
0105

> <Smiles>
C=CC(NC(=O)c1cc([100NH:0][100C:0](=O)N2CCCC(n3nc(-c4ccc(Oc5ccc(F)cc5F)cc4)c(C(N)=O)c3N)C2)ccc1C)C(=O)[101CH2:1][101O:1]c1ccc2c(c1)CN(C(=O)C(NC(=O)C(C)NC)C(C)(C)C)C(C(=O)NC1CCCc3ccccc31)C2

> <Shape>
0.245

> <Color>
0.107

> <Negative vol penalty>
0.000

$$$$

  -OEChem-04052301113D

 92101  0     1  0  0  0  0  0999 V2000
  -28.2559  -37.8811   21.7299 C   0  0  0  0  0  0  0  0  0  0  0  0
  -28.4371  -36.8557   20.8072 C   0  0  0  0  0  0  0  0  0  0  0  0
  -22.6808  -11.0943   21.8057 C   0  0  0  0  0  0  0  0  0  0  0  0
  -20.4410  -11.5547   21.0258 C   0  0  0  0  0  0  0  0  0  0  0  0
  -27.9831  -37.5775   23.0630 C   0  0  0  0  0  0  0  0  0  0  0  0
  -28.3468  -35.5261   21.2176 C   0  0  0  0  0  0  0  0  0  0  0  0
  -26.2974  -29.0813   18.8550 C   0  0  0  0  0  0  0  0  0  0  0  0
  -22.1965  -10.0331   22.5705 C   0  0  0  0  0  0  0  0  0  0  0  0
  -19.9566  -10.4935   21.7907 C   0  0  0  0  0  0  0  0  0  0  0  0
  -26.7731  -27.7761   18.7371 C   0  0  0  0  0  0  0  0  0  0  0  0
  -21.2324   -6.8324   22.0620 C   0  0  0  0  0  0  0  0  0  0  0  0
  -21.9389   -5.6303   22.0239 C   0  0  0  0  0  0  0  0  0  0  0  0
  -26.2189  -27.3716   21.0497 C   0  0  0  0  0  0  0  0  0  0  0  0
  -28.2099  -19.8339   20.8962 C   0  0  0  0  0  0  0  0  0  0  0  0
  -30.5989  -19.6007   21.1703 C   0  0  0  0  0  0  0  0  0  0  0  0
  -29.1523  -17.6958   21.5106 C   0  0  0  0  0  0  0  0  0  0  0  0
  -22.3082   -5.7719   24.4074 C   0  0  0  0  0  0  0  0  0  0  0  0
  -21.8031  -11.8551   21.0334 C   0  0  0  0  0  0  0  0  0  0  0  0
  -22.7562  -12.9028   18.9117 C   0  0  0  0  0  0  0  0  0  0  0  0
  -27.8798  -36.2436   23.4880 C   0  0  0  0  0  0  0  0  0  0  0  0
  -25.7881  -29.5456   20.0763 C   0  0  0  0  0  0  0  0  0  0  0  0
  -28.0737  -35.2044   22.5580 C   0  0  0  0  0  0  0  0  0  0  0  0
  -25.7350  -28.6823   21.1799 C   0  0  0  0  0  0  0  0  0  0  0  0
  -29.4884  -20.3911   20.8741 C   0  0  0  0  0  0  0  0  0  0  0  0
  -28.0419  -18.4862   21.2145 C   0  0  0  0  0  0  0  0  0  0  0  0
  -20.8344   -9.7327   22.5630 C   0  0  0  0  0  0  0  0  0  0  0  0
  -26.7366  -26.9219   19.8353 C   0  0  0  0  0  0  0  0  0  0  0  0
  -21.0638   -7.5043   23.2727 C   0  0  0  0  0  0  0  0  0  0  0  0
  -30.4309  -18.2530   21.4885 C   0  0  0  0  0  0  0  0  0  0  0  0
  -22.4768   -5.1001   23.1966 C   0  0  0  0  0  0  0  0  0  0  0  0
  -21.6017   -6.9740   24.4454 C   0  0  0  0  0  0  0  0  0  0  0  0
  -22.3027  -12.9517   20.2435 C   0  0  0  0  0  0  0  0  0  0  0  0
  -23.1207  -14.1957   18.6254 C   0  0  0  0  0  0  0  0  0  0  0  0
  -28.7075  -22.7334   20.8235 C   0  0  0  0  0  0  0  0  0  0  0  0
  -28.7789  -24.0367   20.5177 C   0  0  0  0  0  0  0  0  0  0  0  0
  -29.9670  -24.4786   19.7347 C   0  0  0  0  0  0  0  0  0  0  0  0
  -22.8403  -11.7883   18.0136 C   0  0  0  0  0  0  0  0  0  0  0  0
  -26.5976  -31.8462   22.1149 C   0  0  0  0  0  0  0  0  0  0  0  0
  -23.8432  -30.9727   23.5889 C   0  0  0  0  0  0  0  0  0  0  0  0
  -21.4964  -28.5592   24.1492 C   0  0  0  0  0  0  0  0  0  0  0  0
  -25.5865  -18.6859   21.5703 C   0  0  0  0  0  0  0  0  0  0  0  0
  -27.6302  -35.9644   24.9489 C   0  0  0  0  0  0  0  0  0  0  0  0
  -25.2542  -30.9480   20.1798 C   0  0  0  0  0  0  0  0  0  0  0  0
  -25.1793  -29.1258   22.5076 C   0  0  0  0  0  0  0  0  0  0  0  0
  -30.8784  -23.4093   19.1700 C   0  0  0  0  0  0  0  0  0  0  0  0
  -27.1798  -34.5326   25.2271 C   0  0  0  0  0  0  0  0  0  0  0  0
  -22.0539  -18.6315   20.5082 C   0  0  0  0  0  0  0  0  0  0  0  0
  -28.0610  -33.5401   24.4752 C   0  0  0  0  0  0  0  0  0  0  0  0
  -21.7917  -17.1448   20.2738 C   0  0  0  0  0  0  0  0  0  0  0  0
  -30.9858  -22.1826   20.0720 C   0  0  0  0  0  0  0  0  0  0  0  0
  -23.1153  -18.8577   21.5808 C   0  0  0  0  0  0  0  0  0  0  0  0
  -24.1364  -16.6582   21.0808 C   0  0  0  0  0  0  0  0  0  0  0  0
  -27.9590  -33.7499   22.9596 C   0  0  1  0  0  0  0  0  0  0  0  0
  -25.2316  -31.4745   21.6115 C   0  0  1  0  0  0  0  0  0  0  0  0
  -23.1025  -16.3969   19.9750 C   0  0  1  0  0  0  0  0  0  0  0  0
  -26.2918  -14.0932   21.1862 C   0  0  0  0  0  0  0  0  0  0  0  0
  -32.8106  -14.0994   20.7892 C   0  0  0  0  0  0  0  0  0  0  0  0
  -19.3821  -28.1269   25.4298 C   0  0  0  0  0  0  0  0  0  0  0  0
  -25.4657  -30.6446   26.1520 C   0  0  0  0  0  0  0  0  0  0  0  0
  -23.5588  -29.3344   27.1088 C   0  0  0  0  0  0  0  0  0  0  0  0
  -23.2301  -31.7215   26.4632 C   0  0  0  0  0  0  0  0  0  0  0  0
  -19.9502  -28.0996   21.6678 C   0  0  0  0  0  0  0  0  0  0  0  0
  -27.7514  -25.0512   20.8968 C   0  0  0  0  0  0  0  0  0  1  0  0
  -26.4622  -15.4933   21.7591 C   0  0  0  0  0  0  0  0  0  0  0  0
  -32.8252  -15.5726   21.1556 C   0  0  0  0  0  0  0  0  0  0  0  0
  -26.5291  -16.5673   20.6798 C   0  0  0  0  0  0  0  0  0  0  0  0
  -31.4287  -16.0945   21.4572 C   0  0  0  0  0  0  0  0  0  0  0  0
  -23.4727  -29.9707   24.6554 C   0  0  1  0  0  0  0  0  0  0  0  0
  -19.9794  -28.6019   24.1144 C   0  0  2  0  0  0  0  0  0  0  0  0
  -23.9441  -30.4097   26.0705 C   0  0  0  0  0  0  0  0  0  0  0  0
  -22.3721  -14.1785   20.7671 N   0  0  0  0  0  0  0  0  0  0  0  0
  -22.8734  -14.9125   19.7591 N   0  0  0  0  0  0  0  0  0  0  0  0
  -29.6598  -21.7628   20.5502 N   0  0  0  0  0  0  0  0  0  0  0  0
  -24.6751  -30.5080   22.5604 N   0  0  0  0  0  0  0  0  0  0  0  0
  -24.3344  -18.0998   21.2963 N   0  0  0  0  0  0  0  0  0  0  0  0
  -23.6255  -14.7781   17.5170 N   0  0  0  0  0  0  0  0  0  0  0  0
  -22.4238  -10.5301   18.4693 N   0  0  0  0  0  0  0  0  0  0  0  0
  -26.7294  -33.1797   22.4521 N   0  0  0  0  0  0  0  0  0  0  0  0
  -22.0325  -29.7673   24.5418 N   0  0  0  0  0  0  0  0  0  0  0  0
  -26.7183  -17.9097   21.2393 N   0  0  0  0  0  0  0  0  0  0  0  0
  -19.4616  -27.7310   23.0215 N   0  3  0  0  0  0  0  0  0  0  0  0
  -30.1563  -25.6699   19.4963 O   0  0  0  0  0  0  0  0  0  0  0  0
  -23.2873  -11.9017   16.8471 O   0  0  0  0  0  0  0  0  0  0  0  0
  -27.4673  -30.9864   22.1930 O   0  0  0  0  0  0  0  0  0  0  0  0
  -23.4047  -32.1234   23.6616 O   0  0  0  0  0  0  0  0  0  0  0  0
  -22.1413  -27.5534   23.8607 O   0  0  0  0  0  0  0  0  0  0  0  0
  -25.6845  -19.8238   22.0449 O   0  0  0  0  0  0  0  0  0  0  0  0
  -20.3614   -8.6972   23.3090 O   0  0  0  0  0  0  0  0  0  0  0  0
  -27.2009  -25.6477   19.7231 O   0  0  0  0  0  0  0  0  0  1  0  0
  -31.5143  -17.4820   21.7785 O   0  0  0  0  0  0  0  0  0  0  0  0
  -23.1540   -3.9450   23.1602 F   0  0  0  0  0  0  0  0  0  0  0  0
  -21.4420   -7.6144   25.6117 F   0  0  0  0  0  0  0  0  0  0  0  0
  1  2  1  0  0  0  0
  1  5  2  0  0  0  0
  2  6  2  0  0  0  0
  3  8  2  0  0  0  0
  3 18  1  0  0  0  0
  4  9  1  0  0  0  0
  4 18  2  0  0  0  0
  5 20  1  0  0  0  0
  6 22  1  0  0  0  0
  7 10  2  0  0  0  0
  7 21  1  0  0  0  0
  8 26  1  0  0  0  0
  9 26  2  0  0  0  0
 10 27  1  0  0  0  0
 11 12  2  0  0  0  0
 11 28  1  0  0  0  0
 12 30  1  0  0  0  0
 13 23  1  0  0  0  0
 13 27  2  0  0  0  0
 14 24  1  0  0  0  0
 14 25  2  0  0  0  0
 15 24  2  0  0  0  0
 15 29  1  0  0  0  0
 16 25  1  0  0  0  0
 16 29  2  0  0  0  0
 17 30  2  0  0  0  0
 17 31  1  0  0  0  0
 18 32  1  0  0  0  0
 19 32  1  0  0  0  0
 19 33  2  0  0  0  0
 19 37  1  0  0  0  0
 20 22  2  0  0  0  0
 20 42  1  0  0  0  0
 21 23  2  0  0  0  0
 21 43  1  0  0  0  0
 22 53  1  0  0  0  0
 23 44  1  0  0  0  0
 24 73  1  0  0  0  0
 25 80  1  0  0  0  0
 26 88  1  0  0  0  0
 27 89  1  0  0  0  0
 28 31  2  0  0  0  0
 28 88  1  0  0  0  0
 29 90  1  0  0  0  0
 30 91  1  0  0  0  0
 31 92  1  0  0  0  0
 32 71  2  0  0  0  0
 33 72  1  0  0  0  0
 33 76  1  0  0  0  0
 34 35  2  0  0  0  0
 34 73  1  0  0  0  0
 35 36  1  0  0  0  0
 35 63  1  0  0  0  0
 36 45  1  0  0  0  0
 36 82  2  0  0  0  0
 37 77  1  0  0  0  0
 37 83  2  0  0  0  0
 38 54  1  0  0  0  0
 38 78  1  0  0  0  0
 38 84  2  0  0  0  0
 39 68  1  0  0  0  0
 39 74  1  0  0  0  0
 39 85  2  0  0  0  0
 40 69  1  0  0  0  0
 40 79  1  0  0  0  0
 40 86  2  0  0  0  0
 41 75  1  0  0  0  0
 41 80  1  0  0  0  0
 41 87  2  0  0  0  0
 42 46  1  0  0  0  0
 43 54  1  0  0  0  0
 44 74  1  0  0  0  0
 45 50  1  0  0  0  0
 46 48  1  0  0  0  0
 47 49  1  0  0  0  0
 47 51  1  0  0  0  0
 48 53  1  0  0  0  0
 49 55  1  0  0  0  0
 50 73  1  0  0  0  0
 51 75  1  0  0  0  0
 52 55  1  0  0  0  0
 52 75  1  0  0  0  0
 53 78  1  0  0  0  0
 54 74  1  0  0  0  0
 55 72  1  0  0  0  0
 56 64  1  0  0  0  0
 57 65  1  0  0  0  0
 58 69  1  0  0  0  0
 59 70  1  0  0  0  0
 60 70  1  0  0  0  0
 61 70  1  0  0  0  0
 62 81  1  0  0  0  0
 63 89  1  0  0  0  0
 64 66  1  0  0  0  0
 65 67  1  0  0  0  0
 66 80  1  0  0  0  0
 67 90  1  0  0  0  0
 68 70  1  0  0  0  0
 68 79  1  0  0  0  0
 69 81  1  0  0  0  0
 71 72  1  0  0  0  0
M  CHG  1  81   1
M  ISO  4  41 100  63 101  80 100  89 101
M  END
> <Batch ID>
0105

> <Smiles>
CCCOc1cc(N2C=C([101CH2:1][101O:1]c3ccc4c(c3)CN(C(=O)C(NC(=O)C(C)NC)C(C)(C)C)C(C(=O)NC3CCCc5ccccc53)C4)C(=O)CC2)cc([100N:0](CCC)[100C:0](=O)N2CCCC(n3nc(-c4ccc(Oc5ccc(F)cc5F)cc4)c(C(N)=O)c3N)C2)c1

> <Shape>
0.282

> <Color>
0.081

> <Negative vol penalty>
0.000

$$$$

  -OEChem-04052301113D

 89 98  0     1  0  0  0  0  0999 V2000
  -22.9511   -9.8110   18.0457 C   0  0  0  0  0  0  0  0  0  0  0  0
  -22.4060  -11.0828   18.1907 C   0  0  0  0  0  0  0  0  0  0  0  0
  -29.5571  -25.5081   19.6106 C   0  0  0  0  0  0  0  0  0  0  0  0
  -28.7067  -24.6851   21.7169 C   0  0  0  0  0  0  0  0  0  0  0  0
  -24.1665   -9.5012   18.6546 C   0  0  0  0  0  0  0  0  0  0  0  0
  -23.0756  -12.0451   18.9457 C   0  0  0  0  0  0  0  0  0  0  0  0
  -23.2574  -18.0760   17.8964 C   0  0  0  0  0  0  0  0  0  0  0  0
  -30.7921  -24.9176   19.8785 C   0  0  0  0  0  0  0  0  0  0  0  0
  -29.9416  -24.0945   21.9848 C   0  0  0  0  0  0  0  0  0  0  0  0
  -22.5430  -19.1442   18.4373 C   0  0  0  0  0  0  0  0  0  0  0  0
  -32.9791  -22.6754   23.3882 C   0  0  0  0  0  0  0  0  0  0  0  0
  -33.5100  -22.8349   24.6682 C   0  0  0  0  0  0  0  0  0  0  0  0
  -24.3374  -19.5457   19.9987 C   0  0  0  0  0  0  0  0  0  0  0  0
  -17.9366  -25.3140   20.8188 C   0  0  0  0  0  0  0  0  0  0  0  0
  -33.5166  -25.2320   24.3667 C   0  0  0  0  0  0  0  0  0  0  0  0
  -28.5144  -25.3919   20.5299 C   0  0  0  0  0  0  0  0  0  0  0  0
  -26.1449  -25.4204   19.5853 C   0  0  0  0  0  0  0  0  0  0  0  0
  -24.8560  -10.4632   19.4094 C   0  0  0  0  0  0  0  0  0  0  0  0
  -24.5145  -17.7273   18.4107 C   0  0  0  0  0  0  0  0  0  0  0  0
  -24.3007  -11.7475   19.5663 C   0  0  0  0  0  0  0  0  0  0  0  0
  -25.0668  -18.4743   19.4609 C   0  0  0  0  0  0  0  0  0  0  0  0
  -17.9201  -26.6549   20.3372 C   0  0  0  0  0  0  0  0  0  0  0  0
  -30.9844  -24.2108   21.0656 C   0  0  0  0  0  0  0  0  0  0  0  0
  -23.0817  -19.8774   19.4905 C   0  0  0  0  0  0  0  0  0  0  0  0
  -32.7170  -23.7942   22.5974 C   0  0  0  0  0  0  0  0  0  0  0  0
  -33.7787  -24.1132   25.1574 C   0  0  0  0  0  0  0  0  0  0  0  0
  -32.9857  -25.0725   23.0867 C   0  0  0  0  0  0  0  0  0  0  0  0
  -27.2387  -26.0021   20.2540 C   0  0  0  0  0  0  0  0  0  0  0  0
  -19.1803  -27.2107   20.3109 C   0  0  0  0  0  0  0  0  0  0  0  0
  -25.1836  -26.4014   19.5814 C   0  0  0  0  0  0  0  0  0  0  0  0
  -19.2089  -24.8959   21.1421 C   0  0  0  0  0  0  0  0  0  0  0  0
  -21.3595  -21.8376   21.9918 C   0  0  0  0  0  0  0  0  0  0  0  0
  -20.6711  -21.3033   23.0268 C   0  0  0  0  0  0  0  0  0  0  0  0
  -20.9708  -23.1573   21.3667 C   0  0  0  0  0  0  0  0  0  0  0  0
  -26.0099  -24.1104   19.0184 C   0  0  0  0  0  0  0  0  0  0  0  0
  -25.7247  -15.1476   19.8193 C   0  0  0  0  0  0  0  0  0  0  0  0
  -28.5047  -16.8029   19.5860 C   0  0  0  0  0  0  0  0  0  0  0  0
  -30.0612  -19.8272   19.3076 C   0  0  0  0  0  0  0  0  0  0  0  0
  -22.3260  -30.4253   22.1867 C   0  0  0  0  0  0  0  0  0  0  0  0
  -26.1435  -10.0673   20.0880 C   0  0  0  0  0  0  0  0  0  0  0  0
  -25.2841  -16.5892   17.7985 C   0  0  0  0  0  0  0  0  0  0  0  0
  -26.4215  -18.1533   20.0356 C   0  0  0  0  0  0  0  0  0  0  0  0
  -19.4317  -22.0286   23.5095 C   0  0  0  0  0  0  0  0  0  0  0  0
  -26.9739  -11.2577   20.5607 C   0  0  0  0  0  0  0  0  0  0  0  0
  -25.4791  -31.3052   20.7865 C   0  0  0  0  0  0  0  0  0  0  0  0
  -26.0926  -12.2683   21.2878 C   0  0  0  0  0  0  0  0  0  0  0  0
  -26.1297  -29.9565   20.4740 C   0  0  0  0  0  0  0  0  0  0  0  0
  -18.7456  -22.7806   22.3783 C   0  0  0  0  0  0  0  0  0  0  0  0
  -24.6586  -31.2514   22.0733 C   0  0  0  0  0  0  0  0  0  0  0  0
  -24.3008  -28.8275   21.8079 C   0  0  0  0  0  0  0  0  0  0  0  0
  -25.0092  -12.8260   20.3569 C   0  0  1  0  0  0  0  0  0  0  0  0
  -26.3299  -16.0002   18.7402 C   0  0  1  0  0  0  0  0  0  0  0  0
  -25.0932  -28.8169   20.4894 C   0  0  2  0  0  0  0  0  0  0  0  0
  -16.6852  -27.3586   19.9167 C   0  0  0  0  0  0  0  0  0  0  0  0
  -32.3429  -20.8638   19.1782 C   0  0  0  0  0  0  0  0  0  0  0  0
  -28.8692  -16.3690   22.5842 C   0  0  0  0  0  0  0  0  0  0  0  0
  -30.5975  -18.1803   22.5655 C   0  0  0  0  0  0  0  0  0  0  0  0
  -30.9552  -16.1037   21.2305 C   0  0  0  0  0  0  0  0  0  0  0  0
  -29.5187  -20.9669   16.6308 C   0  0  0  0  0  0  0  0  0  0  0  0
  -19.5888  -28.5674   19.8814 C   0  0  0  0  0  0  0  0  0  0  0  0
  -22.5968  -21.2052   21.4030 C   0  0  0  0  0  0  0  0  0  1  0  0
  -19.3428  -29.6803   20.9260 C   0  0  0  0  0  0  0  0  0  0  0  0
  -20.0455  -29.4492   22.2621 C   0  0  0  0  0  0  0  0  0  0  0  0
  -29.2371  -17.7913   20.4610 C   0  0  1  0  0  0  0  0  0  0  0  0
  -31.1681  -20.3094   18.3875 C   0  0  2  0  0  0  0  0  0  0  0  0
  -29.8883  -17.1162   21.7010 C   0  0  0  0  0  0  0  0  0  0  0  0
  -26.9958  -27.2556   20.6462 N   0  0  0  0  0  0  0  0  0  0  0  0
  -25.7385  -27.4696   20.2227 N   0  0  0  0  0  0  0  0  0  0  0  0
  -19.6856  -23.6361   21.6579 N   0  0  0  0  0  0  0  0  0  0  0  0
  -27.1323  -17.0275   19.4072 N   0  0  0  0  0  0  0  0  0  0  0  0
  -23.6937  -30.1503   22.0230 N   0  0  0  0  0  0  0  0  0  0  0  0
  -23.9263  -26.4459   19.0919 N   0  0  0  0  0  0  0  0  0  0  0  0
  -27.0945  -23.2275   19.1105 N   0  0  0  0  0  0  0  0  0  0  0  0
  -25.5700  -13.8204   19.4674 N   0  0  0  0  0  0  0  0  0  0  0  0
  -30.1826  -18.4834   19.5920 N   0  0  0  0  0  0  0  0  0  0  0  0
  -21.4790  -29.3259   22.1189 N   0  0  0  0  0  0  0  0  0  0  0  0
  -30.6612  -21.3816   17.4851 N   0  3  0  0  0  0  0  0  0  0  0  0
  -20.8680  -20.2525   23.7000 O   0  5  0  0  0  0  0  0  0  0  0  0
  -21.7794  -23.6980   20.6104 O   0  0  0  0  0  0  0  0  0  0  0  0
  -24.9645  -23.7396   18.4327 O   0  0  0  0  0  0  0  0  0  0  0  0
  -25.4220  -15.6560   20.8925 O   0  0  0  0  0  0  0  0  0  0  0  0
  -29.1287  -15.8700   19.0741 O   0  0  0  0  0  0  0  0  0  0  0  0
  -29.1794  -20.5692   19.7347 O   0  0  0  0  0  0  0  0  0  0  0  0
  -21.8913  -31.5669   22.3737 O   0  0  0  0  0  0  0  0  0  0  0  0
  -32.1892  -23.6342   21.3272 O   0  0  0  0  0  0  0  0  0  0  0  0
  -22.3863  -20.9200   20.0207 O   0  0  0  0  0  0  0  0  0  1  0  0
  -34.2871  -24.2663   26.3872 F   0  0  0  0  0  0  0  0  0  0  0  0
  -32.7349  -26.1512   22.3322 F   0  0  0  0  0  0  0  0  0  0  0  0
  -20.3763  -26.1177   20.8652 S   0  0  0  0  0  0  0  0  0  0  0  0
  1  2  1  0  0  0  0
  1  5  2  0  0  0  0
  2  6  2  0  0  0  0
  3  8  2  0  0  0  0
  3 16  1  0  0  0  0
  4  9  1  0  0  0  0
  4 16  2  0  0  0  0
  5 18  1  0  0  0  0
  6 20  1  0  0  0  0
  7 10  2  0  0  0  0
  7 19  1  0  0  0  0
  8 23  1  0  0  0  0
  9 23  2  0  0  0  0
 10 24  1  0  0  0  0
 11 12  2  0  0  0  0
 11 25  1  0  0  0  0
 12 26  1  0  0  0  0
 13 21  1  0  0  0  0
 13 24  2  0  0  0  0
 14 22  1  0  0  0  0
 14 31  2  0  0  0  0
 15 26  2  0  0  0  0
 15 27  1  0  0  0  0
 16 28  1  0  0  0  0
 17 28  1  0  0  0  0
 17 30  2  0  0  0  0
 17 35  1  0  0  0  0
 18 20  2  0  0  0  0
 18 40  1  0  0  0  0
 19 21  2  0  0  0  0
 19 41  1  0  0  0  0
 20 51  1  0  0  0  0
 21 42  1  0  0  0  0
 22 29  2  0  0  0  0
 22 54  1  0  0  0  0
 23 85  1  0  0  0  0
 24 86  1  0  0  0  0
 25 27  2  0  0  0  0
 25 85  1  0  0  0  0
 26 87  1  0  0  0  0
 27 88  1  0  0  0  0
 28 67  2  0  0  0  0
 29 60  1  0  0  0  0
 29 89  1  0  0  0  0
 30 68  1  0  0  0  0
 30 72  1  0  0  0  0
 31 69  1  0  0  0  0
 31 89  1  0  0  0  0
 32 33  2  0  0  0  0
 32 34  1  0  0  0  0
 32 61  1  0  0  0  0
 33 43  1  0  0  0  0
 33 78  1  0  0  0  0
 34 69  1  0  0  0  0
 34 79  2  0  0  0  0
 35 73  1  0  0  0  0
 35 80  2  0  0  0  0
 36 52  1  0  0  0  0
 36 74  1  0  0  0  0
 36 81  2  0  0  0  0
 37 64  1  0  0  0  0
 37 70  1  0  0  0  0
 37 82  2  0  0  0  0
 38 65  1  0  0  0  0
 38 75  1  0  0  0  0
 38 83  2  0  0  0  0
 39 71  1  0  0  0  0
 39 76  1  0  0  0  0
 39 84  2  0  0  0  0
 40 44  1  0  0  0  0
 41 52  1  0  0  0  0
 42 70  1  0  0  0  0
 43 48  1  0  0  0  0
 44 46  1  0  0  0  0
 45 47  1  0  0  0  0
 45 49  1  0  0  0  0
 46 51  1  0  0  0  0
 47 53  1  0  0  0  0
 48 69  1  0  0  0  0
 49 71  1  0  0  0  0
 50 53  1  0  0  0  0
 50 71  1  0  0  0  0
 51 74  1  0  0  0  0
 52 70  1  0  0  0  0
 53 68  1  0  0  0  0
 55 65  1  0  0  0  0
 56 66  1  0  0  0  0
 57 66  1  0  0  0  0
 58 66  1  0  0  0  0
 59 77  1  0  0  0  0
 60 62  1  0  0  0  0
 61 86  1  0  0  0  0
 62 63  1  0  0  0  0
 63 76  1  0  0  0  0
 64 66  1  0  0  0  0
 64 75  1  0  0  0  0
 65 77  1  0  0  0  0
 67 68  1  0  0  0  0
M  CHG  2  77   1  78  -1
M  ISO  4  39 100  61 101  76 100  86 101
M  END
> <Batch ID>
0105

> <Smiles>
CNC(C)C(=O)NC(C(=O)N1Cc2cc([101O:1][101CH2:1]C3C(=O)CCN(c4cc(C)c(CCC[100NH:0][100C:0](=O)N5CCCC(n6nc(-c7ccc(Oc8ccc(F)cc8F)cc7)c(C(N)=O)c6N)C5)s4)C3=O)ccc2CC1C(=O)NC1CCCc2ccccc21)C(C)(C)C

> <Shape>
0.197

> <Color>
0.072

> <Negative vol penalty>
0.000

$$$$

  -OEChem-04052301113D

 85 93  0     1  0  0  0  0  0999 V2000
  -23.6347   -8.0326   21.0425 C   0  0  0  0  0  0  0  0  0  0  0  0
  -24.0945   -9.0222   20.1795 C   0  0  0  0  0  0  0  0  0  0  0  0
  -23.5066  -28.3407   18.8711 C   0  0  0  0  0  0  0  0  0  0  0  0
  -23.7105  -26.6699   20.6043 C   0  0  0  0  0  0  0  0  0  0  0  0
  -22.6504   -8.3320   21.9834 C   0  0  0  0  0  0  0  0  0  0  0  0
  -23.5694  -10.3117   20.2563 C   0  0  0  0  0  0  0  0  0  0  0  0
  -27.1533  -13.8838   20.0562 C   0  0  0  0  0  0  0  0  0  0  0  0
  -22.1192  -28.3187   19.0130 C   0  0  0  0  0  0  0  0  0  0  0  0
  -22.3230  -26.6480   20.7463 C   0  0  0  0  0  0  0  0  0  0  0  0
  -27.6850  -14.1828   18.8025 C   0  0  0  0  0  0  0  0  0  0  0  0
  -19.9419  -28.5359   22.2250 C   0  0  0  0  0  0  0  0  0  0  0  0
  -19.4242  -28.5533   23.5201 C   0  0  0  0  0  0  0  0  0  0  0  0
  -30.0634  -20.1384   18.0144 C   0  0  0  0  0  0  0  0  0  0  0  0
  -26.2616  -16.1257   18.6688 C   0  0  0  0  0  0  0  0  0  0  0  0
  -29.3681  -19.4497   20.6269 C   0  0  0  0  0  0  0  0  0  0  0  0
  -18.3389  -26.4332   23.1148 C   0  0  0  0  0  0  0  0  0  0  0  0
  -24.3023  -27.5163   19.6667 C   0  0  0  0  0  0  0  0  0  0  0  0
  -30.1019  -18.8036   18.4176 C   0  0  0  0  0  0  0  0  0  0  0  0
  -26.6478  -28.3615   20.2069 C   0  0  0  0  0  0  0  0  0  0  0  0
  -22.1199   -9.6283   22.0783 C   0  0  0  0  0  0  0  0  0  0  0  0
  -26.1622  -14.6989   20.6218 C   0  0  0  0  0  0  0  0  0  0  0  0
  -22.5761  -10.6284   21.1985 C   0  0  0  0  0  0  0  0  0  0  0  0
  -25.7208  -15.8364   19.9309 C   0  0  0  0  0  0  0  0  0  0  0  0
  -29.6773  -21.1289   18.9176 C   0  0  0  0  0  0  0  0  0  0  0  0
  -29.7543  -18.4593   19.7238 C   0  0  0  0  0  0  0  0  0  0  0  0
  -21.5274  -27.4724   19.9506 C   0  0  0  0  0  0  0  0  0  0  0  0
  -27.2371  -15.3022   18.1074 C   0  0  0  0  0  0  0  0  0  0  0  0
  -19.6581  -27.4671   21.3748 C   0  0  0  0  0  0  0  0  0  0  0  0
  -29.3296  -20.7845   20.2238 C   0  0  0  0  0  0  0  0  0  0  0  0
  -18.6227  -27.5020   23.9650 C   0  0  0  0  0  0  0  0  0  0  0  0
  -18.8567  -26.4157   21.8197 C   0  0  0  0  0  0  0  0  0  0  0  0
  -25.7355  -27.5382   19.5201 C   0  0  0  0  0  0  0  0  0  0  0  0
  -27.8770  -27.9983   19.7133 C   0  0  0  0  0  0  0  0  0  0  0  0
  -30.5196  -17.7679   17.4271 C   0  0  0  0  0  0  0  0  0  0  0  0
  -26.4057  -29.3649   21.2020 C   0  0  0  0  0  0  0  0  0  0  0  0
  -23.1435  -14.2656   21.5179 C   0  0  0  0  0  0  0  0  0  0  0  0
  -23.4526  -17.2915   22.6450 C   0  0  0  0  0  0  0  0  0  0  0  0
  -25.0608  -20.2968   22.4741 C   0  0  0  0  0  0  0  0  0  0  0  0
  -29.9573  -22.9776   17.2293 C   0  0  0  0  0  0  0  0  0  0  0  0
  -21.0236   -9.8925   23.0797 C   0  0  0  0  0  0  0  0  0  0  0  0
  -25.6181  -14.3777   21.9867 C   0  0  0  0  0  0  0  0  0  0  0  0
  -24.6732  -16.7549   20.5032 C   0  0  0  0  0  0  0  0  0  0  0  0
  -20.7873  -11.3768   23.3468 C   0  0  0  0  0  0  0  0  0  0  0  0
  -29.9594  -26.2298   15.7801 C   0  0  0  0  0  0  0  0  0  0  0  0
  -20.7252  -12.1520   22.0345 C   0  0  0  0  0  0  0  0  0  0  0  0
  -28.9640  -27.0110   16.6410 C   0  0  0  0  0  0  0  0  0  0  0  0
  -29.5189  -24.7812   15.5771 C   0  0  0  0  0  0  0  0  0  0  0  0
  -28.2242  -24.8257   17.6725 C   0  0  0  0  0  0  0  0  0  0  0  0
  -22.0488  -12.0452   21.2676 C   0  0  1  0  0  0  0  0  0  0  0  0
  -24.2438  -14.9893   22.2412 C   0  0  1  0  0  0  0  0  0  0  0  0
  -28.6579  -26.2726   17.9588 C   0  0  2  0  0  0  0  0  0  0  0  0
  -25.6893  -22.6409   23.1122 C   0  0  0  0  0  0  0  0  0  0  0  0
  -20.9577  -18.0099   21.0420 C   0  0  0  0  0  0  0  0  0  0  0  0
  -21.5579  -20.4243   21.3219 C   0  0  0  0  0  0  0  0  0  0  0  0
  -21.0586  -19.0247   23.3255 C   0  0  0  0  0  0  0  0  0  0  0  0
  -27.1491  -19.3510   24.3458 C   0  0  0  0  0  0  0  0  0  0  0  0
  -29.9812  -22.3323   21.9078 C   0  0  0  0  0  0  0  0  0  0  0  0
  -29.7046  -17.6050   16.1529 C   0  0  0  0  0  0  0  0  0  0  0  0
  -29.7221  -16.1680   15.6358 C   0  0  0  0  0  0  0  0  0  0  0  0
  -29.1033  -15.2028   16.6366 C   0  0  0  0  0  0  0  0  0  1  0  0
  -23.2285  -18.6721   22.0769 C   0  0  1  0  0  0  0  0  0  0  0  0
  -25.6512  -21.1860   23.5534 C   0  0  2  0  0  0  0  0  0  0  0  0
  -21.7190  -19.0146   21.9297 C   0  0  0  0  0  0  0  0  0  0  0  0
  -26.3340  -26.7141   18.6560 N   0  0  0  0  0  0  0  0  0  0  0  0
  -27.6356  -27.0179   18.7964 N   0  0  0  0  0  0  0  0  0  0  0  0
  -24.1673  -16.3950   21.8381 N   0  0  0  0  0  0  0  0  0  0  0  0
  -29.2507  -24.1443   16.8683 N   0  0  0  0  0  0  0  0  0  0  0  0
  -29.7877  -17.1135   20.1524 N   0  0  0  0  0  0  0  0  0  0  0  0
  -29.1299  -28.4252   19.9784 N   0  0  0  0  0  0  0  0  0  0  0  0
  -25.0830  -29.6115   21.5943 N   0  0  0  0  0  0  0  0  0  0  0  0
  -29.6418  -22.4804   18.4934 N   0  0  0  0  0  0  0  0  0  0  0  0
  -23.0403  -12.9271   21.8454 N   0  0  0  0  0  0  0  0  0  0  0  0
  -23.9689  -19.5915   22.9342 N   0  0  0  0  0  0  0  0  0  0  0  0
  -27.0413  -20.7561   23.8756 N   0  3  0  0  0  0  0  0  0  0  0  0
  -31.5072  -17.0757   17.6633 O   0  0  0  0  0  0  0  0  0  0  0  0
  -27.3335  -30.0348   21.7159 O   0  0  0  0  0  0  0  0  0  0  0  0
  -22.4392  -14.8767   20.7227 O   0  0  0  0  0  0  0  0  0  0  0  0
  -23.0159  -17.0209   23.7665 O   0  0  0  0  0  0  0  0  0  0  0  0
  -25.5197  -20.2368   21.3355 O   0  0  0  0  0  0  0  0  0  0  0  0
  -30.8013  -22.4734   16.4841 O   0  0  0  0  0  0  0  0  0  0  0  0
  -20.1736  -27.4508   20.0896 O   0  0  0  0  0  0  0  0  0  0  0  0
  -28.9509  -21.7374   21.1217 O   0  0  0  0  0  0  0  0  0  0  0  0
  -27.7539  -15.5960   16.8833 O   0  0  0  0  0  0  0  0  0  1  0  0
  -18.1268  -27.5182   25.2092 F   0  0  0  0  0  0  0  0  0  0  0  0
  -18.5816  -25.3857   21.0078 F   0  0  0  0  0  0  0  0  0  0  0  0
  1  2  1  0  0  0  0
  1  5  2  0  0  0  0
  2  6  2  0  0  0  0
  3  8  2  0  0  0  0
  3 17  1  0  0  0  0
  4  9  1  0  0  0  0
  4 17  2  0  0  0  0
  5 20  1  0  0  0  0
  6 22  1  0  0  0  0
  7 10  2  0  0  0  0
  7 21  1  0  0  0  0
  8 26  1  0  0  0  0
  9 26  2  0  0  0  0
 10 27  1  0  0  0  0
 11 12  2  0  0  0  0
 11 28  1  0  0  0  0
 12 30  1  0  0  0  0
 13 18  1  0  0  0  0
 13 24  2  0  0  0  0
 14 23  1  0  0  0  0
 14 27  2  0  0  0  0
 15 25  1  0  0  0  0
 15 29  2  0  0  0  0
 16 30  2  0  0  0  0
 16 31  1  0  0  0  0
 17 32  1  0  0  0  0
 18 25  2  0  0  0  0
 18 34  1  0  0  0  0
 19 32  1  0  0  0  0
 19 33  2  0  0  0  0
 19 35  1  0  0  0  0
 20 22  2  0  0  0  0
 20 40  1  0  0  0  0
 21 23  2  0  0  0  0
 21 41  1  0  0  0  0
 22 49  1  0  0  0  0
 23 42  1  0  0  0  0
 24 29  1  0  0  0  0
 24 71  1  0  0  0  0
 25 68  1  0  0  0  0
 26 81  1  0  0  0  0
 27 83  1  0  0  0  0
 28 31  2  0  0  0  0
 28 81  1  0  0  0  0
 29 82  1  0  0  0  0
 30 84  1  0  0  0  0
 31 85  1  0  0  0  0
 32 64  2  0  0  0  0
 33 65  1  0  0  0  0
 33 69  1  0  0  0  0
 34 58  1  0  0  0  0
 34 75  2  0  0  0  0
 35 70  1  0  0  0  0
 35 76  2  0  0  0  0
 36 50  1  0  0  0  0
 36 72  1  0  0  0  0
 36 77  2  0  0  0  0
 37 61  1  0  0  0  0
 37 66  1  0  0  0  0
 37 78  2  0  0  0  0
 38 62  1  0  0  0  0
 38 73  1  0  0  0  0
 38 79  2  0  0  0  0
 39 67  1  0  0  0  0
 39 71  1  0  0  0  0
 39 80  2  0  0  0  0
 40 43  1  0  0  0  0
 41 50  1  0  0  0  0
 42 66  1  0  0  0  0
 43 45  1  0  0  0  0
 44 46  1  0  0  0  0
 44 47  1  0  0  0  0
 45 49  1  0  0  0  0
 46 51  1  0  0  0  0
 47 67  1  0  0  0  0
 48 51  1  0  0  0  0
 48 67  1  0  0  0  0
 49 72  1  0  0  0  0
 50 66  1  0  0  0  0
 51 65  1  0  0  0  0
 52 62  1  0  0  0  0
 53 63  1  0  0  0  0
 54 63  1  0  0  0  0
 55 63  1  0  0  0  0
 56 74  1  0  0  0  0
 57 82  1  0  0  0  0
 58 59  1  0  0  0  0
 59 60  1  0  0  0  0
 60 83  1  0  0  0  0
 61 63  1  0  0  0  0
 61 73  1  0  0  0  0
 62 74  1  0  0  0  0
 64 65  1  0  0  0  0
M  CHG  1  74   1
M  ISO  4  39 100  60 101  71 100  83 101
M  END
> <Batch ID>
0105

> <Smiles>
CNC(C)C(=O)NC(C(=O)N1Cc2cc([101O:1][101CH2:1]CCC(=O)c3cc([100NH:0][100C:0](=O)N4CCCC(n5nc(-c6ccc(Oc7ccc(F)cc7F)cc6)c(C(N)=O)c5N)C4)c(OC)cc3N)ccc2CC1C(=O)NC1CCCc2ccccc21)C(C)(C)C

> <Shape>
0.242

> <Color>
0.073

> <Negative vol penalty>
0.000

$$$$

  -OEChem-04052301113D

 85 94  0     1  0  0  0  0  0999 V2000
  -23.1813  -18.1520   24.2727 C   0  0  0  0  0  0  0  0  0  0  0  0
  -24.2141  -18.9062   23.7251 C   0  0  0  0  0  0  0  0  0  0  0  0
  -22.9859  -12.7549   20.1938 C   0  0  0  0  0  0  0  0  0  0  0  0
  -23.3166  -13.4800   22.4746 C   0  0  0  0  0  0  0  0  0  0  0  0
  -21.8554  -18.5128   24.0370 C   0  0  0  0  0  0  0  0  0  0  0  0
  -23.9215  -20.0212   22.9405 C   0  0  0  0  0  0  0  0  0  0  0  0
  -27.1230  -25.2313   22.6076 C   0  0  0  0  0  0  0  0  0  0  0  0
  -22.5608  -11.5079   20.6519 C   0  0  0  0  0  0  0  0  0  0  0  0
  -22.8914  -12.2329   22.9327 C   0  0  0  0  0  0  0  0  0  0  0  0
  -28.0677  -25.6949   21.6930 C   0  0  0  0  0  0  0  0  0  0  0  0
  -23.9754   -8.6699   21.8220 C   0  0  0  0  0  0  0  0  0  0  0  0
  -24.4828   -7.5384   21.1835 C   0  0  0  0  0  0  0  0  0  0  0  0
  -26.8800  -23.9290   18.0923 C   0  0  0  0  0  0  0  0  0  0  0  0
  -26.5221  -23.2177   19.2625 C   0  0  0  0  0  0  0  0  0  0  0  0
  -26.3352  -26.8977   20.5222 C   0  0  0  0  0  0  0  0  0  0  0  0
  -22.2408   -6.8789   20.5706 C   0  0  0  0  0  0  0  0  0  0  0  0
  -23.3638  -13.7410   21.1052 C   0  0  0  0  0  0  0  0  0  0  0  0
  -23.0055  -16.1628   20.3882 C   0  0  0  0  0  0  0  0  0  0  0  0
  -21.5465  -19.6384   23.2571 C   0  0  0  0  0  0  0  0  0  0  0  0
  -25.7732  -25.5892   22.4797 C   0  0  0  0  0  0  0  0  0  0  0  0
  -22.5901  -20.3967   22.6931 C   0  0  0  0  0  0  0  0  0  0  0  0
  -25.3757  -26.4393   21.4379 C   0  0  0  0  0  0  0  0  0  0  0  0
  -22.5135  -11.2469   22.0213 C   0  0  0  0  0  0  0  0  0  0  0  0
  -27.6734  -26.5259   20.6485 C   0  0  0  0  0  0  0  0  0  0  0  0
  -22.6007   -8.9060   21.8349 C   0  0  0  0  0  0  0  0  0  0  0  0
  -23.6155   -6.6429   20.5577 C   0  0  0  0  0  0  0  0  0  0  0  0
  -21.7334   -8.0105   21.2092 C   0  0  0  0  0  0  0  0  0  0  0  0
  -23.8036  -15.0291   20.6326 C   0  0  0  0  0  0  0  0  0  0  0  0
  -28.2549  -23.9292   18.0509 C   0  0  0  0  0  0  0  0  0  0  0  0
  -27.7038  -22.8337   19.8525 C   0  0  0  0  0  0  0  0  0  0  0  0
  -23.8912  -17.1196   19.9565 C   0  0  0  0  0  0  0  0  0  0  0  0
  -31.0773  -25.7173   18.3330 C   0  0  0  0  0  0  0  0  0  0  0  0
  -21.5901  -16.3354   20.5380 C   0  0  0  0  0  0  0  0  0  0  0  0
  -23.0656  -23.9948   21.9997 C   0  0  0  0  0  0  0  0  0  0  0  0
  -21.7220  -26.9102   22.4658 C   0  0  0  0  0  0  0  0  0  0  0  0
  -22.0668  -30.3046   22.3911 C   0  0  0  0  0  0  0  0  0  0  0  0
  -28.7625  -19.8038   20.4165 C   0  0  0  0  0  0  0  0  0  0  0  0
  -20.0975  -19.9617   22.9910 C   0  0  0  0  0  0  0  0  0  0  0  0
  -24.7709  -25.1024   23.4900 C   0  0  0  0  0  0  0  0  0  0  0  0
  -23.9423  -26.8693   21.2683 C   0  0  0  0  0  0  0  0  0  0  0  0
  -31.3478  -27.1553   18.7021 C   0  0  0  0  0  0  0  0  0  0  0  0
  -19.8768  -21.3751   22.4582 C   0  0  0  0  0  0  0  0  0  0  0  0
  -30.4664  -27.9423   17.7366 C   0  0  0  0  0  0  0  0  0  0  0  0
  -28.7511  -16.7377   18.6066 C   0  0  0  0  0  0  0  0  0  0  0  0
  -20.8698  -21.6863   21.3429 C   0  0  0  0  0  0  0  0  0  0  0  0
  -27.4004  -16.1110   18.9571 C   0  0  0  0  0  0  0  0  0  0  0  0
  -29.3549  -17.4797   19.7969 C   0  0  0  0  0  0  0  0  0  0  0  0
  -27.1198  -17.8601   20.7629 C   0  0  0  0  0  0  0  0  0  0  0  0
  -22.3132  -21.6274   21.8571 C   0  0  1  0  0  0  0  0  0  0  0  0
  -23.3388  -25.1138   22.9644 C   0  0  1  0  0  0  0  0  0  0  0  0
  -26.4452  -17.1482   19.5778 C   0  0  2  0  0  0  0  0  0  0  0  0
  -29.2914  -27.0112   17.4536 C   0  0  2  0  0  0  0  0  0  0  0  0
  -20.7834  -32.4242   22.7878 C   0  0  0  0  0  0  0  0  0  0  0  0
  -20.2802  -26.5327   19.8034 C   0  0  0  0  0  0  0  0  0  0  0  0
  -19.7977  -28.9894   19.7958 C   0  0  0  0  0  0  0  0  0  0  0  0
  -18.8819  -27.5458   21.6124 C   0  0  0  0  0  0  0  0  0  0  0  0
  -23.9065  -31.1515   24.5491 C   0  0  0  0  0  0  0  0  0  0  0  0
  -29.2539  -24.5021   17.0876 C   0  0  0  0  0  0  0  0  0  0  0  0
  -28.0188  -22.0786   21.0734 C   0  0  0  0  0  0  0  0  0  0  0  0
  -28.1375  -27.2335   18.4259 C   0  0  0  0  0  0  0  0  0  1  0  0
  -21.3544  -28.0726   21.5756 C   0  0  1  0  0  0  0  0  0  0  0  0
  -21.6998  -31.3769   23.4010 C   0  0  2  0  0  0  0  0  0  0  0  0
  -20.1053  -27.7756   20.6986 C   0  0  0  0  0  0  0  0  0  0  0  0
  -25.0968  -15.2442   20.3773 N   0  0  0  0  0  0  0  0  0  0  0  0
  -25.1181  -16.5241   19.9678 N   0  0  0  0  0  0  0  0  0  0  0  0
  -29.8869  -25.6962   17.6094 N   0  0  0  0  0  0  0  0  0  0  0  0
  -22.9986  -26.3618   22.2781 N   0  0  0  0  0  0  0  0  0  0  0  0
  -28.3993  -18.4492   20.3378 N   0  0  0  0  0  0  0  0  0  0  0  0
  -23.7324  -18.4039   19.5720 N   0  0  0  0  0  0  0  0  0  0  0  0
  -20.8290  -15.2499   20.9927 N   0  0  0  0  0  0  0  0  0  0  0  0
  -22.6345  -22.8272   22.5999 N   0  0  0  0  0  0  0  0  0  0  0  0
  -21.2070  -29.2285   22.4534 N   0  0  0  0  0  0  0  0  0  0  0  0
  -27.7959  -20.6566   20.9354 N   0  0  0  0  0  0  0  0  0  0  0  0
  -22.9266  -32.0600   23.9001 N   0  3  0  0  0  0  0  0  0  0  0  0
  -31.7801  -24.7729   18.6610 O   0  0  0  0  0  0  0  0  0  0  0  0
  -21.0149  -17.4152   20.2609 O   0  0  0  0  0  0  0  0  0  0  0  0
  -23.2322  -24.1776   20.7994 O   0  0  0  0  0  0  0  0  0  0  0  0
  -20.9091  -26.5082   23.3020 O   0  0  0  0  0  0  0  0  0  0  0  0
  -23.0186  -30.4126   21.6211 O   0  0  0  0  0  0  0  0  0  0  0  0
  -29.8644  -20.2230   20.0463 O   0  0  0  0  0  0  0  0  0  0  0  0
  -28.7648  -23.2634   19.1201 O   0  0  0  0  0  0  0  0  0  0  0  0
  -22.0986  -10.0302   22.4686 O   0  0  0  0  0  0  0  0  0  0  0  0
  -28.5934  -26.9793   19.7541 O   0  0  0  0  0  0  0  0  0  1  0  0
  -24.1030   -5.5571   19.9433 F   0  0  0  0  0  0  0  0  0  0  0  0
  -20.4118   -8.2325   21.2172 F   0  0  0  0  0  0  0  0  0  0  0  0
  1  2  1  0  0  0  0
  1  5  2  0  0  0  0
  2  6  2  0  0  0  0
  3  8  2  0  0  0  0
  3 17  1  0  0  0  0
  4  9  1  0  0  0  0
  4 17  2  0  0  0  0
  5 19  1  0  0  0  0
  6 21  1  0  0  0  0
  7 10  2  0  0  0  0
  7 20  1  0  0  0  0
  8 23  1  0  0  0  0
  9 23  2  0  0  0  0
 10 24  1  0  0  0  0
 11 12  2  0  0  0  0
 11 25  1  0  0  0  0
 12 26  1  0  0  0  0
 13 14  1  0  0  0  0
 13 29  2  0  0  0  0
 14 30  2  0  0  0  0
 15 22  1  0  0  0  0
 15 24  2  0  0  0  0
 16 26  2  0  0  0  0
 16 27  1  0  0  0  0
 17 28  1  0  0  0  0
 18 28  1  0  0  0  0
 18 31  2  0  0  0  0
 18 33  1  0  0  0  0
 19 21  2  0  0  0  0
 19 38  1  0  0  0  0
 20 22  2  0  0  0  0
 20 39  1  0  0  0  0
 21 49  1  0  0  0  0
 22 40  1  0  0  0  0
 23 82  1  0  0  0  0
 24 83  1  0  0  0  0
 25 27  2  0  0  0  0
 25 82  1  0  0  0  0
 26 84  1  0  0  0  0
 27 85  1  0  0  0  0
 28 64  2  0  0  0  0
 29 58  1  0  0  0  0
 29 81  1  0  0  0  0
 30 59  1  0  0  0  0
 30 81  1  0  0  0  0
 31 65  1  0  0  0  0
 31 69  1  0  0  0  0
 32 41  1  0  0  0  0
 32 66  1  0  0  0  0
 32 75  2  0  0  0  0
 33 70  1  0  0  0  0
 33 76  2  0  0  0  0
 34 50  1  0  0  0  0
 34 71  1  0  0  0  0
 34 77  2  0  0  0  0
 35 61  1  0  0  0  0
 35 67  1  0  0  0  0
 35 78  2  0  0  0  0
 36 62  1  0  0  0  0
 36 72  1  0  0  0  0
 36 79  2  0  0  0  0
 37 68  1  0  0  0  0
 37 73  1  0  0  0  0
 37 80  2  0  0  0  0
 38 42  1  0  0  0  0
 39 50  1  0  0  0  0
 40 67  1  0  0  0  0
 41 43  1  0  0  0  0
 42 45  1  0  0  0  0
 43 52  1  0  0  0  0
 44 46  1  0  0  0  0
 44 47  1  0  0  0  0
 45 49  1  0  0  0  0
 46 51  1  0  0  0  0
 47 68  1  0  0  0  0
 48 51  1  0  0  0  0
 48 68  1  0  0  0  0
 49 71  1  0  0  0  0
 50 67  1  0  0  0  0
 51 65  1  0  0  0  0
 52 60  1  0  0  0  0
 52 66  1  0  0  0  0
 53 62  1  0  0  0  0
 54 63  1  0  0  0  0
 55 63  1  0  0  0  0
 56 63  1  0  0  0  0
 57 74  1  0  0  0  0
 58 66  1  0  0  0  0
 59 73  1  0  0  0  0
 60 83  1  0  0  0  0
 61 63  1  0  0  0  0
 61 72  1  0  0  0  0
 62 74  1  0  0  0  0
 64 65  1  0  0  0  0
M  CHG  1  74   1
M  ISO  4  37 100  60 101  73 100  83 101
M  END
> <Batch ID>
0105

> <Smiles>
CNC(C)C(=O)NC(C(=O)N1Cc2cc([101O:1][101CH2:1]C3CCC(=O)N3Cc3ccc(C[100NH:0][100C:0](=O)N4CCCC(n5nc(-c6ccc(Oc7ccc(F)cc7F)cc6)c(C(N)=O)c5N)C4)o3)ccc2CC1C(=O)NC1CCCc2ccccc21)C(C)(C)C

> <Shape>
0.217

> <Color>
0.086

> <Negative vol penalty>
0.000

$$$$

  -OEChem-04052301113D

 81 89  0     1  0  0  0  0  0999 V2000
  -20.0597  -19.1508   35.1953 C   0  0  0  0  0  0  0  0  0  0  0  0
  -20.5163  -18.3801   34.1309 C   0  0  0  0  0  0  0  0  0  0  0  0
  -23.2833   -9.7980   19.9083 C   0  0  0  0  0  0  0  0  0  0  0  0
  -23.7219   -9.9367   22.2801 C   0  0  0  0  0  0  0  0  0  0  0  0
  -19.8853  -20.5248   35.0352 C   0  0  0  0  0  0  0  0  0  0  0  0
  -20.7976  -18.9829   32.9053 C   0  0  0  0  0  0  0  0  0  0  0  0
  -25.1665  -17.3791   30.9090 C   0  0  0  0  0  0  0  0  0  0  0  0
  -22.5506   -8.6288   20.1121 C   0  0  0  0  0  0  0  0  0  0  0  0
  -22.9891   -8.7674   22.4840 C   0  0  0  0  0  0  0  0  0  0  0  0
  -25.1621  -16.1317   30.2863 C   0  0  0  0  0  0  0  0  0  0  0  0
  -19.7369   -7.8710   22.6838 C   0  0  0  0  0  0  0  0  0  0  0  0
  -18.8288   -7.8534   23.7423 C   0  0  0  0  0  0  0  0  0  0  0  0
  -25.0032  -17.2126   28.1355 C   0  0  0  0  0  0  0  0  0  0  0  0
  -28.8158  -11.9927   24.4322 C   0  0  0  0  0  0  0  0  0  0  0  0
  -20.0209   -6.0008   24.7343 C   0  0  0  0  0  0  0  0  0  0  0  0
  -23.8690  -10.4520   20.9923 C   0  0  0  0  0  0  0  0  0  0  0  0
  -24.1408  -12.9808   20.7951 C   0  0  0  0  0  0  0  0  0  0  0  0
  -20.1738  -21.1462   33.8099 C   0  0  0  0  0  0  0  0  0  0  0  0
  -25.0781  -18.5543   30.1490 C   0  0  0  0  0  0  0  0  0  0  0  0
  -20.6255  -20.3662   32.7283 C   0  0  0  0  0  0  0  0  0  0  0  0
  -25.0092  -18.4738   28.7508 C   0  0  0  0  0  0  0  0  0  0  0  0
  -27.8004  -11.8709   25.4243 C   0  0  0  0  0  0  0  0  0  0  0  0
  -22.4035   -8.1135   21.4000 C   0  0  0  0  0  0  0  0  0  0  0  0
  -25.0776  -16.0482   28.8996 C   0  0  0  0  0  0  0  0  0  0  0  0
  -20.7871   -6.9534   22.6505 C   0  0  0  0  0  0  0  0  0  0  0  0
  -18.9707   -6.9183   24.7676 C   0  0  0  0  0  0  0  0  0  0  0  0
  -20.9290   -6.0184   23.6757 C   0  0  0  0  0  0  0  0  0  0  0  0
  -24.6266  -11.6595   20.7823 C   0  0  0  0  0  0  0  0  0  0  0  0
  -27.2529  -13.0903   25.7569 C   0  0  0  0  0  0  0  0  0  0  0  0
  -29.0055  -13.3009   24.0440 C   0  0  0  0  0  0  0  0  0  0  0  0
  -25.2472  -13.7557   20.5461 C   0  0  0  0  0  0  0  0  0  0  0  0
  -26.1896  -13.4028   26.7267 C   0  0  0  0  0  0  0  0  0  0  0  0
  -26.0707  -14.5551   27.3980 C   0  0  0  0  0  0  0  0  0  1  0  0
  -22.8088  -13.4644   21.0127 C   0  0  0  0  0  0  0  0  0  0  0  0
  -22.9973  -20.9494   29.9556 C   0  0  0  0  0  0  0  0  0  0  0  0
  -25.2270  -22.2107   27.9657 C   0  0  0  0  0  0  0  0  0  0  0  0
  -27.8484  -21.6824   25.8453 C   0  0  0  0  0  0  0  0  0  0  0  0
  -31.1503  -12.3464   21.3860 C   0  0  0  0  0  0  0  0  0  0  0  0
  -19.9245  -22.6271   33.6706 C   0  0  0  0  0  0  0  0  0  0  0  0
  -25.1111  -19.8930   30.8342 C   0  0  0  0  0  0  0  0  0  0  0  0
  -24.9329  -19.7061   27.8883 C   0  0  0  0  0  0  0  0  0  0  0  0
  -20.6023  -23.2468   32.4512 C   0  0  0  0  0  0  0  0  0  0  0  0
  -29.4884  -13.6517   18.3469 C   0  0  0  0  0  0  0  0  0  0  0  0
  -20.3644  -22.3871   31.2138 C   0  0  0  0  0  0  0  0  0  0  0  0
  -28.0177  -13.3307   18.6076 C   0  0  0  0  0  0  0  0  0  0  0  0
  -30.4173  -12.6674   19.0512 C   0  0  0  0  0  0  0  0  0  0  0  0
  -28.6998  -12.2265   20.7746 C   0  0  0  0  0  0  0  0  0  0  0  0
  -20.9651  -20.9873   31.3907 C   0  0  1  0  0  0  0  0  0  0  0  0
  -24.4981  -21.0093   29.9943 C   0  0  1  0  0  0  0  0  0  0  0  0
  -27.7379  -13.2274   20.1170 C   0  0  2  0  0  0  0  0  0  0  0  0
  -29.4403  -22.9041   24.3385 C   0  0  0  0  0  0  0  0  0  0  0  0
  -23.0122  -22.5339   25.8920 C   0  0  0  0  0  0  0  0  0  0  0  0
  -24.7838  -22.8439   24.1503 C   0  0  0  0  0  0  0  0  0  0  0  0
  -24.5952  -24.4646   26.0372 C   0  0  0  0  0  0  0  0  0  0  0  0
  -32.0568  -12.6914   23.6529 C   0  0  0  0  0  0  0  0  0  0  0  0
  -30.1982  -20.7732   27.3980 C   0  0  0  0  0  0  0  0  0  0  0  0
  -29.9575  -13.8366   23.0471 C   0  0  0  0  0  0  0  0  0  0  0  0
  -25.4955  -22.1442   26.4817 C   0  0  1  0  0  0  0  0  0  0  0  0
  -29.2063  -22.3521   25.7361 C   0  0  2  0  0  0  0  0  0  0  0  0
  -24.4712  -22.9732   25.6564 C   0  0  0  0  0  0  0  0  0  0  0  0
  -25.9392  -11.5950   20.5438 N   0  0  0  0  0  0  0  0  0  0  0  0
  -26.2877  -12.8854   20.4044 N   0  0  0  0  0  0  0  0  0  0  0  0
  -24.9620  -20.9915   28.6055 N   0  0  0  0  0  0  0  0  0  0  0  0
  -30.1014  -12.5563   20.4757 N   0  0  0  0  0  0  0  0  0  0  0  0
  -27.4288  -10.6864   25.9672 N   0  0  0  0  0  0  0  0  0  0  0  0
  -25.4217  -15.0899   20.4365 N   0  0  0  0  0  0  0  0  0  0  0  0
  -21.7907  -12.5320   21.2547 N   0  0  0  0  0  0  0  0  0  0  0  0
  -22.3990  -21.0247   31.1990 N   0  0  0  0  0  0  0  0  0  0  0  0
  -26.8830  -22.5562   26.2990 N   0  0  0  0  0  0  0  0  0  0  0  0
  -30.9918  -12.8730   22.6768 N   0  0  0  0  0  0  0  0  0  0  0  0
  -30.2908  -21.3774   26.0440 N   0  3  0  0  0  0  0  0  0  0  0  0
  -22.5265  -14.6861   20.9769 O   0  0  0  0  0  0  0  0  0  0  0  0
  -22.4244  -20.8442   28.8775 O   0  0  0  0  0  0  0  0  0  0  0  0
  -25.2585  -23.3032   28.5376 O   0  0  0  0  0  0  0  0  0  0  0  0
  -27.6618  -20.5031   25.5536 O   0  0  0  0  0  0  0  0  0  0  0  0
  -32.1743  -11.7321   21.0605 O   0  0  0  0  0  0  0  0  0  0  0  0
  -21.6883   -6.9727   21.5993 O   0  0  0  0  0  0  0  0  0  0  0  0
  -25.0724  -14.8319   28.2893 O   0  0  0  0  0  0  0  0  0  1  0  0
  -18.0994   -6.9025   25.7848 F   0  0  0  0  0  0  0  0  0  0  0  0
  -21.9366   -5.1352   23.6498 F   0  0  0  0  0  0  0  0  0  0  0  0
  -27.9622  -14.3752   24.8746 S   0  0  0  0  0  0  0  0  0  0  0  0
  1  2  1  0  0  0  0
  1  5  2  0  0  0  0
  2  6  2  0  0  0  0
  3  8  2  0  0  0  0
  3 16  1  0  0  0  0
  4  9  1  0  0  0  0
  4 16  2  0  0  0  0
  5 18  1  0  0  0  0
  6 20  1  0  0  0  0
  7 10  2  0  0  0  0
  7 19  1  0  0  0  0
  8 23  1  0  0  0  0
  9 23  2  0  0  0  0
 10 24  1  0  0  0  0
 11 12  2  0  0  0  0
 11 25  1  0  0  0  0
 12 26  1  0  0  0  0
 13 21  1  0  0  0  0
 13 24  2  0  0  0  0
 14 22  1  0  0  0  0
 14 30  2  0  0  0  0
 15 26  2  0  0  0  0
 15 27  1  0  0  0  0
 16 28  1  0  0  0  0
 17 28  1  0  0  0  0
 17 31  2  0  0  0  0
 17 34  1  0  0  0  0
 18 20  2  0  0  0  0
 18 39  1  0  0  0  0
 19 21  2  0  0  0  0
 19 40  1  0  0  0  0
 20 48  1  0  0  0  0
 21 41  1  0  0  0  0
 22 29  2  0  0  0  0
 22 65  1  0  0  0  0
 23 77  1  0  0  0  0
 24 78  1  0  0  0  0
 25 27  2  0  0  0  0
 25 77  1  0  0  0  0
 26 79  1  0  0  0  0
 27 80  1  0  0  0  0
 28 61  2  0  0  0  0
 29 32  1  0  0  0  0
 29 81  1  0  0  0  0
 30 57  1  0  0  0  0
 30 81  1  0  0  0  0
 31 62  1  0  0  0  0
 31 66  1  0  0  0  0
 32 33  2  0  0  0  0
 33 78  1  0  0  0  0
 34 67  1  0  0  0  0
 34 72  2  0  0  0  0
 35 49  1  0  0  0  0
 35 68  1  0  0  0  0
 35 73  2  0  0  0  0
 36 58  1  0  0  0  0
 36 63  1  0  0  0  0
 36 74  2  0  0  0  0
 37 59  1  0  0  0  0
 37 69  1  0  0  0  0
 37 75  2  0  0  0  0
 38 64  1  0  0  0  0
 38 70  1  0  0  0  0
 38 76  2  0  0  0  0
 39 42  1  0  0  0  0
 40 49  1  0  0  0  0
 41 63  1  0  0  0  0
 42 44  1  0  0  0  0
 43 45  1  0  0  0  0
 43 46  1  0  0  0  0
 44 48  1  0  0  0  0
 45 50  1  0  0  0  0
 46 64  1  0  0  0  0
 47 50  1  0  0  0  0
 47 64  1  0  0  0  0
 48 68  1  0  0  0  0
 49 63  1  0  0  0  0
 50 62  1  0  0  0  0
 51 59  1  0  0  0  0
 52 60  1  0  0  0  0
 53 60  1  0  0  0  0
 54 60  1  0  0  0  0
 55 70  1  0  0  0  0
 56 71  1  0  0  0  0
 57 70  1  0  0  0  0
 58 60  1  0  0  0  0
 58 69  1  0  0  0  0
 59 71  1  0  0  0  0
 61 62  1  0  0  0  0
M  CHG  1  71   1
M  ISO  4  33 101  38 100  70 100  78 101
M  END
> <Batch ID>
0105

> <Smiles>
CNC(C)C(=O)NC(C(=O)N1Cc2cc([101O:1][101CH:1]=Cc3sc(C[100N:0](C)[100C:0](=O)N4CCCC(n5nc(-c6ccc(Oc7ccc(F)cc7F)cc6)c(C(N)=O)c5N)C4)cc3N)ccc2CC1C(=O)NC1CCCc2ccccc21)C(C)(C)C

> <Shape>
0.134

> <Color>
0.177

> <Negative vol penalty>
0.000

$$$$

  -OEChem-04052301113D

 84 92  0     1  0  0  0  0  0999 V2000
  -31.8450  -13.5205   21.7778 C   0  0  0  0  0  0  0  0  0  0  0  0
  -31.3309  -14.8111   21.7024 C   0  0  0  0  0  0  0  0  0  0  0  0
  -21.7948  -21.1553   25.2429 C   0  0  0  0  0  0  0  0  0  0  0  0
  -24.4818  -30.0881   20.8316 C   0  0  0  0  0  0  0  0  0  0  0  0
  -24.8550  -27.7800   21.4404 C   0  0  0  0  0  0  0  0  0  0  0  0
  -20.9371  -21.8112   24.3600 C   0  0  0  0  0  0  0  0  0  0  0  0
  -31.1630  -12.4635   21.1766 C   0  0  0  0  0  0  0  0  0  0  0  0
  -30.1351  -15.0455   21.0246 C   0  0  0  0  0  0  0  0  0  0  0  0
  -27.0164  -18.1031   23.5877 C   0  0  0  0  0  0  0  0  0  0  0  0
  -23.0924  -21.6292   25.4362 C   0  0  0  0  0  0  0  0  0  0  0  0
  -25.5061  -30.0050   19.8885 C   0  0  0  0  0  0  0  0  0  0  0  0
  -25.8793  -27.6969   20.4972 C   0  0  0  0  0  0  0  0  0  0  0  0
  -27.2945  -19.4689   23.5547 C   0  0  0  0  0  0  0  0  0  0  0  0
  -29.1213  -28.6245   20.2519 C   0  0  0  0  0  0  0  0  0  0  0  0
  -30.3100  -28.0059   20.6390 C   0  0  0  0  0  0  0  0  0  0  0  0
  -22.6746  -23.4148   23.8634 C   0  0  0  0  0  0  0  0  0  0  0  0
  -25.5993  -19.7670   21.8645 C   0  0  0  0  0  0  0  0  0  0  0  0
  -30.0240  -26.3626   18.8911 C   0  0  0  0  0  0  0  0  0  0  0  0
  -24.1563  -28.9756   21.6076 C   0  0  0  0  0  0  0  0  0  0  0  0
  -21.3769  -22.9409   23.6702 C   0  0  0  0  0  0  0  0  0  0  0  0
  -23.0305  -29.9285   23.6890 C   0  0  0  0  0  0  0  0  0  0  0  0
  -29.9532  -12.6836   20.4994 C   0  0  0  0  0  0  0  0  0  0  0  0
  -26.0336  -17.5564   22.7501 C   0  0  0  0  0  0  0  0  0  0  0  0
  -29.4370  -13.9906   20.4126 C   0  0  0  0  0  0  0  0  0  0  0  0
  -25.3089  -18.3944   21.8907 C   0  0  0  0  0  0  0  0  0  0  0  0
  -26.2048  -28.8094   19.7212 C   0  0  0  0  0  0  0  0  0  0  0  0
  -23.5323  -22.7589   24.7464 C   0  0  0  0  0  0  0  0  0  0  0  0
  -26.5879  -20.3006   22.6910 C   0  0  0  0  0  0  0  0  0  0  0  0
  -28.3838  -28.1121   19.1844 C   0  0  0  0  0  0  0  0  0  0  0  0
  -30.7614  -26.8750   19.9586 C   0  0  0  0  0  0  0  0  0  0  0  0
  -28.8352  -26.9812   18.5041 C   0  0  0  0  0  0  0  0  0  0  0  0
  -23.0987  -29.0610   22.5824 C   0  0  0  0  0  0  0  0  0  0  0  0
  -21.8379  -29.6182   24.2956 C   0  0  0  0  0  0  0  0  0  0  0  0
  -20.4708  -23.6346   22.7371 C   0  0  0  0  0  0  0  0  0  0  0  0
  -23.9618  -30.9258   24.1291 C   0  0  0  0  0  0  0  0  0  0  0  0
  -26.0250  -15.4089   20.4066 C   0  0  0  0  0  0  0  0  0  0  0  0
  -22.8111  -15.8153   20.5727 C   0  0  0  0  0  0  0  0  0  0  0  0
  -20.1845  -17.8119   21.4453 C   0  0  0  0  0  0  0  0  0  0  0  0
  -20.4076  -25.4320   21.0705 C   0  0  0  0  0  0  0  0  0  0  0  0
  -29.2763  -11.5168   19.8247 C   0  0  0  0  0  0  0  0  0  0  0  0
  -25.7271  -16.0853   22.8169 C   0  0  0  0  0  0  0  0  0  0  0  0
  -24.2299  -17.8602   20.9858 C   0  0  0  0  0  0  0  0  0  0  0  0
  -27.8231  -11.7913   19.4464 C   0  0  0  0  0  0  0  0  0  0  0  0
  -18.5546  -28.4122   21.7048 C   0  0  0  0  0  0  0  0  0  0  0  0
  -27.6961  -13.1508   18.7663 C   0  0  0  0  0  0  0  0  0  0  0  0
  -18.7752  -28.6981   23.1875 C   0  0  0  0  0  0  0  0  0  0  0  0
  -18.4578  -26.9152   21.4462 C   0  0  0  0  0  0  0  0  0  0  0  0
  -19.9395  -26.4268   23.3771 C   0  0  0  0  0  0  0  0  0  0  0  0
  -28.1298  -14.2811   19.7075 C   0  0  1  0  0  0  0  0  0  0  0  0
  -25.0618  -15.5555   21.5505 C   0  0  1  0  0  0  0  0  0  0  0  0
  -19.9578  -27.9160   23.7843 C   0  0  1  0  0  0  0  0  0  0  0  0
  -17.7981  -18.4793   21.8415 C   0  0  0  0  0  0  0  0  0  0  0  0
  -22.8549  -16.3913   17.5766 C   0  0  0  0  0  0  0  0  0  0  0  0
  -20.5611  -17.3690   17.8017 C   0  0  0  0  0  0  0  0  0  0  0  0
  -20.9476  -14.9633   18.3366 C   0  0  0  0  0  0  0  0  0  0  0  0
  -22.0481  -23.6412   20.8049 C   0  0  0  0  0  0  0  0  0  0  0  0
  -20.2272  -16.7579   24.2105 C   0  0  0  0  0  0  0  0  0  0  0  0
  -26.9269  -23.7019   23.8975 C   0  0  0  0  0  0  0  0  0  0  0  0
  -25.4186  -23.8856   23.8365 C   0  0  0  0  0  0  0  0  0  0  0  0
  -27.3230  -22.2341   23.8645 C   0  0  0  0  0  0  0  0  0  1  0  0
  -21.8148  -16.7386   19.9140 C   0  0  1  0  0  0  0  0  0  0  0  0
  -18.9158  -17.5229   22.2271 C   0  0  2  0  0  0  0  0  0  0  0  0
  -21.5662  -16.3757   18.4228 C   0  0  0  0  0  0  0  0  0  0  0  0
  -22.0342  -28.2595   22.4891 N   0  0  0  0  0  0  0  0  0  0  0  0
  -21.2860  -28.6222   23.5449 N   0  0  0  0  0  0  0  0  0  0  0  0
  -23.9715  -16.4140   21.0832 N   0  0  0  0  0  0  0  0  0  0  0  0
  -19.6320  -26.2079   21.9550 N   0  0  0  0  0  0  0  0  0  0  0  0
  -21.2181  -30.1028   25.3926 N   0  0  0  0  0  0  0  0  0  0  0  0
  -24.9682  -30.5493   25.0290 N   0  0  0  0  0  0  0  0  0  0  0  0
  -27.0872  -14.5653   20.6702 N   0  0  0  0  0  0  0  0  0  0  0  0
  -20.6161  -16.7053   20.7449 N   0  0  0  0  0  0  0  0  0  0  0  0
  -21.0357  -24.3006   21.6309 N   0  0  0  0  0  0  0  0  0  0  0  0
  -19.1665  -17.6584   23.6899 N   0  3  0  0  0  0  0  0  0  0  0  0
  -19.2674  -23.5699   22.9865 O   0  0  0  0  0  0  0  0  0  0  0  0
  -23.8933  -32.1192   23.7488 O   0  0  0  0  0  0  0  0  0  0  0  0
  -25.8189  -16.0151   19.3618 O   0  0  0  0  0  0  0  0  0  0  0  0
  -22.5653  -14.6082   20.6383 O   0  0  0  0  0  0  0  0  0  0  0  0
  -20.7353  -18.9105   21.4520 O   0  0  0  0  0  0  0  0  0  0  0  0
  -20.5188  -25.7013   19.8691 O   0  0  0  0  0  0  0  0  0  0  0  0
  -27.2043  -28.7279   18.8009 O   0  0  0  0  0  0  0  0  0  0  0  0
  -24.8073  -23.2249   24.9362 O   0  0  0  0  0  0  0  0  0  0  0  0
  -26.8577  -21.6340   22.6563 O   0  0  0  0  0  0  0  0  0  1  0  0
  -31.9037  -26.2820   20.3294 F   0  0  0  0  0  0  0  0  0  0  0  0
  -28.1317  -26.4851   17.4771 F   0  0  0  0  0  0  0  0  0  0  0  0
  1  2  1  0  0  0  0
  1  7  2  0  0  0  0
  2  8  2  0  0  0  0
  3  6  1  0  0  0  0
  3 10  2  0  0  0  0
  4 11  2  0  0  0  0
  4 19  1  0  0  0  0
  5 12  1  0  0  0  0
  5 19  2  0  0  0  0
  6 20  2  0  0  0  0
  7 22  1  0  0  0  0
  8 24  1  0  0  0  0
  9 13  2  0  0  0  0
  9 23  1  0  0  0  0
 10 27  1  0  0  0  0
 11 26  1  0  0  0  0
 12 26  2  0  0  0  0
 13 28  1  0  0  0  0
 14 15  2  0  0  0  0
 14 29  1  0  0  0  0
 15 30  1  0  0  0  0
 16 20  1  0  0  0  0
 16 27  2  0  0  0  0
 17 25  1  0  0  0  0
 17 28  2  0  0  0  0
 18 30  2  0  0  0  0
 18 31  1  0  0  0  0
 19 32  1  0  0  0  0
 20 34  1  0  0  0  0
 21 32  1  0  0  0  0
 21 33  2  0  0  0  0
 21 35  1  0  0  0  0
 22 24  2  0  0  0  0
 22 40  1  0  0  0  0
 23 25  2  0  0  0  0
 23 41  1  0  0  0  0
 24 49  1  0  0  0  0
 25 42  1  0  0  0  0
 26 80  1  0  0  0  0
 27 81  1  0  0  0  0
 28 82  1  0  0  0  0
 29 31  2  0  0  0  0
 29 80  1  0  0  0  0
 30 83  1  0  0  0  0
 31 84  1  0  0  0  0
 32 64  2  0  0  0  0
 33 65  1  0  0  0  0
 33 68  1  0  0  0  0
 34 72  1  0  0  0  0
 34 74  2  0  0  0  0
 35 69  1  0  0  0  0
 35 75  2  0  0  0  0
 36 50  1  0  0  0  0
 36 70  1  0  0  0  0
 36 76  2  0  0  0  0
 37 61  1  0  0  0  0
 37 66  1  0  0  0  0
 37 77  2  0  0  0  0
 38 62  1  0  0  0  0
 38 71  1  0  0  0  0
 38 78  2  0  0  0  0
 39 67  1  0  0  0  0
 39 72  1  0  0  0  0
 39 79  2  0  0  0  0
 40 43  1  0  0  0  0
 41 50  1  0  0  0  0
 42 66  1  0  0  0  0
 43 45  1  0  0  0  0
 44 46  1  0  0  0  0
 44 47  1  0  0  0  0
 45 49  1  0  0  0  0
 46 51  1  0  0  0  0
 47 67  1  0  0  0  0
 48 51  1  0  0  0  0
 48 67  1  0  0  0  0
 49 70  1  0  0  0  0
 50 66  1  0  0  0  0
 51 65  1  0  0  0  0
 52 62  1  0  0  0  0
 53 63  1  0  0  0  0
 54 63  1  0  0  0  0
 55 63  1  0  0  0  0
 56 72  1  0  0  0  0
 57 73  1  0  0  0  0
 58 59  1  0  0  0  0
 58 60  1  0  0  0  0
 59 81  1  0  0  0  0
 60 82  1  0  0  0  0
 61 63  1  0  0  0  0
 61 71  1  0  0  0  0
 62 73  1  0  0  0  0
 64 65  1  0  0  0  0
M  CHG  1  73   1
M  ISO  4  39 100  60 101  72 100  82 101
M  END
> <Batch ID>
0105

> <Smiles>
CNC(C)C(=O)NC(C(=O)N1Cc2cc([101O:1][101CH2:1]CCOc3cccc(C(=O)[100N:0](C)[100C:0](=O)N4CCCC(n5nc(-c6ccc(Oc7ccc(F)cc7F)cc6)c(C(N)=O)c5N)C4)c3)ccc2CC1C(=O)NC1CCCc2ccccc21)C(C)(C)C

> <Shape>
0.208

> <Color>
0.084

> <Negative vol penalty>
0.000

$$$$

  -OEChem-04052301113D

 88 97  0     1  0  0  0  0  0999 V2000
  -15.8391  -28.6514   22.1149 C   0  0  0  0  0  0  0  0  0  0  0  0
  -15.9137  -27.6103   21.1951 C   0  0  0  0  0  0  0  0  0  0  0  0
  -25.3379  -10.6042   20.0675 C   0  0  0  0  0  0  0  0  0  0  0  0
  -30.0552  -23.6342   19.0747 C   0  0  0  0  0  0  0  0  0  0  0  0
  -29.2581  -23.1493   21.3033 C   0  0  0  0  0  0  0  0  0  0  0  0
  -16.9602  -28.9954   22.8691 C   0  0  0  0  0  0  0  0  0  0  0  0
  -17.1098  -26.9133   21.0281 C   0  0  0  0  0  0  0  0  0  0  0  0
  -18.5668  -19.2624   21.6339 C   0  0  0  0  0  0  0  0  0  0  0  0
  -24.0487  -10.8787   20.5237 C   0  0  0  0  0  0  0  0  0  0  0  0
  -26.3248  -11.5879   20.1318 C   0  0  0  0  0  0  0  0  0  0  0  0
  -30.6286  -24.8185   19.5375 C   0  0  0  0  0  0  0  0  0  0  0  0
  -29.8316  -24.3336   21.7661 C   0  0  0  0  0  0  0  0  0  0  0  0
  -18.9799  -17.9506   21.8676 C   0  0  0  0  0  0  0  0  0  0  0  0
  -31.9939  -28.1479   20.0617 C   0  0  0  0  0  0  0  0  0  0  0  0
  -31.8084  -29.3012   19.2995 C   0  0  0  0  0  0  0  0  0  0  0  0
  -21.2018  -18.7357   22.4107 C   0  0  0  0  0  0  0  0  0  0  0  0
  -24.7331  -13.1207   21.1085 C   0  0  0  0  0  0  0  0  0  0  0  0
  -29.4164  -29.0950   19.5696 C   0  0  0  0  0  0  0  0  0  0  0  0
  -29.3699  -22.7996   19.9576 C   0  0  0  0  0  0  0  0  0  0  0  0
  -27.7861  -21.4423   18.4890 C   0  0  0  0  0  0  0  0  0  0  0  0
  -18.1679  -28.2959   22.7182 C   0  0  0  0  0  0  0  0  0  0  0  0
  -19.4665  -20.3185   21.8029 C   0  0  0  0  0  0  0  0  0  0  0  0
  -18.2485  -27.2492   21.7800 C   0  0  0  0  0  0  0  0  0  0  0  0
  -20.7902  -20.0529   22.1902 C   0  0  0  0  0  0  0  0  0  0  0  0
  -23.7463  -12.1370   21.0442 C   0  0  0  0  0  0  0  0  0  0  0  0
  -26.0224  -12.8462   20.6523 C   0  0  0  0  0  0  0  0  0  0  0  0
  -30.5169  -25.1682   20.8832 C   0  0  0  0  0  0  0  0  0  0  0  0
  -20.2942  -17.6879   22.2548 C   0  0  0  0  0  0  0  0  0  0  0  0
  -30.8906  -27.4681   20.5779 C   0  0  0  0  0  0  0  0  0  0  0  0
  -30.5196  -29.7748   19.0534 C   0  0  0  0  0  0  0  0  0  0  0  0
  -29.6019  -27.9416   20.3319 C   0  0  0  0  0  0  0  0  0  0  0  0
  -28.7768  -21.5764   19.4801 C   0  0  0  0  0  0  0  0  0  0  0  0
  -27.5668  -20.0891   18.4035 C   0  0  0  0  0  0  0  0  0  0  0  0
  -21.6526  -11.3444   22.0434 C   0  0  0  0  0  0  0  0  0  0  0  0
  -21.9409  -13.7596   21.4115 C   0  0  0  0  0  0  0  0  0  0  0  0
  -27.1233  -22.4508   17.7148 C   0  0  0  0  0  0  0  0  0  0  0  0
  -20.0471  -24.0230   21.6800 C   0  0  0  0  0  0  0  0  0  0  0  0
  -21.5247  -22.9711   24.1540 C   0  0  0  0  0  0  0  0  0  0  0  0
  -22.6601  -21.4805   27.0046 C   0  0  0  0  0  0  0  0  0  0  0  0
  -26.7198  -15.2345   20.6236 C   0  0  0  0  0  0  0  0  0  0  0  0
  -19.3664  -28.7350   23.5218 C   0  0  0  0  0  0  0  0  0  0  0  0
  -19.0821  -21.7418   21.5028 C   0  0  0  0  0  0  0  0  0  0  0  0
  -21.7328  -21.2174   22.3260 C   0  0  0  0  0  0  0  0  0  0  0  0
  -20.2015  -11.6212   22.3783 C   0  0  0  0  0  0  0  0  0  0  0  0
  -20.4900  -27.7021   23.5535 C   0  0  0  0  0  0  0  0  0  0  0  0
  -19.6652  -12.9026   21.7842 C   0  0  0  0  0  0  0  0  0  0  0  0
  -30.1314  -16.1992   20.3518 C   0  0  0  0  0  0  0  0  0  0  0  0
  -20.7584  -27.1620   22.1524 C   0  0  0  0  0  0  0  0  0  0  0  0
  -30.0011  -17.6870   20.0277 C   0  0  0  0  0  0  0  0  0  0  0  0
  -29.0969  -15.7450   21.3822 C   0  0  0  0  0  0  0  0  0  0  0  0
  -27.5696  -17.5668   20.6946 C   0  0  0  0  0  0  0  0  0  0  0  0
  -19.5212  -26.4532   21.5881 C   0  0  1  0  0  0  0  0  0  0  0  0
  -20.6252  -14.0272   22.1285 C   0  0  2  0  0  0  0  0  0  0  0  0
  -19.7598  -22.7599   22.4373 C   0  0  1  0  0  0  0  0  0  0  0  0
  -28.5599  -18.0389   19.6186 C   0  0  1  0  0  0  0  0  0  0  0  0
  -28.5032  -13.3184   22.6334 C   0  0  0  0  0  0  0  0  0  0  0  0
  -23.9000  -21.9789   29.1286 C   0  0  0  0  0  0  0  0  0  0  0  0
  -24.1470  -23.0582   22.5983 C   0  0  0  0  0  0  0  0  0  0  0  0
  -25.3529  -22.5991   24.7439 C   0  0  0  0  0  0  0  0  0  0  0  0
  -24.0040  -24.6826   24.4945 C   0  0  0  0  0  0  0  0  0  0  0  0
  -20.3547  -20.6742   28.6763 C   0  0  0  0  0  0  0  0  0  0  0  0
  -20.0338  -15.3803   21.7402 C   0  0  0  0  0  0  0  0  0  1  0  0
  -28.3969  -13.4719   21.1297 C   0  0  0  0  0  0  0  0  0  0  0  0
  -22.8207  -22.4610   24.7315 C   0  0  1  0  0  0  0  0  0  0  0  0
  -22.5355  -21.8737   28.4656 C   0  0  2  0  0  0  0  0  0  0  0  0
  -24.0610  -23.1824   24.1327 C   0  0  0  0  0  0  0  0  0  0  0  0
  -29.1603  -20.4021   19.9880 N   0  0  0  0  0  0  0  0  0  0  0  0
  -28.4066  -19.5172   19.3134 N   0  0  0  0  0  0  0  0  0  0  0  0
  -22.4065  -12.4214   21.5185 N   0  0  0  0  0  0  0  0  0  0  0  0
  -21.0545  -22.3370   22.9976 N   0  0  0  0  0  0  0  0  0  0  0  0
  -27.7424  -16.1382   20.9688 N   0  0  0  0  0  0  0  0  0  0  0  0
  -26.7395  -19.3446   17.6396 N   0  0  0  0  0  0  0  0  0  0  0  0
  -25.9394  -23.0081   18.2169 N   0  0  0  0  0  0  0  0  0  0  0  0
  -19.3860  -25.1341   22.1678 N   0  0  0  0  0  0  0  0  0  0  0  0
  -22.6989  -22.5849   26.1800 N   0  0  0  0  0  0  0  0  0  0  0  0
  -27.0445  -13.8641   20.7187 N   0  0  0  0  0  0  0  0  0  0  0  0
  -21.7293  -20.8631   29.2071 N   0  3  0  0  0  0  0  0  0  0  0  0
  -22.1073  -10.2308   22.3250 O   0  0  0  0  0  0  0  0  0  0  0  0
  -22.5076  -14.6598   20.7885 O   0  0  0  0  0  0  0  0  0  0  0  0
  -27.5590  -22.8343   16.6027 O   0  0  0  0  0  0  0  0  0  0  0  0
  -20.8133  -23.9935   20.7242 O   0  0  0  0  0  0  0  0  0  0  0  0
  -20.9458  -23.9099   24.7078 O   0  0  0  0  0  0  0  0  0  0  0  0
  -22.7208  -20.3107   26.6325 O   0  0  0  0  0  0  0  0  0  0  0  0
  -25.5956  -15.6211   20.2821 O   0  0  0  0  0  0  0  0  0  0  0  0
  -31.0765  -26.3237   21.3352 O   0  0  0  0  0  0  0  0  0  0  0  0
  -20.6897  -16.4053   22.4856 O   0  0  0  0  0  0  0  0  0  1  0  0
  -30.3417  -30.8832   18.3227 F   0  0  0  0  0  0  0  0  0  0  0  0
  -28.5382  -27.2935   20.8261 F   0  0  0  0  0  0  0  0  0  0  0  0
  1  2  1  0  0  0  0
  1  6  2  0  0  0  0
  2  7  2  0  0  0  0
  3  9  1  0  0  0  0
  3 10  2  0  0  0  0
  4 11  2  0  0  0  0
  4 19  1  0  0  0  0
  5 12  1  0  0  0  0
  5 19  2  0  0  0  0
  6 21  1  0  0  0  0
  7 23  1  0  0  0  0
  8 13  2  0  0  0  0
  8 22  1  0  0  0  0
  9 25  2  0  0  0  0
 10 26  1  0  0  0  0
 11 27  1  0  0  0  0
 12 27  2  0  0  0  0
 13 28  1  0  0  0  0
 14 15  2  0  0  0  0
 14 29  1  0  0  0  0
 15 30  1  0  0  0  0
 16 24  1  0  0  0  0
 16 28  2  0  0  0  0
 17 25  1  0  0  0  0
 17 26  2  0  0  0  0
 18 30  2  0  0  0  0
 18 31  1  0  0  0  0
 19 32  1  0  0  0  0
 20 32  1  0  0  0  0
 20 33  2  0  0  0  0
 20 36  1  0  0  0  0
 21 23  2  0  0  0  0
 21 41  1  0  0  0  0
 22 24  2  0  0  0  0
 22 42  1  0  0  0  0
 23 52  1  0  0  0  0
 24 43  1  0  0  0  0
 25 69  1  0  0  0  0
 26 76  1  0  0  0  0
 27 85  1  0  0  0  0
 28 86  1  0  0  0  0
 29 31  2  0  0  0  0
 29 85  1  0  0  0  0
 30 87  1  0  0  0  0
 31 88  1  0  0  0  0
 32 67  2  0  0  0  0
 33 68  1  0  0  0  0
 33 72  1  0  0  0  0
 34 44  1  0  0  0  0
 34 69  1  0  0  0  0
 34 78  2  0  0  0  0
 35 53  1  0  0  0  0
 35 69  1  0  0  0  0
 35 79  2  0  0  0  0
 36 73  1  0  0  0  0
 36 80  2  0  0  0  0
 37 54  1  0  0  0  0
 37 74  1  0  0  0  0
 37 81  2  0  0  0  0
 38 64  1  0  0  0  0
 38 70  1  0  0  0  0
 38 82  2  0  0  0  0
 39 65  1  0  0  0  0
 39 75  1  0  0  0  0
 39 83  2  0  0  0  0
 40 71  1  0  0  0  0
 40 76  1  0  0  0  0
 40 84  2  0  0  0  0
 41 45  1  0  0  0  0
 42 54  1  0  0  0  0
 43 70  1  0  0  0  0
 44 46  1  0  0  0  0
 45 48  1  0  0  0  0
 46 53  1  0  0  0  0
 47 49  1  0  0  0  0
 47 50  1  0  0  0  0
 48 52  1  0  0  0  0
 49 55  1  0  0  0  0
 50 71  1  0  0  0  0
 51 55  1  0  0  0  0
 51 71  1  0  0  0  0
 52 74  1  0  0  0  0
 53 62  1  0  0  0  0
 54 70  1  0  0  0  0
 55 68  1  0  0  0  0
 56 63  1  0  0  0  0
 57 65  1  0  0  0  0
 58 66  1  0  0  0  0
 59 66  1  0  0  0  0
 60 66  1  0  0  0  0
 61 77  1  0  0  0  0
 62 86  1  0  0  0  0
 63 76  1  0  0  0  0
 64 66  1  0  0  0  0
 64 75  1  0  0  0  0
 65 77  1  0  0  0  0
 67 68  1  0  0  0  0
M  CHG  1  77   1
M  ISO  4  40 100  62 101  76 100  86 101
M  END
> <Batch ID>
0105

> <Smiles>
CC[100N:0](c1cccc(N2C(=O)CCC([101CH2:1][101O:1]c3ccc4c(c3)CN(C(=O)C(NC(=O)C(C)NC)C(C)(C)C)C(C(=O)NC3CCCc5ccccc53)C4)C2=O)c1)[100C:0](=O)N1CCCC(n2nc(-c3ccc(Oc4ccc(F)cc4F)cc3)c(C(N)=O)c2N)C1

> <Shape>
0.233

> <Color>
0.082

> <Negative vol penalty>
0.000

$$$$

  -OEChem-04052301113D

 82 90  0     1  0  0  0  0  0999 V2000
  -17.0177  -29.8674   24.4783 C   0  0  0  0  0  0  0  0  0  0  0  0
  -17.5977  -28.6044   24.4161 C   0  0  0  0  0  0  0  0  0  0  0  0
  -22.6524  -11.3521   19.0689 C   0  0  0  0  0  0  0  0  0  0  0  0
  -23.1235   -9.7630   20.8267 C   0  0  0  0  0  0  0  0  0  0  0  0
  -17.3753  -30.8439   23.5497 C   0  0  0  0  0  0  0  0  0  0  0  0
  -18.5349  -28.3169   23.4244 C   0  0  0  0  0  0  0  0  0  0  0  0
  -23.4244  -24.6638   23.9277 C   0  0  0  0  0  0  0  0  0  0  0  0
  -21.6282  -10.5297   18.5998 C   0  0  0  0  0  0  0  0  0  0  0  0
  -22.0992   -8.9405   20.3576 C   0  0  0  0  0  0  0  0  0  0  0  0
  -23.6473  -23.3385   23.5565 C   0  0  0  0  0  0  0  0  0  0  0  0
  -19.3715   -6.5929   19.8411 C   0  0  0  0  0  0  0  0  0  0  0  0
  -18.4981   -6.0441   20.7800 C   0  0  0  0  0  0  0  0  0  0  0  0
  -27.9200  -18.4328   20.7341 C   0  0  0  0  0  0  0  0  0  0  0  0
  -24.6485  -24.0907   21.4947 C   0  0  0  0  0  0  0  0  0  0  0  0
  -17.8513   -8.2653   21.4766 C   0  0  0  0  0  0  0  0  0  0  0  0
  -23.4002  -10.9688   20.1823 C   0  0  0  0  0  0  0  0  0  0  0  0
  -29.3289  -18.5046   20.6200 C   0  0  0  0  0  0  0  0  0  0  0  0
  -24.3540  -12.8448   21.6240 C   0  0  0  0  0  0  0  0  0  0  0  0
  -18.3245  -30.5713   22.5521 C   0  0  0  0  0  0  0  0  0  0  0  0
  -23.8026  -25.7139   23.0789 C   0  0  0  0  0  0  0  0  0  0  0  0
  -18.9046  -29.2904   22.4808 C   0  0  0  0  0  0  0  0  0  0  0  0
  -24.4316  -25.4285   21.8586 C   0  0  0  0  0  0  0  0  0  0  0  0
  -21.3515   -9.3239   19.2442 C   0  0  0  0  0  0  0  0  0  0  0  0
  -24.2568  -23.0518   22.3386 C   0  0  0  0  0  0  0  0  0  0  0  0
  -19.4849   -7.9779   19.7200 C   0  0  0  0  0  0  0  0  0  0  0  0
  -17.7380   -6.8803   21.5977 C   0  0  0  0  0  0  0  0  0  0  0  0
  -18.7248   -8.8141   20.5377 C   0  0  0  0  0  0  0  0  0  0  0  0
  -24.4588  -11.8176   20.6670 C   0  0  0  0  0  0  0  0  0  0  0  0
  -27.5043  -19.6838   21.1269 C   0  0  0  0  0  0  0  0  0  0  0  0
  -25.6292  -13.3431   21.7338 C   0  0  0  0  0  0  0  0  0  0  0  0
  -29.6737  -19.7944   20.9510 C   0  0  0  0  0  0  0  0  0  0  0  0
  -26.1232  -20.1259   21.3834 C   0  0  0  0  0  0  0  0  0  0  0  0
  -25.7632  -21.3631   21.7470 C   0  0  0  0  0  0  0  0  0  1  0  0
  -30.2740  -17.4283   20.2263 C   0  0  0  0  0  0  0  0  0  0  0  0
  -23.2066  -13.3071   22.3488 C   0  0  0  0  0  0  0  0  0  0  0  0
  -22.2554  -28.0365   21.5572 C   0  0  0  0  0  0  0  0  0  0  0  0
  -25.2563  -29.0116   20.8051 C   0  0  0  0  0  0  0  0  0  0  0  0
  -28.5430  -28.2007   20.3723 C   0  0  0  0  0  0  0  0  0  0  0  0
  -30.3984  -15.0656   19.5009 C   0  0  0  0  0  0  0  0  0  0  0  0
  -18.6441  -31.6443   21.5415 C   0  0  0  0  0  0  0  0  0  0  0  0
  -23.5794  -27.1388   23.5058 C   0  0  0  0  0  0  0  0  0  0  0  0
  -24.8749  -26.5203   20.9205 C   0  0  0  0  0  0  0  0  0  0  0  0
  -19.9225  -31.3758   20.7517 C   0  0  0  0  0  0  0  0  0  0  0  0
  -30.0248  -11.5779   19.9402 C   0  0  0  0  0  0  0  0  0  0  0  0
  -19.9526  -29.9324   20.2592 C   0  0  0  0  0  0  0  0  0  0  0  0
  -28.5358  -11.4112   20.2556 C   0  0  0  0  0  0  0  0  0  0  0  0
  -30.2649  -12.6656   18.8943 C   0  0  0  0  0  0  0  0  0  0  0  0
  -28.1658  -13.7957   19.5064 C   0  0  0  0  0  0  0  0  0  0  0  0
  -19.9434  -28.9480   21.4350 C   0  0  1  0  0  0  0  0  0  0  0  0
  -23.5394  -28.1145   22.3337 C   0  0  1  0  0  0  0  0  0  0  0  0
  -27.8771  -12.7606   20.6057 C   0  0  1  0  0  0  0  0  0  0  0  0
  -30.7495  -29.2019   19.7194 C   0  0  0  0  0  0  0  0  0  0  0  0
  -24.3896  -29.0077   17.8796 C   0  0  0  0  0  0  0  0  0  0  0  0
  -26.8080  -29.0742   17.2354 C   0  0  0  0  0  0  0  0  0  0  0  0
  -25.8153  -30.9525   18.5427 C   0  0  0  0  0  0  0  0  0  0  0  0
  -31.0484  -21.8294   21.3924 C   0  0  0  0  0  0  0  0  0  0  0  0
  -29.7465  -27.5496   22.9966 C   0  0  0  0  0  0  0  0  0  0  0  0
  -26.2209  -28.7304   19.6783 C   0  0  1  0  0  0  0  0  0  0  0  0
  -29.8169  -28.8589   20.8706 C   0  0  2  0  0  0  0  0  0  0  0  0
  -25.7985  -29.4204   18.3506 C   0  0  0  0  0  0  0  0  0  0  0  0
  -25.7022  -11.6710   20.2019 N   0  0  0  0  0  0  0  0  0  0  0  0
  -26.3905  -12.6127   20.8694 N   0  0  0  0  0  0  0  0  0  0  0  0
  -24.6290  -27.8972   21.3800 N   0  0  0  0  0  0  0  0  0  0  0  0
  -29.6178  -13.9130   19.3047 N   0  0  0  0  0  0  0  0  0  0  0  0
  -26.1623  -14.3303   22.4845 N   0  0  0  0  0  0  0  0  0  0  0  0
  -21.9731  -12.6842   22.1152 N   0  0  0  0  0  0  0  0  0  0  0  0
  -30.8647  -20.4267   21.0161 N   0  0  0  0  0  0  0  0  0  0  0  0
  -29.6931  -16.1941   19.9334 N   0  0  0  0  0  0  0  0  0  0  0  0
  -21.2579  -28.8650   22.0348 N   0  0  0  0  0  0  0  0  0  0  0  0
  -27.5399  -29.1232   20.1625 N   0  0  0  0  0  0  0  0  0  0  0  0
  -30.5385  -27.9495   21.8050 N   0  3  0  0  0  0  0  0  0  0  0  0
  -31.4720  -17.6850   20.1436 O   0  0  0  0  0  0  0  0  0  0  0  0
  -23.2700  -14.2558   23.1671 O   0  0  0  0  0  0  0  0  0  0  0  0
  -22.1760  -27.2817   20.5951 O   0  0  0  0  0  0  0  0  0  0  0  0
  -25.0719  -30.1764   21.1668 O   0  0  0  0  0  0  0  0  0  0  0  0
  -28.4484  -26.9898   20.1842 O   0  0  0  0  0  0  0  0  0  0  0  0
  -31.6231  -15.0793   19.3417 O   0  0  0  0  0  0  0  0  0  0  0  0
  -28.5673  -20.5197   21.2612 O   0  0  0  0  0  0  0  0  0  0  0  0
  -20.3519   -8.5213   18.7869 O   0  0  0  0  0  0  0  0  0  0  0  0
  -24.4750  -21.7591   21.9736 O   0  0  0  0  0  0  0  0  0  1  0  0
  -16.8981   -6.3531   22.4982 F   0  0  0  0  0  0  0  0  0  0  0  0
  -18.8285  -10.1454   20.4252 F   0  0  0  0  0  0  0  0  0  0  0  0
  1  2  1  0  0  0  0
  1  5  2  0  0  0  0
  2  6  2  0  0  0  0
  3  8  2  0  0  0  0
  3 16  1  0  0  0  0
  4  9  1  0  0  0  0
  4 16  2  0  0  0  0
  5 19  1  0  0  0  0
  6 21  1  0  0  0  0
  7 10  2  0  0  0  0
  7 20  1  0  0  0  0
  8 23  1  0  0  0  0
  9 23  2  0  0  0  0
 10 24  1  0  0  0  0
 11 12  2  0  0  0  0
 11 25  1  0  0  0  0
 12 26  1  0  0  0  0
 13 17  1  0  0  0  0
 13 29  2  0  0  0  0
 14 22  1  0  0  0  0
 14 24  2  0  0  0  0
 15 26  2  0  0  0  0
 15 27  1  0  0  0  0
 16 28  1  0  0  0  0
 17 31  2  0  0  0  0
 17 34  1  0  0  0  0
 18 28  1  0  0  0  0
 18 30  2  0  0  0  0
 18 35  1  0  0  0  0
 19 21  2  0  0  0  0
 19 40  1  0  0  0  0
 20 22  2  0  0  0  0
 20 41  1  0  0  0  0
 21 49  1  0  0  0  0
 22 42  1  0  0  0  0
 23 79  1  0  0  0  0
 24 80  1  0  0  0  0
 25 27  2  0  0  0  0
 25 79  1  0  0  0  0
 26 81  1  0  0  0  0
 27 82  1  0  0  0  0
 28 61  2  0  0  0  0
 29 32  1  0  0  0  0
 29 78  1  0  0  0  0
 30 62  1  0  0  0  0
 30 65  1  0  0  0  0
 31 67  1  0  0  0  0
 31 78  1  0  0  0  0
 32 33  2  0  0  0  0
 33 80  1  0  0  0  0
 34 68  1  0  0  0  0
 34 72  2  0  0  0  0
 35 66  1  0  0  0  0
 35 73  2  0  0  0  0
 36 50  1  0  0  0  0
 36 69  1  0  0  0  0
 36 74  2  0  0  0  0
 37 58  1  0  0  0  0
 37 63  1  0  0  0  0
 37 75  2  0  0  0  0
 38 59  1  0  0  0  0
 38 70  1  0  0  0  0
 38 76  2  0  0  0  0
 39 64  1  0  0  0  0
 39 68  1  0  0  0  0
 39 77  2  0  0  0  0
 40 43  1  0  0  0  0
 41 50  1  0  0  0  0
 42 63  1  0  0  0  0
 43 45  1  0  0  0  0
 44 46  1  0  0  0  0
 44 47  1  0  0  0  0
 45 49  1  0  0  0  0
 46 51  1  0  0  0  0
 47 64  1  0  0  0  0
 48 51  1  0  0  0  0
 48 64  1  0  0  0  0
 49 69  1  0  0  0  0
 50 63  1  0  0  0  0
 51 62  1  0  0  0  0
 52 59  1  0  0  0  0
 53 60  1  0  0  0  0
 54 60  1  0  0  0  0
 55 60  1  0  0  0  0
 56 67  1  0  0  0  0
 57 71  1  0  0  0  0
 58 60  1  0  0  0  0
 58 70  1  0  0  0  0
 59 71  1  0  0  0  0
 61 62  1  0  0  0  0
M  CHG  1  71   1
M  ISO  4  33 101  39 100  68 100  80 101
M  END
> <Batch ID>
0105

> <Smiles>
CNc1oc(C=[101CH:1][101O:1]c2ccc3c(c2)CN(C(=O)C(NC(=O)C(C)NC)C(C)(C)C)C(C(=O)NC2CCCc4ccccc42)C3)cc1C(=O)[100NH:0][100C:0](=O)N1CCCC(n2nc(-c3ccc(Oc4ccc(F)cc4F)cc3)c(C(N)=O)c2N)C1

> <Shape>
0.239

> <Color>
0.141

> <Negative vol penalty>
0.000

$$$$

  -OEChem-04052301113D

 84 92  0     1  0  0  0  0  0999 V2000
  -22.2693  -10.8258   19.6677 C   0  0  0  0  0  0  0  0  0  0  0  0
  -21.7843  -12.1235   19.5410 C   0  0  0  0  0  0  0  0  0  0  0  0
  -29.4899  -28.8857   19.9250 C   0  0  0  0  0  0  0  0  0  0  0  0
  -27.8814  -27.2915   19.0834 C   0  0  0  0  0  0  0  0  0  0  0  0
  -23.5309  -10.6050   20.2186 C   0  0  0  0  0  0  0  0  0  0  0  0
  -22.5602  -13.2013   19.9663 C   0  0  0  0  0  0  0  0  0  0  0  0
  -22.8283  -18.7708   17.4336 C   0  0  0  0  0  0  0  0  0  0  0  0
  -30.4712  -27.8945   19.9272 C   0  0  0  0  0  0  0  0  0  0  0  0
  -28.8627  -26.3002   19.0856 C   0  0  0  0  0  0  0  0  0  0  0  0
  -22.2097  -19.9782   17.7552 C   0  0  0  0  0  0  0  0  0  0  0  0
  -33.4903  -25.8729   19.8128 C   0  0  0  0  0  0  0  0  0  0  0  0
  -34.7455  -26.2018   19.3010 C   0  0  0  0  0  0  0  0  0  0  0  0
  -24.1697  -20.6458   18.9928 C   0  0  0  0  0  0  0  0  0  0  0  0
  -19.6663  -28.2833   23.6989 C   0  0  0  0  0  0  0  0  0  0  0  0
  -18.4420  -26.3580   22.9045 C   0  0  0  0  0  0  0  0  0  0  0  0
  -33.7411  -26.7058   17.1622 C   0  0  0  0  0  0  0  0  0  0  0  0
  -28.1949  -28.5842   19.5031 C   0  0  0  0  0  0  0  0  0  0  0  0
  -26.8610  -30.4856   18.4482 C   0  0  0  0  0  0  0  0  0  0  0  0
  -24.3267  -11.6812   20.6419 C   0  0  0  0  0  0  0  0  0  0  0  0
  -24.1202  -18.4868   17.8992 C   0  0  0  0  0  0  0  0  0  0  0  0
  -23.8331  -12.9946   20.5246 C   0  0  0  0  0  0  0  0  0  0  0  0
  -24.8035  -19.4352   18.6737 C   0  0  0  0  0  0  0  0  0  0  0  0
  -18.7025  -27.2959   23.9035 C   0  0  0  0  0  0  0  0  0  0  0  0
  -20.3696  -28.3327   22.4953 C   0  0  0  0  0  0  0  0  0  0  0  0
  -30.1576  -26.6017   19.5075 C   0  0  0  0  0  0  0  0  0  0  0  0
  -22.8793  -20.9147   18.5373 C   0  0  0  0  0  0  0  0  0  0  0  0
  -32.3606  -25.9604   18.9994 C   0  0  0  0  0  0  0  0  0  0  0  0
  -19.1453  -26.4073   21.7009 C   0  0  0  0  0  0  0  0  0  0  0  0
  -34.8709  -26.6183   17.9757 C   0  0  0  0  0  0  0  0  0  0  0  0
  -32.4860  -26.3769   17.6741 C   0  0  0  0  0  0  0  0  0  0  0  0
  -20.1091  -27.3947   21.4963 C   0  0  0  0  0  0  0  0  0  0  0  0
  -27.1806  -29.6076   19.5011 C   0  0  0  0  0  0  0  0  0  0  0  0
  -25.8372  -31.2563   18.9426 C   0  0  0  0  0  0  0  0  0  0  0  0
  -27.4378  -30.5948   17.1402 C   0  0  0  0  0  0  0  0  0  0  0  0
  -25.3862  -16.2654   19.7876 C   0  0  0  0  0  0  0  0  0  0  0  0
  -28.1791  -17.6501   18.8907 C   0  0  0  0  0  0  0  0  0  0  0  0
  -29.7960  -20.4193   17.7229 C   0  0  0  0  0  0  0  0  0  0  0  0
  -21.7208  -30.3465   23.1773 C   0  0  0  0  0  0  0  0  0  0  0  0
  -25.6644  -11.3900   21.2747 C   0  0  0  0  0  0  0  0  0  0  0  0
  -24.7839  -17.1910   17.5212 C   0  0  0  0  0  0  0  0  0  0  0  0
  -26.1996  -19.1872   19.1813 C   0  0  0  0  0  0  0  0  0  0  0  0
  -26.5782  -12.6101   21.3560 C   0  0  0  0  0  0  0  0  0  0  0  0
  -24.1044  -32.9887   23.0573 C   0  0  0  0  0  0  0  0  0  0  0  0
  -25.8113  -13.8171   21.8869 C   0  0  0  0  0  0  0  0  0  0  0  0
  -25.1315  -32.5041   22.0314 C   0  0  0  0  0  0  0  0  0  0  0  0
  -23.5676  -31.8396   23.9088 C   0  0  0  0  0  0  0  0  0  0  0  0
  -24.0637  -30.2154   22.1241 C   0  0  0  0  0  0  0  0  0  0  0  0
  -24.6553  -14.1912   20.9515 C   0  0  1  0  0  0  0  0  0  0  0  0
  -25.9027  -16.7914   18.4783 C   0  0  1  0  0  0  0  0  0  0  0  0
  -24.5849  -31.3275   21.1993 C   0  0  2  0  0  0  0  0  0  0  0  0
  -31.6917  -21.8162   16.8555 C   0  0  0  0  0  0  0  0  0  0  0  0
  -28.8408  -17.9434   21.8548 C   0  0  0  0  0  0  0  0  0  0  0  0
  -30.6159  -19.5924   21.2240 C   0  0  0  0  0  0  0  0  0  0  0  0
  -30.7640  -17.2350   20.4217 C   0  0  0  0  0  0  0  0  0  0  0  0
  -29.2514  -19.6278   14.9237 C   0  0  0  0  0  0  0  0  0  0  0  0
  -20.4079  -23.1527   19.9547 C   0  0  0  0  0  0  0  0  0  0  0  0
  -18.8920  -23.1689   20.1178 C   0  0  0  0  0  0  0  0  0  0  0  0
  -20.8547  -22.0881   18.9615 C   0  0  0  0  0  0  0  0  0  1  0  0
  -18.4478  -24.2035   21.1421 C   0  0  0  0  0  0  0  0  0  0  0  0
  -29.0309  -18.7788   19.4193 C   0  0  1  0  0  0  0  0  0  0  0  0
  -30.8157  -20.5970   16.6125 C   0  0  2  0  0  0  0  0  0  0  0  0
  -29.7858  -18.3916   20.7222 C   0  0  0  0  0  0  0  0  0  0  0  0
  -26.4215  -29.8017   20.5828 N   0  0  0  0  0  0  0  0  0  0  0  0
  -25.6147  -30.8106   20.2123 N   0  0  0  0  0  0  0  0  0  0  0  0
  -26.8036  -17.9028   18.7902 N   0  0  0  0  0  0  0  0  0  0  0  0
  -23.0630  -30.7636   23.0530 N   0  0  0  0  0  0  0  0  0  0  0  0
  -17.9907  -27.2458   25.1201 N   0  0  0  0  0  0  0  0  0  0  0  0
  -25.1146  -32.2650   18.4108 N   0  0  0  0  0  0  0  0  0  0  0  0
  -28.4814  -29.7250   16.7954 N   0  0  0  0  0  0  0  0  0  0  0  0
  -21.3454  -29.3392   22.2890 N   0  0  0  0  0  0  0  0  0  0  0  0
  -25.1522  -14.9035   19.7938 N   0  0  0  0  0  0  0  0  0  0  0  0
  -29.9025  -19.1814   18.3208 N   0  0  0  0  0  0  0  0  0  0  0  0
  -30.1290  -20.7656   15.3007 N   0  3  0  0  0  0  0  0  0  0  0  0
  -27.0508  -31.4496   16.3077 O   0  0  0  0  0  0  0  0  0  0  0  0
  -25.2141  -17.0376   20.7234 O   0  0  0  0  0  0  0  0  0  0  0  0
  -28.7153  -16.5860   18.5717 O   0  0  0  0  0  0  0  0  0  0  0  0
  -28.9884  -21.2928   18.0317 O   0  0  0  0  0  0  0  0  0  0  0  0
  -20.9529  -30.8650   23.9919 O   0  0  0  0  0  0  0  0  0  0  0  0
  -31.1150  -25.6343   19.5093 O   0  0  0  0  0  0  0  0  0  0  0  0
  -22.2776  -22.0937   18.8531 O   0  0  0  0  0  0  0  0  0  1  0  0
  -18.8857  -25.4872   20.7186 O   0  0  0  0  0  0  0  0  0  0  0  0
  -36.0760  -26.9356   17.4847 F   0  0  0  0  0  0  0  0  0  0  0  0
  -31.4041  -26.4641   16.8881 F   0  0  0  0  0  0  0  0  0  0  0  0
  -20.7809  -27.4393   20.3362 F   0  0  0  0  0  0  0  0  0  0  0  0
  1  2  1  0  0  0  0
  1  5  2  0  0  0  0
  2  6  2  0  0  0  0
  3  8  2  0  0  0  0
  3 17  1  0  0  0  0
  4  9  1  0  0  0  0
  4 17  2  0  0  0  0
  5 19  1  0  0  0  0
  6 21  1  0  0  0  0
  7 10  2  0  0  0  0
  7 20  1  0  0  0  0
  8 25  1  0  0  0  0
  9 25  2  0  0  0  0
 10 26  1  0  0  0  0
 11 12  2  0  0  0  0
 11 27  1  0  0  0  0
 12 29  1  0  0  0  0
 13 22  1  0  0  0  0
 13 26  2  0  0  0  0
 14 23  1  0  0  0  0
 14 24  2  0  0  0  0
 15 23  2  0  0  0  0
 15 28  1  0  0  0  0
 16 29  2  0  0  0  0
 16 30  1  0  0  0  0
 17 32  1  0  0  0  0
 18 32  1  0  0  0  0
 18 33  2  0  0  0  0
 18 34  1  0  0  0  0
 19 21  2  0  0  0  0
 19 39  1  0  0  0  0
 20 22  2  0  0  0  0
 20 40  1  0  0  0  0
 21 48  1  0  0  0  0
 22 41  1  0  0  0  0
 23 67  1  0  0  0  0
 24 31  1  0  0  0  0
 24 70  1  0  0  0  0
 25 79  1  0  0  0  0
 26 80  1  0  0  0  0
 27 30  2  0  0  0  0
 27 79  1  0  0  0  0
 28 31  2  0  0  0  0
 28 81  1  0  0  0  0
 29 82  1  0  0  0  0
 30 83  1  0  0  0  0
 31 84  1  0  0  0  0
 32 63  2  0  0  0  0
 33 64  1  0  0  0  0
 33 68  1  0  0  0  0
 34 69  1  0  0  0  0
 34 74  2  0  0  0  0
 35 49  1  0  0  0  0
 35 71  1  0  0  0  0
 35 75  2  0  0  0  0
 36 60  1  0  0  0  0
 36 65  1  0  0  0  0
 36 76  2  0  0  0  0
 37 61  1  0  0  0  0
 37 72  1  0  0  0  0
 37 77  2  0  0  0  0
 38 66  1  0  0  0  0
 38 70  1  0  0  0  0
 38 78  2  0  0  0  0
 39 42  1  0  0  0  0
 40 49  1  0  0  0  0
 41 65  1  0  0  0  0
 42 44  1  0  0  0  0
 43 45  1  0  0  0  0
 43 46  1  0  0  0  0
 44 48  1  0  0  0  0
 45 50  1  0  0  0  0
 46 66  1  0  0  0  0
 47 50  1  0  0  0  0
 47 66  1  0  0  0  0
 48 71  1  0  0  0  0
 49 65  1  0  0  0  0
 50 64  1  0  0  0  0
 51 61  1  0  0  0  0
 52 62  1  0  0  0  0
 53 62  1  0  0  0  0
 54 62  1  0  0  0  0
 55 73  1  0  0  0  0
 56 57  1  0  0  0  0
 56 58  1  0  0  0  0
 57 59  1  0  0  0  0
 58 80  1  0  0  0  0
 59 81  1  0  0  0  0
 60 62  1  0  0  0  0
 60 72  1  0  0  0  0
 61 73  1  0  0  0  0
 63 64  1  0  0  0  0
M  CHG  1  73   1
M  ISO  4  38 100  58 101  70 100  80 101
M  END
> <Batch ID>
0105

> <Smiles>
CNC(C)C(=O)NC(C(=O)N1Cc2cc([101O:1][101CH2:1]CCCOc3cc(N)cc([100NH:0][100C:0](=O)N4CCCC(n5nc(-c6ccc(Oc7ccc(F)cc7F)cc6)c(C(N)=O)c5N)C4)c3F)ccc2CC1C(=O)NC1CCCc2ccccc21)C(C)(C)C

> <Shape>
0.229

> <Color>
0.079

> <Negative vol penalty>
0.000

$$$$

  -OEChem-04052301113D

 84 92  0     1  0  0  0  0  0999 V2000
  -29.7791  -24.2229   17.4412 C   0  0  0  0  0  0  0  0  0  0  0  0
  -28.5258  -24.7701   17.6917 C   0  0  0  0  0  0  0  0  0  0  0  0
  -24.6599  -12.2538   20.7529 C   0  0  0  0  0  0  0  0  0  0  0  0
  -23.4015  -13.7805   22.1395 C   0  0  0  0  0  0  0  0  0  0  0  0
  -30.8420  -24.5042   18.2970 C   0  0  0  0  0  0  0  0  0  0  0  0
  -28.3378  -25.6083   18.7912 C   0  0  0  0  0  0  0  0  0  0  0  0
  -23.9704  -27.8396   19.1796 C   0  0  0  0  0  0  0  0  0  0  0  0
  -24.3978  -11.2206   21.6525 C   0  0  0  0  0  0  0  0  0  0  0  0
  -23.1392  -12.7472   23.0391 C   0  0  0  0  0  0  0  0  0  0  0  0
  -22.8041  -27.1584   19.5253 C   0  0  0  0  0  0  0  0  0  0  0  0
  -23.7564   -8.0980   23.3998 C   0  0  0  0  0  0  0  0  0  0  0  0
  -23.3638   -6.8662   22.8762 C   0  0  0  0  0  0  0  0  0  0  0  0
  -25.2142  -22.5886   20.6647 C   0  0  0  0  0  0  0  0  0  0  0  0
  -22.9418  -28.0668   21.7557 C   0  0  0  0  0  0  0  0  0  0  0  0
  -22.4734  -22.1588   20.3717 C   0  0  0  0  0  0  0  0  0  0  0  0
  -21.4376   -7.9123   21.8599 C   0  0  0  0  0  0  0  0  0  0  0  0
  -24.1618  -13.5338   20.9964 C   0  0  0  0  0  0  0  0  0  0  0  0
  -24.7390  -21.8130   19.6072 C   0  0  0  0  0  0  0  0  0  0  0  0
  -23.6584  -14.9760   18.9533 C   0  0  0  0  0  0  0  0  0  0  0  0
  -30.6630  -25.3363   19.4144 C   0  0  0  0  0  0  0  0  0  0  0  0
  -24.6383  -28.6322   20.1242 C   0  0  0  0  0  0  0  0  0  0  0  0
  -29.4038  -25.9235   19.6532 C   0  0  0  0  0  0  0  0  0  0  0  0
  -24.1149  -28.7591   21.4188 C   0  0  0  0  0  0  0  0  0  0  0  0
  -23.3686  -21.5981   19.4607 C   0  0  0  0  0  0  0  0  0  0  0  0
  -24.3190  -23.1492   21.5757 C   0  0  0  0  0  0  0  0  0  0  0  0
  -23.6374  -11.4673   22.7956 C   0  0  0  0  0  0  0  0  0  0  0  0
  -22.2912  -27.2696   20.8143 C   0  0  0  0  0  0  0  0  0  0  0  0
  -22.9896   -9.2369   23.1536 C   0  0  0  0  0  0  0  0  0  0  0  0
  -22.9486  -22.9343   21.4292 C   0  0  0  0  0  0  0  0  0  0  0  0
  -22.2044   -6.7734   22.1062 C   0  0  0  0  0  0  0  0  0  0  0  0
  -21.8302   -9.1440   22.3836 C   0  0  0  0  0  0  0  0  0  0  0  0
  -24.4328  -14.6017   20.0678 C   0  0  0  0  0  0  0  0  0  0  0  0
  -24.3374  -16.0360   18.4039 C   0  0  0  0  0  0  0  0  0  0  0  0
  -25.6957  -21.2359   18.6726 C   0  0  0  0  0  0  0  0  0  0  0  0
  -22.4348  -14.4156   18.4589 C   0  0  0  0  0  0  0  0  0  0  0  0
  -27.0651  -20.8697   19.1013 C   0  0  0  0  0  0  0  0  0  0  0  0
  -27.5197  -28.5748   21.4651 C   0  0  0  0  0  0  0  0  0  0  0  0
  -26.5500  -31.3916   22.7488 C   0  0  0  0  0  0  0  0  0  0  0  0
  -23.9628  -33.4091   23.6885 C   0  0  0  0  0  0  0  0  0  0  0  0
  -31.8496  -25.6137   20.3033 C   0  0  0  0  0  0  0  0  0  0  0  0
  -25.8806  -29.3819   19.7278 C   0  0  0  0  0  0  0  0  0  0  0  0
  -24.7829  -29.6135   22.4640 C   0  0  0  0  0  0  0  0  0  0  0  0
  -31.4523  -26.1453   21.6766 C   0  0  0  0  0  0  0  0  0  0  0  0
  -28.9628  -17.8363   19.3342 C   0  0  0  0  0  0  0  0  0  0  0  0
  -30.4654  -27.2930   21.5241 C   0  0  0  0  0  0  0  0  0  0  0  0
  -27.8897  -16.7599   19.4936 C   0  0  0  0  0  0  0  0  0  0  0  0
  -28.5555  -19.1365   20.0198 C   0  0  0  0  0  0  0  0  0  0  0  0
  -26.1543  -18.5930   19.7245 C   0  0  0  0  0  0  0  0  0  0  0  0
  -29.1683  -26.8133   20.8603 C   0  0  1  0  0  0  0  0  0  0  0  0
  -26.7611  -29.7507   20.9178 C   0  0  1  0  0  0  0  0  0  0  0  0
  -26.5179  -17.2736   19.0214 C   0  0  2  0  0  0  0  0  0  0  0  0
  -22.8335  -20.7702   18.3382 C   0  0  0  0  0  0  0  0  0  0  0  0
  -23.4833  -35.6352   24.7431 C   0  0  0  0  0  0  0  0  0  0  0  0
  -27.2608  -30.2454   25.4858 C   0  0  0  0  0  0  0  0  0  0  0  0
  -25.9079  -32.0769   26.5267 C   0  0  0  0  0  0  0  0  0  0  0  0
  -27.9144  -32.6365   25.1544 C   0  0  0  0  0  0  0  0  0  0  0  0
  -22.5478  -34.3774   21.2762 C   0  0  0  0  0  0  0  0  0  0  0  0
  -20.1653  -24.9452   22.6000 C   0  0  0  0  0  0  0  0  0  0  0  0
  -21.0204  -26.1997   22.5162 C   0  0  0  0  0  0  0  0  0  1  0  0
  -20.7637  -23.7946   21.8060 C   0  0  0  0  0  0  0  0  0  0  0  0
  -25.8228  -31.7988   24.0075 C   0  0  1  0  0  0  0  0  0  0  0  0
  -23.6917  -34.8817   23.4386 C   0  0  2  0  0  0  0  0  0  0  0  0
  -26.7147  -31.6717   25.2747 C   0  0  0  0  0  0  0  0  0  0  0  0
  -25.5205  -15.3620   20.2187 N   0  0  0  0  0  0  0  0  0  0  0  0
  -25.4189  -21.0039   17.4191 N   0  0  0  0  0  0  0  0  0  0  0  0
  -25.4346  -16.2246   19.1918 N   0  0  0  0  0  0  0  0  0  0  0  0
  -27.2343  -19.5766   19.5761 N   0  0  0  0  0  0  0  0  0  0  0  0
  -25.9983  -30.3218   22.0298 N   0  0  0  0  0  0  0  0  0  0  0  0
  -24.8135  -23.9326   22.6415 N   0  0  0  0  0  0  0  0  0  0  0  0
  -24.0970  -16.8158   17.3284 N   0  0  0  0  0  0  0  0  0  0  0  0
  -21.8728  -13.3294   19.1434 N   0  0  0  0  0  0  0  0  0  0  0  0
  -28.3473  -27.9613   20.5442 N   0  0  0  0  0  0  0  0  0  0  0  0
  -25.3138  -33.1448   23.7676 N   0  0  0  0  0  0  0  0  0  0  0  0
  -22.4716  -35.0486   22.5994 N   0  3  0  0  0  0  0  0  0  0  0  0
  -21.8656  -14.8544   17.4307 O   0  0  0  0  0  0  0  0  0  0  0  0
  -27.9061  -21.7522   18.9907 O   0  0  0  0  0  0  0  0  0  0  0  0
  -27.3667  -28.2493   22.6365 O   0  0  0  0  0  0  0  0  0  0  0  0
  -27.5659  -32.0049   22.4120 O   0  0  0  0  0  0  0  0  0  0  0  0
  -23.0658  -32.5772   23.8058 O   0  0  0  0  0  0  0  0  0  0  0  0
  -23.3812  -10.4592   23.6735 O   0  0  0  0  0  0  0  0  0  0  0  0
  -21.1533  -26.6053   21.1545 O   0  0  0  0  0  0  0  0  0  1  0  0
  -22.0530  -23.4778   22.3131 O   0  0  0  0  0  0  0  0  0  0  0  0
  -21.8283   -5.5907   21.6021 F   0  0  0  0  0  0  0  0  0  0  0  0
  -21.0901  -10.2349   22.1427 F   0  0  0  0  0  0  0  0  0  0  0  0
  1  2  1  0  0  0  0
  1  5  2  0  0  0  0
  2  6  2  0  0  0  0
  3  8  2  0  0  0  0
  3 17  1  0  0  0  0
  4  9  1  0  0  0  0
  4 17  2  0  0  0  0
  5 20  1  0  0  0  0
  6 22  1  0  0  0  0
  7 10  2  0  0  0  0
  7 21  1  0  0  0  0
  8 26  1  0  0  0  0
  9 26  2  0  0  0  0
 10 27  1  0  0  0  0
 11 12  2  0  0  0  0
 11 28  1  0  0  0  0
 12 30  1  0  0  0  0
 13 18  2  0  0  0  0
 13 25  1  0  0  0  0
 14 23  1  0  0  0  0
 14 27  2  0  0  0  0
 15 24  2  0  0  0  0
 15 29  1  0  0  0  0
 16 30  2  0  0  0  0
 16 31  1  0  0  0  0
 17 32  1  0  0  0  0
 18 24  1  0  0  0  0
 18 34  1  0  0  0  0
 19 32  1  0  0  0  0
 19 33  2  0  0  0  0
 19 35  1  0  0  0  0
 20 22  2  0  0  0  0
 20 40  1  0  0  0  0
 21 23  2  0  0  0  0
 21 41  1  0  0  0  0
 22 49  1  0  0  0  0
 23 42  1  0  0  0  0
 24 52  1  0  0  0  0
 25 29  2  0  0  0  0
 25 69  1  0  0  0  0
 26 80  1  0  0  0  0
 27 81  1  0  0  0  0
 28 31  2  0  0  0  0
 28 80  1  0  0  0  0
 29 82  1  0  0  0  0
 30 83  1  0  0  0  0
 31 84  1  0  0  0  0
 32 64  2  0  0  0  0
 33 66  1  0  0  0  0
 33 70  1  0  0  0  0
 34 36  1  0  0  0  0
 34 65  2  0  0  0  0
 35 71  1  0  0  0  0
 35 75  2  0  0  0  0
 36 67  1  0  0  0  0
 36 76  2  0  0  0  0
 37 50  1  0  0  0  0
 37 72  1  0  0  0  0
 37 77  2  0  0  0  0
 38 61  1  0  0  0  0
 38 68  1  0  0  0  0
 38 78  2  0  0  0  0
 39 62  1  0  0  0  0
 39 73  1  0  0  0  0
 39 79  2  0  0  0  0
 40 43  1  0  0  0  0
 41 50  1  0  0  0  0
 42 68  1  0  0  0  0
 43 45  1  0  0  0  0
 44 46  1  0  0  0  0
 44 47  1  0  0  0  0
 45 49  1  0  0  0  0
 46 51  1  0  0  0  0
 47 67  1  0  0  0  0
 48 51  1  0  0  0  0
 48 67  1  0  0  0  0
 49 72  1  0  0  0  0
 50 68  1  0  0  0  0
 51 66  1  0  0  0  0
 53 62  1  0  0  0  0
 54 63  1  0  0  0  0
 55 63  1  0  0  0  0
 56 63  1  0  0  0  0
 57 74  1  0  0  0  0
 58 59  1  0  0  0  0
 58 60  1  0  0  0  0
 59 81  1  0  0  0  0
 60 82  1  0  0  0  0
 61 63  1  0  0  0  0
 61 73  1  0  0  0  0
 62 74  1  0  0  0  0
 64 66  1  0  0  0  0
M  CHG  1  74   1
M  ISO  4  34 100  36 100  59 101  81 101
M  END
> <Batch ID>
0105

> <Smiles>
CNC(C)C(=O)NC(C(=O)N1Cc2cc([101O:1][101CH2:1]CCOc3cc(C)c([100C:0](=N)[100C:0](=O)N4CCCC(n5nc(-c6ccc(Oc7ccc(F)cc7F)cc6)c(C(N)=O)c5N)C4)cc3N)ccc2CC1C(=O)NC1CCCc2ccccc21)C(C)(C)C

> <Shape>
0.277

> <Color>
0.063

> <Negative vol penalty>
0.000

$$$$

  -OEChem-04052301113D

 85 94  0     1  0  0  0  0  0999 V2000
  -28.3580  -38.0249   23.0677 C   0  0  0  0  0  0  0  0  0  0  0  0
  -28.6682  -37.0332   22.1427 C   0  0  0  0  0  0  0  0  0  0  0  0
  -22.9385   -9.5188   19.9924 C   0  0  0  0  0  0  0  0  0  0  0  0
  -24.6385   -8.4572   21.3416 C   0  0  0  0  0  0  0  0  0  0  0  0
  -27.7536  -37.6842   24.2771 C   0  0  0  0  0  0  0  0  0  0  0  0
  -28.3750  -35.6999   22.4269 C   0  0  0  0  0  0  0  0  0  0  0  0
  -28.1125  -19.0323   20.4646 C   0  0  0  0  0  0  0  0  0  0  0  0
  -26.4240  -29.6043   19.2094 C   0  0  0  0  0  0  0  0  0  0  0  0
  -28.5279  -17.7253   20.2100 C   0  0  0  0  0  0  0  0  0  0  0  0
  -21.9561   -9.0625   20.8712 C   0  0  0  0  0  0  0  0  0  0  0  0
  -23.6561   -8.0009   22.2204 C   0  0  0  0  0  0  0  0  0  0  0  0
  -26.8059  -28.2668   19.1136 C   0  0  0  0  0  0  0  0  0  0  0  0
  -21.3758   -5.5072   22.3308 C   0  0  0  0  0  0  0  0  0  0  0  0
  -21.4507   -4.1802   22.7541 C   0  0  0  0  0  0  0  0  0  0  0  0
  -25.6889  -27.8047   21.2012 C   0  0  0  0  0  0  0  0  0  0  0  0
  -26.4234  -17.2698   19.1143 C   0  0  0  0  0  0  0  0  0  0  0  0
  -21.6375   -4.9220   25.0459 C   0  0  0  0  0  0  0  0  0  0  0  0
  -24.2797   -9.2161   20.2276 C   0  0  0  0  0  0  0  0  0  0  0  0
  -25.4076   -9.3976   17.9467 C   0  0  0  0  0  0  0  0  0  0  0  0
  -27.4442  -36.3471   24.5722 C   0  0  0  0  0  0  0  0  0  0  0  0
  -25.6797  -30.0550   20.3091 C   0  0  0  0  0  0  0  0  0  0  0  0
  -27.7671  -35.3408   23.6419 C   0  0  0  0  0  0  0  0  0  0  0  0
  -26.8525  -19.4581   20.0441 C   0  0  0  0  0  0  0  0  0  0  0  0
  -25.2966  -29.1479   21.3073 C   0  0  0  0  0  0  0  0  0  0  0  0
  -26.0080  -18.5769   19.3689 C   0  0  0  0  0  0  0  0  0  0  0  0
  -27.6834  -16.8441   19.5349 C   0  0  0  0  0  0  0  0  0  0  0  0
  -22.3149   -8.3036   21.9852 C   0  0  0  0  0  0  0  0  0  0  0  0
  -26.4408  -27.3674   20.1111 C   0  0  0  0  0  0  0  0  0  0  0  0
  -21.4319   -6.5415   23.2649 C   0  0  0  0  0  0  0  0  0  0  0  0
  -21.5815   -3.8876   24.1117 C   0  0  0  0  0  0  0  0  0  0  0  0
  -21.5627   -6.2489   24.6225 C   0  0  0  0  0  0  0  0  0  0  0  0
  -25.2949   -9.6867   19.3198 C   0  0  0  0  0  0  0  0  0  0  0  0
  -26.5299  -10.0790   17.5433 C   0  0  0  0  0  0  0  0  0  0  0  0
  -24.5725   -8.5858   17.1105 C   0  0  0  0  0  0  0  0  0  0  0  0
  -26.1687  -32.1651   22.6355 C   0  0  0  0  0  0  0  0  0  0  0  0
  -23.0819  -31.4885   23.3675 C   0  0  0  0  0  0  0  0  0  0  0  0
  -20.4802  -29.2863   23.1994 C   0  0  0  0  0  0  0  0  0  0  0  0
  -29.3245  -14.9347   19.6213 C   0  0  0  0  0  0  0  0  0  0  0  0
  -26.8339  -36.0220   25.9125 C   0  0  0  0  0  0  0  0  0  0  0  0
  -25.2528  -31.4953   20.3842 C   0  0  0  0  0  0  0  0  0  0  0  0
  -24.4805  -29.5771   22.4981 C   0  0  0  0  0  0  0  0  0  0  0  0
  -26.2151  -34.6281   25.9781 C   0  0  0  0  0  0  0  0  0  0  0  0
  -30.7273  -11.6904   19.1926 C   0  0  0  0  0  0  0  0  0  0  0  0
  -26.7618  -21.8320   19.1703 C   0  0  0  0  0  0  0  0  0  0  0  0
  -27.0142  -21.4038   21.6548 C   0  0  0  0  0  0  0  0  0  0  0  0
  -27.1651  -33.5937   25.3829 C   0  0  0  0  0  0  0  0  0  0  0  0
  -26.3136  -23.2630   19.4657 C   0  0  0  0  0  0  0  0  0  0  0  0
  -26.5653  -22.8359   21.9439 C   0  0  0  0  0  0  0  0  0  0  0  0
  -29.5037  -10.7829   19.0455 C   0  0  0  0  0  0  0  0  0  0  0  0
  -30.4827  -12.8134   20.1989 C   0  0  0  0  0  0  0  0  0  0  0  0
  -28.0528  -12.7068   19.8075 C   0  0  0  0  0  0  0  0  0  0  0  0
  -26.4226  -20.8848   20.3335 C   0  0  0  0  0  0  0  0  0  0  0  0
  -27.4422  -33.8861   23.9033 C   0  0  1  0  0  0  0  0  0  0  0  0
  -24.9350  -31.9510   21.8050 C   0  0  1  0  0  0  0  0  0  0  0  0
  -26.9034  -23.7815   20.7838 C   0  0  0  0  0  0  0  0  0  0  0  0
  -28.2285  -11.5988   18.7562 C   0  0  2  0  0  0  0  0  0  0  0  0
  -24.6555  -19.0111   18.9075 C   0  0  0  0  0  0  0  0  0  0  0  0
  -18.0948  -28.9966   23.9228 C   0  0  0  0  0  0  0  0  0  0  0  0
  -24.0192  -30.8816   26.2070 C   0  0  0  0  0  0  0  0  0  0  0  0
  -21.8396  -29.7150   26.6026 C   0  0  0  0  0  0  0  0  0  0  0  0
  -21.8691  -32.1512   26.0672 C   0  0  0  0  0  0  0  0  0  0  0  0
  -19.5330  -29.0988   20.4018 C   0  0  0  0  0  0  0  0  0  0  0  0
  -26.4044  -25.1950   21.0781 C   0  0  0  0  0  0  0  0  0  1  0  0
  -22.3889  -30.4757   24.2466 C   0  0  1  0  0  0  0  0  0  0  0  0
  -19.0231  -29.4758   22.8177 C   0  0  2  0  0  0  0  0  0  0  0  0
  -22.5462  -30.7979   25.7595 C   0  0  0  0  0  0  0  0  0  0  0  0
  -26.2681  -10.4890   19.7594 N   0  0  0  0  0  0  0  0  0  0  0  0
  -27.0030  -10.7099   18.6562 N   0  0  0  0  0  0  0  0  0  0  0  0
  -24.0928  -30.9971   22.5294 N   0  0  0  0  0  0  0  0  0  0  0  0
  -29.2606  -13.5454   19.8589 N   0  0  0  0  0  0  0  0  0  0  0  0
  -27.1484  -10.1940   16.3489 N   0  0  0  0  0  0  0  0  0  0  0  0
  -24.8757   -7.2233   16.9848 N   0  0  0  0  0  0  0  0  0  0  0  0
  -28.1058  -15.5169   19.2743 N   0  0  0  0  0  0  0  0  0  0  0  0
  -26.3254  -33.4618   23.0865 N   0  0  0  0  0  0  0  0  0  0  0  0
  -21.0049  -30.4170   23.7890 N   0  0  0  0  0  0  0  0  0  0  0  0
  -18.7094  -28.7130   21.5765 N   0  3  0  0  0  0  0  0  0  0  0  0
  -23.5963   -9.0583   16.4800 O   0  0  0  0  0  0  0  0  0  0  0  0
  -26.9220  -31.2231   22.8523 O   0  0  0  0  0  0  0  0  0  0  0  0
  -22.7340  -32.6710   23.4172 O   0  0  0  0  0  0  0  0  0  0  0  0
  -21.0906  -28.2388   22.9983 O   0  0  0  0  0  0  0  0  0  0  0  0
  -30.3874  -15.5570   19.6918 O   0  0  0  0  0  0  0  0  0  0  0  0
  -21.3566   -7.8584   22.8431 O   0  0  0  0  0  0  0  0  0  0  0  0
  -26.8128  -26.0616   20.0204 O   0  0  0  0  0  0  0  0  0  1  0  0
  -21.6519   -2.6133   24.5182 F   0  0  0  0  0  0  0  0  0  0  0  0
  -21.6158   -7.2384   25.5247 F   0  0  0  0  0  0  0  0  0  0  0  0
  1  2  1  0  0  0  0
  1  5  2  0  0  0  0
  2  6  2  0  0  0  0
  3 10  2  0  0  0  0
  3 18  1  0  0  0  0
  4 11  1  0  0  0  0
  4 18  2  0  0  0  0
  5 20  1  0  0  0  0
  6 22  1  0  0  0  0
  7  9  2  0  0  0  0
  7 23  1  0  0  0  0
  8 12  2  0  0  0  0
  8 21  1  0  0  0  0
  9 26  1  0  0  0  0
 10 27  1  0  0  0  0
 11 27  2  0  0  0  0
 12 28  1  0  0  0  0
 13 14  2  0  0  0  0
 13 29  1  0  0  0  0
 14 30  1  0  0  0  0
 15 24  1  0  0  0  0
 15 28  2  0  0  0  0
 16 25  1  0  0  0  0
 16 26  2  0  0  0  0
 17 30  2  0  0  0  0
 17 31  1  0  0  0  0
 18 32  1  0  0  0  0
 19 32  1  0  0  0  0
 19 33  2  0  0  0  0
 19 34  1  0  0  0  0
 20 22  2  0  0  0  0
 20 39  1  0  0  0  0
 21 24  2  0  0  0  0
 21 40  1  0  0  0  0
 22 53  1  0  0  0  0
 23 25  2  0  0  0  0
 23 52  1  0  0  0  0
 24 41  1  0  0  0  0
 25 57  1  0  0  0  0
 26 73  1  0  0  0  0
 27 82  1  0  0  0  0
 28 83  1  0  0  0  0
 29 31  2  0  0  0  0
 29 82  1  0  0  0  0
 30 84  1  0  0  0  0
 31 85  1  0  0  0  0
 32 67  2  0  0  0  0
 33 68  1  0  0  0  0
 33 71  1  0  0  0  0
 34 72  1  0  0  0  0
 34 77  2  0  0  0  0
 35 54  1  0  0  0  0
 35 74  1  0  0  0  0
 35 78  2  0  0  0  0
 36 64  1  0  0  0  0
 36 69  1  0  0  0  0
 36 79  2  0  0  0  0
 37 65  1  0  0  0  0
 37 75  1  0  0  0  0
 37 80  2  0  0  0  0
 38 70  1  0  0  0  0
 38 73  1  0  0  0  0
 38 81  2  0  0  0  0
 39 42  1  0  0  0  0
 40 54  1  0  0  0  0
 41 69  1  0  0  0  0
 42 46  1  0  0  0  0
 43 49  1  0  0  0  0
 43 50  1  0  0  0  0
 44 47  1  0  0  0  0
 44 52  1  0  0  0  0
 45 48  1  0  0  0  0
 45 52  1  0  0  0  0
 46 53  1  0  0  0  0
 47 55  1  0  0  0  0
 48 55  1  0  0  0  0
 49 56  1  0  0  0  0
 50 70  1  0  0  0  0
 51 56  1  0  0  0  0
 51 70  1  0  0  0  0
 53 74  1  0  0  0  0
 54 69  1  0  0  0  0
 55 63  1  0  0  0  0
 56 68  1  0  0  0  0
 58 65  1  0  0  0  0
 59 66  1  0  0  0  0
 60 66  1  0  0  0  0
 61 66  1  0  0  0  0
 62 76  1  0  0  0  0
 63 83  1  0  0  0  0
 64 66  1  0  0  0  0
 64 75  1  0  0  0  0
 65 76  1  0  0  0  0
 67 68  1  0  0  0  0
M  CHG  1  76   1
M  ISO  4  38 100  63 101  73 100  83 101
M  END
> <Batch ID>
0105

> <Smiles>
CNC(C)C(=O)NC(C(=O)N1Cc2cc([101O:1][101CH2:1]C3CCC(c4ccc([100NH:0][100C:0](=O)N5CCCC(n6nc(-c7ccc(Oc8ccc(F)cc8F)cc7)c(C(N)=O)c6N)C5)cc4C)CC3)ccc2CC1C(=O)NC1CCCc2ccccc21)C(C)(C)C

> <Shape>
0.295

> <Color>
0.092

> <Negative vol penalty>
0.000

$$$$

  -OEChem-04052301113D

 82 90  0     1  0  0  0  0  0999 V2000
  -28.2966  -34.6013   15.1976 C   0  0  0  0  0  0  0  0  0  0  0  0
  -27.9527  -33.2590   15.3210 C   0  0  0  0  0  0  0  0  0  0  0  0
  -24.2647   -8.6712   19.8552 C   0  0  0  0  0  0  0  0  0  0  0  0
  -23.0656  -10.3969   21.0473 C   0  0  0  0  0  0  0  0  0  0  0  0
  -27.1044  -20.2322   18.6271 C   0  0  0  0  0  0  0  0  0  0  0  0
  -28.6791  -35.3281   16.3243 C   0  0  0  0  0  0  0  0  0  0  0  0
  -27.9922  -32.6423   16.5711 C   0  0  0  0  0  0  0  0  0  0  0  0
  -24.2379  -28.2676   18.6382 C   0  0  0  0  0  0  0  0  0  0  0  0
  -27.2838  -18.8502   18.6878 C   0  0  0  0  0  0  0  0  0  0  0  0
  -23.4513   -7.7013   20.4410 C   0  0  0  0  0  0  0  0  0  0  0  0
  -22.2521   -9.4270   21.6331 C   0  0  0  0  0  0  0  0  0  0  0  0
  -24.3662  -26.8816   18.7168 C   0  0  0  0  0  0  0  0  0  0  0  0
  -20.3344   -6.4669   20.0004 C   0  0  0  0  0  0  0  0  0  0  0  0
  -19.8265   -5.4629   19.1762 C   0  0  0  0  0  0  0  0  0  0  0  0
  -25.0950  -27.0849   21.0074 C   0  0  0  0  0  0  0  0  0  0  0  0
  -29.0610  -19.1515   20.2965 C   0  0  0  0  0  0  0  0  0  0  0  0
  -20.9458   -3.7948   20.5185 C   0  0  0  0  0  0  0  0  0  0  0  0
  -24.0719  -10.0190   20.1584 C   0  0  0  0  0  0  0  0  0  0  0  0
  -27.9034  -21.0738   19.4011 C   0  0  0  0  0  0  0  0  0  0  0  0
  -24.6867  -11.7019   18.3424 C   0  0  0  0  0  0  0  0  0  0  0  0
  -28.7140  -34.7226   17.5903 C   0  0  0  0  0  0  0  0  0  0  0  0
  -24.5482  -29.0748   19.7421 C   0  0  0  0  0  0  0  0  0  0  0  0
  -28.3768  -33.3614   17.7155 C   0  0  0  0  0  0  0  0  0  0  0  0
  -24.9674  -28.4807   20.9410 C   0  0  0  0  0  0  0  0  0  0  0  0
  -28.8817  -20.5335   20.2358 C   0  0  0  0  0  0  0  0  0  0  0  0
  -28.2620  -18.3099   19.5225 C   0  0  0  0  0  0  0  0  0  0  0  0
  -22.4450   -8.0791   21.3299 C   0  0  0  0  0  0  0  0  0  0  0  0
  -24.7976  -26.2902   19.9006 C   0  0  0  0  0  0  0  0  0  0  0  0
  -21.1481   -6.1350   21.0837 C   0  0  0  0  0  0  0  0  0  0  0  0
  -20.1322   -4.1268   19.4352 C   0  0  0  0  0  0  0  0  0  0  0  0
  -21.4538   -4.7989   21.3427 C   0  0  0  0  0  0  0  0  0  0  0  0
  -24.9122  -11.0214   19.5540 C   0  0  0  0  0  0  0  0  0  0  0  0
  -25.7660  -12.5416   18.2143 C   0  0  0  0  0  0  0  0  0  0  0  0
  -26.3524  -23.0679   19.6875 C   0  0  0  0  0  0  0  0  0  0  0  0
  -26.1273  -24.3832   19.6432 C   0  0  0  0  0  0  0  0  0  1  0  0
  -27.6913  -22.5390   19.3162 C   0  0  0  0  0  0  0  0  0  0  0  0
  -23.5989  -11.5855   17.4158 C   0  0  0  0  0  0  0  0  0  0  0  0
  -26.6745  -31.3663   20.3183 C   0  0  0  0  0  0  0  0  0  0  0  0
  -25.0578  -31.6236   23.1188 C   0  0  0  0  0  0  0  0  0  0  0  0
  -23.0469  -30.1499   25.4492 C   0  0  0  0  0  0  0  0  0  0  0  0
  -29.3679  -16.2065   20.3587 C   0  0  0  0  0  0  0  0  0  0  0  0
  -29.1795  -35.5365   18.7717 C   0  0  0  0  0  0  0  0  0  0  0  0
  -24.3790  -30.5666   19.6496 C   0  0  0  0  0  0  0  0  0  0  0  0
  -25.2936  -29.3014   22.1611 C   0  0  0  0  0  0  0  0  0  0  0  0
  -28.8343  -34.9071   20.1189 C   0  0  0  0  0  0  0  0  0  0  0  0
  -30.1025  -12.7528   20.8166 C   0  0  0  0  0  0  0  0  0  0  0  0
  -29.1870  -33.4230   20.1208 C   0  0  0  0  0  0  0  0  0  0  0  0
  -28.7991  -12.0505   20.4293 C   0  0  0  0  0  0  0  0  0  0  0  0
  -29.8421  -14.0726   21.5405 C   0  0  0  0  0  0  0  0  0  0  0  0
  -27.6451  -14.2988   20.4491 C   0  0  0  0  0  0  0  0  0  0  0  0
  -28.3834  -32.6636   19.0583 C   0  0  1  0  0  0  0  0  0  0  0  0
  -25.2152  -31.3274   20.6740 C   0  0  1  0  0  0  0  0  0  0  0  0
  -27.8563  -12.9964   19.6599 C   0  0  2  0  0  0  0  0  0  0  0  0
  -29.7516  -21.4123   21.0740 C   0  0  0  0  0  0  0  0  0  0  0  0
  -21.9233  -30.5981   27.6479 C   0  0  0  0  0  0  0  0  0  0  0  0
  -27.7343  -31.3046   24.5488 C   0  0  0  0  0  0  0  0  0  0  0  0
  -26.4717  -30.8092   26.6532 C   0  0  0  0  0  0  0  0  0  0  0  0
  -26.2195  -33.0286   25.5426 C   0  0  0  0  0  0  0  0  0  0  0  0
  -20.3562  -29.7221   24.2933 C   0  0  0  0  0  0  0  0  0  0  0  0
  -25.1730  -30.9859   24.4822 C   0  0  1  0  0  0  0  0  0  0  0  0
  -21.7799  -30.6294   26.1342 C   0  0  2  0  0  0  0  0  0  0  0  0
  -26.3954  -31.5165   25.2833 C   0  0  0  0  0  0  0  0  0  0  0  0
  -26.0458  -11.3962   20.1527 N   0  0  0  0  0  0  0  0  0  0  0  0
  -26.5423  -12.3214   19.3138 N   0  0  0  0  0  0  0  0  0  0  0  0
  -25.1185  -30.7563   22.0188 N   0  0  0  0  0  0  0  0  0  0  0  0
  -28.9449  -14.9188   20.7507 N   0  0  0  0  0  0  0  0  0  0  0  0
  -26.1173  -13.4395   17.2693 N   0  0  0  0  0  0  0  0  0  0  0  0
  -22.5728  -10.6744   17.7011 N   0  0  0  0  0  0  0  0  0  0  0  0
  -28.4435  -16.9059   19.5835 N   0  0  0  0  0  0  0  0  0  0  0  0
  -27.0299  -32.4342   19.5166 N   0  0  0  0  0  0  0  0  0  0  0  0
  -23.8890  -31.1975   25.1416 N   0  0  0  0  0  0  0  0  0  0  0  0
  -20.6266  -29.7657   25.7535 N   0  3  0  0  0  0  0  0  0  0  0  0
  -28.6147  -23.2692   18.9728 O   0  0  0  0  0  0  0  0  0  0  0  0
  -23.5467  -12.2573   16.3577 O   0  0  0  0  0  0  0  0  0  0  0  0
  -27.4229  -30.4929   20.7412 O   0  0  0  0  0  0  0  0  0  0  0  0
  -24.9120  -32.8455   23.0330 O   0  0  0  0  0  0  0  0  0  0  0  0
  -23.2692  -28.9642   25.2141 O   0  0  0  0  0  0  0  0  0  0  0  0
  -30.4799  -16.6451   20.6635 O   0  0  0  0  0  0  0  0  0  0  0  0
  -21.6509   -7.1330   21.9015 O   0  0  0  0  0  0  0  0  0  0  0  0
  -24.9243  -24.9376   19.9797 O   0  0  0  0  0  0  0  0  0  1  0  0
  -19.6431   -3.1625   18.6445 F   0  0  0  0  0  0  0  0  0  0  0  0
  -22.2340   -4.4738   22.3826 F   0  0  0  0  0  0  0  0  0  0  0  0
  1  2  1  0  0  0  0
  1  6  2  0  0  0  0
  2  7  2  0  0  0  0
  3 10  2  0  0  0  0
  3 18  1  0  0  0  0
  4 11  1  0  0  0  0
  4 18  2  0  0  0  0
  5  9  2  0  0  0  0
  5 19  1  0  0  0  0
  6 21  1  0  0  0  0
  7 23  1  0  0  0  0
  8 12  2  0  0  0  0
  8 22  1  0  0  0  0
  9 26  1  0  0  0  0
 10 27  1  0  0  0  0
 11 27  2  0  0  0  0
 12 28  1  0  0  0  0
 13 14  2  0  0  0  0
 13 29  1  0  0  0  0
 14 30  1  0  0  0  0
 15 24  1  0  0  0  0
 15 28  2  0  0  0  0
 16 25  1  0  0  0  0
 16 26  2  0  0  0  0
 17 30  2  0  0  0  0
 17 31  1  0  0  0  0
 18 32  1  0  0  0  0
 19 25  2  0  0  0  0
 19 36  1  0  0  0  0
 20 32  1  0  0  0  0
 20 33  2  0  0  0  0
 20 37  1  0  0  0  0
 21 23  2  0  0  0  0
 21 42  1  0  0  0  0
 22 24  2  0  0  0  0
 22 43  1  0  0  0  0
 23 51  1  0  0  0  0
 24 44  1  0  0  0  0
 25 54  1  0  0  0  0
 26 69  1  0  0  0  0
 27 79  1  0  0  0  0
 28 80  1  0  0  0  0
 29 31  2  0  0  0  0
 29 79  1  0  0  0  0
 30 81  1  0  0  0  0
 31 82  1  0  0  0  0
 32 63  2  0  0  0  0
 33 64  1  0  0  0  0
 33 67  1  0  0  0  0
 34 35  2  0  0  0  0
 34 36  1  0  0  0  0
 35 80  1  0  0  0  0
 36 73  2  0  0  0  0
 37 68  1  0  0  0  0
 37 74  2  0  0  0  0
 38 52  1  0  0  0  0
 38 70  1  0  0  0  0
 38 75  2  0  0  0  0
 39 60  1  0  0  0  0
 39 65  1  0  0  0  0
 39 76  2  0  0  0  0
 40 61  1  0  0  0  0
 40 71  1  0  0  0  0
 40 77  2  0  0  0  0
 41 66  1  0  0  0  0
 41 69  1  0  0  0  0
 41 78  2  0  0  0  0
 42 45  1  0  0  0  0
 43 52  1  0  0  0  0
 44 65  1  0  0  0  0
 45 47  1  0  0  0  0
 46 48  1  0  0  0  0
 46 49  1  0  0  0  0
 47 51  1  0  0  0  0
 48 53  1  0  0  0  0
 49 66  1  0  0  0  0
 50 53  1  0  0  0  0
 50 66  1  0  0  0  0
 51 70  1  0  0  0  0
 52 65  1  0  0  0  0
 53 64  1  0  0  0  0
 55 61  1  0  0  0  0
 56 62  1  0  0  0  0
 57 62  1  0  0  0  0
 58 62  1  0  0  0  0
 59 72  1  0  0  0  0
 60 62  1  0  0  0  0
 60 71  1  0  0  0  0
 61 72  1  0  0  0  0
 63 64  1  0  0  0  0
M  CHG  1  72   1
M  ISO  4  35 101  41 100  69 100  80 101
M  END
> <Batch ID>
0105

> <Smiles>
CNC(C)C(=O)NC(C(=O)N1Cc2cc([101O:1][101CH:1]=CC(=O)c3ccc([100NH:0][100C:0](=O)N4CCCC(n5nc(-c6ccc(Oc7ccc(F)cc7F)cc6)c(C(N)=O)c5N)C4)cc3C)ccc2CC1C(=O)NC1CCCc2ccccc21)C(C)(C)C

> <Shape>
0.257

> <Color>
0.113

> <Negative vol penalty>
0.000

$$$$

  -OEChem-04052301113D

 86 94  0     1  0  0  0  0  0999 V2000
  -32.0697  -13.1780   21.1787 C   0  0  0  0  0  0  0  0  0  0  0  0
  -31.6265  -14.4924   21.0722 C   0  0  0  0  0  0  0  0  0  0  0  0
  -23.1514  -25.7639   21.7447 C   0  0  0  0  0  0  0  0  0  0  0  0
  -21.1658  -26.6145   22.8269 C   0  0  0  0  0  0  0  0  0  0  0  0
  -31.2743  -12.1349   20.7064 C   0  0  0  0  0  0  0  0  0  0  0  0
  -30.3880  -14.7645   20.4922 C   0  0  0  0  0  0  0  0  0  0  0  0
  -27.7057  -18.1490   23.1371 C   0  0  0  0  0  0  0  0  0  0  0  0
  -22.6882  -24.4599   21.9199 C   0  0  0  0  0  0  0  0  0  0  0  0
  -20.7026  -25.3105   23.0021 C   0  0  0  0  0  0  0  0  0  0  0  0
  -28.0581  -19.4906   22.9968 C   0  0  0  0  0  0  0  0  0  0  0  0
  -19.2045  -22.9286   21.1305 C   0  0  0  0  0  0  0  0  0  0  0  0
  -17.8672  -22.6715   20.8287 C   0  0  0  0  0  0  0  0  0  0  0  0
  -26.2321  -19.8023   21.4516 C   0  0  0  0  0  0  0  0  0  0  0  0
  -29.7186  -28.7262   21.7912 C   0  0  0  0  0  0  0  0  0  0  0  0
  -17.4883  -21.9660   23.1081 C   0  0  0  0  0  0  0  0  0  0  0  0
  -31.8458  -28.5950   21.0647 C   0  0  0  0  0  0  0  0  0  0  0  0
  -22.3902  -26.8412   22.1983 C   0  0  0  0  0  0  0  0  0  0  0  0
  -22.6313  -29.0347   20.9184 C   0  0  0  0  0  0  0  0  0  0  0  0
  -30.0212  -12.3936   20.1291 C   0  0  0  0  0  0  0  0  0  0  0  0
  -26.6187  -17.6204   22.4261 C   0  0  0  0  0  0  0  0  0  0  0  0
  -29.5756  -13.7239   20.0105 C   0  0  0  0  0  0  0  0  0  0  0  0
  -25.8664  -18.4543   21.5866 C   0  0  0  0  0  0  0  0  0  0  0  0
  -30.5999  -28.0221   20.9341 C   0  0  0  0  0  0  0  0  0  0  0  0
  -21.4638  -24.2332   22.5486 C   0  0  0  0  0  0  0  0  0  0  0  0
  -27.3230  -20.3168   22.1517 C   0  0  0  0  0  0  0  0  0  0  0  0
  -19.6838  -22.7044   22.4212 C   0  0  0  0  0  0  0  0  0  0  0  0
  -17.0091  -22.1902   21.8175 C   0  0  0  0  0  0  0  0  0  0  0  0
  -18.8257  -22.2231   23.4100 C   0  0  0  0  0  0  0  0  0  0  0  0
  -22.8683  -28.1884   22.0181 C   0  0  0  0  0  0  0  0  0  0  0  0
  -30.4527  -29.7080   22.4194 C   0  0  0  0  0  0  0  0  0  0  0  0
  -23.2967  -30.1955   21.2286 C   0  0  0  0  0  0  0  0  0  0  0  0
  -21.8770  -28.7931   19.7232 C   0  0  0  0  0  0  0  0  0  0  0  0
  -29.9719  -30.7043   23.4108 C   0  0  0  0  0  0  0  0  0  0  0  0
  -26.2661  -15.3527   20.2269 C   0  0  0  0  0  0  0  0  0  0  0  0
  -23.1108  -15.9700   20.6575 C   0  0  0  0  0  0  0  0  0  0  0  0
  -29.0496  -26.3166   19.9189 C   0  0  0  0  0  0  0  0  0  0  0  0
  -20.6976  -18.1735   21.6415 C   0  0  0  0  0  0  0  0  0  0  0  0
  -27.9763  -31.4391   24.6764 C   0  0  0  0  0  0  0  0  0  0  0  0
  -29.2175  -11.2368   19.5899 C   0  0  0  0  0  0  0  0  0  0  0  0
  -26.2351  -16.1776   22.6090 C   0  0  0  0  0  0  0  0  0  0  0  0
  -24.6782  -17.9406   20.8167 C   0  0  0  0  0  0  0  0  0  0  0  0
  -27.7536  -11.5815   19.3285 C   0  0  0  0  0  0  0  0  0  0  0  0
  -24.7294  -32.8019   24.9878 C   0  0  0  0  0  0  0  0  0  0  0  0
  -27.6424  -12.9070   18.5818 C   0  0  0  0  0  0  0  0  0  0  0  0
  -23.8607  -31.8608   24.1487 C   0  0  0  0  0  0  0  0  0  0  0  0
  -25.8214  -32.0446   25.7420 C   0  0  0  0  0  0  0  0  0  0  0  0
  -25.7900  -30.2307   24.0786 C   0  0  0  0  0  0  0  0  0  0  0  0
  -28.2272  -14.0575   19.4100 C   0  0  1  0  0  0  0  0  0  0  0  0
  -25.4244  -15.6223   21.4421 C   0  0  1  0  0  0  0  0  0  0  0  0
  -24.7196  -30.9535   23.2450 C   0  0  1  0  0  0  0  0  0  0  0  0
  -18.2072  -18.4069   21.8434 C   0  0  0  0  0  0  0  0  0  0  0  0
  -22.9068  -16.3772   17.6405 C   0  0  0  0  0  0  0  0  0  0  0  0
  -20.7047  -17.5088   18.0122 C   0  0  0  0  0  0  0  0  0  0  0  0
  -20.9997  -15.1164   18.6543 C   0  0  0  0  0  0  0  0  0  0  0  0
  -32.8430  -30.4667   22.3775 C   0  0  0  0  0  0  0  0  0  0  0  0
  -20.8545  -18.5558   24.5721 C   0  0  0  0  0  0  0  0  0  0  0  0
  -29.1517  -25.1754   18.9144 C   0  0  0  0  0  0  0  0  0  0  0  0
  -28.1615  -24.0390   19.1661 C   0  0  0  0  0  0  0  0  0  0  0  0
  -28.3998  -23.3461   20.5083 C   0  0  0  0  0  0  0  0  0  0  0  0
  -27.3814  -22.2419   20.7566 C   0  0  0  0  0  0  0  0  0  1  0  0
  -22.1123  -16.9170   20.0370 C   0  0  1  0  0  0  0  0  0  0  0  0
  -19.4932  -18.0085   22.5507 C   0  0  2  0  0  0  0  0  0  0  0  0
  -21.7044  -16.4894   18.5989 C   0  0  0  0  0  0  0  0  0  0  0  0
  -23.6254  -28.7626   22.9568 N   0  0  0  0  0  0  0  0  0  0  0  0
  -31.7443  -29.6189   21.9699 N   0  0  0  0  0  0  0  0  0  0  0  0
  -23.8698  -29.9821   22.4477 N   0  0  0  0  0  0  0  0  0  0  0  0
  -24.3467  -16.5212   21.0242 N   0  0  0  0  0  0  0  0  0  0  0  0
  -26.5951  -31.2171   24.8146 N   0  0  0  0  0  0  0  0  0  0  0  0
  -23.4416  -31.3676   20.5748 N   0  0  0  0  0  0  0  0  0  0  0  0
  -21.2573  -27.5460   19.5649 N   0  0  0  0  0  0  0  0  0  0  0  0
  -30.2875  -26.9300   20.0899 N   0  0  0  0  0  0  0  0  0  0  0  0
  -28.6172  -30.6260   23.7349 N   0  0  0  0  0  0  0  0  0  0  0  0
  -27.2977  -14.4593   20.4439 N   0  0  0  0  0  0  0  0  0  0  0  0
  -20.9968  -17.0051   20.9732 N   0  0  0  0  0  0  0  0  0  0  0  0
  -19.6426  -18.8563   23.7672 N   0  3  0  0  0  0  0  0  0  0  0  0
  -21.7697  -29.6517   18.8150 O   0  0  0  0  0  0  0  0  0  0  0  0
  -30.7744  -31.4913   23.9053 O   0  0  0  0  0  0  0  0  0  0  0  0
  -25.9984  -15.9126   19.1702 O   0  0  0  0  0  0  0  0  0  0  0  0
  -22.8028  -14.7863   20.8178 O   0  0  0  0  0  0  0  0  0  0  0  0
  -27.9887  -26.6210   20.4540 O   0  0  0  0  0  0  0  0  0  0  0  0
  -21.3094  -19.2338   21.5322 O   0  0  0  0  0  0  0  0  0  0  0  0
  -28.5802  -32.3116   25.3083 O   0  0  0  0  0  0  0  0  0  0  0  0
  -21.0115  -22.9609   22.7195 O   0  0  0  0  0  0  0  0  0  0  0  0
  -27.6652  -21.6265   22.0124 O   0  0  0  0  0  0  0  0  0  1  0  0
  -15.7246  -21.9447   21.5278 F   0  0  0  0  0  0  0  0  0  0  0  0
  -19.2800  -22.0068   24.6520 F   0  0  0  0  0  0  0  0  0  0  0  0
  1  2  1  0  0  0  0
  1  5  2  0  0  0  0
  2  6  2  0  0  0  0
  3  8  2  0  0  0  0
  3 17  1  0  0  0  0
  4  9  1  0  0  0  0
  4 17  2  0  0  0  0
  5 19  1  0  0  0  0
  6 21  1  0  0  0  0
  7 10  2  0  0  0  0
  7 20  1  0  0  0  0
  8 24  1  0  0  0  0
  9 24  2  0  0  0  0
 10 25  1  0  0  0  0
 11 12  2  0  0  0  0
 11 26  1  0  0  0  0
 12 27  1  0  0  0  0
 13 22  1  0  0  0  0
 13 25  2  0  0  0  0
 14 23  1  0  0  0  0
 14 30  2  0  0  0  0
 15 27  2  0  0  0  0
 15 28  1  0  0  0  0
 16 23  2  0  0  0  0
 16 65  1  0  0  0  0
 17 29  1  0  0  0  0
 18 29  1  0  0  0  0
 18 31  2  0  0  0  0
 18 32  1  0  0  0  0
 19 21  2  0  0  0  0
 19 39  1  0  0  0  0
 20 22  2  0  0  0  0
 20 40  1  0  0  0  0
 21 48  1  0  0  0  0
 22 41  1  0  0  0  0
 23 71  1  0  0  0  0
 24 83  1  0  0  0  0
 25 84  1  0  0  0  0
 26 28  2  0  0  0  0
 26 83  1  0  0  0  0
 27 85  1  0  0  0  0
 28 86  1  0  0  0  0
 29 64  2  0  0  0  0
 30 33  1  0  0  0  0
 30 65  1  0  0  0  0
 31 66  1  0  0  0  0
 31 69  1  0  0  0  0
 32 70  1  0  0  0  0
 32 76  2  0  0  0  0
 33 72  1  0  0  0  0
 33 77  2  0  0  0  0
 34 49  1  0  0  0  0
 34 73  1  0  0  0  0
 34 78  2  0  0  0  0
 35 61  1  0  0  0  0
 35 67  1  0  0  0  0
 35 79  2  0  0  0  0
 36 57  1  0  0  0  0
 36 71  1  0  0  0  0
 36 80  2  0  0  0  0
 37 62  1  0  0  0  0
 37 74  1  0  0  0  0
 37 81  2  0  0  0  0
 38 68  1  0  0  0  0
 38 72  1  0  0  0  0
 38 82  2  0  0  0  0
 39 42  1  0  0  0  0
 40 49  1  0  0  0  0
 41 67  1  0  0  0  0
 42 44  1  0  0  0  0
 43 45  1  0  0  0  0
 43 46  1  0  0  0  0
 44 48  1  0  0  0  0
 45 50  1  0  0  0  0
 46 68  1  0  0  0  0
 47 50  1  0  0  0  0
 47 68  1  0  0  0  0
 48 73  1  0  0  0  0
 49 67  1  0  0  0  0
 50 66  1  0  0  0  0
 51 62  1  0  0  0  0
 52 63  1  0  0  0  0
 53 63  1  0  0  0  0
 54 63  1  0  0  0  0
 55 65  1  0  0  0  0
 56 75  1  0  0  0  0
 57 58  1  0  0  0  0
 58 59  1  0  0  0  0
 59 60  1  0  0  0  0
 60 84  1  0  0  0  0
 61 63  1  0  0  0  0
 61 74  1  0  0  0  0
 62 75  1  0  0  0  0
 64 66  1  0  0  0  0
M  CHG  1  75   1
M  ISO  4  38 100  60 101  72 100  84 101
M  END
> <Batch ID>
0105

> <Smiles>
CNC(C)C(=O)NC(C(=O)N1Cc2cc([101O:1][101CH2:1]CCCC(=O)Nc3cc(C(=O)[100NH:0][100C:0](=O)N4CCCC(n5nc(-c6ccc(Oc7ccc(F)cc7F)cc6)c(C(N)=O)c5N)C4)n(C)c3)ccc2CC1C(=O)NC1CCCc2ccccc21)C(C)(C)C

> <Shape>
0.211

> <Color>
0.063

> <Negative vol penalty>
0.000

$$$$

  -OEChem-04052301113D

 85 93  0     1  0  0  0  0  0999 V2000
  -19.6310   -9.5318   20.6208 C   0  0  0  0  0  0  0  0  0  0  0  0
  -19.8818  -10.7453   21.2532 C   0  0  0  0  0  0  0  0  0  0  0  0
  -24.1758  -31.1630   24.0647 C   0  0  0  0  0  0  0  0  0  0  0  0
  -23.7969  -32.5728   22.1396 C   0  0  0  0  0  0  0  0  0  0  0  0
  -26.2839  -22.9226   21.1814 C   0  0  0  0  0  0  0  0  0  0  0  0
  -20.6825   -8.6562   20.3531 C   0  0  0  0  0  0  0  0  0  0  0  0
  -21.1841  -11.0834   21.6193 C   0  0  0  0  0  0  0  0  0  0  0  0
  -22.3527  -15.8683   20.4428 C   0  0  0  0  0  0  0  0  0  0  0  0
  -25.1758  -22.1627   21.5559 C   0  0  0  0  0  0  0  0  0  0  0  0
  -23.8230  -32.2177   24.9065 C   0  0  0  0  0  0  0  0  0  0  0  0
  -23.4440  -33.6275   22.9814 C   0  0  0  0  0  0  0  0  0  0  0  0
  -21.8646  -16.8680   21.2831 C   0  0  0  0  0  0  0  0  0  0  0  0
  -25.0239  -35.9144   24.9063 C   0  0  0  0  0  0  0  0  0  0  0  0
  -25.5582  -37.1724   24.6278 C   0  0  0  0  0  0  0  0  0  0  0  0
  -26.6655  -21.4439   19.3093 C   0  0  0  0  0  0  0  0  0  0  0  0
  -24.0159  -16.9990   22.3667 C   0  0  0  0  0  0  0  0  0  0  0  0
  -23.3275  -38.0592   24.3543 C   0  0  0  0  0  0  0  0  0  0  0  0
  -24.1628  -31.3405   22.6812 C   0  0  0  0  0  0  0  0  0  0  0  0
  -27.0288  -22.5633   20.0581 C   0  0  0  0  0  0  0  0  0  0  0  0
  -23.6719  -29.2763   21.2651 C   0  0  0  0  0  0  0  0  0  0  0  0
  -21.9997   -8.9879   20.7074 C   0  0  0  0  0  0  0  0  0  0  0  0
  -23.6750  -15.4180   20.5655 C   0  0  0  0  0  0  0  0  0  0  0  0
  -22.2540  -10.2108   21.3573 C   0  0  0  0  0  0  0  0  0  0  0  0
  -24.5190  -15.9953   21.5250 C   0  0  0  0  0  0  0  0  0  0  0  0
  -24.8126  -21.0434   20.8071 C   0  0  0  0  0  0  0  0  0  0  0  0
  -23.4571  -33.4500   24.3649 C   0  0  0  0  0  0  0  0  0  0  0  0
  -22.6954  -17.4315   22.2472 C   0  0  0  0  0  0  0  0  0  0  0  0
  -23.6414  -35.7287   24.9086 C   0  0  0  0  0  0  0  0  0  0  0  0
  -25.5574  -20.6840   19.6838 C   0  0  0  0  0  0  0  0  0  0  0  0
  -24.7100  -38.2448   24.3519 C   0  0  0  0  0  0  0  0  0  0  0  0
  -22.7932  -36.8011   24.6327 C   0  0  0  0  0  0  0  0  0  0  0  0
  -24.5277  -30.2516   21.8111 C   0  0  0  0  0  0  0  0  0  0  0  0
  -24.4981  -28.4755   20.5150 C   0  0  0  0  0  0  0  0  0  0  0  0
  -28.2085  -23.3731   19.6591 C   0  0  0  0  0  0  0  0  0  0  0  0
  -22.2565  -29.1091   21.4218 C   0  0  0  0  0  0  0  0  0  0  0  0
  -25.0410  -12.6352   21.2683 C   0  0  0  0  0  0  0  0  0  0  0  0
  -27.7683  -14.2338   20.5411 C   0  0  0  0  0  0  0  0  0  0  0  0
  -29.3866  -17.2256   20.2637 C   0  0  0  0  0  0  0  0  0  0  0  0
  -29.2016  -25.6352   19.8026 C   0  0  0  0  0  0  0  0  0  0  0  0
  -23.0970   -7.9884   20.4401 C   0  0  0  0  0  0  0  0  0  0  0  0
  -24.1942  -14.3577   19.6336 C   0  0  0  0  0  0  0  0  0  0  0  0
  -25.9526  -15.5614   21.6839 C   0  0  0  0  0  0  0  0  0  0  0  0
  -24.4991   -8.5864   20.5232 C   0  0  0  0  0  0  0  0  0  0  0  0
  -29.3293  -29.1032   19.1293 C   0  0  0  0  0  0  0  0  0  0  0  0
  -24.6390   -9.4471   21.7747 C   0  0  0  0  0  0  0  0  0  0  0  0
  -28.0173  -29.6332   19.7144 C   0  0  0  0  0  0  0  0  0  0  0  0
  -29.9306  -27.9968   19.9949 C   0  0  0  0  0  0  0  0  0  0  0  0
  -27.7140  -27.4207   20.8963 C   0  0  0  0  0  0  0  0  0  0  0  0
  -23.6565  -10.6242   21.7475 C   0  0  1  0  0  0  0  0  0  0  0  0
  -25.4055  -13.6150   20.1890 C   0  0  1  0  0  0  0  0  0  0  0  0
  -27.0327  -28.4878   20.0243 C   0  0  1  0  0  0  0  0  0  0  0  0
  -31.2321  -18.8315   19.7046 C   0  0  0  0  0  0  0  0  0  0  0  0
  -20.6172  -20.1497   23.3098 C   0  0  0  0  0  0  0  0  0  0  0  0
  -28.8497  -13.3731   23.2614 C   0  0  0  0  0  0  0  0  0  0  0  0
  -30.6251  -15.1234   23.0315 C   0  0  0  0  0  0  0  0  0  0  0  0
  -30.5067  -13.2466   21.3925 C   0  0  0  0  0  0  0  0  0  0  0  0
  -28.4110  -17.5617   17.4898 C   0  0  0  0  0  0  0  0  0  0  0  0
  -24.3125  -19.8059   17.8576 C   0  0  0  0  0  0  0  0  0  0  0  0
  -22.8937  -20.6087   22.3416 C   0  0  0  0  0  0  0  0  0  0  0  0
  -28.7568  -15.0699   21.3176 C   0  0  1  0  0  0  0  0  0  0  0  0
  -30.2531  -17.8034   19.1593 C   0  0  2  0  0  0  0  0  0  0  0  0
  -21.7493  -19.6038   22.4519 C   0  0  1  0  0  0  0  0  0  1  0  0
  -29.6570  -14.2103   22.2493 C   0  0  0  0  0  0  0  0  0  0  0  0
  -25.8001  -30.0872   21.4396 N   0  0  0  0  0  0  0  0  0  0  0  0
  -25.7499  -28.9993   20.6523 N   0  0  0  0  0  0  0  0  0  0  0  0
  -26.4116  -14.5170   20.7533 N   0  0  0  0  0  0  0  0  0  0  0  0
  -28.9386  -26.9470   20.2341 N   0  0  0  0  0  0  0  0  0  0  0  0
  -24.2687  -27.3815   19.7581 N   0  0  0  0  0  0  0  0  0  0  0  0
  -21.5612  -30.0211   22.2274 N   0  0  0  0  0  0  0  0  0  0  0  0
  -23.7107  -20.2973   21.1907 N   0  0  0  0  0  0  0  0  0  0  0  0
  -28.1744  -24.7149   20.0397 N   0  0  0  0  0  0  0  0  0  0  0  0
  -24.1407  -11.6664   20.8679 N   0  0  0  0  0  0  0  0  0  0  0  0
  -29.4932  -15.8525   20.3309 N   0  0  0  0  0  0  0  0  0  0  0  0
  -29.4047  -18.4636   18.1271 N   0  3  0  0  0  0  0  0  0  0  0  0
  -29.1375  -22.8269   19.0705 O   0  0  0  0  0  0  0  0  0  0  0  0
  -21.6297  -28.1689   20.8771 O   0  0  0  0  0  0  0  0  0  0  0  0
  -25.5407  -12.7489   22.3814 O   0  0  0  0  0  0  0  0  0  0  0  0
  -28.1847  -13.3663   19.7693 O   0  0  0  0  0  0  0  0  0  0  0  0
  -28.6881  -17.9228   20.9961 O   0  0  0  0  0  0  0  0  0  0  0  0
  -30.2446  -25.3183   19.2222 O   0  0  0  0  0  0  0  0  0  0  0  0
  -23.1125  -34.4793   25.1860 O   0  0  0  0  0  0  0  0  0  0  0  0
  -25.2181  -19.5944   18.9385 O   0  0  0  0  0  0  0  0  0  0  0  0
  -22.2213  -18.4069   23.0691 O   0  0  0  0  0  0  0  0  0  1  0  0
  -25.2231  -39.4532   24.0860 F   0  0  0  0  0  0  0  0  0  0  0  0
  -21.4642  -36.6291   24.6347 F   0  0  0  0  0  0  0  0  0  0  0  0
  1  2  1  0  0  0  0
  1  6  2  0  0  0  0
  2  7  2  0  0  0  0
  3 10  2  0  0  0  0
  3 18  1  0  0  0  0
  4 11  1  0  0  0  0
  4 18  2  0  0  0  0
  5  9  2  0  0  0  0
  5 19  1  0  0  0  0
  6 21  1  0  0  0  0
  7 23  1  0  0  0  0
  8 12  2  0  0  0  0
  8 22  1  0  0  0  0
  9 25  1  0  0  0  0
 10 26  1  0  0  0  0
 11 26  2  0  0  0  0
 12 27  1  0  0  0  0
 13 14  2  0  0  0  0
 13 28  1  0  0  0  0
 14 30  1  0  0  0  0
 15 19  2  0  0  0  0
 15 29  1  0  0  0  0
 16 24  1  0  0  0  0
 16 27  2  0  0  0  0
 17 30  2  0  0  0  0
 17 31  1  0  0  0  0
 18 32  1  0  0  0  0
 19 34  1  0  0  0  0
 20 32  1  0  0  0  0
 20 33  2  0  0  0  0
 20 35  1  0  0  0  0
 21 23  2  0  0  0  0
 21 40  1  0  0  0  0
 22 24  2  0  0  0  0
 22 41  1  0  0  0  0
 23 49  1  0  0  0  0
 24 42  1  0  0  0  0
 25 29  2  0  0  0  0
 25 70  1  0  0  0  0
 26 81  1  0  0  0  0
 27 83  1  0  0  0  0
 28 31  2  0  0  0  0
 28 81  1  0  0  0  0
 29 82  1  0  0  0  0
 30 84  1  0  0  0  0
 31 85  1  0  0  0  0
 32 64  2  0  0  0  0
 33 65  1  0  0  0  0
 33 68  1  0  0  0  0
 34 71  1  0  0  0  0
 34 75  2  0  0  0  0
 35 69  1  0  0  0  0
 35 76  2  0  0  0  0
 36 50  1  0  0  0  0
 36 72  1  0  0  0  0
 36 77  2  0  0  0  0
 37 60  1  0  0  0  0
 37 66  1  0  0  0  0
 37 78  2  0  0  0  0
 38 61  1  0  0  0  0
 38 73  1  0  0  0  0
 38 79  2  0  0  0  0
 39 67  1  0  0  0  0
 39 71  1  0  0  0  0
 39 80  2  0  0  0  0
 40 43  1  0  0  0  0
 41 50  1  0  0  0  0
 42 66  1  0  0  0  0
 43 45  1  0  0  0  0
 44 46  1  0  0  0  0
 44 47  1  0  0  0  0
 45 49  1  0  0  0  0
 46 51  1  0  0  0  0
 47 67  1  0  0  0  0
 48 51  1  0  0  0  0
 48 67  1  0  0  0  0
 49 72  1  0  0  0  0
 50 66  1  0  0  0  0
 51 65  1  0  0  0  0
 52 61  1  0  0  0  0
 53 62  1  0  0  0  0
 54 63  1  0  0  0  0
 55 63  1  0  0  0  0
 56 63  1  0  0  0  0
 57 74  1  0  0  0  0
 58 82  1  0  0  0  0
 59 62  1  0  0  0  0
 59 70  1  0  0  0  0
 60 63  1  0  0  0  0
 60 73  1  0  0  0  0
 61 74  1  0  0  0  0
 62 83  1  0  0  0  0
 64 65  1  0  0  0  0
M  CHG  1  74   1
M  ISO  4  39 100  62 101  71 100  83 101
M  END
> <Batch ID>
0105

> <Smiles>
CNC(C)C(=O)NC(C(=O)N1Cc2cc([101O:1][101CH:1](C)CNc3ccc(C(=O)[100NH:0][100C:0](=O)N4CCCC(n5nc(-c6ccc(Oc7ccc(F)cc7F)cc6)c(C(N)=O)c5N)C4)cc3OC)ccc2CC1C(=O)NC1CCCc2ccccc21)C(C)(C)C

> <Shape>
0.278

> <Color>
0.072

> <Negative vol penalty>
0.000

$$$$

  -OEChem-04052301113D

 85 94  0     1  0  0  0  0  0999 V2000
  -27.6634  -34.4570   16.6827 C   0  0  0  0  0  0  0  0  0  0  0  0
  -27.9510  -33.3691   17.5008 C   0  0  0  0  0  0  0  0  0  0  0  0
  -29.5440  -17.9316   23.8962 C   0  0  0  0  0  0  0  0  0  0  0  0
  -25.1338  -13.2449   23.9506 C   0  0  0  0  0  0  0  0  0  0  0  0
  -24.6641  -15.4217   23.0136 C   0  0  0  0  0  0  0  0  0  0  0  0
  -26.4985  -35.1946   16.8897 C   0  0  0  0  0  0  0  0  0  0  0  0
  -27.0743  -33.0189   18.5270 C   0  0  0  0  0  0  0  0  0  0  0  0
  -26.2253  -28.0310   18.7391 C   0  0  0  0  0  0  0  0  0  0  0  0
  -28.9264  -19.1301   23.5386 C   0  0  0  0  0  0  0  0  0  0  0  0
  -29.7134  -16.9239   22.9468 C   0  0  0  0  0  0  0  0  0  0  0  0
  -24.9147  -13.7493   25.2324 C   0  0  0  0  0  0  0  0  0  0  0  0
  -24.4450  -15.9262   24.2954 C   0  0  0  0  0  0  0  0  0  0  0  0
  -27.2141  -27.2411   19.3240 C   0  0  0  0  0  0  0  0  0  0  0  0
  -26.3109  -16.9613   26.9180 C   0  0  0  0  0  0  0  0  0  0  0  0
  -26.8865  -18.1910   27.2376 C   0  0  0  0  0  0  0  0  0  0  0  0
  -25.9391  -27.1711   21.3706 C   0  0  0  0  0  0  0  0  0  0  0  0
  -28.6475  -18.3130   21.2821 C   0  0  0  0  0  0  0  0  0  0  0  0
  -24.6921  -19.1066   27.6662 C   0  0  0  0  0  0  0  0  0  0  0  0
  -25.0085  -14.0811   22.8411 C   0  0  0  0  0  0  0  0  0  0  0  0
  -24.2827  -12.9845   20.6552 C   0  0  0  0  0  0  0  0  0  0  0  0
  -25.6023  -34.8474   17.9128 C   0  0  0  0  0  0  0  0  0  0  0  0
  -25.0892  -28.4066   19.4703 C   0  0  0  0  0  0  0  0  0  0  0  0
  -25.8970  -33.7534   18.7487 C   0  0  0  0  0  0  0  0  0  0  0  0
  -24.9361  -27.9637   20.7918 C   0  0  0  0  0  0  0  0  0  0  0  0
  -28.4782  -19.3208   22.2316 C   0  0  0  0  0  0  0  0  0  0  0  0
  -29.2652  -17.1146   21.6397 C   0  0  0  0  0  0  0  0  0  0  0  0
  -24.5703  -15.0900   25.4048 C   0  0  0  0  0  0  0  0  0  0  0  0
  -27.0725  -26.8134   20.6409 C   0  0  0  0  0  0  0  0  0  0  0  0
  -24.9260  -16.8042   26.9724 C   0  0  0  0  0  0  0  0  0  0  0  0
  -26.0771  -19.2636   27.6117 C   0  0  0  0  0  0  0  0  0  0  0  0
  -24.1166  -17.8768   27.3465 C   0  0  0  0  0  0  0  0  0  0  0  0
  -25.2353  -13.5607   21.5168 C   0  0  0  0  0  0  0  0  0  0  0  0
  -24.9946  -12.6539   19.5281 C   0  0  0  0  0  0  0  0  0  0  0  0
  -22.8797  -12.7677   20.8557 C   0  0  0  0  0  0  0  0  0  0  0  0
  -23.8470  -31.1737   20.4208 C   0  0  0  0  0  0  0  0  0  0  0  0
  -21.4030  -29.2882   21.4178 C   0  0  0  0  0  0  0  0  0  0  0  0
  -20.3433  -26.1956   22.3974 C   0  0  0  0  0  0  0  0  0  0  0  0
  -30.0313  -14.8429   20.8664 C   0  0  0  0  0  0  0  0  0  0  0  0
  -24.3793  -35.7034   18.1281 C   0  0  0  0  0  0  0  0  0  0  0  0
  -24.0189  -29.2367   18.8163 C   0  0  0  0  0  0  0  0  0  0  0  0
  -23.7257  -28.3225   21.6132 C   0  0  0  0  0  0  0  0  0  0  0  0
  -23.3164  -35.0388   18.9992 C   0  0  0  0  0  0  0  0  0  0  0  0
  -29.0333  -11.3854   20.1644 C   0  0  0  0  0  0  0  0  0  0  0  0
  -23.9531  -34.4200   20.2395 C   0  0  0  0  0  0  0  0  0  0  0  0
  -28.1139  -11.5010   18.9550 C   0  0  0  0  0  0  0  0  0  0  0  0
  -30.0206  -22.9720   20.2989 C   0  0  0  0  0  0  0  0  0  0  0  0
  -30.0943  -12.4754   20.1459 C   0  0  0  0  0  0  0  0  0  0  0  0
  -28.5378  -14.0139   18.9505 C   0  0  0  0  0  0  0  0  0  0  0  0
  -29.9843  -21.6913   21.1168 C   0  0  0  0  0  0  0  0  0  0  0  0
  -28.0650  -23.1169   21.6248 C   0  0  0  0  0  0  0  0  0  0  0  0
  -24.9584  -33.3272   19.8566 C   0  0  1  0  0  0  0  0  0  0  0  0
  -23.1483  -29.9872   19.8194 C   0  0  1  0  0  0  0  0  0  0  0  0
  -29.2253  -23.9657   21.1340 C   0  0  2  0  0  0  0  0  0  0  0  0
  -27.4788  -12.8953   18.8422 C   0  0  2  0  0  0  0  0  0  0  0  0
  -26.5613  -20.9087   22.6752 C   0  0  0  0  0  0  0  0  0  0  0  0
  -18.2995  -24.9724   23.1874 C   0  0  0  0  0  0  0  0  0  0  0  0
  -21.7045  -30.5678   24.1712 C   0  0  0  0  0  0  0  0  0  0  0  0
  -20.3439  -28.6904   25.1158 C   0  0  0  0  0  0  0  0  0  0  0  0
  -19.3396  -30.2312   23.4306 C   0  0  0  0  0  0  0  0  0  0  0  0
  -20.4052  -24.3574   20.0787 C   0  0  0  0  0  0  0  0  0  0  0  0
  -28.7786  -25.1821   20.3516 C   0  0  0  0  0  0  0  0  0  1  0  0
  -27.8091  -20.6195   21.8446 C   0  0  1  0  0  0  0  0  0  0  0  0
  -21.0751  -28.5476   22.6918 C   0  0  1  0  0  0  0  0  0  0  0  0
  -19.1421  -25.3646   21.9837 C   0  0  2  0  0  0  0  0  0  0  0  0
  -20.6396  -29.5039   23.8378 C   0  0  0  0  0  0  0  0  0  0  0  0
  -26.4591  -13.5955   20.9829 N   0  0  0  0  0  0  0  0  0  0  0  0
  -26.2804  -13.0369   19.7737 N   0  0  0  0  0  0  0  0  0  0  0  0
  -22.7098  -29.1412   20.9312 N   0  0  0  0  0  0  0  0  0  0  0  0
  -29.5167  -13.8170   20.0355 N   0  0  0  0  0  0  0  0  0  0  0  0
  -24.6400  -12.0758   18.3609 N   0  0  0  0  0  0  0  0  0  0  0  0
  -22.3089  -13.1672   22.0718 N   0  0  0  0  0  0  0  0  0  0  0  0
  -29.4380  -16.0910   20.6754 N   0  0  0  0  0  0  0  0  0  0  0  0
  -24.2668  -32.1087   19.4940 N   0  0  0  0  0  0  0  0  0  0  0  0
  -20.0750  -27.5467   22.3362 N   0  0  0  0  0  0  0  0  0  0  0  0
  -28.7246  -21.7958   21.9568 N   0  3  1  0  0  0  0  0  0  0  0  0
  -19.5859  -24.1197   21.2950 N   0  3  0  0  0  0  0  0  0  0  0  0
  -22.1569  -12.2204   19.9887 O   0  0  0  0  0  0  0  0  0  0  0  0
  -23.9930  -31.2370   21.6358 O   0  0  0  0  0  0  0  0  0  0  0  0
  -20.5298  -29.9661   20.8705 O   0  0  0  0  0  0  0  0  0  0  0  0
  -21.4114  -25.6960   22.7440 O   0  0  0  0  0  0  0  0  0  0  0  0
  -30.9433  -14.6335   21.6703 O   0  0  0  0  0  0  0  0  0  0  0  0
  -24.3562  -15.5825   26.6555 O   0  0  0  0  0  0  0  0  0  0  0  0
  -28.0364  -26.0429   21.2144 O   0  0  0  0  0  0  0  0  0  1  0  0
  -26.6300  -20.4440   27.9201 F   0  0  0  0  0  0  0  0  0  0  0  0
  -22.7855  -17.7317   27.4017 F   0  0  0  0  0  0  0  0  0  0  0  0
  1  2  1  0  0  0  0
  1  6  2  0  0  0  0
  2  7  2  0  0  0  0
  3  9  2  0  0  0  0
  3 10  1  0  0  0  0
  4 11  2  0  0  0  0
  4 19  1  0  0  0  0
  5 12  1  0  0  0  0
  5 19  2  0  0  0  0
  6 21  1  0  0  0  0
  7 23  1  0  0  0  0
  8 13  2  0  0  0  0
  8 22  1  0  0  0  0
  9 25  1  0  0  0  0
 10 26  2  0  0  0  0
 11 27  1  0  0  0  0
 12 27  2  0  0  0  0
 13 28  1  0  0  0  0
 14 15  2  0  0  0  0
 14 29  1  0  0  0  0
 15 30  1  0  0  0  0
 16 24  1  0  0  0  0
 16 28  2  0  0  0  0
 17 25  2  0  0  0  0
 17 26  1  0  0  0  0
 18 30  2  0  0  0  0
 18 31  1  0  0  0  0
 19 32  1  0  0  0  0
 20 32  1  0  0  0  0
 20 33  2  0  0  0  0
 20 34  1  0  0  0  0
 21 23  2  0  0  0  0
 21 39  1  0  0  0  0
 22 24  2  0  0  0  0
 22 40  1  0  0  0  0
 23 51  1  0  0  0  0
 24 41  1  0  0  0  0
 25 62  1  0  0  0  0
 26 72  1  0  0  0  0
 27 82  1  0  0  0  0
 28 83  1  0  0  0  0
 29 31  2  0  0  0  0
 29 82  1  0  0  0  0
 30 84  1  0  0  0  0
 31 85  1  0  0  0  0
 32 66  2  0  0  0  0
 33 67  1  0  0  0  0
 33 70  1  0  0  0  0
 34 71  1  0  0  0  0
 34 77  2  0  0  0  0
 35 52  1  0  0  0  0
 35 73  1  0  0  0  0
 35 78  2  0  0  0  0
 36 63  1  0  0  0  0
 36 68  1  0  0  0  0
 36 79  2  0  0  0  0
 37 64  1  0  0  0  0
 37 74  1  0  0  0  0
 37 80  2  0  0  0  0
 38 69  1  0  0  0  0
 38 72  1  0  0  0  0
 38 81  2  0  0  0  0
 39 42  1  0  0  0  0
 40 52  1  0  0  0  0
 41 68  1  0  0  0  0
 42 44  1  0  0  0  0
 43 45  1  0  0  0  0
 43 47  1  0  0  0  0
 44 51  1  0  0  0  0
 45 54  1  0  0  0  0
 46 49  1  0  0  0  0
 46 53  1  0  0  0  0
 47 69  1  0  0  0  0
 48 54  1  0  0  0  0
 48 69  1  0  0  0  0
 49 75  1  0  0  0  0
 50 53  1  0  0  0  0
 50 75  1  0  0  0  0
 51 73  1  0  0  0  0
 52 68  1  0  0  0  0
 53 61  1  0  0  0  0
 54 67  1  0  0  0  0
 55 62  1  0  0  0  0
 56 64  1  0  0  0  0
 57 65  1  0  0  0  0
 58 65  1  0  0  0  0
 59 65  1  0  0  0  0
 60 76  1  0  0  0  0
 61 83  1  0  0  0  0
 62 75  1  0  0  0  0
 63 65  1  0  0  0  0
 63 74  1  0  0  0  0
 64 76  1  0  0  0  0
 66 67  1  0  0  0  0
M  CHG  2  75   1  76   1
M  ISO  4  38 100  61 101  72 100  83 101
M  END
> <Batch ID>
0105

> <Smiles>
CNC(C)C(=O)NC(C(=O)N1Cc2cc([101O:1][101CH2:1]C3CCN(C(C)c4cccc([100NH:0][100C:0](=O)N5CCCC(n6nc(-c7ccc(Oc8ccc(F)cc8F)cc7)c(C(N)=O)c6N)C5)c4)C3)ccc2CC1C(=O)NC1CCCc2ccccc21)C(C)(C)C

> <Shape>
0.244

> <Color>
0.063

> <Negative vol penalty>
0.000

$$$$

  -OEChem-04052301113D

 83 91  0     1  0  0  0  0  0999 V2000
  -26.7435  -34.6453   15.2784 C   0  0  0  0  0  0  0  0  0  0  0  0
  -27.2226  -33.4594   15.8256 C   0  0  0  0  0  0  0  0  0  0  0  0
  -24.5199   -8.4048   21.1674 C   0  0  0  0  0  0  0  0  0  0  0  0
  -24.3225  -10.1913   22.7819 C   0  0  0  0  0  0  0  0  0  0  0  0
  -26.2878  -35.6635   16.1147 C   0  0  0  0  0  0  0  0  0  0  0  0
  -27.2472  -33.2914   17.2097 C   0  0  0  0  0  0  0  0  0  0  0  0
  -25.5357  -28.7468   18.6459 C   0  0  0  0  0  0  0  0  0  0  0  0
  -24.1062   -7.4868   22.1326 C   0  0  0  0  0  0  0  0  0  0  0  0
  -23.9086   -9.2732   23.7471 C   0  0  0  0  0  0  0  0  0  0  0  0
  -26.4051  -27.6659   18.5065 C   0  0  0  0  0  0  0  0  0  0  0  0
  -21.1972   -6.4963   23.5432 C   0  0  0  0  0  0  0  0  0  0  0  0
  -20.2438   -5.5490   23.1702 C   0  0  0  0  0  0  0  0  0  0  0  0
  -26.9363  -27.7978   20.8559 C   0  0  0  0  0  0  0  0  0  0  0  0
  -21.7983   -3.7765   23.6984 C   0  0  0  0  0  0  0  0  0  0  0  0
  -24.6281   -9.7571   21.4921 C   0  0  0  0  0  0  0  0  0  0  0  0
  -24.4301  -10.9886   19.2668 C   0  0  0  0  0  0  0  0  0  0  0  0
  -26.2978  -35.5042   17.5094 C   0  0  0  0  0  0  0  0  0  0  0  0
  -25.3681  -29.3694   19.8912 C   0  0  0  0  0  0  0  0  0  0  0  0
  -26.7924  -34.3090   18.0655 C   0  0  0  0  0  0  0  0  0  0  0  0
  -26.0622  -28.8848   21.0090 C   0  0  0  0  0  0  0  0  0  0  0  0
  -23.8005   -7.9210   23.4224 C   0  0  0  0  0  0  0  0  0  0  0  0
  -27.1077  -27.1930   19.6109 C   0  0  0  0  0  0  0  0  0  0  0  0
  -22.4512   -6.0837   23.9937 C   0  0  0  0  0  0  0  0  0  0  0  0
  -20.5443   -4.1891   23.2478 C   0  0  0  0  0  0  0  0  0  0  0  0
  -22.7517   -4.7239   24.0714 C   0  0  0  0  0  0  0  0  0  0  0  0
  -25.0561  -10.7058   20.4956 C   0  0  0  0  0  0  0  0  0  0  0  0
  -25.2209  -11.9539   18.6928 C   0  0  0  0  0  0  0  0  0  0  0  0
  -29.5278  -19.2633   20.9094 C   0  0  0  0  0  0  0  0  0  0  0  0
  -29.2241  -20.5628   22.8950 C   0  0  0  0  0  0  0  0  0  0  0  0
  -29.7862  -18.1414   21.6026 C   0  0  0  0  0  0  0  0  0  0  0  0
  -29.2332  -20.5333   21.5527 C   0  0  0  0  0  0  0  0  0  0  0  0
  -29.7694  -18.2028   23.1015 C   0  0  0  0  0  0  0  0  0  0  0  0
  -23.2402  -10.4290   18.6954 C   0  0  0  0  0  0  0  0  0  0  0  0
  -25.8952  -32.2907   21.0277 C   0  0  0  0  0  0  0  0  0  0  0  0
  -28.4661  -23.8795   20.1926 C   0  0  0  0  0  0  0  0  0  0  0  0
  -28.8742  -15.9511   21.1322 C   0  0  0  0  0  0  0  0  0  0  0  0
  -24.4442  -31.1008   23.6736 C   0  0  0  0  0  0  0  0  0  0  0  0
  -23.6073  -28.3669   25.5370 C   0  0  0  0  0  0  0  0  0  0  0  0
  -25.8391  -36.6513   18.3745 C   0  0  0  0  0  0  0  0  0  0  0  0
  -24.4062  -30.5174   20.0306 C   0  0  0  0  0  0  0  0  0  0  0  0
  -25.9022  -29.5052   22.3721 C   0  0  0  0  0  0  0  0  0  0  0  0
  -25.5498  -36.2479   19.8180 C   0  0  0  0  0  0  0  0  0  0  0  0
  -29.7319  -13.5218   18.5651 C   0  0  0  0  0  0  0  0  0  0  0  0
  -26.6771  -35.3781   20.3654 C   0  0  0  0  0  0  0  0  0  0  0  0
  -28.5746  -12.5309   18.6832 C   0  0  0  0  0  0  0  0  0  0  0  0
  -30.1218  -14.0940   19.9255 C   0  0  0  0  0  0  0  0  0  0  0  0
  -27.8271  -13.7372   20.7806 C   0  0  0  0  0  0  0  0  0  0  0  0
  -26.8121  -34.0794   19.5612 C   0  0  1  0  0  0  0  0  0  0  0  0
  -24.7023  -31.4017   21.2380 C   0  0  1  0  0  0  0  0  0  0  0  0
  -27.3830  -13.1600   19.4261 C   0  0  2  0  0  0  0  0  0  0  0  0
  -22.4546  -27.7132   27.6681 C   0  0  0  0  0  0  0  0  0  0  0  0
  -26.8770  -32.0210   25.2688 C   0  0  0  0  0  0  0  0  0  0  0  0
  -26.1249  -30.5365   27.1394 C   0  0  0  0  0  0  0  0  0  0  0  0
  -24.6792  -32.4267   26.3911 C   0  0  0  0  0  0  0  0  0  0  0  0
  -21.5766  -26.7755   24.0868 C   0  0  0  0  0  0  0  0  0  0  0  0
  -30.0915  -16.8248   20.9628 C   0  0  0  0  0  0  0  0  0  0  0  0
  -28.6878  -22.8946   21.3209 C   0  0  0  0  0  0  0  0  0  0  0  0
  -28.1315  -25.2965   20.6164 C   0  0  0  0  0  0  0  0  0  1  0  0
  -24.9107  -30.3849   24.9182 C   0  0  1  0  0  0  0  0  0  0  0  0
  -22.2953  -27.9450   26.1736 C   0  0  2  0  0  0  0  0  0  0  0  0
  -25.6527  -31.3316   25.9034 C   0  0  0  0  0  0  0  0  0  0  0  0
  -26.1596  -11.4324   20.6915 N   0  0  0  0  0  0  0  0  0  0  0  0
  -26.2332  -12.1814   19.5780 N   0  0  0  0  0  0  0  0  0  0  0  0
  -29.4816  -19.4433   23.6434 N   0  0  0  0  0  0  0  0  0  0  0  0
  -24.9549  -30.6292   22.4560 N   0  0  0  0  0  0  0  0  0  0  0  0
  -28.9543  -14.6589   20.6127 N   0  0  0  0  0  0  0  0  0  0  0  0
  -25.1421  -12.6216   17.5222 N   0  0  0  0  0  0  0  0  0  0  0  0
  -22.0120  -11.0441   18.9739 N   0  0  0  0  0  0  0  0  0  0  0  0
  -28.9896  -21.5926   20.7836 N   0  0  0  0  0  0  0  0  0  0  0  0
  -25.7804  -33.1390   19.9430 N   0  0  0  0  0  0  0  0  0  0  0  0
  -23.7312  -29.7391   25.4840 N   0  0  0  0  0  0  0  0  0  0  0  0
  -21.8002  -26.6839   25.5526 N   0  3  0  0  0  0  0  0  0  0  0  0
  -29.9989  -17.2050   23.7813 O   0  0  0  0  0  0  0  0  0  0  0  0
  -23.2634   -9.4037   17.9730 O   0  0  0  0  0  0  0  0  0  0  0  0
  -26.8486  -32.2138   21.7938 O   0  0  0  0  0  0  0  0  0  0  0  0
  -28.5491  -23.5624   19.0067 O   0  0  0  0  0  0  0  0  0  0  0  0
  -27.8818  -16.4063   21.7068 O   0  0  0  0  0  0  0  0  0  0  0  0
  -23.6502  -32.0391   23.7774 O   0  0  0  0  0  0  0  0  0  0  0  0
  -24.4406  -27.5598   25.1310 O   0  0  0  0  0  0  0  0  0  0  0  0
  -23.3964   -7.0255   24.3644 O   0  0  0  0  0  0  0  0  0  0  0  0
  -27.9574  -26.1385   19.4775 O   0  0  0  0  0  0  0  0  0  1  0  0
  -19.6281   -3.2794   22.8911 F   0  0  0  0  0  0  0  0  0  0  0  0
  -23.9543   -4.3214   24.5046 F   0  0  0  0  0  0  0  0  0  0  0  0
  1  2  1  0  0  0  0
  1  5  2  0  0  0  0
  2  6  2  0  0  0  0
  3  8  2  0  0  0  0
  3 15  1  0  0  0  0
  4  9  1  0  0  0  0
  4 15  2  0  0  0  0
  5 17  1  0  0  0  0
  6 19  1  0  0  0  0
  7 10  2  0  0  0  0
  7 18  1  0  0  0  0
  8 21  1  0  0  0  0
  9 21  2  0  0  0  0
 10 22  1  0  0  0  0
 11 12  2  0  0  0  0
 11 23  1  0  0  0  0
 12 24  1  0  0  0  0
 13 20  1  0  0  0  0
 13 22  2  0  0  0  0
 14 24  2  0  0  0  0
 14 25  1  0  0  0  0
 15 26  1  0  0  0  0
 16 26  1  0  0  0  0
 16 27  2  0  0  0  0
 16 33  1  0  0  0  0
 17 19  2  0  0  0  0
 17 39  1  0  0  0  0
 18 20  2  0  0  0  0
 18 40  1  0  0  0  0
 19 48  1  0  0  0  0
 20 41  1  0  0  0  0
 21 80  1  0  0  0  0
 22 81  1  0  0  0  0
 23 25  2  0  0  0  0
 23 80  1  0  0  0  0
 24 82  1  0  0  0  0
 25 83  1  0  0  0  0
 26 62  2  0  0  0  0
 27 63  1  0  0  0  0
 27 67  1  0  0  0  0
 28 30  2  0  0  0  0
 28 31  1  0  0  0  0
 29 31  2  0  0  0  0
 29 64  1  0  0  0  0
 30 32  1  0  0  0  0
 30 56  1  0  0  0  0
 31 69  1  0  0  0  0
 32 64  1  0  0  0  0
 32 73  2  0  0  0  0
 33 68  1  0  0  0  0
 33 74  2  0  0  0  0
 34 49  1  0  0  0  0
 34 70  1  0  0  0  0
 34 75  2  0  0  0  0
 35 57  1  0  0  0  0
 35 58  1  0  0  0  0
 35 76  2  0  0  0  0
 36 56  1  0  0  0  0
 36 66  1  0  0  0  0
 36 77  2  0  0  0  0
 37 59  1  0  0  0  0
 37 65  1  0  0  0  0
 37 78  2  0  0  0  0
 38 60  1  0  0  0  0
 38 71  1  0  0  0  0
 38 79  2  0  0  0  0
 39 42  1  0  0  0  0
 40 49  1  0  0  0  0
 41 65  1  0  0  0  0
 42 44  1  0  0  0  0
 43 45  1  0  0  0  0
 43 46  1  0  0  0  0
 44 48  1  0  0  0  0
 45 50  1  0  0  0  0
 46 66  1  0  0  0  0
 47 50  1  0  0  0  0
 47 66  1  0  0  0  0
 48 70  1  0  0  0  0
 49 65  1  0  0  0  0
 50 63  1  0  0  0  0
 51 60  1  0  0  0  0
 52 61  1  0  0  0  0
 53 61  1  0  0  0  0
 54 61  1  0  0  0  0
 55 72  1  0  0  0  0
 57 69  1  0  0  0  0
 58 81  1  0  0  0  0
 59 61  1  0  0  0  0
 59 71  1  0  0  0  0
 60 72  1  0  0  0  0
 62 63  1  0  0  0  0
M  CHG  1  72   1
M  ISO  4  36 100  56 100  58 101  81 101
M  END
> <Batch ID>
0105

> <Smiles>
CNC(C)C(=O)NC(C(=O)N1Cc2cc([101O:1][101CH2:1]C(=O)CNc3c[nH]c(=O)c([100CH2:0][100C:0](=O)N4CCCC(n5nc(-c6ccc(Oc7ccc(F)cc7F)cc6)c(C(N)=O)c5N)C4)c3)ccc2CC1C(=O)NC1CCCc2ccccc21)C(C)(C)C

> <Shape>
0.272

> <Color>
0.125

> <Negative vol penalty>
0.000

$$$$

  -OEChem-04052301113D

 85 93  0     1  0  0  0  0  0999 V2000
  -30.0984  -25.2955   16.2912 C   0  0  0  0  0  0  0  0  0  0  0  0
  -28.8607  -25.2059   16.9201 C   0  0  0  0  0  0  0  0  0  0  0  0
  -28.4786  -17.2989   19.6596 C   0  0  0  0  0  0  0  0  0  0  0  0
  -28.6307  -16.6054   21.9689 C   0  0  0  0  0  0  0  0  0  0  0  0
  -31.1437  -25.9828   16.9068 C   0  0  0  0  0  0  0  0  0  0  0  0
  -28.6679  -25.8026   18.1656 C   0  0  0  0  0  0  0  0  0  0  0  0
  -24.2986  -28.3473   18.4451 C   0  0  0  0  0  0  0  0  0  0  0  0
  -29.5807  -16.5028   19.3479 C   0  0  0  0  0  0  0  0  0  0  0  0
  -29.7328  -15.8092   21.6572 C   0  0  0  0  0  0  0  0  0  0  0  0
  -23.1369  -27.5993   18.6318 C   0  0  0  0  0  0  0  0  0  0  0  0
  -32.3644  -13.3138   21.4004 C   0  0  0  0  0  0  0  0  0  0  0  0
  -32.4007  -12.0215   21.9240 C   0  0  0  0  0  0  0  0  0  0  0  0
  -21.8617  -22.6775   23.7183 C   0  0  0  0  0  0  0  0  0  0  0  0
  -21.2739  -21.0269   25.3817 C   0  0  0  0  0  0  0  0  0  0  0  0
  -23.1745  -28.1388   20.9827 C   0  0  0  0  0  0  0  0  0  0  0  0
  -19.7957  -21.4414   23.5162 C   0  0  0  0  0  0  0  0  0  0  0  0
  -30.3429  -11.4969   20.7718 C   0  0  0  0  0  0  0  0  0  0  0  0
  -28.0036  -17.3502   20.9702 C   0  0  0  0  0  0  0  0  0  0  0  0
  -22.1585  -21.9891   24.8946 C   0  0  0  0  0  0  0  0  0  0  0  0
  -25.5095  -17.7952   21.2691 C   0  0  0  0  0  0  0  0  0  0  0  0
  -30.9608  -26.5965   18.1560 C   0  0  0  0  0  0  0  0  0  0  0  0
  -24.9140  -28.9888   19.5296 C   0  0  0  0  0  0  0  0  0  0  0  0
  -29.7122  -26.4976   18.7990 C   0  0  0  0  0  0  0  0  0  0  0  0
  -24.3424  -28.8964   20.8067 C   0  0  0  0  0  0  0  0  0  0  0  0
  -20.6803  -22.4037   23.0291 C   0  0  0  0  0  0  0  0  0  0  0  0
  -30.2078  -15.7580   20.3467 C   0  0  0  0  0  0  0  0  0  0  0  0
  -22.5763  -27.4926   19.9012 C   0  0  0  0  0  0  0  0  0  0  0  0
  -31.3173  -13.6977   20.5625 C   0  0  0  0  0  0  0  0  0  0  0  0
  -20.0925  -20.7530   24.6925 C   0  0  0  0  0  0  0  0  0  0  0  0
  -31.3900  -11.1130   21.6097 C   0  0  0  0  0  0  0  0  0  0  0  0
  -30.3066  -12.7892   20.2482 C   0  0  0  0  0  0  0  0  0  0  0  0
  -26.8655  -18.1728   21.2929 C   0  0  0  0  0  0  0  0  0  0  0  0
  -24.8314  -18.9259   21.6542 C   0  0  0  0  0  0  0  0  0  0  0  0
  -23.3906  -22.2734   25.6132 C   0  0  0  0  0  0  0  0  0  0  0  0
  -24.9160  -16.5351   20.9292 C   0  0  0  0  0  0  0  0  0  0  0  0
  -24.3522  -23.2877   25.1235 C   0  0  0  0  0  0  0  0  0  0  0  0
  -27.7468  -28.7659   20.9543 C   0  0  0  0  0  0  0  0  0  0  0  0
  -26.6671  -31.3219   22.6346 C   0  0  0  0  0  0  0  0  0  0  0  0
  -21.1431  -24.0847   21.2115 C   0  0  0  0  0  0  0  0  0  0  0  0
  -24.0022  -33.1168   23.7850 C   0  0  0  0  0  0  0  0  0  0  0  0
  -32.1341  -27.2881   18.8037 C   0  0  0  0  0  0  0  0  0  0  0  0
  -26.1518  -29.8139   19.3069 C   0  0  0  0  0  0  0  0  0  0  0  0
  -24.9530  -29.5827   22.0003 C   0  0  0  0  0  0  0  0  0  0  0  0
  -31.7382  -28.2119   19.9527 C   0  0  0  0  0  0  0  0  0  0  0  0
  -26.4032  -23.6926   22.2104 C   0  0  0  0  0  0  0  0  0  0  0  0
  -30.7488  -27.5151   20.8813 C   0  0  0  0  0  0  0  0  0  0  0  0
  -26.6265  -22.2578   21.7336 C   0  0  0  0  0  0  0  0  0  0  0  0
  -26.3269  -23.7698   23.7318 C   0  0  0  0  0  0  0  0  0  0  0  0
  -25.5122  -21.4311   23.8550 C   0  0  0  0  0  0  0  0  0  0  0  0
  -29.4568  -27.1528   20.1391 C   0  0  1  0  0  0  0  0  0  0  0  0
  -26.9809  -30.0014   20.5738 C   0  0  1  0  0  0  0  0  0  0  0  0
  -25.5670  -21.3092   22.3222 C   0  0  2  0  0  0  0  0  0  0  0  0
  -23.4341  -35.1353   25.1636 C   0  0  0  0  0  0  0  0  0  0  0  0
  -27.3072  -29.7622   25.1778 C   0  0  0  0  0  0  0  0  0  0  0  0
  -25.8761  -31.3785   26.4459 C   0  0  0  0  0  0  0  0  0  0  0  0
  -27.9164  -32.1864   25.2596 C   0  0  0  0  0  0  0  0  0  0  0  0
  -22.6512  -34.4365   21.5064 C   0  0  0  0  0  0  0  0  0  0  0  0
  -19.5948  -19.1474   26.3748 C   0  0  0  0  0  0  0  0  0  0  0  0
  -20.4504  -24.5745   19.9448 C   0  0  0  0  0  0  0  0  0  0  0  0
  -21.2353  -25.6529   19.2134 C   0  0  0  0  0  0  0  0  0  1  0  0
  -25.8866  -31.5084   23.9133 C   0  0  1  0  0  0  0  0  0  0  0  0
  -23.7059  -34.6055   23.7642 C   0  0  2  0  0  0  0  0  0  0  0  0
  -26.7359  -31.1942   25.1772 C   0  0  0  0  0  0  0  0  0  0  0  0
  -27.0403  -19.4441   21.6637 N   0  0  0  0  0  0  0  0  0  0  0  0
  -23.7305  -21.6694   26.7198 N   0  0  0  0  0  0  0  0  0  0  0  0
  -25.7853  -19.8751   21.8763 N   0  0  0  0  0  0  0  0  0  0  0  0
  -25.3382  -22.8318   24.2597 N   0  0  0  0  0  0  0  0  0  0  0  0
  -26.1663  -30.3726   21.7326 N   0  0  0  0  0  0  0  0  0  0  0  0
  -23.5183  -19.1908   21.8210 N   0  0  0  0  0  0  0  0  0  0  0  0
  -25.7582  -15.4789   20.5558 N   0  0  0  0  0  0  0  0  0  0  0  0
  -20.3796  -23.1017   21.8353 N   0  0  0  0  0  0  0  0  0  0  0  0
  -28.6204  -28.3231   19.9796 N   0  0  0  0  0  0  0  0  0  0  0  0
  -25.3553  -32.8665   23.8729 N   0  0  0  0  0  0  0  0  0  0  0  0
  -22.5127  -34.8844   22.9161 N   0  3  0  0  0  0  0  0  0  0  0  0
  -23.6745  -16.3559   20.9401 O   0  0  0  0  0  0  0  0  0  0  0  0
  -24.1736  -24.4262   25.5360 O   0  0  0  0  0  0  0  0  0  0  0  0
  -27.5601  -28.2533   22.0516 O   0  0  0  0  0  0  0  0  0  0  0  0
  -27.6797  -31.9989   22.4400 O   0  0  0  0  0  0  0  0  0  0  0  0
  -22.2235  -24.5334   21.5798 O   0  0  0  0  0  0  0  0  0  0  0  0
  -23.1212  -32.2615   23.7327 O   0  0  0  0  0  0  0  0  0  0  0  0
  -31.2831  -14.9808   20.0428 O   0  0  0  0  0  0  0  0  0  0  0  0
  -19.2294  -19.8140   25.1672 O   0  0  0  0  0  0  0  0  0  0  0  0
  -21.4429  -26.7626   20.0862 O   0  0  0  0  0  0  0  0  0  1  0  0
  -31.4258   -9.8716   22.1114 F   0  0  0  0  0  0  0  0  0  0  0  0
  -29.2988  -13.1519   19.4429 F   0  0  0  0  0  0  0  0  0  0  0  0
  1  2  1  0  0  0  0
  1  5  2  0  0  0  0
  2  6  2  0  0  0  0
  3  8  2  0  0  0  0
  3 18  1  0  0  0  0
  4  9  1  0  0  0  0
  4 18  2  0  0  0  0
  5 21  1  0  0  0  0
  6 23  1  0  0  0  0
  7 10  2  0  0  0  0
  7 22  1  0  0  0  0
  8 26  1  0  0  0  0
  9 26  2  0  0  0  0
 10 27  1  0  0  0  0
 11 12  2  0  0  0  0
 11 28  1  0  0  0  0
 12 30  1  0  0  0  0
 13 19  1  0  0  0  0
 13 25  2  0  0  0  0
 14 19  2  0  0  0  0
 14 29  1  0  0  0  0
 15 24  1  0  0  0  0
 15 27  2  0  0  0  0
 16 25  1  0  0  0  0
 16 29  2  0  0  0  0
 17 30  2  0  0  0  0
 17 31  1  0  0  0  0
 18 32  1  0  0  0  0
 19 34  1  0  0  0  0
 20 32  1  0  0  0  0
 20 33  2  0  0  0  0
 20 35  1  0  0  0  0
 21 23  2  0  0  0  0
 21 41  1  0  0  0  0
 22 24  2  0  0  0  0
 22 42  1  0  0  0  0
 23 50  1  0  0  0  0
 24 43  1  0  0  0  0
 25 71  1  0  0  0  0
 26 81  1  0  0  0  0
 27 83  1  0  0  0  0
 28 31  2  0  0  0  0
 28 81  1  0  0  0  0
 29 82  1  0  0  0  0
 30 84  1  0  0  0  0
 31 85  1  0  0  0  0
 32 64  2  0  0  0  0
 33 66  1  0  0  0  0
 33 69  1  0  0  0  0
 34 36  1  0  0  0  0
 34 65  2  0  0  0  0
 35 70  1  0  0  0  0
 35 75  2  0  0  0  0
 36 67  1  0  0  0  0
 36 76  2  0  0  0  0
 37 51  1  0  0  0  0
 37 72  1  0  0  0  0
 37 77  2  0  0  0  0
 38 61  1  0  0  0  0
 38 68  1  0  0  0  0
 38 78  2  0  0  0  0
 39 59  1  0  0  0  0
 39 71  1  0  0  0  0
 39 79  2  0  0  0  0
 40 62  1  0  0  0  0
 40 73  1  0  0  0  0
 40 80  2  0  0  0  0
 41 44  1  0  0  0  0
 42 51  1  0  0  0  0
 43 68  1  0  0  0  0
 44 46  1  0  0  0  0
 45 47  1  0  0  0  0
 45 48  1  0  0  0  0
 46 50  1  0  0  0  0
 47 52  1  0  0  0  0
 48 67  1  0  0  0  0
 49 52  1  0  0  0  0
 49 67  1  0  0  0  0
 50 72  1  0  0  0  0
 51 68  1  0  0  0  0
 52 66  1  0  0  0  0
 53 62  1  0  0  0  0
 54 63  1  0  0  0  0
 55 63  1  0  0  0  0
 56 63  1  0  0  0  0
 57 74  1  0  0  0  0
 58 82  1  0  0  0  0
 59 60  1  0  0  0  0
 60 83  1  0  0  0  0
 61 63  1  0  0  0  0
 61 73  1  0  0  0  0
 62 74  1  0  0  0  0
 64 66  1  0  0  0  0
M  CHG  1  74   1
M  ISO  4  34 100  36 100  60 101  83 101
M  END
> <Batch ID>
0105

> <Smiles>
CNC(C)C(=O)NC(C(=O)N1Cc2cc([101O:1][101CH2:1]CC(=O)Nc3cc(OC)cc([100C:0](=N)[100C:0](=O)N4CCCC(n5nc(-c6ccc(Oc7ccc(F)cc7F)cc6)c(C(N)=O)c5N)C4)c3)ccc2CC1C(=O)NC1CCCc2ccccc21)C(C)(C)C

> <Shape>
0.214

> <Color>
0.072

> <Negative vol penalty>
0.000

$$$$

  -OEChem-04052301113D

 83 91  0     1  0  0  0  0  0999 V2000
  -30.3023  -21.6389   23.1181 C   0  0  0  0  0  0  0  0  0  0  0  0
  -29.1612  -20.8934   22.8396 C   0  0  0  0  0  0  0  0  0  0  0  0
  -27.7231  -23.0985   20.1123 C   0  0  0  0  0  0  0  0  0  0  0  0
  -29.6913  -23.5642   18.7907 C   0  0  0  0  0  0  0  0  0  0  0  0
  -30.2246  -22.7368   23.9739 C   0  0  0  0  0  0  0  0  0  0  0  0
  -27.9419  -21.2447   23.4177 C   0  0  0  0  0  0  0  0  0  0  0  0
  -24.1193  -21.1521   20.0975 C   0  0  0  0  0  0  0  0  0  0  0  0
  -27.6044  -24.4553   20.4136 C   0  0  0  0  0  0  0  0  0  0  0  0
  -29.5726  -24.9210   19.0920 C   0  0  0  0  0  0  0  0  0  0  0  0
  -23.5941  -19.9039   19.7658 C   0  0  0  0  0  0  0  0  0  0  0  0
  -26.4712  -27.2548   18.8933 C   0  0  0  0  0  0  0  0  0  0  0  0
  -25.2039  -27.8305   18.8027 C   0  0  0  0  0  0  0  0  0  0  0  0
  -21.7670  -20.2725   21.2971 C   0  0  0  0  0  0  0  0  0  0  0  0
  -25.2883  -14.2407   20.8469 C   0  0  0  0  0  0  0  0  0  0  0  0
  -25.3046  -28.4204   21.1434 C   0  0  0  0  0  0  0  0  0  0  0  0
  -28.7666  -22.6530   19.3009 C   0  0  0  0  0  0  0  0  0  0  0  0
  -28.3190  -20.5695   17.8986 C   0  0  0  0  0  0  0  0  0  0  0  0
  -29.0018  -23.1076   24.5552 C   0  0  0  0  0  0  0  0  0  0  0  0
  -23.4770  -21.9666   21.0411 C   0  0  0  0  0  0  0  0  0  0  0  0
  -27.8480  -22.3479   24.2832 C   0  0  0  0  0  0  0  0  0  0  0  0
  -22.2846  -21.5317   21.6371 C   0  0  0  0  0  0  0  0  0  0  0  0
  -28.5291  -25.3665   19.9035 C   0  0  0  0  0  0  0  0  0  0  0  0
  -22.4193  -19.4627   20.3678 C   0  0  0  0  0  0  0  0  0  0  0  0
  -27.1551  -27.2618   20.1090 C   0  0  0  0  0  0  0  0  0  0  0  0
  -24.0294  -13.6113   20.6981 C   0  0  0  0  0  0  0  0  0  0  0  0
  -24.6206  -28.4133   19.9277 C   0  0  0  0  0  0  0  0  0  0  0  0
  -26.5718  -27.8446   21.2340 C   0  0  0  0  0  0  0  0  0  0  0  0
  -28.8900  -21.2516   18.9897 C   0  0  0  0  0  0  0  0  0  0  0  0
  -26.2286  -13.2414   20.7514 C   0  0  0  0  0  0  0  0  0  0  0  0
  -24.2902  -12.2723   20.5220 C   0  0  0  0  0  0  0  0  0  0  0  0
  -28.7314  -19.2685   18.0529 C   0  0  0  0  0  0  0  0  0  0  0  0
  -27.4899  -21.0674   16.8401 C   0  0  0  0  0  0  0  0  0  0  0  0
  -27.7118  -13.2768   20.8263 C   0  0  0  0  0  0  0  0  0  0  0  0
  -24.2690  -23.1703   23.8745 C   0  0  0  0  0  0  0  0  0  0  0  0
  -21.4345  -24.7186   23.5734 C   0  0  0  0  0  0  0  0  0  0  0  0
  -18.3249  -24.8230   22.1711 C   0  0  0  0  0  0  0  0  0  0  0  0
  -29.6448  -14.7823   21.1735 C   0  0  0  0  0  0  0  0  0  0  0  0
  -28.9765  -24.2738   25.5112 C   0  0  0  0  0  0  0  0  0  0  0  0
  -24.0419  -23.3217   21.3682 C   0  0  0  0  0  0  0  0  0  0  0  0
  -21.5457  -22.3768   22.6413 C   0  0  0  0  0  0  0  0  0  0  0  0
  -27.5722  -24.8047   25.7875 C   0  0  0  0  0  0  0  0  0  0  0  0
  -32.1766  -17.2495   21.1688 C   0  0  0  0  0  0  0  0  0  0  0  0
  -26.6138  -23.6538   26.0768 C   0  0  0  0  0  0  0  0  0  0  0  0
  -31.5052  -18.4546   20.5044 C   0  0  0  0  0  0  0  0  0  0  0  0
  -31.2074  -16.4855   22.0698 C   0  0  0  0  0  0  0  0  0  0  0  0
  -29.2776  -17.2928   20.7728 C   0  0  0  0  0  0  0  0  0  0  0  0
  -26.5022  -22.7124   24.8714 C   0  0  1  0  0  0  0  0  0  0  0  0
  -23.5820  -23.8496   22.7236 C   0  0  1  0  0  0  0  0  0  0  0  0
  -30.1930  -18.0542   19.8005 C   0  0  1  0  0  0  0  0  0  0  0  0
  -23.4331  -11.0957   20.3151 C   0  0  0  0  0  0  0  0  0  0  0  0
  -16.2207  -26.1901   22.1449 C   0  0  0  0  0  0  0  0  0  0  0  0
  -20.6726  -23.5939   26.3055 C   0  0  0  0  0  0  0  0  0  0  0  0
  -18.2900  -24.1769   25.8036 C   0  0  0  0  0  0  0  0  0  0  0  0
  -20.0112  -25.9775   25.9373 C   0  0  0  0  0  0  0  0  0  0  0  0
  -18.5739  -25.3629   19.2719 C   0  0  0  0  0  0  0  0  0  0  0  0
  -21.2824  -16.0605   20.8611 C   0  0  0  0  0  0  0  0  0  0  0  0
  -21.1661  -17.5636   21.0597 C   0  0  0  0  0  0  0  0  0  1  0  0
  -22.7274  -15.5898   20.9133 C   0  0  0  0  0  0  0  0  0  0  0  0
  -20.0047  -24.4142   23.9503 C   0  0  1  0  0  0  0  0  0  0  0  0
  -17.5674  -25.9442   21.4828 C   0  0  2  0  0  0  0  0  0  0  0  0
  -19.7594  -24.5236   25.4817 C   0  0  0  0  0  0  0  0  0  0  0  0
  -29.6102  -20.4501   19.7790 N   0  0  0  0  0  0  0  0  0  0  0  0
  -29.4945  -19.2510   19.1833 N   0  0  0  0  0  0  0  0  0  0  0  0
  -22.1414  -23.6912   22.9326 N   0  0  0  0  0  0  0  0  0  0  0  0
  -29.9959  -16.1350   21.3264 N   0  0  0  0  0  0  0  0  0  0  0  0
  -28.5122  -18.1493   17.3307 N   0  0  0  0  0  0  0  0  0  0  0  0
  -27.1618  -22.4300   16.8330 N   0  0  0  0  0  0  0  0  0  0  0  0
  -28.2747  -14.5371   21.0292 N   0  0  0  0  0  0  0  0  0  0  0  0
  -25.6456  -23.2891   23.8574 N   0  0  0  0  0  0  0  0  0  0  0  0
  -19.1726  -25.3033   23.1468 N   0  0  0  0  0  0  0  0  0  0  0  0
  -17.3323  -25.6071   20.0503 N   0  3  0  0  0  0  0  0  0  0  0  0
  -27.0394  -20.3228   15.9367 O   0  0  0  0  0  0  0  0  0  0  0  0
  -28.3398  -12.2244   20.7482 O   0  0  0  0  0  0  0  0  0  0  0  0
  -23.5995  -22.5832   24.7164 O   0  0  0  0  0  0  0  0  0  0  0  0
  -21.9044  -25.8295   23.8314 O   0  0  0  0  0  0  0  0  0  0  0  0
  -18.1764  -23.6393   21.8756 O   0  0  0  0  0  0  0  0  0  0  0  0
  -30.4813  -13.8747   21.1308 O   0  0  0  0  0  0  0  0  0  0  0  0
  -25.6284  -12.0385   20.5532 O   0  0  0  0  0  0  0  0  0  0  0  0
  -28.4135  -26.6905   20.1971 O   0  0  0  0  0  0  0  0  0  0  0  0
  -21.9049  -18.2446   20.0463 O   0  0  0  0  0  0  0  0  0  1  0  0
  -22.7839  -14.1831   20.7185 O   0  0  0  0  0  0  0  0  0  0  0  0
  -23.4044  -28.9676   19.8402 F   0  0  0  0  0  0  0  0  0  0  0  0
  -27.2245  -27.8555   22.4043 F   0  0  0  0  0  0  0  0  0  0  0  0
  1  2  1  0  0  0  0
  1  5  2  0  0  0  0
  2  6  2  0  0  0  0
  3  8  2  0  0  0  0
  3 16  1  0  0  0  0
  4  9  1  0  0  0  0
  4 16  2  0  0  0  0
  5 18  1  0  0  0  0
  6 20  1  0  0  0  0
  7 10  2  0  0  0  0
  7 19  1  0  0  0  0
  8 22  1  0  0  0  0
  9 22  2  0  0  0  0
 10 23  1  0  0  0  0
 11 12  2  0  0  0  0
 11 24  1  0  0  0  0
 12 26  1  0  0  0  0
 13 21  1  0  0  0  0
 13 23  2  0  0  0  0
 14 25  1  0  0  0  0
 14 29  2  0  0  0  0
 15 26  2  0  0  0  0
 15 27  1  0  0  0  0
 16 28  1  0  0  0  0
 17 28  1  0  0  0  0
 17 31  2  0  0  0  0
 17 32  1  0  0  0  0
 18 20  2  0  0  0  0
 18 38  1  0  0  0  0
 19 21  2  0  0  0  0
 19 39  1  0  0  0  0
 20 47  1  0  0  0  0
 21 40  1  0  0  0  0
 22 79  1  0  0  0  0
 23 80  1  0  0  0  0
 24 27  2  0  0  0  0
 24 79  1  0  0  0  0
 25 30  2  0  0  0  0
 25 81  1  0  0  0  0
 26 82  1  0  0  0  0
 27 83  1  0  0  0  0
 28 62  2  0  0  0  0
 29 33  1  0  0  0  0
 29 78  1  0  0  0  0
 30 50  1  0  0  0  0
 30 78  1  0  0  0  0
 31 63  1  0  0  0  0
 31 66  1  0  0  0  0
 32 67  1  0  0  0  0
 32 72  2  0  0  0  0
 33 68  1  0  0  0  0
 33 73  2  0  0  0  0
 34 48  1  0  0  0  0
 34 69  1  0  0  0  0
 34 74  2  0  0  0  0
 35 59  1  0  0  0  0
 35 64  1  0  0  0  0
 35 75  2  0  0  0  0
 36 60  1  0  0  0  0
 36 70  1  0  0  0  0
 36 76  2  0  0  0  0
 37 65  1  0  0  0  0
 37 68  1  0  0  0  0
 37 77  2  0  0  0  0
 38 41  1  0  0  0  0
 39 48  1  0  0  0  0
 40 64  1  0  0  0  0
 41 43  1  0  0  0  0
 42 44  1  0  0  0  0
 42 45  1  0  0  0  0
 43 47  1  0  0  0  0
 44 49  1  0  0  0  0
 45 65  1  0  0  0  0
 46 49  1  0  0  0  0
 46 65  1  0  0  0  0
 47 69  1  0  0  0  0
 48 64  1  0  0  0  0
 49 63  1  0  0  0  0
 51 60  1  0  0  0  0
 52 61  1  0  0  0  0
 53 61  1  0  0  0  0
 54 61  1  0  0  0  0
 55 71  1  0  0  0  0
 56 57  1  0  0  0  0
 56 58  1  0  0  0  0
 57 80  1  0  0  0  0
 58 81  1  0  0  0  0
 59 61  1  0  0  0  0
 59 70  1  0  0  0  0
 60 71  1  0  0  0  0
 62 63  1  0  0  0  0
M  CHG  1  71   1
M  ISO  4  37 100  57 101  68 100  80 101
M  END
> <Batch ID>
0105

> <Smiles>
CNC(C)C(=O)NC(C(=O)N1Cc2cc([101O:1][101CH2:1]CCOc3cc(C(=O)[100NH:0][100C:0](=O)N4CCCC(n5nc(-c6ccc(Oc7ccc(F)cc7F)cc6)c(C(N)=O)c5N)C4)oc3C)ccc2CC1C(=O)NC1CCCc2ccccc21)C(C)(C)C

> <Shape>
0.199

> <Color>
0.098

> <Negative vol penalty>
0.000

$$$$

  -OEChem-04052301113D

 90 99  0     1  0  0  0  0  0999 V2000
  -32.3630  -10.9525   21.0606 C   0  0  0  0  0  0  0  0  0  0  0  0
  -32.2144  -12.1359   21.7767 C   0  0  0  0  0  0  0  0  0  0  0  0
  -27.3295  -24.1131   21.9233 C   0  0  0  0  0  0  0  0  0  0  0  0
  -26.3749  -23.9720   19.7084 C   0  0  0  0  0  0  0  0  0  0  0  0
  -31.4448  -10.6215   20.0650 C   0  0  0  0  0  0  0  0  0  0  0  0
  -31.1480  -12.9897   21.4968 C   0  0  0  0  0  0  0  0  0  0  0  0
  -26.7035  -17.6061   24.6985 C   0  0  0  0  0  0  0  0  0  0  0  0
  -22.5442  -26.9692   23.9075 C   0  0  0  0  0  0  0  0  0  0  0  0
  -22.8505  -28.3294   23.9483 C   0  0  0  0  0  0  0  0  0  0  0  0
  -27.1383  -22.7419   22.0931 C   0  0  0  0  0  0  0  0  0  0  0  0
  -26.1838  -22.6007   19.8781 C   0  0  0  0  0  0  0  0  0  0  0  0
  -26.2422  -18.9163   24.5788 C   0  0  0  0  0  0  0  0  0  0  0  0
  -28.0552  -19.7903   19.7369 C   0  0  0  0  0  0  0  0  0  0  0  0
  -28.4160  -18.9517   18.6823 C   0  0  0  0  0  0  0  0  0  0  0  0
  -24.6729  -18.2031   22.8913 C   0  0  0  0  0  0  0  0  0  0  0  0
  -24.4350  -26.5006   25.3367 C   0  0  0  0  0  0  0  0  0  0  0  0
  -26.1381  -18.1606   18.5321 C   0  0  0  0  0  0  0  0  0  0  0  0
  -26.9477  -24.7282   20.7310 C   0  0  0  0  0  0  0  0  0  0  0  0
  -28.2799  -26.7859   20.0247 C   0  0  0  0  0  0  0  0  0  0  0  0
  -30.3611  -11.4669   19.7794 C   0  0  0  0  0  0  0  0  0  0  0  0
  -26.1596  -16.5848   23.9064 C   0  0  0  0  0  0  0  0  0  0  0  0
  -30.2152  -12.6703   20.4955 C   0  0  0  0  0  0  0  0  0  0  0  0
  -25.1273  -16.8803   23.0047 C   0  0  0  0  0  0  0  0  0  0  0  0
  -23.3364  -26.0548   24.6018 C   0  0  0  0  0  0  0  0  0  0  0  0
  -23.9490  -28.7752   24.6832 C   0  0  0  0  0  0  0  0  0  0  0  0
  -26.5655  -21.9857   21.0705 C   0  0  0  0  0  0  0  0  0  0  0  0
  -25.2287  -19.2155   23.6730 C   0  0  0  0  0  0  0  0  0  0  0  0
  -26.7358  -19.8140   20.1892 C   0  0  0  0  0  0  0  0  0  0  0  0
  -24.7412  -27.8608   25.3775 C   0  0  0  0  0  0  0  0  0  0  0  0
  -27.4575  -18.1369   18.0799 C   0  0  0  0  0  0  0  0  0  0  0  0
  -25.7773  -18.9991   19.5868 C   0  0  0  0  0  0  0  0  0  0  0  0
  -27.1444  -26.1447   20.5552 C   0  0  0  0  0  0  0  0  0  0  0  0
  -27.9719  -28.1236   20.0713 C   0  0  0  0  0  0  0  0  0  0  0  0
  -23.9815  -23.6722   24.6656 C   0  0  0  0  0  0  0  0  0  0  0  0
  -23.7643  -22.3494   24.6704 C   0  0  0  0  0  0  0  0  0  0  0  0
  -22.3433  -21.9024   24.6387 C   0  0  0  0  0  0  0  0  0  0  0  0
  -29.5036  -26.2227   19.5338 C   0  0  0  0  0  0  0  0  0  0  0  0
  -27.3070  -14.6057   21.6994 C   0  0  0  0  0  0  0  0  0  0  0  0
  -24.3369  -13.3131   21.8737 C   0  0  0  0  0  0  0  0  0  0  0  0
  -21.0391  -13.7247   22.6494 C   0  0  0  0  0  0  0  0  0  0  0  0
  -23.9374  -31.0294   23.6279 C   0  0  0  0  0  0  0  0  0  0  0  0
  -29.4210  -11.0898   18.6619 C   0  0  0  0  0  0  0  0  0  0  0  0
  -26.6498  -15.1718   24.0666 C   0  0  0  0  0  0  0  0  0  0  0  0
  -24.4960  -15.8164   22.1456 C   0  0  0  0  0  0  0  0  0  0  0  0
  -21.2681  -22.9534   24.8185 C   0  0  0  0  0  0  0  0  0  0  0  0
  -28.1073  -11.8668   18.6828 C   0  0  0  0  0  0  0  0  0  0  0  0
  -24.2591  -31.1293   19.9541 C   0  0  0  0  0  0  0  0  0  0  0  0
  -28.3704  -13.3548   18.8911 C   0  0  0  0  0  0  0  0  0  0  0  0
  -25.0797  -29.8771   19.6500 C   0  0  0  0  0  0  0  0  0  0  0  0
  -21.6458  -24.3000   24.2070 C   0  0  0  0  0  0  0  0  0  0  0  0
  -23.4081  -30.9584   21.2089 C   0  0  0  0  0  0  0  0  0  0  0  0
  -25.0095  -29.2983   22.1087 C   0  0  0  0  0  0  0  0  0  0  0  0
  -29.0575  -13.6103   20.2380 C   0  0  1  0  0  0  0  0  0  0  0  0
  -26.3794  -14.3031   22.8421 C   0  0  1  0  0  0  0  0  0  0  0  0
  -25.9103  -29.4547   20.8742 C   0  0  1  0  0  0  0  0  0  0  0  0
  -29.5501  -28.2903   25.6868 C   0  0  0  0  0  0  0  0  0  0  0  0
  -18.8482  -12.5010   22.6509 C   0  0  0  0  0  0  0  0  0  0  0  0
  -24.1467  -13.6549   18.8477 C   0  0  0  0  0  0  0  0  0  0  0  0
  -21.6718  -13.3273   19.0362 C   0  0  0  0  0  0  0  0  0  0  0  0
  -23.2256  -11.4972   19.7138 C   0  0  0  0  0  0  0  0  0  0  0  0
  -24.6704  -30.7834   25.9884 C   0  0  0  0  0  0  0  0  0  0  0  0
  -20.7491  -14.0103   25.5809 C   0  0  0  0  0  0  0  0  0  0  0  0
  -24.8410  -21.3164   24.7178 C   0  0  0  0  0  0  0  0  0  1  0  0
  -28.1640  -28.7737   26.0740 C   0  0  0  0  0  0  0  0  0  0  0  0
  -27.0912  -27.7530   25.7263 C   0  0  0  0  0  0  0  0  0  0  0  0
  -23.0232  -13.5539   21.1701 C   0  0  1  0  0  0  0  0  0  0  0  0
  -20.0810  -12.8712   23.4607 C   0  0  2  0  0  0  0  0  0  0  0  0
  -23.0298  -13.0289   19.7066 C   0  0  0  0  0  0  0  0  0  0  0  0
  -26.1867  -27.0043   20.9126 N   0  0  0  0  0  0  0  0  0  0  0  0
  -26.7196  -28.1994   20.6063 N   0  0  0  0  0  0  0  0  0  0  0  0
  -23.0244  -24.6704   24.5609 N   0  0  0  0  0  0  0  0  0  0  0  0
  -25.0139  -14.4512   22.3344 N   0  0  0  0  0  0  0  0  0  0  0  0
  -24.2140  -30.5126   22.3462 N   0  0  0  0  0  0  0  0  0  0  0  0
  -28.6529  -29.2307   19.7065 N   0  0  0  0  0  0  0  0  0  0  0  0
  -29.6550  -24.8296   19.5581 N   0  0  0  0  0  0  0  0  0  0  0  0
  -28.0963  -13.5377   21.3175 N   0  0  0  0  0  0  0  0  0  0  0  0
  -21.9929  -12.9582   22.0139 N   0  0  0  0  0  0  0  0  0  0  0  0
  -24.2524  -30.1865   24.7157 N   0  0  0  0  0  0  0  0  0  0  0  0
  -19.6393  -13.6051   24.6803 N   0  3  0  0  0  0  0  0  0  0  0  0
  -22.0605  -20.7096   24.5427 O   0  0  0  0  0  0  0  0  0  0  0  0
  -30.4417  -26.9347   19.1019 O   0  0  0  0  0  0  0  0  0  0  0  0
  -27.3055  -15.7248   21.2002 O   0  0  0  0  0  0  0  0  0  0  0  0
  -24.7438  -12.1573   22.0159 O   0  0  0  0  0  0  0  0  0  0  0  0
  -20.9480  -14.9485   22.5829 O   0  0  0  0  0  0  0  0  0  0  0  0
  -23.4741  -32.1650   23.7875 O   0  0  0  0  0  0  0  0  0  0  0  0
  -26.3790  -20.6476   21.2358 O   0  0  0  0  0  0  0  0  0  0  0  0
  -24.7770  -20.4936   23.5537 O   0  0  0  0  0  0  0  0  0  1  0  0
  -25.8189  -28.2754   26.1022 O   0  0  0  0  0  0  0  0  0  0  0  0
  -27.8038  -17.3328   17.0661 F   0  0  0  0  0  0  0  0  0  0  0  0
  -24.5080  -19.0184   20.0161 F   0  0  0  0  0  0  0  0  0  0  0  0
  1  2  1  0  0  0  0
  1  5  2  0  0  0  0
  2  6  2  0  0  0  0
  3 10  2  0  0  0  0
  3 18  1  0  0  0  0
  4 11  1  0  0  0  0
  4 18  2  0  0  0  0
  5 20  1  0  0  0  0
  6 22  1  0  0  0  0
  7 12  2  0  0  0  0
  7 21  1  0  0  0  0
  8  9  2  0  0  0  0
  8 24  1  0  0  0  0
  9 25  1  0  0  0  0
 10 26  1  0  0  0  0
 11 26  2  0  0  0  0
 12 27  1  0  0  0  0
 13 14  2  0  0  0  0
 13 28  1  0  0  0  0
 14 30  1  0  0  0  0
 15 23  1  0  0  0  0
 15 27  2  0  0  0  0
 16 24  2  0  0  0  0
 16 29  1  0  0  0  0
 17 30  2  0  0  0  0
 17 31  1  0  0  0  0
 18 32  1  0  0  0  0
 19 32  1  0  0  0  0
 19 33  2  0  0  0  0
 19 37  1  0  0  0  0
 20 22  2  0  0  0  0
 20 42  1  0  0  0  0
 21 23  2  0  0  0  0
 21 43  1  0  0  0  0
 22 53  1  0  0  0  0
 23 44  1  0  0  0  0
 24 71  1  0  0  0  0
 25 29  2  0  0  0  0
 25 78  1  0  0  0  0
 26 86  1  0  0  0  0
 27 87  1  0  0  0  0
 28 31  2  0  0  0  0
 28 86  1  0  0  0  0
 29 88  1  0  0  0  0
 30 89  1  0  0  0  0
 31 90  1  0  0  0  0
 32 69  2  0  0  0  0
 33 70  1  0  0  0  0
 33 74  1  0  0  0  0
 34 35  2  0  0  0  0
 34 71  1  0  0  0  0
 35 36  1  0  0  0  0
 35 63  1  0  0  0  0
 36 45  1  0  0  0  0
 36 80  2  0  0  0  0
 37 75  1  0  0  0  0
 37 81  2  0  0  0  0
 38 54  1  0  0  0  0
 38 76  1  0  0  0  0
 38 82  2  0  0  0  0
 39 66  1  0  0  0  0
 39 72  1  0  0  0  0
 39 83  2  0  0  0  0
 40 67  1  0  0  0  0
 40 77  1  0  0  0  0
 40 84  2  0  0  0  0
 41 73  1  0  0  0  0
 41 78  1  0  0  0  0
 41 85  2  0  0  0  0
 42 46  1  0  0  0  0
 43 54  1  0  0  0  0
 44 72  1  0  0  0  0
 45 50  1  0  0  0  0
 46 48  1  0  0  0  0
 47 49  1  0  0  0  0
 47 51  1  0  0  0  0
 48 53  1  0  0  0  0
 49 55  1  0  0  0  0
 50 71  1  0  0  0  0
 51 73  1  0  0  0  0
 52 55  1  0  0  0  0
 52 73  1  0  0  0  0
 53 76  1  0  0  0  0
 54 72  1  0  0  0  0
 55 70  1  0  0  0  0
 56 64  1  0  0  0  0
 57 67  1  0  0  0  0
 58 68  1  0  0  0  0
 59 68  1  0  0  0  0
 60 68  1  0  0  0  0
 61 78  1  0  0  0  0
 62 79  1  0  0  0  0
 63 87  1  0  0  0  0
 64 65  1  0  0  0  0
 65 88  1  0  0  0  0
 66 68  1  0  0  0  0
 66 77  1  0  0  0  0
 67 79  1  0  0  0  0
 69 70  1  0  0  0  0
M  CHG  1  79   1
M  ISO  4  41 100  63 101  78 100  87 101
M  END
> <Batch ID>
0105

> <Smiles>
CCCOc1cc(N2C=C([101CH2:1][101O:1]c3ccc4c(c3)CN(C(=O)C(NC(=O)C(C)NC)C(C)(C)C)C(C(=O)NC3CCCc5ccccc53)C4)C(=O)CC2)ccc1[100N:0](C)[100C:0](=O)N1CCCC(n2nc(-c3ccc(Oc4ccc(F)cc4F)cc3)c(C(N)=O)c2N)C1

> <Shape>
0.200

> <Color>
0.074

> <Negative vol penalty>
0.000

$$$$

  -OEChem-04052301113D

 85 94  0     1  0  0  0  0  0999 V2000
  -17.1249  -30.0141   23.9003 C   0  0  0  0  0  0  0  0  0  0  0  0
  -18.4497  -30.4379   23.9282 C   0  0  0  0  0  0  0  0  0  0  0  0
  -23.9368  -13.0779   20.1204 C   0  0  0  0  0  0  0  0  0  0  0  0
  -25.6610  -13.4652   21.7679 C   0  0  0  0  0  0  0  0  0  0  0  0
  -16.8138  -28.7314   23.4511 C   0  0  0  0  0  0  0  0  0  0  0  0
  -19.4643  -29.5787   23.5077 C   0  0  0  0  0  0  0  0  0  0  0  0
  -25.8622  -29.6501   20.2862 C   0  0  0  0  0  0  0  0  0  0  0  0
  -29.8251  -24.3535   20.6311 C   0  0  0  0  0  0  0  0  0  0  0  0
  -29.2762  -23.2871   19.9190 C   0  0  0  0  0  0  0  0  0  0  0  0
  -23.9752  -11.7122   20.4012 C   0  0  0  0  0  0  0  0  0  0  0  0
  -25.6993  -12.0994   22.0488 C   0  0  0  0  0  0  0  0  0  0  0  0
  -27.1644  -29.1858   20.4669 C   0  0  0  0  0  0  0  0  0  0  0  0
  -23.8805   -9.8708   23.8224 C   0  0  0  0  0  0  0  0  0  0  0  0
  -23.9093   -9.4870   25.1631 C   0  0  0  0  0  0  0  0  0  0  0  0
  -26.5012  -27.0204   19.6361 C   0  0  0  0  0  0  0  0  0  0  0  0
  -28.1250  -24.0954   22.3281 C   0  0  0  0  0  0  0  0  0  0  0  0
  -26.0244   -8.3773   24.7999 C   0  0  0  0  0  0  0  0  0  0  0  0
  -24.7798  -13.9544   20.8037 C   0  0  0  0  0  0  0  0  0  0  0  0
  -23.9325  -16.3382   21.1313 C   0  0  0  0  0  0  0  0  0  0  0  0
  -17.8242  -27.8595   23.0158 C   0  0  0  0  0  0  0  0  0  0  0  0
  -24.8656  -28.7984   19.7885 C   0  0  0  0  0  0  0  0  0  0  0  0
  -19.1666  -28.2827   23.0534 C   0  0  0  0  0  0  0  0  0  0  0  0
  -25.1878  -27.4770   19.4476 C   0  0  0  0  0  0  0  0  0  0  0  0
  -27.5760  -23.0290   21.6160 C   0  0  0  0  0  0  0  0  0  0  0  0
  -29.2495  -24.7576   21.8357 C   0  0  0  0  0  0  0  0  0  0  0  0
  -28.1517  -22.6248   20.4114 C   0  0  0  0  0  0  0  0  0  0  0  0
  -24.8564  -11.2229   21.3654 C   0  0  0  0  0  0  0  0  0  0  0  0
  -27.4834  -27.8700   20.1446 C   0  0  0  0  0  0  0  0  0  0  0  0
  -24.9236   -9.5078   22.9704 C   0  0  0  0  0  0  0  0  0  0  0  0
  -24.9813   -8.7402   25.6519 C   0  0  0  0  0  0  0  0  0  0  0  0
  -25.9956   -8.7611   23.4592 C   0  0  0  0  0  0  0  0  0  0  0  0
  -24.7410  -15.3653   20.5136 C   0  0  0  0  0  0  0  0  0  0  0  0
  -24.2692  -17.5129   20.5042 C   0  0  0  0  0  0  0  0  0  0  0  0
  -29.7854  -26.0196   23.9686 C   0  0  0  0  0  0  0  0  0  0  0  0
  -22.9639  -16.1932   22.1784 C   0  0  0  0  0  0  0  0  0  0  0  0
  -22.1131  -27.6710   20.9095 C   0  0  0  0  0  0  0  0  0  0  0  0
  -21.8348  -26.4642   17.9114 C   0  0  0  0  0  0  0  0  0  0  0  0
  -23.3791  -25.4410   15.0452 C   0  0  0  0  0  0  0  0  0  0  0  0
  -28.0747  -21.0285   18.4641 C   0  0  0  0  0  0  0  0  0  0  0  0
  -17.4437  -26.4657   22.5832 C   0  0  0  0  0  0  0  0  0  0  0  0
  -23.4720  -29.3222   19.5742 C   0  0  0  0  0  0  0  0  0  0  0  0
  -24.1590  -26.5283   18.8908 C   0  0  0  0  0  0  0  0  0  0  0  0
  -30.5198  -27.2999   24.2888 C   0  0  0  0  0  0  0  0  0  0  0  0
  -18.5421  -25.7492   21.8020 C   0  0  0  0  0  0  0  0  0  0  0  0
  -31.3462  -27.5542   23.0423 C   0  0  0  0  0  0  0  0  0  0  0  0
  -27.0414  -18.3538   16.3533 C   0  0  0  0  0  0  0  0  0  0  0  0
  -19.8878  -25.9118   22.5017 C   0  0  0  0  0  0  0  0  0  0  0  0
  -26.2843  -17.4179   17.2983 C   0  0  0  0  0  0  0  0  0  0  0  0
  -28.2441  -19.0002   17.0385 C   0  0  0  0  0  0  0  0  0  0  0  0
  -27.1881  -18.7454   19.2497 C   0  0  0  0  0  0  0  0  0  0  0  0
  -20.2929  -27.3886   22.5821 C   0  0  1  0  0  0  0  0  0  0  0  0
  -22.4175  -28.2201   19.5444 C   0  0  1  0  0  0  0  0  0  0  0  0
  -25.9305  -18.1207   18.6236 C   0  0  2  0  0  0  0  0  0  0  0  0
  -30.4981  -26.9668   21.9198 C   0  0  2  0  0  0  0  0  0  0  0  0
  -26.3725  -22.3364   22.1679 C   0  0  0  0  0  0  0  0  0  0  0  0
  -22.8911  -24.4684   12.7839 C   0  0  0  0  0  0  0  0  0  0  0  0
  -21.3729  -23.7320   19.1889 C   0  0  0  0  0  0  0  0  0  0  0  0
  -21.8401  -22.6890   16.9614 C   0  0  0  0  0  0  0  0  0  0  0  0
  -19.8982  -24.2312   17.2317 C   0  0  0  0  0  0  0  0  0  0  0  0
  -24.5293  -27.7891   13.6587 C   0  0  0  0  0  0  0  0  0  0  0  0
  -29.5155  -28.0047   21.3727 C   0  0  0  0  0  0  0  0  0  1  0  0
  -22.2426  -25.1778   17.2346 C   0  0  1  0  0  0  0  0  0  0  0  0
  -23.0962  -25.7447   13.5850 C   0  0  2  0  0  0  0  0  0  0  0  0
  -21.3576  -23.9746   17.6664 C   0  0  0  0  0  0  0  0  0  0  0  0
  -25.5316  -15.8773   19.5667 N   0  0  0  0  0  0  0  0  0  0  0  0
  -25.2215  -17.1848   19.5846 N   0  0  0  0  0  0  0  0  0  0  0  0
  -29.8149  -25.8507   22.5679 N   0  0  0  0  0  0  0  0  0  0  0  0
  -22.8090  -27.0857   18.7054 N   0  0  0  0  0  0  0  0  0  0  0  0
  -27.8322  -19.6501   18.2846 N   0  0  0  0  0  0  0  0  0  0  0  0
  -23.8405  -18.7840   20.6551 N   0  0  0  0  0  0  0  0  0  0  0  0
  -22.7414  -14.9158   22.7105 N   0  0  0  0  0  0  0  0  0  0  0  0
  -27.6100  -21.5428   19.6741 N   0  0  0  0  0  0  0  0  0  0  0  0
  -20.8006  -27.8436   21.3056 N   0  0  0  0  0  0  0  0  0  0  0  0
  -22.2258  -25.4478   15.8010 N   0  0  0  0  0  0  0  0  0  0  0  0
  -24.2316  -26.4997   12.9836 N   0  3  0  0  0  0  0  0  0  0  0  0
  -29.2641  -25.3342   24.8365 O   0  0  0  0  0  0  0  0  0  0  0  0
  -22.3032  -17.1648   22.6176 O   0  0  0  0  0  0  0  0  0  0  0  0
  -23.0029  -27.1293   21.5550 O   0  0  0  0  0  0  0  0  0  0  0  0
  -20.6961  -26.9051   17.7362 O   0  0  0  0  0  0  0  0  0  0  0  0
  -24.5095  -25.2163   15.4719 O   0  0  0  0  0  0  0  0  0  0  0  0
  -28.6278  -21.7085   17.5960 O   0  0  0  0  0  0  0  0  0  0  0  0
  -24.8940   -9.8903   21.6398 O   0  0  0  0  0  0  0  0  0  0  0  0
  -28.7534  -27.4141   20.3207 O   0  0  0  0  0  0  0  0  0  1  0  0
  -25.0095   -8.3730   26.9397 F   0  0  0  0  0  0  0  0  0  0  0  0
  -27.0012   -8.4104   22.6458 F   0  0  0  0  0  0  0  0  0  0  0  0
  1  2  1  0  0  0  0
  1  5  2  0  0  0  0
  2  6  2  0  0  0  0
  3 10  2  0  0  0  0
  3 18  1  0  0  0  0
  4 11  1  0  0  0  0
  4 18  2  0  0  0  0
  5 20  1  0  0  0  0
  6 22  1  0  0  0  0
  7 12  2  0  0  0  0
  7 21  1  0  0  0  0
  8  9  2  0  0  0  0
  8 25  1  0  0  0  0
  9 26  1  0  0  0  0
 10 27  1  0  0  0  0
 11 27  2  0  0  0  0
 12 28  1  0  0  0  0
 13 14  2  0  0  0  0
 13 29  1  0  0  0  0
 14 30  1  0  0  0  0
 15 23  1  0  0  0  0
 15 28  2  0  0  0  0
 16 24  1  0  0  0  0
 16 25  2  0  0  0  0
 17 30  2  0  0  0  0
 17 31  1  0  0  0  0
 18 32  1  0  0  0  0
 19 32  1  0  0  0  0
 19 33  2  0  0  0  0
 19 35  1  0  0  0  0
 20 22  2  0  0  0  0
 20 40  1  0  0  0  0
 21 23  2  0  0  0  0
 21 41  1  0  0  0  0
 22 51  1  0  0  0  0
 23 42  1  0  0  0  0
 24 26  2  0  0  0  0
 24 55  1  0  0  0  0
 25 67  1  0  0  0  0
 26 72  1  0  0  0  0
 27 82  1  0  0  0  0
 28 83  1  0  0  0  0
 29 31  2  0  0  0  0
 29 82  1  0  0  0  0
 30 84  1  0  0  0  0
 31 85  1  0  0  0  0
 32 65  2  0  0  0  0
 33 66  1  0  0  0  0
 33 70  1  0  0  0  0
 34 43  1  0  0  0  0
 34 67  1  0  0  0  0
 34 76  2  0  0  0  0
 35 71  1  0  0  0  0
 35 77  2  0  0  0  0
 36 52  1  0  0  0  0
 36 73  1  0  0  0  0
 36 78  2  0  0  0  0
 37 62  1  0  0  0  0
 37 68  1  0  0  0  0
 37 79  2  0  0  0  0
 38 63  1  0  0  0  0
 38 74  1  0  0  0  0
 38 80  2  0  0  0  0
 39 69  1  0  0  0  0
 39 72  1  0  0  0  0
 39 81  2  0  0  0  0
 40 44  1  0  0  0  0
 41 52  1  0  0  0  0
 42 68  1  0  0  0  0
 43 45  1  0  0  0  0
 44 47  1  0  0  0  0
 45 54  1  0  0  0  0
 46 48  1  0  0  0  0
 46 49  1  0  0  0  0
 47 51  1  0  0  0  0
 48 53  1  0  0  0  0
 49 69  1  0  0  0  0
 50 53  1  0  0  0  0
 50 69  1  0  0  0  0
 51 73  1  0  0  0  0
 52 68  1  0  0  0  0
 53 66  1  0  0  0  0
 54 61  1  0  0  0  0
 54 67  1  0  0  0  0
 56 63  1  0  0  0  0
 57 64  1  0  0  0  0
 58 64  1  0  0  0  0
 59 64  1  0  0  0  0
 60 75  1  0  0  0  0
 61 83  1  0  0  0  0
 62 64  1  0  0  0  0
 62 74  1  0  0  0  0
 63 75  1  0  0  0  0
 65 66  1  0  0  0  0
M  CHG  1  75   1
M  ISO  4  39 100  61 101  72 100  83 101
M  END
> <Batch ID>
0105

> <Smiles>
CNC(C)C(=O)NC(C(=O)N1Cc2cc([101O:1][101CH2:1]C3CCC(=O)N3c3ccc([100NH:0][100C:0](=O)N4CCCC(n5nc(-c6ccc(Oc7ccc(F)cc7F)cc6)c(C(N)=O)c5N)C4)c(C)c3)ccc2CC1C(=O)NC1CCCc2ccccc21)C(C)(C)C

> <Shape>
0.213

> <Color>
0.074

> <Negative vol penalty>
0.000

$$$$

  -OEChem-04052301113D

 86 95  0     1  0  0  0  0  0999 V2000
  -16.6352  -29.1938   23.0810 C   0  0  0  0  0  0  0  0  0  0  0  0
  -17.6115  -29.3120   22.0970 C   0  0  0  0  0  0  0  0  0  0  0  0
  -26.4808  -13.3239   21.3396 C   0  0  0  0  0  0  0  0  0  0  0  0
  -25.3931  -14.6921   19.6717 C   0  0  0  0  0  0  0  0  0  0  0  0
  -16.9842  -28.7597   24.3592 C   0  0  0  0  0  0  0  0  0  0  0  0
  -18.9378  -28.9973   22.3910 C   0  0  0  0  0  0  0  0  0  0  0  0
  -24.8346  -26.2825   19.3623 C   0  0  0  0  0  0  0  0  0  0  0  0
  -25.2773  -12.6616   21.5812 C   0  0  0  0  0  0  0  0  0  0  0  0
  -24.1895  -14.0298   19.9134 C   0  0  0  0  0  0  0  0  0  0  0  0
  -26.1849  -26.5776   19.1792 C   0  0  0  0  0  0  0  0  0  0  0  0
  -23.4411  -10.2221   20.1285 C   0  0  0  0  0  0  0  0  0  0  0  0
  -23.4751   -8.8313   20.2281 C   0  0  0  0  0  0  0  0  0  0  0  0
  -26.6580  -25.7621   21.3996 C   0  0  0  0  0  0  0  0  0  0  0  0
  -30.0056  -23.2663   19.1856 C   0  0  0  0  0  0  0  0  0  0  0  0
  -29.2179  -24.2036   17.1029 C   0  0  0  0  0  0  0  0  0  0  0  0
  -28.0302  -22.3652   18.1259 C   0  0  0  0  0  0  0  0  0  0  0  0
  -22.6090   -8.9713   22.4792 C   0  0  0  0  0  0  0  0  0  0  0  0
  -26.5387  -14.3392   20.3848 C   0  0  0  0  0  0  0  0  0  0  0  0
  -28.7730  -14.6723   19.1997 C   0  0  0  0  0  0  0  0  0  0  0  0
  -18.3138  -28.4303   24.6662 C   0  0  0  0  0  0  0  0  0  0  0  0
  -24.3835  -25.7342   20.5715 C   0  0  0  0  0  0  0  0  0  0  0  0
  -19.3052  -28.5598   23.6748 C   0  0  0  0  0  0  0  0  0  0  0  0
  -25.3019  -25.4586   21.5946 C   0  0  0  0  0  0  0  0  0  0  0  0
  -30.1389  -24.1915   18.1504 C   0  0  0  0  0  0  0  0  0  0  0  0
  -28.9512  -22.3531   19.1734 C   0  0  0  0  0  0  0  0  0  0  0  0
  -24.1316  -13.0145   20.8681 C   0  0  0  0  0  0  0  0  0  0  0  0
  -27.0964  -26.3201   20.1989 C   0  0  0  0  0  0  0  0  0  0  0  0
  -22.9910  -10.9876   21.2042 C   0  0  0  0  0  0  0  0  0  0  0  0
  -23.0591   -8.2059   21.4034 C   0  0  0  0  0  0  0  0  0  0  0  0
  -28.1635  -23.2905   17.0907 C   0  0  0  0  0  0  0  0  0  0  0  0
  -22.5749  -10.3622   22.3795 C   0  0  0  0  0  0  0  0  0  0  0  0
  -27.7816  -15.0241   20.1352 C   0  0  0  0  0  0  0  0  0  0  0  0
  -29.7443  -15.6314   19.3518 C   0  0  0  0  0  0  0  0  0  0  0  0
  -31.4917  -26.2334   20.4404 C   0  0  0  0  0  0  0  0  0  0  0  0
  -28.8124  -13.5766   18.2758 C   0  0  0  0  0  0  0  0  0  0  0  0
  -22.3707  -26.6705   22.8465 C   0  0  0  0  0  0  0  0  0  0  0  0
  -22.9247  -23.6968   24.0181 C   0  0  0  0  0  0  0  0  0  0  0  0
  -24.9971  -20.9909   24.1917 C   0  0  0  0  0  0  0  0  0  0  0  0
  -29.6420  -21.2659   21.3384 C   0  0  0  0  0  0  0  0  0  0  0  0
  -18.6509  -28.0108   26.0752 C   0  0  0  0  0  0  0  0  0  0  0  0
  -22.9279  -25.3967   20.7434 C   0  0  0  0  0  0  0  0  0  0  0  0
  -24.8717  -24.8517   22.9042 C   0  0  0  0  0  0  0  0  0  0  0  0
  -31.0205  -27.5195   21.0738 C   0  0  0  0  0  0  0  0  0  0  0  0
  -20.0159  -27.3389   26.2005 C   0  0  0  0  0  0  0  0  0  0  0  0
  -30.7029  -28.4103   19.8763 C   0  0  0  0  0  0  0  0  0  0  0  0
  -31.6060  -18.5896   22.6256 C   0  0  0  0  0  0  0  0  0  0  0  0
  -21.0747  -28.1361   25.4454 C   0  0  0  0  0  0  0  0  0  0  0  0
  -30.9420  -17.3398   22.0430 C   0  0  0  0  0  0  0  0  0  0  0  0
  -30.5789  -19.6608   22.9879 C   0  0  0  0  0  0  0  0  0  0  0  0
  -28.9920  -18.7774   21.3234 C   0  0  0  0  0  0  0  0  0  0  0  0
  -20.7505  -28.2041   23.9482 C   0  0  1  0  0  0  0  0  0  0  0  0
  -22.5015  -25.3176   22.2060 C   0  0  1  0  0  0  0  0  0  0  0  0
  -29.9916  -17.6955   20.8830 C   0  0  2  0  0  0  0  0  0  0  0  0
  -30.2973  -27.4340   18.7764 C   0  0  2  0  0  0  0  0  0  0  0  0
  -25.1974  -18.7283   25.2583 C   0  0  0  0  0  0  0  0  0  0  0  0
  -23.6612  -25.0147   26.6696 C   0  0  0  0  0  0  0  0  0  0  0  0
  -24.7365  -22.8620   27.3610 C   0  0  0  0  0  0  0  0  0  0  0  0
  -22.2891  -22.9348   26.8840 C   0  0  0  0  0  0  0  0  0  0  0  0
  -25.0547  -19.6293   21.5645 C   0  0  0  0  0  0  0  0  0  0  0  0
  -31.2733  -25.1750   18.1633 C   0  0  0  0  0  0  0  0  0  0  0  0
  -28.7947  -27.1721   18.7687 C   0  0  0  0  0  0  0  0  0  1  0  0
  -23.9306  -23.0921   24.9675 C   0  0  1  0  0  0  0  0  0  0  0  0
  -24.7283  -19.5048   24.0377 C   0  0  2  0  0  0  0  0  0  0  0  0
  -23.6625  -23.4891   26.4467 C   0  0  0  0  0  0  0  0  0  0  0  0
  -28.0944  -16.1209   20.8302 N   0  0  0  0  0  0  0  0  0  0  0  0
  -29.2934  -16.4666   20.3312 N   0  0  0  0  0  0  0  0  0  0  0  0
  -31.0542  -26.2428   19.1177 N   0  0  0  0  0  0  0  0  0  0  0  0
  -23.4369  -24.5454   23.0264 N   0  0  0  0  0  0  0  0  0  0  0  0
  -29.7166  -19.9492   21.8398 N   0  0  0  0  0  0  0  0  0  0  0  0
  -30.9317  -15.8333   18.7420 N   0  0  0  0  0  0  0  0  0  0  0  0
  -27.7314  -12.6849   18.2503 N   0  0  0  0  0  0  0  0  0  0  0  0
  -28.8157  -21.4129   20.2248 N   0  0  0  0  0  0  0  0  0  0  0  0
  -21.0971  -26.9580   23.2989 N   0  0  0  0  0  0  0  0  0  0  0  0
  -23.9107  -21.6542   24.7218 N   0  0  0  0  0  0  0  0  0  0  0  0
  -25.4374  -18.9715   22.8404 N   0  3  0  0  0  0  0  0  0  0  0  0
  -32.1087  -25.3565   21.0268 O   0  0  0  0  0  0  0  0  0  0  0  0
  -29.7850  -13.3844   17.5073 O   0  0  0  0  0  0  0  0  0  0  0  0
  -23.3529  -27.3990   22.9257 O   0  0  0  0  0  0  0  0  0  0  0  0
  -21.7294  -23.4206   24.1469 O   0  0  0  0  0  0  0  0  0  0  0  0
  -26.0653  -21.5107   23.8768 O   0  0  0  0  0  0  0  0  0  0  0  0
  -30.2865  -22.1896   21.8419 O   0  0  0  0  0  0  0  0  0  0  0  0
  -22.9570  -12.3683   21.1035 O   0  0  0  0  0  0  0  0  0  0  0  0
  -28.4148  -26.6079   20.0231 O   0  0  0  0  0  0  0  0  0  1  0  0
  -23.0904   -6.8701   21.4984 F   0  0  0  0  0  0  0  0  0  0  0  0
  -27.2791  -23.3022   16.0848 F   0  0  0  0  0  0  0  0  0  0  0  0
  -22.1404  -11.0922   23.4159 F   0  0  0  0  0  0  0  0  0  0  0  0
  1  2  1  0  0  0  0
  1  5  2  0  0  0  0
  2  6  2  0  0  0  0
  3  8  2  0  0  0  0
  3 18  1  0  0  0  0
  4  9  1  0  0  0  0
  4 18  2  0  0  0  0
  5 20  1  0  0  0  0
  6 22  1  0  0  0  0
  7 10  2  0  0  0  0
  7 21  1  0  0  0  0
  8 26  1  0  0  0  0
  9 26  2  0  0  0  0
 10 27  1  0  0  0  0
 11 12  2  0  0  0  0
 11 28  1  0  0  0  0
 12 29  1  0  0  0  0
 13 23  1  0  0  0  0
 13 27  2  0  0  0  0
 14 24  2  0  0  0  0
 14 25  1  0  0  0  0
 15 24  1  0  0  0  0
 15 30  2  0  0  0  0
 16 25  2  0  0  0  0
 16 30  1  0  0  0  0
 17 29  2  0  0  0  0
 17 31  1  0  0  0  0
 18 32  1  0  0  0  0
 19 32  1  0  0  0  0
 19 33  2  0  0  0  0
 19 35  1  0  0  0  0
 20 22  2  0  0  0  0
 20 40  1  0  0  0  0
 21 23  2  0  0  0  0
 21 41  1  0  0  0  0
 22 51  1  0  0  0  0
 23 42  1  0  0  0  0
 24 60  1  0  0  0  0
 25 72  1  0  0  0  0
 26 82  1  0  0  0  0
 27 83  1  0  0  0  0
 28 31  2  0  0  0  0
 28 82  1  0  0  0  0
 29 84  1  0  0  0  0
 30 85  1  0  0  0  0
 31 86  1  0  0  0  0
 32 65  2  0  0  0  0
 33 66  1  0  0  0  0
 33 70  1  0  0  0  0
 34 43  1  0  0  0  0
 34 67  1  0  0  0  0
 34 76  2  0  0  0  0
 35 71  1  0  0  0  0
 35 77  2  0  0  0  0
 36 52  1  0  0  0  0
 36 73  1  0  0  0  0
 36 78  2  0  0  0  0
 37 62  1  0  0  0  0
 37 68  1  0  0  0  0
 37 79  2  0  0  0  0
 38 63  1  0  0  0  0
 38 74  1  0  0  0  0
 38 80  2  0  0  0  0
 39 69  1  0  0  0  0
 39 72  1  0  0  0  0
 39 81  2  0  0  0  0
 40 44  1  0  0  0  0
 41 52  1  0  0  0  0
 42 68  1  0  0  0  0
 43 45  1  0  0  0  0
 44 47  1  0  0  0  0
 45 54  1  0  0  0  0
 46 48  1  0  0  0  0
 46 49  1  0  0  0  0
 47 51  1  0  0  0  0
 48 53  1  0  0  0  0
 49 69  1  0  0  0  0
 50 53  1  0  0  0  0
 50 69  1  0  0  0  0
 51 73  1  0  0  0  0
 52 68  1  0  0  0  0
 53 66  1  0  0  0  0
 54 61  1  0  0  0  0
 54 67  1  0  0  0  0
 55 63  1  0  0  0  0
 56 64  1  0  0  0  0
 57 64  1  0  0  0  0
 58 64  1  0  0  0  0
 59 75  1  0  0  0  0
 60 67  1  0  0  0  0
 61 83  1  0  0  0  0
 62 64  1  0  0  0  0
 62 74  1  0  0  0  0
 63 75  1  0  0  0  0
 65 66  1  0  0  0  0
M  CHG  1  75   1
M  ISO  4  39 100  61 101  72 100  83 101
M  END
> <Batch ID>
0105

> <Smiles>
CNC(C)C(=O)NC(C(=O)N1Cc2cc([101O:1][101CH2:1]C3CCC(=O)N3Cc3cc(F)cc([100NH:0][100C:0](=O)N4CCCC(n5nc(-c6ccc(Oc7ccc(F)cc7F)cc6)c(C(N)=O)c5N)C4)c3)ccc2CC1C(=O)NC1CCCc2ccccc21)C(C)(C)C

> <Shape>
0.259

> <Color>
0.058

> <Negative vol penalty>
0.000

$$$$

  -OEChem-04052301113D

 88 97  0     1  0  0  0  0  0999 V2000
  -33.4603  -25.1954   18.3312 C   0  0  0  0  0  0  0  0  0  0  0  0
  -32.1809  -25.4846   17.8679 C   0  0  0  0  0  0  0  0  0  0  0  0
  -27.3304  -16.6100   21.2563 C   0  0  0  0  0  0  0  0  0  0  0  0
  -27.0018  -17.0821   18.9098 C   0  0  0  0  0  0  0  0  0  0  0  0
  -33.7259  -25.2153   19.6998 C   0  0  0  0  0  0  0  0  0  0  0  0
  -31.1659  -25.7929   18.7730 C   0  0  0  0  0  0  0  0  0  0  0  0
  -25.2725  -29.8176   19.3947 C   0  0  0  0  0  0  0  0  0  0  0  0
  -18.7401  -22.9005   22.9113 C   0  0  0  0  0  0  0  0  0  0  0  0
  -19.0697  -24.2522   23.0108 C   0  0  0  0  0  0  0  0  0  0  0  0
  -28.6621  -17.0111   21.1506 C   0  0  0  0  0  0  0  0  0  0  0  0
  -28.3336  -17.4832   18.8040 C   0  0  0  0  0  0  0  0  0  0  0  0
  -23.9255  -29.7092   19.7374 C   0  0  0  0  0  0  0  0  0  0  0  0
  -30.1778  -20.2139   19.5541 C   0  0  0  0  0  0  0  0  0  0  0  0
  -30.4450  -21.3905   18.8542 C   0  0  0  0  0  0  0  0  0  0  0  0
  -24.5197  -29.7908   22.0740 C   0  0  0  0  0  0  0  0  0  0  0  0
  -17.9088  -24.6879   20.9372 C   0  0  0  0  0  0  0  0  0  0  0  0
  -31.8165  -20.1529   17.2972 C   0  0  0  0  0  0  0  0  0  0  0  0
  -26.5002  -16.6454   20.1359 C   0  0  0  0  0  0  0  0  0  0  0  0
  -24.6464  -14.9652   20.6338 C   0  0  0  0  0  0  0  0  0  0  0  0
  -32.7160  -25.5333   20.6216 C   0  0  0  0  0  0  0  0  0  0  0  0
  -26.2558  -29.9025   20.3908 C   0  0  0  0  0  0  0  0  0  0  0  0
  -31.4179  -25.8157   20.1553 C   0  0  0  0  0  0  0  0  0  0  0  0
  -25.8783  -29.9028   21.7412 C   0  0  0  0  0  0  0  0  0  0  0  0
  -17.9949  -22.4424   21.8247 C   0  0  0  0  0  0  0  0  0  0  0  0
  -18.6540  -25.1459   22.0238 C   0  0  0  0  0  0  0  0  0  0  0  0
  -17.5792  -23.3361   20.8377 C   0  0  0  0  0  0  0  0  0  0  0  0
  -29.1637  -17.4477   19.9244 C   0  0  0  0  0  0  0  0  0  0  0  0
  -23.5491  -29.6929   21.0773 C   0  0  0  0  0  0  0  0  0  0  0  0
  -30.7300  -19.0068   19.1255 C   0  0  0  0  0  0  0  0  0  0  0  0
  -31.2643  -21.3601   17.7258 C   0  0  0  0  0  0  0  0  0  0  0  0
  -31.5493  -18.9763   17.9971 C   0  0  0  0  0  0  0  0  0  0  0  0
  -25.1246  -16.2307   20.2444 C   0  0  0  0  0  0  0  0  0  0  0  0
  -23.2791  -15.0820   20.5758 C   0  0  0  0  0  0  0  0  0  0  0  0
  -20.5753  -28.2960   22.5701 C   0  0  0  0  0  0  0  0  0  0  0  0
  -20.3017  -27.0309   22.1683 C   0  0  0  0  0  0  0  0  0  0  0  0
  -19.4328  -29.1546   23.0308 C   0  0  0  0  0  0  0  0  0  0  0  0
  -25.3732  -13.7892   21.0140 C   0  0  0  0  0  0  0  0  0  0  0  0
  -28.7398  -28.1145   21.2490 C   0  0  0  0  0  0  0  0  0  0  0  0
  -29.3140  -30.5774   23.2804 C   0  0  0  0  0  0  0  0  0  0  0  0
  -27.3694  -32.7276   25.4281 C   0  0  0  0  0  0  0  0  0  0  0  0
  -19.7055  -19.7537   21.0856 C   0  0  0  0  0  0  0  0  0  0  0  0
  -33.0393  -25.4958   22.0942 C   0  0  0  0  0  0  0  0  0  0  0  0
  -27.7024  -30.0459   20.0042 C   0  0  0  0  0  0  0  0  0  0  0  0
  -26.8935  -30.0117   22.8484 C   0  0  0  0  0  0  0  0  0  0  0  0
  -18.0649  -28.5282   23.1557 C   0  0  0  0  0  0  0  0  0  0  0  0
  -32.0002  -26.1987   22.9640 C   0  0  0  0  0  0  0  0  0  0  0  0
  -19.8181  -17.4650   18.2845 C   0  0  0  0  0  0  0  0  0  0  0  0
  -30.5912  -25.7805   22.5555 C   0  0  0  0  0  0  0  0  0  0  0  0
  -21.1595  -16.7669   18.5158 C   0  0  0  0  0  0  0  0  0  0  0  0
  -17.8473  -27.4395   22.1195 C   0  0  0  0  0  0  0  0  0  0  0  0
  -19.8926  -18.9429   18.6566 C   0  0  0  0  0  0  0  0  0  0  0  0
  -21.6924  -18.5083   20.2832 C   0  0  0  0  0  0  0  0  0  0  0  0
  -30.2965  -26.1789   21.1044 C   0  0  1  0  0  0  0  0  0  0  0  0
  -28.6617  -29.6082   21.1068 C   0  0  1  0  0  0  0  0  0  0  0  0
  -21.6762  -17.0061   19.9469 C   0  0  2  0  0  0  0  0  0  0  0  0
  -21.4148  -26.1495   21.6357 C   0  0  0  0  0  0  0  0  0  0  0  0
  -27.8121  -35.0636   26.2310 C   0  0  0  0  0  0  0  0  0  0  0  0
  -30.5297  -29.1997   25.7164 C   0  0  0  0  0  0  0  0  0  0  0  0
  -29.5391  -31.0025   27.1435 C   0  0  0  0  0  0  0  0  0  0  0  0
  -31.2325  -31.5795   25.4050 C   0  0  0  0  0  0  0  0  0  0  0  0
  -24.7757  -33.7012   24.3870 C   0  0  0  0  0  0  0  0  0  0  0  0
  -17.6567  -20.9894   21.7432 C   0  0  0  0  0  0  0  0  0  0  0  0
  -21.9318  -28.9376   22.6488 C   0  0  0  0  0  0  0  0  0  1  0  0
  -28.8988  -30.9187   24.6911 C   0  0  1  0  0  0  0  0  0  0  0  0
  -27.0784  -34.2022   25.2149 C   0  0  2  0  0  0  0  0  0  0  0  0
  -30.0335  -30.6594   25.7220 C   0  0  0  0  0  0  0  0  0  0  0  0
  -24.1410  -17.0884   19.9599 N   0  0  0  0  0  0  0  0  0  0  0  0
  -23.0311  -16.3605   20.1706 N   0  0  0  0  0  0  0  0  0  0  0  0
  -18.9910  -26.5204   22.1245 N   0  0  0  0  0  0  0  0  0  0  0  0
  -28.2958  -30.1436   22.4197 N   0  0  0  0  0  0  0  0  0  0  0  0
  -20.3734  -19.1005   20.0365 N   0  0  0  0  0  0  0  0  0  0  0  0
  -16.8235  -22.8900   19.7312 N   0  0  0  0  0  0  0  0  0  0  0  0
  -22.2769  -14.2148   20.8323 N   0  0  0  0  0  0  0  0  0  0  0  0
  -25.7303  -12.8725   20.0158 N   0  0  0  0  0  0  0  0  0  0  0  0
  -29.9984  -27.5925   21.0189 N   0  0  0  0  0  0  0  0  0  0  0  0
  -28.4280  -32.2991   24.6554 N   0  0  0  0  0  0  0  0  0  0  0  0
  -18.4652  -20.2931   20.7673 N   0  0  0  0  0  0  0  0  0  0  0  0
  -25.6172  -34.4656   25.3433 N   0  3  0  0  0  0  0  0  0  0  0  0
  -19.6159  -30.3282   23.3531 O   0  0  0  0  0  0  0  0  0  0  0  0
  -25.6821  -13.5501   22.2060 O   0  0  0  0  0  0  0  0  0  0  0  0
  -27.7331  -27.4825   21.5471 O   0  0  0  0  0  0  0  0  0  0  0  0
  -30.4969  -30.6983   22.9522 O   0  0  0  0  0  0  0  0  0  0  0  0
  -26.7247  -32.0270   26.2052 O   0  0  0  0  0  0  0  0  0  0  0  0
  -20.1774  -19.8450   22.2241 O   0  0  0  0  0  0  0  0  0  0  0  0
  -30.4631  -17.8394   19.8209 O   0  0  0  0  0  0  0  0  0  0  0  0
  -22.2351  -29.5866   21.4146 O   0  0  0  0  0  0  0  0  0  1  0  0
  -31.5196  -22.4898   17.0530 F   0  0  0  0  0  0  0  0  0  0  0  0
  -32.0817  -17.8195   17.5799 F   0  0  0  0  0  0  0  0  0  0  0  0
  1  2  1  0  0  0  0
  1  5  2  0  0  0  0
  2  6  2  0  0  0  0
  3 10  2  0  0  0  0
  3 18  1  0  0  0  0
  4 11  1  0  0  0  0
  4 18  2  0  0  0  0
  5 20  1  0  0  0  0
  6 22  1  0  0  0  0
  7 12  2  0  0  0  0
  7 21  1  0  0  0  0
  8  9  2  0  0  0  0
  8 24  1  0  0  0  0
  9 25  1  0  0  0  0
 10 27  1  0  0  0  0
 11 27  2  0  0  0  0
 12 28  1  0  0  0  0
 13 14  2  0  0  0  0
 13 29  1  0  0  0  0
 14 30  1  0  0  0  0
 15 23  1  0  0  0  0
 15 28  2  0  0  0  0
 16 25  2  0  0  0  0
 16 26  1  0  0  0  0
 17 30  2  0  0  0  0
 17 31  1  0  0  0  0
 18 32  1  0  0  0  0
 19 32  1  0  0  0  0
 19 33  2  0  0  0  0
 19 37  1  0  0  0  0
 20 22  2  0  0  0  0
 20 42  1  0  0  0  0
 21 23  2  0  0  0  0
 21 43  1  0  0  0  0
 22 53  1  0  0  0  0
 23 44  1  0  0  0  0
 24 26  2  0  0  0  0
 24 62  1  0  0  0  0
 25 69  1  0  0  0  0
 26 72  1  0  0  0  0
 27 85  1  0  0  0  0
 28 86  1  0  0  0  0
 29 31  2  0  0  0  0
 29 85  1  0  0  0  0
 30 87  1  0  0  0  0
 31 88  1  0  0  0  0
 32 67  2  0  0  0  0
 33 68  1  0  0  0  0
 33 73  1  0  0  0  0
 34 35  2  0  0  0  0
 34 36  1  0  0  0  0
 34 63  1  0  0  0  0
 35 56  1  0  0  0  0
 35 69  1  0  0  0  0
 36 45  1  0  0  0  0
 36 79  2  0  0  0  0
 37 74  1  0  0  0  0
 37 80  2  0  0  0  0
 38 54  1  0  0  0  0
 38 75  1  0  0  0  0
 38 81  2  0  0  0  0
 39 64  1  0  0  0  0
 39 70  1  0  0  0  0
 39 82  2  0  0  0  0
 40 65  1  0  0  0  0
 40 76  1  0  0  0  0
 40 83  2  0  0  0  0
 41 71  1  0  0  0  0
 41 77  1  0  0  0  0
 41 84  2  0  0  0  0
 42 46  1  0  0  0  0
 43 54  1  0  0  0  0
 44 70  1  0  0  0  0
 45 50  1  0  0  0  0
 46 48  1  0  0  0  0
 47 49  1  0  0  0  0
 47 51  1  0  0  0  0
 48 53  1  0  0  0  0
 49 55  1  0  0  0  0
 50 69  1  0  0  0  0
 51 71  1  0  0  0  0
 52 55  1  0  0  0  0
 52 71  1  0  0  0  0
 53 75  1  0  0  0  0
 54 70  1  0  0  0  0
 55 68  1  0  0  0  0
 57 65  1  0  0  0  0
 58 66  1  0  0  0  0
 59 66  1  0  0  0  0
 60 66  1  0  0  0  0
 61 78  1  0  0  0  0
 62 77  1  0  0  0  0
 63 86  1  0  0  0  0
 64 66  1  0  0  0  0
 64 76  1  0  0  0  0
 65 78  1  0  0  0  0
 67 68  1  0  0  0  0
M  CHG  1  78   1
M  ISO  4  41 100  63 101  77 100  86 101
M  END
> <Batch ID>
0105

> <Smiles>
CNC(C)C(=O)NC(C(=O)N1Cc2cc([101O:1][101CH2:1]C3=C(C)N(c4ccc(C[100NH:0][100C:0](=O)N5CCCC(n6nc(-c7ccc(Oc8ccc(F)cc8F)cc7)c(C(N)=O)c6N)C5)c(N)c4)CCC3=O)ccc2CC1C(=O)NC1CCCc2ccccc21)C(C)(C)C

> <Shape>
0.253

> <Color>
0.071

> <Negative vol penalty>
0.000

$$$$

  -OEChem-04052301113D

 87 95  0     1  0  0  0  0  0999 V2000
  -21.6429  -21.3792   11.6884 C   0  0  0  0  0  0  0  0  0  0  0  0
  -22.1117  -21.3409   12.7930 C   0  0  0  0  0  0  0  0  0  0  0  0
  -18.2285  -28.5136   23.0094 C   0  0  0  0  0  0  0  0  0  0  0  0
  -18.3465  -27.8324   21.8021 C   0  0  0  0  0  0  0  0  0  0  0  0
  -23.3173   -9.7837   19.8531 C   0  0  0  0  0  0  0  0  0  0  0  0
  -23.8171   -9.8194   22.2166 C   0  0  0  0  0  0  0  0  0  0  0  0
  -19.3639  -29.0354   23.6279 C   0  0  0  0  0  0  0  0  0  0  0  0
  -19.6000  -27.6735   21.2121 C   0  0  0  0  0  0  0  0  0  0  0  0
  -21.5619  -22.8587   17.9758 C   0  0  0  0  0  0  0  0  0  0  0  0
  -22.6122   -8.5919   20.0202 C   0  0  0  0  0  0  0  0  0  0  0  0
  -23.1119   -8.6275   22.3837 C   0  0  0  0  0  0  0  0  0  0  0  0
  -21.6509  -22.6236   16.6044 C   0  0  0  0  0  0  0  0  0  0  0  0
  -20.3754   -5.7294   19.8860 C   0  0  0  0  0  0  0  0  0  0  0  0
  -19.1362   -5.6152   19.2561 C   0  0  0  0  0  0  0  0  0  0  0  0
  -26.8494  -18.2711   17.4626 C   0  0  0  0  0  0  0  0  0  0  0  0
  -23.9633  -23.3095   16.6431 C   0  0  0  0  0  0  0  0  0  0  0  0
  -26.3764  -19.0608   14.8291 C   0  0  0  0  0  0  0  0  0  0  0  0
  -18.3266   -7.5192   20.5036 C   0  0  0  0  0  0  0  0  0  0  0  0
  -23.9198  -10.3974   20.9513 C   0  0  0  0  0  0  0  0  0  0  0  0
  -27.7718  -17.9580   16.4643 C   0  0  0  0  0  0  0  0  0  0  0  0
  -24.1391  -12.9376   20.8675 C   0  0  0  0  0  0  0  0  0  0  0  0
  -20.6331  -28.8744   23.0501 C   0  0  0  0  0  0  0  0  0  0  0  0
  -22.6717  -23.3321   18.6903 C   0  0  0  0  0  0  0  0  0  0  0  0
  -20.7532  -28.1948   21.8229 C   0  0  0  0  0  0  0  0  0  0  0  0
  -23.8865  -23.5473   18.0239 C   0  0  0  0  0  0  0  0  0  0  0  0
  -27.5354  -18.3528   15.1475 C   0  0  0  0  0  0  0  0  0  0  0  0
  -25.4540  -19.3739   15.8274 C   0  0  0  0  0  0  0  0  0  0  0  0
  -22.5095   -8.0138   21.2855 C   0  0  0  0  0  0  0  0  0  0  0  0
  -22.8509  -22.8518   15.9373 C   0  0  0  0  0  0  0  0  0  0  0  0
  -20.5902   -6.7384   20.8249 C   0  0  0  0  0  0  0  0  0  0  0  0
  -25.6904  -18.9790   17.1442 C   0  0  0  0  0  0  0  0  0  0  0  0
  -18.1117   -6.5101   19.5648 C   0  0  0  0  0  0  0  0  0  0  0  0
  -19.5658   -7.6333   21.1337 C   0  0  0  0  0  0  0  0  0  0  0  0
  -24.6488  -11.6283   20.7793 C   0  0  0  0  0  0  0  0  0  0  0  0
  -25.2237  -13.7452   20.6268 C   0  0  0  0  0  0  0  0  0  0  0  0
  -28.9948  -17.2010   16.8360 C   0  0  0  0  0  0  0  0  0  0  0  0
  -22.8046  -13.3839   21.1425 C   0  0  0  0  0  0  0  0  0  0  0  0
  -23.3074  -25.9574   20.3657 C   0  0  0  0  0  0  0  0  0  0  0  0
  -26.0518  -24.3761   21.0657 C   0  0  0  0  0  0  0  0  0  0  0  0
  -28.3213  -21.9831   20.1882 C   0  0  0  0  0  0  0  0  0  0  0  0
  -29.7894  -15.0531   17.7735 C   0  0  0  0  0  0  0  0  0  0  0  0
  -21.8255  -29.4970   23.7321 C   0  0  0  0  0  0  0  0  0  0  0  0
  -22.5669  -23.5552   20.1741 C   0  0  0  0  0  0  0  0  0  0  0  0
  -25.1129  -24.0360   18.7488 C   0  0  0  0  0  0  0  0  0  0  0  0
  -23.1634  -28.9604   23.2299 C   0  0  0  0  0  0  0  0  0  0  0  0
  -30.1572  -12.6381   20.3288 C   0  0  0  0  0  0  0  0  0  0  0  0
  -23.1836  -28.9193   21.7052 C   0  0  0  0  0  0  0  0  0  0  0  0
  -28.7151  -12.2712   20.6892 C   0  0  0  0  0  0  0  0  0  0  0  0
  -30.3246  -12.8745   18.8285 C   0  0  0  0  0  0  0  0  0  0  0  0
  -27.9464  -13.4663   18.5999 C   0  0  0  0  0  0  0  0  0  0  0  0
  -22.0987  -27.9804   21.1641 C   0  0  1  0  0  0  0  0  0  0  0  0
  -23.6149  -24.5270   20.7077 C   0  0  1  0  0  0  0  0  0  0  0  0
  -27.7109  -13.2870   20.1084 C   0  0  1  0  0  0  0  0  0  0  0  0
  -30.3120  -20.4708   20.4052 C   0  0  0  0  0  0  0  0  0  0  0  0
  -27.5708  -26.8352   20.0882 C   0  0  0  0  0  0  0  0  0  0  0  0
  -29.6346  -25.4236   19.9608 C   0  0  0  0  0  0  0  0  0  0  0  0
  -28.5063  -25.7850   22.1561 C   0  0  0  0  0  0  0  0  0  0  0  0
  -26.7302  -19.8925   21.5508 C   0  0  0  0  0  0  0  0  0  0  0  0
  -23.7710  -18.3184   18.3831 C   0  0  0  0  0  0  0  0  0  0  0  0
  -23.9955  -20.5159   14.1558 C   0  0  0  0  0  0  0  0  0  0  0  0
  -22.6814  -21.2951   14.1474 C   0  0  1  0  0  0  0  0  0  1  0  0
  -27.4212  -24.2814   20.4374 C   0  0  1  0  0  0  0  0  0  0  0  0
  -28.9619  -20.8616   20.9858 C   0  0  2  0  0  0  0  0  0  0  0  0
  -28.2597  -25.5739   20.6463 C   0  0  0  0  0  0  0  0  0  0  0  0
  -25.9554  -11.6011   20.5039 N   0  0  0  0  0  0  0  0  0  0  0  0
  -26.2760  -12.9033   20.4169 N   0  0  0  0  0  0  0  0  0  0  0  0
  -24.9584  -24.2454   20.1979 N   0  0  0  0  0  0  0  0  0  0  0  0
  -29.3441  -13.8551   18.3589 N   0  0  0  0  0  0  0  0  0  0  0  0
  -28.4568  -18.0447   14.1218 N   0  0  0  0  0  0  0  0  0  0  0  0
  -25.3703  -15.0862   20.5763 N   0  0  0  0  0  0  0  0  0  0  0  0
  -21.8109  -12.4212   21.3664 N   0  0  0  0  0  0  0  0  0  0  0  0
  -24.3072  -20.0758   15.4977 N   0  0  0  0  0  0  0  0  0  0  0  0
  -28.7767  -15.9424   17.3970 N   0  0  0  0  0  0  0  0  0  0  0  0
  -22.5131  -26.6000   21.2961 N   0  0  0  0  0  0  0  0  0  0  0  0
  -28.0369  -23.0754   20.9803 N   0  0  0  0  0  0  0  0  0  0  0  0
  -28.0835  -19.6578   20.9845 N   0  3  0  0  0  0  0  0  0  0  0  0
  -30.0959  -17.6907   16.6004 O   0  0  0  0  0  0  0  0  0  0  0  0
  -22.4989  -14.6001   21.1721 O   0  0  0  0  0  0  0  0  0  0  0  0
  -23.7587  -26.4427   19.3349 O   0  0  0  0  0  0  0  0  0  0  0  0
  -25.9558  -24.5522   22.2829 O   0  0  0  0  0  0  0  0  0  0  0  0
  -28.0990  -21.9001   18.9823 O   0  0  0  0  0  0  0  0  0  0  0  0
  -30.9860  -15.3247   17.6329 O   0  0  0  0  0  0  0  0  0  0  0  0
  -21.8213   -6.8509   21.4489 O   0  0  0  0  0  0  0  0  0  0  0  0
  -24.7997  -19.2735   18.1331 O   0  0  0  0  0  0  0  0  0  0  0  0
  -22.9403  -22.6238   14.5987 O   0  0  0  0  0  0  0  0  0  1  0  0
  -16.9223   -6.4014   18.9586 F   0  0  0  0  0  0  0  0  0  0  0  0
  -19.7666   -8.6055   22.0339 F   0  0  0  0  0  0  0  0  0  0  0  0
  1  2  3  0  0  0  0
  2 61  1  0  0  0  0
  3  4  1  0  0  0  0
  3  7  2  0  0  0  0
  4  8  2  0  0  0  0
  5 10  2  0  0  0  0
  5 19  1  0  0  0  0
  6 11  1  0  0  0  0
  6 19  2  0  0  0  0
  7 22  1  0  0  0  0
  8 24  1  0  0  0  0
  9 12  2  0  0  0  0
  9 23  1  0  0  0  0
 10 28  1  0  0  0  0
 11 28  2  0  0  0  0
 12 29  1  0  0  0  0
 13 14  2  0  0  0  0
 13 30  1  0  0  0  0
 14 32  1  0  0  0  0
 15 20  2  0  0  0  0
 15 31  1  0  0  0  0
 16 25  1  0  0  0  0
 16 29  2  0  0  0  0
 17 26  2  0  0  0  0
 17 27  1  0  0  0  0
 18 32  2  0  0  0  0
 18 33  1  0  0  0  0
 19 34  1  0  0  0  0
 20 26  1  0  0  0  0
 20 36  1  0  0  0  0
 21 34  1  0  0  0  0
 21 35  2  0  0  0  0
 21 37  1  0  0  0  0
 22 24  2  0  0  0  0
 22 42  1  0  0  0  0
 23 25  2  0  0  0  0
 23 43  1  0  0  0  0
 24 51  1  0  0  0  0
 25 44  1  0  0  0  0
 26 69  1  0  0  0  0
 27 31  2  0  0  0  0
 27 72  1  0  0  0  0
 28 83  1  0  0  0  0
 29 85  1  0  0  0  0
 30 33  2  0  0  0  0
 30 83  1  0  0  0  0
 31 84  1  0  0  0  0
 32 86  1  0  0  0  0
 33 87  1  0  0  0  0
 34 65  2  0  0  0  0
 35 66  1  0  0  0  0
 35 70  1  0  0  0  0
 36 73  1  0  0  0  0
 36 77  2  0  0  0  0
 37 71  1  0  0  0  0
 37 78  2  0  0  0  0
 38 52  1  0  0  0  0
 38 74  1  0  0  0  0
 38 79  2  0  0  0  0
 39 62  1  0  0  0  0
 39 67  1  0  0  0  0
 39 80  2  0  0  0  0
 40 63  1  0  0  0  0
 40 75  1  0  0  0  0
 40 81  2  0  0  0  0
 41 68  1  0  0  0  0
 41 73  1  0  0  0  0
 41 82  2  0  0  0  0
 42 45  1  0  0  0  0
 43 52  1  0  0  0  0
 44 67  1  0  0  0  0
 45 47  1  0  0  0  0
 46 48  1  0  0  0  0
 46 49  1  0  0  0  0
 47 51  1  0  0  0  0
 48 53  1  0  0  0  0
 49 68  1  0  0  0  0
 50 53  1  0  0  0  0
 50 68  1  0  0  0  0
 51 74  1  0  0  0  0
 52 67  1  0  0  0  0
 53 66  1  0  0  0  0
 54 63  1  0  0  0  0
 55 64  1  0  0  0  0
 56 64  1  0  0  0  0
 57 64  1  0  0  0  0
 58 76  1  0  0  0  0
 59 84  1  0  0  0  0
 60 61  1  0  0  0  0
 60 72  1  0  0  0  0
 61 85  1  0  0  0  0
 62 64  1  0  0  0  0
 62 75  1  0  0  0  0
 63 76  1  0  0  0  0
 65 66  1  0  0  0  0
M  CHG  1  76   1
M  ISO  4  41 100  61 101  73 100  85 101
M  END
> <Batch ID>
0105

> <Smiles>
C#C[101CH:1](CNc1cc(N)c(C(=O)[100NH:0][100C:0](=O)N2CCCC(n3nc(-c4ccc(Oc5ccc(F)cc5F)cc4)c(C(N)=O)c3N)C2)cc1OC)[101O:1]c1ccc2c(c1)CN(C(=O)C(NC(=O)C(C)NC)C(C)(C)C)C(C(=O)NC1CCCc3ccccc31)C2

> <Shape>
0.225

> <Color>
0.172

> <Negative vol penalty>
0.000

$$$$

  -OEChem-04052301113D

 87 96  0     1  0  0  0  0  0999 V2000
  -27.5018  -37.0111   17.6406 C   0  0  0  0  0  0  0  0  0  0  0  0
  -27.7594  -35.6506   17.5067 C   0  0  0  0  0  0  0  0  0  0  0  0
  -22.4868  -10.1919   20.3815 C   0  0  0  0  0  0  0  0  0  0  0  0
  -24.3612   -9.3241   21.6347 C   0  0  0  0  0  0  0  0  0  0  0  0
  -27.2186  -37.5455   18.8968 C   0  0  0  0  0  0  0  0  0  0  0  0
  -27.7351  -34.8238   18.6293 C   0  0  0  0  0  0  0  0  0  0  0  0
  -25.8719  -28.9948   18.8687 C   0  0  0  0  0  0  0  0  0  0  0  0
  -26.9834  -19.5797   19.3786 C   0  0  0  0  0  0  0  0  0  0  0  0
  -28.0262  -20.3942   18.9373 C   0  0  0  0  0  0  0  0  0  0  0  0
  -21.8272   -8.9710   20.5224 C   0  0  0  0  0  0  0  0  0  0  0  0
  -23.7016   -8.1031   21.7757 C   0  0  0  0  0  0  0  0  0  0  0  0
  -26.5667  -27.7863   18.8470 C   0  0  0  0  0  0  0  0  0  0  0  0
  -21.2424   -6.8100   23.6993 C   0  0  0  0  0  0  0  0  0  0  0  0
  -21.2488   -6.2134   24.9601 C   0  0  0  0  0  0  0  0  0  0  0  0
  -26.5052  -27.7146   21.2575 C   0  0  0  0  0  0  0  0  0  0  0  0
  -28.2936  -18.9477   21.3077 C   0  0  0  0  0  0  0  0  0  0  0  0
  -22.3661   -4.2793   24.0392 C   0  0  0  0  0  0  0  0  0  0  0  0
  -23.7538  -10.3685   20.9376 C   0  0  0  0  0  0  0  0  0  0  0  0
  -24.8091  -12.2599   19.5899 C   0  0  0  0  0  0  0  0  0  0  0  0
  -27.1812  -36.7232   20.0339 C   0  0  0  0  0  0  0  0  0  0  0  0
  -25.4974  -29.5787   20.0873 C   0  0  0  0  0  0  0  0  0  0  0  0
  -27.4524  -35.3479   19.9022 C   0  0  0  0  0  0  0  0  0  0  0  0
  -25.8034  -28.9293   21.2918 C   0  0  0  0  0  0  0  0  0  0  0  0
  -27.1171  -18.8565   20.5639 C   0  0  0  0  0  0  0  0  0  0  0  0
  -29.2027  -20.4854   19.6810 C   0  0  0  0  0  0  0  0  0  0  0  0
  -29.3364  -19.7621   20.8663 C   0  0  0  0  0  0  0  0  0  0  0  0
  -22.4346   -7.9266   21.2195 C   0  0  0  0  0  0  0  0  0  0  0  0
  -26.8860  -27.1475   20.0416 C   0  0  0  0  0  0  0  0  0  0  0  0
  -21.7977   -6.1412   22.6084 C   0  0  0  0  0  0  0  0  0  0  0  0
  -21.8107   -4.9481   25.1301 C   0  0  0  0  0  0  0  0  0  0  0  0
  -22.3596   -4.8759   22.7784 C   0  0  0  0  0  0  0  0  0  0  0  0
  -24.4359  -11.6293   20.7919 C   0  0  0  0  0  0  0  0  0  0  0  0
  -25.4227  -13.4224   19.9882 C   0  0  0  0  0  0  0  0  0  0  0  0
  -29.6974  -24.9169   20.0429 C   0  0  0  0  0  0  0  0  0  0  0  0
  -28.9304  -26.0111   20.0566 C   0  0  0  0  0  0  0  0  0  1  0  0
  -24.6181  -11.8332   18.2345 C   0  0  0  0  0  0  0  0  0  0  0  0
  -26.1762  -32.3075   21.5695 C   0  0  0  0  0  0  0  0  0  0  0  0
  -23.9387  -31.2679   23.6755 C   0  0  0  0  0  0  0  0  0  0  0  0
  -22.2407  -28.6388   25.0362 C   0  0  0  0  0  0  0  0  0  0  0  0
  -25.0970  -17.9593   23.3982 C   0  0  0  0  0  0  0  0  0  0  0  0
  -26.9171  -37.3545   21.3780 C   0  0  0  0  0  0  0  0  0  0  0  0
  -24.7248  -30.8693   20.0927 C   0  0  0  0  0  0  0  0  0  0  0  0
  -25.4063  -29.5043   22.6260 C   0  0  0  0  0  0  0  0  0  0  0  0
  -31.1966  -24.9042   20.0777 C   0  0  0  0  0  0  0  0  0  0  0  0
  -29.1935  -23.5133   19.9296 C   0  0  0  0  0  0  0  0  0  0  0  0
  -26.5418  -36.3464   22.4611 C   0  0  0  0  0  0  0  0  0  0  0  0
  -26.9473  -14.9664   24.5474 C   0  0  0  0  0  0  0  0  0  0  0  0
  -27.4927  -35.1540   22.4333 C   0  0  0  0  0  0  0  0  0  0  0  0
  -26.4282  -13.8748   23.6131 C   0  0  0  0  0  0  0  0  0  0  0  0
  -25.9151  -16.0698   24.7591 C   0  0  0  0  0  0  0  0  0  0  0  0
  -24.8922  -15.5821   22.5614 C   0  0  0  0  0  0  0  0  0  0  0  0
  -31.5530  -23.5459   19.4884 C   0  0  0  0  0  0  0  0  0  0  0  0
  -27.4109  -34.4144   21.0925 C   0  0  1  0  0  0  0  0  0  0  0  0
  -24.8440  -31.6315   21.4088 C   0  0  1  0  0  0  0  0  0  0  0  0
  -25.9255  -14.4783   22.2902 C   0  0  2  0  0  0  0  0  0  0  0  0
  -20.5020  -28.0985   26.7631 C   0  0  0  0  0  0  0  0  0  0  0  0
  -26.0070  -31.6746   25.8817 C   0  0  0  0  0  0  0  0  0  0  0  0
  -24.5852  -30.2593   27.3795 C   0  0  0  0  0  0  0  0  0  0  0  0
  -23.6902  -32.4053   26.4760 C   0  0  0  0  0  0  0  0  0  0  0  0
  -24.9545  -19.9941   22.0129 C   0  0  0  0  0  0  0  0  0  0  0  0
  -20.4144  -27.4952   23.0075 C   0  0  0  0  0  0  0  0  0  0  0  0
  -26.0019  -17.9859   21.0353 C   0  0  0  0  0  0  0  0  0  0  0  0
  -30.3087  -21.3676   19.1816 C   0  0  0  0  0  0  0  0  0  0  0  0
  -23.9591  -30.4248   24.9277 C   0  0  1  0  0  0  0  0  0  0  0  0
  -20.7614  -28.4234   25.3003 C   0  0  2  0  0  0  0  0  0  0  0  0
  -24.5697  -31.1809   26.1413 C   0  0  0  0  0  0  0  0  0  0  0  0
  -24.7835  -12.3327   21.8728 N   0  0  0  0  0  0  0  0  0  0  0  0
  -25.3817  -13.4174   21.3515 N   0  0  0  0  0  0  0  0  0  0  0  0
  -24.6577  -30.7712   22.5791 N   0  0  0  0  0  0  0  0  0  0  0  0
  -25.4224  -16.5957   23.4856 N   0  0  0  0  0  0  0  0  0  0  0  0
  -30.5209  -19.8410   21.6310 N   0  0  0  0  0  0  0  0  0  0  0  0
  -25.9880  -14.4381   19.3018 N   0  0  0  0  0  0  0  0  0  0  0  0
  -25.6139  -11.0511   17.6336 N   0  0  0  0  0  0  0  0  0  0  0  0
  -26.2260  -33.5847   21.0445 N   0  0  0  0  0  0  0  0  0  0  0  0
  -22.5887  -29.9693   25.1354 N   0  0  0  0  0  0  0  0  0  0  0  0
  -25.2675  -18.5788   22.1509 N   0  0  0  0  0  0  0  0  0  0  0  0
  -30.4300  -22.6431   19.9468 N   0  3  2  0  0  0  0  0  0  0  0  0
  -20.2455  -27.2982   24.4703 N   0  3  0  0  0  0  0  0  0  0  0  0
  -23.6023  -12.1502   17.5703 O   0  0  0  0  0  0  0  0  0  0  0  0
  -27.0908  -31.7147   22.1297 O   0  0  0  0  0  0  0  0  0  0  0  0
  -23.3023  -32.3246   23.6682 O   0  0  0  0  0  0  0  0  0  0  0  0
  -23.0112  -27.7184   24.7723 O   0  0  0  0  0  0  0  0  0  0  0  0
  -24.6870  -18.5894   24.3814 O   0  0  0  0  0  0  0  0  0  0  0  0
  -21.7912   -6.7351   21.3575 O   0  0  0  0  0  0  0  0  0  0  0  0
  -27.5648  -25.9681   20.0233 O   0  0  0  0  0  0  0  0  0  1  0  0
  -21.8182   -4.3760   26.3412 F   0  0  0  0  0  0  0  0  0  0  0  0
  -22.8956   -4.2290   21.7344 F   0  0  0  0  0  0  0  0  0  0  0  0
  1  2  1  0  0  0  0
  1  5  2  0  0  0  0
  2  6  2  0  0  0  0
  3 10  2  0  0  0  0
  3 18  1  0  0  0  0
  4 11  1  0  0  0  0
  4 18  2  0  0  0  0
  5 20  1  0  0  0  0
  6 22  1  0  0  0  0
  7 12  2  0  0  0  0
  7 21  1  0  0  0  0
  8  9  2  0  0  0  0
  8 24  1  0  0  0  0
  9 25  1  0  0  0  0
 10 27  1  0  0  0  0
 11 27  2  0  0  0  0
 12 28  1  0  0  0  0
 13 14  2  0  0  0  0
 13 29  1  0  0  0  0
 14 30  1  0  0  0  0
 15 23  1  0  0  0  0
 15 28  2  0  0  0  0
 16 24  2  0  0  0  0
 16 26  1  0  0  0  0
 17 30  2  0  0  0  0
 17 31  1  0  0  0  0
 18 32  1  0  0  0  0
 19 32  1  0  0  0  0
 19 33  2  0  0  0  0
 19 36  1  0  0  0  0
 20 22  2  0  0  0  0
 20 41  1  0  0  0  0
 21 23  2  0  0  0  0
 21 42  1  0  0  0  0
 22 53  1  0  0  0  0
 23 43  1  0  0  0  0
 24 62  1  0  0  0  0
 25 26  2  0  0  0  0
 25 63  1  0  0  0  0
 26 71  1  0  0  0  0
 27 84  1  0  0  0  0
 28 85  1  0  0  0  0
 29 31  2  0  0  0  0
 29 84  1  0  0  0  0
 30 86  1  0  0  0  0
 31 87  1  0  0  0  0
 32 67  2  0  0  0  0
 33 68  1  0  0  0  0
 33 72  1  0  0  0  0
 34 35  2  0  0  0  0
 34 44  1  0  0  0  0
 34 45  1  0  0  0  0
 35 85  1  0  0  0  0
 36 73  1  0  0  0  0
 36 79  2  0  0  0  0
 37 54  1  0  0  0  0
 37 74  1  0  0  0  0
 37 80  2  0  0  0  0
 38 64  1  0  0  0  0
 38 69  1  0  0  0  0
 38 81  2  0  0  0  0
 39 65  1  0  0  0  0
 39 75  1  0  0  0  0
 39 82  2  0  0  0  0
 40 70  1  0  0  0  0
 40 76  1  0  0  0  0
 40 83  2  0  0  0  0
 41 46  1  0  0  0  0
 42 54  1  0  0  0  0
 43 69  1  0  0  0  0
 44 52  1  0  0  0  0
 45 77  1  0  0  0  0
 46 48  1  0  0  0  0
 47 49  1  0  0  0  0
 47 50  1  0  0  0  0
 48 53  1  0  0  0  0
 49 55  1  0  0  0  0
 50 70  1  0  0  0  0
 51 55  1  0  0  0  0
 51 70  1  0  0  0  0
 52 77  1  0  0  0  0
 53 74  1  0  0  0  0
 54 69  1  0  0  0  0
 55 68  1  0  0  0  0
 56 65  1  0  0  0  0
 57 66  1  0  0  0  0
 58 66  1  0  0  0  0
 59 66  1  0  0  0  0
 60 76  1  0  0  0  0
 61 78  1  0  0  0  0
 62 76  1  0  0  0  0
 63 77  1  0  0  0  0
 64 66  1  0  0  0  0
 64 75  1  0  0  0  0
 65 78  1  0  0  0  0
 67 68  1  0  0  0  0
M  CHG  2  77   1  78   1
M  ISO  4  35 101  40 100  76 100  85 101
M  END
> <Batch ID>
0105

> <Smiles>
CNC(C)C(=O)NC(C(=O)N1Cc2cc([101O:1][101CH:1]=C3CCN(Cc4ccc(C[100N:0](C)[100C:0](=O)N5CCCC(n6nc(-c7ccc(Oc8ccc(F)cc8F)cc7)c(C(N)=O)c6N)C5)cc4N)C3)ccc2CC1C(=O)NC1CCCc2ccccc21)C(C)(C)C

> <Shape>
0.280

> <Color>
0.134

> <Negative vol penalty>
0.000

$$$$

  -OEChem-04052301113D

 88 97  0     1  0  0  0  0  0999 V2000
  -33.4599  -33.2672   29.0131 C   0  0  0  0  0  0  0  0  0  0  0  0
  -33.2332  -31.9322   28.6941 C   0  0  0  0  0  0  0  0  0  0  0  0
  -23.3648  -10.2212   22.1935 C   0  0  0  0  0  0  0  0  0  0  0  0
  -23.7725   -9.5845   19.8988 C   0  0  0  0  0  0  0  0  0  0  0  0
  -32.4222  -34.1928   28.9120 C   0  0  0  0  0  0  0  0  0  0  0  0
  -31.9682  -31.5218   28.2749 C   0  0  0  0  0  0  0  0  0  0  0  0
  -31.0336  -28.2771   21.9497 C   0  0  0  0  0  0  0  0  0  0  0  0
  -29.7018  -17.9653   19.2081 C   0  0  0  0  0  0  0  0  0  0  0  0
  -28.3364  -18.9670   20.9313 C   0  0  0  0  0  0  0  0  0  0  0  0
  -29.8414  -19.2104   18.5949 C   0  0  0  0  0  0  0  0  0  0  0  0
  -28.4760  -20.2121   20.3181 C   0  0  0  0  0  0  0  0  0  0  0  0
  -22.6816   -9.0236   22.4044 C   0  0  0  0  0  0  0  0  0  0  0  0
  -23.0893   -8.3868   20.1098 C   0  0  0  0  0  0  0  0  0  0  0  0
  -30.8058  -27.4186   20.8738 C   0  0  0  0  0  0  0  0  0  0  0  0
  -19.6202   -7.7530   21.7429 C   0  0  0  0  0  0  0  0  0  0  0  0
  -18.4079   -7.8117   22.4303 C   0  0  0  0  0  0  0  0  0  0  0  0
  -28.4387  -27.4111   21.3679 C   0  0  0  0  0  0  0  0  0  0  0  0
  -19.3039   -6.3528   24.1349 C   0  0  0  0  0  0  0  0  0  0  0  0
  -23.9102  -10.5017   20.9407 C   0  0  0  0  0  0  0  0  0  0  0  0
  -24.1057  -13.0439   20.8594 C   0  0  0  0  0  0  0  0  0  0  0  0
  -31.1463  -33.7954   28.4821 C   0  0  0  0  0  0  0  0  0  0  0  0
  -29.9617  -28.7188   22.7308 C   0  0  0  0  0  0  0  0  0  0  0  0
  -30.9120  -32.4427   28.1693 C   0  0  0  0  0  0  0  0  0  0  0  0
  -28.6594  -28.2813   22.4388 C   0  0  0  0  0  0  0  0  0  0  0  0
  -28.9493  -17.8436   20.3763 C   0  0  0  0  0  0  0  0  0  0  0  0
  -29.2285  -20.3338   19.1499 C   0  0  0  0  0  0  0  0  0  0  0  0
  -22.5439   -8.1064   21.3626 C   0  0  0  0  0  0  0  0  0  0  0  0
  -29.5115  -26.9864   20.5839 C   0  0  0  0  0  0  0  0  0  0  0  0
  -20.6743   -6.9941   22.2514 C   0  0  0  0  0  0  0  0  0  0  0  0
  -18.2498   -7.1116   23.6263 C   0  0  0  0  0  0  0  0  0  0  0  0
  -20.5162   -6.2941   23.4475 C   0  0  0  0  0  0  0  0  0  0  0  0
  -24.6155  -11.7390   20.7220 C   0  0  0  0  0  0  0  0  0  0  0  0
  -25.1630  -13.8609   20.5415 C   0  0  0  0  0  0  0  0  0  0  0  0
  -29.7832  -23.9846   18.6238 C   0  0  0  0  0  0  0  0  0  0  0  0
  -29.9439  -22.7372   19.1288 C   0  0  0  0  0  0  0  0  0  0  0  0
  -28.9181  -24.1493   17.4074 C   0  0  0  0  0  0  0  0  0  0  0  0
  -22.7936  -13.4788   21.2405 C   0  0  0  0  0  0  0  0  0  0  0  0
  -28.8098  -30.7113   25.6721 C   0  0  0  0  0  0  0  0  0  0  0  0
  -26.6741  -31.0694   23.3349 C   0  0  0  0  0  0  0  0  0  0  0  0
  -25.5164  -34.0107   25.0745 C   0  0  0  0  0  0  0  0  0  0  0  0
  -30.6193  -14.8945   21.4163 C   0  0  0  0  0  0  0  0  0  0  0  0
  -30.0436  -34.8232   28.4339 C   0  0  0  0  0  0  0  0  0  0  0  0
  -30.1724  -29.5925   23.9381 C   0  0  0  0  0  0  0  0  0  0  0  0
  -27.5414  -28.7547   23.3247 C   0  0  0  0  0  0  0  0  0  0  0  0
  -28.1627  -22.9481   16.8921 C   0  0  0  0  0  0  0  0  0  0  0  0
  -28.8299  -34.3769   27.6227 C   0  0  0  0  0  0  0  0  0  0  0  0
  -29.6437  -12.8112   18.4667 C   0  0  0  0  0  0  0  0  0  0  0  0
  -28.4309  -32.9533   27.9984 C   0  0  0  0  0  0  0  0  0  0  0  0
  -28.2219  -12.4066   18.8531 C   0  0  0  0  0  0  0  0  0  0  0  0
  -28.9267  -21.6575   17.1306 C   0  0  0  0  0  0  0  0  0  0  0  0
  -30.5062  -13.0432   19.7014 C   0  0  0  0  0  0  0  0  0  0  0  0
  -28.5198  -13.6493   21.0443 C   0  0  0  0  0  0  0  0  0  0  0  0
  -29.5600  -31.9635   27.6871 C   0  0  1  0  0  0  0  0  0  0  0  0
  -29.0178  -30.5824   24.1917 C   0  0  1  0  0  0  0  0  0  0  0  0
  -27.6060  -13.4243   19.8282 C   0  0  2  0  0  0  0  0  0  0  0  0
  -30.8588  -22.5151   20.3175 C   0  0  0  0  0  0  0  0  0  0  0  0
  -23.6967  -35.6386   24.4948 C   0  0  0  0  0  0  0  0  0  0  0  0
  -28.9238  -32.6820   22.0510 C   0  0  0  0  0  0  0  0  0  0  0  0
  -27.8162  -34.7644   22.8906 C   0  0  0  0  0  0  0  0  0  0  0  0
  -26.6274  -33.2888   21.2683 C   0  0  0  0  0  0  0  0  0  0  0  0
  -30.6234  -17.1473   22.5672 C   0  0  0  0  0  0  0  0  0  0  0  0
  -24.1663  -33.6065   27.6769 C   0  0  0  0  0  0  0  0  0  0  0  0
  -28.7991  -16.5128   21.0323 C   0  0  0  0  0  0  0  0  0  0  0  0
  -30.3523  -25.2579   19.1828 C   0  0  0  0  0  0  0  0  0  1  0  0
  -26.9119  -32.5241   23.6613 C   0  0  1  0  0  0  0  0  0  0  0  0
  -24.0731  -34.4149   25.3154 C   0  0  2  0  0  0  0  0  0  0  0  0
  -27.5773  -33.2941   22.4859 C   0  0  0  0  0  0  0  0  0  0  0  0
  -25.8970  -11.7230   20.3459 N   0  0  0  0  0  0  0  0  0  0  0  0
  -26.2013  -13.0281   20.2442 N   0  0  0  0  0  0  0  0  0  0  0  0
  -29.3718  -21.6007   18.5276 N   0  0  0  0  0  0  0  0  0  0  0  0
  -27.7139  -30.1793   23.6309 N   0  0  0  0  0  0  0  0  0  0  0  0
  -29.8810  -13.9956   20.6288 N   0  0  0  0  0  0  0  0  0  0  0  0
  -25.2965  -15.2033   20.4900 N   0  0  0  0  0  0  0  0  0  0  0  0
  -21.8267  -12.5074   21.5334 N   0  0  0  0  0  0  0  0  0  0  0  0
  -29.6013  -31.6735   26.2698 N   0  0  0  0  0  0  0  0  0  0  0  0
  -25.6222  -33.0654   24.0763 N   0  0  0  0  0  0  0  0  0  0  0  0
  -30.0012  -16.1096   21.7480 N   0  0  0  0  0  0  0  0  0  0  0  0
  -23.8571  -34.7303   26.7558 N   0  3  0  0  0  0  0  0  0  0  0  0
  -28.7828  -25.2502   16.8741 O   0  0  0  0  0  0  0  0  0  0  0  0
  -22.4831  -14.6925   21.3030 O   0  0  0  0  0  0  0  0  0  0  0  0
  -27.9906  -29.9922   26.2320 O   0  0  0  0  0  0  0  0  0  0  0  0
  -25.6011  -30.7365   22.8247 O   0  0  0  0  0  0  0  0  0  0  0  0
  -26.4563  -34.4888   25.7058 O   0  0  0  0  0  0  0  0  0  0  0  0
  -31.7609  -14.6219   21.8091 O   0  0  0  0  0  0  0  0  0  0  0  0
  -21.8775   -6.9375   21.5682 O   0  0  0  0  0  0  0  0  0  0  0  0
  -29.2954  -26.1518   19.5297 O   0  0  0  0  0  0  0  0  0  1  0  0
  -17.0861   -7.1693   24.2871 F   0  0  0  0  0  0  0  0  0  0  0  0
  -21.5257   -5.5643   23.9416 F   0  0  0  0  0  0  0  0  0  0  0  0
  1  2  1  0  0  0  0
  1  5  2  0  0  0  0
  2  6  2  0  0  0  0
  3 12  2  0  0  0  0
  3 19  1  0  0  0  0
  4 13  1  0  0  0  0
  4 19  2  0  0  0  0
  5 21  1  0  0  0  0
  6 23  1  0  0  0  0
  7 14  2  0  0  0  0
  7 22  1  0  0  0  0
  8 10  2  0  0  0  0
  8 25  1  0  0  0  0
  9 11  1  0  0  0  0
  9 25  2  0  0  0  0
 10 26  1  0  0  0  0
 11 26  2  0  0  0  0
 12 27  1  0  0  0  0
 13 27  2  0  0  0  0
 14 28  1  0  0  0  0
 15 16  2  0  0  0  0
 15 29  1  0  0  0  0
 16 30  1  0  0  0  0
 17 24  1  0  0  0  0
 17 28  2  0  0  0  0
 18 30  2  0  0  0  0
 18 31  1  0  0  0  0
 19 32  1  0  0  0  0
 20 32  1  0  0  0  0
 20 33  2  0  0  0  0
 20 37  1  0  0  0  0
 21 23  2  0  0  0  0
 21 42  1  0  0  0  0
 22 24  2  0  0  0  0
 22 43  1  0  0  0  0
 23 53  1  0  0  0  0
 24 44  1  0  0  0  0
 25 63  1  0  0  0  0
 26 70  1  0  0  0  0
 27 85  1  0  0  0  0
 28 86  1  0  0  0  0
 29 31  2  0  0  0  0
 29 85  1  0  0  0  0
 30 87  1  0  0  0  0
 31 88  1  0  0  0  0
 32 68  2  0  0  0  0
 33 69  1  0  0  0  0
 33 73  1  0  0  0  0
 34 35  2  0  0  0  0
 34 36  1  0  0  0  0
 34 64  1  0  0  0  0
 35 56  1  0  0  0  0
 35 70  1  0  0  0  0
 36 45  1  0  0  0  0
 36 79  2  0  0  0  0
 37 74  1  0  0  0  0
 37 80  2  0  0  0  0
 38 54  1  0  0  0  0
 38 75  1  0  0  0  0
 38 81  2  0  0  0  0
 39 65  1  0  0  0  0
 39 71  1  0  0  0  0
 39 82  2  0  0  0  0
 40 66  1  0  0  0  0
 40 76  1  0  0  0  0
 40 83  2  0  0  0  0
 41 72  1  0  0  0  0
 41 77  1  0  0  0  0
 41 84  2  0  0  0  0
 42 46  1  0  0  0  0
 43 54  1  0  0  0  0
 44 71  1  0  0  0  0
 45 50  1  0  0  0  0
 46 48  1  0  0  0  0
 47 49  1  0  0  0  0
 47 51  1  0  0  0  0
 48 53  1  0  0  0  0
 49 55  1  0  0  0  0
 50 70  1  0  0  0  0
 51 72  1  0  0  0  0
 52 55  1  0  0  0  0
 52 72  1  0  0  0  0
 53 75  1  0  0  0  0
 54 71  1  0  0  0  0
 55 69  1  0  0  0  0
 57 66  1  0  0  0  0
 58 67  1  0  0  0  0
 59 67  1  0  0  0  0
 60 67  1  0  0  0  0
 61 77  1  0  0  0  0
 62 78  1  0  0  0  0
 63 77  1  0  0  0  0
 64 86  1  0  0  0  0
 65 67  1  0  0  0  0
 65 76  1  0  0  0  0
 66 78  1  0  0  0  0
 68 69  1  0  0  0  0
M  CHG  1  78   1
M  ISO  4  41 100  64 101  77 100  86 101
M  END
> <Batch ID>
0105

> <Smiles>
CNC(C)C(=O)NC(C(=O)N1Cc2cc([101O:1][101CH2:1]C3=C(C)N(c4ccc(C[100N:0](C)[100C:0](=O)N5CCCC(n6nc(-c7ccc(Oc8ccc(F)cc8F)cc7)c(C(N)=O)c6N)C5)cc4)CCC3=O)ccc2CC1C(=O)NC1CCCc2ccccc21)C(C)(C)C

> <Shape>
0.338

> <Color>
0.190

> <Negative vol penalty>
0.000

$$$$

  -OEChem-04052301113D

 86 95  0     1  0  0  0  0  0999 V2000
  -27.1687  -36.9267   24.5613 C   0  0  0  0  0  0  0  0  0  0  0  0
  -27.7697  -35.7548   24.1131 C   0  0  0  0  0  0  0  0  0  0  0  0
  -24.2869   -9.5311   21.4740 C   0  0  0  0  0  0  0  0  0  0  0  0
  -24.8926  -10.7144   23.4915 C   0  0  0  0  0  0  0  0  0  0  0  0
  -25.8476  -36.9051   25.0064 C   0  0  0  0  0  0  0  0  0  0  0  0
  -27.0503  -34.5603   24.1108 C   0  0  0  0  0  0  0  0  0  0  0  0
  -27.4822  -30.0103   20.0344 C   0  0  0  0  0  0  0  0  0  0  0  0
  -23.9592   -8.4068   22.2318 C   0  0  0  0  0  0  0  0  0  0  0  0
  -24.5648   -9.5901   24.2493 C   0  0  0  0  0  0  0  0  0  0  0  0
  -28.1668  -28.7960   20.0532 C   0  0  0  0  0  0  0  0  0  0  0  0
  -21.3806   -7.3638   24.1543 C   0  0  0  0  0  0  0  0  0  0  0  0
  -20.1882   -6.7051   23.8546 C   0  0  0  0  0  0  0  0  0  0  0  0
  -26.1632  -27.6851   20.8088 C   0  0  0  0  0  0  0  0  0  0  0  0
  -28.2667  -20.8431   21.1413 C   0  0  0  0  0  0  0  0  0  0  0  0
  -30.3878  -19.2345   20.3070 C   0  0  0  0  0  0  0  0  0  0  0  0
  -21.4250   -4.6877   23.3675 C   0  0  0  0  0  0  0  0  0  0  0  0
  -24.7537  -10.6849   22.1039 C   0  0  0  0  0  0  0  0  0  0  0  0
  -24.2393  -12.9049   20.9572 C   0  0  0  0  0  0  0  0  0  0  0  0
  -25.1085  -35.7116   25.0005 C   0  0  0  0  0  0  0  0  0  0  0  0
  -26.1336  -30.0731   20.4138 C   0  0  0  0  0  0  0  0  0  0  0  0
  -25.7185  -34.5225   24.5575 C   0  0  0  0  0  0  0  0  0  0  0  0
  -25.4631  -28.9010   20.7915 C   0  0  0  0  0  0  0  0  0  0  0  0
  -29.5665  -21.3493   21.1379 C   0  0  0  0  0  0  0  0  0  0  0  0
  -28.0274  -19.5326   20.7276 C   0  0  0  0  0  0  0  0  0  0  0  0
  -30.6270  -20.5450   20.7207 C   0  0  0  0  0  0  0  0  0  0  0  0
  -29.0880  -18.7283   20.3105 C   0  0  0  0  0  0  0  0  0  0  0  0
  -24.0981   -8.4363   23.6194 C   0  0  0  0  0  0  0  0  0  0  0  0
  -27.5081  -27.6336   20.4432 C   0  0  0  0  0  0  0  0  0  0  0  0
  -22.5953   -6.6844   24.0606 C   0  0  0  0  0  0  0  0  0  0  0  0
  -20.2104   -5.3671   23.4612 C   0  0  0  0  0  0  0  0  0  0  0  0
  -22.6175   -5.3464   23.6672 C   0  0  0  0  0  0  0  0  0  0  0  0
  -25.0929  -11.8464   21.3216 C   0  0  0  0  0  0  0  0  0  0  0  0
  -25.0348  -13.7505   20.2234 C   0  0  0  0  0  0  0  0  0  0  0  0
  -29.4966  -24.9447   21.7491 C   0  0  0  0  0  0  0  0  0  0  0  0
  -28.8124  -26.0867   21.6166 C   0  0  0  0  0  0  0  0  0  1  0  0
  -22.8514  -13.1058   21.2556 C   0  0  0  0  0  0  0  0  0  0  0  0
  -24.5180  -31.5515   22.7176 C   0  0  0  0  0  0  0  0  0  0  0  0
  -21.9450  -30.3598   21.1423 C   0  0  0  0  0  0  0  0  0  0  0  0
  -20.6791  -27.9931   19.0344 C   0  0  0  0  0  0  0  0  0  0  0  0
  -29.8251  -16.4801   19.4454 C   0  0  0  0  0  0  0  0  0  0  0  0
  -23.6985  -35.7283   25.5355 C   0  0  0  0  0  0  0  0  0  0  0  0
  -25.4020  -31.3863   20.3624 C   0  0  0  0  0  0  0  0  0  0  0  0
  -24.0102  -28.9114   21.1884 C   0  0  0  0  0  0  0  0  0  0  0  0
  -30.2090  -24.5108   22.9904 C   0  0  0  0  0  0  0  0  0  0  0  0
  -22.8858  -34.4951   25.1493 C   0  0  0  0  0  0  0  0  0  0  0  0
  -29.6916  -13.0947   18.3508 C   0  0  0  0  0  0  0  0  0  0  0  0
  -23.6983  -33.2255   25.3837 C   0  0  0  0  0  0  0  0  0  0  0  0
  -28.4130  -12.5552   18.9962 C   0  0  0  0  0  0  0  0  0  0  0  0
  -30.0630  -22.9929   22.9508 C   0  0  0  0  0  0  0  0  0  0  0  0
  -30.4206  -14.0740   19.2690 C   0  0  0  0  0  0  0  0  0  0  0  0
  -28.3187  -14.6389   20.4232 C   0  0  0  0  0  0  0  0  0  0  0  0
  -24.9629  -33.2119   24.5165 C   0  0  1  0  0  0  0  0  0  0  0  0
  -29.5612  -23.8430   20.7226 C   0  0  1  0  0  0  0  0  0  0  0  0
  -24.1703  -31.4197   21.2618 C   0  0  1  0  0  0  0  0  0  0  0  0
  -27.5157  -13.6980   19.5102 C   0  0  2  0  0  0  0  0  0  0  0  0
  -30.7334  -24.0687   19.7691 C   0  0  0  0  0  0  0  0  0  0  0  0
  -18.5337  -27.2550   17.9622 C   0  0  0  0  0  0  0  0  0  0  0  0
  -21.0390  -29.1508   23.7932 C   0  0  0  0  0  0  0  0  0  0  0  0
  -19.4733  -27.6799   22.5074 C   0  0  0  0  0  0  0  0  0  0  0  0
  -19.2041  -30.1585   22.4250 C   0  0  0  0  0  0  0  0  0  0  0  0
  -21.7549  -28.4281   16.3118 C   0  0  0  0  0  0  0  0  0  0  0  0
  -21.1449  -29.0816   21.2144 C   0  0  1  0  0  0  0  0  0  0  0  0
  -19.7847  -28.1067   17.8131 C   0  0  2  0  0  0  0  0  0  0  0  0
  -20.2432  -29.0175   22.4794 C   0  0  0  0  0  0  0  0  0  0  0  0
  -26.3355  -12.0029   20.8573 N   0  0  0  0  0  0  0  0  0  0  0  0
  -26.2685  -13.1696   20.1937 N   0  0  0  0  0  0  0  0  0  0  0  0
  -29.7830  -22.6523   21.5531 N   0  0  3  0  0  0  0  0  0  0  0  0
  -23.3401  -30.2209   21.1280 N   0  0  0  0  0  0  0  0  0  0  0  0
  -29.5095  -15.1312   19.7129 N   0  0  0  0  0  0  0  0  0  0  0  0
  -26.7028  -19.0406   20.7395 N   0  0  0  0  0  0  0  0  0  0  0  0
  -31.9513  -21.0375   20.7093 N   0  0  0  0  0  0  0  0  0  0  0  0
  -24.7925  -14.9268   19.6071 N   0  0  0  0  0  0  0  0  0  0  0  0
  -22.1858  -12.1390   22.0215 N   0  0  0  0  0  0  0  0  0  0  0  0
  -28.8688  -17.3944   19.8860 N   0  0  0  0  0  0  0  0  0  0  0  0
  -24.6362  -32.8580   23.1518 N   0  0  0  0  0  0  0  0  0  0  0  0
  -20.4151  -28.9852   19.9549 N   0  0  0  0  0  0  0  0  0  0  0  0
  -20.5147  -27.6600   16.5931 N   0  3  0  0  0  0  0  0  0  0  0  0
  -22.2159  -14.1047   20.8409 O   0  0  0  0  0  0  0  0  0  0  0  0
  -24.6665  -30.5425   23.3971 O   0  0  0  0  0  0  0  0  0  0  0  0
  -21.3537  -31.4413   21.0930 O   0  0  0  0  0  0  0  0  0  0  0  0
  -21.5247  -27.1102   19.1610 O   0  0  0  0  0  0  0  0  0  0  0  0
  -30.8540  -16.7989   18.8438 O   0  0  0  0  0  0  0  0  0  0  0  0
  -23.7782   -7.3396   24.3592 O   0  0  0  0  0  0  0  0  0  0  0  0
  -28.1742  -26.4470   20.4631 O   0  0  0  0  0  0  0  0  0  1  0  0
  -19.0651   -4.7342   23.1750 F   0  0  0  0  0  0  0  0  0  0  0  0
  -23.7812   -4.6881   23.5765 F   0  0  0  0  0  0  0  0  0  0  0  0
  1  2  1  0  0  0  0
  1  5  2  0  0  0  0
  2  6  2  0  0  0  0
  3  8  2  0  0  0  0
  3 17  1  0  0  0  0
  4  9  1  0  0  0  0
  4 17  2  0  0  0  0
  5 19  1  0  0  0  0
  6 21  1  0  0  0  0
  7 10  2  0  0  0  0
  7 20  1  0  0  0  0
  8 27  1  0  0  0  0
  9 27  2  0  0  0  0
 10 28  1  0  0  0  0
 11 12  2  0  0  0  0
 11 29  1  0  0  0  0
 12 30  1  0  0  0  0
 13 22  1  0  0  0  0
 13 28  2  0  0  0  0
 14 23  1  0  0  0  0
 14 24  2  0  0  0  0
 15 25  1  0  0  0  0
 15 26  2  0  0  0  0
 16 30  2  0  0  0  0
 16 31  1  0  0  0  0
 17 32  1  0  0  0  0
 18 32  1  0  0  0  0
 18 33  2  0  0  0  0
 18 36  1  0  0  0  0
 19 21  2  0  0  0  0
 19 41  1  0  0  0  0
 20 22  2  0  0  0  0
 20 42  1  0  0  0  0
 21 52  1  0  0  0  0
 22 43  1  0  0  0  0
 23 25  2  0  0  0  0
 23 67  1  0  0  0  0
 24 26  1  0  0  0  0
 24 70  1  0  0  0  0
 25 71  1  0  0  0  0
 26 74  1  0  0  0  0
 27 83  1  0  0  0  0
 28 84  1  0  0  0  0
 29 31  2  0  0  0  0
 29 83  1  0  0  0  0
 30 85  1  0  0  0  0
 31 86  1  0  0  0  0
 32 65  2  0  0  0  0
 33 66  1  0  0  0  0
 33 72  1  0  0  0  0
 34 35  2  0  0  0  0
 34 44  1  0  0  0  0
 34 53  1  0  0  0  0
 35 84  1  0  0  0  0
 36 73  1  0  0  0  0
 36 78  2  0  0  0  0
 37 54  1  0  0  0  0
 37 75  1  0  0  0  0
 37 79  2  0  0  0  0
 38 62  1  0  0  0  0
 38 68  1  0  0  0  0
 38 80  2  0  0  0  0
 39 63  1  0  0  0  0
 39 76  1  0  0  0  0
 39 81  2  0  0  0  0
 40 69  1  0  0  0  0
 40 74  1  0  0  0  0
 40 82  2  0  0  0  0
 41 45  1  0  0  0  0
 42 54  1  0  0  0  0
 43 68  1  0  0  0  0
 44 49  1  0  0  0  0
 45 47  1  0  0  0  0
 46 48  1  0  0  0  0
 46 50  1  0  0  0  0
 47 52  1  0  0  0  0
 48 55  1  0  0  0  0
 49 67  1  0  0  0  0
 50 69  1  0  0  0  0
 51 55  1  0  0  0  0
 51 69  1  0  0  0  0
 52 75  1  0  0  0  0
 53 56  1  0  0  0  0
 53 67  1  0  0  0  0
 54 68  1  0  0  0  0
 55 66  1  0  0  0  0
 57 63  1  0  0  0  0
 58 64  1  0  0  0  0
 59 64  1  0  0  0  0
 60 64  1  0  0  0  0
 61 77  1  0  0  0  0
 62 64  1  0  0  0  0
 62 76  1  0  0  0  0
 63 77  1  0  0  0  0
 65 66  1  0  0  0  0
M  CHG  1  77   1
M  ISO  4  35 101  40 100  74 100  84 101
M  END
> <Batch ID>
0105

> <Smiles>
CNC(C)C(=O)NC(C(=O)N1Cc2cc([101O:1][101CH:1]=C3CCN(c4cc(N)c([100NH:0][100C:0](=O)N5CCCC(n6nc(-c7ccc(Oc8ccc(F)cc8F)cc7)c(C(N)=O)c6N)C5)cc4N)C3C)ccc2CC1C(=O)NC1CCCc2ccccc21)C(C)(C)C

> <Shape>
0.360

> <Color>
0.129

> <Negative vol penalty>
0.000

$$$$

  -OEChem-04052301113D

 87 96  0     1  0  0  0  0  0999 V2000
  -26.3533  -33.8600   22.1296 C   0  0  0  0  0  0  0  0  0  0  0  0
  -26.2456  -32.5580   21.6515 C   0  0  0  0  0  0  0  0  0  0  0  0
  -22.6510  -10.2147   20.1862 C   0  0  0  0  0  0  0  0  0  0  0  0
  -24.3428   -9.4100   21.7118 C   0  0  0  0  0  0  0  0  0  0  0  0
  -29.2619  -17.0177   20.0254 C   0  0  0  0  0  0  0  0  0  0  0  0
  -28.9371  -17.4852   22.3734 C   0  0  0  0  0  0  0  0  0  0  0  0
  -27.3122  -34.7202   21.5961 C   0  0  0  0  0  0  0  0  0  0  0  0
  -27.0960  -32.1158   20.6387 C   0  0  0  0  0  0  0  0  0  0  0  0
  -28.9831  -27.5078   21.5603 C   0  0  0  0  0  0  0  0  0  0  0  0
  -28.5338  -18.1612   19.6970 C   0  0  0  0  0  0  0  0  0  0  0  0
  -28.2091  -18.6288   22.0450 C   0  0  0  0  0  0  0  0  0  0  0  0
  -21.9192   -9.0431   20.3797 C   0  0  0  0  0  0  0  0  0  0  0  0
  -23.6109   -8.2385   21.9055 C   0  0  0  0  0  0  0  0  0  0  0  0
  -28.1463  -26.4180   21.3236 C   0  0  0  0  0  0  0  0  0  0  0  0
  -20.9074   -7.2569   23.6798 C   0  0  0  0  0  0  0  0  0  0  0  0
  -20.7562   -6.7978   24.9882 C   0  0  0  0  0  0  0  0  0  0  0  0
  -29.2457  -26.0406   19.2099 C   0  0  0  0  0  0  0  0  0  0  0  0
  -21.8605   -4.7334   24.3914 C   0  0  0  0  0  0  0  0  0  0  0  0
  -23.8629  -10.3981   20.8522 C   0  0  0  0  0  0  0  0  0  0  0  0
  -29.4635  -16.6796   21.3636 C   0  0  0  0  0  0  0  0  0  0  0  0
  -24.2029  -12.9254   20.9209 C   0  0  0  0  0  0  0  0  0  0  0  0
  -28.1811  -34.2853   20.5830 C   0  0  0  0  0  0  0  0  0  0  0  0
  -29.9518  -27.8794   20.6170 C   0  0  0  0  0  0  0  0  0  0  0  0
  -28.0664  -32.9714   20.0902 C   0  0  0  0  0  0  0  0  0  0  0  0
  -30.0952  -27.1339   19.4381 C   0  0  0  0  0  0  0  0  0  0  0  0
  -28.0074  -18.9668   20.7067 C   0  0  0  0  0  0  0  0  0  0  0  0
  -22.3991   -8.0550   21.2394 C   0  0  0  0  0  0  0  0  0  0  0  0
  -28.2756  -25.6860   20.1470 C   0  0  0  0  0  0  0  0  0  0  0  0
  -21.5351   -6.4543   22.7271 C   0  0  0  0  0  0  0  0  0  0  0  0
  -21.2328   -5.5361   25.3440 C   0  0  0  0  0  0  0  0  0  0  0  0
  -22.0117   -5.1926   23.0830 C   0  0  0  0  0  0  0  0  0  0  0  0
  -24.6196  -11.6078   20.6522 C   0  0  0  0  0  0  0  0  0  0  0  0
  -25.2758  -13.7046   20.5627 C   0  0  0  0  0  0  0  0  0  0  0  0
  -26.7271  -22.4701   20.6791 C   0  0  0  0  0  0  0  0  0  0  0  0
  -27.6073  -21.4420   20.7508 C   0  0  0  0  0  0  0  0  0  0  0  0
  -25.3267  -22.1720   20.2263 C   0  0  0  0  0  0  0  0  0  0  0  0
  -30.2225  -15.4874   21.7060 C   0  0  0  0  0  0  0  0  0  0  0  0
  -22.9575  -13.4023   21.4474 C   0  0  0  0  0  0  0  0  0  0  0  0
  -30.7949  -14.6105   20.6588 C   0  0  0  0  0  0  0  0  0  0  0  0
  -30.4907  -30.4706   18.8566 C   0  0  0  0  0  0  0  0  0  0  0  0
  -33.2004  -28.8813   18.0478 C   0  0  0  0  0  0  0  0  0  0  0  0
  -34.1174  -25.4915   17.2197 C   0  0  0  0  0  0  0  0  0  0  0  0
  -29.1702  -35.2660   20.0045 C   0  0  0  0  0  0  0  0  0  0  0  0
  -30.8645  -29.0411   20.8994 C   0  0  0  0  0  0  0  0  0  0  0  0
  -31.1330  -27.4793   18.4027 C   0  0  0  0  0  0  0  0  0  0  0  0
  -24.9308  -20.7316   20.0082 C   0  0  0  0  0  0  0  0  0  0  0  0
  -30.2816  -34.6039   19.1943 C   0  0  0  0  0  0  0  0  0  0  0  0
  -29.4880  -12.5609   18.0230 C   0  0  0  0  0  0  0  0  0  0  0  0
  -29.7005  -33.5653   18.2401 C   0  0  0  0  0  0  0  0  0  0  0  0
  -28.0846  -12.2070   18.5137 C   0  0  0  0  0  0  0  0  0  0  0  0
  -26.0988  -19.8948   19.5165 C   0  0  0  0  0  0  0  0  0  0  0  0
  -30.4747  -12.6655   19.1814 C   0  0  0  0  0  0  0  0  0  0  0  0
  -28.6472  -13.2757   20.7424 C   0  0  0  0  0  0  0  0  0  0  0  0
  -28.9871  -32.4471   19.0097 C   0  0  1  0  0  0  0  0  0  0  0  0
  -31.4730  -29.6435   19.6368 C   0  0  1  0  0  0  0  0  0  0  0  0
  -27.6168  -13.1884   19.6031 C   0  0  2  0  0  0  0  0  0  0  0  0
  -29.0483  -21.7066   21.1422 C   0  0  0  0  0  0  0  0  0  0  0  0
  -36.3037  -24.2853   17.4701 C   0  0  0  0  0  0  0  0  0  0  0  0
  -33.6754  -29.7434   15.1597 C   0  0  0  0  0  0  0  0  0  0  0  0
  -34.7450  -27.5181   14.7447 C   0  0  0  0  0  0  0  0  0  0  0  0
  -35.7422  -29.0888   16.4064 C   0  0  0  0  0  0  0  0  0  0  0  0
  -32.8721  -23.3223   18.8017 C   0  0  0  0  0  0  0  0  0  0  0  0
  -26.9892  -23.9019   21.0517 C   0  0  0  0  0  0  0  0  0  1  0  0
  -33.5818  -27.9005   16.9655 C   0  0  1  0  0  0  0  0  0  0  0  0
  -34.9305  -24.5356   18.0738 C   0  0  2  0  0  0  0  0  0  0  0  0
  -34.4095  -28.5643   15.8289 C   0  0  0  0  0  0  0  0  0  0  0  0
  -25.8603  -11.5495   20.1609 N   0  0  0  0  0  0  0  0  0  0  0  0
  -30.4515  -15.1120   22.9356 N   0  0  0  0  0  0  0  0  0  0  0  0
  -26.2324  -12.8401   20.1181 N   0  0  0  0  0  0  0  0  0  0  0  0
  -27.2669  -20.1300   20.3726 N   0  0  0  0  0  0  0  0  0  0  0  0
  -29.9836  -13.5764   20.2134 N   0  0  0  0  0  0  0  0  0  0  0  0
  -31.9974  -28.6276   18.7218 N   0  0  0  0  0  0  0  0  0  0  0  0
  -25.4847  -15.0381   20.5876 N   0  0  0  0  0  0  0  0  0  0  0  0
  -22.8257  -13.5331   22.8366 N   0  0  0  0  0  0  0  0  0  0  0  0
  -29.9512  -31.5243   19.5695 N   0  0  0  0  0  0  0  0  0  0  0  0
  -34.2634  -26.7981   17.6354 N   0  0  0  0  0  0  0  0  0  0  0  0
  -34.2272  -23.2278   18.2003 N   0  3  0  0  0  0  0  0  0  0  0  0
  -24.5025  -23.0757   20.0891 O   0  0  0  0  0  0  0  0  0  0  0  0
  -21.9847  -13.6880   20.7088 O   0  0  0  0  0  0  0  0  0  0  0  0
  -31.9294  -14.8933   20.2964 O   0  0  0  0  0  0  0  0  0  0  0  0
  -30.2418  -30.1755   17.6936 O   0  0  0  0  0  0  0  0  0  0  0  0
  -33.9459  -29.8335   18.2912 O   0  0  0  0  0  0  0  0  0  0  0  0
  -33.4252  -25.1171   16.2757 O   0  0  0  0  0  0  0  0  0  0  0  0
  -21.6851   -6.9118   21.4287 O   0  0  0  0  0  0  0  0  0  0  0  0
  -27.4597  -24.6223   19.9132 O   0  0  0  0  0  0  0  0  0  1  0  0
  -21.0889   -5.0960   26.6009 F   0  0  0  0  0  0  0  0  0  0  0  0
  -22.6166   -4.4174   22.1724 F   0  0  0  0  0  0  0  0  0  0  0  0
  1  2  1  0  0  0  0
  1  7  2  0  0  0  0
  2  8  2  0  0  0  0
  3 12  2  0  0  0  0
  3 19  1  0  0  0  0
  4 13  1  0  0  0  0
  4 19  2  0  0  0  0
  5 10  2  0  0  0  0
  5 20  1  0  0  0  0
  6 11  1  0  0  0  0
  6 20  2  0  0  0  0
  7 22  1  0  0  0  0
  8 24  1  0  0  0  0
  9 14  2  0  0  0  0
  9 23  1  0  0  0  0
 10 26  1  0  0  0  0
 11 26  2  0  0  0  0
 12 27  1  0  0  0  0
 13 27  2  0  0  0  0
 14 28  1  0  0  0  0
 15 16  2  0  0  0  0
 15 29  1  0  0  0  0
 16 30  1  0  0  0  0
 17 25  1  0  0  0  0
 17 28  2  0  0  0  0
 18 30  2  0  0  0  0
 18 31  1  0  0  0  0
 19 32  1  0  0  0  0
 20 37  1  0  0  0  0
 21 32  1  0  0  0  0
 21 33  2  0  0  0  0
 21 38  1  0  0  0  0
 22 24  2  0  0  0  0
 22 43  1  0  0  0  0
 23 25  2  0  0  0  0
 23 44  1  0  0  0  0
 24 54  1  0  0  0  0
 25 45  1  0  0  0  0
 26 70  1  0  0  0  0
 27 84  1  0  0  0  0
 28 85  1  0  0  0  0
 29 31  2  0  0  0  0
 29 84  1  0  0  0  0
 30 86  1  0  0  0  0
 31 87  1  0  0  0  0
 32 67  2  0  0  0  0
 33 69  1  0  0  0  0
 33 73  1  0  0  0  0
 34 35  2  0  0  0  0
 34 36  1  0  0  0  0
 34 63  1  0  0  0  0
 35 57  1  0  0  0  0
 35 70  1  0  0  0  0
 36 46  1  0  0  0  0
 36 78  2  0  0  0  0
 37 39  1  0  0  0  0
 37 68  2  0  0  0  0
 38 74  1  0  0  0  0
 38 79  2  0  0  0  0
 39 71  1  0  0  0  0
 39 80  2  0  0  0  0
 40 55  1  0  0  0  0
 40 75  1  0  0  0  0
 40 81  2  0  0  0  0
 41 64  1  0  0  0  0
 41 72  1  0  0  0  0
 41 82  2  0  0  0  0
 42 65  1  0  0  0  0
 42 76  1  0  0  0  0
 42 83  2  0  0  0  0
 43 47  1  0  0  0  0
 44 55  1  0  0  0  0
 45 72  1  0  0  0  0
 46 51  1  0  0  0  0
 47 49  1  0  0  0  0
 48 50  1  0  0  0  0
 48 52  1  0  0  0  0
 49 54  1  0  0  0  0
 50 56  1  0  0  0  0
 51 70  1  0  0  0  0
 52 71  1  0  0  0  0
 53 56  1  0  0  0  0
 53 71  1  0  0  0  0
 54 75  1  0  0  0  0
 55 72  1  0  0  0  0
 56 69  1  0  0  0  0
 58 65  1  0  0  0  0
 59 66  1  0  0  0  0
 60 66  1  0  0  0  0
 61 66  1  0  0  0  0
 62 77  1  0  0  0  0
 63 85  1  0  0  0  0
 64 66  1  0  0  0  0
 64 76  1  0  0  0  0
 65 77  1  0  0  0  0
 67 69  1  0  0  0  0
M  CHG  1  77   1
M  ISO  4  37 100  39 100  63 101  85 101
M  END
> <Batch ID>
0105

> <Smiles>
CNC(C)C(=O)NC(C(=O)N1Cc2cc([101O:1][101CH2:1]C3=C(C)N(c4ccc([100C:0](=N)[100C:0](=O)N5CCCC(n6nc(-c7ccc(Oc8ccc(F)cc8F)cc7)c(C(N)=O)c6N)C5)cc4)CCC3=O)ccc2CC1C(=O)NC1CCCc2ccccc21)C(C)(C)C

> <Shape>
0.280

> <Color>
0.174

> <Negative vol penalty>
0.000

$$$$

  -OEChem-04052301113D

 89 98  0     1  0  0  0  0  0999 V2000
  -18.0222  -26.4600   22.5682 C   0  0  0  0  0  0  0  0  0  0  0  0
  -19.0737  -26.2722   21.6769 C   0  0  0  0  0  0  0  0  0  0  0  0
  -27.1190  -13.2593   19.5005 C   0  0  0  0  0  0  0  0  0  0  0  0
  -26.1821  -13.5004   21.7143 C   0  0  0  0  0  0  0  0  0  0  0  0
  -18.0754  -27.4967   23.4989 C   0  0  0  0  0  0  0  0  0  0  0  0
  -20.1788  -27.1218   21.7152 C   0  0  0  0  0  0  0  0  0  0  0  0
  -24.6424  -24.5738   21.4394 C   0  0  0  0  0  0  0  0  0  0  0  0
  -32.3062  -21.9040   16.3913 C   0  0  0  0  0  0  0  0  0  0  0  0
  -33.6181  -21.7096   16.8234 C   0  0  0  0  0  0  0  0  0  0  0  0
  -26.6128  -11.9616   19.4275 C   0  0  0  0  0  0  0  0  0  0  0  0
  -25.6758  -12.2027   21.6414 C   0  0  0  0  0  0  0  0  0  0  0  0
  -25.0663  -24.1130   20.1937 C   0  0  0  0  0  0  0  0  0  0  0  0
  -23.0457  -10.6336   20.2128 C   0  0  0  0  0  0  0  0  0  0  0  0
  -21.7314  -10.4278   20.6320 C   0  0  0  0  0  0  0  0  0  0  0  0
  -31.5170  -21.6128   18.6561 C   0  0  0  0  0  0  0  0  0  0  0  0
  -26.5020  -26.0391   19.9767 C   0  0  0  0  0  0  0  0  0  0  0  0
  -22.5103   -8.8776   22.3134 C   0  0  0  0  0  0  0  0  0  0  0  0
  -26.9037  -14.0287   20.6439 C   0  0  0  0  0  0  0  0  0  0  0  0
  -32.8289  -21.4183   19.0882 C   0  0  0  0  0  0  0  0  0  0  0  0
  -27.1302  -16.4473   19.8650 C   0  0  0  0  0  0  0  0  0  0  0  0
  -19.1861  -28.3535   23.5550 C   0  0  0  0  0  0  0  0  0  0  0  0
  -25.1379  -25.7780   21.9599 C   0  0  0  0  0  0  0  0  0  0  0  0
  -20.2464  -28.1718   22.6467 C   0  0  0  0  0  0  0  0  0  0  0  0
  -26.0864  -26.5104   21.2313 C   0  0  0  0  0  0  0  0  0  0  0  0
  -31.2556  -21.8556   17.3076 C   0  0  0  0  0  0  0  0  0  0  0  0
  -33.8794  -21.4668   18.1719 C   0  0  0  0  0  0  0  0  0  0  0  0
  -25.8912  -11.4333   20.4979 C   0  0  0  0  0  0  0  0  0  0  0  0
  -25.9945  -24.8469   19.4612 C   0  0  0  0  0  0  0  0  0  0  0  0
  -24.0924   -9.9613   20.8439 C   0  0  0  0  0  0  0  0  0  0  0  0
  -21.4637   -9.5499   21.6823 C   0  0  0  0  0  0  0  0  0  0  0  0
  -23.8247   -9.0833   21.8941 C   0  0  0  0  0  0  0  0  0  0  0  0
  -27.4269  -15.3691   20.7201 C   0  0  0  0  0  0  0  0  0  0  0  0
  -27.8759  -17.4907   20.3567 C   0  0  0  0  0  0  0  0  0  0  0  0
  -28.3014  -21.0202   15.3440 C   0  0  0  0  0  0  0  0  0  0  0  0
  -28.9107  -22.6250   17.6942 C   0  0  0  0  0  0  0  0  0  0  0  0
  -33.0738  -21.1630   20.5310 C   0  0  0  0  0  0  0  0  0  0  0  0
  -26.2584  -16.5010   18.7280 C   0  0  0  0  0  0  0  0  0  0  0  0
  -23.9110  -28.5943   22.8594 C   0  0  0  0  0  0  0  0  0  0  0  0
  -27.0602  -29.0732   23.8113 C   0  0  0  0  0  0  0  0  0  0  0  0
  -27.1589  -31.7431   25.9331 C   0  0  0  0  0  0  0  0  0  0  0  0
  -32.5907  -19.5861   22.3760 C   0  0  0  0  0  0  0  0  0  0  0  0
  -19.1773  -29.4893   24.5472 C   0  0  0  0  0  0  0  0  0  0  0  0
  -24.6903  -26.2422   23.3195 C   0  0  0  0  0  0  0  0  0  0  0  0
  -26.6510  -27.8062   21.7475 C   0  0  0  0  0  0  0  0  0  0  0  0
  -27.2687  -21.2658   16.4182 C   0  0  0  0  0  0  0  0  0  0  0  0
  -29.5879  -21.8063   15.4472 C   0  0  0  0  0  0  0  0  0  0  0  0
  -20.5522  -30.1140   24.7702 C   0  0  0  0  0  0  0  0  0  0  0  0
  -30.4783  -17.9341   24.6793 C   0  0  0  0  0  0  0  0  0  0  0  0
  -21.2458  -30.3682   23.4356 C   0  0  0  0  0  0  0  0  0  0  0  0
  -29.4647  -17.2129   23.7867 C   0  0  0  0  0  0  0  0  0  0  0  0
  -31.8798  -17.9222   24.0706 C   0  0  0  0  0  0  0  0  0  0  0  0
  -30.9532  -17.6922   21.8021 C   0  0  0  0  0  0  0  0  0  0  0  0
  -21.4734  -29.0572   22.6735 C   0  0  1  0  0  0  0  0  0  0  0  0
  -27.5247  -22.6408   17.0404 C   0  0  1  0  0  0  0  0  0  0  0  0
  -24.9212  -27.7323   23.5622 C   0  0  1  0  0  0  0  0  0  0  0  0
  -29.5130  -17.7377   22.3376 C   0  0  1  0  0  0  0  0  0  0  0  0
  -28.3996  -32.6311   27.9255 C   0  0  0  0  0  0  0  0  0  0  0  0
  -25.5751  -27.1061   25.6086 C   0  0  0  0  0  0  0  0  0  0  0  0
  -26.0801  -28.6062   27.5484 C   0  0  0  0  0  0  0  0  0  0  0  0
  -27.9450  -27.5449   26.2761 C   0  0  0  0  0  0  0  0  0  0  0  0
  -28.0561  -34.1424   24.4507 C   0  0  0  0  0  0  0  0  0  0  0  0
  -26.4285  -22.9864   18.0446 C   0  0  0  0  0  0  0  0  0  1  0  0
  -26.6338  -29.4276   25.2140 C   0  0  1  0  0  0  0  0  0  0  0  0
  -28.3105  -32.6110   26.4074 C   0  0  2  0  0  0  0  0  0  0  0  0
  -26.5446  -28.1811   26.1390 C   0  0  0  0  0  0  0  0  0  0  0  0
  -28.2937  -15.6971   21.6819 N   0  0  0  0  0  0  0  0  0  0  0  0
  -28.5480  -16.9933   21.4342 N   0  0  0  0  0  0  0  0  0  0  0  0
  -29.9012  -22.0565   16.8605 N   0  0  0  0  0  0  0  0  0  0  0  0
  -26.2479  -28.1717   23.1117 N   0  0  0  0  0  0  0  0  0  0  0  0
  -31.8411  -18.4426   22.7028 N   0  0  0  0  0  0  0  0  0  0  0  0
  -35.2152  -21.2718   18.5887 N   0  0  0  0  0  0  0  0  0  0  0  0
  -28.0157  -18.7760   19.9681 N   0  0  0  0  0  0  0  0  0  0  0  0
  -24.9162  -16.8496   18.9311 N   0  0  0  0  0  0  0  0  0  0  0  0
  -32.4532  -20.0289   21.0557 N   0  0  0  0  0  0  0  0  0  0  0  0
  -22.6030  -28.3409   23.2261 N   0  0  0  0  0  0  0  0  0  0  0  0
  -27.5650  -30.4504   25.6776 N   0  0  0  0  0  0  0  0  0  0  0  0
  -28.1354  -34.0113   25.9284 N   0  3  0  0  0  0  0  0  0  0  0  0
  -28.0614  -20.2992   14.3765 O   0  0  0  0  0  0  0  0  0  0  0  0
  -29.0651  -23.0208   18.8483 O   0  0  0  0  0  0  0  0  0  0  0  0
  -33.8169  -21.9163   21.1540 O   0  0  0  0  0  0  0  0  0  0  0  0
  -26.6539  -16.2313   17.5686 O   0  0  0  0  0  0  0  0  0  0  0  0
  -24.2902  -29.4286   22.0459 O   0  0  0  0  0  0  0  0  0  0  0  0
  -28.0890  -29.5745   23.3491 O   0  0  0  0  0  0  0  0  0  0  0  0
  -26.0128  -32.1684   25.8057 O   0  0  0  0  0  0  0  0  0  0  0  0
  -33.2921  -20.1839   23.1982 O   0  0  0  0  0  0  0  0  0  0  0  0
  -25.3968  -10.1672   20.4270 O   0  0  0  0  0  0  0  0  0  0  0  0
  -26.4104  -24.3991   18.2452 O   0  0  0  0  0  0  0  0  0  1  0  0
  -20.2016   -9.3536   22.0858 F   0  0  0  0  0  0  0  0  0  0  0  0
  -24.8262   -8.4354   22.5050 F   0  0  0  0  0  0  0  0  0  0  0  0
  1  2  1  0  0  0  0
  1  5  2  0  0  0  0
  2  6  2  0  0  0  0
  3 10  2  0  0  0  0
  3 18  1  0  0  0  0
  4 11  1  0  0  0  0
  4 18  2  0  0  0  0
  5 21  1  0  0  0  0
  6 23  1  0  0  0  0
  7 12  2  0  0  0  0
  7 22  1  0  0  0  0
  8  9  2  0  0  0  0
  8 25  1  0  0  0  0
  9 26  1  0  0  0  0
 10 27  1  0  0  0  0
 11 27  2  0  0  0  0
 12 28  1  0  0  0  0
 13 14  2  0  0  0  0
 13 29  1  0  0  0  0
 14 30  1  0  0  0  0
 15 19  1  0  0  0  0
 15 25  2  0  0  0  0
 16 24  1  0  0  0  0
 16 28  2  0  0  0  0
 17 30  2  0  0  0  0
 17 31  1  0  0  0  0
 18 32  1  0  0  0  0
 19 26  2  0  0  0  0
 19 36  1  0  0  0  0
 20 32  1  0  0  0  0
 20 33  2  0  0  0  0
 20 37  1  0  0  0  0
 21 23  2  0  0  0  0
 21 42  1  0  0  0  0
 22 24  2  0  0  0  0
 22 43  1  0  0  0  0
 23 53  1  0  0  0  0
 24 44  1  0  0  0  0
 25 68  1  0  0  0  0
 26 71  1  0  0  0  0
 27 86  1  0  0  0  0
 28 87  1  0  0  0  0
 29 31  2  0  0  0  0
 29 86  1  0  0  0  0
 30 88  1  0  0  0  0
 31 89  1  0  0  0  0
 32 66  2  0  0  0  0
 33 67  1  0  0  0  0
 33 72  1  0  0  0  0
 34 45  1  0  0  0  0
 34 46  1  0  0  0  0
 34 78  2  0  0  0  0
 35 54  1  0  0  0  0
 35 68  1  0  0  0  0
 35 79  2  0  0  0  0
 36 74  1  0  0  0  0
 36 80  2  0  0  0  0
 37 73  1  0  0  0  0
 37 81  2  0  0  0  0
 38 55  1  0  0  0  0
 38 75  1  0  0  0  0
 38 82  2  0  0  0  0
 39 63  1  0  0  0  0
 39 69  1  0  0  0  0
 39 83  2  0  0  0  0
 40 64  1  0  0  0  0
 40 76  1  0  0  0  0
 40 84  2  0  0  0  0
 41 70  1  0  0  0  0
 41 74  1  0  0  0  0
 41 85  2  0  0  0  0
 42 47  1  0  0  0  0
 43 55  1  0  0  0  0
 44 69  1  0  0  0  0
 45 54  1  0  0  0  0
 46 68  1  0  0  0  0
 47 49  1  0  0  0  0
 48 50  1  0  0  0  0
 48 51  1  0  0  0  0
 49 53  1  0  0  0  0
 50 56  1  0  0  0  0
 51 70  1  0  0  0  0
 52 56  1  0  0  0  0
 52 70  1  0  0  0  0
 53 75  1  0  0  0  0
 54 62  1  0  0  0  0
 55 69  1  0  0  0  0
 56 67  1  0  0  0  0
 57 64  1  0  0  0  0
 58 65  1  0  0  0  0
 59 65  1  0  0  0  0
 60 65  1  0  0  0  0
 61 77  1  0  0  0  0
 62 87  1  0  0  0  0
 63 65  1  0  0  0  0
 63 76  1  0  0  0  0
 64 77  1  0  0  0  0
 66 67  1  0  0  0  0
M  CHG  1  77   1
M  ISO  4  41 100  62 101  74 100  87 101
M  END
> <Batch ID>
0105

> <Smiles>
CNC(C)C(=O)NC(C(=O)N1Cc2cc([101O:1][101CH2:1]C3CC(=O)CN(c4ccc(N)c(C(=O)[100NH:0][100C:0](=O)N5CCCC(n6nc(-c7ccc(Oc8ccc(F)cc8F)cc7)c(C(N)=O)c6N)C5)c4)C3=O)ccc2CC1C(=O)NC1CCCc2ccccc21)C(C)(C)C

> <Shape>
0.231

> <Color>
0.052

> <Negative vol penalty>
0.000

$$$$

  -OEChem-04052301113D

 85 93  0     1  0  0  0  0  0999 V2000
  -27.8125  -37.6032   18.9661 C   0  0  0  0  0  0  0  0  0  0  0  0
  -28.1566  -36.2837   18.6908 C   0  0  0  0  0  0  0  0  0  0  0  0
  -23.6194   -9.5729   20.1623 C   0  0  0  0  0  0  0  0  0  0  0  0
  -22.9607  -11.8712   20.5106 C   0  0  0  0  0  0  0  0  0  0  0  0
  -27.3345  -37.9487   20.2295 C   0  0  0  0  0  0  0  0  0  0  0  0
  -28.0239  -35.3090   19.6792 C   0  0  0  0  0  0  0  0  0  0  0  0
  -26.4525  -29.4442   18.8788 C   0  0  0  0  0  0  0  0  0  0  0  0
  -22.3178   -9.1574   20.4427 C   0  0  0  0  0  0  0  0  0  0  0  0
  -21.6590  -11.4556   20.7909 C   0  0  0  0  0  0  0  0  0  0  0  0
  -27.2060  -28.2742   18.7954 C   0  0  0  0  0  0  0  0  0  0  0  0
  -20.3967   -8.6615   23.1791 C   0  0  0  0  0  0  0  0  0  0  0  0
  -20.2354   -7.5686   24.0306 C   0  0  0  0  0  0  0  0  0  0  0  0
  -29.8752  -17.5698   22.1718 C   0  0  0  0  0  0  0  0  0  0  0  0
  -26.8230  -27.8674   21.1421 C   0  0  0  0  0  0  0  0  0  0  0  0
  -28.4124  -18.5191   19.9942 C   0  0  0  0  0  0  0  0  0  0  0  0
  -19.0918   -6.3682   22.2731 C   0  0  0  0  0  0  0  0  0  0  0  0
  -23.9409  -10.9299   20.1964 C   0  0  0  0  0  0  0  0  0  0  0  0
  -29.8648  -16.8553   20.9739 C   0  0  0  0  0  0  0  0  0  0  0  0
  -25.8165  -11.7028   18.6496 C   0  0  0  0  0  0  0  0  0  0  0  0
  -27.1868  -36.9761   21.2308 C   0  0  0  0  0  0  0  0  0  0  0  0
  -25.8867  -29.8410   20.0990 C   0  0  0  0  0  0  0  0  0  0  0  0
  -27.5448  -35.6421   20.9576 C   0  0  0  0  0  0  0  0  0  0  0  0
  -26.0606  -29.0415   21.2377 C   0  0  0  0  0  0  0  0  0  0  0  0
  -29.1334  -17.3300   19.8851 C   0  0  0  0  0  0  0  0  0  0  0  0
  -29.1541  -18.7589   22.2810 C   0  0  0  0  0  0  0  0  0  0  0  0
  -21.3375  -10.0987   20.7570 C   0  0  0  0  0  0  0  0  0  0  0  0
  -27.3939  -27.4871   19.9277 C   0  0  0  0  0  0  0  0  0  0  0  0
  -19.9056   -8.6079   21.8747 C   0  0  0  0  0  0  0  0  0  0  0  0
  -28.4228  -19.2335   21.1922 C   0  0  0  0  0  0  0  0  0  0  0  0
  -19.5830   -6.4219   23.5776 C   0  0  0  0  0  0  0  0  0  0  0  0
  -19.2531   -7.4612   21.4217 C   0  0  0  0  0  0  0  0  0  0  0  0
  -25.2854  -11.3597   19.9075 C   0  0  0  0  0  0  0  0  0  0  0  0
  -27.1228  -12.0389   18.9085 C   0  0  0  0  0  0  0  0  0  0  0  0
  -30.6229  -15.6146   20.8881 C   0  0  0  0  0  0  0  0  0  0  0  0
  -25.1853  -11.7165   17.3623 C   0  0  0  0  0  0  0  0  0  0  0  0
  -30.8405  -14.7620   22.0793 C   0  0  0  0  0  0  0  0  0  0  0  0
  -26.2155  -32.3592   22.0105 C   0  0  0  0  0  0  0  0  0  0  0  0
  -23.7712  -30.9640   23.6233 C   0  0  0  0  0  0  0  0  0  0  0  0
  -22.0445  -28.1167   24.3704 C   0  0  0  0  0  0  0  0  0  0  0  0
  -26.7108  -37.4060   22.5958 C   0  0  0  0  0  0  0  0  0  0  0  0
  -25.0541  -31.0918   20.1663 C   0  0  0  0  0  0  0  0  0  0  0  0
  -25.4572  -29.4127   22.5669 C   0  0  0  0  0  0  0  0  0  0  0  0
  -26.2457  -36.2457   23.4721 C   0  0  0  0  0  0  0  0  0  0  0  0
  -29.9276  -11.4374   23.0645 C   0  0  0  0  0  0  0  0  0  0  0  0
  -27.2526  -35.1010   23.4208 C   0  0  0  0  0  0  0  0  0  0  0  0
  -28.6596  -11.1652   22.2559 C   0  0  0  0  0  0  0  0  0  0  0  0
  -30.0242  -12.9032   23.4748 C   0  0  0  0  0  0  0  0  0  0  0  0
  -28.6717  -13.5886   21.5127 C   0  0  0  0  0  0  0  0  0  0  0  0
  -27.3915  -34.5518   21.9958 C   0  0  1  0  0  0  0  0  0  0  0  0
  -24.9543  -31.6680   21.5754 C   0  0  1  0  0  0  0  0  0  0  0  0
  -28.5530  -12.1239   21.0567 C   0  0  2  0  0  0  0  0  0  0  0  0
  -29.1039  -16.5834   18.5914 C   0  0  0  0  0  0  0  0  0  0  0  0
  -20.1189  -27.2848   25.7478 C   0  0  0  0  0  0  0  0  0  0  0  0
  -25.4981  -31.1300   26.1334 C   0  0  0  0  0  0  0  0  0  0  0  0
  -23.9628  -29.4743   27.2148 C   0  0  0  0  0  0  0  0  0  0  0  0
  -23.0873  -31.6937   26.4866 C   0  0  0  0  0  0  0  0  0  0  0  0
  -20.5714  -27.2048   21.9709 C   0  0  0  0  0  0  0  0  0  0  0  0
  -28.1300  -23.9445   20.1109 C   0  0  0  0  0  0  0  0  0  0  0  0
  -27.7571  -22.7812   21.0232 C   0  0  0  0  0  0  0  0  0  0  0  0
  -27.7830  -25.2866   20.7415 C   0  0  0  0  0  0  0  0  0  1  0  0
  -28.0641  -21.4382   20.3759 C   0  0  0  0  0  0  0  0  0  0  0  0
  -23.6661  -29.9568   24.7429 C   0  0  1  0  0  0  0  0  0  0  0  0
  -20.5563  -27.8176   24.3923 C   0  0  2  0  0  0  0  0  0  0  0  0
  -24.0667  -30.5574   26.1200 C   0  0  0  0  0  0  0  0  0  0  0  0
  -26.1813  -11.4678   20.8922 N   0  0  0  0  0  0  0  0  0  0  0  0
  -31.1508  -15.1751   19.7791 N   0  0  0  0  0  0  0  0  0  0  0  0
  -27.2885  -11.8824   20.2532 N   0  0  0  0  0  0  0  0  0  0  0  0
  -29.8831  -13.7862   22.3187 N   0  0  0  0  0  0  0  0  0  0  0  0
  -24.6568  -30.6482   22.5832 N   0  0  0  0  0  0  0  0  0  0  0  0
  -29.1735  -19.4724   23.4994 N   0  0  0  0  0  0  0  0  0  0  0  0
  -28.1345  -12.4499   18.1148 N   0  0  0  0  0  0  0  0  0  0  0  0
  -23.8374  -11.3426   17.2751 N   0  0  0  0  0  0  0  0  0  0  0  0
  -26.2690  -33.6978   21.6717 N   0  0  0  0  0  0  0  0  0  0  0  0
  -22.3059  -29.4315   24.6931 N   0  0  0  0  0  0  0  0  0  0  0  0
  -20.2169  -26.8017   23.3561 N   0  3  0  0  0  0  0  0  0  0  0  0
  -25.8030  -12.0346   16.3179 O   0  0  0  0  0  0  0  0  0  0  0  0
  -31.8474  -15.0111   22.7294 O   0  0  0  0  0  0  0  0  0  0  0  0
  -27.0756  -31.7254   22.6106 O   0  0  0  0  0  0  0  0  0  0  0  0
  -23.0873  -31.9897   23.6664 O   0  0  0  0  0  0  0  0  0  0  0  0
  -22.8906  -27.2679   24.0982 O   0  0  0  0  0  0  0  0  0  0  0  0
  -20.0672   -9.6935   21.0303 O   0  0  0  0  0  0  0  0  0  0  0  0
  -28.1295  -26.3449   19.8493 O   0  0  0  0  0  0  0  0  0  1  0  0
  -27.7090  -20.4005   21.2793 O   0  0  0  0  0  0  0  0  0  0  0  0
  -19.4295   -5.3718   24.3949 F   0  0  0  0  0  0  0  0  0  0  0  0
  -18.7802   -7.4034   20.1692 F   0  0  0  0  0  0  0  0  0  0  0  0
  1  2  1  0  0  0  0
  1  5  2  0  0  0  0
  2  6  2  0  0  0  0
  3  8  2  0  0  0  0
  3 17  1  0  0  0  0
  4  9  1  0  0  0  0
  4 17  2  0  0  0  0
  5 20  1  0  0  0  0
  6 22  1  0  0  0  0
  7 10  2  0  0  0  0
  7 21  1  0  0  0  0
  8 26  1  0  0  0  0
  9 26  2  0  0  0  0
 10 27  1  0  0  0  0
 11 12  2  0  0  0  0
 11 28  1  0  0  0  0
 12 30  1  0  0  0  0
 13 18  2  0  0  0  0
 13 25  1  0  0  0  0
 14 23  1  0  0  0  0
 14 27  2  0  0  0  0
 15 24  2  0  0  0  0
 15 29  1  0  0  0  0
 16 30  2  0  0  0  0
 16 31  1  0  0  0  0
 17 32  1  0  0  0  0
 18 24  1  0  0  0  0
 18 34  1  0  0  0  0
 19 32  1  0  0  0  0
 19 33  2  0  0  0  0
 19 35  1  0  0  0  0
 20 22  2  0  0  0  0
 20 40  1  0  0  0  0
 21 23  2  0  0  0  0
 21 41  1  0  0  0  0
 22 49  1  0  0  0  0
 23 42  1  0  0  0  0
 24 52  1  0  0  0  0
 25 29  2  0  0  0  0
 25 70  1  0  0  0  0
 26 81  1  0  0  0  0
 27 82  1  0  0  0  0
 28 31  2  0  0  0  0
 28 81  1  0  0  0  0
 29 83  1  0  0  0  0
 30 84  1  0  0  0  0
 31 85  1  0  0  0  0
 32 65  2  0  0  0  0
 33 67  1  0  0  0  0
 33 71  1  0  0  0  0
 34 36  1  0  0  0  0
 34 66  2  0  0  0  0
 35 72  1  0  0  0  0
 35 76  2  0  0  0  0
 36 68  1  0  0  0  0
 36 77  2  0  0  0  0
 37 50  1  0  0  0  0
 37 73  1  0  0  0  0
 37 78  2  0  0  0  0
 38 62  1  0  0  0  0
 38 69  1  0  0  0  0
 38 79  2  0  0  0  0
 39 63  1  0  0  0  0
 39 74  1  0  0  0  0
 39 80  2  0  0  0  0
 40 43  1  0  0  0  0
 41 50  1  0  0  0  0
 42 69  1  0  0  0  0
 43 45  1  0  0  0  0
 44 46  1  0  0  0  0
 44 47  1  0  0  0  0
 45 49  1  0  0  0  0
 46 51  1  0  0  0  0
 47 68  1  0  0  0  0
 48 51  1  0  0  0  0
 48 68  1  0  0  0  0
 49 73  1  0  0  0  0
 50 69  1  0  0  0  0
 51 67  1  0  0  0  0
 53 63  1  0  0  0  0
 54 64  1  0  0  0  0
 55 64  1  0  0  0  0
 56 64  1  0  0  0  0
 57 75  1  0  0  0  0
 58 59  1  0  0  0  0
 58 60  1  0  0  0  0
 59 61  1  0  0  0  0
 60 82  1  0  0  0  0
 61 83  1  0  0  0  0
 62 64  1  0  0  0  0
 62 74  1  0  0  0  0
 63 75  1  0  0  0  0
 65 67  1  0  0  0  0
M  CHG  1  75   1
M  ISO  4  34 100  36 100  60 101  82 101
M  END
> <Batch ID>
0105

> <Smiles>
CNC(C)C(=O)NC(C(=O)N1Cc2cc([101O:1][101CH2:1]CCCOc3cc(C)c([100C:0](=N)[100C:0](=O)N4CCCC(n5nc(-c6ccc(Oc7ccc(F)cc7F)cc6)c(C(N)=O)c5N)C4)cc3N)ccc2CC1C(=O)NC1CCCc2ccccc21)C(C)(C)C

> <Shape>
0.278

> <Color>
0.079

> <Negative vol penalty>
0.000

$$$$

  -OEChem-04052301113D

 88 96  0     1  0  0  0  0  0999 V2000
  -32.1681  -33.3397   23.5698 C   0  0  0  0  0  0  0  0  0  0  0  0
  -31.6955  -32.2131   22.9044 C   0  0  0  0  0  0  0  0  0  0  0  0
  -22.9146  -10.9413   19.1126 C   0  0  0  0  0  0  0  0  0  0  0  0
  -23.1573   -9.7449   21.1975 C   0  0  0  0  0  0  0  0  0  0  0  0
  -31.3874  -33.9455   24.5535 C   0  0  0  0  0  0  0  0  0  0  0  0
  -30.4424  -31.6910   23.2229 C   0  0  0  0  0  0  0  0  0  0  0  0
  -26.4761  -29.0367   19.3851 C   0  0  0  0  0  0  0  0  0  0  0  0
  -21.9275  -10.0414   18.7111 C   0  0  0  0  0  0  0  0  0  0  0  0
  -22.1700   -8.8450   20.7960 C   0  0  0  0  0  0  0  0  0  0  0  0
  -26.1962  -27.7007   19.1016 C   0  0  0  0  0  0  0  0  0  0  0  0
  -21.9293   -6.1549   18.7622 C   0  0  0  0  0  0  0  0  0  0  0  0
  -22.1699   -4.7961   18.9651 C   0  0  0  0  0  0  0  0  0  0  0  0
  -24.3624  -27.7586   20.6677 C   0  0  0  0  0  0  0  0  0  0  0  0
  -28.6802  -20.3117   18.9875 C   0  0  0  0  0  0  0  0  0  0  0  0
  -27.7250  -19.3847   21.0037 C   0  0  0  0  0  0  0  0  0  0  0  0
  -20.2107   -4.6594   20.3723 C   0  0  0  0  0  0  0  0  0  0  0  0
  -23.5296  -10.7930   20.3558 C   0  0  0  0  0  0  0  0  0  0  0  0
  -29.5529  -18.2528   19.9018 C   0  0  0  0  0  0  0  0  0  0  0  0
  -24.3674  -12.9233   21.4818 C   0  0  0  0  0  0  0  0  0  0  0  0
  -30.1200  -33.4362   24.8775 C   0  0  0  0  0  0  0  0  0  0  0  0
  -25.7067  -29.7418   20.3218 C   0  0  0  0  0  0  0  0  0  0  0  0
  -29.6447  -32.2897   24.2128 C   0  0  0  0  0  0  0  0  0  0  0  0
  -24.6329  -29.1043   20.9595 C   0  0  0  0  0  0  0  0  0  0  0  0
  -29.5805  -19.2481   18.9250 C   0  0  0  0  0  0  0  0  0  0  0  0
  -27.7525  -20.3800   20.0269 C   0  0  0  0  0  0  0  0  0  0  0  0
  -21.5551   -8.9933   19.5528 C   0  0  0  0  0  0  0  0  0  0  0  0
  -25.1411  -27.0606   19.7450 C   0  0  0  0  0  0  0  0  0  0  0  0
  -20.8295   -6.7661   19.3644 C   0  0  0  0  0  0  0  0  0  0  0  0
  -28.6252  -18.3210   20.9412 C   0  0  0  0  0  0  0  0  0  0  0  0
  -21.3105   -4.0483   19.7701 C   0  0  0  0  0  0  0  0  0  0  0  0
  -19.9702   -6.0183   20.1694 C   0  0  0  0  0  0  0  0  0  0  0  0
  -24.5498  -11.7220   20.7709 C   0  0  0  0  0  0  0  0  0  0  0  0
  -25.6348  -13.4321   21.6272 C   0  0  0  0  0  0  0  0  0  0  0  0
  -30.5092  -17.1176   19.8407 C   0  0  0  0  0  0  0  0  0  0  0  0
  -23.1601  -13.5254   21.9673 C   0  0  0  0  0  0  0  0  0  0  0  0
  -26.3053  -31.1660   23.0997 C   0  0  0  0  0  0  0  0  0  0  0  0
  -25.7173  -23.4874   19.4936 C   0  0  0  0  0  0  0  0  0  0  0  0
  -23.2193  -32.1277   22.8275 C   0  0  0  0  0  0  0  0  0  0  0  0
  -20.1218  -31.5849   21.5018 C   0  0  0  0  0  0  0  0  0  0  0  0
  -30.6550  -14.6564   19.6280 C   0  0  0  0  0  0  0  0  0  0  0  0
  -29.3325  -34.0971   25.9810 C   0  0  0  0  0  0  0  0  0  0  0  0
  -26.0047  -31.1903   20.5967 C   0  0  0  0  0  0  0  0  0  0  0  0
  -23.7639  -29.8227   21.9582 C   0  0  0  0  0  0  0  0  0  0  0  0
  -27.8577  -33.7037   25.9966 C   0  0  0  0  0  0  0  0  0  0  0  0
  -30.1545  -11.3325   20.7224 C   0  0  0  0  0  0  0  0  0  0  0  0
  -27.7066  -32.1929   25.8500 C   0  0  0  0  0  0  0  0  0  0  0  0
  -28.6368  -11.2354   20.8998 C   0  0  0  0  0  0  0  0  0  0  0  0
  -30.5307  -12.1833   19.5102 C   0  0  0  0  0  0  0  0  0  0  0  0
  -28.4053  -13.4170   19.6464 C   0  0  0  0  0  0  0  0  0  0  0  0
  -28.2801  -31.7083   24.5129 C   0  0  1  0  0  0  0  0  0  0  0  0
  -25.4776  -31.6626   21.9482 C   0  0  1  0  0  0  0  0  0  0  0  0
  -27.9763  -12.6287   20.8945 C   0  0  1  0  0  0  0  0  0  0  0  0
  -30.5630  -19.2015   17.8002 C   0  0  0  0  0  0  0  0  0  0  0  0
  -29.4205  -16.6422   24.0302 C   0  0  0  0  0  0  0  0  0  0  0  0
  -17.7925  -32.5187   21.4908 C   0  0  0  0  0  0  0  0  0  0  0  0
  -22.7428  -30.9653   25.6081 C   0  0  0  0  0  0  0  0  0  0  0  0
  -20.2832  -31.0611   25.1505 C   0  0  0  0  0  0  0  0  0  0  0  0
  -21.6254  -33.1634   25.1907 C   0  0  0  0  0  0  0  0  0  0  0  0
  -20.2052  -32.0694   18.5833 C   0  0  0  0  0  0  0  0  0  0  0  0
  -26.8123  -22.5086   19.1263 C   0  0  0  0  0  0  0  0  0  0  0  0
  -25.9634  -24.9278   19.0886 C   0  0  0  0  0  0  0  0  0  1  0  0
  -28.7983  -17.7810   23.2508 C   0  0  0  0  0  0  0  0  0  0  0  0
  -21.8831  -31.5653   23.2486 C   0  0  1  0  0  0  0  0  0  0  0  0
  -19.1483  -32.5161   20.8019 C   0  0  2  0  0  0  0  0  0  0  0  0
  -21.6510  -31.6744   24.7822 C   0  0  0  0  0  0  0  0  0  0  0  0
  -25.8322  -11.4819   20.4846 N   0  0  0  0  0  0  0  0  0  0  0  0
  -26.4670  -12.5395   21.0181 N   0  0  0  0  0  0  0  0  0  0  0  0
  -24.0993  -31.2360   22.1978 N   0  0  0  0  0  0  0  0  0  0  0  0
  -29.8729  -13.4890   19.5855 N   0  0  0  0  0  0  0  0  0  0  0  0
  -26.1075  -14.5515   22.2154 N   0  0  0  0  0  0  0  0  0  0  0  0
  -21.9444  -12.8692   21.7313 N   0  0  0  0  0  0  0  0  0  0  0  0
  -26.8569  -21.4380   20.0892 N   0  0  0  0  0  0  0  0  0  0  0  0
  -29.9341  -15.8503   19.7425 N   0  0  0  0  0  0  0  0  0  0  0  0
  -27.3589  -31.9952   23.4342 N   0  0  0  0  0  0  0  0  0  0  0  0
  -20.8792  -32.2508   22.4421 N   0  0  0  0  0  0  0  0  0  0  0  0
  -18.9552  -32.0943   19.3857 N   0  3  0  0  0  0  0  0  0  0  0  0
  -31.7148  -17.3506   19.8395 O   0  0  0  0  0  0  0  0  0  0  0  0
  -23.1578  -14.6214   22.5775 O   0  0  0  0  0  0  0  0  0  0  0  0
  -26.0091  -30.1095   23.6454 O   0  0  0  0  0  0  0  0  0  0  0  0
  -24.6914  -23.1480   20.0820 O   0  0  0  0  0  0  0  0  0  0  0  0
  -23.4702  -33.3161   23.0426 O   0  0  0  0  0  0  0  0  0  0  0  0
  -20.1997  -30.3860   21.2430 O   0  0  0  0  0  0  0  0  0  0  0  0
  -31.8896  -14.6358   19.6046 O   0  0  0  0  0  0  0  0  0  0  0  0
  -20.5917   -8.1151   19.1614 O   0  0  0  0  0  0  0  0  0  0  0  0
  -24.8662  -25.7563   19.4706 O   0  0  0  0  0  0  0  0  0  1  0  0
  -28.5807  -17.3594   21.9062 O   0  0  0  0  0  0  0  0  0  0  0  0
  -21.5408   -2.7430   19.9636 F   0  0  0  0  0  0  0  0  0  0  0  0
  -18.9114   -6.5997   20.7496 F   0  0  0  0  0  0  0  0  0  0  0  0
  1  2  1  0  0  0  0
  1  5  2  0  0  0  0
  2  6  2  0  0  0  0
  3  8  2  0  0  0  0
  3 17  1  0  0  0  0
  4  9  1  0  0  0  0
  4 17  2  0  0  0  0
  5 20  1  0  0  0  0
  6 22  1  0  0  0  0
  7 10  2  0  0  0  0
  7 21  1  0  0  0  0
  8 26  1  0  0  0  0
  9 26  2  0  0  0  0
 10 27  1  0  0  0  0
 11 12  2  0  0  0  0
 11 28  1  0  0  0  0
 12 30  1  0  0  0  0
 13 23  1  0  0  0  0
 13 27  2  0  0  0  0
 14 24  2  0  0  0  0
 14 25  1  0  0  0  0
 15 25  2  0  0  0  0
 15 29  1  0  0  0  0
 16 30  2  0  0  0  0
 16 31  1  0  0  0  0
 17 32  1  0  0  0  0
 18 24  1  0  0  0  0
 18 29  2  0  0  0  0
 18 34  1  0  0  0  0
 19 32  1  0  0  0  0
 19 33  2  0  0  0  0
 19 35  1  0  0  0  0
 20 22  2  0  0  0  0
 20 41  1  0  0  0  0
 21 23  2  0  0  0  0
 21 42  1  0  0  0  0
 22 50  1  0  0  0  0
 23 43  1  0  0  0  0
 24 53  1  0  0  0  0
 25 72  1  0  0  0  0
 26 84  1  0  0  0  0
 27 85  1  0  0  0  0
 28 31  2  0  0  0  0
 28 84  1  0  0  0  0
 29 86  1  0  0  0  0
 30 87  1  0  0  0  0
 31 88  1  0  0  0  0
 32 66  2  0  0  0  0
 33 67  1  0  0  0  0
 33 70  1  0  0  0  0
 34 73  1  0  0  0  0
 34 77  2  0  0  0  0
 35 71  1  0  0  0  0
 35 78  2  0  0  0  0
 36 51  1  0  0  0  0
 36 74  1  0  0  0  0
 36 79  2  0  0  0  0
 37 60  1  0  0  0  0
 37 61  1  0  0  0  0
 37 80  2  0  0  0  0
 38 63  1  0  0  0  0
 38 68  1  0  0  0  0
 38 81  2  0  0  0  0
 39 64  1  0  0  0  0
 39 75  1  0  0  0  0
 39 82  2  0  0  0  0
 40 69  1  0  0  0  0
 40 73  1  0  0  0  0
 40 83  2  0  0  0  0
 41 44  1  0  0  0  0
 42 51  1  0  0  0  0
 43 68  1  0  0  0  0
 44 46  1  0  0  0  0
 45 47  1  0  0  0  0
 45 48  1  0  0  0  0
 46 50  1  0  0  0  0
 47 52  1  0  0  0  0
 48 69  1  0  0  0  0
 49 52  1  0  0  0  0
 49 69  1  0  0  0  0
 50 74  1  0  0  0  0
 51 68  1  0  0  0  0
 52 67  1  0  0  0  0
 54 62  1  0  0  0  0
 55 64  1  0  0  0  0
 56 65  1  0  0  0  0
 57 65  1  0  0  0  0
 58 65  1  0  0  0  0
 59 76  1  0  0  0  0
 60 72  1  0  0  0  0
 61 85  1  0  0  0  0
 62 86  1  0  0  0  0
 63 65  1  0  0  0  0
 63 75  1  0  0  0  0
 64 76  1  0  0  0  0
 66 67  1  0  0  0  0
M  CHG  1  76   1
M  ISO  4  40 100  61 101  73 100  85 101
M  END
> <Batch ID>
0105

> <Smiles>
CCOc1cc(NCC(=O)[101CH2:1][101O:1]c2ccc3c(c2)CN(C(=O)C(NC(=O)C(C)NC)C(C)(C)C)C(C(=O)NC2CCCc4ccccc42)C3)cc(C)c1C(=O)[100NH:0][100C:0](=O)N1CCCC(n2nc(-c3ccc(Oc4ccc(F)cc4F)cc3)c(C(N)=O)c2N)C1

> <Shape>
0.270

> <Color>
0.112

> <Negative vol penalty>
0.000

$$$$

  -OEChem-04052301113D

 85 94  0     1  0  0  0  0  0999 V2000
  -33.6395  -25.8096   17.4405 C   0  0  0  0  0  0  0  0  0  0  0  0
  -32.8113  -25.1966   18.3752 C   0  0  0  0  0  0  0  0  0  0  0  0
  -30.7984  -17.9821   24.7165 C   0  0  0  0  0  0  0  0  0  0  0  0
  -24.2605   -8.7522   21.0920 C   0  0  0  0  0  0  0  0  0  0  0  0
  -24.7729  -10.1170   23.0186 C   0  0  0  0  0  0  0  0  0  0  0  0
  -29.7527  -18.3612   25.5582 C   0  0  0  0  0  0  0  0  0  0  0  0
  -33.8429  -27.1881   17.4890 C   0  0  0  0  0  0  0  0  0  0  0  0
  -32.1869  -25.9616   19.3597 C   0  0  0  0  0  0  0  0  0  0  0  0
  -27.3100  -24.7403   19.9672 C   0  0  0  0  0  0  0  0  0  0  0  0
  -30.5383  -17.2059   23.5871 C   0  0  0  0  0  0  0  0  0  0  0  0
  -23.9083   -7.6969   21.9332 C   0  0  0  0  0  0  0  0  0  0  0  0
  -24.4207   -9.0616   23.8599 C   0  0  0  0  0  0  0  0  0  0  0  0
  -27.0288  -23.5856   20.6962 C   0  0  0  0  0  0  0  0  0  0  0  0
  -21.2576   -6.8035   23.8329 C   0  0  0  0  0  0  0  0  0  0  0  0
  -20.0832   -6.1086   23.5443 C   0  0  0  0  0  0  0  0  0  0  0  0
  -28.1868  -17.1876   24.1413 C   0  0  0  0  0  0  0  0  0  0  0  0
  -26.5500  -24.9353   22.6375 C   0  0  0  0  0  0  0  0  0  0  0  0
  -21.3523   -4.0684   23.2917 C   0  0  0  0  0  0  0  0  0  0  0  0
  -24.6928   -9.9623   21.6347 C   0  0  0  0  0  0  0  0  0  0  0  0
  -28.4469  -17.9639   25.2706 C   0  0  0  0  0  0  0  0  0  0  0  0
  -24.2362  -11.6994   19.8232 C   0  0  0  0  0  0  0  0  0  0  0  0
  -33.2130  -27.9717   18.4687 C   0  0  0  0  0  0  0  0  0  0  0  0
  -27.2237  -26.0025   20.5718 C   0  0  0  0  0  0  0  0  0  0  0  0
  -32.3831  -27.3517   19.4222 C   0  0  0  0  0  0  0  0  0  0  0  0
  -26.8281  -26.1045   21.9132 C   0  0  0  0  0  0  0  0  0  0  0  0
  -29.2325  -16.8086   23.2996 C   0  0  0  0  0  0  0  0  0  0  0  0
  -23.9884   -7.8515   23.3172 C   0  0  0  0  0  0  0  0  0  0  0  0
  -26.6515  -23.6828   22.0324 C   0  0  0  0  0  0  0  0  0  0  0  0
  -22.4795   -6.1309   23.8509 C   0  0  0  0  0  0  0  0  0  0  0  0
  -20.1305   -4.7411   23.2737 C   0  0  0  0  0  0  0  0  0  0  0  0
  -22.5268   -4.7633   23.5803 C   0  0  0  0  0  0  0  0  0  0  0  0
  -25.0573  -11.0527   20.7662 C   0  0  0  0  0  0  0  0  0  0  0  0
  -25.0456  -12.6570   19.2625 C   0  0  0  0  0  0  0  0  0  0  0  0
  -27.3448  -18.3645   26.1595 C   0  0  0  0  0  0  0  0  0  0  0  0
  -22.8644  -11.4564   19.4844 C   0  0  0  0  0  0  0  0  0  0  0  0
  -29.2820  -28.3511   21.1649 C   0  0  0  0  0  0  0  0  0  0  0  0
  -26.6145  -29.9163   22.1431 C   0  0  0  0  0  0  0  0  0  0  0  0
  -23.4167  -29.7346   23.3211 C   0  0  0  0  0  0  0  0  0  0  0  0
  -29.8909  -15.5590   21.2136 C   0  0  0  0  0  0  0  0  0  0  0  0
  -33.5008  -29.4517   18.5101 C   0  0  0  0  0  0  0  0  0  0  0  0
  -27.5044  -27.2400   19.7642 C   0  0  0  0  0  0  0  0  0  0  0  0
  -26.7008  -27.4372   22.6033 C   0  0  0  0  0  0  0  0  0  0  0  0
  -32.5055  -30.2423   19.3554 C   0  0  0  0  0  0  0  0  0  0  0  0
  -29.6430  -13.5639   18.2749 C   0  0  0  0  0  0  0  0  0  0  0  0
  -32.2701  -29.5469   20.6926 C   0  0  0  0  0  0  0  0  0  0  0  0
  -28.3610  -12.7569   18.4918 C   0  0  0  0  0  0  0  0  0  0  0  0
  -25.3123  -21.4418   26.1970 C   0  0  0  0  0  0  0  0  0  0  0  0
  -30.4151  -13.7630   19.5781 C   0  0  0  0  0  0  0  0  0  0  0  0
  -25.5908  -20.0329   26.6975 C   0  0  0  0  0  0  0  0  0  0  0  0
  -26.9480  -20.4608   24.7580 C   0  0  0  0  0  0  0  0  0  0  0  0
  -28.3499  -13.5236   20.8999 C   0  0  0  0  0  0  0  0  0  0  0  0
  -31.6685  -28.1510   20.4901 C   0  0  1  0  0  0  0  0  0  0  0  0
  -27.8829  -28.4418   20.6244 C   0  0  1  0  0  0  0  0  0  0  0  0
  -25.7203  -21.3694   24.7237 C   0  0  2  0  0  0  0  0  0  0  0  0
  -27.5052  -13.3526   19.6268 C   0  0  2  0  0  0  0  0  0  0  0  0
  -21.5055  -31.1818   24.0630 C   0  0  0  0  0  0  0  0  0  0  0  0
  -28.0497  -30.4551   24.7812 C   0  0  0  0  0  0  0  0  0  0  0  0
  -25.8321  -31.0339   25.7891 C   0  0  0  0  0  0  0  0  0  0  0  0
  -26.7317  -32.3878   23.8970 C   0  0  0  0  0  0  0  0  0  0  0  0
  -21.6457  -28.6868   21.1940 C   0  0  0  0  0  0  0  0  0  0  0  0
  -25.9965  -22.7305   24.1109 C   0  0  0  0  0  0  0  0  0  1  0  0
  -25.8737  -30.0518   23.4514 C   0  0  1  0  0  0  0  0  0  0  0  0
  -22.1446  -30.4456   22.8958 C   0  0  2  0  0  0  0  0  0  0  0  0
  -26.6260  -30.9568   24.4675 C   0  0  0  0  0  0  0  0  0  0  0  0
  -26.2936  -11.5568   20.8051 N   0  0  0  0  0  0  0  0  0  0  0  0
  -26.2553  -12.5304   19.8795 N   0  0  0  0  0  0  0  0  0  0  0  0
  -26.7001  -19.5603   25.8826 N   0  0  0  0  0  0  0  0  0  0  0  0
  -26.9920  -28.6177   21.7731 N   0  0  0  0  0  0  0  0  0  0  0  0
  -29.5419  -14.3345   20.6056 N   0  0  0  0  0  0  0  0  0  0  0  0
  -24.8334  -13.5866   18.3068 N   0  0  0  0  0  0  0  0  0  0  0  0
  -22.1809  -10.4344   20.1573 N   0  0  0  0  0  0  0  0  0  0  0  0
  -28.9685  -16.0203   22.1521 N   0  0  0  0  0  0  0  0  0  0  0  0
  -30.2560  -28.2480   20.1902 N   0  0  0  0  0  0  0  0  0  0  0  0
  -24.5327  -30.5177   23.1150 N   0  0  0  0  0  0  0  0  0  0  0  0
  -21.1575  -29.4655   22.3611 N   0  3  0  0  0  0  0  0  0  0  0  0
  -27.0610  -17.6060   27.0845 O   0  0  0  0  0  0  0  0  0  0  0  0
  -22.2673  -12.1148   18.5992 O   0  0  0  0  0  0  0  0  0  0  0  0
  -29.4643  -28.3744   22.3764 O   0  0  0  0  0  0  0  0  0  0  0  0
  -26.8433  -30.9248   21.4705 O   0  0  0  0  0  0  0  0  0  0  0  0
  -23.4196  -28.5997   23.7927 O   0  0  0  0  0  0  0  0  0  0  0  0
  -30.9180  -16.1680   20.9034 O   0  0  0  0  0  0  0  0  0  0  0  0
  -23.6446   -6.8220   24.1384 O   0  0  0  0  0  0  0  0  0  0  0  0
  -26.3772  -22.5574   22.7465 O   0  0  0  0  0  0  0  0  0  1  0  0
  -19.0023   -4.0736   22.9981 F   0  0  0  0  0  0  0  0  0  0  0  0
  -23.6975   -4.1114   23.5973 F   0  0  0  0  0  0  0  0  0  0  0  0
  1  2  1  0  0  0  0
  1  7  2  0  0  0  0
  2  8  2  0  0  0  0
  3  6  2  0  0  0  0
  3 10  1  0  0  0  0
  4 11  2  0  0  0  0
  4 19  1  0  0  0  0
  5 12  1  0  0  0  0
  5 19  2  0  0  0  0
  6 20  1  0  0  0  0
  7 22  1  0  0  0  0
  8 24  1  0  0  0  0
  9 13  2  0  0  0  0
  9 23  1  0  0  0  0
 10 26  2  0  0  0  0
 11 27  1  0  0  0  0
 12 27  2  0  0  0  0
 13 28  1  0  0  0  0
 14 15  2  0  0  0  0
 14 29  1  0  0  0  0
 15 30  1  0  0  0  0
 16 20  2  0  0  0  0
 16 26  1  0  0  0  0
 17 25  1  0  0  0  0
 17 28  2  0  0  0  0
 18 30  2  0  0  0  0
 18 31  1  0  0  0  0
 19 32  1  0  0  0  0
 20 34  1  0  0  0  0
 21 32  1  0  0  0  0
 21 33  2  0  0  0  0
 21 35  1  0  0  0  0
 22 24  2  0  0  0  0
 22 40  1  0  0  0  0
 23 25  2  0  0  0  0
 23 41  1  0  0  0  0
 24 52  1  0  0  0  0
 25 42  1  0  0  0  0
 26 72  1  0  0  0  0
 27 82  1  0  0  0  0
 28 83  1  0  0  0  0
 29 31  2  0  0  0  0
 29 82  1  0  0  0  0
 30 84  1  0  0  0  0
 31 85  1  0  0  0  0
 32 65  2  0  0  0  0
 33 66  1  0  0  0  0
 33 70  1  0  0  0  0
 34 67  1  0  0  0  0
 34 76  2  0  0  0  0
 35 71  1  0  0  0  0
 35 77  2  0  0  0  0
 36 53  1  0  0  0  0
 36 73  1  0  0  0  0
 36 78  2  0  0  0  0
 37 62  1  0  0  0  0
 37 68  1  0  0  0  0
 37 79  2  0  0  0  0
 38 63  1  0  0  0  0
 38 74  1  0  0  0  0
 38 80  2  0  0  0  0
 39 69  1  0  0  0  0
 39 72  1  0  0  0  0
 39 81  2  0  0  0  0
 40 43  1  0  0  0  0
 41 53  1  0  0  0  0
 42 68  1  0  0  0  0
 43 45  1  0  0  0  0
 44 46  1  0  0  0  0
 44 48  1  0  0  0  0
 45 52  1  0  0  0  0
 46 55  1  0  0  0  0
 47 49  1  0  0  0  0
 47 54  1  0  0  0  0
 48 69  1  0  0  0  0
 49 67  1  0  0  0  0
 50 54  1  0  0  0  0
 50 67  1  0  0  0  0
 51 55  1  0  0  0  0
 51 69  1  0  0  0  0
 52 73  1  0  0  0  0
 53 68  1  0  0  0  0
 54 61  1  0  0  0  0
 55 66  1  0  0  0  0
 56 63  1  0  0  0  0
 57 64  1  0  0  0  0
 58 64  1  0  0  0  0
 59 64  1  0  0  0  0
 60 75  1  0  0  0  0
 61 83  1  0  0  0  0
 62 64  1  0  0  0  0
 62 74  1  0  0  0  0
 63 75  1  0  0  0  0
 65 66  1  0  0  0  0
M  CHG  1  75   1
M  ISO  4  39 100  61 101  72 100  83 101
M  END
> <Batch ID>
0105

> <Smiles>
CNC(C)C(=O)NC(C(=O)N1Cc2cc([101O:1][101CH2:1]C3CCN(C(=O)c4cccc([100NH:0][100C:0](=O)N5CCCC(n6nc(-c7ccc(Oc8ccc(F)cc8F)cc7)c(C(N)=O)c6N)C5)c4)C3)ccc2CC1C(=O)NC1CCCc2ccccc21)C(C)(C)C

> <Shape>
0.249

> <Color>
0.098

> <Negative vol penalty>
0.000

$$$$

  -OEChem-04052301113D

 81 89  0     1  0  0  0  0  0999 V2000
  -28.0279  -24.3085   16.9916 C   0  0  0  0  0  0  0  0  0  0  0  0
  -26.8358  -24.5613   17.6627 C   0  0  0  0  0  0  0  0  0  0  0  0
  -18.2161  -21.9261   18.0246 C   0  0  0  0  0  0  0  0  0  0  0  0
  -26.2438  -13.8891   19.9874 C   0  0  0  0  0  0  0  0  0  0  0  0
  -23.8318  -13.9121   20.1248 C   0  0  0  0  0  0  0  0  0  0  0  0
  -17.8814  -23.0468   18.7846 C   0  0  0  0  0  0  0  0  0  0  0  0
  -29.2306  -24.7951   17.5021 C   0  0  0  0  0  0  0  0  0  0  0  0
  -26.8458  -25.3000   18.8453 C   0  0  0  0  0  0  0  0  0  0  0  0
  -23.1741  -28.7846   18.9905 C   0  0  0  0  0  0  0  0  0  0  0  0
  -19.5245  -21.4426   18.0337 C   0  0  0  0  0  0  0  0  0  0  0  0
  -26.2754  -12.7134   20.7372 C   0  0  0  0  0  0  0  0  0  0  0  0
  -23.8634  -12.7363   20.8746 C   0  0  0  0  0  0  0  0  0  0  0  0
  -21.8862  -28.3405   19.2872 C   0  0  0  0  0  0  0  0  0  0  0  0
  -23.2890   -9.5447   22.5184 C   0  0  0  0  0  0  0  0  0  0  0  0
  -22.3851   -8.5366   22.1834 C   0  0  0  0  0  0  0  0  0  0  0  0
  -20.1635  -23.2007   19.5627 C   0  0  0  0  0  0  0  0  0  0  0  0
  -22.1652  -29.0748   21.5681 C   0  0  0  0  0  0  0  0  0  0  0  0
  -23.3398   -8.4171   19.9672 C   0  0  0  0  0  0  0  0  0  0  0  0
  -25.0220  -14.4885   19.6812 C   0  0  0  0  0  0  0  0  0  0  0  0
  -18.8551  -23.6841   19.5536 C   0  0  0  0  0  0  0  0  0  0  0  0
  -24.9099  -15.8169   17.5063 C   0  0  0  0  0  0  0  0  0  0  0  0
  -29.2543  -25.5483   18.6865 C   0  0  0  0  0  0  0  0  0  0  0  0
  -23.9725  -29.3682   19.9846 C   0  0  0  0  0  0  0  0  0  0  0  0
  -28.0501  -25.7960   19.3729 C   0  0  0  0  0  0  0  0  0  0  0  0
  -23.4618  -29.5278   21.2807 C   0  0  0  0  0  0  0  0  0  0  0  0
  -20.4982  -22.0799   18.8027 C   0  0  0  0  0  0  0  0  0  0  0  0
  -25.0852  -12.1369   21.1807 C   0  0  0  0  0  0  0  0  0  0  0  0
  -21.3826  -28.4830   20.5769 C   0  0  0  0  0  0  0  0  0  0  0  0
  -24.2183   -9.9891   21.5778 C   0  0  0  0  0  0  0  0  0  0  0  0
  -22.4105   -7.9728   20.9078 C   0  0  0  0  0  0  0  0  0  0  0  0
  -24.2437   -9.4252   20.3022 C   0  0  0  0  0  0  0  0  0  0  0  0
  -24.9888  -15.7034   18.9072 C   0  0  0  0  0  0  0  0  0  0  0  0
  -24.9085  -17.1701   17.2710 C   0  0  0  0  0  0  0  0  0  0  0  0
  -18.5004  -24.8667   20.3558 C   0  0  0  0  0  0  0  0  0  0  0  0
  -19.2039  -25.3320   21.3999 C   0  0  0  0  0  0  0  0  0  0  0  0
  -24.8436  -14.7909   16.5070 C   0  0  0  0  0  0  0  0  0  0  0  0
  -26.7544  -28.6425   21.3405 C   0  0  0  0  0  0  0  0  0  0  0  0
  -26.3603  -31.5225   22.7802 C   0  0  0  0  0  0  0  0  0  0  0  0
  -24.2259  -33.9748   23.8181 C   0  0  0  0  0  0  0  0  0  0  0  0
  -22.9131  -22.1017   19.5198 C   0  0  0  0  0  0  0  0  0  0  0  0
  -30.5843  -26.0131   19.2248 C   0  0  0  0  0  0  0  0  0  0  0  0
  -25.3497  -29.8663   19.6419 C   0  0  0  0  0  0  0  0  0  0  0  0
  -24.2711  -30.1661   22.3789 C   0  0  0  0  0  0  0  0  0  0  0  0
  -30.4644  -27.1060   20.2838 C   0  0  0  0  0  0  0  0  0  0  0  0
  -26.3307  -21.1548   19.8367 C   0  0  0  0  0  0  0  0  0  0  0  0
  -29.3942  -26.7418   21.3080 C   0  0  0  0  0  0  0  0  0  0  0  0
  -26.3271  -19.6636   19.4925 C   0  0  0  0  0  0  0  0  0  0  0  0
  -25.0786  -21.5609   20.6120 C   0  0  0  0  0  0  0  0  0  0  0  0
  -23.8041  -19.6918   19.6367 C   0  0  0  0  0  0  0  0  0  0  0  0
  -28.0172  -26.6144   20.6453 C   0  0  1  0  0  0  0  0  0  0  0  0
  -26.2644  -29.9783   20.8577 C   0  0  1  0  0  0  0  0  0  0  0  0
  -25.0147  -19.2484   18.7991 C   0  0  2  0  0  0  0  0  0  0  0  0
  -24.1944  -36.1894   24.9979 C   0  0  0  0  0  0  0  0  0  0  0  0
  -26.7678  -30.1030   25.4502 C   0  0  0  0  0  0  0  0  0  0  0  0
  -25.8009  -32.1132   26.5871 C   0  0  0  0  0  0  0  0  0  0  0  0
  -27.9054  -32.3224   25.2643 C   0  0  0  0  0  0  0  0  0  0  0  0
  -23.0865  -35.3476   21.4567 C   0  0  0  0  0  0  0  0  0  0  0  0
  -18.7978  -26.5387   22.2010 C   0  0  0  0  0  0  0  0  0  0  0  0
  -19.8868  -27.6050   22.2040 C   0  0  0  0  0  0  0  0  0  1  0  0
  -25.7085  -31.9999   24.0554 C   0  0  1  0  0  0  0  0  0  0  0  0
  -24.2682  -35.4832   23.6530 C   0  0  2  0  0  0  0  0  0  0  0  0
  -26.5309  -31.6208   25.3193 C   0  0  0  0  0  0  0  0  0  0  0  0
  -25.0345  -16.8899   19.5189 N   0  0  0  0  0  0  0  0  0  0  0  0
  -24.9841  -17.7618   18.4975 N   0  0  0  0  0  0  0  0  0  0  0  0
  -25.6143  -30.6314   21.9957 N   0  0  0  0  0  0  0  0  0  0  0  0
  -23.8746  -21.1389   19.8930 N   0  0  0  0  0  0  0  0  0  0  0  0
  -24.8501  -17.8997   16.1366 N   0  0  0  0  0  0  0  0  0  0  0  0
  -24.8553  -13.4523   16.9220 N   0  0  0  0  0  0  0  0  0  0  0  0
  -21.8269  -21.5877   18.8123 N   0  0  0  0  0  0  0  0  0  0  0  0
  -27.4555  -27.9238   20.3911 N   0  0  0  0  0  0  0  0  0  0  0  0
  -25.4919  -33.4333   23.8912 N   0  0  0  0  0  0  0  0  0  0  0  0
  -23.1248  -35.9451   22.8163 N   0  3  0  0  0  0  0  0  0  0  0  0
  -24.7927  -15.0533   15.2814 O   0  0  0  0  0  0  0  0  0  0  0  0
  -26.5154  -28.2906   22.4897 O   0  0  0  0  0  0  0  0  0  0  0  0
  -27.4869  -31.9308   22.4872 O   0  0  0  0  0  0  0  0  0  0  0  0
  -23.1749  -33.3407   23.8799 O   0  0  0  0  0  0  0  0  0  0  0  0
  -23.0569  -23.2984   19.7830 O   0  0  0  0  0  0  0  0  0  0  0  0
  -25.1155  -10.9895   21.9122 O   0  0  0  0  0  0  0  0  0  0  0  0
  -20.1262  -28.0498   20.8694 O   0  0  0  0  0  0  0  0  0  1  0  0
  -21.5434   -7.0036   20.5868 F   0  0  0  0  0  0  0  0  0  0  0  0
  -25.1349   -9.8472   19.3948 F   0  0  0  0  0  0  0  0  0  0  0  0
  1  2  1  0  0  0  0
  1  7  2  0  0  0  0
  2  8  2  0  0  0  0
  3  6  2  0  0  0  0
  3 10  1  0  0  0  0
  4 11  2  0  0  0  0
  4 19  1  0  0  0  0
  5 12  1  0  0  0  0
  5 19  2  0  0  0  0
  6 20  1  0  0  0  0
  7 22  1  0  0  0  0
  8 24  1  0  0  0  0
  9 13  2  0  0  0  0
  9 23  1  0  0  0  0
 10 26  2  0  0  0  0
 11 27  1  0  0  0  0
 12 27  2  0  0  0  0
 13 28  1  0  0  0  0
 14 15  2  0  0  0  0
 14 29  1  0  0  0  0
 15 30  1  0  0  0  0
 16 20  2  0  0  0  0
 16 26  1  0  0  0  0
 17 25  1  0  0  0  0
 17 28  2  0  0  0  0
 18 30  2  0  0  0  0
 18 31  1  0  0  0  0
 19 32  1  0  0  0  0
 20 34  1  0  0  0  0
 21 32  1  0  0  0  0
 21 33  2  0  0  0  0
 21 36  1  0  0  0  0
 22 24  2  0  0  0  0
 22 41  1  0  0  0  0
 23 25  2  0  0  0  0
 23 42  1  0  0  0  0
 24 50  1  0  0  0  0
 25 43  1  0  0  0  0
 26 69  1  0  0  0  0
 27 78  1  0  0  0  0
 28 79  1  0  0  0  0
 29 31  2  0  0  0  0
 29 78  1  0  0  0  0
 30 80  1  0  0  0  0
 31 81  1  0  0  0  0
 32 63  2  0  0  0  0
 33 64  1  0  0  0  0
 33 67  1  0  0  0  0
 34 35  2  0  0  0  0
 35 58  1  0  0  0  0
 36 68  1  0  0  0  0
 36 73  2  0  0  0  0
 37 51  1  0  0  0  0
 37 70  1  0  0  0  0
 37 74  2  0  0  0  0
 38 60  1  0  0  0  0
 38 65  1  0  0  0  0
 38 75  2  0  0  0  0
 39 61  1  0  0  0  0
 39 71  1  0  0  0  0
 39 76  2  0  0  0  0
 40 66  1  0  0  0  0
 40 69  1  0  0  0  0
 40 77  2  0  0  0  0
 41 44  1  0  0  0  0
 42 51  1  0  0  0  0
 43 65  1  0  0  0  0
 44 46  1  0  0  0  0
 45 47  1  0  0  0  0
 45 48  1  0  0  0  0
 46 50  1  0  0  0  0
 47 52  1  0  0  0  0
 48 66  1  0  0  0  0
 49 52  1  0  0  0  0
 49 66  1  0  0  0  0
 50 70  1  0  0  0  0
 51 65  1  0  0  0  0
 52 64  1  0  0  0  0
 53 61  1  0  0  0  0
 54 62  1  0  0  0  0
 55 62  1  0  0  0  0
 56 62  1  0  0  0  0
 57 72  1  0  0  0  0
 58 59  1  0  0  0  0
 59 79  1  0  0  0  0
 60 62  1  0  0  0  0
 60 71  1  0  0  0  0
 61 72  1  0  0  0  0
 63 64  1  0  0  0  0
M  CHG  1  72   1
M  ISO  4  40 100  59 101  69 100  79 101
M  END
> <Batch ID>
0105

> <Smiles>
CNC(C)C(=O)NC(C(=O)N1Cc2cc([101O:1][101CH2:1]CC=Cc3cccc([100NH:0][100C:0](=O)N4CCCC(n5nc(-c6ccc(Oc7ccc(F)cc7F)cc6)c(C(N)=O)c5N)C4)c3)ccc2CC1C(=O)NC1CCCc2ccccc21)C(C)(C)C

> <Shape>
0.276

> <Color>
0.088

> <Negative vol penalty>
0.000

$$$$

  -OEChem-04052301113D

 79 87  0     1  0  0  0  0  0999 V2000
  -26.5837  -26.3862   16.9277 C   0  0  0  0  0  0  0  0  0  0  0  0
  -26.6457  -25.2003   17.6525 C   0  0  0  0  0  0  0  0  0  0  0  0
  -23.1138  -10.1850   22.0565 C   0  0  0  0  0  0  0  0  0  0  0  0
  -23.8043   -9.4589   19.8581 C   0  0  0  0  0  0  0  0  0  0  0  0
  -27.7515  -26.9521   16.4179 C   0  0  0  0  0  0  0  0  0  0  0  0
  -27.8755  -24.5791   17.8670 C   0  0  0  0  0  0  0  0  0  0  0  0
  -29.6037  -21.4546   22.8426 C   0  0  0  0  0  0  0  0  0  0  0  0
  -22.3738   -9.0128   22.2113 C   0  0  0  0  0  0  0  0  0  0  0  0
  -23.0643   -8.2867   20.0129 C   0  0  0  0  0  0  0  0  0  0  0  0
  -29.6439  -20.0902   23.1264 C   0  0  0  0  0  0  0  0  0  0  0  0
  -22.9698   -5.7735   22.9760 C   0  0  0  0  0  0  0  0  0  0  0  0
  -23.0749   -5.0962   24.1908 C   0  0  0  0  0  0  0  0  0  0  0  0
  -31.9744  -20.0360   22.5058 C   0  0  0  0  0  0  0  0  0  0  0  0
  -20.7008   -5.3676   24.5475 C   0  0  0  0  0  0  0  0  0  0  0  0
  -23.8290  -10.4081   20.8799 C   0  0  0  0  0  0  0  0  0  0  0  0
  -24.1079  -12.9403   20.7464 C   0  0  0  0  0  0  0  0  0  0  0  0
  -28.9974  -26.3425   16.6344 C   0  0  0  0  0  0  0  0  0  0  0  0
  -30.7476  -22.1188   22.3771 C   0  0  0  0  0  0  0  0  0  0  0  0
  -29.0609  -25.1366   17.3584 C   0  0  0  0  0  0  0  0  0  0  0  0
  -31.9467  -21.4094   22.2193 C   0  0  0  0  0  0  0  0  0  0  0  0
  -22.3491   -8.0636   21.1895 C   0  0  0  0  0  0  0  0  0  0  0  0
  -30.8286  -19.3801   22.9553 C   0  0  0  0  0  0  0  0  0  0  0  0
  -21.7302   -6.2480   22.5469 C   0  0  0  0  0  0  0  0  0  0  0  0
  -21.9404   -4.8932   24.9765 C   0  0  0  0  0  0  0  0  0  0  0  0
  -20.5957   -6.0450   23.3327 C   0  0  0  0  0  0  0  0  0  0  0  0
  -24.5931  -11.6191   20.7192 C   0  0  0  0  0  0  0  0  0  0  0  0
  -25.2216  -13.7192   20.5477 C   0  0  0  0  0  0  0  0  0  0  0  0
  -31.8671  -16.3332   24.5426 C   0  0  0  0  0  0  0  0  0  0  0  0
  -31.7421  -17.6168   24.1910 C   0  0  0  0  0  0  0  0  0  1  0  0
  -22.7702  -13.4206   20.9346 C   0  0  0  0  0  0  0  0  0  0  0  0
  -31.5065  -23.6824   19.7158 C   0  0  0  0  0  0  0  0  0  0  0  0
  -31.8106  -12.8122   23.8297 C   0  0  0  0  0  0  0  0  0  0  0  0
  -31.0588  -12.7051   21.5531 C   0  0  0  0  0  0  0  0  0  0  0  0
  -34.2267  -24.3546   21.3501 C   0  0  0  0  0  0  0  0  0  0  0  0
  -36.4014  -23.4933   23.8352 C   0  0  0  0  0  0  0  0  0  0  0  0
  -30.2269  -26.9667   16.0234 C   0  0  0  0  0  0  0  0  0  0  0  0
  -30.6948  -23.5965   22.1010 C   0  0  0  0  0  0  0  0  0  0  0  0
  -33.2079  -22.0800   21.7416 C   0  0  0  0  0  0  0  0  0  0  0  0
  -32.8080  -15.8116   25.5888 C   0  0  0  0  0  0  0  0  0  0  0  0
  -31.1758  -15.1878   23.8683 C   0  0  0  0  0  0  0  0  0  0  0  0
  -31.5334  -26.4436   16.6147 C   0  0  0  0  0  0  0  0  0  0  0  0
  -29.5185  -13.6597   18.4617 C   0  0  0  0  0  0  0  0  0  0  0  0
  -31.5056  -24.9213   16.7079 C   0  0  0  0  0  0  0  0  0  0  0  0
  -28.0410  -13.3381   18.6825 C   0  0  0  0  0  0  0  0  0  0  0  0
  -33.1918  -14.4354   25.0589 C   0  0  0  0  0  0  0  0  0  0  0  0
  -30.4208  -12.6503   19.1647 C   0  0  0  0  0  0  0  0  0  0  0  0
  -28.6702  -12.1841   20.8499 C   0  0  0  0  0  0  0  0  0  0  0  0
  -30.3790  -24.4458   17.6333 C   0  0  1  0  0  0  0  0  0  0  0  0
  -31.7850  -24.0645   21.1420 C   0  0  1  0  0  0  0  0  0  0  0  0
  -27.7240  -13.1974   20.1819 C   0  0  2  0  0  0  0  0  0  0  0  0
  -38.5525  -24.2141   24.9078 C   0  0  0  0  0  0  0  0  0  0  0  0
  -35.7818  -23.2474   18.9699 C   0  0  0  0  0  0  0  0  0  0  0  0
  -37.8012  -23.1075   20.4432 C   0  0  0  0  0  0  0  0  0  0  0  0
  -36.7514  -25.3216   19.9757 C   0  0  0  0  0  0  0  0  0  0  0  0
  -35.0950  -23.8860   26.4616 C   0  0  0  0  0  0  0  0  0  0  0  0
  -30.6239  -12.5688   22.9906 C   0  0  0  0  0  0  0  0  0  0  0  0
  -35.5729  -23.6893   21.5050 C   0  0  1  0  0  0  0  0  0  0  0  0
  -37.0353  -24.3099   24.9469 C   0  0  2  0  0  0  0  0  0  0  0  0
  -36.4528  -23.8281   20.2306 C   0  0  0  0  0  0  0  0  0  0  0  0
  -25.9122  -11.5582   20.5188 N   0  0  0  0  0  0  0  0  0  0  0  0
  -26.2654  -12.8509   20.4182 N   0  0  0  0  0  0  0  0  0  0  0  0
  -32.0415  -14.0514   24.2248 N   0  0  0  0  0  0  0  0  0  0  0  0
  -33.1039  -23.5248   21.4789 N   0  0  0  0  0  0  0  0  0  0  0  0
  -30.0732  -12.5291   20.5817 N   0  0  0  0  0  0  0  0  0  0  0  0
  -25.4000  -15.0552   20.4727 N   0  0  0  0  0  0  0  0  0  0  0  0
  -21.9599  -13.6009   19.8053 N   0  0  0  0  0  0  0  0  0  0  0  0
  -30.7592  -24.6132   19.0196 N   0  0  0  0  0  0  0  0  0  0  0  0
  -36.1717  -24.2551   22.7091 N   0  0  0  0  0  0  0  0  0  0  0  0
  -32.5715  -11.7721   24.1398 N   0  3  0  0  0  0  0  0  0  0  0  0
  -36.5678  -23.8256   26.2765 N   0  3  0  0  0  0  0  0  0  0  0  0
  -22.3124  -13.6978   22.0691 O   0  0  0  0  0  0  0  0  0  0  0  0
  -31.9390  -22.6224   19.2788 O   0  0  0  0  0  0  0  0  0  0  0  0
  -32.2391  -12.9633   21.3032 O   0  0  0  0  0  0  0  0  0  0  0  0
  -34.1732  -25.5673   21.1303 O   0  0  0  0  0  0  0  0  0  0  0  0
  -36.1399  -22.2982   23.9527 O   0  0  0  0  0  0  0  0  0  0  0  0
  -21.6273   -6.9195   21.3402 O   0  0  0  0  0  0  0  0  0  0  0  0
  -30.8704  -18.0481   23.2309 O   0  0  0  0  0  0  0  0  0  1  0  0
  -22.0413   -4.2414   26.1423 F   0  0  0  0  0  0  0  0  0  0  0  0
  -19.4020   -6.4974   22.9252 F   0  0  0  0  0  0  0  0  0  0  0  0
  1  2  1  0  0  0  0
  1  5  2  0  0  0  0
  2  6  2  0  0  0  0
  3  8  2  0  0  0  0
  3 15  1  0  0  0  0
  4  9  1  0  0  0  0
  4 15  2  0  0  0  0
  5 17  1  0  0  0  0
  6 19  1  0  0  0  0
  7 10  2  0  0  0  0
  7 18  1  0  0  0  0
  8 21  1  0  0  0  0
  9 21  2  0  0  0  0
 10 22  1  0  0  0  0
 11 12  2  0  0  0  0
 11 23  1  0  0  0  0
 12 24  1  0  0  0  0
 13 20  1  0  0  0  0
 13 22  2  0  0  0  0
 14 24  2  0  0  0  0
 14 25  1  0  0  0  0
 15 26  1  0  0  0  0
 16 26  1  0  0  0  0
 16 27  2  0  0  0  0
 16 30  1  0  0  0  0
 17 19  2  0  0  0  0
 17 36  1  0  0  0  0
 18 20  2  0  0  0  0
 18 37  1  0  0  0  0
 19 48  1  0  0  0  0
 20 38  1  0  0  0  0
 21 76  1  0  0  0  0
 22 77  1  0  0  0  0
 23 25  2  0  0  0  0
 23 76  1  0  0  0  0
 24 78  1  0  0  0  0
 25 79  1  0  0  0  0
 26 60  2  0  0  0  0
 27 61  1  0  0  0  0
 27 65  1  0  0  0  0
 28 29  2  0  0  0  0
 28 39  1  0  0  0  0
 28 40  1  0  0  0  0
 29 77  1  0  0  0  0
 30 66  1  0  0  0  0
 30 71  2  0  0  0  0
 31 49  1  0  0  0  0
 31 67  1  0  0  0  0
 31 72  2  0  0  0  0
 32 56  1  0  0  0  0
 32 62  1  0  0  0  0
 32 69  2  0  0  0  0
 33 56  1  0  0  0  0
 33 64  1  0  0  0  0
 33 73  2  0  0  0  0
 34 57  1  0  0  0  0
 34 63  1  0  0  0  0
 34 74  2  0  0  0  0
 35 58  1  0  0  0  0
 35 68  1  0  0  0  0
 35 75  2  0  0  0  0
 36 41  1  0  0  0  0
 37 49  1  0  0  0  0
 38 63  1  0  0  0  0
 39 45  1  0  0  0  0
 40 62  1  0  0  0  0
 41 43  1  0  0  0  0
 42 44  1  0  0  0  0
 42 46  1  0  0  0  0
 43 48  1  0  0  0  0
 44 50  1  0  0  0  0
 45 62  1  0  0  0  0
 46 64  1  0  0  0  0
 47 50  1  0  0  0  0
 47 64  1  0  0  0  0
 48 67  1  0  0  0  0
 49 63  1  0  0  0  0
 50 61  1  0  0  0  0
 51 58  1  0  0  0  0
 52 59  1  0  0  0  0
 53 59  1  0  0  0  0
 54 59  1  0  0  0  0
 55 70  1  0  0  0  0
 57 59  1  0  0  0  0
 57 68  1  0  0  0  0
 58 70  1  0  0  0  0
 60 61  1  0  0  0  0
M  CHG  2  69   1  70   1
M  ISO  4  29 101  33 100  56 100  77 101
M  END
> <Batch ID>
0105

> <Smiles>
CNC(C)C(=O)NC(C(=O)N1Cc2cc([101O:1][101CH:1]=C3CCN(C(=N)[100CH2:0][100C:0](=O)N4CCCC(n5nc(-c6ccc(Oc7ccc(F)cc7F)cc6)c(C(N)=O)c5N)C4)C3)ccc2CC1C(=O)NC1CCCc2ccccc21)C(C)(C)C

> <Shape>
0.181

> <Color>
0.164

> <Negative vol penalty>
0.000

$$$$

  -OEChem-04052301113D

 87 96  0     1  0  0  0  0  0999 V2000
  -19.4776   -9.0469   20.6778 C   0  0  0  0  0  0  0  0  0  0  0  0
  -19.6506  -10.1939   21.4459 C   0  0  0  0  0  0  0  0  0  0  0  0
  -21.4760  -29.8231   20.0102 C   0  0  0  0  0  0  0  0  0  0  0  0
  -21.7009  -28.3111   21.8811 C   0  0  0  0  0  0  0  0  0  0  0  0
  -20.5837   -8.2812   20.3116 C   0  0  0  0  0  0  0  0  0  0  0  0
  -20.9298  -10.5751   21.8492 C   0  0  0  0  0  0  0  0  0  0  0  0
  -23.0344  -16.2894   22.5009 C   0  0  0  0  0  0  0  0  0  0  0  0
  -20.1330  -29.4678   19.8845 C   0  0  0  0  0  0  0  0  0  0  0  0
  -20.3579  -27.9558   21.7554 C   0  0  0  0  0  0  0  0  0  0  0  0
  -23.1865  -17.1114   23.6166 C   0  0  0  0  0  0  0  0  0  0  0  0
  -17.3513  -29.2534   22.5901 C   0  0  0  0  0  0  0  0  0  0  0  0
  -16.5882  -29.1869   23.7558 C   0  0  0  0  0  0  0  0  0  0  0  0
  -29.5206  -21.8069   22.8770 C   0  0  0  0  0  0  0  0  0  0  0  0
  -28.4830  -23.9800   23.0711 C   0  0  0  0  0  0  0  0  0  0  0  0
  -25.4953  -16.4351   23.7926 C   0  0  0  0  0  0  0  0  0  0  0  0
  -29.7891  -23.4356   21.1129 C   0  0  0  0  0  0  0  0  0  0  0  0
  -16.1328  -26.8537   23.3247 C   0  0  0  0  0  0  0  0  0  0  0  0
  -22.2600  -29.2447   21.0085 C   0  0  0  0  0  0  0  0  0  0  0  0
  -28.7394  -22.7127   23.5945 C   0  0  0  0  0  0  0  0  0  0  0  0
  -24.1818  -30.6544   21.9178 C   0  0  0  0  0  0  0  0  0  0  0  0
  -21.8781   -8.6585   20.7025 C   0  0  0  0  0  0  0  0  0  0  0  0
  -24.1105  -15.5244   22.0283 C   0  0  0  0  0  0  0  0  0  0  0  0
  -22.0541   -9.8130   21.4890 C   0  0  0  0  0  0  0  0  0  0  0  0
  -25.3550  -15.6061   22.6691 C   0  0  0  0  0  0  0  0  0  0  0  0
  -30.0455  -22.1683   21.6363 C   0  0  0  0  0  0  0  0  0  0  0  0
  -29.0079  -24.3415   21.8303 C   0  0  0  0  0  0  0  0  0  0  0  0
  -19.5740  -28.5342   20.7571 C   0  0  0  0  0  0  0  0  0  0  0  0
  -24.4163  -17.1821   24.2644 C   0  0  0  0  0  0  0  0  0  0  0  0
  -17.5050  -28.1200   21.7916 C   0  0  0  0  0  0  0  0  0  0  0  0
  -15.9790  -27.9871   24.1232 C   0  0  0  0  0  0  0  0  0  0  0  0
  -16.8958  -26.9202   22.1589 C   0  0  0  0  0  0  0  0  0  0  0  0
  -23.6475  -29.6109   21.1385 C   0  0  0  0  0  0  0  0  0  0  0  0
  -25.5364  -30.5861   21.7008 C   0  0  0  0  0  0  0  0  0  0  0  0
  -28.1782  -22.3261   24.9213 C   0  0  0  0  0  0  0  0  0  0  0  0
  -23.5136  -31.6008   22.7625 C   0  0  0  0  0  0  0  0  0  0  0  0
  -24.6707  -12.4148   21.6814 C   0  0  0  0  0  0  0  0  0  0  0  0
  -27.3781  -13.4611   20.2331 C   0  0  0  0  0  0  0  0  0  0  0  0
  -29.6832  -15.9483   19.8501 C   0  0  0  0  0  0  0  0  0  0  0  0
  -29.1922  -26.1455   20.0816 C   0  0  0  0  0  0  0  0  0  0  0  0
  -23.0383   -7.7731   20.3223 C   0  0  0  0  0  0  0  0  0  0  0  0
  -23.9374  -14.6630   20.8075 C   0  0  0  0  0  0  0  0  0  0  0  0
  -26.5471  -14.8205   22.1893 C   0  0  0  0  0  0  0  0  0  0  0  0
  -24.3974   -8.4512   20.4745 C   0  0  0  0  0  0  0  0  0  0  0  0
  -28.7370  -29.2499   18.3985 C   0  0  0  0  0  0  0  0  0  0  0  0
  -24.4882   -9.1698   21.8170 C   0  0  0  0  0  0  0  0  0  0  0  0
  -27.4320  -29.7926   18.9855 C   0  0  0  0  0  0  0  0  0  0  0  0
  -23.7189  -21.5289   26.3099 C   0  0  0  0  0  0  0  0  0  0  0  0
  -28.6967  -27.7317   18.2340 C   0  0  0  0  0  0  0  0  0  0  0  0
  -27.0240  -27.5283   20.0312 C   0  0  0  0  0  0  0  0  0  0  0  0
  -24.7700  -22.5478   26.7192 C   0  0  0  0  0  0  0  0  0  0  0  0
  -25.7793  -20.6729   25.5190 C   0  0  0  0  0  0  0  0  0  0  0  0
  -23.4284  -10.2728   21.9250 C   0  0  1  0  0  0  0  0  0  0  0  0
  -24.9605  -13.5346   20.7224 C   0  0  1  0  0  0  0  0  0  0  0  0
  -24.4949  -20.2243   26.1948 C   0  0  2  0  0  0  0  0  0  0  0  0
  -27.0411  -29.0460   20.2760 C   0  0  2  0  0  0  0  0  0  0  0  0
  -30.8811  -21.1999   20.8690 C   0  0  0  0  0  0  0  0  0  0  0  0
  -31.8035  -16.4976   18.6252 C   0  0  0  0  0  0  0  0  0  0  0  0
  -28.9432  -11.6698   22.1441 C   0  0  0  0  0  0  0  0  0  0  0  0
  -31.0093  -12.9480   21.5393 C   0  0  0  0  0  0  0  0  0  0  0  0
  -29.7810  -11.6650   19.7877 C   0  0  0  0  0  0  0  0  0  0  0  0
  -28.4276  -18.2454   18.4696 C   0  0  0  0  0  0  0  0  0  0  0  0
  -26.8676  -22.9401   25.3569 C   0  0  0  0  0  0  0  0  0  0  0  0
  -23.7579  -19.1569   25.4145 C   0  0  0  0  0  0  0  0  0  1  0  0
  -28.7750  -13.7998   20.6946 C   0  0  1  0  0  0  0  0  0  0  0  0
  -30.2851  -16.5814   18.6085 C   0  0  2  0  0  0  0  0  0  0  0  0
  -29.6043  -12.5341   21.0519 C   0  0  0  0  0  0  0  0  0  0  0  0
  -24.5859  -28.9297   20.4757 N   0  0  0  0  0  0  0  0  0  0  0  0
  -25.7236  -29.5465   20.8380 N   0  0  0  0  0  0  0  0  0  0  0  0
  -26.3259  -13.9879   20.9954 N   0  0  0  0  0  0  0  0  0  0  0  0
  -28.3238  -27.0918   19.4975 N   0  0  0  0  0  0  0  0  0  0  0  0
  -26.5736  -31.3144   22.1656 N   0  0  0  0  0  0  0  0  0  0  0  0
  -22.1181  -31.5300   22.8720 N   0  0  0  0  0  0  0  0  0  0  0  0
  -28.7474  -25.6286   21.2980 N   0  0  0  0  0  0  0  0  0  0  0  0
  -23.8348  -11.4397   21.1716 N   0  0  0  0  0  0  0  0  0  0  0  0
  -29.3637  -14.6230   19.6438 N   0  0  0  0  0  0  0  0  0  0  0  0
  -26.0829  -21.9890   26.2019 N   0  3  1  0  0  0  0  0  0  0  0  0
  -29.8947  -18.0168   18.5178 N   0  3  0  0  0  0  0  0  0  0  0  0
  -28.7893  -21.5251   25.6248 O   0  0  0  0  0  0  0  0  0  0  0  0
  -24.1340  -32.4936   23.3883 O   0  0  0  0  0  0  0  0  0  0  0  0
  -25.1697  -12.4333   22.8005 O   0  0  0  0  0  0  0  0  0  0  0  0
  -27.2261  -12.7609   19.2290 O   0  0  0  0  0  0  0  0  0  0  0  0
  -29.5169  -16.5666   20.8992 O   0  0  0  0  0  0  0  0  0  0  0  0
  -30.2652  -25.8381   19.5561 O   0  0  0  0  0  0  0  0  0  0  0  0
  -18.2635  -28.1875   20.6349 O   0  0  0  0  0  0  0  0  0  0  0  0
  -24.5673  -17.9832   25.3541 O   0  0  0  0  0  0  0  0  0  1  0  0
  -15.2476  -27.9230   25.2435 F   0  0  0  0  0  0  0  0  0  0  0  0
  -17.0409  -25.8278   21.3964 F   0  0  0  0  0  0  0  0  0  0  0  0
  1  2  1  0  0  0  0
  1  5  2  0  0  0  0
  2  6  2  0  0  0  0
  3  8  2  0  0  0  0
  3 18  1  0  0  0  0
  4  9  1  0  0  0  0
  4 18  2  0  0  0  0
  5 21  1  0  0  0  0
  6 23  1  0  0  0  0
  7 10  2  0  0  0  0
  7 22  1  0  0  0  0
  8 27  1  0  0  0  0
  9 27  2  0  0  0  0
 10 28  1  0  0  0  0
 11 12  2  0  0  0  0
 11 29  1  0  0  0  0
 12 30  1  0  0  0  0
 13 19  1  0  0  0  0
 13 25  2  0  0  0  0
 14 19  2  0  0  0  0
 14 26  1  0  0  0  0
 15 24  1  0  0  0  0
 15 28  2  0  0  0  0
 16 25  1  0  0  0  0
 16 26  2  0  0  0  0
 17 30  2  0  0  0  0
 17 31  1  0  0  0  0
 18 32  1  0  0  0  0
 19 34  1  0  0  0  0
 20 32  1  0  0  0  0
 20 33  2  0  0  0  0
 20 35  1  0  0  0  0
 21 23  2  0  0  0  0
 21 40  1  0  0  0  0
 22 24  2  0  0  0  0
 22 41  1  0  0  0  0
 23 52  1  0  0  0  0
 24 42  1  0  0  0  0
 25 56  1  0  0  0  0
 26 73  1  0  0  0  0
 27 84  1  0  0  0  0
 28 85  1  0  0  0  0
 29 31  2  0  0  0  0
 29 84  1  0  0  0  0
 30 86  1  0  0  0  0
 31 87  1  0  0  0  0
 32 67  2  0  0  0  0
 33 68  1  0  0  0  0
 33 71  1  0  0  0  0
 34 62  1  0  0  0  0
 34 78  2  0  0  0  0
 35 72  1  0  0  0  0
 35 79  2  0  0  0  0
 36 53  1  0  0  0  0
 36 74  1  0  0  0  0
 36 80  2  0  0  0  0
 37 64  1  0  0  0  0
 37 69  1  0  0  0  0
 37 81  2  0  0  0  0
 38 65  1  0  0  0  0
 38 75  1  0  0  0  0
 38 82  2  0  0  0  0
 39 70  1  0  0  0  0
 39 73  1  0  0  0  0
 39 83  2  0  0  0  0
 40 43  1  0  0  0  0
 41 53  1  0  0  0  0
 42 69  1  0  0  0  0
 43 45  1  0  0  0  0
 44 46  1  0  0  0  0
 44 48  1  0  0  0  0
 45 52  1  0  0  0  0
 46 55  1  0  0  0  0
 47 50  1  0  0  0  0
 47 54  1  0  0  0  0
 48 70  1  0  0  0  0
 49 55  1  0  0  0  0
 49 70  1  0  0  0  0
 50 76  1  0  0  0  0
 51 54  1  0  0  0  0
 51 76  1  0  0  0  0
 52 74  1  0  0  0  0
 53 69  1  0  0  0  0
 54 63  1  0  0  0  0
 55 68  1  0  0  0  0
 57 65  1  0  0  0  0
 58 66  1  0  0  0  0
 59 66  1  0  0  0  0
 60 66  1  0  0  0  0
 61 77  1  0  0  0  0
 62 76  1  0  0  0  0
 63 85  1  0  0  0  0
 64 66  1  0  0  0  0
 64 75  1  0  0  0  0
 65 77  1  0  0  0  0
 67 68  1  0  0  0  0
M  CHG  2  76   1  77   1
M  ISO  4  39 100  63 101  73 100  85 101
M  END
> <Batch ID>
0105

> <Smiles>
CNC(C)C(=O)NC(C(=O)N1Cc2cc([101O:1][101CH2:1]C3CCN(CC(=O)c4cc(C)cc([100NH:0][100C:0](=O)N5CCCC(n6nc(-c7ccc(Oc8ccc(F)cc8F)cc7)c(C(N)=O)c6N)C5)c4)C3)ccc2CC1C(=O)NC1CCCc2ccccc21)C(C)(C)C

> <Shape>
0.275

> <Color>
0.057

> <Negative vol penalty>
0.000

$$$$

  -OEChem-04052301113D

 85 94  0     1  0  0  0  0  0999 V2000
  -20.5574  -30.8997   23.9945 C   0  0  0  0  0  0  0  0  0  0  0  0
  -21.7693  -30.2551   23.7680 C   0  0  0  0  0  0  0  0  0  0  0  0
  -27.0160  -23.5518   23.2910 C   0  0  0  0  0  0  0  0  0  0  0  0
  -23.4899  -12.4553   20.5203 C   0  0  0  0  0  0  0  0  0  0  0  0
  -24.2837  -13.0098   22.7338 C   0  0  0  0  0  0  0  0  0  0  0  0
  -19.3596  -30.2634   23.6717 C   0  0  0  0  0  0  0  0  0  0  0  0
  -21.7840  -28.9732   23.2195 C   0  0  0  0  0  0  0  0  0  0  0  0
  -25.2492  -28.4649   19.5618 C   0  0  0  0  0  0  0  0  0  0  0  0
  -28.2828  -24.1343   23.3311 C   0  0  0  0  0  0  0  0  0  0  0  0
  -26.7951  -22.4157   22.5123 C   0  0  0  0  0  0  0  0  0  0  0  0
  -23.2853  -11.1360   20.9241 C   0  0  0  0  0  0  0  0  0  0  0  0
  -24.0790  -11.6904   23.1377 C   0  0  0  0  0  0  0  0  0  0  0  0
  -26.5755  -28.3021   19.9594 C   0  0  0  0  0  0  0  0  0  0  0  0
  -20.9750   -9.3974   22.6771 C   0  0  0  0  0  0  0  0  0  0  0  0
  -19.7772   -8.7851   22.3084 C   0  0  0  0  0  0  0  0  0  0  0  0
  -26.3853  -25.9244   19.5996 C   0  0  0  0  0  0  0  0  0  0  0  0
  -29.1078  -22.4448   21.8139 C   0  0  0  0  0  0  0  0  0  0  0  0
  -21.0126   -7.0929   21.1053 C   0  0  0  0  0  0  0  0  0  0  0  0
  -23.9892  -13.3922   21.4252 C   0  0  0  0  0  0  0  0  0  0  0  0
  -23.2796  -15.8171   21.0732 C   0  0  0  0  0  0  0  0  0  0  0  0
  -19.3600  -28.9768   23.1100 C   0  0  0  0  0  0  0  0  0  0  0  0
  -24.4764  -27.3554   19.1899 C   0  0  0  0  0  0  0  0  0  0  0  0
  -20.5850  -28.3185   22.8901 C   0  0  0  0  0  0  0  0  0  0  0  0
  -25.0502  -26.0760   19.1952 C   0  0  0  0  0  0  0  0  0  0  0  0
  -29.3286  -23.5809   22.5926 C   0  0  0  0  0  0  0  0  0  0  0  0
  -27.8410  -21.8623   21.7738 C   0  0  0  0  0  0  0  0  0  0  0  0
  -23.5798  -10.7535   22.2328 C   0  0  0  0  0  0  0  0  0  0  0  0
  -27.1429  -27.0314   19.9811 C   0  0  0  0  0  0  0  0  0  0  0  0
  -22.1916   -8.8576   22.2598 C   0  0  0  0  0  0  0  0  0  0  0  0
  -19.7960   -7.6328   21.5226 C   0  0  0  0  0  0  0  0  0  0  0  0
  -22.2104   -7.7054   21.4739 C   0  0  0  0  0  0  0  0  0  0  0  0
  -24.2014  -14.7551   21.0085 C   0  0  0  0  0  0  0  0  0  0  0  0
  -23.9602  -16.8943   20.5603 C   0  0  0  0  0  0  0  0  0  0  0  0
  -30.5202  -26.7073   22.3399 C   0  0  0  0  0  0  0  0  0  0  0  0
  -21.9289  -15.8290   21.5541 C   0  0  0  0  0  0  0  0  0  0  0  0
  -21.8235  -25.9976   20.2954 C   0  0  0  0  0  0  0  0  0  0  0  0
  -22.1311  -24.1495   17.6473 C   0  0  0  0  0  0  0  0  0  0  0  0
  -24.1752  -22.8470   15.2448 C   0  0  0  0  0  0  0  0  0  0  0  0
  -28.5445  -20.0329   20.1911 C   0  0  0  0  0  0  0  0  0  0  0  0
  -18.0382  -28.3104   22.8213 C   0  0  0  0  0  0  0  0  0  0  0  0
  -23.0552  -27.5510   18.7378 C   0  0  0  0  0  0  0  0  0  0  0  0
  -24.2693  -24.8550   18.7858 C   0  0  0  0  0  0  0  0  0  0  0  0
  -18.1547  -27.1017   21.8962 C   0  0  0  0  0  0  0  0  0  0  0  0
  -28.3924  -17.1354   18.1274 C   0  0  0  0  0  0  0  0  0  0  0  0
  -19.3011  -26.1985   22.3397 C   0  0  0  0  0  0  0  0  0  0  0  0
  -27.2127  -16.3452   18.6983 C   0  0  0  0  0  0  0  0  0  0  0  0
  -31.2886  -26.8315   20.0822 C   0  0  0  0  0  0  0  0  0  0  0  0
  -29.1903  -17.8361   19.2257 C   0  0  0  0  0  0  0  0  0  0  0  0
  -30.9645  -25.3900   20.4263 C   0  0  0  0  0  0  0  0  0  0  0  0
  -27.2165  -17.8895   20.6989 C   0  0  0  0  0  0  0  0  0  0  0  0
  -20.6431  -26.9376   22.2737 C   0  0  1  0  0  0  0  0  0  0  0  0
  -30.5670  -27.6537   21.1552 C   0  0  1  0  0  0  0  0  0  0  0  0
  -22.2066  -26.2903   18.8723 C   0  0  1  0  0  0  0  0  0  0  0  0
  -26.3445  -17.2192   19.6246 C   0  0  2  0  0  0  0  0  0  0  0  0
  -24.1454  -21.3411   13.2376 C   0  0  0  0  0  0  0  0  0  0  0  0
  -21.9602  -21.7152   19.4790 C   0  0  0  0  0  0  0  0  0  0  0  0
  -22.8721  -20.3280   17.6050 C   0  0  0  0  0  0  0  0  0  0  0  0
  -20.6867  -21.5007   17.3374 C   0  0  0  0  0  0  0  0  0  0  0  0
  -25.0960  -25.0187   13.4574 C   0  0  0  0  0  0  0  0  0  0  0  0
  -30.6919  -24.2083   22.6362 C   0  0  0  0  0  0  0  0  0  0  0  0
  -29.1553  -28.0453   20.7416 C   0  0  0  0  0  0  0  0  0  1  0  0
  -22.8260  -22.8482   17.3266 C   0  0  1  0  0  0  0  0  0  0  0  0
  -24.0359  -22.7741   13.7349 C   0  0  2  0  0  0  0  0  0  0  0  0
  -22.1007  -21.6206   17.9466 C   0  0  0  0  0  0  0  0  0  0  0  0
  -25.3778  -15.1240   20.4947 N   0  0  0  0  0  0  0  0  0  0  0  0
  -25.1998  -16.4299   20.2320 N   0  0  0  0  0  0  0  0  0  0  0  0
  -30.7539  -25.4237   21.8536 N   0  0  0  0  0  0  0  0  0  0  0  0
  -22.8816  -25.0971   18.3577 N   0  0  0  0  0  0  0  0  0  0  0  0
  -28.3031  -18.6489   20.0607 N   0  0  0  0  0  0  0  0  0  0  0  0
  -23.6132  -18.1838   20.3625 N   0  0  0  0  0  0  0  0  0  0  0  0
  -21.3848  -14.6353   22.0474 N   0  0  0  0  0  0  0  0  0  0  0  0
  -27.6165  -20.7078   20.9834 N   0  0  0  0  0  0  0  0  0  0  0  0
  -21.1121  -27.0124   20.9067 N   0  0  0  0  0  0  0  0  0  0  0  0
  -22.9491  -22.7984   15.8738 N   0  0  0  0  0  0  0  0  0  0  0  0
  -25.1009  -23.5826   13.0769 N   0  3  0  0  0  0  0  0  0  0  0  0
  -30.2702  -27.0433   23.4885 O   0  0  0  0  0  0  0  0  0  0  0  0
  -21.2199  -16.8636   21.5314 O   0  0  0  0  0  0  0  0  0  0  0  0
  -22.1479  -24.9294   20.8009 O   0  0  0  0  0  0  0  0  0  0  0  0
  -20.9679  -24.3217   17.2748 O   0  0  0  0  0  0  0  0  0  0  0  0
  -25.2631  -22.9341   15.8099 O   0  0  0  0  0  0  0  0  0  0  0  0
  -29.4881  -20.5839   19.6184 O   0  0  0  0  0  0  0  0  0  0  0  0
  -23.3799   -9.4663   22.6273 O   0  0  0  0  0  0  0  0  0  0  0  0
  -28.4371  -26.8697   20.3695 O   0  0  0  0  0  0  0  0  0  1  0  0
  -18.6457   -7.0440   21.1699 F   0  0  0  0  0  0  0  0  0  0  0  0
  -23.3762   -7.1814   21.0710 F   0  0  0  0  0  0  0  0  0  0  0  0
  1  2  1  0  0  0  0
  1  6  2  0  0  0  0
  2  7  2  0  0  0  0
  3  9  2  0  0  0  0
  3 10  1  0  0  0  0
  4 11  2  0  0  0  0
  4 19  1  0  0  0  0
  5 12  1  0  0  0  0
  5 19  2  0  0  0  0
  6 21  1  0  0  0  0
  7 23  1  0  0  0  0
  8 13  2  0  0  0  0
  8 22  1  0  0  0  0
  9 25  1  0  0  0  0
 10 26  2  0  0  0  0
 11 27  1  0  0  0  0
 12 27  2  0  0  0  0
 13 28  1  0  0  0  0
 14 15  2  0  0  0  0
 14 29  1  0  0  0  0
 15 30  1  0  0  0  0
 16 24  1  0  0  0  0
 16 28  2  0  0  0  0
 17 25  2  0  0  0  0
 17 26  1  0  0  0  0
 18 30  2  0  0  0  0
 18 31  1  0  0  0  0
 19 32  1  0  0  0  0
 20 32  1  0  0  0  0
 20 33  2  0  0  0  0
 20 35  1  0  0  0  0
 21 23  2  0  0  0  0
 21 40  1  0  0  0  0
 22 24  2  0  0  0  0
 22 41  1  0  0  0  0
 23 51  1  0  0  0  0
 24 42  1  0  0  0  0
 25 60  1  0  0  0  0
 26 72  1  0  0  0  0
 27 82  1  0  0  0  0
 28 83  1  0  0  0  0
 29 31  2  0  0  0  0
 29 82  1  0  0  0  0
 30 84  1  0  0  0  0
 31 85  1  0  0  0  0
 32 65  2  0  0  0  0
 33 66  1  0  0  0  0
 33 70  1  0  0  0  0
 34 52  1  0  0  0  0
 34 67  1  0  0  0  0
 34 76  2  0  0  0  0
 35 71  1  0  0  0  0
 35 77  2  0  0  0  0
 36 53  1  0  0  0  0
 36 73  1  0  0  0  0
 36 78  2  0  0  0  0
 37 62  1  0  0  0  0
 37 68  1  0  0  0  0
 37 79  2  0  0  0  0
 38 63  1  0  0  0  0
 38 74  1  0  0  0  0
 38 80  2  0  0  0  0
 39 69  1  0  0  0  0
 39 72  1  0  0  0  0
 39 81  2  0  0  0  0
 40 43  1  0  0  0  0
 41 53  1  0  0  0  0
 42 68  1  0  0  0  0
 43 45  1  0  0  0  0
 44 46  1  0  0  0  0
 44 48  1  0  0  0  0
 45 51  1  0  0  0  0
 46 54  1  0  0  0  0
 47 49  1  0  0  0  0
 47 52  1  0  0  0  0
 48 69  1  0  0  0  0
 49 67  1  0  0  0  0
 50 54  1  0  0  0  0
 50 69  1  0  0  0  0
 51 73  1  0  0  0  0
 52 61  1  0  0  0  0
 53 68  1  0  0  0  0
 54 66  1  0  0  0  0
 55 63  1  0  0  0  0
 56 64  1  0  0  0  0
 57 64  1  0  0  0  0
 58 64  1  0  0  0  0
 59 75  1  0  0  0  0
 60 67  1  0  0  0  0
 61 83  1  0  0  0  0
 62 64  1  0  0  0  0
 62 74  1  0  0  0  0
 63 75  1  0  0  0  0
 65 66  1  0  0  0  0
M  CHG  1  75   1
M  ISO  4  39 100  61 101  72 100  83 101
M  END
> <Batch ID>
0105

> <Smiles>
CNC(C)C(=O)NC(C(=O)N1Cc2cc([101O:1][101CH2:1]C3CCN(Cc4cccc([100NH:0][100C:0](=O)N5CCCC(n6nc(-c7ccc(Oc8ccc(F)cc8F)cc7)c(C(N)=O)c6N)C5)c4)C3=O)ccc2CC1C(=O)NC1CCCc2ccccc21)C(C)(C)C

> <Shape>
0.230

> <Color>
0.077

> <Negative vol penalty>
0.000

$$$$

  -OEChem-04052301113D

 84 93  0     1  0  0  0  0  0999 V2000
  -26.3720  -33.6002   21.7042 C   0  0  0  0  0  0  0  0  0  0  0  0
  -27.4449  -32.9416   21.1122 C   0  0  0  0  0  0  0  0  0  0  0  0
  -23.0973   -9.8268   19.9292 C   0  0  0  0  0  0  0  0  0  0  0  0
  -23.8529   -9.8389   22.2240 C   0  0  0  0  0  0  0  0  0  0  0  0
  -25.1541  -32.9409   21.8657 C   0  0  0  0  0  0  0  0  0  0  0  0
  -27.3009  -31.6229   20.6824 C   0  0  0  0  0  0  0  0  0  0  0  0
  -29.5769  -27.1319   15.5866 C   0  0  0  0  0  0  0  0  0  0  0  0
  -22.3669   -8.6643   20.1758 C   0  0  0  0  0  0  0  0  0  0  0  0
  -23.1225   -8.6764   22.4706 C   0  0  0  0  0  0  0  0  0  0  0  0
  -30.1511  -25.8698   15.4412 C   0  0  0  0  0  0  0  0  0  0  0  0
  -19.9031   -7.8387   23.0658 C   0  0  0  0  0  0  0  0  0  0  0  0
  -19.1445   -7.7876   24.2352 C   0  0  0  0  0  0  0  0  0  0  0  0
  -27.9769  -24.8574   15.7000 C   0  0  0  0  0  0  0  0  0  0  0  0
  -29.5952  -19.7705   19.7140 C   0  0  0  0  0  0  0  0  0  0  0  0
  -20.4078   -5.8639   24.9705 C   0  0  0  0  0  0  0  0  0  0  0  0
  -23.8404  -10.4140   20.9533 C   0  0  0  0  0  0  0  0  0  0  0  0
  -24.1520  -12.9433   20.8383 C   0  0  0  0  0  0  0  0  0  0  0  0
  -24.9922  -31.6167   21.4289 C   0  0  0  0  0  0  0  0  0  0  0  0
  -28.1976  -27.2659   15.8010 C   0  0  0  0  0  0  0  0  0  0  0  0
  -26.0801  -30.9449   20.8394 C   0  0  0  0  0  0  0  0  0  0  0  0
  -27.3873  -26.1225   15.8452 C   0  0  0  0  0  0  0  0  0  0  0  0
  -29.4051  -18.8048   20.7443 C   0  0  0  0  0  0  0  0  0  0  0  0
  -22.3795   -8.0891   21.4465 C   0  0  0  0  0  0  0  0  0  0  0  0
  -29.3515  -24.7322   15.5009 C   0  0  0  0  0  0  0  0  0  0  0  0
  -20.9140   -6.9024   22.8486 C   0  0  0  0  0  0  0  0  0  0  0  0
  -19.3969   -6.8002   25.1876 C   0  0  0  0  0  0  0  0  0  0  0  0
  -21.1663   -5.9150   23.8010 C   0  0  0  0  0  0  0  0  0  0  0  0
  -24.5955  -11.6145   20.6991 C   0  0  0  0  0  0  0  0  0  0  0  0
  -30.5319  -18.0397   20.9507 C   0  0  0  0  0  0  0  0  0  0  0  0
  -25.2357  -13.7065   20.4784 C   0  0  0  0  0  0  0  0  0  0  0  0
  -30.8603  -19.7068   19.1724 C   0  0  0  0  0  0  0  0  0  0  0  0
  -22.8746  -13.4431   21.2558 C   0  0  0  0  0  0  0  0  0  0  0  0
  -26.3950  -28.4409   18.1405 C   0  0  0  0  0  0  0  0  0  0  0  0
  -23.9850  -27.8579   16.0490 C   0  0  0  0  0  0  0  0  0  0  0  0
  -22.8453  -26.0897   13.3618 C   0  0  0  0  0  0  0  0  0  0  0  0
  -30.7064  -14.7912   20.6786 C   0  0  0  0  0  0  0  0  0  0  0  0
  -23.6708  -30.9299   21.6678 C   0  0  0  0  0  0  0  0  0  0  0  0
  -27.5897  -28.6358   15.9291 C   0  0  0  0  0  0  0  0  0  0  0  0
  -25.8983  -26.2133   16.0531 C   0  0  0  0  0  0  0  0  0  0  0  0
  -23.4887  -29.6568   20.8455 C   0  0  0  0  0  0  0  0  0  0  0  0
  -29.6019  -12.3974   18.2856 C   0  0  0  0  0  0  0  0  0  0  0  0
  -24.7412  -28.7893   20.9200 C   0  0  0  0  0  0  0  0  0  0  0  0
  -28.1674  -12.0856   18.7154 C   0  0  0  0  0  0  0  0  0  0  0  0
  -32.8780  -21.6376   16.7660 C   0  0  0  0  0  0  0  0  0  0  0  0
  -30.5142  -12.6271   19.4886 C   0  0  0  0  0  0  0  0  0  0  0  0
  -32.7143  -20.3863   17.6262 C   0  0  0  0  0  0  0  0  0  0  0  0
  -30.6023  -21.5617   17.5022 C   0  0  0  0  0  0  0  0  0  0  0  0
  -28.6012  -13.3328   20.8729 C   0  0  0  0  0  0  0  0  0  0  0  0
  -25.9556  -29.5226   20.3378 C   0  0  1  0  0  0  0  0  0  0  0  0
  -26.2490  -28.6288   16.6569 C   0  0  1  0  0  0  0  0  0  0  0  0
  -31.4582  -21.9153   16.2808 C   0  0  1  0  0  0  0  0  0  0  0  0
  -27.6314  -13.1486   19.6932 C   0  0  2  0  0  0  0  0  0  0  0  0
  -28.1382  -18.6508   21.4984 C   0  0  0  0  0  0  0  0  0  0  0  0
  -20.8221  -25.8065   11.9044 C   0  0  0  0  0  0  0  0  0  0  0  0
  -22.6150  -26.2683   18.2639 C   0  0  0  0  0  0  0  0  0  0  0  0
  -21.1348  -25.2487   16.5210 C   0  0  0  0  0  0  0  0  0  0  0  0
  -21.0820  -27.7115   16.9144 C   0  0  0  0  0  0  0  0  0  0  0  0
  -24.3303  -26.9197   10.9400 C   0  0  0  0  0  0  0  0  0  0  0  0
  -30.7441  -16.9402   21.9194 C   0  0  0  0  0  0  0  0  0  0  0  0
  -31.2578  -23.3420   15.8005 C   0  0  0  0  0  0  0  0  0  1  0  0
  -23.0820  -26.6835   15.7588 C   0  0  1  0  0  0  0  0  0  0  0  0
  -22.1465  -26.5310   12.0884 C   0  0  2  0  0  0  0  0  0  0  0  0
  -22.0067  -26.4758   16.8625 C   0  0  0  0  0  0  0  0  0  0  0  0
  -25.8622  -11.5347   20.2830 N   0  0  0  0  0  0  0  0  0  0  0  0
  -26.2238  -12.8229   20.1576 N   0  0  0  0  0  0  0  0  0  0  0  0
  -31.3600  -20.5002   18.1616 N   0  0  3  0  0  0  0  0  0  0  0  0
  -25.3520  -27.5746   16.1792 N   0  0  0  0  0  0  0  0  0  0  0  0
  -29.9496  -13.6474   20.3753 N   0  0  0  0  0  0  0  0  0  0  0  0
  -25.4302  -15.0406   20.4081 N   0  0  0  0  0  0  0  0  0  0  0  0
  -21.8731  -12.5212   21.5896 N   0  0  0  0  0  0  0  0  0  0  0  0
  -25.9155  -29.4973   18.8913 N   0  0  0  0  0  0  0  0  0  0  0  0
  -22.5340  -26.9096   14.4257 N   0  0  0  0  0  0  0  0  0  0  0  0
  -30.0946  -15.7113   21.5212 N   0  0  0  0  0  0  0  0  0  0  0  0
  -23.0045  -26.2503   10.9027 N   0  3  0  0  0  0  0  0  0  0  0  0
  -22.6234  -14.6706   21.3148 O   0  0  0  0  0  0  0  0  0  0  0  0
  -26.9035  -27.4130   18.5722 O   0  0  0  0  0  0  0  0  0  0  0  0
  -23.4965  -28.9862   16.1490 O   0  0  0  0  0  0  0  0  0  0  0  0
  -23.5898  -25.1129   13.4087 O   0  0  0  0  0  0  0  0  0  0  0  0
  -31.8410  -14.9812   20.2274 O   0  0  0  0  0  0  0  0  0  0  0  0
  -21.6667   -6.9549   21.6875 O   0  0  0  0  0  0  0  0  0  0  0  0
  -29.9095  -23.4990   15.3600 O   0  0  0  0  0  0  0  0  0  1  0  0
  -18.6694   -6.7522   26.3112 F   0  0  0  0  0  0  0  0  0  0  0  0
  -22.1370   -5.0135   23.5986 F   0  0  0  0  0  0  0  0  0  0  0  0
  -31.8122  -18.4864   19.9050 S   0  0  0  0  0  0  0  0  0  0  0  0
  1  2  1  0  0  0  0
  1  5  2  0  0  0  0
  2  6  2  0  0  0  0
  3  8  2  0  0  0  0
  3 16  1  0  0  0  0
  4  9  1  0  0  0  0
  4 16  2  0  0  0  0
  5 18  1  0  0  0  0
  6 20  1  0  0  0  0
  7 10  2  0  0  0  0
  7 19  1  0  0  0  0
  8 23  1  0  0  0  0
  9 23  2  0  0  0  0
 10 24  1  0  0  0  0
 11 12  2  0  0  0  0
 11 25  1  0  0  0  0
 12 26  1  0  0  0  0
 13 21  1  0  0  0  0
 13 24  2  0  0  0  0
 14 22  1  0  0  0  0
 14 31  2  0  0  0  0
 15 26  2  0  0  0  0
 15 27  1  0  0  0  0
 16 28  1  0  0  0  0
 17 28  1  0  0  0  0
 17 30  2  0  0  0  0
 17 32  1  0  0  0  0
 18 20  2  0  0  0  0
 18 37  1  0  0  0  0
 19 21  2  0  0  0  0
 19 38  1  0  0  0  0
 20 49  1  0  0  0  0
 21 39  1  0  0  0  0
 22 29  2  0  0  0  0
 22 53  1  0  0  0  0
 23 80  1  0  0  0  0
 24 81  1  0  0  0  0
 25 27  2  0  0  0  0
 25 80  1  0  0  0  0
 26 82  1  0  0  0  0
 27 83  1  0  0  0  0
 28 64  2  0  0  0  0
 29 59  1  0  0  0  0
 29 84  1  0  0  0  0
 30 65  1  0  0  0  0
 30 69  1  0  0  0  0
 31 66  1  0  0  0  0
 31 84  1  0  0  0  0
 32 70  1  0  0  0  0
 32 75  2  0  0  0  0
 33 50  1  0  0  0  0
 33 71  1  0  0  0  0
 33 76  2  0  0  0  0
 34 61  1  0  0  0  0
 34 67  1  0  0  0  0
 34 77  2  0  0  0  0
 35 62  1  0  0  0  0
 35 72  1  0  0  0  0
 35 78  2  0  0  0  0
 36 68  1  0  0  0  0
 36 73  1  0  0  0  0
 36 79  2  0  0  0  0
 37 40  1  0  0  0  0
 38 50  1  0  0  0  0
 39 67  1  0  0  0  0
 40 42  1  0  0  0  0
 41 43  1  0  0  0  0
 41 45  1  0  0  0  0
 42 49  1  0  0  0  0
 43 52  1  0  0  0  0
 44 46  1  0  0  0  0
 44 51  1  0  0  0  0
 45 68  1  0  0  0  0
 46 66  1  0  0  0  0
 47 51  1  0  0  0  0
 47 66  1  0  0  0  0
 48 52  1  0  0  0  0
 48 68  1  0  0  0  0
 49 71  1  0  0  0  0
 50 67  1  0  0  0  0
 51 60  1  0  0  0  0
 52 65  1  0  0  0  0
 54 62  1  0  0  0  0
 55 63  1  0  0  0  0
 56 63  1  0  0  0  0
 57 63  1  0  0  0  0
 58 74  1  0  0  0  0
 59 73  1  0  0  0  0
 60 81  1  0  0  0  0
 61 63  1  0  0  0  0
 61 72  1  0  0  0  0
 62 74  1  0  0  0  0
 64 65  1  0  0  0  0
M  CHG  1  74   1
M  ISO  4  36 100  60 101  73 100  81 101
M  END
> <Batch ID>
0105

> <Smiles>
CNC(C)C(=O)NC(C(=O)N1Cc2cc([101O:1][101CH2:1]C3CCN(c4cc(C)c(C[100NH:0][100C:0](=O)N5CCCC(n6nc(-c7ccc(Oc8ccc(F)cc8F)cc7)c(C(N)=O)c6N)C5)s4)C3)ccc2CC1C(=O)NC1CCCc2ccccc21)C(C)(C)C

> <Shape>
0.254

> <Color>
0.221

> <Negative vol penalty>
0.000

$$$$

  -OEChem-04052301113D

 86 94  0     1  0  0  0  0  0999 V2000
  -19.6243   -8.8557   21.6487 C   0  0  0  0  0  0  0  0  0  0  0  0
  -19.8875   -9.9489   22.4678 C   0  0  0  0  0  0  0  0  0  0  0  0
  -24.4995  -32.2368   22.9201 C   0  0  0  0  0  0  0  0  0  0  0  0
  -23.5295  -32.6487   20.7460 C   0  0  0  0  0  0  0  0  0  0  0  0
  -20.6610   -8.2540   20.9366 C   0  0  0  0  0  0  0  0  0  0  0  0
  -21.1879  -10.4405   22.5761 C   0  0  0  0  0  0  0  0  0  0  0  0
  -22.8659  -16.2869   23.2906 C   0  0  0  0  0  0  0  0  0  0  0  0
  -24.1368  -33.5212   23.3253 C   0  0  0  0  0  0  0  0  0  0  0  0
  -23.1668  -33.9332   21.1513 C   0  0  0  0  0  0  0  0  0  0  0  0
  -23.2288  -17.0279   24.4143 C   0  0  0  0  0  0  0  0  0  0  0  0
  -25.2781  -36.6765   22.9178 C   0  0  0  0  0  0  0  0  0  0  0  0
  -26.2280  -37.4303   23.6068 C   0  0  0  0  0  0  0  0  0  0  0  0
  -27.6712  -21.6346   22.0214 C   0  0  0  0  0  0  0  0  0  0  0  0
  -27.4026  -23.7412   23.1734 C   0  0  0  0  0  0  0  0  0  0  0  0
  -25.5550  -16.6090   23.9318 C   0  0  0  0  0  0  0  0  0  0  0  0
  -24.7378  -37.5749   25.5030 C   0  0  0  0  0  0  0  0  0  0  0  0
  -24.1959  -31.8005   21.6304 C   0  0  0  0  0  0  0  0  0  0  0  0
  -27.9724  -22.9910   22.1447 C   0  0  0  0  0  0  0  0  0  0  0  0
  -23.8068  -29.2975   21.3288 C   0  0  0  0  0  0  0  0  0  0  0  0
  -21.9731   -8.7445   21.0287 C   0  0  0  0  0  0  0  0  0  0  0  0
  -23.8460  -15.6912   22.4838 C   0  0  0  0  0  0  0  0  0  0  0  0
  -22.2434   -9.8441   21.8655 C   0  0  0  0  0  0  0  0  0  0  0  0
  -25.2019  -15.8631   22.7969 C   0  0  0  0  0  0  0  0  0  0  0  0
  -26.8002  -21.0285   22.9267 C   0  0  0  0  0  0  0  0  0  0  0  0
  -23.4704  -34.3694   22.4410 C   0  0  0  0  0  0  0  0  0  0  0  0
  -24.5734  -17.1867   24.7367 C   0  0  0  0  0  0  0  0  0  0  0  0
  -24.0579  -36.3719   23.5213 C   0  0  0  0  0  0  0  0  0  0  0  0
  -26.5317  -23.1350   24.0788 C   0  0  0  0  0  0  0  0  0  0  0  0
  -26.2305  -21.7787   23.9554 C   0  0  0  0  0  0  0  0  0  0  0  0
  -25.9580  -37.8795   24.8995 C   0  0  0  0  0  0  0  0  0  0  0  0
  -23.7878  -36.8211   24.8139 C   0  0  0  0  0  0  0  0  0  0  0  0
  -24.5708  -30.4740   21.2111 C   0  0  0  0  0  0  0  0  0  0  0  0
  -24.6013  -28.3165   20.7875 C   0  0  0  0  0  0  0  0  0  0  0  0
  -28.8998  -23.6366   21.1804 C   0  0  0  0  0  0  0  0  0  0  0  0
  -22.4961  -29.1082   21.8782 C   0  0  0  0  0  0  0  0  0  0  0  0
  -24.5742  -12.7048   21.6746 C   0  0  0  0  0  0  0  0  0  0  0  0
  -26.7049  -14.1685   19.7150 C   0  0  0  0  0  0  0  0  0  0  0  0
  -28.5967  -16.9266   19.0363 C   0  0  0  0  0  0  0  0  0  0  0  0
  -29.5010  -25.8079   20.1569 C   0  0  0  0  0  0  0  0  0  0  0  0
  -23.0690   -8.0317   20.2766 C   0  0  0  0  0  0  0  0  0  0  0  0
  -23.4390  -14.9173   21.2599 C   0  0  0  0  0  0  0  0  0  0  0  0
  -26.2935  -15.2609   21.9517 C   0  0  0  0  0  0  0  0  0  0  0  0
  -24.3540   -8.8467   20.1552 C   0  0  0  0  0  0  0  0  0  0  0  0
  -28.9053  -28.6480   18.1380 C   0  0  0  0  0  0  0  0  0  0  0  0
  -24.7264   -9.4600   21.5014 C   0  0  0  0  0  0  0  0  0  0  0  0
  -27.6563  -29.2779   18.7604 C   0  0  0  0  0  0  0  0  0  0  0  0
  -29.8389  -28.0700   19.2007 C   0  0  0  0  0  0  0  0  0  0  0  0
  -27.9634  -27.7730   20.7666 C   0  0  0  0  0  0  0  0  0  0  0  0
  -23.6365  -10.4217   21.9898 C   0  0  1  0  0  0  0  0  0  0  0  0
  -24.5020  -13.9244   20.7999 C   0  0  1  0  0  0  0  0  0  0  0  0
  -26.9580  -28.3069   19.7335 C   0  0  1  0  0  0  0  0  0  0  0  0
  -30.2660  -17.8128   17.3854 C   0  0  0  0  0  0  0  0  0  0  0  0
  -28.8688  -12.4200   20.9681 C   0  0  0  0  0  0  0  0  0  0  0  0
  -30.5819  -13.9715   20.0057 C   0  0  0  0  0  0  0  0  0  0  0  0
  -29.0603  -12.7020   18.4905 C   0  0  0  0  0  0  0  0  0  0  0  0
  -26.8229  -19.1686   18.2705 C   0  0  0  0  0  0  0  0  0  0  0  0
  -24.7386  -24.5202   24.8014 C   0  0  0  0  0  0  0  0  0  0  0  0
  -24.8621  -20.0646   26.9152 C   0  0  0  0  0  0  0  0  0  0  0  0
  -24.0625  -18.9733   26.2209 C   0  0  0  0  0  0  0  0  0  1  0  0
  -25.9530  -20.6285   26.0184 C   0  0  0  0  0  0  0  0  0  0  0  0
  -28.1374  -14.6268   19.8452 C   0  0  1  0  0  0  0  0  0  0  0  0
  -28.7946  -17.7230   17.7591 C   0  0  2  0  0  0  0  0  0  0  0  0
  -29.1417  -13.4399   19.8446 C   0  0  0  0  0  0  0  0  0  0  0  0
  -25.7595  -30.2619   20.6400 N   0  0  0  0  0  0  0  0  0  0  0  0
  -25.7484  -28.9407   20.3941 N   0  0  0  0  0  0  0  0  0  0  0  0
  -25.8447  -14.5077   20.7690 N   0  0  0  0  0  0  0  0  0  0  0  0
  -29.1040  -27.1540   20.0747 N   0  0  0  0  0  0  0  0  0  0  0  0
  -26.5046  -19.6548   22.7892 N   0  0  0  0  0  0  0  0  0  0  0  0
  -24.4237  -26.9895   20.6145 N   0  0  0  0  0  0  0  0  0  0  0  0
  -21.8196  -30.2230   22.3920 N   0  0  0  0  0  0  0  0  0  0  0  0
  -28.7094  -25.0048   20.9855 N   0  0  0  0  0  0  0  0  0  0  0  0
  -23.7257  -11.6847   21.2888 N   0  0  0  0  0  0  0  0  0  0  0  0
  -28.3552  -15.5944   18.7753 N   0  0  0  0  0  0  0  0  0  0  0  0
  -28.2663  -19.1066   17.9243 N   0  3  0  0  0  0  0  0  0  0  0  0
  -29.7806  -22.9617   20.6544 O   0  0  0  0  0  0  0  0  0  0  0  0
  -21.9478  -27.9811   21.9274 O   0  0  0  0  0  0  0  0  0  0  0  0
  -25.3439  -12.6898   22.6280 O   0  0  0  0  0  0  0  0  0  0  0  0
  -26.3601  -13.5391   18.7117 O   0  0  0  0  0  0  0  0  0  0  0  0
  -28.6545  -17.4348   20.1538 O   0  0  0  0  0  0  0  0  0  0  0  0
  -30.4545  -25.3515   19.5184 O   0  0  0  0  0  0  0  0  0  0  0  0
  -23.1161  -35.6228   22.8361 O   0  0  0  0  0  0  0  0  0  0  0  0
  -25.9823  -23.8795   25.0787 O   0  0  0  0  0  0  0  0  0  0  0  0
  -24.9304  -17.9089   25.8334 O   0  0  0  0  0  0  0  0  0  1  0  0
  -25.3734  -21.1902   24.8487 O   0  0  0  0  0  0  0  0  0  0  0  0
  -26.8709  -38.6021   25.5617 F   0  0  0  0  0  0  0  0  0  0  0  0
  -22.6179  -36.5307   25.3993 F   0  0  0  0  0  0  0  0  0  0  0  0
  1  2  1  0  0  0  0
  1  5  2  0  0  0  0
  2  6  2  0  0  0  0
  3  8  2  0  0  0  0
  3 17  1  0  0  0  0
  4  9  1  0  0  0  0
  4 17  2  0  0  0  0
  5 20  1  0  0  0  0
  6 22  1  0  0  0  0
  7 10  2  0  0  0  0
  7 21  1  0  0  0  0
  8 25  1  0  0  0  0
  9 25  2  0  0  0  0
 10 26  1  0  0  0  0
 11 12  2  0  0  0  0
 11 27  1  0  0  0  0
 12 30  1  0  0  0  0
 13 18  1  0  0  0  0
 13 24  2  0  0  0  0
 14 18  2  0  0  0  0
 14 28  1  0  0  0  0
 15 23  1  0  0  0  0
 15 26  2  0  0  0  0
 16 30  2  0  0  0  0
 16 31  1  0  0  0  0
 17 32  1  0  0  0  0
 18 34  1  0  0  0  0
 19 32  1  0  0  0  0
 19 33  2  0  0  0  0
 19 35  1  0  0  0  0
 20 22  2  0  0  0  0
 20 40  1  0  0  0  0
 21 23  2  0  0  0  0
 21 41  1  0  0  0  0
 22 49  1  0  0  0  0
 23 42  1  0  0  0  0
 24 29  1  0  0  0  0
 24 68  1  0  0  0  0
 25 81  1  0  0  0  0
 26 83  1  0  0  0  0
 27 31  2  0  0  0  0
 27 81  1  0  0  0  0
 28 29  2  0  0  0  0
 28 82  1  0  0  0  0
 29 84  1  0  0  0  0
 30 85  1  0  0  0  0
 31 86  1  0  0  0  0
 32 64  2  0  0  0  0
 33 65  1  0  0  0  0
 33 69  1  0  0  0  0
 34 71  1  0  0  0  0
 34 75  2  0  0  0  0
 35 70  1  0  0  0  0
 35 76  2  0  0  0  0
 36 50  1  0  0  0  0
 36 72  1  0  0  0  0
 36 77  2  0  0  0  0
 37 61  1  0  0  0  0
 37 66  1  0  0  0  0
 37 78  2  0  0  0  0
 38 62  1  0  0  0  0
 38 73  1  0  0  0  0
 38 79  2  0  0  0  0
 39 67  1  0  0  0  0
 39 71  1  0  0  0  0
 39 80  2  0  0  0  0
 40 43  1  0  0  0  0
 41 50  1  0  0  0  0
 42 66  1  0  0  0  0
 43 45  1  0  0  0  0
 44 46  1  0  0  0  0
 44 47  1  0  0  0  0
 45 49  1  0  0  0  0
 46 51  1  0  0  0  0
 47 67  1  0  0  0  0
 48 51  1  0  0  0  0
 48 67  1  0  0  0  0
 49 72  1  0  0  0  0
 50 66  1  0  0  0  0
 51 65  1  0  0  0  0
 52 62  1  0  0  0  0
 53 63  1  0  0  0  0
 54 63  1  0  0  0  0
 55 63  1  0  0  0  0
 56 74  1  0  0  0  0
 57 82  1  0  0  0  0
 58 59  1  0  0  0  0
 58 60  1  0  0  0  0
 59 83  1  0  0  0  0
 60 84  1  0  0  0  0
 61 63  1  0  0  0  0
 61 73  1  0  0  0  0
 62 74  1  0  0  0  0
 64 65  1  0  0  0  0
M  CHG  1  74   1
M  ISO  4  39 100  59 101  71 100  83 101
M  END
> <Batch ID>
0105

> <Smiles>
CNC(C)C(=O)NC(C(=O)N1Cc2cc([101O:1][101CH2:1]CCOc3c(N)cc(C(=O)[100NH:0][100C:0](=O)N4CCCC(n5nc(-c6ccc(Oc7ccc(F)cc7F)cc6)c(C(N)=O)c5N)C4)cc3OC)ccc2CC1C(=O)NC1CCCc2ccccc21)C(C)(C)C

> <Shape>
0.270

> <Color>
0.054

> <Negative vol penalty>
0.000

$$$$

  -OEChem-04052301113D

 86 94  0     1  0  0  0  0  0999 V2000
  -16.6166  -30.1145   23.6249 C   0  0  0  0  0  0  0  0  0  0  0  0
  -17.7216  -30.8042   24.1134 C   0  0  0  0  0  0  0  0  0  0  0  0
  -24.7541  -16.5451   19.3108 C   0  0  0  0  0  0  0  0  0  0  0  0
  -23.9258  -17.2228   21.4768 C   0  0  0  0  0  0  0  0  0  0  0  0
  -16.7875  -28.8804   22.9990 C   0  0  0  0  0  0  0  0  0  0  0  0
  -18.9981  -30.2597   23.9772 C   0  0  0  0  0  0  0  0  0  0  0  0
  -25.8246  -32.2067   23.0157 C   0  0  0  0  0  0  0  0  0  0  0  0
  -31.1502  -23.6142   26.0155 C   0  0  0  0  0  0  0  0  0  0  0  0
  -31.0907  -25.0076   25.9960 C   0  0  0  0  0  0  0  0  0  0  0  0
  -23.9888  -15.3812   19.3823 C   0  0  0  0  0  0  0  0  0  0  0  0
  -23.1605  -16.0589   21.5484 C   0  0  0  0  0  0  0  0  0  0  0  0
  -27.0886  -32.0117   23.5707 C   0  0  0  0  0  0  0  0  0  0  0  0
  -21.2661  -13.0949   22.4626 C   0  0  0  0  0  0  0  0  0  0  0  0
  -21.2754  -12.3857   23.6636 C   0  0  0  0  0  0  0  0  0  0  0  0
  -27.2712  -29.9098   22.4012 C   0  0  0  0  0  0  0  0  0  0  0  0
  -28.6784  -24.9034   25.9115 C   0  0  0  0  0  0  0  0  0  0  0  0
  -23.6640  -12.0817   23.4656 C   0  0  0  0  0  0  0  0  0  0  0  0
  -24.7226  -17.4660   20.3581 C   0  0  0  0  0  0  0  0  0  0  0  0
  -25.1245  -19.9101   19.7480 C   0  0  0  0  0  0  0  0  0  0  0  0
  -18.0677  -28.3250   22.8465 C   0  0  0  0  0  0  0  0  0  0  0  0
  -25.2689  -31.2479   22.1564 C   0  0  0  0  0  0  0  0  0  0  0  0
  -19.1861  -29.0164   23.3499 C   0  0  0  0  0  0  0  0  0  0  0  0
  -26.0011  -30.0962   21.8346 C   0  0  0  0  0  0  0  0  0  0  0  0
  -29.9739  -22.8653   25.9829 C   0  0  0  0  0  0  0  0  0  0  0  0
  -29.8548  -25.6522   25.9441 C   0  0  0  0  0  0  0  0  0  0  0  0
  -23.1920  -15.1380   20.5011 C   0  0  0  0  0  0  0  0  0  0  0  0
  -27.8109  -30.8618   23.2657 C   0  0  0  0  0  0  0  0  0  0  0  0
  -22.4557  -13.2975   21.7630 C   0  0  0  0  0  0  0  0  0  0  0  0
  -28.7380  -23.5099   25.9310 C   0  0  0  0  0  0  0  0  0  0  0  0
  -22.4743  -11.8791   24.1652 C   0  0  0  0  0  0  0  0  0  0  0  0
  -23.6547  -12.7909   22.2645 C   0  0  0  0  0  0  0  0  0  0  0  0
  -25.5134  -18.6683   20.2850 C   0  0  0  0  0  0  0  0  0  0  0  0
  -26.2235  -20.7165   19.9169 C   0  0  0  0  0  0  0  0  0  0  0  0
  -23.8811  -20.3000   19.1500 C   0  0  0  0  0  0  0  0  0  0  0  0
  -22.6880  -29.3940   22.2334 C   0  0  0  0  0  0  0  0  0  0  0  0
  -23.6215  -28.6351   19.2209 C   0  0  0  0  0  0  0  0  0  0  0  0
  -26.1487  -28.4257   16.9370 C   0  0  0  0  0  0  0  0  0  0  0  0
  -30.8075  -20.6077   23.7673 C   0  0  0  0  0  0  0  0  0  0  0  0
  -18.1978  -26.9662   22.2050 C   0  0  0  0  0  0  0  0  0  0  0  0
  -23.9154  -31.4857   21.5449 C   0  0  0  0  0  0  0  0  0  0  0  0
  -25.4578  -29.0461   20.9015 C   0  0  0  0  0  0  0  0  0  0  0  0
  -19.6217  -26.6332   21.7671 C   0  0  0  0  0  0  0  0  0  0  0  0
  -30.9951  -20.5292   20.2127 C   0  0  0  0  0  0  0  0  0  0  0  0
  -20.6139  -26.9715   22.8752 C   0  0  0  0  0  0  0  0  0  0  0  0
  -29.5764  -20.1555   19.7797 C   0  0  0  0  0  0  0  0  0  0  0  0
  -31.4006  -19.8111   21.4979 C   0  0  0  0  0  0  0  0  0  0  0  0
  -29.0444  -19.6062   22.1909 C   0  0  0  0  0  0  0  0  0  0  0  0
  -20.5893  -28.4702   23.1991 C   0  0  1  0  0  0  0  0  0  0  0  0
  -23.2319  -30.2006   21.0883 C   0  0  1  0  0  0  0  0  0  0  0  0
  -28.5699  -20.3485   20.9299 C   0  0  2  0  0  0  0  0  0  0  0  0
  -25.0407  -21.8154   23.3112 C   0  0  0  0  0  0  0  0  0  0  0  0
  -26.6124  -27.7333   14.5700 C   0  0  0  0  0  0  0  0  0  0  0  0
  -23.5114  -25.7035   20.0594 C   0  0  0  0  0  0  0  0  0  0  0  0
  -24.8631  -25.1438   18.0277 C   0  0  0  0  0  0  0  0  0  0  0  0
  -22.6035  -26.1703   17.7764 C   0  0  0  0  0  0  0  0  0  0  0  0
  -27.0224  -31.1524   16.1880 C   0  0  0  0  0  0  0  0  0  0  0  0
  -30.0570  -21.3748   26.0050 C   0  0  0  0  0  0  0  0  0  0  0  0
  -25.9548  -21.6967   24.5174 C   0  0  0  0  0  0  0  0  0  0  0  0
  -30.4178  -29.2867   25.2079 C   0  0  0  0  0  0  0  0  0  0  0  0
  -30.9021  -27.8809   25.5415 C   0  0  0  0  0  0  0  0  0  0  0  0
  -26.7344  -22.9790   24.7649 C   0  0  0  0  0  0  0  0  0  0  0  0
  -29.4524  -29.3194   24.0290 C   0  0  0  0  0  0  0  0  0  1  0  0
  -24.5227  -27.5877   18.6128 C   0  0  1  0  0  0  0  0  0  0  0  0
  -26.2418  -28.8839   15.4928 C   0  0  2  0  0  0  0  0  0  0  0  0
  -23.8848  -26.1700   18.6382 C   0  0  0  0  0  0  0  0  0  0  0  0
  -26.7619  -18.6798   20.7593 N   0  0  0  0  0  0  0  0  0  0  0  0
  -27.1672  -19.9388   20.5209 N   0  0  0  0  0  0  0  0  0  0  0  0
  -24.1275  -29.3213   20.3340 N   0  0  0  0  0  0  0  0  0  0  0  0
  -30.4053  -20.0357   22.5491 N   0  0  0  0  0  0  0  0  0  0  0  0
  -26.4651  -22.0078   19.6060 N   0  0  0  0  0  0  0  0  0  0  0  0
  -22.8573  -19.3474   19.0558 N   0  0  0  0  0  0  0  0  0  0  0  0
  -29.7959  -27.0370   25.9241 N   0  0  0  0  0  0  0  0  0  0  0  0
  -21.3182  -29.2162   22.1958 N   0  0  0  0  0  0  0  0  0  0  0  0
  -24.8616  -28.0666   17.2770 N   0  0  0  0  0  0  0  0  0  0  0  0
  -29.8005  -20.7920   24.7068 N   0  0  0  0  0  0  0  0  0  0  0  0
  -27.2740  -29.9497   15.3529 N   0  3  0  0  0  0  0  0  0  0  0  0
  -23.6894  -21.4541   18.6974 O   0  0  0  0  0  0  0  0  0  0  0  0
  -23.4547  -28.9635   23.0870 O   0  0  0  0  0  0  0  0  0  0  0  0
  -22.5124  -28.8420   18.7221 O   0  0  0  0  0  0  0  0  0  0  0  0
  -27.1214  -28.3866   17.6874 O   0  0  0  0  0  0  0  0  0  0  0  0
  -31.9764  -20.9351   23.9984 O   0  0  0  0  0  0  0  0  0  0  0  0
  -22.4450  -14.0024   20.5711 O   0  0  0  0  0  0  0  0  0  0  0  0
  -29.0446  -30.6687   23.8066 O   0  0  0  0  0  0  0  0  0  1  0  0
  -27.5795  -22.7932   25.8985 O   0  0  0  0  0  0  0  0  0  0  0  0
  -22.4833  -11.1994   25.3194 F   0  0  0  0  0  0  0  0  0  0  0  0
  -24.8009  -12.9833   21.5975 F   0  0  0  0  0  0  0  0  0  0  0  0
  1  2  1  0  0  0  0
  1  5  2  0  0  0  0
  2  6  2  0  0  0  0
  3 10  2  0  0  0  0
  3 18  1  0  0  0  0
  4 11  1  0  0  0  0
  4 18  2  0  0  0  0
  5 20  1  0  0  0  0
  6 22  1  0  0  0  0
  7 12  2  0  0  0  0
  7 21  1  0  0  0  0
  8  9  2  0  0  0  0
  8 24  1  0  0  0  0
  9 25  1  0  0  0  0
 10 26  1  0  0  0  0
 11 26  2  0  0  0  0
 12 27  1  0  0  0  0
 13 14  2  0  0  0  0
 13 28  1  0  0  0  0
 14 30  1  0  0  0  0
 15 23  1  0  0  0  0
 15 27  2  0  0  0  0
 16 25  2  0  0  0  0
 16 29  1  0  0  0  0
 17 30  2  0  0  0  0
 17 31  1  0  0  0  0
 18 32  1  0  0  0  0
 19 32  1  0  0  0  0
 19 33  2  0  0  0  0
 19 34  1  0  0  0  0
 20 22  2  0  0  0  0
 20 39  1  0  0  0  0
 21 23  2  0  0  0  0
 21 40  1  0  0  0  0
 22 48  1  0  0  0  0
 23 41  1  0  0  0  0
 24 29  2  0  0  0  0
 24 57  1  0  0  0  0
 25 72  1  0  0  0  0
 26 82  1  0  0  0  0
 27 83  1  0  0  0  0
 28 31  2  0  0  0  0
 28 82  1  0  0  0  0
 29 84  1  0  0  0  0
 30 85  1  0  0  0  0
 31 86  1  0  0  0  0
 32 66  2  0  0  0  0
 33 67  1  0  0  0  0
 33 70  1  0  0  0  0
 34 71  1  0  0  0  0
 34 77  2  0  0  0  0
 35 49  1  0  0  0  0
 35 73  1  0  0  0  0
 35 78  2  0  0  0  0
 36 63  1  0  0  0  0
 36 68  1  0  0  0  0
 36 79  2  0  0  0  0
 37 64  1  0  0  0  0
 37 74  1  0  0  0  0
 37 80  2  0  0  0  0
 38 69  1  0  0  0  0
 38 75  1  0  0  0  0
 38 81  2  0  0  0  0
 39 42  1  0  0  0  0
 40 49  1  0  0  0  0
 41 68  1  0  0  0  0
 42 44  1  0  0  0  0
 43 45  1  0  0  0  0
 43 46  1  0  0  0  0
 44 48  1  0  0  0  0
 45 50  1  0  0  0  0
 46 69  1  0  0  0  0
 47 50  1  0  0  0  0
 47 69  1  0  0  0  0
 48 73  1  0  0  0  0
 49 68  1  0  0  0  0
 50 67  1  0  0  0  0
 51 58  1  0  0  0  0
 52 64  1  0  0  0  0
 53 65  1  0  0  0  0
 54 65  1  0  0  0  0
 55 65  1  0  0  0  0
 56 76  1  0  0  0  0
 57 75  1  0  0  0  0
 58 61  1  0  0  0  0
 59 60  1  0  0  0  0
 59 62  1  0  0  0  0
 60 72  1  0  0  0  0
 61 84  1  0  0  0  0
 62 83  1  0  0  0  0
 63 65  1  0  0  0  0
 63 74  1  0  0  0  0
 64 76  1  0  0  0  0
 66 67  1  0  0  0  0
M  CHG  1  76   1
M  ISO  4  38 100  62 101  75 100  83 101
M  END
> <Batch ID>
0105

> <Smiles>
CCCOc1cc(NCC[101CH2:1][101O:1]c2ccc3c(c2)CN(C(=O)C(NC(=O)C(C)NC)C(C)(C)C)C(C(=O)NC2CCCc4ccccc42)C3)ccc1C[100NH:0][100C:0](=O)N1CCCC(n2nc(-c3ccc(Oc4ccc(F)cc4F)cc3)c(C(N)=O)c2N)C1

> <Shape>
0.209

> <Color>
0.106

> <Negative vol penalty>
0.000

$$$$

  -OEChem-04052301113D

 85 94  0     1  0  0  0  0  0999 V2000
  -22.6501  -23.0422   23.2962 C   0  0  0  0  0  0  0  0  0  0  0  0
  -23.5840  -22.6655   22.3364 C   0  0  0  0  0  0  0  0  0  0  0  0
  -26.7042  -25.5938   20.1346 C   0  0  0  0  0  0  0  0  0  0  0  0
  -29.0183  -26.2798   20.2418 C   0  0  0  0  0  0  0  0  0  0  0  0
  -22.3407  -22.1760   24.3439 C   0  0  0  0  0  0  0  0  0  0  0  0
  -24.2100  -21.4226   22.4245 C   0  0  0  0  0  0  0  0  0  0  0  0
  -26.8778  -16.2104   18.2974 C   0  0  0  0  0  0  0  0  0  0  0  0
  -33.2841  -17.2829   21.1687 C   0  0  0  0  0  0  0  0  0  0  0  0
  -32.4082  -15.7777   22.8433 C   0  0  0  0  0  0  0  0  0  0  0  0
  -32.9920  -16.3480   20.1756 C   0  0  0  0  0  0  0  0  0  0  0  0
  -32.1160  -14.8428   21.8502 C   0  0  0  0  0  0  0  0  0  0  0  0
  -26.3239  -26.9142   19.8946 C   0  0  0  0  0  0  0  0  0  0  0  0
  -28.6380  -27.6002   20.0018 C   0  0  0  0  0  0  0  0  0  0  0  0
  -28.0411  -15.4613   18.1259 C   0  0  0  0  0  0  0  0  0  0  0  0
  -25.8690  -29.7407   21.6914 C   0  0  0  0  0  0  0  0  0  0  0  0
  -24.7769  -30.2391   22.4017 C   0  0  0  0  0  0  0  0  0  0  0  0
  -27.3693  -14.0147   19.9356 C   0  0  0  0  0  0  0  0  0  0  0  0
  -23.6175  -30.6595   20.3242 C   0  0  0  0  0  0  0  0  0  0  0  0
  -28.0514  -25.2766   20.3083 C   0  0  0  0  0  0  0  0  0  0  0  0
  -28.7788  -22.9366   19.5993 C   0  0  0  0  0  0  0  0  0  0  0  0
  -22.9561  -20.9179   24.4395 C   0  0  0  0  0  0  0  0  0  0  0  0
  -25.9552  -15.8731   19.2982 C   0  0  0  0  0  0  0  0  0  0  0  0
  -23.9096  -20.5392   23.4752 C   0  0  0  0  0  0  0  0  0  0  0  0
  -26.1939  -14.7595   20.1161 C   0  0  0  0  0  0  0  0  0  0  0  0
  -32.9922  -16.9977   22.5026 C   0  0  0  0  0  0  0  0  0  0  0  0
  -32.4079  -15.1280   20.5164 C   0  0  0  0  0  0  0  0  0  0  0  0
  -27.2907  -27.9174   19.8281 C   0  0  0  0  0  0  0  0  0  0  0  0
  -28.2884  -14.3651   18.9469 C   0  0  0  0  0  0  0  0  0  0  0  0
  -25.8353  -29.7017   20.2974 C   0  0  0  0  0  0  0  0  0  0  0  0
  -23.6512  -30.6985   21.7181 C   0  0  0  0  0  0  0  0  0  0  0  0
  -24.7096  -30.1611   19.6138 C   0  0  0  0  0  0  0  0  0  0  0  0
  -28.4448  -23.9130   20.5569 C   0  0  0  0  0  0  0  0  0  0  0  0
  -29.0770  -21.8183   20.3389 C   0  0  0  0  0  0  0  0  0  0  0  0
  -32.3455  -14.3187   18.1142 C   0  0  0  0  0  0  0  0  0  0  0  0
  -28.8163  -23.0320   18.1692 C   0  0  0  0  0  0  0  0  0  0  0  0
  -24.8181  -17.3305   21.8841 C   0  0  0  0  0  0  0  0  0  0  0  0
  -22.8722  -14.7384   22.0120 C   0  0  0  0  0  0  0  0  0  0  0  0
  -22.3380  -11.4727   21.1774 C   0  0  0  0  0  0  0  0  0  0  0  0
  -31.5861  -19.3885   24.6916 C   0  0  0  0  0  0  0  0  0  0  0  0
  -22.6243  -20.0350   25.6164 C   0  0  0  0  0  0  0  0  0  0  0  0
  -24.6922  -16.6752   19.4529 C   0  0  0  0  0  0  0  0  0  0  0  0
  -25.2253  -14.3436   21.1919 C   0  0  0  0  0  0  0  0  0  0  0  0
  -31.8889  -13.0505   17.4326 C   0  0  0  0  0  0  0  0  0  0  0  0
  -23.0556  -18.5827   25.4291 C   0  0  0  0  0  0  0  0  0  0  0  0
  -31.8386  -12.0403   18.5632 C   0  0  0  0  0  0  0  0  0  0  0  0
  -28.3838  -20.8398   25.2530 C   0  0  0  0  0  0  0  0  0  0  0  0
  -24.4830  -18.5144   24.8954 C   0  0  0  0  0  0  0  0  0  0  0  0
  -28.1449  -21.6925   24.0057 C   0  0  0  0  0  0  0  0  0  0  0  0
  -29.8510  -20.8571   25.6760 C   0  0  0  0  0  0  0  0  0  0  0  0
  -30.5669  -21.3390   23.3675 C   0  0  0  0  0  0  0  0  0  0  0  0
  -24.5916  -19.1891   23.5227 C   0  0  1  0  0  0  0  0  0  0  0  0
  -24.0708  -16.5495   20.8405 C   0  0  1  0  0  0  0  0  0  0  0  0
  -29.1118  -21.3078   22.8698 C   0  0  2  0  0  0  0  0  0  0  0  0
  -31.4806  -12.8808   19.7838 C   0  0  2  0  0  0  0  0  0  0  0  0
  -20.6736   -9.6153   21.4556 C   0  0  0  0  0  0  0  0  0  0  0  0
  -23.8077  -14.3340   24.8880 C   0  0  0  0  0  0  0  0  0  0  0  0
  -22.8880  -12.0076   24.7864 C   0  0  0  0  0  0  0  0  0  0  0  0
  -21.3613  -13.9630   24.5249 C   0  0  0  0  0  0  0  0  0  0  0  0
  -21.9081  -11.2643   18.2567 C   0  0  0  0  0  0  0  0  0  0  0  0
  -33.3047  -17.9974   23.5643 C   0  0  0  0  0  0  0  0  0  0  0  0
  -29.9633  -13.0012   19.9423 C   0  0  0  0  0  0  0  0  0  1  0  0
  -22.9515  -13.3725   22.6501 C   0  0  1  0  0  0  0  0  0  0  0  0
  -21.1326  -10.7701   20.5790 C   0  0  2  0  0  0  0  0  0  0  0  0
  -22.7715  -13.4280   24.1934 C   0  0  0  0  0  0  0  0  0  0  0  0
  -28.5231  -23.4551   21.8092 N   0  0  0  0  0  0  0  0  0  0  0  0
  -28.9096  -22.1787   21.6436 N   0  0  0  0  0  0  0  0  0  0  0  0
  -32.1076  -14.1681   19.4970 N   0  0  0  0  0  0  0  0  0  0  0  0
  -24.0078  -15.1633   21.3081 N   0  0  0  0  0  0  0  0  0  0  0  0
  -30.7147  -20.4815   24.5539 N   0  0  0  0  0  0  0  0  0  0  0  0
  -29.4633  -20.5716   19.9939 N   0  0  0  0  0  0  0  0  0  0  0  0
  -28.4807  -24.2548   17.5722 N   0  0  0  0  0  0  0  0  0  0  0  0
  -24.0685  -18.3207   22.4899 N   0  0  0  0  0  0  0  0  0  0  0  0
  -21.9671  -12.5433   21.9632 N   0  0  0  0  0  0  0  0  0  0  0  0
  -32.3649  -19.0962   23.5785 N   0  0  0  0  0  0  0  0  0  0  0  0
  -21.4637  -10.2327   19.2290 N   0  3  0  0  0  0  0  0  0  0  0  0
  -32.7996  -15.2660   17.4889 O   0  0  0  0  0  0  0  0  0  0  0  0
  -29.1220  -22.0570   17.4417 O   0  0  0  0  0  0  0  0  0  0  0  0
  -25.9878  -17.0542   22.1231 O   0  0  0  0  0  0  0  0  0  0  0  0
  -21.8380  -15.4008   22.1277 O   0  0  0  0  0  0  0  0  0  0  0  0
  -23.4928  -11.1059   20.9717 O   0  0  0  0  0  0  0  0  0  0  0  0
  -31.6605  -18.7192   25.7276 O   0  0  0  0  0  0  0  0  0  0  0  0
  -26.9200  -29.2058   19.5937 O   0  0  0  0  0  0  0  0  0  0  0  0
  -29.4234  -13.6326   18.7820 O   0  0  0  0  0  0  0  0  0  1  0  0
  -22.6019  -31.1757   22.4004 F   0  0  0  0  0  0  0  0  0  0  0  0
  -24.6710  -30.1250   18.2748 F   0  0  0  0  0  0  0  0  0  0  0  0
  1  2  1  0  0  0  0
  1  5  2  0  0  0  0
  2  6  2  0  0  0  0
  3 12  2  0  0  0  0
  3 19  1  0  0  0  0
  4 13  1  0  0  0  0
  4 19  2  0  0  0  0
  5 21  1  0  0  0  0
  6 23  1  0  0  0  0
  7 14  2  0  0  0  0
  7 22  1  0  0  0  0
  8 10  2  0  0  0  0
  8 25  1  0  0  0  0
  9 11  1  0  0  0  0
  9 25  2  0  0  0  0
 10 26  1  0  0  0  0
 11 26  2  0  0  0  0
 12 27  1  0  0  0  0
 13 27  2  0  0  0  0
 14 28  1  0  0  0  0
 15 16  2  0  0  0  0
 15 29  1  0  0  0  0
 16 30  1  0  0  0  0
 17 24  1  0  0  0  0
 17 28  2  0  0  0  0
 18 30  2  0  0  0  0
 18 31  1  0  0  0  0
 19 32  1  0  0  0  0
 20 32  1  0  0  0  0
 20 33  2  0  0  0  0
 20 35  1  0  0  0  0
 21 23  2  0  0  0  0
 21 40  1  0  0  0  0
 22 24  2  0  0  0  0
 22 41  1  0  0  0  0
 23 51  1  0  0  0  0
 24 42  1  0  0  0  0
 25 60  1  0  0  0  0
 26 67  1  0  0  0  0
 27 82  1  0  0  0  0
 28 83  1  0  0  0  0
 29 31  2  0  0  0  0
 29 82  1  0  0  0  0
 30 84  1  0  0  0  0
 31 85  1  0  0  0  0
 32 65  2  0  0  0  0
 33 66  1  0  0  0  0
 33 70  1  0  0  0  0
 34 43  1  0  0  0  0
 34 67  1  0  0  0  0
 34 76  2  0  0  0  0
 35 71  1  0  0  0  0
 35 77  2  0  0  0  0
 36 52  1  0  0  0  0
 36 72  1  0  0  0  0
 36 78  2  0  0  0  0
 37 62  1  0  0  0  0
 37 68  1  0  0  0  0
 37 79  2  0  0  0  0
 38 63  1  0  0  0  0
 38 73  1  0  0  0  0
 38 80  2  0  0  0  0
 39 69  1  0  0  0  0
 39 74  1  0  0  0  0
 39 81  2  0  0  0  0
 40 44  1  0  0  0  0
 41 52  1  0  0  0  0
 42 68  1  0  0  0  0
 43 45  1  0  0  0  0
 44 47  1  0  0  0  0
 45 54  1  0  0  0  0
 46 48  1  0  0  0  0
 46 49  1  0  0  0  0
 47 51  1  0  0  0  0
 48 53  1  0  0  0  0
 49 69  1  0  0  0  0
 50 53  1  0  0  0  0
 50 69  1  0  0  0  0
 51 72  1  0  0  0  0
 52 68  1  0  0  0  0
 53 66  1  0  0  0  0
 54 61  1  0  0  0  0
 54 67  1  0  0  0  0
 55 63  1  0  0  0  0
 56 64  1  0  0  0  0
 57 64  1  0  0  0  0
 58 64  1  0  0  0  0
 59 75  1  0  0  0  0
 60 74  1  0  0  0  0
 61 83  1  0  0  0  0
 62 64  1  0  0  0  0
 62 73  1  0  0  0  0
 63 75  1  0  0  0  0
 65 66  1  0  0  0  0
M  CHG  1  75   1
M  ISO  4  39 100  61 101  74 100  83 101
M  END
> <Batch ID>
0105

> <Smiles>
CNC(C)C(=O)NC(C(=O)N1Cc2cc([101O:1][101CH2:1]C3CCC(=O)N3c3ccc(C[100NH:0][100C:0](=O)N4CCCC(n5nc(-c6ccc(Oc7ccc(F)cc7F)cc6)c(C(N)=O)c5N)C4)cc3)ccc2CC1C(=O)NC1CCCc2ccccc21)C(C)(C)C

> <Shape>
0.203

> <Color>
0.056

> <Negative vol penalty>
0.000

$$$$

  -OEChem-04052301113D

 86 95  0     1  0  0  0  0  0999 V2000
  -27.0324  -38.4330   20.5795 C   0  0  0  0  0  0  0  0  0  0  0  0
  -27.2697  -37.3355   19.7583 C   0  0  0  0  0  0  0  0  0  0  0  0
  -27.6649  -18.9337   17.0282 C   0  0  0  0  0  0  0  0  0  0  0  0
  -24.6129   -8.0902   22.7571 C   0  0  0  0  0  0  0  0  0  0  0  0
  -24.2348   -9.1732   20.6308 C   0  0  0  0  0  0  0  0  0  0  0  0
  -26.9342  -38.2612   21.9597 C   0  0  0  0  0  0  0  0  0  0  0  0
  -27.4100  -36.0656   20.3168 C   0  0  0  0  0  0  0  0  0  0  0  0
  -26.0881  -29.1682   18.9044 C   0  0  0  0  0  0  0  0  0  0  0  0
  -28.1001  -20.2140   17.3702 C   0  0  0  0  0  0  0  0  0  0  0  0
  -27.5663  -17.9456   18.0079 C   0  0  0  0  0  0  0  0  0  0  0  0
  -23.4299   -7.3682   22.5998 C   0  0  0  0  0  0  0  0  0  0  0  0
  -23.0517   -8.4511   20.4734 C   0  0  0  0  0  0  0  0  0  0  0  0
  -26.7322  -27.9320   18.8755 C   0  0  0  0  0  0  0  0  0  0  0  0
  -22.3818   -4.6456   20.8904 C   0  0  0  0  0  0  0  0  0  0  0  0
  -22.4112   -3.2817   21.1811 C   0  0  0  0  0  0  0  0  0  0  0  0
  -26.4646  -27.7434   21.2655 C   0  0  0  0  0  0  0  0  0  0  0  0
  -28.3383  -19.5183   19.6716 C   0  0  0  0  0  0  0  0  0  0  0  0
  -20.7240   -3.6073   22.8795 C   0  0  0  0  0  0  0  0  0  0  0  0
  -25.0153   -8.9927   21.7726 C   0  0  0  0  0  0  0  0  0  0  0  0
  -27.5379   -9.2203   22.0764 C   0  0  0  0  0  0  0  0  0  0  0  0
  -27.0638  -36.9871   22.5346 C   0  0  0  0  0  0  0  0  0  0  0  0
  -25.6363  -29.7071   20.1176 C   0  0  0  0  0  0  0  0  0  0  0  0
  -27.3148  -35.8768   21.7061 C   0  0  0  0  0  0  0  0  0  0  0  0
  -25.8128  -28.9854   21.3068 C   0  0  0  0  0  0  0  0  0  0  0  0
  -28.4369  -20.5063   18.6918 C   0  0  0  0  0  0  0  0  0  0  0  0
  -27.9031  -18.2379   19.3295 C   0  0  0  0  0  0  0  0  0  0  0  0
  -22.6493   -7.5487   21.4579 C   0  0  0  0  0  0  0  0  0  0  0  0
  -26.9231  -27.2208   20.0565 C   0  0  0  0  0  0  0  0  0  0  0  0
  -21.5236   -5.4904   21.5943 C   0  0  0  0  0  0  0  0  0  0  0  0
  -21.5823   -2.7625   22.1756 C   0  0  0  0  0  0  0  0  0  0  0  0
  -20.6946   -4.9712   22.5888 C   0  0  0  0  0  0  0  0  0  0  0  0
  -26.2370   -9.7393   21.9348 C   0  0  0  0  0  0  0  0  0  0  0  0
  -28.3388  -10.3296   22.1973 C   0  0  0  0  0  0  0  0  0  0  0  0
  -28.6957  -24.2202   18.9228 C   0  0  0  0  0  0  0  0  0  0  0  0
  -28.1315  -22.9891   18.8693 C   0  0  0  0  0  0  0  0  0  0  0  0
  -30.1816  -24.3093   19.1204 C   0  0  0  0  0  0  0  0  0  0  0  0
  -27.9827   -7.8574   22.0968 C   0  0  0  0  0  0  0  0  0  0  0  0
  -26.2990  -32.3252   21.7940 C   0  0  0  0  0  0  0  0  0  0  0  0
  -23.8510  -31.2846   23.6506 C   0  0  0  0  0  0  0  0  0  0  0  0
  -21.9379  -28.6707   24.7250 C   0  0  0  0  0  0  0  0  0  0  0  0
  -27.3914  -15.9080   20.1627 C   0  0  0  0  0  0  0  0  0  0  0  0
  -26.9971  -36.8579   24.0357 C   0  0  0  0  0  0  0  0  0  0  0  0
  -24.9196  -31.0295   20.1284 C   0  0  0  0  0  0  0  0  0  0  0  0
  -25.3284  -29.5108   22.6326 C   0  0  0  0  0  0  0  0  0  0  0  0
  -30.9881  -23.0331   19.1103 C   0  0  0  0  0  0  0  0  0  0  0  0
  -26.7848  -35.4241   24.5148 C   0  0  0  0  0  0  0  0  0  0  0  0
  -27.4067  -14.7873   23.8326 C   0  0  0  0  0  0  0  0  0  0  0  0
  -27.7232  -34.4715   23.7808 C   0  0  0  0  0  0  0  0  0  0  0  0
  -27.9415  -13.3674   23.6618 C   0  0  0  0  0  0  0  0  0  0  0  0
  -30.2000  -21.8645   19.6756 C   0  0  0  0  0  0  0  0  0  0  0  0
  -27.7941  -15.6940   22.6712 C   0  0  0  0  0  0  0  0  0  0  0  0
  -26.9752  -13.7500   21.3272 C   0  0  0  0  0  0  0  0  0  0  0  0
  -27.4482  -34.4797   22.2722 C   0  0  1  0  0  0  0  0  0  0  0  0
  -24.9584  -31.7191   21.4886 C   0  0  1  0  0  0  0  0  0  0  0  0
  -27.8812  -12.8711   22.2036 C   0  0  2  0  0  0  0  0  0  0  0  0
  -26.6273  -22.8522   18.7345 C   0  0  0  0  0  0  0  0  0  0  0  0
  -20.0390  -28.1245   26.2720 C   0  0  0  0  0  0  0  0  0  0  0  0
  -25.7406  -31.4871   26.0378 C   0  0  0  0  0  0  0  0  0  0  0  0
  -24.1408  -30.0648   27.3361 C   0  0  0  0  0  0  0  0  0  0  0  0
  -23.4139  -32.2914   26.4779 C   0  0  0  0  0  0  0  0  0  0  0  0
  -20.2440  -27.7132   22.4951 C   0  0  0  0  0  0  0  0  0  0  0  0
  -27.9906  -25.5370   18.7599 C   0  0  0  0  0  0  0  0  0  1  0  0
  -23.7311  -30.3803   24.8534 C   0  0  1  0  0  0  0  0  0  0  0  0
  -20.4340  -28.5096   24.8548 C   0  0  2  0  0  0  0  0  0  0  0  0
  -24.2676  -31.0466   26.1517 C   0  0  0  0  0  0  0  0  0  0  0  0
  -26.2085  -11.0743   21.9631 N   0  0  0  0  0  0  0  0  0  0  0  0
  -27.5015  -11.4037   22.1240 N   0  0  0  0  0  0  0  0  0  0  0  0
  -28.8789  -21.8089   19.0395 N   0  0  0  0  0  0  0  0  0  0  0  0
  -24.6390  -30.8111   22.5920 N   0  0  0  0  0  0  0  0  0  0  0  0
  -27.4031  -15.1533   21.3612 N   0  0  0  0  0  0  0  0  0  0  0  0
  -29.6706  -10.4812   22.3582 N   0  0  0  0  0  0  0  0  0  0  0  0
  -28.3346   -7.2513   20.8831 N   0  0  0  0  0  0  0  0  0  0  0  0
  -27.8039  -17.2333   20.3244 N   0  0  0  0  0  0  0  0  0  0  0  0
  -26.2701  -33.6957   21.9690 N   0  0  0  0  0  0  0  0  0  0  0  0
  -22.3306  -29.9775   24.9233 N   0  0  0  0  0  0  0  0  0  0  0  0
  -19.9444  -27.4517   23.9265 N   0  3  0  0  0  0  0  0  0  0  0  0
  -30.7386  -25.4011   19.2324 O   0  0  0  0  0  0  0  0  0  0  0  0
  -28.0499   -7.1916   23.1577 O   0  0  0  0  0  0  0  0  0  0  0  0
  -27.2861  -31.6029   21.8670 O   0  0  0  0  0  0  0  0  0  0  0  0
  -23.2613  -32.3681   23.6474 O   0  0  0  0  0  0  0  0  0  0  0  0
  -22.6896  -27.7306   24.4766 O   0  0  0  0  0  0  0  0  0  0  0  0
  -27.0551  -15.4095   19.0865 O   0  0  0  0  0  0  0  0  0  0  0  0
  -21.4950   -6.8441   21.3040 O   0  0  0  0  0  0  0  0  0  0  0  0
  -27.5521  -26.0143   20.0312 O   0  0  0  0  0  0  0  0  0  1  0  0
  -21.6096   -1.4525   22.4536 F   0  0  0  0  0  0  0  0  0  0  0  0
  -19.8671   -5.7777   23.2675 F   0  0  0  0  0  0  0  0  0  0  0  0
  1  2  1  0  0  0  0
  1  6  2  0  0  0  0
  2  7  2  0  0  0  0
  3  9  2  0  0  0  0
  3 10  1  0  0  0  0
  4 11  2  0  0  0  0
  4 19  1  0  0  0  0
  5 12  1  0  0  0  0
  5 19  2  0  0  0  0
  6 21  1  0  0  0  0
  7 23  1  0  0  0  0
  8 13  2  0  0  0  0
  8 22  1  0  0  0  0
  9 25  1  0  0  0  0
 10 26  2  0  0  0  0
 11 27  1  0  0  0  0
 12 27  2  0  0  0  0
 13 28  1  0  0  0  0
 14 15  2  0  0  0  0
 14 29  1  0  0  0  0
 15 30  1  0  0  0  0
 16 24  1  0  0  0  0
 16 28  2  0  0  0  0
 17 25  2  0  0  0  0
 17 26  1  0  0  0  0
 18 30  2  0  0  0  0
 18 31  1  0  0  0  0
 19 32  1  0  0  0  0
 20 32  1  0  0  0  0
 20 33  2  0  0  0  0
 20 37  1  0  0  0  0
 21 23  2  0  0  0  0
 21 42  1  0  0  0  0
 22 24  2  0  0  0  0
 22 43  1  0  0  0  0
 23 53  1  0  0  0  0
 24 44  1  0  0  0  0
 25 68  1  0  0  0  0
 26 73  1  0  0  0  0
 27 83  1  0  0  0  0
 28 84  1  0  0  0  0
 29 31  2  0  0  0  0
 29 83  1  0  0  0  0
 30 85  1  0  0  0  0
 31 86  1  0  0  0  0
 32 66  2  0  0  0  0
 33 67  1  0  0  0  0
 33 71  1  0  0  0  0
 34 35  2  0  0  0  0
 34 36  1  0  0  0  0
 34 62  1  0  0  0  0
 35 56  1  0  0  0  0
 35 68  1  0  0  0  0
 36 45  1  0  0  0  0
 36 77  2  0  0  0  0
 37 72  1  0  0  0  0
 37 78  2  0  0  0  0
 38 54  1  0  0  0  0
 38 74  1  0  0  0  0
 38 79  2  0  0  0  0
 39 63  1  0  0  0  0
 39 69  1  0  0  0  0
 39 80  2  0  0  0  0
 40 64  1  0  0  0  0
 40 75  1  0  0  0  0
 40 81  2  0  0  0  0
 41 70  1  0  0  0  0
 41 73  1  0  0  0  0
 41 82  2  0  0  0  0
 42 46  1  0  0  0  0
 43 54  1  0  0  0  0
 44 69  1  0  0  0  0
 45 50  1  0  0  0  0
 46 48  1  0  0  0  0
 47 49  1  0  0  0  0
 47 51  1  0  0  0  0
 48 53  1  0  0  0  0
 49 55  1  0  0  0  0
 50 68  1  0  0  0  0
 51 70  1  0  0  0  0
 52 55  1  0  0  0  0
 52 70  1  0  0  0  0
 53 74  1  0  0  0  0
 54 69  1  0  0  0  0
 55 67  1  0  0  0  0
 57 64  1  0  0  0  0
 58 65  1  0  0  0  0
 59 65  1  0  0  0  0
 60 65  1  0  0  0  0
 61 76  1  0  0  0  0
 62 84  1  0  0  0  0
 63 65  1  0  0  0  0
 63 75  1  0  0  0  0
 64 76  1  0  0  0  0
 66 67  1  0  0  0  0
M  CHG  1  76   1
M  ISO  4  41 100  62 101  73 100  84 101
M  END
> <Batch ID>
0105

> <Smiles>
CNC(C)C(=O)NC(C(=O)N1Cc2cc([101O:1][101CH2:1]C3=C(C)N(c4cccc([100NH:0][100C:0](=O)N5CCCC(n6nc(-c7ccc(Oc8ccc(F)cc8F)cc7)c(C(N)=O)c6N)C5)c4)CCC3=O)ccc2CC1C(=O)NC1CCCc2ccccc21)C(C)(C)C

> <Shape>
0.265

> <Color>
0.098

> <Negative vol penalty>
0.000

$$$$

  -OEChem-04052301113D

 85 93  0     1  0  0  0  0  0999 V2000
  -25.0966  -31.5091   18.8044 C   0  0  0  0  0  0  0  0  0  0  0  0
  -24.9693  -30.3314   19.5340 C   0  0  0  0  0  0  0  0  0  0  0  0
  -23.0902   -9.8374   19.8762 C   0  0  0  0  0  0  0  0  0  0  0  0
  -23.9549   -9.6812   22.1268 C   0  0  0  0  0  0  0  0  0  0  0  0
  -24.3770  -32.6423   19.1811 C   0  0  0  0  0  0  0  0  0  0  0  0
  -24.1231  -30.2866   20.6414 C   0  0  0  0  0  0  0  0  0  0  0  0
  -21.2665  -26.1062   20.7356 C   0  0  0  0  0  0  0  0  0  0  0  0
  -28.9185  -17.9821   25.2209 C   0  0  0  0  0  0  0  0  0  0  0  0
  -22.3884   -8.6466   20.0632 C   0  0  0  0  0  0  0  0  0  0  0  0
  -23.2530   -8.4904   22.3138 C   0  0  0  0  0  0  0  0  0  0  0  0
  -21.8765  -24.9277   21.1631 C   0  0  0  0  0  0  0  0  0  0  0  0
  -28.2822  -19.1423   24.7800 C   0  0  0  0  0  0  0  0  0  0  0  0
  -20.0776   -7.5524   22.9902 C   0  0  0  0  0  0  0  0  0  0  0  0
  -19.3769   -7.3959   24.1860 C   0  0  0  0  0  0  0  0  0  0  0  0
  -20.8815  -25.2103   23.3424 C   0  0  0  0  0  0  0  0  0  0  0  0
  -29.2402  -18.8331   22.5837 C   0  0  0  0  0  0  0  0  0  0  0  0
  -20.7001   -5.4424   24.7056 C   0  0  0  0  0  0  0  0  0  0  0  0
  -23.8735  -10.3547   20.9080 C   0  0  0  0  0  0  0  0  0  0  0  0
  -24.1448  -12.8902   20.9807 C   0  0  0  0  0  0  0  0  0  0  0  0
  -23.5142  -32.6086   20.2879 C   0  0  0  0  0  0  0  0  0  0  0  0
  -20.4669  -26.8526   21.6130 C   0  0  0  0  0  0  0  0  0  0  0  0
  -23.3923  -31.4208   21.0340 C   0  0  0  0  0  0  0  0  0  0  0  0
  -20.2604  -26.3966   22.9228 C   0  0  0  0  0  0  0  0  0  0  0  0
  -29.7158  -17.2474   24.3433 C   0  0  0  0  0  0  0  0  0  0  0  0
  -29.8767  -17.6729   23.0247 C   0  0  0  0  0  0  0  0  0  0  0  0
  -22.4698   -7.9731   21.2819 C   0  0  0  0  0  0  0  0  0  0  0  0
  -21.6864  -24.4811   22.4675 C   0  0  0  0  0  0  0  0  0  0  0  0
  -28.4430  -19.5678   23.4614 C   0  0  0  0  0  0  0  0  0  0  0  0
  -21.0896   -6.6539   22.6520 C   0  0  0  0  0  0  0  0  0  0  0  0
  -19.6881   -6.3409   25.0437 C   0  0  0  0  0  0  0  0  0  0  0  0
  -21.4008   -5.5989   23.5097 C   0  0  0  0  0  0  0  0  0  0  0  0
  -24.5992  -11.5845   20.7153 C   0  0  0  0  0  0  0  0  0  0  0  0
  -25.1995  -13.6982   20.6325 C   0  0  0  0  0  0  0  0  0  0  0  0
  -22.8823  -13.3331   21.4960 C   0  0  0  0  0  0  0  0  0  0  0  0
  -20.6032  -29.7880   22.8250 C   0  0  0  0  0  0  0  0  0  0  0  0
  -17.6918  -29.0078   24.0238 C   0  0  0  0  0  0  0  0  0  0  0  0
  -15.5161  -26.5614   24.9872 C   0  0  0  0  0  0  0  0  0  0  0  0
  -30.6582  -14.8586   20.6625 C   0  0  0  0  0  0  0  0  0  0  0  0
  -22.7931  -33.8724   20.6850 C   0  0  0  0  0  0  0  0  0  0  0  0
  -19.7942  -28.1077   21.1285 C   0  0  0  0  0  0  0  0  0  0  0  0
  -19.3949  -27.1507   23.8979 C   0  0  0  0  0  0  0  0  0  0  0  0
  -21.6320  -33.6345   21.6470 C   0  0  0  0  0  0  0  0  0  0  0  0
  -29.4728  -12.6426   18.1404 C   0  0  0  0  0  0  0  0  0  0  0  0
  -22.0559  -32.6982   22.7742 C   0  0  0  0  0  0  0  0  0  0  0  0
  -28.0649  -12.2729   18.6106 C   0  0  0  0  0  0  0  0  0  0  0  0
  -30.4386  -12.7923   19.3139 C   0  0  0  0  0  0  0  0  0  0  0  0
  -28.5849  -13.3530   20.8381 C   0  0  0  0  0  0  0  0  0  0  0  0
  -22.4656  -31.3256   22.2266 C   0  0  1  0  0  0  0  0  0  0  0  0
  -19.4172  -29.0586   22.2603 C   0  0  1  0  0  0  0  0  0  0  0  0
  -27.5621  -13.2458   19.6941 C   0  0  2  0  0  0  0  0  0  0  0  0
  -31.6142  -16.3167   25.6911 C   0  0  0  0  0  0  0  0  0  0  0  0
  -13.2270  -26.2329   25.9618 C   0  0  0  0  0  0  0  0  0  0  0  0
  -18.7529  -29.7931   26.7747 C   0  0  0  0  0  0  0  0  0  0  0  0
  -16.8169  -28.5746   27.7923 C   0  0  0  0  0  0  0  0  0  0  0  0
  -16.4116  -30.5381   26.3080 C   0  0  0  0  0  0  0  0  0  0  0  0
  -14.5854  -25.0805   22.5998 C   0  0  0  0  0  0  0  0  0  0  0  0
  -30.3870  -16.0086   24.8385 C   0  0  0  0  0  0  0  0  0  0  0  0
  -30.7262  -16.9031   22.0676 C   0  0  0  0  0  0  0  0  0  0  0  0
  -24.3716  -22.1816   23.2596 C   0  0  0  0  0  0  0  0  0  0  0  0
  -25.7217  -21.8058   22.6589 C   0  0  0  0  0  0  0  0  0  0  0  0
  -23.5252  -22.9845   22.2807 C   0  0  0  0  0  0  0  0  0  1  0  0
  -26.5852  -21.0403   23.6515 C   0  0  0  0  0  0  0  0  0  0  0  0
  -17.1975  -28.3594   25.2943 C   0  0  1  0  0  0  0  0  0  0  0  0
  -14.0443  -26.3458   24.6842 C   0  0  2  0  0  0  0  0  0  0  0  0
  -17.3127  -29.3029   26.5248 C   0  0  0  0  0  0  0  0  0  0  0  0
  -25.8454  -11.5598   20.2353 N   0  0  0  0  0  0  0  0  0  0  0  0
  -26.1830  -12.8600   20.1963 N   0  0  0  0  0  0  0  0  0  0  0  0
  -18.7639  -28.3753   23.3786 N   0  0  0  0  0  0  0  0  0  0  0  0
  -29.9034  -13.7293   20.3046 N   0  0  0  0  0  0  0  0  0  0  0  0
  -25.3722  -15.0368   20.6598 N   0  0  0  0  0  0  0  0  0  0  0  0
  -21.9106  -12.3705   21.8017 N   0  0  0  0  0  0  0  0  0  0  0  0
  -21.2938  -30.5430   21.8964 N   0  0  0  0  0  0  0  0  0  0  0  0
  -15.8404  -27.9012   25.0176 N   0  0  0  0  0  0  0  0  0  0  0  0
  -30.0751  -15.6984   21.6034 N   0  0  0  0  0  0  0  0  0  0  0  0
  -13.8557  -25.0966   23.8937 N   0  3  0  0  0  0  0  0  0  0  0  0
  -22.6175  -14.5477   21.6645 O   0  0  0  0  0  0  0  0  0  0  0  0
  -20.8711  -29.6753   24.0155 O   0  0  0  0  0  0  0  0  0  0  0  0
  -17.1420  -30.0336   23.6149 O   0  0  0  0  0  0  0  0  0  0  0  0
  -16.2989  -25.6341   25.1815 O   0  0  0  0  0  0  0  0  0  0  0  0
  -31.7672  -15.1033   20.1752 O   0  0  0  0  0  0  0  0  0  0  0  0
  -21.7849   -6.8112   21.4648 O   0  0  0  0  0  0  0  0  0  0  0  0
  -22.2812  -23.3314   22.8875 O   0  0  0  0  0  0  0  0  0  1  0  0
  -27.8180  -20.7083   23.0280 O   0  0  0  0  0  0  0  0  0  0  0  0
  -19.0161   -6.1915   26.1928 F   0  0  0  0  0  0  0  0  0  0  0  0
  -22.3728   -4.7332   23.1908 F   0  0  0  0  0  0  0  0  0  0  0  0
  1  2  1  0  0  0  0
  1  5  2  0  0  0  0
  2  6  2  0  0  0  0
  3  9  2  0  0  0  0
  3 18  1  0  0  0  0
  4 10  1  0  0  0  0
  4 18  2  0  0  0  0
  5 20  1  0  0  0  0
  6 22  1  0  0  0  0
  7 11  2  0  0  0  0
  7 21  1  0  0  0  0
  8 12  2  0  0  0  0
  8 24  1  0  0  0  0
  9 26  1  0  0  0  0
 10 26  2  0  0  0  0
 11 27  1  0  0  0  0
 12 28  1  0  0  0  0
 13 14  2  0  0  0  0
 13 29  1  0  0  0  0
 14 30  1  0  0  0  0
 15 23  1  0  0  0  0
 15 27  2  0  0  0  0
 16 25  1  0  0  0  0
 16 28  2  0  0  0  0
 17 30  2  0  0  0  0
 17 31  1  0  0  0  0
 18 32  1  0  0  0  0
 19 32  1  0  0  0  0
 19 33  2  0  0  0  0
 19 34  1  0  0  0  0
 20 22  2  0  0  0  0
 20 39  1  0  0  0  0
 21 23  2  0  0  0  0
 21 40  1  0  0  0  0
 22 48  1  0  0  0  0
 23 41  1  0  0  0  0
 24 25  2  0  0  0  0
 24 57  1  0  0  0  0
 25 58  1  0  0  0  0
 26 81  1  0  0  0  0
 27 82  1  0  0  0  0
 28 83  1  0  0  0  0
 29 31  2  0  0  0  0
 29 81  1  0  0  0  0
 30 84  1  0  0  0  0
 31 85  1  0  0  0  0
 32 66  2  0  0  0  0
 33 67  1  0  0  0  0
 33 70  1  0  0  0  0
 34 71  1  0  0  0  0
 34 76  2  0  0  0  0
 35 49  1  0  0  0  0
 35 72  1  0  0  0  0
 35 77  2  0  0  0  0
 36 63  1  0  0  0  0
 36 68  1  0  0  0  0
 36 78  2  0  0  0  0
 37 64  1  0  0  0  0
 37 73  1  0  0  0  0
 37 79  2  0  0  0  0
 38 69  1  0  0  0  0
 38 74  1  0  0  0  0
 38 80  2  0  0  0  0
 39 42  1  0  0  0  0
 40 49  1  0  0  0  0
 41 68  1  0  0  0  0
 42 44  1  0  0  0  0
 43 45  1  0  0  0  0
 43 46  1  0  0  0  0
 44 48  1  0  0  0  0
 45 50  1  0  0  0  0
 46 69  1  0  0  0  0
 47 50  1  0  0  0  0
 47 69  1  0  0  0  0
 48 72  1  0  0  0  0
 49 68  1  0  0  0  0
 50 67  1  0  0  0  0
 51 57  1  0  0  0  0
 52 64  1  0  0  0  0
 53 65  1  0  0  0  0
 54 65  1  0  0  0  0
 55 65  1  0  0  0  0
 56 75  1  0  0  0  0
 58 74  1  0  0  0  0
 59 60  1  0  0  0  0
 59 61  1  0  0  0  0
 60 62  1  0  0  0  0
 61 82  1  0  0  0  0
 62 83  1  0  0  0  0
 63 65  1  0  0  0  0
 63 73  1  0  0  0  0
 64 75  1  0  0  0  0
 66 67  1  0  0  0  0
M  CHG  1  75   1
M  ISO  4  38 100  61 101  74 100  82 101
M  END
> <Batch ID>
0105

> <Smiles>
CCc1ccc(OCCC[101CH2:1][101O:1]c2ccc3c(c2)CN(C(=O)C(NC(=O)C(C)NC)C(C)(C)C)C(C(=O)NC2CCCc4ccccc42)C3)cc1C[100NH:0][100C:0](=O)N1CCCC(n2nc(-c3ccc(Oc4ccc(F)cc4F)cc3)c(C(N)=O)c2N)C1

> <Shape>
0.277

> <Color>
0.209

> <Negative vol penalty>
0.000

$$$$

  -OEChem-04052301113D

 87 96  0     1  0  0  0  0  0999 V2000
  -16.8507  -29.7742   22.7826 C   0  0  0  0  0  0  0  0  0  0  0  0
  -18.0193  -30.3365   22.2791 C   0  0  0  0  0  0  0  0  0  0  0  0
  -26.8955  -12.5126   21.6489 C   0  0  0  0  0  0  0  0  0  0  0  0
  -25.7304  -14.3912   20.6739 C   0  0  0  0  0  0  0  0  0  0  0  0
  -16.9097  -28.5978   23.5286 C   0  0  0  0  0  0  0  0  0  0  0  0
  -19.2478  -29.7233   22.5223 C   0  0  0  0  0  0  0  0  0  0  0  0
  -25.6557  -28.6667   19.4991 C   0  0  0  0  0  0  0  0  0  0  0  0
  -25.6751  -11.8847   21.8976 C   0  0  0  0  0  0  0  0  0  0  0  0
  -24.5099  -13.7633   20.9226 C   0  0  0  0  0  0  0  0  0  0  0  0
  -27.0142  -28.8165   19.7742 C   0  0  0  0  0  0  0  0  0  0  0  0
  -23.3759  -10.1273   20.1489 C   0  0  0  0  0  0  0  0  0  0  0  0
  -23.2668   -8.7735   19.8312 C   0  0  0  0  0  0  0  0  0  0  0  0
  -26.9865  -26.7442   21.0088 C   0  0  0  0  0  0  0  0  0  0  0  0
  -22.7723   -8.2711   22.1421 C   0  0  0  0  0  0  0  0  0  0  0  0
  -26.9232  -13.7659   21.0371 C   0  0  0  0  0  0  0  0  0  0  0  0
  -29.2401  -13.9356   19.9832 C   0  0  0  0  0  0  0  0  0  0  0  0
  -18.1385  -27.9646   23.7728 C   0  0  0  0  0  0  0  0  0  0  0  0
  -24.9487  -27.5583   19.9868 C   0  0  0  0  0  0  0  0  0  0  0  0
  -19.3235  -28.5380   23.2734 C   0  0  0  0  0  0  0  0  0  0  0  0
  -25.6196  -26.5814   20.7363 C   0  0  0  0  0  0  0  0  0  0  0  0
  -24.4823  -12.5100   21.5345 C   0  0  0  0  0  0  0  0  0  0  0  0
  -27.6792  -27.8566   20.5315 C   0  0  0  0  0  0  0  0  0  0  0  0
  -23.1833  -10.5530   21.4632 C   0  0  0  0  0  0  0  0  0  0  0  0
  -22.9649   -7.8454   20.8278 C   0  0  0  0  0  0  0  0  0  0  0  0
  -22.8815   -9.6250   22.4598 C   0  0  0  0  0  0  0  0  0  0  0  0
  -28.1835  -14.4152   20.7803 C   0  0  0  0  0  0  0  0  0  0  0  0
  -30.2010  -14.9139   20.0619 C   0  0  0  0  0  0  0  0  0  0  0  0
  -30.9815  -25.4418   20.7859 C   0  0  0  0  0  0  0  0  0  0  0  0
  -30.5461  -24.2196   21.4130 C   0  0  0  0  0  0  0  0  0  0  0  0
  -30.5133  -24.8535   18.4244 C   0  0  0  0  0  0  0  0  0  0  0  0
  -30.5339  -23.5115   18.3895 C   0  0  0  0  0  0  0  0  0  0  0  0
  -30.9733  -25.7344   19.4770 C   0  0  0  0  0  0  0  0  0  0  0  0
  -30.5773  -22.9807   20.9043 C   0  0  0  0  0  0  0  0  0  0  0  0
  -30.9950  -22.6438   19.5150 C   0  0  0  0  0  0  0  0  0  0  0  0
  -31.9919  -27.2349   17.8401 C   0  0  0  0  0  0  0  0  0  0  0  0
  -29.3437  -12.7150   19.2383 C   0  0  0  0  0  0  0  0  0  0  0  0
  -22.4894  -27.1575   21.9605 C   0  0  0  0  0  0  0  0  0  0  0  0
  -22.7629  -24.0572   21.0464 C   0  0  0  0  0  0  0  0  0  0  0  0
  -24.6640  -21.1108   20.1968 C   0  0  0  0  0  0  0  0  0  0  0  0
  -29.6643  -20.7455   21.1810 C   0  0  0  0  0  0  0  0  0  0  0  0
  -18.1572  -26.7201   24.6247 C   0  0  0  0  0  0  0  0  0  0  0  0
  -23.4895  -27.3978   19.6587 C   0  0  0  0  0  0  0  0  0  0  0  0
  -24.9107  -25.3627   21.2660 C   0  0  0  0  0  0  0  0  0  0  0  0
  -32.2781  -28.7162   17.7931 C   0  0  0  0  0  0  0  0  0  0  0  0
  -19.4592  -25.9300   24.5202 C   0  0  0  0  0  0  0  0  0  0  0  0
  -32.2158  -29.1354   19.2578 C   0  0  0  0  0  0  0  0  0  0  0  0
  -31.8466  -18.3371   22.9406 C   0  0  0  0  0  0  0  0  0  0  0  0
  -20.6605  -26.8630   24.6344 C   0  0  0  0  0  0  0  0  0  0  0  0
  -31.2002  -17.0130   22.5451 C   0  0  0  0  0  0  0  0  0  0  0  0
  -30.8175  -19.4578   23.0837 C   0  0  0  0  0  0  0  0  0  0  0  0
  -29.3162  -18.3120   21.4787 C   0  0  0  0  0  0  0  0  0  0  0  0
  -20.6725  -27.8890   23.4949 C   0  0  1  0  0  0  0  0  0  0  0  0
  -22.7527  -26.4911   20.6398 C   0  0  1  0  0  0  0  0  0  0  0  0
  -30.3420  -17.1850   21.2827 C   0  0  2  0  0  0  0  0  0  0  0  0
  -31.2237  -28.1606   19.8853 C   0  0  1  0  0  0  0  0  0  0  0  0
  -30.1061  -22.7594   17.1589 C   0  0  0  0  0  0  0  0  0  0  0  0
  -23.9057  -18.8449   19.4299 C   0  0  0  0  0  0  0  0  0  0  0  0
  -22.9050  -23.3277   24.0058 C   0  0  0  0  0  0  0  0  0  0  0  0
  -23.7952  -21.0848   23.3386 C   0  0  0  0  0  0  0  0  0  0  0  0
  -21.5121  -21.7837   22.6164 C   0  0  0  0  0  0  0  0  0  0  0  0
  -26.3550  -21.2378   17.7712 C   0  0  0  0  0  0  0  0  0  0  0  0
  -29.7935  -28.6940   19.8357 C   0  0  0  0  0  0  0  0  0  1  0  0
  -23.5342  -22.8594   21.5459 C   0  0  1  0  0  0  0  0  0  0  0  0
  -24.4445  -20.2010   19.0016 C   0  0  2  0  0  0  0  0  0  0  0  0
  -22.9498  -22.2877   22.8685 C   0  0  0  0  0  0  0  0  0  0  0  0
  -28.4481  -15.6056   21.3254 N   0  0  0  0  0  0  0  0  0  0  0  0
  -29.6819  -15.8821   20.8701 N   0  0  0  0  0  0  0  0  0  0  0  0
  -31.3869  -26.9702   19.0728 N   0  0  0  0  0  0  0  0  0  0  0  0
  -23.4829  -25.2540   20.9238 N   0  0  0  0  0  0  0  0  0  0  0  0
  -29.9631  -19.5646   21.8900 N   0  0  0  0  0  0  0  0  0  0  0  0
  -31.4309  -15.0316   19.5180 N   0  0  0  0  0  0  0  0  0  0  0  0
  -28.2644  -11.8214   19.2664 N   0  0  0  0  0  0  0  0  0  0  0  0
  -30.2367  -21.9110   21.6836 N   0  0  0  0  0  0  0  0  0  0  0  0
  -21.1486  -27.2800   22.2714 N   0  0  0  0  0  0  0  0  0  0  0  0
  -23.5636  -21.9042   20.4436 N   0  0  0  0  0  0  0  0  0  0  0  0
  -25.7255  -19.9882   18.2704 N   0  3  0  0  0  0  0  0  0  0  0  0
  -31.6036  -21.5999   19.2855 O   0  0  0  0  0  0  0  0  0  0  0  0
  -32.2318  -26.4568   16.9279 O   0  0  0  0  0  0  0  0  0  0  0  0
  -30.3698  -12.4177   18.5807 O   0  0  0  0  0  0  0  0  0  0  0  0
  -23.4329  -27.5315   22.6472 O   0  0  0  0  0  0  0  0  0  0  0  0
  -21.5675  -23.9337   20.7683 O   0  0  0  0  0  0  0  0  0  0  0  0
  -25.7059  -21.1143   20.8487 O   0  0  0  0  0  0  0  0  0  0  0  0
  -28.9345  -20.7519   20.1831 O   0  0  0  0  0  0  0  0  0  0  0  0
  -23.2912  -11.8975   21.7769 O   0  0  0  0  0  0  0  0  0  0  0  0
  -29.0051  -28.0006   20.8021 O   0  0  0  0  0  0  0  0  0  1  0  0
  -22.8586   -6.5456   20.5223 F   0  0  0  0  0  0  0  0  0  0  0  0
  -22.6942  -10.0281   23.7240 F   0  0  0  0  0  0  0  0  0  0  0  0
  1  2  1  0  0  0  0
  1  5  2  0  0  0  0
  2  6  2  0  0  0  0
  3  8  2  0  0  0  0
  3 15  1  0  0  0  0
  4  9  1  0  0  0  0
  4 15  2  0  0  0  0
  5 17  1  0  0  0  0
  6 19  1  0  0  0  0
  7 10  2  0  0  0  0
  7 18  1  0  0  0  0
  8 21  1  0  0  0  0
  9 21  2  0  0  0  0
 10 22  1  0  0  0  0
 11 12  2  0  0  0  0
 11 23  1  0  0  0  0
 12 24  1  0  0  0  0
 13 20  1  0  0  0  0
 13 22  2  0  0  0  0
 14 24  2  0  0  0  0
 14 25  1  0  0  0  0
 15 26  1  0  0  0  0
 16 26  1  0  0  0  0
 16 27  2  0  0  0  0
 16 36  1  0  0  0  0
 17 19  2  0  0  0  0
 17 41  1  0  0  0  0
 18 20  2  0  0  0  0
 18 42  1  0  0  0  0
 19 52  1  0  0  0  0
 20 43  1  0  0  0  0
 21 84  1  0  0  0  0
 22 85  1  0  0  0  0
 23 25  2  0  0  0  0
 23 84  1  0  0  0  0
 24 86  1  0  0  0  0
 25 87  1  0  0  0  0
 26 66  2  0  0  0  0
 27 67  1  0  0  0  0
 27 71  1  0  0  0  0
 28 29  1  0  0  0  0
 28 32  2  0  0  0  0
 29 33  2  0  0  0  0
 30 31  2  0  0  0  0
 30 32  1  0  0  0  0
 31 34  1  0  0  0  0
 31 56  1  0  0  0  0
 32 68  1  0  0  0  0
 33 34  1  0  0  0  0
 33 73  1  0  0  0  0
 34 77  2  0  0  0  0
 35 44  1  0  0  0  0
 35 68  1  0  0  0  0
 35 78  2  0  0  0  0
 36 72  1  0  0  0  0
 36 79  2  0  0  0  0
 37 53  1  0  0  0  0
 37 74  1  0  0  0  0
 37 80  2  0  0  0  0
 38 63  1  0  0  0  0
 38 69  1  0  0  0  0
 38 81  2  0  0  0  0
 39 64  1  0  0  0  0
 39 75  1  0  0  0  0
 39 82  2  0  0  0  0
 40 70  1  0  0  0  0
 40 73  1  0  0  0  0
 40 83  2  0  0  0  0
 41 45  1  0  0  0  0
 42 53  1  0  0  0  0
 43 69  1  0  0  0  0
 44 46  1  0  0  0  0
 45 48  1  0  0  0  0
 46 55  1  0  0  0  0
 47 49  1  0  0  0  0
 47 50  1  0  0  0  0
 48 52  1  0  0  0  0
 49 54  1  0  0  0  0
 50 70  1  0  0  0  0
 51 54  1  0  0  0  0
 51 70  1  0  0  0  0
 52 74  1  0  0  0  0
 53 69  1  0  0  0  0
 54 67  1  0  0  0  0
 55 62  1  0  0  0  0
 55 68  1  0  0  0  0
 57 64  1  0  0  0  0
 58 65  1  0  0  0  0
 59 65  1  0  0  0  0
 60 65  1  0  0  0  0
 61 76  1  0  0  0  0
 62 85  1  0  0  0  0
 63 65  1  0  0  0  0
 63 75  1  0  0  0  0
 64 76  1  0  0  0  0
 66 67  1  0  0  0  0
M  CHG  1  76   1
M  ISO  4  40 100  62 101  73 100  85 101
M  END
> <Batch ID>
0105

> <Smiles>
CNC(C)C(=O)NC(C(=O)N1Cc2cc([101O:1][101CH2:1]C3CCC(=O)N3c3ccc([100NH:0][100C:0](=O)N4CCCC(n5nc(-c6ccc(Oc7ccc(F)cc7F)cc6)c(C(N)=O)c5N)C4)c(=O)c(C)c3)ccc2CC1C(=O)NC1CCCc2ccccc21)C(C)(C)C

> <Shape>
0.291

> <Color>
0.085

> <Negative vol penalty>
0.000

$$$$

  -OEChem-04052301113D

 84 92  0     1  0  0  0  0  0999 V2000
  -29.1326  -23.9162   21.9286 C   0  0  0  0  0  0  0  0  0  0  0  0
  -27.9987  -23.2890   22.4351 C   0  0  0  0  0  0  0  0  0  0  0  0
  -24.9361  -31.0184   21.0932 C   0  0  0  0  0  0  0  0  0  0  0  0
  -24.6862  -29.5323   22.9816 C   0  0  0  0  0  0  0  0  0  0  0  0
  -29.8146  -23.3554   20.8496 C   0  0  0  0  0  0  0  0  0  0  0  0
  -27.5457  -22.1012   21.8622 C   0  0  0  0  0  0  0  0  0  0  0  0
  -24.8959  -17.3963   24.7516 C   0  0  0  0  0  0  0  0  0  0  0  0
  -21.3338  -19.9933   20.6967 C   0  0  0  0  0  0  0  0  0  0  0  0
  -22.0618  -20.9390   19.9748 C   0  0  0  0  0  0  0  0  0  0  0  0
  -24.2757  -32.0249   21.7978 C   0  0  0  0  0  0  0  0  0  0  0  0
  -24.0259  -30.5388   23.6863 C   0  0  0  0  0  0  0  0  0  0  0  0
  -23.5618  -17.0231   24.9084 C   0  0  0  0  0  0  0  0  0  0  0  0
  -22.9746  -35.1012   23.2326 C   0  0  0  0  0  0  0  0  0  0  0  0
  -23.5209  -36.3841   23.1959 C   0  0  0  0  0  0  0  0  0  0  0  0
  -23.7684  -15.5194   23.0334 C   0  0  0  0  0  0  0  0  0  0  0  0
  -22.4899  -20.6445   22.7157 C   0  0  0  0  0  0  0  0  0  0  0  0
  -25.5577  -35.5452   24.1884 C   0  0  0  0  0  0  0  0  0  0  0  0
  -25.1413  -29.7721   21.6850 C   0  0  0  0  0  0  0  0  0  0  0  0
  -27.2068  -28.4745   20.9383 C   0  0  0  0  0  0  0  0  0  0  0  0
  -29.3753  -22.1550   20.2693 C   0  0  0  0  0  0  0  0  0  0  0  0
  -25.6745  -16.8411   23.7259 C   0  0  0  0  0  0  0  0  0  0  0  0
  -28.2217  -21.5245   20.7735 C   0  0  0  0  0  0  0  0  0  0  0  0
  -25.1128  -15.8854   22.8673 C   0  0  0  0  0  0  0  0  0  0  0  0
  -21.5478  -19.8460   22.0672 C   0  0  0  0  0  0  0  0  0  0  0  0
  -23.0039  -21.7375   20.6233 C   0  0  0  0  0  0  0  0  0  0  0  0
  -23.8206  -31.7851   23.0944 C   0  0  0  0  0  0  0  0  0  0  0  0
  -22.9970  -16.0867   24.0474 C   0  0  0  0  0  0  0  0  0  0  0  0
  -23.7199  -34.0403   23.7473 C   0  0  0  0  0  0  0  0  0  0  0  0
  -24.8124  -36.6061   23.6737 C   0  0  0  0  0  0  0  0  0  0  0  0
  -23.2180  -21.5902   21.9938 C   0  0  0  0  0  0  0  0  0  0  0  0
  -25.0114  -34.2623   24.2251 C   0  0  0  0  0  0  0  0  0  0  0  0
  -25.8229  -28.7319   20.9574 C   0  0  0  0  0  0  0  0  0  0  0  0
  -27.3431  -27.3913   20.1049 C   0  0  0  0  0  0  0  0  0  0  0  0
  -28.2737  -29.1539   21.6135 C   0  0  0  0  0  0  0  0  0  0  0  0
  -27.1942  -17.9993   21.1857 C   0  0  0  0  0  0  0  0  0  0  0  0
  -28.2745  -14.9516   20.9282 C   0  0  0  0  0  0  0  0  0  0  0  0
  -19.8393  -18.0127   22.3169 C   0  0  0  0  0  0  0  0  0  0  0  0
  -26.9044  -11.6330   21.2849 C   0  0  0  0  0  0  0  0  0  0  0  0
  -23.6504  -22.9681   18.5224 C   0  0  0  0  0  0  0  0  0  0  0  0
  -30.1180  -21.6119   19.0743 C   0  0  0  0  0  0  0  0  0  0  0  0
  -27.1196  -17.2344   23.5868 C   0  0  0  0  0  0  0  0  0  0  0  0
  -25.9118  -15.2446   21.7630 C   0  0  0  0  0  0  0  0  0  0  0  0
  -29.7895  -20.1538   18.7640 C   0  0  0  0  0  0  0  0  0  0  0  0
  -25.2664  -25.2750   16.3443 C   0  0  0  0  0  0  0  0  0  0  0  0
  -28.2815  -19.9268   18.8014 C   0  0  0  0  0  0  0  0  0  0  0  0
  -25.7238  -26.3969   17.2792 C   0  0  0  0  0  0  0  0  0  0  0  0
  -23.9130  -24.7037   16.7635 C   0  0  0  0  0  0  0  0  0  0  0  0
  -24.2862  -25.3927   19.0991 C   0  0  0  0  0  0  0  0  0  0  0  0
  -27.7136  -20.2218   20.1949 C   0  0  1  0  0  0  0  0  0  0  0  0
  -27.6740  -16.9872   22.1872 C   0  0  1  0  0  0  0  0  0  0  0  0
  -25.6750  -25.9556   18.7552 C   0  0  2  0  0  0  0  0  0  0  0  0
  -28.0130   -9.4677   21.9010 C   0  0  0  0  0  0  0  0  0  0  0  0
  -28.5210  -14.5544   17.9130 C   0  0  0  0  0  0  0  0  0  0  0  0
  -28.0210  -12.1261   18.2623 C   0  0  0  0  0  0  0  0  0  0  0  0
  -30.0613  -13.1368   19.2813 C   0  0  0  0  0  0  0  0  0  0  0  0
  -25.0238  -11.1732   23.5235 C   0  0  0  0  0  0  0  0  0  0  0  0
  -19.2936  -17.1458   23.4431 C   0  0  0  0  0  0  0  0  0  0  0  0
  -19.5146  -15.6572   23.1984 C   0  0  0  0  0  0  0  0  0  0  0  0
  -20.9900  -15.3296   23.0205 C   0  0  0  0  0  0  0  0  0  1  0  0
  -27.7895  -13.7002   20.2371 C   0  0  1  0  0  0  0  0  0  0  0  0
  -27.1924  -10.6461   22.4018 C   0  0  2  0  0  0  0  0  0  0  0  0
  -28.5801  -13.3993   18.9325 C   0  0  0  0  0  0  0  0  0  0  0  0
  -25.1296  -27.8807   20.1966 N   0  0  0  0  0  0  0  0  0  0  0  0
  -26.0817  -27.0781   19.6914 N   0  0  0  0  0  0  0  0  0  0  0  0
  -27.3187  -15.6667   21.6636 N   0  0  0  0  0  0  0  0  0  0  0  0
  -23.9430  -24.3031   18.1718 N   0  0  0  0  0  0  0  0  0  0  0  0
  -28.4177  -26.6858   19.6928 N   0  0  0  0  0  0  0  0  0  0  0  0
  -27.9577  -30.2474   22.4313 N   0  0  0  0  0  0  0  0  0  0  0  0
  -20.8098  -18.8861   22.7997 N   0  0  0  0  0  0  0  0  0  0  0  0
  -23.7423  -22.6970   19.8871 N   0  0  0  0  0  0  0  0  0  0  0  0
  -27.9914  -19.1245   21.0967 N   0  0  0  0  0  0  0  0  0  0  0  0
  -27.8504  -12.6347   21.2318 N   0  0  0  0  0  0  0  0  0  0  0  0
  -25.9188  -10.1233   22.9723 N   0  3  0  0  0  0  0  0  0  0  0  0
  -29.4734  -28.8119   21.4822 O   0  0  0  0  0  0  0  0  0  0  0  0
  -26.1768  -17.7753   20.5404 O   0  0  0  0  0  0  0  0  0  0  0  0
  -29.4595  -15.2785   20.8255 O   0  0  0  0  0  0  0  0  0  0  0  0
  -19.4381  -17.9090   21.1625 O   0  0  0  0  0  0  0  0  0  0  0  0
  -25.9389  -11.5240   20.5323 O   0  0  0  0  0  0  0  0  0  0  0  0
  -23.3677  -22.1208   17.6714 O   0  0  0  0  0  0  0  0  0  0  0  0
  -23.1764  -32.7671   23.7824 O   0  0  0  0  0  0  0  0  0  0  0  0
  -21.6949  -15.7210   24.1979 O   0  0  0  0  0  0  0  0  0  1  0  0
  -25.3375  -37.8378   23.6370 F   0  0  0  0  0  0  0  0  0  0  0  0
  -24.1221  -22.3511   22.6273 F   0  0  0  0  0  0  0  0  0  0  0  0
  -25.7326  -33.2468   24.7196 F   0  0  0  0  0  0  0  0  0  0  0  0
  1  2  1  0  0  0  0
  1  5  2  0  0  0  0
  2  6  2  0  0  0  0
  3 10  2  0  0  0  0
  3 18  1  0  0  0  0
  4 11  1  0  0  0  0
  4 18  2  0  0  0  0
  5 20  1  0  0  0  0
  6 22  1  0  0  0  0
  7 12  2  0  0  0  0
  7 21  1  0  0  0  0
  8  9  2  0  0  0  0
  8 24  1  0  0  0  0
  9 25  1  0  0  0  0
 10 26  1  0  0  0  0
 11 26  2  0  0  0  0
 12 27  1  0  0  0  0
 13 14  2  0  0  0  0
 13 28  1  0  0  0  0
 14 29  1  0  0  0  0
 15 23  1  0  0  0  0
 15 27  2  0  0  0  0
 16 24  2  0  0  0  0
 16 30  1  0  0  0  0
 17 29  2  0  0  0  0
 17 31  1  0  0  0  0
 18 32  1  0  0  0  0
 19 32  1  0  0  0  0
 19 33  2  0  0  0  0
 19 34  1  0  0  0  0
 20 22  2  0  0  0  0
 20 40  1  0  0  0  0
 21 23  2  0  0  0  0
 21 41  1  0  0  0  0
 22 49  1  0  0  0  0
 23 42  1  0  0  0  0
 24 69  1  0  0  0  0
 25 30  2  0  0  0  0
 25 70  1  0  0  0  0
 26 80  1  0  0  0  0
 27 81  1  0  0  0  0
 28 31  2  0  0  0  0
 28 80  1  0  0  0  0
 29 82  1  0  0  0  0
 30 83  1  0  0  0  0
 31 84  1  0  0  0  0
 32 63  2  0  0  0  0
 33 64  1  0  0  0  0
 33 67  1  0  0  0  0
 34 68  1  0  0  0  0
 34 74  2  0  0  0  0
 35 50  1  0  0  0  0
 35 71  1  0  0  0  0
 35 75  2  0  0  0  0
 36 60  1  0  0  0  0
 36 65  1  0  0  0  0
 36 76  2  0  0  0  0
 37 57  1  0  0  0  0
 37 69  1  0  0  0  0
 37 77  2  0  0  0  0
 38 61  1  0  0  0  0
 38 72  1  0  0  0  0
 38 78  2  0  0  0  0
 39 66  1  0  0  0  0
 39 70  1  0  0  0  0
 39 79  2  0  0  0  0
 40 43  1  0  0  0  0
 41 50  1  0  0  0  0
 42 65  1  0  0  0  0
 43 45  1  0  0  0  0
 44 46  1  0  0  0  0
 44 47  1  0  0  0  0
 45 49  1  0  0  0  0
 46 51  1  0  0  0  0
 47 66  1  0  0  0  0
 48 51  1  0  0  0  0
 48 66  1  0  0  0  0
 49 71  1  0  0  0  0
 50 65  1  0  0  0  0
 51 64  1  0  0  0  0
 52 61  1  0  0  0  0
 53 62  1  0  0  0  0
 54 62  1  0  0  0  0
 55 62  1  0  0  0  0
 56 73  1  0  0  0  0
 57 58  1  0  0  0  0
 58 59  1  0  0  0  0
 59 81  1  0  0  0  0
 60 62  1  0  0  0  0
 60 72  1  0  0  0  0
 61 73  1  0  0  0  0
 63 64  1  0  0  0  0
M  CHG  1  73   1
M  ISO  4  39 100  59 101  70 100  81 101
M  END
> <Batch ID>
0105

> <Smiles>
CNC(C)C(=O)NC(C(=O)N1Cc2cc([101O:1][101CH2:1]CCC(=O)Nc3ccc([100NH:0][100C:0](=O)N4CCCC(n5nc(-c6ccc(Oc7ccc(F)cc7F)cc6)c(C(N)=O)c5N)C4)c(F)c3)ccc2CC1C(=O)NC1CCCc2ccccc21)C(C)(C)C

> <Shape>
0.226

> <Color>
0.063

> <Negative vol penalty>
0.000

$$$$

  -OEChem-04052301113D

 88 97  0     1  0  0  0  0  0999 V2000
  -27.6703  -36.8003   23.0466 C   0  0  0  0  0  0  0  0  0  0  0  0
  -28.1141  -35.5676   22.5788 C   0  0  0  0  0  0  0  0  0  0  0  0
  -22.7280  -10.6660   20.7751 C   0  0  0  0  0  0  0  0  0  0  0  0
  -24.5248   -9.2029   21.4593 C   0  0  0  0  0  0  0  0  0  0  0  0
  -26.5463  -36.8691   23.8686 C   0  0  0  0  0  0  0  0  0  0  0  0
  -27.4346  -34.4027   22.9336 C   0  0  0  0  0  0  0  0  0  0  0  0
  -26.6375  -29.4085   19.4799 C   0  0  0  0  0  0  0  0  0  0  0  0
  -21.8896  -10.0798   21.7232 C   0  0  0  0  0  0  0  0  0  0  0  0
  -23.6863   -8.6167   22.4075 C   0  0  0  0  0  0  0  0  0  0  0  0
  -27.3026  -28.1840   19.4338 C   0  0  0  0  0  0  0  0  0  0  0  0
  -21.2004   -6.3258   22.4578 C   0  0  0  0  0  0  0  0  0  0  0  0
  -21.2035   -4.9342   22.5536 C   0  0  0  0  0  0  0  0  0  0  0  0
  -25.6285  -27.2269   20.8831 C   0  0  0  0  0  0  0  0  0  0  0  0
  -28.4173  -18.3312   22.0354 C   0  0  0  0  0  0  0  0  0  0  0  0
  -29.2788  -19.9657   19.9452 C   0  0  0  0  0  0  0  0  0  0  0  0
  -21.9163   -5.0944   24.8565 C   0  0  0  0  0  0  0  0  0  0  0  0
  -24.0456  -10.2275   20.6431 C   0  0  0  0  0  0  0  0  0  0  0  0
  -24.7216  -10.8720   18.2692 C   0  0  0  0  0  0  0  0  0  0  0  0
  -25.8470  -35.7055   24.2258 C   0  0  0  0  0  0  0  0  0  0  0  0
  -25.4669  -29.5545   20.2381 C   0  0  0  0  0  0  0  0  0  0  0  0
  -26.3009  -34.4559   23.7622 C   0  0  0  0  0  0  0  0  0  0  0  0
  -24.9490  -28.4536   20.9351 C   0  0  0  0  0  0  0  0  0  0  0  0
  -28.5597  -17.8048   20.7516 C   0  0  0  0  0  0  0  0  0  0  0  0
  -28.7056  -19.6750   22.2741 C   0  0  0  0  0  0  0  0  0  0  0  0
  -28.9904  -18.6220   19.7065 C   0  0  0  0  0  0  0  0  0  0  0  0
  -29.1364  -20.4922   21.2290 C   0  0  0  0  0  0  0  0  0  0  0  0
  -22.3687   -9.0552   22.5394 C   0  0  0  0  0  0  0  0  0  0  0  0
  -26.7997  -27.0938   20.1378 C   0  0  0  0  0  0  0  0  0  0  0  0
  -21.5553   -7.1017   23.5614 C   0  0  0  0  0  0  0  0  0  0  0  0
  -21.5614   -4.3185   23.7530 C   0  0  0  0  0  0  0  0  0  0  0  0
  -21.9132   -6.4859   24.7607 C   0  0  0  0  0  0  0  0  0  0  0  0
  -24.9120  -10.8323   19.6634 C   0  0  0  0  0  0  0  0  0  0  0  0
  -25.8146  -11.5537   17.7926 C   0  0  0  0  0  0  0  0  0  0  0  0
  -28.4575  -22.8476   21.3267 C   0  0  0  0  0  0  0  0  0  0  0  0
  -28.5601  -24.1897   21.3616 C   0  0  0  0  0  0  0  0  0  0  0  0
  -30.8741  -24.3649   20.5251 C   0  0  0  0  0  0  0  0  0  0  0  0
  -23.6523  -10.3403   17.4758 C   0  0  0  0  0  0  0  0  0  0  0  0
  -24.6166  -31.3328   22.7317 C   0  0  0  0  0  0  0  0  0  0  0  0
  -29.4982  -15.5377   20.3754 C   0  0  0  0  0  0  0  0  0  0  0  0
  -21.6941  -30.0480   22.1565 C   0  0  0  0  0  0  0  0  0  0  0  0
  -18.5334  -28.7620   22.1068 C   0  0  0  0  0  0  0  0  0  0  0  0
  -24.6652  -35.8253   25.1551 C   0  0  0  0  0  0  0  0  0  0  0  0
  -24.7466  -30.8748   20.2560 C   0  0  0  0  0  0  0  0  0  0  0  0
  -23.6846  -28.5527   21.7475 C   0  0  0  0  0  0  0  0  0  0  0  0
  -29.8641  -24.9222   21.5039 C   0  0  0  0  0  0  0  0  0  0  0  0
  -31.5340  -23.0367   20.8362 C   0  0  0  0  0  0  0  0  0  0  0  0
  -23.7808  -34.5812   25.1793 C   0  0  0  0  0  0  0  0  0  0  0  0
  -30.3994  -12.4560   18.7844 C   0  0  0  0  0  0  0  0  0  0  0  0
  -24.6334  -33.3226   25.3051 C   0  0  0  0  0  0  0  0  0  0  0  0
  -29.0827  -11.6824   18.7286 C   0  0  0  0  0  0  0  0  0  0  0  0
  -30.8135  -22.1725   21.8697 C   0  0  0  0  0  0  0  0  0  0  0  0
  -30.4981  -13.2994   20.0517 C   0  0  0  0  0  0  0  0  0  0  0  0
  -28.0335  -13.4658   20.1928 C   0  0  0  0  0  0  0  0  0  0  0  0
  -25.5760  -33.1725   24.1050 C   0  0  1  0  0  0  0  0  0  0  0  0
  -23.8450  -31.0471   21.4745 C   0  0  1  0  0  0  0  0  0  0  0  0
  -27.8799  -12.6244   18.9133 C   0  0  2  0  0  0  0  0  0  0  0  0
  -28.5419  -20.2132   23.6583 C   0  0  0  0  0  0  0  0  0  0  0  0
  -29.1492  -18.0805   18.3238 C   0  0  0  0  0  0  0  0  0  0  0  0
  -16.5276  -28.4076   23.5726 C   0  0  0  0  0  0  0  0  0  0  0  0
  -23.1161  -27.7282   23.5373 C   0  0  0  0  0  0  0  0  0  0  0  0
  -20.8734  -26.8577   24.2309 C   0  0  0  0  0  0  0  0  0  0  0  0
  -21.6458  -29.0897   25.0336 C   0  0  0  0  0  0  0  0  0  0  0  0
  -16.8211  -30.4343   20.3660 C   0  0  0  0  0  0  0  0  0  0  0  0
  -28.2446  -16.3633   20.5200 C   0  0  0  0  0  0  0  0  0  0  0  0
  -27.3385  -25.0587   21.2442 C   0  0  0  0  0  0  0  0  0  1  0  0
  -20.9609  -28.8110   22.6159 C   0  0  1  0  0  0  0  0  0  0  0  0
  -17.2064  -29.3322   22.5741 C   0  0  2  0  0  0  0  0  0  0  0  0
  -21.6550  -28.1261   23.8269 C   0  0  0  0  0  0  0  0  0  0  0  0
  -26.0375  -11.4402   20.0476 N   0  0  0  0  0  0  0  0  0  0  0  0
  -26.5642  -11.8683   18.8877 N   0  0  0  0  0  0  0  0  0  0  0  0
  -29.4337  -21.8634   21.4536 N   0  0  0  0  0  0  0  0  0  0  0  0
  -23.0201  -29.8664   21.7387 N   0  0  0  0  0  0  0  0  0  0  0  0
  -29.3264  -14.1641   20.2025 N   0  0  0  0  0  0  0  0  0  0  0  0
  -26.1980  -11.9086   16.5479 N   0  0  0  0  0  0  0  0  0  0  0  0
  -23.7669   -9.0298   16.9921 N   0  0  0  0  0  0  0  0  0  0  0  0
  -24.8532  -32.6760   22.9536 N   0  0  0  0  0  0  0  0  0  0  0  0
  -19.5848  -29.2231   22.8705 N   0  0  0  0  0  0  0  0  0  0  0  0
  -16.2896  -29.5271   21.4155 N   0  3  0  0  0  0  0  0  0  0  0  0
  -31.1716  -24.9845   19.5014 O   0  0  0  0  0  0  0  0  0  0  0  0
  -22.6329  -11.0131   17.1901 O   0  0  0  0  0  0  0  0  0  0  0  0
  -24.9698  -30.4035   23.4482 O   0  0  0  0  0  0  0  0  0  0  0  0
  -30.5963  -16.0990   20.4123 O   0  0  0  0  0  0  0  0  0  0  0  0
  -21.1095  -31.1343   22.1612 O   0  0  0  0  0  0  0  0  0  0  0  0
  -18.6274  -27.9823   21.1614 O   0  0  0  0  0  0  0  0  0  0  0  0
  -21.5509   -8.4831   23.4649 O   0  0  0  0  0  0  0  0  0  0  0  0
  -27.4473  -25.8977   20.0950 O   0  0  0  0  0  0  0  0  0  1  0  0
  -21.5629   -2.9822   23.8453 F   0  0  0  0  0  0  0  0  0  0  0  0
  -22.2540   -7.2261   25.8246 F   0  0  0  0  0  0  0  0  0  0  0  0
  1  2  1  0  0  0  0
  1  5  2  0  0  0  0
  2  6  2  0  0  0  0
  3  8  2  0  0  0  0
  3 17  1  0  0  0  0
  4  9  1  0  0  0  0
  4 17  2  0  0  0  0
  5 19  1  0  0  0  0
  6 21  1  0  0  0  0
  7 10  2  0  0  0  0
  7 20  1  0  0  0  0
  8 27  1  0  0  0  0
  9 27  2  0  0  0  0
 10 28  1  0  0  0  0
 11 12  2  0  0  0  0
 11 29  1  0  0  0  0
 12 30  1  0  0  0  0
 13 22  1  0  0  0  0
 13 28  2  0  0  0  0
 14 23  2  0  0  0  0
 14 24  1  0  0  0  0
 15 25  2  0  0  0  0
 15 26  1  0  0  0  0
 16 30  2  0  0  0  0
 16 31  1  0  0  0  0
 17 32  1  0  0  0  0
 18 32  1  0  0  0  0
 18 33  2  0  0  0  0
 18 37  1  0  0  0  0
 19 21  2  0  0  0  0
 19 42  1  0  0  0  0
 20 22  2  0  0  0  0
 20 43  1  0  0  0  0
 21 54  1  0  0  0  0
 22 44  1  0  0  0  0
 23 25  1  0  0  0  0
 23 64  1  0  0  0  0
 24 26  2  0  0  0  0
 24 57  1  0  0  0  0
 25 58  1  0  0  0  0
 26 71  1  0  0  0  0
 27 85  1  0  0  0  0
 28 86  1  0  0  0  0
 29 31  2  0  0  0  0
 29 85  1  0  0  0  0
 30 87  1  0  0  0  0
 31 88  1  0  0  0  0
 32 69  2  0  0  0  0
 33 70  1  0  0  0  0
 33 74  1  0  0  0  0
 34 35  2  0  0  0  0
 34 71  1  0  0  0  0
 35 45  1  0  0  0  0
 35 65  1  0  0  0  0
 36 45  1  0  0  0  0
 36 46  1  0  0  0  0
 36 79  2  0  0  0  0
 37 75  1  0  0  0  0
 37 80  2  0  0  0  0
 38 55  1  0  0  0  0
 38 76  1  0  0  0  0
 38 81  2  0  0  0  0
 39 64  1  0  0  0  0
 39 73  1  0  0  0  0
 39 82  2  0  0  0  0
 40 66  1  0  0  0  0
 40 72  1  0  0  0  0
 40 83  2  0  0  0  0
 41 67  1  0  0  0  0
 41 77  1  0  0  0  0
 41 84  2  0  0  0  0
 42 47  1  0  0  0  0
 43 55  1  0  0  0  0
 44 72  1  0  0  0  0
 46 51  1  0  0  0  0
 47 49  1  0  0  0  0
 48 50  1  0  0  0  0
 48 52  1  0  0  0  0
 49 54  1  0  0  0  0
 50 56  1  0  0  0  0
 51 71  1  0  0  0  0
 52 73  1  0  0  0  0
 53 56  1  0  0  0  0
 53 73  1  0  0  0  0
 54 76  1  0  0  0  0
 55 72  1  0  0  0  0
 56 70  1  0  0  0  0
 59 67  1  0  0  0  0
 60 68  1  0  0  0  0
 61 68  1  0  0  0  0
 62 68  1  0  0  0  0
 63 78  1  0  0  0  0
 65 86  1  0  0  0  0
 66 68  1  0  0  0  0
 66 77  1  0  0  0  0
 67 78  1  0  0  0  0
 69 70  1  0  0  0  0
M  CHG  1  78   1
M  ISO  4  39 100  64 100  65 101  86 101
M  END
> <Batch ID>
0105

> <Smiles>
CNC(C)C(=O)NC(C(=O)N1Cc2cc([101O:1][101CH2:1]C3=CN(c4cc(C)c([100CH2:0][100C:0](=O)N5CCCC(n6nc(-c7ccc(Oc8ccc(F)cc8F)cc7)c(C(N)=O)c6N)C5)cc4C)CCC(=O)C3)ccc2CC1C(=O)NC1CCCc2ccccc21)C(C)(C)C

> <Shape>
0.385

> <Color>
0.121

> <Negative vol penalty>
0.000

$$$$

  -OEChem-04052301113D

 84 92  0     1  0  0  0  0  0999 V2000
  -20.6644  -28.3173   27.0858 C   0  0  0  0  0  0  0  0  0  0  0  0
  -21.5657  -27.6641   26.2512 C   0  0  0  0  0  0  0  0  0  0  0  0
  -24.5179   -8.1680   20.4812 C   0  0  0  0  0  0  0  0  0  0  0  0
  -23.1909  -10.1696   20.7453 C   0  0  0  0  0  0  0  0  0  0  0  0
  -19.6769  -29.1356   26.5389 C   0  0  0  0  0  0  0  0  0  0  0  0
  -21.4792  -27.8279   24.8692 C   0  0  0  0  0  0  0  0  0  0  0  0
  -25.9971  -28.6094   22.7191 C   0  0  0  0  0  0  0  0  0  0  0  0
  -31.9014  -18.6503   18.8385 C   0  0  0  0  0  0  0  0  0  0  0  0
  -23.4439   -7.3972   20.9261 C   0  0  0  0  0  0  0  0  0  0  0  0
  -22.1168   -9.3988   21.1901 C   0  0  0  0  0  0  0  0  0  0  0  0
  -26.8130  -27.4950   22.5287 C   0  0  0  0  0  0  0  0  0  0  0  0
  -31.2459  -19.8512   19.1100 C   0  0  0  0  0  0  0  0  0  0  0  0
  -22.0085   -6.5951   23.8791 C   0  0  0  0  0  0  0  0  0  0  0  0
  -22.2733   -5.5938   24.8134 C   0  0  0  0  0  0  0  0  0  0  0  0
  -26.1399  -27.4053   20.2139 C   0  0  0  0  0  0  0  0  0  0  0  0
  -29.3439  -18.6226   19.9527 C   0  0  0  0  0  0  0  0  0  0  0  0
  -21.4346   -3.9334   23.2716 C   0  0  0  0  0  0  0  0  0  0  0  0
  -24.3915   -9.5542   20.3909 C   0  0  0  0  0  0  0  0  0  0  0  0
  -25.7915  -10.7191   18.6046 C   0  0  0  0  0  0  0  0  0  0  0  0
  -19.5843  -29.3172   25.1500 C   0  0  0  0  0  0  0  0  0  0  0  0
  -25.2369  -29.1244   21.6593 C   0  0  0  0  0  0  0  0  0  0  0  0
  -20.4887  -28.6484   24.3031 C   0  0  0  0  0  0  0  0  0  0  0  0
  -25.3172  -28.5279   20.3929 C   0  0  0  0  0  0  0  0  0  0  0  0
  -29.9994  -17.4216   19.6812 C   0  0  0  0  0  0  0  0  0  0  0  0
  -31.2781  -17.4355   19.1240 C   0  0  0  0  0  0  0  0  0  0  0  0
  -22.2433   -8.0126   21.2805 C   0  0  0  0  0  0  0  0  0  0  0  0
  -26.8822  -26.8910   21.2767 C   0  0  0  0  0  0  0  0  0  0  0  0
  -29.9672  -19.8374   19.6671 C   0  0  0  0  0  0  0  0  0  0  0  0
  -21.4566   -6.2656   22.6411 C   0  0  0  0  0  0  0  0  0  0  0  0
  -21.9864   -4.2629   24.5096 C   0  0  0  0  0  0  0  0  0  0  0  0
  -21.1697   -4.9348   22.3374 C   0  0  0  0  0  0  0  0  0  0  0  0
  -25.5008  -10.3511   19.9320 C   0  0  0  0  0  0  0  0  0  0  0  0
  -26.9387  -11.4683   18.6994 C   0  0  0  0  0  0  0  0  0  0  0  0
  -25.0873  -10.4114   17.3942 C   0  0  0  0  0  0  0  0  0  0  0  0
  -22.1304  -29.5093   21.1068 C   0  0  0  0  0  0  0  0  0  0  0  0
  -27.7473  -23.4661   20.4504 C   0  0  0  0  0  0  0  0  0  0  0  0
  -29.8703  -15.4963   21.2431 C   0  0  0  0  0  0  0  0  0  0  0  0
  -23.1899  -31.0469   18.4543 C   0  0  0  0  0  0  0  0  0  0  0  0
  -25.6836  -31.4973   16.1684 C   0  0  0  0  0  0  0  0  0  0  0  0
  -18.4705  -30.1742   24.6026 C   0  0  0  0  0  0  0  0  0  0  0  0
  -24.3823  -30.3434   21.8744 C   0  0  0  0  0  0  0  0  0  0  0  0
  -24.5366  -29.0545   19.2174 C   0  0  0  0  0  0  0  0  0  0  0  0
  -18.6810  -30.5916   23.1494 C   0  0  0  0  0  0  0  0  0  0  0  0
  -30.1095  -12.1751   22.5666 C   0  0  0  0  0  0  0  0  0  0  0  0
  -19.1090  -29.3942   22.3067 C   0  0  0  0  0  0  0  0  0  0  0  0
  -28.9378  -11.4431   21.9135 C   0  0  0  0  0  0  0  0  0  0  0  0
  -29.7632  -13.6309   22.8627 C   0  0  0  0  0  0  0  0  0  0  0  0
  -28.1172  -13.6670   21.0158 C   0  0  0  0  0  0  0  0  0  0  0  0
  -20.4427  -28.8206   22.8004 C   0  0  1  0  0  0  0  0  0  0  0  0
  -23.2563  -30.4714   20.8531 C   0  0  1  0  0  0  0  0  0  0  0  0
  -28.4354  -12.2011   20.6719 C   0  0  2  0  0  0  0  0  0  0  0  0
  -26.2437  -32.7936   14.0940 C   0  0  0  0  0  0  0  0  0  0  0  0
  -21.3905  -29.2034   16.8193 C   0  0  0  0  0  0  0  0  0  0  0  0
  -22.6760  -29.8739   14.7781 C   0  0  0  0  0  0  0  0  0  0  0  0
  -21.4008  -31.5881   16.0659 C   0  0  0  0  0  0  0  0  0  0  0  0
  -27.9863  -32.8187   17.4761 C   0  0  0  0  0  0  0  0  0  0  0  0
  -29.3087  -16.1351   19.9978 C   0  0  0  0  0  0  0  0  0  0  0  0
  -27.3776  -22.3733   19.4584 C   0  0  0  0  0  0  0  0  0  0  0  0
  -27.2643  -24.8601   20.0998 C   0  0  0  0  0  0  0  0  0  1  0  0
  -27.9028  -21.0024   19.8594 C   0  0  0  0  0  0  0  0  0  0  0  0
  -23.5285  -30.6335   17.0425 C   0  0  1  0  0  0  0  0  0  0  0  0
  -26.3249  -32.7557   15.6121 C   0  0  2  0  0  0  0  0  0  0  0  0
  -22.2623  -30.3134   16.1989 C   0  0  0  0  0  0  0  0  0  0  0  0
  -26.3917  -10.8270   20.8059 N   0  0  0  0  0  0  0  0  0  0  0  0
  -27.2534  -11.5018   20.0261 N   0  0  0  0  0  0  0  0  0  0  0  0
  -23.7105  -30.2446   19.4796 N   0  0  0  0  0  0  0  0  0  0  0  0
  -29.2689  -14.3100   21.6636 N   0  0  0  0  0  0  0  0  0  0  0  0
  -31.9570  -16.2297   18.8426 N   0  0  0  0  0  0  0  0  0  0  0  0
  -27.6990  -12.0949   17.7766 N   0  0  0  0  0  0  0  0  0  0  0  0
  -23.9266   -9.6301   17.4766 N   0  0  0  0  0  0  0  0  0  0  0  0
  -21.5444  -29.6444   22.3509 N   0  0  0  0  0  0  0  0  0  0  0  0
  -24.3588  -31.6998   16.4929 N   0  0  0  0  0  0  0  0  0  0  0  0
  -27.7601  -32.8241   16.0079 N   0  3  0  0  0  0  0  0  0  0  0  0
  -25.4850  -10.8035   16.2709 O   0  0  0  0  0  0  0  0  0  0  0  0
  -21.8156  -28.7049   20.2375 O   0  0  0  0  0  0  0  0  0  0  0  0
  -28.3927  -23.2432   21.4734 O   0  0  0  0  0  0  0  0  0  0  0  0
  -30.8172  -16.0356   21.8217 O   0  0  0  0  0  0  0  0  0  0  0  0
  -22.4953  -32.0491   18.6409 O   0  0  0  0  0  0  0  0  0  0  0  0
  -26.2955  -30.4393   16.2982 O   0  0  0  0  0  0  0  0  0  0  0  0
  -21.1950   -7.2608   21.7144 O   0  0  0  0  0  0  0  0  0  0  0  0
  -27.6773  -25.8028   21.0883 O   0  0  0  0  0  0  0  0  0  1  0  0
  -29.3231  -21.0171   19.9332 O   0  0  0  0  0  0  0  0  0  0  0  0
  -22.2423   -3.3013   25.4063 F   0  0  0  0  0  0  0  0  0  0  0  0
  -20.6406   -4.6120   21.1492 F   0  0  0  0  0  0  0  0  0  0  0  0
  1  2  1  0  0  0  0
  1  5  2  0  0  0  0
  2  6  2  0  0  0  0
  3  9  2  0  0  0  0
  3 18  1  0  0  0  0
  4 10  1  0  0  0  0
  4 18  2  0  0  0  0
  5 20  1  0  0  0  0
  6 22  1  0  0  0  0
  7 11  2  0  0  0  0
  7 21  1  0  0  0  0
  8 12  2  0  0  0  0
  8 25  1  0  0  0  0
  9 26  1  0  0  0  0
 10 26  2  0  0  0  0
 11 27  1  0  0  0  0
 12 28  1  0  0  0  0
 13 14  2  0  0  0  0
 13 29  1  0  0  0  0
 14 30  1  0  0  0  0
 15 23  1  0  0  0  0
 15 27  2  0  0  0  0
 16 24  1  0  0  0  0
 16 28  2  0  0  0  0
 17 30  2  0  0  0  0
 17 31  1  0  0  0  0
 18 32  1  0  0  0  0
 19 32  1  0  0  0  0
 19 33  2  0  0  0  0
 19 34  1  0  0  0  0
 20 22  2  0  0  0  0
 20 40  1  0  0  0  0
 21 23  2  0  0  0  0
 21 41  1  0  0  0  0
 22 49  1  0  0  0  0
 23 42  1  0  0  0  0
 24 25  2  0  0  0  0
 24 57  1  0  0  0  0
 25 68  1  0  0  0  0
 26 80  1  0  0  0  0
 27 81  1  0  0  0  0
 28 82  1  0  0  0  0
 29 31  2  0  0  0  0
 29 80  1  0  0  0  0
 30 83  1  0  0  0  0
 31 84  1  0  0  0  0
 32 64  2  0  0  0  0
 33 65  1  0  0  0  0
 33 69  1  0  0  0  0
 34 70  1  0  0  0  0
 34 74  2  0  0  0  0
 35 50  1  0  0  0  0
 35 71  1  0  0  0  0
 35 75  2  0  0  0  0
 36 58  1  0  0  0  0
 36 59  1  0  0  0  0
 36 76  2  0  0  0  0
 37 57  1  0  0  0  0
 37 67  1  0  0  0  0
 37 77  2  0  0  0  0
 38 61  1  0  0  0  0
 38 66  1  0  0  0  0
 38 78  2  0  0  0  0
 39 62  1  0  0  0  0
 39 72  1  0  0  0  0
 39 79  2  0  0  0  0
 40 43  1  0  0  0  0
 41 50  1  0  0  0  0
 42 66  1  0  0  0  0
 43 45  1  0  0  0  0
 44 46  1  0  0  0  0
 44 47  1  0  0  0  0
 45 49  1  0  0  0  0
 46 51  1  0  0  0  0
 47 67  1  0  0  0  0
 48 51  1  0  0  0  0
 48 67  1  0  0  0  0
 49 71  1  0  0  0  0
 50 66  1  0  0  0  0
 51 65  1  0  0  0  0
 52 62  1  0  0  0  0
 53 63  1  0  0  0  0
 54 63  1  0  0  0  0
 55 63  1  0  0  0  0
 56 73  1  0  0  0  0
 58 60  1  0  0  0  0
 59 81  1  0  0  0  0
 60 82  1  0  0  0  0
 61 63  1  0  0  0  0
 61 72  1  0  0  0  0
 62 73  1  0  0  0  0
 64 65  1  0  0  0  0
M  CHG  1  73   1
M  ISO  4  37 100  57 100  59 101  81 101
M  END
> <Batch ID>
0105

> <Smiles>
CNC(C)C(=O)NC(C(=O)N1Cc2cc([101O:1][101CH2:1]C(=O)CCOc3ccc(N)c([100CH2:0][100C:0](=O)N4CCCC(n5nc(-c6ccc(Oc7ccc(F)cc7F)cc6)c(C(N)=O)c5N)C4)c3)ccc2CC1C(=O)NC1CCCc2ccccc21)C(C)(C)C

> <Shape>
0.260

> <Color>
0.102

> <Negative vol penalty>
0.000

$$$$

  -OEChem-04052301113D

 88 97  0     1  0  0  0  0  0999 V2000
  -30.4296  -35.4960   20.2975 C   0  0  0  0  0  0  0  0  0  0  0  0
  -30.3094  -34.1257   20.5054 C   0  0  0  0  0  0  0  0  0  0  0  0
  -26.0358   -9.7907   21.0288 C   0  0  0  0  0  0  0  0  0  0  0  0
  -27.5497  -11.2655   22.1993 C   0  0  0  0  0  0  0  0  0  0  0  0
  -29.5102  -36.3708   20.8748 C   0  0  0  0  0  0  0  0  0  0  0  0
  -29.2702  -33.6295   21.2917 C   0  0  0  0  0  0  0  0  0  0  0  0
  -27.0109  -29.6036   19.2103 C   0  0  0  0  0  0  0  0  0  0  0  0
  -26.0661  -20.1120   18.9295 C   0  0  0  0  0  0  0  0  0  0  0  0
  -25.2401  -19.2305   18.2321 C   0  0  0  0  0  0  0  0  0  0  0  0
  -26.8211   -8.6966   21.3917 C   0  0  0  0  0  0  0  0  0  0  0  0
  -28.3350  -10.1713   22.5623 C   0  0  0  0  0  0  0  0  0  0  0  0
  -27.6676  -28.3785   19.3178 C   0  0  0  0  0  0  0  0  0  0  0  0
  -28.6242   -5.5545   21.7075 C   0  0  0  0  0  0  0  0  0  0  0  0
  -28.9127   -4.6071   20.7253 C   0  0  0  0  0  0  0  0  0  0  0  0
  -26.2263  -27.7739   21.1553 C   0  0  0  0  0  0  0  0  0  0  0  0
  -26.7375  -21.1323   16.8450 C   0  0  0  0  0  0  0  0  0  0  0  0
  -29.9999   -6.3107   19.4014 C   0  0  0  0  0  0  0  0  0  0  0  0
  -26.4002  -11.0752   21.4325 C   0  0  0  0  0  0  0  0  0  0  0  0
  -24.2359  -12.4245   21.3756 C   0  0  0  0  0  0  0  0  0  0  0  0
  -28.4535  -35.8844   21.6607 C   0  0  0  0  0  0  0  0  0  0  0  0
  -25.9623  -29.9281   20.0829 C   0  0  0  0  0  0  0  0  0  0  0  0
  -28.3366  -34.4987   21.8812 C   0  0  0  0  0  0  0  0  0  0  0  0
  -25.5561  -29.0027   21.0550 C   0  0  0  0  0  0  0  0  0  0  0  0
  -26.8148  -21.0629   18.2360 C   0  0  0  0  0  0  0  0  0  0  0  0
  -25.1629  -19.2999   16.8411 C   0  0  0  0  0  0  0  0  0  0  0  0
  -27.9706   -8.8868   22.1585 C   0  0  0  0  0  0  0  0  0  0  0  0
  -27.2773  -27.4646   20.2923 C   0  0  0  0  0  0  0  0  0  0  0  0
  -29.0234   -6.8801   21.5367 C   0  0  0  0  0  0  0  0  0  0  0  0
  -25.9116  -20.2508   16.1475 C   0  0  0  0  0  0  0  0  0  0  0  0
  -29.6005   -4.9851   19.5723 C   0  0  0  0  0  0  0  0  0  0  0  0
  -29.7113   -7.2581   20.3836 C   0  0  0  0  0  0  0  0  0  0  0  0
  -25.5897  -12.2060   21.0575 C   0  0  0  0  0  0  0  0  0  0  0  0
  -23.9362  -13.6308   20.7913 C   0  0  0  0  0  0  0  0  0  0  0  0
  -28.4965  -24.2130   19.3018 C   0  0  0  0  0  0  0  0  0  0  0  0
  -27.5064  -23.3802   18.9024 C   0  0  0  0  0  0  0  0  0  0  0  0
  -28.7450  -21.3970   19.6797 C   0  0  0  0  0  0  0  0  0  0  0  0
  -23.3302  -11.6098   22.1318 C   0  0  0  0  0  0  0  0  0  0  0  0
  -25.4757  -32.1913   22.2611 C   0  0  0  0  0  0  0  0  0  0  0  0
  -22.5064  -30.8910   22.3823 C   0  0  0  0  0  0  0  0  0  0  0  0
  -21.0805  -27.5768   22.3710 C   0  0  0  0  0  0  0  0  0  0  0  0
  -24.0426  -17.0875   16.6376 C   0  0  0  0  0  0  0  0  0  0  0  0
  -27.5119  -36.8721   22.3028 C   0  0  0  0  0  0  0  0  0  0  0  0
  -25.2464  -31.2428   19.9365 C   0  0  0  0  0  0  0  0  0  0  0  0
  -24.4228  -29.2945   22.0032 C   0  0  0  0  0  0  0  0  0  0  0  0
  -29.7699  -23.6624   19.8774 C   0  0  0  0  0  0  0  0  0  0  0  0
  -29.4988  -22.3492   20.5771 C   0  0  0  0  0  0  0  0  0  0  0  0
  -26.2209  -36.2385   22.8148 C   0  0  0  0  0  0  0  0  0  0  0  0
  -26.9297  -17.1269   18.7127 C   0  0  0  0  0  0  0  0  0  0  0  0
  -26.5250  -34.9652   23.5977 C   0  0  0  0  0  0  0  0  0  0  0  0
  -26.7315  -15.8525   19.5326 C   0  0  0  0  0  0  0  0  0  0  0  0
  -26.5092  -16.9406   17.2544 C   0  0  0  0  0  0  0  0  0  0  0  0
  -24.9329  -15.1482   17.9077 C   0  0  0  0  0  0  0  0  0  0  0  0
  -27.2084  -33.9202   22.7075 C   0  0  1  0  0  0  0  0  0  0  0  0
  -24.5307  -31.6786   21.2114 C   0  0  1  0  0  0  0  0  0  0  0  0
  -25.2935  -15.3230   19.3912 C   0  0  1  0  0  0  0  0  0  0  0  0
  -26.1695  -23.9303   18.4557 C   0  0  0  0  0  0  0  0  0  0  0  0
  -18.8294  -26.7717   21.6082 C   0  0  0  0  0  0  0  0  0  0  0  0
  -21.7083  -31.2531   25.3049 C   0  0  0  0  0  0  0  0  0  0  0  0
  -20.3326  -29.1699   25.1149 C   0  0  0  0  0  0  0  0  0  0  0  0
  -19.7894  -31.1542   23.7041 C   0  0  0  0  0  0  0  0  0  0  0  0
  -23.5116  -18.8868   15.0079 C   0  0  0  0  0  0  0  0  0  0  0  0
  -22.2837  -25.5866   20.5406 C   0  0  0  0  0  0  0  0  0  0  0  0
  -28.4646  -25.7148   19.2040 C   0  0  0  0  0  0  0  0  0  1  0  0
  -21.8532  -29.7901   23.1825 C   0  0  1  0  0  0  0  0  0  0  0  0
  -20.2976  -26.9281   21.2438 C   0  0  2  0  0  0  0  0  0  0  0  0
  -20.9487  -30.3414   24.3207 C   0  0  0  0  0  0  0  0  0  0  0  0
  -26.1138  -13.1942   20.3275 N   0  0  0  0  0  0  0  0  0  0  0  0
  -25.0840  -14.0453   20.1821 N   0  0  0  0  0  0  0  0  0  0  0  0
  -27.6709  -21.9755   18.9588 N   0  0  0  0  0  0  0  0  0  0  0  0
  -23.7583  -30.5961   21.8243 N   0  0  0  0  0  0  0  0  0  0  0  0
  -25.1467  -16.3959   17.1705 N   0  0  0  0  0  0  0  0  0  0  0  0
  -22.8055  -14.3668   20.7443 N   0  0  0  0  0  0  0  0  0  0  0  0
  -23.2448  -11.8136   23.5158 N   0  0  0  0  0  0  0  0  0  0  0  0
  -26.2370  -33.2703   21.8541 N   0  0  0  0  0  0  0  0  0  0  0  0
  -21.1544  -28.9453   22.2200 N   0  0  0  0  0  0  0  0  0  0  0  0
  -24.3041  -18.3797   16.1334 N   0  0  0  0  0  0  0  0  0  0  0  0
  -20.8520  -25.5792   20.9373 N   0  3  0  0  0  0  0  0  0  0  0  0
  -29.0704  -20.2078   19.6587 O   0  0  0  0  0  0  0  0  0  0  0  0
  -22.6299  -10.7162   21.5984 O   0  0  0  0  0  0  0  0  0  0  0  0
  -25.5103  -31.6492   23.3595 O   0  0  0  0  0  0  0  0  0  0  0  0
  -21.9238  -31.9704   22.2510 O   0  0  0  0  0  0  0  0  0  0  0  0
  -21.5738  -26.9341   23.2952 O   0  0  0  0  0  0  0  0  0  0  0  0
  -22.9155  -16.5800   16.5916 O   0  0  0  0  0  0  0  0  0  0  0  0
  -25.8521  -20.3344   14.7883 O   0  0  0  0  0  0  0  0  0  0  0  0
  -28.7370   -7.8193   22.5131 O   0  0  0  0  0  0  0  0  0  0  0  0
  -27.9171  -26.2684   20.3999 O   0  0  0  0  0  0  0  0  0  1  0  0
  -29.8789   -4.0749   18.6298 F   0  0  0  0  0  0  0  0  0  0  0  0
  -30.0985   -8.5298   20.2144 F   0  0  0  0  0  0  0  0  0  0  0  0
  1  2  1  0  0  0  0
  1  5  2  0  0  0  0
  2  6  2  0  0  0  0
  3 10  2  0  0  0  0
  3 18  1  0  0  0  0
  4 11  1  0  0  0  0
  4 18  2  0  0  0  0
  5 20  1  0  0  0  0
  6 22  1  0  0  0  0
  7 12  2  0  0  0  0
  7 21  1  0  0  0  0
  8  9  2  0  0  0  0
  8 24  1  0  0  0  0
  9 25  1  0  0  0  0
 10 26  1  0  0  0  0
 11 26  2  0  0  0  0
 12 27  1  0  0  0  0
 13 14  2  0  0  0  0
 13 28  1  0  0  0  0
 14 30  1  0  0  0  0
 15 23  1  0  0  0  0
 15 27  2  0  0  0  0
 16 24  2  0  0  0  0
 16 29  1  0  0  0  0
 17 30  2  0  0  0  0
 17 31  1  0  0  0  0
 18 32  1  0  0  0  0
 19 32  1  0  0  0  0
 19 33  2  0  0  0  0
 19 37  1  0  0  0  0
 20 22  2  0  0  0  0
 20 42  1  0  0  0  0
 21 23  2  0  0  0  0
 21 43  1  0  0  0  0
 22 53  1  0  0  0  0
 23 44  1  0  0  0  0
 24 69  1  0  0  0  0
 25 29  2  0  0  0  0
 25 76  1  0  0  0  0
 26 85  1  0  0  0  0
 27 86  1  0  0  0  0
 28 31  2  0  0  0  0
 28 85  1  0  0  0  0
 29 84  1  0  0  0  0
 30 87  1  0  0  0  0
 31 88  1  0  0  0  0
 32 67  2  0  0  0  0
 33 68  1  0  0  0  0
 33 72  1  0  0  0  0
 34 35  2  0  0  0  0
 34 45  1  0  0  0  0
 34 63  1  0  0  0  0
 35 56  1  0  0  0  0
 35 69  1  0  0  0  0
 36 46  1  0  0  0  0
 36 69  1  0  0  0  0
 36 78  2  0  0  0  0
 37 73  1  0  0  0  0
 37 79  2  0  0  0  0
 38 54  1  0  0  0  0
 38 74  1  0  0  0  0
 38 80  2  0  0  0  0
 39 64  1  0  0  0  0
 39 70  1  0  0  0  0
 39 81  2  0  0  0  0
 40 65  1  0  0  0  0
 40 75  1  0  0  0  0
 40 82  2  0  0  0  0
 41 71  1  0  0  0  0
 41 76  1  0  0  0  0
 41 83  2  0  0  0  0
 42 47  1  0  0  0  0
 43 54  1  0  0  0  0
 44 70  1  0  0  0  0
 45 46  1  0  0  0  0
 47 49  1  0  0  0  0
 48 50  1  0  0  0  0
 48 51  1  0  0  0  0
 49 53  1  0  0  0  0
 50 55  1  0  0  0  0
 51 71  1  0  0  0  0
 52 55  1  0  0  0  0
 52 71  1  0  0  0  0
 53 74  1  0  0  0  0
 54 70  1  0  0  0  0
 55 68  1  0  0  0  0
 57 65  1  0  0  0  0
 58 66  1  0  0  0  0
 59 66  1  0  0  0  0
 60 66  1  0  0  0  0
 61 76  1  0  0  0  0
 62 77  1  0  0  0  0
 63 86  1  0  0  0  0
 64 66  1  0  0  0  0
 64 75  1  0  0  0  0
 65 77  1  0  0  0  0
 67 68  1  0  0  0  0
M  CHG  1  77   1
M  ISO  4  41 100  63 101  76 100  86 101
M  END
> <Batch ID>
0105

> <Smiles>
CNC(C)C(=O)NC(C(=O)N1Cc2cc([101O:1][101CH2:1]C3=C(C)N(c4ccc([100N:0](C)[100C:0](=O)N5CCCC(n6nc(-c7ccc(Oc8ccc(F)cc8F)cc7)c(C(N)=O)c6N)C5)c(O)c4)C(=O)CC3)ccc2CC1C(=O)NC1CCCc2ccccc21)C(C)(C)C

> <Shape>
0.224

> <Color>
0.104

> <Negative vol penalty>
0.000

$$$$

  -OEChem-04052301113D

 88 97  0     1  0  0  0  0  0999 V2000
  -34.5131  -24.6735   20.2289 C   0  0  0  0  0  0  0  0  0  0  0  0
  -33.7552  -25.4519   19.3613 C   0  0  0  0  0  0  0  0  0  0  0  0
  -27.4136  -15.0847   19.5334 C   0  0  0  0  0  0  0  0  0  0  0  0
  -27.1227  -16.9154   21.0829 C   0  0  0  0  0  0  0  0  0  0  0  0
  -33.9451  -24.1977   21.4089 C   0  0  0  0  0  0  0  0  0  0  0  0
  -32.4330  -25.7645   19.6790 C   0  0  0  0  0  0  0  0  0  0  0  0
  -25.2001  -28.9370   18.7606 C   0  0  0  0  0  0  0  0  0  0  0  0
  -17.7187  -22.5163   21.2320 C   0  0  0  0  0  0  0  0  0  0  0  0
  -18.0339  -23.8747   21.1991 C   0  0  0  0  0  0  0  0  0  0  0  0
  -28.7346  -15.4770   19.3177 C   0  0  0  0  0  0  0  0  0  0  0  0
  -28.4438  -17.3078   20.8672 C   0  0  0  0  0  0  0  0  0  0  0  0
  -23.8800  -28.8429   19.1991 C   0  0  0  0  0  0  0  0  0  0  0  0
  -30.1901  -18.9896   18.5108 C   0  0  0  0  0  0  0  0  0  0  0  0
  -30.4386  -20.3477   18.3126 C   0  0  0  0  0  0  0  0  0  0  0  0
  -24.6230  -29.1233   21.4769 C   0  0  0  0  0  0  0  0  0  0  0  0
  -19.3348  -23.6217   23.2192 C   0  0  0  0  0  0  0  0  0  0  0  0
  -31.8790  -20.3671   20.2523 C   0  0  0  0  0  0  0  0  0  0  0  0
  -26.6076  -15.8039   20.4159 C   0  0  0  0  0  0  0  0  0  0  0  0
  -24.7936  -14.1632   21.1405 C   0  0  0  0  0  0  0  0  0  0  0  0
  -32.6114  -24.4947   21.7344 C   0  0  0  0  0  0  0  0  0  0  0  0
  -26.2444  -29.1144   19.6795 C   0  0  0  0  0  0  0  0  0  0  0  0
  -31.8491  -25.3136   20.8766 C   0  0  0  0  0  0  0  0  0  0  0  0
  -25.9552  -29.2220   21.0473 C   0  0  0  0  0  0  0  0  0  0  0  0
  -18.2115  -21.7106   22.2585 C   0  0  0  0  0  0  0  0  0  0  0  0
  -18.8420  -24.4274   22.1926 C   0  0  0  0  0  0  0  0  0  0  0  0
  -29.2497  -16.5886   19.9846 C   0  0  0  0  0  0  0  0  0  0  0  0
  -23.5916  -28.9331   20.5577 C   0  0  0  0  0  0  0  0  0  0  0  0
  -30.7859  -18.3201   19.5797 C   0  0  0  0  0  0  0  0  0  0  0  0
  -31.2831  -21.0365   19.1834 C   0  0  0  0  0  0  0  0  0  0  0  0
  -19.0196  -22.2633   23.2521 C   0  0  0  0  0  0  0  0  0  0  0  0
  -31.6304  -19.0089   20.4504 C   0  0  0  0  0  0  0  0  0  0  0  0
  -25.2428  -15.3994   20.6387 C   0  0  0  0  0  0  0  0  0  0  0  0
  -23.4251  -14.2781   21.1619 C   0  0  0  0  0  0  0  0  0  0  0  0
  -20.7437  -27.6322   22.3522 C   0  0  0  0  0  0  0  0  0  0  0  0
  -20.4650  -26.3355   22.0740 C   0  0  0  0  0  0  0  0  0  0  0  0
  -19.6198  -28.5136   22.8157 C   0  0  0  0  0  0  0  0  0  0  0  0
  -25.5461  -13.0138   21.5508 C   0  0  0  0  0  0  0  0  0  0  0  0
  -28.8072  -27.4300   20.5152 C   0  0  0  0  0  0  0  0  0  0  0  0
  -29.4722  -30.0581   22.2965 C   0  0  0  0  0  0  0  0  0  0  0  0
  -27.6365  -32.3572   24.3850 C   0  0  0  0  0  0  0  0  0  0  0  0
  -19.8787  -18.9789   21.5875 C   0  0  0  0  0  0  0  0  0  0  0  0
  -32.0495  -23.9602   23.0281 C   0  0  0  0  0  0  0  0  0  0  0  0
  -27.6604  -29.2409   19.1880 C   0  0  0  0  0  0  0  0  0  0  0  0
  -27.0382  -29.4328   22.0726 C   0  0  0  0  0  0  0  0  0  0  0  0
  -18.2731  -27.8850   23.0812 C   0  0  0  0  0  0  0  0  0  0  0  0
  -30.5247  -23.9700   23.0630 C   0  0  0  0  0  0  0  0  0  0  0  0
  -19.8194  -16.5097   18.9423 C   0  0  0  0  0  0  0  0  0  0  0  0
  -30.0038  -25.3342   22.6364 C   0  0  0  0  0  0  0  0  0  0  0  0
  -21.1746  -15.8263   19.1337 C   0  0  0  0  0  0  0  0  0  0  0  0
  -18.0064  -26.7123   22.1539 C   0  0  0  0  0  0  0  0  0  0  0  0
  -19.9134  -18.0088   19.2105 C   0  0  0  0  0  0  0  0  0  0  0  0
  -21.8139  -17.6800   20.7446 C   0  0  0  0  0  0  0  0  0  0  0  0
  -30.3996  -25.6410   21.1865 C   0  0  1  0  0  0  0  0  0  0  0  0
  -28.6960  -28.9060   20.2570 C   0  0  1  0  0  0  0  0  0  0  0  0
  -21.7804  -16.1588   20.5102 C   0  0  2  0  0  0  0  0  0  0  0  0
  -21.5553  -25.4251   21.5429 C   0  0  0  0  0  0  0  0  0  0  0  0
  -28.0926  -34.7560   24.9637 C   0  0  0  0  0  0  0  0  0  0  0  0
  -30.8652  -28.8991   24.7513 C   0  0  0  0  0  0  0  0  0  0  0  0
  -29.9403  -30.8028   26.0887 C   0  0  0  0  0  0  0  0  0  0  0  0
  -31.5079  -31.2525   24.2011 C   0  0  0  0  0  0  0  0  0  0  0  0
  -24.9654  -33.2136   23.4412 C   0  0  0  0  0  0  0  0  0  0  0  0
  -17.8725  -20.2586   22.2907 C   0  0  0  0  0  0  0  0  0  0  0  0
  -22.0919  -28.2927   22.2888 C   0  0  0  0  0  0  0  0  0  1  0  0
  -29.1438  -30.5101   23.6990 C   0  0  1  0  0  0  0  0  0  0  0  0
  -27.3085  -33.8059   24.0719 C   0  0  2  0  0  0  0  0  0  0  0  0
  -30.3470  -30.3489   24.6705 C   0  0  0  0  0  0  0  0  0  0  0  0
  -24.2408  -16.2379   20.3611 N   0  0  0  0  0  0  0  0  0  0  0  0
  -23.1485  -15.5273   20.6896 N   0  0  0  0  0  0  0  0  0  0  0  0
  -19.1626  -25.8091   22.1585 N   0  0  0  0  0  0  0  0  0  0  0  0
  -28.4074  -29.5439   21.5431 N   0  0  0  0  0  0  0  0  0  0  0  0
  -20.4804  -18.2567   20.5436 N   0  0  0  0  0  0  0  0  0  0  0  0
  -22.4434  -13.4313   21.5383 N   0  0  0  0  0  0  0  0  0  0  0  0
  -25.9520  -12.9238   22.8892 N   0  0  0  0  0  0  0  0  0  0  0  0
  -30.0721  -27.0180   20.8891 N   0  0  0  0  0  0  0  0  0  0  0  0
  -28.6495  -31.8777   23.5818 N   0  0  0  0  0  0  0  0  0  0  0  0
  -18.6193  -19.4979   21.3136 N   0  0  0  0  0  0  0  0  0  0  0  0
  -25.8547  -34.0633   24.2744 N   0  3  0  0  0  0  0  0  0  0  0  0
  -19.8044  -29.7118   23.0284 O   0  0  0  0  0  0  0  0  0  0  0  0
  -25.8637  -12.1017   20.7503 O   0  0  0  0  0  0  0  0  0  0  0  0
  -27.8183  -26.7179   20.3862 O   0  0  0  0  0  0  0  0  0  0  0  0
  -30.6292  -30.1642   21.8823 O   0  0  0  0  0  0  0  0  0  0  0  0
  -27.0549  -31.7161   25.2576 O   0  0  0  0  0  0  0  0  0  0  0  0
  -20.4217  -19.1445   22.6852 O   0  0  0  0  0  0  0  0  0  0  0  0
  -30.5388  -16.9716   19.7746 O   0  0  0  0  0  0  0  0  0  0  0  0
  -22.3040  -28.8409   20.9885 O   0  0  0  0  0  0  0  0  0  1  0  0
  -31.5229  -22.3403   18.9921 F   0  0  0  0  0  0  0  0  0  0  0  0
  -19.4968  -21.4974   24.2431 F   0  0  0  0  0  0  0  0  0  0  0  0
  -32.2066  -18.3709   21.4784 F   0  0  0  0  0  0  0  0  0  0  0  0
  1  2  1  0  0  0  0
  1  5  2  0  0  0  0
  2  6  2  0  0  0  0
  3 10  2  0  0  0  0
  3 18  1  0  0  0  0
  4 11  1  0  0  0  0
  4 18  2  0  0  0  0
  5 20  1  0  0  0  0
  6 22  1  0  0  0  0
  7 12  2  0  0  0  0
  7 21  1  0  0  0  0
  8  9  2  0  0  0  0
  8 24  1  0  0  0  0
  9 25  1  0  0  0  0
 10 26  1  0  0  0  0
 11 26  2  0  0  0  0
 12 27  1  0  0  0  0
 13 14  2  0  0  0  0
 13 28  1  0  0  0  0
 14 29  1  0  0  0  0
 15 23  1  0  0  0  0
 15 27  2  0  0  0  0
 16 25  2  0  0  0  0
 16 30  1  0  0  0  0
 17 29  2  0  0  0  0
 17 31  1  0  0  0  0
 18 32  1  0  0  0  0
 19 32  1  0  0  0  0
 19 33  2  0  0  0  0
 19 37  1  0  0  0  0
 20 22  2  0  0  0  0
 20 42  1  0  0  0  0
 21 23  2  0  0  0  0
 21 43  1  0  0  0  0
 22 53  1  0  0  0  0
 23 44  1  0  0  0  0
 24 30  2  0  0  0  0
 24 62  1  0  0  0  0
 25 69  1  0  0  0  0
 26 84  1  0  0  0  0
 27 85  1  0  0  0  0
 28 31  2  0  0  0  0
 28 84  1  0  0  0  0
 29 86  1  0  0  0  0
 30 87  1  0  0  0  0
 31 88  1  0  0  0  0
 32 67  2  0  0  0  0
 33 68  1  0  0  0  0
 33 72  1  0  0  0  0
 34 35  2  0  0  0  0
 34 36  1  0  0  0  0
 34 63  1  0  0  0  0
 35 56  1  0  0  0  0
 35 69  1  0  0  0  0
 36 45  1  0  0  0  0
 36 78  2  0  0  0  0
 37 73  1  0  0  0  0
 37 79  2  0  0  0  0
 38 54  1  0  0  0  0
 38 74  1  0  0  0  0
 38 80  2  0  0  0  0
 39 64  1  0  0  0  0
 39 70  1  0  0  0  0
 39 81  2  0  0  0  0
 40 65  1  0  0  0  0
 40 75  1  0  0  0  0
 40 82  2  0  0  0  0
 41 71  1  0  0  0  0
 41 76  1  0  0  0  0
 41 83  2  0  0  0  0
 42 46  1  0  0  0  0
 43 54  1  0  0  0  0
 44 70  1  0  0  0  0
 45 50  1  0  0  0  0
 46 48  1  0  0  0  0
 47 49  1  0  0  0  0
 47 51  1  0  0  0  0
 48 53  1  0  0  0  0
 49 55  1  0  0  0  0
 50 69  1  0  0  0  0
 51 71  1  0  0  0  0
 52 55  1  0  0  0  0
 52 71  1  0  0  0  0
 53 74  1  0  0  0  0
 54 70  1  0  0  0  0
 55 68  1  0  0  0  0
 57 65  1  0  0  0  0
 58 66  1  0  0  0  0
 59 66  1  0  0  0  0
 60 66  1  0  0  0  0
 61 77  1  0  0  0  0
 62 76  1  0  0  0  0
 63 85  1  0  0  0  0
 64 66  1  0  0  0  0
 64 75  1  0  0  0  0
 65 77  1  0  0  0  0
 67 68  1  0  0  0  0
M  CHG  1  77   1
M  ISO  4  41 100  63 101  76 100  85 101
M  END
> <Batch ID>
0105

> <Smiles>
CNC(C)C(=O)NC(C(=O)N1Cc2cc([101O:1][101CH2:1]C3=C(C)N(c4ccc(C[100NH:0][100C:0](=O)N5CCCC(n6nc(-c7ccc(Oc8ccc(F)cc8F)cc7)c(C(N)=O)c6N)C5)c(F)c4)CCC3=O)ccc2CC1C(=O)NC1CCCc2ccccc21)C(C)(C)C

> <Shape>
0.233

> <Color>
0.091

> <Negative vol penalty>
0.000

$$$$

  -OEChem-04052301113D

 86 95  0     1  0  0  0  0  0999 V2000
  -22.7526   -8.5734   21.9433 C   0  0  0  0  0  0  0  0  0  0  0  0
  -23.9808   -9.1495   22.2515 C   0  0  0  0  0  0  0  0  0  0  0  0
  -22.1990  -29.0550   23.5663 C   0  0  0  0  0  0  0  0  0  0  0  0
  -21.2368  -28.6253   21.3923 C   0  0  0  0  0  0  0  0  0  0  0  0
  -31.9128  -23.5236   20.0060 C   0  0  0  0  0  0  0  0  0  0  0  0
  -21.9842   -9.0888   20.9003 C   0  0  0  0  0  0  0  0  0  0  0  0
  -24.4419  -10.2409   21.5161 C   0  0  0  0  0  0  0  0  0  0  0  0
  -28.3025  -16.2314   22.2407 C   0  0  0  0  0  0  0  0  0  0  0  0
  -30.8392  -24.3905   19.8025 C   0  0  0  0  0  0  0  0  0  0  0  0
  -21.0495  -28.5510   24.1747 C   0  0  0  0  0  0  0  0  0  0  0  0
  -20.0873  -28.1212   22.0007 C   0  0  0  0  0  0  0  0  0  0  0  0
  -29.3867  -16.8905   21.6629 C   0  0  0  0  0  0  0  0  0  0  0  0
  -17.3094  -29.3521   23.4837 C   0  0  0  0  0  0  0  0  0  0  0  0
  -16.0758  -29.7633   22.9792 C   0  0  0  0  0  0  0  0  0  0  0  0
  -32.5786  -23.8070   17.7009 C   0  0  0  0  0  0  0  0  0  0  0  0
  -27.9379  -17.7460   19.9344 C   0  0  0  0  0  0  0  0  0  0  0  0
  -15.5171  -27.4676   22.4742 C   0  0  0  0  0  0  0  0  0  0  0  0
  -22.2926  -29.0922   22.1751 C   0  0  0  0  0  0  0  0  0  0  0  0
  -32.7826  -23.2319   18.9552 C   0  0  0  0  0  0  0  0  0  0  0  0
  -24.0117  -30.9100   21.6770 C   0  0  0  0  0  0  0  0  0  0  0  0
  -22.4317  -10.1930   20.1580 C   0  0  0  0  0  0  0  0  0  0  0  0
  -27.0278  -16.3160   21.6625 C   0  0  0  0  0  0  0  0  0  0  0  0
  -23.6794  -10.7707   20.4613 C   0  0  0  0  0  0  0  0  0  0  0  0
  -26.8386  -17.0892   20.5082 C   0  0  0  0  0  0  0  0  0  0  0  0
  -30.6352  -24.9656   18.5482 C   0  0  0  0  0  0  0  0  0  0  0  0
  -19.9936  -28.0841   23.3919 C   0  0  0  0  0  0  0  0  0  0  0  0
  -29.2051  -17.6456   20.5080 C   0  0  0  0  0  0  0  0  0  0  0  0
  -17.6470  -27.9987   23.4834 C   0  0  0  0  0  0  0  0  0  0  0  0
  -15.1796  -28.8211   22.4745 C   0  0  0  0  0  0  0  0  0  0  0  0
  -31.5049  -24.6739   17.4974 C   0  0  0  0  0  0  0  0  0  0  0  0
  -16.7509  -27.0565   22.9787 C   0  0  0  0  0  0  0  0  0  0  0  0
  -23.4796  -29.6133   21.5460 C   0  0  0  0  0  0  0  0  0  0  0  0
  -25.1351  -30.9016   20.8869 C   0  0  0  0  0  0  0  0  0  0  0  0
  -33.9150  -22.3172   19.1699 C   0  0  0  0  0  0  0  0  0  0  0  0
  -23.5333  -32.0227   22.4444 C   0  0  0  0  0  0  0  0  0  0  0  0
  -24.9926  -14.2240   20.4034 C   0  0  0  0  0  0  0  0  0  0  0  0
  -23.0323  -16.8047   20.2643 C   0  0  0  0  0  0  0  0  0  0  0  0
  -22.7177  -20.2007   20.1419 C   0  0  0  0  0  0  0  0  0  0  0  0
  -28.5816  -26.2448   19.2768 C   0  0  0  0  0  0  0  0  0  0  0  0
  -21.5878  -10.6855   19.0091 C   0  0  0  0  0  0  0  0  0  0  0  0
  -25.8633  -15.6209   22.3130 C   0  0  0  0  0  0  0  0  0  0  0  0
  -25.4863  -17.2285   19.8598 C   0  0  0  0  0  0  0  0  0  0  0  0
  -21.9766  -12.0786   18.5210 C   0  0  0  0  0  0  0  0  0  0  0  0
  -26.2815  -28.2852   16.9811 C   0  0  0  0  0  0  0  0  0  0  0  0
  -23.4899  -12.1854   18.3617 C   0  0  0  0  0  0  0  0  0  0  0  0
  -25.9196  -29.4238   17.9319 C   0  0  0  0  0  0  0  0  0  0  0  0
  -33.9710  -18.8441   20.4095 C   0  0  0  0  0  0  0  0  0  0  0  0
  -27.5916  -27.6080   17.3632 C   0  0  0  0  0  0  0  0  0  0  0  0
  -34.6785  -20.0424   19.7959 C   0  0  0  0  0  0  0  0  0  0  0  0
  -32.3040  -20.4252   19.7539 C   0  0  0  0  0  0  0  0  0  0  0  0
  -26.5398  -27.6200   19.6325 C   0  0  0  0  0  0  0  0  0  0  0  0
  -24.2023  -11.9711   19.7026 C   0  0  1  0  0  0  0  0  0  0  0  0
  -24.7106  -15.3570   21.3491 C   0  0  1  0  0  0  0  0  0  0  0  0
  -32.5708  -18.9216   19.7964 C   0  0  2  0  0  0  0  0  0  0  0  0
  -26.2617  -29.1137   19.4027 C   0  0  2  0  0  0  0  0  0  0  0  0
  -20.9902  -22.0150   19.9954 C   0  0  0  0  0  0  0  0  0  0  0  0
  -22.6494  -16.1973   17.2987 C   0  0  0  0  0  0  0  0  0  0  0  0
  -21.7299  -18.5087   17.0154 C   0  0  0  0  0  0  0  0  0  0  0  0
  -20.5653  -16.8785   18.5017 C   0  0  0  0  0  0  0  0  0  0  0  0
  -23.5434  -21.3565   22.7383 C   0  0  0  0  0  0  0  0  0  0  0  0
  -31.5284  -18.1480   20.5836 C   0  0  0  0  0  0  0  0  0  1  0  0
  -22.7603  -17.8871   19.2477 C   0  0  1  0  0  0  0  0  0  0  0  0
  -21.8382  -21.1597   20.9239 C   0  0  2  0  0  0  0  0  0  0  0  0
  -21.9522  -17.3639   18.0268 C   0  0  0  0  0  0  0  0  0  0  0  0
  -24.2052  -28.8376   20.7362 N   0  0  0  0  0  0  0  0  0  0  0  0
  -25.2047  -29.6492   20.3512 N   0  0  0  0  0  0  0  0  0  0  0  0
  -33.6259  -21.0221   19.5713 N   0  0  0  0  0  0  0  0  0  0  0  0
  -24.3802  -16.5248   20.5299 N   0  0  0  0  0  0  0  0  0  0  0  0
  -27.6143  -27.1390   18.7563 N   0  0  0  0  0  0  0  0  0  0  0  0
  -26.0603  -31.8434   20.6049 N   0  0  0  0  0  0  0  0  0  0  0  0
  -22.6368  -32.9147   21.8404 N   0  0  0  0  0  0  0  0  0  0  0  0
  -29.5430  -25.8456   18.3446 N   0  0  0  0  0  0  0  0  0  0  0  0
  -24.1141  -13.1635   20.5181 N   0  0  0  0  0  0  0  0  0  0  0  0
  -22.1111  -18.9741   19.9725 N   0  0  0  0  0  0  0  0  0  0  0  0
  -22.6753  -22.0639   21.7621 N   0  3  0  0  0  0  0  0  0  0  0  0
  -35.0443  -22.7597   18.9687 O   0  0  0  0  0  0  0  0  0  0  0  0
  -23.9030  -32.2291   23.6251 O   0  0  0  0  0  0  0  0  0  0  0  0
  -25.9364  -14.3064   19.6262 O   0  0  0  0  0  0  0  0  0  0  0  0
  -22.0837  -16.2337   20.8081 O   0  0  0  0  0  0  0  0  0  0  0  0
  -23.8298  -20.5102   19.7202 O   0  0  0  0  0  0  0  0  0  0  0  0
  -28.5592  -25.8797   20.4541 O   0  0  0  0  0  0  0  0  0  0  0  0
  -18.8719  -27.5919   23.9853 O   0  0  0  0  0  0  0  0  0  0  0  0
  -30.2618  -18.2894   19.9417 O   0  0  0  0  0  0  0  0  0  1  0  0
  -13.9943  -29.2159   21.9915 F   0  0  0  0  0  0  0  0  0  0  0  0
  -31.3184  -25.2203   16.2872 F   0  0  0  0  0  0  0  0  0  0  0  0
  -17.0691  -25.7547   22.9768 F   0  0  0  0  0  0  0  0  0  0  0  0
  1  2  1  0  0  0  0
  1  6  2  0  0  0  0
  2  7  2  0  0  0  0
  3 10  2  0  0  0  0
  3 18  1  0  0  0  0
  4 11  1  0  0  0  0
  4 18  2  0  0  0  0
  5  9  2  0  0  0  0
  5 19  1  0  0  0  0
  6 21  1  0  0  0  0
  7 23  1  0  0  0  0
  8 12  2  0  0  0  0
  8 22  1  0  0  0  0
  9 25  1  0  0  0  0
 10 26  1  0  0  0  0
 11 26  2  0  0  0  0
 12 27  1  0  0  0  0
 13 14  2  0  0  0  0
 13 28  1  0  0  0  0
 14 29  1  0  0  0  0
 15 19  2  0  0  0  0
 15 30  1  0  0  0  0
 16 24  1  0  0  0  0
 16 27  2  0  0  0  0
 17 29  2  0  0  0  0
 17 31  1  0  0  0  0
 18 32  1  0  0  0  0
 19 34  1  0  0  0  0
 20 32  1  0  0  0  0
 20 33  2  0  0  0  0
 20 35  1  0  0  0  0
 21 23  2  0  0  0  0
 21 40  1  0  0  0  0
 22 24  2  0  0  0  0
 22 41  1  0  0  0  0
 23 52  1  0  0  0  0
 24 42  1  0  0  0  0
 25 30  2  0  0  0  0
 25 72  1  0  0  0  0
 26 82  1  0  0  0  0
 27 83  1  0  0  0  0
 28 31  2  0  0  0  0
 28 82  1  0  0  0  0
 29 84  1  0  0  0  0
 30 85  1  0  0  0  0
 31 86  1  0  0  0  0
 32 65  2  0  0  0  0
 33 66  1  0  0  0  0
 33 70  1  0  0  0  0
 34 67  1  0  0  0  0
 34 76  2  0  0  0  0
 35 71  1  0  0  0  0
 35 77  2  0  0  0  0
 36 53  1  0  0  0  0
 36 73  1  0  0  0  0
 36 78  2  0  0  0  0
 37 62  1  0  0  0  0
 37 68  1  0  0  0  0
 37 79  2  0  0  0  0
 38 63  1  0  0  0  0
 38 74  1  0  0  0  0
 38 80  2  0  0  0  0
 39 69  1  0  0  0  0
 39 72  1  0  0  0  0
 39 81  2  0  0  0  0
 40 43  1  0  0  0  0
 41 53  1  0  0  0  0
 42 68  1  0  0  0  0
 43 45  1  0  0  0  0
 44 46  1  0  0  0  0
 44 48  1  0  0  0  0
 45 52  1  0  0  0  0
 46 55  1  0  0  0  0
 47 49  1  0  0  0  0
 47 54  1  0  0  0  0
 48 69  1  0  0  0  0
 49 67  1  0  0  0  0
 50 54  1  0  0  0  0
 50 67  1  0  0  0  0
 51 55  1  0  0  0  0
 51 69  1  0  0  0  0
 52 73  1  0  0  0  0
 53 68  1  0  0  0  0
 54 61  1  0  0  0  0
 55 66  1  0  0  0  0
 56 63  1  0  0  0  0
 57 64  1  0  0  0  0
 58 64  1  0  0  0  0
 59 64  1  0  0  0  0
 60 75  1  0  0  0  0
 61 83  1  0  0  0  0
 62 64  1  0  0  0  0
 62 74  1  0  0  0  0
 63 75  1  0  0  0  0
 65 66  1  0  0  0  0
M  CHG  1  75   1
M  ISO  4  39 100  61 101  72 100  83 101
M  END
> <Batch ID>
0105

> <Smiles>
CNC(C)C(=O)NC(C(=O)N1Cc2cc([101O:1][101CH2:1]C3CCN(C(=O)c4ccc([100NH:0][100C:0](=O)N5CCCC(n6nc(-c7ccc(Oc8ccc(F)cc8F)cc7)c(C(N)=O)c6N)C5)c(F)c4)C3)ccc2CC1C(=O)NC1CCCc2ccccc21)C(C)(C)C

> <Shape>
0.251

> <Color>
0.076

> <Negative vol penalty>
0.000

$$$$

  -OEChem-04052301113D

 85 94  0     1  0  0  0  0  0999 V2000
  -30.3375  -28.3783   29.7622 C   0  0  0  0  0  0  0  0  0  0  0  0
  -30.9095  -28.6651   28.5279 C   0  0  0  0  0  0  0  0  0  0  0  0
  -24.3228  -13.7521   19.4109 C   0  0  0  0  0  0  0  0  0  0  0  0
  -26.2417  -14.1842   20.8140 C   0  0  0  0  0  0  0  0  0  0  0  0
  -25.5311  -23.1398   18.7622 C   0  0  0  0  0  0  0  0  0  0  0  0
  -25.1226  -23.4257   21.1262 C   0  0  0  0  0  0  0  0  0  0  0  0
  -29.1289  -27.6877   29.8224 C   0  0  0  0  0  0  0  0  0  0  0  0
  -30.2674  -28.2719   27.3532 C   0  0  0  0  0  0  0  0  0  0  0  0
  -27.2004  -27.5156   19.6445 C   0  0  0  0  0  0  0  0  0  0  0  0
  -24.2468  -23.6074   18.4837 C   0  0  0  0  0  0  0  0  0  0  0  0
  -23.8384  -23.8934   20.8477 C   0  0  0  0  0  0  0  0  0  0  0  0
  -24.4491  -12.3853   19.6591 C   0  0  0  0  0  0  0  0  0  0  0  0
  -26.3679  -12.8174   21.0622 C   0  0  0  0  0  0  0  0  0  0  0  0
  -25.9872  -27.0843   19.1097 C   0  0  0  0  0  0  0  0  0  0  0  0
  -23.6833  -10.2237   22.1438 C   0  0  0  0  0  0  0  0  0  0  0  0
  -22.5239   -9.5102   22.4479 C   0  0  0  0  0  0  0  0  0  0  0  0
  -24.8101  -28.2006   20.8951 C   0  0  0  0  0  0  0  0  0  0  0  0
  -22.8857   -8.1005   20.5194 C   0  0  0  0  0  0  0  0  0  0  0  0
  -25.2191  -14.6516   19.9883 C   0  0  0  0  0  0  0  0  0  0  0  0
  -25.9690  -23.0488   20.0834 C   0  0  0  0  0  0  0  0  0  0  0  0
  -23.9835  -16.8830   20.0264 C   0  0  0  0  0  0  0  0  0  0  0  0
  -28.4785  -27.2753   28.6477 C   0  0  0  0  0  0  0  0  0  0  0  0
  -27.2281  -28.2847   20.8168 C   0  0  0  0  0  0  0  0  0  0  0  0
  -29.0349  -27.5950   27.3925 C   0  0  0  0  0  0  0  0  0  0  0  0
  -26.0248  -28.6425   21.4414 C   0  0  0  0  0  0  0  0  0  0  0  0
  -23.4004  -23.9843   19.5265 C   0  0  0  0  0  0  0  0  0  0  0  0
  -25.4716  -11.9180   20.4848 C   0  0  0  0  0  0  0  0  0  0  0  0
  -24.7920  -27.4244   19.7365 C   0  0  0  0  0  0  0  0  0  0  0  0
  -24.4438   -9.8756   21.0275 C   0  0  0  0  0  0  0  0  0  0  0  0
  -22.1251   -8.4486   21.6357 C   0  0  0  0  0  0  0  0  0  0  0  0
  -24.0450   -8.8140   20.2153 C   0  0  0  0  0  0  0  0  0  0  0  0
  -25.0896  -16.0635   19.7318 C   0  0  0  0  0  0  0  0  0  0  0  0
  -24.3553  -18.1313   19.5906 C   0  0  0  0  0  0  0  0  0  0  0  0
  -20.3169  -26.0666   19.3666 C   0  0  0  0  0  0  0  0  0  0  0  0
  -21.6038  -25.7288   19.5923 C   0  0  0  0  0  0  0  0  0  0  0  0
  -27.3080  -22.5612   20.3737 C   0  0  0  0  0  0  0  0  0  0  0  0
  -22.7319  -16.5460   20.6393 C   0  0  0  0  0  0  0  0  0  0  0  0
  -28.2317  -22.1531   19.2904 C   0  0  0  0  0  0  0  0  0  0  0  0
  -28.4395  -27.8920   23.7291 C   0  0  0  0  0  0  0  0  0  0  0  0
  -27.4577  -30.9579   24.1272 C   0  0  0  0  0  0  0  0  0  0  0  0
  -24.5686  -32.9328   23.2495 C   0  0  0  0  0  0  0  0  0  0  0  0
  -27.1685  -26.5377   28.7707 C   0  0  0  0  0  0  0  0  0  0  0  0
  -28.5435  -28.7646   21.3661 C   0  0  0  0  0  0  0  0  0  0  0  0
  -25.9992  -29.4834   22.6907 C   0  0  0  0  0  0  0  0  0  0  0  0
  -19.3186  -25.1113   18.7834 C   0  0  0  0  0  0  0  0  0  0  0  0
  -26.7919  -25.7793   27.5021 C   0  0  0  0  0  0  0  0  0  0  0  0
  -19.8077  -23.6643   18.8162 C   0  0  0  0  0  0  0  0  0  0  0  0
  -28.2656  -19.6133   16.7596 C   0  0  0  0  0  0  0  0  0  0  0  0
  -26.9179  -26.6940   26.2929 C   0  0  0  0  0  0  0  0  0  0  0  0
  -27.3824  -18.5146   17.3501 C   0  0  0  0  0  0  0  0  0  0  0  0
  -21.2791  -23.5516   18.4152 C   0  0  0  0  0  0  0  0  0  0  0  0
  -29.0565  -20.3373   17.8444 C   0  0  0  0  0  0  0  0  0  0  0  0
  -27.3174  -19.8062   19.5303 C   0  0  0  0  0  0  0  0  0  0  0  0
  -28.3699  -27.1505   26.1024 C   0  0  1  0  0  0  0  0  0  0  0  0
  -28.4806  -29.1103   22.8507 C   0  0  1  0  0  0  0  0  0  0  0  0
  -26.4822  -19.0709   18.4677 C   0  0  2  0  0  0  0  0  0  0  0  0
  -24.3369  -35.4008   22.8586 C   0  0  0  0  0  0  0  0  0  0  0  0
  -26.6632  -31.0561   27.0715 C   0  0  0  0  0  0  0  0  0  0  0  0
  -24.9622  -32.7962   26.4826 C   0  0  0  0  0  0  0  0  0  0  0  0
  -27.3871  -33.2495   26.1127 C   0  0  0  0  0  0  0  0  0  0  0  0
  -23.4035  -32.5152   20.5612 C   0  0  0  0  0  0  0  0  0  0  0  0
  -22.5372  -26.7821   20.1353 C   0  0  0  0  0  0  0  0  0  1  0  0
  -26.1855  -31.6205   24.5978 C   0  0  1  0  0  0  0  0  0  0  0  0
  -24.5041  -34.0360   22.2088 C   0  0  2  0  0  0  0  0  0  0  0  0
  -26.2992  -32.1551   26.0534 C   0  0  0  0  0  0  0  0  0  0  0  0
  -26.0891  -16.7346   19.1535 N   0  0  0  0  0  0  0  0  0  0  0  0
  -27.7840  -22.4519   21.5847 N   0  0  0  0  0  0  0  0  0  0  0  0
  -25.6124  -17.9891   19.0810 N   0  0  0  0  0  0  0  0  0  0  0  0
  -22.0953  -24.4595   19.2435 N   0  0  0  0  0  0  0  0  0  0  0  0
  -28.1766  -20.8205   18.9066 N   0  0  0  0  0  0  0  0  0  0  0  0
  -27.3115  -29.9230   23.1927 N   0  0  0  0  0  0  0  0  0  0  0  0
  -23.7263  -19.3257   19.5973 N   0  0  0  0  0  0  0  0  0  0  0  0
  -22.6257  -16.6342   22.0340 N   0  0  0  0  0  0  0  0  0  0  0  0
  -28.4128  -28.1742   25.0816 N   0  0  0  0  0  0  0  0  0  0  0  0
  -25.8684  -32.6445   23.6082 N   0  0  0  0  0  0  0  0  0  0  0  0
  -23.3557  -33.8111   21.2860 N   0  3  0  0  0  0  0  0  0  0  0  0
  -21.7420  -16.1618   19.9713 O   0  0  0  0  0  0  0  0  0  0  0  0
  -28.9494  -23.0401   18.8473 O   0  0  0  0  0  0  0  0  0  0  0  0
  -28.4312  -26.7784   23.2177 O   0  0  0  0  0  0  0  0  0  0  0  0
  -28.5418  -31.3491   24.5670 O   0  0  0  0  0  0  0  0  0  0  0  0
  -23.5661  -32.3843   23.7019 O   0  0  0  0  0  0  0  0  0  0  0  0
  -25.5950  -10.5844   20.7274 O   0  0  0  0  0  0  0  0  0  0  0  0
  -23.6066  -27.0042   19.2169 O   0  0  0  0  0  0  0  0  0  1  0  0
  -21.0126   -7.7626   21.9287 F   0  0  0  0  0  0  0  0  0  0  0  0
  -24.7722   -8.4742   19.1422 F   0  0  0  0  0  0  0  0  0  0  0  0
  1  2  1  0  0  0  0
  1  7  2  0  0  0  0
  2  8  2  0  0  0  0
  3 12  2  0  0  0  0
  3 19  1  0  0  0  0
  4 13  1  0  0  0  0
  4 19  2  0  0  0  0
  5 10  2  0  0  0  0
  5 20  1  0  0  0  0
  6 11  1  0  0  0  0
  6 20  2  0  0  0  0
  7 22  1  0  0  0  0
  8 24  1  0  0  0  0
  9 14  2  0  0  0  0
  9 23  1  0  0  0  0
 10 26  1  0  0  0  0
 11 26  2  0  0  0  0
 12 27  1  0  0  0  0
 13 27  2  0  0  0  0
 14 28  1  0  0  0  0
 15 16  2  0  0  0  0
 15 29  1  0  0  0  0
 16 30  1  0  0  0  0
 17 25  1  0  0  0  0
 17 28  2  0  0  0  0
 18 30  2  0  0  0  0
 18 31  1  0  0  0  0
 19 32  1  0  0  0  0
 20 36  1  0  0  0  0
 21 32  1  0  0  0  0
 21 33  2  0  0  0  0
 21 37  1  0  0  0  0
 22 24  2  0  0  0  0
 22 42  1  0  0  0  0
 23 25  2  0  0  0  0
 23 43  1  0  0  0  0
 24 54  1  0  0  0  0
 25 44  1  0  0  0  0
 26 69  1  0  0  0  0
 27 82  1  0  0  0  0
 28 83  1  0  0  0  0
 29 31  2  0  0  0  0
 29 82  1  0  0  0  0
 30 84  1  0  0  0  0
 31 85  1  0  0  0  0
 32 66  2  0  0  0  0
 33 68  1  0  0  0  0
 33 72  1  0  0  0  0
 34 35  2  0  0  0  0
 34 45  1  0  0  0  0
 35 62  1  0  0  0  0
 35 69  1  0  0  0  0
 36 38  1  0  0  0  0
 36 67  2  0  0  0  0
 37 73  1  0  0  0  0
 37 77  2  0  0  0  0
 38 70  1  0  0  0  0
 38 78  2  0  0  0  0
 39 55  1  0  0  0  0
 39 74  1  0  0  0  0
 39 79  2  0  0  0  0
 40 63  1  0  0  0  0
 40 71  1  0  0  0  0
 40 80  2  0  0  0  0
 41 64  1  0  0  0  0
 41 75  1  0  0  0  0
 41 81  2  0  0  0  0
 42 46  1  0  0  0  0
 43 55  1  0  0  0  0
 44 71  1  0  0  0  0
 45 47  1  0  0  0  0
 46 49  1  0  0  0  0
 47 51  1  0  0  0  0
 48 50  1  0  0  0  0
 48 52  1  0  0  0  0
 49 54  1  0  0  0  0
 50 56  1  0  0  0  0
 51 69  1  0  0  0  0
 52 70  1  0  0  0  0
 53 56  1  0  0  0  0
 53 70  1  0  0  0  0
 54 74  1  0  0  0  0
 55 71  1  0  0  0  0
 56 68  1  0  0  0  0
 57 64  1  0  0  0  0
 58 65  1  0  0  0  0
 59 65  1  0  0  0  0
 60 65  1  0  0  0  0
 61 76  1  0  0  0  0
 62 83  1  0  0  0  0
 63 65  1  0  0  0  0
 63 75  1  0  0  0  0
 64 76  1  0  0  0  0
 66 68  1  0  0  0  0
M  CHG  1  76   1
M  ISO  4  36 100  38 100  62 101  83 101
M  END
> <Batch ID>
0105

> <Smiles>
CNC(C)C(=O)NC(C(=O)N1Cc2cc([101O:1][101CH2:1]C3=CCCCN3c3ccc([100C:0](=N)[100C:0](=O)N4CCCC(n5nc(-c6ccc(Oc7ccc(F)cc7F)cc6)c(C(N)=O)c5N)C4)cc3)ccc2CC1C(=O)NC1CCCc2ccccc21)C(C)(C)C

> <Shape>
0.205

> <Color>
0.095

> <Negative vol penalty>
0.000

$$$$

  -OEChem-04052301113D

 88 97  0     1  0  0  0  0  0999 V2000
  -26.3193  -29.6457   19.7930 C   0  0  0  0  0  0  0  0  0  0  0  0
  -26.4612  -29.1706   21.0929 C   0  0  0  0  0  0  0  0  0  0  0  0
  -23.4173   -9.9957   22.2337 C   0  0  0  0  0  0  0  0  0  0  0  0
  -23.7067   -9.4135   19.9068 C   0  0  0  0  0  0  0  0  0  0  0  0
  -26.6657  -28.8339   18.7137 C   0  0  0  0  0  0  0  0  0  0  0  0
  -26.9486  -27.8830   21.3141 C   0  0  0  0  0  0  0  0  0  0  0  0
  -30.8646  -24.1223   25.9872 C   0  0  0  0  0  0  0  0  0  0  0  0
  -22.7536   -8.7886   22.4531 C   0  0  0  0  0  0  0  0  0  0  0  0
  -23.0430   -8.2064   20.1263 C   0  0  0  0  0  0  0  0  0  0  0  0
  -30.8074  -22.9542   26.7462 C   0  0  0  0  0  0  0  0  0  0  0  0
  -19.8510   -7.1432   20.4595 C   0  0  0  0  0  0  0  0  0  0  0  0
  -18.8850   -6.7565   19.5305 C   0  0  0  0  0  0  0  0  0  0  0  0
  -31.4484  -21.6701   24.8073 C   0  0  0  0  0  0  0  0  0  0  0  0
  -30.0127  -17.3360   25.7713 C   0  0  0  0  0  0  0  0  0  0  0  0
  -28.5988  -19.0028   24.7420 C   0  0  0  0  0  0  0  0  0  0  0  0
  -20.1397   -4.7455   19.0629 C   0  0  0  0  0  0  0  0  0  0  0  0
  -23.8938  -10.3081   20.9605 C   0  0  0  0  0  0  0  0  0  0  0  0
  -24.0691  -12.8529   20.9268 C   0  0  0  0  0  0  0  0  0  0  0  0
  -27.1666  -27.5392   18.9221 C   0  0  0  0  0  0  0  0  0  0  0  0
  -31.2042  -24.0717   24.6276 C   0  0  0  0  0  0  0  0  0  0  0  0
  -27.3007  -27.0526   20.2365 C   0  0  0  0  0  0  0  0  0  0  0  0
  -31.5118  -22.8392   24.0339 C   0  0  0  0  0  0  0  0  0  0  0  0
  -30.4640  -16.9410   24.5120 C   0  0  0  0  0  0  0  0  0  0  0  0
  -29.9828  -17.5770   23.3676 C   0  0  0  0  0  0  0  0  0  0  0  0
  -29.0800  -18.3668   25.8863 C   0  0  0  0  0  0  0  0  0  0  0  0
  -22.5665   -7.8940   21.3995 C   0  0  0  0  0  0  0  0  0  0  0  0
  -31.0965  -21.7275   26.1556 C   0  0  0  0  0  0  0  0  0  0  0  0
  -20.9614   -6.3311   20.6902 C   0  0  0  0  0  0  0  0  0  0  0  0
  -29.0501  -18.6079   23.4826 C   0  0  0  0  0  0  0  0  0  0  0  0
  -19.0293   -5.5577   18.8323 C   0  0  0  0  0  0  0  0  0  0  0  0
  -21.1057   -5.1322   19.9919 C   0  0  0  0  0  0  0  0  0  0  0  0
  -24.5790  -11.5551   20.7330 C   0  0  0  0  0  0  0  0  0  0  0  0
  -25.1031  -13.6845   20.5721 C   0  0  0  0  0  0  0  0  0  0  0  0
  -22.7765  -13.2694   21.3864 C   0  0  0  0  0  0  0  0  0  0  0  0
  -29.7270  -24.8296   21.9170 C   0  0  0  0  0  0  0  0  0  0  0  0
  -32.6104  -24.1307   20.6055 C   0  0  0  0  0  0  0  0  0  0  0  0
  -35.3471  -23.2510   18.7661 C   0  0  0  0  0  0  0  0  0  0  0  0
  -30.5121  -15.0525   20.7017 C   0  0  0  0  0  0  0  0  0  0  0  0
  -27.4830  -26.6814   17.7226 C   0  0  0  0  0  0  0  0  0  0  0  0
  -31.2875  -25.3437   23.8292 C   0  0  0  0  0  0  0  0  0  0  0  0
  -31.9015  -22.7333   22.5829 C   0  0  0  0  0  0  0  0  0  0  0  0
  -28.3450  -25.4658   18.0534 C   0  0  0  0  0  0  0  0  0  0  0  0
  -27.6748  -19.5453   29.7687 C   0  0  0  0  0  0  0  0  0  0  0  0
  -26.7182  -19.0631   28.6891 C   0  0  0  0  0  0  0  0  0  0  0  0
  -29.4840  -12.6845   18.2497 C   0  0  0  0  0  0  0  0  0  0  0  0
  -27.8092  -24.7522   19.2905 C   0  0  0  0  0  0  0  0  0  0  0  0
  -28.0775  -12.2824   18.6966 C   0  0  0  0  0  0  0  0  0  0  0  0
  -29.0443  -18.9040   29.5852 C   0  0  0  0  0  0  0  0  0  0  0  0
  -27.2690  -19.3047   27.2864 C   0  0  0  0  0  0  0  0  0  0  0  0
  -30.4086  -12.9223   19.4416 C   0  0  0  0  0  0  0  0  0  0  0  0
  -28.4914  -13.4780   20.8870 C   0  0  0  0  0  0  0  0  0  0  0  0
  -27.8492  -25.6706   20.5179 C   0  0  1  0  0  0  0  0  0  0  0  0
  -31.1435  -25.1171   22.3274 C   0  0  1  0  0  0  0  0  0  0  0  0
  -27.5074  -13.2819   19.7210 C   0  0  2  0  0  0  0  0  0  0  0  0
  -29.6255  -19.1180   28.1796 C   0  0  2  0  0  0  0  0  0  0  0  0
  -31.4629  -15.8347   24.4155 C   0  0  0  0  0  0  0  0  0  0  0  0
  -36.0232  -22.5447   16.4550 C   0  0  0  0  0  0  0  0  0  0  0  0
  -31.4914  -21.3416   21.1333 C   0  0  0  0  0  0  0  0  0  0  0  0
  -32.9761  -20.4773   19.3120 C   0  0  0  0  0  0  0  0  0  0  0  0
  -31.2052  -22.1533   18.7852 C   0  0  0  0  0  0  0  0  0  0  0  0
  -37.1052  -25.6086   18.4344 C   0  0  0  0  0  0  0  0  0  0  0  0
  -27.6185  -20.2828   22.5876 C   0  0  0  0  0  0  0  0  0  0  0  0
  -30.4631  -17.1577   22.0150 C   0  0  0  0  0  0  0  0  0  0  0  0
  -30.1117  -20.5573   27.9768 C   0  0  0  0  0  0  0  0  0  1  0  0
  -33.2627  -22.8833   20.0602 C   0  0  1  0  0  0  0  0  0  0  0  0
  -35.8395  -23.7159   17.4075 C   0  0  2  0  0  0  0  0  0  0  0  0
  -32.2448  -21.7279   19.8448 C   0  0  0  0  0  0  0  0  0  0  0  0
  -25.8388  -11.5569   20.2895 N   0  0  0  0  0  0  0  0  0  0  0  0
  -26.1293  -12.8661   20.2015 N   0  0  0  0  0  0  0  0  0  0  0  0
  -28.6267  -18.7634   27.1509 N   0  0  2  0  0  0  0  0  0  0  0  0
  -31.9627  -24.0044   21.8426 N   0  0  0  0  0  0  0  0  0  0  0  0
  -29.8103  -13.8807   20.3741 N   0  0  0  0  0  0  0  0  0  0  0  0
  -25.2254  -15.0286   20.5441 N   0  0  0  0  0  0  0  0  0  0  0  0
  -21.7650  -13.4764   20.4385 N   0  0  0  0  0  0  0  0  0  0  0  0
  -29.1959  -25.7569   21.0409 N   0  0  0  0  0  0  0  0  0  0  0  0
  -33.9714  -23.2885   18.8511 N   0  0  0  0  0  0  0  0  0  0  0  0
  -29.8709  -15.9099   21.5875 N   0  0  0  0  0  0  0  0  0  0  0  0
  -37.1456  -24.4207   17.5432 N   0  3  0  0  0  0  0  0  0  0  0  0
  -22.5304  -13.4686   22.6002 O   0  0  0  0  0  0  0  0  0  0  0  0
  -29.1585  -23.8390   22.3611 O   0  0  0  0  0  0  0  0  0  0  0  0
  -32.6793  -25.1803   19.9611 O   0  0  0  0  0  0  0  0  0  0  0  0
  -36.1067  -22.8873   19.6612 O   0  0  0  0  0  0  0  0  0  0  0  0
  -31.6251  -15.3178   20.2350 O   0  0  0  0  0  0  0  0  0  0  0  0
  -21.9191   -6.7160   21.6133 O   0  0  0  0  0  0  0  0  0  0  0  0
  -28.5687  -19.2407   22.3759 O   0  0  0  0  0  0  0  0  0  0  0  0
  -31.0407  -20.5858   26.8940 O   0  0  0  0  0  0  0  0  0  1  0  0
  -18.1009   -5.1857   17.9413 F   0  0  0  0  0  0  0  0  0  0  0  0
  -22.1697   -4.3473   20.2101 F   0  0  0  0  0  0  0  0  0  0  0  0
  1  2  1  0  0  0  0
  1  5  2  0  0  0  0
  2  6  2  0  0  0  0
  3  8  2  0  0  0  0
  3 17  1  0  0  0  0
  4  9  1  0  0  0  0
  4 17  2  0  0  0  0
  5 19  1  0  0  0  0
  6 21  1  0  0  0  0
  7 10  2  0  0  0  0
  7 20  1  0  0  0  0
  8 26  1  0  0  0  0
  9 26  2  0  0  0  0
 10 27  1  0  0  0  0
 11 12  2  0  0  0  0
 11 28  1  0  0  0  0
 12 30  1  0  0  0  0
 13 22  1  0  0  0  0
 13 27  2  0  0  0  0
 14 23  2  0  0  0  0
 14 25  1  0  0  0  0
 15 25  2  0  0  0  0
 15 29  1  0  0  0  0
 16 30  2  0  0  0  0
 16 31  1  0  0  0  0
 17 32  1  0  0  0  0
 18 32  1  0  0  0  0
 18 33  2  0  0  0  0
 18 34  1  0  0  0  0
 19 21  2  0  0  0  0
 19 39  1  0  0  0  0
 20 22  2  0  0  0  0
 20 40  1  0  0  0  0
 21 52  1  0  0  0  0
 22 41  1  0  0  0  0
 23 24  1  0  0  0  0
 23 56  1  0  0  0  0
 24 29  2  0  0  0  0
 24 63  1  0  0  0  0
 25 70  1  0  0  0  0
 26 84  1  0  0  0  0
 27 86  1  0  0  0  0
 28 31  2  0  0  0  0
 28 84  1  0  0  0  0
 29 85  1  0  0  0  0
 30 87  1  0  0  0  0
 31 88  1  0  0  0  0
 32 68  2  0  0  0  0
 33 69  1  0  0  0  0
 33 73  1  0  0  0  0
 34 74  1  0  0  0  0
 34 79  2  0  0  0  0
 35 53  1  0  0  0  0
 35 75  1  0  0  0  0
 35 80  2  0  0  0  0
 36 65  1  0  0  0  0
 36 71  1  0  0  0  0
 36 81  2  0  0  0  0
 37 66  1  0  0  0  0
 37 76  1  0  0  0  0
 37 82  2  0  0  0  0
 38 72  1  0  0  0  0
 38 77  1  0  0  0  0
 38 83  2  0  0  0  0
 39 42  1  0  0  0  0
 40 53  1  0  0  0  0
 41 71  1  0  0  0  0
 42 46  1  0  0  0  0
 43 44  1  0  0  0  0
 43 48  1  0  0  0  0
 44 49  1  0  0  0  0
 45 47  1  0  0  0  0
 45 50  1  0  0  0  0
 46 52  1  0  0  0  0
 47 54  1  0  0  0  0
 48 55  1  0  0  0  0
 49 70  1  0  0  0  0
 50 72  1  0  0  0  0
 51 54  1  0  0  0  0
 51 72  1  0  0  0  0
 52 75  1  0  0  0  0
 53 71  1  0  0  0  0
 54 69  1  0  0  0  0
 55 64  1  0  0  0  0
 55 70  1  0  0  0  0
 57 66  1  0  0  0  0
 58 67  1  0  0  0  0
 59 67  1  0  0  0  0
 60 67  1  0  0  0  0
 61 78  1  0  0  0  0
 62 85  1  0  0  0  0
 63 77  1  0  0  0  0
 64 86  1  0  0  0  0
 65 67  1  0  0  0  0
 65 76  1  0  0  0  0
 66 78  1  0  0  0  0
 68 69  1  0  0  0  0
M  CHG  1  78   1
M  ISO  4  38 100  64 101  77 100  86 101
M  END
> <Batch ID>
0105

> <Smiles>
CNC(C)C(=O)NC(C(=O)N1Cc2cc([101O:1][101CH2:1]C3CCCCN3c3cc(C)c(C[100NH:0][100C:0](=O)N4CCCC(n5nc(-c6ccc(Oc7ccc(F)cc7F)cc6)c(C(N)=O)c5N)C4)c(OC)c3)ccc2CC1C(=O)NC1CCCc2ccccc21)C(C)(C)C

> <Shape>
0.191

> <Color>
0.160

> <Negative vol penalty>
0.000

$$$$

  -OEChem-04052301113D

 86 95  0     1  0  0  0  0  0999 V2000
  -27.9086  -36.0802   22.3568 C   0  0  0  0  0  0  0  0  0  0  0  0
  -28.2115  -34.7289   22.2243 C   0  0  0  0  0  0  0  0  0  0  0  0
  -21.0247  -11.5504   20.0702 C   0  0  0  0  0  0  0  0  0  0  0  0
  -23.4270  -11.4463   20.3052 C   0  0  0  0  0  0  0  0  0  0  0  0
  -26.7214  -36.4699   22.9753 C   0  0  0  0  0  0  0  0  0  0  0  0
  -27.3279  -33.7664   22.7112 C   0  0  0  0  0  0  0  0  0  0  0  0
  -26.6078  -29.9618   19.4476 C   0  0  0  0  0  0  0  0  0  0  0  0
  -21.0439  -10.3584   19.3460 C   0  0  0  0  0  0  0  0  0  0  0  0
  -23.4462  -10.2543   19.5810 C   0  0  0  0  0  0  0  0  0  0  0  0
  -27.6075  -28.9933   19.3681 C   0  0  0  0  0  0  0  0  0  0  0  0
  -22.8010   -6.9861   20.1490 C   0  0  0  0  0  0  0  0  0  0  0  0
  -23.5859   -5.9433   20.6408 C   0  0  0  0  0  0  0  0  0  0  0  0
  -26.3016  -27.5380   20.7809 C   0  0  0  0  0  0  0  0  0  0  0  0
  -27.1762  -20.0135   18.7775 C   0  0  0  0  0  0  0  0  0  0  0  0
  -29.5331  -19.4857   18.7179 C   0  0  0  0  0  0  0  0  0  0  0  0
  -28.0290  -18.1483   20.0544 C   0  0  0  0  0  0  0  0  0  0  0  0
  -24.8762   -5.9511   18.5982 C   0  0  0  0  0  0  0  0  0  0  0  0
  -22.2163  -12.0944   20.5497 C   0  0  0  0  0  0  0  0  0  0  0  0
  -22.0674  -13.4722   22.6915 C   0  0  0  0  0  0  0  0  0  0  0  0
  -25.8181  -35.5115   23.4614 C   0  0  0  0  0  0  0  0  0  0  0  0
  -25.4504  -29.7296   20.2045 C   0  0  0  0  0  0  0  0  0  0  0  0
  -26.1280  -34.1436   23.3380 C   0  0  0  0  0  0  0  0  0  0  0  0
  -25.2876  -28.5042   20.8663 C   0  0  0  0  0  0  0  0  0  0  0  0
  -28.4632  -20.2834   18.3122 C   0  0  0  0  0  0  0  0  0  0  0  0
  -26.9592  -18.9460   19.6487 C   0  0  0  0  0  0  0  0  0  0  0  0
  -22.2547   -9.7104   19.1014 C   0  0  0  0  0  0  0  0  0  0  0  0
  -27.4558  -27.7823   20.0371 C   0  0  0  0  0  0  0  0  0  0  0  0
  -23.0535   -7.5113   18.8816 C   0  0  0  0  0  0  0  0  0  0  0  0
  -29.3160  -18.4182   19.5891 C   0  0  0  0  0  0  0  0  0  0  0  0
  -24.6236   -5.4258   19.8655 C   0  0  0  0  0  0  0  0  0  0  0  0
  -24.0911   -6.9938   18.1063 C   0  0  0  0  0  0  0  0  0  0  0  0
  -22.1972  -13.3259   21.2974 C   0  0  0  0  0  0  0  0  0  0  0  0
  -22.1066  -14.8292   22.8996 C   0  0  0  0  0  0  0  0  0  0  0  0
  -21.9242  -12.4708   23.7076 C   0  0  0  0  0  0  0  0  0  0  0  0
  -24.1201  -31.0988   22.7460 C   0  0  0  0  0  0  0  0  0  0  0  0
  -21.7110  -29.0188   22.1201 C   0  0  0  0  0  0  0  0  0  0  0  0
  -20.7176  -26.0780   20.7017 C   0  0  0  0  0  0  0  0  0  0  0  0
  -24.4807  -19.3646   19.8175 C   0  0  0  0  0  0  0  0  0  0  0  0
  -24.5696  -35.9817   24.1649 C   0  0  0  0  0  0  0  0  0  0  0  0
  -24.3693  -30.7740   20.2584 C   0  0  0  0  0  0  0  0  0  0  0  0
  -24.0549  -28.1977   21.6757 C   0  0  0  0  0  0  0  0  0  0  0  0
  -23.5106  -34.8931   24.3188 C   0  0  0  0  0  0  0  0  0  0  0  0
  -21.0657  -18.9792   20.7481 C   0  0  0  0  0  0  0  0  0  0  0  0
  -24.1432  -33.6007   24.8251 C   0  0  0  0  0  0  0  0  0  0  0  0
  -20.9579  -17.5004   21.1273 C   0  0  0  0  0  0  0  0  0  0  0  0
  -28.9951  -24.9769   17.7713 C   0  0  0  0  0  0  0  0  0  0  0  0
  -22.0139  -19.1950   19.5700 C   0  0  0  0  0  0  0  0  0  0  0  0
  -23.2425  -17.1295   20.1123 C   0  0  0  0  0  0  0  0  0  0  0  0
  -29.6336  -23.7684   17.1064 C   0  0  0  0  0  0  0  0  0  0  0  0
  -28.5588  -23.1508   19.2129 C   0  0  0  0  0  0  0  0  0  0  0  0
  -25.1832  -33.0693   23.8313 C   0  0  1  0  0  0  0  0  0  0  0  0
  -23.4630  -30.6334   21.4775 C   0  0  1  0  0  0  0  0  0  0  0  0
  -28.9678  -24.6133   19.2493 C   0  0  2  0  0  0  0  0  0  0  0  0
  -22.3485  -16.8693   21.3357 C   0  0  2  0  0  0  0  0  0  0  0  0
  -18.6944  -24.6273   20.3868 C   0  0  0  0  0  0  0  0  0  0  0  0
  -21.9336  -28.0838   25.0160 C   0  0  0  0  0  0  0  0  0  0  0  0
  -20.6080  -26.0544   24.3896 C   0  0  0  0  0  0  0  0  0  0  0  0
  -19.5909  -28.3219   24.1738 C   0  0  0  0  0  0  0  0  0  0  0  0
  -20.8659  -26.3108   17.7550 C   0  0  0  0  0  0  0  0  0  0  0  0
  -31.6491  -17.9724   19.4717 C   0  0  0  0  0  0  0  0  0  0  0  0
  -28.6969  -21.4318   17.3753 C   0  0  0  0  0  0  0  0  0  0  0  0
  -28.0203  -25.4722   20.0592 C   0  0  0  0  0  0  0  0  0  1  0  0
  -21.3821  -27.6063   22.5394 C   0  0  1  0  0  0  0  0  0  0  0  0
  -19.5458  -25.7410   19.7974 C   0  0  2  0  0  0  0  0  0  0  0  0
  -20.9029  -27.5229   24.0161 C   0  0  0  0  0  0  0  0  0  0  0  0
  -22.3103  -14.4967   20.6645 N   0  0  0  0  0  0  0  0  0  0  0  0
  -22.2516  -15.3915   21.6654 N   0  0  0  0  0  0  0  0  0  0  0  0
  -23.0289  -29.2532   21.7030 N   0  0  0  0  0  0  0  0  0  0  0  0
  -23.3124  -18.5739   19.8404 N   0  0  0  0  0  0  0  0  0  0  0  0
  -22.0308  -15.5845   24.0159 N   0  0  0  0  0  0  0  0  0  0  0  0
  -21.9030  -11.1240   23.3202 N   0  0  0  0  0  0  0  0  0  0  0  0
  -25.6520  -18.6716   20.1217 N   0  0  0  0  0  0  0  0  0  0  0  0
  -24.5300  -32.4181   22.7161 N   0  0  0  0  0  0  0  0  0  0  0  0
  -20.4148  -27.1070   21.5681 N   0  0  0  0  0  0  0  0  0  0  0  0
  -29.3420  -22.6062   18.0379 N   0  3  1  0  0  0  0  0  0  0  0  0
  -20.0335  -25.3019   18.4594 N   0  3  0  0  0  0  0  0  0  0  0  0
  -21.8017  -12.7624   24.9215 O   0  0  0  0  0  0  0  0  0  0  0  0
  -24.2447  -30.3191   23.6832 O   0  0  0  0  0  0  0  0  0  0  0  0
  -20.8292  -29.8806   22.1544 O   0  0  0  0  0  0  0  0  0  0  0  0
  -21.7928  -25.4850   20.6475 O   0  0  0  0  0  0  0  0  0  0  0  0
  -24.4415  -20.5735   19.5744 O   0  0  0  0  0  0  0  0  0  0  0  0
  -22.2737   -8.5471   18.3950 O   0  0  0  0  0  0  0  0  0  0  0  0
  -30.3600  -17.6401   19.9853 O   0  0  0  0  0  0  0  0  0  0  0  0
  -28.4304  -26.8355   19.9617 O   0  0  0  0  0  0  0  0  0  1  0  0
  -25.3783   -4.4255   20.3386 F   0  0  0  0  0  0  0  0  0  0  0  0
  -24.3393   -7.4951   16.8885 F   0  0  0  0  0  0  0  0  0  0  0  0
  1  2  1  0  0  0  0
  1  5  2  0  0  0  0
  2  6  2  0  0  0  0
  3  8  2  0  0  0  0
  3 18  1  0  0  0  0
  4  9  1  0  0  0  0
  4 18  2  0  0  0  0
  5 20  1  0  0  0  0
  6 22  1  0  0  0  0
  7 10  2  0  0  0  0
  7 21  1  0  0  0  0
  8 26  1  0  0  0  0
  9 26  2  0  0  0  0
 10 27  1  0  0  0  0
 11 12  2  0  0  0  0
 11 28  1  0  0  0  0
 12 30  1  0  0  0  0
 13 23  1  0  0  0  0
 13 27  2  0  0  0  0
 14 24  1  0  0  0  0
 14 25  2  0  0  0  0
 15 24  2  0  0  0  0
 15 29  1  0  0  0  0
 16 25  1  0  0  0  0
 16 29  2  0  0  0  0
 17 30  2  0  0  0  0
 17 31  1  0  0  0  0
 18 32  1  0  0  0  0
 19 32  1  0  0  0  0
 19 33  2  0  0  0  0
 19 34  1  0  0  0  0
 20 22  2  0  0  0  0
 20 39  1  0  0  0  0
 21 23  2  0  0  0  0
 21 40  1  0  0  0  0
 22 51  1  0  0  0  0
 23 41  1  0  0  0  0
 24 61  1  0  0  0  0
 25 72  1  0  0  0  0
 26 82  1  0  0  0  0
 27 84  1  0  0  0  0
 28 31  2  0  0  0  0
 28 82  1  0  0  0  0
 29 83  1  0  0  0  0
 30 85  1  0  0  0  0
 31 86  1  0  0  0  0
 32 66  2  0  0  0  0
 33 67  1  0  0  0  0
 33 70  1  0  0  0  0
 34 71  1  0  0  0  0
 34 77  2  0  0  0  0
 35 52  1  0  0  0  0
 35 73  1  0  0  0  0
 35 78  2  0  0  0  0
 36 63  1  0  0  0  0
 36 68  1  0  0  0  0
 36 79  2  0  0  0  0
 37 64  1  0  0  0  0
 37 74  1  0  0  0  0
 37 80  2  0  0  0  0
 38 69  1  0  0  0  0
 38 72  1  0  0  0  0
 38 81  2  0  0  0  0
 39 42  1  0  0  0  0
 40 52  1  0  0  0  0
 41 68  1  0  0  0  0
 42 44  1  0  0  0  0
 43 45  1  0  0  0  0
 43 47  1  0  0  0  0
 44 51  1  0  0  0  0
 45 54  1  0  0  0  0
 46 49  1  0  0  0  0
 46 53  1  0  0  0  0
 47 69  1  0  0  0  0
 48 54  1  0  0  0  0
 48 69  1  0  0  0  0
 49 75  1  0  0  0  0
 50 53  1  0  0  0  0
 50 75  1  0  0  0  0
 51 73  1  0  0  0  0
 52 68  1  0  0  0  0
 53 62  1  0  0  0  0
 54 67  1  0  0  0  0
 55 64  1  0  0  0  0
 56 65  1  0  0  0  0
 57 65  1  0  0  0  0
 58 65  1  0  0  0  0
 59 76  1  0  0  0  0
 60 83  1  0  0  0  0
 61 75  1  0  0  0  0
 62 84  1  0  0  0  0
 63 65  1  0  0  0  0
 63 74  1  0  0  0  0
 64 76  1  0  0  0  0
 66 67  1  0  0  0  0
M  CHG  2  75   1  76   1
M  ISO  4  38 100  62 101  72 100  84 101
M  END
> <Batch ID>
0105

> <Smiles>
CNC(C)C(=O)NC(C(=O)N1Cc2cc([101O:1][101CH2:1]C3CCN(Cc4cc([100NH:0][100C:0](=O)N5CCCC(n6nc(-c7ccc(Oc8ccc(F)cc8F)cc7)c(C(N)=O)c6N)C5)cc(OC)c4)C3)ccc2CC1C(=O)NC1CCCc2ccccc21)C(C)(C)C

> <Shape>
0.260

> <Color>
0.080

> <Negative vol penalty>
0.000

$$$$

  -OEChem-04052301113D

 87 95  0     1  0  0  0  0  0999 V2000
  -26.1130  -35.2826   23.3801 C   0  0  0  0  0  0  0  0  0  0  0  0
  -26.6443  -34.0124   23.1808 C   0  0  0  0  0  0  0  0  0  0  0  0
  -25.3784  -18.5131   15.7527 C   0  0  0  0  0  0  0  0  0  0  0  0
  -23.8038  -17.7432   17.4155 C   0  0  0  0  0  0  0  0  0  0  0  0
  -24.7793  -35.4274   23.7599 C   0  0  0  0  0  0  0  0  0  0  0  0
  -25.8424  -32.8862   23.3623 C   0  0  0  0  0  0  0  0  0  0  0  0
  -26.4007  -29.4854   19.6517 C   0  0  0  0  0  0  0  0  0  0  0  0
  -24.5226  -18.0779   14.7408 C   0  0  0  0  0  0  0  0  0  0  0  0
  -22.9480  -17.3080   16.4036 C   0  0  0  0  0  0  0  0  0  0  0  0
  -27.5350  -28.6760   19.6953 C   0  0  0  0  0  0  0  0  0  0  0  0
  -22.7105  -14.6670   14.3060 C   0  0  0  0  0  0  0  0  0  0  0  0
  -22.1345  -13.4041   14.4430 C   0  0  0  0  0  0  0  0  0  0  0  0
  -30.1494  -20.1959   19.0398 C   0  0  0  0  0  0  0  0  0  0  0  0
  -26.2153  -26.8876   20.6330 C   0  0  0  0  0  0  0  0  0  0  0  0
  -32.8176  -19.5287   18.5725 C   0  0  0  0  0  0  0  0  0  0  0  0
  -19.9349  -14.4025   14.3992 C   0  0  0  0  0  0  0  0  0  0  0  0
  -25.0190  -18.3457   17.0900 C   0  0  0  0  0  0  0  0  0  0  0  0
  -30.5564  -18.8632   19.1026 C   0  0  0  0  0  0  0  0  0  0  0  0
  -25.9242  -20.0639   18.7441 C   0  0  0  0  0  0  0  0  0  0  0  0
  -23.9580  -34.3027   23.9367 C   0  0  0  0  0  0  0  0  0  0  0  0
  -25.1653  -29.0049   20.1094 C   0  0  0  0  0  0  0  0  0  0  0  0
  -24.4968  -33.0160   23.7461 C   0  0  0  0  0  0  0  0  0  0  0  0
  -25.0663  -27.6921   20.5918 C   0  0  0  0  0  0  0  0  0  0  0  0
  -31.0766  -21.1950   18.7432 C   0  0  0  0  0  0  0  0  0  0  0  0
  -31.8905  -18.5296   18.8690 C   0  0  0  0  0  0  0  0  0  0  0  0
  -23.3075  -17.4754   15.0662 C   0  0  0  0  0  0  0  0  0  0  0  0
  -27.4430  -27.3778   20.1886 C   0  0  0  0  0  0  0  0  0  0  0  0
  -21.8987  -15.7977   14.2158 C   0  0  0  0  0  0  0  0  0  0  0  0
  -20.7467  -13.2718   14.4895 C   0  0  0  0  0  0  0  0  0  0  0  0
  -32.4107  -20.8614   18.5096 C   0  0  0  0  0  0  0  0  0  0  0  0
  -20.5109  -15.6655   14.2624 C   0  0  0  0  0  0  0  0  0  0  0  0
  -25.9027  -18.7945   18.1358 C   0  0  0  0  0  0  0  0  0  0  0  0
  -26.9374  -19.9847   19.6681 C   0  0  0  0  0  0  0  0  0  0  0  0
  -29.5629  -17.8432   19.4148 C   0  0  0  0  0  0  0  0  0  0  0  0
  -25.1018  -21.2118   18.4963 C   0  0  0  0  0  0  0  0  0  0  0  0
  -23.1519  -29.8388   22.4234 C   0  0  0  0  0  0  0  0  0  0  0  0
  -29.5572  -24.5181   19.4708 C   0  0  0  0  0  0  0  0  0  0  0  0
  -21.2748  -27.5612   21.0776 C   0  0  0  0  0  0  0  0  0  0  0  0
  -21.0612  -24.7290   19.1855 C   0  0  0  0  0  0  0  0  0  0  0  0
  -31.7396  -16.1893   19.7587 C   0  0  0  0  0  0  0  0  0  0  0  0
  -22.5354  -34.5074   24.3937 C   0  0  0  0  0  0  0  0  0  0  0  0
  -23.9456  -29.8816   20.0308 C   0  0  0  0  0  0  0  0  0  0  0  0
  -23.7592  -27.1217   21.0763 C   0  0  0  0  0  0  0  0  0  0  0  0
  -21.6509  -33.2782   24.2008 C   0  0  0  0  0  0  0  0  0  0  0  0
  -29.2777  -16.8690   22.4364 C   0  0  0  0  0  0  0  0  0  0  0  0
  -22.3628  -32.0247   24.6996 C   0  0  0  0  0  0  0  0  0  0  0  0
  -28.1011  -17.4713   21.6706 C   0  0  0  0  0  0  0  0  0  0  0  0
  -30.0809  -15.9022   21.5716 C   0  0  0  0  0  0  0  0  0  0  0  0
  -29.3818  -17.1095   19.5234 C   0  0  0  0  0  0  0  0  0  0  0  0
  -23.6521  -31.7710   23.9091 C   0  0  1  0  0  0  0  0  0  0  0  0
  -22.8454  -29.4630   21.0012 C   0  0  1  0  0  0  0  0  0  0  0  0
  -28.5805  -18.1178   20.3605 C   0  0  1  0  0  0  0  0  0  0  0  0
  -28.8300  -17.2190   18.2650 C   0  0  0  0  0  0  0  0  0  0  0  0
  -19.3958  -23.0793   18.2898 C   0  0  0  0  0  0  0  0  0  0  0  0
  -21.0522  -26.2888   23.8419 C   0  0  0  0  0  0  0  0  0  0  0  0
  -20.2148  -24.2035   22.7381 C   0  0  0  0  0  0  0  0  0  0  0  0
  -18.9198  -26.3259   22.5358 C   0  0  0  0  0  0  0  0  0  0  0  0
  -33.6111  -16.8246   18.3008 C   0  0  0  0  0  0  0  0  0  0  0  0
  -21.7627  -25.3671   16.3819 C   0  0  0  0  0  0  0  0  0  0  0  0
  -29.4632  -23.0178   19.2909 C   0  0  0  0  0  0  0  0  0  0  0  0
  -28.3462  -25.1796   20.0995 C   0  0  0  0  0  0  0  0  0  1  0  0
  -21.0935  -26.0748   21.2693 C   0  0  1  0  0  0  0  0  0  0  0  0
  -20.1635  -24.3635   18.0172 C   0  0  2  0  0  0  0  0  0  0  0  0
  -20.3453  -25.7344   22.5890 C   0  0  0  0  0  0  0  0  0  0  0  0
  -26.8288  -17.9695   18.6314 N   0  0  0  0  0  0  0  0  0  0  0  0
  -27.4418  -18.7220   19.5609 N   0  0  0  0  0  0  0  0  0  0  0  0
  -22.5964  -28.0201   20.9851 N   0  0  0  0  0  0  0  0  0  0  0  0
  -30.4791  -16.5121   20.3019 N   0  0  0  0  0  0  0  0  0  0  0  0
  -27.4371  -20.8727   20.5536 N   0  0  0  0  0  0  0  0  0  0  0  0
  -24.1078  -21.1218   17.5123 N   0  0  0  0  0  0  0  0  0  0  0  0
  -30.6696  -22.5201   18.6811 N   0  0  0  0  0  0  0  0  0  0  0  0
  -23.3476  -31.1929   22.6178 N   0  0  0  0  0  0  0  0  0  0  0  0
  -20.4324  -25.5854   20.0643 N   0  0  0  0  0  0  0  0  0  0  0  0
  -32.3346  -17.1585   18.9287 N   0  0  0  0  0  0  0  0  0  0  0  0
  -20.9738  -24.1732   16.7810 N   0  3  0  0  0  0  0  0  0  0  0  0
  -29.2795  -17.4619   20.5503 O   0  0  0  0  0  0  0  0  0  0  0  0
  -25.2549  -22.2909   19.1173 O   0  0  0  0  0  0  0  0  0  0  0  0
  -23.2053  -28.9652   23.2811 O   0  0  0  0  0  0  0  0  0  0  0  0
  -30.5456  -25.1681   19.1326 O   0  0  0  0  0  0  0  0  0  0  0  0
  -20.2803  -28.2874   21.0052 O   0  0  0  0  0  0  0  0  0  0  0  0
  -22.2045  -24.2951   19.3082 O   0  0  0  0  0  0  0  0  0  0  0  0
  -32.2742  -15.0908   19.9536 O   0  0  0  0  0  0  0  0  0  0  0  0
  -22.4721  -17.0508   14.0791 O   0  0  0  0  0  0  0  0  0  0  0  0
  -28.5487  -26.5858   20.2329 O   0  0  0  0  0  0  0  0  0  1  0  0
  -20.1937  -12.0588   14.6195 F   0  0  0  0  0  0  0  0  0  0  0  0
  -33.3101  -21.8136   18.2238 F   0  0  0  0  0  0  0  0  0  0  0  0
  -19.7259  -16.7480   14.1749 F   0  0  0  0  0  0  0  0  0  0  0  0
  1  2  1  0  0  0  0
  1  5  2  0  0  0  0
  2  6  2  0  0  0  0
  3  8  2  0  0  0  0
  3 17  1  0  0  0  0
  4  9  1  0  0  0  0
  4 17  2  0  0  0  0
  5 20  1  0  0  0  0
  6 22  1  0  0  0  0
  7 10  2  0  0  0  0
  7 21  1  0  0  0  0
  8 26  1  0  0  0  0
  9 26  2  0  0  0  0
 10 27  1  0  0  0  0
 11 12  2  0  0  0  0
 11 28  1  0  0  0  0
 12 29  1  0  0  0  0
 13 18  2  0  0  0  0
 13 24  1  0  0  0  0
 14 23  1  0  0  0  0
 14 27  2  0  0  0  0
 15 25  2  0  0  0  0
 15 30  1  0  0  0  0
 16 29  2  0  0  0  0
 16 31  1  0  0  0  0
 17 32  1  0  0  0  0
 18 25  1  0  0  0  0
 18 34  1  0  0  0  0
 19 32  1  0  0  0  0
 19 33  2  0  0  0  0
 19 35  1  0  0  0  0
 20 22  2  0  0  0  0
 20 41  1  0  0  0  0
 21 23  2  0  0  0  0
 21 42  1  0  0  0  0
 22 50  1  0  0  0  0
 23 43  1  0  0  0  0
 24 30  2  0  0  0  0
 24 71  1  0  0  0  0
 25 74  1  0  0  0  0
 26 83  1  0  0  0  0
 27 84  1  0  0  0  0
 28 31  2  0  0  0  0
 28 83  1  0  0  0  0
 29 85  1  0  0  0  0
 30 86  1  0  0  0  0
 31 87  1  0  0  0  0
 32 65  2  0  0  0  0
 33 66  1  0  0  0  0
 33 69  1  0  0  0  0
 34 53  1  0  0  0  0
 34 76  2  0  0  0  0
 35 70  1  0  0  0  0
 35 77  2  0  0  0  0
 36 51  1  0  0  0  0
 36 72  1  0  0  0  0
 36 78  2  0  0  0  0
 37 60  1  0  0  0  0
 37 61  1  0  0  0  0
 37 79  2  0  0  0  0
 38 62  1  0  0  0  0
 38 67  1  0  0  0  0
 38 80  2  0  0  0  0
 39 63  1  0  0  0  0
 39 73  1  0  0  0  0
 39 81  2  0  0  0  0
 40 68  1  0  0  0  0
 40 74  1  0  0  0  0
 40 82  2  0  0  0  0
 41 44  1  0  0  0  0
 42 51  1  0  0  0  0
 43 67  1  0  0  0  0
 44 46  1  0  0  0  0
 45 47  1  0  0  0  0
 45 48  1  0  0  0  0
 46 50  1  0  0  0  0
 47 52  1  0  0  0  0
 48 68  1  0  0  0  0
 49 52  1  0  0  0  0
 49 68  1  0  0  0  0
 50 72  1  0  0  0  0
 51 67  1  0  0  0  0
 52 66  1  0  0  0  0
 54 63  1  0  0  0  0
 55 64  1  0  0  0  0
 56 64  1  0  0  0  0
 57 64  1  0  0  0  0
 58 74  1  0  0  0  0
 59 75  1  0  0  0  0
 60 71  1  0  0  0  0
 61 84  1  0  0  0  0
 62 64  1  0  0  0  0
 62 73  1  0  0  0  0
 63 75  1  0  0  0  0
 65 66  1  0  0  0  0
M  CHG  1  75   1
M  ISO  4  40 100  61 101  74 100  84 101
M  END
> <Batch ID>
0105

> <Smiles>
CNC(C)C(=O)NC(C(=O)N1Cc2cc([101O:1][101CH2:1]C(=O)CNc3cc(C(C)=O)c([100N:0](C)[100C:0](=O)N4CCCC(n5nc(-c6ccc(Oc7ccc(F)cc7F)cc6)c(C(N)=O)c5N)C4)cc3F)ccc2CC1C(=O)NC1CCCc2ccccc21)C(C)(C)C

> <Shape>
0.221

> <Color>
0.088

> <Negative vol penalty>
0.000

$$$$

  -OEChem-04052301113D

 86 94  0     1  0  0  0  0  0999 V2000
  -16.5555  -29.0510   24.0808 C   0  0  0  0  0  0  0  0  0  0  0  0
  -17.4462  -28.2159   23.4139 C   0  0  0  0  0  0  0  0  0  0  0  0
  -23.0015  -10.2286   20.0700 C   0  0  0  0  0  0  0  0  0  0  0  0
  -23.9899   -9.4901   22.1471 C   0  0  0  0  0  0  0  0  0  0  0  0
  -16.6983  -30.4349   23.9904 C   0  0  0  0  0  0  0  0  0  0  0  0
  -18.4798  -28.7644   22.6554 C   0  0  0  0  0  0  0  0  0  0  0  0
  -22.9121  -26.4467   23.4473 C   0  0  0  0  0  0  0  0  0  0  0  0
  -22.1330   -9.1374   20.0952 C   0  0  0  0  0  0  0  0  0  0  0  0
  -23.1214   -8.3989   22.1725 C   0  0  0  0  0  0  0  0  0  0  0  0
  -23.1104  -25.2192   22.8166 C   0  0  0  0  0  0  0  0  0  0  0  0
  -22.8823   -5.3701   20.6892 C   0  0  0  0  0  0  0  0  0  0  0  0
  -23.4190   -4.1218   21.0045 C   0  0  0  0  0  0  0  0  0  0  0  0
  -24.4102  -26.3152   21.1053 C   0  0  0  0  0  0  0  0  0  0  0  0
  -26.6749  -20.1380   16.9844 C   0  0  0  0  0  0  0  0  0  0  0  0
  -26.4458  -19.4897   19.3005 C   0  0  0  0  0  0  0  0  0  0  0  0
  -21.9463   -3.9709   22.9139 C   0  0  0  0  0  0  0  0  0  0  0  0
  -23.9300  -10.4049   21.0959 C   0  0  0  0  0  0  0  0  0  0  0  0
  -28.1157  -18.4338   17.9100 C   0  0  0  0  0  0  0  0  0  0  0  0
  -24.6093  -12.8057   21.6273 C   0  0  0  0  0  0  0  0  0  0  0  0
  -17.7399  -31.0006   23.2383 C   0  0  0  0  0  0  0  0  0  0  0  0
  -23.4532  -27.6212   22.9049 C   0  0  0  0  0  0  0  0  0  0  0  0
  -18.6358  -30.1573   22.5538 C   0  0  0  0  0  0  0  0  0  0  0  0
  -24.2195  -27.5560   21.7324 C   0  0  0  0  0  0  0  0  0  0  0  0
  -27.7118  -19.2180   16.8294 C   0  0  0  0  0  0  0  0  0  0  0  0
  -26.0419  -20.2739   18.2199 C   0  0  0  0  0  0  0  0  0  0  0  0
  -27.4827  -18.5697   19.1455 C   0  0  0  0  0  0  0  0  0  0  0  0
  -22.1929   -8.2226   21.1465 C   0  0  0  0  0  0  0  0  0  0  0  0
  -23.8571  -25.1537   21.6439 C   0  0  0  0  0  0  0  0  0  0  0  0
  -21.8777   -5.9188   21.4864 C   0  0  0  0  0  0  0  0  0  0  0  0
  -22.9510   -3.4222   22.1167 C   0  0  0  0  0  0  0  0  0  0  0  0
  -21.4097   -5.2192   22.5986 C   0  0  0  0  0  0  0  0  0  0  0  0
  -24.8278  -11.5315   21.0700 C   0  0  0  0  0  0  0  0  0  0  0  0
  -25.7521  -13.5091   21.3345 C   0  0  0  0  0  0  0  0  0  0  0  0
  -23.1412  -23.5628   20.0859 C   0  0  0  0  0  0  0  0  0  1  0  0
  -29.2214  -17.4563   17.7405 C   0  0  0  0  0  0  0  0  0  0  0  0
  -23.4747  -13.3084   22.3454 C   0  0  0  0  0  0  0  0  0  0  0  0
  -23.2097  -22.4107   19.4012 C   0  0  0  0  0  0  0  0  0  0  0  0
  -22.2434  -30.3348   21.7750 C   0  0  0  0  0  0  0  0  0  0  0  0
  -25.3646  -31.2033   21.6114 C   0  0  0  0  0  0  0  0  0  0  0  0
  -28.6315  -30.2419   21.3894 C   0  0  0  0  0  0  0  0  0  0  0  0
  -29.7705  -15.0456   17.8432 C   0  0  0  0  0  0  0  0  0  0  0  0
  -17.8256  -32.5026   23.1317 C   0  0  0  0  0  0  0  0  0  0  0  0
  -23.2527  -28.9336   23.6118 C   0  0  0  0  0  0  0  0  0  0  0  0
  -24.8389  -28.7850   21.1205 C   0  0  0  0  0  0  0  0  0  0  0  0
  -19.1719  -33.0005   22.6123 C   0  0  0  0  0  0  0  0  0  0  0  0
  -30.2034  -11.9477   19.4902 C   0  0  0  0  0  0  0  0  0  0  0  0
  -19.6033  -32.1959   21.3903 C   0  0  0  0  0  0  0  0  0  0  0  0
  -28.8280  -11.6688   20.1023 C   0  0  0  0  0  0  0  0  0  0  0  0
  -30.0900  -12.6021   18.1141 C   0  0  0  0  0  0  0  0  0  0  0  0
  -27.8762  -13.5218   18.6724 C   0  0  0  0  0  0  0  0  0  0  0  0
  -19.7846  -30.7142   21.7413 C   0  0  1  0  0  0  0  0  0  0  0  0
  -23.4177  -30.1392   22.6918 C   0  0  1  0  0  0  0  0  0  0  0  0
  -27.9371  -12.9272   20.0887 C   0  0  1  0  0  0  0  0  0  0  0  0
  -28.3701  -19.0950   15.4935 C   0  0  0  0  0  0  0  0  0  0  0  0
  -22.1527  -22.0561   18.3918 C   0  0  0  0  0  0  0  0  0  0  0  0
  -30.9546  -31.1786   21.2362 C   0  0  0  0  0  0  0  0  0  0  0  0
  -24.8872  -31.9011   18.6797 C   0  0  0  0  0  0  0  0  0  0  0  0
  -27.3690  -31.9093   18.3497 C   0  0  0  0  0  0  0  0  0  0  0  0
  -26.3161  -33.5351   19.9217 C   0  0  0  0  0  0  0  0  0  0  0  0
  -29.4466  -28.9446   23.9215 C   0  0  0  0  0  0  0  0  0  0  0  0
  -24.3020  -21.3956   19.6127 C   0  0  0  0  0  0  0  0  0  0  0  0
  -26.4512  -31.0949   20.5691 C   0  0  1  0  0  0  0  0  0  0  0  0
  -29.8631  -30.6718   22.1659 C   0  0  2  0  0  0  0  0  0  0  0  0
  -26.2427  -32.0870   19.3903 C   0  0  0  0  0  0  0  0  0  0  0  0
  -26.0160  -11.4287   20.4686 N   0  0  0  0  0  0  0  0  0  0  0  0
  -26.5543  -12.6472   20.6463 N   0  0  0  0  0  0  0  0  0  0  0  0
  -24.6091  -30.0456   21.8456 N   0  0  0  0  0  0  0  0  0  0  0  0
  -29.2387  -13.7909   18.1885 N   0  0  0  0  0  0  0  0  0  0  0  0
  -27.8753  -17.7867   20.2542 N   0  0  0  0  0  0  0  0  0  0  0  0
  -26.1389  -14.7747   21.6013 N   0  0  0  0  0  0  0  0  0  0  0  0
  -22.3857  -12.4522   22.5583 N   0  0  0  0  0  0  0  0  0  0  0  0
  -25.0116  -21.1886   18.3739 N   0  0  0  0  0  0  0  0  0  0  0  0
  -28.8905  -16.1238   17.9884 N   0  0  0  0  0  0  0  0  0  0  0  0
  -21.0399  -30.5082   22.4314 N   0  0  0  0  0  0  0  0  0  0  0  0
  -27.7150  -31.2659   21.2776 N   0  0  0  0  0  0  0  0  0  0  0  0
  -30.4073  -29.5268   22.9493 N   0  3  0  0  0  0  0  0  0  0  0  0
  -30.3203  -17.8555   17.3649 O   0  0  0  0  0  0  0  0  0  0  0  0
  -23.4212  -14.4872   22.7709 O   0  0  0  0  0  0  0  0  0  0  0  0
  -22.4167  -30.3302   20.5618 O   0  0  0  0  0  0  0  0  0  0  0  0
  -25.1970  -32.2736   22.2013 O   0  0  0  0  0  0  0  0  0  0  0  0
  -28.4978  -29.1119   20.9249 O   0  0  0  0  0  0  0  0  0  0  0  0
  -30.9391  -15.1982   17.4740 O   0  0  0  0  0  0  0  0  0  0  0  0
  -21.3454   -7.1579   21.1716 O   0  0  0  0  0  0  0  0  0  0  0  0
  -24.0516  -23.9570   21.0259 O   0  0  0  0  0  0  0  0  0  1  0  0
  -23.4653   -2.2228   22.4184 F   0  0  0  0  0  0  0  0  0  0  0  0
  -20.4439   -5.7407   23.3675 F   0  0  0  0  0  0  0  0  0  0  0  0
  1  2  1  0  0  0  0
  1  5  2  0  0  0  0
  2  6  2  0  0  0  0
  3  8  2  0  0  0  0
  3 17  1  0  0  0  0
  4  9  1  0  0  0  0
  4 17  2  0  0  0  0
  5 20  1  0  0  0  0
  6 22  1  0  0  0  0
  7 10  2  0  0  0  0
  7 21  1  0  0  0  0
  8 27  1  0  0  0  0
  9 27  2  0  0  0  0
 10 28  1  0  0  0  0
 11 12  2  0  0  0  0
 11 29  1  0  0  0  0
 12 30  1  0  0  0  0
 13 23  1  0  0  0  0
 13 28  2  0  0  0  0
 14 24  2  0  0  0  0
 14 25  1  0  0  0  0
 15 25  2  0  0  0  0
 15 26  1  0  0  0  0
 16 30  2  0  0  0  0
 16 31  1  0  0  0  0
 17 32  1  0  0  0  0
 18 24  1  0  0  0  0
 18 26  2  0  0  0  0
 18 35  1  0  0  0  0
 19 32  1  0  0  0  0
 19 33  2  0  0  0  0
 19 36  1  0  0  0  0
 20 22  2  0  0  0  0
 20 42  1  0  0  0  0
 21 23  2  0  0  0  0
 21 43  1  0  0  0  0
 22 51  1  0  0  0  0
 23 44  1  0  0  0  0
 24 54  1  0  0  0  0
 25 72  1  0  0  0  0
 26 69  1  0  0  0  0
 27 83  1  0  0  0  0
 28 84  1  0  0  0  0
 29 31  2  0  0  0  0
 29 83  1  0  0  0  0
 30 85  1  0  0  0  0
 31 86  1  0  0  0  0
 32 65  2  0  0  0  0
 33 66  1  0  0  0  0
 33 70  1  0  0  0  0
 34 37  2  0  0  0  0
 34 84  1  0  0  0  0
 35 73  1  0  0  0  0
 35 77  2  0  0  0  0
 36 71  1  0  0  0  0
 36 78  2  0  0  0  0
 37 55  1  0  0  0  0
 37 61  1  0  0  0  0
 38 52  1  0  0  0  0
 38 74  1  0  0  0  0
 38 79  2  0  0  0  0
 39 62  1  0  0  0  0
 39 67  1  0  0  0  0
 39 80  2  0  0  0  0
 40 63  1  0  0  0  0
 40 75  1  0  0  0  0
 40 81  2  0  0  0  0
 41 68  1  0  0  0  0
 41 73  1  0  0  0  0
 41 82  2  0  0  0  0
 42 45  1  0  0  0  0
 43 52  1  0  0  0  0
 44 67  1  0  0  0  0
 45 47  1  0  0  0  0
 46 48  1  0  0  0  0
 46 49  1  0  0  0  0
 47 51  1  0  0  0  0
 48 53  1  0  0  0  0
 49 68  1  0  0  0  0
 50 53  1  0  0  0  0
 50 68  1  0  0  0  0
 51 74  1  0  0  0  0
 52 67  1  0  0  0  0
 53 66  1  0  0  0  0
 56 63  1  0  0  0  0
 57 64  1  0  0  0  0
 58 64  1  0  0  0  0
 59 64  1  0  0  0  0
 60 76  1  0  0  0  0
 61 72  1  0  0  0  0
 62 64  1  0  0  0  0
 62 75  1  0  0  0  0
 63 76  1  0  0  0  0
 65 66  1  0  0  0  0
M  CHG  1  76   1
M  ISO  4  34 101  41 100  73 100  84 101
M  END
> <Batch ID>
0105

> <Smiles>
CNC(C)C(=O)NC(C(=O)N1Cc2cc([101O:1][101CH:1]=C(C)CNc3cc(C)c(C(=O)[100NH:0][100C:0](=O)N4CCCC(n5nc(-c6ccc(Oc7ccc(F)cc7F)cc6)c(C(N)=O)c5N)C4)c(N)c3)ccc2CC1C(=O)NC1CCCc2ccccc21)C(C)(C)C

> <Shape>
0.266

> <Color>
0.118

> <Negative vol penalty>
0.000

$$$$

  -OEChem-04052301113D

 83 91  0     1  0  0  0  0  0999 V2000
  -27.4411  -20.8548   27.6778 C   0  0  0  0  0  0  0  0  0  0  0  0
  -27.7071  -21.9100   26.8126 C   0  0  0  0  0  0  0  0  0  0  0  0
  -27.5266  -12.3393   19.3258 C   0  0  0  0  0  0  0  0  0  0  0  0
  -26.5076  -12.8177   21.4635 C   0  0  0  0  0  0  0  0  0  0  0  0
  -30.7714  -21.0292   21.0962 C   0  0  0  0  0  0  0  0  0  0  0  0
  -26.1355  -20.3909   27.8246 C   0  0  0  0  0  0  0  0  0  0  0  0
  -26.6661  -22.5095   26.1028 C   0  0  0  0  0  0  0  0  0  0  0  0
  -27.7607  -26.5472   23.5140 C   0  0  0  0  0  0  0  0  0  0  0  0
  -27.0231  -11.0395   19.3767 C   0  0  0  0  0  0  0  0  0  0  0  0
  -26.0041  -11.5179   21.5144 C   0  0  0  0  0  0  0  0  0  0  0  0
  -30.3903  -21.8033   20.0003 C   0  0  0  0  0  0  0  0  0  0  0  0
  -28.5119  -26.5093   22.3401 C   0  0  0  0  0  0  0  0  0  0  0  0
  -23.4289   -9.7915   20.1695 C   0  0  0  0  0  0  0  0  0  0  0  0
  -22.0998   -9.6278   20.5596 C   0  0  0  0  0  0  0  0  0  0  0  0
  -28.7878  -21.7325   22.2828 C   0  0  0  0  0  0  0  0  0  0  0  0
  -26.4953  -26.7949   21.0475 C   0  0  0  0  0  0  0  0  0  0  0  0
  -22.8150   -8.2740   22.4285 C   0  0  0  0  0  0  0  0  0  0  0  0
  -27.2688  -13.2285   20.3693 C   0  0  0  0  0  0  0  0  0  0  0  0
  -29.9701  -20.9937   22.2375 C   0  0  0  0  0  0  0  0  0  0  0  0
  -27.1629  -15.7048   19.7656 C   0  0  0  0  0  0  0  0  0  0  0  0
  -25.0804  -20.9774   27.1064 C   0  0  0  0  0  0  0  0  0  0  0  0
  -26.3675  -26.6986   23.4629 C   0  0  0  0  0  0  0  0  0  0  0  0
  -25.3382  -22.0713   26.2553 C   0  0  0  0  0  0  0  0  0  0  0  0
  -25.7290  -26.8370   22.2222 C   0  0  0  0  0  0  0  0  0  0  0  0
  -28.4068  -22.5067   21.1868 C   0  0  0  0  0  0  0  0  0  0  0  0
  -26.2619  -10.6288   20.4710 C   0  0  0  0  0  0  0  0  0  0  0  0
  -27.8789  -26.6302   21.1065 C   0  0  0  0  0  0  0  0  0  0  0  0
  -29.2081  -22.5421   20.0456 C   0  0  0  0  0  0  0  0  0  0  0  0
  -24.4511   -9.1964   20.9089 C   0  0  0  0  0  0  0  0  0  0  0  0
  -21.7928   -8.8691   21.6891 C   0  0  0  0  0  0  0  0  0  0  0  0
  -24.1442   -8.4377   22.0384 C   0  0  0  0  0  0  0  0  0  0  0  0
  -27.7891  -14.5711   20.3175 C   0  0  0  0  0  0  0  0  0  0  0  0
  -28.0607  -16.7247   19.9662 C   0  0  0  0  0  0  0  0  0  0  0  0
  -30.3681  -20.1860   23.3796 C   0  0  0  0  0  0  0  0  0  0  0  0
  -25.8841  -15.8251   19.1286 C   0  0  0  0  0  0  0  0  0  0  0  0
  -31.6169  -19.3901   23.3634 C   0  0  0  0  0  0  0  0  0  0  0  0
  -23.8846  -24.9312   24.3657 C   0  0  0  0  0  0  0  0  0  0  0  0
  -22.1940  -27.5582   23.4921 C   0  0  0  0  0  0  0  0  0  0  0  0
  -22.0274  -30.4049   21.6171 C   0  0  0  0  0  0  0  0  0  0  0  0
  -23.6853  -20.4409   27.3092 C   0  0  0  0  0  0  0  0  0  0  0  0
  -25.5745  -26.7644   24.7393 C   0  0  0  0  0  0  0  0  0  0  0  0
  -24.2381  -27.0218   22.1139 C   0  0  0  0  0  0  0  0  0  0  0  0
  -22.7266  -20.8401   26.1921 C   0  0  0  0  0  0  0  0  0  0  0  0
  -32.8860  -16.6341   21.4527 C   0  0  0  0  0  0  0  0  0  0  0  0
  -22.8223  -22.3366   25.9352 C   0  0  0  0  0  0  0  0  0  0  0  0
  -31.6203  -15.9232   20.9749 C   0  0  0  0  0  0  0  0  0  0  0  0
  -32.6967  -17.2386   22.8402 C   0  0  0  0  0  0  0  0  0  0  0  0
  -30.2559  -17.4571   22.4618 C   0  0  0  0  0  0  0  0  0  0  0  0
  -24.2263  -22.7188   25.4499 C   0  0  1  0  0  0  0  0  0  0  0  0
  -24.1039  -26.4064   24.5482 C   0  0  1  0  0  0  0  0  0  0  0  0
  -30.3997  -16.8574   21.0521 C   0  0  2  0  0  0  0  0  0  0  0  0
  -20.5041  -32.3269   21.0850 C   0  0  0  0  0  0  0  0  0  0  0  0
  -20.5167  -25.7332   21.7128 C   0  0  0  0  0  0  0  0  0  0  0  0
  -19.6827  -27.7734   20.5253 C   0  0  0  0  0  0  0  0  0  0  0  0
  -19.2104  -27.4664   22.9554 C   0  0  0  0  0  0  0  0  0  0  0  0
  -23.9668  -32.3818   22.6606 C   0  0  0  0  0  0  0  0  0  0  0  0
  -28.9991  -25.4414   17.8749 C   0  0  0  0  0  0  0  0  0  0  0  0
  -27.9670  -26.0722   18.7964 C   0  0  0  0  0  0  0  0  0  1  0  0
  -29.7576  -24.3139   18.5575 C   0  0  0  0  0  0  0  0  0  0  0  0
  -21.5572  -28.0428   22.2120 C   0  0  1  0  0  0  0  0  0  0  0  0
  -21.6302  -31.8254   21.9757 C   0  0  2  0  0  0  0  0  0  0  0  0
  -20.2697  -27.2485   21.8530 C   0  0  0  0  0  0  0  0  0  0  0  0
  -28.9918  -14.8447   20.8301 N   0  0  0  0  0  0  0  0  0  0  0  0
  -29.6693  -20.1070   24.4797 N   0  0  0  0  0  0  0  0  0  0  0  0
  -29.1286  -16.1618   20.6011 N   0  0  0  0  0  0  0  0  0  0  0  0
  -31.5101  -18.0905   22.8883 N   0  0  0  0  0  0  0  0  0  0  0  0
  -23.5057  -27.0735   23.3900 N   0  0  0  0  0  0  0  0  0  0  0  0
  -27.2070  -23.2489   21.2457 N   0  0  0  0  0  0  0  0  0  0  0  0
  -28.0330  -18.0391   19.6597 N   0  0  0  0  0  0  0  0  0  0  0  0
  -25.0885  -14.6779   19.0053 N   0  0  0  0  0  0  0  0  0  0  0  0
  -24.3389  -24.1604   25.4188 N   0  0  0  0  0  0  0  0  0  0  0  0
  -21.3478  -29.4770   22.3777 N   0  0  0  0  0  0  0  0  0  0  0  0
  -22.7944  -32.7431   21.8228 N   0  3  0  0  0  0  0  0  0  0  0  0
  -25.4665  -16.9143   18.6674 O   0  0  0  0  0  0  0  0  0  0  0  0
  -32.6154  -19.9671   23.7737 O   0  0  0  0  0  0  0  0  0  0  0  0
  -23.3419  -24.5227   23.3458 O   0  0  0  0  0  0  0  0  0  0  0  0
  -21.5539  -27.6146   24.5450 O   0  0  0  0  0  0  0  0  0  0  0  0
  -22.8548  -30.1442   20.7464 O   0  0  0  0  0  0  0  0  0  0  0  0
  -25.7703   -9.3606   20.5208 O   0  0  0  0  0  0  0  0  0  0  0  0
  -28.6097  -26.5929   19.9592 O   0  0  0  0  0  0  0  0  0  1  0  0
  -28.8507  -23.2956   18.9578 O   0  0  0  0  0  0  0  0  0  0  0  0
  -20.5165   -8.7132   22.0644 F   0  0  0  0  0  0  0  0  0  0  0  0
  -25.1220   -7.8645   22.7534 F   0  0  0  0  0  0  0  0  0  0  0  0
  1  2  1  0  0  0  0
  1  6  2  0  0  0  0
  2  7  2  0  0  0  0
  3  9  2  0  0  0  0
  3 18  1  0  0  0  0
  4 10  1  0  0  0  0
  4 18  2  0  0  0  0
  5 11  2  0  0  0  0
  5 19  1  0  0  0  0
  6 21  1  0  0  0  0
  7 23  1  0  0  0  0
  8 12  2  0  0  0  0
  8 22  1  0  0  0  0
  9 26  1  0  0  0  0
 10 26  2  0  0  0  0
 11 28  1  0  0  0  0
 12 27  1  0  0  0  0
 13 14  2  0  0  0  0
 13 29  1  0  0  0  0
 14 30  1  0  0  0  0
 15 19  2  0  0  0  0
 15 25  1  0  0  0  0
 16 24  1  0  0  0  0
 16 27  2  0  0  0  0
 17 30  2  0  0  0  0
 17 31  1  0  0  0  0
 18 32  1  0  0  0  0
 19 34  1  0  0  0  0
 20 32  1  0  0  0  0
 20 33  2  0  0  0  0
 20 35  1  0  0  0  0
 21 23  2  0  0  0  0
 21 40  1  0  0  0  0
 22 24  2  0  0  0  0
 22 41  1  0  0  0  0
 23 49  1  0  0  0  0
 24 42  1  0  0  0  0
 25 28  2  0  0  0  0
 25 68  1  0  0  0  0
 26 79  1  0  0  0  0
 27 80  1  0  0  0  0
 28 81  1  0  0  0  0
 29 31  2  0  0  0  0
 29 79  1  0  0  0  0
 30 82  1  0  0  0  0
 31 83  1  0  0  0  0
 32 63  2  0  0  0  0
 33 65  1  0  0  0  0
 33 69  1  0  0  0  0
 34 36  1  0  0  0  0
 34 64  2  0  0  0  0
 35 70  1  0  0  0  0
 35 74  2  0  0  0  0
 36 66  1  0  0  0  0
 36 75  2  0  0  0  0
 37 50  1  0  0  0  0
 37 71  1  0  0  0  0
 37 76  2  0  0  0  0
 38 60  1  0  0  0  0
 38 67  1  0  0  0  0
 38 77  2  0  0  0  0
 39 61  1  0  0  0  0
 39 72  1  0  0  0  0
 39 78  2  0  0  0  0
 40 43  1  0  0  0  0
 41 50  1  0  0  0  0
 42 67  1  0  0  0  0
 43 45  1  0  0  0  0
 44 46  1  0  0  0  0
 44 47  1  0  0  0  0
 45 49  1  0  0  0  0
 46 51  1  0  0  0  0
 47 66  1  0  0  0  0
 48 51  1  0  0  0  0
 48 66  1  0  0  0  0
 49 71  1  0  0  0  0
 50 67  1  0  0  0  0
 51 65  1  0  0  0  0
 52 61  1  0  0  0  0
 53 62  1  0  0  0  0
 54 62  1  0  0  0  0
 55 62  1  0  0  0  0
 56 73  1  0  0  0  0
 57 58  1  0  0  0  0
 57 59  1  0  0  0  0
 58 80  1  0  0  0  0
 59 81  1  0  0  0  0
 60 62  1  0  0  0  0
 60 72  1  0  0  0  0
 61 73  1  0  0  0  0
 63 65  1  0  0  0  0
M  CHG  1  73   1
M  ISO  4  34 100  36 100  58 101  80 101
M  END
> <Batch ID>
0105

> <Smiles>
CNC(C)C(=O)NC(C(=O)N1Cc2cc([101O:1][101CH2:1]CCOc3ccc([100C:0](=N)[100C:0](=O)N4CCCC(n5nc(-c6ccc(Oc7ccc(F)cc7F)cc6)c(C(N)=O)c5N)C4)cc3N)ccc2CC1C(=O)NC1CCCc2ccccc21)C(C)(C)C

> <Shape>
0.230

> <Color>
0.072

> <Negative vol penalty>
0.000

$$$$

  -OEChem-04052301113D

 87 95  0     1  0  0  0  0  0999 V2000
  -21.7051  -12.5606   21.3894 C   0  0  0  0  0  0  0  0  0  0  0  0
  -21.9567  -13.7857   21.9987 C   0  0  0  0  0  0  0  0  0  0  0  0
  -17.7128  -30.2544   23.1249 C   0  0  0  0  0  0  0  0  0  0  0  0
  -29.0183  -25.8282   24.6364 C   0  0  0  0  0  0  0  0  0  0  0  0
  -27.4823  -24.0762   23.9975 C   0  0  0  0  0  0  0  0  0  0  0  0
  -22.7305  -11.8912   20.7228 C   0  0  0  0  0  0  0  0  0  0  0  0
  -23.2343  -14.3416   21.9427 C   0  0  0  0  0  0  0  0  0  0  0  0
  -23.1563  -19.2817   20.8317 C   0  0  0  0  0  0  0  0  0  0  0  0
  -18.0747  -29.3258   24.1007 C   0  0  0  0  0  0  0  0  0  0  0  0
  -18.6664  -30.7248   22.2220 C   0  0  0  0  0  0  0  0  0  0  0  0
  -29.3155  -25.1390   25.8120 C   0  0  0  0  0  0  0  0  0  0  0  0
  -27.7795  -23.3869   25.1732 C   0  0  0  0  0  0  0  0  0  0  0  0
  -22.8268  -20.1610   21.8623 C   0  0  0  0  0  0  0  0  0  0  0  0
  -26.9317  -23.5550   28.4418 C   0  0  0  0  0  0  0  0  0  0  0  0
  -25.8664  -23.0217   29.1673 C   0  0  0  0  0  0  0  0  0  0  0  0
  -25.1669  -20.6485   22.1866 C   0  0  0  0  0  0  0  0  0  0  0  0
  -20.3437  -29.3380   23.2710 C   0  0  0  0  0  0  0  0  0  0  0  0
  -26.7953  -20.8070   28.9032 C   0  0  0  0  0  0  0  0  0  0  0  0
  -28.1017  -25.2968   23.7291 C   0  0  0  0  0  0  0  0  0  0  0  0
  -28.4447  -25.8908   21.2720 C   0  0  0  0  0  0  0  0  0  0  0  0
  -24.0189  -12.4438   20.6503 C   0  0  0  0  0  0  0  0  0  0  0  0
  -24.4966  -19.0706   20.4775 C   0  0  0  0  0  0  0  0  0  0  0  0
  -24.2782  -13.6783   21.2756 C   0  0  0  0  0  0  0  0  0  0  0  0
  -25.5107  -19.7680   21.1494 C   0  0  0  0  0  0  0  0  0  0  0  0
  -19.3901  -28.8676   24.1738 C   0  0  0  0  0  0  0  0  0  0  0  0
  -19.9818  -30.2666   22.2951 C   0  0  0  0  0  0  0  0  0  0  0  0
  -28.6961  -23.9183   26.0805 C   0  0  0  0  0  0  0  0  0  0  0  0
  -23.8323  -20.8423   22.5418 C   0  0  0  0  0  0  0  0  0  0  0  0
  -27.9287  -22.7143   27.9469 C   0  0  0  0  0  0  0  0  0  0  0  0
  -25.7982  -21.6477   29.3981 C   0  0  0  0  0  0  0  0  0  0  0  0
  -27.8605  -21.3403   28.1777 C   0  0  0  0  0  0  0  0  0  0  0  0
  -27.7938  -26.0086   22.5147 C   0  0  0  0  0  0  0  0  0  0  0  0
  -27.7811  -26.7705   20.4521 C   0  0  0  0  0  0  0  0  0  0  0  0
  -29.5503  -25.0604   20.8928 C   0  0  0  0  0  0  0  0  0  0  0  0
  -26.4460  -16.5600   20.4696 C   0  0  0  0  0  0  0  0  0  0  0  0
  -28.4756  -18.6320   19.0170 C   0  0  0  0  0  0  0  0  0  0  0  0
  -21.1449  -25.8537   24.7460 C   0  0  0  0  0  0  0  0  0  0  0  0
  -29.4049  -21.8686   18.4623 C   0  0  0  0  0  0  0  0  0  0  0  0
  -22.3770  -28.8677   20.3848 C   0  0  0  0  0  0  0  0  0  0  0  0
  -25.1068  -11.6607   19.9591 C   0  0  0  0  0  0  0  0  0  0  0  0
  -24.8339  -18.1391   19.3457 C   0  0  0  0  0  0  0  0  0  0  0  0
  -26.9637  -19.5920   20.7940 C   0  0  0  0  0  0  0  0  0  0  0  0
  -26.3400  -12.4959   19.6246 C   0  0  0  0  0  0  0  0  0  0  0  0
  -25.2963  -30.8482   20.5496 C   0  0  0  0  0  0  0  0  0  0  0  0
  -26.7539  -13.3411   20.8251 C   0  0  0  0  0  0  0  0  0  0  0  0
  -26.3413  -29.8130   20.9636 C   0  0  0  0  0  0  0  0  0  0  0  0
  -23.9635  -30.6395   21.2710 C   0  0  0  0  0  0  0  0  0  0  0  0
  -24.4658  -28.2331   21.5538 C   0  0  0  0  0  0  0  0  0  0  0  0
  -25.6448  -14.3256   21.2154 C   0  0  1  0  0  0  0  0  0  0  0  0
  -26.2638  -17.6115   19.4119 C   0  0  1  0  0  0  0  0  0  0  0  0
  -25.7954  -28.3840   20.7988 C   0  0  2  0  0  0  0  0  0  0  0  0
  -20.6650  -30.3098   17.9846 C   0  0  0  0  0  0  0  0  0  0  0  0
  -31.1253  -23.2460   17.2622 C   0  0  0  0  0  0  0  0  0  0  0  0
  -30.5335  -17.9194   21.1542 C   0  0  0  0  0  0  0  0  0  0  0  0
  -31.8231  -19.9613   20.4941 C   0  0  0  0  0  0  0  0  0  0  0  0
  -31.4612  -18.1284   18.8412 C   0  0  0  0  0  0  0  0  0  0  0  0
  -27.3474  -23.2107   16.8117 C   0  0  0  0  0  0  0  0  0  0  0  0
  -19.7785  -27.8669   25.2236 C   0  0  0  0  0  0  0  0  0  0  0  0
  -21.0016  -30.7702   21.3300 C   0  0  0  0  0  0  0  0  0  0  0  0
  -21.0470  -24.4867   24.0926 C   0  0  0  0  0  0  0  0  0  0  0  0
  -22.3582  -23.7122   24.1618 C   0  0  0  0  0  0  0  0  0  0  0  0
  -20.3019  -29.6008   19.2736 C   0  0  0  0  0  0  0  0  0  0  0  0
  -22.2539  -22.3656   23.4607 C   0  0  0  0  0  0  0  0  0  1  0  0
  -29.5206  -19.6135   19.4898 C   0  0  1  0  0  0  0  0  0  0  0  0
  -29.7441  -22.6142   17.1842 C   0  0  2  0  0  0  0  0  0  0  0  0
  -30.8074  -18.9077   20.0030 C   0  0  0  0  0  0  0  0  0  0  0  0
  -26.7936  -26.8935   22.4911 N   0  0  0  0  0  0  0  0  0  0  0  0
  -26.8111  -27.3397   21.2236 N   0  0  0  0  0  0  0  0  0  0  0  0
  -27.2431  -18.6655   19.6845 N   0  0  0  0  0  0  0  0  0  0  0  0
  -23.5026  -29.2516   21.1284 N   0  0  0  0  0  0  0  0  0  0  0  0
  -27.9386  -27.1048   19.1537 N   0  0  0  0  0  0  0  0  0  0  0  0
  -30.1135  -24.2154   21.8588 N   0  0  0  0  0  0  0  0  0  0  0  0
  -25.6308  -15.4555   20.3113 N   0  0  0  0  0  0  0  0  0  0  0  0
  -19.9430  -26.5425   24.6729 N   0  0  0  0  0  0  0  0  0  0  0  0
  -29.7461  -20.5350   18.3815 N   0  0  0  0  0  0  0  0  0  0  0  0
  -21.3213  -29.7875   20.2964 N   0  0  0  0  0  0  0  0  0  0  0  0
  -28.7472  -23.6932   16.9339 N   0  3  0  0  0  0  0  0  0  0  0  0
  -30.0352  -25.0796   19.7361 O   0  0  0  0  0  0  0  0  0  0  0  0
  -27.2667  -16.7369   21.3624 O   0  0  0  0  0  0  0  0  0  0  0  0
  -28.7406  -17.8686   18.0850 O   0  0  0  0  0  0  0  0  0  0  0  0
  -22.1707  -26.2791   25.2702 O   0  0  0  0  0  0  0  0  0  0  0  0
  -28.8921  -22.4152   19.4363 O   0  0  0  0  0  0  0  0  0  0  0  0
  -22.3138  -27.7601   19.8358 O   0  0  0  0  0  0  0  0  0  0  0  0
  -28.9861  -23.2454   27.2275 O   0  0  0  0  0  0  0  0  0  0  0  0
  -23.5134  -21.7006   23.5486 O   0  0  0  0  0  0  0  0  0  1  0  0
  -24.7760  -21.1359   30.0961 F   0  0  0  0  0  0  0  0  0  0  0  0
  -28.8160  -20.5278   27.7058 F   0  0  0  0  0  0  0  0  0  0  0  0
  1  2  1  0  0  0  0
  1  6  2  0  0  0  0
  2  7  2  0  0  0  0
  3  9  1  0  0  0  0
  3 10  2  0  0  0  0
  4 11  2  0  0  0  0
  4 19  1  0  0  0  0
  5 12  1  0  0  0  0
  5 19  2  0  0  0  0
  6 21  1  0  0  0  0
  7 23  1  0  0  0  0
  8 13  2  0  0  0  0
  8 22  1  0  0  0  0
  9 25  2  0  0  0  0
 10 26  1  0  0  0  0
 11 27  1  0  0  0  0
 12 27  2  0  0  0  0
 13 28  1  0  0  0  0
 14 15  2  0  0  0  0
 14 29  1  0  0  0  0
 15 30  1  0  0  0  0
 16 24  1  0  0  0  0
 16 28  2  0  0  0  0
 17 25  1  0  0  0  0
 17 26  2  0  0  0  0
 18 30  2  0  0  0  0
 18 31  1  0  0  0  0
 19 32  1  0  0  0  0
 20 32  1  0  0  0  0
 20 33  2  0  0  0  0
 20 34  1  0  0  0  0
 21 23  2  0  0  0  0
 21 40  1  0  0  0  0
 22 24  2  0  0  0  0
 22 41  1  0  0  0  0
 23 49  1  0  0  0  0
 24 42  1  0  0  0  0
 25 58  1  0  0  0  0
 26 59  1  0  0  0  0
 27 84  1  0  0  0  0
 28 85  1  0  0  0  0
 29 31  2  0  0  0  0
 29 84  1  0  0  0  0
 30 86  1  0  0  0  0
 31 87  1  0  0  0  0
 32 67  2  0  0  0  0
 33 68  1  0  0  0  0
 33 71  1  0  0  0  0
 34 72  1  0  0  0  0
 34 78  2  0  0  0  0
 35 50  1  0  0  0  0
 35 73  1  0  0  0  0
 35 79  2  0  0  0  0
 36 64  1  0  0  0  0
 36 69  1  0  0  0  0
 36 80  2  0  0  0  0
 37 60  1  0  0  0  0
 37 74  1  0  0  0  0
 37 81  2  0  0  0  0
 38 65  1  0  0  0  0
 38 75  1  0  0  0  0
 38 82  2  0  0  0  0
 39 70  1  0  0  0  0
 39 76  1  0  0  0  0
 39 83  2  0  0  0  0
 40 43  1  0  0  0  0
 41 50  1  0  0  0  0
 42 69  1  0  0  0  0
 43 45  1  0  0  0  0
 44 46  1  0  0  0  0
 44 47  1  0  0  0  0
 45 49  1  0  0  0  0
 46 51  1  0  0  0  0
 47 70  1  0  0  0  0
 48 51  1  0  0  0  0
 48 70  1  0  0  0  0
 49 73  1  0  0  0  0
 50 69  1  0  0  0  0
 51 68  1  0  0  0  0
 52 62  1  0  0  0  0
 53 65  1  0  0  0  0
 54 66  1  0  0  0  0
 55 66  1  0  0  0  0
 56 66  1  0  0  0  0
 57 77  1  0  0  0  0
 58 74  1  0  0  0  0
 59 76  1  0  0  0  0
 60 61  1  0  0  0  0
 61 63  1  0  0  0  0
 62 76  1  0  0  0  0
 63 85  1  0  0  0  0
 64 66  1  0  0  0  0
 64 75  1  0  0  0  0
 65 77  1  0  0  0  0
 67 68  1  0  0  0  0
M  CHG  1  77   1
M  ISO  4  39 100  63 101  76 100  85 101
M  END
> <Batch ID>
0105

> <Smiles>
CC[100N:0](Cc1cccc(CNC(=O)CC[101CH2:1][101O:1]c2ccc3c(c2)CN(C(=O)C(NC(=O)C(C)NC)C(C)(C)C)C(C(=O)NC2CCCc4ccccc42)C3)c1)[100C:0](=O)N1CCCC(n2nc(-c3ccc(Oc4ccc(F)cc4F)cc3)c(C(N)=O)c2N)C1

> <Shape>
0.211

> <Color>
0.079

> <Negative vol penalty>
0.000

$$$$

  -OEChem-04052301113D

 84 92  0     1  0  0  0  0  0999 V2000
  -18.5103  -31.4276   26.1391 C   0  0  0  0  0  0  0  0  0  0  0  0
  -19.7407  -30.8067   26.3289 C   0  0  0  0  0  0  0  0  0  0  0  0
  -28.0533  -17.5055   19.0793 C   0  0  0  0  0  0  0  0  0  0  0  0
  -29.1134  -17.3334   21.2435 C   0  0  0  0  0  0  0  0  0  0  0  0
  -17.7760  -31.1776   24.9806 C   0  0  0  0  0  0  0  0  0  0  0  0
  -20.2370  -29.9346   25.3607 C   0  0  0  0  0  0  0  0  0  0  0  0
  -25.1400  -30.7215   24.3673 C   0  0  0  0  0  0  0  0  0  0  0  0
  -28.1669  -16.1252   18.9138 C   0  0  0  0  0  0  0  0  0  0  0  0
  -29.2269  -15.9531   21.0780 C   0  0  0  0  0  0  0  0  0  0  0  0
  -26.0637  -30.2193   25.2829 C   0  0  0  0  0  0  0  0  0  0  0  0
  -31.2395  -13.7997   19.4218 C   0  0  0  0  0  0  0  0  0  0  0  0
  -32.4577  -13.2055   19.7515 C   0  0  0  0  0  0  0  0  0  0  0  0
  -26.4557  -28.3263   23.8398 C   0  0  0  0  0  0  0  0  0  0  0  0
  -33.7904  -26.5920   23.5297 C   0  0  0  0  0  0  0  0  0  0  0  0
  -32.6792  -24.8221   24.7418 C   0  0  0  0  0  0  0  0  0  0  0  0
  -31.3432  -11.8353   21.4000 C   0  0  0  0  0  0  0  0  0  0  0  0
  -28.5266  -18.1097   20.2441 C   0  0  0  0  0  0  0  0  0  0  0  0
  -27.3370  -20.2370   20.9969 C   0  0  0  0  0  0  0  0  0  0  0  0
  -18.2680  -30.3094   23.9933 C   0  0  0  0  0  0  0  0  0  0  0  0
  -24.8587  -30.0232   23.1843 C   0  0  0  0  0  0  0  0  0  0  0  0
  -19.5080  -29.6717   24.1885 C   0  0  0  0  0  0  0  0  0  0  0  0
  -25.5299  -28.8231   22.9097 C   0  0  0  0  0  0  0  0  0  0  0  0
  -33.5259  -25.2348   23.7131 C   0  0  0  0  0  0  0  0  0  0  0  0
  -33.2081  -27.5365   24.3751 C   0  0  0  0  0  0  0  0  0  0  0  0
  -32.0968  -25.7665   25.5872 C   0  0  0  0  0  0  0  0  0  0  0  0
  -28.7537  -15.3490   19.9132 C   0  0  0  0  0  0  0  0  0  0  0  0
  -26.7196  -29.0201   25.0206 C   0  0  0  0  0  0  0  0  0  0  0  0
  -30.0732  -13.4117   20.0812 C   0  0  0  0  0  0  0  0  0  0  0  0
  -32.3613  -27.1237   25.4038 C   0  0  0  0  0  0  0  0  0  0  0  0
  -32.5095  -12.2233   20.7405 C   0  0  0  0  0  0  0  0  0  0  0  0
  -30.1250  -12.4295   21.0703 C   0  0  0  0  0  0  0  0  0  0  0  0
  -28.4100  -19.5356   20.4153 C   0  0  0  0  0  0  0  0  0  0  0  0
  -27.7083  -21.5572   20.9210 C   0  0  0  0  0  0  0  0  0  0  0  0
  -26.1139  -19.7398   21.5560 C   0  0  0  0  0  0  0  0  0  0  0  0
  -22.2643  -28.6728   21.9395 C   0  0  0  0  0  0  0  0  0  0  0  0
  -24.1988  -28.2364   19.3724 C   0  0  0  0  0  0  0  0  0  0  0  0
  -27.3724  -27.9349   18.1543 C   0  0  0  0  0  0  0  0  0  0  0  0
  -33.0291  -24.2839   20.5970 C   0  0  0  0  0  0  0  0  0  0  0  0
  -17.4165  -30.0336   22.7793 C   0  0  0  0  0  0  0  0  0  0  0  0
  -23.8793  -30.5919   22.1944 C   0  0  0  0  0  0  0  0  0  0  0  0
  -25.2785  -28.0453   21.6447 C   0  0  0  0  0  0  0  0  0  0  0  0
  -18.1854  -29.3864   21.6303 C   0  0  0  0  0  0  0  0  0  0  0  0
  -30.3368  -24.5617   18.2838 C   0  0  0  0  0  0  0  0  0  0  0  0
  -19.0471  -28.2376   22.1448 C   0  0  0  0  0  0  0  0  0  0  0  0
  -29.4409  -23.3684   18.6202 C   0  0  0  0  0  0  0  0  0  0  0  0
  -31.8166  -24.2176   18.4378 C   0  0  0  0  0  0  0  0  0  0  0  0
  -31.2925  -22.4620   20.0861 C   0  0  0  0  0  0  0  0  0  0  0  0
  -20.0914  -28.7384   23.1498 C   0  0  1  0  0  0  0  0  0  0  0  0
  -23.2906  -29.5369   21.2628 C   0  0  1  0  0  0  0  0  0  0  0  0
  -29.7893  -22.7769   19.9994 C   0  0  2  0  0  0  0  0  0  0  0  0
  -33.5036  -28.9849   24.1625 C   0  0  0  0  0  0  0  0  0  0  0  0
  -29.2021  -27.7248   16.4497 C   0  0  0  0  0  0  0  0  0  0  0  0
  -23.4597  -25.2779   19.4759 C   0  0  0  0  0  0  0  0  0  0  0  0
  -25.4211  -24.8076   17.9927 C   0  0  0  0  0  0  0  0  0  0  0  0
  -23.5572  -26.2489   17.1733 C   0  0  0  0  0  0  0  0  0  0  0  0
  -27.6049  -30.8717   17.8717 C   0  0  0  0  0  0  0  0  0  0  0  0
  -34.1507  -24.2258   22.8101 C   0  0  0  0  0  0  0  0  0  0  0  0
  -29.7033  -28.9135   27.0695 C   0  0  0  0  0  0  0  0  0  0  0  0
  -28.3389  -29.4754   26.7018 C   0  0  0  0  0  0  0  0  0  1  0  0
  -30.5312  -28.5788   25.8387 C   0  0  0  0  0  0  0  0  0  0  0  0
  -25.1464  -27.1519   18.9200 C   0  0  1  0  0  0  0  0  0  0  0  0
  -28.0633  -28.5877   16.9707 C   0  0  2  0  0  0  0  0  0  0  0  0
  -24.3996  -25.8850   18.4153 C   0  0  0  0  0  0  0  0  0  0  0  0
  -29.3896  -20.3433   20.0003 N   0  0  0  0  0  0  0  0  0  0  0  0
  -28.9334  -21.5659   20.3215 N   0  0  0  0  0  0  0  0  0  0  0  0
  -24.3075  -28.6393   20.7110 N   0  0  0  0  0  0  0  0  0  0  0  0
  -32.0805  -23.6631   19.7678 N   0  0  0  0  0  0  0  0  0  0  0  0
  -31.2422  -25.3333   26.6248 N   0  0  0  0  0  0  0  0  0  0  0  0
  -27.1032  -22.6998   21.3091 N   0  0  0  0  0  0  0  0  0  0  0  0
  -25.8923  -18.3559   21.5537 N   0  0  0  0  0  0  0  0  0  0  0  0
  -21.1931  -29.3740   22.4595 N   0  0  0  0  0  0  0  0  0  0  0  0
  -26.0232  -27.7638   17.9274 N   0  0  0  0  0  0  0  0  0  0  0  0
  -33.2138  -23.6982   21.8434 N   0  0  0  0  0  0  0  0  0  0  0  0
  -28.6196  -29.9136   17.3624 N   0  3  0  0  0  0  0  0  0  0  0  0
  -25.2361  -20.5013   22.0283 O   0  0  0  0  0  0  0  0  0  0  0  0
  -22.4311  -27.4597   21.9850 O   0  0  0  0  0  0  0  0  0  0  0  0
  -23.3966  -28.7137   18.5660 O   0  0  0  0  0  0  0  0  0  0  0  0
  -27.9706  -27.6059   19.1763 O   0  0  0  0  0  0  0  0  0  0  0  0
  -33.6607  -25.2892   20.2541 O   0  0  0  0  0  0  0  0  0  0  0  0
  -28.8645  -14.0020   19.7522 O   0  0  0  0  0  0  0  0  0  0  0  0
  -27.6213  -28.5273   25.9128 O   0  0  0  0  0  0  0  0  0  1  0  0
  -31.7918  -28.0544   26.2334 O   0  0  0  0  0  0  0  0  0  0  0  0
  -33.6791  -11.6518   21.0560 F   0  0  0  0  0  0  0  0  0  0  0  0
  -29.0077  -12.0518   21.7064 F   0  0  0  0  0  0  0  0  0  0  0  0
  1  2  1  0  0  0  0
  1  5  2  0  0  0  0
  2  6  2  0  0  0  0
  3  8  2  0  0  0  0
  3 17  1  0  0  0  0
  4  9  1  0  0  0  0
  4 17  2  0  0  0  0
  5 19  1  0  0  0  0
  6 21  1  0  0  0  0
  7 10  2  0  0  0  0
  7 20  1  0  0  0  0
  8 26  1  0  0  0  0
  9 26  2  0  0  0  0
 10 27  1  0  0  0  0
 11 12  2  0  0  0  0
 11 28  1  0  0  0  0
 12 30  1  0  0  0  0
 13 22  1  0  0  0  0
 13 27  2  0  0  0  0
 14 23  1  0  0  0  0
 14 24  2  0  0  0  0
 15 23  2  0  0  0  0
 15 25  1  0  0  0  0
 16 30  2  0  0  0  0
 16 31  1  0  0  0  0
 17 32  1  0  0  0  0
 18 32  1  0  0  0  0
 18 33  2  0  0  0  0
 18 34  1  0  0  0  0
 19 21  2  0  0  0  0
 19 39  1  0  0  0  0
 20 22  2  0  0  0  0
 20 40  1  0  0  0  0
 21 48  1  0  0  0  0
 22 41  1  0  0  0  0
 23 57  1  0  0  0  0
 24 29  1  0  0  0  0
 24 51  1  0  0  0  0
 25 29  2  0  0  0  0
 25 68  1  0  0  0  0
 26 80  1  0  0  0  0
 27 81  1  0  0  0  0
 28 31  2  0  0  0  0
 28 80  1  0  0  0  0
 29 82  1  0  0  0  0
 30 83  1  0  0  0  0
 31 84  1  0  0  0  0
 32 64  2  0  0  0  0
 33 65  1  0  0  0  0
 33 69  1  0  0  0  0
 34 70  1  0  0  0  0
 34 75  2  0  0  0  0
 35 49  1  0  0  0  0
 35 71  1  0  0  0  0
 35 76  2  0  0  0  0
 36 61  1  0  0  0  0
 36 66  1  0  0  0  0
 36 77  2  0  0  0  0
 37 62  1  0  0  0  0
 37 72  1  0  0  0  0
 37 78  2  0  0  0  0
 38 67  1  0  0  0  0
 38 73  1  0  0  0  0
 38 79  2  0  0  0  0
 39 42  1  0  0  0  0
 40 49  1  0  0  0  0
 41 66  1  0  0  0  0
 42 44  1  0  0  0  0
 43 45  1  0  0  0  0
 43 46  1  0  0  0  0
 44 48  1  0  0  0  0
 45 50  1  0  0  0  0
 46 67  1  0  0  0  0
 47 50  1  0  0  0  0
 47 67  1  0  0  0  0
 48 71  1  0  0  0  0
 49 66  1  0  0  0  0
 50 65  1  0  0  0  0
 52 62  1  0  0  0  0
 53 63  1  0  0  0  0
 54 63  1  0  0  0  0
 55 63  1  0  0  0  0
 56 74  1  0  0  0  0
 57 73  1  0  0  0  0
 58 59  1  0  0  0  0
 58 60  1  0  0  0  0
 59 81  1  0  0  0  0
 60 82  1  0  0  0  0
 61 63  1  0  0  0  0
 61 72  1  0  0  0  0
 62 74  1  0  0  0  0
 64 65  1  0  0  0  0
M  CHG  1  74   1
M  ISO  4  38 100  59 101  73 100  81 101
M  END
> <Batch ID>
0105

> <Smiles>
CNC(C)C(=O)NC(C(=O)N1Cc2cc([101O:1][101CH2:1]CCOc3c(C)cc(C[100NH:0][100C:0](=O)N4CCCC(n5nc(-c6ccc(Oc7ccc(F)cc7F)cc6)c(C(N)=O)c5N)C4)cc3N)ccc2CC1C(=O)NC1CCCc2ccccc21)C(C)(C)C

> <Shape>
0.227

> <Color>
0.050

> <Negative vol penalty>
0.000

$$$$

  -OEChem-04052301113D

 87 96  0     1  0  0  0  0  0999 V2000
  -19.0522  -25.4002   24.9516 C   0  0  0  0  0  0  0  0  0  0  0  0
  -20.4430  -25.4252   24.9706 C   0  0  0  0  0  0  0  0  0  0  0  0
  -27.6549  -13.9546   19.1078 C   0  0  0  0  0  0  0  0  0  0  0  0
  -29.1501  -15.3073   20.4389 C   0  0  0  0  0  0  0  0  0  0  0  0
  -31.6821  -23.8030   21.6798 C   0  0  0  0  0  0  0  0  0  0  0  0
  -18.3533  -26.2226   24.0690 C   0  0  0  0  0  0  0  0  0  0  0  0
  -21.1359  -26.2720   24.1061 C   0  0  0  0  0  0  0  0  0  0  0  0
  -26.4018  -29.1852   25.2417 C   0  0  0  0  0  0  0  0  0  0  0  0
  -30.8270  -23.0465   20.8785 C   0  0  0  0  0  0  0  0  0  0  0  0
  -28.2529  -12.7991   19.6105 C   0  0  0  0  0  0  0  0  0  0  0  0
  -29.7480  -14.1517   20.9416 C   0  0  0  0  0  0  0  0  0  0  0  0
  -27.7245  -28.8954   24.9098 C   0  0  0  0  0  0  0  0  0  0  0  0
  -28.1222  -10.9567   22.4427 C   0  0  0  0  0  0  0  0  0  0  0  0
  -27.2848   -9.9201   22.8545 C   0  0  0  0  0  0  0  0  0  0  0  0
  -27.5516  -30.3391   22.9850 C   0  0  0  0  0  0  0  0  0  0  0  0
  -31.9288  -23.8943   18.9025 C   0  0  0  0  0  0  0  0  0  0  0  0
  -28.3063   -8.4502   21.2319 C   0  0  0  0  0  0  0  0  0  0  0  0
  -28.1036  -15.2088   19.5220 C   0  0  0  0  0  0  0  0  0  0  0  0
  -32.6604  -24.6053   21.0925 C   0  0  0  0  0  0  0  0  0  0  0  0
  -26.1355  -16.7809   19.1183 C   0  0  0  0  0  0  0  0  0  0  0  0
  -19.0377  -27.0870   23.1999 C   0  0  0  0  0  0  0  0  0  0  0  0
  -25.6393  -30.0470   24.4402 C   0  0  0  0  0  0  0  0  0  0  0  0
  -20.4455  -27.1058   23.2101 C   0  0  0  0  0  0  0  0  0  0  0  0
  -26.2202  -30.6402   23.3103 C   0  0  0  0  0  0  0  0  0  0  0  0
  -30.9504  -23.0921   19.4898 C   0  0  0  0  0  0  0  0  0  0  0  0
  -29.2994  -12.8976   20.5274 C   0  0  0  0  0  0  0  0  0  0  0  0
  -28.2987  -29.4701   23.7797 C   0  0  0  0  0  0  0  0  0  0  0  0
  -29.0517  -10.7402   21.4254 C   0  0  0  0  0  0  0  0  0  0  0  0
  -27.3768   -8.6668   22.2491 C   0  0  0  0  0  0  0  0  0  0  0  0
  -32.7838  -24.6509   19.7039 C   0  0  0  0  0  0  0  0  0  0  0  0
  -29.1438   -9.4869   20.8200 C   0  0  0  0  0  0  0  0  0  0  0  0
  -27.4867  -16.4029   19.0027 C   0  0  0  0  0  0  0  0  0  0  0  0
  -26.0587  -17.9853   18.4626 C   0  0  0  0  0  0  0  0  0  0  0  0
  -31.7607  -27.0952   22.6355 C   0  0  0  0  0  0  0  0  0  0  0  0
  -33.5583  -25.4037   21.9418 C   0  0  0  0  0  0  0  0  0  0  0  0
  -25.0473  -16.1039   19.7610 C   0  0  0  0  0  0  0  0  0  0  0  0
  -22.9820  -29.7480   22.7219 C   0  0  0  0  0  0  0  0  0  0  0  0
  -23.3292  -32.9511   22.3456 C   0  0  0  0  0  0  0  0  0  0  0  0
  -25.4070  -35.6584   22.3334 C   0  0  0  0  0  0  0  0  0  0  0  0
  -30.0697  -22.2545   17.2832 C   0  0  0  0  0  0  0  0  0  0  0  0
  -18.2401  -27.9229   22.2305 C   0  0  0  0  0  0  0  0  0  0  0  0
  -24.2221  -30.3704   24.8268 C   0  0  0  0  0  0  0  0  0  0  0  0
  -25.4507  -31.5880   22.4282 C   0  0  0  0  0  0  0  0  0  0  0  0
  -19.0404  -29.0646   21.6090 C   0  0  0  0  0  0  0  0  0  0  0  0
  -28.1165  -20.4543   14.9123 C   0  0  0  0  0  0  0  0  0  0  0  0
  -20.4011  -28.5656   21.1334 C   0  0  0  0  0  0  0  0  0  0  0  0
  -27.6054  -19.2486   15.7044 C   0  0  0  0  0  0  0  0  0  0  0  0
  -32.6616  -27.5134   24.8015 C   0  0  0  0  0  0  0  0  0  0  0  0
  -29.5406  -20.8343   15.3139 C   0  0  0  0  0  0  0  0  0  0  0  0
  -33.7087  -26.8423   23.9419 C   0  0  0  0  0  0  0  0  0  0  0  0
  -29.2342  -19.8361   17.5453 C   0  0  0  0  0  0  0  0  0  0  0  0
  -21.2322  -28.0288   22.3049 C   0  0  1  0  0  0  0  0  0  0  0  0
  -31.7010  -28.0997   23.7737 C   0  0  2  0  0  0  0  0  0  0  0  0
  -23.3792  -30.8586   23.6527 C   0  0  1  0  0  0  0  0  0  0  0  0
  -27.7801  -19.4560   17.2216 C   0  0  2  0  0  0  0  0  0  0  0  0
  -25.4078  -38.1393   21.9558 C   0  0  0  0  0  0  0  0  0  0  0  0
  -23.1516  -32.4904   19.3346 C   0  0  0  0  0  0  0  0  0  0  0  0
  -24.0919  -34.7863   18.9982 C   0  0  0  0  0  0  0  0  0  0  0  0
  -21.9031  -34.4946   20.1588 C   0  0  0  0  0  0  0  0  0  0  0  0
  -26.3353  -36.1949   25.0919 C   0  0  0  0  0  0  0  0  0  0  0  0
  -30.2969  -28.2957   24.3128 C   0  0  0  0  0  0  0  0  0  1  0  0
  -24.0348  -33.8404   21.3504 C   0  0  1  0  0  0  0  0  0  0  0  0
  -25.2848  -37.0249   22.9833 C   0  0  2  0  0  0  0  0  0  0  0  0
  -23.3095  -33.8836   19.9758 C   0  0  0  0  0  0  0  0  0  0  0  0
  -28.2156  -17.2948   18.3266 N   0  0  0  0  0  0  0  0  0  0  0  0
  -27.3192  -18.2452   18.0113 N   0  0  0  0  0  0  0  0  0  0  0  0
  -32.9724  -26.3606   22.7888 N   0  0  0  0  0  0  0  0  0  0  0  0
  -24.0665  -31.8678   22.8444 N   0  0  0  0  0  0  0  0  0  0  0  0
  -29.6291  -21.0187   16.7641 N   0  0  0  0  0  0  0  0  0  0  0  0
  -25.0364  -18.8368   18.2336 N   0  0  0  0  0  0  0  0  0  0  0  0
  -25.3008  -14.8760   20.3872 N   0  0  0  0  0  0  0  0  0  0  0  0
  -30.0817  -22.3235   18.6759 N   0  0  0  0  0  0  0  0  0  0  0  0
  -21.7989  -29.1221   23.0654 N   0  0  0  0  0  0  0  0  0  0  0  0
  -24.1743  -35.1424   21.9936 N   0  0  0  0  0  0  0  0  0  0  0  0
  -26.3525  -37.2092   24.0065 N   0  3  0  0  0  0  0  0  0  0  0  0
  -30.9261  -27.0096   21.7463 O   0  0  0  0  0  0  0  0  0  0  0  0
  -34.7670  -25.2006   21.8405 O   0  0  0  0  0  0  0  0  0  0  0  0
  -23.8811  -16.5661   19.7652 O   0  0  0  0  0  0  0  0  0  0  0  0
  -23.6953  -29.4798   21.7622 O   0  0  0  0  0  0  0  0  0  0  0  0
  -22.1692  -33.2123   22.6739 O   0  0  0  0  0  0  0  0  0  0  0  0
  -26.4881  -35.1058   22.1427 O   0  0  0  0  0  0  0  0  0  0  0  0
  -30.3853  -23.1924   16.5465 O   0  0  0  0  0  0  0  0  0  0  0  0
  -29.8830  -11.7702   21.0182 O   0  0  0  0  0  0  0  0  0  0  0  0
  -29.5894  -29.1884   23.4532 O   0  0  0  0  0  0  0  0  0  1  0  0
  -26.5736   -7.6710   22.6458 F   0  0  0  0  0  0  0  0  0  0  0  0
  -33.7202  -25.4187   19.1285 F   0  0  0  0  0  0  0  0  0  0  0  0
  -30.0356   -9.2725   19.8430 F   0  0  0  0  0  0  0  0  0  0  0  0
  1  2  1  0  0  0  0
  1  6  2  0  0  0  0
  2  7  2  0  0  0  0
  3 10  2  0  0  0  0
  3 18  1  0  0  0  0
  4 11  1  0  0  0  0
  4 18  2  0  0  0  0
  5  9  2  0  0  0  0
  5 19  1  0  0  0  0
  6 21  1  0  0  0  0
  7 23  1  0  0  0  0
  8 12  2  0  0  0  0
  8 22  1  0  0  0  0
  9 25  1  0  0  0  0
 10 26  1  0  0  0  0
 11 26  2  0  0  0  0
 12 27  1  0  0  0  0
 13 14  2  0  0  0  0
 13 28  1  0  0  0  0
 14 29  1  0  0  0  0
 15 24  1  0  0  0  0
 15 27  2  0  0  0  0
 16 25  2  0  0  0  0
 16 30  1  0  0  0  0
 17 29  2  0  0  0  0
 17 31  1  0  0  0  0
 18 32  1  0  0  0  0
 19 30  2  0  0  0  0
 19 35  1  0  0  0  0
 20 32  1  0  0  0  0
 20 33  2  0  0  0  0
 20 36  1  0  0  0  0
 21 23  2  0  0  0  0
 21 41  1  0  0  0  0
 22 24  2  0  0  0  0
 22 42  1  0  0  0  0
 23 52  1  0  0  0  0
 24 43  1  0  0  0  0
 25 72  1  0  0  0  0
 26 83  1  0  0  0  0
 27 84  1  0  0  0  0
 28 31  2  0  0  0  0
 28 83  1  0  0  0  0
 29 85  1  0  0  0  0
 30 86  1  0  0  0  0
 31 87  1  0  0  0  0
 32 65  2  0  0  0  0
 33 66  1  0  0  0  0
 33 70  1  0  0  0  0
 34 53  1  0  0  0  0
 34 67  1  0  0  0  0
 34 76  2  0  0  0  0
 35 67  1  0  0  0  0
 35 77  2  0  0  0  0
 36 71  1  0  0  0  0
 36 78  2  0  0  0  0
 37 54  1  0  0  0  0
 37 73  1  0  0  0  0
 37 79  2  0  0  0  0
 38 62  1  0  0  0  0
 38 68  1  0  0  0  0
 38 80  2  0  0  0  0
 39 63  1  0  0  0  0
 39 74  1  0  0  0  0
 39 81  2  0  0  0  0
 40 69  1  0  0  0  0
 40 72  1  0  0  0  0
 40 82  2  0  0  0  0
 41 44  1  0  0  0  0
 42 54  1  0  0  0  0
 43 68  1  0  0  0  0
 44 46  1  0  0  0  0
 45 47  1  0  0  0  0
 45 49  1  0  0  0  0
 46 52  1  0  0  0  0
 47 55  1  0  0  0  0
 48 50  1  0  0  0  0
 48 53  1  0  0  0  0
 49 69  1  0  0  0  0
 50 67  1  0  0  0  0
 51 55  1  0  0  0  0
 51 69  1  0  0  0  0
 52 73  1  0  0  0  0
 53 61  1  0  0  0  0
 54 68  1  0  0  0  0
 55 66  1  0  0  0  0
 56 63  1  0  0  0  0
 57 64  1  0  0  0  0
 58 64  1  0  0  0  0
 59 64  1  0  0  0  0
 60 75  1  0  0  0  0
 61 84  1  0  0  0  0
 62 64  1  0  0  0  0
 62 74  1  0  0  0  0
 63 75  1  0  0  0  0
 65 66  1  0  0  0  0
M  CHG  1  75   1
M  ISO  4  40 100  61 101  72 100  84 101
M  END
> <Batch ID>
0105

> <Smiles>
CNC(C)C(=O)NC(C(=O)N1Cc2cc([101O:1][101CH2:1]C3CCN(C(=O)c4ccc([100NH:0][100C:0](=O)N5CCCC(n6nc(-c7ccc(Oc8ccc(F)cc8F)cc7)c(C(N)=O)c6N)C5)cc4F)C3=O)ccc2CC1C(=O)NC1CCCc2ccccc21)C(C)(C)C

> <Shape>
0.213

> <Color>
0.099

> <Negative vol penalty>
0.000

$$$$

  -OEChem-04052301113D

 84 92  0     1  0  0  0  0  0999 V2000
  -27.8304  -30.6672   27.0001 C   0  0  0  0  0  0  0  0  0  0  0  0
  -27.6929  -29.4715   26.3024 C   0  0  0  0  0  0  0  0  0  0  0  0
  -24.6467  -13.1277   24.1529 C   0  0  0  0  0  0  0  0  0  0  0  0
  -23.9785  -15.1141   22.9509 C   0  0  0  0  0  0  0  0  0  0  0  0
  -26.9834  -31.7384   26.7189 C   0  0  0  0  0  0  0  0  0  0  0  0
  -26.7076  -29.3459   25.3237 C   0  0  0  0  0  0  0  0  0  0  0  0
  -28.4278  -27.1289   21.1082 C   0  0  0  0  0  0  0  0  0  0  0  0
  -24.2470  -13.7185   25.3515 C   0  0  0  0  0  0  0  0  0  0  0  0
  -23.5788  -15.7049   24.1496 C   0  0  0  0  0  0  0  0  0  0  0  0
  -28.5715  -25.7424   21.1311 C   0  0  0  0  0  0  0  0  0  0  0  0
  -21.3526  -14.2895   27.0036 C   0  0  0  0  0  0  0  0  0  0  0  0
  -20.6056  -13.5146   27.8908 C   0  0  0  0  0  0  0  0  0  0  0  0
  -26.4778  -25.5119   19.9554 C   0  0  0  0  0  0  0  0  0  0  0  0
  -30.3989  -19.0398   18.9957 C   0  0  0  0  0  0  0  0  0  0  0  0
  -28.1241  -18.7205   19.7442 C   0  0  0  0  0  0  0  0  0  0  0  0
  -22.3181  -13.7892   29.5727 C   0  0  0  0  0  0  0  0  0  0  0  0
  -24.5125  -13.8255   22.9526 C   0  0  0  0  0  0  0  0  0  0  0  0
  -29.1436  -17.1123   18.2571 C   0  0  0  0  0  0  0  0  0  0  0  0
  -24.1404  -12.4293   20.8502 C   0  0  0  0  0  0  0  0  0  0  0  0
  -25.9934  -31.6291   25.7295 C   0  0  0  0  0  0  0  0  0  0  0  0
  -27.3007  -27.7180   20.5173 C   0  0  0  0  0  0  0  0  0  0  0  0
  -25.8457  -30.4162   25.0299 C   0  0  0  0  0  0  0  0  0  0  0  0
  -26.3234  -26.9063   19.9239 C   0  0  0  0  0  0  0  0  0  0  0  0
  -30.3203  -17.8613   18.2539 C   0  0  0  0  0  0  0  0  0  0  0  0
  -29.3008  -19.4695   19.7409 C   0  0  0  0  0  0  0  0  0  0  0  0
  -23.7130  -15.0071   25.3499 C   0  0  0  0  0  0  0  0  0  0  0  0
  -27.5951  -24.9335   20.5572 C   0  0  0  0  0  0  0  0  0  0  0  0
  -22.5825  -14.8141   27.4010 C   0  0  0  0  0  0  0  0  0  0  0  0
  -28.0454  -17.5419   19.0023 C   0  0  0  0  0  0  0  0  0  0  0  0
  -21.0882  -13.2645   29.1753 C   0  0  0  0  0  0  0  0  0  0  0  0
  -23.0652  -14.5640   28.6855 C   0  0  0  0  0  0  0  0  0  0  0  0
  -24.9257  -13.2159   21.7141 C   0  0  0  0  0  0  0  0  0  0  0  0
  -24.9894  -12.0947   19.8237 C   0  0  0  0  0  0  0  0  0  0  0  0
  -29.0269  -21.7353   19.8700 C   0  0  0  0  0  0  0  0  0  0  0  0
  -29.0559  -15.8784   17.4839 C   0  0  0  0  0  0  0  0  0  0  0  0
  -22.7664  -12.0362   20.9654 C   0  0  0  0  0  0  0  0  0  0  0  0
  -29.9696  -14.7425   17.7445 C   0  0  0  0  0  0  0  0  0  0  0  0
  -24.9210  -29.5498   21.5590 C   0  0  0  0  0  0  0  0  0  0  0  0
  -24.1506  -29.6660   18.4102 C   0  0  0  0  0  0  0  0  0  0  0  0
  -24.3354  -28.2148   15.3268 C   0  0  0  0  0  0  0  0  0  0  0  0
  -25.0706  -32.7984   25.4937 C   0  0  0  0  0  0  0  0  0  0  0  0
  -27.1736  -29.2162   20.4771 C   0  0  0  0  0  0  0  0  0  0  0  0
  -25.1045  -27.4900   19.2590 C   0  0  0  0  0  0  0  0  0  0  0  0
  -24.2966  -32.7085   24.1810 C   0  0  0  0  0  0  0  0  0  0  0  0
  -29.6079  -11.3539   18.8598 C   0  0  0  0  0  0  0  0  0  0  0  0
  -23.7032  -31.3142   24.0056 C   0  0  0  0  0  0  0  0  0  0  0  0
  -28.3138  -11.3859   19.6722 C   0  0  0  0  0  0  0  0  0  0  0  0
  -30.3838  -12.6602   18.9941 C   0  0  0  0  0  0  0  0  0  0  0  0
  -28.2901  -13.9103   19.4440 C   0  0  0  0  0  0  0  0  0  0  0  0
  -24.8050  -30.2494   23.9439 C   0  0  1  0  0  0  0  0  0  0  0  0
  -25.7337  -29.6893   20.3029 C   0  0  1  0  0  0  0  0  0  0  0  0
  -27.4654  -12.6182   19.3110 C   0  0  2  0  0  0  0  0  0  0  0  0
  -31.5129  -17.4254   17.4664 C   0  0  0  0  0  0  0  0  0  0  0  0
  -23.5754  -28.5242   12.9553 C   0  0  0  0  0  0  0  0  0  0  0  0
  -21.3494  -28.7410   19.1898 C   0  0  0  0  0  0  0  0  0  0  0  0
  -20.9476  -28.1619   16.7875 C   0  0  0  0  0  0  0  0  0  0  0  0
  -21.4091  -30.5253   17.4385 C   0  0  0  0  0  0  0  0  0  0  0  0
  -27.1187  -28.3737   14.3332 C   0  0  0  0  0  0  0  0  0  0  0  0
  -25.8175  -17.3419   19.8097 C   0  0  0  0  0  0  0  0  0  0  0  0
  -29.0622  -23.0618   20.5681 C   0  0  0  0  0  0  0  0  0  1  0  0
  -23.2895  -28.8360   17.4889 C   0  0  1  0  0  0  0  0  0  0  0  0
  -24.6830  -28.7860   13.9640 C   0  0  2  0  0  0  0  0  0  0  0  0
  -21.7708  -29.0547   17.7403 C   0  0  0  0  0  0  0  0  0  0  0  0
  -26.1774  -13.3717   21.2747 N   0  0  0  0  0  0  0  0  0  0  0  0
  -28.1845  -15.6946   16.5324 N   0  0  0  0  0  0  0  0  0  0  0  0
  -29.3811  -20.6566   20.4884 N   0  0  0  0  0  0  0  0  0  0  0  0
  -26.1851  -12.6782   20.1236 N   0  0  0  0  0  0  0  0  0  0  0  0
  -29.5397  -13.8111   18.6793 N   0  0  0  0  0  0  0  0  0  0  0  0
  -25.0225  -28.9599   19.2510 N   0  0  0  0  0  0  0  0  0  0  0  0
  -24.8223  -11.3611   18.7028 N   0  0  0  0  0  0  0  0  0  0  0  0
  -22.0396  -12.4674   22.0835 N   0  0  0  0  0  0  0  0  0  0  0  0
  -25.4309  -30.2448   22.6390 N   0  0  0  0  0  0  0  0  0  0  0  0
  -23.7220  -29.1513   16.1317 N   0  0  0  0  0  0  0  0  0  0  0  0
  -25.9406  -28.1728   13.4507 N   0  3  0  0  0  0  0  0  0  0  0  0
  -22.2046  -11.3101   20.1106 O   0  0  0  0  0  0  0  0  0  0  0  0
  -31.0127  -14.7470   17.1039 O   0  0  0  0  0  0  0  0  0  0  0  0
  -23.9057  -28.8637   21.5486 O   0  0  0  0  0  0  0  0  0  0  0  0
  -24.0583  -30.8957   18.3796 O   0  0  0  0  0  0  0  0  0  0  0  0
  -24.5801  -27.0530   15.6442 O   0  0  0  0  0  0  0  0  0  0  0  0
  -23.3227  -15.5839   26.5193 O   0  0  0  0  0  0  0  0  0  0  0  0
  -26.8862  -16.8252   19.0198 O   0  0  0  0  0  0  0  0  0  0  0  0
  -27.7326  -23.5798   20.5789 O   0  0  0  0  0  0  0  0  0  1  0  0
  -20.3700  -12.5217   30.0277 F   0  0  0  0  0  0  0  0  0  0  0  0
  -24.2455  -15.0664   29.0734 F   0  0  0  0  0  0  0  0  0  0  0  0
  1  2  1  0  0  0  0
  1  5  2  0  0  0  0
  2  6  2  0  0  0  0
  3  8  2  0  0  0  0
  3 17  1  0  0  0  0
  4  9  1  0  0  0  0
  4 17  2  0  0  0  0
  5 20  1  0  0  0  0
  6 22  1  0  0  0  0
  7 10  2  0  0  0  0
  7 21  1  0  0  0  0
  8 26  1  0  0  0  0
  9 26  2  0  0  0  0
 10 27  1  0  0  0  0
 11 12  2  0  0  0  0
 11 28  1  0  0  0  0
 12 30  1  0  0  0  0
 13 23  1  0  0  0  0
 13 27  2  0  0  0  0
 14 24  2  0  0  0  0
 14 25  1  0  0  0  0
 15 25  2  0  0  0  0
 15 29  1  0  0  0  0
 16 30  2  0  0  0  0
 16 31  1  0  0  0  0
 17 32  1  0  0  0  0
 18 24  1  0  0  0  0
 18 29  2  0  0  0  0
 18 35  1  0  0  0  0
 19 32  1  0  0  0  0
 19 33  2  0  0  0  0
 19 36  1  0  0  0  0
 20 22  2  0  0  0  0
 20 41  1  0  0  0  0
 21 23  2  0  0  0  0
 21 42  1  0  0  0  0
 22 50  1  0  0  0  0
 23 43  1  0  0  0  0
 24 53  1  0  0  0  0
 25 66  1  0  0  0  0
 26 80  1  0  0  0  0
 27 82  1  0  0  0  0
 28 31  2  0  0  0  0
 28 80  1  0  0  0  0
 29 81  1  0  0  0  0
 30 83  1  0  0  0  0
 31 84  1  0  0  0  0
 32 64  2  0  0  0  0
 33 67  1  0  0  0  0
 33 70  1  0  0  0  0
 34 60  1  0  0  0  0
 34 66  2  0  0  0  0
 35 37  1  0  0  0  0
 35 65  2  0  0  0  0
 36 71  1  0  0  0  0
 36 75  2  0  0  0  0
 37 68  1  0  0  0  0
 37 76  2  0  0  0  0
 38 51  1  0  0  0  0
 38 72  1  0  0  0  0
 38 77  2  0  0  0  0
 39 61  1  0  0  0  0
 39 69  1  0  0  0  0
 39 78  2  0  0  0  0
 40 62  1  0  0  0  0
 40 73  1  0  0  0  0
 40 79  2  0  0  0  0
 41 44  1  0  0  0  0
 42 51  1  0  0  0  0
 43 69  1  0  0  0  0
 44 46  1  0  0  0  0
 45 47  1  0  0  0  0
 45 48  1  0  0  0  0
 46 50  1  0  0  0  0
 47 52  1  0  0  0  0
 48 68  1  0  0  0  0
 49 52  1  0  0  0  0
 49 68  1  0  0  0  0
 50 72  1  0  0  0  0
 51 69  1  0  0  0  0
 52 67  1  0  0  0  0
 54 62  1  0  0  0  0
 55 63  1  0  0  0  0
 56 63  1  0  0  0  0
 57 63  1  0  0  0  0
 58 74  1  0  0  0  0
 59 81  1  0  0  0  0
 60 82  1  0  0  0  0
 61 63  1  0  0  0  0
 61 73  1  0  0  0  0
 62 74  1  0  0  0  0
 64 67  1  0  0  0  0
M  CHG  1  74   1
M  ISO  4  35 100  37 100  60 101  82 101
M  END
> <Batch ID>
0105

> <Smiles>
CNC(C)C(=O)NC(C(=O)N1Cc2cc([101O:1][101CH:1]=CNc3cc(C)c([100C:0](=N)[100C:0](=O)N4CCCC(n5nc(-c6ccc(Oc7ccc(F)cc7F)cc6)c(C(N)=O)c5N)C4)c(OC)c3)ccc2CC1C(=O)NC1CCCc2ccccc21)C(C)(C)C

> <Shape>
0.242

> <Color>
0.084

> <Negative vol penalty>
0.000

$$$$

  -OEChem-04052301113D

 88 97  0     1  0  0  0  0  0999 V2000
  -18.5633  -30.5048   24.4830 C   0  0  0  0  0  0  0  0  0  0  0  0
  -19.9500  -30.4788   24.3738 C   0  0  0  0  0  0  0  0  0  0  0  0
  -25.4322  -13.9290   21.5190 C   0  0  0  0  0  0  0  0  0  0  0  0
  -26.2472  -12.7794   19.5565 C   0  0  0  0  0  0  0  0  0  0  0  0
  -17.8020  -29.4783   23.9256 C   0  0  0  0  0  0  0  0  0  0  0  0
  -20.5762  -29.4257   23.7080 C   0  0  0  0  0  0  0  0  0  0  0  0
  -25.6643  -29.7232   20.3126 C   0  0  0  0  0  0  0  0  0  0  0  0
  -30.2696  -24.9915   20.8411 C   0  0  0  0  0  0  0  0  0  0  0  0
  -29.9308  -23.8953   20.0479 C   0  0  0  0  0  0  0  0  0  0  0  0
  -24.6144  -12.8392   21.8177 C   0  0  0  0  0  0  0  0  0  0  0  0
  -25.4295  -11.6896   19.8553 C   0  0  0  0  0  0  0  0  0  0  0  0
  -26.9979  -29.4290   20.5934 C   0  0  0  0  0  0  0  0  0  0  0  0
  -22.0443  -10.5051   22.8995 C   0  0  0  0  0  0  0  0  0  0  0  0
  -20.7264  -10.7650   23.2751 C   0  0  0  0  0  0  0  0  0  0  0  0
  -28.4823  -24.4380   22.3696 C   0  0  0  0  0  0  0  0  0  0  0  0
  -26.7078  -27.2324   19.6396 C   0  0  0  0  0  0  0  0  0  0  0  0
  -20.3337  -11.8452   21.1500 C   0  0  0  0  0  0  0  0  0  0  0  0
  -26.2485  -13.8991   20.3883 C   0  0  0  0  0  0  0  0  0  0  0  0
  -28.1435  -23.3418   21.5764 C   0  0  0  0  0  0  0  0  0  0  0  0
  -28.4180  -15.2361   20.5051 C   0  0  0  0  0  0  0  0  0  0  0  0
  -18.4186  -28.4171   23.2442 C   0  0  0  0  0  0  0  0  0  0  0  0
  -24.8382  -28.7687   19.7021 C   0  0  0  0  0  0  0  0  0  0  0  0
  -19.8225  -28.3834   23.1421 C   0  0  0  0  0  0  0  0  0  0  0  0
  -25.3648  -27.5178   19.3498 C   0  0  0  0  0  0  0  0  0  0  0  0
  -29.5453  -25.2629   22.0019 C   0  0  0  0  0  0  0  0  0  0  0  0
  -28.8677  -23.0704   20.4156 C   0  0  0  0  0  0  0  0  0  0  0  0
  -24.6131  -11.7195   20.9859 C   0  0  0  0  0  0  0  0  0  0  0  0
  -27.5190  -28.1824   20.2595 C   0  0  0  0  0  0  0  0  0  0  0  0
  -22.5070  -10.9153   21.6491 C   0  0  0  0  0  0  0  0  0  0  0  0
  -19.8711  -11.4350   22.4004 C   0  0  0  0  0  0  0  0  0  0  0  0
  -21.6516  -11.5853   20.7744 C   0  0  0  0  0  0  0  0  0  0  0  0
  -27.0931  -15.0248   20.0789 C   0  0  0  0  0  0  0  0  0  0  0  0
  -28.7709  -16.4398   19.9456 C   0  0  0  0  0  0  0  0  0  0  0  0
  -29.7240  -26.4919   24.2125 C   0  0  0  0  0  0  0  0  0  0  0  0
  -27.0257  -22.5011   21.9869 C   0  0  0  0  0  0  0  0  0  0  0  0
  -29.2549  -14.4175   21.3328 C   0  0  0  0  0  0  0  0  0  0  0  0
  -22.1811  -27.2378   20.5387 C   0  0  0  0  0  0  0  0  0  0  0  0
  -22.3214  -26.1349   17.4914 C   0  0  0  0  0  0  0  0  0  0  0  0
  -24.2249  -25.4508   14.7427 C   0  0  0  0  0  0  0  0  0  0  0  0
  -27.2612  -21.8235   18.9805 C   0  0  0  0  0  0  0  0  0  0  0  0
  -17.5567  -27.3059   22.6992 C   0  0  0  0  0  0  0  0  0  0  0  0
  -23.4090  -29.1111   19.3816 C   0  0  0  0  0  0  0  0  0  0  0  0
  -24.5251  -26.4655   18.6745 C   0  0  0  0  0  0  0  0  0  0  0  0
  -30.2478  -27.8436   24.6366 C   0  0  0  0  0  0  0  0  0  0  0  0
  -18.2750  -26.4194   21.6851 C   0  0  0  0  0  0  0  0  0  0  0  0
  -31.1330  -28.2590   23.4769 C   0  0  0  0  0  0  0  0  0  0  0  0
  -26.4746  -19.2620   16.4447 C   0  0  0  0  0  0  0  0  0  0  0  0
  -19.6576  -26.0317   22.1998 C   0  0  0  0  0  0  0  0  0  0  0  0
  -26.6124  -17.9562   17.2256 C   0  0  0  0  0  0  0  0  0  0  0  0
  -26.0445  -20.4174   17.3436 C   0  0  0  0  0  0  0  0  0  0  0  0
  -27.0667  -19.3119   19.3092 C   0  0  0  0  0  0  0  0  0  0  0  0
  -20.5370  -27.2709   22.4060 C   0  0  1  0  0  0  0  0  0  0  0  0
  -22.5208  -27.8809   19.2239 C   0  0  1  0  0  0  0  0  0  0  0  0
  -27.5406  -18.1379   18.4391 C   0  0  1  0  0  0  0  0  0  0  0  0
  -30.4697  -27.6129   22.2657 C   0  0  2  0  0  0  0  0  0  0  0  0
  -25.6802  -23.1522   22.1073 C   0  0  0  0  0  0  0  0  0  0  0  0
  -24.0647  -24.5202   12.4177 C   0  0  0  0  0  0  0  0  0  0  0  0
  -22.1310  -23.3132   18.6366 C   0  0  0  0  0  0  0  0  0  0  0  0
  -22.9206  -22.4385   16.4276 C   0  0  0  0  0  0  0  0  0  0  0  0
  -20.7709  -23.6955   16.5730 C   0  0  0  0  0  0  0  0  0  0  0  0
  -29.6124  -21.0418   19.1559 C   0  0  0  0  0  0  0  0  0  0  0  0
  -25.1561  -27.9886   13.5380 C   0  0  0  0  0  0  0  0  0  0  0  0
  -29.4040  -28.5334   21.6665 C   0  0  0  0  0  0  0  0  0  1  0  0
  -22.9558  -24.9447   16.8134 C   0  0  1  0  0  0  0  0  0  0  0  0
  -24.0263  -25.7767   13.2734 C   0  0  2  0  0  0  0  0  0  0  0  0
  -22.2102  -23.6169   17.1271 C   0  0  0  0  0  0  0  0  0  0  0  0
  -26.6353  -16.0149   19.3081 N   0  0  0  0  0  0  0  0  0  0  0  0
  -27.6783  -16.8601   19.2457 N   0  0  0  0  0  0  0  0  0  0  0  0
  -29.8932  -26.3889   22.8154 N   0  0  0  0  0  0  0  0  0  0  0  0
  -23.1320  -26.8458   18.3877 N   0  0  0  0  0  0  0  0  0  0  0  0
  -26.9161  -20.5396   18.5129 N   0  0  0  0  0  0  0  0  0  0  0  0
  -29.9060  -17.1691   19.9889 N   0  0  0  0  0  0  0  0  0  0  0  0
  -28.7350  -13.2121   21.8239 N   0  0  0  0  0  0  0  0  0  0  0  0
  -21.0445  -27.7473   21.1372 N   0  0  0  0  0  0  0  0  0  0  0  0
  -23.0223  -25.2714   15.3931 N   0  0  0  0  0  0  0  0  0  0  0  0
  -28.5346  -21.9422   19.5783 N   0  0  0  0  0  0  0  0  0  0  0  0
  -25.0945  -26.7013   12.7990 N   0  3  0  0  0  0  0  0  0  0  0  0
  -29.2303  -25.7065   25.0089 O   0  0  0  0  0  0  0  0  0  0  0  0
  -27.1068  -21.3004   22.2457 O   0  0  0  0  0  0  0  0  0  0  0  0
  -30.4235  -14.7531   21.6417 O   0  0  0  0  0  0  0  0  0  0  0  0
  -22.8963  -26.3446   20.9771 O   0  0  0  0  0  0  0  0  0  0  0  0
  -21.1520  -26.4276   17.2299 O   0  0  0  0  0  0  0  0  0  0  0  0
  -25.3357  -25.3603   15.2607 O   0  0  0  0  0  0  0  0  0  0  0  0
  -26.5037  -22.7920   18.8470 O   0  0  0  0  0  0  0  0  0  0  0  0
  -23.8155  -10.6558   21.2773 O   0  0  0  0  0  0  0  0  0  0  0  0
  -28.8202  -27.8925   20.5331 O   0  0  0  0  0  0  0  0  0  1  0  0
  -18.6051  -11.6831   22.7607 F   0  0  0  0  0  0  0  0  0  0  0  0
  -22.0900  -11.9808   19.5714 F   0  0  0  0  0  0  0  0  0  0  0  0
  1  2  1  0  0  0  0
  1  5  2  0  0  0  0
  2  6  2  0  0  0  0
  3 10  2  0  0  0  0
  3 18  1  0  0  0  0
  4 11  1  0  0  0  0
  4 18  2  0  0  0  0
  5 21  1  0  0  0  0
  6 23  1  0  0  0  0
  7 12  2  0  0  0  0
  7 22  1  0  0  0  0
  8  9  2  0  0  0  0
  8 25  1  0  0  0  0
  9 26  1  0  0  0  0
 10 27  1  0  0  0  0
 11 27  2  0  0  0  0
 12 28  1  0  0  0  0
 13 14  2  0  0  0  0
 13 29  1  0  0  0  0
 14 30  1  0  0  0  0
 15 19  1  0  0  0  0
 15 25  2  0  0  0  0
 16 24  1  0  0  0  0
 16 28  2  0  0  0  0
 17 30  2  0  0  0  0
 17 31  1  0  0  0  0
 18 32  1  0  0  0  0
 19 26  2  0  0  0  0
 19 35  1  0  0  0  0
 20 32  1  0  0  0  0
 20 33  2  0  0  0  0
 20 36  1  0  0  0  0
 21 23  2  0  0  0  0
 21 41  1  0  0  0  0
 22 24  2  0  0  0  0
 22 42  1  0  0  0  0
 23 52  1  0  0  0  0
 24 43  1  0  0  0  0
 25 69  1  0  0  0  0
 26 76  1  0  0  0  0
 27 85  1  0  0  0  0
 28 86  1  0  0  0  0
 29 31  2  0  0  0  0
 29 85  1  0  0  0  0
 30 87  1  0  0  0  0
 31 88  1  0  0  0  0
 32 67  2  0  0  0  0
 33 68  1  0  0  0  0
 33 72  1  0  0  0  0
 34 44  1  0  0  0  0
 34 69  1  0  0  0  0
 34 78  2  0  0  0  0
 35 56  1  0  0  0  0
 35 79  2  0  0  0  0
 36 73  1  0  0  0  0
 36 80  2  0  0  0  0
 37 53  1  0  0  0  0
 37 74  1  0  0  0  0
 37 81  2  0  0  0  0
 38 64  1  0  0  0  0
 38 70  1  0  0  0  0
 38 82  2  0  0  0  0
 39 65  1  0  0  0  0
 39 75  1  0  0  0  0
 39 83  2  0  0  0  0
 40 71  1  0  0  0  0
 40 76  1  0  0  0  0
 40 84  2  0  0  0  0
 41 45  1  0  0  0  0
 42 53  1  0  0  0  0
 43 70  1  0  0  0  0
 44 46  1  0  0  0  0
 45 48  1  0  0  0  0
 46 55  1  0  0  0  0
 47 49  1  0  0  0  0
 47 50  1  0  0  0  0
 48 52  1  0  0  0  0
 49 54  1  0  0  0  0
 50 71  1  0  0  0  0
 51 54  1  0  0  0  0
 51 71  1  0  0  0  0
 52 74  1  0  0  0  0
 53 70  1  0  0  0  0
 54 68  1  0  0  0  0
 55 63  1  0  0  0  0
 55 69  1  0  0  0  0
 57 65  1  0  0  0  0
 58 66  1  0  0  0  0
 59 66  1  0  0  0  0
 60 66  1  0  0  0  0
 61 76  1  0  0  0  0
 62 77  1  0  0  0  0
 63 86  1  0  0  0  0
 64 66  1  0  0  0  0
 64 75  1  0  0  0  0
 65 77  1  0  0  0  0
 67 68  1  0  0  0  0
M  CHG  1  77   1
M  ISO  4  40 100  63 101  76 100  86 101
M  END
> <Batch ID>
0105

> <Smiles>
CNC(C)C(=O)NC(C(=O)N1Cc2cc([101O:1][101CH2:1]C3CCC(=O)N3c3ccc([100N:0](C)[100C:0](=O)N4CCCC(n5nc(-c6ccc(Oc7ccc(F)cc7F)cc6)c(C(N)=O)c5N)C4)c(C(C)=O)c3)ccc2CC1C(=O)NC1CCCc2ccccc21)C(C)(C)C

> <Shape>
0.246

> <Color>
0.070

> <Negative vol penalty>
0.000

$$$$

  -OEChem-04052301113D

 86 95  0     1  0  0  0  0  0999 V2000
  -21.4077  -34.1917   24.5676 C   0  0  0  0  0  0  0  0  0  0  0  0
  -22.5987  -33.5797   24.1902 C   0  0  0  0  0  0  0  0  0  0  0  0
  -25.1184  -10.1983   21.8625 C   0  0  0  0  0  0  0  0  0  0  0  0
  -24.8740  -11.3183   23.9893 C   0  0  0  0  0  0  0  0  0  0  0  0
  -20.2506  -33.4287   24.7187 C   0  0  0  0  0  0  0  0  0  0  0  0
  -22.6336  -32.2041   23.9649 C   0  0  0  0  0  0  0  0  0  0  0  0
  -26.0238  -29.2379   19.8159 C   0  0  0  0  0  0  0  0  0  0  0  0
  -24.8543   -8.9742   22.4768 C   0  0  0  0  0  0  0  0  0  0  0  0
  -24.6099  -10.0942   24.6036 C   0  0  0  0  0  0  0  0  0  0  0  0
  -27.2368  -28.5570   19.9094 C   0  0  0  0  0  0  0  0  0  0  0  0
  -22.1475   -7.2696   23.5724 C   0  0  0  0  0  0  0  0  0  0  0  0
  -21.2585   -6.4035   22.9360 C   0  0  0  0  0  0  0  0  0  0  0  0
  -26.0425  -26.4754   20.1542 C   0  0  0  0  0  0  0  0  0  0  0  0
  -27.4874  -22.8389   23.2359 C   0  0  0  0  0  0  0  0  0  0  0  0
  -26.5990  -20.7652   22.3717 C   0  0  0  0  0  0  0  0  0  0  0  0
  -28.9840  -21.0365   22.6456 C   0  0  0  0  0  0  0  0  0  0  0  0
  -22.9962   -4.7319   22.7838 C   0  0  0  0  0  0  0  0  0  0  0  0
  -25.1283  -11.3704   22.6188 C   0  0  0  0  0  0  0  0  0  0  0  0
  -24.4670  -13.5187   21.4124 C   0  0  0  0  0  0  0  0  0  0  0  0
  -20.2691  -32.0445   24.4857 C   0  0  0  0  0  0  0  0  0  0  0  0
  -24.8089  -28.5429   19.9020 C   0  0  0  0  0  0  0  0  0  0  0  0
  -21.4759  -31.4216   24.1144 C   0  0  0  0  0  0  0  0  0  0  0  0
  -24.8154  -27.1496   20.0590 C   0  0  0  0  0  0  0  0  0  0  0  0
  -26.3963  -22.0573   22.8565 C   0  0  0  0  0  0  0  0  0  0  0  0
  -28.7813  -22.3286   23.1304 C   0  0  0  0  0  0  0  0  0  0  0  0
  -27.8929  -20.2548   22.2662 C   0  0  0  0  0  0  0  0  0  0  0  0
  -24.6000   -8.9221   23.8473 C   0  0  0  0  0  0  0  0  0  0  0  0
  -27.2462  -27.1759   20.0814 C   0  0  0  0  0  0  0  0  0  0  0  0
  -23.4609   -6.8670   23.8144 C   0  0  0  0  0  0  0  0  0  0  0  0
  -21.6828   -5.1346   22.5417 C   0  0  0  0  0  0  0  0  0  0  0  0
  -23.8852   -5.5981   23.4201 C   0  0  0  0  0  0  0  0  0  0  0  0
  -25.4016  -12.6352   21.9849 C   0  0  0  0  0  0  0  0  0  0  0  0
  -25.2243  -14.5664   20.9487 C   0  0  0  0  0  0  0  0  0  0  0  0
  -29.7544  -25.4928   22.5701 C   0  0  0  0  0  0  0  0  0  0  0  0
  -23.0416  -13.4027   21.3092 C   0  0  0  0  0  0  0  0  0  0  0  0
  -22.3298  -28.5969   21.8907 C   0  0  0  0  0  0  0  0  0  0  0  0
  -21.0543  -26.5345   19.7361 C   0  0  0  0  0  0  0  0  0  0  0  0
  -21.5731  -24.2307   17.2724 C   0  0  0  0  0  0  0  0  0  0  0  0
  -29.3168  -18.2843   21.6059 C   0  0  0  0  0  0  0  0  0  0  0  0
  -19.0039  -31.2540   24.7078 C   0  0  0  0  0  0  0  0  0  0  0  0
  -23.5091  -29.2888   19.7726 C   0  0  0  0  0  0  0  0  0  0  0  0
  -23.5387  -26.3543   20.1369 C   0  0  0  0  0  0  0  0  0  0  0  0
  -19.0395  -29.8603   24.0859 C   0  0  0  0  0  0  0  0  0  0  0  0
  -30.2399  -15.0424   20.4593 C   0  0  0  0  0  0  0  0  0  0  0  0
  -20.3559  -29.1629   24.4137 C   0  0  0  0  0  0  0  0  0  0  0  0
  -28.9866  -14.1998   20.7069 C   0  0  0  0  0  0  0  0  0  0  0  0
  -30.9299  -25.1017   20.5314 C   0  0  0  0  0  0  0  0  0  0  0  0
  -30.4556  -16.0761   21.5632 C   0  0  0  0  0  0  0  0  0  0  0  0
  -31.2045  -23.9628   21.4953 C   0  0  0  0  0  0  0  0  0  0  0  0
  -28.0480  -16.0989   22.0851 C   0  0  0  0  0  0  0  0  0  0  0  0
  -21.5482  -29.9357   23.8368 C   0  0  1  0  0  0  0  0  0  0  0  0
  -30.4456  -26.2344   21.4397 C   0  0  1  0  0  0  0  0  0  0  0  0
  -22.3290  -28.5441   20.3891 C   0  0  1  0  0  0  0  0  0  0  0  0
  -27.7531  -15.0870   20.9658 C   0  0  2  0  0  0  0  0  0  0  0  0
  -25.0130  -22.6031   22.9692 C   0  0  0  0  0  0  0  0  0  0  0  0
  -20.3376  -22.6879   15.7262 C   0  0  0  0  0  0  0  0  0  0  0  0
  -20.5420  -24.6220   22.0577 C   0  0  0  0  0  0  0  0  0  0  0  0
  -20.2112  -22.7896   20.3840 C   0  0  0  0  0  0  0  0  0  0  0  0
  -18.6828  -24.7610   20.3909 C   0  0  0  0  0  0  0  0  0  0  0  0
  -22.6488  -25.5869   14.8719 C   0  0  0  0  0  0  0  0  0  0  0  0
  -29.9557  -23.1701   23.5390 C   0  0  0  0  0  0  0  0  0  0  0  0
  -29.5328  -27.2185   20.7340 C   0  0  0  0  0  0  0  0  0  1  0  0
  -21.0553  -25.0350   19.5613 C   0  0  1  0  0  0  0  0  0  0  0  0
  -20.9508  -24.0690   15.8972 C   0  0  2  0  0  0  0  0  0  0  0  0
  -20.1470  -24.3169   20.5990 C   0  0  0  0  0  0  0  0  0  0  0  0
  -26.6568  -13.0826   21.8941 N   0  0  0  0  0  0  0  0  0  0  0  0
  -26.5163  -14.2586   21.2591 N   0  0  0  0  0  0  0  0  0  0  0  0
  -30.2560  -24.1922   22.5601 N   0  0  0  0  0  0  0  0  0  0  0  0
  -22.2936  -27.1297   20.0115 N   0  0  0  0  0  0  0  0  0  0  0  0
  -29.2473  -16.8824   21.7495 N   0  0  0  0  0  0  0  0  0  0  0  0
  -24.9046  -15.7118   20.3096 N   0  0  0  0  0  0  0  0  0  0  0  0
  -22.4241  -12.2613   21.8385 N   0  0  0  0  0  0  0  0  0  0  0  0
  -28.0988  -18.9422   21.7737 N   0  0  0  0  0  0  0  0  0  0  0  0
  -21.6691  -29.6912   22.4155 N   0  0  0  0  0  0  0  0  0  0  0  0
  -20.6875  -24.7858   18.1717 N   0  0  0  0  0  0  0  0  0  0  0  0
  -21.9804  -24.2607   14.8370 N   0  3  0  0  0  0  0  0  0  0  0  0
  -28.9548  -25.9842   23.3528 O   0  0  0  0  0  0  0  0  0  0  0  0
  -22.3382  -14.2774   20.7492 O   0  0  0  0  0  0  0  0  0  0  0  0
  -22.8873  -27.7097   22.5261 O   0  0  0  0  0  0  0  0  0  0  0  0
  -19.9944  -27.1556   19.6251 O   0  0  0  0  0  0  0  0  0  0  0  0
  -22.7280  -23.8944   17.5246 O   0  0  0  0  0  0  0  0  0  0  0  0
  -30.3734  -18.8564   21.3258 O   0  0  0  0  0  0  0  0  0  0  0  0
  -24.3420   -7.7278   24.4470 O   0  0  0  0  0  0  0  0  0  0  0  0
  -28.4288  -26.5089   20.1736 O   0  0  0  0  0  0  0  0  0  1  0  0
  -20.8286   -4.3023   21.9320 F   0  0  0  0  0  0  0  0  0  0  0  0
  -25.1455   -5.2052   23.6510 F   0  0  0  0  0  0  0  0  0  0  0  0
  1  2  1  0  0  0  0
  1  5  2  0  0  0  0
  2  6  2  0  0  0  0
  3  8  2  0  0  0  0
  3 18  1  0  0  0  0
  4  9  1  0  0  0  0
  4 18  2  0  0  0  0
  5 20  1  0  0  0  0
  6 22  1  0  0  0  0
  7 10  2  0  0  0  0
  7 21  1  0  0  0  0
  8 27  1  0  0  0  0
  9 27  2  0  0  0  0
 10 28  1  0  0  0  0
 11 12  2  0  0  0  0
 11 29  1  0  0  0  0
 12 30  1  0  0  0  0
 13 23  1  0  0  0  0
 13 28  2  0  0  0  0
 14 24  2  0  0  0  0
 14 25  1  0  0  0  0
 15 24  1  0  0  0  0
 15 26  2  0  0  0  0
 16 25  2  0  0  0  0
 16 26  1  0  0  0  0
 17 30  2  0  0  0  0
 17 31  1  0  0  0  0
 18 32  1  0  0  0  0
 19 32  1  0  0  0  0
 19 33  2  0  0  0  0
 19 35  1  0  0  0  0
 20 22  2  0  0  0  0
 20 40  1  0  0  0  0
 21 23  2  0  0  0  0
 21 41  1  0  0  0  0
 22 51  1  0  0  0  0
 23 42  1  0  0  0  0
 24 55  1  0  0  0  0
 25 61  1  0  0  0  0
 26 73  1  0  0  0  0
 27 83  1  0  0  0  0
 28 84  1  0  0  0  0
 29 31  2  0  0  0  0
 29 83  1  0  0  0  0
 30 85  1  0  0  0  0
 31 86  1  0  0  0  0
 32 66  2  0  0  0  0
 33 67  1  0  0  0  0
 33 71  1  0  0  0  0
 34 52  1  0  0  0  0
 34 68  1  0  0  0  0
 34 77  2  0  0  0  0
 35 72  1  0  0  0  0
 35 78  2  0  0  0  0
 36 53  1  0  0  0  0
 36 74  1  0  0  0  0
 36 79  2  0  0  0  0
 37 63  1  0  0  0  0
 37 69  1  0  0  0  0
 37 80  2  0  0  0  0
 38 64  1  0  0  0  0
 38 75  1  0  0  0  0
 38 81  2  0  0  0  0
 39 70  1  0  0  0  0
 39 73  1  0  0  0  0
 39 82  2  0  0  0  0
 40 43  1  0  0  0  0
 41 53  1  0  0  0  0
 42 69  1  0  0  0  0
 43 45  1  0  0  0  0
 44 46  1  0  0  0  0
 44 48  1  0  0  0  0
 45 51  1  0  0  0  0
 46 54  1  0  0  0  0
 47 49  1  0  0  0  0
 47 52  1  0  0  0  0
 48 70  1  0  0  0  0
 49 68  1  0  0  0  0
 50 54  1  0  0  0  0
 50 70  1  0  0  0  0
 51 74  1  0  0  0  0
 52 62  1  0  0  0  0
 53 69  1  0  0  0  0
 54 67  1  0  0  0  0
 56 64  1  0  0  0  0
 57 65  1  0  0  0  0
 58 65  1  0  0  0  0
 59 65  1  0  0  0  0
 60 76  1  0  0  0  0
 61 68  1  0  0  0  0
 62 84  1  0  0  0  0
 63 65  1  0  0  0  0
 63 75  1  0  0  0  0
 64 76  1  0  0  0  0
 66 67  1  0  0  0  0
M  CHG  1  76   1
M  ISO  4  39 100  62 101  73 100  84 101
M  END
> <Batch ID>
0105

> <Smiles>
CNC(C)C(=O)NC(C(=O)N1Cc2cc([101O:1][101CH2:1]C3CCN(Cc4cc(C)cc([100NH:0][100C:0](=O)N5CCCC(n6nc(-c7ccc(Oc8ccc(F)cc8F)cc7)c(C(N)=O)c6N)C5)c4)C3=O)ccc2CC1C(=O)NC1CCCc2ccccc21)C(C)(C)C

> <Shape>
0.229

> <Color>
0.116

> <Negative vol penalty>
0.000

$$$$

  -OEChem-04052301113D

 86 95  0     1  0  0  0  0  0999 V2000
  -29.5115  -35.8980   19.4447 C   0  0  0  0  0  0  0  0  0  0  0  0
  -29.8345  -34.5589   19.2495 C   0  0  0  0  0  0  0  0  0  0  0  0
  -23.0666   -9.8503   20.0098 C   0  0  0  0  0  0  0  0  0  0  0  0
  -23.7857   -9.9585   22.3138 C   0  0  0  0  0  0  0  0  0  0  0  0
  -28.6183  -36.2587   20.4526 C   0  0  0  0  0  0  0  0  0  0  0  0
  -29.2651  -33.5799   20.0629 C   0  0  0  0  0  0  0  0  0  0  0  0
  -27.6795  -27.8963   18.4231 C   0  0  0  0  0  0  0  0  0  0  0  0
  -22.3091   -8.7154   20.2995 C   0  0  0  0  0  0  0  0  0  0  0  0
  -23.0281   -8.8237   22.6035 C   0  0  0  0  0  0  0  0  0  0  0  0
  -28.3188  -26.6657   18.5671 C   0  0  0  0  0  0  0  0  0  0  0  0
  -19.7834   -8.0782   23.1839 C   0  0  0  0  0  0  0  0  0  0  0  0
  -19.0055   -8.0983   24.3414 C   0  0  0  0  0  0  0  0  0  0  0  0
  -27.0468  -26.2465   20.5735 C   0  0  0  0  0  0  0  0  0  0  0  0
  -31.1915  -17.6438   20.4485 C   0  0  0  0  0  0  0  0  0  0  0  0
  -29.5308  -17.9262   22.1804 C   0  0  0  0  0  0  0  0  0  0  0  0
  -20.2180   -6.1883   25.1894 C   0  0  0  0  0  0  0  0  0  0  0  0
  -23.8049  -10.4718   21.0170 C   0  0  0  0  0  0  0  0  0  0  0  0
  -24.1692  -12.9861   20.7861 C   0  0  0  0  0  0  0  0  0  0  0  0
  -28.0302  -35.2827   21.2725 C   0  0  0  0  0  0  0  0  0  0  0  0
  -26.7254  -28.3168   19.3609 C   0  0  0  0  0  0  0  0  0  0  0  0
  -28.3641  -33.9280   21.0836 C   0  0  0  0  0  0  0  0  0  0  0  0
  -26.3950  -27.4818   20.4378 C   0  0  0  0  0  0  0  0  0  0  0  0
  -31.3704  -19.0260   20.3946 C   0  0  0  0  0  0  0  0  0  0  0  0
  -30.6296  -19.8584   21.2337 C   0  0  0  0  0  0  0  0  0  0  0  0
  -30.2716  -17.0939   21.3413 C   0  0  0  0  0  0  0  0  0  0  0  0
  -29.7098  -19.3085   22.1265 C   0  0  0  0  0  0  0  0  0  0  0  0
  -22.2898   -8.2021   21.5964 C   0  0  0  0  0  0  0  0  0  0  0  0
  -28.0046  -25.8419   19.6440 C   0  0  0  0  0  0  0  0  0  0  0  0
  -20.7786   -7.1131   23.0290 C   0  0  0  0  0  0  0  0  0  0  0  0
  -19.2228   -7.1534   25.3442 C   0  0  0  0  0  0  0  0  0  0  0  0
  -20.9959   -6.1682   24.0317 C   0  0  0  0  0  0  0  0  0  0  0  0
  -24.5880  -11.6438   20.7182 C   0  0  0  0  0  0  0  0  0  0  0  0
  -25.2737  -13.7099   20.4083 C   0  0  0  0  0  0  0  0  0  0  0  0
  -30.4819  -23.4751   20.7150 C   0  0  0  0  0  0  0  0  0  0  0  0
  -29.7867  -24.5990   20.5100 C   0  0  0  0  0  0  0  0  0  1  0  0
  -22.8957  -13.5300   21.1575 C   0  0  0  0  0  0  0  0  0  0  0  0
  -26.4936  -30.7558   21.3859 C   0  0  0  0  0  0  0  0  0  0  0  0
  -23.5238  -29.5513   21.8874 C   0  0  0  0  0  0  0  0  0  0  0  0
  -21.4350  -26.8546   21.7805 C   0  0  0  0  0  0  0  0  0  0  0  0
  -30.7442  -14.7229   20.6332 C   0  0  0  0  0  0  0  0  0  0  0  0
  -27.1066  -35.7252   22.3797 C   0  0  0  0  0  0  0  0  0  0  0  0
  -26.0253  -29.6353   19.1766 C   0  0  0  0  0  0  0  0  0  0  0  0
  -25.3631  -27.8779   21.4609 C   0  0  0  0  0  0  0  0  0  0  0  0
  -31.7533  -23.3805   21.4975 C   0  0  0  0  0  0  0  0  0  0  0  0
  -30.0429  -22.1041   20.2965 C   0  0  0  0  0  0  0  0  0  0  0  0
  -26.2591  -34.5932   22.9547 C   0  0  0  0  0  0  0  0  0  0  0  0
  -29.6525  -12.2096   18.3597 C   0  0  0  0  0  0  0  0  0  0  0  0
  -27.1218  -33.3646   23.2249 C   0  0  0  0  0  0  0  0  0  0  0  0
  -28.2031  -11.9487   18.7762 C   0  0  0  0  0  0  0  0  0  0  0  0
  -31.6931  -21.9686   22.0737 C   0  0  0  0  0  0  0  0  0  0  0  0
  -30.5480  -12.4874   19.5658 C   0  0  0  0  0  0  0  0  0  0  0  0
  -28.6227  -13.2892   20.8772 C   0  0  0  0  0  0  0  0  0  0  0  0
  -27.7482  -32.8346   21.9294 C   0  0  1  0  0  0  0  0  0  0  0  0
  -25.4431  -30.1889   20.4735 C   0  0  1  0  0  0  0  0  0  0  0  0
  -27.6696  -13.0683   19.6913 C   0  0  2  0  0  0  0  0  0  0  0  0
  -33.7995  -19.4183   19.9129 C   0  0  0  0  0  0  0  0  0  0  0  0
  -19.0749  -26.1695   22.2885 C   0  0  0  0  0  0  0  0  0  0  0  0
  -24.1795  -29.5109   24.8671 C   0  0  0  0  0  0  0  0  0  0  0  0
  -22.2299  -27.9768   25.2043 C   0  0  0  0  0  0  0  0  0  0  0  0
  -21.8638  -30.2800   24.3188 C   0  0  0  0  0  0  0  0  0  0  0  0
  -20.9159  -26.1272   18.9591 C   0  0  0  0  0  0  0  0  0  0  0  0
  -32.3631  -19.5859   19.4279 C   0  0  0  0  0  0  0  0  0  0  0  0
  -22.9277  -28.5347   22.8309 C   0  0  1  0  0  0  0  0  0  0  0  0
  -20.0314  -26.6890   21.2264 C   0  0  2  0  0  0  0  0  0  0  0  0
  -22.8211  -29.0687   24.2872 C   0  0  0  0  0  0  0  0  0  0  0  0
  -25.8593  -11.5194   20.3278 N   0  0  0  0  0  0  0  0  0  0  0  0
  -26.2488  -12.7929   20.1469 N   0  0  0  0  0  0  0  0  0  0  0  0
  -30.8094  -21.2266   21.1777 N   0  0  3  0  0  0  0  0  0  0  0  0
  -24.7109  -29.1792   21.2407 N   0  0  0  0  0  0  0  0  0  0  0  0
  -29.9818  -13.5620   20.3842 N   0  0  0  0  0  0  0  0  0  0  0  0
  -28.9483  -20.1321   22.9859 N   0  0  0  0  0  0  0  0  0  0  0  0
  -25.4961  -15.0350   20.2773 N   0  0  0  0  0  0  0  0  0  0  0  0
  -21.8706  -12.6449   21.5183 N   0  0  0  0  0  0  0  0  0  0  0  0
  -30.0898  -15.6897   21.3959 N   0  0  0  0  0  0  0  0  0  0  0  0
  -26.7714  -32.0910   21.1631 N   0  0  0  0  0  0  0  0  0  0  0  0
  -21.6525  -28.1339   22.2466 N   0  0  0  0  0  0  0  0  0  0  0  0
  -20.0344  -25.7289   20.0866 N   0  3  0  0  0  0  0  0  0  0  0  0
  -22.6684  -14.7637   21.1534 O   0  0  0  0  0  0  0  0  0  0  0  0
  -27.0127  -30.0356   22.2307 O   0  0  0  0  0  0  0  0  0  0  0  0
  -22.9532  -30.6328   21.7247 O   0  0  0  0  0  0  0  0  0  0  0  0
  -22.2551  -25.9394   21.8014 O   0  0  0  0  0  0  0  0  0  0  0  0
  -31.8827  -14.8615   20.1788 O   0  0  0  0  0  0  0  0  0  0  0  0
  -21.5506   -7.0949   21.8795 O   0  0  0  0  0  0  0  0  0  0  0  0
  -28.6276  -24.6405   19.7873 O   0  0  0  0  0  0  0  0  0  1  0  0
  -18.4767   -7.1738   26.4565 F   0  0  0  0  0  0  0  0  0  0  0  0
  -21.9512   -5.2393   23.8892 F   0  0  0  0  0  0  0  0  0  0  0  0
  1  2  1  0  0  0  0
  1  5  2  0  0  0  0
  2  6  2  0  0  0  0
  3  8  2  0  0  0  0
  3 17  1  0  0  0  0
  4  9  1  0  0  0  0
  4 17  2  0  0  0  0
  5 19  1  0  0  0  0
  6 21  1  0  0  0  0
  7 10  2  0  0  0  0
  7 20  1  0  0  0  0
  8 27  1  0  0  0  0
  9 27  2  0  0  0  0
 10 28  1  0  0  0  0
 11 12  2  0  0  0  0
 11 29  1  0  0  0  0
 12 30  1  0  0  0  0
 13 22  1  0  0  0  0
 13 28  2  0  0  0  0
 14 23  1  0  0  0  0
 14 25  2  0  0  0  0
 15 25  1  0  0  0  0
 15 26  2  0  0  0  0
 16 30  2  0  0  0  0
 16 31  1  0  0  0  0
 17 32  1  0  0  0  0
 18 32  1  0  0  0  0
 18 33  2  0  0  0  0
 18 36  1  0  0  0  0
 19 21  2  0  0  0  0
 19 41  1  0  0  0  0
 20 22  2  0  0  0  0
 20 42  1  0  0  0  0
 21 53  1  0  0  0  0
 22 43  1  0  0  0  0
 23 24  2  0  0  0  0
 23 62  1  0  0  0  0
 24 26  1  0  0  0  0
 24 68  1  0  0  0  0
 25 74  1  0  0  0  0
 26 71  1  0  0  0  0
 27 83  1  0  0  0  0
 28 84  1  0  0  0  0
 29 31  2  0  0  0  0
 29 83  1  0  0  0  0
 30 85  1  0  0  0  0
 31 86  1  0  0  0  0
 32 66  2  0  0  0  0
 33 67  1  0  0  0  0
 33 72  1  0  0  0  0
 34 35  2  0  0  0  0
 34 44  1  0  0  0  0
 34 45  1  0  0  0  0
 35 84  1  0  0  0  0
 36 73  1  0  0  0  0
 36 78  2  0  0  0  0
 37 54  1  0  0  0  0
 37 75  1  0  0  0  0
 37 79  2  0  0  0  0
 38 63  1  0  0  0  0
 38 69  1  0  0  0  0
 38 80  2  0  0  0  0
 39 64  1  0  0  0  0
 39 76  1  0  0  0  0
 39 81  2  0  0  0  0
 40 70  1  0  0  0  0
 40 74  1  0  0  0  0
 40 82  2  0  0  0  0
 41 46  1  0  0  0  0
 42 54  1  0  0  0  0
 43 69  1  0  0  0  0
 44 50  1  0  0  0  0
 45 68  1  0  0  0  0
 46 48  1  0  0  0  0
 47 49  1  0  0  0  0
 47 51  1  0  0  0  0
 48 53  1  0  0  0  0
 49 55  1  0  0  0  0
 50 68  1  0  0  0  0
 51 70  1  0  0  0  0
 52 55  1  0  0  0  0
 52 70  1  0  0  0  0
 53 75  1  0  0  0  0
 54 69  1  0  0  0  0
 55 67  1  0  0  0  0
 56 62  1  0  0  0  0
 57 64  1  0  0  0  0
 58 65  1  0  0  0  0
 59 65  1  0  0  0  0
 60 65  1  0  0  0  0
 61 77  1  0  0  0  0
 63 65  1  0  0  0  0
 63 76  1  0  0  0  0
 64 77  1  0  0  0  0
 66 67  1  0  0  0  0
M  CHG  1  77   1
M  ISO  4  35 101  40 100  74 100  84 101
M  END
> <Batch ID>
0105

> <Smiles>
CCc1cc([100NH:0][100C:0](=O)N2CCCC(n3nc(-c4ccc(Oc5ccc(F)cc5F)cc4)c(C(N)=O)c3N)C2)cc(N)c1N1CCC(=[101CH:1][101O:1]c2ccc3c(c2)CN(C(=O)C(NC(=O)C(C)NC)C(C)(C)C)C(C(=O)NC2CCCc4ccccc42)C3)C1

> <Shape>
0.345

> <Color>
0.205

> <Negative vol penalty>
0.000

$$$$

  -OEChem-04052301113D

 88 97  0     1  0  0  0  0  0999 V2000
  -21.6802  -27.0642   24.6757 C   0  0  0  0  0  0  0  0  0  0  0  0
  -22.8138  -26.4607   25.2106 C   0  0  0  0  0  0  0  0  0  0  0  0
  -23.3056  -10.2078   22.2387 C   0  0  0  0  0  0  0  0  0  0  0  0
  -23.5978   -9.5216   19.9407 C   0  0  0  0  0  0  0  0  0  0  0  0
  -21.5655  -27.2302   23.2961 C   0  0  0  0  0  0  0  0  0  0  0  0
  -23.8329  -26.0218   24.3661 C   0  0  0  0  0  0  0  0  0  0  0  0
  -29.8459  -26.0530   25.5275 C   0  0  0  0  0  0  0  0  0  0  0  0
  -32.6694  -17.4608   23.4375 C   0  0  0  0  0  0  0  0  0  0  0  0
  -32.0635  -16.5847   22.5370 C   0  0  0  0  0  0  0  0  0  0  0  0
  -22.5601   -9.0556   22.4880 C   0  0  0  0  0  0  0  0  0  0  0  0
  -22.8522   -8.3694   20.1900 C   0  0  0  0  0  0  0  0  0  0  0  0
  -30.7217  -25.0607   25.9658 C   0  0  0  0  0  0  0  0  0  0  0  0
  -19.4082   -7.9627   21.9442 C   0  0  0  0  0  0  0  0  0  0  0  0
  -18.2253   -8.1015   22.6700 C   0  0  0  0  0  0  0  0  0  0  0  0
  -31.3500  -24.6140   23.6800 C   0  0  0  0  0  0  0  0  0  0  0  0
  -30.5006  -18.3321   24.0492 C   0  0  0  0  0  0  0  0  0  0  0  0
  -19.0898   -6.6114   24.3639 C   0  0  0  0  0  0  0  0  0  0  0  0
  -23.8245  -10.4409   20.9651 C   0  0  0  0  0  0  0  0  0  0  0  0
  -24.1676  -12.9658   20.8433 C   0  0  0  0  0  0  0  0  0  0  0  0
  -22.5881  -26.8018   22.4350 C   0  0  0  0  0  0  0  0  0  0  0  0
  -29.7072  -26.3262   24.1591 C   0  0  0  0  0  0  0  0  0  0  0  0
  -23.7312  -26.1810   22.9736 C   0  0  0  0  0  0  0  0  0  0  0  0
  -30.4736  -25.6120   23.2271 C   0  0  0  0  0  0  0  0  0  0  0  0
  -29.8947  -17.4560   23.1487 C   0  0  0  0  0  0  0  0  0  0  0  0
  -31.8880  -18.3345   24.1936 C   0  0  0  0  0  0  0  0  0  0  0  0
  -30.6761  -16.5823   22.3926 C   0  0  0  0  0  0  0  0  0  0  0  0
  -22.3334   -8.1364   21.4637 C   0  0  0  0  0  0  0  0  0  0  0  0
  -31.4718  -24.3391   25.0418 C   0  0  0  0  0  0  0  0  0  0  0  0
  -20.4320   -7.1481   22.4281 C   0  0  0  0  0  0  0  0  0  0  0  0
  -18.0661   -7.4259   23.8799 C   0  0  0  0  0  0  0  0  0  0  0  0
  -20.2727   -6.4725   23.6380 C   0  0  0  0  0  0  0  0  0  0  0  0
  -24.5942  -11.6312   20.7068 C   0  0  0  0  0  0  0  0  0  0  0  0
  -25.2602  -13.7145   20.4800 C   0  0  0  0  0  0  0  0  0  0  0  0
  -33.7917  -18.6815   27.1882 C   0  0  0  0  0  0  0  0  0  0  0  0
  -31.9168  -20.4884   25.4123 C   0  0  0  0  0  0  0  0  0  0  0  0
  -22.8971  -13.4825   21.2612 C   0  0  0  0  0  0  0  0  0  0  0  0
  -27.3145  -26.1728   22.0722 C   0  0  0  0  0  0  0  0  0  0  0  0
  -29.4763  -27.5493   20.0837 C   0  0  0  0  0  0  0  0  0  0  0  0
  -32.9908  -27.1824   19.3549 C   0  0  0  0  0  0  0  0  0  0  0  0
  -30.7268  -14.7576   20.6564 C   0  0  0  0  0  0  0  0  0  0  0  0
  -22.3980  -26.9600   20.9472 C   0  0  0  0  0  0  0  0  0  0  0  0
  -28.7780  -27.4180   23.7043 C   0  0  0  0  0  0  0  0  0  0  0  0
  -30.3766  -25.8807   21.7483 C   0  0  0  0  0  0  0  0  0  0  0  0
  -32.5262  -19.0282   27.9352 C   0  0  0  0  0  0  0  0  0  0  0  0
  -33.8309  -18.8817   25.6807 C   0  0  0  0  0  0  0  0  0  0  0  0
  -23.6897  -26.8060   20.1483 C   0  0  0  0  0  0  0  0  0  0  0  0
  -32.2539  -20.5286   27.9294 C   0  0  0  0  0  0  0  0  0  0  0  0
  -29.6124  -12.3425   18.2895 C   0  0  0  0  0  0  0  0  0  0  0  0
  -24.4653  -25.5797   20.6188 C   0  0  0  0  0  0  0  0  0  0  0  0
  -28.1724  -12.0519   18.7186 C   0  0  0  0  0  0  0  0  0  0  0  0
  -30.5271  -12.5718   19.4914 C   0  0  0  0  0  0  0  0  0  0  0  0
  -28.6198  -13.2982   20.8712 C   0  0  0  0  0  0  0  0  0  0  0  0
  -24.8691  -25.7140   22.0920 C   0  0  1  0  0  0  0  0  0  0  0  0
  -32.5236  -21.2509   26.5981 C   0  0  2  0  0  0  0  0  0  0  0  0
  -28.3357  -27.2601   22.2528 C   0  0  1  0  0  0  0  0  0  0  0  0
  -27.6474  -13.1245   19.6930 C   0  0  2  0  0  0  0  0  0  0  0  0
  -28.4064  -17.4733   23.0159 C   0  0  0  0  0  0  0  0  0  0  0  0
  -34.6550  -28.8389   18.4694 C   0  0  0  0  0  0  0  0  0  0  0  0
  -28.7618  -26.3739   17.3601 C   0  0  0  0  0  0  0  0  0  0  0  0
  -31.1730  -26.5774   16.7175 C   0  0  0  0  0  0  0  0  0  0  0  0
  -29.8550  -28.6215   17.2721 C   0  0  0  0  0  0  0  0  0  0  0  0
  -34.8150  -26.7489   21.6447 C   0  0  0  0  0  0  0  0  0  0  0  0
  -31.9839  -22.6828   26.6699 C   0  0  0  0  0  0  0  0  0  1  0  0
  -30.5248  -27.0378   19.1256 C   0  0  1  0  0  0  0  0  0  0  0  0
  -34.0991  -28.1571   19.7099 C   0  0  2  0  0  0  0  0  0  0  0  0
  -30.0710  -27.1378   17.6418 C   0  0  0  0  0  0  0  0  0  0  0  0
  -25.8592  -11.5344   20.2892 N   0  0  0  0  0  0  0  0  0  0  0  0
  -26.2368  -12.8177   20.1600 N   0  0  0  0  0  0  0  0  0  0  0  0
  -32.5147  -19.2387   25.1270 N   0  0  0  0  0  0  0  0  0  0  0  0
  -29.4493  -26.9537   21.3527 N   0  0  0  0  0  0  0  0  0  0  0  0
  -29.9682  -13.6035   20.3677 N   0  0  0  0  0  0  0  0  0  0  0  0
  -25.4713  -15.0458   20.4060 N   0  0  0  0  0  0  0  0  0  0  0  0
  -21.8846  -12.5741   21.5987 N   0  0  0  0  0  0  0  0  0  0  0  0
  -30.0795  -15.6836   21.4738 N   0  0  0  0  0  0  0  0  0  0  0  0
  -26.0083  -26.5967   22.2254 N   0  0  0  0  0  0  0  0  0  0  0  0
  -31.7475  -27.7743   19.4274 N   0  0  0  0  0  0  0  0  0  0  0  0
  -35.2150  -27.4454   20.3949 N   0  3  0  0  0  0  0  0  0  0  0  0
  -34.7911  -18.2843   27.7907 O   0  0  0  0  0  0  0  0  0  0  0  0
  -30.9734  -20.9732   24.7827 O   0  0  0  0  0  0  0  0  0  0  0  0
  -22.6614  -14.7133   21.3175 O   0  0  0  0  0  0  0  0  0  0  0  0
  -27.6843  -25.0339   21.8117 O   0  0  0  0  0  0  0  0  0  0  0  0
  -28.7141  -28.4492   19.7221 O   0  0  0  0  0  0  0  0  0  0  0  0
  -33.2066  -26.0140   19.0407 O   0  0  0  0  0  0  0  0  0  0  0  0
  -31.8562  -14.9254   20.1892 O   0  0  0  0  0  0  0  0  0  0  0  0
  -21.6061   -7.0119   21.7066 O   0  0  0  0  0  0  0  0  0  0  0  0
  -32.3269  -23.3696   25.4669 O   0  0  0  0  0  0  0  0  0  1  0  0
  -16.9306   -7.5606   24.5777 F   0  0  0  0  0  0  0  0  0  0  0  0
  -21.2532   -5.6894   24.1086 F   0  0  0  0  0  0  0  0  0  0  0  0
  1  2  1  0  0  0  0
  1  5  2  0  0  0  0
  2  6  2  0  0  0  0
  3 10  2  0  0  0  0
  3 18  1  0  0  0  0
  4 11  1  0  0  0  0
  4 18  2  0  0  0  0
  5 20  1  0  0  0  0
  6 22  1  0  0  0  0
  7 12  2  0  0  0  0
  7 21  1  0  0  0  0
  8  9  2  0  0  0  0
  8 25  1  0  0  0  0
  9 26  1  0  0  0  0
 10 27  1  0  0  0  0
 11 27  2  0  0  0  0
 12 28  1  0  0  0  0
 13 14  2  0  0  0  0
 13 29  1  0  0  0  0
 14 30  1  0  0  0  0
 15 23  1  0  0  0  0
 15 28  2  0  0  0  0
 16 24  1  0  0  0  0
 16 25  2  0  0  0  0
 17 30  2  0  0  0  0
 17 31  1  0  0  0  0
 18 32  1  0  0  0  0
 19 32  1  0  0  0  0
 19 33  2  0  0  0  0
 19 36  1  0  0  0  0
 20 22  2  0  0  0  0
 20 41  1  0  0  0  0
 21 23  2  0  0  0  0
 21 42  1  0  0  0  0
 22 53  1  0  0  0  0
 23 43  1  0  0  0  0
 24 26  2  0  0  0  0
 24 57  1  0  0  0  0
 25 69  1  0  0  0  0
 26 74  1  0  0  0  0
 27 85  1  0  0  0  0
 28 86  1  0  0  0  0
 29 31  2  0  0  0  0
 29 85  1  0  0  0  0
 30 87  1  0  0  0  0
 31 88  1  0  0  0  0
 32 67  2  0  0  0  0
 33 68  1  0  0  0  0
 33 72  1  0  0  0  0
 34 44  1  0  0  0  0
 34 45  1  0  0  0  0
 34 78  2  0  0  0  0
 35 54  1  0  0  0  0
 35 69  1  0  0  0  0
 35 79  2  0  0  0  0
 36 73  1  0  0  0  0
 36 80  2  0  0  0  0
 37 55  1  0  0  0  0
 37 75  1  0  0  0  0
 37 81  2  0  0  0  0
 38 64  1  0  0  0  0
 38 70  1  0  0  0  0
 38 82  2  0  0  0  0
 39 65  1  0  0  0  0
 39 76  1  0  0  0  0
 39 83  2  0  0  0  0
 40 71  1  0  0  0  0
 40 74  1  0  0  0  0
 40 84  2  0  0  0  0
 41 46  1  0  0  0  0
 42 55  1  0  0  0  0
 43 70  1  0  0  0  0
 44 47  1  0  0  0  0
 45 69  1  0  0  0  0
 46 49  1  0  0  0  0
 47 54  1  0  0  0  0
 48 50  1  0  0  0  0
 48 51  1  0  0  0  0
 49 53  1  0  0  0  0
 50 56  1  0  0  0  0
 51 71  1  0  0  0  0
 52 56  1  0  0  0  0
 52 71  1  0  0  0  0
 53 75  1  0  0  0  0
 54 63  1  0  0  0  0
 55 70  1  0  0  0  0
 56 68  1  0  0  0  0
 58 65  1  0  0  0  0
 59 66  1  0  0  0  0
 60 66  1  0  0  0  0
 61 66  1  0  0  0  0
 62 77  1  0  0  0  0
 63 86  1  0  0  0  0
 64 66  1  0  0  0  0
 64 76  1  0  0  0  0
 65 77  1  0  0  0  0
 67 68  1  0  0  0  0
M  CHG  1  77   1
M  ISO  4  40 100  63 101  74 100  86 101
M  END
> <Batch ID>
0105

> <Smiles>
CNC(C)C(=O)NC(C(=O)N1Cc2cc([101O:1][101CH2:1]C3CCC(=O)CN(c4ccc([100NH:0][100C:0](=O)N5CCCC(n6nc(-c7ccc(Oc8ccc(F)cc8F)cc7)c(C(N)=O)c6N)C5)c(C)c4)C3=O)ccc2CC1C(=O)NC1CCCc2ccccc21)C(C)(C)C

> <Shape>
0.212

> <Color>
0.189

> <Negative vol penalty>
0.000

$$$$

  -OEChem-04052301113D

 85 93  0     1  0  0  0  0  0999 V2000
  -29.4928  -11.7715   17.1392 C   0  0  0  0  0  0  0  0  0  0  0  0
  -30.0483  -11.2417   16.2154 C   0  0  0  0  0  0  0  0  0  0  0  0
  -14.0566  -21.0518   23.8532 C   0  0  0  0  0  0  0  0  0  0  0  0
  -14.7318  -19.8845   23.5112 C   0  0  0  0  0  0  0  0  0  0  0  0
  -28.5640  -26.3026   18.6165 C   0  0  0  0  0  0  0  0  0  0  0  0
  -29.6746  -25.7537   20.6907 C   0  0  0  0  0  0  0  0  0  0  0  0
  -14.5740  -22.2907   23.4772 C   0  0  0  0  0  0  0  0  0  0  0  0
  -15.9244  -19.9554   22.7921 C   0  0  0  0  0  0  0  0  0  0  0  0
  -20.7694  -16.2473   23.3227 C   0  0  0  0  0  0  0  0  0  0  0  0
  -27.9664  -27.4046   19.2280 C   0  0  0  0  0  0  0  0  0  0  0  0
  -29.0770  -26.8557   21.3023 C   0  0  0  0  0  0  0  0  0  0  0  0
  -21.1918  -15.1441   22.5823 C   0  0  0  0  0  0  0  0  0  0  0  0
  -25.3613  -27.9946   21.2992 C   0  0  0  0  0  0  0  0  0  0  0  0
  -24.0025  -28.2065   21.0660 C   0  0  0  0  0  0  0  0  0  0  0  0
  -29.3016  -13.6236   18.7253 C   0  0  0  0  0  0  0  0  0  0  0  0
  -27.7187  -11.8010   18.8217 C   0  0  0  0  0  0  0  0  0  0  0  0
  -22.6539  -16.5719   21.3004 C   0  0  0  0  0  0  0  0  0  0  0  0
  -27.5427  -13.6377   20.3814 C   0  0  0  0  0  0  0  0  0  0  0  0
  -24.5039  -30.3667   20.1073 C   0  0  0  0  0  0  0  0  0  0  0  0
  -28.8327  -12.4038   18.2375 C   0  0  0  0  0  0  0  0  0  0  0  0
  -29.4181  -25.4771   19.3478 C   0  0  0  0  0  0  0  0  0  0  0  0
  -31.2724  -24.3049   18.0458 C   0  0  0  0  0  0  0  0  0  0  0  0
  -15.7785  -22.3773   22.7615 C   0  0  0  0  0  0  0  0  0  0  0  0
  -21.2788  -17.5250   23.0499 C   0  0  0  0  0  0  0  0  0  0  0  0
  -16.4577  -21.1966   22.4051 C   0  0  0  0  0  0  0  0  0  0  0  0
  -22.2382  -17.6892   22.0406 C   0  0  0  0  0  0  0  0  0  0  0  0
  -28.6567  -14.2405   19.7973 C   0  0  0  0  0  0  0  0  0  0  0  0
  -28.2229  -27.6812   20.5709 C   0  0  0  0  0  0  0  0  0  0  0  0
  -22.1320  -15.3067   21.5690 C   0  0  0  0  0  0  0  0  0  0  0  0
  -26.2914  -28.9688   20.9365 C   0  0  0  0  0  0  0  0  0  0  0  0
  -27.0737  -12.4179   19.8937 C   0  0  0  0  0  0  0  0  0  0  0  0
  -23.5738  -29.3925   20.4700 C   0  0  0  0  0  0  0  0  0  0  0  0
  -25.8627  -30.1548   20.3405 C   0  0  0  0  0  0  0  0  0  0  0  0
  -30.0353  -24.3382   18.7168 C   0  0  0  0  0  0  0  0  0  0  0  0
  -31.4035  -23.0019   17.6318 C   0  0  0  0  0  0  0  0  0  0  0  0
  -32.2186  -25.3576   17.8173 C   0  0  0  0  0  0  0  0  0  0  0  0
  -20.0234  -20.2817   22.0864 C   0  0  0  0  0  0  0  0  0  0  0  0
  -23.0265  -21.3871   22.6172 C   0  0  0  0  0  0  0  0  0  0  0  0
  -26.3608  -20.7068   22.8752 C   0  0  0  0  0  0  0  0  0  0  0  0
  -29.1785  -17.9595   19.7483 C   0  0  0  0  0  0  0  0  0  0  0  0
  -16.2741  -23.7368   22.3362 C   0  0  0  0  0  0  0  0  0  0  0  0
  -20.8329  -18.7006   23.8755 C   0  0  0  0  0  0  0  0  0  0  0  0
  -22.8311  -19.0365   21.7217 C   0  0  0  0  0  0  0  0  0  0  0  0
  -17.7370  -23.7428   21.9003 C   0  0  0  0  0  0  0  0  0  0  0  0
  -28.7943  -19.1937   16.3680 C   0  0  0  0  0  0  0  0  0  0  0  0
  -18.0173  -22.5789   20.9550 C   0  0  0  0  0  0  0  0  0  0  0  0
  -29.1918  -20.6616   16.5331 C   0  0  0  0  0  0  0  0  0  0  0  0
  -28.0147  -18.6923   17.5800 C   0  0  0  0  0  0  0  0  0  0  0  0
  -29.1165  -20.3363   19.0487 C   0  0  0  0  0  0  0  0  0  0  0  0
  -17.7670  -21.2336   21.6470 C   0  0  1  0  0  0  0  0  0  0  0  0
  -21.0357  -20.0377   23.1696 C   0  0  1  0  0  0  0  0  0  0  0  0
  -29.9271  -20.8965   17.8659 C   0  0  2  0  0  0  0  0  0  0  0  0
  -30.7247  -10.5978   15.0905 C   0  0  0  0  0  0  0  0  0  0  0  0
  -28.5731  -21.8206   23.2781 C   0  0  0  0  0  0  0  0  0  0  0  0
  -22.9954  -22.4747   19.7665 C   0  0  0  0  0  0  0  0  0  0  0  0
  -25.4842  -22.7102   19.9034 C   0  0  0  0  0  0  0  0  0  0  0  0
  -24.0233  -24.0056   21.4559 C   0  0  0  0  0  0  0  0  0  0  0  0
  -26.8501  -19.1113   25.3194 C   0  0  0  0  0  0  0  0  0  0  0  0
  -29.1577  -15.5448   20.3189 C   0  0  0  0  0  0  0  0  0  0  0  0
  -23.6246  -12.0745   20.9082 C   0  0  0  0  0  0  0  0  0  0  0  0
  -22.5453  -12.9656   21.5027 C   0  0  0  0  0  0  0  0  0  1  0  0
  -25.0082  -12.6914   21.0404 C   0  0  0  0  0  0  0  0  0  0  0  0
  -24.2817  -21.5126   21.7878 C   0  0  1  0  0  0  0  0  0  0  0  0
  -27.3925  -21.1046   23.9154 C   0  0  2  0  0  0  0  0  0  0  0  0
  -24.1837  -22.6506   20.7329 C   0  0  0  0  0  0  0  0  0  0  0  0
  -29.4240  -23.1507   18.7304 N   0  0  0  0  0  0  0  0  0  0  0  0
  -30.2805  -22.3590   18.0629 N   0  0  0  0  0  0  0  0  0  0  0  0
  -22.3584  -20.1562   22.5526 N   0  0  0  0  0  0  0  0  0  0  0  0
  -28.7775  -18.9288   18.8139 N   0  0  0  0  0  0  0  0  0  0  0  0
  -32.3686  -22.3547   16.9447 N   0  0  0  0  0  0  0  0  0  0  0  0
  -31.9272  -26.6366   18.3109 N   0  0  0  0  0  0  0  0  0  0  0  0
  -18.8697  -20.9035   22.5242 N   0  0  0  0  0  0  0  0  0  0  0  0
  -25.3819  -21.6674   22.7333 N   0  0  0  0  0  0  0  0  0  0  0  0
  -28.8118  -16.6517   19.4552 N   0  0  0  0  0  0  0  0  0  0  0  0
  -27.9025  -19.8985   24.6268 N   0  3  0  0  0  0  0  0  0  0  0  0
  -33.2830  -25.1735   17.1797 O   0  0  0  0  0  0  0  0  0  0  0  0
  -20.2714  -19.9330   20.9381 O   0  0  0  0  0  0  0  0  0  0  0  0
  -22.6566  -22.3436   23.3027 O   0  0  0  0  0  0  0  0  0  0  0  0
  -26.4196  -19.6512   22.2484 O   0  0  0  0  0  0  0  0  0  0  0  0
  -29.8208  -18.2383   20.7665 O   0  0  0  0  0  0  0  0  0  0  0  0
  -27.6402  -28.7566   21.1680 O   0  0  0  0  0  0  0  0  0  0  0  0
  -22.5455  -14.2317   20.8443 O   0  0  0  0  0  0  0  0  0  1  0  0
  -25.9790  -11.8257   20.4678 O   0  0  0  0  0  0  0  0  0  0  0  0
  -22.2691  -29.5952   20.2448 F   0  0  0  0  0  0  0  0  0  0  0  0
  -26.7517  -31.0939   19.9889 F   0  0  0  0  0  0  0  0  0  0  0  0
  1  2  3  0  0  0  0
  1 20  1  0  0  0  0
  2 53  1  0  0  0  0
  3  4  1  0  0  0  0
  3  7  2  0  0  0  0
  4  8  2  0  0  0  0
  5 10  2  0  0  0  0
  5 21  1  0  0  0  0
  6 11  1  0  0  0  0
  6 21  2  0  0  0  0
  7 23  1  0  0  0  0
  8 25  1  0  0  0  0
  9 12  2  0  0  0  0
  9 24  1  0  0  0  0
 10 28  1  0  0  0  0
 11 28  2  0  0  0  0
 12 29  1  0  0  0  0
 13 14  2  0  0  0  0
 13 30  1  0  0  0  0
 14 32  1  0  0  0  0
 15 20  1  0  0  0  0
 15 27  2  0  0  0  0
 16 20  2  0  0  0  0
 16 31  1  0  0  0  0
 17 26  1  0  0  0  0
 17 29  2  0  0  0  0
 18 27  1  0  0  0  0
 18 31  2  0  0  0  0
 19 32  2  0  0  0  0
 19 33  1  0  0  0  0
 21 34  1  0  0  0  0
 22 34  1  0  0  0  0
 22 35  2  0  0  0  0
 22 36  1  0  0  0  0
 23 25  2  0  0  0  0
 23 41  1  0  0  0  0
 24 26  2  0  0  0  0
 24 42  1  0  0  0  0
 25 50  1  0  0  0  0
 26 43  1  0  0  0  0
 27 59  1  0  0  0  0
 28 81  1  0  0  0  0
 29 82  1  0  0  0  0
 30 33  2  0  0  0  0
 30 81  1  0  0  0  0
 31 83  1  0  0  0  0
 32 84  1  0  0  0  0
 33 85  1  0  0  0  0
 34 66  2  0  0  0  0
 35 67  1  0  0  0  0
 35 70  1  0  0  0  0
 36 71  1  0  0  0  0
 36 76  2  0  0  0  0
 37 51  1  0  0  0  0
 37 72  1  0  0  0  0
 37 77  2  0  0  0  0
 38 63  1  0  0  0  0
 38 68  1  0  0  0  0
 38 78  2  0  0  0  0
 39 64  1  0  0  0  0
 39 73  1  0  0  0  0
 39 79  2  0  0  0  0
 40 69  1  0  0  0  0
 40 74  1  0  0  0  0
 40 80  2  0  0  0  0
 41 44  1  0  0  0  0
 42 51  1  0  0  0  0
 43 68  1  0  0  0  0
 44 46  1  0  0  0  0
 45 47  1  0  0  0  0
 45 48  1  0  0  0  0
 46 50  1  0  0  0  0
 47 52  1  0  0  0  0
 48 69  1  0  0  0  0
 49 52  1  0  0  0  0
 49 69  1  0  0  0  0
 50 72  1  0  0  0  0
 51 68  1  0  0  0  0
 52 67  1  0  0  0  0
 54 64  1  0  0  0  0
 55 65  1  0  0  0  0
 56 65  1  0  0  0  0
 57 65  1  0  0  0  0
 58 75  1  0  0  0  0
 59 74  1  0  0  0  0
 60 61  1  0  0  0  0
 60 62  1  0  0  0  0
 61 82  1  0  0  0  0
 62 83  1  0  0  0  0
 63 65  1  0  0  0  0
 63 73  1  0  0  0  0
 64 75  1  0  0  0  0
 66 67  1  0  0  0  0
M  CHG  1  75   1
M  ISO  4  40 100  61 101  74 100  82 101
M  END
> <Batch ID>
0105

> <Smiles>
CC#Cc1cc(C[100NH:0][100C:0](=O)N2CCCC(n3nc(-c4ccc(Oc5ccc(F)cc5F)cc4)c(C(N)=O)c3N)C2)cc(OCC[101CH2:1][101O:1]c2ccc3c(c2)CN(C(=O)C(NC(=O)C(C)NC)C(C)(C)C)C(C(=O)NC2CCCc4ccccc42)C3)c1

> <Shape>
0.204

> <Color>
0.072

> <Negative vol penalty>
0.000

$$$$

  -OEChem-04052301113D

 89 98  0     1  0  0  0  0  0999 V2000
  -32.6861  -24.2924   17.3675 C   0  0  0  0  0  0  0  0  0  0  0  0
  -31.6292  -23.9915   18.2206 C   0  0  0  0  0  0  0  0  0  0  0  0
  -24.1493   -9.2646   21.0246 C   0  0  0  0  0  0  0  0  0  0  0  0
  -25.5096  -10.1513   22.8135 C   0  0  0  0  0  0  0  0  0  0  0  0
  -28.0532  -18.2969   21.6034 C   0  0  0  0  0  0  0  0  0  0  0  0
  -33.2498  -25.5675   17.3806 C   0  0  0  0  0  0  0  0  0  0  0  0
  -31.1359  -24.9655   19.0882 C   0  0  0  0  0  0  0  0  0  0  0  0
  -26.0748  -25.1268   19.1524 C   0  0  0  0  0  0  0  0  0  0  0  0
  -27.0721  -19.1976   22.0180 C   0  0  0  0  0  0  0  0  0  0  0  0
  -24.1583   -8.0122   21.6385 C   0  0  0  0  0  0  0  0  0  0  0  0
  -25.5187   -8.8989   23.4274 C   0  0  0  0  0  0  0  0  0  0  0  0
  -25.4158  -24.1452   19.8912 C   0  0  0  0  0  0  0  0  0  0  0  0
  -22.5739   -6.4848   24.2055 C   0  0  0  0  0  0  0  0  0  0  0  0
  -21.3642   -5.7954   24.2896 C   0  0  0  0  0  0  0  0  0  0  0  0
  -25.1201  -25.7137   21.6999 C   0  0  0  0  0  0  0  0  0  0  0  0
  -26.5506  -17.7664   23.8933 C   0  0  0  0  0  0  0  0  0  0  0  0
  -22.3095   -3.9802   23.0056 C   0  0  0  0  0  0  0  0  0  0  0  0
  -24.8250  -10.3342   21.6121 C   0  0  0  0  0  0  0  0  0  0  0  0
  -28.2829  -17.1309   22.3338 C   0  0  0  0  0  0  0  0  0  0  0  0
  -23.6925  -12.4222   20.6818 C   0  0  0  0  0  0  0  0  0  0  0  0
  -32.7569  -26.5605   18.2419 C   0  0  0  0  0  0  0  0  0  0  0  0
  -26.2714  -26.4082   19.6869 C   0  0  0  0  0  0  0  0  0  0  0  0
  -31.6944  -26.2547   19.1138 C   0  0  0  0  0  0  0  0  0  0  0  0
  -25.7797  -26.7106   20.9648 C   0  0  0  0  0  0  0  0  0  0  0  0
  -26.3209  -18.9324   23.1629 C   0  0  0  0  0  0  0  0  0  0  0  0
  -27.5317  -16.8657   23.4788 C   0  0  0  0  0  0  0  0  0  0  0  0
  -24.8430   -7.8293   22.8399 C   0  0  0  0  0  0  0  0  0  0  0  0
  -24.9409  -24.4377   21.1664 C   0  0  0  0  0  0  0  0  0  0  0  0
  -23.6513   -5.9220   23.5213 C   0  0  0  0  0  0  0  0  0  0  0  0
  -21.2320   -4.5431   23.6897 C   0  0  0  0  0  0  0  0  0  0  0  0
  -23.5191   -4.6697   22.9214 C   0  0  0  0  0  0  0  0  0  0  0  0
  -24.8165  -11.6281   20.9781 C   0  0  0  0  0  0  0  0  0  0  0  0
  -24.2130  -13.5459   20.0877 C   0  0  0  0  0  0  0  0  0  0  0  0
  -23.6850  -21.0608   26.0796 C   0  0  0  0  0  0  0  0  0  0  0  0
  -25.4294  -21.2493   23.3302 C   0  0  0  0  0  0  0  0  0  0  0  0
  -29.3155  -16.2104   21.8743 C   0  0  0  0  0  0  0  0  0  0  0  0
  -22.3023  -12.1670   20.9222 C   0  0  0  0  0  0  0  0  0  0  0  0
  -29.6501  -16.0860   20.4370 C   0  0  0  0  0  0  0  0  0  0  0  0
  -28.8156  -28.1657   20.4229 C   0  0  0  0  0  0  0  0  0  0  0  0
  -26.5857  -30.4492   21.0020 C   0  0  0  0  0  0  0  0  0  0  0  0
  -23.3334  -30.6202   22.5545 C   0  0  0  0  0  0  0  0  0  0  0  0
  -33.4295  -27.9103   18.2539 C   0  0  0  0  0  0  0  0  0  0  0  0
  -26.9606  -27.4638   18.8665 C   0  0  0  0  0  0  0  0  0  0  0  0
  -25.9471  -28.0769   21.5761 C   0  0  0  0  0  0  0  0  0  0  0  0
  -24.1709  -19.6540   25.8104 C   0  0  0  0  0  0  0  0  0  0  0  0
  -24.4308  -22.1987   25.4191 C   0  0  0  0  0  0  0  0  0  0  0  0
  -32.6031  -28.9966   18.9374 C   0  0  0  0  0  0  0  0  0  0  0  0
  -27.9225  -15.0369   17.4753 C   0  0  0  0  0  0  0  0  0  0  0  0
  -32.0486  -28.4897   20.2649 C   0  0  0  0  0  0  0  0  0  0  0  0
  -26.8522  -14.0855   18.0092 C   0  0  0  0  0  0  0  0  0  0  0  0
  -24.1447  -19.3165   24.3265 C   0  0  0  0  0  0  0  0  0  0  0  0
  -29.2052  -14.9513   18.2962 C   0  0  0  0  0  0  0  0  0  0  0  0
  -27.9298  -14.2359   20.2987 C   0  0  0  0  0  0  0  0  0  0  0  0
  -31.1155  -27.2917   20.0516 C   0  0  1  0  0  0  0  0  0  0  0  0
  -24.3110  -22.1405   23.8935 C   0  0  1  0  0  0  0  0  0  0  0  0
  -27.5586  -28.5830   19.7134 C   0  0  1  0  0  0  0  0  0  0  0  0
  -26.6099  -14.3143   19.5117 C   0  0  2  0  0  0  0  0  0  0  0  0
  -21.4196  -32.1956   22.1634 C   0  0  0  0  0  0  0  0  0  0  0  0
  -27.7992  -32.0361   23.3083 C   0  0  0  0  0  0  0  0  0  0  0  0
  -25.4757  -32.5318   24.0980 C   0  0  0  0  0  0  0  0  0  0  0  0
  -26.2287  -33.3362   21.8600 C   0  0  0  0  0  0  0  0  0  0  0  0
  -21.4569  -28.3935   22.0256 C   0  0  0  0  0  0  0  0  0  0  0  0
  -24.4126  -23.5548   23.3105 C   0  0  0  0  0  0  0  0  0  1  0  0
  -25.7763  -30.8726   22.2038 C   0  0  1  0  0  0  0  0  0  0  0  0
  -22.0019  -30.8251   21.8546 C   0  0  2  0  0  0  0  0  0  0  0  0
  -26.3287  -32.1673   22.8642 C   0  0  0  0  0  0  0  0  0  0  0  0
  -25.9644  -12.1988   20.6030 N   0  0  0  0  0  0  0  0  0  0  0  0
  -30.0032  -15.4501   22.6800 N   0  0  0  0  0  0  0  0  0  0  0  0
  -25.5644  -13.3635   20.0648 N   0  0  0  0  0  0  0  0  0  0  0  0
  -25.3036  -19.8670   23.5922 N   0  0  0  0  0  0  0  0  0  0  0  0
  -28.9347  -15.1369   19.7204 N   0  0  0  0  0  0  0  0  0  0  0  0
  -26.6333  -29.0732   20.7370 N   0  0  0  0  0  0  0  0  0  0  0  0
  -27.7476  -15.6900   24.2315 N   0  0  0  0  0  0  0  0  0  0  0  0
  -23.6418  -14.6623   19.5877 N   0  0  0  0  0  0  0  0  0  0  0  0
  -21.7459  -12.5891   22.1374 N   0  0  0  0  0  0  0  0  0  0  0  0
  -29.8220  -27.7365   19.5788 N   0  0  0  0  0  0  0  0  0  0  0  0
  -24.3940  -30.9769   21.7489 N   0  0  0  0  0  0  0  0  0  0  0  0
  -21.0229  -29.7894   22.2904 N   0  3  0  0  0  0  0  0  0  0  0  0
  -22.7526  -21.2749   26.8551 O   0  0  0  0  0  0  0  0  0  0  0  0
  -26.3893  -21.7734   22.7589 O   0  0  0  0  0  0  0  0  0  0  0  0
  -21.5788  -11.5674   20.0912 O   0  0  0  0  0  0  0  0  0  0  0  0
  -30.5274  -16.8378   20.0328 O   0  0  0  0  0  0  0  0  0  0  0  0
  -28.8691  -28.2298   21.6455 O   0  0  0  0  0  0  0  0  0  0  0  0
  -27.1490  -31.3083   20.3191 O   0  0  0  0  0  0  0  0  0  0  0  0
  -23.4233  -30.1904   23.7024 O   0  0  0  0  0  0  0  0  0  0  0  0
  -24.8518   -6.6074   23.4393 O   0  0  0  0  0  0  0  0  0  0  0  0
  -24.2979  -23.4813   21.8900 O   0  0  0  0  0  0  0  0  0  1  0  0
  -20.0708   -3.8805   23.7719 F   0  0  0  0  0  0  0  0  0  0  0  0
  -24.5510   -4.1233   22.2638 F   0  0  0  0  0  0  0  0  0  0  0  0
  1  2  1  0  0  0  0
  1  6  2  0  0  0  0
  2  7  2  0  0  0  0
  3 10  2  0  0  0  0
  3 18  1  0  0  0  0
  4 11  1  0  0  0  0
  4 18  2  0  0  0  0
  5  9  2  0  0  0  0
  5 19  1  0  0  0  0
  6 21  1  0  0  0  0
  7 23  1  0  0  0  0
  8 12  2  0  0  0  0
  8 22  1  0  0  0  0
  9 25  1  0  0  0  0
 10 27  1  0  0  0  0
 11 27  2  0  0  0  0
 12 28  1  0  0  0  0
 13 14  2  0  0  0  0
 13 29  1  0  0  0  0
 14 30  1  0  0  0  0
 15 24  1  0  0  0  0
 15 28  2  0  0  0  0
 16 25  2  0  0  0  0
 16 26  1  0  0  0  0
 17 30  2  0  0  0  0
 17 31  1  0  0  0  0
 18 32  1  0  0  0  0
 19 26  2  0  0  0  0
 19 36  1  0  0  0  0
 20 32  1  0  0  0  0
 20 33  2  0  0  0  0
 20 37  1  0  0  0  0
 21 23  2  0  0  0  0
 21 42  1  0  0  0  0
 22 24  2  0  0  0  0
 22 43  1  0  0  0  0
 23 54  1  0  0  0  0
 24 44  1  0  0  0  0
 25 70  1  0  0  0  0
 26 73  1  0  0  0  0
 27 86  1  0  0  0  0
 28 87  1  0  0  0  0
 29 31  2  0  0  0  0
 29 86  1  0  0  0  0
 30 88  1  0  0  0  0
 31 89  1  0  0  0  0
 32 67  2  0  0  0  0
 33 69  1  0  0  0  0
 33 74  1  0  0  0  0
 34 45  1  0  0  0  0
 34 46  1  0  0  0  0
 34 79  2  0  0  0  0
 35 55  1  0  0  0  0
 35 70  1  0  0  0  0
 35 80  2  0  0  0  0
 36 38  1  0  0  0  0
 36 68  2  0  0  0  0
 37 75  1  0  0  0  0
 37 81  2  0  0  0  0
 38 71  1  0  0  0  0
 38 82  2  0  0  0  0
 39 56  1  0  0  0  0
 39 76  1  0  0  0  0
 39 83  2  0  0  0  0
 40 64  1  0  0  0  0
 40 72  1  0  0  0  0
 40 84  2  0  0  0  0
 41 65  1  0  0  0  0
 41 77  1  0  0  0  0
 41 85  2  0  0  0  0
 42 47  1  0  0  0  0
 43 56  1  0  0  0  0
 44 72  1  0  0  0  0
 45 51  1  0  0  0  0
 46 55  1  0  0  0  0
 47 49  1  0  0  0  0
 48 50  1  0  0  0  0
 48 52  1  0  0  0  0
 49 54  1  0  0  0  0
 50 57  1  0  0  0  0
 51 70  1  0  0  0  0
 52 71  1  0  0  0  0
 53 57  1  0  0  0  0
 53 71  1  0  0  0  0
 54 76  1  0  0  0  0
 55 63  1  0  0  0  0
 56 72  1  0  0  0  0
 57 69  1  0  0  0  0
 58 65  1  0  0  0  0
 59 66  1  0  0  0  0
 60 66  1  0  0  0  0
 61 66  1  0  0  0  0
 62 78  1  0  0  0  0
 63 87  1  0  0  0  0
 64 66  1  0  0  0  0
 64 77  1  0  0  0  0
 65 78  1  0  0  0  0
 67 69  1  0  0  0  0
M  CHG  1  78   1
M  ISO  4  36 100  38 100  63 101  87 101
M  END
> <Batch ID>
0105

> <Smiles>
CNC(C)C(=O)NC(C(=O)N1Cc2cc([101O:1][101CH2:1]C3CC(=O)CCN(c4ccc([100C:0](=N)[100C:0](=O)N5CCCC(n6nc(-c7ccc(Oc8ccc(F)cc8F)cc7)c(C(N)=O)c6N)C5)c(N)c4)C3=O)ccc2CC1C(=O)NC1CCCc2ccccc21)C(C)(C)C

> <Shape>
0.262

> <Color>
0.091

> <Negative vol penalty>
0.000

$$$$

  -OEChem-04052301113D

 84 92  0     1  0  0  0  0  0999 V2000
  -30.2299  -26.3517   16.7447 C   0  0  0  0  0  0  0  0  0  0  0  0
  -28.8421  -26.3569   16.8412 C   0  0  0  0  0  0  0  0  0  0  0  0
  -28.2253  -14.1441   21.2501 C   0  0  0  0  0  0  0  0  0  0  0  0
  -26.3511  -14.9479   19.9546 C   0  0  0  0  0  0  0  0  0  0  0  0
  -31.0056  -26.7024   17.8489 C   0  0  0  0  0  0  0  0  0  0  0  0
  -28.2292  -26.7118   18.0424 C   0  0  0  0  0  0  0  0  0  0  0  0
  -22.9427  -29.7266   18.7279 C   0  0  0  0  0  0  0  0  0  0  0  0
  -22.1822  -23.8488   23.2416 C   0  0  0  0  0  0  0  0  0  0  0  0
  -23.4698  -23.3199   23.3299 C   0  0  0  0  0  0  0  0  0  0  0  0
  -27.6663  -12.8663   21.2661 C   0  0  0  0  0  0  0  0  0  0  0  0
  -25.7921  -13.6700   19.9705 C   0  0  0  0  0  0  0  0  0  0  0  0
  -21.6435  -29.2942   18.9902 C   0  0  0  0  0  0  0  0  0  0  0  0
  -24.0479  -11.7405   22.1305 C   0  0  0  0  0  0  0  0  0  0  0  0
  -22.6853  -11.6327   22.4084 C   0  0  0  0  0  0  0  0  0  0  0  0
  -21.9822  -29.7217   21.3401 C   0  0  0  0  0  0  0  0  0  0  0  0
  -23.2295  -22.3663   21.1230 C   0  0  0  0  0  0  0  0  0  0  0  0
  -22.3286  -10.5942   20.2563 C   0  0  0  0  0  0  0  0  0  0  0  0
  -27.5677  -15.1850   20.5944 C   0  0  0  0  0  0  0  0  0  0  0  0
  -29.0318  -17.0335   19.6215 C   0  0  0  0  0  0  0  0  0  0  0  0
  -30.4018  -27.0712   19.0613 C   0  0  0  0  0  0  0  0  0  0  0  0
  -23.7765  -30.1503   19.7728 C   0  0  0  0  0  0  0  0  0  0  0  0
  -28.9976  -27.0665   19.1642 C   0  0  0  0  0  0  0  0  0  0  0  0
  -23.2907  -30.1615   21.0880 C   0  0  0  0  0  0  0  0  0  0  0  0
  -21.4181  -23.6364   22.0941 C   0  0  0  0  0  0  0  0  0  0  0  0
  -23.9935  -22.5787   22.2706 C   0  0  0  0  0  0  0  0  0  0  0  0
  -26.4497  -12.6292   20.6263 C   0  0  0  0  0  0  0  0  0  0  0  0
  -21.1640  -29.2890   20.2968 C   0  0  0  0  0  0  0  0  0  0  0  0
  -24.5509  -11.2753   20.9155 C   0  0  0  0  0  0  0  0  0  0  0  0
  -21.8257  -11.0595   21.4713 C   0  0  0  0  0  0  0  0  0  0  0  0
  -21.9418  -22.8952   21.0348 C   0  0  0  0  0  0  0  0  0  0  0  0
  -23.6913  -10.7021   19.9784 C   0  0  0  0  0  0  0  0  0  0  0  0
  -28.1443  -16.5053   20.5780 C   0  0  0  0  0  0  0  0  0  0  0  0
  -29.2807  -18.3132   20.0537 C   0  0  0  0  0  0  0  0  0  0  0  0
  -29.5820  -16.4221   18.4471 C   0  0  0  0  0  0  0  0  0  0  0  0
  -26.5483  -29.1600   20.9729 C   0  0  0  0  0  0  0  0  0  0  0  0
  -18.3417  -27.0618   20.4619 C   0  0  0  0  0  0  0  0  0  0  0  0
  -26.2829  -31.8452   22.7732 C   0  0  0  0  0  0  0  0  0  0  0  0
  -24.2569  -34.2193   24.1537 C   0  0  0  0  0  0  0  0  0  0  0  0
  -26.1903  -22.1555   23.4288 C   0  0  0  0  0  0  0  0  0  0  0  0
  -31.2826  -27.3968   20.2415 C   0  0  0  0  0  0  0  0  0  0  0  0
  -25.1664  -30.6390   19.4699 C   0  0  0  0  0  0  0  0  0  0  0  0
  -24.1389  -30.6257   22.2428 C   0  0  0  0  0  0  0  0  0  0  0  0
  -30.5495  -28.1223   21.3668 C   0  0  0  0  0  0  0  0  0  0  0  0
  -29.4799  -20.9435   24.0508 C   0  0  0  0  0  0  0  0  0  0  0  0
  -29.2196  -27.4378   21.6659 C   0  0  0  0  0  0  0  0  0  0  0  0
  -29.5936  -19.7195   23.1392 C   0  0  0  0  0  0  0  0  0  0  0  0
  -28.0772  -21.0838   24.6396 C   0  0  0  0  0  0  0  0  0  0  0  0
  -27.1008  -19.8495   22.7442 C   0  0  0  0  0  0  0  0  0  0  0  0
  -28.2953  -27.4696   20.4427 C   0  0  1  0  0  0  0  0  0  0  0  0
  -26.1018  -30.5629   20.6726 C   0  0  1  0  0  0  0  0  0  0  0  0
  -28.4777  -19.7028   22.0762 C   0  0  2  0  0  0  0  0  0  0  0  0
  -16.9234  -27.5793   20.4880 C   0  0  0  0  0  0  0  0  0  0  0  0
  -24.3251  -36.2653   25.6051 C   0  0  0  0  0  0  0  0  0  0  0  0
  -26.6750  -30.0838   25.2336 C   0  0  0  0  0  0  0  0  0  0  0  0
  -25.8003  -31.9657   26.6342 C   0  0  0  0  0  0  0  0  0  0  0  0
  -27.8921  -32.2672   25.3091 C   0  0  0  0  0  0  0  0  0  0  0  0
  -23.1362  -35.9211   22.0073 C   0  0  0  0  0  0  0  0  0  0  0  0
  -20.0263  -24.2120   22.0019 C   0  0  0  0  0  0  0  0  0  0  0  0
  -19.3499  -27.8790   19.6829 C   0  0  0  0  0  0  0  0  0  1  0  0
  -19.9601  -25.4770   21.1506 C   0  0  0  0  0  0  0  0  0  0  0  0
  -25.6677  -32.1792   24.1107 C   0  0  1  0  0  0  0  0  0  0  0  0
  -24.3533  -35.7341   24.1804 C   0  0  2  0  0  0  0  0  0  0  0  0
  -26.4932  -31.6133   25.3006 C   0  0  0  0  0  0  0  0  0  0  0  0
  -27.8494  -17.3781   21.5452 N   0  0  0  0  0  0  0  0  0  0  0  0
  -18.5999  -25.9884   21.1276 N   0  0  0  0  0  0  0  0  0  0  0  0
  -28.5557  -18.4676   21.1986 N   0  0  0  0  0  0  0  0  0  0  0  0
  -25.4930  -31.0883   21.8964 N   0  0  0  0  0  0  0  0  0  0  0  0
  -27.0728  -21.0642   23.5739 N   0  0  0  0  0  0  0  0  0  0  0  0
  -30.0469  -19.3102   19.5625 N   0  0  0  0  0  0  0  0  0  0  0  0
  -29.2214  -15.1007   18.1504 N   0  0  0  0  0  0  0  0  0  0  0  0
  -25.3008  -22.0397   22.3611 N   0  0  0  0  0  0  0  0  0  0  0  0
  -27.6922  -28.7772   20.2988 N   0  0  0  0  0  0  0  0  0  0  0  0
  -25.5026  -33.6285   24.1337 N   0  0  0  0  0  0  0  0  0  0  0  0
  -23.2161  -36.3388   23.4307 N   0  3  0  0  0  0  0  0  0  0  0  0
  -30.3829  -17.0241   17.6923 O   0  0  0  0  0  0  0  0  0  0  0  0
  -25.9035  -28.4759   21.7590 O   0  0  0  0  0  0  0  0  0  0  0  0
  -27.4197  -32.2475   22.5131 O   0  0  0  0  0  0  0  0  0  0  0  0
  -23.1838  -33.6201   24.1545 O   0  0  0  0  0  0  0  0  0  0  0  0
  -26.2393  -23.1339   24.1787 O   0  0  0  0  0  0  0  0  0  0  0  0
  -25.9041  -11.3824   20.6414 O   0  0  0  0  0  0  0  0  0  0  0  0
  -19.8965  -28.8668   20.5557 O   0  0  0  0  0  0  0  0  0  1  0  0
  -20.5174  -10.9546   21.7390 F   0  0  0  0  0  0  0  0  0  0  0  0
  -21.2153  -22.6859   19.9281 F   0  0  0  0  0  0  0  0  0  0  0  0
  -24.1688  -10.2523   18.8099 F   0  0  0  0  0  0  0  0  0  0  0  0
  1  2  1  0  0  0  0
  1  5  2  0  0  0  0
  2  6  2  0  0  0  0
  3 10  2  0  0  0  0
  3 18  1  0  0  0  0
  4 11  1  0  0  0  0
  4 18  2  0  0  0  0
  5 20  1  0  0  0  0
  6 22  1  0  0  0  0
  7 12  2  0  0  0  0
  7 21  1  0  0  0  0
  8  9  2  0  0  0  0
  8 24  1  0  0  0  0
  9 25  1  0  0  0  0
 10 26  1  0  0  0  0
 11 26  2  0  0  0  0
 12 27  1  0  0  0  0
 13 14  2  0  0  0  0
 13 28  1  0  0  0  0
 14 29  1  0  0  0  0
 15 23  1  0  0  0  0
 15 27  2  0  0  0  0
 16 25  2  0  0  0  0
 16 30  1  0  0  0  0
 17 29  2  0  0  0  0
 17 31  1  0  0  0  0
 18 32  1  0  0  0  0
 19 32  1  0  0  0  0
 19 33  2  0  0  0  0
 19 34  1  0  0  0  0
 20 22  2  0  0  0  0
 20 40  1  0  0  0  0
 21 23  2  0  0  0  0
 21 41  1  0  0  0  0
 22 49  1  0  0  0  0
 23 42  1  0  0  0  0
 24 30  2  0  0  0  0
 24 58  1  0  0  0  0
 25 71  1  0  0  0  0
 26 80  1  0  0  0  0
 27 81  1  0  0  0  0
 28 31  2  0  0  0  0
 28 80  1  0  0  0  0
 29 82  1  0  0  0  0
 30 83  1  0  0  0  0
 31 84  1  0  0  0  0
 32 64  2  0  0  0  0
 33 66  1  0  0  0  0
 33 69  1  0  0  0  0
 34 70  1  0  0  0  0
 34 75  2  0  0  0  0
 35 50  1  0  0  0  0
 35 72  1  0  0  0  0
 35 76  2  0  0  0  0
 36 52  1  0  0  0  0
 36 59  1  0  0  0  0
 36 65  2  0  0  0  0
 37 61  1  0  0  0  0
 37 67  1  0  0  0  0
 37 77  2  0  0  0  0
 38 62  1  0  0  0  0
 38 73  1  0  0  0  0
 38 78  2  0  0  0  0
 39 68  1  0  0  0  0
 39 71  1  0  0  0  0
 39 79  2  0  0  0  0
 40 43  1  0  0  0  0
 41 50  1  0  0  0  0
 42 67  1  0  0  0  0
 43 45  1  0  0  0  0
 44 46  1  0  0  0  0
 44 47  1  0  0  0  0
 45 49  1  0  0  0  0
 46 51  1  0  0  0  0
 47 68  1  0  0  0  0
 48 51  1  0  0  0  0
 48 68  1  0  0  0  0
 49 72  1  0  0  0  0
 50 67  1  0  0  0  0
 51 66  1  0  0  0  0
 53 62  1  0  0  0  0
 54 63  1  0  0  0  0
 55 63  1  0  0  0  0
 56 63  1  0  0  0  0
 57 74  1  0  0  0  0
 58 60  1  0  0  0  0
 59 81  1  0  0  0  0
 60 65  1  0  0  0  0
 61 63  1  0  0  0  0
 61 73  1  0  0  0  0
 62 74  1  0  0  0  0
 64 66  1  0  0  0  0
M  CHG  1  74   1
M  ISO  4  39 100  59 101  71 100  81 101
M  END
> <Batch ID>
0105

> <Smiles>
CNC(C)C(=O)NC(C(=O)N1Cc2cc([101O:1][101CH2:1]C(C)=NCCc3ccc([100NH:0][100C:0](=O)N4CCCC(n5nc(-c6ccc(Oc7ccc(F)cc7F)cc6)c(C(N)=O)c5N)C4)cc3F)ccc2CC1C(=O)NC1CCCc2ccccc21)C(C)(C)C

> <Shape>
0.301

> <Color>
0.077

> <Negative vol penalty>
0.000

$$$$

  -OEChem-04052301113D

 87 95  0     1  0  0  0  0  0999 V2000
  -16.8005  -29.6156   24.3763 C   0  0  0  0  0  0  0  0  0  0  0  0
  -16.9163  -29.0620   23.1053 C   0  0  0  0  0  0  0  0  0  0  0  0
  -27.0127  -14.8873   19.5297 C   0  0  0  0  0  0  0  0  0  0  0  0
  -25.7642  -15.0116   21.5944 C   0  0  0  0  0  0  0  0  0  0  0  0
  -17.8372  -30.3903   24.8951 C   0  0  0  0  0  0  0  0  0  0  0  0
  -18.0684  -29.2837   22.3517 C   0  0  0  0  0  0  0  0  0  0  0  0
  -22.2661  -26.0955   17.5009 C   0  0  0  0  0  0  0  0  0  0  0  0
  -26.8683  -13.4999   19.5260 C   0  0  0  0  0  0  0  0  0  0  0  0
  -25.6198  -13.6242   21.5906 C   0  0  0  0  0  0  0  0  0  0  0  0
  -22.8280  -26.3250   16.2457 C   0  0  0  0  0  0  0  0  0  0  0  0
  -24.6126  -10.1479   21.9358 C   0  0  0  0  0  0  0  0  0  0  0  0
  -23.3527   -9.6255   22.2278 C   0  0  0  0  0  0  0  0  0  0  0  0
  -28.9886  -24.8270   15.2883 C   0  0  0  0  0  0  0  0  0  0  0  0
  -27.8575  -24.1771   17.7542 C   0  0  0  0  0  0  0  0  0  0  0  0
  -24.5876  -27.6142   17.2758 C   0  0  0  0  0  0  0  0  0  0  0  0
  -22.4255  -10.8019   20.3322 C   0  0  0  0  0  0  0  0  0  0  0  0
  -26.4607  -15.6431   20.5640 C   0  0  0  0  0  0  0  0  0  0  0  0
  -29.8021  -24.6805   16.4117 C   0  0  0  0  0  0  0  0  0  0  0  0
  -29.2366  -24.3555   17.6447 C   0  0  0  0  0  0  0  0  0  0  0  0
  -25.7446  -18.0230   19.9887 C   0  0  0  0  0  0  0  0  0  0  0  0
  -19.0067  -30.6136   24.1514 C   0  0  0  0  0  0  0  0  0  0  0  0
  -22.8557  -26.6337   18.6538 C   0  0  0  0  0  0  0  0  0  0  0  0
  -19.1211  -30.0632   22.8605 C   0  0  0  0  0  0  0  0  0  0  0  0
  -24.0326  -27.3880   18.5447 C   0  0  0  0  0  0  0  0  0  0  0  0
  -26.1719  -12.8684   20.5564 C   0  0  0  0  0  0  0  0  0  0  0  0
  -23.9873  -27.0869   16.1328 C   0  0  0  0  0  0  0  0  0  0  0  0
  -24.7790  -10.9974   20.8419 C   0  0  0  0  0  0  0  0  0  0  0  0
  -27.0440  -24.3237   16.6307 C   0  0  0  0  0  0  0  0  0  0  0  0
  -27.6095  -24.6487   15.3977 C   0  0  0  0  0  0  0  0  0  0  0  0
  -22.2592   -9.9524   21.4260 C   0  0  0  0  0  0  0  0  0  0  0  0
  -23.6854  -11.3244   20.0402 C   0  0  0  0  0  0  0  0  0  0  0  0
  -26.6100  -17.0762   20.5688 C   0  0  0  0  0  0  0  0  0  0  0  0
  -26.3256  -19.2358   20.2680 C   0  0  0  0  0  0  0  0  0  0  0  0
  -31.7885  -26.0155   15.8757 C   0  0  0  0  0  0  0  0  0  0  0  0
  -31.2388  -24.8737   16.2603 C   0  0  0  0  0  0  0  0  0  0  0  0
  -30.0674  -24.1922   18.8654 C   0  0  0  0  0  0  0  0  0  0  0  0
  -24.5245  -17.8240   19.2624 C   0  0  0  0  0  0  0  0  0  0  0  0
  -21.9323  -28.6913   20.8937 C   0  0  0  0  0  0  0  0  0  0  0  0
  -24.7453  -27.8517   22.2737 C   0  0  0  0  0  0  0  0  0  0  0  0
  -27.9037  -26.6158   21.8938 C   0  0  0  0  0  0  0  0  0  0  0  0
  -30.7435  -22.5628   20.6008 C   0  0  0  0  0  0  0  0  0  0  0  0
  -20.0806  -31.4970   24.7352 C   0  0  0  0  0  0  0  0  0  0  0  0
  -22.2521  -26.3546   20.0030 C   0  0  0  0  0  0  0  0  0  0  0  0
  -24.7158  -27.9710   19.7537 C   0  0  0  0  0  0  0  0  0  0  0  0
  -21.4249  -31.3738   24.0224 C   0  0  0  0  0  0  0  0  0  0  0  0
  -30.1648  -20.4201   23.3523 C   0  0  0  0  0  0  0  0  0  0  0  0
  -21.2339  -31.4267   22.5099 C   0  0  0  0  0  0  0  0  0  0  0  0
  -29.1106  -19.4396   22.8310 C   0  0  0  0  0  0  0  0  0  0  0  0
  -31.1825  -20.7859   22.2728 C   0  0  0  0  0  0  0  0  0  0  0  0
  -29.5573  -20.2871   20.4930 C   0  0  0  0  0  0  0  0  0  0  0  0
  -20.3656  -30.2606   22.0224 C   0  0  1  0  0  0  0  0  0  0  0  0
  -22.6493  -27.3813   21.0592 C   0  0  1  0  0  0  0  0  0  0  0  0
  -28.4688  -19.9423   21.5222 C   0  0  1  0  0  0  0  0  0  0  0  0
  -30.1670  -25.7640   22.5641 C   0  0  0  0  0  0  0  0  0  0  0  0
  -25.4240  -30.8235   22.4055 C   0  0  0  0  0  0  0  0  0  0  0  0
  -27.8121  -30.1891   22.8088 C   0  0  0  0  0  0  0  0  0  0  0  0
  -26.0520  -29.5186   24.4445 C   0  0  0  0  0  0  0  0  0  0  0  0
  -26.9107  -23.8398   22.1518 C   0  0  0  0  0  0  0  0  0  0  0  0
  -25.2007  -23.8166   18.0453 C   0  0  0  0  0  0  0  0  0  0  0  0
  -25.5193  -26.3139   12.9442 C   0  0  0  0  0  0  0  0  0  0  0  0
  -24.3500  -26.3050   13.9162 C   0  0  0  0  0  0  0  0  0  1  0  0
  -26.8448  -26.0645   13.6465 C   0  0  0  0  0  0  0  0  0  0  0  0
  -26.1653  -28.3589   22.2007 C   0  0  1  0  0  0  0  0  0  0  0  0
  -28.6648  -25.5453   22.6549 C   0  0  2  0  0  0  0  0  0  0  0  0
  -26.3496  -29.7133   22.9417 C   0  0  0  0  0  0  0  0  0  0  0  0
  -27.6609  -17.6391   21.1710 N   0  0  0  0  0  0  0  0  0  0  0  0
  -27.4597  -18.9527   20.9708 N   0  0  0  0  0  0  0  0  0  0  0  0
  -24.0838  -27.6755   21.0501 N   0  0  0  0  0  0  0  0  0  0  0  0
  -30.4953  -21.2613   21.0708 N   0  0  0  0  0  0  0  0  0  0  0  0
  -25.9720  -20.5060   19.9786 N   0  0  0  0  0  0  0  0  0  0  0  0
  -24.0703  -16.5128   19.0658 N   0  0  0  0  0  0  0  0  0  0  0  0
  -30.0065  -22.9372   19.4718 N   0  0  0  0  0  0  0  0  0  0  0  0
  -21.1411  -29.0397   21.9717 N   0  0  0  0  0  0  0  0  0  0  0  0
  -27.0100  -27.2818   22.7056 N   0  0  0  0  0  0  0  0  0  0  0  0
  -28.3520  -24.1965   22.1037 N   0  3  0  0  0  0  0  0  0  0  0  0
  -30.7705  -25.1267   19.2397 O   0  0  0  0  0  0  0  0  0  0  0  0
  -23.8655  -18.7797   18.7872 O   0  0  0  0  0  0  0  0  0  0  0  0
  -22.0867  -29.3389   19.8649 O   0  0  0  0  0  0  0  0  0  0  0  0
  -24.2441  -27.6135   23.3753 O   0  0  0  0  0  0  0  0  0  0  0  0
  -28.0866  -26.8414   20.6996 O   0  0  0  0  0  0  0  0  0  0  0  0
  -31.5252  -23.3384   21.1602 O   0  0  0  0  0  0  0  0  0  0  0  0
  -26.0306  -11.5147   20.5528 O   0  0  0  0  0  0  0  0  0  0  0  0
  -25.6985  -24.1471   16.7502 O   0  0  0  0  0  0  0  0  0  0  0  0
  -24.5375  -27.3129   14.9088 O   0  0  0  0  0  0  0  0  0  1  0  0
  -26.8202  -24.7960   14.2869 O   0  0  0  0  0  0  0  0  0  0  0  0
  -21.0496   -9.4494   21.7057 F   0  0  0  0  0  0  0  0  0  0  0  0
  -23.8392  -12.1390   18.9873 F   0  0  0  0  0  0  0  0  0  0  0  0
  1  2  1  0  0  0  0
  1  5  2  0  0  0  0
  2  6  2  0  0  0  0
  3  8  2  0  0  0  0
  3 17  1  0  0  0  0
  4  9  1  0  0  0  0
  4 17  2  0  0  0  0
  5 21  1  0  0  0  0
  6 23  1  0  0  0  0
  7 10  2  0  0  0  0
  7 22  1  0  0  0  0
  8 25  1  0  0  0  0
  9 25  2  0  0  0  0
 10 26  1  0  0  0  0
 11 12  2  0  0  0  0
 11 27  1  0  0  0  0
 12 30  1  0  0  0  0
 13 18  1  0  0  0  0
 13 29  2  0  0  0  0
 14 19  1  0  0  0  0
 14 28  2  0  0  0  0
 15 24  1  0  0  0  0
 15 26  2  0  0  0  0
 16 30  2  0  0  0  0
 16 31  1  0  0  0  0
 17 32  1  0  0  0  0
 18 19  2  0  0  0  0
 18 35  1  0  0  0  0
 19 36  1  0  0  0  0
 20 32  1  0  0  0  0
 20 33  2  0  0  0  0
 20 37  1  0  0  0  0
 21 23  2  0  0  0  0
 21 42  1  0  0  0  0
 22 24  2  0  0  0  0
 22 43  1  0  0  0  0
 23 51  1  0  0  0  0
 24 44  1  0  0  0  0
 25 82  1  0  0  0  0
 26 84  1  0  0  0  0
 27 31  2  0  0  0  0
 27 82  1  0  0  0  0
 28 29  1  0  0  0  0
 28 83  1  0  0  0  0
 29 85  1  0  0  0  0
 30 86  1  0  0  0  0
 31 87  1  0  0  0  0
 32 66  2  0  0  0  0
 33 67  1  0  0  0  0
 33 70  1  0  0  0  0
 34 35  2  0  0  0  0
 36 72  1  0  0  0  0
 36 76  2  0  0  0  0
 37 71  1  0  0  0  0
 37 77  2  0  0  0  0
 38 52  1  0  0  0  0
 38 73  1  0  0  0  0
 38 78  2  0  0  0  0
 39 63  1  0  0  0  0
 39 68  1  0  0  0  0
 39 79  2  0  0  0  0
 40 64  1  0  0  0  0
 40 74  1  0  0  0  0
 40 80  2  0  0  0  0
 41 69  1  0  0  0  0
 41 72  1  0  0  0  0
 41 81  2  0  0  0  0
 42 45  1  0  0  0  0
 43 52  1  0  0  0  0
 44 68  1  0  0  0  0
 45 47  1  0  0  0  0
 46 48  1  0  0  0  0
 46 49  1  0  0  0  0
 47 51  1  0  0  0  0
 48 53  1  0  0  0  0
 49 69  1  0  0  0  0
 50 53  1  0  0  0  0
 50 69  1  0  0  0  0
 51 73  1  0  0  0  0
 52 68  1  0  0  0  0
 53 67  1  0  0  0  0
 54 64  1  0  0  0  0
 55 65  1  0  0  0  0
 56 65  1  0  0  0  0
 57 65  1  0  0  0  0
 58 75  1  0  0  0  0
 59 83  1  0  0  0  0
 60 61  1  0  0  0  0
 60 62  1  0  0  0  0
 61 84  1  0  0  0  0
 62 85  1  0  0  0  0
 63 65  1  0  0  0  0
 63 74  1  0  0  0  0
 64 75  1  0  0  0  0
 66 67  1  0  0  0  0
M  CHG  1  75   1
M  ISO  4  41 100  61 101  72 100  84 101
M  END
> <Batch ID>
0105

> <Smiles>
C=Cc1cc(OCC[101CH2:1][101O:1]c2ccc3c(c2)CN(C(=O)C(NC(=O)C(C)NC)C(C)(C)C)C(C(=O)NC2CCCc4ccccc42)C3)c(OC)cc1C(=O)[100NH:0][100C:0](=O)N1CCCC(n2nc(-c3ccc(Oc4ccc(F)cc4F)cc3)c(C(N)=O)c2N)C1

> <Shape>
0.222

> <Color>
0.080

> <Negative vol penalty>
0.000

$$$$

  -OEChem-04052301113D

 89 98  0     1  0  0  0  0  0999 V2000
  -29.5565  -31.6391   26.3469 C   0  0  0  0  0  0  0  0  0  0  0  0
  -29.2863  -30.5906   25.4734 C   0  0  0  0  0  0  0  0  0  0  0  0
  -22.6326  -11.4523   22.2961 C   0  0  0  0  0  0  0  0  0  0  0  0
  -22.4167  -13.6961   21.4266 C   0  0  0  0  0  0  0  0  0  0  0  0
  -28.5067  -32.3561   26.9195 C   0  0  0  0  0  0  0  0  0  0  0  0
  -27.9660  -30.2577   25.1728 C   0  0  0  0  0  0  0  0  0  0  0  0
  -27.2423  -29.4587   20.2248 C   0  0  0  0  0  0  0  0  0  0  0  0
  -28.9193  -20.7921   18.5132 C   0  0  0  0  0  0  0  0  0  0  0  0
  -29.0680  -19.4987   19.0139 C   0  0  0  0  0  0  0  0  0  0  0  0
  -21.3931  -11.5762   22.9236 C   0  0  0  0  0  0  0  0  0  0  0  0
  -21.1771  -13.8200   22.0541 C   0  0  0  0  0  0  0  0  0  0  0  0
  -27.6610  -28.2326   19.7099 C   0  0  0  0  0  0  0  0  0  0  0  0
  -17.9966  -12.8200   21.5018 C   0  0  0  0  0  0  0  0  0  0  0  0
  -16.9507  -13.3735   20.7635 C   0  0  0  0  0  0  0  0  0  0  0  0
  -25.3887  -27.4275   19.7952 C   0  0  0  0  0  0  0  0  0  0  0  0
  -27.0828  -20.0462   17.1319 C   0  0  0  0  0  0  0  0  0  0  0  0
  -16.7445  -15.1503   22.3877 C   0  0  0  0  0  0  0  0  0  0  0  0
  -23.1445  -12.5123   21.5477 C   0  0  0  0  0  0  0  0  0  0  0  0
  -24.7944  -11.4390   19.9249 C   0  0  0  0  0  0  0  0  0  0  0  0
  -27.1730  -32.0380   26.6183 C   0  0  0  0  0  0  0  0  0  0  0  0
  -25.8930  -29.6750   20.5395 C   0  0  0  0  0  0  0  0  0  0  0  0
  -26.8973  -30.9702   25.7429 C   0  0  0  0  0  0  0  0  0  0  0  0
  -24.9549  -28.6580   20.3116 C   0  0  0  0  0  0  0  0  0  0  0  0
  -27.2316  -18.7528   17.6325 C   0  0  0  0  0  0  0  0  0  0  0  0
  -27.9266  -21.0659   17.5723 C   0  0  0  0  0  0  0  0  0  0  0  0
  -28.2242  -18.4791   18.5735 C   0  0  0  0  0  0  0  0  0  0  0  0
  -20.6653  -12.7600   22.8026 C   0  0  0  0  0  0  0  0  0  0  0  0
  -26.7347  -27.2158   19.4977 C   0  0  0  0  0  0  0  0  0  0  0  0
  -18.4165  -13.4315   22.6831 C   0  0  0  0  0  0  0  0  0  0  0  0
  -16.3246  -14.5387   21.2064 C   0  0  0  0  0  0  0  0  0  0  0  0
  -17.7905  -14.5966   23.1260 C   0  0  0  0  0  0  0  0  0  0  0  0
  -24.4251  -12.3851   20.8997 C   0  0  0  0  0  0  0  0  0  0  0  0
  -26.1031  -11.7383   19.6344 C   0  0  0  0  0  0  0  0  0  0  0  0
  -28.1136  -23.2052   14.7262 C   0  0  0  0  0  0  0  0  0  0  0  0
  -28.1074  -23.5170   17.8626 C   0  0  0  0  0  0  0  0  0  0  0  0
  -24.0234  -10.3841   19.3346 C   0  0  0  0  0  0  0  0  0  0  0  0
  -24.2895  -30.3401   23.2023 C   0  0  0  0  0  0  0  0  0  0  0  0
  -21.7852  -30.6230   21.1600 C   0  0  0  0  0  0  0  0  0  0  0  0
  -20.5257  -28.8568   18.2771 C   0  0  0  0  0  0  0  0  0  0  0  0
  -29.3304  -16.7511   20.0354 C   0  0  0  0  0  0  0  0  0  0  0  0
  -26.0710  -32.8110   27.2985 C   0  0  0  0  0  0  0  0  0  0  0  0
  -25.4531  -31.0123   21.0692 C   0  0  0  0  0  0  0  0  0  0  0  0
  -23.4916  -28.8467   20.6140 C   0  0  0  0  0  0  0  0  0  0  0  0
  -29.4510  -23.7103   15.2120 C   0  0  0  0  0  0  0  0  0  0  0  0
  -27.1559  -22.5838   15.7316 C   0  0  0  0  0  0  0  0  0  0  0  0
  -24.7065  -32.6364   26.6366 C   0  0  0  0  0  0  0  0  0  0  0  0
  -29.3051  -24.9256   16.1213 C   0  0  0  0  0  0  0  0  0  0  0  0
  -30.0369  -13.6327   21.6016 C   0  0  0  0  0  0  0  0  0  0  0  0
  -24.4387  -31.1632   26.3459 C   0  0  0  0  0  0  0  0  0  0  0  0
  -28.7134  -12.8704   21.5052 C   0  0  0  0  0  0  0  0  0  0  0  0
  -29.8159  -15.1238   21.8495 C   0  0  0  0  0  0  0  0  0  0  0  0
  -27.5881  -15.0216   20.8027 C   0  0  0  0  0  0  0  0  0  0  0  0
  -25.4788  -30.5949   25.3729 C   0  0  1  0  0  0  0  0  0  0  0  0
  -28.1482  -24.8671   17.1335 C   0  0  2  0  0  0  0  0  0  0  0  0
  -24.1361  -30.9473   21.8364 C   0  0  1  0  0  0  0  0  0  0  0  0
  -27.7582  -13.5262   20.4888 C   0  0  2  0  0  0  0  0  0  0  0  0
  -26.9836  -16.7627   16.1277 C   0  0  0  0  0  0  0  0  0  0  0  0
  -19.1421  -29.6638   16.3453 C   0  0  0  0  0  0  0  0  0  0  0  0
  -19.4194  -29.6495   22.8229 C   0  0  0  0  0  0  0  0  0  0  0  0
  -18.3515  -28.8459   20.7058 C   0  0  0  0  0  0  0  0  0  0  0  0
  -18.8267  -31.2749   21.0171 C   0  0  0  0  0  0  0  0  0  0  0  0
  -22.5079  -27.8902   16.3033 C   0  0  0  0  0  0  0  0  0  0  0  0
  -26.3125  -17.6803   17.1448 C   0  0  0  0  0  0  0  0  0  0  0  0
  -28.2715  -26.0281   18.1253 C   0  0  0  0  0  0  0  0  0  1  0  0
  -20.7445  -29.6794   20.6073 C   0  0  1  0  0  0  0  0  0  0  0  0
  -20.5436  -29.3377   16.8373 C   0  0  2  0  0  0  0  0  0  0  0  0
  -19.3614  -29.8533   21.2958 C   0  0  0  0  0  0  0  0  0  0  0  0
  -25.4189  -13.2226   21.2080 N   0  0  0  0  0  0  0  0  0  0  0  0
  -26.4256  -12.8037   20.4224 N   0  0  0  0  0  0  0  0  0  0  0  0
  -27.7711  -22.4043   17.0567 N   0  0  0  0  0  0  0  0  0  0  0  0
  -23.1118  -30.1698   21.1361 N   0  0  0  0  0  0  0  0  0  0  0  0
  -28.9044  -15.6777   20.8459 N   0  0  0  0  0  0  0  0  0  0  0  0
  -26.9979  -11.1913   18.7843 N   0  0  0  0  0  0  0  0  0  0  0  0
  -23.2914  -10.6615   18.1721 N   0  0  0  0  0  0  0  0  0  0  0  0
  -28.3903  -17.1722   19.0954 N   0  0  0  0  0  0  0  0  0  0  0  0
  -25.1824  -31.0085   24.0180 N   0  0  0  0  0  0  0  0  0  0  0  0
  -20.7248  -29.8933   19.1643 N   0  0  0  0  0  0  0  0  0  0  0  0
  -21.1219  -28.2905   15.9486 N   0  3  0  0  0  0  0  0  0  0  0  0
  -27.7824  -23.3317   13.5455 O   0  0  0  0  0  0  0  0  0  0  0  0
  -28.3585  -23.4576   19.0688 O   0  0  0  0  0  0  0  0  0  0  0  0
  -23.9718   -9.2341   19.8329 O   0  0  0  0  0  0  0  0  0  0  0  0
  -23.6443  -29.3402   23.4949 O   0  0  0  0  0  0  0  0  0  0  0  0
  -21.4348  -31.7247   21.5904 O   0  0  0  0  0  0  0  0  0  0  0  0
  -20.3489  -27.6799   18.5841 O   0  0  0  0  0  0  0  0  0  0  0  0
  -30.4569  -17.2415   20.1472 O   0  0  0  0  0  0  0  0  0  0  0  0
  -19.4556  -12.8811   23.4146 O   0  0  0  0  0  0  0  0  0  0  0  0
  -27.1409  -26.0179   18.9959 O   0  0  0  0  0  0  0  0  0  1  0  0
  -15.3212  -15.0710   20.4965 F   0  0  0  0  0  0  0  0  0  0  0  0
  -18.1903  -15.1893   24.2595 F   0  0  0  0  0  0  0  0  0  0  0  0
  1  2  1  0  0  0  0
  1  5  2  0  0  0  0
  2  6  2  0  0  0  0
  3 10  2  0  0  0  0
  3 18  1  0  0  0  0
  4 11  1  0  0  0  0
  4 18  2  0  0  0  0
  5 20  1  0  0  0  0
  6 22  1  0  0  0  0
  7 12  2  0  0  0  0
  7 21  1  0  0  0  0
  8  9  2  0  0  0  0
  8 25  1  0  0  0  0
  9 26  1  0  0  0  0
 10 27  1  0  0  0  0
 11 27  2  0  0  0  0
 12 28  1  0  0  0  0
 13 14  2  0  0  0  0
 13 29  1  0  0  0  0
 14 30  1  0  0  0  0
 15 23  1  0  0  0  0
 15 28  2  0  0  0  0
 16 24  1  0  0  0  0
 16 25  2  0  0  0  0
 17 30  2  0  0  0  0
 17 31  1  0  0  0  0
 18 32  1  0  0  0  0
 19 32  1  0  0  0  0
 19 33  2  0  0  0  0
 19 36  1  0  0  0  0
 20 22  2  0  0  0  0
 20 41  1  0  0  0  0
 21 23  2  0  0  0  0
 21 42  1  0  0  0  0
 22 53  1  0  0  0  0
 23 43  1  0  0  0  0
 24 26  2  0  0  0  0
 24 63  1  0  0  0  0
 25 70  1  0  0  0  0
 26 75  1  0  0  0  0
 27 86  1  0  0  0  0
 28 87  1  0  0  0  0
 29 31  2  0  0  0  0
 29 86  1  0  0  0  0
 30 88  1  0  0  0  0
 31 89  1  0  0  0  0
 32 68  2  0  0  0  0
 33 69  1  0  0  0  0
 33 73  1  0  0  0  0
 34 44  1  0  0  0  0
 34 45  1  0  0  0  0
 34 79  2  0  0  0  0
 35 54  1  0  0  0  0
 35 70  1  0  0  0  0
 35 80  2  0  0  0  0
 36 74  1  0  0  0  0
 36 81  2  0  0  0  0
 37 55  1  0  0  0  0
 37 76  1  0  0  0  0
 37 82  2  0  0  0  0
 38 65  1  0  0  0  0
 38 71  1  0  0  0  0
 38 83  2  0  0  0  0
 39 66  1  0  0  0  0
 39 77  1  0  0  0  0
 39 84  2  0  0  0  0
 40 72  1  0  0  0  0
 40 75  1  0  0  0  0
 40 85  2  0  0  0  0
 41 46  1  0  0  0  0
 42 55  1  0  0  0  0
 43 71  1  0  0  0  0
 44 47  1  0  0  0  0
 45 70  1  0  0  0  0
 46 49  1  0  0  0  0
 47 54  1  0  0  0  0
 48 50  1  0  0  0  0
 48 51  1  0  0  0  0
 49 53  1  0  0  0  0
 50 56  1  0  0  0  0
 51 72  1  0  0  0  0
 52 56  1  0  0  0  0
 52 72  1  0  0  0  0
 53 76  1  0  0  0  0
 54 64  1  0  0  0  0
 55 71  1  0  0  0  0
 56 69  1  0  0  0  0
 57 63  1  0  0  0  0
 58 66  1  0  0  0  0
 59 67  1  0  0  0  0
 60 67  1  0  0  0  0
 61 67  1  0  0  0  0
 62 78  1  0  0  0  0
 64 87  1  0  0  0  0
 65 67  1  0  0  0  0
 65 77  1  0  0  0  0
 66 78  1  0  0  0  0
 68 69  1  0  0  0  0
M  CHG  1  78   1
M  ISO  4  40 100  64 101  75 100  87 101
M  END
> <Batch ID>
0105

> <Smiles>
CCc1cc(N2CC(=O)CCC([101CH2:1][101O:1]c3ccc4c(c3)CN(C(=O)C(NC(=O)C(C)NC)C(C)(C)C)C(C(=O)NC3CCCc5ccccc53)C4)C2=O)ccc1[100NH:0][100C:0](=O)N1CCCC(n2nc(-c3ccc(Oc4ccc(F)cc4F)cc3)c(C(N)=O)c2N)C1

> <Shape>
0.265

> <Color>
0.089

> <Negative vol penalty>
0.000

$$$$

  -OEChem-04052301113D

 86 95  0     1  0  0  0  0  0999 V2000
  -25.2510  -38.1211   23.3017 C   0  0  0  0  0  0  0  0  0  0  0  0
  -26.0266  -37.3421   22.4490 C   0  0  0  0  0  0  0  0  0  0  0  0
  -21.9449  -11.4611   21.1801 C   0  0  0  0  0  0  0  0  0  0  0  0
  -24.1067  -12.3607   20.5848 C   0  0  0  0  0  0  0  0  0  0  0  0
  -27.5144  -21.4544   17.9891 C   0  0  0  0  0  0  0  0  0  0  0  0
  -24.5857  -37.5281   24.3739 C   0  0  0  0  0  0  0  0  0  0  0  0
  -26.1381  -35.9696   22.6687 C   0  0  0  0  0  0  0  0  0  0  0  0
  -26.8841  -29.7904   19.1222 C   0  0  0  0  0  0  0  0  0  0  0  0
  -26.2484  -20.9671   18.3136 C   0  0  0  0  0  0  0  0  0  0  0  0
  -22.3535  -10.1973   20.7540 C   0  0  0  0  0  0  0  0  0  0  0  0
  -24.5153  -11.0969   20.1587 C   0  0  0  0  0  0  0  0  0  0  0  0
  -27.6914  -28.6540   19.0965 C   0  0  0  0  0  0  0  0  0  0  0  0
  -24.2396   -7.6562   21.9449 C   0  0  0  0  0  0  0  0  0  0  0  0
  -23.9442   -6.5683   22.7664 C   0  0  0  0  0  0  0  0  0  0  0  0
  -26.4335  -27.7262   20.9338 C   0  0  0  0  0  0  0  0  0  0  0  0
  -27.2136  -19.6411   20.0876 C   0  0  0  0  0  0  0  0  0  0  0  0
  -22.6556   -5.5712   20.9824 C   0  0  0  0  0  0  0  0  0  0  0  0
  -22.8215  -12.5428   21.0955 C   0  0  0  0  0  0  0  0  0  0  0  0
  -28.6301  -21.0350   18.7138 C   0  0  0  0  0  0  0  0  0  0  0  0
  -21.9762  -14.2152   22.8264 C   0  0  0  0  0  0  0  0  0  0  0  0
  -24.6814  -36.1462   24.6012 C   0  0  0  0  0  0  0  0  0  0  0  0
  -25.8506  -29.9082   20.0627 C   0  0  0  0  0  0  0  0  0  0  0  0
  -25.4745  -35.3577   23.7458 C   0  0  0  0  0  0  0  0  0  0  0  0
  -25.6129  -28.8639   20.9677 C   0  0  0  0  0  0  0  0  0  0  0  0
  -26.0980  -20.0604   19.3629 C   0  0  0  0  0  0  0  0  0  0  0  0
  -23.6386  -10.0152   20.2434 C   0  0  0  0  0  0  0  0  0  0  0  0
  -27.4680  -27.6229   20.0042 C   0  0  0  0  0  0  0  0  0  0  0  0
  -23.7429   -7.7017   20.6423 C   0  0  0  0  0  0  0  0  0  0  0  0
  -23.1522   -5.5258   22.2851 C   0  0  0  0  0  0  0  0  0  0  0  0
  -28.4796  -20.1284   19.7631 C   0  0  0  0  0  0  0  0  0  0  0  0
  -22.9510   -6.6592   20.1610 C   0  0  0  0  0  0  0  0  0  0  0  0
  -22.3999  -13.8487   21.5350 C   0  0  0  0  0  0  0  0  0  0  0  0
  -21.6880  -15.5544   22.7261 C   0  0  0  0  0  0  0  0  0  0  0  0
  -29.9640  -21.5497   18.3661 C   0  0  0  0  0  0  0  0  0  0  0  0
  -21.8542  -13.4166   24.0110 C   0  0  0  0  0  0  0  0  0  0  0  0
  -25.2037  -31.9096   22.4458 C   0  0  0  0  0  0  0  0  0  0  0  0
  -22.4274  -30.2372   22.5788 C   0  0  0  0  0  0  0  0  0  0  0  0
  -20.7587  -27.3351   21.9152 C   0  0  0  0  0  0  0  0  0  0  0  0
  -23.6019  -19.8794   19.0742 C   0  0  0  0  0  0  0  0  0  0  0  0
  -23.9822  -35.5577   25.8010 C   0  0  0  0  0  0  0  0  0  0  0  0
  -24.9717  -31.1288   20.0599 C   0  0  0  0  0  0  0  0  0  0  0  0
  -24.5034  -28.9326   21.9840 C   0  0  0  0  0  0  0  0  0  0  0  0
  -23.8500  -34.0380   25.7442 C   0  0  0  0  0  0  0  0  0  0  0  0
  -20.2308  -18.8447   19.5662 C   0  0  0  0  0  0  0  0  0  0  0  0
  -25.1749  -33.4017   25.3363 C   0  0  0  0  0  0  0  0  0  0  0  0
  -20.3659  -17.4822   20.2500 C   0  0  0  0  0  0  0  0  0  0  0  0
  -31.1929  -25.0192   18.1320 C   0  0  0  0  0  0  0  0  0  0  0  0
  -21.3211  -19.0642   18.5189 C   0  0  0  0  0  0  0  0  0  0  0  0
  -31.4506  -23.5203   18.1288 C   0  0  0  0  0  0  0  0  0  0  0  0
  -29.2055  -23.9303   18.8890 C   0  0  0  0  0  0  0  0  0  0  0  0
  -22.8290  -17.5033   19.6846 C   0  0  0  0  0  0  0  0  0  0  0  0
  -25.6002  -33.8618   23.9367 C   0  0  1  0  0  0  0  0  0  0  0  0
  -24.2755  -31.3667   21.3964 C   0  0  1  0  0  0  0  0  0  0  0  0
  -30.0593  -25.1701   19.1491 C   0  0  2  0  0  0  0  0  0  0  0  0
  -21.7915  -17.2633   20.7935 C   0  0  2  0  0  0  0  0  0  0  0  0
  -18.5094  -26.2529   22.1736 C   0  0  0  0  0  0  0  0  0  0  0  0
  -22.9905  -29.7799   25.5426 C   0  0  0  0  0  0  0  0  0  0  0  0
  -21.2762  -27.9555   25.5154 C   0  0  0  0  0  0  0  0  0  0  0  0
  -20.6053  -30.3027   25.0024 C   0  0  0  0  0  0  0  0  0  0  0  0
  -20.4378  -27.0353   18.9885 C   0  0  0  0  0  0  0  0  0  0  0  0
  -29.2911  -26.4711   19.0014 C   0  0  0  0  0  0  0  0  0  1  0  0
  -21.9575  -29.0017   23.3081 C   0  0  1  0  0  0  0  0  0  0  0  0
  -19.4119  -27.0736   21.2655 C   0  0  2  0  0  0  0  0  0  0  0  0
  -21.7296  -29.2592   24.8244 C   0  0  0  0  0  0  0  0  0  0  0  0
  -22.3837  -14.8722   20.6771 N   0  0  0  0  0  0  0  0  0  0  0  0
  -21.9462  -15.8952   21.4309 N   0  0  0  0  0  0  0  0  0  0  0  0
  -30.1622  -22.9198   18.4409 N   0  0  0  0  0  0  0  0  0  0  0  0
  -23.6753  -30.1492   21.9457 N   0  0  0  0  0  0  0  0  0  0  0  0
  -22.6443  -18.8437   19.1067 N   0  0  0  0  0  0  0  0  0  0  0  0
  -21.2414  -16.4619   23.6202 N   0  0  0  0  0  0  0  0  0  0  0  0
  -22.1921  -12.0584   23.9388 N   0  0  0  0  0  0  0  0  0  0  0  0
  -24.8118  -19.5655   19.6924 N   0  0  0  0  0  0  0  0  0  0  0  0
  -24.8465  -33.1566   22.9222 N   0  0  0  0  0  0  0  0  0  0  0  0
  -20.7728  -28.5337   22.5968 N   0  0  0  0  0  0  0  0  0  0  0  0
  -19.5898  -26.3320   19.9851 N   0  3  0  0  0  0  0  0  0  0  0  0
  -30.8193  -20.7283   18.0415 O   0  0  0  0  0  0  0  0  0  0  0  0
  -21.4416  -13.8897   25.0970 O   0  0  0  0  0  0  0  0  0  0  0  0
  -26.1714  -31.2456   22.7984 O   0  0  0  0  0  0  0  0  0  0  0  0
  -21.7104  -31.2408   22.5653 O   0  0  0  0  0  0  0  0  0  0  0  0
  -21.7026  -26.5525   21.8301 O   0  0  0  0  0  0  0  0  0  0  0  0
  -23.3566  -20.9743   18.5614 O   0  0  0  0  0  0  0  0  0  0  0  0
  -24.0377   -8.7821   19.8277 O   0  0  0  0  0  0  0  0  0  0  0  0
  -28.2549  -26.5129   19.9817 O   0  0  0  0  0  0  0  0  0  1  0  0
  -22.8699   -4.4804   23.0736 F   0  0  0  0  0  0  0  0  0  0  0  0
  -29.5449  -19.7180   20.4662 F   0  0  0  0  0  0  0  0  0  0  0  0
  -22.4720   -6.6967   18.9100 F   0  0  0  0  0  0  0  0  0  0  0  0
  1  2  1  0  0  0  0
  1  6  2  0  0  0  0
  2  7  2  0  0  0  0
  3 10  2  0  0  0  0
  3 18  1  0  0  0  0
  4 11  1  0  0  0  0
  4 18  2  0  0  0  0
  5  9  2  0  0  0  0
  5 19  1  0  0  0  0
  6 21  1  0  0  0  0
  7 23  1  0  0  0  0
  8 12  2  0  0  0  0
  8 22  1  0  0  0  0
  9 25  1  0  0  0  0
 10 26  1  0  0  0  0
 11 26  2  0  0  0  0
 12 27  1  0  0  0  0
 13 14  2  0  0  0  0
 13 28  1  0  0  0  0
 14 29  1  0  0  0  0
 15 24  1  0  0  0  0
 15 27  2  0  0  0  0
 16 25  2  0  0  0  0
 16 30  1  0  0  0  0
 17 29  2  0  0  0  0
 17 31  1  0  0  0  0
 18 32  1  0  0  0  0
 19 30  2  0  0  0  0
 19 34  1  0  0  0  0
 20 32  1  0  0  0  0
 20 33  2  0  0  0  0
 20 35  1  0  0  0  0
 21 23  2  0  0  0  0
 21 40  1  0  0  0  0
 22 24  2  0  0  0  0
 22 41  1  0  0  0  0
 23 52  1  0  0  0  0
 24 42  1  0  0  0  0
 25 72  1  0  0  0  0
 26 82  1  0  0  0  0
 27 83  1  0  0  0  0
 28 31  2  0  0  0  0
 28 82  1  0  0  0  0
 29 84  1  0  0  0  0
 30 85  1  0  0  0  0
 31 86  1  0  0  0  0
 32 65  2  0  0  0  0
 33 66  1  0  0  0  0
 33 70  1  0  0  0  0
 34 67  1  0  0  0  0
 34 76  2  0  0  0  0
 35 71  1  0  0  0  0
 35 77  2  0  0  0  0
 36 53  1  0  0  0  0
 36 73  1  0  0  0  0
 36 78  2  0  0  0  0
 37 62  1  0  0  0  0
 37 68  1  0  0  0  0
 37 79  2  0  0  0  0
 38 63  1  0  0  0  0
 38 74  1  0  0  0  0
 38 80  2  0  0  0  0
 39 69  1  0  0  0  0
 39 72  1  0  0  0  0
 39 81  2  0  0  0  0
 40 43  1  0  0  0  0
 41 53  1  0  0  0  0
 42 68  1  0  0  0  0
 43 45  1  0  0  0  0
 44 46  1  0  0  0  0
 44 48  1  0  0  0  0
 45 52  1  0  0  0  0
 46 55  1  0  0  0  0
 47 49  1  0  0  0  0
 47 54  1  0  0  0  0
 48 69  1  0  0  0  0
 49 67  1  0  0  0  0
 50 54  1  0  0  0  0
 50 67  1  0  0  0  0
 51 55  1  0  0  0  0
 51 69  1  0  0  0  0
 52 73  1  0  0  0  0
 53 68  1  0  0  0  0
 54 61  1  0  0  0  0
 55 66  1  0  0  0  0
 56 63  1  0  0  0  0
 57 64  1  0  0  0  0
 58 64  1  0  0  0  0
 59 64  1  0  0  0  0
 60 75  1  0  0  0  0
 61 83  1  0  0  0  0
 62 64  1  0  0  0  0
 62 74  1  0  0  0  0
 63 75  1  0  0  0  0
 65 66  1  0  0  0  0
M  CHG  1  75   1
M  ISO  4  39 100  61 101  72 100  83 101
M  END
> <Batch ID>
0105

> <Smiles>
CNC(C)C(=O)NC(C(=O)N1Cc2cc([101O:1][101CH2:1]C3CCN(C(=O)c4ccc([100NH:0][100C:0](=O)N5CCCC(n6nc(-c7ccc(Oc8ccc(F)cc8F)cc7)c(C(N)=O)c6N)C5)cc4F)C3)ccc2CC1C(=O)NC1CCCc2ccccc21)C(C)(C)C

> <Shape>
0.298

> <Color>
0.072

> <Negative vol penalty>
0.000

$$$$

  -OEChem-04052301113D

 78 85  0     1  0  0  0  0  0999 V2000
  -25.3841  -18.6681   24.5621 C   0  0  0  0  0  0  0  0  0  0  0  0
  -25.8552  -19.5922   23.6351 C   0  0  0  0  0  0  0  0  0  0  0  0
  -25.3135  -13.3915   19.4728 C   0  0  0  0  0  0  0  0  0  0  0  0
  -26.0585  -14.1030   21.6582 C   0  0  0  0  0  0  0  0  0  0  0  0
  -24.0437  -18.6881   24.9454 C   0  0  0  0  0  0  0  0  0  0  0  0
  -24.9859  -20.5364   23.0899 C   0  0  0  0  0  0  0  0  0  0  0  0
  -26.9944  -25.1835   22.9663 C   0  0  0  0  0  0  0  0  0  0  0  0
  -25.1783  -12.0856   19.9440 C   0  0  0  0  0  0  0  0  0  0  0  0
  -25.9232  -12.7971   22.1295 C   0  0  0  0  0  0  0  0  0  0  0  0
  -27.9123  -25.4537   21.9522 C   0  0  0  0  0  0  0  0  0  0  0  0
  -24.2920   -8.6348   20.6662 C   0  0  0  0  0  0  0  0  0  0  0  0
  -23.1343   -7.9376   20.3213 C   0  0  0  0  0  0  0  0  0  0  0  0
  -26.1833  -26.5689   20.6928 C   0  0  0  0  0  0  0  0  0  0  0  0
  -21.7938   -9.6163   21.4268 C   0  0  0  0  0  0  0  0  0  0  0  0
  -25.7537  -14.4002   20.3299 C   0  0  0  0  0  0  0  0  0  0  0  0
  -24.9151  -16.7607   19.8482 C   0  0  0  0  0  0  0  0  0  0  0  0
  -23.1597  -19.6392   24.4119 C   0  0  0  0  0  0  0  0  0  0  0  0
  -25.6593  -25.5952   22.8462 C   0  0  0  0  0  0  0  0  0  0  0  0
  -23.6321  -20.5684   23.4654 C   0  0  0  0  0  0  0  0  0  0  0  0
  -25.2511  -26.3050   21.7079 C   0  0  0  0  0  0  0  0  0  0  0  0
  -25.4831  -11.7884   21.2723 C   0  0  0  0  0  0  0  0  0  0  0  0
  -27.5061  -26.1439   20.8140 C   0  0  0  0  0  0  0  0  0  0  0  0
  -24.2007   -9.8228   21.3915 C   0  0  0  0  0  0  0  0  0  0  0  0
  -21.8852   -8.4283   20.7015 C   0  0  0  0  0  0  0  0  0  0  0  0
  -22.9516  -10.3136   21.7718 C   0  0  0  0  0  0  0  0  0  0  0  0
  -25.8941  -15.7492   19.8436 C   0  0  0  0  0  0  0  0  0  0  0  0
  -25.5396  -17.8456   19.2830 C   0  0  0  0  0  0  0  0  0  0  0  0
  -23.5621  -16.7231   20.3211 C   0  0  0  0  0  0  0  0  0  0  0  0
  -22.8543  -24.1046   22.7286 C   0  0  0  0  0  0  0  0  0  0  0  0
  -29.9218  -21.1607   18.9914 C   0  0  0  0  0  0  0  0  0  0  0  0
  -21.6838  -27.1287   22.8142 C   0  0  0  0  0  0  0  0  0  0  0  0
  -31.1383  -23.3523   18.6375 C   0  0  0  0  0  0  0  0  0  0  0  0
  -29.9035  -25.4414   18.1847 C   0  0  0  0  0  0  0  0  0  0  0  0
  -22.1931  -30.4504   22.2197 C   0  0  0  0  0  0  0  0  0  0  0  0
  -21.7088  -19.5916   24.8211 C   0  0  0  0  0  0  0  0  0  0  0  0
  -24.6879  -25.3193   23.9609 C   0  0  0  0  0  0  0  0  0  0  0  0
  -23.8340  -26.7865   21.5395 C   0  0  0  0  0  0  0  0  0  0  0  0
  -20.9372  -20.8633   24.4779 C   0  0  0  0  0  0  0  0  0  0  0  0
  -29.9497  -18.2207   16.8507 C   0  0  0  0  0  0  0  0  0  0  0  0
  -21.2372  -21.3001   23.0475 C   0  0  0  0  0  0  0  0  0  0  0  0
  -28.8283  -17.3843   17.4654 C   0  0  0  0  0  0  0  0  0  0  0  0
  -30.7176  -18.9994   17.9157 C   0  0  0  0  0  0  0  0  0  0  0  0
  -28.7284  -19.0299   19.3877 C   0  0  0  0  0  0  0  0  0  0  0  0
  -22.7256  -21.6239   22.8702 C   0  0  1  0  0  0  0  0  0  0  0  0
  -23.2327  -25.3354   23.5030 C   0  0  1  0  0  0  0  0  0  0  0  0
  -27.9100  -18.2526   18.3433 C   0  0  2  0  0  0  0  0  0  0  0  0
  -21.0394  -32.6750   22.3525 C   0  0  0  0  0  0  0  0  0  0  0  0
  -20.0885  -26.4485   20.3038 C   0  0  0  0  0  0  0  0  0  0  0  0
  -19.7294  -28.9011   19.9517 C   0  0  0  0  0  0  0  0  0  0  0  0
  -18.8384  -27.7935   22.0016 C   0  0  0  0  0  0  0  0  0  0  0  0
  -30.3002  -23.8382   16.3242 C   0  0  0  0  0  0  0  0  0  0  0  0
  -24.1825  -31.4977   24.1444 C   0  0  0  0  0  0  0  0  0  0  0  0
  -31.0823  -21.8670   18.3370 C   0  0  0  0  0  0  0  0  0  0  0  0
  -29.4667  -25.4776   19.6443 C   0  0  0  0  0  0  0  0  0  1  0  0
  -21.3288  -28.1674   21.7778 C   0  0  1  0  0  0  0  0  0  0  0  0
  -21.9330  -31.6781   23.0739 C   0  0  2  0  0  0  0  0  0  0  0  0
  -20.0226  -27.8170   21.0107 C   0  0  0  0  0  0  0  0  0  0  0  0
  -27.0526  -16.1552   19.3171 N   0  0  0  0  0  0  0  0  0  0  0  0
  -26.8054  -17.4339   18.9855 N   0  0  0  0  0  0  0  0  0  0  0  0
  -22.9200  -26.4869   22.6541 N   0  0  0  0  0  0  0  0  0  0  0  0
  -29.8047  -19.7920   18.7480 N   0  0  0  0  0  0  0  0  0  0  0  0
  -25.1241  -19.1021   19.0164 N   0  0  0  0  0  0  0  0  0  0  0  0
  -23.0804  -15.5285   20.8735 N   0  0  0  0  0  0  0  0  0  0  0  0
  -23.0295  -22.9249   23.4265 N   0  0  0  0  0  0  0  0  0  0  0  0
  -21.2851  -29.4458   22.4794 N   0  0  0  0  0  0  0  0  0  0  0  0
  -30.4526  -24.2098   17.7348 N   0  0  0  0  0  0  0  0  0  0  0  0
  -23.2167  -32.3559   23.4112 N   0  3  0  0  0  0  0  0  0  0  0  0
  -22.7977  -17.7145   20.2409 O   0  0  0  0  0  0  0  0  0  0  0  0
  -22.4330  -24.2171   21.5834 O   0  0  0  0  0  0  0  0  0  0  0  0
  -29.1423  -21.8082   19.6951 O   0  0  0  0  0  0  0  0  0  0  0  0
  -20.8964  -26.9004   23.7359 O   0  0  0  0  0  0  0  0  0  0  0  0
  -31.7655  -23.7524   19.6229 O   0  0  0  0  0  0  0  0  0  0  0  0
  -29.7738  -26.4533   17.4931 O   0  0  0  0  0  0  0  0  0  0  0  0
  -23.1078  -30.3902   21.4010 O   0  0  0  0  0  0  0  0  0  0  0  0
  -25.3510  -10.5143   21.7326 O   0  0  0  0  0  0  0  0  0  0  0  0
  -28.3998  -26.4084   19.8224 O   0  0  0  0  0  0  0  0  0  1  0  0
  -20.7734   -7.7594   20.3689 F   0  0  0  0  0  0  0  0  0  0  0  0
  -22.8575  -11.4550   22.4676 F   0  0  0  0  0  0  0  0  0  0  0  0
  1  2  1  0  0  0  0
  1  5  2  0  0  0  0
  2  6  2  0  0  0  0
  3  8  2  0  0  0  0
  3 15  1  0  0  0  0
  4  9  1  0  0  0  0
  4 15  2  0  0  0  0
  5 17  1  0  0  0  0
  6 19  1  0  0  0  0
  7 10  2  0  0  0  0
  7 18  1  0  0  0  0
  8 21  1  0  0  0  0
  9 21  2  0  0  0  0
 10 22  1  0  0  0  0
 11 12  2  0  0  0  0
 11 23  1  0  0  0  0
 12 24  1  0  0  0  0
 13 20  1  0  0  0  0
 13 22  2  0  0  0  0
 14 24  2  0  0  0  0
 14 25  1  0  0  0  0
 15 26  1  0  0  0  0
 16 26  1  0  0  0  0
 16 27  2  0  0  0  0
 16 28  1  0  0  0  0
 17 19  2  0  0  0  0
 17 35  1  0  0  0  0
 18 20  2  0  0  0  0
 18 36  1  0  0  0  0
 19 44  1  0  0  0  0
 20 37  1  0  0  0  0
 21 75  1  0  0  0  0
 22 76  1  0  0  0  0
 23 25  2  0  0  0  0
 23 75  1  0  0  0  0
 24 77  1  0  0  0  0
 25 78  1  0  0  0  0
 26 58  2  0  0  0  0
 27 59  1  0  0  0  0
 27 62  1  0  0  0  0
 28 63  1  0  0  0  0
 28 68  2  0  0  0  0
 29 45  1  0  0  0  0
 29 64  1  0  0  0  0
 29 69  2  0  0  0  0
 30 53  1  0  0  0  0
 30 61  1  0  0  0  0
 30 70  2  0  0  0  0
 31 55  1  0  0  0  0
 31 60  1  0  0  0  0
 31 71  2  0  0  0  0
 32 53  1  0  0  0  0
 32 66  1  0  0  0  0
 32 72  2  0  0  0  0
 33 54  1  0  0  0  0
 33 66  1  0  0  0  0
 33 73  2  0  0  0  0
 34 56  1  0  0  0  0
 34 65  1  0  0  0  0
 34 74  2  0  0  0  0
 35 38  1  0  0  0  0
 36 45  1  0  0  0  0
 37 60  1  0  0  0  0
 38 40  1  0  0  0  0
 39 41  1  0  0  0  0
 39 42  1  0  0  0  0
 40 44  1  0  0  0  0
 41 46  1  0  0  0  0
 42 61  1  0  0  0  0
 43 46  1  0  0  0  0
 43 61  1  0  0  0  0
 44 64  1  0  0  0  0
 45 60  1  0  0  0  0
 46 59  1  0  0  0  0
 47 56  1  0  0  0  0
 48 57  1  0  0  0  0
 49 57  1  0  0  0  0
 50 57  1  0  0  0  0
 51 66  1  0  0  0  0
 52 67  1  0  0  0  0
 54 76  1  0  0  0  0
 55 57  1  0  0  0  0
 55 65  1  0  0  0  0
 56 67  1  0  0  0  0
 58 59  1  0  0  0  0
M  CHG  1  67   1
M  ISO  4  30 100  53 100  54 101  76 101
M  END
> <Batch ID>
0105

> <Smiles>
CNC(C)C(=O)NC(C(=O)N1Cc2cc([101O:1][101CH2:1]C(=O)N(C)C(=O)[100CH2:0][100C:0](=O)N3CCCC(n4nc(-c5ccc(Oc6ccc(F)cc6F)cc5)c(C(N)=O)c4N)C3)ccc2CC1C(=O)NC1CCCc2ccccc21)C(C)(C)C

> <Shape>
0.211

> <Color>
0.075

> <Negative vol penalty>
0.000

$$$$

  -OEChem-04052301113D

 86 94  0     1  0  0  0  0  0999 V2000
  -30.3013  -24.9320   18.2608 C   0  0  0  0  0  0  0  0  0  0  0  0
  -28.9121  -25.0030   18.2860 C   0  0  0  0  0  0  0  0  0  0  0  0
  -26.1800  -13.5005   18.5009 C   0  0  0  0  0  0  0  0  0  0  0  0
  -24.3989  -14.0512   20.0377 C   0  0  0  0  0  0  0  0  0  0  0  0
  -31.0447  -25.4685   19.3113 C   0  0  0  0  0  0  0  0  0  0  0  0
  -28.2655  -25.6095   19.3622 C   0  0  0  0  0  0  0  0  0  0  0  0
  -23.0887  -28.8765   19.1803 C   0  0  0  0  0  0  0  0  0  0  0  0
  -26.3047  -12.2449   19.0954 C   0  0  0  0  0  0  0  0  0  0  0  0
  -24.5236  -12.7955   20.6322 C   0  0  0  0  0  0  0  0  0  0  0  0
  -21.7624  -28.5487   19.4583 C   0  0  0  0  0  0  0  0  0  0  0  0
  -23.5732   -9.6213   19.9675 C   0  0  0  0  0  0  0  0  0  0  0  0
  -22.4015   -8.9139   20.2360 C   0  0  0  0  0  0  0  0  0  0  0  0
  -22.0209  -29.4222   21.6920 C   0  0  0  0  0  0  0  0  0  0  0  0
  -22.4442  -23.5654   22.4785 C   0  0  0  0  0  0  0  0  0  0  0  0
  -22.3452  -23.0807   20.1137 C   0  0  0  0  0  0  0  0  0  0  0  0
  -22.9537   -8.8918   22.5880 C   0  0  0  0  0  0  0  0  0  0  0  0
  -25.2271  -14.4037   18.9721 C   0  0  0  0  0  0  0  0  0  0  0  0
  -24.1230  -22.1557   21.4631 C   0  0  0  0  0  0  0  0  0  0  0  0
  -24.2707  -16.0505   17.2748 C   0  0  0  0  0  0  0  0  0  0  0  0
  -30.4071  -26.0905   20.3964 C   0  0  0  0  0  0  0  0  0  0  0  0
  -23.8956  -29.4707   20.1613 C   0  0  0  0  0  0  0  0  0  0  0  0
  -29.0009  -26.1536   20.4289 C   0  0  0  0  0  0  0  0  0  0  0  0
  -23.3563  -29.7589   21.4231 C   0  0  0  0  0  0  0  0  0  0  0  0
  -23.5963  -22.7872   22.5898 C   0  0  0  0  0  0  0  0  0  0  0  0
  -21.8186  -23.7122   21.2404 C   0  0  0  0  0  0  0  0  0  0  0  0
  -25.4765  -11.8924   20.1610 C   0  0  0  0  0  0  0  0  0  0  0  0
  -21.2291  -28.8189   20.7151 C   0  0  0  0  0  0  0  0  0  0  0  0
  -24.4352   -9.9640   21.0093 C   0  0  0  0  0  0  0  0  0  0  0  0
  -22.0917   -8.5491   21.5462 C   0  0  0  0  0  0  0  0  0  0  0  0
  -23.4975  -22.3025   20.2250 C   0  0  0  0  0  0  0  0  0  0  0  0
  -24.1255   -9.5993   22.3195 C   0  0  0  0  0  0  0  0  0  0  0  0
  -25.0982  -15.7011   18.3587 C   0  0  0  0  0  0  0  0  0  0  0  0
  -24.5117  -17.3880   17.0761 C   0  0  0  0  0  0  0  0  0  0  0  0
  -25.3249  -21.3375   21.5559 C   0  0  0  0  0  0  0  0  0  0  0  0
  -23.3651  -15.2387   16.5155 C   0  0  0  0  0  0  0  0  0  0  0  0
  -26.5416  -21.6669   20.7784 C   0  0  0  0  0  0  0  0  0  0  0  0
  -26.5701  -28.6455   21.6677 C   0  0  0  0  0  0  0  0  0  0  0  0
  -26.3450  -31.6419   22.8897 C   0  0  0  0  0  0  0  0  0  0  0  0
  -19.9931  -25.1965   22.1387 C   0  0  0  0  0  0  0  0  0  0  0  0
  -24.3665  -34.3094   23.6750 C   0  0  0  0  0  0  0  0  0  0  0  0
  -31.2512  -26.6139   21.5314 C   0  0  0  0  0  0  0  0  0  0  0  0
  -25.3165  -29.8426   19.8371 C   0  0  0  0  0  0  0  0  0  0  0  0
  -24.1748  -30.4142   22.5044 C   0  0  0  0  0  0  0  0  0  0  0  0
  -30.5035  -27.5725   22.4547 C   0  0  0  0  0  0  0  0  0  0  0  0
  -27.9006  -20.7120   17.6007 C   0  0  0  0  0  0  0  0  0  0  0  0
  -29.1342  -27.0061   22.8166 C   0  0  0  0  0  0  0  0  0  0  0  0
  -27.2896  -19.3327   17.3555 C   0  0  0  0  0  0  0  0  0  0  0  0
  -28.1762  -20.9451   19.0826 C   0  0  0  0  0  0  0  0  0  0  0  0
  -26.3600  -19.3791   19.7133 C   0  0  0  0  0  0  0  0  0  0  0  0
  -28.2639  -26.8257   21.5670 C   0  0  1  0  0  0  0  0  0  0  0  0
  -26.1969  -29.9752   21.0759 C   0  0  1  0  0  0  0  0  0  0  0  0
  -26.0420  -19.1180   18.2307 C   0  0  2  0  0  0  0  0  0  0  0  0
  -24.2462  -22.6473   23.9278 C   0  0  0  0  0  0  0  0  0  0  0  0
  -24.4616  -36.5992   24.6973 C   0  0  0  0  0  0  0  0  0  0  0  0
  -26.5587  -30.3913   25.6647 C   0  0  0  0  0  0  0  0  0  0  0  0
  -25.7076  -32.5420   26.6231 C   0  0  0  0  0  0  0  0  0  0  0  0
  -27.8638  -32.5041   25.3692 C   0  0  0  0  0  0  0  0  0  0  0  0
  -23.4099  -35.5883   21.1833 C   0  0  0  0  0  0  0  0  0  0  0  0
  -18.7726  -25.9187   21.5853 C   0  0  0  0  0  0  0  0  0  0  0  0
  -18.4493  -27.1972   22.3507 C   0  0  0  0  0  0  0  0  0  0  0  0
  -19.6199  -28.1694   22.3414 C   0  0  0  0  0  0  0  0  0  1  0  0
  -25.6894  -32.2550   24.1035 C   0  0  1  0  0  0  0  0  0  0  0  0
  -24.5264  -35.7952   23.4081 C   0  0  2  0  0  0  0  0  0  0  0  0
  -26.4397  -31.9090   25.4206 C   0  0  0  0  0  0  0  0  0  0  0  0
  -25.8116  -16.7333   18.8165 N   0  0  0  0  0  0  0  0  0  0  0  0
  -25.4125  -20.2809   22.3156 N   0  0  0  0  0  0  0  0  0  0  0  0
  -25.4332  -17.7445   18.0162 N   0  0  0  0  0  0  0  0  0  0  0  0
  -26.9817  -20.6978   19.8877 N   0  0  0  0  0  0  0  0  0  0  0  0
  -25.5606  -30.7531   22.1410 N   0  0  0  0  0  0  0  0  0  0  0  0
  -24.0231  -18.2822   16.1905 N   0  0  0  0  0  0  0  0  0  0  0  0
  -23.2385  -13.8843   16.8529 N   0  0  0  0  0  0  0  0  0  0  0  0
  -20.6495  -24.5015   21.1268 N   0  0  0  0  0  0  0  0  0  0  0  0
  -27.7237  -28.0983   21.1393 N   0  0  0  0  0  0  0  0  0  0  0  0
  -25.5856  -33.6848   23.8329 N   0  0  0  0  0  0  0  0  0  0  0  0
  -23.4482  -36.2771   22.4990 N   0  3  0  0  0  0  0  0  0  0  0  0
  -22.7005  -15.6969   15.5553 O   0  0  0  0  0  0  0  0  0  0  0  0
  -27.0319  -22.7650   21.0065 O   0  0  0  0  0  0  0  0  0  0  0  0
  -25.8646  -28.1530   22.5403 O   0  0  0  0  0  0  0  0  0  0  0  0
  -27.5077  -31.9460   22.6119 O   0  0  0  0  0  0  0  0  0  0  0  0
  -20.3036  -25.2568   23.3238 O   0  0  0  0  0  0  0  0  0  0  0  0
  -23.2697  -33.7587   23.7407 O   0  0  0  0  0  0  0  0  0  0  0  0
  -25.5978  -10.6671   20.7412 O   0  0  0  0  0  0  0  0  0  0  0  0
  -19.9350  -28.4993   20.9893 O   0  0  0  0  0  0  0  0  0  1  0  0
  -20.9657   -7.8711   21.8041 F   0  0  0  0  0  0  0  0  0  0  0  0
  -23.9937  -21.7004   19.1347 F   0  0  0  0  0  0  0  0  0  0  0  0
  -24.9491   -9.9267   23.3246 F   0  0  0  0  0  0  0  0  0  0  0  0
  1  2  1  0  0  0  0
  1  5  2  0  0  0  0
  2  6  2  0  0  0  0
  3  8  2  0  0  0  0
  3 17  1  0  0  0  0
  4  9  1  0  0  0  0
  4 17  2  0  0  0  0
  5 20  1  0  0  0  0
  6 22  1  0  0  0  0
  7 10  2  0  0  0  0
  7 21  1  0  0  0  0
  8 26  1  0  0  0  0
  9 26  2  0  0  0  0
 10 27  1  0  0  0  0
 11 12  2  0  0  0  0
 11 28  1  0  0  0  0
 12 29  1  0  0  0  0
 13 23  1  0  0  0  0
 13 27  2  0  0  0  0
 14 24  2  0  0  0  0
 14 25  1  0  0  0  0
 15 25  2  0  0  0  0
 15 30  1  0  0  0  0
 16 29  2  0  0  0  0
 16 31  1  0  0  0  0
 17 32  1  0  0  0  0
 18 24  1  0  0  0  0
 18 30  2  0  0  0  0
 18 34  1  0  0  0  0
 19 32  1  0  0  0  0
 19 33  2  0  0  0  0
 19 35  1  0  0  0  0
 20 22  2  0  0  0  0
 20 41  1  0  0  0  0
 21 23  2  0  0  0  0
 21 42  1  0  0  0  0
 22 50  1  0  0  0  0
 23 43  1  0  0  0  0
 24 53  1  0  0  0  0
 25 72  1  0  0  0  0
 26 82  1  0  0  0  0
 27 83  1  0  0  0  0
 28 31  2  0  0  0  0
 28 82  1  0  0  0  0
 29 84  1  0  0  0  0
 30 85  1  0  0  0  0
 31 86  1  0  0  0  0
 32 65  2  0  0  0  0
 33 67  1  0  0  0  0
 33 70  1  0  0  0  0
 34 36  1  0  0  0  0
 34 66  2  0  0  0  0
 35 71  1  0  0  0  0
 35 76  2  0  0  0  0
 36 68  1  0  0  0  0
 36 77  2  0  0  0  0
 37 51  1  0  0  0  0
 37 73  1  0  0  0  0
 37 78  2  0  0  0  0
 38 62  1  0  0  0  0
 38 69  1  0  0  0  0
 38 79  2  0  0  0  0
 39 59  1  0  0  0  0
 39 72  1  0  0  0  0
 39 80  2  0  0  0  0
 40 63  1  0  0  0  0
 40 74  1  0  0  0  0
 40 81  2  0  0  0  0
 41 44  1  0  0  0  0
 42 51  1  0  0  0  0
 43 69  1  0  0  0  0
 44 46  1  0  0  0  0
 45 47  1  0  0  0  0
 45 48  1  0  0  0  0
 46 50  1  0  0  0  0
 47 52  1  0  0  0  0
 48 68  1  0  0  0  0
 49 52  1  0  0  0  0
 49 68  1  0  0  0  0
 50 73  1  0  0  0  0
 51 69  1  0  0  0  0
 52 67  1  0  0  0  0
 54 63  1  0  0  0  0
 55 64  1  0  0  0  0
 56 64  1  0  0  0  0
 57 64  1  0  0  0  0
 58 75  1  0  0  0  0
 59 60  1  0  0  0  0
 60 61  1  0  0  0  0
 61 83  1  0  0  0  0
 62 64  1  0  0  0  0
 62 74  1  0  0  0  0
 63 75  1  0  0  0  0
 65 67  1  0  0  0  0
M  CHG  1  75   1
M  ISO  4  34 100  36 100  61 101  83 101
M  END
> <Batch ID>
0105

> <Smiles>
CNC(C)C(=O)NC(C(=O)N1Cc2cc([101O:1][101CH2:1]CCC(=O)Nc3cc(C)c([100C:0](=N)[100C:0](=O)N4CCCC(n5nc(-c6ccc(Oc7ccc(F)cc7F)cc6)c(C(N)=O)c5N)C4)c(F)c3)ccc2CC1C(=O)NC1CCCc2ccccc21)C(C)(C)C

> <Shape>
0.292

> <Color>
0.078

> <Negative vol penalty>
0.000

$$$$

  -OEChem-04052301113D

 84 92  0     1  0  0  0  0  0999 V2000
  -20.5016  -34.5479   23.0938 C   0  0  0  0  0  0  0  0  0  0  0  0
  -21.7516  -34.0653   22.7199 C   0  0  0  0  0  0  0  0  0  0  0  0
  -21.9705  -14.8373   20.5447 C   0  0  0  0  0  0  0  0  0  0  0  0
  -24.0132  -14.1412   21.6309 C   0  0  0  0  0  0  0  0  0  0  0  0
  -19.5784  -33.6951   23.6975 C   0  0  0  0  0  0  0  0  0  0  0  0
  -22.0796  -32.7297   22.9503 C   0  0  0  0  0  0  0  0  0  0  0  0
  -25.5742  -29.1369   19.4310 C   0  0  0  0  0  0  0  0  0  0  0  0
  -31.3209  -21.9322   18.1659 C   0  0  0  0  0  0  0  0  0  0  0  0
  -31.2702  -23.2982   18.4438 C   0  0  0  0  0  0  0  0  0  0  0  0
  -21.4053  -13.5896   20.8078 C   0  0  0  0  0  0  0  0  0  0  0  0
  -23.4480  -12.8934   21.8940 C   0  0  0  0  0  0  0  0  0  0  0  0
  -26.9148  -28.7628   19.5119 C   0  0  0  0  0  0  0  0  0  0  0  0
  -22.6712   -9.4011   22.5349 C   0  0  0  0  0  0  0  0  0  0  0  0
  -23.4513   -8.2712   22.2892 C   0  0  0  0  0  0  0  0  0  0  0  0
  -26.2728  -26.7277   20.6368 C   0  0  0  0  0  0  0  0  0  0  0  0
  -30.4608  -22.8156   20.6685 C   0  0  0  0  0  0  0  0  0  0  0  0
  -23.6225   -8.8956   19.9616 C   0  0  0  0  0  0  0  0  0  0  0  0
  -23.2745  -15.1131   20.9562 C   0  0  0  0  0  0  0  0  0  0  0  0
  -23.8137  -17.5457   21.5032 C   0  0  0  0  0  0  0  0  0  0  0  0
  -19.8917  -32.3460   23.9267 C   0  0  0  0  0  0  0  0  0  0  0  0
  -24.5720  -28.3129   19.9631 C   0  0  0  0  0  0  0  0  0  0  0  0
  -21.1602  -31.8584   23.5588 C   0  0  0  0  0  0  0  0  0  0  0  0
  -24.9200  -27.0924   20.5592 C   0  0  0  0  0  0  0  0  0  0  0  0
  -30.9414  -21.0079   19.1393 C   0  0  0  0  0  0  0  0  0  0  0  0
  -30.5114  -21.4496   20.3905 C   0  0  0  0  0  0  0  0  0  0  0  0
  -30.8402  -23.7398   19.6951 C   0  0  0  0  0  0  0  0  0  0  0  0
  -22.1440  -12.6176   21.4825 C   0  0  0  0  0  0  0  0  0  0  0  0
  -27.2645  -27.5594   20.1174 C   0  0  0  0  0  0  0  0  0  0  0  0
  -22.3667  -10.2782   21.4939 C   0  0  0  0  0  0  0  0  0  0  0  0
  -23.9270   -8.0185   21.0026 C   0  0  0  0  0  0  0  0  0  0  0  0
  -22.8424  -10.0255   20.2073 C   0  0  0  0  0  0  0  0  0  0  0  0
  -23.8591  -16.4017   20.6842 C   0  0  0  0  0  0  0  0  0  0  0  0
  -24.5121  -18.4980   20.8019 C   0  0  0  0  0  0  0  0  0  0  0  0
  -23.1955  -17.7311   22.7836 C   0  0  0  0  0  0  0  0  0  0  0  0
  -22.3899  -28.6280   22.2529 C   0  0  0  0  0  0  0  0  0  0  0  0
  -21.3933  -25.7404   21.1616 C   0  0  0  0  0  0  0  0  0  0  0  0
  -31.1313  -26.1775   19.1321 C   0  0  0  0  0  0  0  0  0  0  0  0
  -22.1510  -22.8422   19.5267 C   0  0  0  0  0  0  0  0  0  0  0  0
  -29.1050  -19.0076   17.3148 C   0  0  0  0  0  0  0  0  0  0  0  0
  -18.8785  -31.4741   24.6252 C   0  0  0  0  0  0  0  0  0  0  0  0
  -23.1284  -28.7182   19.8440 C   0  0  0  0  0  0  0  0  0  0  0  0
  -23.8805  -26.1625   21.1277 C   0  0  0  0  0  0  0  0  0  0  0  0
  -19.1664  -29.9807   24.4936 C   0  0  0  0  0  0  0  0  0  0  0  0
  -25.7742  -19.1060   16.0606 C   0  0  0  0  0  0  0  0  0  0  0  0
  -20.6374  -29.6936   24.7778 C   0  0  0  0  0  0  0  0  0  0  0  0
  -24.9366  -18.5250   17.2012 C   0  0  0  0  0  0  0  0  0  0  0  0
  -27.1291  -18.4112   15.9448 C   0  0  0  0  0  0  0  0  0  0  0  0
  -27.0798  -17.7987   18.3315 C   0  0  0  0  0  0  0  0  0  0  0  0
  -21.5440  -30.4098   23.7696 C   0  0  1  0  0  0  0  0  0  0  0  0
  -22.2313  -28.0440   20.8776 C   0  0  1  0  0  0  0  0  0  0  0  0
  -25.7268  -18.5050   18.5234 C   0  0  2  0  0  0  0  0  0  0  0  0
  -30.1023  -20.4783   21.4487 C   0  0  0  0  0  0  0  0  0  0  0  0
  -21.1411  -20.6551   18.8237 C   0  0  0  0  0  0  0  0  0  0  0  0
  -21.6061  -24.7229   24.0302 C   0  0  0  0  0  0  0  0  0  0  0  0
  -21.5230  -22.3867   23.1339 C   0  0  0  0  0  0  0  0  0  0  0  0
  -19.5889  -23.9234   22.7867 C   0  0  0  0  0  0  0  0  0  0  0  0
  -22.6029  -23.4223   16.6600 C   0  0  0  0  0  0  0  0  0  0  0  0
  -31.0033  -19.5506   18.8182 C   0  0  0  0  0  0  0  0  0  0  0  0
  -30.9298  -27.5148   19.8358 C   0  0  0  0  0  0  0  0  0  0  0  0
  -29.5341  -28.0877   19.6419 C   0  0  0  0  0  0  0  0  0  1  0  0
  -21.7230  -24.3033   21.4854 C   0  0  1  0  0  0  0  0  0  0  0  0
  -21.4317  -22.0922   18.4201 C   0  0  2  0  0  0  0  0  0  0  0  0
  -21.1302  -23.8523   22.8502 C   0  0  0  0  0  0  0  0  0  0  0  0
  -24.5329  -16.6064   19.5493 N   0  0  0  0  0  0  0  0  0  0  0  0
  -24.9173  -17.8902   19.6502 N   0  0  0  0  0  0  0  0  0  0  0  0
  -22.4832  -26.6061   20.9926 N   0  0  0  0  0  0  0  0  0  0  0  0
  -27.8280  -18.4282   17.2321 N   0  0  0  0  0  0  0  0  0  0  0  0
  -24.8130  -19.7876   21.0643 N   0  0  0  0  0  0  0  0  0  0  0  0
  -22.5184  -16.6486   23.3615 N   0  0  0  0  0  0  0  0  0  0  0  0
  -30.7905  -25.1255   19.9781 N   0  0  0  0  0  0  0  0  0  0  0  0
  -21.5567  -29.7004   22.5083 N   0  0  0  0  0  0  0  0  0  0  0  0
  -21.2684  -23.5135   20.3461 N   0  0  0  0  0  0  0  0  0  0  0  0
  -29.6943  -18.9875   18.5729 N   0  0  0  0  0  0  0  0  0  0  0  0
  -22.2616  -22.0741   17.1824 N   0  3  0  0  0  0  0  0  0  0  0  0
  -23.2282  -18.8290   23.3894 O   0  0  0  0  0  0  0  0  0  0  0  0
  -23.2067  -28.1408   23.0256 O   0  0  0  0  0  0  0  0  0  0  0  0
  -20.2124  -26.0808   21.0552 O   0  0  0  0  0  0  0  0  0  0  0  0
  -31.5407  -26.1021   17.9784 O   0  0  0  0  0  0  0  0  0  0  0  0
  -23.3734  -22.8303   19.6539 O   0  0  0  0  0  0  0  0  0  0  0  0
  -29.6751  -19.5106   16.3407 O   0  0  0  0  0  0  0  0  0  0  0  0
  -21.5928  -11.4000   21.7396 O   0  0  0  0  0  0  0  0  0  0  0  0
  -28.5724  -27.1922   20.1983 O   0  0  0  0  0  0  0  0  0  1  0  0
  -24.6774   -6.9342   20.7671 F   0  0  0  0  0  0  0  0  0  0  0  0
  -22.5541  -10.8651   19.2034 F   0  0  0  0  0  0  0  0  0  0  0  0
  1  2  1  0  0  0  0
  1  5  2  0  0  0  0
  2  6  2  0  0  0  0
  3 10  2  0  0  0  0
  3 18  1  0  0  0  0
  4 11  1  0  0  0  0
  4 18  2  0  0  0  0
  5 20  1  0  0  0  0
  6 22  1  0  0  0  0
  7 12  2  0  0  0  0
  7 21  1  0  0  0  0
  8  9  2  0  0  0  0
  8 24  1  0  0  0  0
  9 26  1  0  0  0  0
 10 27  1  0  0  0  0
 11 27  2  0  0  0  0
 12 28  1  0  0  0  0
 13 14  2  0  0  0  0
 13 29  1  0  0  0  0
 14 30  1  0  0  0  0
 15 23  1  0  0  0  0
 15 28  2  0  0  0  0
 16 25  1  0  0  0  0
 16 26  2  0  0  0  0
 17 30  2  0  0  0  0
 17 31  1  0  0  0  0
 18 32  1  0  0  0  0
 19 32  1  0  0  0  0
 19 33  2  0  0  0  0
 19 34  1  0  0  0  0
 20 22  2  0  0  0  0
 20 40  1  0  0  0  0
 21 23  2  0  0  0  0
 21 41  1  0  0  0  0
 22 49  1  0  0  0  0
 23 42  1  0  0  0  0
 24 25  2  0  0  0  0
 24 58  1  0  0  0  0
 25 52  1  0  0  0  0
 26 70  1  0  0  0  0
 27 81  1  0  0  0  0
 28 82  1  0  0  0  0
 29 31  2  0  0  0  0
 29 81  1  0  0  0  0
 30 83  1  0  0  0  0
 31 84  1  0  0  0  0
 32 64  2  0  0  0  0
 33 65  1  0  0  0  0
 33 68  1  0  0  0  0
 34 69  1  0  0  0  0
 34 75  2  0  0  0  0
 35 50  1  0  0  0  0
 35 71  1  0  0  0  0
 35 76  2  0  0  0  0
 36 61  1  0  0  0  0
 36 66  1  0  0  0  0
 36 77  2  0  0  0  0
 37 59  1  0  0  0  0
 37 70  1  0  0  0  0
 37 78  2  0  0  0  0
 38 62  1  0  0  0  0
 38 72  1  0  0  0  0
 38 79  2  0  0  0  0
 39 67  1  0  0  0  0
 39 73  1  0  0  0  0
 39 80  2  0  0  0  0
 40 43  1  0  0  0  0
 41 50  1  0  0  0  0
 42 66  1  0  0  0  0
 43 45  1  0  0  0  0
 44 46  1  0  0  0  0
 44 47  1  0  0  0  0
 45 49  1  0  0  0  0
 46 51  1  0  0  0  0
 47 67  1  0  0  0  0
 48 51  1  0  0  0  0
 48 67  1  0  0  0  0
 49 71  1  0  0  0  0
 50 66  1  0  0  0  0
 51 65  1  0  0  0  0
 53 62  1  0  0  0  0
 54 63  1  0  0  0  0
 55 63  1  0  0  0  0
 56 63  1  0  0  0  0
 57 74  1  0  0  0  0
 58 73  1  0  0  0  0
 59 60  1  0  0  0  0
 60 82  1  0  0  0  0
 61 63  1  0  0  0  0
 61 72  1  0  0  0  0
 62 74  1  0  0  0  0
 64 65  1  0  0  0  0
M  CHG  1  74   1
M  ISO  4  39 100  60 101  73 100  82 101
M  END
> <Batch ID>
0105

> <Smiles>
CNC(C)C(=O)NC(C(=O)N1Cc2cc([101O:1][101CH2:1]CC(=O)Nc3ccc(C[100NH:0][100C:0](=O)N4CCCC(n5nc(-c6ccc(Oc7ccc(F)cc7F)cc6)c(C(N)=O)c5N)C4)c(C)c3)ccc2CC1C(=O)NC1CCCc2ccccc21)C(C)(C)C

> <Shape>
0.197

> <Color>
0.079

> <Negative vol penalty>
0.000

$$$$

  -OEChem-04052301113D

 86 94  0     1  0  0  0  0  0999 V2000
  -18.9531  -34.3762   23.5039 C   0  0  0  0  0  0  0  0  0  0  0  0
  -18.8352  -33.0658   23.0518 C   0  0  0  0  0  0  0  0  0  0  0  0
  -26.4850  -12.5902   21.7470 C   0  0  0  0  0  0  0  0  0  0  0  0
  -25.8782  -13.8685   19.7887 C   0  0  0  0  0  0  0  0  0  0  0  0
  -20.0141  -35.1694   23.0694 C   0  0  0  0  0  0  0  0  0  0  0  0
  -19.7778  -32.5482   22.1641 C   0  0  0  0  0  0  0  0  0  0  0  0
  -21.8340  -26.7845   21.9251 C   0  0  0  0  0  0  0  0  0  0  0  0
  -25.2246  -11.9929   21.7477 C   0  0  0  0  0  0  0  0  0  0  0  0
  -24.6177  -13.2711   19.7894 C   0  0  0  0  0  0  0  0  0  0  0  0
  -21.4942  -25.7001   21.1173 C   0  0  0  0  0  0  0  0  0  0  0  0
  -22.2933   -9.8644   22.0516 C   0  0  0  0  0  0  0  0  0  0  0  0
  -22.2294   -8.4852   22.2498 C   0  0  0  0  0  0  0  0  0  0  0  0
  -26.8246  -19.9347   21.1507 C   0  0  0  0  0  0  0  0  0  0  0  0
  -23.3346  -26.2251   19.6488 C   0  0  0  0  0  0  0  0  0  0  0  0
  -25.9265  -22.2482   19.8764 C   0  0  0  0  0  0  0  0  0  0  0  0
  -23.5746   -8.1388   20.2731 C   0  0  0  0  0  0  0  0  0  0  0  0
  -26.8118  -13.5281   20.7675 C   0  0  0  0  0  0  0  0  0  0  0  0
  -27.7432  -20.8359   20.6127 C   0  0  0  0  0  0  0  0  0  0  0  0
  -29.2712  -13.6885   20.1090 C   0  0  0  0  0  0  0  0  0  0  0  0
  -20.9756  -34.6583   22.1835 C   0  0  0  0  0  0  0  0  0  0  0  0
  -22.9218  -27.6051   21.5942 C   0  0  0  0  0  0  0  0  0  0  0  0
  -20.8520  -33.3358   21.7164 C   0  0  0  0  0  0  0  0  0  0  0  0
  -23.6876  -27.3177   20.4554 C   0  0  0  0  0  0  0  0  0  0  0  0
  -27.2942  -21.9927   19.9756 C   0  0  0  0  0  0  0  0  0  0  0  0
  -24.2909  -12.3333   20.7689 C   0  0  0  0  0  0  0  0  0  0  0  0
  -22.2427  -25.4220   19.9774 C   0  0  0  0  0  0  0  0  0  0  0  0
  -22.9978  -10.3809   20.9641 C   0  0  0  0  0  0  0  0  0  0  0  0
  -25.4568  -20.1902   21.0515 C   0  0  0  0  0  0  0  0  0  0  0  0
  -25.0078  -21.3469   20.4143 C   0  0  0  0  0  0  0  0  0  0  0  0
  -22.8701   -7.6224   21.3606 C   0  0  0  0  0  0  0  0  0  0  0  0
  -23.6385   -9.5180   20.0749 C   0  0  0  0  0  0  0  0  0  0  0  0
  -28.1135  -14.1460   20.7666 C   0  0  0  0  0  0  0  0  0  0  0  0
  -30.2322  -14.6198   20.4181 C   0  0  0  0  0  0  0  0  0  0  0  0
  -29.1657  -20.5438   20.7289 C   0  0  0  0  0  0  0  0  0  0  0  0
  -29.4608  -12.5258   19.2918 C   0  0  0  0  0  0  0  0  0  0  0  0
  -29.8139  -20.3899   22.0516 C   0  0  0  0  0  0  0  0  0  0  0  0
  -23.2719  -30.6780   20.8602 C   0  0  0  0  0  0  0  0  0  0  0  0
  -26.4290  -29.9384   20.9509 C   0  0  0  0  0  0  0  0  0  0  0  0
  -28.8532  -27.5493   20.7021 C   0  0  0  0  0  0  0  0  0  0  0  0
  -22.0786  -35.5688   21.7049 C   0  0  0  0  0  0  0  0  0  0  0  0
  -23.2917  -28.7551   22.4905 C   0  0  0  0  0  0  0  0  0  0  0  0
  -24.8773  -28.1560   20.0674 C   0  0  0  0  0  0  0  0  0  0  0  0
  -23.2436  -34.8256   21.0563 C   0  0  0  0  0  0  0  0  0  0  0  0
  -31.4815  -17.7449   23.8066 C   0  0  0  0  0  0  0  0  0  0  0  0
  -22.7285  -33.7855   20.0665 C   0  0  0  0  0  0  0  0  0  0  0  0
  -30.8824  -16.4805   23.1915 C   0  0  0  0  0  0  0  0  0  0  0  0
  -30.4543  -18.8700   23.8814 C   0  0  0  0  0  0  0  0  0  0  0  0
  -29.2197  -17.9328   21.9460 C   0  0  0  0  0  0  0  0  0  0  0  0
  -21.8683  -32.7305   20.7724 C   0  0  1  0  0  0  0  0  0  0  0  0
  -24.1065  -29.8301   21.7778 C   0  0  1  0  0  0  0  0  0  0  0  0
  -30.2352  -16.7829   21.8283 C   0  0  2  0  0  0  0  0  0  0  0  0
  -28.3465  -22.8607   17.8718 C   0  0  0  0  0  0  0  0  0  0  0  0
  -31.3439  -27.2542   20.7841 C   0  0  0  0  0  0  0  0  0  0  0  0
  -26.6594  -31.1251   18.1493 C   0  0  0  0  0  0  0  0  0  0  0  0
  -28.8682  -29.9695   17.9171 C   0  0  0  0  0  0  0  0  0  0  0  0
  -28.5479  -31.7005   19.6846 C   0  0  0  0  0  0  0  0  0  0  0  0
  -28.6772  -25.7273   23.0277 C   0  0  0  0  0  0  0  0  0  0  0  0
  -25.1111  -18.1452   22.2152 C   0  0  0  0  0  0  0  0  0  0  0  0
  -28.2565  -22.9743   19.3905 C   0  0  0  0  0  0  0  0  0  0  0  0
  -21.6374  -21.9706   19.0646 C   0  0  0  0  0  0  0  0  0  0  0  0
  -21.2993  -23.2443   19.8233 C   0  0  0  0  0  0  0  0  0  1  0  0
  -23.1373  -21.7302   18.9965 C   0  0  0  0  0  0  0  0  0  0  0  0
  -27.4402  -29.4428   19.9455 C   0  0  1  0  0  0  0  0  0  0  0  0
  -30.0492  -27.2324   21.5816 C   0  0  2  0  0  0  0  0  0  0  0  0
  -27.8554  -30.5446   18.9301 C   0  0  0  0  0  0  0  0  0  0  0  0
  -28.3184  -15.2796   21.4425 N   0  0  0  0  0  0  0  0  0  0  0  0
  -29.9514  -20.3985   19.6979 N   0  0  0  0  0  0  0  0  0  0  0  0
  -29.6159  -15.5423   21.2114 N   0  0  0  0  0  0  0  0  0  0  0  0
  -29.8337  -19.1065   22.5795 N   0  0  0  0  0  0  0  0  0  0  0  0
  -25.1950  -29.2730   20.9722 N   0  0  0  0  0  0  0  0  0  0  0  0
  -31.5360  -14.7314   20.0860 N   0  0  0  0  0  0  0  0  0  0  0  0
  -28.3679  -11.6752   19.0762 N   0  0  0  0  0  0  0  0  0  0  0  0
  -22.7065  -31.7805   21.4719 N   0  0  0  0  0  0  0  0  0  0  0  0
  -28.5492  -28.8941   20.7185 N   0  0  0  0  0  0  0  0  0  0  0  0
  -29.8979  -25.8828   22.1953 N   0  3  0  0  0  0  0  0  0  0  0  0
  -30.5708  -12.2405   18.7818 O   0  0  0  0  0  0  0  0  0  0  0  0
  -30.2651  -21.4173   22.5406 O   0  0  0  0  0  0  0  0  0  0  0  0
  -23.1511  -30.3566   19.6838 O   0  0  0  0  0  0  0  0  0  0  0  0
  -26.7256  -30.8765   21.6949 O   0  0  0  0  0  0  0  0  0  0  0  0
  -28.2514  -26.6903   20.0614 O   0  0  0  0  0  0  0  0  0  0  0  0
  -23.0610  -11.7504   20.7691 O   0  0  0  0  0  0  0  0  0  0  0  0
  -24.5697  -19.3022   21.5810 O   0  0  0  0  0  0  0  0  0  0  0  0
  -21.9128  -24.3646   19.1869 O   0  0  0  0  0  0  0  0  0  1  0  0
  -23.6664  -21.6084   20.3099 O   0  0  0  0  0  0  0  0  0  0  0  0
  -22.8099   -6.2981   21.5520 F   0  0  0  0  0  0  0  0  0  0  0  0
  -24.3178  -10.0083   19.0289 F   0  0  0  0  0  0  0  0  0  0  0  0
  1  2  1  0  0  0  0
  1  5  2  0  0  0  0
  2  6  2  0  0  0  0
  3  8  2  0  0  0  0
  3 17  1  0  0  0  0
  4  9  1  0  0  0  0
  4 17  2  0  0  0  0
  5 20  1  0  0  0  0
  6 22  1  0  0  0  0
  7 10  2  0  0  0  0
  7 21  1  0  0  0  0
  8 25  1  0  0  0  0
  9 25  2  0  0  0  0
 10 26  1  0  0  0  0
 11 12  2  0  0  0  0
 11 27  1  0  0  0  0
 12 30  1  0  0  0  0
 13 18  1  0  0  0  0
 13 28  2  0  0  0  0
 14 23  1  0  0  0  0
 14 26  2  0  0  0  0
 15 24  1  0  0  0  0
 15 29  2  0  0  0  0
 16 30  2  0  0  0  0
 16 31  1  0  0  0  0
 17 32  1  0  0  0  0
 18 24  2  0  0  0  0
 18 34  1  0  0  0  0
 19 32  1  0  0  0  0
 19 33  2  0  0  0  0
 19 35  1  0  0  0  0
 20 22  2  0  0  0  0
 20 40  1  0  0  0  0
 21 23  2  0  0  0  0
 21 41  1  0  0  0  0
 22 49  1  0  0  0  0
 23 42  1  0  0  0  0
 24 59  1  0  0  0  0
 25 81  1  0  0  0  0
 26 83  1  0  0  0  0
 27 31  2  0  0  0  0
 27 81  1  0  0  0  0
 28 29  1  0  0  0  0
 28 82  1  0  0  0  0
 29 84  1  0  0  0  0
 30 85  1  0  0  0  0
 31 86  1  0  0  0  0
 32 66  2  0  0  0  0
 33 68  1  0  0  0  0
 33 71  1  0  0  0  0
 34 36  1  0  0  0  0
 34 67  2  0  0  0  0
 35 72  1  0  0  0  0
 35 76  2  0  0  0  0
 36 69  1  0  0  0  0
 36 77  2  0  0  0  0
 37 50  1  0  0  0  0
 37 73  1  0  0  0  0
 37 78  2  0  0  0  0
 38 63  1  0  0  0  0
 38 70  1  0  0  0  0
 38 79  2  0  0  0  0
 39 64  1  0  0  0  0
 39 74  1  0  0  0  0
 39 80  2  0  0  0  0
 40 43  1  0  0  0  0
 41 50  1  0  0  0  0
 42 70  1  0  0  0  0
 43 45  1  0  0  0  0
 44 46  1  0  0  0  0
 44 47  1  0  0  0  0
 45 49  1  0  0  0  0
 46 51  1  0  0  0  0
 47 69  1  0  0  0  0
 48 51  1  0  0  0  0
 48 69  1  0  0  0  0
 49 73  1  0  0  0  0
 50 70  1  0  0  0  0
 51 68  1  0  0  0  0
 52 59  1  0  0  0  0
 53 64  1  0  0  0  0
 54 65  1  0  0  0  0
 55 65  1  0  0  0  0
 56 65  1  0  0  0  0
 57 75  1  0  0  0  0
 58 82  1  0  0  0  0
 60 61  1  0  0  0  0
 60 62  1  0  0  0  0
 61 83  1  0  0  0  0
 62 84  1  0  0  0  0
 63 65  1  0  0  0  0
 63 74  1  0  0  0  0
 64 75  1  0  0  0  0
 66 68  1  0  0  0  0
M  CHG  1  75   1
M  ISO  4  34 100  36 100  61 101  83 101
M  END
> <Batch ID>
0105

> <Smiles>
CCc1cc(OCC[101CH2:1][101O:1]c2ccc3c(c2)CN(C(=O)C(NC(=O)C(C)NC)C(C)(C)C)C(C(=O)NC2CCCc4ccccc42)C3)c(OC)cc1[100C:0](=N)[100C:0](=O)N1CCCC(n2nc(-c3ccc(Oc4ccc(F)cc4F)cc3)c(C(N)=O)c2N)C1

> <Shape>
0.262

> <Color>
0.081

> <Negative vol penalty>
0.000

$$$$

  -OEChem-04052301113D

 86 94  0     1  0  0  0  0  0999 V2000
  -16.6353  -13.7422   26.5739 C   0  0  0  0  0  0  0  0  0  0  0  0
  -17.6953  -14.4434   27.1397 C   0  0  0  0  0  0  0  0  0  0  0  0
  -22.9989   -9.8953   19.9823 C   0  0  0  0  0  0  0  0  0  0  0  0
  -23.7280   -9.9467   22.2851 C   0  0  0  0  0  0  0  0  0  0  0  0
  -16.3716  -13.8607   25.2100 C   0  0  0  0  0  0  0  0  0  0  0  0
  -18.4929  -15.2628   26.3416 C   0  0  0  0  0  0  0  0  0  0  0  0
  -21.1285  -20.5463   27.9674 C   0  0  0  0  0  0  0  0  0  0  0  0
  -30.4266  -18.0618   24.0293 C   0  0  0  0  0  0  0  0  0  0  0  0
  -29.6411  -18.8743   24.8469 C   0  0  0  0  0  0  0  0  0  0  0  0
  -22.2335   -8.7604   20.2500 C   0  0  0  0  0  0  0  0  0  0  0  0
  -22.9625   -8.8117   22.5528 C   0  0  0  0  0  0  0  0  0  0  0  0
  -22.4218  -20.8607   28.3823 C   0  0  0  0  0  0  0  0  0  0  0  0
  -21.4848   -5.7178   23.7586 C   0  0  0  0  0  0  0  0  0  0  0  0
  -22.0727   -4.7024   24.5128 C   0  0  0  0  0  0  0  0  0  0  0  0
  -22.9893  -21.4832   26.1219 C   0  0  0  0  0  0  0  0  0  0  0  0
  -28.7465  -18.1803   22.2972 C   0  0  0  0  0  0  0  0  0  0  0  0
  -23.7963   -4.4562   22.8378 C   0  0  0  0  0  0  0  0  0  0  0  0
  -23.7462  -10.4884   20.9999 C   0  0  0  0  0  0  0  0  0  0  0  0
  -24.1298  -13.0042   20.8233 C   0  0  0  0  0  0  0  0  0  0  0  0
  -17.1604  -14.6894   24.3965 C   0  0  0  0  0  0  0  0  0  0  0  0
  -20.7584  -20.6879   26.6222 C   0  0  0  0  0  0  0  0  0  0  0  0
  -18.2403  -15.3914   24.9652 C   0  0  0  0  0  0  0  0  0  0  0  0
  -21.6899  -21.1723   25.6929 C   0  0  0  0  0  0  0  0  0  0  0  0
  -29.9794  -17.7148   22.7545 C   0  0  0  0  0  0  0  0  0  0  0  0
  -27.9609  -18.9927   23.1148 C   0  0  0  0  0  0  0  0  0  0  0  0
  -28.4082  -19.3397   24.3896 C   0  0  0  0  0  0  0  0  0  0  0  0
  -22.2152   -8.2186   21.5352 C   0  0  0  0  0  0  0  0  0  0  0  0
  -23.3533  -21.3265   27.4590 C   0  0  0  0  0  0  0  0  0  0  0  0
  -22.0526   -6.1025   22.5440 C   0  0  0  0  0  0  0  0  0  0  0  0
  -23.2284   -4.0716   24.0525 C   0  0  0  0  0  0  0  0  0  0  0  0
  -23.2084   -5.4716   22.0836 C   0  0  0  0  0  0  0  0  0  0  0  0
  -24.5376  -11.6605   20.7240 C   0  0  0  0  0  0  0  0  0  0  0  0
  -25.2386  -13.7274   20.4570 C   0  0  0  0  0  0  0  0  0  0  0  0
  -25.6561  -20.9515   27.2938 C   0  0  0  0  0  0  0  0  0  1  0  0
  -22.8622  -13.5499   21.2120 C   0  0  0  0  0  0  0  0  0  0  0  0
  -26.8809  -21.4663   27.1196 C   0  0  0  0  0  0  0  0  0  0  0  0
  -27.9457  -20.6056   26.5105 C   0  0  0  0  0  0  0  0  0  0  0  0
  -19.7604  -18.7024   24.3494 C   0  0  0  0  0  0  0  0  0  0  0  0
  -19.3669  -21.4477   22.6670 C   0  0  0  0  0  0  0  0  0  0  0  0
  -20.2425  -24.7138   22.2056 C   0  0  0  0  0  0  0  0  0  0  0  0
  -30.7349  -14.6651   20.6962 C   0  0  0  0  0  0  0  0  0  0  0  0
  -16.8659  -14.7487   22.9186 C   0  0  0  0  0  0  0  0  0  0  0  0
  -19.3515  -20.3699   26.1956 C   0  0  0  0  0  0  0  0  0  0  0  0
  -21.3368  -21.3613   24.2410 C   0  0  0  0  0  0  0  0  0  0  0  0
  -17.5276  -15.9294   22.2125 C   0  0  0  0  0  0  0  0  0  0  0  0
  -29.5915  -12.2408   18.3527 C   0  0  0  0  0  0  0  0  0  0  0  0
  -18.9896  -16.0503   22.6307 C   0  0  0  0  0  0  0  0  0  0  0  0
  -28.1439  -11.9803   18.7727 C   0  0  0  0  0  0  0  0  0  0  0  0
  -30.4959  -12.4767   19.5604 C   0  0  0  0  0  0  0  0  0  0  0  0
  -28.5876  -13.2711   20.9024 C   0  0  0  0  0  0  0  0  0  0  0  0
  -19.1129  -16.3094   24.1370 C   0  0  1  0  0  0  0  0  0  0  0  0
  -19.2337  -20.0638   24.7057 C   0  0  1  0  0  0  0  0  0  0  0  0
  -27.6266  -13.0829   19.7160 C   0  0  2  0  0  0  0  0  0  0  0  0
  -27.3015  -22.8385   27.5458 C   0  0  0  0  0  0  0  0  0  0  0  0
  -19.7790  -26.6875   20.7268 C   0  0  0  0  0  0  0  0  0  0  0  0
  -21.0711  -20.1965   20.4670 C   0  0  0  0  0  0  0  0  0  0  0  0
  -21.3627  -22.4826   19.4889 C   0  0  0  0  0  0  0  0  0  0  0  0
  -19.0854  -21.4770   19.6473 C   0  0  0  0  0  0  0  0  0  0  0  0
  -19.2431  -26.3275   24.4763 C   0  0  0  0  0  0  0  0  0  0  0  0
  -30.8184  -16.8440   21.8813 C   0  0  0  0  0  0  0  0  0  0  0  0
  -26.6432  -19.4745   22.6001 C   0  0  0  0  0  0  0  0  0  0  0  0
  -20.2371  -22.2749   21.7518 C   0  0  1  0  0  0  0  0  0  0  0  0
  -19.4034  -25.9637   22.0104 C   0  0  2  0  0  0  0  0  0  0  0  0
  -20.4466  -21.6024   20.3657 C   0  0  0  0  0  0  0  0  0  0  0  0
  -25.8063  -11.5347   20.3256 N   0  0  0  0  0  0  0  0  0  0  0  0
  -26.2053  -12.8087   20.1713 N   0  0  0  0  0  0  0  0  0  0  0  0
  -19.9505  -21.0306   23.8717 N   0  0  0  0  0  0  0  0  0  0  0  0
  -29.9499  -13.5351   20.4134 N   0  0  0  0  0  0  0  0  0  0  0  0
  -25.4711  -15.0533   20.3546 N   0  0  0  0  0  0  0  0  0  0  0  0
  -21.8315  -12.6652   21.5572 N   0  0  0  0  0  0  0  0  0  0  0  0
  -27.6254  -20.1635   25.2348 N   0  0  0  0  0  0  0  0  0  0  0  0
  -18.8194  -17.6944   24.4373 N   0  0  0  0  0  0  0  0  0  0  0  0
  -19.6223  -23.5963   21.6881 N   0  0  0  0  0  0  0  0  0  0  0  0
  -30.1393  -15.6235   21.5071 N   0  0  0  0  0  0  0  0  0  0  0  0
  -25.5170  -18.5549   22.9158 N   0  3  0  0  0  0  0  0  0  0  0  0
  -19.5972  -26.9012   23.1525 N   0  3  0  0  0  0  0  0  0  0  0  0
  -22.6449  -14.7851   21.2361 O   0  0  0  0  0  0  0  0  0  0  0  0
  -28.9858  -20.4143   27.1329 O   0  0  0  0  0  0  0  0  0  0  0  0
  -20.9334  -18.5762   24.0179 O   0  0  0  0  0  0  0  0  0  0  0  0
  -18.2095  -21.1875   22.3287 O   0  0  0  0  0  0  0  0  0  0  0  0
  -21.3402  -24.7280   22.7583 O   0  0  0  0  0  0  0  0  0  0  0  0
  -31.8794  -14.8116   20.2542 O   0  0  0  0  0  0  0  0  0  0  0  0
  -21.4682   -7.1113   21.7967 O   0  0  0  0  0  0  0  0  0  0  0  0
  -24.6166  -21.6334   27.8613 O   0  0  0  0  0  0  0  0  0  1  0  0
  -23.7937   -3.0975   24.7776 F   0  0  0  0  0  0  0  0  0  0  0  0
  -23.7591   -5.8376   20.9181 F   0  0  0  0  0  0  0  0  0  0  0  0
  1  2  1  0  0  0  0
  1  5  2  0  0  0  0
  2  6  2  0  0  0  0
  3 10  2  0  0  0  0
  3 18  1  0  0  0  0
  4 11  1  0  0  0  0
  4 18  2  0  0  0  0
  5 20  1  0  0  0  0
  6 22  1  0  0  0  0
  7 12  2  0  0  0  0
  7 21  1  0  0  0  0
  8  9  2  0  0  0  0
  8 24  1  0  0  0  0
  9 26  1  0  0  0  0
 10 27  1  0  0  0  0
 11 27  2  0  0  0  0
 12 28  1  0  0  0  0
 13 14  2  0  0  0  0
 13 29  1  0  0  0  0
 14 30  1  0  0  0  0
 15 23  1  0  0  0  0
 15 28  2  0  0  0  0
 16 24  2  0  0  0  0
 16 25  1  0  0  0  0
 17 30  2  0  0  0  0
 17 31  1  0  0  0  0
 18 32  1  0  0  0  0
 19 32  1  0  0  0  0
 19 33  2  0  0  0  0
 19 35  1  0  0  0  0
 20 22  2  0  0  0  0
 20 42  1  0  0  0  0
 21 23  2  0  0  0  0
 21 43  1  0  0  0  0
 22 51  1  0  0  0  0
 23 44  1  0  0  0  0
 24 60  1  0  0  0  0
 25 26  2  0  0  0  0
 25 61  1  0  0  0  0
 26 71  1  0  0  0  0
 27 83  1  0  0  0  0
 28 84  1  0  0  0  0
 29 31  2  0  0  0  0
 29 83  1  0  0  0  0
 30 85  1  0  0  0  0
 31 86  1  0  0  0  0
 32 65  2  0  0  0  0
 33 66  1  0  0  0  0
 33 69  1  0  0  0  0
 34 36  2  0  0  0  0
 34 84  1  0  0  0  0
 35 70  1  0  0  0  0
 35 77  2  0  0  0  0
 36 37  1  0  0  0  0
 36 54  1  0  0  0  0
 37 71  1  0  0  0  0
 37 78  2  0  0  0  0
 38 52  1  0  0  0  0
 38 72  1  0  0  0  0
 38 79  2  0  0  0  0
 39 62  1  0  0  0  0
 39 67  1  0  0  0  0
 39 80  2  0  0  0  0
 40 63  1  0  0  0  0
 40 73  1  0  0  0  0
 40 81  2  0  0  0  0
 41 68  1  0  0  0  0
 41 74  1  0  0  0  0
 41 82  2  0  0  0  0
 42 45  1  0  0  0  0
 43 52  1  0  0  0  0
 44 67  1  0  0  0  0
 45 47  1  0  0  0  0
 46 48  1  0  0  0  0
 46 49  1  0  0  0  0
 47 51  1  0  0  0  0
 48 53  1  0  0  0  0
 49 68  1  0  0  0  0
 50 53  1  0  0  0  0
 50 68  1  0  0  0  0
 51 72  1  0  0  0  0
 52 67  1  0  0  0  0
 53 66  1  0  0  0  0
 55 63  1  0  0  0  0
 56 64  1  0  0  0  0
 57 64  1  0  0  0  0
 58 64  1  0  0  0  0
 59 76  1  0  0  0  0
 60 74  1  0  0  0  0
 61 75  1  0  0  0  0
 62 64  1  0  0  0  0
 62 73  1  0  0  0  0
 63 76  1  0  0  0  0
 65 66  1  0  0  0  0
M  CHG  2  75   1  76   1
M  ISO  4  34 101  41 100  74 100  84 101
M  END
> <Batch ID>
0105

> <Smiles>
CNC(C)C(=O)NC(C(=O)N1Cc2cc([101O:1][101CH:1]=C(C)C(=O)Nc3ccc(C[100NH:0][100C:0](=O)N4CCCC(n5nc(-c6ccc(Oc7ccc(F)cc7F)cc6)c(C(N)=O)c5N)C4)cc3CN)ccc2CC1C(=O)NC1CCCc2ccccc21)C(C)(C)C

> <Shape>
0.193

> <Color>
0.186

> <Negative vol penalty>
0.000

$$$$

  -OEChem-04052301113D

 86 94  0     1  0  0  0  0  0999 V2000
  -21.7598  -10.5671   20.9534 C   0  0  0  0  0  0  0  0  0  0  0  0
  -21.8439  -11.8426   21.5024 C   0  0  0  0  0  0  0  0  0  0  0  0
  -25.0516  -27.4846   20.7516 C   0  0  0  0  0  0  0  0  0  0  0  0
  -26.3310  -29.3291   21.6449 C   0  0  0  0  0  0  0  0  0  0  0  0
  -22.9215   -9.8907   20.5834 C   0  0  0  0  0  0  0  0  0  0  0  0
  -23.0899  -12.4420   21.6828 C   0  0  0  0  0  0  0  0  0  0  0  0
  -23.1529  -17.2801   20.1881 C   0  0  0  0  0  0  0  0  0  0  0  0
  -19.6636  -27.8788   23.6214 C   0  0  0  0  0  0  0  0  0  0  0  0
  -20.5992  -26.8485   23.7140 C   0  0  0  0  0  0  0  0  0  0  0  0
  -25.8853  -27.4475   19.6340 C   0  0  0  0  0  0  0  0  0  0  0  0
  -27.1648  -29.2920   20.5273 C   0  0  0  0  0  0  0  0  0  0  0  0
  -22.5847  -18.2194   21.0474 C   0  0  0  0  0  0  0  0  0  0  0  0
  -29.8498  -29.4481   18.0809 C   0  0  0  0  0  0  0  0  0  0  0  0
  -31.2255  -29.5351   18.2940 C   0  0  0  0  0  0  0  0  0  0  0  0
  -24.7840  -18.8200   21.8357 C   0  0  0  0  0  0  0  0  0  0  0  0
  -19.1800  -27.2352   21.3435 C   0  0  0  0  0  0  0  0  0  0  0  0
  -31.1448  -27.5269   19.6347 C   0  0  0  0  0  0  0  0  0  0  0  0
  -25.2743  -28.4255   21.7570 C   0  0  0  0  0  0  0  0  0  0  0  0
  -24.5799  -27.7636   24.1208 C   0  0  0  0  0  0  0  0  0  0  0  0
  -24.1818  -10.4860   20.7504 C   0  0  0  0  0  0  0  0  0  0  0  0
  -24.5426  -17.0956   20.1539 C   0  0  0  0  0  0  0  0  0  0  0  0
  -24.2696  -11.7724   21.3160 C   0  0  0  0  0  0  0  0  0  0  0  0
  -25.3676  -17.8794   20.9732 C   0  0  0  0  0  0  0  0  0  0  0  0
  -18.9539  -28.0722   22.4362 C   0  0  0  0  0  0  0  0  0  0  0  0
  -20.8253  -26.0115   22.6213 C   0  0  0  0  0  0  0  0  0  0  0  0
  -26.9419  -28.3511   19.5218 C   0  0  0  0  0  0  0  0  0  0  0  0
  -23.4000  -18.9875   21.8735 C   0  0  0  0  0  0  0  0  0  0  0  0
  -29.1215  -28.4005   18.6447 C   0  0  0  0  0  0  0  0  0  0  0  0
  -31.8730  -28.5745   19.0709 C   0  0  0  0  0  0  0  0  0  0  0  0
  -20.1157  -26.2048   21.4360 C   0  0  0  0  0  0  0  0  0  0  0  0
  -29.7690  -27.4399   19.4216 C   0  0  0  0  0  0  0  0  0  0  0  0
  -24.4130  -28.4647   22.9115 C   0  0  0  0  0  0  0  0  0  0  0  0
  -23.5039  -28.1399   24.8871 C   0  0  0  0  0  0  0  0  0  0  0  0
  -25.6149  -26.8536   24.5161 C   0  0  0  0  0  0  0  0  0  0  0  0
  -26.4993  -14.6688   20.7748 C   0  0  0  0  0  0  0  0  0  0  0  0
  -22.7411  -22.2479   23.3213 C   0  0  0  0  0  0  0  0  0  0  0  0
  -28.7547  -16.7052   19.6398 C   0  0  0  0  0  0  0  0  0  0  0  0
  -29.7135  -19.9258   19.0434 C   0  0  0  0  0  0  0  0  0  0  0  0
  -18.0937  -30.3446   23.0586 C   0  0  0  0  0  0  0  0  0  0  0  0
  -25.4123   -9.6969   20.3793 C   0  0  0  0  0  0  0  0  0  0  0  0
  -25.1419  -16.0970   19.2021 C   0  0  0  0  0  0  0  0  0  0  0  0
  -26.8667  -17.7342   20.9597 C   0  0  0  0  0  0  0  0  0  0  0  0
  -26.6706  -10.5524   20.2568 C   0  0  0  0  0  0  0  0  0  0  0  0
  -20.4338  -31.7408   25.5621 C   0  0  0  0  0  0  0  0  0  0  0  0
  -26.7904  -11.4992   21.4468 C   0  0  0  0  0  0  0  0  0  0  0  0
  -21.7542  -31.0581   25.2102 C   0  0  0  0  0  0  0  0  0  0  0  0
  -19.5330  -31.8955   24.3405 C   0  0  0  0  0  0  0  0  0  0  0  0
  -20.5911  -29.9237   23.2757 C   0  0  0  0  0  0  0  0  0  0  0  0
  -25.6014  -12.4660   21.5045 C   0  0  1  0  0  0  0  0  0  0  0  0
  -26.5328  -15.6316   19.6218 C   0  0  1  0  0  0  0  0  0  0  0  0
  -21.4996  -29.7197   24.4973 C   0  0  1  0  0  0  0  0  0  0  0  0
  -16.6917  -29.3930   20.2607 C   0  0  0  0  0  0  0  0  0  0  0  0
  -31.6265  -21.2768   18.1421 C   0  0  0  0  0  0  0  0  0  0  0  0
  -30.3036  -16.2325   22.2257 C   0  0  0  0  0  0  0  0  0  0  0  0
  -31.6629  -18.2687   21.7019 C   0  0  0  0  0  0  0  0  0  0  0  0
  -31.7153  -16.3063   20.1627 C   0  0  0  0  0  0  0  0  0  0  0  0
  -28.0437  -21.0618   16.8800 C   0  0  0  0  0  0  0  0  0  0  0  0
  -23.4662  -23.5375   23.6790 C   0  0  0  0  0  0  0  0  0  0  0  0
  -23.6308  -21.0571   23.0221 C   0  0  0  0  0  0  0  0  0  1  0  0
  -16.7170  -28.8528   21.6763 C   0  0  0  0  0  0  0  0  0  0  0  0
  -22.5330  -24.7209   23.9033 C   0  0  0  0  0  0  0  0  0  0  0  0
  -29.6477  -17.7588   20.2493 C   0  0  1  0  0  0  0  0  0  0  0  0
  -30.3109  -20.5878   17.8149 C   0  0  2  0  0  0  0  0  0  0  0  0
  -30.8041  -17.1432   21.0868 C   0  0  0  0  0  0  0  0  0  0  0  0
  -23.3173  -29.2284   22.9052 N   0  0  0  0  0  0  0  0  0  0  0  0
  -22.7858  -29.0094   24.1199 N   0  0  0  0  0  0  0  0  0  0  0  0
  -27.4046  -16.7401   20.0164 N   0  0  0  0  0  0  0  0  0  0  0  0
  -19.3484  -30.6248   23.6377 N   0  0  0  0  0  0  0  0  0  0  0  0
  -23.1115  -27.8085   26.1355 N   0  0  0  0  0  0  0  0  0  0  0  0
  -26.6454  -26.5781   23.6070 N   0  0  0  0  0  0  0  0  0  0  0  0
  -21.7557  -24.9896   22.7156 N   0  0  0  0  0  0  0  0  0  0  0  0
  -25.7633  -13.5248   20.5313 N   0  0  0  0  0  0  0  0  0  0  0  0
  -30.0929  -18.6042   19.1468 N   0  0  0  0  0  0  0  0  0  0  0  0
  -17.9867  -29.1381   22.3408 N   0  0  0  0  0  0  0  0  0  0  0  0
  -29.3709  -21.6060   17.2664 N   0  3  0  0  0  0  0  0  0  0  0  0
  -25.6169  -26.2886   25.6360 O   0  0  0  0  0  0  0  0  0  0  0  0
  -27.0981  -14.9427   21.8083 O   0  0  0  0  0  0  0  0  0  0  0  0
  -21.5149  -22.1700   23.2634 O   0  0  0  0  0  0  0  0  0  0  0  0
  -29.2357  -15.8862   18.8528 O   0  0  0  0  0  0  0  0  0  0  0  0
  -28.9863  -20.5224   19.8344 O   0  0  0  0  0  0  0  0  0  0  0  0
  -17.1487  -31.1400   23.1279 O   0  0  0  0  0  0  0  0  0  0  0  0
  -27.7559  -28.3150   18.4315 O   0  0  0  0  0  0  0  0  0  0  0  0
  -22.8479  -19.9046   22.7136 O   0  0  0  0  0  0  0  0  0  1  0  0
  -33.1943  -28.6574   19.2743 F   0  0  0  0  0  0  0  0  0  0  0  0
  -20.3264  -25.4072   20.3793 F   0  0  0  0  0  0  0  0  0  0  0  0
  -29.0750  -26.4305   19.9649 F   0  0  0  0  0  0  0  0  0  0  0  0
  1  2  1  0  0  0  0
  1  5  2  0  0  0  0
  2  6  2  0  0  0  0
  3 10  2  0  0  0  0
  3 18  1  0  0  0  0
  4 11  1  0  0  0  0
  4 18  2  0  0  0  0
  5 20  1  0  0  0  0
  6 22  1  0  0  0  0
  7 12  2  0  0  0  0
  7 21  1  0  0  0  0
  8  9  2  0  0  0  0
  8 24  1  0  0  0  0
  9 25  1  0  0  0  0
 10 26  1  0  0  0  0
 11 26  2  0  0  0  0
 12 27  1  0  0  0  0
 13 14  2  0  0  0  0
 13 28  1  0  0  0  0
 14 29  1  0  0  0  0
 15 23  1  0  0  0  0
 15 27  2  0  0  0  0
 16 24  2  0  0  0  0
 16 30  1  0  0  0  0
 17 29  2  0  0  0  0
 17 31  1  0  0  0  0
 18 32  1  0  0  0  0
 19 32  1  0  0  0  0
 19 33  2  0  0  0  0
 19 34  1  0  0  0  0
 20 22  2  0  0  0  0
 20 40  1  0  0  0  0
 21 23  2  0  0  0  0
 21 41  1  0  0  0  0
 22 49  1  0  0  0  0
 23 42  1  0  0  0  0
 24 74  1  0  0  0  0
 25 30  2  0  0  0  0
 25 71  1  0  0  0  0
 26 82  1  0  0  0  0
 27 83  1  0  0  0  0
 28 31  2  0  0  0  0
 28 82  1  0  0  0  0
 29 84  1  0  0  0  0
 30 85  1  0  0  0  0
 31 86  1  0  0  0  0
 32 65  2  0  0  0  0
 33 66  1  0  0  0  0
 33 69  1  0  0  0  0
 34 70  1  0  0  0  0
 34 76  2  0  0  0  0
 35 50  1  0  0  0  0
 35 72  1  0  0  0  0
 35 77  2  0  0  0  0
 36 58  1  0  0  0  0
 36 59  1  0  0  0  0
 36 78  2  0  0  0  0
 37 62  1  0  0  0  0
 37 67  1  0  0  0  0
 37 79  2  0  0  0  0
 38 63  1  0  0  0  0
 38 73  1  0  0  0  0
 38 80  2  0  0  0  0
 39 68  1  0  0  0  0
 39 74  1  0  0  0  0
 39 81  2  0  0  0  0
 40 43  1  0  0  0  0
 41 50  1  0  0  0  0
 42 67  1  0  0  0  0
 43 45  1  0  0  0  0
 44 46  1  0  0  0  0
 44 47  1  0  0  0  0
 45 49  1  0  0  0  0
 46 51  1  0  0  0  0
 47 68  1  0  0  0  0
 48 51  1  0  0  0  0
 48 68  1  0  0  0  0
 49 72  1  0  0  0  0
 50 67  1  0  0  0  0
 51 66  1  0  0  0  0
 52 60  1  0  0  0  0
 53 63  1  0  0  0  0
 54 64  1  0  0  0  0
 55 64  1  0  0  0  0
 56 64  1  0  0  0  0
 57 75  1  0  0  0  0
 58 61  1  0  0  0  0
 59 83  1  0  0  0  0
 60 74  1  0  0  0  0
 61 71  1  0  0  0  0
 62 64  1  0  0  0  0
 62 73  1  0  0  0  0
 63 75  1  0  0  0  0
 65 66  1  0  0  0  0
M  CHG  1  75   1
M  ISO  4  39 100  59 101  74 100  83 101
M  END
> <Batch ID>
0105

> <Smiles>
CC[100N:0](c1ccc(NCCC(=O)[101CH2:1][101O:1]c2ccc3c(c2)CN(C(=O)C(NC(=O)C(C)NC)C(C)(C)C)C(C(=O)NC2CCCc4ccccc42)C3)c(F)c1)[100C:0](=O)N1CCCC(n2nc(-c3ccc(Oc4ccc(F)cc4F)cc3)c(C(N)=O)c2N)C1

> <Shape>
0.243

> <Color>
0.058

> <Negative vol penalty>
0.000

$$$$

  -OEChem-04052301113D

 86 94  0     1  0  0  0  0  0999 V2000
  -28.8415  -11.6886   19.3279 C   0  0  0  0  0  0  0  0  0  0  0  0
  -28.8174  -13.0642   19.1211 C   0  0  0  0  0  0  0  0  0  0  0  0
  -23.9790  -28.6140   23.4131 C   0  0  0  0  0  0  0  0  0  0  0  0
  -22.7450  -27.6124   21.5935 C   0  0  0  0  0  0  0  0  0  0  0  0
  -27.7137  -11.0405   19.8300 C   0  0  0  0  0  0  0  0  0  0  0  0
  -27.6651  -13.7923   19.4153 C   0  0  0  0  0  0  0  0  0  0  0  0
  -28.6625  -18.0796   21.9191 C   0  0  0  0  0  0  0  0  0  0  0  0
  -34.8149  -28.6263   21.5663 C   0  0  0  0  0  0  0  0  0  0  0  0
  -34.3611  -27.3074   21.5560 C   0  0  0  0  0  0  0  0  0  0  0  0
  -22.8104  -28.6745   24.1723 C   0  0  0  0  0  0  0  0  0  0  0  0
  -21.5764  -27.6728   22.3526 C   0  0  0  0  0  0  0  0  0  0  0  0
  -29.1431  -19.1552   21.1736 C   0  0  0  0  0  0  0  0  0  0  0  0
  -19.2850  -30.0037   23.2172 C   0  0  0  0  0  0  0  0  0  0  0  0
  -18.1278  -30.4652   22.5899 C   0  0  0  0  0  0  0  0  0  0  0  0
  -32.7528  -27.8741   19.8444 C   0  0  0  0  0  0  0  0  0  0  0  0
  -26.9318  -20.1189   21.1496 C   0  0  0  0  0  0  0  0  0  0  0  0
  -17.0392  -28.3574   23.0474 C   0  0  0  0  0  0  0  0  0  0  0  0
  -23.9463  -28.0830   22.1237 C   0  0  0  0  0  0  0  0  0  0  0  0
  -33.2066  -29.1930   19.8548 C   0  0  0  0  0  0  0  0  0  0  0  0
  -26.0819  -26.9641   21.2901 C   0  0  0  0  0  0  0  0  0  0  0  0
  -26.5503  -11.7625   20.1396 C   0  0  0  0  0  0  0  0  0  0  0  0
  -27.3084  -18.0100   22.2767 C   0  0  0  0  0  0  0  0  0  0  0  0
  -26.5203  -13.1530   19.9208 C   0  0  0  0  0  0  0  0  0  0  0  0
  -26.4370  -19.0426   21.9018 C   0  0  0  0  0  0  0  0  0  0  0  0
  -34.2376  -29.5691   20.7157 C   0  0  0  0  0  0  0  0  0  0  0  0
  -33.3301  -26.9312   20.6951 C   0  0  0  0  0  0  0  0  0  0  0  0
  -21.6091  -28.2039   23.6421 C   0  0  0  0  0  0  0  0  0  0  0  0
  -28.2772  -20.1737   20.7862 C   0  0  0  0  0  0  0  0  0  0  0  0
  -19.3193  -28.7190   23.7596 C   0  0  0  0  0  0  0  0  0  0  0  0
  -17.0049  -29.6421   22.5050 C   0  0  0  0  0  0  0  0  0  0  0  0
  -18.1964  -27.8959   23.6747 C   0  0  0  0  0  0  0  0  0  0  0  0
  -25.1530  -28.0207   21.3387 C   0  0  0  0  0  0  0  0  0  0  0  0
  -27.0409  -27.3905   20.4040 C   0  0  0  0  0  0  0  0  0  0  0  0
  -32.5747  -30.1765   18.9381 C   0  0  0  0  0  0  0  0  0  0  0  0
  -26.0783  -25.7094   21.9838 C   0  0  0  0  0  0  0  0  0  0  0  0
  -24.9280  -15.9937   21.6666 C   0  0  0  0  0  0  0  0  0  0  0  0
  -23.3254  -17.8571   23.7836 C   0  0  0  0  0  0  0  0  0  0  0  0
  -31.8579  -25.0494   19.8989 C   0  0  0  0  0  0  0  0  0  0  0  0
  -23.0145  -20.8893   25.3185 C   0  0  0  0  0  0  0  0  0  0  0  0
  -30.4303  -31.2829   18.3894 C   0  0  0  0  0  0  0  0  0  0  0  0
  -25.3402  -11.0112   20.6357 C   0  0  0  0  0  0  0  0  0  0  0  0
  -26.8111  -16.8564   23.1039 C   0  0  0  0  0  0  0  0  0  0  0  0
  -24.9786  -19.0253   22.2777 C   0  0  0  0  0  0  0  0  0  0  0  0
  -24.2849  -11.9102   21.2747 C   0  0  0  0  0  0  0  0  0  0  0  0
  -27.0854  -31.3512   17.2474 C   0  0  0  0  0  0  0  0  0  0  0  0
  -24.0277  -13.1348   20.4024 C   0  0  0  0  0  0  0  0  0  0  0  0
  -26.3591  -30.3977   18.2000 C   0  0  0  0  0  0  0  0  0  0  0  0
  -28.1539  -32.1705   17.9700 C   0  0  0  0  0  0  0  0  0  0  0  0
  -28.3906  -30.4376   19.7018 C   0  0  0  0  0  0  0  0  0  0  0  0
  -25.2975  -13.9811   20.2511 C   0  0  1  0  0  0  0  0  0  0  0  0
  -25.3079  -16.6314   22.9730 C   0  0  1  0  0  0  0  0  0  0  0  0
  -27.3530  -29.5399   19.0084 C   0  0  1  0  0  0  0  0  0  0  0  0
  -34.7427  -30.9748   20.7470 C   0  0  0  0  0  0  0  0  0  0  0  0
  -21.5857  -22.1229   26.9721 C   0  0  0  0  0  0  0  0  0  0  0  0
  -21.1589  -18.1886   21.6608 C   0  0  0  0  0  0  0  0  0  0  0  0
  -20.2733  -20.1317   22.9678 C   0  0  0  0  0  0  0  0  0  0  0  0
  -20.2993  -17.8543   23.9854 C   0  0  0  0  0  0  0  0  0  0  0  0
  -25.2943  -21.2941   27.1617 C   0  0  0  0  0  0  0  0  0  0  0  0
  -31.6800  -23.5690   20.2063 C   0  0  0  0  0  0  0  0  0  0  0  0
  -30.2474  -23.0927   19.9928 C   0  0  0  0  0  0  0  0  0  0  0  0
  -30.1049  -21.6015   20.2602 C   0  0  0  0  0  0  0  0  0  1  0  0
  -22.4774  -19.1021   23.6839 C   0  0  1  0  0  0  0  0  0  0  0  0
  -22.8265  -21.2654   26.7772 C   0  0  2  0  0  0  0  0  0  0  0  0
  -21.0793  -18.8188   23.0656 C   0  0  0  0  0  0  0  0  0  0  0  0
  -25.4913  -29.0416   20.5467 N   0  0  0  0  0  0  0  0  0  0  0  0
  -26.6437  -28.6285   19.9921 N   0  0  0  0  0  0  0  0  0  0  0  0
  -24.5390  -17.8729   23.0816 N   0  0  0  0  0  0  0  0  0  0  0  0
  -29.0599  -31.2845   18.7031 N   0  0  0  0  0  0  0  0  0  0  0  0
  -28.1767  -26.8235   19.9450 N   0  0  0  0  0  0  0  0  0  0  0  0
  -25.0177  -25.4317   22.8569 N   0  0  0  0  0  0  0  0  0  0  0  0
  -32.8686  -25.5934   20.6864 N   0  0  0  0  0  0  0  0  0  0  0  0
  -31.2047  -30.3714   19.1157 N   0  0  0  0  0  0  0  0  0  0  0  0
  -25.5257  -14.7678   21.4442 N   0  0  0  0  0  0  0  0  0  0  0  0
  -22.4328  -19.6741   25.0253 N   0  0  0  0  0  0  0  0  0  0  0  0
  -24.0074  -22.0282   27.2718 N   0  3  0  0  0  0  0  0  0  0  0  0
  -33.2763  -30.7746   18.1270 O   0  0  0  0  0  0  0  0  0  0  0  0
  -26.9971  -24.8665   21.8464 O   0  0  0  0  0  0  0  0  0  0  0  0
  -24.1492  -16.5704   20.9167 O   0  0  0  0  0  0  0  0  0  0  0  0
  -22.9291  -16.9084   24.4652 O   0  0  0  0  0  0  0  0  0  0  0  0
  -31.1734  -25.6273   19.0612 O   0  0  0  0  0  0  0  0  0  0  0  0
  -23.6139  -21.6041   24.5183 O   0  0  0  0  0  0  0  0  0  0  0  0
  -30.9166  -32.0031   17.5118 O   0  0  0  0  0  0  0  0  0  0  0  0
  -20.4687  -28.2625   24.3827 O   0  0  0  0  0  0  0  0  0  0  0  0
  -28.7436  -21.2244   20.0580 O   0  0  0  0  0  0  0  0  0  1  0  0
  -15.8932  -30.0860   21.9040 F   0  0  0  0  0  0  0  0  0  0  0  0
  -18.2230  -26.6612   24.1949 F   0  0  0  0  0  0  0  0  0  0  0  0
  1  2  1  0  0  0  0
  1  5  2  0  0  0  0
  2  6  2  0  0  0  0
  3 10  2  0  0  0  0
  3 18  1  0  0  0  0
  4 11  1  0  0  0  0
  4 18  2  0  0  0  0
  5 21  1  0  0  0  0
  6 23  1  0  0  0  0
  7 12  2  0  0  0  0
  7 22  1  0  0  0  0
  8  9  2  0  0  0  0
  8 25  1  0  0  0  0
  9 26  1  0  0  0  0
 10 27  1  0  0  0  0
 11 27  2  0  0  0  0
 12 28  1  0  0  0  0
 13 14  2  0  0  0  0
 13 29  1  0  0  0  0
 14 30  1  0  0  0  0
 15 19  1  0  0  0  0
 15 26  2  0  0  0  0
 16 24  1  0  0  0  0
 16 28  2  0  0  0  0
 17 30  2  0  0  0  0
 17 31  1  0  0  0  0
 18 32  1  0  0  0  0
 19 25  2  0  0  0  0
 19 34  1  0  0  0  0
 20 32  1  0  0  0  0
 20 33  2  0  0  0  0
 20 35  1  0  0  0  0
 21 23  2  0  0  0  0
 21 41  1  0  0  0  0
 22 24  2  0  0  0  0
 22 42  1  0  0  0  0
 23 50  1  0  0  0  0
 24 43  1  0  0  0  0
 25 53  1  0  0  0  0
 26 71  1  0  0  0  0
 27 83  1  0  0  0  0
 28 84  1  0  0  0  0
 29 31  2  0  0  0  0
 29 83  1  0  0  0  0
 30 85  1  0  0  0  0
 31 86  1  0  0  0  0
 32 65  2  0  0  0  0
 33 66  1  0  0  0  0
 33 69  1  0  0  0  0
 34 72  1  0  0  0  0
 34 76  2  0  0  0  0
 35 70  1  0  0  0  0
 35 77  2  0  0  0  0
 36 51  1  0  0  0  0
 36 73  1  0  0  0  0
 36 78  2  0  0  0  0
 37 62  1  0  0  0  0
 37 67  1  0  0  0  0
 37 79  2  0  0  0  0
 38 59  1  0  0  0  0
 38 71  1  0  0  0  0
 38 80  2  0  0  0  0
 39 63  1  0  0  0  0
 39 74  1  0  0  0  0
 39 81  2  0  0  0  0
 40 68  1  0  0  0  0
 40 72  1  0  0  0  0
 40 82  2  0  0  0  0
 41 44  1  0  0  0  0
 42 51  1  0  0  0  0
 43 67  1  0  0  0  0
 44 46  1  0  0  0  0
 45 47  1  0  0  0  0
 45 48  1  0  0  0  0
 46 50  1  0  0  0  0
 47 52  1  0  0  0  0
 48 68  1  0  0  0  0
 49 52  1  0  0  0  0
 49 68  1  0  0  0  0
 50 73  1  0  0  0  0
 51 67  1  0  0  0  0
 52 66  1  0  0  0  0
 54 63  1  0  0  0  0
 55 64  1  0  0  0  0
 56 64  1  0  0  0  0
 57 64  1  0  0  0  0
 58 75  1  0  0  0  0
 59 60  1  0  0  0  0
 60 61  1  0  0  0  0
 61 84  1  0  0  0  0
 62 64  1  0  0  0  0
 62 74  1  0  0  0  0
 63 75  1  0  0  0  0
 65 66  1  0  0  0  0
M  CHG  1  75   1
M  ISO  4  40 100  61 101  72 100  84 101
M  END
> <Batch ID>
0105

> <Smiles>
CNC(C)C(=O)NC(C(=O)N1Cc2cc([101O:1][101CH2:1]CCC(=O)Nc3ccc(C)c(C(=O)[100NH:0][100C:0](=O)N4CCCC(n5nc(-c6ccc(Oc7ccc(F)cc7F)cc6)c(C(N)=O)c5N)C4)c3)ccc2CC1C(=O)NC1CCCc2ccccc21)C(C)(C)C

> <Shape>
0.190

> <Color>
0.092

> <Negative vol penalty>
0.000

$$$$

  -OEChem-04052301113D

 88 96  0     1  0  0  0  0  0999 V2000
  -32.7681  -26.2503   27.5148 C   0  0  0  0  0  0  0  0  0  0  0  0
  -33.4612  -25.6727   26.4559 C   0  0  0  0  0  0  0  0  0  0  0  0
  -22.9765   -9.9452   20.0179 C   0  0  0  0  0  0  0  0  0  0  0  0
  -23.6877  -10.0398   22.3249 C   0  0  0  0  0  0  0  0  0  0  0  0
  -31.3810  -26.1288   27.5875 C   0  0  0  0  0  0  0  0  0  0  0  0
  -32.7678  -24.9721   25.4696 C   0  0  0  0  0  0  0  0  0  0  0  0
  -34.1278  -24.6959   19.5047 C   0  0  0  0  0  0  0  0  0  0  0  0
  -22.1930   -8.8276   20.3052 C   0  0  0  0  0  0  0  0  0  0  0  0
  -22.9041   -8.9222   22.6123 C   0  0  0  0  0  0  0  0  0  0  0  0
  -34.7982  -23.7433   18.7386 C   0  0  0  0  0  0  0  0  0  0  0  0
  -23.1061   -5.5702   22.2192 C   0  0  0  0  0  0  0  0  0  0  0  0
  -23.6750   -4.5629   22.9985 C   0  0  0  0  0  0  0  0  0  0  0  0
  -31.9543  -17.2196   21.4719 C   0  0  0  0  0  0  0  0  0  0  0  0
  -32.6832  -22.7645   18.1158 C   0  0  0  0  0  0  0  0  0  0  0  0
  -30.4253  -18.9864   22.9963 C   0  0  0  0  0  0  0  0  0  0  0  0
  -21.9440   -4.8677   24.6562 C   0  0  0  0  0  0  0  0  0  0  0  0
  -23.7239  -10.5513   21.0277 C   0  0  0  0  0  0  0  0  0  0  0  0
  -32.4914  -18.4447   21.8671 C   0  0  0  0  0  0  0  0  0  0  0  0
  -24.1444  -13.0567   20.7962 C   0  0  0  0  0  0  0  0  0  0  0  0
  -30.6692  -25.4346   26.5965 C   0  0  0  0  0  0  0  0  0  0  0  0
  -32.7282  -24.6832   19.5909 C   0  0  0  0  0  0  0  0  0  0  0  0
  -31.3700  -24.8400   25.5298 C   0  0  0  0  0  0  0  0  0  0  0  0
  -31.9973  -23.7195   18.8815 C   0  0  0  0  0  0  0  0  0  0  0  0
  -31.7270  -19.3281   22.6293 C   0  0  0  0  0  0  0  0  0  0  0  0
  -30.6526  -16.8779   21.8389 C   0  0  0  0  0  0  0  0  0  0  0  0
  -22.1568   -8.3161   21.6024 C   0  0  0  0  0  0  0  0  0  0  0  0
  -34.0761  -22.7756   18.0464 C   0  0  0  0  0  0  0  0  0  0  0  0
  -21.9562   -6.2263   22.6584 C   0  0  0  0  0  0  0  0  0  0  0  0
  -29.8882  -17.7613   22.6011 C   0  0  0  0  0  0  0  0  0  0  0  0
  -23.0940   -4.2116   24.2169 C   0  0  0  0  0  0  0  0  0  0  0  0
  -21.3751   -5.8751   23.8769 C   0  0  0  0  0  0  0  0  0  0  0  0
  -24.5339  -11.7055   20.7314 C   0  0  0  0  0  0  0  0  0  0  0  0
  -25.2662  -13.7557   20.4226 C   0  0  0  0  0  0  0  0  0  0  0  0
  -33.8800  -18.7831   21.4631 C   0  0  0  0  0  0  0  0  0  0  0  0
  -22.8816  -13.6289   21.1616 C   0  0  0  0  0  0  0  0  0  0  0  0
  -30.6294  -24.3102   21.9488 C   0  0  0  0  0  0  0  0  0  0  0  0
  -28.4810  -25.0269   19.6265 C   0  0  0  0  0  0  0  0  0  0  0  0
  -35.3561  -19.0974   19.5071 C   0  0  0  0  0  0  0  0  0  0  0  0
  -27.7329  -25.1115   16.2978 C   0  0  0  0  0  0  0  0  0  0  0  0
  -30.7566  -14.6483   20.6707 C   0  0  0  0  0  0  0  0  0  0  0  0
  -29.1752  -25.2894   26.7430 C   0  0  0  0  0  0  0  0  0  0  0  0
  -32.0187  -25.7341   20.4001 C   0  0  0  0  0  0  0  0  0  0  0  0
  -30.4924  -23.6751   18.9249 C   0  0  0  0  0  0  0  0  0  0  0  0
  -28.4770  -24.8506   25.4584 C   0  0  0  0  0  0  0  0  0  0  0  0
  -29.6199  -12.1575   18.3946 C   0  0  0  0  0  0  0  0  0  0  0  0
  -29.2242  -23.6864   24.8156 C   0  0  0  0  0  0  0  0  0  0  0  0
  -28.1633  -11.9290   18.8050 C   0  0  0  0  0  0  0  0  0  0  0  0
  -30.5159  -12.4167   19.6044 C   0  0  0  0  0  0  0  0  0  0  0  0
  -28.6031  -13.2619   20.9066 C   0  0  0  0  0  0  0  0  0  0  0  0
  -30.6508  -24.0934   24.4274 C   0  0  1  0  0  0  0  0  0  0  0  0
  -30.6168  -25.3123   20.8293 C   0  0  1  0  0  0  0  0  0  0  0  0
  -27.6505  -13.0609   19.7167 C   0  0  2  0  0  0  0  0  0  0  0  0
  -32.2777  -20.6465   23.0655 C   0  0  0  0  0  0  0  0  0  0  0  0
  -25.8861  -25.7118   14.7085 C   0  0  0  0  0  0  0  0  0  0  0  0
  -27.0126  -22.4565   20.3657 C   0  0  0  0  0  0  0  0  0  0  0  0
  -25.7830  -22.6158   18.1907 C   0  0  0  0  0  0  0  0  0  0  0  0
  -25.5240  -24.4119   19.9023 C   0  0  0  0  0  0  0  0  0  0  0  0
  -29.3875  -27.1768   14.9728 C   0  0  0  0  0  0  0  0  0  0  0  0
  -27.5687  -17.8337   22.0810 C   0  0  0  0  0  0  0  0  0  0  0  0
  -35.2709  -19.0754   17.9907 C   0  0  0  0  0  0  0  0  0  0  0  0
  -36.2787  -20.0140   17.3367 C   0  0  0  0  0  0  0  0  0  0  0  0
  -36.0343  -21.4638   17.7290 C   0  0  0  0  0  0  0  0  0  1  0  0
  -27.6929  -24.2289   18.6160 C   0  0  1  0  0  0  0  0  0  0  0  0
  -27.1335  -26.2013   15.4275 C   0  0  2  0  0  0  0  0  0  0  0  0
  -26.5316  -23.4276   19.2692 C   0  0  0  0  0  0  0  0  0  0  0  0
  -25.8039  -11.5528   20.3466 N   0  0  0  0  0  0  0  0  0  0  0  0
  -26.2220  -12.8172   20.1663 N   0  0  0  0  0  0  0  0  0  0  0  0
  -29.8448  -24.7201   19.7349 N   0  0  0  0  0  0  0  0  0  0  0  0
  -29.9700  -13.5043   20.4193 N   0  0  0  0  0  0  0  0  0  0  0  0
  -25.5183  -15.0754   20.2915 N   0  0  0  0  0  0  0  0  0  0  0  0
  -21.8357  -12.7669   21.5186 N   0  0  0  0  0  0  0  0  0  0  0  0
  -30.1204  -15.6300   21.4297 N   0  0  0  0  0  0  0  0  0  0  0  0
  -34.1151  -18.8288   20.0900 N   0  0  0  0  0  0  0  0  0  0  0  0
  -30.6396  -24.8754   23.2097 N   0  0  0  0  0  0  0  0  0  0  0  0
  -27.2638  -25.1762   17.5928 N   0  0  0  0  0  0  0  0  0  0  0  0
  -28.1206  -26.6487   14.4045 N   0  3  0  0  0  0  0  0  0  0  0  0
  -34.7264  -18.9715   22.3326 O   0  0  0  0  0  0  0  0  0  0  0  0
  -22.6815  -14.8672   21.1554 O   0  0  0  0  0  0  0  0  0  0  0  0
  -30.6284  -23.1128   21.6880 O   0  0  0  0  0  0  0  0  0  0  0  0
  -27.9092  -25.8955   20.2900 O   0  0  0  0  0  0  0  0  0  0  0  0
  -36.3954  -19.3269   20.1193 O   0  0  0  0  0  0  0  0  0  0  0  0
  -28.5341  -24.2831   15.8707 O   0  0  0  0  0  0  0  0  0  0  0  0
  -31.8999  -14.7614   20.2211 O   0  0  0  0  0  0  0  0  0  0  0  0
  -21.3921   -7.2256   21.8833 O   0  0  0  0  0  0  0  0  0  0  0  0
  -28.6142  -17.4465   22.9698 O   0  0  0  0  0  0  0  0  0  0  0  0
  -34.7281  -21.8443   17.2984 O   0  0  0  0  0  0  0  0  0  1  0  0
  -23.6395   -3.2433   24.9644 F   0  0  0  0  0  0  0  0  0  0  0  0
  -20.2697   -6.5010   24.3035 F   0  0  0  0  0  0  0  0  0  0  0  0
  1  2  1  0  0  0  0
  1  5  2  0  0  0  0
  2  6  2  0  0  0  0
  3  8  2  0  0  0  0
  3 17  1  0  0  0  0
  4  9  1  0  0  0  0
  4 17  2  0  0  0  0
  5 20  1  0  0  0  0
  6 22  1  0  0  0  0
  7 10  2  0  0  0  0
  7 21  1  0  0  0  0
  8 26  1  0  0  0  0
  9 26  2  0  0  0  0
 10 27  1  0  0  0  0
 11 12  2  0  0  0  0
 11 28  1  0  0  0  0
 12 30  1  0  0  0  0
 13 18  1  0  0  0  0
 13 25  2  0  0  0  0
 14 23  1  0  0  0  0
 14 27  2  0  0  0  0
 15 24  1  0  0  0  0
 15 29  2  0  0  0  0
 16 30  2  0  0  0  0
 16 31  1  0  0  0  0
 17 32  1  0  0  0  0
 18 24  2  0  0  0  0
 18 34  1  0  0  0  0
 19 32  1  0  0  0  0
 19 33  2  0  0  0  0
 19 35  1  0  0  0  0
 20 22  2  0  0  0  0
 20 41  1  0  0  0  0
 21 23  2  0  0  0  0
 21 42  1  0  0  0  0
 22 50  1  0  0  0  0
 23 43  1  0  0  0  0
 24 53  1  0  0  0  0
 25 29  1  0  0  0  0
 25 72  1  0  0  0  0
 26 84  1  0  0  0  0
 27 86  1  0  0  0  0
 28 31  2  0  0  0  0
 28 84  1  0  0  0  0
 29 85  1  0  0  0  0
 30 87  1  0  0  0  0
 31 88  1  0  0  0  0
 32 66  2  0  0  0  0
 33 67  1  0  0  0  0
 33 70  1  0  0  0  0
 34 73  1  0  0  0  0
 34 77  2  0  0  0  0
 35 71  1  0  0  0  0
 35 78  2  0  0  0  0
 36 51  1  0  0  0  0
 36 74  1  0  0  0  0
 36 79  2  0  0  0  0
 37 63  1  0  0  0  0
 37 68  1  0  0  0  0
 37 80  2  0  0  0  0
 38 60  1  0  0  0  0
 38 73  1  0  0  0  0
 38 81  2  0  0  0  0
 39 64  1  0  0  0  0
 39 75  1  0  0  0  0
 39 82  2  0  0  0  0
 40 69  1  0  0  0  0
 40 72  1  0  0  0  0
 40 83  2  0  0  0  0
 41 44  1  0  0  0  0
 42 51  1  0  0  0  0
 43 68  1  0  0  0  0
 44 46  1  0  0  0  0
 45 47  1  0  0  0  0
 45 48  1  0  0  0  0
 46 50  1  0  0  0  0
 47 52  1  0  0  0  0
 48 69  1  0  0  0  0
 49 52  1  0  0  0  0
 49 69  1  0  0  0  0
 50 74  1  0  0  0  0
 51 68  1  0  0  0  0
 52 67  1  0  0  0  0
 54 64  1  0  0  0  0
 55 65  1  0  0  0  0
 56 65  1  0  0  0  0
 57 65  1  0  0  0  0
 58 76  1  0  0  0  0
 59 85  1  0  0  0  0
 60 61  1  0  0  0  0
 61 62  1  0  0  0  0
 62 86  1  0  0  0  0
 63 65  1  0  0  0  0
 63 75  1  0  0  0  0
 64 76  1  0  0  0  0
 66 67  1  0  0  0  0
M  CHG  1  76   1
M  ISO  4  40 100  62 101  72 100  86 101
M  END
> <Batch ID>
0105

> <Smiles>
CNC(C)C(=O)NC(C(=O)N1Cc2cc([101O:1][101CH2:1]CCC(=O)NC(=O)c3cc([100NH:0][100C:0](=O)N4CCCC(n5nc(-c6ccc(Oc7ccc(F)cc7F)cc6)c(C(N)=O)c5N)C4)c(OC)cc3C)ccc2CC1C(=O)NC1CCCc2ccccc21)C(C)(C)C

> <Shape>
0.219

> <Color>
0.197

> <Negative vol penalty>
0.000

$$$$
