
  -OEChem-04052301143D

 87 96  0     1  0  0  0  0  0999 V2000
  -26.3889  -34.3953   27.2132 C   0  0  0  0  0  0  0  0  0  0  0  0
  -26.9724  -33.3774   26.4656 C   0  0  0  0  0  0  0  0  0  0  0  0
  -24.3730   -8.9336   21.4434 C   0  0  0  0  0  0  0  0  0  0  0  0
  -24.3097  -10.5009   23.2809 C   0  0  0  0  0  0  0  0  0  0  0  0
  -25.0080  -34.4145   27.4046 C   0  0  0  0  0  0  0  0  0  0  0  0
  -26.1752  -32.3774   25.9097 C   0  0  0  0  0  0  0  0  0  0  0  0
  -27.0511  -29.5159   20.5665 C   0  0  0  0  0  0  0  0  0  0  0  0
  -23.9483   -7.9156   22.2971 C   0  0  0  0  0  0  0  0  0  0  0  0
  -23.8849   -9.4829   24.1347 C   0  0  0  0  0  0  0  0  0  0  0  0
  -27.6193  -28.2842   20.2442 C   0  0  0  0  0  0  0  0  0  0  0  0
  -21.0431   -6.8715   23.6766 C   0  0  0  0  0  0  0  0  0  0  0  0
  -20.0357   -6.0214   23.2207 C   0  0  0  0  0  0  0  0  0  0  0  0
  -25.4231  -27.2867   20.2108 C   0  0  0  0  0  0  0  0  0  0  0  0
  -27.2730  -18.9770   19.2406 C   0  0  0  0  0  0  0  0  0  0  0  0
  -21.5228   -4.1320   23.4573 C   0  0  0  0  0  0  0  0  0  0  0  0
  -24.5538  -10.2263   21.9354 C   0  0  0  0  0  0  0  0  0  0  0  0
  -24.1840  -12.1409   20.2906 C   0  0  0  0  0  0  0  0  0  0  0  0
  -24.1925  -33.4195   26.8427 C   0  0  0  0  0  0  0  0  0  0  0  0
  -25.6633  -29.6400   20.7243 C   0  0  0  0  0  0  0  0  0  0  0  0
  -24.7822  -32.3825   26.0948 C   0  0  0  0  0  0  0  0  0  0  0  0
  -24.8396  -28.5216   20.5326 C   0  0  0  0  0  0  0  0  0  0  0  0
  -27.2260  -20.3006   18.8396 C   0  0  0  0  0  0  0  0  0  0  0  0
  -23.7042   -8.1902   23.6427 C   0  0  0  0  0  0  0  0  0  0  0  0
  -26.8055  -27.1687   20.0691 C   0  0  0  0  0  0  0  0  0  0  0  0
  -22.2905   -6.3519   24.0228 C   0  0  0  0  0  0  0  0  0  0  0  0
  -20.2755   -4.6516   23.1111 C   0  0  0  0  0  0  0  0  0  0  0  0
  -22.5303   -4.9822   23.9132 C   0  0  0  0  0  0  0  0  0  0  0  0
  -24.9931  -11.2782   21.0541 C   0  0  0  0  0  0  0  0  0  0  0  0
  -28.3932  -20.8791   18.3831 C   0  0  0  0  0  0  0  0  0  0  0  0
  -28.4840  -18.3195   19.1583 C   0  0  0  0  0  0  0  0  0  0  0  0
  -25.0744  -12.9521   19.6305 C   0  0  0  0  0  0  0  0  0  0  0  0
  -28.0464  -24.5021   18.0101 C   0  0  0  0  0  0  0  0  0  0  0  0
  -27.5159  -25.6551   18.4336 C   0  0  0  0  0  0  0  0  0  1  0  0
  -22.7553  -12.2035   20.1874 C   0  0  0  0  0  0  0  0  0  0  0  0
  -29.8261  -23.5697   19.3479 C   0  0  0  0  0  0  0  0  0  0  0  0
  -23.7420  -30.4460   23.1249 C   0  0  0  0  0  0  0  0  0  0  0  0
  -21.4500  -30.2669   20.8364 C   0  0  0  0  0  0  0  0  0  0  0  0
  -20.4476  -28.9927   17.8334 C   0  0  0  0  0  0  0  0  0  0  0  0
  -29.6502  -16.1239   19.5654 C   0  0  0  0  0  0  0  0  0  0  0  0
  -22.7098  -33.4560   27.1164 C   0  0  0  0  0  0  0  0  0  0  0  0
  -25.0637  -30.9815   21.0459 C   0  0  0  0  0  0  0  0  0  0  0  0
  -23.3422  -28.6065   20.6708 C   0  0  0  0  0  0  0  0  0  0  0  0
  -28.2371  -24.1242   16.5743 C   0  0  0  0  0  0  0  0  0  0  0  0
  -21.8955  -32.5672   26.1799 C   0  0  0  0  0  0  0  0  0  0  0  0
  -30.1018  -12.6171   19.1464 C   0  0  0  0  0  0  0  0  0  0  0  0
  -22.5409  -31.1907   26.0549 C   0  0  0  0  0  0  0  0  0  0  0  0
  -28.7464  -12.0271   19.5425 C   0  0  0  0  0  0  0  0  0  0  0  0
  -28.0858  -22.6054   16.5982 C   0  0  0  0  0  0  0  0  0  0  0  0
  -30.4709  -13.8211   20.0112 C   0  0  0  0  0  0  0  0  0  0  0  0
  -28.0956  -14.2858   20.4710 C   0  0  0  0  0  0  0  0  0  0  0  0
  -23.9484  -31.2938   25.4550 C   0  0  1  0  0  0  0  0  0  0  0  0
  -28.4208  -23.3438   18.8872 C   0  0  2  0  0  0  0  0  0  0  0  0
  -23.6834  -30.8806   21.6878 C   0  0  1  0  0  0  0  0  0  0  0  0
  -27.6510  -13.1105   19.5851 C   0  0  2  0  0  0  0  0  0  0  0  0
  -30.0516  -23.6161   20.8349 C   0  0  0  0  0  0  0  0  0  0  0  0
  -18.5084  -28.9962   16.2405 C   0  0  0  0  0  0  0  0  0  0  0  0
  -19.9383  -28.3592   22.6764 C   0  0  0  0  0  0  0  0  0  0  0  0
  -18.5498  -27.6732   20.7093 C   0  0  0  0  0  0  0  0  0  0  0  0
  -18.5006  -30.0370   21.5048 C   0  0  0  0  0  0  0  0  0  0  0  0
  -22.0777  -30.1836   15.6692 C   0  0  0  0  0  0  0  0  0  0  0  0
  -20.5526  -29.1754   20.3052 C   0  0  1  0  0  0  0  0  0  0  0  0
  -19.8277  -29.6534   16.6153 C   0  0  2  0  0  0  0  0  0  0  0  0
  -19.4137  -28.8089   21.2982 C   0  0  0  0  0  0  0  0  0  0  0  0
  -26.2972  -11.5187   20.8946 N   0  0  0  0  0  0  0  0  0  0  0  0
  -29.5645  -20.2117   18.3133 N   0  0  0  0  0  0  0  0  0  0  0  0
  -29.6105  -18.9107   18.7071 N   0  0  0  0  0  0  0  0  0  0  0  0
  -26.3144  -12.5417   20.0232 N   0  0  0  0  0  0  0  0  0  0  0  0
  -28.3703  -22.2019   17.9768 N   0  0  3  0  0  0  0  0  0  0  0  0
  -22.8041  -29.9386   20.9923 N   0  0  0  0  0  0  0  0  0  0  0  0
  -29.3883  -14.8074   20.0003 N   0  0  0  0  0  0  0  0  0  0  0  0
  -26.0127  -21.0107   18.9059 N   0  0  0  0  0  0  0  0  0  0  0  0
  -24.9098  -13.9692   18.7583 N   0  0  0  0  0  0  0  0  0  0  0  0
  -21.9911  -11.2963   20.9339 N   0  0  0  0  0  0  0  0  0  0  0  0
  -28.5372  -16.9640   19.5677 N   0  0  0  0  0  0  0  0  0  0  0  0
  -23.8744  -31.4880   24.0228 N   0  0  0  0  0  0  0  0  0  0  0  0
  -20.0844  -29.6306   19.0006 N   0  0  0  0  0  0  0  0  0  0  0  0
  -20.7493  -29.5564   15.4481 N   0  3  0  0  0  0  0  0  0  0  0  0
  -22.1741  -13.0284   19.4422 O   0  0  0  0  0  0  0  0  0  0  0  0
  -30.7521  -23.7087   18.5502 O   0  0  0  0  0  0  0  0  0  0  0  0
  -23.6707  -29.2537   23.3989 O   0  0  0  0  0  0  0  0  0  0  0  0
  -20.9685  -31.3725   21.0966 O   0  0  0  0  0  0  0  0  0  0  0  0
  -21.1777  -28.0070   17.7573 O   0  0  0  0  0  0  0  0  0  0  0  0
  -30.7728  -16.4724   19.1908 O   0  0  0  0  0  0  0  0  0  0  0  0
  -23.2895   -7.1971   24.4760 O   0  0  0  0  0  0  0  0  0  0  0  0
  -27.3576  -25.9651   19.7551 O   0  0  0  0  0  0  0  0  0  1  0  0
  -19.3074   -3.8352   22.6747 F   0  0  0  0  0  0  0  0  0  0  0  0
  -23.7262   -4.4770   24.2454 F   0  0  0  0  0  0  0  0  0  0  0  0
  1  2  1  0  0  0  0
  1  5  2  0  0  0  0
  2  6  2  0  0  0  0
  3  8  2  0  0  0  0
  3 16  1  0  0  0  0
  4  9  1  0  0  0  0
  4 16  2  0  0  0  0
  5 18  1  0  0  0  0
  6 20  1  0  0  0  0
  7 10  2  0  0  0  0
  7 19  1  0  0  0  0
  8 23  1  0  0  0  0
  9 23  2  0  0  0  0
 10 24  1  0  0  0  0
 11 12  2  0  0  0  0
 11 25  1  0  0  0  0
 12 26  1  0  0  0  0
 13 21  1  0  0  0  0
 13 24  2  0  0  0  0
 14 22  1  0  0  0  0
 14 30  2  0  0  0  0
 15 26  2  0  0  0  0
 15 27  1  0  0  0  0
 16 28  1  0  0  0  0
 17 28  1  0  0  0  0
 17 31  2  0  0  0  0
 17 34  1  0  0  0  0
 18 20  2  0  0  0  0
 18 40  1  0  0  0  0
 19 21  2  0  0  0  0
 19 41  1  0  0  0  0
 20 51  1  0  0  0  0
 21 42  1  0  0  0  0
 22 29  2  0  0  0  0
 22 71  1  0  0  0  0
 23 84  1  0  0  0  0
 24 85  1  0  0  0  0
 25 27  2  0  0  0  0
 25 84  1  0  0  0  0
 26 86  1  0  0  0  0
 27 87  1  0  0  0  0
 28 64  2  0  0  0  0
 29 65  1  0  0  0  0
 29 68  1  0  0  0  0
 30 66  1  0  0  0  0
 30 74  1  0  0  0  0
 31 67  1  0  0  0  0
 31 72  1  0  0  0  0
 32 33  2  0  0  0  0
 32 43  1  0  0  0  0
 32 52  1  0  0  0  0
 33 85  1  0  0  0  0
 34 73  1  0  0  0  0
 34 78  2  0  0  0  0
 35 52  1  0  0  0  0
 35 55  1  0  0  0  0
 35 79  2  0  0  0  0
 36 53  1  0  0  0  0
 36 75  1  0  0  0  0
 36 80  2  0  0  0  0
 37 61  1  0  0  0  0
 37 69  1  0  0  0  0
 37 81  2  0  0  0  0
 38 62  1  0  0  0  0
 38 76  1  0  0  0  0
 38 82  2  0  0  0  0
 39 70  1  0  0  0  0
 39 74  1  0  0  0  0
 39 83  2  0  0  0  0
 40 44  1  0  0  0  0
 41 53  1  0  0  0  0
 42 69  1  0  0  0  0
 43 48  1  0  0  0  0
 44 46  1  0  0  0  0
 45 47  1  0  0  0  0
 45 49  1  0  0  0  0
 46 51  1  0  0  0  0
 47 54  1  0  0  0  0
 48 68  1  0  0  0  0
 49 70  1  0  0  0  0
 50 54  1  0  0  0  0
 50 70  1  0  0  0  0
 51 75  1  0  0  0  0
 52 68  1  0  0  0  0
 53 69  1  0  0  0  0
 54 67  1  0  0  0  0
 56 62  1  0  0  0  0
 57 63  1  0  0  0  0
 58 63  1  0  0  0  0
 59 63  1  0  0  0  0
 60 77  1  0  0  0  0
 61 63  1  0  0  0  0
 61 76  1  0  0  0  0
 62 77  1  0  0  0  0
 64 67  1  0  0  0  0
 65 66  2  0  0  0  0
M  CHG  1  77   1
M  ISO  4  33 101  39 100  74 100  85 101
M  END
> <Batch ID>
0106

> <Smiles>
CNC(C)C(=O)NC(C(=O)N1Cc2cc([101O:1][101CH:1]=C3CCN(c4nnc([100NH:0][100C:0](=O)N5CCCC(n6nc(-c7ccc(Oc8ccc(F)cc8F)cc7)c(C(N)=O)c6N)C5)cc4N)C3C(C)=O)ccc2CC1C(=O)NC1CCCc2ccccc21)C(C)(C)C

> <Shape>
0.313

> <Color>
0.105

> <Negative vol penalty>
0.000

$$$$

  -OEChem-04052301143D

 85 93  0     1  0  0  0  0  0999 V2000
  -31.3456  -25.5374   17.7539 C   0  0  0  0  0  0  0  0  0  0  0  0
  -30.0883  -26.0812   17.5166 C   0  0  0  0  0  0  0  0  0  0  0  0
  -24.5363  -13.8548   19.7234 C   0  0  0  0  0  0  0  0  0  0  0  0
  -25.8056  -14.3530   21.7178 C   0  0  0  0  0  0  0  0  0  0  0  0
  -25.4203  -23.8462   19.3555 C   0  0  0  0  0  0  0  0  0  0  0  0
  -31.8337  -25.4621   19.0567 C   0  0  0  0  0  0  0  0  0  0  0  0
  -29.3236  -26.5609   18.5806 C   0  0  0  0  0  0  0  0  0  0  0  0
  -23.6546  -28.7918   18.6954 C   0  0  0  0  0  0  0  0  0  0  0  0
  -24.1139  -24.3232   19.2490 C   0  0  0  0  0  0  0  0  0  0  0  0
  -24.7023  -12.4900   19.9586 C   0  0  0  0  0  0  0  0  0  0  0  0
  -25.9716  -12.9882   21.9531 C   0  0  0  0  0  0  0  0  0  0  0  0
  -22.3617  -28.3071   18.8881 C   0  0  0  0  0  0  0  0  0  0  0  0
  -24.4847   -8.8715   20.2303 C   0  0  0  0  0  0  0  0  0  0  0  0
  -23.3678   -8.0483   20.0877 C   0  0  0  0  0  0  0  0  0  0  0  0
  -22.4708  -28.9561   21.2089 C   0  0  0  0  0  0  0  0  0  0  0  0
  -23.6252  -23.4780   21.4590 C   0  0  0  0  0  0  0  0  0  0  0  0
  -22.2262   -9.2984   21.8115 C   0  0  0  0  0  0  0  0  0  0  0  0
  -25.0881  -14.7863   20.6029 C   0  0  0  0  0  0  0  0  0  0  0  0
  -25.8292  -23.1850   20.5137 C   0  0  0  0  0  0  0  0  0  0  0  0
  -23.8712  -17.0178   20.8210 C   0  0  0  0  0  0  0  0  0  0  0  0
  -31.0687  -25.9299   20.1379 C   0  0  0  0  0  0  0  0  0  0  0  0
  -24.3707  -29.3534   19.7623 C   0  0  0  0  0  0  0  0  0  0  0  0
  -29.8087  -26.5157   19.9002 C   0  0  0  0  0  0  0  0  0  0  0  0
  -23.7717  -29.4496   21.0265 C   0  0  0  0  0  0  0  0  0  0  0  0
  -23.2163  -24.1391   20.3008 C   0  0  0  0  0  0  0  0  0  0  0  0
  -24.9316  -23.0010   21.5654 C   0  0  0  0  0  0  0  0  0  0  0  0
  -25.4199  -12.0567   21.0735 C   0  0  0  0  0  0  0  0  0  0  0  0
  -21.7707  -28.3865   20.1456 C   0  0  0  0  0  0  0  0  0  0  0  0
  -24.4725   -9.9081   21.1636 C   0  0  0  0  0  0  0  0  0  0  0  0
  -22.2385   -8.2617   20.8782 C   0  0  0  0  0  0  0  0  0  0  0  0
  -23.3432  -10.1215   21.9541 C   0  0  0  0  0  0  0  0  0  0  0  0
  -24.9174  -16.1963   20.3601 C   0  0  0  0  0  0  0  0  0  0  0  0
  -24.1673  -18.2629   20.3225 C   0  0  0  0  0  0  0  0  0  0  0  0
  -27.2010  -22.6990   20.5937 C   0  0  0  0  0  0  0  0  0  0  0  0
  -22.7335  -16.6851   21.6276 C   0  0  0  0  0  0  0  0  0  0  0  0
  -27.9412  -22.2830   19.3803 C   0  0  0  0  0  0  0  0  0  0  0  0
  -27.0745  -28.6378   21.2726 C   0  0  0  0  0  0  0  0  0  0  0  0
  -26.5134  -31.4485   22.7917 C   0  0  0  0  0  0  0  0  0  0  0  0
  -20.8725  -24.5280   21.1361 C   0  0  0  0  0  0  0  0  0  0  0  0
  -24.2536  -33.8083   23.7774 C   0  0  0  0  0  0  0  0  0  0  0  0
  -31.6489  -25.8312   21.5268 C   0  0  0  0  0  0  0  0  0  0  0  0
  -25.7544  -29.8960   19.5318 C   0  0  0  0  0  0  0  0  0  0  0  0
  -24.4903  -30.0620   22.2000 C   0  0  0  0  0  0  0  0  0  0  0  0
  -30.5941  -25.9535   22.6217 C   0  0  0  0  0  0  0  0  0  0  0  0
  -27.5754  -19.7247   16.8948 C   0  0  0  0  0  0  0  0  0  0  0  0
  -29.7154  -27.1683   22.3635 C   0  0  0  0  0  0  0  0  0  0  0  0
  -26.7989  -18.6302   17.6262 C   0  0  0  0  0  0  0  0  0  0  0  0
  -28.5278  -20.4567   17.8346 C   0  0  0  0  0  0  0  0  0  0  0  0
  -27.0799  -19.9378   19.7796 C   0  0  0  0  0  0  0  0  0  0  0  0
  -28.9464  -27.0158   21.0450 C   0  0  1  0  0  0  0  0  0  0  0  0
  -26.5837  -29.9804   20.8095 C   0  0  1  0  0  0  0  0  0  0  0  0
  -26.0872  -19.1945   18.8687 C   0  0  2  0  0  0  0  0  0  0  0  0
  -24.0881  -35.9728   25.0362 C   0  0  0  0  0  0  0  0  0  0  0  0
  -26.7797  -29.9335   25.4268 C   0  0  0  0  0  0  0  0  0  0  0  0
  -25.6891  -31.8743   26.5724 C   0  0  0  0  0  0  0  0  0  0  0  0
  -27.8704  -32.1839   25.4024 C   0  0  0  0  0  0  0  0  0  0  0  0
  -23.2380  -35.2477   21.3992 C   0  0  0  0  0  0  0  0  0  0  0  0
  -19.5999  -25.1821   20.6162 C   0  0  0  0  0  0  0  0  0  0  0  0
  -19.1280  -26.3326   21.4985 C   0  0  0  0  0  0  0  0  0  0  0  0
  -20.1935  -27.4106   21.6342 C   0  0  0  0  0  0  0  0  0  1  0  0
  -25.7669  -31.8598   24.0377 C   0  0  1  0  0  0  0  0  0  0  0  0
  -24.2684  -35.3227   23.6733 C   0  0  2  0  0  0  0  0  0  0  0  0
  -26.5134  -31.4495   25.3384 C   0  0  0  0  0  0  0  0  0  0  0  0
  -25.8113  -16.8634   19.6252 N   0  0  0  0  0  0  0  0  0  0  0  0
  -27.8587  -22.6006   21.7153 N   0  0  0  0  0  0  0  0  0  0  0  0
  -25.3275  -18.1172   19.6205 N   0  0  0  0  0  0  0  0  0  0  0  0
  -27.8275  -20.9477   19.0198 N   0  0  0  0  0  0  0  0  0  0  0  0
  -25.8436  -30.5726   21.9256 N   0  0  0  0  0  0  0  0  0  0  0  0
  -25.3253  -22.3327   22.7462 N   0  0  0  0  0  0  0  0  0  0  0  0
  -23.5458  -19.4573   20.4206 N   0  0  0  0  0  0  0  0  0  0  0  0
  -22.5820  -15.3588   22.0544 N   0  0  0  0  0  0  0  0  0  0  0  0
  -21.8911  -24.6234   20.1920 N   0  0  0  0  0  0  0  0  0  0  0  0
  -28.2914  -28.2670   20.7330 N   0  0  0  0  0  0  0  0  0  0  0  0
  -25.5253  -33.2933   23.9143 N   0  0  0  0  0  0  0  0  0  0  0  0
  -23.1712  -35.7913   22.7802 N   0  3  0  0  0  0  0  0  0  0  0  0
  -21.8680  -17.5353   21.9463 O   0  0  0  0  0  0  0  0  0  0  0  0
  -28.5781  -23.1669   18.8222 O   0  0  0  0  0  0  0  0  0  0  0  0
  -26.3999  -27.9873   22.0621 O   0  0  0  0  0  0  0  0  0  0  0  0
  -27.6461  -31.8937   22.5906 O   0  0  0  0  0  0  0  0  0  0  0  0
  -20.9300  -24.0047   22.2439 O   0  0  0  0  0  0  0  0  0  0  0  0
  -23.2172  -33.1485   23.7445 O   0  0  0  0  0  0  0  0  0  0  0  0
  -25.5819  -10.7250   21.3035 O   0  0  0  0  0  0  0  0  0  0  0  0
  -20.5090  -27.9136   20.3366 O   0  0  0  0  0  0  0  0  0  1  0  0
  -21.1654   -7.4721   20.7400 F   0  0  0  0  0  0  0  0  0  0  0  0
  -23.3251  -11.1166   22.8516 F   0  0  0  0  0  0  0  0  0  0  0  0
  1  2  1  0  0  0  0
  1  6  2  0  0  0  0
  2  7  2  0  0  0  0
  3 10  2  0  0  0  0
  3 18  1  0  0  0  0
  4 11  1  0  0  0  0
  4 18  2  0  0  0  0
  5  9  2  0  0  0  0
  5 19  1  0  0  0  0
  6 21  1  0  0  0  0
  7 23  1  0  0  0  0
  8 12  2  0  0  0  0
  8 22  1  0  0  0  0
  9 25  1  0  0  0  0
 10 27  1  0  0  0  0
 11 27  2  0  0  0  0
 12 28  1  0  0  0  0
 13 14  2  0  0  0  0
 13 29  1  0  0  0  0
 14 30  1  0  0  0  0
 15 24  1  0  0  0  0
 15 28  2  0  0  0  0
 16 25  2  0  0  0  0
 16 26  1  0  0  0  0
 17 30  2  0  0  0  0
 17 31  1  0  0  0  0
 18 32  1  0  0  0  0
 19 26  2  0  0  0  0
 19 34  1  0  0  0  0
 20 32  1  0  0  0  0
 20 33  2  0  0  0  0
 20 35  1  0  0  0  0
 21 23  2  0  0  0  0
 21 41  1  0  0  0  0
 22 24  2  0  0  0  0
 22 42  1  0  0  0  0
 23 50  1  0  0  0  0
 24 43  1  0  0  0  0
 25 72  1  0  0  0  0
 26 69  1  0  0  0  0
 27 82  1  0  0  0  0
 28 83  1  0  0  0  0
 29 31  2  0  0  0  0
 29 82  1  0  0  0  0
 30 84  1  0  0  0  0
 31 85  1  0  0  0  0
 32 64  2  0  0  0  0
 33 66  1  0  0  0  0
 33 70  1  0  0  0  0
 34 36  1  0  0  0  0
 34 65  2  0  0  0  0
 35 71  1  0  0  0  0
 35 76  2  0  0  0  0
 36 67  1  0  0  0  0
 36 77  2  0  0  0  0
 37 51  1  0  0  0  0
 37 73  1  0  0  0  0
 37 78  2  0  0  0  0
 38 61  1  0  0  0  0
 38 68  1  0  0  0  0
 38 79  2  0  0  0  0
 39 58  1  0  0  0  0
 39 72  1  0  0  0  0
 39 80  2  0  0  0  0
 40 62  1  0  0  0  0
 40 74  1  0  0  0  0
 40 81  2  0  0  0  0
 41 44  1  0  0  0  0
 42 51  1  0  0  0  0
 43 68  1  0  0  0  0
 44 46  1  0  0  0  0
 45 47  1  0  0  0  0
 45 48  1  0  0  0  0
 46 50  1  0  0  0  0
 47 52  1  0  0  0  0
 48 67  1  0  0  0  0
 49 52  1  0  0  0  0
 49 67  1  0  0  0  0
 50 73  1  0  0  0  0
 51 68  1  0  0  0  0
 52 66  1  0  0  0  0
 53 62  1  0  0  0  0
 54 63  1  0  0  0  0
 55 63  1  0  0  0  0
 56 63  1  0  0  0  0
 57 75  1  0  0  0  0
 58 59  1  0  0  0  0
 59 60  1  0  0  0  0
 60 83  1  0  0  0  0
 61 63  1  0  0  0  0
 61 74  1  0  0  0  0
 62 75  1  0  0  0  0
 64 66  1  0  0  0  0
M  CHG  1  75   1
M  ISO  4  34 100  36 100  60 101  83 101
M  END
> <Batch ID>
0106

> <Smiles>
CNC(C)C(=O)NC(C(=O)N1Cc2cc([101O:1][101CH2:1]CCC(=O)Nc3ccc([100C:0](=N)[100C:0](=O)N4CCCC(n5nc(-c6ccc(Oc7ccc(F)cc7F)cc6)c(C(N)=O)c5N)C4)c(N)c3)ccc2CC1C(=O)NC1CCCc2ccccc21)C(C)(C)C

> <Shape>
0.291

> <Color>
0.096

> <Negative vol penalty>
0.000

$$$$

  -OEChem-04052301143D

 87 96  0     1  0  0  0  0  0999 V2000
  -23.4460  -30.5241   18.5993 C   0  0  0  0  0  0  0  0  0  0  0  0
  -24.1313  -29.7052   19.4910 C   0  0  0  0  0  0  0  0  0  0  0  0
  -23.0660   -9.8834   19.9359 C   0  0  0  0  0  0  0  0  0  0  0  0
  -23.8383   -9.8675   22.2251 C   0  0  0  0  0  0  0  0  0  0  0  0
  -22.0730  -30.7173   18.7461 C   0  0  0  0  0  0  0  0  0  0  0  0
  -23.4441  -29.0798   20.5307 C   0  0  0  0  0  0  0  0  0  0  0  0
  -24.7446  -24.2153   21.0697 C   0  0  0  0  0  0  0  0  0  0  0  0
  -22.3197   -8.7305   20.1797 C   0  0  0  0  0  0  0  0  0  0  0  0
  -23.0920   -8.7146   22.4689 C   0  0  0  0  0  0  0  0  0  0  0  0
  -25.9509  -23.9464   21.7149 C   0  0  0  0  0  0  0  0  0  0  0  0
  -19.8645   -7.9220   23.0819 C   0  0  0  0  0  0  0  0  0  0  0  0
  -19.1138   -7.8741   24.2565 C   0  0  0  0  0  0  0  0  0  0  0  0
  -24.7484  -23.4669   23.7503 C   0  0  0  0  0  0  0  0  0  0  0  0
  -31.6606  -19.3357   22.8341 C   0  0  0  0  0  0  0  0  0  0  0  0
  -31.8921  -17.2965   21.5592 C   0  0  0  0  0  0  0  0  0  0  0  0
  -20.3528   -5.9262   24.9690 C   0  0  0  0  0  0  0  0  0  0  0  0
  -23.8254  -10.4519   20.9586 C   0  0  0  0  0  0  0  0  0  0  0  0
  -29.8520  -17.7349   22.7771 C   0  0  0  0  0  0  0  0  0  0  0  0
  -24.1748  -12.9769   20.8591 C   0  0  0  0  0  0  0  0  0  0  0  0
  -21.3669  -30.0863   19.7824 C   0  0  0  0  0  0  0  0  0  0  0  0
  -23.5298  -24.1224   21.7641 C   0  0  0  0  0  0  0  0  0  0  0  0
  -22.0606  -29.2658   20.6923 C   0  0  0  0  0  0  0  0  0  0  0  0
  -23.5278  -23.7326   23.1110 C   0  0  0  0  0  0  0  0  0  0  0  0
  -30.3777  -18.9482   23.2210 C   0  0  0  0  0  0  0  0  0  0  0  0
  -32.4178  -18.5099   22.0031 C   0  0  0  0  0  0  0  0  0  0  0  0
  -30.6092  -16.9090   21.9462 C   0  0  0  0  0  0  0  0  0  0  0  0
  -22.3326   -8.1461   21.4462 C   0  0  0  0  0  0  0  0  0  0  0  0
  -25.9532  -23.5750   23.0562 C   0  0  0  0  0  0  0  0  0  0  0  0
  -20.8593   -6.9719   22.8508 C   0  0  0  0  0  0  0  0  0  0  0  0
  -19.3579   -6.8763   25.2001 C   0  0  0  0  0  0  0  0  0  0  0  0
  -21.1035   -5.9741   23.7944 C   0  0  0  0  0  0  0  0  0  0  0  0
  -24.5970  -11.6425   20.7072 C   0  0  0  0  0  0  0  0  0  0  0  0
  -25.2675  -13.7260   20.4965 C   0  0  0  0  0  0  0  0  0  0  0  0
  -28.5081  -17.3296   23.1826 C   0  0  0  0  0  0  0  0  0  0  0  0
  -22.9084  -13.4931   21.2895 C   0  0  0  0  0  0  0  0  0  0  0  0
  -21.2139  -26.1657   22.5159 C   0  0  0  0  0  0  0  0  0  0  0  0
  -19.7443  -23.4912   23.6158 C   0  0  0  0  0  0  0  0  0  0  0  0
  -20.0357  -20.3007   24.7915 C   0  0  0  0  0  0  0  0  0  0  0  0
  -30.7380  -14.7523   20.6507 C   0  0  0  0  0  0  0  0  0  0  0  0
  -19.8916  -30.3630   19.9291 C   0  0  0  0  0  0  0  0  0  0  0  0
  -22.2352  -24.3897   21.0465 C   0  0  0  0  0  0  0  0  0  0  0  0
  -22.2494  -23.5986   23.8959 C   0  0  0  0  0  0  0  0  0  0  0  0
  -19.1719  -29.3659   20.8335 C   0  0  0  0  0  0  0  0  0  0  0  0
  -29.6028  -12.3632   18.2673 C   0  0  0  0  0  0  0  0  0  0  0  0
  -19.9635  -29.1423   22.1180 C   0  0  0  0  0  0  0  0  0  0  0  0
  -28.1645  -12.0725   18.7021 C   0  0  0  0  0  0  0  0  0  0  0  0
  -28.5116  -20.6090   25.9319 C   0  0  0  0  0  0  0  0  0  0  0  0
  -30.5251  -12.5783   19.4659 C   0  0  0  0  0  0  0  0  0  0  0  0
  -29.6753  -19.7183   25.5021 C   0  0  0  0  0  0  0  0  0  0  0  0
  -28.7466  -20.8246   23.5602 C   0  0  0  0  0  0  0  0  0  0  0  0
  -28.6281  -13.2967   20.8639 C   0  0  0  0  0  0  0  0  0  0  0  0
  -21.3459  -28.5503   21.8182 C   0  0  1  0  0  0  0  0  0  0  0  0
  -21.0956  -24.7633   21.9894 C   0  0  1  0  0  0  0  0  0  0  0  0
  -28.4364  -21.6470   24.8160 C   0  0  1  0  0  0  0  0  0  0  0  0
  -27.6483  -13.1371   19.6899 C   0  0  2  0  0  0  0  0  0  0  0  0
  -18.6609  -18.3822   25.6440 C   0  0  0  0  0  0  0  0  0  0  0  0
  -19.3856  -24.9351   26.2797 C   0  0  0  0  0  0  0  0  0  0  0  0
  -18.8985  -22.7182   27.3363 C   0  0  0  0  0  0  0  0  0  0  0  0
  -17.4047  -23.5983   25.5427 C   0  0  0  0  0  0  0  0  0  0  0  0
  -20.9416  -18.5274   22.6021 C   0  0  0  0  0  0  0  0  0  0  0  0
  -27.0972  -22.3601   24.7506 C   0  0  0  0  0  0  0  0  0  1  0  0
  -19.7093  -22.7558   24.9337 C   0  0  1  0  0  0  0  0  0  0  0  0
  -19.3060  -19.0212   24.4241 C   0  0  2  0  0  0  0  0  0  0  0  0
  -18.8739  -23.5062   26.0091 C   0  0  0  0  0  0  0  0  0  0  0  0
  -25.8592  -11.5463   20.2812 N   0  0  0  0  0  0  0  0  0  0  0  0
  -26.2396  -12.8297   20.1622 N   0  0  0  0  0  0  0  0  0  0  0  0
  -29.6476  -19.7802   24.0430 N   0  0  3  0  0  0  0  0  0  0  0  0
  -21.0099  -23.8767   23.1517 N   0  0  0  0  0  0  0  0  0  0  0  0
  -29.9743  -13.6032   20.3554 N   0  0  0  0  0  0  0  0  0  0  0  0
  -33.7145  -18.9015   21.6108 N   0  0  0  0  0  0  0  0  0  0  0  0
  -25.4819  -15.0574   20.4341 N   0  0  0  0  0  0  0  0  0  0  0  0
  -27.4498  -17.7169   22.3712 N   0  0  0  0  0  0  0  0  0  0  0  0
  -21.8953  -12.5842   21.6242 N   0  0  0  0  0  0  0  0  0  0  0  0
  -30.0981  -15.6721   21.4808 N   0  0  0  0  0  0  0  0  0  0  0  0
  -21.2388  -27.1357   21.5321 N   0  0  0  0  0  0  0  0  0  0  0  0
  -19.2310  -21.4097   24.6375 N   0  0  0  0  0  0  0  0  0  0  0  0
  -20.2528  -18.0389   23.8244 N   0  3  0  0  0  0  0  0  0  0  0  0
  -28.3204  -16.6789   24.2214 O   0  0  0  0  0  0  0  0  0  0  0  0
  -22.6765  -14.7239   21.3590 O   0  0  0  0  0  0  0  0  0  0  0  0
  -21.2764  -26.3538   23.7252 O   0  0  0  0  0  0  0  0  0  0  0  0
  -18.6883  -23.7091   23.0167 O   0  0  0  0  0  0  0  0  0  0  0  0
  -21.2016  -20.3145   25.1801 O   0  0  0  0  0  0  0  0  0  0  0  0
  -31.8650  -14.9215   20.1785 O   0  0  0  0  0  0  0  0  0  0  0  0
  -21.6043   -7.0212   21.6845 O   0  0  0  0  0  0  0  0  0  0  0  0
  -27.1292  -23.3126   23.6885 O   0  0  0  0  0  0  0  0  0  1  0  0
  -18.6380   -6.8314   26.3287 F   0  0  0  0  0  0  0  0  0  0  0  0
  -22.0587   -5.0593   23.5784 F   0  0  0  0  0  0  0  0  0  0  0  0
  1  2  1  0  0  0  0
  1  5  2  0  0  0  0
  2  6  2  0  0  0  0
  3  8  2  0  0  0  0
  3 17  1  0  0  0  0
  4  9  1  0  0  0  0
  4 17  2  0  0  0  0
  5 20  1  0  0  0  0
  6 22  1  0  0  0  0
  7 10  2  0  0  0  0
  7 21  1  0  0  0  0
  8 27  1  0  0  0  0
  9 27  2  0  0  0  0
 10 28  1  0  0  0  0
 11 12  2  0  0  0  0
 11 29  1  0  0  0  0
 12 30  1  0  0  0  0
 13 23  1  0  0  0  0
 13 28  2  0  0  0  0
 14 24  1  0  0  0  0
 14 25  2  0  0  0  0
 15 25  1  0  0  0  0
 15 26  2  0  0  0  0
 16 30  2  0  0  0  0
 16 31  1  0  0  0  0
 17 32  1  0  0  0  0
 18 24  2  0  0  0  0
 18 26  1  0  0  0  0
 18 34  1  0  0  0  0
 19 32  1  0  0  0  0
 19 33  2  0  0  0  0
 19 35  1  0  0  0  0
 20 22  2  0  0  0  0
 20 40  1  0  0  0  0
 21 23  2  0  0  0  0
 21 41  1  0  0  0  0
 22 52  1  0  0  0  0
 23 42  1  0  0  0  0
 24 67  1  0  0  0  0
 25 70  1  0  0  0  0
 26 74  1  0  0  0  0
 27 84  1  0  0  0  0
 28 85  1  0  0  0  0
 29 31  2  0  0  0  0
 29 84  1  0  0  0  0
 30 86  1  0  0  0  0
 31 87  1  0  0  0  0
 32 65  2  0  0  0  0
 33 66  1  0  0  0  0
 33 71  1  0  0  0  0
 34 72  1  0  0  0  0
 34 78  2  0  0  0  0
 35 73  1  0  0  0  0
 35 79  2  0  0  0  0
 36 53  1  0  0  0  0
 36 75  1  0  0  0  0
 36 80  2  0  0  0  0
 37 62  1  0  0  0  0
 37 68  1  0  0  0  0
 37 81  2  0  0  0  0
 38 63  1  0  0  0  0
 38 76  1  0  0  0  0
 38 82  2  0  0  0  0
 39 69  1  0  0  0  0
 39 74  1  0  0  0  0
 39 83  2  0  0  0  0
 40 43  1  0  0  0  0
 41 53  1  0  0  0  0
 42 68  1  0  0  0  0
 43 45  1  0  0  0  0
 44 46  1  0  0  0  0
 44 48  1  0  0  0  0
 45 52  1  0  0  0  0
 46 55  1  0  0  0  0
 47 49  1  0  0  0  0
 47 54  1  0  0  0  0
 48 69  1  0  0  0  0
 49 67  1  0  0  0  0
 50 54  1  0  0  0  0
 50 67  1  0  0  0  0
 51 55  1  0  0  0  0
 51 69  1  0  0  0  0
 52 75  1  0  0  0  0
 53 68  1  0  0  0  0
 54 61  1  0  0  0  0
 55 66  1  0  0  0  0
 56 63  1  0  0  0  0
 57 64  1  0  0  0  0
 58 64  1  0  0  0  0
 59 64  1  0  0  0  0
 60 77  1  0  0  0  0
 61 85  1  0  0  0  0
 62 64  1  0  0  0  0
 62 76  1  0  0  0  0
 63 77  1  0  0  0  0
 65 66  1  0  0  0  0
M  CHG  1  77   1
M  ISO  4  39 100  61 101  74 100  85 101
M  END
> <Batch ID>
0106

> <Smiles>
CNC(C)C(=O)NC(C(=O)N1Cc2cc([101O:1][101CH2:1]C3CCN(c4cc(N)cc([100NH:0][100C:0](=O)N5CCCC(n6nc(-c7ccc(Oc8ccc(F)cc8F)cc7)c(C(N)=O)c6N)C5)c4C(N)=O)C3)ccc2CC1C(=O)NC1CCCc2ccccc21)C(C)(C)C

> <Shape>
0.227

> <Color>
0.180

> <Negative vol penalty>
0.000

$$$$

  -OEChem-04052301143D

 84 92  0     1  0  0  0  0  0999 V2000
  -21.1761  -29.3246   21.0995 C   0  0  0  0  0  0  0  0  0  0  0  0
  -21.8825  -28.1432   20.8974 C   0  0  0  0  0  0  0  0  0  0  0  0
  -23.0023   -9.7973   20.0273 C   0  0  0  0  0  0  0  0  0  0  0  0
  -23.6570   -9.9867   22.3452 C   0  0  0  0  0  0  0  0  0  0  0  0
  -21.8625  -30.5287   21.2511 C   0  0  0  0  0  0  0  0  0  0  0  0
  -23.2758  -28.1655   20.8457 C   0  0  0  0  0  0  0  0  0  0  0  0
  -25.3797  -24.4293   23.5400 C   0  0  0  0  0  0  0  0  0  0  0  0
  -22.2257   -8.6810   20.3379 C   0  0  0  0  0  0  0  0  0  0  0  0
  -22.8804   -8.8705   22.6558 C   0  0  0  0  0  0  0  0  0  0  0  0
  -25.3861  -23.1577   22.9685 C   0  0  0  0  0  0  0  0  0  0  0  0
  -23.1323   -5.5091   22.3933 C   0  0  0  0  0  0  0  0  0  0  0  0
  -23.6945   -4.5390   23.2228 C   0  0  0  0  0  0  0  0  0  0  0  0
  -27.6837  -23.4738   22.3052 C   0  0  0  0  0  0  0  0  0  0  0  0
  -30.3951  -18.4736   23.7528 C   0  0  0  0  0  0  0  0  0  0  0  0
  -31.9917  -16.5806   22.4683 C   0  0  0  0  0  0  0  0  0  0  0  0
  -21.9209   -4.8826   24.8270 C   0  0  0  0  0  0  0  0  0  0  0  0
  -23.7180  -10.4501   21.0310 C   0  0  0  0  0  0  0  0  0  0  0  0
  -24.1136  -12.9505   20.7158 C   0  0  0  0  0  0  0  0  0  0  0  0
  -23.2653  -30.5643   21.2109 C   0  0  0  0  0  0  0  0  0  0  0  0
  -26.5239  -25.2384   23.4888 C   0  0  0  0  0  0  0  0  0  0  0  0
  -23.9816  -29.3714   20.9956 C   0  0  0  0  0  0  0  0  0  0  0  0
  -27.6902  -24.7543   22.8791 C   0  0  0  0  0  0  0  0  0  0  0  0
  -31.7743  -18.4678   23.9611 C   0  0  0  0  0  0  0  0  0  0  0  0
  -29.8142  -17.5330   22.9022 C   0  0  0  0  0  0  0  0  0  0  0  0
  -32.5726  -17.5213   23.3189 C   0  0  0  0  0  0  0  0  0  0  0  0
  -30.6125  -16.5865   22.2599 C   0  0  0  0  0  0  0  0  0  0  0  0
  -22.1648   -8.2176   21.6521 C   0  0  0  0  0  0  0  0  0  0  0  0
  -26.5373  -22.6809   22.3484 C   0  0  0  0  0  0  0  0  0  0  0  0
  -21.9643   -6.1662   22.7806 C   0  0  0  0  0  0  0  0  0  0  0  0
  -23.0889   -4.2257   24.4396 C   0  0  0  0  0  0  0  0  0  0  0  0
  -21.3586   -5.8528   23.9974 C   0  0  0  0  0  0  0  0  0  0  0  0
  -24.5209  -11.6029   20.7107 C   0  0  0  0  0  0  0  0  0  0  0  0
  -25.2354  -13.6496   20.3427 C   0  0  0  0  0  0  0  0  0  0  0  0
  -22.8356  -13.5194   21.0298 C   0  0  0  0  0  0  0  0  0  0  0  0
  -27.2174  -28.0644   22.2096 C   0  0  0  0  0  0  0  0  0  0  0  0
  -30.0283  -27.6459   23.7737 C   0  0  0  0  0  0  0  0  0  0  0  0
  -32.2799  -25.4873   25.1583 C   0  0  0  0  0  0  0  0  0  0  0  0
  -30.7071  -14.6221   20.6857 C   0  0  0  0  0  0  0  0  0  0  0  0
  -23.9614  -31.8967   21.3325 C   0  0  0  0  0  0  0  0  0  0  0  0
  -26.5092  -26.5972   24.1336 C   0  0  0  0  0  0  0  0  0  0  0  0
  -28.9511  -25.5756   22.8152 C   0  0  0  0  0  0  0  0  0  0  0  0
  -25.4521  -31.7793   21.6394 C   0  0  0  0  0  0  0  0  0  0  0  0
  -29.6553  -12.0338   18.4784 C   0  0  0  0  0  0  0  0  0  0  0  0
  -26.1036  -30.7401   20.7324 C   0  0  0  0  0  0  0  0  0  0  0  0
  -28.1923  -11.8018   18.8629 C   0  0  0  0  0  0  0  0  0  0  0  0
  -30.5190  -12.3494   19.6983 C   0  0  0  0  0  0  0  0  0  0  0  0
  -28.5655  -13.2175   20.9229 C   0  0  0  0  0  0  0  0  0  0  0  0
  -25.4943  -29.3512   20.9583 C   0  0  1  0  0  0  0  0  0  0  0  0
  -27.5713  -27.5370   23.5713 C   0  0  1  0  0  0  0  0  0  0  0  0
  -27.6442  -12.9601   19.7193 C   0  0  2  0  0  0  0  0  0  0  0  0
  -32.3701  -19.4867   24.8773 C   0  0  0  0  0  0  0  0  0  0  0  0
  -34.4995  -25.4385   26.3282 C   0  0  0  0  0  0  0  0  0  0  0  0
  -31.4385  -28.1424   21.1138 C   0  0  0  0  0  0  0  0  0  0  0  0
  -33.5149  -27.1618   22.1112 C   0  0  0  0  0  0  0  0  0  0  0  0
  -32.5213  -29.2310   23.0878 C   0  0  0  0  0  0  0  0  0  0  0  0
  -31.1047  -24.2672   27.5850 C   0  0  0  0  0  0  0  0  0  0  0  0
  -26.3082  -19.0706   22.2021 C   0  0  0  0  0  0  0  0  0  0  0  0
  -27.6807  -18.9532   22.8805 C   0  0  0  0  0  0  0  0  0  0  0  0
  -25.6975  -20.4561   22.3788 C   0  0  0  0  0  0  0  0  0  1  0  0
  -28.3157  -17.5629   22.6951 C   0  0  2  0  0  0  0  0  0  0  0  0
  -31.3567  -27.0140   23.4346 C   0  0  1  0  0  0  0  0  0  0  0  0
  -32.9895  -25.4957   26.5002 C   0  0  2  0  0  0  0  0  0  0  0  0
  -32.1837  -27.8723   22.4362 C   0  0  0  0  0  0  0  0  0  0  0  0
  -25.8014  -11.4526   20.3618 N   0  0  0  0  0  0  0  0  0  0  0  0
  -26.2084  -12.7147   20.1441 N   0  0  0  0  0  0  0  0  0  0  0  0
  -28.8847  -26.9001   23.4544 N   0  0  0  0  0  0  0  0  0  0  0  0
  -29.9407  -13.4593   20.4589 N   0  0  0  0  0  0  0  0  0  0  0  0
  -33.9706  -17.5007   23.5181 N   0  0  0  0  0  0  0  0  0  0  0  0
  -25.4746  -14.9668   20.1682 N   0  0  0  0  0  0  0  0  0  0  0  0
  -21.7920  -12.6577   21.3943 N   0  0  0  0  0  0  0  0  0  0  0  0
  -30.0412  -15.6229   21.3923 N   0  0  0  0  0  0  0  0  0  0  0  0
  -26.0230  -28.7579   22.1678 N   0  0  0  0  0  0  0  0  0  0  0  0
  -32.0268  -26.7651   24.7063 N   0  0  0  0  0  0  0  0  0  0  0  0
  -27.6093  -16.6149   23.6174 N   0  3  0  0  0  0  0  0  0  0  0  0
  -32.5650  -24.3245   27.3181 N   0  3  0  0  0  0  0  0  0  0  0  0
  -22.6207  -14.7540   20.9726 O   0  0  0  0  0  0  0  0  0  0  0  0
  -27.9729  -27.8587   21.2669 O   0  0  0  0  0  0  0  0  0  0  0  0
  -30.0063  -28.7571   24.3088 O   0  0  0  0  0  0  0  0  0  0  0  0
  -31.9834  -24.4508   24.5681 O   0  0  0  0  0  0  0  0  0  0  0  0
  -31.8594  -14.7332   20.2591 O   0  0  0  0  0  0  0  0  0  0  0  0
  -21.4069   -7.1286   21.9556 O   0  0  0  0  0  0  0  0  0  0  0  0
  -26.5459  -21.4403   21.7891 O   0  0  0  0  0  0  0  0  0  1  0  0
  -23.6281   -3.2929   25.2354 F   0  0  0  0  0  0  0  0  0  0  0  0
  -20.2358   -6.4798   24.3743 F   0  0  0  0  0  0  0  0  0  0  0  0
  1  2  1  0  0  0  0
  1  5  2  0  0  0  0
  2  6  2  0  0  0  0
  3  8  2  0  0  0  0
  3 17  1  0  0  0  0
  4  9  1  0  0  0  0
  4 17  2  0  0  0  0
  5 19  1  0  0  0  0
  6 21  1  0  0  0  0
  7 10  2  0  0  0  0
  7 20  1  0  0  0  0
  8 27  1  0  0  0  0
  9 27  2  0  0  0  0
 10 28  1  0  0  0  0
 11 12  2  0  0  0  0
 11 29  1  0  0  0  0
 12 30  1  0  0  0  0
 13 22  1  0  0  0  0
 13 28  2  0  0  0  0
 14 23  2  0  0  0  0
 14 24  1  0  0  0  0
 15 25  2  0  0  0  0
 15 26  1  0  0  0  0
 16 30  2  0  0  0  0
 16 31  1  0  0  0  0
 17 32  1  0  0  0  0
 18 32  1  0  0  0  0
 18 33  2  0  0  0  0
 18 34  1  0  0  0  0
 19 21  2  0  0  0  0
 19 39  1  0  0  0  0
 20 22  2  0  0  0  0
 20 40  1  0  0  0  0
 21 48  1  0  0  0  0
 22 41  1  0  0  0  0
 23 25  1  0  0  0  0
 23 51  1  0  0  0  0
 24 26  2  0  0  0  0
 24 60  1  0  0  0  0
 25 68  1  0  0  0  0
 26 71  1  0  0  0  0
 27 81  1  0  0  0  0
 28 82  1  0  0  0  0
 29 31  2  0  0  0  0
 29 81  1  0  0  0  0
 30 83  1  0  0  0  0
 31 84  1  0  0  0  0
 32 64  2  0  0  0  0
 33 65  1  0  0  0  0
 33 69  1  0  0  0  0
 34 70  1  0  0  0  0
 34 76  2  0  0  0  0
 35 49  1  0  0  0  0
 35 72  1  0  0  0  0
 35 77  2  0  0  0  0
 36 61  1  0  0  0  0
 36 66  1  0  0  0  0
 36 78  2  0  0  0  0
 37 62  1  0  0  0  0
 37 73  1  0  0  0  0
 37 79  2  0  0  0  0
 38 67  1  0  0  0  0
 38 71  1  0  0  0  0
 38 80  2  0  0  0  0
 39 42  1  0  0  0  0
 40 49  1  0  0  0  0
 41 66  1  0  0  0  0
 42 44  1  0  0  0  0
 43 45  1  0  0  0  0
 43 46  1  0  0  0  0
 44 48  1  0  0  0  0
 45 50  1  0  0  0  0
 46 67  1  0  0  0  0
 47 50  1  0  0  0  0
 47 67  1  0  0  0  0
 48 72  1  0  0  0  0
 49 66  1  0  0  0  0
 50 65  1  0  0  0  0
 52 62  1  0  0  0  0
 53 63  1  0  0  0  0
 54 63  1  0  0  0  0
 55 63  1  0  0  0  0
 56 75  1  0  0  0  0
 57 58  1  0  0  0  0
 57 59  1  0  0  0  0
 58 60  1  0  0  0  0
 59 82  1  0  0  0  0
 60 74  1  0  0  0  0
 61 63  1  0  0  0  0
 61 73  1  0  0  0  0
 62 75  1  0  0  0  0
 64 65  1  0  0  0  0
M  CHG  2  74   1  75   1
M  ISO  4  38 100  59 101  71 100  82 101
M  END
> <Batch ID>
0106

> <Smiles>
CNC(C)C(=O)NC(C(=O)N1Cc2cc([101O:1][101CH2:1]CCC(N)c3cc(C)c(N)cc3[100NH:0][100C:0](=O)N3CCCC(n4nc(-c5ccc(Oc6ccc(F)cc6F)cc5)c(C(N)=O)c4N)C3)ccc2CC1C(=O)NC1CCCc2ccccc21)C(C)(C)C

> <Shape>
0.255

> <Color>
0.205

> <Negative vol penalty>
0.000

$$$$

  -OEChem-04052301143D

 86 94  0     1  0  0  0  0  0999 V2000
  -15.1156  -22.1610   26.8903 C   0  0  0  0  0  0  0  0  0  0  0  0
  -16.2785  -22.2939   26.1384 C   0  0  0  0  0  0  0  0  0  0  0  0
  -23.0706   -9.9177   19.9483 C   0  0  0  0  0  0  0  0  0  0  0  0
  -23.8820   -9.8935   22.2239 C   0  0  0  0  0  0  0  0  0  0  0  0
  -14.5554  -20.8998   27.0886 C   0  0  0  0  0  0  0  0  0  0  0  0
  -16.8826  -21.1654   25.5853 C   0  0  0  0  0  0  0  0  0  0  0  0
  -19.8412  -20.8228   20.2342 C   0  0  0  0  0  0  0  0  0  0  0  0
  -22.3265   -8.7654   20.2014 C   0  0  0  0  0  0  0  0  0  0  0  0
  -23.1379   -8.7411   22.4769 C   0  0  0  0  0  0  0  0  0  0  0  0
  -21.1961  -20.8593   19.9075 C   0  0  0  0  0  0  0  0  0  0  0  0
  -22.8878   -5.4409   20.4400 C   0  0  0  0  0  0  0  0  0  0  0  0
  -22.9281   -4.4222   19.4879 C   0  0  0  0  0  0  0  0  0  0  0  0
  -21.2492  -18.4477   19.8839 C   0  0  0  0  0  0  0  0  0  0  0  0
  -28.2155  -18.7462   21.5740 C   0  0  0  0  0  0  0  0  0  0  0  0
  -20.5372   -4.6041   19.1922 C   0  0  0  0  0  0  0  0  0  0  0  0
  -23.8484  -10.4818   20.9596 C   0  0  0  0  0  0  0  0  0  0  0  0
  -24.2006  -13.0064   20.8617 C   0  0  0  0  0  0  0  0  0  0  0  0
  -15.1475  -19.7563   26.5296 C   0  0  0  0  0  0  0  0  0  0  0  0
  -19.1817  -19.5964   20.3992 C   0  0  0  0  0  0  0  0  0  0  0  0
  -16.3305  -19.8875   25.7775 C   0  0  0  0  0  0  0  0  0  0  0  0
  -19.8853  -18.3984   20.2102 C   0  0  0  0  0  0  0  0  0  0  0  0
  -28.9069  -17.6548   22.0878 C   0  0  0  0  0  0  0  0  0  0  0  0
  -22.3601   -8.1771   21.4657 C   0  0  0  0  0  0  0  0  0  0  0  0
  -21.9010  -19.6717   19.7351 C   0  0  0  0  0  0  0  0  0  0  0  0
  -21.6722   -6.0411   20.7682 C   0  0  0  0  0  0  0  0  0  0  0  0
  -28.1094  -18.9094   20.1973 C   0  0  0  0  0  0  0  0  0  0  0  0
  -21.7528   -4.0039   18.8640 C   0  0  0  0  0  0  0  0  0  0  0  0
  -20.4969   -5.6227   20.1443 C   0  0  0  0  0  0  0  0  0  0  0  0
  -24.6177  -11.6718   20.6986 C   0  0  0  0  0  0  0  0  0  0  0  0
  -29.4695  -16.7622   21.1898 C   0  0  0  0  0  0  0  0  0  0  0  0
  -28.7078  -17.9607   19.3838 C   0  0  0  0  0  0  0  0  0  0  0  0
  -25.2882  -13.7548   20.4828 C   0  0  0  0  0  0  0  0  0  0  0  0
  -22.9426  -13.5235   21.3154 C   0  0  0  0  0  0  0  0  0  0  0  0
  -30.2083  -15.5955   21.6491 C   0  0  0  0  0  0  0  0  0  0  0  0
  -30.8071  -14.6454   20.6837 C   0  0  0  0  0  0  0  0  0  0  0  0
  -17.6924  -18.1570   22.8104 C   0  0  0  0  0  0  0  0  0  0  0  0
  -16.9483  -15.9698   20.5333 C   0  0  0  0  0  0  0  0  0  0  0  0
  -17.7161  -14.5346   17.5338 C   0  0  0  0  0  0  0  0  0  0  0  0
  -14.5316  -18.4086   26.8109 C   0  0  0  0  0  0  0  0  0  0  0  0
  -17.7135  -19.5741   20.7254 C   0  0  0  0  0  0  0  0  0  0  0  0
  -19.2187  -17.0557   20.3561 C   0  0  0  0  0  0  0  0  0  0  0  0
  -15.0256  -17.3064   25.8774 C   0  0  0  0  0  0  0  0  0  0  0  0
  -29.5686  -12.4208   18.1590 C   0  0  0  0  0  0  0  0  0  0  0  0
  -16.5445  -17.3578   25.7474 C   0  0  0  0  0  0  0  0  0  0  0  0
  -28.1490  -12.1072   18.6302 C   0  0  0  0  0  0  0  0  0  0  0  0
  -30.5205  -12.6028   19.3368 C   0  0  0  0  0  0  0  0  0  0  0  0
  -28.6502  -13.3274   20.7948 C   0  0  0  0  0  0  0  0  0  0  0  0
  -17.0015  -18.6899   25.1405 C   0  0  1  0  0  0  0  0  0  0  0  0
  -17.2653  -18.2681   21.3741 C   0  0  1  0  0  0  0  0  0  0  0  0
  -27.6541  -13.1642   19.6335 C   0  0  2  0  0  0  0  0  0  0  0  0
  -28.0745  -16.4045   24.0954 C   0  0  0  0  0  0  0  0  0  0  0  0
  -16.9451  -12.7465   15.9508 C   0  0  0  0  0  0  0  0  0  0  0  0
  -18.1134  -13.8373   22.3785 C   0  0  0  0  0  0  0  0  0  0  0  0
  -18.1917  -12.2827   20.4176 C   0  0  0  0  0  0  0  0  0  0  0  0
  -16.0017  -13.1706   21.2163 C   0  0  0  0  0  0  0  0  0  0  0  0
  -29.1785  -17.2125   17.0505 C   0  0  0  0  0  0  0  0  0  0  0  0
  -17.2557  -16.4928   15.3629 C   0  0  0  0  0  0  0  0  0  0  0  0
  -29.0234  -17.4757   23.5623 C   0  0  0  0  0  0  0  0  0  0  0  0
  -25.3020  -20.8354   18.9440 C   0  0  0  0  0  0  0  0  0  0  0  0
  -23.8259  -20.9904   19.2748 C   0  0  0  0  0  0  0  0  0  1  0  0
  -26.0564  -20.0997   20.0403 C   0  0  0  0  0  0  0  0  0  0  0  0
  -17.5972  -14.7132   20.0053 C   0  0  1  0  0  0  0  0  0  0  0  0
  -16.8610  -14.2195   16.3197 C   0  0  2  0  0  0  0  0  0  0  0  0
  -17.4893  -13.5261   21.0035 C   0  0  0  0  0  0  0  0  0  0  0  0
  -25.8723  -11.5747   20.2507 N   0  0  0  0  0  0  0  0  0  0  0  0
  -29.3875  -16.8875   19.8462 N   0  0  0  0  0  0  0  0  0  0  0  0
  -26.2529  -12.8578   20.1291 N   0  0  0  0  0  0  0  0  0  0  0  0
  -30.0036  -13.5855   20.2871 N   0  0  0  0  0  0  0  0  0  0  0  0
  -17.7833  -17.0863   20.6820 N   0  0  0  0  0  0  0  0  0  0  0  0
  -25.5039  -15.0859   20.4208 N   0  0  0  0  0  0  0  0  0  0  0  0
  -21.9338  -12.6154   21.6646 N   0  0  0  0  0  0  0  0  0  0  0  0
  -28.6001  -18.1266   17.9802 N   0  0  0  0  0  0  0  0  0  0  0  0
  -16.7894  -18.6923   23.7090 N   0  0  0  0  0  0  0  0  0  0  0  0
  -16.9904  -14.4565   18.7037 N   0  0  0  0  0  0  0  0  0  0  0  0
  -17.3091  -15.0238   15.1478 N   0  3  0  0  0  0  0  0  0  0  0  0
  -22.7142  -14.7545   21.3926 O   0  0  0  0  0  0  0  0  0  0  0  0
  -30.3933  -15.3088   22.8348 O   0  0  0  0  0  0  0  0  0  0  0  0
  -31.9536  -14.8981   20.3372 O   0  0  0  0  0  0  0  0  0  0  0  0
  -18.7614  -17.6236   23.0833 O   0  0  0  0  0  0  0  0  0  0  0  0
  -15.7433  -15.9632   20.7973 O   0  0  0  0  0  0  0  0  0  0  0  0
  -18.9093  -14.8177   17.4528 O   0  0  0  0  0  0  0  0  0  0  0  0
  -21.6340   -7.0528   21.7130 O   0  0  0  0  0  0  0  0  0  0  0  0
  -23.2237  -19.7045   19.4168 O   0  0  0  0  0  0  0  0  0  1  0  0
  -27.4284  -19.9843   19.6878 O   0  0  0  0  0  0  0  0  0  0  0  0
  -21.7918   -3.0267   17.9487 F   0  0  0  0  0  0  0  0  0  0  0  0
  -19.3262   -6.1964   20.4546 F   0  0  0  0  0  0  0  0  0  0  0  0
  1  2  1  0  0  0  0
  1  5  2  0  0  0  0
  2  6  2  0  0  0  0
  3  8  2  0  0  0  0
  3 16  1  0  0  0  0
  4  9  1  0  0  0  0
  4 16  2  0  0  0  0
  5 18  1  0  0  0  0
  6 20  1  0  0  0  0
  7 10  2  0  0  0  0
  7 19  1  0  0  0  0
  8 23  1  0  0  0  0
  9 23  2  0  0  0  0
 10 24  1  0  0  0  0
 11 12  2  0  0  0  0
 11 25  1  0  0  0  0
 12 27  1  0  0  0  0
 13 21  1  0  0  0  0
 13 24  2  0  0  0  0
 14 22  1  0  0  0  0
 14 26  2  0  0  0  0
 15 27  2  0  0  0  0
 15 28  1  0  0  0  0
 16 29  1  0  0  0  0
 17 29  1  0  0  0  0
 17 32  2  0  0  0  0
 17 33  1  0  0  0  0
 18 20  2  0  0  0  0
 18 39  1  0  0  0  0
 19 21  2  0  0  0  0
 19 40  1  0  0  0  0
 20 48  1  0  0  0  0
 21 41  1  0  0  0  0
 22 30  2  0  0  0  0
 22 58  1  0  0  0  0
 23 82  1  0  0  0  0
 24 83  1  0  0  0  0
 25 28  2  0  0  0  0
 25 82  1  0  0  0  0
 26 31  1  0  0  0  0
 26 84  1  0  0  0  0
 27 85  1  0  0  0  0
 28 86  1  0  0  0  0
 29 65  2  0  0  0  0
 30 34  1  0  0  0  0
 30 66  1  0  0  0  0
 31 66  2  0  0  0  0
 31 72  1  0  0  0  0
 32 67  1  0  0  0  0
 32 70  1  0  0  0  0
 33 71  1  0  0  0  0
 33 76  2  0  0  0  0
 34 35  1  0  0  0  0
 34 77  2  0  0  0  0
 35 68  1  0  0  0  0
 35 78  2  0  0  0  0
 36 49  1  0  0  0  0
 36 73  1  0  0  0  0
 36 79  2  0  0  0  0
 37 62  1  0  0  0  0
 37 69  1  0  0  0  0
 37 80  2  0  0  0  0
 38 63  1  0  0  0  0
 38 74  1  0  0  0  0
 38 81  2  0  0  0  0
 39 42  1  0  0  0  0
 40 49  1  0  0  0  0
 41 69  1  0  0  0  0
 42 44  1  0  0  0  0
 43 45  1  0  0  0  0
 43 46  1  0  0  0  0
 44 48  1  0  0  0  0
 45 50  1  0  0  0  0
 46 68  1  0  0  0  0
 47 50  1  0  0  0  0
 47 68  1  0  0  0  0
 48 73  1  0  0  0  0
 49 69  1  0  0  0  0
 50 67  1  0  0  0  0
 51 58  1  0  0  0  0
 52 63  1  0  0  0  0
 53 64  1  0  0  0  0
 54 64  1  0  0  0  0
 55 64  1  0  0  0  0
 56 72  1  0  0  0  0
 57 75  1  0  0  0  0
 59 60  1  0  0  0  0
 59 61  1  0  0  0  0
 60 83  1  0  0  0  0
 61 84  1  0  0  0  0
 62 64  1  0  0  0  0
 62 74  1  0  0  0  0
 63 75  1  0  0  0  0
 65 67  1  0  0  0  0
M  CHG  1  75   1
M  ISO  4  34 100  35 100  60 101  83 101
M  END
> <Batch ID>
0106

> <Smiles>
CCc1cc(OCC[101CH2:1][101O:1]c2ccc3c(c2)CN(C(=O)C(NC(=O)C(C)NC)C(C)(C)C)C(C(=O)NC2CCCc4ccccc42)C3)c(NC)nc1[100C:0](=O)[100C:0](=O)N1CCCC(n2nc(-c3ccc(Oc4ccc(F)cc4F)cc3)c(C(N)=O)c2N)C1

> <Shape>
0.183

> <Color>
0.186

> <Negative vol penalty>
0.000

$$$$

  -OEChem-04052301143D

 86 94  0     1  0  0  0  0  0999 V2000
  -28.0343  -30.2889   27.9770 C   0  0  0  0  0  0  0  0  0  0  0  0
  -27.9795  -29.4078   26.9018 C   0  0  0  0  0  0  0  0  0  0  0  0
  -24.7267   -8.7394   21.5712 C   0  0  0  0  0  0  0  0  0  0  0  0
  -22.9818  -10.2260   20.8081 C   0  0  0  0  0  0  0  0  0  0  0  0
  -26.9103  -31.0392   28.3199 C   0  0  0  0  0  0  0  0  0  0  0  0
  -26.8003  -29.2756   26.1695 C   0  0  0  0  0  0  0  0  0  0  0  0
  -27.6104  -29.2469   21.1707 C   0  0  0  0  0  0  0  0  0  0  0  0
  -23.8284   -8.1371   22.4519 C   0  0  0  0  0  0  0  0  0  0  0  0
  -22.0834   -9.6236   21.6888 C   0  0  0  0  0  0  0  0  0  0  0  0
  -28.0834  -28.0617   20.6092 C   0  0  0  0  0  0  0  0  0  0  0  0
  -21.3352   -5.8584   22.2954 C   0  0  0  0  0  0  0  0  0  0  0  0
  -21.3268   -4.4651   22.3605 C   0  0  0  0  0  0  0  0  0  0  0  0
  -24.5172  -17.9875   18.9188 C   0  0  0  0  0  0  0  0  0  0  0  0
  -25.8488  -27.5239   19.8768 C   0  0  0  0  0  0  0  0  0  0  0  0
  -26.3794  -19.0384   20.0434 C   0  0  0  0  0  0  0  0  0  0  0  0
  -21.8931   -4.5714   24.7068 C   0  0  0  0  0  0  0  0  0  0  0  0
  -24.3034   -9.7840   20.7493 C   0  0  0  0  0  0  0  0  0  0  0  0
  -23.7852  -19.1700   19.0258 C   0  0  0  0  0  0  0  0  0  0  0  0
  -25.4959  -10.0347   18.5081 C   0  0  0  0  0  0  0  0  0  0  0  0
  -25.7196  -30.9232   27.5854 C   0  0  0  0  0  0  0  0  0  0  0  0
  -26.2489  -29.5748   21.0990 C   0  0  0  0  0  0  0  0  0  0  0  0
  -25.6588  -30.0240   26.5037 C   0  0  0  0  0  0  0  0  0  0  0  0
  -25.3614  -28.7150   20.4361 C   0  0  0  0  0  0  0  0  0  0  0  0
  -24.3502  -20.2867   19.6417 C   0  0  0  0  0  0  0  0  0  0  0  0
  -25.8143  -17.9217   19.4276 C   0  0  0  0  0  0  0  0  0  0  0  0
  -22.5067   -8.5791   22.5107 C   0  0  0  0  0  0  0  0  0  0  0  0
  -27.2021  -27.1986   19.9646 C   0  0  0  0  0  0  0  0  0  0  0  0
  -21.6226   -6.6082   23.4360 C   0  0  0  0  0  0  0  0  0  0  0  0
  -25.6474  -20.2209   20.1505 C   0  0  0  0  0  0  0  0  0  0  0  0
  -21.6057   -3.8216   23.5662 C   0  0  0  0  0  0  0  0  0  0  0  0
  -21.9015   -5.9647   24.6417 C   0  0  0  0  0  0  0  0  0  0  0  0
  -25.2311  -10.4070   19.8397 C   0  0  0  0  0  0  0  0  0  0  0  0
  -26.4450  -10.9319   18.0830 C   0  0  0  0  0  0  0  0  0  0  0  0
  -22.4329  -19.2095   18.4851 C   0  0  0  0  0  0  0  0  0  0  0  0
  -24.9342   -8.9728   17.7255 C   0  0  0  0  0  0  0  0  0  0  0  0
  -23.9417  -30.0547   23.2321 C   0  0  0  0  0  0  0  0  0  0  0  0
  -22.2297  -30.9037   20.6109 C   0  0  0  0  0  0  0  0  0  0  0  0
  -21.7939  -30.6693   17.2343 C   0  0  0  0  0  0  0  0  0  0  0  0
  -27.8567  -16.4874   19.7706 C   0  0  0  0  0  0  0  0  0  0  0  0
  -24.5162  -31.7201   28.0231 C   0  0  0  0  0  0  0  0  0  0  0  0
  -25.7589  -30.8698   21.6864 C   0  0  0  0  0  0  0  0  0  0  0  0
  -23.8938  -29.0307   20.3140 C   0  0  0  0  0  0  0  0  0  0  0  0
  -23.4193  -31.7981   26.9643 C   0  0  0  0  0  0  0  0  0  0  0  0
  -30.0210  -13.6605   19.7266 C   0  0  0  0  0  0  0  0  0  0  0  0
  -23.1547  -30.4195   26.3673 C   0  0  0  0  0  0  0  0  0  0  0  0
  -29.0626  -12.4718   19.6233 C   0  0  0  0  0  0  0  0  0  0  0  0
  -29.4514  -14.7736   20.6043 C   0  0  0  0  0  0  0  0  0  0  0  0
  -27.1476  -14.0412   20.1297 C   0  0  0  0  0  0  0  0  0  0  0  0
  -24.4053  -29.8711   25.6698 C   0  0  1  0  0  0  0  0  0  0  0  0
  -24.2667  -30.8556   22.0031 C   0  0  1  0  0  0  0  0  0  0  0  0
  -27.6497  -12.9219   19.2030 C   0  0  2  0  0  0  0  0  0  0  0  0
  -23.5732  -21.5595   19.7600 C   0  0  0  0  0  0  0  0  0  0  0  0
  -20.2858  -31.4440   15.3842 C   0  0  0  0  0  0  0  0  0  0  0  0
  -20.1172  -28.8858   21.4914 C   0  0  0  0  0  0  0  0  0  0  0  0
  -19.1428  -29.0059   19.1883 C   0  0  0  0  0  0  0  0  0  0  0  0
  -19.2002  -31.0449   20.6242 C   0  0  0  0  0  0  0  0  0  0  0  0
  -24.0081  -32.0718   15.8597 C   0  0  0  0  0  0  0  0  0  0  0  0
  -28.7479  -23.9248   19.8305 C   0  0  0  0  0  0  0  0  0  0  0  0
  -27.4797  -23.3158   20.4183 C   0  0  0  0  0  0  0  0  0  0  0  0
  -28.7940  -25.4331   20.0356 C   0  0  0  0  0  0  0  0  0  1  0  0
  -27.4124  -21.8146   20.1762 C   0  0  0  0  0  0  0  0  0  0  0  0
  -21.3520  -30.1722   19.6242 C   0  0  1  0  0  0  0  0  0  0  0  0
  -21.5541  -31.7286   16.1737 C   0  0  2  0  0  0  0  0  0  0  0  0
  -19.9803  -29.7700   20.2359 C   0  0  0  0  0  0  0  0  0  0  0  0
  -25.9537  -11.4587   20.2345 N   0  0  0  0  0  0  0  0  0  0  0  0
  -26.6820  -11.7548   19.1445 N   0  0  0  0  0  0  0  0  0  0  0  0
  -23.4622  -30.3058   20.9101 N   0  0  0  0  0  0  0  0  0  0  0  0
  -28.1133  -15.1512   20.1442 N   0  0  0  0  0  0  0  0  0  0  0  0
  -27.0917  -11.0892   16.9085 N   0  0  0  0  0  0  0  0  0  0  0  0
  -21.3889  -18.8531   19.3319 N   0  0  0  0  0  0  0  0  0  0  0  0
  -23.9708   -8.1444   18.3170 N   0  0  0  0  0  0  0  0  0  0  0  0
  -26.5582  -16.7206   19.3189 N   0  0  0  0  0  0  0  0  0  0  0  0
  -24.5780  -30.4968   24.3763 N   0  0  0  0  0  0  0  0  0  0  0  0
  -21.2535  -31.0321   18.4498 N   0  0  0  0  0  0  0  0  0  0  0  0
  -22.6994  -31.7769   15.2214 N   0  3  0  0  0  0  0  0  0  0  0  0
  -22.2185  -19.5334   17.3052 O   0  0  0  0  0  0  0  0  0  0  0  0
  -25.2884   -8.7545   16.5421 O   0  0  0  0  0  0  0  0  0  0  0  0
  -23.1697  -29.1067   23.1488 O   0  0  0  0  0  0  0  0  0  0  0  0
  -21.8394  -31.9699   21.0929 O   0  0  0  0  0  0  0  0  0  0  0  0
  -22.3969  -29.6229   17.0062 O   0  0  0  0  0  0  0  0  0  0  0  0
  -28.7327  -17.3547   19.8202 O   0  0  0  0  0  0  0  0  0  0  0  0
  -21.6298   -7.9914   23.3699 O   0  0  0  0  0  0  0  0  0  0  0  0
  -27.6611  -26.0408   19.4162 O   0  0  0  0  0  0  0  0  0  1  0  0
  -26.2195  -21.3079   20.7587 O   0  0  0  0  0  0  0  0  0  0  0  0
  -21.5961   -2.4836   23.6290 F   0  0  0  0  0  0  0  0  0  0  0  0
  -22.1771   -6.6797   25.7410 F   0  0  0  0  0  0  0  0  0  0  0  0
  1  2  1  0  0  0  0
  1  5  2  0  0  0  0
  2  6  2  0  0  0  0
  3  8  2  0  0  0  0
  3 17  1  0  0  0  0
  4  9  1  0  0  0  0
  4 17  2  0  0  0  0
  5 20  1  0  0  0  0
  6 22  1  0  0  0  0
  7 10  2  0  0  0  0
  7 21  1  0  0  0  0
  8 26  1  0  0  0  0
  9 26  2  0  0  0  0
 10 27  1  0  0  0  0
 11 12  2  0  0  0  0
 11 28  1  0  0  0  0
 12 30  1  0  0  0  0
 13 18  2  0  0  0  0
 13 25  1  0  0  0  0
 14 23  1  0  0  0  0
 14 27  2  0  0  0  0
 15 25  2  0  0  0  0
 15 29  1  0  0  0  0
 16 30  2  0  0  0  0
 16 31  1  0  0  0  0
 17 32  1  0  0  0  0
 18 24  1  0  0  0  0
 18 34  1  0  0  0  0
 19 32  1  0  0  0  0
 19 33  2  0  0  0  0
 19 35  1  0  0  0  0
 20 22  2  0  0  0  0
 20 40  1  0  0  0  0
 21 23  2  0  0  0  0
 21 41  1  0  0  0  0
 22 49  1  0  0  0  0
 23 42  1  0  0  0  0
 24 29  2  0  0  0  0
 24 52  1  0  0  0  0
 25 72  1  0  0  0  0
 26 82  1  0  0  0  0
 27 83  1  0  0  0  0
 28 31  2  0  0  0  0
 28 82  1  0  0  0  0
 29 84  1  0  0  0  0
 30 85  1  0  0  0  0
 31 86  1  0  0  0  0
 32 65  2  0  0  0  0
 33 66  1  0  0  0  0
 33 69  1  0  0  0  0
 34 70  1  0  0  0  0
 34 76  2  0  0  0  0
 35 71  1  0  0  0  0
 35 77  2  0  0  0  0
 36 50  1  0  0  0  0
 36 73  1  0  0  0  0
 36 78  2  0  0  0  0
 37 62  1  0  0  0  0
 37 67  1  0  0  0  0
 37 79  2  0  0  0  0
 38 63  1  0  0  0  0
 38 74  1  0  0  0  0
 38 80  2  0  0  0  0
 39 68  1  0  0  0  0
 39 72  1  0  0  0  0
 39 81  2  0  0  0  0
 40 43  1  0  0  0  0
 41 50  1  0  0  0  0
 42 67  1  0  0  0  0
 43 45  1  0  0  0  0
 44 46  1  0  0  0  0
 44 47  1  0  0  0  0
 45 49  1  0  0  0  0
 46 51  1  0  0  0  0
 47 68  1  0  0  0  0
 48 51  1  0  0  0  0
 48 68  1  0  0  0  0
 49 73  1  0  0  0  0
 50 67  1  0  0  0  0
 51 66  1  0  0  0  0
 53 63  1  0  0  0  0
 54 64  1  0  0  0  0
 55 64  1  0  0  0  0
 56 64  1  0  0  0  0
 57 75  1  0  0  0  0
 58 59  1  0  0  0  0
 58 60  1  0  0  0  0
 59 61  1  0  0  0  0
 60 83  1  0  0  0  0
 61 84  1  0  0  0  0
 62 64  1  0  0  0  0
 62 74  1  0  0  0  0
 63 75  1  0  0  0  0
 65 66  1  0  0  0  0
M  CHG  1  75   1
M  ISO  4  39 100  60 101  72 100  83 101
M  END
> <Batch ID>
0106

> <Smiles>
CNC(C)C(=O)NC(C(=O)N1Cc2cc([101O:1][101CH2:1]CCCOc3cc([100NH:0][100C:0](=O)N4CCCC(n5nc(-c6ccc(Oc7ccc(F)cc7F)cc6)c(C(N)=O)c5N)C4)cc(C(N)=O)c3C)ccc2CC1C(=O)NC1CCCc2ccccc21)C(C)(C)C

> <Shape>
0.255

> <Color>
0.107

> <Negative vol penalty>
0.000

$$$$

  -OEChem-04052301143D

 87 95  0     1  0  0  0  0  0999 V2000
  -31.7853  -12.6425   21.4969 C   0  0  0  0  0  0  0  0  0  0  0  0
  -31.3933  -13.9765   21.4500 C   0  0  0  0  0  0  0  0  0  0  0  0
  -25.8189  -29.4129   20.9502 C   0  0  0  0  0  0  0  0  0  0  0  0
  -23.4232  -29.2558   20.6808 C   0  0  0  0  0  0  0  0  0  0  0  0
  -30.9823  -11.6604   20.9184 C   0  0  0  0  0  0  0  0  0  0  0  0
  -30.1985  -14.3293   20.8237 C   0  0  0  0  0  0  0  0  0  0  0  0
  -27.4905  -17.6432   23.5310 C   0  0  0  0  0  0  0  0  0  0  0  0
  -25.6612  -30.6041   21.6585 C   0  0  0  0  0  0  0  0  0  0  0  0
  -23.2654  -30.4470   21.3891 C   0  0  0  0  0  0  0  0  0  0  0  0
  -27.8952  -18.9769   23.4942 C   0  0  0  0  0  0  0  0  0  0  0  0
  -24.7957  -31.5450   24.7887 C   0  0  0  0  0  0  0  0  0  0  0  0
  -25.5325  -31.7037   25.9624 C   0  0  0  0  0  0  0  0  0  0  0  0
  -26.1686  -19.4499   21.8774 C   0  0  0  0  0  0  0  0  0  0  0  0
  -29.9052  -25.1208   17.5809 C   0  0  0  0  0  0  0  0  0  0  0  0
  -27.8641  -24.6899   15.7287 C   0  0  0  0  0  0  0  0  0  0  0  0
  -26.6036  -33.6563   25.0259 C   0  0  0  0  0  0  0  0  0  0  0  0
  -24.6999  -28.7387   20.4613 C   0  0  0  0  0  0  0  0  0  0  0  0
  -24.8885  -26.2031   20.2553 C   0  0  0  0  0  0  0  0  0  0  0  0
  -29.7723  -12.0002   20.2931 C   0  0  0  0  0  0  0  0  0  0  0  0
  -26.4271  -17.1998   22.7317 C   0  0  0  0  0  0  0  0  0  0  0  0
  -29.3792  -13.3509   20.2351 C   0  0  0  0  0  0  0  0  0  0  0  0
  -25.7507  -18.1107   21.9077 C   0  0  0  0  0  0  0  0  0  0  0  0
  -29.8159  -25.9220   16.4426 C   0  0  0  0  0  0  0  0  0  0  0  0
  -28.9741  -24.1041   17.7930 C   0  0  0  0  0  0  0  0  0  0  0  0
  -28.7953  -25.7066   15.5165 C   0  0  0  0  0  0  0  0  0  0  0  0
  -24.3845  -31.1212   21.8780 C   0  0  0  0  0  0  0  0  0  0  0  0
  -27.2361  -19.8799   22.6652 C   0  0  0  0  0  0  0  0  0  0  0  0
  -24.9629  -32.4419   23.7336 C   0  0  0  0  0  0  0  0  0  0  0  0
  -27.9535  -23.8886   16.8670 C   0  0  0  0  0  0  0  0  0  0  0  0
  -26.4365  -32.7594   26.0810 C   0  0  0  0  0  0  0  0  0  0  0  0
  -25.8669  -33.4976   23.8522 C   0  0  0  0  0  0  0  0  0  0  0  0
  -24.8622  -27.5085   19.7290 C   0  0  0  0  0  0  0  0  0  0  0  0
  -25.0639  -25.3943   19.1591 C   0  0  0  0  0  0  0  0  0  0  0  0
  -28.4343  -23.7328   19.9754 C   0  0  0  0  0  0  0  0  0  0  0  0
  -24.7652  -25.7610   21.6137 C   0  0  0  0  0  0  0  0  0  0  0  0
  -28.4998  -22.9340   21.2365 C   0  0  0  0  0  0  0  0  0  0  0  0
  -26.1196  -15.0852   20.3784 C   0  0  0  0  0  0  0  0  0  0  0  0
  -22.9681  -15.7918   20.6797 C   0  0  0  0  0  0  0  0  0  0  0  0
  -20.5803  -18.0192   21.6716 C   0  0  0  0  0  0  0  0  0  0  0  0
  -27.4574  -26.8134   13.7065 C   0  0  0  0  0  0  0  0  0  0  0  0
  -28.9610  -10.9091   19.6404 C   0  0  0  0  0  0  0  0  0  0  0  0
  -25.9855  -15.7637   22.8028 C   0  0  0  0  0  0  0  0  0  0  0  0
  -24.5900  -17.6894   21.0453 C   0  0  0  0  0  0  0  0  0  0  0  0
  -27.5262  -11.3233   19.3242 C   0  0  0  0  0  0  0  0  0  0  0  0
  -24.2217  -25.1833   14.4587 C   0  0  0  0  0  0  0  0  0  0  0  0
  -27.5011  -12.6951   18.6576 C   0  0  0  0  0  0  0  0  0  0  0  0
  -23.9845  -25.5584   15.9203 C   0  0  0  0  0  0  0  0  0  0  0  0
  -25.0518  -26.2365   13.7312 C   0  0  0  0  0  0  0  0  0  0  0  0
  -26.1178  -26.9102   15.8645 C   0  0  0  0  0  0  0  0  0  0  0  0
  -28.0779  -13.7704   19.5864 C   0  0  1  0  0  0  0  0  0  0  0  0
  -25.2220  -15.3112   21.5620 C   0  0  1  0  0  0  0  0  0  0  0  0
  -25.3181  -25.8454   16.6299 C   0  0  1  0  0  0  0  0  0  0  0  0
  -30.8266  -27.0040   16.2410 C   0  0  0  0  0  0  0  0  0  0  0  0
  -30.3815  -25.7022   12.7503 C   0  0  0  0  0  0  0  0  0  0  0  0
  -18.0918  -18.3322   21.7558 C   0  0  0  0  0  0  0  0  0  0  0  0
  -22.9444  -16.3897   17.6877 C   0  0  0  0  0  0  0  0  0  0  0  0
  -20.7647  -17.5775   18.0131 C   0  0  0  0  0  0  0  0  0  0  0  0
  -20.9429  -15.1411   18.5179 C   0  0  0  0  0  0  0  0  0  0  0  0
  -20.5884  -18.2158   24.6246 C   0  0  0  0  0  0  0  0  0  0  0  0
  -27.3416  -21.6169   16.5197 C   0  0  0  0  0  0  0  0  0  0  0  0
  -27.4362  -21.8831   21.3991 C   0  0  0  0  0  0  0  0  0  1  0  0
  -29.9112  -26.8559   13.6128 C   0  0  0  0  0  0  0  0  0  0  0  0
  -22.0378  -16.8114   20.0681 C   0  0  1  0  0  0  0  0  0  0  0  0
  -19.3227  -17.8439   22.5036 C   0  0  2  0  0  0  0  0  0  0  0  0
  -21.6955  -16.4878   18.5864 C   0  0  0  0  0  0  0  0  0  0  0  0
  -25.0094  -27.5323   18.4017 N   0  0  0  0  0  0  0  0  0  0  0  0
  -29.0753  -23.3046   18.9440 N   0  0  0  0  0  0  0  0  0  0  0  0
  -25.1299  -26.2319   18.0847 N   0  0  0  0  0  0  0  0  0  0  0  0
  -24.1999  -16.2734   21.1451 N   0  0  0  0  0  0  0  0  0  0  0  0
  -26.2899  -26.5431   14.4494 N   0  0  0  0  0  0  0  0  0  0  0  0
  -25.1667  -24.0556   19.0191 N   0  0  0  0  0  0  0  0  0  0  0  0
  -24.5900  -26.7243   22.6165 N   0  0  0  0  0  0  0  0  0  0  0  0
  -27.1070  -14.1426   20.5930 N   0  0  0  0  0  0  0  0  0  0  0  0
  -20.8762  -16.8835   20.9477 N   0  0  0  0  0  0  0  0  0  0  0  0
  -28.6843  -26.5259   14.3345 N   0  0  0  0  0  0  0  0  0  0  0  0
  -19.4334  -18.6097   23.7773 N   0  3  0  0  0  0  0  0  0  0  0  0
  -24.8255  -24.5488   21.9306 O   0  0  0  0  0  0  0  0  0  0  0  0
  -29.3999  -23.1732   22.0258 O   0  0  0  0  0  0  0  0  0  0  0  0
  -25.9296  -15.7181   19.3465 O   0  0  0  0  0  0  0  0  0  0  0  0
  -22.6119  -14.6128   20.7486 O   0  0  0  0  0  0  0  0  0  0  0  0
  -21.2326  -19.0608   21.6617 O   0  0  0  0  0  0  0  0  0  0  0  0
  -27.4132  -27.3278   12.5821 O   0  0  0  0  0  0  0  0  0  0  0  0
  -24.2302  -32.2834   22.5693 O   0  0  0  0  0  0  0  0  0  0  0  0
  -27.0345  -22.9009   17.0588 O   0  0  0  0  0  0  0  0  0  0  0  0
  -27.6295  -21.1820   22.6269 O   0  0  0  0  0  0  0  0  0  1  0  0
  -27.1428  -32.9126   27.2088 F   0  0  0  0  0  0  0  0  0  0  0  0
  -26.0309  -34.3631   22.8424 F   0  0  0  0  0  0  0  0  0  0  0  0
  1  2  1  0  0  0  0
  1  5  2  0  0  0  0
  2  6  2  0  0  0  0
  3  8  2  0  0  0  0
  3 17  1  0  0  0  0
  4  9  1  0  0  0  0
  4 17  2  0  0  0  0
  5 19  1  0  0  0  0
  6 21  1  0  0  0  0
  7 10  2  0  0  0  0
  7 20  1  0  0  0  0
  8 26  1  0  0  0  0
  9 26  2  0  0  0  0
 10 27  1  0  0  0  0
 11 12  2  0  0  0  0
 11 28  1  0  0  0  0
 12 30  1  0  0  0  0
 13 22  1  0  0  0  0
 13 27  2  0  0  0  0
 14 23  1  0  0  0  0
 14 24  2  0  0  0  0
 15 25  1  0  0  0  0
 15 29  2  0  0  0  0
 16 30  2  0  0  0  0
 16 31  1  0  0  0  0
 17 32  1  0  0  0  0
 18 32  1  0  0  0  0
 18 33  2  0  0  0  0
 18 35  1  0  0  0  0
 19 21  2  0  0  0  0
 19 41  1  0  0  0  0
 20 22  2  0  0  0  0
 20 42  1  0  0  0  0
 21 50  1  0  0  0  0
 22 43  1  0  0  0  0
 23 25  2  0  0  0  0
 23 53  1  0  0  0  0
 24 29  1  0  0  0  0
 24 67  1  0  0  0  0
 25 75  1  0  0  0  0
 26 83  1  0  0  0  0
 27 85  1  0  0  0  0
 28 31  2  0  0  0  0
 28 83  1  0  0  0  0
 29 84  1  0  0  0  0
 30 86  1  0  0  0  0
 31 87  1  0  0  0  0
 32 66  2  0  0  0  0
 33 68  1  0  0  0  0
 33 71  1  0  0  0  0
 34 36  1  0  0  0  0
 34 67  2  0  0  0  0
 35 72  1  0  0  0  0
 35 77  2  0  0  0  0
 36 61  1  0  0  0  0
 36 78  2  0  0  0  0
 37 51  1  0  0  0  0
 37 73  1  0  0  0  0
 37 79  2  0  0  0  0
 38 63  1  0  0  0  0
 38 69  1  0  0  0  0
 38 80  2  0  0  0  0
 39 64  1  0  0  0  0
 39 74  1  0  0  0  0
 39 81  2  0  0  0  0
 40 70  1  0  0  0  0
 40 75  1  0  0  0  0
 40 82  2  0  0  0  0
 41 44  1  0  0  0  0
 42 51  1  0  0  0  0
 43 69  1  0  0  0  0
 44 46  1  0  0  0  0
 45 47  1  0  0  0  0
 45 48  1  0  0  0  0
 46 50  1  0  0  0  0
 47 52  1  0  0  0  0
 48 70  1  0  0  0  0
 49 52  1  0  0  0  0
 49 70  1  0  0  0  0
 50 73  1  0  0  0  0
 51 69  1  0  0  0  0
 52 68  1  0  0  0  0
 54 62  1  0  0  0  0
 55 64  1  0  0  0  0
 56 65  1  0  0  0  0
 57 65  1  0  0  0  0
 58 65  1  0  0  0  0
 59 76  1  0  0  0  0
 60 84  1  0  0  0  0
 61 85  1  0  0  0  0
 62 75  1  0  0  0  0
 63 65  1  0  0  0  0
 63 74  1  0  0  0  0
 64 76  1  0  0  0  0
 66 68  1  0  0  0  0
M  CHG  1  76   1
M  ISO  4  40 100  61 101  75 100  85 101
M  END
> <Batch ID>
0106

> <Smiles>
C=C[100N:0](c1cc(OC)c(NCC(=O)[101CH2:1][101O:1]c2ccc3c(c2)CN(C(=O)C(NC(=O)C(C)NC)C(C)(C)C)C(C(=O)NC2CCCc4ccccc42)C3)cc1C)[100C:0](=O)N1CCCC(n2nc(-c3ccc(Oc4ccc(F)cc4F)cc3)c(C(N)=O)c2N)C1

> <Shape>
0.207

> <Color>
0.072

> <Negative vol penalty>
0.000

$$$$

  -OEChem-04052301143D

 84 92  0     1  0  0  0  0  0999 V2000
  -25.9073  -37.6073   20.7644 C   0  0  0  0  0  0  0  0  0  0  0  0
  -26.6379  -36.4602   20.4715 C   0  0  0  0  0  0  0  0  0  0  0  0
  -23.4112   -9.6513   20.4473 C   0  0  0  0  0  0  0  0  0  0  0  0
  -24.0134  -10.1861   22.7251 C   0  0  0  0  0  0  0  0  0  0  0  0
  -24.9566  -37.5855   21.7840 C   0  0  0  0  0  0  0  0  0  0  0  0
  -26.4189  -35.2909   21.1989 C   0  0  0  0  0  0  0  0  0  0  0  0
  -26.7092  -29.5434   19.1040 C   0  0  0  0  0  0  0  0  0  0  0  0
  -22.7821   -8.4866   20.8870 C   0  0  0  0  0  0  0  0  0  0  0  0
  -23.3842   -9.0214   23.1649 C   0  0  0  0  0  0  0  0  0  0  0  0
  -27.7087  -28.5732   19.1622 C   0  0  0  0  0  0  0  0  0  0  0  0
  -20.2292   -7.9738   23.7722 C   0  0  0  0  0  0  0  0  0  0  0  0
  -19.4057   -8.0679   24.8940 C   0  0  0  0  0  0  0  0  0  0  0  0
  -26.6584  -27.6166   21.1117 C   0  0  0  0  0  0  0  0  0  0  0  0
  -30.5357  -18.3471   19.8940 C   0  0  0  0  0  0  0  0  0  0  0  0
  -28.8137  -20.0820   21.2384 C   0  0  0  0  0  0  0  0  0  0  0  0
  -20.7990   -6.4686   26.0509 C   0  0  0  0  0  0  0  0  0  0  0  0
  -24.0269  -10.5010   21.3663 C   0  0  0  0  0  0  0  0  0  0  0  0
  -24.0996  -12.9794   20.7662 C   0  0  0  0  0  0  0  0  0  0  0  0
  -24.7190  -36.4126   22.5178 C   0  0  0  0  0  0  0  0  0  0  0  0
  -25.6810  -29.5641   20.0574 C   0  0  0  0  0  0  0  0  0  0  0  0
  -25.4651  -35.2537   22.2302 C   0  0  0  0  0  0  0  0  0  0  0  0
  -25.6455  -28.5865   21.0620 C   0  0  0  0  0  0  0  0  0  0  0  0
  -30.5684  -19.7142   19.6189 C   0  0  0  0  0  0  0  0  0  0  0  0
  -28.7810  -18.7149   21.5135 C   0  0  0  0  0  0  0  0  0  0  0  0
  -29.6420  -17.8475   20.8413 C   0  0  0  0  0  0  0  0  0  0  0  0
  -29.7074  -20.5816   20.2911 C   0  0  0  0  0  0  0  0  0  0  0  0
  -22.7686   -8.1717   22.2458 C   0  0  0  0  0  0  0  0  0  0  0  0
  -27.6850  -27.6114   20.1679 C   0  0  0  0  0  0  0  0  0  0  0  0
  -21.3376   -7.1271   23.7896 C   0  0  0  0  0  0  0  0  0  0  0  0
  -19.6906   -7.3153   26.0334 C   0  0  0  0  0  0  0  0  0  0  0  0
  -21.6225   -6.3745   24.9289 C   0  0  0  0  0  0  0  0  0  0  0  0
  -24.6774  -11.7040   20.9126 C   0  0  0  0  0  0  0  0  0  0  0  0
  -25.1255  -13.7707   20.3101 C   0  0  0  0  0  0  0  0  0  0  0  0
  -22.7559  -13.4103   21.0198 C   0  0  0  0  0  0  0  0  0  0  0  0
  -24.7061  -31.6377   22.2605 C   0  0  0  0  0  0  0  0  0  0  0  0
  -29.1447  -24.2899   20.1713 C   0  0  0  0  0  0  0  0  0  0  0  0
  -22.2804  -29.5150   22.6247 C   0  0  0  0  0  0  0  0  0  0  0  0
  -21.1586  -26.3104   22.2804 C   0  0  0  0  0  0  0  0  0  0  0  0
  -30.4224  -15.4749   20.5123 C   0  0  0  0  0  0  0  0  0  0  0  0
  -23.7146  -36.4507   23.6422 C   0  0  0  0  0  0  0  0  0  0  0  0
  -24.5954  -30.6011   19.9650 C   0  0  0  0  0  0  0  0  0  0  0  0
  -24.5523  -28.5528   22.0974 C   0  0  0  0  0  0  0  0  0  0  0  0
  -23.2781  -35.0668   24.1162 C   0  0  0  0  0  0  0  0  0  0  0  0
  -29.7349  -12.5384   18.6198 C   0  0  0  0  0  0  0  0  0  0  0  0
  -24.4902  -34.1598   24.3035 C   0  0  0  0  0  0  0  0  0  0  0  0
  -28.3103  -12.1644   19.0356 C   0  0  0  0  0  0  0  0  0  0  0  0
  -30.5387  -13.0997   19.7914 C   0  0  0  0  0  0  0  0  0  0  0  0
  -28.4777  -13.8414   20.9189 C   0  0  0  0  0  0  0  0  0  0  0  0
  -25.2388  -33.9591   22.9804 C   0  0  1  0  0  0  0  0  0  0  0  0
  -23.8811  -30.8383   21.2920 C   0  0  1  0  0  0  0  0  0  0  0  0
  -27.6090  -13.3320   19.7572 C   0  0  2  0  0  0  0  0  0  0  0  0
  -19.1454  -24.8722   22.7000 C   0  0  0  0  0  0  0  0  0  0  0  0
  -22.9469  -29.4547   25.6017 C   0  0  0  0  0  0  0  0  0  0  0  0
  -21.5914  -27.3583   25.7915 C   0  0  0  0  0  0  0  0  0  0  0  0
  -20.5011  -29.4864   25.0806 C   0  0  0  0  0  0  0  0  0  0  0  0
  -20.8679  -25.6766   19.4042 C   0  0  0  0  0  0  0  0  0  0  0  0
  -28.8614  -22.8952   20.6877 C   0  0  0  0  0  0  0  0  0  0  0  0
  -28.3004  -25.3956   20.7744 C   0  0  0  0  0  0  0  0  0  1  0  0
  -22.0495  -28.2916   23.4785 C   0  0  1  0  0  0  0  0  0  0  0  0
  -19.8751  -25.7499   21.6949 C   0  0  2  0  0  0  0  0  0  0  0  0
  -21.7940  -28.6493   24.9699 C   0  0  0  0  0  0  0  0  0  0  0  0
  -25.9699  -11.6818   20.5767 N   0  0  0  0  0  0  0  0  0  0  0  0
  -26.2128  -12.9529   20.2145 N   0  0  0  0  0  0  0  0  0  0  0  0
  -23.5171  -29.5917   21.9686 N   0  0  0  0  0  0  0  0  0  0  0  0
  -29.8146  -14.2047   20.4234 N   0  0  0  0  0  0  0  0  0  0  0  0
  -31.4810  -20.1998   18.6557 N   0  0  0  0  0  0  0  0  0  0  0  0
  -27.8676  -18.2304   22.4767 N   0  0  0  0  0  0  0  0  0  0  0  0
  -25.1944  -15.0792   19.9854 N   0  0  0  0  0  0  0  0  0  0  0  0
  -21.8287  -12.4680   21.4853 N   0  0  0  0  0  0  0  0  0  0  0  0
  -29.6260  -16.4551   21.1035 N   0  0  0  0  0  0  0  0  0  0  0  0
  -29.7225  -21.9446   20.0319 N   0  0  0  0  0  0  0  0  0  0  0  0
  -24.5416  -33.0048   22.1450 N   0  0  0  0  0  0  0  0  0  0  0  0
  -20.9622  -27.5522   22.8466 N   0  0  0  0  0  0  0  0  0  0  0  0
  -20.1715  -24.9321   20.4848 N   0  3  0  0  0  0  0  0  0  0  0  0
  -22.3841  -14.5921   20.8232 O   0  0  0  0  0  0  0  0  0  0  0  0
  -25.4367  -31.0571   23.0548 O   0  0  0  0  0  0  0  0  0  0  0  0
  -30.0006  -24.5225   19.3186 O   0  0  0  0  0  0  0  0  0  0  0  0
  -21.3933  -30.3677   22.5374 O   0  0  0  0  0  0  0  0  0  0  0  0
  -22.2278  -25.7053   22.2427 O   0  0  0  0  0  0  0  0  0  0  0  0
  -31.5548  -15.6848   20.0700 O   0  0  0  0  0  0  0  0  0  0  0  0
  -22.1546   -7.0354   22.6753 O   0  0  0  0  0  0  0  0  0  0  0  0
  -28.6598  -26.6637   20.2273 O   0  0  0  0  0  0  0  0  0  1  0  0
  -18.9006   -7.4069   27.1112 F   0  0  0  0  0  0  0  0  0  0  0  0
  -22.6866   -5.5603   24.9520 F   0  0  0  0  0  0  0  0  0  0  0  0
  1  2  1  0  0  0  0
  1  5  2  0  0  0  0
  2  6  2  0  0  0  0
  3  8  2  0  0  0  0
  3 17  1  0  0  0  0
  4  9  1  0  0  0  0
  4 17  2  0  0  0  0
  5 19  1  0  0  0  0
  6 21  1  0  0  0  0
  7 10  2  0  0  0  0
  7 20  1  0  0  0  0
  8 27  1  0  0  0  0
  9 27  2  0  0  0  0
 10 28  1  0  0  0  0
 11 12  2  0  0  0  0
 11 29  1  0  0  0  0
 12 30  1  0  0  0  0
 13 22  1  0  0  0  0
 13 28  2  0  0  0  0
 14 23  1  0  0  0  0
 14 25  2  0  0  0  0
 15 24  2  0  0  0  0
 15 26  1  0  0  0  0
 16 30  2  0  0  0  0
 16 31  1  0  0  0  0
 17 32  1  0  0  0  0
 18 32  1  0  0  0  0
 18 33  2  0  0  0  0
 18 34  1  0  0  0  0
 19 21  2  0  0  0  0
 19 40  1  0  0  0  0
 20 22  2  0  0  0  0
 20 41  1  0  0  0  0
 21 49  1  0  0  0  0
 22 42  1  0  0  0  0
 23 26  2  0  0  0  0
 23 66  1  0  0  0  0
 24 25  1  0  0  0  0
 24 67  1  0  0  0  0
 25 70  1  0  0  0  0
 26 71  1  0  0  0  0
 27 81  1  0  0  0  0
 28 82  1  0  0  0  0
 29 31  2  0  0  0  0
 29 81  1  0  0  0  0
 30 83  1  0  0  0  0
 31 84  1  0  0  0  0
 32 62  2  0  0  0  0
 33 63  1  0  0  0  0
 33 68  1  0  0  0  0
 34 69  1  0  0  0  0
 34 75  2  0  0  0  0
 35 50  1  0  0  0  0
 35 72  1  0  0  0  0
 35 76  2  0  0  0  0
 36 57  1  0  0  0  0
 36 58  1  0  0  0  0
 36 77  2  0  0  0  0
 37 59  1  0  0  0  0
 37 64  1  0  0  0  0
 37 78  2  0  0  0  0
 38 60  1  0  0  0  0
 38 73  1  0  0  0  0
 38 79  2  0  0  0  0
 39 65  1  0  0  0  0
 39 70  1  0  0  0  0
 39 80  2  0  0  0  0
 40 43  1  0  0  0  0
 41 50  1  0  0  0  0
 42 64  1  0  0  0  0
 43 45  1  0  0  0  0
 44 46  1  0  0  0  0
 44 47  1  0  0  0  0
 45 49  1  0  0  0  0
 46 51  1  0  0  0  0
 47 65  1  0  0  0  0
 48 51  1  0  0  0  0
 48 65  1  0  0  0  0
 49 72  1  0  0  0  0
 50 64  1  0  0  0  0
 51 63  1  0  0  0  0
 52 60  1  0  0  0  0
 53 61  1  0  0  0  0
 54 61  1  0  0  0  0
 55 61  1  0  0  0  0
 56 74  1  0  0  0  0
 57 71  1  0  0  0  0
 58 82  1  0  0  0  0
 59 61  1  0  0  0  0
 59 73  1  0  0  0  0
 60 74  1  0  0  0  0
 62 63  1  0  0  0  0
M  CHG  1  74   1
M  ISO  4  39 100  58 101  70 100  82 101
M  END
> <Batch ID>
0106

> <Smiles>
CNC(C)C(=O)NC(C(=O)N1Cc2cc([101O:1][101CH2:1]C(=O)CNc3cc(N)c([100NH:0][100C:0](=O)N4CCCC(n5nc(-c6ccc(Oc7ccc(F)cc7F)cc6)c(C(N)=O)c5N)C4)cc3N)ccc2CC1C(=O)NC1CCCc2ccccc21)C(C)(C)C

> <Shape>
0.389

> <Color>
0.194

> <Negative vol penalty>
0.000

$$$$

  -OEChem-04052301143D

 87 96  0     1  0  0  0  0  0999 V2000
  -33.8082  -25.6441   11.6585 C   0  0  0  0  0  0  0  0  0  0  0  0
  -33.3770  -25.1040   12.8658 C   0  0  0  0  0  0  0  0  0  0  0  0
  -23.2902   -9.8307   19.8846 C   0  0  0  0  0  0  0  0  0  0  0  0
  -23.7377   -9.9352   22.2565 C   0  0  0  0  0  0  0  0  0  0  0  0
  -33.3793  -26.9129   11.2709 C   0  0  0  0  0  0  0  0  0  0  0  0
  -32.5173  -25.8329   13.6869 C   0  0  0  0  0  0  0  0  0  0  0  0
  -28.7205  -23.0201   15.5081 C   0  0  0  0  0  0  0  0  0  0  0  0
  -22.5614   -8.6565   20.0738 C   0  0  0  0  0  0  0  0  0  0  0  0
  -23.0089   -8.7610   22.4457 C   0  0  0  0  0  0  0  0  0  0  0  0
  -29.0113  -22.1731   16.5767 C   0  0  0  0  0  0  0  0  0  0  0  0
  -19.4768   -7.7855   21.1505 C   0  0  0  0  0  0  0  0  0  0  0  0
  -18.2485   -7.6729   20.4992 C   0  0  0  0  0  0  0  0  0  0  0  0
  -28.0603  -23.7814   18.1025 C   0  0  0  0  0  0  0  0  0  0  0  0
  -30.0972  -15.0546   22.1411 C   0  0  0  0  0  0  0  0  0  0  0  0
  -29.1904  -16.5073   23.8433 C   0  0  0  0  0  0  0  0  0  0  0  0
  -19.0481   -5.7159   19.3297 C   0  0  0  0  0  0  0  0  0  0  0  0
  -23.8784  -10.4700   20.9760 C   0  0  0  0  0  0  0  0  0  0  0  0
  -24.1427  -13.0022   20.8155 C   0  0  0  0  0  0  0  0  0  0  0  0
  -32.5063  -27.6537   12.0831 C   0  0  0  0  0  0  0  0  0  0  0  0
  -28.1062  -24.2610   15.7302 C   0  0  0  0  0  0  0  0  0  0  0  0
  -32.0774  -27.1134   13.3105 C   0  0  0  0  0  0  0  0  0  0  0  0
  -27.7604  -24.6412   17.0348 C   0  0  0  0  0  0  0  0  0  0  0  0
  -30.0241  -14.3028   24.4411 C   0  0  0  0  0  0  0  0  0  0  0  0
  -30.3375  -14.0465   23.0894 C   0  0  0  0  0  0  0  0  0  0  0  0
  -29.5194  -16.2699   22.5144 C   0  0  0  0  0  0  0  0  0  0  0  0
  -22.4207   -8.1217   21.3544 C   0  0  0  0  0  0  0  0  0  0  0  0
  -28.6838  -22.5550   17.8744 C   0  0  0  0  0  0  0  0  0  0  0  0
  -20.4908   -6.8634   20.8914 C   0  0  0  0  0  0  0  0  0  0  0  0
  -29.4513  -15.5335   24.8035 C   0  0  0  0  0  0  0  0  0  0  0  0
  -18.0341   -6.6381   19.5888 C   0  0  0  0  0  0  0  0  0  0  0  0
  -20.2764   -5.8286   19.9810 C   0  0  0  0  0  0  0  0  0  0  0  0
  -24.6318  -11.6826   20.7811 C   0  0  0  0  0  0  0  0  0  0  0  0
  -25.2459  -13.7838   20.5737 C   0  0  0  0  0  0  0  0  0  0  0  0
  -22.8101  -13.4788   21.0454 C   0  0  0  0  0  0  0  0  0  0  0  0
  -28.9276  -27.2913   15.2339 C   0  0  0  0  0  0  0  0  0  0  0  0
  -25.8837  -27.8666   16.1964 C   0  0  0  0  0  0  0  0  0  0  0  0
  -23.1500  -26.8118   17.9458 C   0  0  0  0  0  0  0  0  0  0  0  0
  -31.1560  -12.3807   21.3950 C   0  0  0  0  0  0  0  0  0  0  0  0
  -32.1075  -29.0405   11.6443 C   0  0  0  0  0  0  0  0  0  0  0  0
  -27.7750  -25.1515   14.5641 C   0  0  0  0  0  0  0  0  0  0  0  0
  -30.3389  -13.3151   25.5365 C   0  0  0  0  0  0  0  0  0  0  0  0
  -27.0815  -25.9541   17.3245 C   0  0  0  0  0  0  0  0  0  0  0  0
  -30.8991  -29.5932   12.3956 C   0  0  0  0  0  0  0  0  0  0  0  0
  -30.6282  -11.9220   24.9981 C   0  0  0  0  0  0  0  0  0  0  0  0
  -29.4894  -13.7413   18.3800 C   0  0  0  0  0  0  0  0  0  0  0  0
  -31.0510  -29.3605   13.8955 C   0  0  0  0  0  0  0  0  0  0  0  0
  -28.0209  -13.3981   18.6221 C   0  0  0  0  0  0  0  0  0  0  0  0
  -31.5466  -12.0087   23.7917 C   0  0  0  0  0  0  0  0  0  0  0  0
  -30.4227  -12.7461   19.0622 C   0  0  0  0  0  0  0  0  0  0  0  0
  -28.6970  -12.2600   20.7746 C   0  0  0  0  0  0  0  0  0  0  0  0
  -31.1252  -27.8630   14.2168 C   0  0  1  0  0  0  0  0  0  0  0  0
  -27.6137  -26.6165   14.9580 C   0  0  1  0  0  0  0  0  0  0  0  0
  -27.7360  -13.2686   20.1273 C   0  0  2  0  0  0  0  0  0  0  0  0
  -20.8259  -27.5143   18.5805 C   0  0  0  0  0  0  0  0  0  0  0  0
  -27.0337  -29.8010   18.2569 C   0  0  0  0  0  0  0  0  0  0  0  0
  -24.8323  -29.7323   19.4473 C   0  0  0  0  0  0  0  0  0  0  0  0
  -24.9598  -30.6057   17.1141 C   0  0  0  0  0  0  0  0  0  0  0  0
  -21.9463  -24.4821   16.5738 C   0  0  0  0  0  0  0  0  0  0  0  0
  -30.1657  -16.4330   26.8858 C   0  0  0  0  0  0  0  0  0  0  0  0
  -28.4991  -19.3663   20.5902 C   0  0  0  0  0  0  0  0  0  0  0  0
  -29.8214  -19.6866   19.8917 C   0  0  0  0  0  0  0  0  0  0  0  0
  -28.6898  -18.5277   21.8514 C   0  0  0  0  0  0  0  0  0  0  0  0
  -29.6002  -20.4895   18.6159 C   0  0  0  0  0  0  0  0  0  1  0  0
  -25.2128  -28.1237   17.5240 C   0  0  1  0  0  0  0  0  0  0  0  0
  -21.6786  -26.7539   17.5767 C   0  0  2  0  0  0  0  0  0  0  0  0
  -25.5242  -29.5417   18.0807 C   0  0  0  0  0  0  0  0  0  0  0  0
  -25.9437  -11.6252   20.5366 N   0  0  0  0  0  0  0  0  0  0  0  0
  -26.2882  -12.9185   20.4151 N   0  0  0  0  0  0  0  0  0  0  0  0
  -30.9284  -12.7886   22.7191 N   0  0  0  0  0  0  0  0  0  0  0  0
  -26.7841  -26.7928   16.1517 N   0  0  0  0  0  0  0  0  0  0  0  0
  -30.1027  -12.5841   20.4812 N   0  0  0  0  0  0  0  0  0  0  0  0
  -25.4164  -15.1199   20.4834 N   0  0  0  0  0  0  0  0  0  0  0  0
  -21.7955  -12.5402   21.2774 N   0  0  0  0  0  0  0  0  0  0  0  0
  -29.2777  -17.2619   21.5406 N   0  0  0  0  0  0  0  0  0  0  0  0
  -29.8061  -27.2695   14.1676 N   0  0  0  0  0  0  0  0  0  0  0  0
  -23.7923  -27.8600   17.3214 N   0  0  0  0  0  0  0  0  0  0  0  0
  -21.2097  -25.3399   17.5374 N   0  3  0  0  0  0  0  0  0  0  0  0
  -22.5245  -14.7002   21.0289 O   0  0  0  0  0  0  0  0  0  0  0  0
  -29.1287  -27.7957   16.3325 O   0  0  0  0  0  0  0  0  0  0  0  0
  -25.6133  -28.5874   15.2325 O   0  0  0  0  0  0  0  0  0  0  0  0
  -23.6760  -26.0098   18.7143 O   0  0  0  0  0  0  0  0  0  0  0  0
  -32.2054  -11.8106   21.0724 O   0  0  0  0  0  0  0  0  0  0  0  0
  -21.7094   -6.9761   21.5394 O   0  0  0  0  0  0  0  0  0  0  0  0
  -29.1488  -15.8106   26.1054 O   0  0  0  0  0  0  0  0  0  0  0  0
  -28.9692  -21.7245   18.9268 O   0  0  0  0  0  0  0  0  0  1  0  0
  -16.8540   -6.5291   18.9646 F   0  0  0  0  0  0  0  0  0  0  0  0
  -21.2464   -4.9389   19.7288 F   0  0  0  0  0  0  0  0  0  0  0  0
  1  2  1  0  0  0  0
  1  5  2  0  0  0  0
  2  6  2  0  0  0  0
  3  8  2  0  0  0  0
  3 17  1  0  0  0  0
  4  9  1  0  0  0  0
  4 17  2  0  0  0  0
  5 19  1  0  0  0  0
  6 21  1  0  0  0  0
  7 10  2  0  0  0  0
  7 20  1  0  0  0  0
  8 26  1  0  0  0  0
  9 26  2  0  0  0  0
 10 27  1  0  0  0  0
 11 12  2  0  0  0  0
 11 28  1  0  0  0  0
 12 30  1  0  0  0  0
 13 22  1  0  0  0  0
 13 27  2  0  0  0  0
 14 24  1  0  0  0  0
 14 25  2  0  0  0  0
 15 25  1  0  0  0  0
 15 29  2  0  0  0  0
 16 30  2  0  0  0  0
 16 31  1  0  0  0  0
 17 32  1  0  0  0  0
 18 32  1  0  0  0  0
 18 33  2  0  0  0  0
 18 34  1  0  0  0  0
 19 21  2  0  0  0  0
 19 39  1  0  0  0  0
 20 22  2  0  0  0  0
 20 40  1  0  0  0  0
 21 51  1  0  0  0  0
 22 42  1  0  0  0  0
 23 24  2  0  0  0  0
 23 29  1  0  0  0  0
 23 41  1  0  0  0  0
 24 69  1  0  0  0  0
 25 74  1  0  0  0  0
 26 83  1  0  0  0  0
 27 85  1  0  0  0  0
 28 31  2  0  0  0  0
 28 83  1  0  0  0  0
 29 84  1  0  0  0  0
 30 86  1  0  0  0  0
 31 87  1  0  0  0  0
 32 67  2  0  0  0  0
 33 68  1  0  0  0  0
 33 72  1  0  0  0  0
 34 73  1  0  0  0  0
 34 78  2  0  0  0  0
 35 52  1  0  0  0  0
 35 75  1  0  0  0  0
 35 79  2  0  0  0  0
 36 64  1  0  0  0  0
 36 70  1  0  0  0  0
 36 80  2  0  0  0  0
 37 65  1  0  0  0  0
 37 76  1  0  0  0  0
 37 81  2  0  0  0  0
 38 69  1  0  0  0  0
 38 71  1  0  0  0  0
 38 82  2  0  0  0  0
 39 43  1  0  0  0  0
 40 52  1  0  0  0  0
 41 44  1  0  0  0  0
 42 70  1  0  0  0  0
 43 46  1  0  0  0  0
 44 48  1  0  0  0  0
 45 47  1  0  0  0  0
 45 49  1  0  0  0  0
 46 51  1  0  0  0  0
 47 53  1  0  0  0  0
 48 69  1  0  0  0  0
 49 71  1  0  0  0  0
 50 53  1  0  0  0  0
 50 71  1  0  0  0  0
 51 75  1  0  0  0  0
 52 70  1  0  0  0  0
 53 68  1  0  0  0  0
 54 65  1  0  0  0  0
 55 66  1  0  0  0  0
 56 66  1  0  0  0  0
 57 66  1  0  0  0  0
 58 77  1  0  0  0  0
 59 84  1  0  0  0  0
 60 61  1  0  0  0  0
 60 62  1  0  0  0  0
 61 63  1  0  0  0  0
 62 74  1  0  0  0  0
 63 85  1  0  0  0  0
 64 66  1  0  0  0  0
 64 76  1  0  0  0  0
 65 77  1  0  0  0  0
 67 68  1  0  0  0  0
M  CHG  1  77   1
M  ISO  4  38 100  63 101  69 100  85 101
M  END
> <Batch ID>
0106

> <Smiles>
CNC(C)C(=O)NC(C(=O)N1Cc2cc([101O:1][101CH2:1]CCCNc3cc(OC)c4c(c3)[100N:0]([100C:0](=O)N3CCCC(n5nc(-c6ccc(Oc7ccc(F)cc7F)cc6)c(C(N)=O)c5N)C3)CCC4)ccc2CC1C(=O)NC1CCCc2ccccc21)C(C)(C)C

> <Shape>
0.176

> <Color>
0.179

> <Negative vol penalty>
0.000

$$$$

  -OEChem-04052301143D

 89 98  0     1  0  0  0  0  0999 V2000
  -27.1657  -31.9355   13.8560 C   0  0  0  0  0  0  0  0  0  0  0  0
  -27.8461  -31.0872   14.7238 C   0  0  0  0  0  0  0  0  0  0  0  0
  -23.2817  -10.3606   22.2848 C   0  0  0  0  0  0  0  0  0  0  0  0
  -23.5027   -9.6705   19.9801 C   0  0  0  0  0  0  0  0  0  0  0  0
  -26.2276  -32.8370   14.3571 C   0  0  0  0  0  0  0  0  0  0  0  0
  -27.5894  -31.1408   16.0933 C   0  0  0  0  0  0  0  0  0  0  0  0
  -27.0952  -26.5434   18.1584 C   0  0  0  0  0  0  0  0  0  0  0  0
  -22.4874   -9.2436   22.5432 C   0  0  0  0  0  0  0  0  0  0  0  0
  -22.7084   -8.5533   20.2385 C   0  0  0  0  0  0  0  0  0  0  0  0
  -28.2660  -25.8305   18.4130 C   0  0  0  0  0  0  0  0  0  0  0  0
  -19.2792   -8.3012   22.0497 C   0  0  0  0  0  0  0  0  0  0  0  0
  -18.1164   -8.4923   22.7961 C   0  0  0  0  0  0  0  0  0  0  0  0
  -28.1494  -26.4795   20.7335 C   0  0  0  0  0  0  0  0  0  0  0  0
  -30.6295  -19.0081   22.6299 C   0  0  0  0  0  0  0  0  0  0  0  0
  -31.1223  -18.9455   20.2655 C   0  0  0  0  0  0  0  0  0  0  0  0
  -18.9387   -6.9568   24.4704 C   0  0  0  0  0  0  0  0  0  0  0  0
  -23.7893  -10.5741   21.0032 C   0  0  0  0  0  0  0  0  0  0  0  0
  -24.2481  -13.0807   20.8834 C   0  0  0  0  0  0  0  0  0  0  0  0
  -25.9523  -32.8949   15.7324 C   0  0  0  0  0  0  0  0  0  0  0  0
  -26.4476  -27.2398   19.1889 C   0  0  0  0  0  0  0  0  0  0  0  0
  -26.6477  -32.0448   16.6134 C   0  0  0  0  0  0  0  0  0  0  0  0
  -26.9691  -27.1983   20.4898 C   0  0  0  0  0  0  0  0  0  0  0  0
  -30.3971  -17.6328   22.6179 C   0  0  0  0  0  0  0  0  0  0  0  0
  -30.9921  -19.6645   21.4537 C   0  0  0  0  0  0  0  0  0  0  0  0
  -30.8900  -17.5702   20.2535 C   0  0  0  0  0  0  0  0  0  0  0  0
  -30.5274  -16.9139   21.4297 C   0  0  0  0  0  0  0  0  0  0  0  0
  -22.2007   -8.3399   21.5201 C   0  0  0  0  0  0  0  0  0  0  0  0
  -28.7949  -25.8009   19.7001 C   0  0  0  0  0  0  0  0  0  0  0  0
  -20.2717   -7.4378   22.5136 C   0  0  0  0  0  0  0  0  0  0  0  0
  -17.9462   -7.8202   24.0064 C   0  0  0  0  0  0  0  0  0  0  0  0
  -20.1014   -6.7656   23.7240 C   0  0  0  0  0  0  0  0  0  0  0  0
  -24.6095  -11.7282   20.7356 C   0  0  0  0  0  0  0  0  0  0  0  0
  -25.3683  -13.7789   20.5039 C   0  0  0  0  0  0  0  0  0  0  0  0
  -31.0190  -22.9556   19.9155 C   0  0  0  0  0  0  0  0  0  0  0  0
  -30.4825  -21.9660   20.6791 C   0  0  0  0  0  0  0  0  0  0  0  0
  -33.6155  -21.4440   21.2084 C   0  0  0  0  0  0  0  0  0  0  0  0
  -23.0104  -13.6546   21.3245 C   0  0  0  0  0  0  0  0  0  0  0  0
  -25.7447  -30.2908   19.7377 C   0  0  0  0  0  0  0  0  0  0  0  0
  -24.1494  -29.0615   22.2805 C   0  0  0  0  0  0  0  0  0  0  0  0
  -24.7214  -26.5074   24.7638 C   0  0  0  0  0  0  0  0  0  0  0  0
  -30.8799  -14.5648   20.5905 C   0  0  0  0  0  0  0  0  0  0  0  0
  -24.9641  -33.9187   16.2324 C   0  0  0  0  0  0  0  0  0  0  0  0
  -25.1708  -27.9820   18.9034 C   0  0  0  0  0  0  0  0  0  0  0  0
  -26.3009  -27.9125   21.6352 C   0  0  0  0  0  0  0  0  0  0  0  0
  -32.5147  -23.1694   19.7080 C   0  0  0  0  0  0  0  0  0  0  0  0
  -33.4113  -21.9343   19.7918 C   0  0  0  0  0  0  0  0  0  0  0  0
  -32.4452  -21.5142   22.1585 C   0  0  0  0  0  0  0  0  0  0  0  0
  -24.4784  -33.6524   17.6549 C   0  0  0  0  0  0  0  0  0  0  0  0
  -29.6140  -12.2136   18.2354 C   0  0  0  0  0  0  0  0  0  0  0  0
  -25.6553  -33.3251   18.5684 C   0  0  0  0  0  0  0  0  0  0  0  0
  -28.1694  -11.9890   18.6881 C   0  0  0  0  0  0  0  0  0  0  0  0
  -30.5585  -12.3953   19.4223 C   0  0  0  0  0  0  0  0  0  0  0  0
  -28.7108  -13.2047   20.8366 C   0  0  0  0  0  0  0  0  0  0  0  0
  -26.3789  -32.0558   18.1026 C   0  0  1  0  0  0  0  0  0  0  0  0
  -24.8765  -29.0785   19.9224 C   0  0  1  0  0  0  0  0  0  0  0  0
  -27.7117  -13.0812   19.6746 C   0  0  2  0  0  0  0  0  0  0  0  0
  -30.0101  -16.9581   23.8941 C   0  0  0  0  0  0  0  0  0  0  0  0
  -28.9762  -21.8225   20.8045 C   0  0  0  0  0  0  0  0  0  0  0  0
  -23.0977  -25.1146   26.0757 C   0  0  0  0  0  0  0  0  0  0  0  0
  -24.4506  -31.2312   24.4045 C   0  0  0  0  0  0  0  0  0  0  0  0
  -24.3695  -29.4372   26.1490 C   0  0  0  0  0  0  0  0  0  0  0  0
  -22.4098  -29.8067   24.6504 C   0  0  0  0  0  0  0  0  0  0  0  0
  -25.9722  -23.9841   23.8541 C   0  0  0  0  0  0  0  0  0  0  0  0
  -30.1915  -23.9586   19.1422 C   0  0  0  0  0  0  0  0  0  1  0  0
  -24.5038  -28.7442   23.7132 C   0  0  1  0  0  0  0  0  0  0  0  0
  -24.0183  -25.1659   24.8664 C   0  0  2  0  0  0  0  0  0  0  0  0
  -23.9529  -29.8040   24.7086 C   0  0  0  0  0  0  0  0  0  0  0  0
  -25.8614  -11.5740   20.2962 N   0  0  0  0  0  0  0  0  0  0  0  0
  -26.2963  -12.8388   20.1646 N   0  0  0  0  0  0  0  0  0  0  0  0
  -31.2292  -21.0686   21.4660 N   0  0  0  0  0  0  0  0  0  0  0  0
  -25.0584  -28.6296   21.3043 N   0  0  0  0  0  0  0  0  0  0  0  0
  -30.0633  -13.4486   20.3112 N   0  0  0  0  0  0  0  0  0  0  0  0
  -31.0281  -16.8631   19.0377 N   0  0  0  0  0  0  0  0  0  0  0  0
  -25.6401  -15.0992   20.4305 N   0  0  0  0  0  0  0  0  0  0  0  0
  -21.9623  -12.7931   21.6764 N   0  0  0  0  0  0  0  0  0  0  0  0
  -30.2905  -15.5169   21.4216 N   0  0  0  0  0  0  0  0  0  0  0  0
  -25.6338  -30.8777   18.4916 N   0  0  0  0  0  0  0  0  0  0  0  0
  -24.0275  -27.3876   23.9607 N   0  0  0  0  0  0  0  0  0  0  0  0
  -25.0164  -24.0660   24.9885 N   0  3  0  0  0  0  0  0  0  0  0  0
  -34.7019  -20.9918   21.5725 O   0  0  0  0  0  0  0  0  0  0  0  0
  -22.8335  -14.8948   21.3886 O   0  0  0  0  0  0  0  0  0  0  0  0
  -26.4612  -30.6668   20.6580 O   0  0  0  0  0  0  0  0  0  0  0  0
  -23.1011  -29.6638   22.0360 O   0  0  0  0  0  0  0  0  0  0  0  0
  -25.7784  -26.7513   25.3415 O   0  0  0  0  0  0  0  0  0  0  0  0
  -32.0079  -14.6815   20.1046 O   0  0  0  0  0  0  0  0  0  0  0  0
  -21.4258   -7.2496   21.7719 O   0  0  0  0  0  0  0  0  0  0  0  0
  -29.9379  -25.1064   19.9512 O   0  0  0  0  0  0  0  0  0  1  0  0
  -16.8302   -8.0050   24.7238 F   0  0  0  0  0  0  0  0  0  0  0  0
  -21.0520   -5.9358   24.1754 F   0  0  0  0  0  0  0  0  0  0  0  0
  1  2  1  0  0  0  0
  1  5  2  0  0  0  0
  2  6  2  0  0  0  0
  3  8  2  0  0  0  0
  3 17  1  0  0  0  0
  4  9  1  0  0  0  0
  4 17  2  0  0  0  0
  5 19  1  0  0  0  0
  6 21  1  0  0  0  0
  7 10  2  0  0  0  0
  7 20  1  0  0  0  0
  8 27  1  0  0  0  0
  9 27  2  0  0  0  0
 10 28  1  0  0  0  0
 11 12  2  0  0  0  0
 11 29  1  0  0  0  0
 12 30  1  0  0  0  0
 13 22  1  0  0  0  0
 13 28  2  0  0  0  0
 14 23  2  0  0  0  0
 14 24  1  0  0  0  0
 15 24  2  0  0  0  0
 15 25  1  0  0  0  0
 16 30  2  0  0  0  0
 16 31  1  0  0  0  0
 17 32  1  0  0  0  0
 18 32  1  0  0  0  0
 18 33  2  0  0  0  0
 18 37  1  0  0  0  0
 19 21  2  0  0  0  0
 19 42  1  0  0  0  0
 20 22  2  0  0  0  0
 20 43  1  0  0  0  0
 21 54  1  0  0  0  0
 22 44  1  0  0  0  0
 23 26  1  0  0  0  0
 23 57  1  0  0  0  0
 24 70  1  0  0  0  0
 25 26  2  0  0  0  0
 25 73  1  0  0  0  0
 26 76  1  0  0  0  0
 27 86  1  0  0  0  0
 28 87  1  0  0  0  0
 29 31  2  0  0  0  0
 29 86  1  0  0  0  0
 30 88  1  0  0  0  0
 31 89  1  0  0  0  0
 32 68  2  0  0  0  0
 33 69  1  0  0  0  0
 33 74  1  0  0  0  0
 34 35  2  0  0  0  0
 34 45  1  0  0  0  0
 34 64  1  0  0  0  0
 35 58  1  0  0  0  0
 35 70  1  0  0  0  0
 36 46  1  0  0  0  0
 36 47  1  0  0  0  0
 36 80  2  0  0  0  0
 37 75  1  0  0  0  0
 37 81  2  0  0  0  0
 38 55  1  0  0  0  0
 38 77  1  0  0  0  0
 38 82  2  0  0  0  0
 39 65  1  0  0  0  0
 39 71  1  0  0  0  0
 39 83  2  0  0  0  0
 40 66  1  0  0  0  0
 40 78  1  0  0  0  0
 40 84  2  0  0  0  0
 41 72  1  0  0  0  0
 41 76  1  0  0  0  0
 41 85  2  0  0  0  0
 42 48  1  0  0  0  0
 43 55  1  0  0  0  0
 44 71  1  0  0  0  0
 45 46  1  0  0  0  0
 47 70  1  0  0  0  0
 48 50  1  0  0  0  0
 49 51  1  0  0  0  0
 49 52  1  0  0  0  0
 50 54  1  0  0  0  0
 51 56  1  0  0  0  0
 52 72  1  0  0  0  0
 53 56  1  0  0  0  0
 53 72  1  0  0  0  0
 54 77  1  0  0  0  0
 55 71  1  0  0  0  0
 56 69  1  0  0  0  0
 59 66  1  0  0  0  0
 60 67  1  0  0  0  0
 61 67  1  0  0  0  0
 62 67  1  0  0  0  0
 63 79  1  0  0  0  0
 64 87  1  0  0  0  0
 65 67  1  0  0  0  0
 65 78  1  0  0  0  0
 66 79  1  0  0  0  0
 68 69  1  0  0  0  0
M  CHG  1  79   1
M  ISO  4  41 100  64 101  76 100  87 101
M  END
> <Batch ID>
0106

> <Smiles>
CNC(C)C(=O)NC(C(=O)N1Cc2cc([101O:1][101CH2:1]C3=C(C)N(c4cc(C)c([100NH:0][100C:0](=O)N5CCCC(n6nc(-c7ccc(Oc8ccc(F)cc8F)cc7)c(C(N)=O)c6N)C5)c(N)c4)CC(=O)CC3)ccc2CC1C(=O)NC1CCCc2ccccc21)C(C)(C)C

> <Shape>
0.278

> <Color>
0.213

> <Negative vol penalty>
0.000

$$$$

  -OEChem-04052301143D

 85 93  0     1  0  0  0  0  0999 V2000
  -29.6789  -33.3972   23.5549 C   0  0  0  0  0  0  0  0  0  0  0  0
  -29.5525  -32.1213   23.0149 C   0  0  0  0  0  0  0  0  0  0  0  0
  -22.9913  -10.0293   19.8896 C   0  0  0  0  0  0  0  0  0  0  0  0
  -24.0344   -9.5309   22.0111 C   0  0  0  0  0  0  0  0  0  0  0  0
  -28.6690  -33.9127   24.3663 C   0  0  0  0  0  0  0  0  0  0  0  0
  -28.4166  -31.3597   23.2870 C   0  0  0  0  0  0  0  0  0  0  0  0
  -26.5612  -29.0945   19.1552 C   0  0  0  0  0  0  0  0  0  0  0  0
  -22.2840   -8.8288   19.9553 C   0  0  0  0  0  0  0  0  0  0  0  0
  -23.3271   -8.3304   22.0768 C   0  0  0  0  0  0  0  0  0  0  0  0
  -27.2155  -27.9466   18.7103 C   0  0  0  0  0  0  0  0  0  0  0  0
  -20.2001   -7.3239   22.8701 C   0  0  0  0  0  0  0  0  0  0  0  0
  -19.5968   -6.9944   24.0839 C   0  0  0  0  0  0  0  0  0  0  0  0
  -25.5275  -26.5832   19.7643 C   0  0  0  0  0  0  0  0  0  0  0  0
  -31.4913  -18.4990   20.9189 C   0  0  0  0  0  0  0  0  0  0  0  0
  -29.0609  -19.7730   21.4220 C   0  0  0  0  0  0  0  0  0  0  0  0
  -20.9198   -4.9758   24.1935 C   0  0  0  0  0  0  0  0  0  0  0  0
  -23.8665  -10.3803   20.9175 C   0  0  0  0  0  0  0  0  0  0  0  0
  -24.1923  -12.8742   21.3442 C   0  0  0  0  0  0  0  0  0  0  0  0
  -27.5157  -33.1607   24.6406 C   0  0  0  0  0  0  0  0  0  0  0  0
  -25.3891  -28.9950   19.9186 C   0  0  0  0  0  0  0  0  0  0  0  0
  -27.3910  -31.8650   24.1039 C   0  0  0  0  0  0  0  0  0  0  0  0
  -24.8588  -27.7314   20.2155 C   0  0  0  0  0  0  0  0  0  0  0  0
  -30.5736  -17.9275   21.8003 C   0  0  0  0  0  0  0  0  0  0  0  0
  -29.3584  -18.5644   22.0519 C   0  0  0  0  0  0  0  0  0  0  0  0
  -29.9786  -20.3445   20.5406 C   0  0  0  0  0  0  0  0  0  0  0  0
  -22.4519   -7.9794   21.0488 C   0  0  0  0  0  0  0  0  0  0  0  0
  -26.7003  -26.6906   19.0173 C   0  0  0  0  0  0  0  0  0  0  0  0
  -21.1632   -6.4792   22.3180 C   0  0  0  0  0  0  0  0  0  0  0  0
  -19.9567   -5.8204   24.7456 C   0  0  0  0  0  0  0  0  0  0  0  0
  -31.1938  -19.7075   20.2891 C   0  0  0  0  0  0  0  0  0  0  0  0
  -21.5230   -5.3052   22.9798 C   0  0  0  0  0  0  0  0  0  0  0  0
  -24.5978  -11.6199   20.8500 C   0  0  0  0  0  0  0  0  0  0  0  0
  -25.2305  -13.7178   21.0330 C   0  0  0  0  0  0  0  0  0  0  0  0
  -22.9852  -13.2435   22.0240 C   0  0  0  0  0  0  0  0  0  0  0  0
  -24.5453  -29.8649   22.8571 C   0  0  0  0  0  0  0  0  0  0  0  0
  -28.4592  -23.5378   19.2851 C   0  0  0  0  0  0  0  0  0  0  0  0
  -21.6137  -28.8682   21.8904 C   0  0  0  0  0  0  0  0  0  0  0  0
  -19.7648  -26.9138   19.7907 C   0  0  0  0  0  0  0  0  0  0  0  0
  -30.6949  -14.8222   20.7769 C   0  0  0  0  0  0  0  0  0  0  0  0
  -26.4723  -33.7417   25.5617 C   0  0  0  0  0  0  0  0  0  0  0  0
  -24.6805  -30.2432   20.3682 C   0  0  0  0  0  0  0  0  0  0  0  0
  -23.5923  -27.5707   21.0146 C   0  0  0  0  0  0  0  0  0  0  0  0
  -25.1305  -33.0167   25.4963 C   0  0  0  0  0  0  0  0  0  0  0  0
  -29.2637  -13.0184   18.0614 C   0  0  0  0  0  0  0  0  0  0  0  0
  -25.3366  -31.5063   25.5519 C   0  0  0  0  0  0  0  0  0  0  0  0
  -27.8921  -12.5922   18.5878 C   0  0  0  0  0  0  0  0  0  0  0  0
  -30.3251  -12.9834   19.1587 C   0  0  0  0  0  0  0  0  0  0  0  0
  -28.6139  -13.3219   20.8997 C   0  0  0  0  0  0  0  0  0  0  0  0
  -26.1626  -31.0178   24.3558 C   0  0  1  0  0  0  0  0  0  0  0  0
  -23.7759  -30.0149   21.5752 C   0  0  1  0  0  0  0  0  0  0  0  0
  -27.4989  -13.3949   19.8425 C   0  0  2  0  0  0  0  0  0  0  0  0
  -17.3937  -26.2825   19.2643 C   0  0  0  0  0  0  0  0  0  0  0  0
  -21.5414  -27.0855   24.3656 C   0  0  0  0  0  0  0  0  0  0  0  0
  -19.6566  -25.8182   23.3123 C   0  0  0  0  0  0  0  0  0  0  0  0
  -19.3839  -28.2393   23.8476 C   0  0  0  0  0  0  0  0  0  0  0  0
  -19.9747  -27.9657   17.0323 C   0  0  0  0  0  0  0  0  0  0  0  0
  -30.9178  -16.6321   22.4604 C   0  0  0  0  0  0  0  0  0  0  0  0
  -28.4522  -22.2719   20.1155 C   0  0  0  0  0  0  0  0  0  0  0  0
  -27.2168  -24.4001   19.3951 C   0  0  0  0  0  0  0  0  0  1  0  0
  -20.8677  -27.5560   21.9180 C   0  0  1  0  0  0  0  0  0  0  0  0
  -18.5452  -27.2217   18.9407 C   0  0  2  0  0  0  0  0  0  0  0  0
  -20.3874  -27.1774   23.3474 C   0  0  0  0  0  0  0  0  0  0  0  0
  -25.7997  -11.6588   20.2687 N   0  0  0  0  0  0  0  0  0  0  0  0
  -26.1584  -12.9478   20.3957 N   0  0  0  0  0  0  0  0  0  0  0  0
  -22.9396  -28.8209   21.4369 N   0  0  0  0  0  0  0  0  0  0  0  0
  -29.8914  -13.7648   20.3195 N   0  0  0  0  0  0  0  0  0  0  0  0
  -28.4180  -18.0002   22.9420 N   0  0  0  0  0  0  0  0  0  0  0  0
  -25.4309  -15.0359   21.2449 N   0  0  0  0  0  0  0  0  0  0  0  0
  -22.0232  -12.2527   22.2633 N   0  0  0  0  0  0  0  0  0  0  0  0
  -29.6806  -21.5466   19.9150 N   0  0  0  0  0  0  0  0  0  0  0  0
  -25.3401  -30.9520   23.1668 N   0  0  0  0  0  0  0  0  0  0  0  0
  -19.7930  -27.6768   20.9388 N   0  0  0  0  0  0  0  0  0  0  0  0
  -30.2074  -15.5153   21.8782 N   0  0  0  0  0  0  0  0  0  0  0  0
  -18.8735  -27.0817   17.4938 N   0  3  0  0  0  0  0  0  0  0  0  0
  -22.7589  -14.4208   22.3932 O   0  0  0  0  0  0  0  0  0  0  0  0
  -24.4255  -28.8394   23.5172 O   0  0  0  0  0  0  0  0  0  0  0  0
  -29.4047  -23.8558   18.5649 O   0  0  0  0  0  0  0  0  0  0  0  0
  -21.0388  -29.8984   22.2508 O   0  0  0  0  0  0  0  0  0  0  0  0
  -20.6062  -26.0773   19.4701 O   0  0  0  0  0  0  0  0  0  0  0  0
  -31.7647  -15.1295   20.2402 O   0  0  0  0  0  0  0  0  0  0  0  0
  -21.7617   -6.8080   21.1134 O   0  0  0  0  0  0  0  0  0  0  0  0
  -27.3374  -25.5686   18.5848 O   0  0  0  0  0  0  0  0  0  1  0  0
  -19.3784   -5.5050   25.9119 F   0  0  0  0  0  0  0  0  0  0  0  0
  -32.0828  -20.2479   19.4436 F   0  0  0  0  0  0  0  0  0  0  0  0
  -22.4485   -4.4904   22.4549 F   0  0  0  0  0  0  0  0  0  0  0  0
  1  2  1  0  0  0  0
  1  5  2  0  0  0  0
  2  6  2  0  0  0  0
  3  8  2  0  0  0  0
  3 17  1  0  0  0  0
  4  9  1  0  0  0  0
  4 17  2  0  0  0  0
  5 19  1  0  0  0  0
  6 21  1  0  0  0  0
  7 10  2  0  0  0  0
  7 20  1  0  0  0  0
  8 26  1  0  0  0  0
  9 26  2  0  0  0  0
 10 27  1  0  0  0  0
 11 12  2  0  0  0  0
 11 28  1  0  0  0  0
 12 29  1  0  0  0  0
 13 22  1  0  0  0  0
 13 27  2  0  0  0  0
 14 23  2  0  0  0  0
 14 30  1  0  0  0  0
 15 24  2  0  0  0  0
 15 25  1  0  0  0  0
 16 29  2  0  0  0  0
 16 31  1  0  0  0  0
 17 32  1  0  0  0  0
 18 32  1  0  0  0  0
 18 33  2  0  0  0  0
 18 34  1  0  0  0  0
 19 21  2  0  0  0  0
 19 40  1  0  0  0  0
 20 22  2  0  0  0  0
 20 41  1  0  0  0  0
 21 49  1  0  0  0  0
 22 42  1  0  0  0  0
 23 24  1  0  0  0  0
 23 57  1  0  0  0  0
 24 67  1  0  0  0  0
 25 30  2  0  0  0  0
 25 70  1  0  0  0  0
 26 81  1  0  0  0  0
 27 82  1  0  0  0  0
 28 31  2  0  0  0  0
 28 81  1  0  0  0  0
 29 83  1  0  0  0  0
 30 84  1  0  0  0  0
 31 85  1  0  0  0  0
 32 63  2  0  0  0  0
 33 64  1  0  0  0  0
 33 68  1  0  0  0  0
 34 69  1  0  0  0  0
 34 75  2  0  0  0  0
 35 50  1  0  0  0  0
 35 71  1  0  0  0  0
 35 76  2  0  0  0  0
 36 58  1  0  0  0  0
 36 59  1  0  0  0  0
 36 77  2  0  0  0  0
 37 60  1  0  0  0  0
 37 65  1  0  0  0  0
 37 78  2  0  0  0  0
 38 61  1  0  0  0  0
 38 72  1  0  0  0  0
 38 79  2  0  0  0  0
 39 66  1  0  0  0  0
 39 73  1  0  0  0  0
 39 80  2  0  0  0  0
 40 43  1  0  0  0  0
 41 50  1  0  0  0  0
 42 65  1  0  0  0  0
 43 45  1  0  0  0  0
 44 46  1  0  0  0  0
 44 47  1  0  0  0  0
 45 49  1  0  0  0  0
 46 51  1  0  0  0  0
 47 66  1  0  0  0  0
 48 51  1  0  0  0  0
 48 66  1  0  0  0  0
 49 71  1  0  0  0  0
 50 65  1  0  0  0  0
 51 64  1  0  0  0  0
 52 61  1  0  0  0  0
 53 62  1  0  0  0  0
 54 62  1  0  0  0  0
 55 62  1  0  0  0  0
 56 74  1  0  0  0  0
 57 73  1  0  0  0  0
 58 70  1  0  0  0  0
 59 82  1  0  0  0  0
 60 62  1  0  0  0  0
 60 72  1  0  0  0  0
 61 74  1  0  0  0  0
 63 64  1  0  0  0  0
M  CHG  1  74   1
M  ISO  4  39 100  59 101  73 100  82 101
M  END
> <Batch ID>
0106

> <Smiles>
CNC(C)C(=O)NC(C(=O)N1Cc2cc([101O:1][101CH2:1]C(=O)CNc3cc(N)c(C[100NH:0][100C:0](=O)N4CCCC(n5nc(-c6ccc(Oc7ccc(F)cc7F)cc6)c(C(N)=O)c5N)C4)cc3F)ccc2CC1C(=O)NC1CCCc2ccccc21)C(C)(C)C

> <Shape>
0.405

> <Color>
0.174

> <Negative vol penalty>
0.000

$$$$

  -OEChem-04052301143D

 87 96  0     1  0  0  0  0  0999 V2000
  -16.9330  -30.8713   23.1976 C   0  0  0  0  0  0  0  0  0  0  0  0
  -18.2432  -31.1825   23.5467 C   0  0  0  0  0  0  0  0  0  0  0  0
  -25.5571  -15.5435   19.3588 C   0  0  0  0  0  0  0  0  0  0  0  0
  -25.6071  -15.4804   21.7735 C   0  0  0  0  0  0  0  0  0  0  0  0
  -31.1673  -24.9692   18.0588 C   0  0  0  0  0  0  0  0  0  0  0  0
  -16.5584  -29.5405   23.0165 C   0  0  0  0  0  0  0  0  0  0  0  0
  -19.1794  -30.1630   23.7160 C   0  0  0  0  0  0  0  0  0  0  0  0
  -25.2016  -29.9655   19.7682 C   0  0  0  0  0  0  0  0  0  0  0  0
  -30.6995  -24.2174   19.1365 C   0  0  0  0  0  0  0  0  0  0  0  0
  -24.2749  -14.9947   19.3710 C   0  0  0  0  0  0  0  0  0  0  0  0
  -24.3248  -14.9316   21.7857 C   0  0  0  0  0  0  0  0  0  0  0  0
  -26.4759  -29.9743   19.2005 C   0  0  0  0  0  0  0  0  0  0  0  0
  -22.9061  -11.9033   21.2885 C   0  0  0  0  0  0  0  0  0  0  0  0
  -22.6721  -10.8218   22.1377 C   0  0  0  0  0  0  0  0  0  0  0  0
  -26.9963  -27.8896   20.3101 C   0  0  0  0  0  0  0  0  0  0  0  0
  -28.9662  -23.2861   17.7346 C   0  0  0  0  0  0  0  0  0  0  0  0
  -20.9744  -12.0955   23.2920 C   0  0  0  0  0  0  0  0  0  0  0  0
  -26.2233  -15.7863   20.5600 C   0  0  0  0  0  0  0  0  0  0  0  0
  -30.5345  -24.8795   16.8189 C   0  0  0  0  0  0  0  0  0  0  0  0
  -28.7000  -15.8083   19.9492 C   0  0  0  0  0  0  0  0  0  0  0  0
  -17.4929  -28.5049   23.1742 C   0  0  0  0  0  0  0  0  0  0  0  0
  -24.8140  -28.9096   20.5977 C   0  0  0  0  0  0  0  0  0  0  0  0
  -18.8167  -28.8171   23.5382 C   0  0  0  0  0  0  0  0  0  0  0  0
  -25.7168  -27.8690   20.8716 C   0  0  0  0  0  0  0  0  0  0  0  0
  -29.5990  -23.3759   18.9745 C   0  0  0  0  0  0  0  0  0  0  0  0
  -23.6587  -14.6888   20.5844 C   0  0  0  0  0  0  0  0  0  0  0  0
  -27.3711  -28.9390   19.4710 C   0  0  0  0  0  0  0  0  0  0  0  0
  -22.1744  -13.0810   21.4411 C   0  0  0  0  0  0  0  0  0  0  0  0
  -21.7063  -10.9179   23.1394 C   0  0  0  0  0  0  0  0  0  0  0  0
  -29.4340  -24.0379   16.6568 C   0  0  0  0  0  0  0  0  0  0  0  0
  -21.2085  -13.1771   22.4428 C   0  0  0  0  0  0  0  0  0  0  0  0
  -27.5482  -16.3527   20.5481 C   0  0  0  0  0  0  0  0  0  0  0  0
  -29.6906  -16.7210   20.2178 C   0  0  0  0  0  0  0  0  0  0  0  0
  -31.0287  -25.6749   15.6878 C   0  0  0  0  0  0  0  0  0  0  0  0
  -28.8602  -14.5868   19.2157 C   0  0  0  0  0  0  0  0  0  0  0  0
  -22.1162  -27.3768   22.7069 C   0  0  0  0  0  0  0  0  0  0  0  0
  -23.4703  -25.0823   21.1863 C   0  0  0  0  0  0  0  0  0  0  0  0
  -24.2118  -22.1808   19.5527 C   0  0  0  0  0  0  0  0  0  0  0  0
  -29.6367  -22.5848   21.3659 C   0  0  0  0  0  0  0  0  0  0  0  0
  -17.0296  -27.0785   23.0142 C   0  0  0  0  0  0  0  0  0  0  0  0
  -23.4731  -28.8899   21.2800 C   0  0  0  0  0  0  0  0  0  0  0  0
  -25.2685  -26.7714   21.7974 C   0  0  0  0  0  0  0  0  0  0  0  0
  -18.1735  -26.0818   22.8460 C   0  0  0  0  0  0  0  0  0  0  0  0
  -31.4484  -29.1383   14.8915 C   0  0  0  0  0  0  0  0  0  0  0  0
  -30.9682  -20.0199   23.4457 C   0  0  0  0  0  0  0  0  0  0  0  0
  -19.2643  -26.3416   23.8802 C   0  0  0  0  0  0  0  0  0  0  0  0
  -30.3760  -29.8279   15.7344 C   0  0  0  0  0  0  0  0  0  0  0  0
  -30.3519  -18.7382   22.8803 C   0  0  0  0  0  0  0  0  0  0  0  0
  -30.9785  -27.7761   14.3892 C   0  0  0  0  0  0  0  0  0  0  0  0
  -29.9890  -21.1912   23.3930 C   0  0  0  0  0  0  0  0  0  0  0  0
  -29.4269  -27.5604   16.3010 C   0  0  0  0  0  0  0  0  0  0  0  0
  -28.7795  -20.1640   21.5086 C   0  0  0  0  0  0  0  0  0  0  0  0
  -19.8671  -27.7409   23.7066 C   0  0  1  0  0  0  0  0  0  0  0  0
  -22.8907  -27.4726   21.4253 C   0  0  1  0  0  0  0  0  0  0  0  0
  -29.8770  -28.9145   16.8639 C   0  0  2  0  0  0  0  0  0  0  0  0
  -29.7501  -18.9720   21.4808 C   0  0  2  0  0  0  0  0  0  0  0  0
  -24.2977  -19.7111   19.1158 C   0  0  0  0  0  0  0  0  0  0  0  0
  -25.8936  -25.2082   23.0344 C   0  0  0  0  0  0  0  0  0  0  0  0
  -26.3298  -22.7993   22.5100 C   0  0  0  0  0  0  0  0  0  0  0  0
  -24.2079  -23.4633   23.6412 C   0  0  0  0  0  0  0  0  0  0  0  0
  -21.5906  -22.2152   18.1792 C   0  0  0  0  0  0  0  0  0  0  0  0
  -28.7414  -29.5821   17.6363 C   0  0  0  0  0  0  0  0  0  1  0  0
  -24.5327  -24.0124   21.1948 C   0  0  1  0  0  0  0  0  0  0  0  0
  -23.3984  -20.9209   19.3172 C   0  0  2  0  0  0  0  0  0  0  0  0
  -25.2395  -23.8901   22.5743 C   0  0  0  0  0  0  0  0  0  0  0  0
  -27.7838  -17.5206   21.1517 N   0  0  0  0  0  0  0  0  0  0  0  0
  -29.0952  -17.7176   20.9336 N   0  0  0  0  0  0  0  0  0  0  0  0
  -30.4970  -26.9530   15.4978 N   0  0  0  0  0  0  0  0  0  0  0  0
  -23.8831  -26.3861   21.4862 N   0  0  0  0  0  0  0  0  0  0  0  0
  -29.4632  -21.3553   22.0360 N   0  0  0  0  0  0  0  0  0  0  0  0
  -31.0043  -16.7602   19.9092 N   0  0  0  0  0  0  0  0  0  0  0  0
  -28.6714  -14.6117   17.8271 N   0  0  0  0  0  0  0  0  0  0  0  0
  -29.1240  -22.6122   20.0694 N   0  0  0  0  0  0  0  0  0  0  0  0
  -20.7928  -27.7580   22.5944 N   0  0  0  0  0  0  0  0  0  0  0  0
  -23.8811  -22.7865   20.7464 N   0  0  0  0  0  0  0  0  0  0  0  0
  -22.5415  -21.0761   18.1078 N   0  3  0  0  0  0  0  0  0  0  0  0
  -31.8952  -25.1481   14.9914 O   0  0  0  0  0  0  0  0  0  0  0  0
  -29.1457  -13.5020   19.7771 O   0  0  0  0  0  0  0  0  0  0  0  0
  -22.6767  -26.9845   23.7236 O   0  0  0  0  0  0  0  0  0  0  0  0
  -22.3041  -24.7722   20.9268 O   0  0  0  0  0  0  0  0  0  0  0  0
  -25.0587  -22.5849   18.7590 O   0  0  0  0  0  0  0  0  0  0  0  0
  -30.2230  -23.5339   21.8928 O   0  0  0  0  0  0  0  0  0  0  0  0
  -22.4073  -14.1535   20.5967 O   0  0  0  0  0  0  0  0  0  0  0  0
  -28.6119  -28.9515   18.9098 O   0  0  0  0  0  0  0  0  0  1  0  0
  -21.4806   -9.8787   23.9539 F   0  0  0  0  0  0  0  0  0  0  0  0
  -28.8177  -23.9441   15.4698 F   0  0  0  0  0  0  0  0  0  0  0  0
  -20.5015  -14.3054   22.5935 F   0  0  0  0  0  0  0  0  0  0  0  0
  1  2  1  0  0  0  0
  1  6  2  0  0  0  0
  2  7  2  0  0  0  0
  3 10  2  0  0  0  0
  3 18  1  0  0  0  0
  4 11  1  0  0  0  0
  4 18  2  0  0  0  0
  5  9  2  0  0  0  0
  5 19  1  0  0  0  0
  6 21  1  0  0  0  0
  7 23  1  0  0  0  0
  8 12  2  0  0  0  0
  8 22  1  0  0  0  0
  9 25  1  0  0  0  0
 10 26  1  0  0  0  0
 11 26  2  0  0  0  0
 12 27  1  0  0  0  0
 13 14  2  0  0  0  0
 13 28  1  0  0  0  0
 14 29  1  0  0  0  0
 15 24  1  0  0  0  0
 15 27  2  0  0  0  0
 16 25  2  0  0  0  0
 16 30  1  0  0  0  0
 17 29  2  0  0  0  0
 17 31  1  0  0  0  0
 18 32  1  0  0  0  0
 19 30  2  0  0  0  0
 19 34  1  0  0  0  0
 20 32  1  0  0  0  0
 20 33  2  0  0  0  0
 20 35  1  0  0  0  0
 21 23  2  0  0  0  0
 21 40  1  0  0  0  0
 22 24  2  0  0  0  0
 22 41  1  0  0  0  0
 23 53  1  0  0  0  0
 24 42  1  0  0  0  0
 25 73  1  0  0  0  0
 26 83  1  0  0  0  0
 27 84  1  0  0  0  0
 28 31  2  0  0  0  0
 28 83  1  0  0  0  0
 29 85  1  0  0  0  0
 30 86  1  0  0  0  0
 31 87  1  0  0  0  0
 32 66  2  0  0  0  0
 33 67  1  0  0  0  0
 33 71  1  0  0  0  0
 34 68  1  0  0  0  0
 34 77  2  0  0  0  0
 35 72  1  0  0  0  0
 35 78  2  0  0  0  0
 36 54  1  0  0  0  0
 36 74  1  0  0  0  0
 36 79  2  0  0  0  0
 37 63  1  0  0  0  0
 37 69  1  0  0  0  0
 37 80  2  0  0  0  0
 38 64  1  0  0  0  0
 38 75  1  0  0  0  0
 38 81  2  0  0  0  0
 39 70  1  0  0  0  0
 39 73  1  0  0  0  0
 39 82  2  0  0  0  0
 40 43  1  0  0  0  0
 41 54  1  0  0  0  0
 42 69  1  0  0  0  0
 43 46  1  0  0  0  0
 44 47  1  0  0  0  0
 44 49  1  0  0  0  0
 45 48  1  0  0  0  0
 45 50  1  0  0  0  0
 46 53  1  0  0  0  0
 47 55  1  0  0  0  0
 48 56  1  0  0  0  0
 49 68  1  0  0  0  0
 50 70  1  0  0  0  0
 51 55  1  0  0  0  0
 51 68  1  0  0  0  0
 52 56  1  0  0  0  0
 52 70  1  0  0  0  0
 53 74  1  0  0  0  0
 54 69  1  0  0  0  0
 55 62  1  0  0  0  0
 56 67  1  0  0  0  0
 57 64  1  0  0  0  0
 58 65  1  0  0  0  0
 59 65  1  0  0  0  0
 60 65  1  0  0  0  0
 61 76  1  0  0  0  0
 62 84  1  0  0  0  0
 63 65  1  0  0  0  0
 63 75  1  0  0  0  0
 64 76  1  0  0  0  0
 66 67  1  0  0  0  0
M  CHG  1  76   1
M  ISO  4  39 100  62 101  73 100  84 101
M  END
> <Batch ID>
0106

> <Smiles>
CNC(C)C(=O)NC(C(=O)N1Cc2cc([101O:1][101CH2:1]C3CCCN(C(=O)c4ccc([100NH:0][100C:0](=O)N5CCCC(n6nc(-c7ccc(Oc8ccc(F)cc8F)cc7)c(C(N)=O)c6N)C5)cc4F)C3)ccc2CC1C(=O)NC1CCCc2ccccc21)C(C)(C)C

> <Shape>
0.235

> <Color>
0.055

> <Negative vol penalty>
0.000

$$$$

  -OEChem-04052301143D

 88 97  0     1  0  0  0  0  0999 V2000
  -28.8884  -29.9892   31.2093 C   0  0  0  0  0  0  0  0  0  0  0  0
  -28.7461  -29.0938   30.1541 C   0  0  0  0  0  0  0  0  0  0  0  0
  -23.0068   -9.4150   20.9629 C   0  0  0  0  0  0  0  0  0  0  0  0
  -23.9097  -10.5261   22.9091 C   0  0  0  0  0  0  0  0  0  0  0  0
  -27.8979  -30.9394   31.4541 C   0  0  0  0  0  0  0  0  0  0  0  0
  -27.6126  -29.1475   29.3437 C   0  0  0  0  0  0  0  0  0  0  0  0
  -28.7287  -28.7953   24.4167 C   0  0  0  0  0  0  0  0  0  0  0  0
  -22.3392   -8.5108   21.7888 C   0  0  0  0  0  0  0  0  0  0  0  0
  -23.2420   -9.6218   23.7350 C   0  0  0  0  0  0  0  0  0  0  0  0
  -29.0162  -27.5255   23.9181 C   0  0  0  0  0  0  0  0  0  0  0  0
  -23.0946   -5.7416   23.5737 C   0  0  0  0  0  0  0  0  0  0  0  0
  -23.1533   -4.3900   23.2345 C   0  0  0  0  0  0  0  0  0  0  0  0
  -26.7738  -27.3681   23.0427 C   0  0  0  0  0  0  0  0  0  0  0  0
  -27.9861  -20.1433   19.4592 C   0  0  0  0  0  0  0  0  0  0  0  0
  -30.1699  -18.4885   19.9837 C   0  0  0  0  0  0  0  0  0  0  0  0
  -20.7459   -4.3349   23.0378 C   0  0  0  0  0  0  0  0  0  0  0  0
  -23.7921  -10.4226   21.5230 C   0  0  0  0  0  0  0  0  0  0  0  0
  -23.9085  -12.2397   19.7363 C   0  0  0  0  0  0  0  0  0  0  0  0
  -26.7563  -31.0110   30.6404 C   0  0  0  0  0  0  0  0  0  0  0  0
  -27.4561  -29.3576   24.2412 C   0  0  0  0  0  0  0  0  0  0  0  0
  -26.6053  -30.0987   29.5786 C   0  0  0  0  0  0  0  0  0  0  0  0
  -26.4735  -28.6463   23.5378 C   0  0  0  0  0  0  0  0  0  0  0  0
  -27.8580  -18.7598   19.3368 C   0  0  0  0  0  0  0  0  0  0  0  0
  -29.2062  -20.6995   19.8438 C   0  0  0  0  0  0  0  0  0  0  0  0
  -28.9499  -17.9324   19.5991 C   0  0  0  0  0  0  0  0  0  0  0  0
  -30.2981  -19.8721   20.1061 C   0  0  0  0  0  0  0  0  0  0  0  0
  -22.4567   -8.6142   23.1749 C   0  0  0  0  0  0  0  0  0  0  0  0
  -28.0378  -26.8104   23.2336 C   0  0  0  0  0  0  0  0  0  0  0  0
  -21.8616   -6.3900   23.6450 C   0  0  0  0  0  0  0  0  0  0  0  0
  -21.9790   -3.6866   22.9665 C   0  0  0  0  0  0  0  0  0  0  0  0
  -20.6873   -5.6866   23.3770 C   0  0  0  0  0  0  0  0  0  0  0  0
  -24.4826  -11.3567   20.6704 C   0  0  0  0  0  0  0  0  0  0  0  0
  -24.9787  -12.9048   19.1897 C   0  0  0  0  0  0  0  0  0  0  0  0
  -28.4851  -24.2494   20.7518 C   0  0  0  0  0  0  0  0  0  0  0  0
  -28.5425  -22.8983   20.8375 C   0  0  0  0  0  0  0  0  0  0  0  0
  -29.3707  -24.9255   19.7473 C   0  0  0  0  0  0  0  0  0  0  0  0
  -22.5309  -12.4409   19.3935 C   0  0  0  0  0  0  0  0  0  0  0  0
  -25.1389  -30.3170   26.1941 C   0  0  0  0  0  0  0  0  0  0  0  0
  -23.7825  -31.3624   23.4392 C   0  0  0  0  0  0  0  0  0  0  0  0
  -23.3832  -30.1359   20.0697 C   0  0  0  0  0  0  0  0  0  0  0  0
  -29.8358  -15.5768   19.7116 C   0  0  0  0  0  0  0  0  0  0  0  0
  -25.6902  -32.0246   30.9730 C   0  0  0  0  0  0  0  0  0  0  0  0
  -27.1702  -30.7395   24.7618 C   0  0  0  0  0  0  0  0  0  0  0  0
  -25.0979  -29.2137   23.3049 C   0  0  0  0  0  0  0  0  0  0  0  0
  -30.4589  -24.1045   19.1012 C   0  0  0  0  0  0  0  0  0  0  0  0
  -24.6967  -32.2585   29.8378 C   0  0  0  0  0  0  0  0  0  0  0  0
  -29.9484  -12.0210   19.5682 C   0  0  0  0  0  0  0  0  0  0  0  0
  -24.2277  -30.9286   29.2564 C   0  0  0  0  0  0  0  0  0  0  0  0
  -28.4892  -11.6038   19.7654 C   0  0  0  0  0  0  0  0  0  0  0  0
  -29.9761  -22.7008   18.7907 C   0  0  0  0  0  0  0  0  0  0  0  0
  -30.3088  -13.2407   20.4145 C   0  0  0  0  0  0  0  0  0  0  0  0
  -27.9587  -13.9791   20.4461 C   0  0  0  0  0  0  0  0  0  0  0  0
  -25.4019  -30.1415   28.6621 C   0  0  1  0  0  0  0  0  0  0  0  0
  -25.6823  -31.0026   24.9725 C   0  0  1  0  0  0  0  0  0  0  0  0
  -27.5308  -12.7941   19.5650 C   0  0  2  0  0  0  0  0  0  0  0  0
  -26.5392  -18.1914   18.9236 C   0  0  0  0  0  0  0  0  0  0  0  0
  -27.8098  -22.1842   21.9575 C   0  0  0  0  0  0  0  0  0  0  0  0
  -23.1024  -31.3742   17.9052 C   0  0  0  0  0  0  0  0  0  0  0  0
  -20.7970  -30.9992   23.9534 C   0  0  0  0  0  0  0  0  0  0  0  0
  -20.4923  -30.6117   21.4988 C   0  0  0  0  0  0  0  0  0  0  0  0
  -21.3616  -32.8027   22.3154 C   0  0  0  0  0  0  0  0  0  0  0  0
  -25.6953  -28.7531   18.8445 C   0  0  0  0  0  0  0  0  0  0  0  0
  -27.6186  -25.1639   21.5695 C   0  0  0  0  0  0  0  0  0  1  0  0
  -22.8537  -30.7639   22.4106 C   0  0  1  0  0  0  0  0  0  0  0  0
  -24.0783  -30.6567   18.8247 C   0  0  2  0  0  0  0  0  0  0  0  0
  -21.3940  -31.2782   22.5596 C   0  0  0  0  0  0  0  0  0  0  0  0
  -25.8142  -11.4497   20.7170 N   0  0  0  0  0  0  0  0  0  0  0  0
  -26.0857  -12.3991   19.8054 N   0  0  0  0  0  0  0  0  0  0  0  0
  -29.3150  -22.1121   19.9624 N   0  0  0  0  0  0  0  0  0  0  0  0
  -24.8650  -30.5658   23.8387 N   0  0  0  0  0  0  0  0  0  0  0  0
  -29.3606  -14.3295   20.1690 N   0  0  0  0  0  0  0  0  0  0  0  0
  -31.5426  -20.4146   20.4976 N   0  0  0  0  0  0  0  0  0  0  0  0
  -25.0715  -13.8668   18.2473 N   0  0  0  0  0  0  0  0  0  0  0  0
  -21.7979  -13.3991   20.1069 N   0  0  0  0  0  0  0  0  0  0  0  0
  -28.8390  -16.5246   19.4821 N   0  0  0  0  0  0  0  0  0  0  0  0
  -25.7684  -30.6796   27.3696 N   0  0  0  0  0  0  0  0  0  0  0  0
  -23.4541  -31.0386   21.1096 N   0  0  0  0  0  0  0  0  0  0  0  0
  -24.6966  -29.5316   18.0677 N   0  3  0  0  0  0  0  0  0  0  0  0
  -29.2688  -26.1299   19.5191 O   0  0  0  0  0  0  0  0  0  0  0  0
  -21.9623  -11.7787   18.4925 O   0  0  0  0  0  0  0  0  0  0  0  0
  -24.2159  -29.5192   26.0790 O   0  0  0  0  0  0  0  0  0  0  0  0
  -23.5600  -32.4978   23.8670 O   0  0  0  0  0  0  0  0  0  0  0  0
  -22.8293  -29.0396   20.1141 O   0  0  0  0  0  0  0  0  0  0  0  0
  -31.0359  -15.7798   19.5104 O   0  0  0  0  0  0  0  0  0  0  0  0
  -21.8051   -7.7322   23.9811 O   0  0  0  0  0  0  0  0  0  0  0  0
  -28.3156  -25.5705   22.7465 O   0  0  0  0  0  0  0  0  0  1  0  0
  -22.0355   -2.3889   22.6392 F   0  0  0  0  0  0  0  0  0  0  0  0
  -19.4999   -6.3043   23.4428 F   0  0  0  0  0  0  0  0  0  0  0  0
  1  2  1  0  0  0  0
  1  5  2  0  0  0  0
  2  6  2  0  0  0  0
  3  8  2  0  0  0  0
  3 17  1  0  0  0  0
  4  9  1  0  0  0  0
  4 17  2  0  0  0  0
  5 19  1  0  0  0  0
  6 21  1  0  0  0  0
  7 10  2  0  0  0  0
  7 20  1  0  0  0  0
  8 27  1  0  0  0  0
  9 27  2  0  0  0  0
 10 28  1  0  0  0  0
 11 12  2  0  0  0  0
 11 29  1  0  0  0  0
 12 30  1  0  0  0  0
 13 22  1  0  0  0  0
 13 28  2  0  0  0  0
 14 23  2  0  0  0  0
 14 24  1  0  0  0  0
 15 25  2  0  0  0  0
 15 26  1  0  0  0  0
 16 30  2  0  0  0  0
 16 31  1  0  0  0  0
 17 32  1  0  0  0  0
 18 32  1  0  0  0  0
 18 33  2  0  0  0  0
 18 37  1  0  0  0  0
 19 21  2  0  0  0  0
 19 42  1  0  0  0  0
 20 22  2  0  0  0  0
 20 43  1  0  0  0  0
 21 53  1  0  0  0  0
 22 44  1  0  0  0  0
 23 25  1  0  0  0  0
 23 56  1  0  0  0  0
 24 26  2  0  0  0  0
 24 69  1  0  0  0  0
 25 75  1  0  0  0  0
 26 72  1  0  0  0  0
 27 85  1  0  0  0  0
 28 86  1  0  0  0  0
 29 31  2  0  0  0  0
 29 85  1  0  0  0  0
 30 87  1  0  0  0  0
 31 88  1  0  0  0  0
 32 67  2  0  0  0  0
 33 68  1  0  0  0  0
 33 73  1  0  0  0  0
 34 35  2  0  0  0  0
 34 36  1  0  0  0  0
 34 63  1  0  0  0  0
 35 57  1  0  0  0  0
 35 69  1  0  0  0  0
 36 45  1  0  0  0  0
 36 79  2  0  0  0  0
 37 74  1  0  0  0  0
 37 80  2  0  0  0  0
 38 54  1  0  0  0  0
 38 76  1  0  0  0  0
 38 81  2  0  0  0  0
 39 64  1  0  0  0  0
 39 70  1  0  0  0  0
 39 82  2  0  0  0  0
 40 65  1  0  0  0  0
 40 77  1  0  0  0  0
 40 83  2  0  0  0  0
 41 71  1  0  0  0  0
 41 75  1  0  0  0  0
 41 84  2  0  0  0  0
 42 46  1  0  0  0  0
 43 54  1  0  0  0  0
 44 70  1  0  0  0  0
 45 50  1  0  0  0  0
 46 48  1  0  0  0  0
 47 49  1  0  0  0  0
 47 51  1  0  0  0  0
 48 53  1  0  0  0  0
 49 55  1  0  0  0  0
 50 69  1  0  0  0  0
 51 71  1  0  0  0  0
 52 55  1  0  0  0  0
 52 71  1  0  0  0  0
 53 76  1  0  0  0  0
 54 70  1  0  0  0  0
 55 68  1  0  0  0  0
 58 65  1  0  0  0  0
 59 66  1  0  0  0  0
 60 66  1  0  0  0  0
 61 66  1  0  0  0  0
 62 78  1  0  0  0  0
 63 86  1  0  0  0  0
 64 66  1  0  0  0  0
 64 77  1  0  0  0  0
 65 78  1  0  0  0  0
 67 68  1  0  0  0  0
M  CHG  1  78   1
M  ISO  4  41 100  63 101  75 100  86 101
M  END
> <Batch ID>
0106

> <Smiles>
CNC(C)C(=O)NC(C(=O)N1Cc2cc([101O:1][101CH2:1]C3=C(C)N(c4cc(C)c([100NH:0][100C:0](=O)N5CCCC(n6nc(-c7ccc(Oc8ccc(F)cc8F)cc7)c(C(N)=O)c6N)C5)cc4N)CCC3=O)ccc2CC1C(=O)NC1CCCc2ccccc21)C(C)(C)C

> <Shape>
0.300

> <Color>
0.086

> <Negative vol penalty>
0.000

$$$$

  -OEChem-04052301143D

 87 96  0     1  0  0  0  0  0999 V2000
  -17.2122  -30.3743   23.9458 C   0  0  0  0  0  0  0  0  0  0  0  0
  -18.5504  -30.7541   23.9641 C   0  0  0  0  0  0  0  0  0  0  0  0
  -26.5313  -12.7240   20.6861 C   0  0  0  0  0  0  0  0  0  0  0  0
  -24.1287  -12.9102   20.8595 C   0  0  0  0  0  0  0  0  0  0  0  0
  -16.8552  -29.1047   23.4937 C   0  0  0  0  0  0  0  0  0  0  0  0
  -19.5326  -29.8640   23.5312 C   0  0  0  0  0  0  0  0  0  0  0  0
  -25.9019  -29.7393   20.2551 C   0  0  0  0  0  0  0  0  0  0  0  0
  -29.6904  -24.3132   20.5430 C   0  0  0  0  0  0  0  0  0  0  0  0
  -29.0984  -23.2709   19.8298 C   0  0  0  0  0  0  0  0  0  0  0  0
  -26.4006  -11.3871   20.3104 C   0  0  0  0  0  0  0  0  0  0  0  0
  -23.9980  -11.5732   20.4837 C   0  0  0  0  0  0  0  0  0  0  0  0
  -27.1895  -29.2316   20.4226 C   0  0  0  0  0  0  0  0  0  0  0  0
  -23.0477   -8.1108   19.9196 C   0  0  0  0  0  0  0  0  0  0  0  0
  -22.1590   -7.3173   20.6450 C   0  0  0  0  0  0  0  0  0  0  0  0
  -26.4483  -27.0930   19.5883 C   0  0  0  0  0  0  0  0  0  0  0  0
  -27.9955  -24.1064   22.2523 C   0  0  0  0  0  0  0  0  0  0  0  0
  -23.4248   -7.7408   22.6589 C   0  0  0  0  0  0  0  0  0  0  0  0
  -25.3953  -13.4855   20.9607 C   0  0  0  0  0  0  0  0  0  0  0  0
  -26.2134  -15.3709   22.4719 C   0  0  0  0  0  0  0  0  0  0  0  0
  -17.8326  -28.2020   23.0460 C   0  0  0  0  0  0  0  0  0  0  0  0
  -24.8735  -28.9232   19.7623 C   0  0  0  0  0  0  0  0  0  0  0  0
  -19.1884  -28.5805   23.0740 C   0  0  0  0  0  0  0  0  0  0  0  0
  -25.1491  -27.5935   19.4130 C   0  0  0  0  0  0  0  0  0  0  0  0
  -29.1390  -24.7309   21.7543 C   0  0  0  0  0  0  0  0  0  0  0  0
  -27.9549  -22.6463   20.3278 C   0  0  0  0  0  0  0  0  0  0  0  0
  -25.1340  -10.8117   20.2092 C   0  0  0  0  0  0  0  0  0  0  0  0
  -27.4622  -27.9075   20.0919 C   0  0  0  0  0  0  0  0  0  0  0  0
  -24.1251   -8.7192   20.5638 C   0  0  0  0  0  0  0  0  0  0  0  0
  -22.3475   -7.1324   22.0146 C   0  0  0  0  0  0  0  0  0  0  0  0
  -27.4035  -23.0641   21.5391 C   0  0  0  0  0  0  0  0  0  0  0  0
  -24.3136   -8.5342   21.9334 C   0  0  0  0  0  0  0  0  0  0  0  0
  -25.5297  -14.8664   21.3495 C   0  0  0  0  0  0  0  0  0  0  0  0
  -26.0466  -16.7319   22.3924 C   0  0  0  0  0  0  0  0  0  0  0  0
  -29.7342  -25.9648   23.8880 C   0  0  0  0  0  0  0  0  0  0  0  0
  -27.5373  -19.7153   18.0827 C   0  0  0  0  0  0  0  0  0  0  0  0
  -28.0822  -20.7178   18.7755 C   0  0  0  0  0  0  0  0  0  0  0  0
  -26.9349  -14.6718   23.4949 C   0  0  0  0  0  0  0  0  0  0  0  0
  -22.0950  -27.8819   20.9021 C   0  0  0  0  0  0  0  0  0  0  0  0
  -21.7516  -26.6987   17.9014 C   0  0  0  0  0  0  0  0  0  0  0  0
  -23.2370  -25.6384   15.0176 C   0  0  0  0  0  0  0  0  0  0  0  0
  -25.9265  -21.4673   19.5611 C   0  0  0  0  0  0  0  0  0  0  0  0
  -17.4027  -26.8234   22.6108 C   0  0  0  0  0  0  0  0  0  0  0  0
  -23.4962  -29.4936   19.5623 C   0  0  0  0  0  0  0  0  0  0  0  0
  -24.0849  -26.6817   18.8610 C   0  0  0  0  0  0  0  0  0  0  0  0
  -30.5132  -27.2188   24.2073 C   0  0  0  0  0  0  0  0  0  0  0  0
  -18.4702  -26.0747   21.8170 C   0  0  0  0  0  0  0  0  0  0  0  0
  -31.3369  -27.4513   22.9549 C   0  0  0  0  0  0  0  0  0  0  0  0
  -23.0285  -19.5231   19.4596 C   0  0  0  0  0  0  0  0  0  0  0  0
  -19.8264  -26.1897   22.5058 C   0  0  0  0  0  0  0  0  0  0  0  0
  -23.4690  -18.1742   20.0273 C   0  0  0  0  0  0  0  0  0  0  0  0
  -24.1048  -20.1142   18.5563 C   0  0  0  0  0  0  0  0  0  0  0  0
  -25.8871  -18.9275   19.7968 C   0  0  0  0  0  0  0  0  0  0  0  0
  -20.2806  -27.6520   22.5891 C   0  0  1  0  0  0  0  0  0  0  0  0
  -22.4057  -28.4270   19.5368 C   0  0  1  0  0  0  0  0  0  0  0  0
  -24.8354  -18.2886   20.7259 C   0  0  2  0  0  0  0  0  0  0  0  0
  -30.4604  -26.8974   21.8372 C   0  0  2  0  0  0  0  0  0  0  0  0
  -22.6981  -24.6927   12.7565 C   0  0  0  0  0  0  0  0  0  0  0  0
  -21.2107  -23.9774   19.1711 C   0  0  0  0  0  0  0  0  0  0  0  0
  -21.6245  -22.9298   16.9351 C   0  0  0  0  0  0  0  0  0  0  0  0
  -19.7368  -24.5339   17.2288 C   0  0  0  0  0  0  0  0  0  0  0  0
  -24.4523  -27.9536   13.6314 C   0  0  0  0  0  0  0  0  0  0  0  0
  -29.5080  -27.9696   21.3030 C   0  0  0  0  0  0  0  0  0  1  0  0
  -22.1110  -25.4027   17.2156 C   0  0  1  0  0  0  0  0  0  0  0  0
  -22.9520  -25.9579   13.5612 C   0  0  2  0  0  0  0  0  0  0  0  0
  -21.1906  -24.2273   17.6498 C   0  0  0  0  0  0  0  0  0  0  0  0
  -24.9701  -15.8286   20.6112 N   0  0  0  0  0  0  0  0  0  0  0  0
  -25.3018  -16.9513   21.2711 N   0  0  0  0  0  0  0  0  0  0  0  0
  -29.7463  -25.8015   22.4864 N   0  0  0  0  0  0  0  0  0  0  0  0
  -22.7525  -27.2841   18.6896 N   0  0  0  0  0  0  0  0  0  0  0  0
  -25.3879  -20.2018   19.2544 N   0  0  0  0  0  0  0  0  0  0  0  0
  -26.4657  -17.7504   23.1731 N   0  0  0  0  0  0  0  0  0  0  0  0
  -26.2394  -14.2585   24.6393 N   0  0  0  0  0  0  0  0  0  0  0  0
  -20.7922  -28.0959   21.3102 N   0  0  0  0  0  0  0  0  0  0  0  0
  -22.0911  -25.6796   15.7833 N   0  0  0  0  0  0  0  0  0  0  0  0
  -27.3422  -21.5646   19.5846 N   0  0  0  0  0  0  0  0  0  0  0  0
  -24.1066  -26.6778   12.9533 N   0  3  0  0  0  0  0  0  0  0  0  0
  -29.1979  -25.2930   24.7574 O   0  0  0  0  0  0  0  0  0  0  0  0
  -28.1635  -14.4355   23.4043 O   0  0  0  0  0  0  0  0  0  0  0  0
  -22.9718  -27.3083   21.5376 O   0  0  0  0  0  0  0  0  0  0  0  0
  -20.6267  -27.1777   17.7378 O   0  0  0  0  0  0  0  0  0  0  0  0
  -24.3630  -25.3746   15.4337 O   0  0  0  0  0  0  0  0  0  0  0  0
  -25.2028  -22.4478   19.7779 O   0  0  0  0  0  0  0  0  0  0  0  0
  -25.0060   -9.5072   19.8423 O   0  0  0  0  0  0  0  0  0  0  0  0
  -28.7180  -27.4092   20.2551 O   0  0  0  0  0  0  0  0  0  1  0  0
  -21.4932   -6.3717   22.7114 F   0  0  0  0  0  0  0  0  0  0  0  0
  -26.3037  -22.4720   22.0267 F   0  0  0  0  0  0  0  0  0  0  0  0
  -25.3460   -9.1171   22.5580 F   0  0  0  0  0  0  0  0  0  0  0  0
  1  2  1  0  0  0  0
  1  5  2  0  0  0  0
  2  6  2  0  0  0  0
  3 10  2  0  0  0  0
  3 18  1  0  0  0  0
  4 11  1  0  0  0  0
  4 18  2  0  0  0  0
  5 20  1  0  0  0  0
  6 22  1  0  0  0  0
  7 12  2  0  0  0  0
  7 21  1  0  0  0  0
  8  9  2  0  0  0  0
  8 24  1  0  0  0  0
  9 25  1  0  0  0  0
 10 26  1  0  0  0  0
 11 26  2  0  0  0  0
 12 27  1  0  0  0  0
 13 14  2  0  0  0  0
 13 28  1  0  0  0  0
 14 29  1  0  0  0  0
 15 23  1  0  0  0  0
 15 27  2  0  0  0  0
 16 24  2  0  0  0  0
 16 30  1  0  0  0  0
 17 29  2  0  0  0  0
 17 31  1  0  0  0  0
 18 32  1  0  0  0  0
 19 32  1  0  0  0  0
 19 33  2  0  0  0  0
 19 37  1  0  0  0  0
 20 22  2  0  0  0  0
 20 42  1  0  0  0  0
 21 23  2  0  0  0  0
 21 43  1  0  0  0  0
 22 53  1  0  0  0  0
 23 44  1  0  0  0  0
 24 68  1  0  0  0  0
 25 30  2  0  0  0  0
 25 75  1  0  0  0  0
 26 83  1  0  0  0  0
 27 84  1  0  0  0  0
 28 31  2  0  0  0  0
 28 83  1  0  0  0  0
 29 85  1  0  0  0  0
 30 86  1  0  0  0  0
 31 87  1  0  0  0  0
 32 66  2  0  0  0  0
 33 67  1  0  0  0  0
 33 71  1  0  0  0  0
 34 45  1  0  0  0  0
 34 68  1  0  0  0  0
 34 77  2  0  0  0  0
 35 36  2  0  0  0  0
 36 75  1  0  0  0  0
 37 72  1  0  0  0  0
 37 78  2  0  0  0  0
 38 54  1  0  0  0  0
 38 73  1  0  0  0  0
 38 79  2  0  0  0  0
 39 63  1  0  0  0  0
 39 69  1  0  0  0  0
 39 80  2  0  0  0  0
 40 64  1  0  0  0  0
 40 74  1  0  0  0  0
 40 81  2  0  0  0  0
 41 70  1  0  0  0  0
 41 75  1  0  0  0  0
 41 82  2  0  0  0  0
 42 46  1  0  0  0  0
 43 54  1  0  0  0  0
 44 69  1  0  0  0  0
 45 47  1  0  0  0  0
 46 49  1  0  0  0  0
 47 56  1  0  0  0  0
 48 50  1  0  0  0  0
 48 51  1  0  0  0  0
 49 53  1  0  0  0  0
 50 55  1  0  0  0  0
 51 70  1  0  0  0  0
 52 55  1  0  0  0  0
 52 70  1  0  0  0  0
 53 73  1  0  0  0  0
 54 69  1  0  0  0  0
 55 67  1  0  0  0  0
 56 62  1  0  0  0  0
 56 68  1  0  0  0  0
 57 64  1  0  0  0  0
 58 65  1  0  0  0  0
 59 65  1  0  0  0  0
 60 65  1  0  0  0  0
 61 76  1  0  0  0  0
 62 84  1  0  0  0  0
 63 65  1  0  0  0  0
 63 74  1  0  0  0  0
 64 76  1  0  0  0  0
 66 67  1  0  0  0  0
M  CHG  1  76   1
M  ISO  4  41 100  62 101  75 100  84 101
M  END
> <Batch ID>
0106

> <Smiles>
C=C[100N:0](c1ccc(N2C(=O)CCC2[101CH2:1][101O:1]c2ccc3c(c2)CN(C(=O)C(NC(=O)C(C)NC)C(C)(C)C)C(C(=O)NC2CCCc4ccccc42)C3)cc1F)[100C:0](=O)N1CCCC(n2nc(-c3ccc(Oc4ccc(F)cc4F)cc3)c(C(N)=O)c2N)C1

> <Shape>
0.241

> <Color>
0.090

> <Negative vol penalty>
0.000

$$$$

  -OEChem-04052301143D

 89 98  0     1  0  0  0  0  0999 V2000
  -21.7623   -5.1483   24.7444 C   0  0  0  0  0  0  0  0  0  0  0  0
  -22.8209   -6.0081   24.4696 C   0  0  0  0  0  0  0  0  0  0  0  0
  -26.1392  -31.1863   22.5405 C   0  0  0  0  0  0  0  0  0  0  0  0
  -26.1016  -31.8720   20.2241 C   0  0  0  0  0  0  0  0  0  0  0  0
  -20.7901   -4.9090   23.7741 C   0  0  0  0  0  0  0  0  0  0  0  0
  -22.9085   -6.6283   23.2238 C   0  0  0  0  0  0  0  0  0  0  0  0
  -25.0501  -12.2445   22.0499 C   0  0  0  0  0  0  0  0  0  0  0  0
  -29.6770  -19.1448   17.3613 C   0  0  0  0  0  0  0  0  0  0  0  0
  -29.5585  -20.5248   17.1961 C   0  0  0  0  0  0  0  0  0  0  0  0
  -26.2560  -32.5196   22.9332 C   0  0  0  0  0  0  0  0  0  0  0  0
  -26.2184  -33.2053   20.6169 C   0  0  0  0  0  0  0  0  0  0  0  0
  -26.2865  -12.7008   21.5950 C   0  0  0  0  0  0  0  0  0  0  0  0
  -24.2237  -35.1980   23.2918 C   0  0  0  0  0  0  0  0  0  0  0  0
  -23.4200  -35.6367   24.3440 C   0  0  0  0  0  0  0  0  0  0  0  0
  -25.4309  -12.7532   19.3402 C   0  0  0  0  0  0  0  0  0  0  0  0
  -29.6878  -20.8225   19.5903 C   0  0  0  0  0  0  0  0  0  0  0  0
  -25.3942  -36.2101   25.6131 C   0  0  0  0  0  0  0  0  0  0  0  0
  -26.0620  -30.8625   21.1859 C   0  0  0  0  0  0  0  0  0  0  0  0
  -24.9115  -28.5867   21.1152 C   0  0  0  0  0  0  0  0  0  0  0  0
  -20.8607   -5.5341   22.5191 C   0  0  0  0  0  0  0  0  0  0  0  0
  -23.9963  -12.0284   21.1503 C   0  0  0  0  0  0  0  0  0  0  0  0
  -21.9371   -6.3961   22.2353 C   0  0  0  0  0  0  0  0  0  0  0  0
  -24.1813  -12.2966   19.7865 C   0  0  0  0  0  0  0  0  0  0  0  0
  -29.8008  -18.6037   18.6410 C   0  0  0  0  0  0  0  0  0  0  0  0
  -29.5639  -21.3636   18.3106 C   0  0  0  0  0  0  0  0  0  0  0  0
  -26.2956  -33.5291   21.9715 C   0  0  0  0  0  0  0  0  0  0  0  0
  -26.4779  -12.9525   20.2397 C   0  0  0  0  0  0  0  0  0  0  0  0
  -25.6128  -35.2654   23.4002 C   0  0  0  0  0  0  0  0  0  0  0  0
  -24.0052  -36.1427   25.5046 C   0  0  0  0  0  0  0  0  0  0  0  0
  -29.8063  -19.4425   19.7554 C   0  0  0  0  0  0  0  0  0  0  0  0
  -26.1980  -35.7714   24.5608 C   0  0  0  0  0  0  0  0  0  0  0  0
  -25.9418  -29.4853   20.7795 C   0  0  0  0  0  0  0  0  0  0  0  0
  -25.2584  -27.4161   20.4861 C   0  0  0  0  0  0  0  0  0  0  0  0
  -29.3373  -15.1309   19.9208 C   0  0  0  0  0  0  0  0  0  0  0  0
  -29.0263  -16.3920   19.5342 C   0  0  0  0  0  0  0  0  0  0  0  0
  -30.7078  -14.6094   19.5971 C   0  0  0  0  0  0  0  0  0  0  0  0
  -23.7451  -28.7919   21.9233 C   0  0  0  0  0  0  0  0  0  0  0  0
  -22.2907   -9.4984   20.2594 C   0  0  0  0  0  0  0  0  0  0  0  0
  -20.5885  -11.7140   18.6114 C   0  0  0  0  0  0  0  0  0  0  0  0
  -21.3027  -14.6349   16.6175 C   0  0  0  0  0  0  0  0  0  0  0  0
  -28.8346  -23.5982   19.1266 C   0  0  0  0  0  0  0  0  0  0  0  0
  -19.8119   -5.2077   21.4856 C   0  0  0  0  0  0  0  0  0  0  0  0
  -22.6606  -11.5614   21.6604 C   0  0  0  0  0  0  0  0  0  0  0  0
  -23.0759  -12.1000   18.7825 C   0  0  0  0  0  0  0  0  0  0  0  0
  -31.7130  -15.5551   18.9852 C   0  0  0  0  0  0  0  0  0  0  0  0
  -19.7748   -6.1956   20.3224 C   0  0  0  0  0  0  0  0  0  0  0  0
  -28.7970  -26.4572   17.0129 C   0  0  0  0  0  0  0  0  0  0  0  0
  -21.1853   -6.4719   19.8115 C   0  0  0  0  0  0  0  0  0  0  0  0
  -27.9691  -27.4375   17.8431 C   0  0  0  0  0  0  0  0  0  0  0  0
  -31.0452  -16.5860   18.0921 C   0  0  0  0  0  0  0  0  0  0  0  0
  -29.7418  -25.6267   17.8820 C   0  0  0  0  0  0  0  0  0  0  0  0
  -28.2411  -25.9047   19.8300 C   0  0  0  0  0  0  0  0  0  0  0  0
  -22.0534   -7.1070   20.9044 C   0  0  1  0  0  0  0  0  0  0  0  0
  -21.8140  -10.8852   20.5865 C   0  0  1  0  0  0  0  0  0  0  0  0
  -27.2408  -26.7130   18.9888 C   0  0  1  0  0  0  0  0  0  0  0  0
  -27.6336  -16.9374   19.7839 C   0  0  0  0  0  0  0  0  0  0  0  0
  -31.6335  -23.6330   17.3784 C   0  0  0  0  0  0  0  0  0  0  0  0
  -19.9162  -16.6754   16.1579 C   0  0  0  0  0  0  0  0  0  0  0  0
  -19.7030  -10.1955   16.1173 C   0  0  0  0  0  0  0  0  0  0  0  0
  -19.7592  -12.3618   14.8634 C   0  0  0  0  0  0  0  0  0  0  0  0
  -18.1944  -12.0751   16.7849 C   0  0  0  0  0  0  0  0  0  0  0  0
  -23.4392  -16.4448   17.5760 C   0  0  0  0  0  0  0  0  0  0  0  0
  -28.4587  -14.1880   20.6934 C   0  0  0  0  0  0  0  0  0  1  0  0
  -30.1709  -23.4302   17.0382 C   0  0  0  0  0  0  0  0  0  0  0  0
  -20.6718  -12.3149   17.2290 C   0  0  1  0  0  0  0  0  0  0  0  0
  -21.0371  -16.0808   16.9961 C   0  0  2  0  0  0  0  0  0  0  0  0
  -19.6053  -11.7273   16.2622 C   0  0  0  0  0  0  0  0  0  0  0  0
  -26.8735  -28.9329   19.9979 N   0  0  0  0  0  0  0  0  0  0  0  0
  -26.4300  -27.6745   19.8374 N   0  0  0  0  0  0  0  0  0  0  0  0
  -29.9196  -17.1995   18.8059 N   0  0  0  0  0  0  0  0  0  0  0  0
  -21.7902  -11.6361   19.3295 N   0  0  0  0  0  0  0  0  0  0  0  0
  -29.0093  -24.9878   18.9844 N   0  0  0  0  0  0  0  0  0  0  0  0
  -24.6725  -26.2012   20.4301 N   0  0  0  0  0  0  0  0  0  0  0  0
  -22.5709  -29.2373   21.3009 N   0  0  0  0  0  0  0  0  0  0  0  0
  -21.7349   -8.5112   21.0505 N   0  0  0  0  0  0  0  0  0  0  0  0
  -20.5857  -13.7604   17.4064 N   0  0  0  0  0  0  0  0  0  0  0  0
  -29.4413  -22.7922   18.1394 N   0  0  0  0  0  0  0  0  0  0  0  0
  -22.2632  -16.9031   16.7925 N   0  3  0  0  0  0  0  0  0  0  0  0
  -31.0243  -13.4529   19.8747 O   0  0  0  0  0  0  0  0  0  0  0  0
  -23.7486  -28.6020   23.1632 O   0  0  0  0  0  0  0  0  0  0  0  0
  -23.1016   -9.3358   19.3551 O   0  0  0  0  0  0  0  0  0  0  0  0
  -19.4963  -11.3344   19.0410 O   0  0  0  0  0  0  0  0  0  0  0  0
  -22.0667  -14.3135   15.7101 O   0  0  0  0  0  0  0  0  0  0  0  0
  -28.2077  -23.1136   20.0763 O   0  0  0  0  0  0  0  0  0  0  0  0
  -26.4094  -34.8302   22.3544 O   0  0  0  0  0  0  0  0  0  0  0  0
  -27.6839  -13.3973   19.7930 O   0  0  0  0  0  0  0  0  0  1  0  0
  -23.2332  -36.5653   26.5144 F   0  0  0  0  0  0  0  0  0  0  0  0
  -29.9233  -18.9325   20.9897 F   0  0  0  0  0  0  0  0  0  0  0  0
  -27.5319  -35.8397   24.6704 F   0  0  0  0  0  0  0  0  0  0  0  0
  1  2  1  0  0  0  0
  1  5  2  0  0  0  0
  2  6  2  0  0  0  0
  3 10  2  0  0  0  0
  3 18  1  0  0  0  0
  4 11  1  0  0  0  0
  4 18  2  0  0  0  0
  5 20  1  0  0  0  0
  6 22  1  0  0  0  0
  7 12  2  0  0  0  0
  7 21  1  0  0  0  0
  8  9  2  0  0  0  0
  8 24  1  0  0  0  0
  9 25  1  0  0  0  0
 10 26  1  0  0  0  0
 11 26  2  0  0  0  0
 12 27  1  0  0  0  0
 13 14  2  0  0  0  0
 13 28  1  0  0  0  0
 14 29  1  0  0  0  0
 15 23  1  0  0  0  0
 15 27  2  0  0  0  0
 16 25  2  0  0  0  0
 16 30  1  0  0  0  0
 17 29  2  0  0  0  0
 17 31  1  0  0  0  0
 18 32  1  0  0  0  0
 19 32  1  0  0  0  0
 19 33  2  0  0  0  0
 19 37  1  0  0  0  0
 20 22  2  0  0  0  0
 20 42  1  0  0  0  0
 21 23  2  0  0  0  0
 21 43  1  0  0  0  0
 22 53  1  0  0  0  0
 23 44  1  0  0  0  0
 24 30  2  0  0  0  0
 24 70  1  0  0  0  0
 25 77  1  0  0  0  0
 26 85  1  0  0  0  0
 27 86  1  0  0  0  0
 28 31  2  0  0  0  0
 28 85  1  0  0  0  0
 29 87  1  0  0  0  0
 30 88  1  0  0  0  0
 31 89  1  0  0  0  0
 32 68  2  0  0  0  0
 33 69  1  0  0  0  0
 33 73  1  0  0  0  0
 34 35  2  0  0  0  0
 34 36  1  0  0  0  0
 34 63  1  0  0  0  0
 35 56  1  0  0  0  0
 35 70  1  0  0  0  0
 36 45  1  0  0  0  0
 36 79  2  0  0  0  0
 37 74  1  0  0  0  0
 37 80  2  0  0  0  0
 38 54  1  0  0  0  0
 38 75  1  0  0  0  0
 38 81  2  0  0  0  0
 39 65  1  0  0  0  0
 39 71  1  0  0  0  0
 39 82  2  0  0  0  0
 40 66  1  0  0  0  0
 40 76  1  0  0  0  0
 40 83  2  0  0  0  0
 41 72  1  0  0  0  0
 41 77  1  0  0  0  0
 41 84  2  0  0  0  0
 42 46  1  0  0  0  0
 43 54  1  0  0  0  0
 44 71  1  0  0  0  0
 45 50  1  0  0  0  0
 46 48  1  0  0  0  0
 47 49  1  0  0  0  0
 47 51  1  0  0  0  0
 48 53  1  0  0  0  0
 49 55  1  0  0  0  0
 50 70  1  0  0  0  0
 51 72  1  0  0  0  0
 52 55  1  0  0  0  0
 52 72  1  0  0  0  0
 53 75  1  0  0  0  0
 54 71  1  0  0  0  0
 55 69  1  0  0  0  0
 57 64  1  0  0  0  0
 58 66  1  0  0  0  0
 59 67  1  0  0  0  0
 60 67  1  0  0  0  0
 61 67  1  0  0  0  0
 62 78  1  0  0  0  0
 63 86  1  0  0  0  0
 64 77  1  0  0  0  0
 65 67  1  0  0  0  0
 65 76  1  0  0  0  0
 66 78  1  0  0  0  0
 68 69  1  0  0  0  0
M  CHG  1  78   1
M  ISO  4  41 100  63 101  77 100  86 101
M  END
> <Batch ID>
0106

> <Smiles>
CC[100N:0](c1ccc(N2CCC(=O)C([101CH2:1][101O:1]c3ccc4c(c3)CN(C(=O)C(NC(=O)C(C)NC)C(C)(C)C)C(C(=O)NC3CCCc5ccccc53)C4)=C2C)c(F)c1)[100C:0](=O)N1CCCC(n2nc(-c3ccc(Oc4ccc(F)cc4F)cc3)c(C(N)=O)c2N)C1

> <Shape>
0.298

> <Color>
0.092

> <Negative vol penalty>
0.000

$$$$

  -OEChem-04052301143D

 86 94  0     1  0  0  0  0  0999 V2000
  -28.9686  -32.2012   25.3263 C   0  0  0  0  0  0  0  0  0  0  0  0
  -28.8008  -30.9208   24.8088 C   0  0  0  0  0  0  0  0  0  0  0  0
  -23.0989  -10.4953   20.6169 C   0  0  0  0  0  0  0  0  0  0  0  0
  -24.3760   -9.2069   22.2126 C   0  0  0  0  0  0  0  0  0  0  0  0
  -27.8533  -32.9718   25.6523 C   0  0  0  0  0  0  0  0  0  0  0  0
  -27.5175  -30.4097   24.6180 C   0  0  0  0  0  0  0  0  0  0  0  0
  -26.9898  -28.1063   20.1391 C   0  0  0  0  0  0  0  0  0  0  0  0
  -22.1669   -9.4613   20.5279 C   0  0  0  0  0  0  0  0  0  0  0  0
  -23.4440   -8.1729   22.1236 C   0  0  0  0  0  0  0  0  0  0  0  0
  -27.5123  -26.8193   20.0196 C   0  0  0  0  0  0  0  0  0  0  0  0
  -20.3714   -7.4792   23.3478 C   0  0  0  0  0  0  0  0  0  0  0  0
  -19.9431   -6.8907   24.5377 C   0  0  0  0  0  0  0  0  0  0  0  0
  -25.3046  -25.9001   20.3358 C   0  0  0  0  0  0  0  0  0  0  0  0
  -27.9941  -19.6269   17.0107 C   0  0  0  0  0  0  0  0  0  0  0  0
  -29.9904  -18.9256   18.8289 C   0  0  0  0  0  0  0  0  0  0  0  0
  -20.7816   -4.7543   23.7828 C   0  0  0  0  0  0  0  0  0  0  0  0
  -24.2035  -10.3681   21.4592 C   0  0  0  0  0  0  0  0  0  0  0  0
  -25.1478  -12.5232   22.4447 C   0  0  0  0  0  0  0  0  0  0  0  0
  -26.5556  -32.4736   25.4563 C   0  0  0  0  0  0  0  0  0  0  0  0
  -25.6202  -28.2999   20.3692 C   0  0  0  0  0  0  0  0  0  0  0  0
  -26.3838  -31.1738   24.9429 C   0  0  0  0  0  0  0  0  0  0  0  0
  -24.7668  -27.1907   20.4554 C   0  0  0  0  0  0  0  0  0  0  0  0
  -28.0856  -18.3145   17.4741 C   0  0  0  0  0  0  0  0  0  0  0  0
  -29.8989  -20.2381   18.3654 C   0  0  0  0  0  0  0  0  0  0  0  0
  -28.9008  -20.5887   17.4563 C   0  0  0  0  0  0  0  0  0  0  0  0
  -29.0837  -17.9638   18.3832 C   0  0  0  0  0  0  0  0  0  0  0  0
  -22.3395   -8.3001   21.2813 C   0  0  0  0  0  0  0  0  0  0  0  0
  -26.6702  -25.7158   20.1208 C   0  0  0  0  0  0  0  0  0  0  0  0
  -21.0048   -6.7052   22.3754 C   0  0  0  0  0  0  0  0  0  0  0  0
  -20.1482   -5.5283   24.7552 C   0  0  0  0  0  0  0  0  0  0  0  0
  -21.2099   -5.3428   22.5929 C   0  0  0  0  0  0  0  0  0  0  0  0
  -25.1668  -11.4356   21.5511 C   0  0  0  0  0  0  0  0  0  0  0  0
  -26.2724  -13.2461   22.1296 C   0  0  0  0  0  0  0  0  0  0  0  0
  -24.1986  -12.8507   23.4681 C   0  0  0  0  0  0  0  0  0  0  0  0
  -23.9000  -29.6055   22.7016 C   0  0  0  0  0  0  0  0  0  0  0  0
  -21.4380  -29.0629   20.6604 C   0  0  0  0  0  0  0  0  0  0  0  0
  -27.9923  -22.9040   17.6304 C   0  0  0  0  0  0  0  0  0  0  0  0
  -20.1901  -27.2710   18.0377 C   0  0  0  0  0  0  0  0  0  0  0  0
  -29.4157  -15.5280   17.9935 C   0  0  0  0  0  0  0  0  0  0  0  0
  -25.3811  -33.3256   25.8678 C   0  0  0  0  0  0  0  0  0  0  0  0
  -25.0679  -29.6954   20.4692 C   0  0  0  0  0  0  0  0  0  0  0  0
  -23.2858  -27.3452   20.6816 C   0  0  0  0  0  0  0  0  0  0  0  0
  -24.0518  -32.8531   25.2846 C   0  0  0  0  0  0  0  0  0  0  0  0
  -30.2080  -12.1233   19.1726 C   0  0  0  0  0  0  0  0  0  0  0  0
  -23.9022  -31.3442   25.4510 C   0  0  0  0  0  0  0  0  0  0  0  0
  -28.9351  -11.7141   19.9117 C   0  0  0  0  0  0  0  0  0  0  0  0
  -29.9156  -13.1022   18.0393 C   0  0  0  0  0  0  0  0  0  0  0  0
  -27.8877  -13.9045   19.2114 C   0  0  0  0  0  0  0  0  0  0  0  0
  -25.0076  -30.5938   24.6984 C   0  0  1  0  0  0  0  0  0  0  0  0
  -23.7391  -29.7601   21.2157 C   0  0  1  0  0  0  0  0  0  0  0  0
  -28.1545  -12.9519   20.3866 C   0  0  1  0  0  0  0  0  0  0  0  0
  -27.1020  -17.3048   16.9783 C   0  0  0  0  0  0  0  0  0  0  0  0
  -30.8832  -21.2479   18.8594 C   0  0  0  0  0  0  0  0  0  0  0  0
  -18.1357  -27.0294   16.6170 C   0  0  0  0  0  0  0  0  0  0  0  0
  -20.0408  -27.5867   22.9361 C   0  0  0  0  0  0  0  0  0  0  0  0
  -18.4960  -26.5807   21.2420 C   0  0  0  0  0  0  0  0  0  0  0  0
  -18.5447  -29.0531   21.5701 C   0  0  0  0  0  0  0  0  0  0  0  0
  -29.6246  -22.2935   15.8026 C   0  0  0  0  0  0  0  0  0  0  0  0
  -29.3221  -16.3972   20.3184 C   0  0  0  0  0  0  0  0  0  0  0  0
  -21.6694  -27.9785   15.5740 C   0  0  0  0  0  0  0  0  0  0  0  0
  -27.1494  -22.3760   18.7915 C   0  0  0  0  0  0  0  0  0  0  0  0
  -26.3146  -23.4565   19.4691 C   0  0  0  0  0  0  0  0  0  1  0  0
  -20.4857  -27.9176   20.4144 C   0  0  1  0  0  0  0  0  0  0  0  0
  -19.4898  -27.7059   16.7630 C   0  0  2  0  0  0  0  0  0  0  0  0
  -19.4200  -27.7812   21.5383 C   0  0  0  0  0  0  0  0  0  0  0  0
  -26.2199  -11.4613   20.7298 N   0  0  0  0  0  0  0  0  0  0  0  0
  -26.8730  -12.5740   21.1060 N   0  0  0  0  0  0  0  0  0  0  0  0
  -22.7947  -28.7297   20.7790 N   0  0  0  0  0  0  0  0  0  0  0  0
  -29.1337  -14.2468   18.5084 N   0  0  0  0  0  0  0  0  0  0  0  0
  -26.7961  -14.3849   22.6309 N   0  0  0  0  0  0  0  0  0  0  0  0
  -23.1012  -12.0000   23.6585 N   0  0  0  0  0  0  0  0  0  0  0  0
  -24.7183  -30.5564   23.2809 N   0  0  0  0  0  0  0  0  0  0  0  0
  -19.9269  -28.1300   19.0837 N   0  0  0  0  0  0  0  0  0  0  0  0
  -28.7885  -21.9466   16.9626 N   0  0  0  0  0  0  0  0  0  0  0  0
  -29.1957  -16.6102   18.8729 N   0  0  0  0  0  0  0  0  0  0  0  0
  -20.3183  -27.3609   15.5733 N   0  3  0  0  0  0  0  0  0  0  0  0
  -24.3113  -13.8764   24.1814 O   0  0  0  0  0  0  0  0  0  0  0  0
  -23.3231  -28.6920   23.2800 O   0  0  0  0  0  0  0  0  0  0  0  0
  -20.9952  -30.2117   20.7371 O   0  0  0  0  0  0  0  0  0  0  0  0
  -27.9164  -24.0957   17.3207 O   0  0  0  0  0  0  0  0  0  0  0  0
  -20.8966  -26.2673   18.1003 O   0  0  0  0  0  0  0  0  0  0  0  0
  -29.8572  -15.6887   16.8494 O   0  0  0  0  0  0  0  0  0  0  0  0
  -21.4301   -7.2911   21.1949 O   0  0  0  0  0  0  0  0  0  0  0  0
  -27.1777  -24.4585   20.0051 O   0  0  0  0  0  0  0  0  0  1  0  0
  -19.7382   -4.9636   25.8986 F   0  0  0  0  0  0  0  0  0  0  0  0
  -21.8188   -4.5943   21.6629 F   0  0  0  0  0  0  0  0  0  0  0  0
  1  2  1  0  0  0  0
  1  5  2  0  0  0  0
  2  6  2  0  0  0  0
  3  8  2  0  0  0  0
  3 17  1  0  0  0  0
  4  9  1  0  0  0  0
  4 17  2  0  0  0  0
  5 19  1  0  0  0  0
  6 21  1  0  0  0  0
  7 10  2  0  0  0  0
  7 20  1  0  0  0  0
  8 27  1  0  0  0  0
  9 27  2  0  0  0  0
 10 28  1  0  0  0  0
 11 12  2  0  0  0  0
 11 29  1  0  0  0  0
 12 30  1  0  0  0  0
 13 22  1  0  0  0  0
 13 28  2  0  0  0  0
 14 23  2  0  0  0  0
 14 25  1  0  0  0  0
 15 24  1  0  0  0  0
 15 26  2  0  0  0  0
 16 30  2  0  0  0  0
 16 31  1  0  0  0  0
 17 32  1  0  0  0  0
 18 32  1  0  0  0  0
 18 33  2  0  0  0  0
 18 34  1  0  0  0  0
 19 21  2  0  0  0  0
 19 40  1  0  0  0  0
 20 22  2  0  0  0  0
 20 41  1  0  0  0  0
 21 49  1  0  0  0  0
 22 42  1  0  0  0  0
 23 26  1  0  0  0  0
 23 52  1  0  0  0  0
 24 25  2  0  0  0  0
 24 53  1  0  0  0  0
 25 74  1  0  0  0  0
 26 75  1  0  0  0  0
 27 83  1  0  0  0  0
 28 84  1  0  0  0  0
 29 31  2  0  0  0  0
 29 83  1  0  0  0  0
 30 85  1  0  0  0  0
 31 86  1  0  0  0  0
 32 66  2  0  0  0  0
 33 67  1  0  0  0  0
 33 70  1  0  0  0  0
 34 71  1  0  0  0  0
 34 77  2  0  0  0  0
 35 50  1  0  0  0  0
 35 72  1  0  0  0  0
 35 78  2  0  0  0  0
 36 63  1  0  0  0  0
 36 68  1  0  0  0  0
 36 79  2  0  0  0  0
 37 61  1  0  0  0  0
 37 74  1  0  0  0  0
 37 80  2  0  0  0  0
 38 64  1  0  0  0  0
 38 73  1  0  0  0  0
 38 81  2  0  0  0  0
 39 69  1  0  0  0  0
 39 75  1  0  0  0  0
 39 82  2  0  0  0  0
 40 43  1  0  0  0  0
 41 50  1  0  0  0  0
 42 68  1  0  0  0  0
 43 45  1  0  0  0  0
 44 46  1  0  0  0  0
 44 47  1  0  0  0  0
 45 49  1  0  0  0  0
 46 51  1  0  0  0  0
 47 69  1  0  0  0  0
 48 51  1  0  0  0  0
 48 69  1  0  0  0  0
 49 72  1  0  0  0  0
 50 68  1  0  0  0  0
 51 67  1  0  0  0  0
 54 64  1  0  0  0  0
 55 65  1  0  0  0  0
 56 65  1  0  0  0  0
 57 65  1  0  0  0  0
 58 74  1  0  0  0  0
 59 75  1  0  0  0  0
 60 76  1  0  0  0  0
 61 62  1  0  0  0  0
 62 84  1  0  0  0  0
 63 65  1  0  0  0  0
 63 73  1  0  0  0  0
 64 76  1  0  0  0  0
 66 67  1  0  0  0  0
M  CHG  1  76   1
M  ISO  4  39 100  62 101  75 100  84 101
M  END
> <Batch ID>
0106

> <Smiles>
CNC(C)C(=O)NC(C(=O)N1Cc2cc([101O:1][101CH2:1]CC(=O)N(C)c3cc(C)c([100N:0](C)[100C:0](=O)N4CCCC(n5nc(-c6ccc(Oc7ccc(F)cc7F)cc6)c(C(N)=O)c5N)C4)cc3C)ccc2CC1C(=O)NC1CCCc2ccccc21)C(C)(C)C

> <Shape>
0.310

> <Color>
0.103

> <Negative vol penalty>
0.000

$$$$

  -OEChem-04052301143D

 83 91  0     1  0  0  0  0  0999 V2000
  -18.8737  -33.0168   20.5171 C   0  0  0  0  0  0  0  0  0  0  0  0
  -20.2482  -32.8362   20.4009 C   0  0  0  0  0  0  0  0  0  0  0  0
  -28.3057  -22.5426   16.2427 C   0  0  0  0  0  0  0  0  0  0  0  0
  -26.3614  -13.1114   21.5970 C   0  0  0  0  0  0  0  0  0  0  0  0
  -25.6869  -14.0925   19.4947 C   0  0  0  0  0  0  0  0  0  0  0  0
  -18.1443  -32.2451   21.4205 C   0  0  0  0  0  0  0  0  0  0  0  0
  -20.8943  -31.8844   21.1891 C   0  0  0  0  0  0  0  0  0  0  0  0
  -25.7053  -28.4429   19.6029 C   0  0  0  0  0  0  0  0  0  0  0  0
  -25.1213  -12.4814   21.7009 C   0  0  0  0  0  0  0  0  0  0  0  0
  -24.4467  -13.4625   19.5986 C   0  0  0  0  0  0  0  0  0  0  0  0
  -27.0714  -28.5691   19.8510 C   0  0  0  0  0  0  0  0  0  0  0  0
  -22.2655  -10.3253   22.3421 C   0  0  0  0  0  0  0  0  0  0  0  0
  -22.2494   -8.9846   22.7264 C   0  0  0  0  0  0  0  0  0  0  0  0
  -28.8475  -23.7990   16.4900 C   0  0  0  0  0  0  0  0  0  0  0  0
  -28.3696  -21.5588   17.2232 C   0  0  0  0  0  0  0  0  0  0  0  0
  -26.8600  -27.0815   21.7382 C   0  0  0  0  0  0  0  0  0  0  0  0
  -23.5786   -8.4140   20.7912 C   0  0  0  0  0  0  0  0  0  0  0  0
  -26.6442  -13.9170   20.4939 C   0  0  0  0  0  0  0  0  0  0  0  0
  -29.0879  -14.0616   19.7763 C   0  0  0  0  0  0  0  0  0  0  0  0
  -18.7802  -31.2767   22.2132 C   0  0  0  0  0  0  0  0  0  0  0  0
  -24.9029  -27.6423   20.4285 C   0  0  0  0  0  0  0  0  0  0  0  0
  -20.1729  -31.1000   22.1050 C   0  0  0  0  0  0  0  0  0  0  0  0
  -25.4844  -26.9447   21.4969 C   0  0  0  0  0  0  0  0  0  0  0  0
  -24.1639  -12.6569   20.7017 C   0  0  0  0  0  0  0  0  0  0  0  0
  -27.6485  -27.8907   20.9205 C   0  0  0  0  0  0  0  0  0  0  0  0
  -22.9381  -10.7105   21.1823 C   0  0  0  0  0  0  0  0  0  0  0  0
  -22.9060   -8.0289   21.9509 C   0  0  0  0  0  0  0  0  0  0  0  0
  -23.5947   -9.7548   20.4069 C   0  0  0  0  0  0  0  0  0  0  0  0
  -27.9248  -14.5685   20.3863 C   0  0  0  0  0  0  0  0  0  0  0  0
  -29.4374  -24.0194   17.7242 C   0  0  0  0  0  0  0  0  0  0  0  0
  -28.9811  -21.8794   18.4245 C   0  0  0  0  0  0  0  0  0  0  0  0
  -30.0220  -15.0552   19.9393 C   0  0  0  0  0  0  0  0  0  0  0  0
  -29.3045  -12.8049   19.1209 C   0  0  0  0  0  0  0  0  0  0  0  0
  -30.0318  -25.3428   18.0441 C   0  0  0  0  0  0  0  0  0  0  0  0
  -22.4156  -28.1725   22.3353 C   0  0  0  0  0  0  0  0  0  0  0  0
  -22.4166  -24.9386   22.5886 C   0  0  0  0  0  0  0  0  0  0  0  0
  -24.1660  -22.0162   22.3741 C   0  0  0  0  0  0  0  0  0  0  0  0
  -29.6035  -20.9685   20.6893 C   0  0  0  0  0  0  0  0  0  0  0  0
  -17.9570  -30.4994   23.2096 C   0  0  0  0  0  0  0  0  0  0  0  0
  -23.4358  -27.4954   20.1315 C   0  0  0  0  0  0  0  0  0  0  0  0
  -24.6705  -26.0565   22.4008 C   0  0  0  0  0  0  0  0  0  0  0  0
  -18.6598  -29.2519   23.7391 C   0  0  0  0  0  0  0  0  0  0  0  0
  -31.1899  -18.6515   22.8783 C   0  0  0  0  0  0  0  0  0  0  0  0
  -20.0970  -29.5761   24.1342 C   0  0  0  0  0  0  0  0  0  0  0  0
  -30.6431  -17.2948   22.4281 C   0  0  0  0  0  0  0  0  0  0  0  0
  -30.1300  -19.7480   22.7888 C   0  0  0  0  0  0  0  0  0  0  0  0
  -28.9233  -18.5119   21.0324 C   0  0  0  0  0  0  0  0  0  0  0  0
  -20.9059  -30.0604   22.9248 C   0  0  1  0  0  0  0  0  0  0  0  0
  -22.6209  -27.0606   21.3457 C   0  0  1  0  0  0  0  0  0  0  0  0
  -29.9730  -17.3886   21.0433 C   0  0  2  0  0  0  0  0  0  0  0  0
  -23.9066  -19.5384   22.6748 C   0  0  0  0  0  0  0  0  0  0  0  0
  -22.4903  -25.3009   25.6173 C   0  0  0  0  0  0  0  0  0  0  0  0
  -23.1807  -22.9027   25.8175 C   0  0  0  0  0  0  0  0  0  0  0  0
  -20.9687  -23.4829   24.8209 C   0  0  0  0  0  0  0  0  0  0  0  0
  -24.8442  -21.4845   19.5428 C   0  0  0  0  0  0  0  0  0  0  0  0
  -31.0801  -26.8547   21.2812 C   0  0  0  0  0  0  0  0  0  0  0  0
  -31.1931  -26.6934   19.7713 C   0  0  0  0  0  0  0  0  0  0  0  0
  -29.6363  -26.8964   21.7667 C   0  0  0  0  0  0  0  0  0  1  0  0
  -23.0789  -23.9382   23.5048 C   0  0  1  0  0  0  0  0  0  0  0  0
  -23.8455  -20.6980   21.6928 C   0  0  2  0  0  0  0  0  0  0  0  0
  -22.4449  -23.9244   24.9245 C   0  0  0  0  0  0  0  0  0  0  0  0
  -28.1015  -15.7892   20.8987 N   0  0  0  0  0  0  0  0  0  0  0  0
  -29.5185  -23.0886   18.7013 N   0  0  0  0  0  0  0  0  0  0  0  0
  -29.3866  -16.0577   20.6112 N   0  0  0  0  0  0  0  0  0  0  0  0
  -23.2391  -25.9503   22.0732 N   0  0  0  0  0  0  0  0  0  0  0  0
  -29.5421  -19.7805   21.4479 N   0  0  0  0  0  0  0  0  0  0  0  0
  -31.3169  -15.1604   19.5722 N   0  0  0  0  0  0  0  0  0  0  0  0
  -28.2372  -11.8999   19.0418 N   0  0  0  0  0  0  0  0  0  0  0  0
  -29.0404  -20.8702   19.4173 N   0  0  0  0  0  0  0  0  0  0  0  0
  -30.6009  -25.4698   19.3064 N   0  0  0  0  0  0  0  0  0  0  0  0
  -21.2923  -28.9402   22.0939 N   0  0  0  0  0  0  0  0  0  0  0  0
  -23.0256  -22.6543   22.8141 N   0  0  0  0  0  0  0  0  0  0  0  0
  -24.8157  -20.4341   20.5929 N   0  3  0  0  0  0  0  0  0  0  0  0
  -30.4162  -12.4871   18.6346 O   0  0  0  0  0  0  0  0  0  0  0  0
  -29.9759  -26.2430   17.2104 O   0  0  0  0  0  0  0  0  0  0  0  0
  -23.2162  -28.3219   23.2509 O   0  0  0  0  0  0  0  0  0  0  0  0
  -21.2152  -24.8223   22.3337 O   0  0  0  0  0  0  0  0  0  0  0  0
  -25.3136  -22.4360   22.5062 O   0  0  0  0  0  0  0  0  0  0  0  0
  -30.1419  -21.9895   21.1248 O   0  0  0  0  0  0  0  0  0  0  0  0
  -22.9538  -12.0421   20.8026 O   0  0  0  0  0  0  0  0  0  0  0  0
  -28.9815  -28.0127   21.1652 O   0  0  0  0  0  0  0  0  0  1  0  0
  -22.8918   -6.7416   22.3209 F   0  0  0  0  0  0  0  0  0  0  0  0
  -24.2435  -10.1190   19.2924 F   0  0  0  0  0  0  0  0  0  0  0  0
  1  2  1  0  0  0  0
  1  6  2  0  0  0  0
  2  7  2  0  0  0  0
  3 14  2  0  0  0  0
  3 15  1  0  0  0  0
  4  9  2  0  0  0  0
  4 18  1  0  0  0  0
  5 10  1  0  0  0  0
  5 18  2  0  0  0  0
  6 20  1  0  0  0  0
  7 22  1  0  0  0  0
  8 11  2  0  0  0  0
  8 21  1  0  0  0  0
  9 24  1  0  0  0  0
 10 24  2  0  0  0  0
 11 25  1  0  0  0  0
 12 13  2  0  0  0  0
 12 26  1  0  0  0  0
 13 27  1  0  0  0  0
 14 30  1  0  0  0  0
 15 31  2  0  0  0  0
 16 23  1  0  0  0  0
 16 25  2  0  0  0  0
 17 27  2  0  0  0  0
 17 28  1  0  0  0  0
 18 29  1  0  0  0  0
 19 29  1  0  0  0  0
 19 32  2  0  0  0  0
 19 33  1  0  0  0  0
 20 22  2  0  0  0  0
 20 39  1  0  0  0  0
 21 23  2  0  0  0  0
 21 40  1  0  0  0  0
 22 48  1  0  0  0  0
 23 41  1  0  0  0  0
 24 80  1  0  0  0  0
 25 81  1  0  0  0  0
 26 28  2  0  0  0  0
 26 80  1  0  0  0  0
 27 82  1  0  0  0  0
 28 83  1  0  0  0  0
 29 62  2  0  0  0  0
 30 34  1  0  0  0  0
 30 63  2  0  0  0  0
 31 63  1  0  0  0  0
 31 69  1  0  0  0  0
 32 64  1  0  0  0  0
 32 67  1  0  0  0  0
 33 68  1  0  0  0  0
 33 74  2  0  0  0  0
 34 70  1  0  0  0  0
 34 75  2  0  0  0  0
 35 49  1  0  0  0  0
 35 71  1  0  0  0  0
 35 76  2  0  0  0  0
 36 59  1  0  0  0  0
 36 65  1  0  0  0  0
 36 77  2  0  0  0  0
 37 60  1  0  0  0  0
 37 72  1  0  0  0  0
 37 78  2  0  0  0  0
 38 66  1  0  0  0  0
 38 69  1  0  0  0  0
 38 79  2  0  0  0  0
 39 42  1  0  0  0  0
 40 49  1  0  0  0  0
 41 65  1  0  0  0  0
 42 44  1  0  0  0  0
 43 45  1  0  0  0  0
 43 46  1  0  0  0  0
 44 48  1  0  0  0  0
 45 50  1  0  0  0  0
 46 66  1  0  0  0  0
 47 50  1  0  0  0  0
 47 66  1  0  0  0  0
 48 71  1  0  0  0  0
 49 65  1  0  0  0  0
 50 64  1  0  0  0  0
 51 60  1  0  0  0  0
 52 61  1  0  0  0  0
 53 61  1  0  0  0  0
 54 61  1  0  0  0  0
 55 73  1  0  0  0  0
 56 57  1  0  0  0  0
 56 58  1  0  0  0  0
 57 70  1  0  0  0  0
 58 81  1  0  0  0  0
 59 61  1  0  0  0  0
 59 72  1  0  0  0  0
 60 73  1  0  0  0  0
 62 64  1  0  0  0  0
M  CHG  1  73   1
M  ISO  4  38 100  58 101  69 100  81 101
M  END
> <Batch ID>
0106

> <Smiles>
CNC(C)C(=O)NC(C(=O)N1Cc2cc([101O:1][101CH2:1]CCNC(=O)c3cccc([100NH:0][100C:0](=O)N4CCCC(n5nc(-c6ccc(Oc7ccc(F)cc7F)cc6)c(C(N)=O)c5N)C4)n3)ccc2CC1C(=O)NC1CCCc2ccccc21)C(C)(C)C

> <Shape>
0.281

> <Color>
0.093

> <Negative vol penalty>
0.000

$$$$

  -OEChem-04052301143D

 85 93  0     1  0  0  0  0  0999 V2000
  -22.9016  -21.9262   20.9843 C   0  0  0  0  0  0  0  0  0  0  0  0
  -23.8773  -21.0089   21.3612 C   0  0  0  0  0  0  0  0  0  0  0  0
  -23.0742   -9.8688   19.9416 C   0  0  0  0  0  0  0  0  0  0  0  0
  -23.8384   -9.8748   22.2336 C   0  0  0  0  0  0  0  0  0  0  0  0
  -21.9981  -22.4093   21.9299 C   0  0  0  0  0  0  0  0  0  0  0  0
  -23.9508  -20.5751   22.6844 C   0  0  0  0  0  0  0  0  0  0  0  0
  -25.5549  -15.0002   24.6472 C   0  0  0  0  0  0  0  0  0  0  0  0
  -33.1188  -16.2900   25.4510 C   0  0  0  0  0  0  0  0  0  0  0  0
  -33.5782  -17.1719   24.4729 C   0  0  0  0  0  0  0  0  0  0  0  0
  -22.3316   -8.7150   20.1923 C   0  0  0  0  0  0  0  0  0  0  0  0
  -23.0958   -8.7210   22.4843 C   0  0  0  0  0  0  0  0  0  0  0  0
  -26.7556  -14.4875   25.1364 C   0  0  0  0  0  0  0  0  0  0  0  0
  -19.8693   -7.9206   23.0924 C   0  0  0  0  0  0  0  0  0  0  0  0
  -19.1146   -7.8795   24.2647 C   0  0  0  0  0  0  0  0  0  0  0  0
  -25.9893  -14.8625   27.3929 C   0  0  0  0  0  0  0  0  0  0  0  0
  -31.1684  -15.8150   24.1067 C   0  0  0  0  0  0  0  0  0  0  0  0
  -20.3587   -5.9424   24.9976 C   0  0  0  0  0  0  0  0  0  0  0  0
  -23.8277  -10.4487   20.9623 C   0  0  0  0  0  0  0  0  0  0  0  0
  -24.1676  -12.9741   20.8432 C   0  0  0  0  0  0  0  0  0  0  0  0
  -22.0544  -21.9738   23.2633 C   0  0  0  0  0  0  0  0  0  0  0  0
  -24.5652  -15.4587   25.5285 C   0  0  0  0  0  0  0  0  0  0  0  0
  -23.0480  -21.0539   23.6491 C   0  0  0  0  0  0  0  0  0  0  0  0
  -24.7759  -15.3781   26.9124 C   0  0  0  0  0  0  0  0  0  0  0  0
  -31.6278  -16.6969   23.1285 C   0  0  0  0  0  0  0  0  0  0  0  0
  -31.9139  -15.6115   25.2679 C   0  0  0  0  0  0  0  0  0  0  0  0
  -32.8327  -17.3754   23.3117 C   0  0  0  0  0  0  0  0  0  0  0  0
  -22.3423   -8.1411   21.4636 C   0  0  0  0  0  0  0  0  0  0  0  0
  -26.9741  -14.4213   26.5094 C   0  0  0  0  0  0  0  0  0  0  0  0
  -20.8687   -6.9726   22.8726 C   0  0  0  0  0  0  0  0  0  0  0  0
  -19.3593   -6.8904   25.2173 C   0  0  0  0  0  0  0  0  0  0  0  0
  -21.1134   -5.9835   23.8252 C   0  0  0  0  0  0  0  0  0  0  0  0
  -24.5954  -11.6402   20.7038 C   0  0  0  0  0  0  0  0  0  0  0  0
  -25.2585  -13.7246   20.4783 C   0  0  0  0  0  0  0  0  0  0  0  0
  -30.6956  -15.2418   27.1663 C   0  0  0  0  0  0  0  0  0  0  0  0
  -22.8975  -13.4888   21.2649 C   0  0  0  0  0  0  0  0  0  0  0  0
  -23.1625  -18.2603   26.0648 C   0  0  0  0  0  0  0  0  0  0  0  0
  -21.3106  -16.5085   28.0708 C   0  0  0  0  0  0  0  0  0  0  0  0
  -20.9700  -13.7158   30.0026 C   0  0  0  0  0  0  0  0  0  0  0  0
  -30.7419  -14.7472   20.6569 C   0  0  0  0  0  0  0  0  0  0  0  0
  -21.0862  -22.5602   24.2600 C   0  0  0  0  0  0  0  0  0  0  0  0
  -23.2647  -15.9842   24.9853 C   0  0  0  0  0  0  0  0  0  0  0  0
  -23.7370  -15.8385   27.9009 C   0  0  0  0  0  0  0  0  0  0  0  0
  -20.9951  -21.7659   25.5604 C   0  0  0  0  0  0  0  0  0  0  0  0
  -29.6014  -12.3634   18.2708 C   0  0  0  0  0  0  0  0  0  0  0  0
  -22.3893  -21.4200   26.0735 C   0  0  0  0  0  0  0  0  0  0  0  0
  -28.1650  -12.0685   18.7062 C   0  0  0  0  0  0  0  0  0  0  0  0
  -30.5206  -12.5841   19.4700 C   0  0  0  0  0  0  0  0  0  0  0  0
  -28.6211  -13.3130   20.8607 C   0  0  0  0  0  0  0  0  0  0  0  0
  -23.1442  -20.5406   25.0694 C   0  0  1  0  0  0  0  0  0  0  0  0
  -22.5345  -16.8989   25.9639 C   0  0  1  0  0  0  0  0  0  0  0  0
  -27.6448  -13.1385   19.6848 C   0  0  2  0  0  0  0  0  0  0  0  0
  -28.9239  -18.2537   20.8084 C   0  0  0  0  0  0  0  0  0  0  0  0
  -19.3586  -12.5781   31.5538 C   0  0  0  0  0  0  0  0  0  0  0  0
  -22.0170  -18.5065   30.2660 C   0  0  0  0  0  0  0  0  0  0  0  0
  -21.1963  -16.8430   31.9476 C   0  0  0  0  0  0  0  0  0  0  0  0
  -19.6250  -17.7767   30.2500 C   0  0  0  0  0  0  0  0  0  0  0  0
  -20.7937  -11.3317   28.2578 C   0  0  0  0  0  0  0  0  0  0  0  0
  -30.1277  -14.3864   28.2671 C   0  0  0  0  0  0  0  0  0  0  0  0
  -29.7909  -18.0512   22.0450 C   0  0  0  0  0  0  0  0  0  0  0  0
  -28.6096  -14.4391   28.2359 C   0  0  0  0  0  0  0  0  0  1  0  0
  -30.8087  -16.8970   21.8950 C   0  0  2  0  0  0  0  0  0  0  0  0
  -21.3871  -16.1144   29.5261 C   0  0  1  0  0  0  0  0  0  0  0  0
  -19.8459  -12.7022   30.1186 C   0  0  2  0  0  0  0  0  0  0  0  0
  -21.0769  -17.3032   30.4790 C   0  0  0  0  0  0  0  0  0  0  0  0
  -25.8596  -11.5455   20.2831 N   0  0  0  0  0  0  0  0  0  0  0  0
  -31.4511  -14.7239   26.2537 N   0  0  0  0  0  0  0  0  0  0  0  0
  -26.2354  -12.8294   20.1548 N   0  0  0  0  0  0  0  0  0  0  0  0
  -22.4845  -16.3502   27.3206 N   0  0  0  0  0  0  0  0  0  0  0  0
  -29.9711  -13.6117   20.3577 N   0  0  0  0  0  0  0  0  0  0  0  0
  -33.3130  -18.2726   22.3325 N   0  0  0  0  0  0  0  0  0  0  0  0
  -25.4679  -15.0562   20.4057 N   0  0  0  0  0  0  0  0  0  0  0  0
  -21.8869  -12.5788   21.6035 N   0  0  0  0  0  0  0  0  0  0  0  0
  -22.6790  -19.1723   25.1462 N   0  0  0  0  0  0  0  0  0  0  0  0
  -20.4951  -14.9712   29.6869 N   0  0  0  0  0  0  0  0  0  0  0  0
  -30.1437  -15.6751   21.5006 N   0  0  0  0  0  0  0  0  0  0  0  0
  -20.3084  -11.3612   29.6616 N   0  3  0  0  0  0  0  0  0  0  0  0
  -22.6606  -14.7192   21.3234 O   0  0  0  0  0  0  0  0  0  0  0  0
  -24.0210  -18.4682   26.9141 O   0  0  0  0  0  0  0  0  0  0  0  0
  -20.2464  -16.9341   27.6147 O   0  0  0  0  0  0  0  0  0  0  0  0
  -22.1509  -13.4240   30.1784 O   0  0  0  0  0  0  0  0  0  0  0  0
  -31.8769  -14.9237   20.2012 O   0  0  0  0  0  0  0  0  0  0  0  0
  -21.6176   -7.0153   21.7086 O   0  0  0  0  0  0  0  0  0  0  0  0
  -28.1454  -13.9219   26.9895 O   0  0  0  0  0  0  0  0  0  1  0  0
  -18.6356   -6.8519   26.3438 F   0  0  0  0  0  0  0  0  0  0  0  0
  -22.0729   -5.0708   23.6202 F   0  0  0  0  0  0  0  0  0  0  0  0
  1  2  1  0  0  0  0
  1  5  2  0  0  0  0
  2  6  2  0  0  0  0
  3 10  2  0  0  0  0
  3 18  1  0  0  0  0
  4 11  1  0  0  0  0
  4 18  2  0  0  0  0
  5 20  1  0  0  0  0
  6 22  1  0  0  0  0
  7 12  2  0  0  0  0
  7 21  1  0  0  0  0
  8  9  2  0  0  0  0
  8 25  1  0  0  0  0
  9 26  1  0  0  0  0
 10 27  1  0  0  0  0
 11 27  2  0  0  0  0
 12 28  1  0  0  0  0
 13 14  2  0  0  0  0
 13 29  1  0  0  0  0
 14 30  1  0  0  0  0
 15 23  1  0  0  0  0
 15 28  2  0  0  0  0
 16 24  1  0  0  0  0
 16 25  2  0  0  0  0
 17 30  2  0  0  0  0
 17 31  1  0  0  0  0
 18 32  1  0  0  0  0
 19 32  1  0  0  0  0
 19 33  2  0  0  0  0
 19 35  1  0  0  0  0
 20 22  2  0  0  0  0
 20 40  1  0  0  0  0
 21 23  2  0  0  0  0
 21 41  1  0  0  0  0
 22 49  1  0  0  0  0
 23 42  1  0  0  0  0
 24 26  2  0  0  0  0
 24 61  1  0  0  0  0
 25 66  1  0  0  0  0
 26 70  1  0  0  0  0
 27 82  1  0  0  0  0
 28 83  1  0  0  0  0
 29 31  2  0  0  0  0
 29 82  1  0  0  0  0
 30 84  1  0  0  0  0
 31 85  1  0  0  0  0
 32 65  2  0  0  0  0
 33 67  1  0  0  0  0
 33 71  1  0  0  0  0
 34 58  1  0  0  0  0
 34 66  2  0  0  0  0
 35 72  1  0  0  0  0
 35 77  2  0  0  0  0
 36 50  1  0  0  0  0
 36 73  1  0  0  0  0
 36 78  2  0  0  0  0
 37 62  1  0  0  0  0
 37 68  1  0  0  0  0
 37 79  2  0  0  0  0
 38 63  1  0  0  0  0
 38 74  1  0  0  0  0
 38 80  2  0  0  0  0
 39 69  1  0  0  0  0
 39 75  1  0  0  0  0
 39 81  2  0  0  0  0
 40 43  1  0  0  0  0
 41 50  1  0  0  0  0
 42 68  1  0  0  0  0
 43 45  1  0  0  0  0
 44 46  1  0  0  0  0
 44 47  1  0  0  0  0
 45 49  1  0  0  0  0
 46 51  1  0  0  0  0
 47 69  1  0  0  0  0
 48 51  1  0  0  0  0
 48 69  1  0  0  0  0
 49 73  1  0  0  0  0
 50 68  1  0  0  0  0
 51 67  1  0  0  0  0
 52 59  1  0  0  0  0
 53 63  1  0  0  0  0
 54 64  1  0  0  0  0
 55 64  1  0  0  0  0
 56 64  1  0  0  0  0
 57 76  1  0  0  0  0
 58 60  1  0  0  0  0
 59 61  1  0  0  0  0
 60 83  1  0  0  0  0
 61 75  1  0  0  0  0
 62 64  1  0  0  0  0
 62 74  1  0  0  0  0
 63 76  1  0  0  0  0
 65 67  1  0  0  0  0
M  CHG  1  76   1
M  ISO  4  39 100  60 101  75 100  83 101
M  END
> <Batch ID>
0106

> <Smiles>
CCC([100NH:0][100C:0](=O)N1CCCC(n2nc(-c3ccc(Oc4ccc(F)cc4F)cc3)c(C(N)=O)c2N)C1)c1cc(NC=C[101CH2:1][101O:1]c2ccc3c(c2)CN(C(=O)C(NC(=O)C(C)NC)C(C)(C)C)C(C(=O)NC2CCCc4ccccc42)C3)ccc1N

> <Shape>
0.175

> <Color>
0.184

> <Negative vol penalty>
0.000

$$$$

  -OEChem-04052301143D

 85 93  0     1  0  0  0  0  0999 V2000
  -32.4868  -11.5417   23.3615 C   0  0  0  0  0  0  0  0  0  0  0  0
  -32.7759  -12.4581   24.3663 C   0  0  0  0  0  0  0  0  0  0  0  0
  -23.0731   -9.8698   19.9423 C   0  0  0  0  0  0  0  0  0  0  0  0
  -23.8314   -9.8781   22.2362 C   0  0  0  0  0  0  0  0  0  0  0  0
  -31.2108  -10.9894   23.2732 C   0  0  0  0  0  0  0  0  0  0  0  0
  -31.7926  -12.8135   25.2902 C   0  0  0  0  0  0  0  0  0  0  0  0
  -33.1862  -15.6581   29.0545 C   0  0  0  0  0  0  0  0  0  0  0  0
  -22.3280   -8.7176   20.1927 C   0  0  0  0  0  0  0  0  0  0  0  0
  -23.0863   -8.7259   22.4867 C   0  0  0  0  0  0  0  0  0  0  0  0
  -33.5024  -17.0075   28.9028 C   0  0  0  0  0  0  0  0  0  0  0  0
  -19.3781   -7.9249   21.6427 C   0  0  0  0  0  0  0  0  0  0  0  0
  -18.0715   -7.8794   21.1565 C   0  0  0  0  0  0  0  0  0  0  0  0
  -31.3661  -17.6083   29.8486 C   0  0  0  0  0  0  0  0  0  0  0  0
  -30.5102  -18.3412   24.0468 C   0  0  0  0  0  0  0  0  0  0  0  0
  -32.0664  -16.5879   22.5346 C   0  0  0  0  0  0  0  0  0  0  0  0
  -18.6304   -5.9346   19.8364 C   0  0  0  0  0  0  0  0  0  0  0  0
  -23.8249  -10.4501   20.9640 C   0  0  0  0  0  0  0  0  0  0  0  0
  -24.1690  -12.9748   20.8420 C   0  0  0  0  0  0  0  0  0  0  0  0
  -30.2083  -11.3482   24.1894 C   0  0  0  0  0  0  0  0  0  0  0  0
  -31.9510  -15.2730   29.5952 C   0  0  0  0  0  0  0  0  0  0  0  0
  -30.5055  -12.2490   25.2323 C   0  0  0  0  0  0  0  0  0  0  0  0
  -31.0377  -16.2534   30.0084 C   0  0  0  0  0  0  0  0  0  0  0  0
  -29.9007  -17.4654   23.1485 C   0  0  0  0  0  0  0  0  0  0  0  0
  -32.6759  -17.4638   23.4329 C   0  0  0  0  0  0  0  0  0  0  0  0
  -31.8978  -18.3404   24.1890 C   0  0  0  0  0  0  0  0  0  0  0  0
  -30.6788  -16.5888   22.3923 C   0  0  0  0  0  0  0  0  0  0  0  0
  -22.3346   -8.1456   21.4649 C   0  0  0  0  0  0  0  0  0  0  0  0
  -32.5912  -17.9827   29.2972 C   0  0  0  0  0  0  0  0  0  0  0  0
  -20.3109   -6.9753   21.2256 C   0  0  0  0  0  0  0  0  0  0  0  0
  -17.6976   -6.8843   20.2534 C   0  0  0  0  0  0  0  0  0  0  0  0
  -19.9370   -5.9802   20.3225 C   0  0  0  0  0  0  0  0  0  0  0  0
  -24.5952  -11.6401   20.7057 C   0  0  0  0  0  0  0  0  0  0  0  0
  -25.2621  -13.7230   20.4788 C   0  0  0  0  0  0  0  0  0  0  0  0
  -22.8987  -13.4921   21.2596 C   0  0  0  0  0  0  0  0  0  0  0  0
  -29.4533  -13.6205   28.5299 C   0  0  0  0  0  0  0  0  0  0  0  0
  -28.4246  -13.9505   31.5886 C   0  0  0  0  0  0  0  0  0  0  0  0
  -31.8540  -20.1646   25.9249 C   0  0  0  0  0  0  0  0  0  0  0  0
  -28.5407  -15.7101   34.5104 C   0  0  0  0  0  0  0  0  0  0  0  0
  -30.7291  -14.7639   20.6564 C   0  0  0  0  0  0  0  0  0  0  0  0
  -28.8467  -10.7139   24.0522 C   0  0  0  0  0  0  0  0  0  0  0  0
  -31.6359  -13.8135   29.7769 C   0  0  0  0  0  0  0  0  0  0  0  0
  -29.7064  -15.8925   30.6133 C   0  0  0  0  0  0  0  0  0  0  0  0
  -27.7566  -11.4798   24.7948 C   0  0  0  0  0  0  0  0  0  0  0  0
  -29.6142  -12.3490   18.2895 C   0  0  0  0  0  0  0  0  0  0  0  0
  -28.2038  -11.7698   26.2197 C   0  0  0  0  0  0  0  0  0  0  0  0
  -28.1740  -12.0591   18.7183 C   0  0  0  0  0  0  0  0  0  0  0  0
  -30.5286  -12.5780   19.4915 C   0  0  0  0  0  0  0  0  0  0  0  0
  -28.6214  -13.3054   20.8708 C   0  0  0  0  0  0  0  0  0  0  0  0
  -29.4431  -12.6736   26.2299 C   0  0  1  0  0  0  0  0  0  0  0  0
  -30.1391  -13.5316   29.8639 C   0  0  1  0  0  0  0  0  0  0  0  0
  -27.6492  -13.1320   19.6925 C   0  0  2  0  0  0  0  0  0  0  0  0
  -27.5605  -15.7603   36.8200 C   0  0  0  0  0  0  0  0  0  0  0  0
  -25.8316  -15.0968   30.4606 C   0  0  0  0  0  0  0  0  0  0  0  0
  -25.3137  -15.9862   32.7429 C   0  0  0  0  0  0  0  0  0  0  0  0
  -25.5287  -13.5270   32.3838 C   0  0  0  0  0  0  0  0  0  0  0  0
  -31.1940  -15.3462   35.7699 C   0  0  0  0  0  0  0  0  0  0  0  0
  -32.8704  -20.9305   26.7604 C   0  0  0  0  0  0  0  0  0  0  0  0
  -32.3076  -21.3784   28.1048 C   0  0  0  0  0  0  0  0  0  0  0  0
  -31.8106  -20.1986   28.9275 C   0  0  0  0  0  0  0  0  0  1  0  0
  -27.6023  -14.9726   32.3356 C   0  0  1  0  0  0  0  0  0  0  0  0
  -28.7043  -15.2606   35.9511 C   0  0  2  0  0  0  0  0  0  0  0  0
  -26.0933  -14.9027   31.9676 C   0  0  0  0  0  0  0  0  0  0  0  0
  -25.8602  -11.5427   20.2884 N   0  0  0  0  0  0  0  0  0  0  0  0
  -26.2384  -12.8258   20.1592 N   0  0  0  0  0  0  0  0  0  0  0  0
  -29.4421  -14.4520   30.7645 N   0  0  0  0  0  0  0  0  0  0  0  0
  -29.9700  -13.6101   20.3676 N   0  0  0  0  0  0  0  0  0  0  0  0
  -28.4936  -17.4824   23.0211 N   0  0  0  0  0  0  0  0  0  0  0  0
  -34.0830  -17.4464   23.5605 N   0  0  0  0  0  0  0  0  0  0  0  0
  -25.4737  -15.0542   20.4048 N   0  0  0  0  0  0  0  0  0  0  0  0
  -21.8857  -12.5842   21.5969 N   0  0  0  0  0  0  0  0  0  0  0  0
  -32.4939  -19.2379   25.1066 N   0  0  0  0  0  0  0  0  0  0  0  0
  -30.0820  -15.6902   21.4735 N   0  0  0  0  0  0  0  0  0  0  0  0
  -29.9578  -12.7539   27.5792 N   0  0  0  0  0  0  0  0  0  0  0  0
  -27.8821  -14.7652   33.7523 N   0  0  0  0  0  0  0  0  0  0  0  0
  -29.9831  -15.7795   36.5135 N   0  3  0  0  0  0  0  0  0  0  0  0
  -22.6635  -14.7230   21.3157 O   0  0  0  0  0  0  0  0  0  0  0  0
  -28.5336  -14.4153   28.3752 O   0  0  0  0  0  0  0  0  0  0  0  0
  -28.1781  -12.7509   31.7365 O   0  0  0  0  0  0  0  0  0  0  0  0
  -30.6493  -20.3803   26.0061 O   0  0  0  0  0  0  0  0  0  0  0  0
  -28.9524  -16.7928   34.0995 O   0  0  0  0  0  0  0  0  0  0  0  0
  -31.8587  -14.9312   20.1894 O   0  0  0  0  0  0  0  0  0  0  0  0
  -21.6075   -7.0213   21.7097 O   0  0  0  0  0  0  0  0  0  0  0  0
  -32.8971  -19.3005   29.1496 O   0  0  0  0  0  0  0  0  0  1  0  0
  -16.4424   -6.8398   19.7879 F   0  0  0  0  0  0  0  0  0  0  0  0
  -20.8284   -5.0645   19.9191 F   0  0  0  0  0  0  0  0  0  0  0  0
  1  2  1  0  0  0  0
  1  5  2  0  0  0  0
  2  6  2  0  0  0  0
  3  8  2  0  0  0  0
  3 17  1  0  0  0  0
  4  9  1  0  0  0  0
  4 17  2  0  0  0  0
  5 19  1  0  0  0  0
  6 21  1  0  0  0  0
  7 10  2  0  0  0  0
  7 20  1  0  0  0  0
  8 27  1  0  0  0  0
  9 27  2  0  0  0  0
 10 28  1  0  0  0  0
 11 12  2  0  0  0  0
 11 29  1  0  0  0  0
 12 30  1  0  0  0  0
 13 22  1  0  0  0  0
 13 28  2  0  0  0  0
 14 23  2  0  0  0  0
 14 25  1  0  0  0  0
 15 24  1  0  0  0  0
 15 26  2  0  0  0  0
 16 30  2  0  0  0  0
 16 31  1  0  0  0  0
 17 32  1  0  0  0  0
 18 32  1  0  0  0  0
 18 33  2  0  0  0  0
 18 34  1  0  0  0  0
 19 21  2  0  0  0  0
 19 40  1  0  0  0  0
 20 22  2  0  0  0  0
 20 41  1  0  0  0  0
 21 49  1  0  0  0  0
 22 42  1  0  0  0  0
 23 26  1  0  0  0  0
 23 67  1  0  0  0  0
 24 25  2  0  0  0  0
 24 68  1  0  0  0  0
 25 71  1  0  0  0  0
 26 72  1  0  0  0  0
 27 82  1  0  0  0  0
 28 83  1  0  0  0  0
 29 31  2  0  0  0  0
 29 82  1  0  0  0  0
 30 84  1  0  0  0  0
 31 85  1  0  0  0  0
 32 63  2  0  0  0  0
 33 64  1  0  0  0  0
 33 69  1  0  0  0  0
 34 70  1  0  0  0  0
 34 76  2  0  0  0  0
 35 50  1  0  0  0  0
 35 73  1  0  0  0  0
 35 77  2  0  0  0  0
 36 60  1  0  0  0  0
 36 65  1  0  0  0  0
 36 78  2  0  0  0  0
 37 57  1  0  0  0  0
 37 71  1  0  0  0  0
 37 79  2  0  0  0  0
 38 61  1  0  0  0  0
 38 74  1  0  0  0  0
 38 80  2  0  0  0  0
 39 66  1  0  0  0  0
 39 72  1  0  0  0  0
 39 81  2  0  0  0  0
 40 43  1  0  0  0  0
 41 50  1  0  0  0  0
 42 65  1  0  0  0  0
 43 45  1  0  0  0  0
 44 46  1  0  0  0  0
 44 47  1  0  0  0  0
 45 49  1  0  0  0  0
 46 51  1  0  0  0  0
 47 66  1  0  0  0  0
 48 51  1  0  0  0  0
 48 66  1  0  0  0  0
 49 73  1  0  0  0  0
 50 65  1  0  0  0  0
 51 64  1  0  0  0  0
 52 61  1  0  0  0  0
 53 62  1  0  0  0  0
 54 62  1  0  0  0  0
 55 62  1  0  0  0  0
 56 75  1  0  0  0  0
 57 58  1  0  0  0  0
 58 59  1  0  0  0  0
 59 83  1  0  0  0  0
 60 62  1  0  0  0  0
 60 74  1  0  0  0  0
 61 75  1  0  0  0  0
 63 64  1  0  0  0  0
M  CHG  1  75   1
M  ISO  4  39 100  59 101  72 100  83 101
M  END
> <Batch ID>
0106

> <Smiles>
CNC(C)C(=O)NC(C(=O)N1Cc2cc([101O:1][101CH2:1]CCC(=O)Nc3cc(N)c([100NH:0][100C:0](=O)N4CCCC(n5nc(-c6ccc(Oc7ccc(F)cc7F)cc6)c(C(N)=O)c5N)C4)cc3N)ccc2CC1C(=O)NC1CCCc2ccccc21)C(C)(C)C

> <Shape>
0.147

> <Color>
0.176

> <Negative vol penalty>
0.000

$$$$

  -OEChem-04052301143D

 86 95  0     1  0  0  0  0  0999 V2000
  -31.4046  -32.9681   23.6223 C   0  0  0  0  0  0  0  0  0  0  0  0
  -31.5934  -31.7135   23.0516 C   0  0  0  0  0  0  0  0  0  0  0  0
  -22.9931  -10.3283   22.2285 C   0  0  0  0  0  0  0  0  0  0  0  0
  -23.2181   -9.9286   19.8564 C   0  0  0  0  0  0  0  0  0  0  0  0
  -30.1896  -33.2801   24.2310 C   0  0  0  0  0  0  0  0  0  0  0  0
  -30.5676  -30.7697   23.0902 C   0  0  0  0  0  0  0  0  0  0  0  0
  -29.2321  -26.6065   18.8019 C   0  0  0  0  0  0  0  0  0  0  0  0
  -22.7471   -8.9707   22.4339 C   0  0  0  0  0  0  0  0  0  0  0  0
  -22.9721   -8.5710   20.0618 C   0  0  0  0  0  0  0  0  0  0  0  0
  -29.5399  -25.2520   18.6814 C   0  0  0  0  0  0  0  0  0  0  0  0
  -24.5466   -6.1148   22.6294 C   0  0  0  0  0  0  0  0  0  0  0  0
  -25.2083   -5.4887   23.6856 C   0  0  0  0  0  0  0  0  0  0  0  0
  -27.3989  -24.6866   19.6384 C   0  0  0  0  0  0  0  0  0  0  0  0
  -25.0106  -18.8504   16.1335 C   0  0  0  0  0  0  0  0  0  0  0  0
  -25.0584  -21.0551   15.1735 C   0  0  0  0  0  0  0  0  0  0  0  0
  -23.0816   -4.9247   24.6838 C   0  0  0  0  0  0  0  0  0  0  0  0
  -23.2285  -10.8072   20.9397 C   0  0  0  0  0  0  0  0  0  0  0  0
  -24.7314  -12.8584   20.7358 C   0  0  0  0  0  0  0  0  0  0  0  0
  -29.1450  -32.3430   24.2686 C   0  0  0  0  0  0  0  0  0  0  0  0
  -28.0078  -27.0120   19.3525 C   0  0  0  0  0  0  0  0  0  0  0  0
  -29.3380  -31.0690   23.7011 C   0  0  0  0  0  0  0  0  0  0  0  0
  -27.0770  -26.0468   19.7624 C   0  0  0  0  0  0  0  0  0  0  0  0
  -25.6977  -19.8540   15.4599 C   0  0  0  0  0  0  0  0  0  0  0  0
  -22.7366   -8.0921   21.3506 C   0  0  0  0  0  0  0  0  0  0  0  0
  -28.6244  -24.2919   19.1024 C   0  0  0  0  0  0  0  0  0  0  0  0
  -23.1523   -6.1460   22.6004 C   0  0  0  0  0  0  0  0  0  0  0  0
  -24.4759   -4.8936   24.7128 C   0  0  0  0  0  0  0  0  0  0  0  0
  -22.4199   -5.5509   23.6275 C   0  0  0  0  0  0  0  0  0  0  0  0
  -23.4822  -12.2095   20.7268 C   0  0  0  0  0  0  0  0  0  0  0  0
  -23.6960  -19.0955   16.4962 C   0  0  0  0  0  0  0  0  0  0  0  0
  -23.7416  -21.2014   15.5790 C   0  0  0  0  0  0  0  0  0  0  0  0
  -24.4358  -14.1760   20.4849 C   0  0  0  0  0  0  0  0  0  0  0  0
  -26.0420  -12.3184   20.9515 C   0  0  0  0  0  0  0  0  0  0  0  0
  -27.1451  -28.6991   21.9045 C   0  0  0  0  0  0  0  0  0  0  0  0
  -24.1818  -28.3939   20.6209 C   0  0  0  0  0  0  0  0  0  0  0  0
  -22.0693  -26.6414   18.5928 C   0  0  0  0  0  0  0  0  0  0  0  0
  -21.6871  -18.0951   17.6408 C   0  0  0  0  0  0  0  0  0  0  0  0
  -27.8663  -32.7095   24.9793 C   0  0  0  0  0  0  0  0  0  0  0  0
  -27.6800  -28.4766   19.4509 C   0  0  0  0  0  0  0  0  0  0  0  0
  -25.7404  -26.4298   20.3414 C   0  0  0  0  0  0  0  0  0  0  0  0
  -26.6984  -31.7841   24.6477 C   0  0  0  0  0  0  0  0  0  0  0  0
  -19.9895  -16.5932   20.3867 C   0  0  0  0  0  0  0  0  0  0  0  0
  -27.1359  -30.3247   24.7222 C   0  0  0  0  0  0  0  0  0  0  0  0
  -20.8496  -15.3722   20.7207 C   0  0  0  0  0  0  0  0  0  0  0  0
  -30.2989  -20.6738   16.3327 C   0  0  0  0  0  0  0  0  0  0  0  0
  -19.9304  -16.8508   18.8820 C   0  0  0  0  0  0  0  0  0  0  0  0
  -22.0961  -15.7243   18.5506 C   0  0  0  0  0  0  0  0  0  0  0  0
  -29.5328  -19.4735   15.8009 C   0  0  0  0  0  0  0  0  0  0  0  0
  -28.0375  -21.0470   16.9243 C   0  0  0  0  0  0  0  0  0  0  0  0
  -28.2405  -30.0271   23.7010 C   0  0  1  0  0  0  0  0  0  0  0  0
  -26.6159  -28.7815   20.5007 C   0  0  1  0  0  0  0  0  0  0  0  0
  -29.4426  -21.1761   17.4868 C   0  0  2  0  0  0  0  0  0  0  0  0
  -22.2386  -15.4633   20.0589 C   0  0  2  0  0  0  0  0  0  0  0  0
  -19.6979  -26.6131   17.7726 C   0  0  0  0  0  0  0  0  0  0  0  0
  -23.2669  -27.2839   23.3118 C   0  0  0  0  0  0  0  0  0  0  0  0
  -21.2150  -26.4093   22.1747 C   0  0  0  0  0  0  0  0  0  0  0  0
  -21.6561  -28.8638   22.2330 C   0  0  0  0  0  0  0  0  0  0  0  0
  -22.9172  -26.9687   15.7762 C   0  0  0  0  0  0  0  0  0  0  0  0
  -21.7401  -22.4748   15.7474 C   0  0  0  0  0  0  0  0  0  0  0  0
  -27.1232  -19.6420   15.0426 C   0  0  0  0  0  0  0  0  0  0  0  0
  -29.7816  -22.5886   17.9125 C   0  0  0  0  0  0  0  0  0  1  0  0
  -23.0636  -27.3867   20.7400 C   0  0  1  0  0  0  0  0  0  0  0  0
  -21.1154  -27.0926   17.5015 C   0  0  2  0  0  0  0  0  0  0  0  0
  -22.3263  -27.4784   22.1058 C   0  0  0  0  0  0  0  0  0  0  0  0
  -22.4683  -13.0460   20.4892 N   0  0  0  0  0  0  0  0  0  0  0  0
  -23.0414  -20.2493   16.2354 N   0  0  0  0  0  0  0  0  0  0  0  0
  -23.0802  -14.2340   20.3466 N   0  0  0  0  0  0  0  0  0  0  0  0
  -25.4689  -27.8745   20.4228 N   0  0  0  0  0  0  0  0  0  0  0  0
  -21.2825  -16.9292   18.3248 N   0  0  0  0  0  0  0  0  0  0  0  0
  -25.2057  -15.2790   20.3713 N   0  0  0  0  0  0  0  0  0  0  0  0
  -26.1664  -10.9439   21.1956 N   0  0  0  0  0  0  0  0  0  0  0  0
  -23.0043  -18.0676   17.1838 N   0  0  0  0  0  0  0  0  0  0  0  0
  -27.6780  -29.8840   22.3753 N   0  0  0  0  0  0  0  0  0  0  0  0
  -22.2023  -27.5940   19.5808 N   0  0  0  0  0  0  0  0  0  0  0  0
  -28.0862  -19.7287   16.1826 N   0  3  1  0  0  0  0  0  0  0  0  0
  -21.5485  -26.5560   16.1804 N   0  3  0  0  0  0  0  0  0  0  0  0
  -27.0706  -13.0363   20.9447 O   0  0  0  0  0  0  0  0  0  0  0  0
  -27.0739  -27.6394   22.5158 O   0  0  0  0  0  0  0  0  0  0  0  0
  -23.9217  -29.5976   20.6935 O   0  0  0  0  0  0  0  0  0  0  0  0
  -22.6367  -25.5514   18.5727 O   0  0  0  0  0  0  0  0  0  0  0  0
  -20.9302  -19.0586   17.4966 O   0  0  0  0  0  0  0  0  0  0  0  0
  -22.4968   -6.7674   21.5507 O   0  0  0  0  0  0  0  0  0  0  0  0
  -28.9226  -22.9692   18.9865 O   0  0  0  0  0  0  0  0  0  1  0  0
  -23.0900  -22.3765   15.3096 O   0  0  0  0  0  0  0  0  0  0  0  0
  -25.1115   -4.2910   25.7262 F   0  0  0  0  0  0  0  0  0  0  0  0
  -21.0802   -5.5766   23.6045 F   0  0  0  0  0  0  0  0  0  0  0  0
  1  2  1  0  0  0  0
  1  5  2  0  0  0  0
  2  6  2  0  0  0  0
  3  8  2  0  0  0  0
  3 17  1  0  0  0  0
  4  9  1  0  0  0  0
  4 17  2  0  0  0  0
  5 19  1  0  0  0  0
  6 21  1  0  0  0  0
  7 10  2  0  0  0  0
  7 20  1  0  0  0  0
  8 24  1  0  0  0  0
  9 24  2  0  0  0  0
 10 25  1  0  0  0  0
 11 12  2  0  0  0  0
 11 26  1  0  0  0  0
 12 27  1  0  0  0  0
 13 22  1  0  0  0  0
 13 25  2  0  0  0  0
 14 23  1  0  0  0  0
 14 30  2  0  0  0  0
 15 23  2  0  0  0  0
 15 31  1  0  0  0  0
 16 27  2  0  0  0  0
 16 28  1  0  0  0  0
 17 29  1  0  0  0  0
 18 29  1  0  0  0  0
 18 32  2  0  0  0  0
 18 33  1  0  0  0  0
 19 21  2  0  0  0  0
 19 38  1  0  0  0  0
 20 22  2  0  0  0  0
 20 39  1  0  0  0  0
 21 50  1  0  0  0  0
 22 40  1  0  0  0  0
 23 60  1  0  0  0  0
 24 82  1  0  0  0  0
 25 83  1  0  0  0  0
 26 28  2  0  0  0  0
 26 82  1  0  0  0  0
 27 85  1  0  0  0  0
 28 86  1  0  0  0  0
 29 65  2  0  0  0  0
 30 66  1  0  0  0  0
 30 72  1  0  0  0  0
 31 66  2  0  0  0  0
 31 84  1  0  0  0  0
 32 67  1  0  0  0  0
 32 70  1  0  0  0  0
 33 71  1  0  0  0  0
 33 77  2  0  0  0  0
 34 51  1  0  0  0  0
 34 73  1  0  0  0  0
 34 78  2  0  0  0  0
 35 62  1  0  0  0  0
 35 68  1  0  0  0  0
 35 79  2  0  0  0  0
 36 63  1  0  0  0  0
 36 74  1  0  0  0  0
 36 80  2  0  0  0  0
 37 69  1  0  0  0  0
 37 72  1  0  0  0  0
 37 81  2  0  0  0  0
 38 41  1  0  0  0  0
 39 51  1  0  0  0  0
 40 68  1  0  0  0  0
 41 43  1  0  0  0  0
 42 44  1  0  0  0  0
 42 46  1  0  0  0  0
 43 50  1  0  0  0  0
 44 53  1  0  0  0  0
 45 48  1  0  0  0  0
 45 52  1  0  0  0  0
 46 69  1  0  0  0  0
 47 53  1  0  0  0  0
 47 69  1  0  0  0  0
 48 75  1  0  0  0  0
 49 52  1  0  0  0  0
 49 75  1  0  0  0  0
 50 73  1  0  0  0  0
 51 68  1  0  0  0  0
 52 61  1  0  0  0  0
 53 67  1  0  0  0  0
 54 63  1  0  0  0  0
 55 64  1  0  0  0  0
 56 64  1  0  0  0  0
 57 64  1  0  0  0  0
 58 76  1  0  0  0  0
 59 84  1  0  0  0  0
 60 75  1  0  0  0  0
 61 83  1  0  0  0  0
 62 64  1  0  0  0  0
 62 74  1  0  0  0  0
 63 76  1  0  0  0  0
 65 67  1  0  0  0  0
M  CHG  2  75   1  76   1
M  ISO  4  37 100  61 101  72 100  83 101
M  END
> <Batch ID>
0106

> <Smiles>
CNC(C)C(=O)NC(C(=O)N1Cc2cc([101O:1][101CH2:1]C3CCN(Cc4cc([100NH:0][100C:0](=O)N5CCCC(n6nc(-c7ccc(Oc8ccc(F)cc8F)cc7)c(C(N)=O)c6N)C5)nc(OC)c4)C3)ccc2CC1C(=O)NC1CCCc2ccccc21)C(C)(C)C

> <Shape>
0.214

> <Color>
0.088

> <Negative vol penalty>
0.000

$$$$

  -OEChem-04052301143D

 88 97  0     1  0  0  0  0  0999 V2000
  -18.7970  -26.0916   23.5010 C   0  0  0  0  0  0  0  0  0  0  0  0
  -19.6920  -26.0374   22.4373 C   0  0  0  0  0  0  0  0  0  0  0  0
  -27.4850  -12.3992   21.5449 C   0  0  0  0  0  0  0  0  0  0  0  0
  -26.8042  -14.3854   20.3497 C   0  0  0  0  0  0  0  0  0  0  0  0
  -18.3729  -27.3259   23.9915 C   0  0  0  0  0  0  0  0  0  0  0  0
  -20.1626  -27.2176   21.8627 C   0  0  0  0  0  0  0  0  0  0  0  0
  -25.1577  -27.1186   21.0359 C   0  0  0  0  0  0  0  0  0  0  0  0
  -26.1467  -12.0608   21.7451 C   0  0  0  0  0  0  0  0  0  0  0  0
  -25.4658  -14.0470   20.5499 C   0  0  0  0  0  0  0  0  0  0  0  0
  -25.6050  -26.4071   19.9234 C   0  0  0  0  0  0  0  0  0  0  0  0
  -22.9106  -10.4864   22.2584 C   0  0  0  0  0  0  0  0  0  0  0  0
  -22.5365   -9.1611   22.0365 C   0  0  0  0  0  0  0  0  0  0  0  0
  -31.4110  -22.2224   19.2661 C   0  0  0  0  0  0  0  0  0  0  0  0
  -25.8161  -28.4724   18.6950 C   0  0  0  0  0  0  0  0  0  0  0  0
  -30.5308  -20.7932   17.5283 C   0  0  0  0  0  0  0  0  0  0  0  0
  -23.2606   -9.3416   19.7386 C   0  0  0  0  0  0  0  0  0  0  0  0
  -27.8138  -13.5615   20.8473 C   0  0  0  0  0  0  0  0  0  0  0  0
  -30.9913  -23.3462   18.5544 C   0  0  0  0  0  0  0  0  0  0  0  0
  -30.1723  -13.1568   19.9635 C   0  0  0  0  0  0  0  0  0  0  0  0
  -18.8460  -28.5219   23.4289 C   0  0  0  0  0  0  0  0  0  0  0  0
  -25.0257  -28.5136   20.9826 C   0  0  0  0  0  0  0  0  0  0  0  0
  -19.7434  -28.4690   22.3453 C   0  0  0  0  0  0  0  0  0  0  0  0
  -25.3694  -29.1995   19.8089 C   0  0  0  0  0  0  0  0  0  0  0  0
  -30.3414  -23.1936   17.3297 C   0  0  0  0  0  0  0  0  0  0  0  0
  -31.1808  -20.9458   18.7530 C   0  0  0  0  0  0  0  0  0  0  0  0
  -30.1111  -21.9171   16.8166 C   0  0  0  0  0  0  0  0  0  0  0  0
  -25.1371  -12.8847   21.2476 C   0  0  0  0  0  0  0  0  0  0  0  0
  -25.9315  -27.0837   18.7518 C   0  0  0  0  0  0  0  0  0  0  0  0
  -23.4595  -11.2394   21.2204 C   0  0  0  0  0  0  0  0  0  0  0  0
  -22.7115   -8.5887   20.7766 C   0  0  0  0  0  0  0  0  0  0  0  0
  -23.6346  -10.6669   19.9605 C   0  0  0  0  0  0  0  0  0  0  0  0
  -29.1960  -13.9118   20.6407 C   0  0  0  0  0  0  0  0  0  0  0  0
  -31.3123  -13.9187   20.0436 C   0  0  0  0  0  0  0  0  0  0  0  0
  -31.2493  -24.6651   19.1194 C   0  0  0  0  0  0  0  0  0  0  0  0
  -30.0588  -11.8808   19.3195 C   0  0  0  0  0  0  0  0  0  0  0  0
  -22.6028  -30.5502   21.2752 C   0  0  0  0  0  0  0  0  0  0  0  0
  -24.9602  -32.7724   21.1111 C   0  0  0  0  0  0  0  0  0  0  0  0
  -27.9734  -33.2781   19.1921 C   0  0  0  0  0  0  0  0  0  0  0  0
  -32.2664  -19.7803   20.7047 C   0  0  0  0  0  0  0  0  0  0  0  0
  -18.3224  -29.8319   23.9622 C   0  0  0  0  0  0  0  0  0  0  0  0
  -24.5673  -29.2690   22.1999 C   0  0  0  0  0  0  0  0  0  0  0  0
  -25.2645  -30.6985   19.7068 C   0  0  0  0  0  0  0  0  0  0  0  0
  -19.1579  -31.0383   23.5416 C   0  0  0  0  0  0  0  0  0  0  0  0
  -30.1301  -25.6934   14.5789 C   0  0  0  0  0  0  0  0  0  0  0  0
  -33.4504  -17.1775   22.8262 C   0  0  0  0  0  0  0  0  0  0  0  0
  -19.4723  -30.9761   22.0502 C   0  0  0  0  0  0  0  0  0  0  0  0
  -29.1774  -26.7161   15.1848 C   0  0  0  0  0  0  0  0  0  0  0  0
  -32.5868  -15.9744   22.4406 C   0  0  0  0  0  0  0  0  0  0  0  0
  -30.8691  -24.9048   15.6560 C   0  0  0  0  0  0  0  0  0  0  0  0
  -32.6559  -18.4817   22.7872 C   0  0  0  0  0  0  0  0  0  0  0  0
  -28.9498  -25.2389   17.2243 C   0  0  0  0  0  0  0  0  0  0  0  0
  -31.0853  -17.5374   21.1409 C   0  0  0  0  0  0  0  0  0  0  0  0
  -20.2955  -29.7274   21.7115 C   0  0  1  0  0  0  0  0  0  0  0  0
  -23.9807  -30.6376   21.8680 C   0  0  1  0  0  0  0  0  0  0  0  0
  -28.1997  -26.0342   16.1451 C   0  0  1  0  0  0  0  0  0  0  0  0
  -31.8585  -16.2091   21.1027 C   0  0  2  0  0  0  0  0  0  0  0  0
  -30.0762  -34.5263   19.7555 C   0  0  0  0  0  0  0  0  0  0  0  0
  -23.6190  -35.1027   19.6688 C   0  0  0  0  0  0  0  0  0  0  0  0
  -25.8537  -35.7085   18.7162 C   0  0  0  0  0  0  0  0  0  0  0  0
  -25.4975  -35.7563   21.1847 C   0  0  0  0  0  0  0  0  0  0  0  0
  -29.6614  -30.9054   18.6632 C   0  0  0  0  0  0  0  0  0  0  0  0
  -27.2694  -27.0634   16.7857 C   0  0  0  0  0  0  0  0  0  1  0  0
  -25.6399  -33.5296   19.9959 C   0  0  1  0  0  0  0  0  0  0  0  0
  -29.4011  -33.1649   19.6954 C   0  0  2  0  0  0  0  0  0  0  0  0
  -25.1416  -34.9984   19.8873 C   0  0  0  0  0  0  0  0  0  0  0  0
  -29.6740  -15.0649   21.1161 N   0  0  0  0  0  0  0  0  0  0  0  0
  -30.9632  -15.0400   20.7372 N   0  0  0  0  0  0  0  0  0  0  0  0
  -29.9213  -24.3227   16.6151 N   0  0  2  0  0  0  0  0  0  0  0  0
  -24.8055  -31.3918   20.9218 N   0  0  0  0  0  0  0  0  0  0  0  0
  -31.9970  -18.6386   21.4887 N   0  0  0  0  0  0  0  0  0  0  0  0
  -29.4561  -21.7382   15.5770 N   0  0  0  0  0  0  0  0  0  0  0  0
  -32.5692  -13.7322   19.5878 N   0  0  0  0  0  0  0  0  0  0  0  0
  -32.4487  -25.2847   18.7872 N   0  0  0  0  0  0  0  0  0  0  0  0
  -29.7063  -11.8458   17.9635 N   0  0  0  0  0  0  0  0  0  0  0  0
  -31.6076  -19.8044   19.4758 N   0  0  0  0  0  0  0  0  0  0  0  0
  -21.6802  -29.9179   22.0867 N   0  0  0  0  0  0  0  0  0  0  0  0
  -27.0741  -33.4010   20.2301 N   0  0  0  0  0  0  0  0  0  0  0  0
  -30.1989  -32.2839   18.7964 N   0  3  0  0  0  0  0  0  0  0  0  0
  -30.4359  -25.2096   19.8834 O   0  0  0  0  0  0  0  0  0  0  0  0
  -30.2480  -10.8030   19.9327 O   0  0  0  0  0  0  0  0  0  0  0  0
  -22.3919  -31.0228   20.1644 O   0  0  0  0  0  0  0  0  0  0  0  0
  -24.5869  -33.3822   22.1163 O   0  0  0  0  0  0  0  0  0  0  0  0
  -27.6851  -33.2631   17.9974 O   0  0  0  0  0  0  0  0  0  0  0  0
  -33.0467  -20.6579   21.0828 O   0  0  0  0  0  0  0  0  0  0  0  0
  -23.8311  -12.5547   21.4425 O   0  0  0  0  0  0  0  0  0  0  0  0
  -26.3677  -26.3916   17.6643 O   0  0  0  0  0  0  0  0  0  1  0  0
  -22.3537   -7.3155   20.5640 F   0  0  0  0  0  0  0  0  0  0  0  0
  -24.1625  -11.3849   18.9597 F   0  0  0  0  0  0  0  0  0  0  0  0
  1  2  1  0  0  0  0
  1  5  2  0  0  0  0
  2  6  2  0  0  0  0
  3  8  2  0  0  0  0
  3 17  1  0  0  0  0
  4  9  1  0  0  0  0
  4 17  2  0  0  0  0
  5 20  1  0  0  0  0
  6 22  1  0  0  0  0
  7 10  2  0  0  0  0
  7 21  1  0  0  0  0
  8 27  1  0  0  0  0
  9 27  2  0  0  0  0
 10 28  1  0  0  0  0
 11 12  2  0  0  0  0
 11 29  1  0  0  0  0
 12 30  1  0  0  0  0
 13 18  1  0  0  0  0
 13 25  2  0  0  0  0
 14 23  1  0  0  0  0
 14 28  2  0  0  0  0
 15 25  1  0  0  0  0
 15 26  2  0  0  0  0
 16 30  2  0  0  0  0
 16 31  1  0  0  0  0
 17 32  1  0  0  0  0
 18 24  2  0  0  0  0
 18 34  1  0  0  0  0
 19 32  1  0  0  0  0
 19 33  2  0  0  0  0
 19 35  1  0  0  0  0
 20 22  2  0  0  0  0
 20 40  1  0  0  0  0
 21 23  2  0  0  0  0
 21 41  1  0  0  0  0
 22 53  1  0  0  0  0
 23 42  1  0  0  0  0
 24 26  1  0  0  0  0
 24 68  1  0  0  0  0
 25 75  1  0  0  0  0
 26 71  1  0  0  0  0
 27 85  1  0  0  0  0
 28 86  1  0  0  0  0
 29 31  2  0  0  0  0
 29 85  1  0  0  0  0
 30 87  1  0  0  0  0
 31 88  1  0  0  0  0
 32 66  2  0  0  0  0
 33 67  1  0  0  0  0
 33 72  1  0  0  0  0
 34 73  1  0  0  0  0
 34 79  2  0  0  0  0
 35 74  1  0  0  0  0
 35 80  2  0  0  0  0
 36 54  1  0  0  0  0
 36 76  1  0  0  0  0
 36 81  2  0  0  0  0
 37 63  1  0  0  0  0
 37 69  1  0  0  0  0
 37 82  2  0  0  0  0
 38 64  1  0  0  0  0
 38 77  1  0  0  0  0
 38 83  2  0  0  0  0
 39 70  1  0  0  0  0
 39 75  1  0  0  0  0
 39 84  2  0  0  0  0
 40 43  1  0  0  0  0
 41 54  1  0  0  0  0
 42 69  1  0  0  0  0
 43 46  1  0  0  0  0
 44 47  1  0  0  0  0
 44 49  1  0  0  0  0
 45 48  1  0  0  0  0
 45 50  1  0  0  0  0
 46 53  1  0  0  0  0
 47 55  1  0  0  0  0
 48 56  1  0  0  0  0
 49 68  1  0  0  0  0
 50 70  1  0  0  0  0
 51 55  1  0  0  0  0
 51 68  1  0  0  0  0
 52 56  1  0  0  0  0
 52 70  1  0  0  0  0
 53 76  1  0  0  0  0
 54 69  1  0  0  0  0
 55 62  1  0  0  0  0
 56 67  1  0  0  0  0
 57 64  1  0  0  0  0
 58 65  1  0  0  0  0
 59 65  1  0  0  0  0
 60 65  1  0  0  0  0
 61 78  1  0  0  0  0
 62 86  1  0  0  0  0
 63 65  1  0  0  0  0
 63 77  1  0  0  0  0
 64 78  1  0  0  0  0
 66 67  1  0  0  0  0
M  CHG  1  78   1
M  ISO  4  39 100  62 101  75 100  86 101
M  END
> <Batch ID>
0106

> <Smiles>
CNC(C)C(=O)NC(C(=O)N1Cc2cc([101O:1][101CH2:1]C3CCCN(c4c(N)cc([100NH:0][100C:0](=O)N5CCCC(n6nc(-c7ccc(Oc8ccc(F)cc8F)cc7)c(C(N)=O)c6N)C5)cc4C(N)=O)C3)ccc2CC1C(=O)NC1CCCc2ccccc21)C(C)(C)C

> <Shape>
0.284

> <Color>
0.086

> <Negative vol penalty>
0.000

$$$$

  -OEChem-04052301143D

 86 94  0     1  0  0  0  0  0999 V2000
  -23.2376  -23.9187   20.5299 C   0  0  0  0  0  0  0  0  0  0  0  0
  -24.3754  -23.1391   20.7114 C   0  0  0  0  0  0  0  0  0  0  0  0
  -20.0606  -28.2861   23.9938 C   0  0  0  0  0  0  0  0  0  0  0  0
  -20.2901  -27.2013   21.8472 C   0  0  0  0  0  0  0  0  0  0  0  0
  -30.2092  -23.1502   20.9365 C   0  0  0  0  0  0  0  0  0  0  0  0
  -21.9899  -23.4289   20.9135 C   0  0  0  0  0  0  0  0  0  0  0  0
  -24.2663  -21.8695   21.2776 C   0  0  0  0  0  0  0  0  0  0  0  0
  -26.9882  -18.3947   18.7953 C   0  0  0  0  0  0  0  0  0  0  0  0
  -30.4392  -21.7852   20.7652 C   0  0  0  0  0  0  0  0  0  0  0  0
  -18.6784  -28.3450   23.8162 C   0  0  0  0  0  0  0  0  0  0  0  0
  -18.9079  -27.2602   21.6697 C   0  0  0  0  0  0  0  0  0  0  0  0
  -28.3620  -18.3741   19.0316 C   0  0  0  0  0  0  0  0  0  0  0  0
  -16.4652  -30.2501   22.1142 C   0  0  0  0  0  0  0  0  0  0  0  0
  -15.8236  -31.4498   22.4218 C   0  0  0  0  0  0  0  0  0  0  0  0
  -28.0672  -16.5222   20.5490 C   0  0  0  0  0  0  0  0  0  0  0  0
  -32.7580  -22.1005   21.3658 C   0  0  0  0  0  0  0  0  0  0  0  0
  -14.4812  -30.3081   24.0745 C   0  0  0  0  0  0  0  0  0  0  0  0
  -20.8665  -27.7143   23.0093 C   0  0  0  0  0  0  0  0  0  0  0  0
  -31.2536  -23.9904   21.3225 C   0  0  0  0  0  0  0  0  0  0  0  0
  -23.0311  -26.6163   23.7946 C   0  0  0  0  0  0  0  0  0  0  0  0
  -21.8642  -22.1488   21.4759 C   0  0  0  0  0  0  0  0  0  0  0  0
  -26.1407  -17.4847   19.4435 C   0  0  0  0  0  0  0  0  0  0  0  0
  -23.0159  -21.3626   21.6704 C   0  0  0  0  0  0  0  0  0  0  0  0
  -26.6833  -16.5316   20.3172 C   0  0  0  0  0  0  0  0  0  0  0  0
  -31.7135  -21.2603   20.9798 C   0  0  0  0  0  0  0  0  0  0  0  0
  -32.5280  -23.4655   21.5371 C   0  0  0  0  0  0  0  0  0  0  0  0
  -18.1020  -27.8321   22.6542 C   0  0  0  0  0  0  0  0  0  0  0  0
  -28.9014  -17.4397   19.9107 C   0  0  0  0  0  0  0  0  0  0  0  0
  -16.1148  -29.0794   22.7867 C   0  0  0  0  0  0  0  0  0  0  0  0
  -14.8316  -31.4788   23.4020 C   0  0  0  0  0  0  0  0  0  0  0  0
  -15.1228  -29.1084   23.7669 C   0  0  0  0  0  0  0  0  0  0  0  0
  -22.2945  -27.6536   23.1919 C   0  0  0  0  0  0  0  0  0  0  0  0
  -24.3371  -27.0354   23.7216 C   0  0  0  0  0  0  0  0  0  0  0  0
  -31.7724  -19.1501   21.8565 C   0  0  0  0  0  0  0  0  0  0  0  0
  -30.9805  -25.4119   21.4924 C   0  0  0  0  0  0  0  0  0  0  0  0
  -22.5756  -25.3842   24.3691 C   0  0  0  0  0  0  0  0  0  0  0  0
  -23.7139  -17.7391   21.4805 C   0  0  0  0  0  0  0  0  0  0  0  0
  -28.5180  -29.2940   20.7707 C   0  0  0  0  0  0  0  0  0  0  0  0
  -23.4956  -14.5364   21.0146 C   0  0  0  0  0  0  0  0  0  0  0  0
  -25.0385  -11.6272   20.1184 C   0  0  0  0  0  0  0  0  0  0  0  0
  -20.5004  -21.6811   21.9185 C   0  0  0  0  0  0  0  0  0  0  0  0
  -24.6642  -17.5026   19.1574 C   0  0  0  0  0  0  0  0  0  0  0  0
  -25.8190  -15.5198   21.0227 C   0  0  0  0  0  0  0  0  0  0  0  0
  -20.4231  -20.1768   22.1663 C   0  0  0  0  0  0  0  0  0  0  0  0
  -26.3001  -31.5227   22.4892 C   0  0  0  0  0  0  0  0  0  0  0  0
  -21.6157  -19.7103   22.9951 C   0  0  0  0  0  0  0  0  0  0  0  0
  -25.1078  -30.6367   22.8480 C   0  0  0  0  0  0  0  0  0  0  0  0
  -26.9036  -31.1292   21.1446 C   0  0  0  0  0  0  0  0  0  0  0  0
  -26.1056  -28.8024   21.4111 C   0  0  0  0  0  0  0  0  0  0  0  0
  -22.9352  -19.9705   22.2584 C   0  0  1  0  0  0  0  0  0  0  0  0
  -23.8331  -16.8632   20.2654 C   0  0  1  0  0  0  0  0  0  0  0  0
  -25.4853  -29.1465   22.7768 C   0  0  2  0  0  0  0  0  0  0  0  0
  -24.6127   -9.1665   19.8717 C   0  0  0  0  0  0  0  0  0  0  0  0
  -23.6229  -14.2129   24.0459 C   0  0  0  0  0  0  0  0  0  0  0  0
  -24.1492  -11.7904   23.6955 C   0  0  0  0  0  0  0  0  0  0  0  0
  -21.9728  -12.7191   22.9058 C   0  0  0  0  0  0  0  0  0  0  0  0
  -25.6517  -11.6934   17.2238 C   0  0  0  0  0  0  0  0  0  0  0  0
  -31.9764  -17.6602   21.7900 C   0  0  0  0  0  0  0  0  0  0  0  0
  -28.7767  -27.8084   20.7595 C   0  0  0  0  0  0  0  0  0  0  0  0
  -30.2186  -27.5194   20.3744 C   0  0  0  0  0  0  0  0  0  0  0  0
  -30.6706  -16.9721   21.4298 C   0  0  0  0  0  0  0  0  0  1  0  0
  -24.0965  -13.3171   21.6713 C   0  0  1  0  0  0  0  0  0  0  0  0
  -24.6219  -10.5164   19.1713 C   0  0  2  0  0  0  0  0  0  0  0  0
  -23.4767  -13.0301   23.0680 C   0  0  0  0  0  0  0  0  0  0  0  0
  -23.0682  -28.6562   22.7674 N   0  0  0  0  0  0  0  0  0  0  0  0
  -31.9447  -19.8853   20.8069 N   0  0  0  0  0  0  0  0  0  0  0  0
  -24.3045  -28.2509   23.1039 N   0  0  0  0  0  0  0  0  0  0  0  0
  -24.3806  -15.5817   20.7149 N   0  0  0  0  0  0  0  0  0  0  0  0
  -27.2277  -29.7020   21.1093 N   0  0  0  0  0  0  0  0  0  0  0  0
  -33.5991  -24.2997   21.9281 N   0  0  0  0  0  0  0  0  0  0  0  0
  -25.4986  -26.4790   24.1262 N   0  0  0  0  0  0  0  0  0  0  0  0
  -21.2009  -25.1111   24.3609 N   0  0  0  0  0  0  0  0  0  0  0  0
  -30.5119  -26.1042   20.3715 N   0  0  0  0  0  0  0  0  0  0  0  0
  -23.1453  -18.9735   21.2307 N   0  0  0  0  0  0  0  0  0  0  0  0
  -23.9488  -12.2244   20.7160 N   0  0  0  0  0  0  0  0  0  0  0  0
  -25.5613  -10.4405   18.0168 N   0  3  0  0  0  0  0  0  0  0  0  0
  -31.1828  -25.9641   22.5867 O   0  0  0  0  0  0  0  0  0  0  0  0
  -23.3626  -24.5575   24.8894 O   0  0  0  0  0  0  0  0  0  0  0  0
  -24.1072  -17.3250   22.5647 O   0  0  0  0  0  0  0  0  0  0  0  0
  -29.4374  -30.0673   20.4896 O   0  0  0  0  0  0  0  0  0  0  0  0
  -22.2868  -14.5575   20.7698 O   0  0  0  0  0  0  0  0  0  0  0  0
  -26.2133  -11.9321   20.3117 O   0  0  0  0  0  0  0  0  0  0  0  0
  -16.7532  -27.8892   22.4806 O   0  0  0  0  0  0  0  0  0  0  0  0
  -30.2420  -17.4178   20.1437 O   0  0  0  0  0  0  0  0  0  1  0  0
  -14.2167  -32.6313   23.6984 F   0  0  0  0  0  0  0  0  0  0  0  0
  -14.7827  -27.9871   24.4172 F   0  0  0  0  0  0  0  0  0  0  0  0
  1  2  1  0  0  0  0
  1  6  2  0  0  0  0
  2  7  2  0  0  0  0
  3 10  2  0  0  0  0
  3 18  1  0  0  0  0
  4 11  1  0  0  0  0
  4 18  2  0  0  0  0
  5  9  2  0  0  0  0
  5 19  1  0  0  0  0
  6 21  1  0  0  0  0
  7 23  1  0  0  0  0
  8 12  2  0  0  0  0
  8 22  1  0  0  0  0
  9 25  1  0  0  0  0
 10 27  1  0  0  0  0
 11 27  2  0  0  0  0
 12 28  1  0  0  0  0
 13 14  2  0  0  0  0
 13 29  1  0  0  0  0
 14 30  1  0  0  0  0
 15 24  1  0  0  0  0
 15 28  2  0  0  0  0
 16 25  2  0  0  0  0
 16 26  1  0  0  0  0
 17 30  2  0  0  0  0
 17 31  1  0  0  0  0
 18 32  1  0  0  0  0
 19 26  2  0  0  0  0
 19 35  1  0  0  0  0
 20 32  1  0  0  0  0
 20 33  2  0  0  0  0
 20 36  1  0  0  0  0
 21 23  2  0  0  0  0
 21 41  1  0  0  0  0
 22 24  2  0  0  0  0
 22 42  1  0  0  0  0
 23 50  1  0  0  0  0
 24 43  1  0  0  0  0
 25 66  1  0  0  0  0
 26 70  1  0  0  0  0
 27 83  1  0  0  0  0
 28 84  1  0  0  0  0
 29 31  2  0  0  0  0
 29 83  1  0  0  0  0
 30 85  1  0  0  0  0
 31 86  1  0  0  0  0
 32 65  2  0  0  0  0
 33 67  1  0  0  0  0
 33 71  1  0  0  0  0
 34 58  1  0  0  0  0
 34 66  2  0  0  0  0
 35 73  1  0  0  0  0
 35 77  2  0  0  0  0
 36 72  1  0  0  0  0
 36 78  2  0  0  0  0
 37 51  1  0  0  0  0
 37 74  1  0  0  0  0
 37 79  2  0  0  0  0
 38 59  1  0  0  0  0
 38 69  1  0  0  0  0
 38 80  2  0  0  0  0
 39 62  1  0  0  0  0
 39 68  1  0  0  0  0
 39 81  2  0  0  0  0
 40 63  1  0  0  0  0
 40 75  1  0  0  0  0
 40 82  2  0  0  0  0
 41 44  1  0  0  0  0
 42 51  1  0  0  0  0
 43 68  1  0  0  0  0
 44 46  1  0  0  0  0
 45 47  1  0  0  0  0
 45 48  1  0  0  0  0
 46 50  1  0  0  0  0
 47 52  1  0  0  0  0
 48 69  1  0  0  0  0
 49 52  1  0  0  0  0
 49 69  1  0  0  0  0
 50 74  1  0  0  0  0
 51 68  1  0  0  0  0
 52 67  1  0  0  0  0
 53 63  1  0  0  0  0
 54 64  1  0  0  0  0
 55 64  1  0  0  0  0
 56 64  1  0  0  0  0
 57 76  1  0  0  0  0
 58 61  1  0  0  0  0
 59 60  1  0  0  0  0
 60 73  1  0  0  0  0
 61 84  1  0  0  0  0
 62 64  1  0  0  0  0
 62 75  1  0  0  0  0
 63 76  1  0  0  0  0
 65 67  1  0  0  0  0
M  CHG  1  76   1
M  ISO  4  38 100  59 100  61 101  84 101
M  END
> <Batch ID>
0106

> <Smiles>
CNC(C)C(=O)NC(C(=O)N1Cc2cc([101O:1][101CH2:1]CC=Nc3ccc(C(=O)NC[100CH2:0][100C:0](=O)N4CCCC(n5nc(-c6ccc(Oc7ccc(F)cc7F)cc6)c(C(N)=O)c5N)C4)c(N)c3)ccc2CC1C(=O)NC1CCCc2ccccc21)C(C)(C)C

> <Shape>
0.215

> <Color>
0.079

> <Negative vol penalty>
0.000

$$$$

  -OEChem-04052301143D

 81 89  0     1  0  0  0  0  0999 V2000
  -28.6642  -24.6315   16.5284 C   0  0  0  0  0  0  0  0  0  0  0  0
  -27.4739  -25.2355   16.9174 C   0  0  0  0  0  0  0  0  0  0  0  0
  -25.8236  -14.5412   18.6243 C   0  0  0  0  0  0  0  0  0  0  0  0
  -23.6892  -14.5862   19.7555 C   0  0  0  0  0  0  0  0  0  0  0  0
  -29.8010  -24.7646   17.3229 C   0  0  0  0  0  0  0  0  0  0  0  0
  -27.4230  -25.9826   18.0948 C   0  0  0  0  0  0  0  0  0  0  0  0
  -23.2651  -28.4529   18.9962 C   0  0  0  0  0  0  0  0  0  0  0  0
  -26.1507  -13.3591   19.2885 C   0  0  0  0  0  0  0  0  0  0  0  0
  -24.0163  -13.4040   20.4197 C   0  0  0  0  0  0  0  0  0  0  0  0
  -22.0793  -27.8218   19.3695 C   0  0  0  0  0  0  0  0  0  0  0  0
  -24.0843  -10.0969   19.7277 C   0  0  0  0  0  0  0  0  0  0  0  0
  -23.1096   -9.1013   19.7934 C   0  0  0  0  0  0  0  0  0  0  0  0
  -22.4354  -28.5162   21.6521 C   0  0  0  0  0  0  0  0  0  0  0  0
  -23.1638   -9.2077   22.2065 C   0  0  0  0  0  0  0  0  0  0  0  0
  -24.5928  -15.1548   18.8578 C   0  0  0  0  0  0  0  0  0  0  0  0
  -23.5999  -16.5020   16.9325 C   0  0  0  0  0  0  0  0  0  0  0  0
  -29.7600  -25.5035   18.5167 C   0  0  0  0  0  0  0  0  0  0  0  0
  -24.0518  -29.1122   19.9516 C   0  0  0  0  0  0  0  0  0  0  0  0
  -28.5658  -26.1486   18.8979 C   0  0  0  0  0  0  0  0  0  0  0  0
  -23.6295  -29.1571   21.2879 C   0  0  0  0  0  0  0  0  0  0  0  0
  -19.6497  -22.4595   20.5360 C   0  0  0  0  0  0  0  0  0  0  0  0
  -25.2471  -12.7905   20.1862 C   0  0  0  0  0  0  0  0  0  0  0  0
  -21.6658  -27.8509   20.6982 C   0  0  0  0  0  0  0  0  0  0  0  0
  -24.5988  -10.6479   20.9013 C   0  0  0  0  0  0  0  0  0  0  0  0
  -22.6494   -8.6567   21.0328 C   0  0  0  0  0  0  0  0  0  0  0  0
  -24.1385  -10.2033   22.1407 C   0  0  0  0  0  0  0  0  0  0  0  0
  -24.2546  -16.3762   18.1724 C   0  0  0  0  0  0  0  0  0  0  0  0
  -18.8933  -23.4124   21.1733 C   0  0  0  0  0  0  0  0  0  0  0  0
  -20.9799  -22.8764   20.7328 C   0  0  0  0  0  0  0  0  0  0  0  0
  -23.5169  -17.8570   16.7239 C   0  0  0  0  0  0  0  0  0  0  0  0
  -23.1104  -15.4849   16.0485 C   0  0  0  0  0  0  0  0  0  0  0  0
  -27.0071  -28.7457   21.0632 C   0  0  0  0  0  0  0  0  0  0  0  0
  -19.4906  -25.5371   22.4806 C   0  0  0  0  0  0  0  0  0  0  0  0
  -26.3339  -31.4942   22.6491 C   0  0  0  0  0  0  0  0  0  0  0  0
  -23.9699  -33.5856   23.9469 C   0  0  0  0  0  0  0  0  0  0  0  0
  -23.4581  -22.5589   20.4108 C   0  0  0  0  0  0  0  0  0  0  0  0
  -31.0219  -25.6216   19.3345 C   0  0  0  0  0  0  0  0  0  0  0  0
  -25.3147  -29.8109   19.5280 C   0  0  0  0  0  0  0  0  0  0  0  0
  -24.4277  -29.8688   22.3484 C   0  0  0  0  0  0  0  0  0  0  0  0
  -30.7595  -26.0534   20.7736 C   0  0  0  0  0  0  0  0  0  0  0  0
  -25.7688  -21.9518   17.7709 C   0  0  0  0  0  0  0  0  0  0  0  0
  -29.8498  -27.2726   20.7929 C   0  0  0  0  0  0  0  0  0  0  0  0
  -25.5788  -20.4659   17.4573 C   0  0  0  0  0  0  0  0  0  0  0  0
  -25.6401  -22.2368   19.2662 C   0  0  0  0  0  0  0  0  0  0  0  0
  -24.2197  -20.2481   19.5768 C   0  0  0  0  0  0  0  0  0  0  0  0
  -28.4789  -26.9406   20.1900 C   0  0  1  0  0  0  0  0  0  0  0  0
  -26.2994  -30.0132   20.6755 C   0  0  1  0  0  0  0  0  0  0  0  0
  -24.2761  -19.9216   18.0755 C   0  0  2  0  0  0  0  0  0  0  0  0
  -17.4321  -23.5510   21.3328 C   0  0  0  0  0  0  0  0  0  0  0  0
  -23.7260  -35.7352   25.2185 C   0  0  0  0  0  0  0  0  0  0  0  0
  -27.1470  -30.0636   25.2186 C   0  0  0  0  0  0  0  0  0  0  0  0
  -26.0047  -31.8798   26.5088 C   0  0  0  0  0  0  0  0  0  0  0  0
  -27.9470  -32.4265   25.0421 C   0  0  0  0  0  0  0  0  0  0  0  0
  -22.4655  -34.8566   21.7378 C   0  0  0  0  0  0  0  0  0  0  0  0
  -20.4415  -26.7192   22.3941 C   0  0  0  0  0  0  0  0  0  1  0  0
  -25.7264  -31.8342   23.9886 C   0  0  1  0  0  0  0  0  0  0  0  0
  -23.7891  -35.0893   23.8432 C   0  0  2  0  0  0  0  0  0  0  0  0
  -26.6920  -31.5359   25.1701 C   0  0  0  0  0  0  0  0  0  0  0  0
  -24.5656  -17.5572   18.7134 N   0  0  0  0  0  0  0  0  0  0  0  0
  -21.0668  -24.0063   21.4397 N   0  0  0  0  0  0  0  0  0  0  0  0
  -18.4503  -25.5897   23.2511 N   0  0  0  0  0  0  0  0  0  0  0  0
  -19.7818  -24.3076   21.6926 N   0  0  0  0  0  0  0  0  0  0  0  0
  -24.1044  -18.4379   17.8091 N   0  0  0  0  0  0  0  0  0  0  0  0
  -25.6583  -30.5315   21.8857 N   0  0  0  0  0  0  0  0  0  0  0  0
  -24.3804  -21.6962   19.7815 N   0  0  0  0  0  0  0  0  0  0  0  0
  -19.2031  -21.3727   19.8740 N   0  0  0  0  0  0  0  0  0  0  0  0
  -22.9996  -18.5963   15.7199 N   0  0  0  0  0  0  0  0  0  0  0  0
  -23.2778  -14.1428   16.4162 N   0  0  0  0  0  0  0  0  0  0  0  0
  -22.1224  -22.1936   20.2467 N   0  0  0  0  0  0  0  0  0  0  0  0
  -27.7229  -28.1637   20.0344 N   0  0  0  0  0  0  0  0  0  0  0  0
  -25.3005  -33.2269   23.9020 N   0  0  0  0  0  0  0  0  0  0  0  0
  -22.5292  -35.4105   23.1148 N   0  3  0  0  0  0  0  0  0  0  0  0
  -22.5560  -15.7577   14.9568 O   0  0  0  0  0  0  0  0  0  0  0  0
  -26.9121  -28.3275   22.2111 O   0  0  0  0  0  0  0  0  0  0  0  0
  -27.3657  -32.0669   22.2901 O   0  0  0  0  0  0  0  0  0  0  0  0
  -23.0254  -32.8074   24.0604 O   0  0  0  0  0  0  0  0  0  0  0  0
  -23.8247  -23.5639   21.0253 O   0  0  0  0  0  0  0  0  0  0  0  0
  -25.5658  -11.6369   20.8343 O   0  0  0  0  0  0  0  0  0  0  0  0
  -20.5091  -27.2352   21.0654 O   0  0  0  0  0  0  0  0  0  1  0  0
  -21.7123   -7.7017   21.0958 F   0  0  0  0  0  0  0  0  0  0  0  0
  -24.6282  -10.7297   23.2717 F   0  0  0  0  0  0  0  0  0  0  0  0
  1  2  1  0  0  0  0
  1  5  2  0  0  0  0
  2  6  2  0  0  0  0
  3  8  2  0  0  0  0
  3 15  1  0  0  0  0
  4  9  1  0  0  0  0
  4 15  2  0  0  0  0
  5 17  1  0  0  0  0
  6 19  1  0  0  0  0
  7 10  2  0  0  0  0
  7 18  1  0  0  0  0
  8 22  1  0  0  0  0
  9 22  2  0  0  0  0
 10 23  1  0  0  0  0
 11 12  2  0  0  0  0
 11 24  1  0  0  0  0
 12 25  1  0  0  0  0
 13 20  1  0  0  0  0
 13 23  2  0  0  0  0
 14 25  2  0  0  0  0
 14 26  1  0  0  0  0
 15 27  1  0  0  0  0
 16 27  1  0  0  0  0
 16 30  2  0  0  0  0
 16 31  1  0  0  0  0
 17 19  2  0  0  0  0
 17 37  1  0  0  0  0
 18 20  2  0  0  0  0
 18 38  1  0  0  0  0
 19 46  1  0  0  0  0
 20 39  1  0  0  0  0
 21 28  2  0  0  0  0
 21 29  1  0  0  0  0
 21 66  1  0  0  0  0
 22 78  1  0  0  0  0
 23 79  1  0  0  0  0
 24 26  2  0  0  0  0
 24 78  1  0  0  0  0
 25 80  1  0  0  0  0
 26 81  1  0  0  0  0
 27 59  2  0  0  0  0
 28 49  1  0  0  0  0
 28 62  1  0  0  0  0
 29 60  2  0  0  0  0
 29 69  1  0  0  0  0
 30 63  1  0  0  0  0
 30 67  1  0  0  0  0
 31 68  1  0  0  0  0
 31 73  2  0  0  0  0
 32 47  1  0  0  0  0
 32 70  1  0  0  0  0
 32 74  2  0  0  0  0
 33 55  1  0  0  0  0
 33 61  2  0  0  0  0
 33 62  1  0  0  0  0
 34 56  1  0  0  0  0
 34 64  1  0  0  0  0
 34 75  2  0  0  0  0
 35 57  1  0  0  0  0
 35 71  1  0  0  0  0
 35 76  2  0  0  0  0
 36 65  1  0  0  0  0
 36 69  1  0  0  0  0
 36 77  2  0  0  0  0
 37 40  1  0  0  0  0
 38 47  1  0  0  0  0
 39 64  1  0  0  0  0
 40 42  1  0  0  0  0
 41 43  1  0  0  0  0
 41 44  1  0  0  0  0
 42 46  1  0  0  0  0
 43 48  1  0  0  0  0
 44 65  1  0  0  0  0
 45 48  1  0  0  0  0
 45 65  1  0  0  0  0
 46 70  1  0  0  0  0
 47 64  1  0  0  0  0
 48 63  1  0  0  0  0
 50 57  1  0  0  0  0
 51 58  1  0  0  0  0
 52 58  1  0  0  0  0
 53 58  1  0  0  0  0
 54 72  1  0  0  0  0
 55 79  1  0  0  0  0
 56 58  1  0  0  0  0
 56 71  1  0  0  0  0
 57 72  1  0  0  0  0
 59 63  1  0  0  0  0
 60 62  1  0  0  0  0
M  CHG  1  72   1
M  ISO  4  36 100  55 101  69 100  79 101
M  END
> <Batch ID>
0106

> <Smiles>
CNC(C)C(=O)NC(C(=O)N1Cc2cc([101O:1][101CH2:1]C(=N)n3nc([100NH:0][100C:0](=O)N4CCCC(n5nc(-c6ccc(Oc7ccc(F)cc7F)cc6)c(C(N)=O)c5N)C4)c(N)c3C)ccc2CC1C(=O)NC1CCCc2ccccc21)C(C)(C)C

> <Shape>
0.253

> <Color>
0.078

> <Negative vol penalty>
0.000

$$$$

  -OEChem-04052301143D

 90 99  0     1  0  0  0  0  0999 V2000
  -16.6637  -28.6529   23.9522 C   0  0  0  0  0  0  0  0  0  0  0  0
  -17.4436  -27.7198   23.2766 C   0  0  0  0  0  0  0  0  0  0  0  0
  -22.0103  -15.4841   20.2103 C   0  0  0  0  0  0  0  0  0  0  0  0
  -23.3374  -16.9113   21.6383 C   0  0  0  0  0  0  0  0  0  0  0  0
  -17.0341  -29.9970   23.9565 C   0  0  0  0  0  0  0  0  0  0  0  0
  -18.5938  -28.1306   22.6038 C   0  0  0  0  0  0  0  0  0  0  0  0
  -22.5391  -25.0720   23.4553 C   0  0  0  0  0  0  0  0  0  0  0  0
  -26.9829  -17.4245   22.2558 C   0  0  0  0  0  0  0  0  0  0  0  0
  -28.1424  -16.7602   22.6556 C   0  0  0  0  0  0  0  0  0  0  0  0
  -20.8727  -15.7976   20.9542 C   0  0  0  0  0  0  0  0  0  0  0  0
  -22.1998  -17.2248   22.3822 C   0  0  0  0  0  0  0  0  0  0  0  0
  -22.5711  -23.8650   22.7582 C   0  0  0  0  0  0  0  0  0  0  0  0
  -19.4953  -14.8843   23.9026 C   0  0  0  0  0  0  0  0  0  0  0  0
  -18.6472  -13.8365   24.2610 C   0  0  0  0  0  0  0  0  0  0  0  0
  -24.1267  -24.8230   21.1829 C   0  0  0  0  0  0  0  0  0  0  0  0
  -28.0375  -18.0042   20.1608 C   0  0  0  0  0  0  0  0  0  0  0  0
  -16.8367  -14.8904   23.0574 C   0  0  0  0  0  0  0  0  0  0  0  0
  -23.2426  -16.0409   20.5524 C   0  0  0  0  0  0  0  0  0  0  0  0
  -24.6269  -15.9473   18.4117 C   0  0  0  0  0  0  0  0  0  0  0  0
  -18.1947  -30.4230   23.2916 C   0  0  0  0  0  0  0  0  0  0  0  0
  -23.2935  -26.1687   23.0144 C   0  0  0  0  0  0  0  0  0  0  0  0
  -18.9794  -29.4819   22.5981 C   0  0  0  0  0  0  0  0  0  0  0  0
  -24.1045  -26.0420   21.8776 C   0  0  0  0  0  0  0  0  0  0  0  0
  -26.9304  -18.0465   21.0083 C   0  0  0  0  0  0  0  0  0  0  0  0
  -29.2495  -16.7179   21.8082 C   0  0  0  0  0  0  0  0  0  0  0  0
  -20.9675  -16.6679   22.0401 C   0  0  0  0  0  0  0  0  0  0  0  0
  -23.3627  -23.7412   21.6201 C   0  0  0  0  0  0  0  0  0  0  0  0
  -19.0141  -15.9352   23.1216 C   0  0  0  0  0  0  0  0  0  0  0  0
  -29.1971  -17.3400   20.5607 C   0  0  0  0  0  0  0  0  0  0  0  0
  -17.3179  -13.8396   23.8384 C   0  0  0  0  0  0  0  0  0  0  0  0
  -17.6848  -15.9382   22.6991 C   0  0  0  0  0  0  0  0  0  0  0  0
  -24.4182  -15.7170   19.7848 C   0  0  0  0  0  0  0  0  0  0  0  0
  -25.8897  -15.4637   18.1706 C   0  0  0  0  0  0  0  0  0  0  0  0
  -23.9000  -20.2211   21.0342 C   0  0  0  0  0  0  0  0  0  0  0  0
  -25.1695  -19.8120   21.2746 C   0  0  0  0  0  0  0  0  0  0  0  0
  -23.0801  -19.4403   20.0479 C   0  0  0  0  0  0  0  0  0  0  0  0
  -31.4063  -17.9594   23.2599 C   0  0  0  0  0  0  0  0  0  0  0  0
  -31.4566  -16.6657   22.9349 C   0  0  0  0  0  0  0  0  0  0  0  0
  -23.7572  -16.5449   17.4411 C   0  0  0  0  0  0  0  0  0  0  0  0
  -22.6063  -29.1027   22.0028 C   0  0  0  0  0  0  0  0  0  0  0  0
  -25.8312  -29.4508   22.0418 C   0  0  0  0  0  0  0  0  0  0  0  0
  -28.7044  -27.4754   21.1145 C   0  0  0  0  0  0  0  0  0  0  0  0
  -30.5127  -14.6143   22.0830 C   0  0  0  0  0  0  0  0  0  0  0  0
  -18.5289  -31.8937   23.2845 C   0  0  0  0  0  0  0  0  0  0  0  0
  -23.2687  -27.4556   23.7928 C   0  0  0  0  0  0  0  0  0  0  0  0
  -24.9489  -27.1833   21.3746 C   0  0  0  0  0  0  0  0  0  0  0  0
  -23.6564  -18.1656   19.4803 C   0  0  0  0  0  0  0  0  0  0  0  0
  -19.9655  -32.1898   22.8616 C   0  0  0  0  0  0  0  0  0  0  0  0
  -29.0232  -12.2067   19.7184 C   0  0  0  0  0  0  0  0  0  0  0  0
  -20.3294  -31.3930   21.6128 C   0  0  0  0  0  0  0  0  0  0  0  0
  -27.6648  -12.8316   19.4047 C   0  0  0  0  0  0  0  0  0  0  0  0
  -25.1669  -18.2426   19.3433 C   0  0  0  0  0  0  0  0  0  0  0  0
  -29.5033  -12.5673   21.1211 C   0  0  0  0  0  0  0  0  0  0  0  0
  -28.1777  -14.6570   21.0744 C   0  0  0  0  0  0  0  0  0  0  0  0
  -20.2476  -29.8848   21.8774 C   0  0  1  0  0  0  0  0  0  0  0  0
  -23.6793  -28.6658   22.9597 C   0  0  1  0  0  0  0  0  0  0  0  0
  -27.6884  -14.3501   19.6509 C   0  0  2  0  0  0  0  0  0  0  0  0
  -26.0546  -20.6070   22.2150 C   0  0  0  0  0  0  0  0  0  0  0  0
  -31.0586  -27.5122   21.9827 C   0  0  0  0  0  0  0  0  0  0  0  0
  -26.3529  -31.3513   19.7125 C   0  0  0  0  0  0  0  0  0  0  0  0
  -28.5758  -30.2433   19.3973 C   0  0  0  0  0  0  0  0  0  0  0  0
  -28.0686  -31.4333   21.5302 C   0  0  0  0  0  0  0  0  0  0  0  0
  -28.6341  -24.5883   21.7614 C   0  0  0  0  0  0  0  0  0  0  0  0
  -30.1218  -17.9734   18.4632 C   0  0  0  0  0  0  0  0  0  0  0  0
  -23.1892  -21.3704   21.6912 C   0  0  0  0  0  0  0  0  0  1  0  0
  -26.9433  -29.2214   21.0471 C   0  0  1  0  0  0  0  0  0  0  0  0
  -29.7032  -26.8265   22.0556 C   0  0  2  0  0  0  0  0  0  0  0  0
  -27.4612  -30.5471   20.4210 C   0  0  0  0  0  0  0  0  0  0  0  0
  -25.4644  -15.1325   20.3745 N   0  0  0  0  0  0  0  0  0  0  0  0
  -26.3427  -14.9913   19.3672 N   0  0  0  0  0  0  0  0  0  0  0  0
  -25.7508  -18.7216   20.6012 N   0  0  0  0  0  0  0  0  0  0  0  0
  -24.8858  -28.4229   22.1664 N   0  0  0  0  0  0  0  0  0  0  0  0
  -29.4744  -14.0138   21.3408 N   0  0  0  0  0  0  0  0  0  0  0  0
  -26.6456  -15.4007   17.0539 N   0  0  0  0  0  0  0  0  0  0  0  0
  -22.4945  -16.9876   17.8581 N   0  0  0  0  0  0  0  0  0  0  0  0
  -21.4116  -29.4366   22.6115 N   0  0  0  0  0  0  0  0  0  0  0  0
  -27.9658  -28.4523   21.7481 N   0  0  0  0  0  0  0  0  0  0  0  0
  -30.4459  -16.0237   22.2381 N   0  0  0  0  0  0  0  0  0  0  0  0
  -29.8844  -25.3888   21.7074 N   0  3  0  0  0  0  0  0  0  0  0  0
  -21.9413  -19.7998   19.7497 O   0  0  0  0  0  0  0  0  0  0  0  0
  -24.0836  -16.6673   16.2361 O   0  0  0  0  0  0  0  0  0  0  0  0
  -22.8453  -29.1359   20.8014 O   0  0  0  0  0  0  0  0  0  0  0  0
  -25.8063  -30.5002   22.6898 O   0  0  0  0  0  0  0  0  0  0  0  0
  -28.5933  -27.1510   19.9342 O   0  0  0  0  0  0  0  0  0  0  0  0
  -31.4457  -13.9497   22.5520 O   0  0  0  0  0  0  0  0  0  0  0  0
  -19.8576  -16.9743   22.7660 O   0  0  0  0  0  0  0  0  0  0  0  0
  -30.2674  -17.3103   19.7170 O   0  0  0  0  0  0  0  0  0  0  0  0
  -23.3953  -22.5645   20.9375 O   0  0  0  0  0  0  0  0  0  1  0  0
  -16.5039  -12.8326   24.1814 F   0  0  0  0  0  0  0  0  0  0  0  0
  -17.2171  -16.9444   21.9477 F   0  0  0  0  0  0  0  0  0  0  0  0
  1  2  1  0  0  0  0
  1  5  2  0  0  0  0
  2  6  2  0  0  0  0
  3 10  2  0  0  0  0
  3 18  1  0  0  0  0
  4 11  1  0  0  0  0
  4 18  2  0  0  0  0
  5 20  1  0  0  0  0
  6 22  1  0  0  0  0
  7 12  2  0  0  0  0
  7 21  1  0  0  0  0
  8  9  2  0  0  0  0
  8 24  1  0  0  0  0
  9 25  1  0  0  0  0
 10 26  1  0  0  0  0
 11 26  2  0  0  0  0
 12 27  1  0  0  0  0
 13 14  2  0  0  0  0
 13 28  1  0  0  0  0
 14 30  1  0  0  0  0
 15 23  1  0  0  0  0
 15 27  2  0  0  0  0
 16 24  2  0  0  0  0
 16 29  1  0  0  0  0
 17 30  2  0  0  0  0
 17 31  1  0  0  0  0
 18 32  1  0  0  0  0
 19 32  1  0  0  0  0
 19 33  2  0  0  0  0
 19 39  1  0  0  0  0
 20 22  2  0  0  0  0
 20 44  1  0  0  0  0
 21 23  2  0  0  0  0
 21 45  1  0  0  0  0
 22 55  1  0  0  0  0
 23 46  1  0  0  0  0
 24 71  1  0  0  0  0
 25 29  2  0  0  0  0
 25 78  1  0  0  0  0
 26 86  1  0  0  0  0
 27 88  1  0  0  0  0
 28 31  2  0  0  0  0
 28 86  1  0  0  0  0
 29 87  1  0  0  0  0
 30 89  1  0  0  0  0
 31 90  1  0  0  0  0
 32 69  2  0  0  0  0
 33 70  1  0  0  0  0
 33 74  1  0  0  0  0
 34 35  2  0  0  0  0
 34 36  1  0  0  0  0
 34 65  1  0  0  0  0
 35 58  1  0  0  0  0
 35 71  1  0  0  0  0
 36 47  1  0  0  0  0
 36 80  2  0  0  0  0
 37 38  2  0  0  0  0
 38 78  1  0  0  0  0
 39 75  1  0  0  0  0
 39 81  2  0  0  0  0
 40 56  1  0  0  0  0
 40 76  1  0  0  0  0
 40 82  2  0  0  0  0
 41 66  1  0  0  0  0
 41 72  1  0  0  0  0
 41 83  2  0  0  0  0
 42 67  1  0  0  0  0
 42 77  1  0  0  0  0
 42 84  2  0  0  0  0
 43 73  1  0  0  0  0
 43 78  1  0  0  0  0
 43 85  2  0  0  0  0
 44 48  1  0  0  0  0
 45 56  1  0  0  0  0
 46 72  1  0  0  0  0
 47 52  1  0  0  0  0
 48 50  1  0  0  0  0
 49 51  1  0  0  0  0
 49 53  1  0  0  0  0
 50 55  1  0  0  0  0
 51 57  1  0  0  0  0
 52 71  1  0  0  0  0
 53 73  1  0  0  0  0
 54 57  1  0  0  0  0
 54 73  1  0  0  0  0
 55 76  1  0  0  0  0
 56 72  1  0  0  0  0
 57 70  1  0  0  0  0
 59 67  1  0  0  0  0
 60 68  1  0  0  0  0
 61 68  1  0  0  0  0
 62 68  1  0  0  0  0
 63 79  1  0  0  0  0
 64 87  1  0  0  0  0
 65 88  1  0  0  0  0
 66 68  1  0  0  0  0
 66 77  1  0  0  0  0
 67 79  1  0  0  0  0
 69 70  1  0  0  0  0
M  CHG  1  79   1
M  ISO  4  43 100  65 101  78 100  88 101
M  END
> <Batch ID>
0106

> <Smiles>
C=C[100N:0](c1ccc(N2CCC(=O)C([101CH2:1][101O:1]c3ccc4c(c3)CN(C(=O)C(NC(=O)C(C)NC)C(C)(C)C)C(C(=O)NC3CCCc5ccccc53)C4)=C2C)cc1OC)[100C:0](=O)N1CCCC(n2nc(-c3ccc(Oc4ccc(F)cc4F)cc3)c(C(N)=O)c2N)C1

> <Shape>
0.204

> <Color>
0.092

> <Negative vol penalty>
0.000

$$$$

  -OEChem-04052301143D

 86 95  0     1  0  0  0  0  0999 V2000
  -17.3129  -30.5564   24.0171 C   0  0  0  0  0  0  0  0  0  0  0  0
  -18.6692  -30.8644   24.0458 C   0  0  0  0  0  0  0  0  0  0  0  0
  -24.5740  -12.4933   21.2113 C   0  0  0  0  0  0  0  0  0  0  0  0
  -26.3144  -12.7321   19.5527 C   0  0  0  0  0  0  0  0  0  0  0  0
  -16.8917  -29.3107   23.5538 C   0  0  0  0  0  0  0  0  0  0  0  0
  -19.6053  -29.9262   23.6123 C   0  0  0  0  0  0  0  0  0  0  0  0
  -25.9791  -29.4854   20.3722 C   0  0  0  0  0  0  0  0  0  0  0  0
  -24.4010  -11.1606   20.8379 C   0  0  0  0  0  0  0  0  0  0  0  0
  -26.1415  -11.3993   19.1794 C   0  0  0  0  0  0  0  0  0  0  0  0
  -27.2368  -28.9088   20.5435 C   0  0  0  0  0  0  0  0  0  0  0  0
  -25.9450   -8.2016   21.3795 C   0  0  0  0  0  0  0  0  0  0  0  0
  -25.8336   -7.2529   22.3960 C   0  0  0  0  0  0  0  0  0  0  0  0
  -26.3881  -26.8184   19.6896 C   0  0  0  0  0  0  0  0  0  0  0  0
  -27.7583  -23.7348   22.3412 C   0  0  0  0  0  0  0  0  0  0  0  0
  -29.4717  -23.8642   20.6428 C   0  0  0  0  0  0  0  0  0  0  0  0
  -23.6402   -6.6434   21.5867 C   0  0  0  0  0  0  0  0  0  0  0  0
  -25.5307  -13.2792   20.5686 C   0  0  0  0  0  0  0  0  0  0  0  0
  -26.5805  -15.1571   21.9393 C   0  0  0  0  0  0  0  0  0  0  0  0
  -17.8224  -28.3604   23.1053 C   0  0  0  0  0  0  0  0  0  0  0  0
  -24.9118  -28.7285   19.8676 C   0  0  0  0  0  0  0  0  0  0  0  0
  -19.1963  -28.6661   23.1438 C   0  0  0  0  0  0  0  0  0  0  0  0
  -25.1185  -27.3885   19.5104 C   0  0  0  0  0  0  0  0  0  0  0  0
  -27.1162  -22.7305   21.6169 C   0  0  0  0  0  0  0  0  0  0  0  0
  -28.8295  -22.8598   19.9185 C   0  0  0  0  0  0  0  0  0  0  0  0
  -28.9361  -24.3017   21.8541 C   0  0  0  0  0  0  0  0  0  0  0  0
  -27.6518  -22.2930   20.4056 C   0  0  0  0  0  0  0  0  0  0  0  0
  -25.1848  -10.6135   19.8220 C   0  0  0  0  0  0  0  0  0  0  0  0
  -27.4408  -27.5743   20.2049 C   0  0  0  0  0  0  0  0  0  0  0  0
  -24.9040   -8.3713   20.4667 C   0  0  0  0  0  0  0  0  0  0  0  0
  -24.6812   -6.4738   22.4996 C   0  0  0  0  0  0  0  0  0  0  0  0
  -23.7516   -7.5922   20.5703 C   0  0  0  0  0  0  0  0  0  0  0  0
  -25.7094  -14.6561   20.9534 C   0  0  0  0  0  0  0  0  0  0  0  0
  -26.3767  -16.5152   21.9196 C   0  0  0  0  0  0  0  0  0  0  0  0
  -29.5829  -25.4874   24.0000 C   0  0  0  0  0  0  0  0  0  0  0  0
  -27.4925  -14.4573   22.7962 C   0  0  0  0  0  0  0  0  0  0  0  0
  -22.0749  -27.8287   20.9838 C   0  0  0  0  0  0  0  0  0  0  0  0
  -21.6876  -26.6861   17.9727 C   0  0  0  0  0  0  0  0  0  0  0  0
  -23.1323  -25.5681   15.0901 C   0  0  0  0  0  0  0  0  0  0  0  0
  -25.7046  -21.3002   19.1529 C   0  0  0  0  0  0  0  0  0  0  0  0
  -17.3225  -27.0097   22.6577 C   0  0  0  0  0  0  0  0  0  0  0  0
  -23.5680  -29.3727   19.6637 C   0  0  0  0  0  0  0  0  0  0  0  0
  -24.0107  -26.5384   18.9457 C   0  0  0  0  0  0  0  0  0  0  0  0
  -30.4254  -26.6960   24.3328 C   0  0  0  0  0  0  0  0  0  0  0  0
  -18.3536  -26.2107   21.8648 C   0  0  0  0  0  0  0  0  0  0  0  0
  -31.2681  -26.8930   23.0869 C   0  0  0  0  0  0  0  0  0  0  0  0
  -22.8118  -19.2780   19.6217 C   0  0  0  0  0  0  0  0  0  0  0  0
  -19.7097  -26.2486   22.5622 C   0  0  0  0  0  0  0  0  0  0  0  0
  -23.3794  -17.9365   20.0911 C   0  0  0  0  0  0  0  0  0  0  0  0
  -23.7080  -19.9381   18.5754 C   0  0  0  0  0  0  0  0  0  0  0  0
  -25.6831  -18.7440   19.4368 C   0  0  0  0  0  0  0  0  0  0  0  0
  -20.2405  -27.6841   22.6587 C   0  0  1  0  0  0  0  0  0  0  0  0
  -22.4225  -28.3659   19.6243 C   0  0  1  0  0  0  0  0  0  0  0  0
  -24.8481  -18.0717   20.5388 C   0  0  2  0  0  0  0  0  0  0  0  0
  -30.3702  -26.3942   21.9601 C   0  0  2  0  0  0  0  0  0  0  0  0
  -25.8553  -22.1433   22.1639 C   0  0  0  0  0  0  0  0  0  0  0  0
  -29.4276  -22.4115   18.6240 C   0  0  0  0  0  0  0  0  0  0  0  0
  -22.5578  -24.6680   12.8191 C   0  0  0  0  0  0  0  0  0  0  0  0
  -20.9950  -23.9888   19.2197 C   0  0  0  0  0  0  0  0  0  0  0  0
  -21.3662  -22.9360   16.9787 C   0  0  0  0  0  0  0  0  0  0  0  0
  -19.5647  -24.6362   17.2730 C   0  0  0  0  0  0  0  0  0  0  0  0
  -24.4774  -27.8249   13.7276 C   0  0  0  0  0  0  0  0  0  0  0  0
  -29.4795  -27.5192   21.4282 C   0  0  0  0  0  0  0  0  0  1  0  0
  -21.9818  -25.3776   17.2797 C   0  0  1  0  0  0  0  0  0  0  0  0
  -22.8736  -25.9123   13.6344 C   0  0  2  0  0  0  0  0  0  0  0  0
  -20.9975  -24.2498   17.7002 C   0  0  0  0  0  0  0  0  0  0  0  0
  -25.0045  -15.6177   20.3514 N   0  0  0  0  0  0  0  0  0  0  0  0
  -25.4324  -16.7365   20.9608 N   0  0  0  0  0  0  0  0  0  0  0  0
  -29.5949  -25.3333   22.5973 N   0  0  0  0  0  0  0  0  0  0  0  0
  -22.7133  -27.2120   18.7709 N   0  0  0  0  0  0  0  0  0  0  0  0
  -25.0827  -20.0364   19.0707 N   0  0  0  0  0  0  0  0  0  0  0  0
  -26.9148  -17.5297   22.6293 N   0  0  0  0  0  0  0  0  0  0  0  0
  -27.5771  -13.0627   22.6853 N   0  0  0  0  0  0  0  0  0  0  0  0
  -26.9997  -21.2731   19.6691 N   0  0  0  0  0  0  0  0  0  0  0  0
  -20.7829  -28.1089   21.3859 N   0  0  0  0  0  0  0  0  0  0  0  0
  -21.9854  -25.6650   15.8494 N   0  0  0  0  0  0  0  0  0  0  0  0
  -24.0685  -26.5740   13.0383 N   0  3  0  0  0  0  0  0  0  0  0  0
  -29.0063  -24.8392   24.8614 O   0  0  0  0  0  0  0  0  0  0  0  0
  -28.1992  -15.0495   23.6468 O   0  0  0  0  0  0  0  0  0  0  0  0
  -22.9161  -27.2049   21.6202 O   0  0  0  0  0  0  0  0  0  0  0  0
  -20.5908  -27.2254   17.8062 O   0  0  0  0  0  0  0  0  0  0  0  0
  -24.2401  -25.2419   15.5107 O   0  0  0  0  0  0  0  0  0  0  0  0
  -25.1206  -22.3339   18.8174 O   0  0  0  0  0  0  0  0  0  0  0  0
  -25.0164   -9.3130   19.4576 O   0  0  0  0  0  0  0  0  0  0  0  0
  -28.6672  -27.0088   20.3717 O   0  0  0  0  0  0  0  0  0  1  0  0
  -24.5750   -5.5617   23.4748 F   0  0  0  0  0  0  0  0  0  0  0  0
  -22.7487   -7.7498   19.6955 F   0  0  0  0  0  0  0  0  0  0  0  0
  1  2  1  0  0  0  0
  1  5  2  0  0  0  0
  2  6  2  0  0  0  0
  3  8  2  0  0  0  0
  3 17  1  0  0  0  0
  4  9  1  0  0  0  0
  4 17  2  0  0  0  0
  5 19  1  0  0  0  0
  6 21  1  0  0  0  0
  7 10  2  0  0  0  0
  7 20  1  0  0  0  0
  8 27  1  0  0  0  0
  9 27  2  0  0  0  0
 10 28  1  0  0  0  0
 11 12  2  0  0  0  0
 11 29  1  0  0  0  0
 12 30  1  0  0  0  0
 13 22  1  0  0  0  0
 13 28  2  0  0  0  0
 14 23  2  0  0  0  0
 14 25  1  0  0  0  0
 15 24  1  0  0  0  0
 15 25  2  0  0  0  0
 16 30  2  0  0  0  0
 16 31  1  0  0  0  0
 17 32  1  0  0  0  0
 18 32  1  0  0  0  0
 18 33  2  0  0  0  0
 18 35  1  0  0  0  0
 19 21  2  0  0  0  0
 19 40  1  0  0  0  0
 20 22  2  0  0  0  0
 20 41  1  0  0  0  0
 21 51  1  0  0  0  0
 22 42  1  0  0  0  0
 23 26  1  0  0  0  0
 23 55  1  0  0  0  0
 24 26  2  0  0  0  0
 24 56  1  0  0  0  0
 25 68  1  0  0  0  0
 26 73  1  0  0  0  0
 27 83  1  0  0  0  0
 28 84  1  0  0  0  0
 29 31  2  0  0  0  0
 29 83  1  0  0  0  0
 30 85  1  0  0  0  0
 31 86  1  0  0  0  0
 32 66  2  0  0  0  0
 33 67  1  0  0  0  0
 33 71  1  0  0  0  0
 34 43  1  0  0  0  0
 34 68  1  0  0  0  0
 34 77  2  0  0  0  0
 35 72  1  0  0  0  0
 35 78  2  0  0  0  0
 36 52  1  0  0  0  0
 36 74  1  0  0  0  0
 36 79  2  0  0  0  0
 37 63  1  0  0  0  0
 37 69  1  0  0  0  0
 37 80  2  0  0  0  0
 38 64  1  0  0  0  0
 38 75  1  0  0  0  0
 38 81  2  0  0  0  0
 39 70  1  0  0  0  0
 39 73  1  0  0  0  0
 39 82  2  0  0  0  0
 40 44  1  0  0  0  0
 41 52  1  0  0  0  0
 42 69  1  0  0  0  0
 43 45  1  0  0  0  0
 44 47  1  0  0  0  0
 45 54  1  0  0  0  0
 46 48  1  0  0  0  0
 46 49  1  0  0  0  0
 47 51  1  0  0  0  0
 48 53  1  0  0  0  0
 49 70  1  0  0  0  0
 50 53  1  0  0  0  0
 50 70  1  0  0  0  0
 51 74  1  0  0  0  0
 52 69  1  0  0  0  0
 53 67  1  0  0  0  0
 54 62  1  0  0  0  0
 54 68  1  0  0  0  0
 57 64  1  0  0  0  0
 58 65  1  0  0  0  0
 59 65  1  0  0  0  0
 60 65  1  0  0  0  0
 61 76  1  0  0  0  0
 62 84  1  0  0  0  0
 63 65  1  0  0  0  0
 63 75  1  0  0  0  0
 64 76  1  0  0  0  0
 66 67  1  0  0  0  0
M  CHG  1  76   1
M  ISO  4  39 100  62 101  73 100  84 101
M  END
> <Batch ID>
0106

> <Smiles>
CNC(C)C(=O)NC(C(=O)N1Cc2cc([101O:1][101CH2:1]C3CCC(=O)N3c3cc(C)c([100NH:0][100C:0](=O)N4CCCC(n5nc(-c6ccc(Oc7ccc(F)cc7F)cc6)c(C(N)=O)c5N)C4)c(C)c3)ccc2CC1C(=O)NC1CCCc2ccccc21)C(C)(C)C

> <Shape>
0.217

> <Color>
0.086

> <Negative vol penalty>
0.000

$$$$

  -OEChem-04052301143D

 80 88  0     1  0  0  0  0  0999 V2000
  -30.1668  -34.3917   26.1597 C   0  0  0  0  0  0  0  0  0  0  0  0
  -30.5490  -33.3811   25.2833 C   0  0  0  0  0  0  0  0  0  0  0  0
  -23.5761  -10.8829   23.1816 C   0  0  0  0  0  0  0  0  0  0  0  0
  -24.5284   -9.1873   21.7480 C   0  0  0  0  0  0  0  0  0  0  0  0
  -29.0201  -34.2408   26.9384 C   0  0  0  0  0  0  0  0  0  0  0  0
  -29.7853  -32.2185   25.1859 C   0  0  0  0  0  0  0  0  0  0  0  0
  -27.7722  -27.2425   20.4421 C   0  0  0  0  0  0  0  0  0  0  0  0
  -23.1022   -9.8909   24.0401 C   0  0  0  0  0  0  0  0  0  0  0  0
  -24.0546   -8.1953   22.6066 C   0  0  0  0  0  0  0  0  0  0  0  0
  -27.7477  -25.8583   20.2781 C   0  0  0  0  0  0  0  0  0  0  0  0
  -21.1179   -6.6454   23.2425 C   0  0  0  0  0  0  0  0  0  0  0  0
  -20.4946   -5.5365   22.6702 C   0  0  0  0  0  0  0  0  0  0  0  0
  -25.7427  -25.7414   21.6143 C   0  0  0  0  0  0  0  0  0  0  0  0
  -22.1600   -4.0911   23.6572 C   0  0  0  0  0  0  0  0  0  0  0  0
  -24.2892  -10.5311   22.0355 C   0  0  0  0  0  0  0  0  0  0  0  0
  -24.0161  -12.5132   20.4531 C   0  0  0  0  0  0  0  0  0  0  0  0
  -28.2367  -33.0798   26.8434 C   0  0  0  0  0  0  0  0  0  0  0  0
  -26.7865  -27.8865   21.2039 C   0  0  0  0  0  0  0  0  0  0  0  0
  -28.6278  -32.0513   25.9650 C   0  0  0  0  0  0  0  0  0  0  0  0
  -25.7555  -27.1342   21.7844 C   0  0  0  0  0  0  0  0  0  0  0  0
  -23.3415   -8.5472   23.7526 C   0  0  0  0  0  0  0  0  0  0  0  0
  -26.7346  -25.1071   20.8666 C   0  0  0  0  0  0  0  0  0  0  0  0
  -22.2623   -6.4771   24.0221 C   0  0  0  0  0  0  0  0  0  0  0  0
  -21.0157   -4.2594   22.8775 C   0  0  0  0  0  0  0  0  0  0  0  0
  -22.7833   -5.2000   24.2295 C   0  0  0  0  0  0  0  0  0  0  0  0
  -24.7785  -11.5553   21.1480 C   0  0  0  0  0  0  0  0  0  0  0  0
  -24.9423  -13.2473   19.7533 C   0  0  0  0  0  0  0  0  0  0  0  0
  -22.5975  -12.7209   20.4412 C   0  0  0  0  0  0  0  0  0  0  0  0
  -26.7894  -29.6367   23.8573 C   0  0  0  0  0  0  0  0  0  0  0  0
  -29.8384  -15.9485   19.6042 C   0  0  0  0  0  0  0  0  0  0  0  0
  -23.6502  -30.0258   23.1389 C   0  0  0  0  0  0  0  0  0  0  0  0
  -20.8746  -28.8422   21.5445 C   0  0  0  0  0  0  0  0  0  0  0  0
  -27.0317  -32.9419   27.7399 C   0  0  0  0  0  0  0  0  0  0  0  0
  -26.8120  -29.3834   21.3491 C   0  0  0  0  0  0  0  0  0  0  0  0
  -24.6623  -27.7797   22.5949 C   0  0  0  0  0  0  0  0  0  0  0  0
  -26.0707  -31.8390   27.3033 C   0  0  0  0  0  0  0  0  0  0  0  0
  -29.8567  -12.4307   18.9222 C   0  0  0  0  0  0  0  0  0  0  0  0
  -26.8375  -30.5617   26.9757 C   0  0  0  0  0  0  0  0  0  0  0  0
  -28.4864  -11.9631   19.4111 C   0  0  0  0  0  0  0  0  0  0  0  0
  -27.5994  -21.0313   21.2716 C   0  0  0  0  0  0  0  0  0  0  0  0
  -30.4098  -13.5505   19.7981 C   0  0  0  0  0  0  0  0  0  0  0  0
  -28.1231  -14.2582   20.4240 C   0  0  0  0  0  0  0  0  0  0  0  0
  -27.8342  -19.5489   21.0260 C   0  0  0  0  0  0  0  0  0  0  0  0
  -27.8118  -30.7860   25.8130 C   0  0  1  0  0  0  0  0  0  0  0  0
  -26.0476  -29.8781   22.5731 C   0  0  1  0  0  0  0  0  0  0  0  0
  -27.5538  -21.6638   19.8838 C   0  0  2  0  0  0  0  0  0  0  0  0
  -27.5145  -13.1484   19.5485 C   0  0  2  0  0  0  0  0  0  0  0  0
  -28.6055  -20.8638   19.0860 C   0  0  0  0  0  0  0  0  0  0  0  0
  -28.3417  -20.9238   17.5785 C   0  0  0  0  0  0  0  0  0  0  0  0
  -30.0588  -21.2530   19.3929 C   0  0  0  0  0  0  0  0  0  0  0  0
  -18.4471  -29.3574   21.1714 C   0  0  0  0  0  0  0  0  0  0  0  0
  -23.0129  -29.0541   25.9602 C   0  0  0  0  0  0  0  0  0  0  0  0
  -20.6487  -28.6846   25.2239 C   0  0  0  0  0  0  0  0  0  0  0  0
  -21.6219  -30.9811   25.1814 C   0  0  0  0  0  0  0  0  0  0  0  0
  -21.2529  -29.0689   18.6180 C   0  0  0  0  0  0  0  0  0  0  0  0
  -28.7919  -17.0240   19.7530 C   0  0  0  0  0  0  0  0  0  0  0  0
  -27.7509  -23.1731   19.9272 C   0  0  0  0  0  0  0  0  0  1  0  0
  -29.3504  -18.3841   19.3757 C   0  0  0  0  0  0  0  0  0  0  0  0
  -22.3780  -29.2826   23.4681 C   0  0  1  0  0  0  0  0  0  0  0  0
  -19.8629  -29.5256   20.6423 C   0  0  2  0  0  0  0  0  0  0  0  0
  -21.9369  -29.4879   24.9448 C   0  0  0  0  0  0  0  0  0  0  0  0
  -26.0881  -11.6680   20.9111 N   0  0  0  0  0  0  0  0  0  0  0  0
  -26.1559  -12.7054   20.0595 N   0  0  0  0  0  0  0  0  0  0  0  0
  -24.7344  -29.2454   22.7132 N   0  0  0  0  0  0  0  0  0  0  0  0
  -29.4482  -14.6474   19.9219 N   0  0  0  0  0  0  0  0  0  0  0  0
  -24.8289  -14.2971   18.9121 N   0  0  0  0  0  0  0  0  0  0  0  0
  -21.8310  -12.0430   19.4835 N   0  0  0  0  0  0  0  0  0  0  0  0
  -27.1016  -30.7897   24.5520 N   0  0  0  0  0  0  0  0  0  0  0  0
  -21.3893  -29.7102   22.4842 N   0  0  0  0  0  0  0  0  0  0  0  0
  -28.3096  -19.4406   19.5871 N   0  3  1  0  0  0  0  0  0  0  0  0
  -19.9226  -28.9510   19.2686 N   0  3  0  0  0  0  0  0  0  0  0  0
  -22.0285  -13.4977   21.2452 O   0  0  0  0  0  0  0  0  0  0  0  0
  -27.0573  -28.4892   24.1938 O   0  0  0  0  0  0  0  0  0  0  0  0
  -30.9675  -16.2570   19.2143 O   0  0  0  0  0  0  0  0  0  0  0  0
  -23.6785  -31.2541   23.2484 O   0  0  0  0  0  0  0  0  0  0  0  0
  -21.1753  -27.6561   21.4297 O   0  0  0  0  0  0  0  0  0  0  0  0
  -22.8794   -7.5789   24.5903 O   0  0  0  0  0  0  0  0  0  0  0  0
  -26.7087  -23.7557   20.7086 O   0  0  0  0  0  0  0  0  0  1  0  0
  -20.4162   -3.1945   22.3291 F   0  0  0  0  0  0  0  0  0  0  0  0
  -23.8818   -5.0319   24.9785 F   0  0  0  0  0  0  0  0  0  0  0  0
  1  2  1  0  0  0  0
  1  5  2  0  0  0  0
  2  6  2  0  0  0  0
  3  8  2  0  0  0  0
  3 15  1  0  0  0  0
  4  9  1  0  0  0  0
  4 15  2  0  0  0  0
  5 17  1  0  0  0  0
  6 19  1  0  0  0  0
  7 10  2  0  0  0  0
  7 18  1  0  0  0  0
  8 21  1  0  0  0  0
  9 21  2  0  0  0  0
 10 22  1  0  0  0  0
 11 12  2  0  0  0  0
 11 23  1  0  0  0  0
 12 24  1  0  0  0  0
 13 20  1  0  0  0  0
 13 22  2  0  0  0  0
 14 24  2  0  0  0  0
 14 25  1  0  0  0  0
 15 26  1  0  0  0  0
 16 26  1  0  0  0  0
 16 27  2  0  0  0  0
 16 28  1  0  0  0  0
 17 19  2  0  0  0  0
 17 33  1  0  0  0  0
 18 20  2  0  0  0  0
 18 34  1  0  0  0  0
 19 44  1  0  0  0  0
 20 35  1  0  0  0  0
 21 77  1  0  0  0  0
 22 78  1  0  0  0  0
 23 25  2  0  0  0  0
 23 77  1  0  0  0  0
 24 79  1  0  0  0  0
 25 80  1  0  0  0  0
 26 62  2  0  0  0  0
 27 63  1  0  0  0  0
 27 66  1  0  0  0  0
 28 67  1  0  0  0  0
 28 72  2  0  0  0  0
 29 45  1  0  0  0  0
 29 68  1  0  0  0  0
 29 73  2  0  0  0  0
 30 56  1  0  0  0  0
 30 65  1  0  0  0  0
 30 74  2  0  0  0  0
 31 59  1  0  0  0  0
 31 64  1  0  0  0  0
 31 75  2  0  0  0  0
 32 60  1  0  0  0  0
 32 69  1  0  0  0  0
 32 76  2  0  0  0  0
 33 36  1  0  0  0  0
 34 45  1  0  0  0  0
 35 64  1  0  0  0  0
 36 38  1  0  0  0  0
 37 39  1  0  0  0  0
 37 41  1  0  0  0  0
 38 44  1  0  0  0  0
 39 47  1  0  0  0  0
 40 43  1  0  0  0  0
 40 46  1  0  0  0  0
 41 65  1  0  0  0  0
 42 47  1  0  0  0  0
 42 65  1  0  0  0  0
 43 70  1  0  0  0  0
 44 68  1  0  0  0  0
 45 64  1  0  0  0  0
 46 48  1  0  0  0  0
 46 57  1  0  0  0  0
 47 63  1  0  0  0  0
 48 49  1  0  0  0  0
 48 50  1  0  0  0  0
 48 70  1  0  0  0  0
 51 60  1  0  0  0  0
 52 61  1  0  0  0  0
 53 61  1  0  0  0  0
 54 61  1  0  0  0  0
 55 71  1  0  0  0  0
 56 58  1  0  0  0  0
 57 78  1  0  0  0  0
 58 70  1  0  0  0  0
 59 61  1  0  0  0  0
 59 69  1  0  0  0  0
 60 71  1  0  0  0  0
 62 63  1  0  0  0  0
M  CHG  2  70   1  71   1
M  ISO  4  30 100  56 100  57 101  78 101
M  END
> <Batch ID>
0106

> <Smiles>
CNC(C)C(=O)NC(C(=O)N1Cc2cc([101O:1][101CH2:1]C3CCN(C[100CH2:0][100C:0](=O)N4CCCC(n5nc(-c6ccc(Oc7ccc(F)cc7F)cc6)c(C(N)=O)c5N)C4)C3(C)C)ccc2CC1C(=O)NC1CCCc2ccccc21)C(C)(C)C

> <Shape>
0.296

> <Color>
0.099

> <Negative vol penalty>
0.000

$$$$

  -OEChem-04052301143D

 87 95  0     1  0  0  0  0  0999 V2000
  -20.7872  -20.9984   14.0157 C   0  0  0  0  0  0  0  0  0  0  0  0
  -21.3143  -20.0160   14.8478 C   0  0  0  0  0  0  0  0  0  0  0  0
  -26.4532  -29.3014   18.9864 C   0  0  0  0  0  0  0  0  0  0  0  0
  -26.4312  -28.9390   21.3750 C   0  0  0  0  0  0  0  0  0  0  0  0
  -20.8525  -22.3389   14.3934 C   0  0  0  0  0  0  0  0  0  0  0  0
  -21.9081  -20.3737   16.0578 C   0  0  0  0  0  0  0  0  0  0  0  0
  -20.4641  -17.3911   19.8871 C   0  0  0  0  0  0  0  0  0  0  0  0
  -28.6720  -12.2620   19.9075 C   0  0  0  0  0  0  0  0  0  0  0  0
  -30.0247  -12.5966   19.9692 C   0  0  0  0  0  0  0  0  0  0  0  0
  -25.6068  -30.3987   19.1451 C   0  0  0  0  0  0  0  0  0  0  0  0
  -25.5849  -30.0364   21.5337 C   0  0  0  0  0  0  0  0  0  0  0  0
  -21.0602  -16.1338   19.9746 C   0  0  0  0  0  0  0  0  0  0  0  0
  -25.8605  -33.4040   21.5963 C   0  0  0  0  0  0  0  0  0  0  0  0
  -26.1554  -34.3054   22.6190 C   0  0  0  0  0  0  0  0  0  0  0  0
  -28.0887  -14.6050   19.9898 C   0  0  0  0  0  0  0  0  0  0  0  0
  -22.5548  -16.9675   21.6748 C   0  0  0  0  0  0  0  0  0  0  0  0
  -24.0054  -33.8633   23.6286 C   0  0  0  0  0  0  0  0  0  0  0  0
  -26.8654  -28.5715   20.1014 C   0  0  0  0  0  0  0  0  0  0  0  0
  -29.4414  -14.9397   20.0516 C   0  0  0  0  0  0  0  0  0  0  0  0
  -29.1469  -27.4402   19.9516 C   0  0  0  0  0  0  0  0  0  0  0  0
  -21.4387  -22.7124   15.6130 C   0  0  0  0  0  0  0  0  0  0  0  0
  -20.9169  -18.4507   20.6863 C   0  0  0  0  0  0  0  0  0  0  0  0
  -21.9824  -21.7206   16.4515 C   0  0  0  0  0  0  0  0  0  0  0  0
  -21.9610  -18.2366   21.5973 C   0  0  0  0  0  0  0  0  0  0  0  0
  -27.7040  -13.2662   19.9178 C   0  0  0  0  0  0  0  0  0  0  0  0
  -30.4095  -13.9354   20.0413 C   0  0  0  0  0  0  0  0  0  0  0  0
  -25.1727  -30.7662   20.4187 C   0  0  0  0  0  0  0  0  0  0  0  0
  -22.1076  -15.9226   20.8665 C   0  0  0  0  0  0  0  0  0  0  0  0
  -24.6380  -32.7323   21.5896 C   0  0  0  0  0  0  0  0  0  0  0  0
  -25.2279  -34.5351   23.6352 C   0  0  0  0  0  0  0  0  0  0  0  0
  -23.7105  -32.9619   22.6058 C   0  0  0  0  0  0  0  0  0  0  0  0
  -27.7392  -27.4375   19.9381 C   0  0  0  0  0  0  0  0  0  0  0  0
  -29.4946  -26.1259   19.7563 C   0  0  0  0  0  0  0  0  0  0  0  0
  -29.8111  -16.3478   20.1250 C   0  0  0  0  0  0  0  0  0  0  0  0
  -30.0587  -28.5330   20.1253 C   0  0  0  0  0  0  0  0  0  0  0  0
  -22.2105  -21.2974   20.1151 C   0  0  0  0  0  0  0  0  0  0  0  0
  -28.8258  -20.8152   21.0319 C   0  0  0  0  0  0  0  0  0  0  0  0
  -21.9019  -21.6483   23.3251 C   0  0  0  0  0  0  0  0  0  0  0  0
  -25.2415  -13.7919   19.8550 C   0  0  0  0  0  0  0  0  0  0  0  0
  -21.6327  -20.1687   26.3886 C   0  0  0  0  0  0  0  0  0  0  0  0
  -21.5283  -24.1782   15.9566 C   0  0  0  0  0  0  0  0  0  0  0  0
  -20.2455  -19.7939   20.5991 C   0  0  0  0  0  0  0  0  0  0  0  0
  -22.4707  -19.3357   22.4921 C   0  0  0  0  0  0  0  0  0  0  0  0
  -21.8388  -24.4411   17.4279 C   0  0  0  0  0  0  0  0  0  0  0  0
  -26.7096  -22.1412   18.3880 C   0  0  0  0  0  0  0  0  0  0  0  0
  -22.9837  -23.5502   17.8993 C   0  0  0  0  0  0  0  0  0  0  0  0
  -26.8859  -23.6467   18.5815 C   0  0  0  0  0  0  0  0  0  0  0  0
  -26.7272  -21.3981   19.7212 C   0  0  0  0  0  0  0  0  0  0  0  0
  -28.1243  -23.1695   20.7383 C   0  0  0  0  0  0  0  0  0  0  0  0
  -22.6122  -22.0669   17.7833 C   0  0  1  0  0  0  0  0  0  0  0  0
  -21.1281  -20.9362   21.0927 C   0  0  1  0  0  0  0  0  0  0  0  0
  -28.1427  -23.9526   19.4148 C   0  0  2  0  0  0  0  0  0  0  0  0
  -21.4336  -20.7156   28.8297 C   0  0  0  0  0  0  0  0  0  0  0  0
  -24.8707  -22.3475   23.4081 C   0  0  0  0  0  0  0  0  0  0  0  0
  -24.8243  -21.9486   25.8793 C   0  0  0  0  0  0  0  0  0  0  0  0
  -23.4252  -23.7578   24.8832 C   0  0  0  0  0  0  0  0  0  0  0  0
  -19.0094  -18.8146   26.5969 C   0  0  0  0  0  0  0  0  0  0  0  0
  -28.5292  -19.3580   20.7817 C   0  0  0  0  0  0  0  0  0  0  0  0
  -23.9370  -13.0072   19.7752 C   0  0  0  0  0  0  0  0  0  0  0  0
  -29.5908  -18.4784   21.4221 C   0  0  0  0  0  0  0  0  0  0  0  0
  -22.7035  -13.8974   19.7712 C   0  0  0  0  0  0  0  0  0  1  0  0
  -22.7694  -21.3429   24.5222 C   0  0  1  0  0  0  0  0  0  0  0  0
  -20.6792  -20.4122   27.5445 C   0  0  2  0  0  0  0  0  0  0  0  0
  -23.9643  -22.3288   24.6551 C   0  0  0  0  0  0  0  0  0  0  0  0
  -27.2276  -26.2183   19.7490 N   0  0  0  0  0  0  0  0  0  0  0  0
  -28.3198  -25.4426   19.6417 N   0  0  0  0  0  0  0  0  0  0  0  0
  -21.7860  -20.6328   22.3652 N   0  0  0  0  0  0  0  0  0  0  0  0
  -27.9263  -21.7375   20.4966 N   0  0  0  0  0  0  0  0  0  0  0  0
  -31.7847  -14.2528   20.1038 N   0  0  0  0  0  0  0  0  0  0  0  0
  -30.6876  -25.4996   19.6729 N   0  0  0  0  0  0  0  0  0  0  0  0
  -29.5328  -29.8182   20.3147 N   0  0  0  0  0  0  0  0  0  0  0  0
  -26.3318  -12.9259   19.8551 N   0  0  0  0  0  0  0  0  0  0  0  0
  -29.3308  -17.0710   21.2210 N   0  0  0  0  0  0  0  0  0  0  0  0
  -21.7418  -21.6772   18.8718 N   0  0  0  0  0  0  0  0  0  0  0  0
  -21.8789  -21.3242   25.6776 N   0  0  0  0  0  0  0  0  0  0  0  0
  -19.8251  -19.2124   27.7730 N   0  3  0  0  0  0  0  0  0  0  0  0
  -30.5041  -16.8625   19.2318 O   0  0  0  0  0  0  0  0  0  0  0  0
  -31.3030  -28.3769   20.0965 O   0  0  0  0  0  0  0  0  0  0  0  0
  -23.3838  -21.2376   20.4635 O   0  0  0  0  0  0  0  0  0  0  0  0
  -29.8287  -21.1225   21.6813 O   0  0  0  0  0  0  0  0  0  0  0  0
  -21.3418  -22.7446   23.2481 O   0  0  0  0  0  0  0  0  0  0  0  0
  -25.2642  -15.0169   19.9100 O   0  0  0  0  0  0  0  0  0  0  0  0
  -22.1141  -19.0648   26.1434 O   0  0  0  0  0  0  0  0  0  0  0  0
  -24.3470  -31.8370   20.5739 O   0  0  0  0  0  0  0  0  0  0  0  0
  -22.6916  -14.6965   20.9534 O   0  0  0  0  0  0  0  0  0  1  0  0
  -25.5119  -35.3996   24.6181 F   0  0  0  0  0  0  0  0  0  0  0  0
  -22.5349  -32.3187   22.6054 F   0  0  0  0  0  0  0  0  0  0  0  0
  1  2  1  0  0  0  0
  1  5  2  0  0  0  0
  2  6  2  0  0  0  0
  3 10  2  0  0  0  0
  3 18  1  0  0  0  0
  4 11  1  0  0  0  0
  4 18  2  0  0  0  0
  5 21  1  0  0  0  0
  6 23  1  0  0  0  0
  7 12  2  0  0  0  0
  7 22  1  0  0  0  0
  8  9  2  0  0  0  0
  8 25  1  0  0  0  0
  9 26  1  0  0  0  0
 10 27  1  0  0  0  0
 11 27  2  0  0  0  0
 12 28  1  0  0  0  0
 13 14  2  0  0  0  0
 13 29  1  0  0  0  0
 14 30  1  0  0  0  0
 15 19  1  0  0  0  0
 15 25  2  0  0  0  0
 16 24  1  0  0  0  0
 16 28  2  0  0  0  0
 17 30  2  0  0  0  0
 17 31  1  0  0  0  0
 18 32  1  0  0  0  0
 19 26  2  0  0  0  0
 19 34  1  0  0  0  0
 20 32  1  0  0  0  0
 20 33  2  0  0  0  0
 20 35  1  0  0  0  0
 21 23  2  0  0  0  0
 21 41  1  0  0  0  0
 22 24  2  0  0  0  0
 22 42  1  0  0  0  0
 23 50  1  0  0  0  0
 24 43  1  0  0  0  0
 25 72  1  0  0  0  0
 26 69  1  0  0  0  0
 27 84  1  0  0  0  0
 28 85  1  0  0  0  0
 29 31  2  0  0  0  0
 29 84  1  0  0  0  0
 30 86  1  0  0  0  0
 31 87  1  0  0  0  0
 32 65  2  0  0  0  0
 33 66  1  0  0  0  0
 33 70  1  0  0  0  0
 34 73  1  0  0  0  0
 34 77  2  0  0  0  0
 35 71  1  0  0  0  0
 35 78  2  0  0  0  0
 36 51  1  0  0  0  0
 36 74  1  0  0  0  0
 36 79  2  0  0  0  0
 37 58  1  0  0  0  0
 37 68  1  0  0  0  0
 37 80  2  0  0  0  0
 38 62  1  0  0  0  0
 38 67  1  0  0  0  0
 38 81  2  0  0  0  0
 39 59  1  0  0  0  0
 39 72  1  0  0  0  0
 39 82  2  0  0  0  0
 40 63  1  0  0  0  0
 40 75  1  0  0  0  0
 40 83  2  0  0  0  0
 41 44  1  0  0  0  0
 42 51  1  0  0  0  0
 43 67  1  0  0  0  0
 44 46  1  0  0  0  0
 45 47  1  0  0  0  0
 45 48  1  0  0  0  0
 46 50  1  0  0  0  0
 47 52  1  0  0  0  0
 48 68  1  0  0  0  0
 49 52  1  0  0  0  0
 49 68  1  0  0  0  0
 50 74  1  0  0  0  0
 51 67  1  0  0  0  0
 52 66  1  0  0  0  0
 53 63  1  0  0  0  0
 54 64  1  0  0  0  0
 55 64  1  0  0  0  0
 56 64  1  0  0  0  0
 57 76  1  0  0  0  0
 58 60  1  0  0  0  0
 59 61  1  0  0  0  0
 60 73  1  0  0  0  0
 61 85  1  0  0  0  0
 62 64  1  0  0  0  0
 62 75  1  0  0  0  0
 63 76  1  0  0  0  0
 65 66  1  0  0  0  0
M  CHG  1  76   1
M  ISO  4  37 100  58 100  61 101  85 101
M  END
> <Batch ID>
0106

> <Smiles>
CNC(C)C(=O)NC(C(=O)N1Cc2cc([101O:1][101CH2:1]CC(=O)Nc3ccc(N)c(C(=O)NC[100CH2:0][100C:0](=O)N4CCCC(n5nc(-c6ccc(Oc7ccc(F)cc7F)cc6)c(C(N)=O)c5N)C4)c3)ccc2CC1C(=O)NC1CCCc2ccccc21)C(C)(C)C

> <Shape>
0.203

> <Color>
0.082

> <Negative vol penalty>
0.000

$$$$

  -OEChem-04052301143D

 87 96  0     1  0  0  0  0  0999 V2000
  -19.7485  -27.5967   22.6709 C   0  0  0  0  0  0  0  0  0  0  0  0
  -20.0676  -26.2524   22.8338 C   0  0  0  0  0  0  0  0  0  0  0  0
  -28.6619  -13.0728   20.9415 C   0  0  0  0  0  0  0  0  0  0  0  0
  -28.1066  -12.8681   18.5991 C   0  0  0  0  0  0  0  0  0  0  0  0
  -20.2256  -28.2959   21.5631 C   0  0  0  0  0  0  0  0  0  0  0  0
  -20.8631  -25.6063   21.8882 C   0  0  0  0  0  0  0  0  0  0  0  0
  -24.4528  -22.7312   24.0079 C   0  0  0  0  0  0  0  0  0  0  0  0
  -23.2053  -13.1280   25.4636 C   0  0  0  0  0  0  0  0  0  0  0  0
  -23.4810  -11.7655   25.5785 C   0  0  0  0  0  0  0  0  0  0  0  0
  -30.0118  -13.1919   20.6112 C   0  0  0  0  0  0  0  0  0  0  0  0
  -29.4565  -12.9873   18.2687 C   0  0  0  0  0  0  0  0  0  0  0  0
  -24.0604  -21.4926   24.5135 C   0  0  0  0  0  0  0  0  0  0  0  0
  -32.0888  -15.5926   19.4469 C   0  0  0  0  0  0  0  0  0  0  0  0
  -32.8265  -16.5903   20.0840 C   0  0  0  0  0  0  0  0  0  0  0  0
  -24.8981  -20.4208   22.5214 C   0  0  0  0  0  0  0  0  0  0  0  0
  -21.6251  -11.2666   24.1142 C   0  0  0  0  0  0  0  0  0  0  0  0
  -34.3051  -14.9129   20.9990 C   0  0  0  0  0  0  0  0  0  0  0  0
  -27.7093  -12.9108   19.9355 C   0  0  0  0  0  0  0  0  0  0  0  0
  -25.3761  -13.8281   20.4075 C   0  0  0  0  0  0  0  0  0  0  0  0
  -21.0353  -27.6606   20.6085 C   0  0  0  0  0  0  0  0  0  0  0  0
  -25.0619  -22.8252   22.7484 C   0  0  0  0  0  0  0  0  0  0  0  0
  -21.3504  -26.2974   20.7659 C   0  0  0  0  0  0  0  0  0  0  0  0
  -25.2995  -21.6615   22.0032 C   0  0  0  0  0  0  0  0  0  0  0  0
  -22.1395  -13.5598   24.6741 C   0  0  0  0  0  0  0  0  0  0  0  0
  -22.6909  -10.8348   24.9037 C   0  0  0  0  0  0  0  0  0  0  0  0
  -30.4091  -13.1492   19.2748 C   0  0  0  0  0  0  0  0  0  0  0  0
  -24.2804  -20.3374   23.7690 C   0  0  0  0  0  0  0  0  0  0  0  0
  -32.4592  -14.2550   19.5858 C   0  0  0  0  0  0  0  0  0  0  0  0
  -33.9346  -16.2505   20.8600 C   0  0  0  0  0  0  0  0  0  0  0  0
  -21.3495  -12.6292   23.9994 C   0  0  0  0  0  0  0  0  0  0  0  0
  -33.5673  -13.9151   20.3618 C   0  0  0  0  0  0  0  0  0  0  0  0
  -26.3147  -12.7871   20.2762 C   0  0  0  0  0  0  0  0  0  0  0  0
  -24.2041  -13.1937   20.7399 C   0  0  0  0  0  0  0  0  0  0  0  0
  -22.7665  -15.8719   24.0570 C   0  0  0  0  0  0  0  0  0  0  0  0
  -22.5341  -17.1884   23.9205 C   0  0  0  0  0  0  0  0  0  0  0  0
  -25.5483  -15.2420   20.2436 C   0  0  0  0  0  0  0  0  0  0  0  0
  -24.3258  -24.2444   20.0010 C   0  0  0  0  0  0  0  0  0  0  0  0
  -27.2832  -23.2317   19.1347 C   0  0  0  0  0  0  0  0  0  0  0  0
  -29.8429  -21.0241   19.6053 C   0  0  0  0  0  0  0  0  0  0  0  0
  -22.7042   -8.4941   24.0027 C   0  0  0  0  0  0  0  0  0  0  0  0
  -21.4884  -28.4454   19.4029 C   0  0  0  0  0  0  0  0  0  0  0  0
  -25.5035  -24.1659   22.2288 C   0  0  0  0  0  0  0  0  0  0  0  0
  -25.9682  -21.7062   20.6543 C   0  0  0  0  0  0  0  0  0  0  0  0
  -21.2226  -17.7734   24.3738 C   0  0  0  0  0  0  0  0  0  0  0  0
  -22.6350  -27.7850   18.6418 C   0  0  0  0  0  0  0  0  0  0  0  0
  -20.4766  -16.8441   25.3347 C   0  0  0  0  0  0  0  0  0  0  0  0
  -22.4466   -8.6028   20.3129 C   0  0  0  0  0  0  0  0  0  0  0  0
  -22.3522  -26.3007   18.4330 C   0  0  0  0  0  0  0  0  0  0  0  0
  -23.3994   -9.7370   19.9395 C   0  0  0  0  0  0  0  0  0  0  0  0
  -20.4848  -15.3845   24.8679 C   0  0  0  0  0  0  0  0  0  0  0  0
  -22.8698   -7.9097   21.6045 C   0  0  0  0  0  0  0  0  0  0  0  0
  -23.9812   -9.9824   22.3855 C   0  0  0  0  0  0  0  0  0  0  0  0
  -22.2311  -25.5680   19.7747 C   0  0  1  0  0  0  0  0  0  0  0  0
  -25.6495  -24.1998   20.7106 C   0  0  1  0  0  0  0  0  0  0  0  0
  -23.5538  -10.7228   21.1093 C   0  0  1  0  0  0  0  0  0  0  0  0
  -22.0885   -8.7141   27.2077 C   0  0  0  0  0  0  0  0  0  0  0  0
  -32.1129  -20.4224   18.7209 C   0  0  0  0  0  0  0  0  0  0  0  0
  -25.9862  -21.9245   16.7018 C   0  0  0  0  0  0  0  0  0  0  0  0
  -28.0764  -20.5806   16.3965 C   0  0  0  0  0  0  0  0  0  0  0  0
  -28.1608  -23.0686   16.2362 C   0  0  0  0  0  0  0  0  0  0  0  0
  -31.1292  -21.5560   22.2171 C   0  0  0  0  0  0  0  0  0  0  0  0
  -23.5262  -18.1291   23.3102 C   0  0  0  0  0  0  0  0  0  1  0  0
  -23.3191   -8.9060   26.3445 C   0  0  0  0  0  0  0  0  0  0  0  0
  -27.8411  -21.9824   18.4967 C   0  0  1  0  0  0  0  0  0  0  0  0
  -31.3396  -21.2331   19.7493 C   0  0  2  0  0  0  0  0  0  0  0  0
  -27.5017  -21.8880   16.9823 C   0  0  0  0  0  0  0  0  0  0  0  0
  -25.7848  -11.5829   20.5066 N   0  0  0  0  0  0  0  0  0  0  0  0
  -24.5005  -11.8632   20.7860 N   0  0  0  0  0  0  0  0  0  0  0  0
  -21.8605  -14.9475   24.5604 N   0  0  0  0  0  0  0  0  0  0  0  0
  -26.3760  -23.0413   20.1866 N   0  0  0  0  0  0  0  0  0  0  0  0
  -23.0713   -8.8670   22.6933 N   0  0  0  0  0  0  0  0  0  0  0  0
  -22.9593  -13.6498   20.9944 N   0  0  0  0  0  0  0  0  0  0  0  0
  -26.8185  -15.7252   19.9010 N   0  0  0  0  0  0  0  0  0  0  0  0
  -23.5417  -25.3303   20.3408 N   0  0  0  0  0  0  0  0  0  0  0  0
  -29.2702  -21.9775   18.7902 N   0  0  0  0  0  0  0  0  0  0  0  0
  -22.9761   -9.4258   25.0226 N   0  0  0  0  0  0  0  0  0  0  0  0
  -31.7917  -20.8218   21.1085 N   0  3  0  0  0  0  0  0  0  0  0  0
  -24.6075  -16.0543   20.4124 O   0  0  0  0  0  0  0  0  0  0  0  0
  -24.0378  -23.3599   19.2032 O   0  0  0  0  0  0  0  0  0  0  0  0
  -27.6446  -24.3357   18.7199 O   0  0  0  0  0  0  0  0  0  0  0  0
  -29.2425  -20.1048   20.1575 O   0  0  0  0  0  0  0  0  0  0  0  0
  -22.2186   -7.3845   24.2552 O   0  0  0  0  0  0  0  0  0  0  0  0
  -31.7262  -13.2657   18.9520 O   0  0  0  0  0  0  0  0  0  0  0  0
  -23.8978  -19.1273   24.2599 O   0  0  0  0  0  0  0  0  0  1  0  0
  -34.6439  -17.2088   21.4706 F   0  0  0  0  0  0  0  0  0  0  0  0
  -20.3219  -13.0335   23.2391 F   0  0  0  0  0  0  0  0  0  0  0  0
  -33.9287  -12.6319   20.4981 F   0  0  0  0  0  0  0  0  0  0  0  0
  1  2  1  0  0  0  0
  1  5  2  0  0  0  0
  2  6  2  0  0  0  0
  3 10  2  0  0  0  0
  3 18  1  0  0  0  0
  4 11  1  0  0  0  0
  4 18  2  0  0  0  0
  5 20  1  0  0  0  0
  6 22  1  0  0  0  0
  7 12  2  0  0  0  0
  7 21  1  0  0  0  0
  8  9  2  0  0  0  0
  8 24  1  0  0  0  0
  9 25  1  0  0  0  0
 10 26  1  0  0  0  0
 11 26  2  0  0  0  0
 12 27  1  0  0  0  0
 13 14  2  0  0  0  0
 13 28  1  0  0  0  0
 14 29  1  0  0  0  0
 15 23  1  0  0  0  0
 15 27  2  0  0  0  0
 16 25  2  0  0  0  0
 16 30  1  0  0  0  0
 17 29  2  0  0  0  0
 17 31  1  0  0  0  0
 18 32  1  0  0  0  0
 19 32  1  0  0  0  0
 19 33  2  0  0  0  0
 19 36  1  0  0  0  0
 20 22  2  0  0  0  0
 20 41  1  0  0  0  0
 21 23  2  0  0  0  0
 21 42  1  0  0  0  0
 22 53  1  0  0  0  0
 23 43  1  0  0  0  0
 24 30  2  0  0  0  0
 24 69  1  0  0  0  0
 25 76  1  0  0  0  0
 26 83  1  0  0  0  0
 27 84  1  0  0  0  0
 28 31  2  0  0  0  0
 28 83  1  0  0  0  0
 29 85  1  0  0  0  0
 30 86  1  0  0  0  0
 31 87  1  0  0  0  0
 32 67  2  0  0  0  0
 33 68  1  0  0  0  0
 33 72  1  0  0  0  0
 34 35  2  0  0  0  0
 34 69  1  0  0  0  0
 35 44  1  0  0  0  0
 35 62  1  0  0  0  0
 36 73  1  0  0  0  0
 36 78  2  0  0  0  0
 37 54  1  0  0  0  0
 37 74  1  0  0  0  0
 37 79  2  0  0  0  0
 38 64  1  0  0  0  0
 38 70  1  0  0  0  0
 38 80  2  0  0  0  0
 39 65  1  0  0  0  0
 39 75  1  0  0  0  0
 39 81  2  0  0  0  0
 40 71  1  0  0  0  0
 40 76  1  0  0  0  0
 40 82  2  0  0  0  0
 41 45  1  0  0  0  0
 42 54  1  0  0  0  0
 43 70  1  0  0  0  0
 44 46  1  0  0  0  0
 45 48  1  0  0  0  0
 46 50  1  0  0  0  0
 47 49  1  0  0  0  0
 47 51  1  0  0  0  0
 48 53  1  0  0  0  0
 49 55  1  0  0  0  0
 50 69  1  0  0  0  0
 51 71  1  0  0  0  0
 52 55  1  0  0  0  0
 52 71  1  0  0  0  0
 53 74  1  0  0  0  0
 54 70  1  0  0  0  0
 55 68  1  0  0  0  0
 56 63  1  0  0  0  0
 57 65  1  0  0  0  0
 58 66  1  0  0  0  0
 59 66  1  0  0  0  0
 60 66  1  0  0  0  0
 61 77  1  0  0  0  0
 62 84  1  0  0  0  0
 63 76  1  0  0  0  0
 64 66  1  0  0  0  0
 64 75  1  0  0  0  0
 65 77  1  0  0  0  0
 67 68  1  0  0  0  0
M  CHG  1  77   1
M  ISO  4  40 100  62 101  76 100  84 101
M  END
> <Batch ID>
0106

> <Smiles>
CC[100N:0](c1ccc(N2C=C([101CH2:1][101O:1]c3ccc4c(c3)CN(C(=O)C(NC(=O)C(C)NC)C(C)(C)C)C(C(=O)NC3CCCc5ccccc53)C4)CCC2)c(F)c1)[100C:0](=O)N1CCCC(n2nc(-c3ccc(Oc4ccc(F)cc4F)cc3)c(C(N)=O)c2N)C1

> <Shape>
0.181

> <Color>
0.114

> <Negative vol penalty>
0.000

$$$$

  -OEChem-04052301143D

 87 96  0     1  0  0  0  0  0999 V2000
  -16.9274  -29.9971   23.4124 C   0  0  0  0  0  0  0  0  0  0  0  0
  -18.1863  -30.5616   23.2339 C   0  0  0  0  0  0  0  0  0  0  0  0
  -25.1612  -13.7506   21.9696 C   0  0  0  0  0  0  0  0  0  0  0  0
  -25.6704  -14.1715   19.6457 C   0  0  0  0  0  0  0  0  0  0  0  0
  -16.7856  -28.6107   23.4524 C   0  0  0  0  0  0  0  0  0  0  0  0
  -19.3044  -29.7399   23.0963 C   0  0  0  0  0  0  0  0  0  0  0  0
  -25.6480  -29.4533   19.7807 C   0  0  0  0  0  0  0  0  0  0  0  0
  -24.2225  -12.7913   21.5902 C   0  0  0  0  0  0  0  0  0  0  0  0
  -24.7317  -13.2121   19.2663 C   0  0  0  0  0  0  0  0  0  0  0  0
  -26.9987  -29.2444   20.0559 C   0  0  0  0  0  0  0  0  0  0  0  0
  -24.2301   -9.5760   20.5438 C   0  0  0  0  0  0  0  0  0  0  0  0
  -24.2304   -8.3618   21.2303 C   0  0  0  0  0  0  0  0  0  0  0  0
  -26.6228  -26.8616   20.0616 C   0  0  0  0  0  0  0  0  0  0  0  0
  -29.7399  -23.4630   16.5880 C   0  0  0  0  0  0  0  0  0  0  0  0
  -28.6896  -23.3924   18.7626 C   0  0  0  0  0  0  0  0  0  0  0  0
  -21.9521   -8.7572   21.9304 C   0  0  0  0  0  0  0  0  0  0  0  0
  -25.8851  -14.4408   20.9974 C   0  0  0  0  0  0  0  0  0  0  0  0
  -28.2223  -15.2269   21.6509 C   0  0  0  0  0  0  0  0  0  0  0  0
  -17.9013  -27.7714   23.3056 C   0  0  0  0  0  0  0  0  0  0  0  0
  -24.7710  -28.3665   19.6545 C   0  0  0  0  0  0  0  0  0  0  0  0
  -19.1777  -28.3409   23.1357 C   0  0  0  0  0  0  0  0  0  0  0  0
  -25.2619  -27.0593   19.7823 C   0  0  0  0  0  0  0  0  0  0  0  0
  -29.5292  -24.0261   17.8466 C   0  0  0  0  0  0  0  0  0  0  0  0
  -28.2711  -21.6324   17.1613 C   0  0  0  0  0  0  0  0  0  0  0  0
  -29.1108  -22.2661   16.2453 C   0  0  0  0  0  0  0  0  0  0  0  0
  -28.0605  -22.1955   18.4199 C   0  0  0  0  0  0  0  0  0  0  0  0
  -24.0077  -12.5220   20.2386 C   0  0  0  0  0  0  0  0  0  0  0  0
  -27.4857  -27.9485   20.1993 C   0  0  0  0  0  0  0  0  0  0  0  0
  -23.0909  -10.3809   20.5506 C   0  0  0  0  0  0  0  0  0  0  0  0
  -23.0914   -7.9523   21.9235 C   0  0  0  0  0  0  0  0  0  0  0  0
  -21.9519   -9.9714   21.2439 C   0  0  0  0  0  0  0  0  0  0  0  0
  -26.8546  -15.4324   21.3886 C   0  0  0  0  0  0  0  0  0  0  0  0
  -28.6996  -16.4720   21.9801 C   0  0  0  0  0  0  0  0  0  0  0  0
  -28.9926  -14.0186   21.6013 C   0  0  0  0  0  0  0  0  0  0  0  0
  -22.1841  -27.3786   21.2153 C   0  0  0  0  0  0  0  0  0  0  0  0
  -22.0717  -25.1711   18.8411 C   0  0  0  0  0  0  0  0  0  0  0  0
  -23.5872  -22.8264   16.5556 C   0  0  0  0  0  0  0  0  0  0  0  0
  -26.9050  -22.0144   20.6511 C   0  0  0  0  0  0  0  0  0  0  0  0
  -17.7050  -26.2792   23.4029 C   0  0  0  0  0  0  0  0  0  0  0  0
  -23.3220  -28.6077   19.3310 C   0  0  0  0  0  0  0  0  0  0  0  0
  -24.3657  -25.8577   19.6359 C   0  0  0  0  0  0  0  0  0  0  0  0
  -18.8887  -25.4734   22.8742 C   0  0  0  0  0  0  0  0  0  0  0  0
  -27.3042  -20.6285   23.9065 C   0  0  0  0  0  0  0  0  0  0  0  0
  -33.3285  -25.0646   20.1916 C   0  0  0  0  0  0  0  0  0  0  0  0
  -20.2003  -26.0340   23.4149 C   0  0  0  0  0  0  0  0  0  0  0  0
  -27.3648  -19.1204   23.6535 C   0  0  0  0  0  0  0  0  0  0  0  0
  -32.9158  -26.5217   20.2815 C   0  0  0  0  0  0  0  0  0  0  0  0
  -26.3211  -21.3224   22.9653 C   0  0  0  0  0  0  0  0  0  0  0  0
  -26.5912  -19.5414   21.2847 C   0  0  0  0  0  0  0  0  0  0  0  0
  -32.4250  -24.5299   19.1030 C   0  0  0  0  0  0  0  0  0  0  0  0
  -20.4112  -27.4825   22.9579 C   0  0  1  0  0  0  0  0  0  0  0  0
  -22.4186  -27.4458   19.7326 C   0  0  1  0  0  0  0  0  0  0  0  0
  -27.6162  -18.8083   22.1652 C   0  0  2  0  0  0  0  0  0  0  0  0
  -31.3969  -26.5105   20.1107 C   0  0  2  0  0  0  0  0  0  0  0  0
  -27.5967  -20.3473   16.7927 C   0  0  0  0  0  0  0  0  0  0  0  0
  -22.5623  -21.4018   14.7620 C   0  0  0  0  0  0  0  0  0  0  0  0
  -21.9630  -23.0274   21.0097 C   0  0  0  0  0  0  0  0  0  0  0  0
  -22.5668  -21.3335   19.2678 C   0  0  0  0  0  0  0  0  0  0  0  0
  -20.4414  -22.6237   19.0665 C   0  0  0  0  0  0  0  0  0  0  0  0
  -25.3990  -23.9225   14.4880 C   0  0  0  0  0  0  0  0  0  0  0  0
  -30.2034  -25.3149   18.2148 C   0  0  0  0  0  0  0  0  0  0  0  0
  -30.6436  -26.5426   21.4327 C   0  0  0  0  0  0  0  0  0  0  0  0
  -29.1372  -26.5786   21.2249 C   0  0  0  0  0  0  0  0  0  1  0  0
  -22.6439  -23.7889   18.6385 C   0  0  1  0  0  0  0  0  0  0  0  0
  -23.3042  -22.6930   15.0702 C   0  0  2  0  0  0  0  0  0  0  0  0
  -21.9205  -22.7158   19.5004 C   0  0  0  0  0  0  0  0  0  0  0  0
  -26.4867  -16.7076   21.5385 N   0  0  0  0  0  0  0  0  0  0  0  0
  -27.6303  -17.3147   21.8986 N   0  0  0  0  0  0  0  0  0  0  0  0
  -22.9555  -26.1456   19.3259 N   0  0  0  0  0  0  0  0  0  0  0  0
  -26.6233  -20.9839   21.5728 N   0  0  0  0  0  0  0  0  0  0  0  0
  -29.3373  -21.7118   14.9660 N   0  0  0  0  0  0  0  0  0  0  0  0
  -29.9255  -16.9173   22.3286 N   0  0  0  0  0  0  0  0  0  0  0  0
  -28.3453  -12.8278   21.2446 N   0  0  0  0  0  0  0  0  0  0  0  0
  -27.2098  -21.5702   19.3649 N   0  0  0  0  0  0  0  0  0  0  0  0
  -20.8592  -27.5182   21.5822 N   0  0  0  0  0  0  0  0  0  0  0  0
  -22.5962  -23.5337   17.2029 N   0  0  0  0  0  0  0  0  0  0  0  0
  -31.0988  -25.1884   19.4064 N   0  3  1  0  0  0  0  0  0  0  0  0
  -24.5785  -22.6988   14.2975 N   0  3  0  0  0  0  0  0  0  0  0  0
  -30.2150  -13.9928   21.8814 O   0  0  0  0  0  0  0  0  0  0  0  0
  -23.1346  -27.2109   21.9703 O   0  0  0  0  0  0  0  0  0  0  0  0
  -20.8862  -25.3802   18.5721 O   0  0  0  0  0  0  0  0  0  0  0  0
  -24.5856  -22.3477   17.0891 O   0  0  0  0  0  0  0  0  0  0  0  0
  -26.9046  -23.2020   20.9854 O   0  0  0  0  0  0  0  0  0  0  0  0
  -23.0919  -11.5857   19.8680 O   0  0  0  0  0  0  0  0  0  0  0  0
  -28.8035  -27.7418   20.4686 O   0  0  0  0  0  0  0  0  0  1  0  0
  -23.0913   -6.7856   22.5815 F   0  0  0  0  0  0  0  0  0  0  0  0
  -20.8540  -10.7398   21.2531 F   0  0  0  0  0  0  0  0  0  0  0  0
  1  2  1  0  0  0  0
  1  5  2  0  0  0  0
  2  6  2  0  0  0  0
  3  8  2  0  0  0  0
  3 17  1  0  0  0  0
  4  9  1  0  0  0  0
  4 17  2  0  0  0  0
  5 19  1  0  0  0  0
  6 21  1  0  0  0  0
  7 10  2  0  0  0  0
  7 20  1  0  0  0  0
  8 27  1  0  0  0  0
  9 27  2  0  0  0  0
 10 28  1  0  0  0  0
 11 12  2  0  0  0  0
 11 29  1  0  0  0  0
 12 30  1  0  0  0  0
 13 22  1  0  0  0  0
 13 28  2  0  0  0  0
 14 23  1  0  0  0  0
 14 25  2  0  0  0  0
 15 23  2  0  0  0  0
 15 26  1  0  0  0  0
 16 30  2  0  0  0  0
 16 31  1  0  0  0  0
 17 32  1  0  0  0  0
 18 32  1  0  0  0  0
 18 33  2  0  0  0  0
 18 34  1  0  0  0  0
 19 21  2  0  0  0  0
 19 39  1  0  0  0  0
 20 22  2  0  0  0  0
 20 40  1  0  0  0  0
 21 51  1  0  0  0  0
 22 41  1  0  0  0  0
 23 61  1  0  0  0  0
 24 25  1  0  0  0  0
 24 26  2  0  0  0  0
 24 55  1  0  0  0  0
 25 71  1  0  0  0  0
 26 74  1  0  0  0  0
 27 84  1  0  0  0  0
 28 85  1  0  0  0  0
 29 31  2  0  0  0  0
 29 84  1  0  0  0  0
 30 86  1  0  0  0  0
 31 87  1  0  0  0  0
 32 67  2  0  0  0  0
 33 68  1  0  0  0  0
 33 72  1  0  0  0  0
 34 73  1  0  0  0  0
 34 79  2  0  0  0  0
 35 52  1  0  0  0  0
 35 75  1  0  0  0  0
 35 80  2  0  0  0  0
 36 64  1  0  0  0  0
 36 69  1  0  0  0  0
 36 81  2  0  0  0  0
 37 65  1  0  0  0  0
 37 76  1  0  0  0  0
 37 82  2  0  0  0  0
 38 70  1  0  0  0  0
 38 74  1  0  0  0  0
 38 83  2  0  0  0  0
 39 42  1  0  0  0  0
 40 52  1  0  0  0  0
 41 69  1  0  0  0  0
 42 45  1  0  0  0  0
 43 46  1  0  0  0  0
 43 48  1  0  0  0  0
 44 47  1  0  0  0  0
 44 50  1  0  0  0  0
 45 51  1  0  0  0  0
 46 53  1  0  0  0  0
 47 54  1  0  0  0  0
 48 70  1  0  0  0  0
 49 53  1  0  0  0  0
 49 70  1  0  0  0  0
 50 77  1  0  0  0  0
 51 75  1  0  0  0  0
 52 69  1  0  0  0  0
 53 68  1  0  0  0  0
 54 62  1  0  0  0  0
 54 77  1  0  0  0  0
 56 65  1  0  0  0  0
 57 66  1  0  0  0  0
 58 66  1  0  0  0  0
 59 66  1  0  0  0  0
 60 78  1  0  0  0  0
 61 77  1  0  0  0  0
 62 63  1  0  0  0  0
 63 85  1  0  0  0  0
 64 66  1  0  0  0  0
 64 76  1  0  0  0  0
 65 78  1  0  0  0  0
 67 68  1  0  0  0  0
M  CHG  2  77   1  78   1
M  ISO  4  38 100  63 101  74 100  85 101
M  END
> <Batch ID>
0106

> <Smiles>
CNC(C)C(=O)NC(C(=O)N1Cc2cc([101O:1][101CH2:1]CC3CCCN3Cc3cc(N)c(C)c([100NH:0][100C:0](=O)N4CCCC(n5nc(-c6ccc(Oc7ccc(F)cc7F)cc6)c(C(N)=O)c5N)C4)c3)ccc2CC1C(=O)NC1CCCc2ccccc21)C(C)(C)C

> <Shape>
0.267

> <Color>
0.071

> <Negative vol penalty>
0.000

$$$$

  -OEChem-04052301143D

 84 92  0     1  0  0  0  0  0999 V2000
  -17.0918  -26.5989   20.7937 C   0  0  0  0  0  0  0  0  0  0  0  0
  -18.1395  -27.0146   19.9783 C   0  0  0  0  0  0  0  0  0  0  0  0
  -25.3152  -17.2818   21.8622 C   0  0  0  0  0  0  0  0  0  0  0  0
  -24.7567  -17.7914   19.5676 C   0  0  0  0  0  0  0  0  0  0  0  0
  -16.9278  -27.1633   22.0580 C   0  0  0  0  0  0  0  0  0  0  0  0
  -19.0233  -27.9957   20.4264 C   0  0  0  0  0  0  0  0  0  0  0  0
  -23.8602  -26.8321   19.4802 C   0  0  0  0  0  0  0  0  0  0  0  0
  -24.3023  -16.3235   21.8960 C   0  0  0  0  0  0  0  0  0  0  0  0
  -23.7437  -16.8331   19.6013 C   0  0  0  0  0  0  0  0  0  0  0  0
  -24.3183  -27.0246   18.1776 C   0  0  0  0  0  0  0  0  0  0  0  0
  -22.0995  -13.4897   22.4726 C   0  0  0  0  0  0  0  0  0  0  0  0
  -22.3953  -12.2533   23.0466 C   0  0  0  0  0  0  0  0  0  0  0  0
  -25.3362  -29.1058   18.8496 C   0  0  0  0  0  0  0  0  0  0  0  0
  -29.5952  -27.0064   17.3780 C   0  0  0  0  0  0  0  0  0  0  0  0
  -31.3031  -25.6016   15.6773 C   0  0  0  0  0  0  0  0  0  0  0  0
  -24.1370  -11.9093   21.4079 C   0  0  0  0  0  0  0  0  0  0  0  0
  -25.5424  -18.0158   20.6980 C   0  0  0  0  0  0  0  0  0  0  0  0
  -27.9322  -18.8106   20.2919 C   0  0  0  0  0  0  0  0  0  0  0  0
  -17.8157  -28.1449   22.5257 C   0  0  0  0  0  0  0  0  0  0  0  0
  -24.1278  -27.7819   20.4765 C   0  0  0  0  0  0  0  0  0  0  0  0
  -18.8702  -28.5747   21.6976 C   0  0  0  0  0  0  0  0  0  0  0  0
  -24.8826  -28.9217   20.1646 C   0  0  0  0  0  0  0  0  0  0  0  0
  -30.1677  -27.6474   16.2794 C   0  0  0  0  0  0  0  0  0  0  0  0
  -29.8767  -25.6630   17.6263 C   0  0  0  0  0  0  0  0  0  0  0  0
  -31.0216  -26.9450   15.4291 C   0  0  0  0  0  0  0  0  0  0  0  0
  -23.5165  -16.0991   20.7655 C   0  0  0  0  0  0  0  0  0  0  0  0
  -25.0540  -28.1630   17.8614 C   0  0  0  0  0  0  0  0  0  0  0  0
  -22.8224  -13.9359   21.3663 C   0  0  0  0  0  0  0  0  0  0  0  0
  -23.4141  -11.4631   22.5143 C   0  0  0  0  0  0  0  0  0  0  0  0
  -30.7306  -24.9605   16.7760 C   0  0  0  0  0  0  0  0  0  0  0  0
  -23.8412  -13.1457   20.8340 C   0  0  0  0  0  0  0  0  0  0  0  0
  -26.5883  -19.0063   20.6627 C   0  0  0  0  0  0  0  0  0  0  0  0
  -28.5092  -20.0498   20.4258 C   0  0  0  0  0  0  0  0  0  0  0  0
  -28.5993  -17.6156   19.8645 C   0  0  0  0  0  0  0  0  0  0  0  0
  -22.3467  -29.6599   22.3217 C   0  0  0  0  0  0  0  0  0  0  0  0
  -27.4738  -28.6160   15.2079 C   0  0  0  0  0  0  0  0  0  0  0  0
  -25.2011  -30.3620   23.6935 C   0  0  0  0  0  0  0  0  0  0  0  0
  -28.5978  -30.5123   23.3996 C   0  0  0  0  0  0  0  0  0  0  0  0
  -28.4259  -25.5675   19.6836 C   0  0  0  0  0  0  0  0  0  0  0  0
  -17.5701  -28.7596   23.8808 C   0  0  0  0  0  0  0  0  0  0  0  0
  -23.6494  -27.5465   21.8829 C   0  0  0  0  0  0  0  0  0  0  0  0
  -25.2142  -29.9616   21.2025 C   0  0  0  0  0  0  0  0  0  0  0  0
  -18.7715  -29.5250   24.4293 C   0  0  0  0  0  0  0  0  0  0  0  0
  -26.7467  -24.2916   22.5524 C   0  0  0  0  0  0  0  0  0  0  0  0
  -19.3610  -30.4339   23.3554 C   0  0  0  0  0  0  0  0  0  0  0  0
  -26.6664  -22.7867   22.2860 C   0  0  0  0  0  0  0  0  0  0  0  0
  -26.5709  -25.1046   21.2710 C   0  0  0  0  0  0  0  0  0  0  0  0
  -27.3871  -23.2249   19.9036 C   0  0  0  0  0  0  0  0  0  0  0  0
  -19.8643  -29.6187   22.1580 C   0  0  1  0  0  0  0  0  0  0  0  0
  -23.5409  -28.8302   22.7000 C   0  0  1  0  0  0  0  0  0  0  0  0
  -27.6233  -22.3628   21.1545 C   0  0  2  0  0  0  0  0  0  0  0  0
  -30.6586  -31.1625   24.6754 C   0  0  0  0  0  0  0  0  0  0  0  0
  -24.5645  -33.3076   23.2156 C   0  0  0  0  0  0  0  0  0  0  0  0
  -26.9822  -33.8226   23.6123 C   0  0  0  0  0  0  0  0  0  0  0  0
  -25.6089  -32.8125   25.4334 C   0  0  0  0  0  0  0  0  0  0  0  0
  -29.6926  -27.7663   23.2583 C   0  0  0  0  0  0  0  0  0  0  0  0
  -29.8459  -29.1022   16.0345 C   0  0  0  0  0  0  0  0  0  0  0  0
  -28.7976  -29.3180   14.9414 C   0  0  0  0  0  0  0  0  0  0  0  0
  -26.7152  -29.0878   16.4328 C   0  0  0  0  0  0  0  0  0  1  0  0
  -26.2786  -31.3915   23.4524 C   0  0  1  0  0  0  0  0  0  0  0  0
  -29.7102  -30.0302   24.3132 C   0  0  2  0  0  0  0  0  0  0  0  0
  -25.8508  -32.8151   23.9082 C   0  0  0  0  0  0  0  0  0  0  0  0
  -26.3270  -20.2702   21.0065 N   0  0  0  0  0  0  0  0  0  0  0  0
  -27.5147  -20.8800   20.8524 N   0  0  0  0  0  0  0  0  0  0  0  0
  -24.7187  -29.6893   22.5618 N   0  0  0  0  0  0  0  0  0  0  0  0
  -27.5130  -24.6503   20.2458 N   0  0  0  0  0  0  0  0  0  0  0  0
  -31.6105  -27.5777   14.3122 N   0  0  0  0  0  0  0  0  0  0  0  0
  -29.7652  -20.4994   20.2192 N   0  0  0  0  0  0  0  0  0  0  0  0
  -27.8575  -16.4293   19.7824 N   0  0  0  0  0  0  0  0  0  0  0  0
  -29.2939  -25.0140   18.7430 N   0  0  0  0  0  0  0  0  0  0  0  0
  -21.1385  -29.0047   22.4644 N   0  0  0  0  0  0  0  0  0  0  0  0
  -27.4787  -30.8883   24.1120 N   0  0  0  0  0  0  0  0  0  0  0  0
  -30.4966  -28.9531   23.6481 N   0  3  0  0  0  0  0  0  0  0  0  0
  -29.8209  -17.5968   19.5802 O   0  0  0  0  0  0  0  0  0  0  0  0
  -22.5093  -30.8098   21.9307 O   0  0  0  0  0  0  0  0  0  0  0  0
  -27.0232  -27.7465   14.4640 O   0  0  0  0  0  0  0  0  0  0  0  0
  -24.8071  -30.1571   24.8443 O   0  0  0  0  0  0  0  0  0  0  0  0
  -28.7117  -30.5547   22.1766 O   0  0  0  0  0  0  0  0  0  0  0  0
  -28.4550  -26.7506   20.0323 O   0  0  0  0  0  0  0  0  0  0  0  0
  -22.5281  -15.1640   20.7980 O   0  0  0  0  0  0  0  0  0  0  0  0
  -25.5018  -28.3536   16.5906 O   0  0  0  0  0  0  0  0  0  1  0  0
  -23.6990  -10.2765   23.0665 F   0  0  0  0  0  0  0  0  0  0  0  0
  -31.0082  -23.6690   17.0049 F   0  0  0  0  0  0  0  0  0  0  0  0
  -24.5400  -13.5696   19.7719 F   0  0  0  0  0  0  0  0  0  0  0  0
  1  2  1  0  0  0  0
  1  5  2  0  0  0  0
  2  6  2  0  0  0  0
  3  8  2  0  0  0  0
  3 17  1  0  0  0  0
  4  9  1  0  0  0  0
  4 17  2  0  0  0  0
  5 19  1  0  0  0  0
  6 21  1  0  0  0  0
  7 10  2  0  0  0  0
  7 20  1  0  0  0  0
  8 26  1  0  0  0  0
  9 26  2  0  0  0  0
 10 27  1  0  0  0  0
 11 12  2  0  0  0  0
 11 28  1  0  0  0  0
 12 29  1  0  0  0  0
 13 22  1  0  0  0  0
 13 27  2  0  0  0  0
 14 23  1  0  0  0  0
 14 24  2  0  0  0  0
 15 25  1  0  0  0  0
 15 30  2  0  0  0  0
 16 29  2  0  0  0  0
 16 31  1  0  0  0  0
 17 32  1  0  0  0  0
 18 32  1  0  0  0  0
 18 33  2  0  0  0  0
 18 34  1  0  0  0  0
 19 21  2  0  0  0  0
 19 40  1  0  0  0  0
 20 22  2  0  0  0  0
 20 41  1  0  0  0  0
 21 49  1  0  0  0  0
 22 42  1  0  0  0  0
 23 25  2  0  0  0  0
 23 57  1  0  0  0  0
 24 30  1  0  0  0  0
 24 70  1  0  0  0  0
 25 67  1  0  0  0  0
 26 80  1  0  0  0  0
 27 81  1  0  0  0  0
 28 31  2  0  0  0  0
 28 80  1  0  0  0  0
 29 82  1  0  0  0  0
 30 83  1  0  0  0  0
 31 84  1  0  0  0  0
 32 63  2  0  0  0  0
 33 64  1  0  0  0  0
 33 68  1  0  0  0  0
 34 69  1  0  0  0  0
 34 74  2  0  0  0  0
 35 50  1  0  0  0  0
 35 71  1  0  0  0  0
 35 75  2  0  0  0  0
 36 58  1  0  0  0  0
 36 59  1  0  0  0  0
 36 76  2  0  0  0  0
 37 60  1  0  0  0  0
 37 65  1  0  0  0  0
 37 77  2  0  0  0  0
 38 61  1  0  0  0  0
 38 72  1  0  0  0  0
 38 78  2  0  0  0  0
 39 66  1  0  0  0  0
 39 70  1  0  0  0  0
 39 79  2  0  0  0  0
 40 43  1  0  0  0  0
 41 50  1  0  0  0  0
 42 65  1  0  0  0  0
 43 45  1  0  0  0  0
 44 46  1  0  0  0  0
 44 47  1  0  0  0  0
 45 49  1  0  0  0  0
 46 51  1  0  0  0  0
 47 66  1  0  0  0  0
 48 51  1  0  0  0  0
 48 66  1  0  0  0  0
 49 71  1  0  0  0  0
 50 65  1  0  0  0  0
 51 64  1  0  0  0  0
 52 61  1  0  0  0  0
 53 62  1  0  0  0  0
 54 62  1  0  0  0  0
 55 62  1  0  0  0  0
 56 73  1  0  0  0  0
 57 58  1  0  0  0  0
 59 81  1  0  0  0  0
 60 62  1  0  0  0  0
 60 72  1  0  0  0  0
 61 73  1  0  0  0  0
 63 64  1  0  0  0  0
M  CHG  1  73   1
M  ISO  4  39 100  59 101  70 100  81 101
M  END
> <Batch ID>
0106

> <Smiles>
CNC(C)C(=O)NC(C(=O)N1Cc2cc([101O:1][101CH2:1]C(=O)CCc3cc([100NH:0][100C:0](=O)N4CCCC(n5nc(-c6ccc(Oc7ccc(F)cc7F)cc6)c(C(N)=O)c5N)C4)c(F)cc3N)ccc2CC1C(=O)NC1CCCc2ccccc21)C(C)(C)C

> <Shape>
0.267

> <Color>
0.086

> <Negative vol penalty>
0.000

$$$$

  -OEChem-04052301143D

 83 91  0     1  0  0  0  0  0999 V2000
  -29.9570  -23.0593   17.6726 C   0  0  0  0  0  0  0  0  0  0  0  0
  -28.6275  -23.3841   17.9221 C   0  0  0  0  0  0  0  0  0  0  0  0
  -28.2462  -14.7670   21.0549 C   0  0  0  0  0  0  0  0  0  0  0  0
  -26.0397  -15.5312   20.4350 C   0  0  0  0  0  0  0  0  0  0  0  0
  -30.9381  -23.3723   18.6124 C   0  0  0  0  0  0  0  0  0  0  0  0
  -28.2782  -24.0212   19.1123 C   0  0  0  0  0  0  0  0  0  0  0  0
  -25.0510  -27.8561   18.3886 C   0  0  0  0  0  0  0  0  0  0  0  0
  -21.9525  -22.9436   23.1194 C   0  0  0  0  0  0  0  0  0  0  0  0
  -27.8049  -13.4451   20.9964 C   0  0  0  0  0  0  0  0  0  0  0  0
  -25.5983  -14.2093   20.3764 C   0  0  0  0  0  0  0  0  0  0  0  0
  -23.7118  -27.5302   18.1783 C   0  0  0  0  0  0  0  0  0  0  0  0
  -21.2486  -23.1751   21.9376 C   0  0  0  0  0  0  0  0  0  0  0  0
  -27.3527   -9.8540   20.6585 C   0  0  0  0  0  0  0  0  0  0  0  0
  -28.1697   -8.9254   20.0135 C   0  0  0  0  0  0  0  0  0  0  0  0
  -23.2303  -28.0469   20.4849 C   0  0  0  0  0  0  0  0  0  0  0  0
  -23.9805  -23.7258   22.0649 C   0  0  0  0  0  0  0  0  0  0  0  0
  -28.0020  -10.1991   17.9674 C   0  0  0  0  0  0  0  0  0  0  0  0
  -27.3636  -15.8101   20.7742 C   0  0  0  0  0  0  0  0  0  0  0  0
  -28.3754  -17.9338   19.7875 C   0  0  0  0  0  0  0  0  0  0  0  0
  -30.6020  -24.0222   19.8105 C   0  0  0  0  0  0  0  0  0  0  0  0
  -25.4927  -28.2700   19.6534 C   0  0  0  0  0  0  0  0  0  0  0  0
  -29.2555  -24.3420   20.0697 C   0  0  0  0  0  0  0  0  0  0  0  0
  -24.5751  -28.3799   20.7080 C   0  0  0  0  0  0  0  0  0  0  0  0
  -23.3184  -23.2191   23.1831 C   0  0  0  0  0  0  0  0  0  0  0  0
  -23.2767  -23.9573   20.8830 C   0  0  0  0  0  0  0  0  0  0  0  0
  -26.4809  -13.1663   20.6572 C   0  0  0  0  0  0  0  0  0  0  0  0
  -22.8018  -27.6228   19.2273 C   0  0  0  0  0  0  0  0  0  0  0  0
  -21.9108  -23.6819   20.8194 C   0  0  0  0  0  0  0  0  0  0  0  0
  -26.8603  -10.9551   19.9578 C   0  0  0  0  0  0  0  0  0  0  0  0
  -28.4943   -9.0980   18.6680 C   0  0  0  0  0  0  0  0  0  0  0  0
  -27.1850  -11.1277   18.6123 C   0  0  0  0  0  0  0  0  0  0  0  0
  -27.8188  -17.1758   20.8350 C   0  0  0  0  0  0  0  0  0  0  0  0
  -28.6398  -19.1576   20.3520 C   0  0  0  0  0  0  0  0  0  0  0  0
  -28.6307  -17.5646   18.4258 C   0  0  0  0  0  0  0  0  0  0  0  0
  -27.5661  -27.1454   21.7842 C   0  0  0  0  0  0  0  0  0  0  0  0
  -26.9056  -29.9274   23.3160 C   0  0  0  0  0  0  0  0  0  0  0  0
  -24.7281  -32.5038   23.8333 C   0  0  0  0  0  0  0  0  0  0  0  0
  -26.3106  -22.0779   25.0316 C   0  0  0  0  0  0  0  0  0  0  0  0
  -31.6908  -24.2977   20.8171 C   0  0  0  0  0  0  0  0  0  0  0  0
  -26.9354  -28.6435   19.8571 C   0  0  0  0  0  0  0  0  0  0  0  0
  -24.9947  -28.8386   22.0798 C   0  0  0  0  0  0  0  0  0  0  0  0
  -31.2890  -25.3095   21.8873 C   0  0  0  0  0  0  0  0  0  0  0  0
  -29.7243  -21.1915   24.5447 C   0  0  0  0  0  0  0  0  0  0  0  0
  -29.9053  -24.9817   22.4391 C   0  0  0  0  0  0  0  0  0  0  0  0
  -29.6733  -20.1302   23.4442 C   0  0  0  0  0  0  0  0  0  0  0  0
  -28.5311  -21.0808   25.4913 C   0  0  0  0  0  0  0  0  0  0  0  0
  -27.1617  -20.0340   23.7298 C   0  0  0  0  0  0  0  0  0  0  0  0
  -28.8405  -25.0555   21.3381 C   0  0  1  0  0  0  0  0  0  0  0  0
  -27.3740  -28.5601   21.3159 C   0  0  1  0  0  0  0  0  0  0  0  0
  -28.3150  -20.1409   22.7174 C   0  0  2  0  0  0  0  0  0  0  0  0
  -24.4486  -34.6082   25.1714 C   0  0  0  0  0  0  0  0  0  0  0  0
  -26.2515  -28.2648   25.7895 C   0  0  0  0  0  0  0  0  0  0  0  0
  -25.0980  -30.2702   26.7467 C   0  0  0  0  0  0  0  0  0  0  0  0
  -27.5410  -30.3575   26.2502 C   0  0  0  0  0  0  0  0  0  0  0  0
  -24.5874  -34.1739   21.3941 C   0  0  0  0  0  0  0  0  0  0  0  0
  -24.0703  -22.9716   24.4470 C   0  0  0  0  0  0  0  0  0  0  0  0
  -19.9591  -25.5448   18.4186 C   0  0  0  0  0  0  0  0  0  0  0  0
  -21.2117  -26.3168   18.0348 C   0  0  0  0  0  0  0  0  0  1  0  0
  -20.1206  -24.8225   19.7470 C   0  0  0  0  0  0  0  0  0  0  0  0
  -25.8866  -30.3690   24.3385 C   0  0  1  0  0  0  0  0  0  0  0  0
  -24.9353  -34.0074   23.8619 C   0  0  2  0  0  0  0  0  0  0  0  0
  -26.1864  -29.8048   25.7560 C   0  0  0  0  0  0  0  0  0  0  0  0
  -27.7342  -17.8607   21.9786 N   0  0  0  0  0  0  0  0  0  0  0  0
  -28.2412  -19.0619   21.6529 N   0  0  0  0  0  0  0  0  0  0  0  0
  -26.4173  -29.1865   22.2305 N   0  0  0  0  0  0  0  0  0  0  0  0
  -27.2741  -21.0985   24.7393 N   0  0  0  0  0  0  0  0  0  0  0  0
  -23.9594  -24.4709   19.7587 N   0  0  0  0  0  0  0  0  0  0  0  0
  -29.1720  -20.2955   19.8577 N   0  0  0  0  0  0  0  0  0  0  0  0
  -28.2986  -16.2675   18.0117 N   0  0  0  0  0  0  0  0  0  0  0  0
  -28.4999  -26.4335   21.0558 N   0  0  0  0  0  0  0  0  0  0  0  0
  -25.8460  -31.8258   24.2715 N   0  0  0  0  0  0  0  0  0  0  0  0
  -25.1507  -22.0274   24.2681 N   0  0  0  0  0  0  0  0  0  0  0  0
  -24.1924  -34.6539   22.7434 N   0  3  0  0  0  0  0  0  0  0  0  0
  -29.1533  -18.3562   17.6049 O   0  0  0  0  0  0  0  0  0  0  0  0
  -26.9162  -26.7308   22.7368 O   0  0  0  0  0  0  0  0  0  0  0  0
  -28.0902  -30.2348   23.4710 O   0  0  0  0  0  0  0  0  0  0  0  0
  -23.6783  -31.9829   23.4630 O   0  0  0  0  0  0  0  0  0  0  0  0
  -26.4742  -22.9371   25.9044 O   0  0  0  0  0  0  0  0  0  0  0  0
  -26.0500  -11.8765   20.5998 O   0  0  0  0  0  0  0  0  0  0  0  0
  -21.4942  -27.3048   19.0250 O   0  0  0  0  0  0  0  0  0  1  0  0
  -21.2012  -23.9028   19.6678 O   0  0  0  0  0  0  0  0  0  0  0  0
  -29.2801   -8.2071   18.0492 F   0  0  0  0  0  0  0  0  0  0  0  0
  -26.7159  -12.1841   17.9343 F   0  0  0  0  0  0  0  0  0  0  0  0
  1  2  1  0  0  0  0
  1  5  2  0  0  0  0
  2  6  2  0  0  0  0
  3  9  2  0  0  0  0
  3 18  1  0  0  0  0
  4 10  1  0  0  0  0
  4 18  2  0  0  0  0
  5 20  1  0  0  0  0
  6 22  1  0  0  0  0
  7 11  2  0  0  0  0
  7 21  1  0  0  0  0
  8 12  2  0  0  0  0
  8 24  1  0  0  0  0
  9 26  1  0  0  0  0
 10 26  2  0  0  0  0
 11 27  1  0  0  0  0
 12 28  1  0  0  0  0
 13 14  2  0  0  0  0
 13 29  1  0  0  0  0
 14 30  1  0  0  0  0
 15 23  1  0  0  0  0
 15 27  2  0  0  0  0
 16 24  2  0  0  0  0
 16 25  1  0  0  0  0
 17 30  2  0  0  0  0
 17 31  1  0  0  0  0
 18 32  1  0  0  0  0
 19 32  1  0  0  0  0
 19 33  2  0  0  0  0
 19 34  1  0  0  0  0
 20 22  2  0  0  0  0
 20 39  1  0  0  0  0
 21 23  2  0  0  0  0
 21 40  1  0  0  0  0
 22 48  1  0  0  0  0
 23 41  1  0  0  0  0
 24 56  1  0  0  0  0
 25 28  2  0  0  0  0
 25 67  1  0  0  0  0
 26 79  1  0  0  0  0
 27 80  1  0  0  0  0
 28 81  1  0  0  0  0
 29 31  2  0  0  0  0
 29 79  1  0  0  0  0
 30 82  1  0  0  0  0
 31 83  1  0  0  0  0
 32 63  2  0  0  0  0
 33 64  1  0  0  0  0
 33 68  1  0  0  0  0
 34 69  1  0  0  0  0
 34 74  2  0  0  0  0
 35 49  1  0  0  0  0
 35 70  1  0  0  0  0
 35 75  2  0  0  0  0
 36 60  1  0  0  0  0
 36 65  1  0  0  0  0
 36 76  2  0  0  0  0
 37 61  1  0  0  0  0
 37 71  1  0  0  0  0
 37 77  2  0  0  0  0
 38 66  1  0  0  0  0
 38 72  1  0  0  0  0
 38 78  2  0  0  0  0
 39 42  1  0  0  0  0
 40 49  1  0  0  0  0
 41 65  1  0  0  0  0
 42 44  1  0  0  0  0
 43 45  1  0  0  0  0
 43 46  1  0  0  0  0
 44 48  1  0  0  0  0
 45 50  1  0  0  0  0
 46 66  1  0  0  0  0
 47 50  1  0  0  0  0
 47 66  1  0  0  0  0
 48 70  1  0  0  0  0
 49 65  1  0  0  0  0
 50 64  1  0  0  0  0
 51 61  1  0  0  0  0
 52 62  1  0  0  0  0
 53 62  1  0  0  0  0
 54 62  1  0  0  0  0
 55 73  1  0  0  0  0
 56 72  1  0  0  0  0
 57 58  1  0  0  0  0
 57 59  1  0  0  0  0
 58 80  1  0  0  0  0
 59 81  1  0  0  0  0
 60 62  1  0  0  0  0
 60 71  1  0  0  0  0
 61 73  1  0  0  0  0
 63 64  1  0  0  0  0
M  CHG  1  73   1
M  ISO  4  38 100  58 101  72 100  80 101
M  END
> <Batch ID>
0106

> <Smiles>
CNC(C)C(=O)NC(C(=O)N1Cc2cc([101O:1][101CH2:1]CCOc3ccc(C[100NH:0][100C:0](=O)N4CCCC(n5nc(-c6ccc(Oc7ccc(F)cc7F)cc6)c(C(N)=O)c5N)C4)cc3N)ccc2CC1C(=O)NC1CCCc2ccccc21)C(C)(C)C

> <Shape>
0.218

> <Color>
0.060

> <Negative vol penalty>
0.000

$$$$

  -OEChem-04052301143D

 86 95  0     1  0  0  0  0  0999 V2000
  -34.8750  -28.7405   18.4528 C   0  0  0  0  0  0  0  0  0  0  0  0
  -34.0881  -27.9070   19.2412 C   0  0  0  0  0  0  0  0  0  0  0  0
  -23.0042   -9.8970   19.8683 C   0  0  0  0  0  0  0  0  0  0  0  0
  -23.9738   -9.5634   22.0559 C   0  0  0  0  0  0  0  0  0  0  0  0
  -34.7977  -30.1237   18.6100 C   0  0  0  0  0  0  0  0  0  0  0  0
  -33.2242  -28.4562   20.1880 C   0  0  0  0  0  0  0  0  0  0  0  0
  -28.6451  -26.2945   20.1252 C   0  0  0  0  0  0  0  0  0  0  0  0
  -22.2747   -8.7168   20.0115 C   0  0  0  0  0  0  0  0  0  0  0  0
  -23.2443   -8.3831   22.1992 C   0  0  0  0  0  0  0  0  0  0  0  0
  -28.5196  -25.0508   20.7427 C   0  0  0  0  0  0  0  0  0  0  0  0
  -20.0778   -7.4926   22.9745 C   0  0  0  0  0  0  0  0  0  0  0  0
  -19.4325   -7.2751   24.1918 C   0  0  0  0  0  0  0  0  0  0  0  0
  -27.5808  -26.1197   22.6909 C   0  0  0  0  0  0  0  0  0  0  0  0
  -32.2251  -17.6868   24.5121 C   0  0  0  0  0  0  0  0  0  0  0  0
  -30.1531  -16.9469   23.5141 C   0  0  0  0  0  0  0  0  0  0  0  0
  -32.2647  -16.2044   22.6047 C   0  0  0  0  0  0  0  0  0  0  0  0
  -20.7166   -5.2537   24.5115 C   0  0  0  0  0  0  0  0  0  0  0  0
  -23.8538  -10.3203   20.8904 C   0  0  0  0  0  0  0  0  0  0  0  0
  -24.2093  -12.8362   21.1175 C   0  0  0  0  0  0  0  0  0  0  0  0
  -33.9254  -30.6905   19.5525 C   0  0  0  0  0  0  0  0  0  0  0  0
  -28.2489  -27.4631   20.7913 C   0  0  0  0  0  0  0  0  0  0  0  0
  -33.1362  -29.8483   20.3589 C   0  0  0  0  0  0  0  0  0  0  0  0
  -27.7000  -27.3767   22.0787 C   0  0  0  0  0  0  0  0  0  0  0  0
  -30.8306  -17.6877   24.4825 C   0  0  0  0  0  0  0  0  0  0  0  0
  -32.9422  -16.9451   23.5731 C   0  0  0  0  0  0  0  0  0  0  0  0
  -30.8701  -16.2052   22.5752 C   0  0  0  0  0  0  0  0  0  0  0  0
  -22.3947   -7.9599   21.1770 C   0  0  0  0  0  0  0  0  0  0  0  0
  -27.9901  -24.9635   22.0269 C   0  0  0  0  0  0  0  0  0  0  0  0
  -21.0425   -6.5906   22.5256 C   0  0  0  0  0  0  0  0  0  0  0  0
  -19.7519   -6.1557   24.9603 C   0  0  0  0  0  0  0  0  0  0  0  0
  -21.3619   -5.4712   23.2941 C   0  0  0  0  0  0  0  0  0  0  0  0
  -24.6080  -11.5391   20.7428 C   0  0  0  0  0  0  0  0  0  0  0  0
  -25.2708  -13.6355   20.7699 C   0  0  0  0  0  0  0  0  0  0  0  0
  -27.7855  -21.5789   25.3081 C   0  0  0  0  0  0  0  0  0  0  0  0
  -28.4914  -22.3925   24.5050 C   0  0  0  0  0  0  0  0  0  0  0  0
  -22.9887  -13.2789   21.7256 C   0  0  0  0  0  0  0  0  0  0  0  0
  -29.7312  -30.0985   21.7718 C   0  0  0  0  0  0  0  0  0  0  0  0
  -26.7196  -31.0478   22.5144 C   0  0  0  0  0  0  0  0  0  0  0  0
  -23.5123  -30.1712   23.2837 C   0  0  0  0  0  0  0  0  0  0  0  0
  -30.7403  -14.6627   20.5877 C   0  0  0  0  0  0  0  0  0  0  0  0
  -33.9112  -32.1894   19.7191 C   0  0  0  0  0  0  0  0  0  0  0  0
  -28.3660  -28.7943   20.1010 C   0  0  0  0  0  0  0  0  0  0  0  0
  -27.2408  -28.5994   22.8287 C   0  0  0  0  0  0  0  0  0  0  0  0
  -28.2813  -20.2312   25.7271 C   0  0  0  0  0  0  0  0  0  0  0  0
  -29.8607  -22.0072   24.0010 C   0  0  0  0  0  0  0  0  0  0  0  0
  -32.6956  -32.7057   20.4848 C   0  0  0  0  0  0  0  0  0  0  0  0
  -29.3856  -12.6266   17.9999 C   0  0  0  0  0  0  0  0  0  0  0  0
  -32.4597  -31.8693   21.7385 C   0  0  0  0  0  0  0  0  0  0  0  0
  -27.9891  -12.2689   18.5137 C   0  0  0  0  0  0  0  0  0  0  0  0
  -30.4107  -12.6762   19.1315 C   0  0  0  0  0  0  0  0  0  0  0  0
  -28.6479  -13.1790   20.7774 C   0  0  0  0  0  0  0  0  0  0  0  0
  -30.4938  -20.8332   24.7482 C   0  0  0  0  0  0  0  0  0  0  0  0
  -32.1687  -30.4072   21.3796 C   0  0  1  0  0  0  0  0  0  0  0  0
  -28.4074  -29.9697   21.0727 C   0  0  1  0  0  0  0  0  0  0  0  0
  -27.5681  -13.1805   19.6830 C   0  0  2  0  0  0  0  0  0  0  0  0
  -21.2863  -31.1666   23.8764 C   0  0  0  0  0  0  0  0  0  0  0  0
  -27.7310  -31.6243   25.3348 C   0  0  0  0  0  0  0  0  0  0  0  0
  -25.3483  -31.6902   26.1007 C   0  0  0  0  0  0  0  0  0  0  0  0
  -26.1618  -33.3421   24.4178 C   0  0  0  0  0  0  0  0  0  0  0  0
  -22.2189  -28.9907   20.8978 C   0  0  0  0  0  0  0  0  0  0  0  0
  -30.0595  -18.4854   25.4924 C   0  0  0  0  0  0  0  0  0  0  0  0
  -27.9652  -23.7226   24.0556 C   0  0  0  0  0  0  0  0  0  1  0  0
  -25.8312  -30.9320   23.7294 C   0  0  1  0  0  0  0  0  0  0  0  0
  -22.1784  -30.6636   22.7521 C   0  0  2  0  0  0  0  0  0  0  0  0
  -26.2784  -31.8741   24.8826 C   0  0  0  0  0  0  0  0  0  0  0  0
  -25.8275  -11.5115   20.1986 N   0  0  0  0  0  0  0  0  0  0  0  0
  -26.2042  -12.8011   20.2288 N   0  0  0  0  0  0  0  0  0  0  0  0
  -27.3818  -29.8787   22.1139 N   0  0  0  0  0  0  0  0  0  0  0  0
  -29.9464  -13.5621   20.2013 N   0  0  0  0  0  0  0  0  0  0  0  0
  -34.3526  -16.9445   23.6033 N   0  0  0  0  0  0  0  0  0  0  0  0
  -25.4875  -14.9636   20.8772 N   0  0  0  0  0  0  0  0  0  0  0  0
  -22.0030  -12.3259   22.0162 N   0  0  0  0  0  0  0  0  0  0  0  0
  -30.1814  -15.4525   21.5919 N   0  0  0  0  0  0  0  0  0  0  0  0
  -30.8050  -30.2619   20.9175 N   0  0  0  0  0  0  0  0  0  0  0  0
  -24.4687  -31.1643   23.2624 N   0  0  0  0  0  0  0  0  0  0  0  0
  -29.4683  -19.7425   24.9221 N   0  3  1  0  0  0  0  0  0  0  0  0
  -21.4655  -29.5638   22.0428 N   0  3  0  0  0  0  0  0  0  0  0  0
  -22.7717  -14.4863   21.9879 O   0  0  0  0  0  0  0  0  0  0  0  0
  -29.7749  -30.0544   22.9956 O   0  0  0  0  0  0  0  0  0  0  0  0
  -26.8167  -32.1338   21.9375 O   0  0  0  0  0  0  0  0  0  0  0  0
  -23.6874  -29.0216   23.6817 O   0  0  0  0  0  0  0  0  0  0  0  0
  -31.8228  -14.9036   20.0471 O   0  0  0  0  0  0  0  0  0  0  0  0
  -21.6829   -6.8083   21.3172 O   0  0  0  0  0  0  0  0  0  0  0  0
  -27.8671  -23.7510   22.6322 O   0  0  0  0  0  0  0  0  0  1  0  0
  -19.1332   -5.9479   26.1300 F   0  0  0  0  0  0  0  0  0  0  0  0
  -22.2887   -4.6018   22.8687 F   0  0  0  0  0  0  0  0  0  0  0  0
  1  2  1  0  0  0  0
  1  5  2  0  0  0  0
  2  6  2  0  0  0  0
  3  8  2  0  0  0  0
  3 18  1  0  0  0  0
  4  9  1  0  0  0  0
  4 18  2  0  0  0  0
  5 20  1  0  0  0  0
  6 22  1  0  0  0  0
  7 10  2  0  0  0  0
  7 21  1  0  0  0  0
  8 27  1  0  0  0  0
  9 27  2  0  0  0  0
 10 28  1  0  0  0  0
 11 12  2  0  0  0  0
 11 29  1  0  0  0  0
 12 30  1  0  0  0  0
 13 23  1  0  0  0  0
 13 28  2  0  0  0  0
 14 24  1  0  0  0  0
 14 25  2  0  0  0  0
 15 24  2  0  0  0  0
 15 26  1  0  0  0  0
 16 25  1  0  0  0  0
 16 26  2  0  0  0  0
 17 30  2  0  0  0  0
 17 31  1  0  0  0  0
 18 32  1  0  0  0  0
 19 32  1  0  0  0  0
 19 33  2  0  0  0  0
 19 36  1  0  0  0  0
 20 22  2  0  0  0  0
 20 41  1  0  0  0  0
 21 23  2  0  0  0  0
 21 42  1  0  0  0  0
 22 53  1  0  0  0  0
 23 43  1  0  0  0  0
 24 61  1  0  0  0  0
 25 70  1  0  0  0  0
 26 73  1  0  0  0  0
 27 83  1  0  0  0  0
 28 84  1  0  0  0  0
 29 31  2  0  0  0  0
 29 83  1  0  0  0  0
 30 85  1  0  0  0  0
 31 86  1  0  0  0  0
 32 66  2  0  0  0  0
 33 67  1  0  0  0  0
 33 71  1  0  0  0  0
 34 35  2  0  0  0  0
 34 44  1  0  0  0  0
 35 45  1  0  0  0  0
 35 62  1  0  0  0  0
 36 72  1  0  0  0  0
 36 78  2  0  0  0  0
 37 54  1  0  0  0  0
 37 74  1  0  0  0  0
 37 79  2  0  0  0  0
 38 63  1  0  0  0  0
 38 68  1  0  0  0  0
 38 80  2  0  0  0  0
 39 64  1  0  0  0  0
 39 75  1  0  0  0  0
 39 81  2  0  0  0  0
 40 69  1  0  0  0  0
 40 73  1  0  0  0  0
 40 82  2  0  0  0  0
 41 46  1  0  0  0  0
 42 54  1  0  0  0  0
 43 68  1  0  0  0  0
 44 76  1  0  0  0  0
 45 52  1  0  0  0  0
 46 48  1  0  0  0  0
 47 49  1  0  0  0  0
 47 50  1  0  0  0  0
 48 53  1  0  0  0  0
 49 55  1  0  0  0  0
 50 69  1  0  0  0  0
 51 55  1  0  0  0  0
 51 69  1  0  0  0  0
 52 76  1  0  0  0  0
 53 74  1  0  0  0  0
 54 68  1  0  0  0  0
 55 67  1  0  0  0  0
 56 64  1  0  0  0  0
 57 65  1  0  0  0  0
 58 65  1  0  0  0  0
 59 65  1  0  0  0  0
 60 77  1  0  0  0  0
 61 76  1  0  0  0  0
 62 84  1  0  0  0  0
 63 65  1  0  0  0  0
 63 75  1  0  0  0  0
 64 77  1  0  0  0  0
 66 67  1  0  0  0  0
M  CHG  2  76   1  77   1
M  ISO  4  40 100  62 101  73 100  84 101
M  END
> <Batch ID>
0106

> <Smiles>
CNC(C)C(=O)NC(C(=O)N1Cc2cc([101O:1][101CH2:1]C3=CCN(Cc4cc(N)cc([100NH:0][100C:0](=O)N5CCCC(n6nc(-c7ccc(Oc8ccc(F)cc8F)cc7)c(C(N)=O)c6N)C5)c4)CC3)ccc2CC1C(=O)NC1CCCc2ccccc21)C(C)(C)C

> <Shape>
0.293

> <Color>
0.212

> <Negative vol penalty>
0.000

$$$$

  -OEChem-04052301143D

 87 95  0     1  0  0  0  0  0999 V2000
  -28.6445  -37.6538   20.2451 C   0  0  0  0  0  0  0  0  0  0  0  0
  -29.0260  -36.3223   20.1151 C   0  0  0  0  0  0  0  0  0  0  0  0
  -23.8506   -8.2496   20.0822 C   0  0  0  0  0  0  0  0  0  0  0  0
  -23.0653  -10.2927   21.1049 C   0  0  0  0  0  0  0  0  0  0  0  0
  -27.6273  -38.0028   21.1325 C   0  0  0  0  0  0  0  0  0  0  0  0
  -28.3913  -35.3391   20.8732 C   0  0  0  0  0  0  0  0  0  0  0  0
  -27.1740  -29.5857   19.1638 C   0  0  0  0  0  0  0  0  0  0  0  0
  -22.9123   -7.5224   20.8144 C   0  0  0  0  0  0  0  0  0  0  0  0
  -22.1269   -9.5655   21.8372 C   0  0  0  0  0  0  0  0  0  0  0  0
  -27.8259  -28.3773   19.4061 C   0  0  0  0  0  0  0  0  0  0  0  0
  -20.9638   -5.0866   22.6838 C   0  0  0  0  0  0  0  0  0  0  0  0
  -21.3899   -3.9096   23.2991 C   0  0  0  0  0  0  0  0  0  0  0  0
  -28.7054  -18.8770   17.3617 C   0  0  0  0  0  0  0  0  0  0  0  0
  -26.3354  -27.9507   21.2542 C   0  0  0  0  0  0  0  0  0  0  0  0
  -30.5093  -17.5966   19.0615 C   0  0  0  0  0  0  0  0  0  0  0  0
  -23.0066   -5.1655   24.5821 C   0  0  0  0  0  0  0  0  0  0  0  0
  -23.9272   -9.6348   20.2275 C   0  0  0  0  0  0  0  0  0  0  0  0
  -28.6123  -17.5007   17.5684 C   0  0  0  0  0  0  0  0  0  0  0  0
  -24.7232  -10.9582   18.1970 C   0  0  0  0  0  0  0  0  0  0  0  0
  -26.9731  -37.0222   21.8948 C   0  0  0  0  0  0  0  0  0  0  0  0
  -26.1031  -29.9914   19.9731 C   0  0  0  0  0  0  0  0  0  0  0  0
  -27.3653  -35.6754   21.7726 C   0  0  0  0  0  0  0  0  0  0  0  0
  -25.6699  -29.1635   21.0185 C   0  0  0  0  0  0  0  0  0  0  0  0
  -29.7005  -19.6132   18.0049 C   0  0  0  0  0  0  0  0  0  0  0  0
  -29.5143  -16.8605   18.4183 C   0  0  0  0  0  0  0  0  0  0  0  0
  -30.6024  -18.9730   18.8548 C   0  0  0  0  0  0  0  0  0  0  0  0
  -22.0504   -8.1803   21.6919 C   0  0  0  0  0  0  0  0  0  0  0  0
  -27.4085  -27.5610   20.4532 C   0  0  0  0  0  0  0  0  0  0  0  0
  -21.5592   -6.3032   23.0176 C   0  0  0  0  0  0  0  0  0  0  0  0
  -22.4113   -3.9490   24.2482 C   0  0  0  0  0  0  0  0  0  0  0  0
  -22.5805   -6.3426   23.9667 C   0  0  0  0  0  0  0  0  0  0  0  0
  -24.8966  -10.3866   19.4718 C   0  0  0  0  0  0  0  0  0  0  0  0
  -25.9275  -11.5591   17.9234 C   0  0  0  0  0  0  0  0  0  0  0  0
  -27.5633  -16.7604   16.8784 C   0  0  0  0  0  0  0  0  0  0  0  0
  -23.5759  -10.9471   17.3372 C   0  0  0  0  0  0  0  0  0  0  0  0
  -25.5621  -32.4532   21.9097 C   0  0  0  0  0  0  0  0  0  0  0  0
  -28.6419  -24.2155   19.7867 C   0  0  0  0  0  0  0  0  0  0  0  0
  -22.5888  -31.1673   22.0766 C   0  0  0  0  0  0  0  0  0  0  0  0
  -20.6046  -28.4073   21.7725 C   0  0  0  0  0  0  0  0  0  0  0  0
  -30.2674  -14.6924   19.4567 C   0  0  0  0  0  0  0  0  0  0  0  0
  -25.9116  -37.4535   22.8755 C   0  0  0  0  0  0  0  0  0  0  0  0
  -25.3932  -31.2852   19.6819 C   0  0  0  0  0  0  0  0  0  0  0  0
  -24.5123  -29.5439   21.9038 C   0  0  0  0  0  0  0  0  0  0  0  0
  -25.0336  -36.3054   23.3667 C   0  0  0  0  0  0  0  0  0  0  0  0
  -30.3854  -11.2350   20.2991 C   0  0  0  0  0  0  0  0  0  0  0  0
  -25.8921  -35.1077   23.7609 C   0  0  0  0  0  0  0  0  0  0  0  0
  -28.9537  -10.7531   20.0541 C   0  0  0  0  0  0  0  0  0  0  0  0
  -30.4172  -12.6525   20.8679 C   0  0  0  0  0  0  0  0  0  0  0  0
  -28.2340  -13.1670   19.8490 C   0  0  0  0  0  0  0  0  0  0  0  0
  -26.6836  -34.5771   22.5595 C   0  0  1  0  0  0  0  0  0  0  0  0
  -24.6447  -31.8409   20.8895 C   0  0  1  0  0  0  0  0  0  0  0  0
  -28.1530  -11.7685   19.2154 C   0  0  2  0  0  0  0  0  0  0  0  0
  -18.2209  -27.6592   22.0086 C   0  0  0  0  0  0  0  0  0  0  0  0
  -22.8842  -31.1926   25.1134 C   0  0  0  0  0  0  0  0  0  0  0  0
  -20.9523  -29.6056   25.2448 C   0  0  0  0  0  0  0  0  0  0  0  0
  -20.6300  -31.8828   24.2787 C   0  0  0  0  0  0  0  0  0  0  0  0
  -20.4474  -27.6213   18.9235 C   0  0  0  0  0  0  0  0  0  0  0  0
  -29.7793  -21.0987   17.7626 C   0  0  0  0  0  0  0  0  0  0  0  0
  -29.2497  -23.3964   18.6602 C   0  0  0  0  0  0  0  0  0  0  0  0
  -28.6217  -25.7159   19.5702 C   0  0  0  0  0  0  0  0  0  1  0  0
  -29.2022  -21.8949   18.9345 C   0  0  0  0  0  0  0  0  0  0  0  0
  -21.9130  -30.1477   22.9614 C   0  0  1  0  0  0  0  0  0  0  0  0
  -19.2826  -28.1909   21.0584 C   0  0  2  0  0  0  0  0  0  0  0  0
  -21.6180  -30.7006   24.3843 C   0  0  0  0  0  0  0  0  0  0  0  0
  -26.1153  -10.6046   19.9731 N   0  0  0  0  0  0  0  0  0  0  0  0
  -26.7185  -11.3199   19.0085 N   0  0  0  0  0  0  0  0  0  0  0  0
  -23.8547  -30.8214   21.5829 N   0  0  0  0  0  0  0  0  0  0  0  0
  -29.6417  -13.5597   20.0191 N   0  0  0  0  0  0  0  0  0  0  0  0
  -31.6176  -19.7020   19.5123 N   0  0  0  0  0  0  0  0  0  0  0  0
  -26.3766  -12.2634   16.8629 N   0  0  0  0  0  0  0  0  0  0  0  0
  -26.3384  -16.6271   17.5226 N   0  0  0  0  0  0  0  0  0  0  0  0
  -22.4206  -10.2840   17.7731 N   0  0  0  0  0  0  0  0  0  0  0  0
  -29.4393  -15.4633   18.6415 N   0  0  0  0  0  0  0  0  0  0  0  0
  -25.8269  -33.7926   21.6964 N   0  0  0  0  0  0  0  0  0  0  0  0
  -20.7286  -29.6997   22.2369 N   0  0  0  0  0  0  0  0  0  0  0  0
  -19.4489  -27.2139   19.9454 N   0  3  0  0  0  0  0  0  0  0  0  0
  -27.7599  -16.2517   15.7628 O   0  0  0  0  0  0  0  0  0  0  0  0
  -23.5806  -11.4946   16.2086 O   0  0  0  0  0  0  0  0  0  0  0  0
  -25.9965  -31.7621   22.8237 O   0  0  0  0  0  0  0  0  0  0  0  0
  -28.1950  -23.7027   20.8116 O   0  0  0  0  0  0  0  0  0  0  0  0
  -22.0115  -32.2284   21.8267 O   0  0  0  0  0  0  0  0  0  0  0  0
  -21.4418  -27.5178   21.9082 O   0  0  0  0  0  0  0  0  0  0  0  0
  -31.4580  -14.9440   19.6599 O   0  0  0  0  0  0  0  0  0  0  0  0
  -21.1345   -7.4710   22.4064 O   0  0  0  0  0  0  0  0  0  0  0  0
  -28.0434  -26.3814   20.6923 O   0  0  0  0  0  0  0  0  0  1  0  0
  -22.8193   -2.8188   24.8401 F   0  0  0  0  0  0  0  0  0  0  0  0
  -23.1554   -7.5085   24.2924 F   0  0  0  0  0  0  0  0  0  0  0  0
  1  2  1  0  0  0  0
  1  5  2  0  0  0  0
  2  6  2  0  0  0  0
  3  8  2  0  0  0  0
  3 17  1  0  0  0  0
  4  9  1  0  0  0  0
  4 17  2  0  0  0  0
  5 20  1  0  0  0  0
  6 22  1  0  0  0  0
  7 10  2  0  0  0  0
  7 21  1  0  0  0  0
  8 27  1  0  0  0  0
  9 27  2  0  0  0  0
 10 28  1  0  0  0  0
 11 12  2  0  0  0  0
 11 29  1  0  0  0  0
 12 30  1  0  0  0  0
 13 18  2  0  0  0  0
 13 24  1  0  0  0  0
 14 23  1  0  0  0  0
 14 28  2  0  0  0  0
 15 25  2  0  0  0  0
 15 26  1  0  0  0  0
 16 30  2  0  0  0  0
 16 31  1  0  0  0  0
 17 32  1  0  0  0  0
 18 25  1  0  0  0  0
 18 34  1  0  0  0  0
 19 32  1  0  0  0  0
 19 33  2  0  0  0  0
 19 35  1  0  0  0  0
 20 22  2  0  0  0  0
 20 41  1  0  0  0  0
 21 23  2  0  0  0  0
 21 42  1  0  0  0  0
 22 50  1  0  0  0  0
 23 43  1  0  0  0  0
 24 26  2  0  0  0  0
 24 58  1  0  0  0  0
 25 73  1  0  0  0  0
 26 69  1  0  0  0  0
 27 84  1  0  0  0  0
 28 85  1  0  0  0  0
 29 31  2  0  0  0  0
 29 84  1  0  0  0  0
 30 86  1  0  0  0  0
 31 87  1  0  0  0  0
 32 65  2  0  0  0  0
 33 66  1  0  0  0  0
 33 70  1  0  0  0  0
 34 71  1  0  0  0  0
 34 77  2  0  0  0  0
 35 72  1  0  0  0  0
 35 78  2  0  0  0  0
 36 51  1  0  0  0  0
 36 74  1  0  0  0  0
 36 79  2  0  0  0  0
 37 59  1  0  0  0  0
 37 60  1  0  0  0  0
 37 80  2  0  0  0  0
 38 62  1  0  0  0  0
 38 67  1  0  0  0  0
 38 81  2  0  0  0  0
 39 63  1  0  0  0  0
 39 75  1  0  0  0  0
 39 82  2  0  0  0  0
 40 68  1  0  0  0  0
 40 73  1  0  0  0  0
 40 83  2  0  0  0  0
 41 44  1  0  0  0  0
 42 51  1  0  0  0  0
 43 67  1  0  0  0  0
 44 46  1  0  0  0  0
 45 47  1  0  0  0  0
 45 48  1  0  0  0  0
 46 50  1  0  0  0  0
 47 52  1  0  0  0  0
 48 68  1  0  0  0  0
 49 52  1  0  0  0  0
 49 68  1  0  0  0  0
 50 74  1  0  0  0  0
 51 67  1  0  0  0  0
 52 66  1  0  0  0  0
 53 63  1  0  0  0  0
 54 64  1  0  0  0  0
 55 64  1  0  0  0  0
 56 64  1  0  0  0  0
 57 76  1  0  0  0  0
 58 61  1  0  0  0  0
 59 61  1  0  0  0  0
 60 85  1  0  0  0  0
 62 64  1  0  0  0  0
 62 75  1  0  0  0  0
 63 76  1  0  0  0  0
 65 66  1  0  0  0  0
M  CHG  1  76   1
M  ISO  4  40 100  60 101  73 100  85 101
M  END
> <Batch ID>
0106

> <Smiles>
CNC(C)C(=O)NC(C(=O)N1Cc2cc([101O:1][101CH2:1]C(=O)CCCc3cc(C(N)=O)c([100NH:0][100C:0](=O)N4CCCC(n5nc(-c6ccc(Oc7ccc(F)cc7F)cc6)c(C(N)=O)c5N)C4)cc3N)ccc2CC1C(=O)NC1CCCc2ccccc21)C(C)(C)C

> <Shape>
0.293

> <Color>
0.107

> <Negative vol penalty>
0.000

$$$$

  -OEChem-04052301143D

 83 91  0     1  0  0  0  0  0999 V2000
  -30.0945  -36.0938   22.2658 C   0  0  0  0  0  0  0  0  0  0  0  0
  -30.0649  -34.9430   21.4846 C   0  0  0  0  0  0  0  0  0  0  0  0
  -23.5518   -9.7219   21.0919 C   0  0  0  0  0  0  0  0  0  0  0  0
  -24.1317  -10.5732   23.2773 C   0  0  0  0  0  0  0  0  0  0  0  0
  -29.5277  -36.0851   23.5396 C   0  0  0  0  0  0  0  0  0  0  0  0
  -29.4694  -33.7824   21.9773 C   0  0  0  0  0  0  0  0  0  0  0  0
  -26.3600  -29.5932   18.7698 C   0  0  0  0  0  0  0  0  0  0  0  0
  -22.9539   -8.6094   21.6839 C   0  0  0  0  0  0  0  0  0  0  0  0
  -23.5338   -9.4607   23.8693 C   0  0  0  0  0  0  0  0  0  0  0  0
  -26.7251  -28.3560   18.2409 C   0  0  0  0  0  0  0  0  0  0  0  0
  -20.0408   -7.8784   23.2370 C   0  0  0  0  0  0  0  0  0  0  0  0
  -18.7917   -7.4825   22.7589 C   0  0  0  0  0  0  0  0  0  0  0  0
  -25.8264  -27.2625   20.1943 C   0  0  0  0  0  0  0  0  0  0  0  0
  -29.1649  -20.4104   20.8289 C   0  0  0  0  0  0  0  0  0  0  0  0
  -29.8753  -19.7012   18.6313 C   0  0  0  0  0  0  0  0  0  0  0  0
  -19.7049   -5.3284   22.1565 C   0  0  0  0  0  0  0  0  0  0  0  0
  -24.1408  -10.7038   21.8886 C   0  0  0  0  0  0  0  0  0  0  0  0
  -24.1466  -13.0806   20.9621 C   0  0  0  0  0  0  0  0  0  0  0  0
  -28.9163  -34.9266   24.0443 C   0  0  0  0  0  0  0  0  0  0  0  0
  -25.7342  -29.6753   20.0220 C   0  0  0  0  0  0  0  0  0  0  0  0
  -28.8950  -33.7578   23.2596 C   0  0  0  0  0  0  0  0  0  0  0  0
  -25.4521  -28.5018   20.7357 C   0  0  0  0  0  0  0  0  0  0  0  0
  -29.1858  -19.0851   21.2634 C   0  0  0  0  0  0  0  0  0  0  0  0
  -29.8962  -18.3759   19.0658 C   0  0  0  0  0  0  0  0  0  0  0  0
  -29.5515  -18.0678   20.3818 C   0  0  0  0  0  0  0  0  0  0  0  0
  -22.9449   -8.4788   23.0726 C   0  0  0  0  0  0  0  0  0  0  0  0
  -26.4609  -27.1906   18.9544 C   0  0  0  0  0  0  0  0  0  0  0  0
  -21.1220   -6.9993   23.1748 C   0  0  0  0  0  0  0  0  0  0  0  0
  -29.5096  -20.7184   19.5129 C   0  0  0  0  0  0  0  0  0  0  0  0
  -18.6237   -6.2075   22.2187 C   0  0  0  0  0  0  0  0  0  0  0  0
  -20.9540   -5.7243   22.6346 C   0  0  0  0  0  0  0  0  0  0  0  0
  -24.7591  -11.8529   21.2776 C   0  0  0  0  0  0  0  0  0  0  0  0
  -25.1515  -13.8321   20.4036 C   0  0  0  0  0  0  0  0  0  0  0  0
  -22.7906  -13.5039   21.1566 C   0  0  0  0  0  0  0  0  0  0  0  0
  -26.4671  -31.0085   22.8129 C   0  0  0  0  0  0  0  0  0  0  0  0
  -23.4691  -30.0610   23.6106 C   0  0  0  0  0  0  0  0  0  0  0  0
  -20.8557  -27.9391   23.0496 C   0  0  0  0  0  0  0  0  0  0  0  0
  -30.3985  -15.6953   20.3728 C   0  0  0  0  0  0  0  0  0  0  0  0
  -28.3589  -34.9516   25.4455 C   0  0  0  0  0  0  0  0  0  0  0  0
  -25.3226  -31.0156   20.5665 C   0  0  0  0  0  0  0  0  0  0  0  0
  -24.7640  -28.5343   22.0751 C   0  0  0  0  0  0  0  0  0  0  0  0
  -27.4157  -33.7897   25.7466 C   0  0  0  0  0  0  0  0  0  0  0  0
  -29.7986  -12.5140   18.8908 C   0  0  0  0  0  0  0  0  0  0  0  0
  -28.0199  -32.4736   25.2673 C   0  0  0  0  0  0  0  0  0  0  0  0
  -28.3837  -12.1594   19.3537 C   0  0  0  0  0  0  0  0  0  0  0  0
  -30.5829  -13.2491   19.9762 C   0  0  0  0  0  0  0  0  0  0  0  0
  -28.4986  -14.0773   20.9955 C   0  0  0  0  0  0  0  0  0  0  0  0
  -28.2362  -32.4864   23.7492 C   0  0  1  0  0  0  0  0  0  0  0  0
  -25.1539  -31.0183   22.0828 C   0  0  1  0  0  0  0  0  0  0  0  0
  -27.6480  -13.3929   19.9130 C   0  0  2  0  0  0  0  0  0  0  0  0
  -28.8106  -18.7873   22.6791 C   0  0  0  0  0  0  0  0  0  0  0  0
  -18.5560  -27.3822   23.8854 C   0  0  0  0  0  0  0  0  0  0  0  0
  -24.6905  -28.6610   26.0310 C   0  0  0  0  0  0  0  0  0  0  0  0
  -22.5586  -27.3707   26.2730 C   0  0  0  0  0  0  0  0  0  0  0  0
  -22.5421  -29.8557   26.4910 C   0  0  0  0  0  0  0  0  0  0  0  0
  -19.6258  -28.5683   20.4322 C   0  0  0  0  0  0  0  0  0  0  0  0
  -28.1485  -23.9935   18.7494 C   0  0  0  0  0  0  0  0  0  0  0  0
  -27.1451  -24.9515   19.3721 C   0  0  0  0  0  0  0  0  0  1  0  0
  -28.5482  -22.8847   19.7102 C   0  0  0  0  0  0  0  0  0  0  0  0
  -22.8661  -28.8137   24.2104 C   0  0  1  0  0  0  0  0  0  0  0  0
  -19.3679  -28.1941   22.8883 C   0  0  2  0  0  0  0  0  0  0  0  0
  -23.1790  -28.6744   25.7270 C   0  0  0  0  0  0  0  0  0  0  0  0
  -26.0528  -11.8220   20.9469 N   0  0  0  0  0  0  0  0  0  0  0  0
  -26.2615  -13.0396   20.4177 N   0  0  0  0  0  0  0  0  0  0  0  0
  -24.3869  -29.8693   22.5682 N   0  0  0  0  0  0  0  0  0  0  0  0
  -29.8265  -14.4081   20.4551 N   0  0  0  0  0  0  0  0  0  0  0  0
  -30.2699  -17.3626   18.1545 N   0  0  0  0  0  0  0  0  0  0  0  0
  -25.1851  -15.0868   19.9067 N   0  0  0  0  0  0  0  0  0  0  0  0
  -21.8885  -12.6068   21.7446 N   0  0  0  0  0  0  0  0  0  0  0  0
  -29.5733  -16.7232   20.8281 N   0  0  0  0  0  0  0  0  0  0  0  0
  -26.9837  -32.2664   23.0584 N   0  0  0  0  0  0  0  0  0  0  0  0
  -21.4423  -28.8565   23.8955 N   0  0  0  0  0  0  0  0  0  0  0  0
  -18.9257  -27.8277   21.5131 N   0  3  0  0  0  0  0  0  0  0  0  0
  -22.3869  -14.6380   20.8039 O   0  0  0  0  0  0  0  0  0  0  0  0
  -26.9734  -29.9389   23.1313 O   0  0  0  0  0  0  0  0  0  0  0  0
  -23.1325  -31.1649   24.0461 O   0  0  0  0  0  0  0  0  0  0  0  0
  -21.4384  -27.0161   22.4848 O   0  0  0  0  0  0  0  0  0  0  0  0
  -31.5260  -15.8757   19.9057 O   0  0  0  0  0  0  0  0  0  0  0  0
  -22.3613   -7.3935   23.6506 O   0  0  0  0  0  0  0  0  0  0  0  0
  -26.8168  -25.9817   18.4408 O   0  0  0  0  0  0  0  0  0  1  0  0
  -29.4878  -22.0206   19.0856 O   0  0  0  0  0  0  0  0  0  0  0  0
  -17.4238   -5.8270   21.7610 F   0  0  0  0  0  0  0  0  0  0  0  0
  -21.9888   -4.8749   22.5733 F   0  0  0  0  0  0  0  0  0  0  0  0
  1  2  1  0  0  0  0
  1  5  2  0  0  0  0
  2  6  2  0  0  0  0
  3  8  2  0  0  0  0
  3 17  1  0  0  0  0
  4  9  1  0  0  0  0
  4 17  2  0  0  0  0
  5 19  1  0  0  0  0
  6 21  1  0  0  0  0
  7 10  2  0  0  0  0
  7 20  1  0  0  0  0
  8 26  1  0  0  0  0
  9 26  2  0  0  0  0
 10 27  1  0  0  0  0
 11 12  2  0  0  0  0
 11 28  1  0  0  0  0
 12 30  1  0  0  0  0
 13 22  1  0  0  0  0
 13 27  2  0  0  0  0
 14 23  2  0  0  0  0
 14 29  1  0  0  0  0
 15 24  1  0  0  0  0
 15 29  2  0  0  0  0
 16 30  2  0  0  0  0
 16 31  1  0  0  0  0
 17 32  1  0  0  0  0
 18 32  1  0  0  0  0
 18 33  2  0  0  0  0
 18 34  1  0  0  0  0
 19 21  2  0  0  0  0
 19 39  1  0  0  0  0
 20 22  2  0  0  0  0
 20 40  1  0  0  0  0
 21 48  1  0  0  0  0
 22 41  1  0  0  0  0
 23 25  1  0  0  0  0
 23 51  1  0  0  0  0
 24 25  2  0  0  0  0
 24 67  1  0  0  0  0
 25 70  1  0  0  0  0
 26 79  1  0  0  0  0
 27 80  1  0  0  0  0
 28 31  2  0  0  0  0
 28 79  1  0  0  0  0
 29 81  1  0  0  0  0
 30 82  1  0  0  0  0
 31 83  1  0  0  0  0
 32 63  2  0  0  0  0
 33 64  1  0  0  0  0
 33 68  1  0  0  0  0
 34 69  1  0  0  0  0
 34 74  2  0  0  0  0
 35 49  1  0  0  0  0
 35 71  1  0  0  0  0
 35 75  2  0  0  0  0
 36 60  1  0  0  0  0
 36 65  1  0  0  0  0
 36 76  2  0  0  0  0
 37 61  1  0  0  0  0
 37 72  1  0  0  0  0
 37 77  2  0  0  0  0
 38 66  1  0  0  0  0
 38 70  1  0  0  0  0
 38 78  2  0  0  0  0
 39 42  1  0  0  0  0
 40 49  1  0  0  0  0
 41 65  1  0  0  0  0
 42 44  1  0  0  0  0
 43 45  1  0  0  0  0
 43 46  1  0  0  0  0
 44 48  1  0  0  0  0
 45 50  1  0  0  0  0
 46 66  1  0  0  0  0
 47 50  1  0  0  0  0
 47 66  1  0  0  0  0
 48 71  1  0  0  0  0
 49 65  1  0  0  0  0
 50 64  1  0  0  0  0
 52 61  1  0  0  0  0
 53 62  1  0  0  0  0
 54 62  1  0  0  0  0
 55 62  1  0  0  0  0
 56 73  1  0  0  0  0
 57 58  1  0  0  0  0
 57 59  1  0  0  0  0
 58 80  1  0  0  0  0
 59 81  1  0  0  0  0
 60 62  1  0  0  0  0
 60 72  1  0  0  0  0
 61 73  1  0  0  0  0
 63 64  1  0  0  0  0
M  CHG  1  73   1
M  ISO  4  38 100  58 101  70 100  80 101
M  END
> <Batch ID>
0106

> <Smiles>
CNC(C)C(=O)NC(C(=O)N1Cc2cc([101O:1][101CH2:1]CCOc3cc(C)c([100NH:0][100C:0](=O)N4CCCC(n5nc(-c6ccc(Oc7ccc(F)cc7F)cc6)c(C(N)=O)c5N)C4)c(N)c3)ccc2CC1C(=O)NC1CCCc2ccccc21)C(C)(C)C

> <Shape>
0.346

> <Color>
0.169

> <Negative vol penalty>
0.000

$$$$

  -OEChem-04052301143D

 84 92  0     1  0  0  0  0  0999 V2000
  -28.1277  -33.0077   14.0371 C   0  0  0  0  0  0  0  0  0  0  0  0
  -28.0554  -31.6247   14.1693 C   0  0  0  0  0  0  0  0  0  0  0  0
  -22.7588  -10.6749   21.3436 C   0  0  0  0  0  0  0  0  0  0  0  0
  -24.7560   -9.3155   21.3436 C   0  0  0  0  0  0  0  0  0  0  0  0
  -27.9401  -33.8241   15.1516 C   0  0  0  0  0  0  0  0  0  0  0  0
  -27.7964  -31.0573   15.4165 C   0  0  0  0  0  0  0  0  0  0  0  0
  -24.5810  -25.9699   16.5504 C   0  0  0  0  0  0  0  0  0  0  0  0
  -30.3362  -16.5801   23.3905 C   0  0  0  0  0  0  0  0  0  0  0  0
  -21.9748   -9.5232   21.2773 C   0  0  0  0  0  0  0  0  0  0  0  0
  -23.9720   -8.1637   21.2773 C   0  0  0  0  0  0  0  0  0  0  0  0
  -24.9656  -24.6531   16.7993 C   0  0  0  0  0  0  0  0  0  0  0  0
  -29.9895  -17.9092   23.1483 C   0  0  0  0  0  0  0  0  0  0  0  0
  -21.0041   -7.3036   18.9203 C   0  0  0  0  0  0  0  0  0  0  0  0
  -19.9420   -7.2947   18.0162 C   0  0  0  0  0  0  0  0  0  0  0  0
  -30.0933  -17.5027   20.7690 C   0  0  0  0  0  0  0  0  0  0  0  0
  -24.8096  -25.0624   19.1715 C   0  0  0  0  0  0  0  0  0  0  0  0
  -18.3940   -6.9458   19.8381 C   0  0  0  0  0  0  0  0  0  0  0  0
  -24.1494  -10.5711   21.3767 C   0  0  0  0  0  0  0  0  0  0  0  0
  -30.4401  -16.1735   21.0113 C   0  0  0  0  0  0  0  0  0  0  0  0
  -25.4081  -12.4186   22.6055 C   0  0  0  0  0  0  0  0  0  0  0  0
  -27.6691  -33.2668   16.4111 C   0  0  0  0  0  0  0  0  0  0  0  0
  -24.3179  -26.8474   17.6121 C   0  0  0  0  0  0  0  0  0  0  0  0
  -27.6063  -31.8670   16.5491 C   0  0  0  0  0  0  0  0  0  0  0  0
  -24.4194  -26.3890   18.9334 C   0  0  0  0  0  0  0  0  0  0  0  0
  -30.5616  -15.7122   22.3220 C   0  0  0  0  0  0  0  0  0  0  0  0
  -22.5814   -8.2676   21.2442 C   0  0  0  0  0  0  0  0  0  0  0  0
  -29.8680  -18.3705   21.8375 C   0  0  0  0  0  0  0  0  0  0  0  0
  -25.0828  -24.2000   18.1100 C   0  0  0  0  0  0  0  0  0  0  0  0
  -20.7612   -7.1335   20.2833 C   0  0  0  0  0  0  0  0  0  0  0  0
  -18.6370   -7.1158   18.4750 C   0  0  0  0  0  0  0  0  0  0  0  0
  -19.4562   -6.9547   20.7422 C   0  0  0  0  0  0  0  0  0  0  0  0
  -24.9599  -11.7605   21.4446 C   0  0  0  0  0  0  0  0  0  0  0  0
  -26.1352  -13.4853   22.1364 C   0  0  0  0  0  0  0  0  0  0  0  0
  -30.6705  -15.2923   19.8735 C   0  0  0  0  0  0  0  0  0  0  0  0
  -25.1871  -12.0947   23.9846 C   0  0  0  0  0  0  0  0  0  0  0  0
  -29.9638  -15.4957   18.5880 C   0  0  0  0  0  0  0  0  0  0  0  0
  -25.5833  -29.5799   18.6299 C   0  0  0  0  0  0  0  0  0  0  0  0
  -23.0938  -29.5069   20.7082 C   0  0  0  0  0  0  0  0  0  0  0  0
  -20.7703  -27.6502   22.3819 C   0  0  0  0  0  0  0  0  0  0  0  0
  -27.5204  -34.1882   17.5959 C   0  0  0  0  0  0  0  0  0  0  0  0
  -23.8781  -28.2571   17.3265 C   0  0  0  0  0  0  0  0  0  0  0  0
  -24.1284  -27.2855   20.1082 C   0  0  0  0  0  0  0  0  0  0  0  0
  -26.8787  -33.5209   18.8096 C   0  0  0  0  0  0  0  0  0  0  0  0
  -26.5527  -15.4099   17.4864 C   0  0  0  0  0  0  0  0  0  0  0  0
  -27.5158  -32.1595   19.0694 C   0  0  0  0  0  0  0  0  0  0  0  0
  -25.8805  -14.4752   18.4915 C   0  0  0  0  0  0  0  0  0  0  0  0
  -27.9904  -14.9857   17.2045 C   0  0  0  0  0  0  0  0  0  0  0  0
  -28.1667  -13.9333   19.4428 C   0  0  0  0  0  0  0  0  0  0  0  0
  -27.3027  -31.2147   17.8805 C   0  0  1  0  0  0  0  0  0  0  0  0
  -24.1336  -29.2101   18.4901 C   0  0  1  0  0  0  0  0  0  0  0  0
  -26.7219  -14.3461   19.7737 C   0  0  2  0  0  0  0  0  0  0  0  0
  -18.8971  -27.8661   24.0376 C   0  0  0  0  0  0  0  0  0  0  0  0
  -25.1257  -29.8442   22.9594 C   0  0  0  0  0  0  0  0  0  0  0  0
  -23.3573  -29.1083   24.5717 C   0  0  0  0  0  0  0  0  0  0  0  0
  -23.0340  -31.1877   23.2321 C   0  0  0  0  0  0  0  0  0  0  0  0
  -18.7903  -26.5884   20.4554 C   0  0  0  0  0  0  0  0  0  0  0  0
  -27.9126  -21.1637   20.6039 C   0  0  0  0  0  0  0  0  0  0  0  0
  -27.0981  -21.4743   19.3529 C   0  0  0  0  0  0  0  0  0  0  0  0
  -28.8006  -19.9422   20.4070 C   0  0  0  0  0  0  0  0  0  0  0  0
  -26.1786  -22.6690   19.5630 C   0  0  0  0  0  0  0  0  0  1  0  0
  -22.8700  -28.9386   22.0888 C   0  0  1  0  0  0  0  0  0  0  0  0
  -19.2748  -27.8352   22.5648 C   0  0  2  0  0  0  0  0  0  0  0  0
  -23.6041  -29.7531   23.1911 C   0  0  0  0  0  0  0  0  0  0  0  0
  -25.3679  -12.3591   20.3224 N   0  0  0  0  0  0  0  0  0  0  0  0
  -31.4990  -14.2858   19.9068 N   0  0  0  0  0  0  0  0  0  0  0  0
  -26.0801  -13.4046   20.7760 N   0  0  0  0  0  0  0  0  0  0  0  0
  -28.7505  -14.8375   18.4440 N   0  0  0  0  0  0  0  0  0  0  0  0
  -23.7080  -28.6571   19.7775 N   0  0  0  0  0  0  0  0  0  0  0  0
  -30.9141  -14.3705   22.5886 N   0  0  0  0  0  0  0  0  0  0  0  0
  -26.8098  -14.4751   22.7590 N   0  0  0  0  0  0  0  0  0  0  0  0
  -24.4168  -10.9644   24.2902 N   0  0  0  0  0  0  0  0  0  0  0  0
  -25.9555  -30.6861   17.8901 N   0  0  0  0  0  0  0  0  0  0  0  0
  -21.4243  -28.8587   22.2679 N   0  0  0  0  0  0  0  0  0  0  0  0
  -18.5313  -26.7206   21.9123 N   0  3  0  0  0  0  0  0  0  0  0  0
  -25.6450  -12.7963   24.9181 O   0  0  0  0  0  0  0  0  0  0  0  0
  -30.5292  -16.2266   17.7852 O   0  0  0  0  0  0  0  0  0  0  0  0
  -26.3098  -28.9120   19.3563 O   0  0  0  0  0  0  0  0  0  0  0  0
  -22.7303  -30.6598   20.4626 O   0  0  0  0  0  0  0  0  0  0  0  0
  -21.3055  -26.5443   22.3475 O   0  0  0  0  0  0  0  0  0  0  0  0
  -21.8166   -7.1435   21.1798 O   0  0  0  0  0  0  0  0  0  0  0  0
  -29.5266  -19.6764   21.5998 O   0  0  0  0  0  0  0  0  0  0  0  0
  -25.4587  -22.9154   18.3558 O   0  0  0  0  0  0  0  0  0  1  0  0
  -17.6170   -7.1088   17.6068 F   0  0  0  0  0  0  0  0  0  0  0  0
  -19.2165   -6.7920   22.0506 F   0  0  0  0  0  0  0  0  0  0  0  0
  1  2  1  0  0  0  0
  1  5  2  0  0  0  0
  2  6  2  0  0  0  0
  3  9  2  0  0  0  0
  3 18  1  0  0  0  0
  4 10  1  0  0  0  0
  4 18  2  0  0  0  0
  5 21  1  0  0  0  0
  6 23  1  0  0  0  0
  7 11  2  0  0  0  0
  7 22  1  0  0  0  0
  8 12  2  0  0  0  0
  8 25  1  0  0  0  0
  9 26  1  0  0  0  0
 10 26  2  0  0  0  0
 11 28  1  0  0  0  0
 12 27  1  0  0  0  0
 13 14  2  0  0  0  0
 13 29  1  0  0  0  0
 14 30  1  0  0  0  0
 15 19  1  0  0  0  0
 15 27  2  0  0  0  0
 16 24  1  0  0  0  0
 16 28  2  0  0  0  0
 17 30  2  0  0  0  0
 17 31  1  0  0  0  0
 18 32  1  0  0  0  0
 19 25  2  0  0  0  0
 19 34  1  0  0  0  0
 20 32  1  0  0  0  0
 20 33  2  0  0  0  0
 20 35  1  0  0  0  0
 21 23  2  0  0  0  0
 21 40  1  0  0  0  0
 22 24  2  0  0  0  0
 22 41  1  0  0  0  0
 23 49  1  0  0  0  0
 24 42  1  0  0  0  0
 25 69  1  0  0  0  0
 26 80  1  0  0  0  0
 27 81  1  0  0  0  0
 28 82  1  0  0  0  0
 29 31  2  0  0  0  0
 29 80  1  0  0  0  0
 30 83  1  0  0  0  0
 31 84  1  0  0  0  0
 32 64  2  0  0  0  0
 33 66  1  0  0  0  0
 33 70  1  0  0  0  0
 34 36  1  0  0  0  0
 34 65  2  0  0  0  0
 35 71  1  0  0  0  0
 35 75  2  0  0  0  0
 36 67  1  0  0  0  0
 36 76  2  0  0  0  0
 37 50  1  0  0  0  0
 37 72  1  0  0  0  0
 37 77  2  0  0  0  0
 38 61  1  0  0  0  0
 38 68  1  0  0  0  0
 38 78  2  0  0  0  0
 39 62  1  0  0  0  0
 39 73  1  0  0  0  0
 39 79  2  0  0  0  0
 40 43  1  0  0  0  0
 41 50  1  0  0  0  0
 42 68  1  0  0  0  0
 43 45  1  0  0  0  0
 44 46  1  0  0  0  0
 44 47  1  0  0  0  0
 45 49  1  0  0  0  0
 46 51  1  0  0  0  0
 47 67  1  0  0  0  0
 48 51  1  0  0  0  0
 48 67  1  0  0  0  0
 49 72  1  0  0  0  0
 50 68  1  0  0  0  0
 51 66  1  0  0  0  0
 52 62  1  0  0  0  0
 53 63  1  0  0  0  0
 54 63  1  0  0  0  0
 55 63  1  0  0  0  0
 56 74  1  0  0  0  0
 57 58  1  0  0  0  0
 57 59  1  0  0  0  0
 58 60  1  0  0  0  0
 59 81  1  0  0  0  0
 60 82  1  0  0  0  0
 61 63  1  0  0  0  0
 61 73  1  0  0  0  0
 62 74  1  0  0  0  0
 64 66  1  0  0  0  0
M  CHG  1  74   1
M  ISO  4  34 100  36 100  60 101  82 101
M  END
> <Batch ID>
0106

> <Smiles>
CNC(C)C(=O)NC(C(=O)N1Cc2cc([101O:1][101CH2:1]CCCOc3ccc(N)c([100C:0](=N)[100C:0](=O)N4CCCC(n5nc(-c6ccc(Oc7ccc(F)cc7F)cc6)c(C(N)=O)c5N)C4)c3)ccc2CC1C(=O)NC1CCCc2ccccc21)C(C)(C)C

> <Shape>
0.229

> <Color>
0.080

> <Negative vol penalty>
0.000

$$$$

  -OEChem-04052301143D

 87 96  0     1  0  0  0  0  0999 V2000
  -16.7096  -30.6661   22.6536 C   0  0  0  0  0  0  0  0  0  0  0  0
  -17.7983  -31.4017   23.1107 C   0  0  0  0  0  0  0  0  0  0  0  0
  -23.3144   -9.7871   21.6476 C   0  0  0  0  0  0  0  0  0  0  0  0
  -23.4840  -12.1931   21.7864 C   0  0  0  0  0  0  0  0  0  0  0  0
  -16.8476  -29.3017   22.4021 C   0  0  0  0  0  0  0  0  0  0  0  0
  -19.0257  -30.7729   23.3176 C   0  0  0  0  0  0  0  0  0  0  0  0
  -27.0194  -28.4439   22.2548 C   0  0  0  0  0  0  0  0  0  0  0  0
  -22.2992   -9.8035   22.6040 C   0  0  0  0  0  0  0  0  0  0  0  0
  -22.4688  -12.2095   22.7428 C   0  0  0  0  0  0  0  0  0  0  0  0
  -27.7001  -27.2296   22.3320 C   0  0  0  0  0  0  0  0  0  0  0  0
  -18.9882  -10.4806   22.7107 C   0  0  0  0  0  0  0  0  0  0  0  0
  -17.8584   -9.6987   22.4703 C   0  0  0  0  0  0  0  0  0  0  0  0
  -25.9445  -26.1715   21.0601 C   0  0  0  0  0  0  0  0  0  0  0  0
  -28.5971  -19.0506   19.0393 C   0  0  0  0  0  0  0  0  0  0  0  0
  -30.7208  -17.4726   19.9242 C   0  0  0  0  0  0  0  0  0  0  0  0
  -18.2815   -8.4625   24.5025 C   0  0  0  0  0  0  0  0  0  0  0  0
  -23.9068  -10.9819   21.2388 C   0  0  0  0  0  0  0  0  0  0  0  0
  -24.8732  -10.4844   18.9310 C   0  0  0  0  0  0  0  0  0  0  0  0
  -18.0798  -28.6579   22.5969 C   0  0  0  0  0  0  0  0  0  0  0  0
  -25.7888  -28.5288   21.5879 C   0  0  0  0  0  0  0  0  0  0  0  0
  -19.1800  -29.3983   23.0698 C   0  0  0  0  0  0  0  0  0  0  0  0
  -25.2515  -27.3886   20.9736 C   0  0  0  0  0  0  0  0  0  0  0  0
  -29.7396  -19.6515   19.5677 C   0  0  0  0  0  0  0  0  0  0  0  0
  -28.5164  -17.6606   18.9534 C   0  0  0  0  0  0  0  0  0  0  0  0
  -29.5782  -16.8717   19.3958 C   0  0  0  0  0  0  0  0  0  0  0  0
  -21.8764  -11.0147   23.1516 C   0  0  0  0  0  0  0  0  0  0  0  0
  -27.1613  -26.0925   21.7371 C   0  0  0  0  0  0  0  0  0  0  0  0
  -19.7647  -10.2534   23.8470 C   0  0  0  0  0  0  0  0  0  0  0  0
  -17.5050   -8.6896   23.3662 C   0  0  0  0  0  0  0  0  0  0  0  0
  -30.8014  -18.8626   20.0101 C   0  0  0  0  0  0  0  0  0  0  0  0
  -19.4113   -9.2444   24.7429 C   0  0  0  0  0  0  0  0  0  0  0  0
  -24.9560  -10.9656   20.2513 C   0  0  0  0  0  0  0  0  0  0  0  0
  -26.1270  -10.6926   18.4104 C   0  0  0  0  0  0  0  0  0  0  0  0
  -29.9736  -23.9383   19.7935 C   0  0  0  0  0  0  0  0  0  0  0  0
  -23.7622   -9.9014   18.2370 C   0  0  0  0  0  0  0  0  0  0  0  0
  -22.8196  -29.2726   22.4449 C   0  0  0  0  0  0  0  0  0  0  0  0
  -22.2568  -29.0378   19.2589 C   0  0  0  0  0  0  0  0  0  0  0  0
  -23.2306  -26.8409   16.5677 C   0  0  0  0  0  0  0  0  0  0  0  0
  -30.5003  -14.5493   19.7161 C   0  0  0  0  0  0  0  0  0  0  0  0
  -18.1682  -27.1716   22.3566 C   0  0  0  0  0  0  0  0  0  0  0  0
  -25.0800  -29.8519   21.4905 C   0  0  0  0  0  0  0  0  0  0  0  0
  -23.9434  -27.4312   20.2284 C   0  0  0  0  0  0  0  0  0  0  0  0
  -30.9599  -23.1248   18.9909 C   0  0  0  0  0  0  0  0  0  0  0  0
  -19.6009  -26.6570   22.2436 C   0  0  0  0  0  0  0  0  0  0  0  0
  -30.7231  -10.9958   19.7214 C   0  0  0  0  0  0  0  0  0  0  0  0
  -20.4631  -27.2276   23.3652 C   0  0  0  0  0  0  0  0  0  0  0  0
  -29.2619  -10.5410   19.7316 C   0  0  0  0  0  0  0  0  0  0  0  0
  -31.1129  -21.7201   19.5618 C   0  0  0  0  0  0  0  0  0  0  0  0
  -30.9315  -12.2534   20.5633 C   0  0  0  0  0  0  0  0  0  0  0  0
  -28.6047  -21.8439   19.8445 C   0  0  0  0  0  0  0  0  0  0  0  0
  -28.5814  -12.9202   20.2446 C   0  0  0  0  0  0  0  0  0  0  0  0
  -20.5341  -28.7572   23.2827 C   0  0  1  0  0  0  0  0  0  0  0  0
  -28.9144  -23.1639   20.5627 C   0  0  2  0  0  0  0  0  0  0  0  0
  -23.5839  -29.7104   21.2276 C   0  0  1  0  0  0  0  0  0  0  0  0
  -28.3101  -11.6942   19.3576 C   0  0  2  0  0  0  0  0  0  0  0  0
  -23.4309  -27.2694   14.1032 C   0  0  0  0  0  0  0  0  0  0  0  0
  -19.4021  -27.9677   19.1348 C   0  0  0  0  0  0  0  0  0  0  0  0
  -19.9982  -26.8245   16.9886 C   0  0  0  0  0  0  0  0  0  0  0  0
  -20.0997  -29.3121   17.1447 C   0  0  0  0  0  0  0  0  0  0  0  0
  -26.0419  -25.9171   16.5178 C   0  0  0  0  0  0  0  0  0  0  0  0
  -27.6439  -23.9931   20.7295 C   0  0  0  0  0  0  0  0  0  1  0  0
  -21.8529  -27.9236   18.3239 C   0  0  1  0  0  0  0  0  0  0  0  0
  -24.1756  -27.1669   15.4252 C   0  0  2  0  0  0  0  0  0  0  0  0
  -20.3531  -28.0018   17.9217 C   0  0  0  0  0  0  0  0  0  0  0  0
  -26.1667  -11.4433   20.5511 N   0  0  0  0  0  0  0  0  0  0  0  0
  -26.8563  -11.2633   19.4117 N   0  0  0  0  0  0  0  0  0  0  0  0
  -29.8180  -21.0412   19.6536 N   0  0  3  0  0  0  0  0  0  0  0  0
  -23.2852  -28.7467   20.1664 N   0  0  0  0  0  0  0  0  0  0  0  0
  -29.9987  -13.3039   20.1498 N   0  0  0  0  0  0  0  0  0  0  0  0
  -27.3496  -17.0722   18.4155 N   0  0  0  0  0  0  0  0  0  0  0  0
  -26.6659  -10.4413   17.1984 N   0  0  0  0  0  0  0  0  0  0  0  0
  -22.5466   -9.7613   18.9204 N   0  0  0  0  0  0  0  0  0  0  0  0
  -29.5209  -15.4581   19.3169 N   0  0  0  0  0  0  0  0  0  0  0  0
  -21.4566  -29.1650   22.2448 N   0  0  0  0  0  0  0  0  0  0  0  0
  -22.7775  -27.9812   17.1968 N   0  0  0  0  0  0  0  0  0  0  0  0
  -25.2175  -26.1091   15.2969 N   0  3  0  0  0  0  0  0  0  0  0  0
  -30.0391  -25.1671   19.8123 O   0  0  0  0  0  0  0  0  0  0  0  0
  -23.8496   -9.5011   17.0515 O   0  0  0  0  0  0  0  0  0  0  0  0
  -23.4220  -29.0475   23.4880 O   0  0  0  0  0  0  0  0  0  0  0  0
  -21.6860  -30.1286   19.1820 O   0  0  0  0  0  0  0  0  0  0  0  0
  -22.9222  -25.6901   16.8693 O   0  0  0  0  0  0  0  0  0  0  0  0
  -31.7111  -14.7822   19.6741 O   0  0  0  0  0  0  0  0  0  0  0  0
  -20.8856  -11.0311   24.0847 O   0  0  0  0  0  0  0  0  0  0  0  0
  -27.8233  -24.9059   21.8116 O   0  0  0  0  0  0  0  0  0  1  0  0
  -16.4192   -7.9399   23.1360 F   0  0  0  0  0  0  0  0  0  0  0  0
  -31.9051  -19.4297   20.5175 F   0  0  0  0  0  0  0  0  0  0  0  0
  -20.1527   -9.0222   25.8369 F   0  0  0  0  0  0  0  0  0  0  0  0
  1  2  1  0  0  0  0
  1  5  2  0  0  0  0
  2  6  2  0  0  0  0
  3  8  2  0  0  0  0
  3 17  1  0  0  0  0
  4  9  1  0  0  0  0
  4 17  2  0  0  0  0
  5 19  1  0  0  0  0
  6 21  1  0  0  0  0
  7 10  2  0  0  0  0
  7 20  1  0  0  0  0
  8 26  1  0  0  0  0
  9 26  2  0  0  0  0
 10 27  1  0  0  0  0
 11 12  2  0  0  0  0
 11 28  1  0  0  0  0
 12 29  1  0  0  0  0
 13 22  1  0  0  0  0
 13 27  2  0  0  0  0
 14 23  1  0  0  0  0
 14 24  2  0  0  0  0
 15 25  2  0  0  0  0
 15 30  1  0  0  0  0
 16 29  2  0  0  0  0
 16 31  1  0  0  0  0
 17 32  1  0  0  0  0
 18 32  1  0  0  0  0
 18 33  2  0  0  0  0
 18 35  1  0  0  0  0
 19 21  2  0  0  0  0
 19 40  1  0  0  0  0
 20 22  2  0  0  0  0
 20 41  1  0  0  0  0
 21 52  1  0  0  0  0
 22 42  1  0  0  0  0
 23 30  2  0  0  0  0
 23 67  1  0  0  0  0
 24 25  1  0  0  0  0
 24 70  1  0  0  0  0
 25 73  1  0  0  0  0
 26 83  1  0  0  0  0
 27 84  1  0  0  0  0
 28 31  2  0  0  0  0
 28 83  1  0  0  0  0
 29 85  1  0  0  0  0
 30 86  1  0  0  0  0
 31 87  1  0  0  0  0
 32 65  2  0  0  0  0
 33 66  1  0  0  0  0
 33 71  1  0  0  0  0
 34 43  1  0  0  0  0
 34 53  1  0  0  0  0
 34 77  2  0  0  0  0
 35 72  1  0  0  0  0
 35 78  2  0  0  0  0
 36 54  1  0  0  0  0
 36 74  1  0  0  0  0
 36 79  2  0  0  0  0
 37 62  1  0  0  0  0
 37 68  1  0  0  0  0
 37 80  2  0  0  0  0
 38 63  1  0  0  0  0
 38 75  1  0  0  0  0
 38 81  2  0  0  0  0
 39 69  1  0  0  0  0
 39 73  1  0  0  0  0
 39 82  2  0  0  0  0
 40 44  1  0  0  0  0
 41 54  1  0  0  0  0
 42 68  1  0  0  0  0
 43 48  1  0  0  0  0
 44 46  1  0  0  0  0
 45 47  1  0  0  0  0
 45 49  1  0  0  0  0
 46 52  1  0  0  0  0
 47 55  1  0  0  0  0
 48 67  1  0  0  0  0
 49 69  1  0  0  0  0
 50 53  1  0  0  0  0
 50 67  1  0  0  0  0
 51 55  1  0  0  0  0
 51 69  1  0  0  0  0
 52 74  1  0  0  0  0
 53 61  1  0  0  0  0
 54 68  1  0  0  0  0
 55 66  1  0  0  0  0
 56 63  1  0  0  0  0
 57 64  1  0  0  0  0
 58 64  1  0  0  0  0
 59 64  1  0  0  0  0
 60 76  1  0  0  0  0
 61 84  1  0  0  0  0
 62 64  1  0  0  0  0
 62 75  1  0  0  0  0
 63 76  1  0  0  0  0
 65 66  1  0  0  0  0
M  CHG  1  76   1
M  ISO  4  39 100  61 101  73 100  84 101
M  END
> <Batch ID>
0106

> <Smiles>
CNC(C)C(=O)NC(C(=O)N1Cc2cc([101O:1][101CH2:1]C3CN(c4cc(N)c([100NH:0][100C:0](=O)N5CCCC(n6nc(-c7ccc(Oc8ccc(F)cc8F)cc7)c(C(N)=O)c6N)C5)cc4F)CCC3=O)ccc2CC1C(=O)NC1CCCc2ccccc21)C(C)(C)C

> <Shape>
0.261

> <Color>
0.114

> <Negative vol penalty>
0.000

$$$$

  -OEChem-04052301143D

 84 92  0     1  0  0  0  0  0999 V2000
  -25.1842  -17.9503   16.4368 C   0  0  0  0  0  0  0  0  0  0  0  0
  -25.6844  -17.5888   17.6836 C   0  0  0  0  0  0  0  0  0  0  0  0
  -23.0724   -9.8697   19.9445 C   0  0  0  0  0  0  0  0  0  0  0  0
  -23.8347   -9.8794   22.2370 C   0  0  0  0  0  0  0  0  0  0  0  0
  -24.3554  -19.0649   16.3160 C   0  0  0  0  0  0  0  0  0  0  0  0
  -25.3569  -18.3423   18.8102 C   0  0  0  0  0  0  0  0  0  0  0  0
  -24.4903  -16.2637   24.5053 C   0  0  0  0  0  0  0  0  0  0  0  0
  -22.3290   -8.7167   20.1965 C   0  0  0  0  0  0  0  0  0  0  0  0
  -23.0912   -8.7264   22.4891 C   0  0  0  0  0  0  0  0  0  0  0  0
  -25.3201  -16.2216   25.6249 C   0  0  0  0  0  0  0  0  0  0  0  0
  -22.9023   -5.3987   20.4905 C   0  0  0  0  0  0  0  0  0  0  0  0
  -22.9684   -4.3680   19.5530 C   0  0  0  0  0  0  0  0  0  0  0  0
  -24.3401  -18.2772   26.4208 C   0  0  0  0  0  0  0  0  0  0  0  0
  -29.4703  -18.4940   23.2568 C   0  0  0  0  0  0  0  0  0  0  0  0
  -30.2908  -17.2768   25.6291 C   0  0  0  0  0  0  0  0  0  0  0  0
  -20.5835   -4.5329   19.2036 C   0  0  0  0  0  0  0  0  0  0  0  0
  -23.8253  -10.4510   20.9647 C   0  0  0  0  0  0  0  0  0  0  0  0
  -24.1665  -12.9761   20.8415 C   0  0  0  0  0  0  0  0  0  0  0  0
  -24.0097  -19.8269   17.4432 C   0  0  0  0  0  0  0  0  0  0  0  0
  -23.5853  -17.3203   24.3293 C   0  0  0  0  0  0  0  0  0  0  0  0
  -24.5238  -19.4690   18.7042 C   0  0  0  0  0  0  0  0  0  0  0  0
  -23.4981  -18.3290   25.2994 C   0  0  0  0  0  0  0  0  0  0  0  0
  -30.3343  -17.3997   23.2166 C   0  0  0  0  0  0  0  0  0  0  0  0
  -30.7445  -16.7911   24.4027 C   0  0  0  0  0  0  0  0  0  0  0  0
  -29.0166  -18.9798   24.4831 C   0  0  0  0  0  0  0  0  0  0  0  0
  -22.3384   -8.1450   21.4688 C   0  0  0  0  0  0  0  0  0  0  0  0
  -25.2471  -17.2300   26.5814 C   0  0  0  0  0  0  0  0  0  0  0  0
  -21.6768   -5.9964   20.7847 C   0  0  0  0  0  0  0  0  0  0  0  0
  -29.4269  -18.3712   25.6693 C   0  0  0  0  0  0  0  0  0  0  0  0
  -21.8090   -3.9352   18.9095 C   0  0  0  0  0  0  0  0  0  0  0  0
  -20.5174   -5.5636   20.1412 C   0  0  0  0  0  0  0  0  0  0  0  0
  -24.5938  -11.6418   20.7049 C   0  0  0  0  0  0  0  0  0  0  0  0
  -25.2581  -13.7254   20.4763 C   0  0  0  0  0  0  0  0  0  0  0  0
  -22.8963  -13.4922   21.2612 C   0  0  0  0  0  0  0  0  0  0  0  0
  -23.1968  -19.6015   22.1501 C   0  0  0  0  0  0  0  0  0  0  0  0
  -20.5115  -20.2333   23.8567 C   0  0  0  0  0  0  0  0  0  0  0  0
  -18.8557  -20.0292   26.8338 C   0  0  0  0  0  0  0  0  0  0  0  0
  -30.7418  -14.7458   20.6578 C   0  0  0  0  0  0  0  0  0  0  0  0
  -23.1489  -21.0510   17.2558 C   0  0  0  0  0  0  0  0  0  0  0  0
  -22.6784  -17.3370   23.1295 C   0  0  0  0  0  0  0  0  0  0  0  0
  -22.5292  -19.4745   25.1675 C   0  0  0  0  0  0  0  0  0  0  0  0
  -22.5465  -21.5769   18.5562 C   0  0  0  0  0  0  0  0  0  0  0  0
  -29.6022  -12.3584   18.2749 C   0  0  0  0  0  0  0  0  0  0  0  0
  -23.6087  -21.6405   19.6491 C   0  0  0  0  0  0  0  0  0  0  0  0
  -28.1653  -12.0649   18.7096 C   0  0  0  0  0  0  0  0  0  0  0  0
  -30.5205  -12.5807   19.4746 C   0  0  0  0  0  0  0  0  0  0  0  0
  -28.6201  -13.3130   20.8623 C   0  0  0  0  0  0  0  0  0  0  0  0
  -24.1712  -20.2468   19.9535 C   0  0  1  0  0  0  0  0  0  0  0  0
  -22.1558  -18.7306   22.7948 C   0  0  1  0  0  0  0  0  0  0  0  0
  -27.6447  -13.1369   19.6859 C   0  0  2  0  0  0  0  0  0  0  0  0
  -31.6706  -15.6195   24.3854 C   0  0  0  0  0  0  0  0  0  0  0  0
  -16.6917  -20.6683   27.9322 C   0  0  0  0  0  0  0  0  0  0  0  0
  -21.4694  -23.1234   24.0571 C   0  0  0  0  0  0  0  0  0  0  0  0
  -19.8201  -23.4684   25.9087 C   0  0  0  0  0  0  0  0  0  0  0  0
  -19.0199  -22.8639   23.6247 C   0  0  0  0  0  0  0  0  0  0  0  0
  -18.1646  -17.2039   27.3802 C   0  0  0  0  0  0  0  0  0  0  0  0
  -30.8085  -16.8978   21.8922 C   0  0  0  0  0  0  0  0  0  0  0  0
  -27.7991  -18.3128   28.9109 C   0  0  0  0  0  0  0  0  0  0  0  0
  -26.4388  -18.4433   28.2439 C   0  0  0  0  0  0  0  0  0  1  0  0
  -28.8747  -17.8759   27.9288 C   0  0  0  0  0  0  0  0  0  0  0  0
  -20.1769  -21.1142   25.0361 C   0  0  1  0  0  0  0  0  0  0  0  0
  -17.4438  -19.5863   27.1729 C   0  0  2  0  0  0  0  0  0  0  0  0
  -20.1413  -22.6220   24.6585 C   0  0  0  0  0  0  0  0  0  0  0  0
  -25.8583  -11.5457   20.2854 N   0  0  0  0  0  0  0  0  0  0  0  0
  -26.2348  -12.8293   20.1552 N   0  0  0  0  0  0  0  0  0  0  0  0
  -21.6681  -19.4495   23.9736 N   0  0  0  0  0  0  0  0  0  0  0  0
  -29.9707  -13.6101   20.3600 N   0  0  0  0  0  0  0  0  0  0  0  0
  -28.1420  -20.0882   24.5098 N   0  0  0  0  0  0  0  0  0  0  0  0
  -25.4681  -15.0569   20.4015 N   0  0  0  0  0  0  0  0  0  0  0  0
  -21.8849  -12.5832   21.6005 N   0  0  0  0  0  0  0  0  0  0  0  0
  -23.2446  -19.4957   20.7732 N   0  0  0  0  0  0  0  0  0  0  0  0
  -18.9236  -20.6055   25.5830 N   0  0  0  0  0  0  0  0  0  0  0  0
  -30.1433  -15.6755   21.4994 N   0  0  0  0  0  0  0  0  0  0  0  0
  -17.4747  -18.3567   28.0142 N   0  3  0  0  0  0  0  0  0  0  0  0
  -22.6598  -14.7228   21.3174 O   0  0  0  0  0  0  0  0  0  0  0  0
  -23.9033  -20.3175   22.8500 O   0  0  0  0  0  0  0  0  0  0  0  0
  -19.7699  -20.2352   22.8709 O   0  0  0  0  0  0  0  0  0  0  0  0
  -19.8027  -19.8824   27.6032 O   0  0  0  0  0  0  0  0  0  0  0  0
  -31.8772  -14.9210   20.2028 O   0  0  0  0  0  0  0  0  0  0  0  0
  -21.6129   -7.0200   21.7151 O   0  0  0  0  0  0  0  0  0  0  0  0
  -26.0563  -17.1918   27.6749 O   0  0  0  0  0  0  0  0  0  1  0  0
  -28.9916  -18.8325   26.8843 O   0  0  0  0  0  0  0  0  0  0  0  0
  -21.8729   -2.9465   18.0081 F   0  0  0  0  0  0  0  0  0  0  0  0
  -19.3374   -6.1348   20.4187 F   0  0  0  0  0  0  0  0  0  0  0  0
  1  2  1  0  0  0  0
  1  5  2  0  0  0  0
  2  6  2  0  0  0  0
  3  8  2  0  0  0  0
  3 17  1  0  0  0  0
  4  9  1  0  0  0  0
  4 17  2  0  0  0  0
  5 19  1  0  0  0  0
  6 21  1  0  0  0  0
  7 10  2  0  0  0  0
  7 20  1  0  0  0  0
  8 26  1  0  0  0  0
  9 26  2  0  0  0  0
 10 27  1  0  0  0  0
 11 12  2  0  0  0  0
 11 28  1  0  0  0  0
 12 30  1  0  0  0  0
 13 22  1  0  0  0  0
 13 27  2  0  0  0  0
 14 23  2  0  0  0  0
 14 25  1  0  0  0  0
 15 24  2  0  0  0  0
 15 29  1  0  0  0  0
 16 30  2  0  0  0  0
 16 31  1  0  0  0  0
 17 32  1  0  0  0  0
 18 32  1  0  0  0  0
 18 33  2  0  0  0  0
 18 34  1  0  0  0  0
 19 21  2  0  0  0  0
 19 39  1  0  0  0  0
 20 22  2  0  0  0  0
 20 40  1  0  0  0  0
 21 48  1  0  0  0  0
 22 41  1  0  0  0  0
 23 24  1  0  0  0  0
 23 57  1  0  0  0  0
 24 51  1  0  0  0  0
 25 29  2  0  0  0  0
 25 68  1  0  0  0  0
 26 80  1  0  0  0  0
 27 81  1  0  0  0  0
 28 31  2  0  0  0  0
 28 80  1  0  0  0  0
 29 82  1  0  0  0  0
 30 83  1  0  0  0  0
 31 84  1  0  0  0  0
 32 64  2  0  0  0  0
 33 65  1  0  0  0  0
 33 69  1  0  0  0  0
 34 70  1  0  0  0  0
 34 75  2  0  0  0  0
 35 49  1  0  0  0  0
 35 71  1  0  0  0  0
 35 76  2  0  0  0  0
 36 61  1  0  0  0  0
 36 66  1  0  0  0  0
 36 77  2  0  0  0  0
 37 62  1  0  0  0  0
 37 72  1  0  0  0  0
 37 78  2  0  0  0  0
 38 67  1  0  0  0  0
 38 73  1  0  0  0  0
 38 79  2  0  0  0  0
 39 42  1  0  0  0  0
 40 49  1  0  0  0  0
 41 66  1  0  0  0  0
 42 44  1  0  0  0  0
 43 45  1  0  0  0  0
 43 46  1  0  0  0  0
 44 48  1  0  0  0  0
 45 50  1  0  0  0  0
 46 67  1  0  0  0  0
 47 50  1  0  0  0  0
 47 67  1  0  0  0  0
 48 71  1  0  0  0  0
 49 66  1  0  0  0  0
 50 65  1  0  0  0  0
 52 62  1  0  0  0  0
 53 63  1  0  0  0  0
 54 63  1  0  0  0  0
 55 63  1  0  0  0  0
 56 74  1  0  0  0  0
 57 73  1  0  0  0  0
 58 59  1  0  0  0  0
 58 60  1  0  0  0  0
 59 81  1  0  0  0  0
 60 82  1  0  0  0  0
 61 63  1  0  0  0  0
 61 72  1  0  0  0  0
 62 74  1  0  0  0  0
 64 65  1  0  0  0  0
M  CHG  1  74   1
M  ISO  4  38 100  59 101  73 100  81 101
M  END
> <Batch ID>
0106

> <Smiles>
CNC(C)C(=O)NC(C(=O)N1Cc2cc([101O:1][101CH2:1]CCOc3cc(C)c(C[100NH:0][100C:0](=O)N4CCCC(n5nc(-c6ccc(Oc7ccc(F)cc7F)cc6)c(C(N)=O)c5N)C4)cc3N)ccc2CC1C(=O)NC1CCCc2ccccc21)C(C)(C)C

> <Shape>
0.149

> <Color>
0.187

> <Negative vol penalty>
0.000

$$$$

  -OEChem-04052301143D

 82 90  0     1  0  0  0  0  0999 V2000
  -25.9985  -16.3234   23.5017 C   0  0  0  0  0  0  0  0  0  0  0  0
  -26.3223  -17.5304   24.1109 C   0  0  0  0  0  0  0  0  0  0  0  0
  -26.3533  -12.9287   21.4494 C   0  0  0  0  0  0  0  0  0  0  0  0
  -26.1190  -13.4584   19.1038 C   0  0  0  0  0  0  0  0  0  0  0  0
  -25.0807  -16.3001   22.4537 C   0  0  0  0  0  0  0  0  0  0  0  0
  -25.7196  -18.7129   23.6803 C   0  0  0  0  0  0  0  0  0  0  0  0
  -26.6472  -24.4851   25.3976 C   0  0  0  0  0  0  0  0  0  0  0  0
  -28.3133  -25.7469   20.6534 C   0  0  0  0  0  0  0  0  0  0  0  0
  -25.1297  -12.2596   21.4205 C   0  0  0  0  0  0  0  0  0  0  0  0
  -24.8954  -12.7893   19.0750 C   0  0  0  0  0  0  0  0  0  0  0  0
  -27.4429  -25.5604   25.0047 C   0  0  0  0  0  0  0  0  0  0  0  0
  -23.9554   -9.2581   20.3985 C   0  0  0  0  0  0  0  0  0  0  0  0
  -23.8827   -8.0127   21.0225 C   0  0  0  0  0  0  0  0  0  0  0  0
  -28.5496  -24.4847   20.1202 C   0  0  0  0  0  0  0  0  0  0  0  0
  -25.6099  -26.4326   23.7013 C   0  0  0  0  0  0  0  0  0  0  0  0
  -22.1671   -8.8539   22.5012 C   0  0  0  0  0  0  0  0  0  0  0  0
  -26.8479  -13.5281   20.2910 C   0  0  0  0  0  0  0  0  0  0  0  0
  -29.3851  -13.6748   20.0698 C   0  0  0  0  0  0  0  0  0  0  0  0
  -24.4763  -17.4851   22.0024 C   0  0  0  0  0  0  0  0  0  0  0  0
  -25.3282  -24.3695   24.9358 C   0  0  0  0  0  0  0  0  0  0  0  0
  -24.7729  -18.7069   22.6400 C   0  0  0  0  0  0  0  0  0  0  0  0
  -24.7988  -25.3562   24.0918 C   0  0  0  0  0  0  0  0  0  0  0  0
  -29.3274  -26.6982   20.6494 C   0  0  0  0  0  0  0  0  0  0  0  0
  -24.4008  -12.1899   20.2334 C   0  0  0  0  0  0  0  0  0  0  0  0
  -26.9252  -26.5328   24.1541 C   0  0  0  0  0  0  0  0  0  0  0  0
  -23.1340  -10.3014   20.8259 C   0  0  0  0  0  0  0  0  0  0  0  0
  -22.9885   -7.8106   22.0738 C   0  0  0  0  0  0  0  0  0  0  0  0
  -22.2399  -10.0993   21.8772 C   0  0  0  0  0  0  0  0  0  0  0  0
  -28.1115  -14.2198   20.3203 C   0  0  0  0  0  0  0  0  0  0  0  0
  -29.8071  -24.2258   19.5992 C   0  0  0  0  0  0  0  0  0  0  0  0
  -30.5502  -26.3401   20.1050 C   0  0  0  0  0  0  0  0  0  0  0  0
  -30.2474  -14.7329   20.2217 C   0  0  0  0  0  0  0  0  0  0  0  0
  -29.7554  -12.3320   19.7300 C   0  0  0  0  0  0  0  0  0  0  0  0
  -23.7435  -22.2436   23.1827 C   0  0  0  0  0  0  0  0  0  0  0  0
  -21.1915  -24.0927   23.9512 C   0  0  0  0  0  0  0  0  0  0  0  0
  -20.0117  -27.1471   24.9132 C   0  0  0  0  0  0  0  0  0  0  0  0
  -29.4753  -20.5546   19.6155 C   0  0  0  0  0  0  0  0  0  0  0  0
  -23.4839  -17.4013   20.8695 C   0  0  0  0  0  0  0  0  0  0  0  0
  -24.4743  -23.2176   25.3902 C   0  0  0  0  0  0  0  0  0  0  0  0
  -23.3823  -25.2891   23.5843 C   0  0  0  0  0  0  0  0  0  0  0  0
  -23.2371  -18.7467   20.1947 C   0  0  0  0  0  0  0  0  0  0  0  0
  -30.7140  -18.8758   22.5726 C   0  0  0  0  0  0  0  0  0  0  0  0
  -22.9452  -19.8087   21.2442 C   0  0  0  0  0  0  0  0  0  0  0  0
  -30.3011  -17.4289   22.2964 C   0  0  0  0  0  0  0  0  0  0  0  0
  -29.6542  -19.8567   22.0799 C   0  0  0  0  0  0  0  0  0  0  0  0
  -28.8883  -18.2651   20.3613 C   0  0  0  0  0  0  0  0  0  0  0  0
  -24.1530  -20.0098   22.1683 C   0  0  1  0  0  0  0  0  0  0  0  0
  -23.3100  -22.9286   24.4478 C   0  0  1  0  0  0  0  0  0  0  0  0
  -29.9287  -17.2254   20.8158 C   0  0  2  0  0  0  0  0  0  0  0  0
  -17.8765  -28.3625   25.4239 C   0  0  0  0  0  0  0  0  0  0  0  0
  -20.5888  -24.2829   20.9662 C   0  0  0  0  0  0  0  0  0  0  0  0
  -19.0836  -26.2205   21.4645 C   0  0  0  0  0  0  0  0  0  0  0  0
  -18.5770  -23.9721   22.4189 C   0  0  0  0  0  0  0  0  0  0  0  0
  -20.8510  -27.6899   27.6989 C   0  0  0  0  0  0  0  0  0  0  0  0
  -29.0664  -28.0660   21.2279 C   0  0  0  0  0  0  0  0  0  0  0  0
  -30.0965  -22.8817   19.0191 C   0  0  0  0  0  0  0  0  0  0  0  0
  -29.6839  -28.2775   22.6119 C   0  0  0  0  0  0  0  0  0  0  0  0
  -29.1056  -27.3548   23.6785 C   0  0  0  0  0  0  0  0  0  1  0  0
  -20.5224  -25.2993   23.3386 C   0  0  1  0  0  0  0  0  0  0  0  0
  -19.0284  -27.5515   25.9967 C   0  0  2  0  0  0  0  0  0  0  0  0
  -19.7203  -24.9443   22.0549 C   0  0  0  0  0  0  0  0  0  0  0  0
  -28.1563  -15.5230   20.6096 N   0  0  0  0  0  0  0  0  0  0  0  0
  -30.8171  -25.1242   19.5778 N   0  0  0  0  0  0  0  0  0  0  0  0
  -29.4684  -15.8057   20.5419 N   0  0  0  0  0  0  0  0  0  0  0  0
  -22.5892  -24.1402   24.0519 N   0  0  0  0  0  0  0  0  0  0  0  0
  -29.3590  -19.6219   20.6594 N   0  0  0  0  0  0  0  0  0  0  0  0
  -31.5875  -27.3060   20.1001 N   0  0  0  0  0  0  0  0  0  0  0  0
  -31.5885  -14.8411   20.1114 N   0  0  0  0  0  0  0  0  0  0  0  0
  -28.7439  -11.3688   19.6143 N   0  0  0  0  0  0  0  0  0  0  0  0
  -23.7678  -20.8647   23.2694 N   0  0  0  0  0  0  0  0  0  0  0  0
  -19.7197  -25.9023   24.3972 N   0  0  0  0  0  0  0  0  0  0  0  0
  -29.9210  -21.8183   19.9831 N   0  0  0  0  0  0  0  0  0  0  0  0
  -19.7112  -28.3736   27.0354 N   0  3  0  0  0  0  0  0  0  0  0  0
  -30.9497  -11.9926   19.5508 O   0  0  0  0  0  0  0  0  0  0  0  0
  -24.0331  -22.9163   22.2001 O   0  0  0  0  0  0  0  0  0  0  0  0
  -20.4990  -23.1460   24.3331 O   0  0  0  0  0  0  0  0  0  0  0  0
  -20.9434  -27.8654   24.5575 O   0  0  0  0  0  0  0  0  0  0  0  0
  -29.2070  -20.2799   18.4409 O   0  0  0  0  0  0  0  0  0  0  0  0
  -23.2069  -11.5370   20.2048 O   0  0  0  0  0  0  0  0  0  0  0  0
  -27.6999  -27.5831   23.7685 O   0  0  0  0  0  0  0  0  0  1  0  0
  -22.9177   -6.6142   22.6720 F   0  0  0  0  0  0  0  0  0  0  0  0
  -21.4474  -11.0974   22.2913 F   0  0  0  0  0  0  0  0  0  0  0  0
  1  2  1  0  0  0  0
  1  5  2  0  0  0  0
  2  6  2  0  0  0  0
  3  9  2  0  0  0  0
  3 17  1  0  0  0  0
  4 10  1  0  0  0  0
  4 17  2  0  0  0  0
  5 19  1  0  0  0  0
  6 21  1  0  0  0  0
  7 11  2  0  0  0  0
  7 20  1  0  0  0  0
  8 14  2  0  0  0  0
  8 23  1  0  0  0  0
  9 24  1  0  0  0  0
 10 24  2  0  0  0  0
 11 25  1  0  0  0  0
 12 13  2  0  0  0  0
 12 26  1  0  0  0  0
 13 27  1  0  0  0  0
 14 30  1  0  0  0  0
 15 22  1  0  0  0  0
 15 25  2  0  0  0  0
 16 27  2  0  0  0  0
 16 28  1  0  0  0  0
 17 29  1  0  0  0  0
 18 29  1  0  0  0  0
 18 32  2  0  0  0  0
 18 33  1  0  0  0  0
 19 21  2  0  0  0  0
 19 38  1  0  0  0  0
 20 22  2  0  0  0  0
 20 39  1  0  0  0  0
 21 47  1  0  0  0  0
 22 40  1  0  0  0  0
 23 31  2  0  0  0  0
 23 55  1  0  0  0  0
 24 79  1  0  0  0  0
 25 80  1  0  0  0  0
 26 28  2  0  0  0  0
 26 79  1  0  0  0  0
 27 81  1  0  0  0  0
 28 82  1  0  0  0  0
 29 62  2  0  0  0  0
 30 56  1  0  0  0  0
 30 63  2  0  0  0  0
 31 63  1  0  0  0  0
 31 67  1  0  0  0  0
 32 64  1  0  0  0  0
 32 68  1  0  0  0  0
 33 69  1  0  0  0  0
 33 74  2  0  0  0  0
 34 48  1  0  0  0  0
 34 70  1  0  0  0  0
 34 75  2  0  0  0  0
 35 59  1  0  0  0  0
 35 65  1  0  0  0  0
 35 76  2  0  0  0  0
 36 60  1  0  0  0  0
 36 71  1  0  0  0  0
 36 77  2  0  0  0  0
 37 66  1  0  0  0  0
 37 72  1  0  0  0  0
 37 78  2  0  0  0  0
 38 41  1  0  0  0  0
 39 48  1  0  0  0  0
 40 65  1  0  0  0  0
 41 43  1  0  0  0  0
 42 44  1  0  0  0  0
 42 45  1  0  0  0  0
 43 47  1  0  0  0  0
 44 49  1  0  0  0  0
 45 66  1  0  0  0  0
 46 49  1  0  0  0  0
 46 66  1  0  0  0  0
 47 70  1  0  0  0  0
 48 65  1  0  0  0  0
 49 64  1  0  0  0  0
 50 60  1  0  0  0  0
 51 61  1  0  0  0  0
 52 61  1  0  0  0  0
 53 61  1  0  0  0  0
 54 73  1  0  0  0  0
 55 57  1  0  0  0  0
 56 72  1  0  0  0  0
 57 58  1  0  0  0  0
 58 80  1  0  0  0  0
 59 61  1  0  0  0  0
 59 71  1  0  0  0  0
 60 73  1  0  0  0  0
 62 64  1  0  0  0  0
M  CHG  1  73   1
M  ISO  4  37 100  58 101  72 100  80 101
M  END
> <Batch ID>
0106

> <Smiles>
CNC(C)C(=O)NC(C(=O)N1Cc2cc([101O:1][101CH2:1]CCc3ccc(C[100NH:0][100C:0](=O)N4CCCC(n5nc(-c6ccc(Oc7ccc(F)cc7F)cc6)c(C(N)=O)c5N)C4)nc3N)ccc2CC1C(=O)NC1CCCc2ccccc21)C(C)(C)C

> <Shape>
0.219

> <Color>
0.067

> <Negative vol penalty>
0.000

$$$$

  -OEChem-04052301143D

 83 91  0     1  0  0  0  0  0999 V2000
  -16.9840  -28.9797   24.3992 C   0  0  0  0  0  0  0  0  0  0  0  0
  -17.4383  -27.9214   23.6188 C   0  0  0  0  0  0  0  0  0  0  0  0
  -24.9639  -13.8338   21.6712 C   0  0  0  0  0  0  0  0  0  0  0  0
  -26.7028  -13.5120   20.0251 C   0  0  0  0  0  0  0  0  0  0  0  0
  -17.5791  -30.2353   24.2836 C   0  0  0  0  0  0  0  0  0  0  0  0
  -18.4873  -28.1184   22.7215 C   0  0  0  0  0  0  0  0  0  0  0  0
  -22.8486  -24.0914   21.2153 C   0  0  0  0  0  0  0  0  0  0  0  0
  -24.2484  -12.7691   21.1235 C   0  0  0  0  0  0  0  0  0  0  0  0
  -25.9873  -12.4472   19.4774 C   0  0  0  0  0  0  0  0  0  0  0  0
  -22.9948  -23.2294   20.1294 C   0  0  0  0  0  0  0  0  0  0  0  0
  -24.3419   -9.3907   21.2252 C   0  0  0  0  0  0  0  0  0  0  0  0
  -23.7912   -8.4590   22.1051 C   0  0  0  0  0  0  0  0  0  0  0  0
  -24.3791  -24.8666   19.0238 C   0  0  0  0  0  0  0  0  0  0  0  0
  -31.5922  -20.4717   15.6998 C   0  0  0  0  0  0  0  0  0  0  0  0
  -29.6185  -21.7248   15.0909 C   0  0  0  0  0  0  0  0  0  0  0  0
  -21.5842   -8.9709   21.2657 C   0  0  0  0  0  0  0  0  0  0  0  0
  -26.1912  -14.2053   21.1219 C   0  0  0  0  0  0  0  0  0  0  0  0
  -27.8917  -15.2456   22.7137 C   0  0  0  0  0  0  0  0  0  0  0  0
  -18.6423  -30.4453   23.3914 C   0  0  0  0  0  0  0  0  0  0  0  0
  -23.4587  -25.3540   21.2090 C   0  0  0  0  0  0  0  0  0  0  0  0
  -19.0963  -29.3783   22.5929 C   0  0  0  0  0  0  0  0  0  0  0  0
  -24.2412  -25.7418   20.1120 C   0  0  0  0  0  0  0  0  0  0  0  0
  -30.8774  -21.2203   14.7649 C   0  0  0  0  0  0  0  0  0  0  0  0
  -31.0482  -20.2275   16.9608 C   0  0  0  0  0  0  0  0  0  0  0  0
  -29.7893  -20.7319   17.2869 C   0  0  0  0  0  0  0  0  0  0  0  0
  -24.7601  -12.0758   20.0266 C   0  0  0  0  0  0  0  0  0  0  0  0
  -23.7577  -23.6181   19.0321 C   0  0  0  0  0  0  0  0  0  0  0  0
  -23.5138  -10.1126   20.3656 C   0  0  0  0  0  0  0  0  0  0  0  0
  -29.0744  -21.4806   16.3519 C   0  0  0  0  0  0  0  0  0  0  0  0
  -22.4123   -8.2491   22.1254 C   0  0  0  0  0  0  0  0  0  0  0  0
  -22.1350   -9.9026   20.3859 C   0  0  0  0  0  0  0  0  0  0  0  0
  -26.9305  -15.3054   21.6869 C   0  0  0  0  0  0  0  0  0  0  0  0
  -28.2945  -16.5477   22.8833 C   0  0  0  0  0  0  0  0  0  0  0  0
  -28.3772  -14.1141   23.4484 C   0  0  0  0  0  0  0  0  0  0  0  0
  -22.4098  -28.3526   21.3194 C   0  0  0  0  0  0  0  0  0  0  0  0
  -25.5737  -29.0405   21.5160 C   0  0  0  0  0  0  0  0  0  0  0  0
  -28.7905  -28.0842   20.8959 C   0  0  0  0  0  0  0  0  0  0  0  0
  -28.3483  -21.3076   19.2715 C   0  0  0  0  0  0  0  0  0  0  0  0
  -19.2226  -31.8319   23.2672 C   0  0  0  0  0  0  0  0  0  0  0  0
  -23.3133  -26.2615   22.3997 C   0  0  0  0  0  0  0  0  0  0  0  0
  -24.9335  -27.0786   20.0647 C   0  0  0  0  0  0  0  0  0  0  0  0
  -20.5768  -31.8646   22.5634 C   0  0  0  0  0  0  0  0  0  0  0  0
  -26.7159  -21.0457   22.4249 C   0  0  0  0  0  0  0  0  0  0  0  0
  -20.5410  -31.0151   21.2970 C   0  0  0  0  0  0  0  0  0  0  0  0
  -26.6786  -19.5389   22.6898 C   0  0  0  0  0  0  0  0  0  0  0  0
  -26.5125  -21.3666   20.9452 C   0  0  0  0  0  0  0  0  0  0  0  0
  -27.3789  -19.1548   20.2920 C   0  0  0  0  0  0  0  0  0  0  0  0
  -20.2483  -29.5463   21.6260 C   0  0  1  0  0  0  0  0  0  0  0  0
  -23.5562  -27.7300   22.0649 C   0  0  1  0  0  0  0  0  0  0  0  0
  -27.6440  -18.7790   21.7590 C   0  0  2  0  0  0  0  0  0  0  0  0
  -31.1609  -28.8728   21.1347 C   0  0  0  0  0  0  0  0  0  0  0  0
  -25.1845  -30.9205   19.1445 C   0  0  0  0  0  0  0  0  0  0  0  0
  -27.6689  -30.9314   18.8347 C   0  0  0  0  0  0  0  0  0  0  0  0
  -26.6733  -31.8091   20.9468 C   0  0  0  0  0  0  0  0  0  0  0  0
  -29.4932  -25.8083   22.6525 C   0  0  0  0  0  0  0  0  0  0  0  0
  -25.4754  -21.5129   16.6508 C   0  0  0  0  0  0  0  0  0  0  0  0
  -25.1164  -22.8731   17.2280 C   0  0  0  0  0  0  0  0  0  1  0  0
  -26.7553  -21.5624   15.8313 C   0  0  0  0  0  0  0  0  0  0  0  0
  -26.6716  -29.3176   20.5175 C   0  0  1  0  0  0  0  0  0  0  0  0
  -30.0286  -28.0845   21.7744 C   0  0  2  0  0  0  0  0  0  0  0  0
  -26.5351  -30.7202   19.8606 C   0  0  0  0  0  0  0  0  0  0  0  0
  -26.7343  -16.5473   21.2361 N   0  0  0  0  0  0  0  0  0  0  0  0
  -27.5777  -17.2798   21.9832 N   0  0  0  0  0  0  0  0  0  0  0  0
  -24.7559  -27.9331   21.2503 N   0  0  0  0  0  0  0  0  0  0  0  0
  -27.4643  -20.6141   20.1249 N   0  0  0  0  0  0  0  0  0  0  0  0
  -31.4276  -21.4657   13.4897 N   0  0  0  0  0  0  0  0  0  0  0  0
  -31.7901  -19.4652   17.8912 N   0  0  0  0  0  0  0  0  0  0  0  0
  -29.1882  -17.1263   23.7133 N   0  0  0  0  0  0  0  0  0  0  0  0
  -27.8565  -12.8483   23.1469 N   0  0  0  0  0  0  0  0  0  0  0  0
  -29.2292  -20.4888   18.5655 N   0  0  0  0  0  0  0  0  0  0  0  0
  -21.4365  -28.8961   22.1359 N   0  0  0  0  0  0  0  0  0  0  0  0
  -27.9298  -29.1096   21.2261 N   0  0  0  0  0  0  0  0  0  0  0  0
  -30.4995  -26.6897   22.0064 N   0  3  0  0  0  0  0  0  0  0  0  0
  -29.2350  -14.2245   24.3569 O   0  0  0  0  0  0  0  0  0  0  0  0
  -22.4091  -28.3420   20.0940 O   0  0  0  0  0  0  0  0  0  0  0  0
  -25.4509  -29.7752   22.4992 O   0  0  0  0  0  0  0  0  0  0  0  0
  -28.6072  -27.2593   20.0035 O   0  0  0  0  0  0  0  0  0  0  0  0
  -28.3440  -22.5388   19.1945 O   0  0  0  0  0  0  0  0  0  0  0  0
  -24.0622  -11.0366   19.4921 O   0  0  0  0  0  0  0  0  0  0  0  0
  -23.9014  -22.7789   17.9706 O   0  0  0  0  0  0  0  0  0  1  0  0
  -27.8363  -21.9874   16.6503 O   0  0  0  0  0  0  0  0  0  0  0  0
  -21.8837   -7.3532   22.9693 F   0  0  0  0  0  0  0  0  0  0  0  0
  -21.3345  -10.5923   19.5616 F   0  0  0  0  0  0  0  0  0  0  0  0
  1  2  1  0  0  0  0
  1  5  2  0  0  0  0
  2  6  2  0  0  0  0
  3  8  2  0  0  0  0
  3 17  1  0  0  0  0
  4  9  1  0  0  0  0
  4 17  2  0  0  0  0
  5 19  1  0  0  0  0
  6 21  1  0  0  0  0
  7 10  2  0  0  0  0
  7 20  1  0  0  0  0
  8 26  1  0  0  0  0
  9 26  2  0  0  0  0
 10 27  1  0  0  0  0
 11 12  2  0  0  0  0
 11 28  1  0  0  0  0
 12 30  1  0  0  0  0
 13 22  1  0  0  0  0
 13 27  2  0  0  0  0
 14 23  1  0  0  0  0
 14 24  2  0  0  0  0
 15 23  2  0  0  0  0
 15 29  1  0  0  0  0
 16 30  2  0  0  0  0
 16 31  1  0  0  0  0
 17 32  1  0  0  0  0
 18 32  1  0  0  0  0
 18 33  2  0  0  0  0
 18 34  1  0  0  0  0
 19 21  2  0  0  0  0
 19 39  1  0  0  0  0
 20 22  2  0  0  0  0
 20 40  1  0  0  0  0
 21 48  1  0  0  0  0
 22 41  1  0  0  0  0
 23 66  1  0  0  0  0
 24 25  1  0  0  0  0
 24 67  1  0  0  0  0
 25 29  2  0  0  0  0
 25 70  1  0  0  0  0
 26 79  1  0  0  0  0
 27 80  1  0  0  0  0
 28 31  2  0  0  0  0
 28 79  1  0  0  0  0
 29 81  1  0  0  0  0
 30 82  1  0  0  0  0
 31 83  1  0  0  0  0
 32 62  2  0  0  0  0
 33 63  1  0  0  0  0
 33 68  1  0  0  0  0
 34 69  1  0  0  0  0
 34 74  2  0  0  0  0
 35 49  1  0  0  0  0
 35 71  1  0  0  0  0
 35 75  2  0  0  0  0
 36 59  1  0  0  0  0
 36 64  1  0  0  0  0
 36 76  2  0  0  0  0
 37 60  1  0  0  0  0
 37 72  1  0  0  0  0
 37 77  2  0  0  0  0
 38 65  1  0  0  0  0
 38 70  1  0  0  0  0
 38 78  2  0  0  0  0
 39 42  1  0  0  0  0
 40 49  1  0  0  0  0
 41 64  1  0  0  0  0
 42 44  1  0  0  0  0
 43 45  1  0  0  0  0
 43 46  1  0  0  0  0
 44 48  1  0  0  0  0
 45 50  1  0  0  0  0
 46 65  1  0  0  0  0
 47 50  1  0  0  0  0
 47 65  1  0  0  0  0
 48 71  1  0  0  0  0
 49 64  1  0  0  0  0
 50 63  1  0  0  0  0
 51 60  1  0  0  0  0
 52 61  1  0  0  0  0
 53 61  1  0  0  0  0
 54 61  1  0  0  0  0
 55 73  1  0  0  0  0
 56 57  1  0  0  0  0
 56 58  1  0  0  0  0
 57 80  1  0  0  0  0
 58 81  1  0  0  0  0
 59 61  1  0  0  0  0
 59 72  1  0  0  0  0
 60 73  1  0  0  0  0
 62 63  1  0  0  0  0
M  CHG  1  73   1
M  ISO  4  38 100  57 101  70 100  80 101
M  END
> <Batch ID>
0106

> <Smiles>
CNC(C)C(=O)NC(C(=O)N1Cc2cc([101O:1][101CH2:1]CCOc3cc(N)cc(N)c3[100NH:0][100C:0](=O)N3CCCC(n4nc(-c5ccc(Oc6ccc(F)cc6F)cc5)c(C(N)=O)c4N)C3)ccc2CC1C(=O)NC1CCCc2ccccc21)C(C)(C)C

> <Shape>
0.223

> <Color>
0.085

> <Negative vol penalty>
0.000

$$$$

  -OEChem-04052301143D

 84 92  0     1  0  0  0  0  0999 V2000
  -25.9074  -37.6109   20.7679 C   0  0  0  0  0  0  0  0  0  0  0  0
  -26.6377  -36.4638   20.4742 C   0  0  0  0  0  0  0  0  0  0  0  0
  -23.4124   -9.6511   20.4555 C   0  0  0  0  0  0  0  0  0  0  0  0
  -24.0114  -10.1929   22.7324 C   0  0  0  0  0  0  0  0  0  0  0  0
  -24.9568  -37.5887   21.7877 C   0  0  0  0  0  0  0  0  0  0  0  0
  -26.4186  -35.2940   21.2009 C   0  0  0  0  0  0  0  0  0  0  0  0
  -26.7073  -29.5478   19.1024 C   0  0  0  0  0  0  0  0  0  0  0  0
  -22.7830   -8.4876   20.8979 C   0  0  0  0  0  0  0  0  0  0  0  0
  -23.3820   -9.0294   23.1749 C   0  0  0  0  0  0  0  0  0  0  0  0
  -27.7066  -28.5774   19.1598 C   0  0  0  0  0  0  0  0  0  0  0  0
  -20.2265   -7.9827   23.7812 C   0  0  0  0  0  0  0  0  0  0  0  0
  -19.4015   -8.0799   24.9017 C   0  0  0  0  0  0  0  0  0  0  0  0
  -26.6563  -27.6197   21.1089 C   0  0  0  0  0  0  0  0  0  0  0  0
  -28.8102  -20.0840   21.2305 C   0  0  0  0  0  0  0  0  0  0  0  0
  -30.5338  -18.3508   19.8860 C   0  0  0  0  0  0  0  0  0  0  0  0
  -20.7938   -6.4846   26.0652 C   0  0  0  0  0  0  0  0  0  0  0  0
  -24.0266  -10.5038   21.3728 C   0  0  0  0  0  0  0  0  0  0  0  0
  -24.0994  -12.9803   20.7652 C   0  0  0  0  0  0  0  0  0  0  0  0
  -24.7191  -36.4153   22.5208 C   0  0  0  0  0  0  0  0  0  0  0  0
  -25.6792  -29.5681   20.0559 C   0  0  0  0  0  0  0  0  0  0  0  0
  -25.4649  -35.2564   22.2323 C   0  0  0  0  0  0  0  0  0  0  0  0
  -25.6437  -28.5899   21.0599 C   0  0  0  0  0  0  0  0  0  0  0  0
  -28.7784  -18.7168   21.5052 C   0  0  0  0  0  0  0  0  0  0  0  0
  -29.7036  -20.5846   20.2835 C   0  0  0  0  0  0  0  0  0  0  0  0
  -29.6403  -17.8502   20.8329 C   0  0  0  0  0  0  0  0  0  0  0  0
  -30.5655  -19.7180   19.6113 C   0  0  0  0  0  0  0  0  0  0  0  0
  -22.7678   -8.1767   22.2576 C   0  0  0  0  0  0  0  0  0  0  0  0
  -27.6829  -27.6149   20.1649 C   0  0  0  0  0  0  0  0  0  0  0  0
  -21.3351   -7.1364   23.8026 C   0  0  0  0  0  0  0  0  0  0  0  0
  -19.6852   -7.3309   26.0437 C   0  0  0  0  0  0  0  0  0  0  0  0
  -21.6188   -6.3873   24.9446 C   0  0  0  0  0  0  0  0  0  0  0  0
  -24.6773  -11.7056   20.9163 C   0  0  0  0  0  0  0  0  0  0  0  0
  -25.1256  -13.7705   20.3081 C   0  0  0  0  0  0  0  0  0  0  0  0
  -22.7552  -13.4116   21.0158 C   0  0  0  0  0  0  0  0  0  0  0  0
  -24.7051  -31.6405   22.2604 C   0  0  0  0  0  0  0  0  0  0  0  0
  -29.1417  -24.2930   20.1661 C   0  0  0  0  0  0  0  0  0  0  0  0
  -22.2790  -29.5182   22.6237 C   0  0  0  0  0  0  0  0  0  0  0  0
  -21.1564  -26.3140   22.2775 C   0  0  0  0  0  0  0  0  0  0  0  0
  -30.4218  -15.4769   20.5121 C   0  0  0  0  0  0  0  0  0  0  0  0
  -23.7148  -36.4529   23.6453 C   0  0  0  0  0  0  0  0  0  0  0  0
  -24.5939  -30.6055   19.9643 C   0  0  0  0  0  0  0  0  0  0  0  0
  -24.5506  -28.5558   22.0955 C   0  0  0  0  0  0  0  0  0  0  0  0
  -23.2781  -35.0688   24.1185 C   0  0  0  0  0  0  0  0  0  0  0  0
  -29.7376  -12.5345   18.6276 C   0  0  0  0  0  0  0  0  0  0  0  0
  -24.4900  -34.1615   24.3051 C   0  0  0  0  0  0  0  0  0  0  0  0
  -28.3126  -12.1614   19.0426 C   0  0  0  0  0  0  0  0  0  0  0  0
  -30.5397  -13.0995   19.7985 C   0  0  0  0  0  0  0  0  0  0  0  0
  -28.4770  -13.8441   20.9210 C   0  0  0  0  0  0  0  0  0  0  0  0
  -25.2384  -33.9614   22.9817 C   0  0  1  0  0  0  0  0  0  0  0  0
  -23.8798  -30.8419   21.2915 C   0  0  1  0  0  0  0  0  0  0  0  0
  -27.6100  -13.3309   19.7598 C   0  0  2  0  0  0  0  0  0  0  0  0
  -27.8114  -18.2083   22.5247 C   0  0  0  0  0  0  0  0  0  0  0  0
  -19.1430  -24.8761   22.6965 C   0  0  0  0  0  0  0  0  0  0  0  0
  -22.9458  -29.4559   25.6005 C   0  0  0  0  0  0  0  0  0  0  0  0
  -21.5899  -27.3597   25.7893 C   0  0  0  0  0  0  0  0  0  0  0  0
  -20.5000  -29.4884   25.0798 C   0  0  0  0  0  0  0  0  0  0  0  0
  -20.8652  -25.6821   19.4009 C   0  0  0  0  0  0  0  0  0  0  0  0
  -28.8582  -22.8981   20.6817 C   0  0  0  0  0  0  0  0  0  0  0  0
  -28.2977  -25.3986   20.7700 C   0  0  0  0  0  0  0  0  0  1  0  0
  -22.0479  -28.2943   23.4767 C   0  0  1  0  0  0  0  0  0  0  0  0
  -19.8727  -25.7542   21.6919 C   0  0  2  0  0  0  0  0  0  0  0  0
  -21.7927  -28.6511   24.9684 C   0  0  0  0  0  0  0  0  0  0  0  0
  -25.9703  -11.6827   20.5821 N   0  0  0  0  0  0  0  0  0  0  0  0
  -26.2134  -12.9528   20.2164 N   0  0  0  0  0  0  0  0  0  0  0  0
  -23.5156  -29.5950   21.9674 N   0  0  0  0  0  0  0  0  0  0  0  0
  -29.8145  -14.2063   20.4263 N   0  0  0  0  0  0  0  0  0  0  0  0
  -31.4787  -20.2042   18.6489 N   0  0  0  0  0  0  0  0  0  0  0  0
  -25.1946  -15.0781   19.9796 N   0  0  0  0  0  0  0  0  0  0  0  0
  -21.8277  -12.4704   21.4829 N   0  0  0  0  0  0  0  0  0  0  0  0
  -29.6244  -16.4586   21.0994 N   0  0  0  0  0  0  0  0  0  0  0  0
  -29.7191  -21.9478   20.0252 N   0  0  0  0  0  0  0  0  0  0  0  0
  -24.5409  -33.0078   22.1458 N   0  0  0  0  0  0  0  0  0  0  0  0
  -20.9603  -27.5555   22.8445 N   0  0  0  0  0  0  0  0  0  0  0  0
  -20.1687  -24.9371   20.4812 N   0  3  0  0  0  0  0  0  0  0  0  0
  -22.3834  -14.5927   20.8152 O   0  0  0  0  0  0  0  0  0  0  0  0
  -25.4356  -31.0593   23.0543 O   0  0  0  0  0  0  0  0  0  0  0  0
  -29.9976  -24.5260   19.3135 O   0  0  0  0  0  0  0  0  0  0  0  0
  -21.3920  -30.3711   22.5370 O   0  0  0  0  0  0  0  0  0  0  0  0
  -22.2254  -25.7088   22.2394 O   0  0  0  0  0  0  0  0  0  0  0  0
  -31.5547  -15.6859   20.0706 O   0  0  0  0  0  0  0  0  0  0  0  0
  -22.1536   -7.0416   22.6897 O   0  0  0  0  0  0  0  0  0  0  0  0
  -28.6574  -26.6669   20.2236 O   0  0  0  0  0  0  0  0  0  1  0  0
  -18.8937   -7.4255   27.1202 F   0  0  0  0  0  0  0  0  0  0  0  0
  -22.6830   -5.5734   24.9715 F   0  0  0  0  0  0  0  0  0  0  0  0
  1  2  1  0  0  0  0
  1  5  2  0  0  0  0
  2  6  2  0  0  0  0
  3  8  2  0  0  0  0
  3 17  1  0  0  0  0
  4  9  1  0  0  0  0
  4 17  2  0  0  0  0
  5 19  1  0  0  0  0
  6 21  1  0  0  0  0
  7 10  2  0  0  0  0
  7 20  1  0  0  0  0
  8 27  1  0  0  0  0
  9 27  2  0  0  0  0
 10 28  1  0  0  0  0
 11 12  2  0  0  0  0
 11 29  1  0  0  0  0
 12 30  1  0  0  0  0
 13 22  1  0  0  0  0
 13 28  2  0  0  0  0
 14 23  2  0  0  0  0
 14 24  1  0  0  0  0
 15 25  2  0  0  0  0
 15 26  1  0  0  0  0
 16 30  2  0  0  0  0
 16 31  1  0  0  0  0
 17 32  1  0  0  0  0
 18 32  1  0  0  0  0
 18 33  2  0  0  0  0
 18 34  1  0  0  0  0
 19 21  2  0  0  0  0
 19 40  1  0  0  0  0
 20 22  2  0  0  0  0
 20 41  1  0  0  0  0
 21 49  1  0  0  0  0
 22 42  1  0  0  0  0
 23 25  1  0  0  0  0
 23 52  1  0  0  0  0
 24 26  2  0  0  0  0
 24 71  1  0  0  0  0
 25 70  1  0  0  0  0
 26 67  1  0  0  0  0
 27 81  1  0  0  0  0
 28 82  1  0  0  0  0
 29 31  2  0  0  0  0
 29 81  1  0  0  0  0
 30 83  1  0  0  0  0
 31 84  1  0  0  0  0
 32 63  2  0  0  0  0
 33 64  1  0  0  0  0
 33 68  1  0  0  0  0
 34 69  1  0  0  0  0
 34 75  2  0  0  0  0
 35 50  1  0  0  0  0
 35 72  1  0  0  0  0
 35 76  2  0  0  0  0
 36 58  1  0  0  0  0
 36 59  1  0  0  0  0
 36 77  2  0  0  0  0
 37 60  1  0  0  0  0
 37 65  1  0  0  0  0
 37 78  2  0  0  0  0
 38 61  1  0  0  0  0
 38 73  1  0  0  0  0
 38 79  2  0  0  0  0
 39 66  1  0  0  0  0
 39 70  1  0  0  0  0
 39 80  2  0  0  0  0
 40 43  1  0  0  0  0
 41 50  1  0  0  0  0
 42 65  1  0  0  0  0
 43 45  1  0  0  0  0
 44 46  1  0  0  0  0
 44 47  1  0  0  0  0
 45 49  1  0  0  0  0
 46 51  1  0  0  0  0
 47 66  1  0  0  0  0
 48 51  1  0  0  0  0
 48 66  1  0  0  0  0
 49 72  1  0  0  0  0
 50 65  1  0  0  0  0
 51 64  1  0  0  0  0
 53 61  1  0  0  0  0
 54 62  1  0  0  0  0
 55 62  1  0  0  0  0
 56 62  1  0  0  0  0
 57 74  1  0  0  0  0
 58 71  1  0  0  0  0
 59 82  1  0  0  0  0
 60 62  1  0  0  0  0
 60 73  1  0  0  0  0
 61 74  1  0  0  0  0
 63 64  1  0  0  0  0
M  CHG  1  74   1
M  ISO  4  39 100  59 101  70 100  82 101
M  END
> <Batch ID>
0106

> <Smiles>
CNC(C)C(=O)NC(C(=O)N1Cc2cc([101O:1][101CH2:1]C(=O)CNc3cc(C)c([100NH:0][100C:0](=O)N4CCCC(n5nc(-c6ccc(Oc7ccc(F)cc7F)cc6)c(C(N)=O)c5N)C4)cc3N)ccc2CC1C(=O)NC1CCCc2ccccc21)C(C)(C)C

> <Shape>
0.389

> <Color>
0.202

> <Negative vol penalty>
0.000

$$$$

  -OEChem-04052301143D

 85 93  0     1  0  0  0  0  0999 V2000
  -25.2068  -32.2818   26.9854 C   0  0  0  0  0  0  0  0  0  0  0  0
  -26.1259  -31.3546   26.5047 C   0  0  0  0  0  0  0  0  0  0  0  0
  -24.1976   -9.8261   21.6636 C   0  0  0  0  0  0  0  0  0  0  0  0
  -24.6911  -11.0557   23.6839 C   0  0  0  0  0  0  0  0  0  0  0  0
  -23.8663  -32.1902   26.6133 C   0  0  0  0  0  0  0  0  0  0  0  0
  -25.7047  -30.3345   25.6524 C   0  0  0  0  0  0  0  0  0  0  0  0
  -28.8641  -27.8647   21.0238 C   0  0  0  0  0  0  0  0  0  0  0  0
  -23.7909   -8.7328   22.4284 C   0  0  0  0  0  0  0  0  0  0  0  0
  -24.2843   -9.9625   24.4487 C   0  0  0  0  0  0  0  0  0  0  0  0
  -29.6210  -26.6983   20.9218 C   0  0  0  0  0  0  0  0  0  0  0  0
  -21.0607   -7.8063   24.1950 C   0  0  0  0  0  0  0  0  0  0  0  0
  -19.8761   -7.1658   23.8316 C   0  0  0  0  0  0  0  0  0  0  0  0
  -27.7139  -25.5491   19.9936 C   0  0  0  0  0  0  0  0  0  0  0  0
  -30.1285  -18.9954   23.7817 C   0  0  0  0  0  0  0  0  0  0  0  0
  -21.0939   -5.1073   23.4898 C   0  0  0  0  0  0  0  0  0  0  0  0
  -24.6478  -10.9876   22.2914 C   0  0  0  0  0  0  0  0  0  0  0  0
  -29.4732  -18.5411   21.5011 C   0  0  0  0  0  0  0  0  0  0  0  0
  -24.2685  -13.1830   21.0488 C   0  0  0  0  0  0  0  0  0  0  0  0
  -23.4302  -31.1742   25.7483 C   0  0  0  0  0  0  0  0  0  0  0  0
  -27.5210  -27.8791   20.6210 C   0  0  0  0  0  0  0  0  0  0  0  0
  -24.3568  -30.2284   25.2695 C   0  0  0  0  0  0  0  0  0  0  0  0
  -26.9428  -26.7176   20.0892 C   0  0  0  0  0  0  0  0  0  0  0  0
  -29.4720  -19.9092   21.2289 C   0  0  0  0  0  0  0  0  0  0  0  0
  -29.8015  -18.0842   22.7775 C   0  0  0  0  0  0  0  0  0  0  0  0
  -30.1271  -20.3635   23.5096 C   0  0  0  0  0  0  0  0  0  0  0  0
  -23.8342   -8.8010   23.8209 C   0  0  0  0  0  0  0  0  0  0  0  0
  -29.0451  -25.5395   20.4093 C   0  0  0  0  0  0  0  0  0  0  0  0
  -22.2620   -7.0973   24.2057 C   0  0  0  0  0  0  0  0  0  0  0  0
  -29.7989  -20.8203   22.2332 C   0  0  0  0  0  0  0  0  0  0  0  0
  -19.8927   -5.8164   23.4790 C   0  0  0  0  0  0  0  0  0  0  0  0
  -22.2785   -5.7479   23.8532 C   0  0  0  0  0  0  0  0  0  0  0  0
  -25.0687  -12.1170   21.5019 C   0  0  0  0  0  0  0  0  0  0  0  0
  -25.1333  -13.9880   20.3486 C   0  0  0  0  0  0  0  0  0  0  0  0
  -29.1304  -17.5893   20.4480 C   0  0  0  0  0  0  0  0  0  0  0  0
  -22.8686  -13.4239   21.2436 C   0  0  0  0  0  0  0  0  0  0  0  0
  -30.0928  -16.5531   20.0081 C   0  0  0  0  0  0  0  0  0  0  0  0
  -24.7465  -28.4012   22.0816 C   0  0  0  0  0  0  0  0  0  0  0  0
  -23.5655  -28.1934   19.0676 C   0  0  0  0  0  0  0  0  0  0  0  0
  -23.9436  -27.0304   15.8815 C   0  0  0  0  0  0  0  0  0  0  0  0
  -21.9625  -31.0876   25.4119 C   0  0  0  0  0  0  0  0  0  0  0  0
  -26.7257  -29.1525   20.7126 C   0  0  0  0  0  0  0  0  0  0  0  0
  -25.5108  -26.6862   19.6238 C   0  0  0  0  0  0  0  0  0  0  0  0
  -21.6654  -30.1994   24.2064 C   0  0  0  0  0  0  0  0  0  0  0  0
  -29.8716  -13.1852   18.7975 C   0  0  0  0  0  0  0  0  0  0  0  0
  -22.4283  -28.8828   24.3124 C   0  0  0  0  0  0  0  0  0  0  0  0
  -28.5549  -12.6832   19.3891 C   0  0  0  0  0  0  0  0  0  0  0  0
  -30.5761  -14.1520   19.7437 C   0  0  0  0  0  0  0  0  0  0  0  0
  -28.4098  -14.8161   20.7511 C   0  0  0  0  0  0  0  0  0  0  0  0
  -23.9429  -29.1222   24.3233 C   0  0  1  0  0  0  0  0  0  0  0  0
  -25.2193  -28.9148   20.7511 C   0  0  1  0  0  0  0  0  0  0  0  0
  -27.6558  -13.8585   19.8120 C   0  0  2  0  0  0  0  0  0  0  0  0
  -27.7070  -20.9732   19.8009 C   0  0  0  0  0  0  0  0  0  0  0  0
  -22.7955  -26.9886   13.6505 C   0  0  0  0  0  0  0  0  0  0  0  0
  -21.6293  -26.0763   20.1064 C   0  0  0  0  0  0  0  0  0  0  0  0
  -21.1939  -25.4098   17.7327 C   0  0  0  0  0  0  0  0  0  0  0  0
  -20.6244  -27.7127   18.5042 C   0  0  0  0  0  0  0  0  0  0  0  0
  -26.1799  -28.4614   14.5738 C   0  0  0  0  0  0  0  0  0  0  0  0
  -29.1224  -20.4100   19.8627 C   0  0  0  0  0  0  0  0  0  0  0  0
  -30.8219  -24.2121   21.2678 C   0  0  0  0  0  0  0  0  0  1  0  0
  -31.0181  -22.7267   21.5016 C   0  0  0  0  0  0  0  0  0  0  0  0
  -23.0510  -27.0735   18.1958 C   0  0  1  0  0  0  0  0  0  0  0  0
  -23.7964  -27.7156   14.5350 C   0  0  2  0  0  0  0  0  0  0  0  0
  -21.6511  -26.5678   18.6453 C   0  0  0  0  0  0  0  0  0  0  0  0
  -26.3438  -12.2315   21.1213 N   0  0  0  0  0  0  0  0  0  0  0  0
  -27.9789  -17.5870   19.8395 N   0  0  0  0  0  0  0  0  0  0  0  0
  -26.3514  -13.3789   20.4216 N   0  0  0  0  0  0  0  0  0  0  0  0
  -29.6841  -15.2347   20.1537 N   0  0  0  0  0  0  0  0  0  0  0  0
  -24.7726  -27.9547   19.7396 N   0  0  0  0  0  0  0  0  0  0  0  0
  -29.8112  -16.7029   23.0756 N   0  0  0  0  0  0  0  0  0  0  0  0
  -30.4607  -21.2736   24.5366 N   0  0  0  0  0  0  0  0  0  0  0  0
  -24.9630  -15.1504   19.6835 N   0  0  0  0  0  0  0  0  0  0  0  0
  -22.1282  -12.4958   21.9884 N   0  0  0  0  0  0  0  0  0  0  0  0
  -24.4212  -29.3950   22.9849 N   0  0  0  0  0  0  0  0  0  0  0  0
  -23.0951  -27.5703   16.8248 N   0  0  0  0  0  0  0  0  0  0  0  0
  -25.1075  -27.7545   13.8275 N   0  3  0  0  0  0  0  0  0  0  0  0
  -22.2880  -14.4239   20.7573 O   0  0  0  0  0  0  0  0  0  0  0  0
  -31.1521  -16.9729   19.5609 O   0  0  0  0  0  0  0  0  0  0  0  0
  -24.6803  -27.1928   22.2739 O   0  0  0  0  0  0  0  0  0  0  0  0
  -22.9237  -29.2441   19.1437 O   0  0  0  0  0  0  0  0  0  0  0  0
  -24.7298  -26.1060   16.0761 O   0  0  0  0  0  0  0  0  0  0  0  0
  -23.4371   -7.7344   24.5675 O   0  0  0  0  0  0  0  0  0  0  0  0
  -29.7815  -24.3995   20.3093 O   0  0  0  0  0  0  0  0  0  1  0  0
  -29.7968  -22.1640   21.9653 O   0  0  0  0  0  0  0  0  0  0  0  0
  -18.7548   -5.2010   23.1316 F   0  0  0  0  0  0  0  0  0  0  0  0
  -23.4293   -5.0612   23.8628 F   0  0  0  0  0  0  0  0  0  0  0  0
  1  2  1  0  0  0  0
  1  5  2  0  0  0  0
  2  6  2  0  0  0  0
  3  8  2  0  0  0  0
  3 16  1  0  0  0  0
  4  9  1  0  0  0  0
  4 16  2  0  0  0  0
  5 19  1  0  0  0  0
  6 21  1  0  0  0  0
  7 10  2  0  0  0  0
  7 20  1  0  0  0  0
  8 26  1  0  0  0  0
  9 26  2  0  0  0  0
 10 27  1  0  0  0  0
 11 12  2  0  0  0  0
 11 28  1  0  0  0  0
 12 30  1  0  0  0  0
 13 22  1  0  0  0  0
 13 27  2  0  0  0  0
 14 24  2  0  0  0  0
 14 25  1  0  0  0  0
 15 30  2  0  0  0  0
 15 31  1  0  0  0  0
 16 32  1  0  0  0  0
 17 23  2  0  0  0  0
 17 24  1  0  0  0  0
 17 34  1  0  0  0  0
 18 32  1  0  0  0  0
 18 33  2  0  0  0  0
 18 35  1  0  0  0  0
 19 21  2  0  0  0  0
 19 40  1  0  0  0  0
 20 22  2  0  0  0  0
 20 41  1  0  0  0  0
 21 49  1  0  0  0  0
 22 42  1  0  0  0  0
 23 29  1  0  0  0  0
 23 58  1  0  0  0  0
 24 69  1  0  0  0  0
 25 29  2  0  0  0  0
 25 70  1  0  0  0  0
 26 81  1  0  0  0  0
 27 82  1  0  0  0  0
 28 31  2  0  0  0  0
 28 81  1  0  0  0  0
 29 83  1  0  0  0  0
 30 84  1  0  0  0  0
 31 85  1  0  0  0  0
 32 64  2  0  0  0  0
 33 66  1  0  0  0  0
 33 71  1  0  0  0  0
 34 36  1  0  0  0  0
 34 65  2  0  0  0  0
 35 72  1  0  0  0  0
 35 76  2  0  0  0  0
 36 67  1  0  0  0  0
 36 77  2  0  0  0  0
 37 50  1  0  0  0  0
 37 73  1  0  0  0  0
 37 78  2  0  0  0  0
 38 61  1  0  0  0  0
 38 68  1  0  0  0  0
 38 79  2  0  0  0  0
 39 62  1  0  0  0  0
 39 74  1  0  0  0  0
 39 80  2  0  0  0  0
 40 43  1  0  0  0  0
 41 50  1  0  0  0  0
 42 68  1  0  0  0  0
 43 45  1  0  0  0  0
 44 46  1  0  0  0  0
 44 47  1  0  0  0  0
 45 49  1  0  0  0  0
 46 51  1  0  0  0  0
 47 67  1  0  0  0  0
 48 51  1  0  0  0  0
 48 67  1  0  0  0  0
 49 73  1  0  0  0  0
 50 68  1  0  0  0  0
 51 66  1  0  0  0  0
 52 58  1  0  0  0  0
 53 62  1  0  0  0  0
 54 63  1  0  0  0  0
 55 63  1  0  0  0  0
 56 63  1  0  0  0  0
 57 75  1  0  0  0  0
 59 60  1  0  0  0  0
 59 82  1  0  0  0  0
 60 83  1  0  0  0  0
 61 63  1  0  0  0  0
 61 74  1  0  0  0  0
 62 75  1  0  0  0  0
 64 66  1  0  0  0  0
M  CHG  1  75   1
M  ISO  4  34 100  36 100  59 101  82 101
M  END
> <Batch ID>
0106

> <Smiles>
CCc1c(OC[101CH2:1][101O:1]c2ccc3c(c2)CN(C(=O)C(NC(=O)C(C)NC)C(C)(C)C)C(C(=O)NC2CCCc4ccccc42)C3)c(N)cc(N)c1[100C:0](=N)[100C:0](=O)N1CCCC(n2nc(-c3ccc(Oc4ccc(F)cc4F)cc3)c(C(N)=O)c2N)C1

> <Shape>
0.288

> <Color>
0.103

> <Negative vol penalty>
0.000

$$$$

  -OEChem-04052301143D

 86 94  0     1  0  0  0  0  0999 V2000
  -30.0699  -31.5219   25.3925 C   0  0  0  0  0  0  0  0  0  0  0  0
  -29.6712  -30.3813   24.7030 C   0  0  0  0  0  0  0  0  0  0  0  0
  -22.7064  -13.6357   18.5669 C   0  0  0  0  0  0  0  0  0  0  0  0
  -22.9083  -11.2375   18.7781 C   0  0  0  0  0  0  0  0  0  0  0  0
  -29.1146  -32.3460   25.9859 C   0  0  0  0  0  0  0  0  0  0  0  0
  -28.3168  -30.0635   24.6074 C   0  0  0  0  0  0  0  0  0  0  0  0
  -26.9747  -28.6656   19.9287 C   0  0  0  0  0  0  0  0  0  0  0  0
  -21.7044  -13.4672   17.6112 C   0  0  0  0  0  0  0  0  0  0  0  0
  -21.9063  -11.0689   17.8225 C   0  0  0  0  0  0  0  0  0  0  0  0
  -27.2995  -27.3685   19.5340 C   0  0  0  0  0  0  0  0  0  0  0  0
  -19.1499  -10.0088   15.7020 C   0  0  0  0  0  0  0  0  0  0  0  0
  -18.1542   -9.0678   15.9643 C   0  0  0  0  0  0  0  0  0  0  0  0
  -25.0371  -26.6687   19.9932 C   0  0  0  0  0  0  0  0  0  0  0  0
  -28.4627  -20.5683   18.4130 C   0  0  0  0  0  0  0  0  0  0  0  0
  -27.3621  -19.7925   20.4190 C   0  0  0  0  0  0  0  0  0  0  0  0
  -17.5347  -10.2798   17.9604 C   0  0  0  0  0  0  0  0  0  0  0  0
  -23.3084  -12.5209   19.1503 C   0  0  0  0  0  0  0  0  0  0  0  0
  -29.2986  -18.6211   19.5735 C   0  0  0  0  0  0  0  0  0  0  0  0
  -24.1801  -12.8031   21.5311 C   0  0  0  0  0  0  0  0  0  0  0  0
  -27.7472  -32.0434   25.8893 C   0  0  0  0  0  0  0  0  0  0  0  0
  -25.6794  -28.9721   20.3698 C   0  0  0  0  0  0  0  0  0  0  0  0
  -27.3423  -30.8836   25.2012 C   0  0  0  0  0  0  0  0  0  0  0  0
  -24.6977  -27.9710   20.3906 C   0  0  0  0  0  0  0  0  0  0  0  0
  -29.3868  -19.5288   18.5180 C   0  0  0  0  0  0  0  0  0  0  0  0
  -27.4504  -20.7002   19.3636 C   0  0  0  0  0  0  0  0  0  0  0  0
  -28.2863  -18.7530   20.5240 C   0  0  0  0  0  0  0  0  0  0  0  0
  -21.3043  -12.1838   17.2391 C   0  0  0  0  0  0  0  0  0  0  0  0
  -26.3314  -26.3692   19.5689 C   0  0  0  0  0  0  0  0  0  0  0  0
  -19.3380  -11.0852   16.5690 C   0  0  0  0  0  0  0  0  0  0  0  0
  -17.3466   -9.2033   17.0934 C   0  0  0  0  0  0  0  0  0  0  0  0
  -18.5304  -11.2207   17.6981 C   0  0  0  0  0  0  0  0  0  0  0  0
  -24.3439  -12.6943   20.1371 C   0  0  0  0  0  0  0  0  0  0  0  0
  -25.4564  -12.9525   22.0161 C   0  0  0  0  0  0  0  0  0  0  0  0
  -26.8407  -22.8468   19.8596 C   0  0  0  0  0  0  0  0  0  0  0  0
  -30.2841  -17.5146   19.6799 C   0  0  0  0  0  0  0  0  0  0  0  0
  -22.9815  -12.7719   22.3172 C   0  0  0  0  0  0  0  0  0  0  0  0
  -24.4294  -30.0338   23.0927 C   0  0  0  0  0  0  0  0  0  0  0  0
  -21.7009  -30.1486   21.3422 C   0  0  0  0  0  0  0  0  0  0  0  0
  -19.9306  -29.0052   18.6580 C   0  0  0  0  0  0  0  0  0  0  0  0
  -30.5060  -15.0500   19.6850 C   0  0  0  0  0  0  0  0  0  0  0  0
  -26.7544  -32.9388   26.5874 C   0  0  0  0  0  0  0  0  0  0  0  0
  -25.3379  -30.3821   20.7670 C   0  0  0  0  0  0  0  0  0  0  0  0
  -23.2870  -28.2528   20.8367 C   0  0  0  0  0  0  0  0  0  0  0  0
  -25.3156  -32.7334   26.1207 C   0  0  0  0  0  0  0  0  0  0  0  0
  -30.0027  -11.8122   21.0118 C   0  0  0  0  0  0  0  0  0  0  0  0
  -24.9810  -31.2464   26.0605 C   0  0  0  0  0  0  0  0  0  0  0  0
  -28.4786  -11.6833   21.0813 C   0  0  0  0  0  0  0  0  0  0  0  0
  -30.4516  -12.5728   19.7649 C   0  0  0  0  0  0  0  0  0  0  0  0
  -28.2926  -13.7476   19.6362 C   0  0  0  0  0  0  0  0  0  0  0  0
  -25.8810  -30.5187   25.0545 C   0  0  1  0  0  0  0  0  0  0  0  0
  -24.1237  -30.4664   21.6867 C   0  0  1  0  0  0  0  0  0  0  0  0
  -27.7869  -13.0506   20.9097 C   0  0  1  0  0  0  0  0  0  0  0  0
  -17.7147  -29.2574   17.5075 C   0  0  0  0  0  0  0  0  0  0  0  0
  -20.3823  -28.4641   23.5179 C   0  0  0  0  0  0  0  0  0  0  0  0
  -18.5325  -27.9588   21.9082 C   0  0  0  0  0  0  0  0  0  0  0  0
  -18.9555  -30.3117   22.6207 C   0  0  0  0  0  0  0  0  0  0  0  0
  -26.9292  -17.5151   22.2127 C   0  0  0  0  0  0  0  0  0  0  0  0
  -21.2037  -29.9622   16.1635 C   0  0  0  0  0  0  0  0  0  0  0  0
  -30.4605  -19.4146   17.4850 C   0  0  0  0  0  0  0  0  0  0  0  0
  -25.9307  -24.0374   19.8101 C   0  0  0  0  0  0  0  0  0  1  0  0
  -20.5794  -29.1825   21.0458 C   0  0  1  0  0  0  0  0  0  0  0  0
  -19.1563  -29.7367   17.5764 C   0  0  2  0  0  0  0  0  0  0  0  0
  -19.6394  -28.9732   22.2665 C   0  0  0  0  0  0  0  0  0  0  0  0
  -25.6233  -12.7684   19.7609 N   0  0  0  0  0  0  0  0  0  0  0  0
  -26.5201  -21.7480   19.2583 N   0  0  0  0  0  0  0  0  0  0  0  0
  -26.2751  -12.9255   20.9256 N   0  0  0  0  0  0  0  0  0  0  0  0
  -23.0040  -29.6455   21.2213 N   0  0  0  0  0  0  0  0  0  0  0  0
  -29.7583  -13.8595   19.6809 N   0  0  0  0  0  0  0  0  0  0  0  0
  -25.9470  -13.1031   23.2647 N   0  0  0  0  0  0  0  0  0  0  0  0
  -21.7547  -12.6114   21.6588 N   0  0  0  0  0  0  0  0  0  0  0  0
  -28.1778  -17.8458   21.6018 N   0  0  0  0  0  0  0  0  0  0  0  0
  -29.7494  -16.2265   19.6446 N   0  0  0  0  0  0  0  0  0  0  0  0
  -25.4304  -30.7664   23.7017 N   0  0  0  0  0  0  0  0  0  0  0  0
  -19.9075  -29.6901   19.8545 N   0  0  0  0  0  0  0  0  0  0  0  0
  -31.6951  -20.1680   17.8342 N   0  3  0  0  0  0  0  0  0  0  0  0
  -19.7895  -29.5145   16.2457 N   0  3  0  0  0  0  0  0  0  0  0  0
  -31.4801  -17.7838   19.7506 O   0  0  0  0  0  0  0  0  0  0  0  0
  -22.9965  -12.8996   23.5650 O   0  0  0  0  0  0  0  0  0  0  0  0
  -23.8026  -29.1051   23.5889 O   0  0  0  0  0  0  0  0  0  0  0  0
  -21.4309  -31.3090   21.6621 O   0  0  0  0  0  0  0  0  0  0  0  0
  -20.4959  -27.9316   18.4621 O   0  0  0  0  0  0  0  0  0  0  0  0
  -31.7388  -15.0655   19.7570 O   0  0  0  0  0  0  0  0  0  0  0  0
  -20.3265  -12.0190   16.3068 O   0  0  0  0  0  0  0  0  0  0  0  0
  -26.6459  -25.1022   19.1847 O   0  0  0  0  0  0  0  0  0  1  0  0
  -16.3895   -8.3005   17.3444 F   0  0  0  0  0  0  0  0  0  0  0  0
  -18.7056  -12.2534   18.5340 F   0  0  0  0  0  0  0  0  0  0  0  0
  1  2  1  0  0  0  0
  1  5  2  0  0  0  0
  2  6  2  0  0  0  0
  3  8  2  0  0  0  0
  3 17  1  0  0  0  0
  4  9  1  0  0  0  0
  4 17  2  0  0  0  0
  5 20  1  0  0  0  0
  6 22  1  0  0  0  0
  7 10  2  0  0  0  0
  7 21  1  0  0  0  0
  8 27  1  0  0  0  0
  9 27  2  0  0  0  0
 10 28  1  0  0  0  0
 11 12  2  0  0  0  0
 11 29  1  0  0  0  0
 12 30  1  0  0  0  0
 13 23  1  0  0  0  0
 13 28  2  0  0  0  0
 14 24  2  0  0  0  0
 14 25  1  0  0  0  0
 15 25  2  0  0  0  0
 15 26  1  0  0  0  0
 16 30  2  0  0  0  0
 16 31  1  0  0  0  0
 17 32  1  0  0  0  0
 18 24  1  0  0  0  0
 18 26  2  0  0  0  0
 18 35  1  0  0  0  0
 19 32  1  0  0  0  0
 19 33  2  0  0  0  0
 19 36  1  0  0  0  0
 20 22  2  0  0  0  0
 20 41  1  0  0  0  0
 21 23  2  0  0  0  0
 21 42  1  0  0  0  0
 22 50  1  0  0  0  0
 23 43  1  0  0  0  0
 24 59  1  0  0  0  0
 25 65  1  0  0  0  0
 26 71  1  0  0  0  0
 27 83  1  0  0  0  0
 28 84  1  0  0  0  0
 29 31  2  0  0  0  0
 29 83  1  0  0  0  0
 30 85  1  0  0  0  0
 31 86  1  0  0  0  0
 32 64  2  0  0  0  0
 33 66  1  0  0  0  0
 33 69  1  0  0  0  0
 34 60  1  0  0  0  0
 34 65  2  0  0  0  0
 35 72  1  0  0  0  0
 35 77  2  0  0  0  0
 36 70  1  0  0  0  0
 36 78  2  0  0  0  0
 37 51  1  0  0  0  0
 37 73  1  0  0  0  0
 37 79  2  0  0  0  0
 38 61  1  0  0  0  0
 38 67  1  0  0  0  0
 38 80  2  0  0  0  0
 39 62  1  0  0  0  0
 39 74  1  0  0  0  0
 39 81  2  0  0  0  0
 40 68  1  0  0  0  0
 40 72  1  0  0  0  0
 40 82  2  0  0  0  0
 41 44  1  0  0  0  0
 42 51  1  0  0  0  0
 43 67  1  0  0  0  0
 44 46  1  0  0  0  0
 45 47  1  0  0  0  0
 45 48  1  0  0  0  0
 46 50  1  0  0  0  0
 47 52  1  0  0  0  0
 48 68  1  0  0  0  0
 49 52  1  0  0  0  0
 49 68  1  0  0  0  0
 50 73  1  0  0  0  0
 51 67  1  0  0  0  0
 52 66  1  0  0  0  0
 53 62  1  0  0  0  0
 54 63  1  0  0  0  0
 55 63  1  0  0  0  0
 56 63  1  0  0  0  0
 57 71  1  0  0  0  0
 58 76  1  0  0  0  0
 59 75  1  0  0  0  0
 60 84  1  0  0  0  0
 61 63  1  0  0  0  0
 61 74  1  0  0  0  0
 62 76  1  0  0  0  0
 64 66  1  0  0  0  0
M  CHG  2  75   1  76   1
M  ISO  4  40 100  60 101  72 100  84 101
M  END
> <Batch ID>
0106

> <Smiles>
CNc1cc(NC=[101CH:1][101O:1]c2ccc3c(c2)CN(C(=O)C(NC(=O)C(C)NC)C(C)(C)C)C(C(=O)NC2CCCc4ccccc42)C3)cc(CN)c1C(=O)[100NH:0][100C:0](=O)N1CCCC(n2nc(-c3ccc(Oc4ccc(F)cc4F)cc3)c(C(N)=O)c2N)C1

> <Shape>
0.279

> <Color>
0.099

> <Negative vol penalty>
0.000

$$$$

  -OEChem-04052301143D

 88 97  0     1  0  0  0  0  0999 V2000
  -30.3489  -25.9370   17.0164 C   0  0  0  0  0  0  0  0  0  0  0  0
  -28.9605  -25.9422   17.1032 C   0  0  0  0  0  0  0  0  0  0  0  0
  -25.6323  -14.1842   19.9686 C   0  0  0  0  0  0  0  0  0  0  0  0
  -23.3074  -13.9074   20.5648 C   0  0  0  0  0  0  0  0  0  0  0  0
  -31.1160  -26.3400   18.1087 C   0  0  0  0  0  0  0  0  0  0  0  0
  -28.3383  -26.3493   18.2828 C   0  0  0  0  0  0  0  0  0  0  0  0
  -23.0385  -29.3753   18.7949 C   0  0  0  0  0  0  0  0  0  0  0  0
  -25.9271  -12.9483   20.5441 C   0  0  0  0  0  0  0  0  0  0  0  0
  -23.6022  -12.6714   21.1403 C   0  0  0  0  0  0  0  0  0  0  0  0
  -21.7388  -28.9511   19.0679 C   0  0  0  0  0  0  0  0  0  0  0  0
  -24.1728   -9.5100   20.0915 C   0  0  0  0  0  0  0  0  0  0  0  0
  -23.3192   -8.4442   19.8068 C   0  0  0  0  0  0  0  0  0  0  0  0
  -22.0600  -29.4859   21.3981 C   0  0  0  0  0  0  0  0  0  0  0  0
  -16.9669  -22.2773   21.7658 C   0  0  0  0  0  0  0  0  0  0  0  0
  -18.5303  -20.4668   22.1047 C   0  0  0  0  0  0  0  0  0  0  0  0
  -19.3407  -22.7242   21.8141 C   0  0  0  0  0  0  0  0  0  0  0  0
  -22.8239   -8.2124   22.1602 C   0  0  0  0  0  0  0  0  0  0  0  0
  -24.3224  -14.6638   19.9790 C   0  0  0  0  0  0  0  0  0  0  0  0
  -23.6452  -16.1905   18.0507 C   0  0  0  0  0  0  0  0  0  0  0  0
  -30.5028  -26.7615   19.2990 C   0  0  0  0  0  0  0  0  0  0  0  0
  -23.8639  -29.8486   19.8251 C   0  0  0  0  0  0  0  0  0  0  0  0
  -29.0979  -26.7570   19.3925 C   0  0  0  0  0  0  0  0  0  0  0  0
  -23.3690  -29.9180   21.1352 C   0  0  0  0  0  0  0  0  0  0  0  0
  -17.2179  -20.9213   21.9756 C   0  0  0  0  0  0  0  0  0  0  0  0
  -18.0283  -23.1787   21.6850 C   0  0  0  0  0  0  0  0  0  0  0  0
  -19.5917  -21.3682   22.0240 C   0  0  0  0  0  0  0  0  0  0  0  0
  -24.9120  -12.1919   21.1299 C   0  0  0  0  0  0  0  0  0  0  0  0
  -21.2503  -29.0036   20.3701 C   0  0  0  0  0  0  0  0  0  0  0  0
  -24.3521   -9.9270   21.4105 C   0  0  0  0  0  0  0  0  0  0  0  0
  -22.6448   -7.7954   20.8411 C   0  0  0  0  0  0  0  0  0  0  0  0
  -23.6776   -9.2782   22.4448 C   0  0  0  0  0  0  0  0  0  0  0  0
  -24.0174  -15.9407   19.3852 C   0  0  0  0  0  0  0  0  0  0  0  0
  -23.4674  -17.5512   17.9928 C   0  0  0  0  0  0  0  0  0  0  0  0
  -18.6497  -25.4004   20.8037 C   0  0  0  0  0  0  0  0  0  0  0  0
  -18.4978  -26.7158   20.5944 C   0  0  0  0  0  0  0  0  0  0  0  0
  -17.3022  -27.3596   21.2077 C   0  0  0  0  0  0  0  0  0  0  0  0
  -23.4753  -15.2744   16.9610 C   0  0  0  0  0  0  0  0  0  0  0  0
  -26.6302  -28.9227   21.0876 C   0  0  0  0  0  0  0  0  0  0  0  0
  -26.3447  -31.6860   22.7623 C   0  0  0  0  0  0  0  0  0  0  0  0
  -24.3023  -34.1139   24.0198 C   0  0  0  0  0  0  0  0  0  0  0  0
  -22.0920  -21.6670   22.1005 C   0  0  0  0  0  0  0  0  0  0  0  0
  -31.3745  -27.1432   20.4691 C   0  0  0  0  0  0  0  0  0  0  0  0
  -25.2544  -30.3275   19.5098 C   0  0  0  0  0  0  0  0  0  0  0  0
  -24.2079  -30.4369   22.2734 C   0  0  0  0  0  0  0  0  0  0  0  0
  -16.4797  -26.5405   22.1800 C   0  0  0  0  0  0  0  0  0  0  0  0
  -30.6316  -27.9167   21.5553 C   0  0  0  0  0  0  0  0  0  0  0  0
  -24.9827  -21.6155   20.0224 C   0  0  0  0  0  0  0  0  0  0  0  0
  -29.3016  -27.2422   21.8762 C   0  0  0  0  0  0  0  0  0  0  0  0
  -25.0259  -20.1788   19.4969 C   0  0  0  0  0  0  0  0  0  0  0  0
  -16.4333  -25.0584   21.8182 C   0  0  0  0  0  0  0  0  0  0  0  0
  -24.4953  -21.6759   21.4690 C   0  0  0  0  0  0  0  0  0  0  0  0
  -23.2607  -19.5615   21.1969 C   0  0  0  0  0  0  0  0  0  0  0  0
  -28.3857  -27.2155   20.6466 C   0  0  1  0  0  0  0  0  0  0  0  0
  -26.1818  -30.3091   20.7210 C   0  0  1  0  0  0  0  0  0  0  0  0
  -23.6836  -19.4556   19.7226 C   0  0  2  0  0  0  0  0  0  0  0  0
  -24.3547  -36.2239   25.3772 C   0  0  0  0  0  0  0  0  0  0  0  0
  -26.7249  -30.0394   25.3028 C   0  0  0  0  0  0  0  0  0  0  0  0
  -25.8351  -31.9802   26.6105 C   0  0  0  0  0  0  0  0  0  0  0  0
  -27.9352  -32.2279   25.2872 C   0  0  0  0  0  0  0  0  0  0  0  0
  -23.1916  -35.7129   21.7908 C   0  0  0  0  0  0  0  0  0  0  0  0
  -16.0829  -19.9577   22.0620 C   0  0  0  0  0  0  0  0  0  0  0  0
  -19.4446  -27.5614   19.8087 C   0  0  0  0  0  0  0  0  0  1  0  0
  -15.5401  -19.7540   23.4773 C   0  0  0  0  0  0  0  0  0  0  0  0
  -25.7193  -32.0784   24.0791 C   0  0  1  0  0  0  0  0  0  0  0  0
  -24.3942  -35.6286   23.9783 C   0  0  2  0  0  0  0  0  0  0  0  0
  -26.5382  -31.5698   25.2990 C   0  0  0  0  0  0  0  0  0  0  0  0
  -24.0733  -17.0535   20.1218 N   0  0  0  0  0  0  0  0  0  0  0  0
  -23.7339  -18.0157   19.2471 N   0  0  0  0  0  0  0  0  0  0  0  0
  -17.7725  -24.5589   21.4713 N   0  0  0  0  0  0  0  0  0  0  0  0
  -25.5630  -30.8876   21.9154 N   0  0  0  0  0  0  0  0  0  0  0  0
  -23.2172  -20.9741   21.6060 N   0  0  0  0  0  0  0  0  0  0  0  0
  -23.1108  -18.3837   16.9917 N   0  0  0  0  0  0  0  0  0  0  0  0
  -23.6982  -13.9104   17.1938 N   0  0  0  0  0  0  0  0  0  0  0  0
  -20.9247  -20.9060   22.1556 N   0  0  0  0  0  0  0  0  0  0  0  0
  -27.7798  -28.5133   20.4394 N   0  0  0  0  0  0  0  0  0  0  0  0
  -25.5499  -33.5268   24.0350 N   0  0  0  0  0  0  0  0  0  0  0  0
  -16.5912  -19.1798   24.3530 N   0  3  0  0  0  0  0  0  0  0  0  0
  -23.2605  -36.1950   23.1943 N   0  3  0  0  0  0  0  0  0  0  0  0
  -17.0387  -28.5397   20.9844 O   0  0  0  0  0  0  0  0  0  0  0  0
  -23.1518  -15.6560   15.8106 O   0  0  0  0  0  0  0  0  0  0  0  0
  -25.9820  -28.2730   21.8997 O   0  0  0  0  0  0  0  0  0  0  0  0
  -27.4820  -32.0797   22.4919 O   0  0  0  0  0  0  0  0  0  0  0  0
  -23.2311  -33.5119   24.0406 O   0  0  0  0  0  0  0  0  0  0  0  0
  -22.1524  -22.8560   22.4238 O   0  0  0  0  0  0  0  0  0  0  0  0
  -25.1993  -10.9857   21.6914 O   0  0  0  0  0  0  0  0  0  0  0  0
  -19.9823  -28.5896   20.6394 O   0  0  0  0  0  0  0  0  0  1  0  0
  -21.8239   -6.7729   20.5675 F   0  0  0  0  0  0  0  0  0  0  0  0
  -23.8449   -9.6750   23.7138 F   0  0  0  0  0  0  0  0  0  0  0  0
  1  2  1  0  0  0  0
  1  5  2  0  0  0  0
  2  6  2  0  0  0  0
  3  8  2  0  0  0  0
  3 18  1  0  0  0  0
  4  9  1  0  0  0  0
  4 18  2  0  0  0  0
  5 20  1  0  0  0  0
  6 22  1  0  0  0  0
  7 10  2  0  0  0  0
  7 21  1  0  0  0  0
  8 27  1  0  0  0  0
  9 27  2  0  0  0  0
 10 28  1  0  0  0  0
 11 12  2  0  0  0  0
 11 29  1  0  0  0  0
 12 30  1  0  0  0  0
 13 23  1  0  0  0  0
 13 28  2  0  0  0  0
 14 24  2  0  0  0  0
 14 25  1  0  0  0  0
 15 24  1  0  0  0  0
 15 26  2  0  0  0  0
 16 25  2  0  0  0  0
 16 26  1  0  0  0  0
 17 30  2  0  0  0  0
 17 31  1  0  0  0  0
 18 32  1  0  0  0  0
 19 32  1  0  0  0  0
 19 33  2  0  0  0  0
 19 37  1  0  0  0  0
 20 22  2  0  0  0  0
 20 42  1  0  0  0  0
 21 23  2  0  0  0  0
 21 43  1  0  0  0  0
 22 53  1  0  0  0  0
 23 44  1  0  0  0  0
 24 61  1  0  0  0  0
 25 69  1  0  0  0  0
 26 74  1  0  0  0  0
 27 85  1  0  0  0  0
 28 86  1  0  0  0  0
 29 31  2  0  0  0  0
 29 85  1  0  0  0  0
 30 87  1  0  0  0  0
 31 88  1  0  0  0  0
 32 67  2  0  0  0  0
 33 68  1  0  0  0  0
 33 72  1  0  0  0  0
 34 35  2  0  0  0  0
 34 69  1  0  0  0  0
 35 36  1  0  0  0  0
 35 62  1  0  0  0  0
 36 45  1  0  0  0  0
 36 79  2  0  0  0  0
 37 73  1  0  0  0  0
 37 80  2  0  0  0  0
 38 54  1  0  0  0  0
 38 75  1  0  0  0  0
 38 81  2  0  0  0  0
 39 64  1  0  0  0  0
 39 70  1  0  0  0  0
 39 82  2  0  0  0  0
 40 65  1  0  0  0  0
 40 76  1  0  0  0  0
 40 83  2  0  0  0  0
 41 71  1  0  0  0  0
 41 74  1  0  0  0  0
 41 84  2  0  0  0  0
 42 46  1  0  0  0  0
 43 54  1  0  0  0  0
 44 70  1  0  0  0  0
 45 50  1  0  0  0  0
 46 48  1  0  0  0  0
 47 49  1  0  0  0  0
 47 51  1  0  0  0  0
 48 53  1  0  0  0  0
 49 55  1  0  0  0  0
 50 69  1  0  0  0  0
 51 71  1  0  0  0  0
 52 55  1  0  0  0  0
 52 71  1  0  0  0  0
 53 75  1  0  0  0  0
 54 70  1  0  0  0  0
 55 68  1  0  0  0  0
 56 65  1  0  0  0  0
 57 66  1  0  0  0  0
 58 66  1  0  0  0  0
 59 66  1  0  0  0  0
 60 78  1  0  0  0  0
 61 63  1  0  0  0  0
 62 86  1  0  0  0  0
 63 77  1  0  0  0  0
 64 66  1  0  0  0  0
 64 76  1  0  0  0  0
 65 78  1  0  0  0  0
 67 68  1  0  0  0  0
M  CHG  2  77   1  78   1
M  ISO  4  41 100  62 101  74 100  86 101
M  END
> <Batch ID>
0106

> <Smiles>
CNC(C)C(=O)NC(C(=O)N1Cc2cc([101O:1][101CH2:1]C3=CN(c4cc(CCN)cc([100NH:0][100C:0](=O)N5CCCC(n6nc(-c7ccc(Oc8ccc(F)cc8F)cc7)c(C(N)=O)c6N)C5)c4)CCC3=O)ccc2CC1C(=O)NC1CCCc2ccccc21)C(C)(C)C

> <Shape>
0.272

> <Color>
0.077

> <Negative vol penalty>
0.000

$$$$

  -OEChem-04052301143D

 89 98  0     1  0  0  0  0  0999 V2000
  -26.9754  -36.0818   25.0543 C   0  0  0  0  0  0  0  0  0  0  0  0
  -27.2613  -34.7224   24.9798 C   0  0  0  0  0  0  0  0  0  0  0  0
  -23.8733  -10.4273   22.3704 C   0  0  0  0  0  0  0  0  0  0  0  0
  -25.1584  -11.3561   24.1933 C   0  0  0  0  0  0  0  0  0  0  0  0
  -25.6688  -36.5297   24.8638 C   0  0  0  0  0  0  0  0  0  0  0  0
  -26.2405  -33.8098   24.7159 C   0  0  0  0  0  0  0  0  0  0  0  0
  -27.5776  -30.3399   21.2784 C   0  0  0  0  0  0  0  0  0  0  0  0
  -23.4591   -9.3815   23.1952 C   0  0  0  0  0  0  0  0  0  0  0  0
  -24.7441  -10.3103   25.0181 C   0  0  0  0  0  0  0  0  0  0  0  0
  -28.3906  -29.2938   21.7125 C   0  0  0  0  0  0  0  0  0  0  0  0
  -21.1796   -8.8938   25.6444 C   0  0  0  0  0  0  0  0  0  0  0  0
  -19.8296   -8.5438   25.6189 C   0  0  0  0  0  0  0  0  0  0  0  0
  -26.4560  -27.8608   21.8637 C   0  0  0  0  0  0  0  0  0  0  0  0
  -20.4212   -6.3143   24.9003 C   0  0  0  0  0  0  0  0  0  0  0  0
  -29.8677  -20.2791   19.8050 C   0  0  0  0  0  0  0  0  0  0  0  0
  -24.7230  -11.4146   22.8694 C   0  0  0  0  0  0  0  0  0  0  0  0
  -24.3358  -13.4402   21.3678 C   0  0  0  0  0  0  0  0  0  0  0  0
  -24.6332  -35.6230   24.5879 C   0  0  0  0  0  0  0  0  0  0  0  0
  -26.1938  -30.1571   21.1438 C   0  0  0  0  0  0  0  0  0  0  0  0
  -24.9186  -34.2458   24.5229 C   0  0  0  0  0  0  0  0  0  0  0  0
  -25.6279  -28.9054   21.4252 C   0  0  0  0  0  0  0  0  0  0  0  0
  -23.8945   -9.3230   24.5191 C   0  0  0  0  0  0  0  0  0  0  0  0
  -27.8295  -28.0549   22.0081 C   0  0  0  0  0  0  0  0  0  0  0  0
  -22.1504   -7.9541   25.2978 C   0  0  0  0  0  0  0  0  0  0  0  0
  -19.4504   -7.2541   25.2469 C   0  0  0  0  0  0  0  0  0  0  0  0
  -21.7712   -6.6643   24.9258 C   0  0  0  0  0  0  0  0  0  0  0  0
  -25.1517  -12.4948   22.0177 C   0  0  0  0  0  0  0  0  0  0  0  0
  -29.2692  -21.5500   19.7136 C   0  0  0  0  0  0  0  0  0  0  0  0
  -28.8724  -19.4648   20.2876 C   0  0  0  0  0  0  0  0  0  0  0  0
  -25.2171  -14.2451   20.6883 C   0  0  0  0  0  0  0  0  0  0  0  0
  -30.9235  -23.6726   23.4807 C   0  0  0  0  0  0  0  0  0  0  0  0
  -29.9235  -24.8844   20.6235 C   0  0  0  0  0  0  0  0  0  0  0  0
  -22.9087  -13.5784   21.3777 C   0  0  0  0  0  0  0  0  0  0  0  0
  -23.6194  -31.4471   22.4901 C   0  0  0  0  0  0  0  0  0  0  0  0
  -22.0491  -29.6452   20.2971 C   0  0  0  0  0  0  0  0  0  0  0  0
  -22.3247  -26.3123   18.9431 C   0  0  0  0  0  0  0  0  0  0  0  0
  -29.9380  -17.1880   20.4522 C   0  0  0  0  0  0  0  0  0  0  0  0
  -23.2283  -36.1500   24.4362 C   0  0  0  0  0  0  0  0  0  0  0  0
  -25.3341  -31.2877   20.6488 C   0  0  0  0  0  0  0  0  0  0  0  0
  -24.1506  -28.6517   21.2777 C   0  0  0  0  0  0  0  0  0  0  0  0
  -31.0480  -22.5222   22.5061 C   0  0  0  0  0  0  0  0  0  0  0  0
  -29.9711  -24.7929   23.1247 C   0  0  0  0  0  0  0  0  0  0  0  0
  -22.2702  -35.1529   23.7895 C   0  0  0  0  0  0  0  0  0  0  0  0
  -30.1705  -13.6949   19.8034 C   0  0  0  0  0  0  0  0  0  0  0  0
  -22.4259  -33.7746   24.4241 C   0  0  0  0  0  0  0  0  0  0  0  0
  -28.8184  -13.1490   20.2681 C   0  0  0  0  0  0  0  0  0  0  0  0
  -31.5107  -22.9806   21.1314 C   0  0  0  0  0  0  0  0  0  0  0  0
  -30.6656  -14.8253   20.7038 C   0  0  0  0  0  0  0  0  0  0  0  0
  -28.3586  -15.3769   21.3691 C   0  0  0  0  0  0  0  0  0  0  0  0
  -23.8429  -33.2273   24.2140 C   0  0  1  0  0  0  0  0  0  0  0  0
  -30.4529  -25.5636   21.8921 C   0  0  2  0  0  0  0  0  0  0  0  0
  -23.8672  -31.1389   21.0405 C   0  0  1  0  0  0  0  0  0  0  0  0
  -27.7882  -14.2801   20.4551 C   0  0  2  0  0  0  0  0  0  0  0  0
  -30.9941  -22.5999   18.1922 C   0  0  0  0  0  0  0  0  0  0  0  0
  -21.6267  -25.3938   16.7146 C   0  0  0  0  0  0  0  0  0  0  0  0
  -19.4775  -28.8724   21.7461 C   0  0  0  0  0  0  0  0  0  0  0  0
  -19.4527  -26.7473   20.4226 C   0  0  0  0  0  0  0  0  0  0  0  0
  -19.2889  -28.9448   19.2534 C   0  0  0  0  0  0  0  0  0  0  0  0
  -26.4777  -19.8748   20.9362 C   0  0  0  0  0  0  0  0  0  0  0  0
  -25.0464  -25.2959   18.3794 C   0  0  0  0  0  0  0  0  0  0  0  0
  -29.9677  -27.0148   21.9617 C   0  0  0  0  0  0  0  0  0  1  0  0
  -29.9083  -22.8375   19.2397 C   0  0  2  0  0  0  0  0  0  0  0  0
  -21.4962  -28.2408   20.2655 C   0  0  1  0  0  0  0  0  0  0  0  0
  -22.7802  -25.9341   17.5453 C   0  0  2  0  0  0  0  0  0  0  0  0
  -19.9513  -28.2081   20.4380 C   0  0  0  0  0  0  0  0  0  0  0  0
  -26.4516  -12.6805   21.7728 N   0  0  0  0  0  0  0  0  0  0  0  0
  -27.9927  -21.5483   20.1066 N   0  0  0  0  0  0  0  0  0  0  0  0
  -26.4590  -13.7519   20.9614 N   0  0  0  0  0  0  0  0  0  0  0  0
  -27.7808  -20.2663   20.4494 N   0  0  0  0  0  0  0  0  0  0  0  0
  -30.4346  -23.6097   20.3580 N   0  0  0  0  0  0  0  0  0  0  0  0
  -23.3511  -29.7904   20.7965 N   0  0  0  0  0  0  0  0  0  0  0  0
  -29.6391  -15.8622   20.8311 N   0  0  0  0  0  0  0  0  0  0  0  0
  -25.0432  -15.3195   19.8896 N   0  0  0  0  0  0  0  0  0  0  0  0
  -22.1543  -12.6664   22.1283 N   0  0  0  0  0  0  0  0  0  0  0  0
  -28.8744  -18.0798   20.5867 N   0  0  0  0  0  0  0  0  0  0  0  0
  -23.9950  -32.7227   22.8662 N   0  0  0  0  0  0  0  0  0  0  0  0
  -21.9715  -27.6428   19.0226 N   0  0  0  0  0  0  0  0  0  0  0  0
  -23.8414  -24.8898   17.6112 N   0  3  0  0  0  0  0  0  0  0  0  0
  -31.5360  -23.6715   24.5491 O   0  0  0  0  0  0  0  0  0  0  0  0
  -29.0836  -25.4406   19.9115 O   0  0  0  0  0  0  0  0  0  0  0  0
  -22.3190  -14.4739   20.7267 O   0  0  0  0  0  0  0  0  0  0  0  0
  -23.1228  -30.5917   23.2134 O   0  0  0  0  0  0  0  0  0  0  0  0
  -21.3540  -30.5781   19.8868 O   0  0  0  0  0  0  0  0  0  0  0  0
  -22.2825  -25.5071   19.8707 O   0  0  0  0  0  0  0  0  0  0  0  0
  -31.0470  -17.5032   20.0131 O   0  0  0  0  0  0  0  0  0  0  0  0
  -23.4903   -8.3028   25.3243 O   0  0  0  0  0  0  0  0  0  0  0  0
  -28.6207  -27.0324   22.4326 O   0  0  0  0  0  0  0  0  0  1  0  0
  -18.1541   -6.9177   25.2240 F   0  0  0  0  0  0  0  0  0  0  0  0
  -22.6993   -5.7569   24.5929 F   0  0  0  0  0  0  0  0  0  0  0  0
  1  2  1  0  0  0  0
  1  5  2  0  0  0  0
  2  6  2  0  0  0  0
  3  8  2  0  0  0  0
  3 16  1  0  0  0  0
  4  9  1  0  0  0  0
  4 16  2  0  0  0  0
  5 18  1  0  0  0  0
  6 20  1  0  0  0  0
  7 10  2  0  0  0  0
  7 19  1  0  0  0  0
  8 22  1  0  0  0  0
  9 22  2  0  0  0  0
 10 23  1  0  0  0  0
 11 12  2  0  0  0  0
 11 24  1  0  0  0  0
 12 25  1  0  0  0  0
 13 21  1  0  0  0  0
 13 23  2  0  0  0  0
 14 25  2  0  0  0  0
 14 26  1  0  0  0  0
 15 28  1  0  0  0  0
 15 29  2  0  0  0  0
 16 27  1  0  0  0  0
 17 27  1  0  0  0  0
 17 30  2  0  0  0  0
 17 33  1  0  0  0  0
 18 20  2  0  0  0  0
 18 38  1  0  0  0  0
 19 21  2  0  0  0  0
 19 39  1  0  0  0  0
 20 50  1  0  0  0  0
 21 40  1  0  0  0  0
 22 86  1  0  0  0  0
 23 87  1  0  0  0  0
 24 26  2  0  0  0  0
 24 86  1  0  0  0  0
 25 88  1  0  0  0  0
 26 89  1  0  0  0  0
 27 66  2  0  0  0  0
 28 62  1  0  0  0  0
 28 67  2  0  0  0  0
 29 69  1  0  0  0  0
 29 75  1  0  0  0  0
 30 68  1  0  0  0  0
 30 73  1  0  0  0  0
 31 41  1  0  0  0  0
 31 42  1  0  0  0  0
 31 79  2  0  0  0  0
 32 51  1  0  0  0  0
 32 70  1  0  0  0  0
 32 80  2  0  0  0  0
 33 74  1  0  0  0  0
 33 81  2  0  0  0  0
 34 52  1  0  0  0  0
 34 76  1  0  0  0  0
 34 82  2  0  0  0  0
 35 63  1  0  0  0  0
 35 71  1  0  0  0  0
 35 83  2  0  0  0  0
 36 64  1  0  0  0  0
 36 77  1  0  0  0  0
 36 84  2  0  0  0  0
 37 72  1  0  0  0  0
 37 75  1  0  0  0  0
 37 85  2  0  0  0  0
 38 43  1  0  0  0  0
 39 52  1  0  0  0  0
 40 71  1  0  0  0  0
 41 47  1  0  0  0  0
 42 51  1  0  0  0  0
 43 45  1  0  0  0  0
 44 46  1  0  0  0  0
 44 48  1  0  0  0  0
 45 50  1  0  0  0  0
 46 53  1  0  0  0  0
 47 70  1  0  0  0  0
 48 72  1  0  0  0  0
 49 53  1  0  0  0  0
 49 72  1  0  0  0  0
 50 76  1  0  0  0  0
 51 61  1  0  0  0  0
 52 71  1  0  0  0  0
 53 68  1  0  0  0  0
 54 62  1  0  0  0  0
 55 64  1  0  0  0  0
 56 65  1  0  0  0  0
 57 65  1  0  0  0  0
 58 65  1  0  0  0  0
 59 69  1  0  0  0  0
 60 78  1  0  0  0  0
 61 87  1  0  0  0  0
 62 70  1  0  0  0  0
 63 65  1  0  0  0  0
 63 77  1  0  0  0  0
 64 78  1  0  0  0  0
 66 68  1  0  0  0  0
 67 69  1  0  0  0  0
M  CHG  1  78   1
M  ISO  4  37 100  61 101  75 100  87 101
M  END
> <Batch ID>
0106

> <Smiles>
CNC(C)C(=O)NC(C(=O)N1Cc2cc([101O:1][101CH2:1]C3CC(=O)CCN(C(C)c4cc([100NH:0][100C:0](=O)N5CCCC(n6nc(-c7ccc(Oc8ccc(F)cc8F)cc7)c(C(N)=O)c6N)C5)n(C)n4)C3=O)ccc2CC1C(=O)NC1CCCc2ccccc21)C(C)(C)C

> <Shape>
0.304

> <Color>
0.107

> <Negative vol penalty>
0.000

$$$$

  -OEChem-04052301143D

 86 94  0     1  0  0  0  0  0999 V2000
  -31.3499  -24.7367   19.0413 C   0  0  0  0  0  0  0  0  0  0  0  0
  -30.5474  -24.3857   20.1222 C   0  0  0  0  0  0  0  0  0  0  0  0
  -28.0579  -16.3044   18.9502 C   0  0  0  0  0  0  0  0  0  0  0  0
  -28.3191  -16.3597   21.3514 C   0  0  0  0  0  0  0  0  0  0  0  0
  -31.3589  -26.0522   18.5794 C   0  0  0  0  0  0  0  0  0  0  0  0
  -29.7542  -25.3504   20.7425 C   0  0  0  0  0  0  0  0  0  0  0  0
  -25.0589  -23.6982   21.6750 C   0  0  0  0  0  0  0  0  0  0  0  0
  -28.9154  -17.3981   18.8317 C   0  0  0  0  0  0  0  0  0  0  0  0
  -29.1767  -17.4534   21.2329 C   0  0  0  0  0  0  0  0  0  0  0  0
  -24.8859  -22.8591   22.7748 C   0  0  0  0  0  0  0  0  0  0  0  0
  -28.7439  -20.7510   19.2224 C   0  0  0  0  0  0  0  0  0  0  0  0
  -28.3644  -21.7809   18.3617 C   0  0  0  0  0  0  0  0  0  0  0  0
  -24.0870  -24.7311   24.0697 C   0  0  0  0  0  0  0  0  0  0  0  0
  -21.4092  -16.5032   26.1166 C   0  0  0  0  0  0  0  0  0  0  0  0
  -19.1210  -15.7285   26.0923 C   0  0  0  0  0  0  0  0  0  0  0  0
  -30.3709  -21.4334   17.0614 C   0  0  0  0  0  0  0  0  0  0  0  0
  -27.7596  -15.7852   20.2101 C   0  0  0  0  0  0  0  0  0  0  0  0
  -27.2269  -13.2932   20.3263 C   0  0  0  0  0  0  0  0  0  0  0  0
  -30.5581  -27.0313   19.1882 C   0  0  0  0  0  0  0  0  0  0  0  0
  -24.7571  -25.0645   21.7676 C   0  0  0  0  0  0  0  0  0  0  0  0
  -29.7535  -26.6805   20.2891 C   0  0  0  0  0  0  0  0  0  0  0  0
  -24.2547  -25.5849   22.9688 C   0  0  0  0  0  0  0  0  0  0  0  0
  -20.4773  -15.4969   25.8630 C   0  0  0  0  0  0  0  0  0  0  0  0
  -19.6287  -17.9727   26.8288 C   0  0  0  0  0  0  0  0  0  0  0  0
  -29.4749  -17.9726   19.9731 C   0  0  0  0  0  0  0  0  0  0  0  0
  -24.4026  -23.3761   23.9733 C   0  0  0  0  0  0  0  0  0  0  0  0
  -29.9369  -20.0624   19.0028 C   0  0  0  0  0  0  0  0  0  0  0  0
  -20.9850  -17.7411   26.5995 C   0  0  0  0  0  0  0  0  0  0  0  0
  -29.1779  -22.1221   17.2812 C   0  0  0  0  0  0  0  0  0  0  0  0
  -18.6967  -16.9664   26.5751 C   0  0  0  0  0  0  0  0  0  0  0  0
  -30.7504  -20.4036   17.9223 C   0  0  0  0  0  0  0  0  0  0  0  0
  -26.8734  -14.6558   20.3332 C   0  0  0  0  0  0  0  0  0  0  0  0
  -26.0340  -12.6283   20.4722 C   0  0  0  0  0  0  0  0  0  0  0  0
  -28.5181  -12.6830   20.1995 C   0  0  0  0  0  0  0  0  0  0  0  0
  -26.4262  -27.7547   21.4841 C   0  0  0  0  0  0  0  0  0  0  0  0
  -23.0867  -20.6064   25.9043 C   0  0  0  0  0  0  0  0  0  0  0  0
  -23.5057  -29.1378   21.7670 C   0  0  0  0  0  0  0  0  0  0  0  0
  -20.2856  -28.9068   22.8733 C   0  0  0  0  0  0  0  0  0  0  0  0
  -20.7704  -14.1755   22.8706 C   0  0  0  0  0  0  0  0  0  0  0  0
  -30.6370  -28.4504   18.6835 C   0  0  0  0  0  0  0  0  0  0  0  0
  -24.9240  -25.9512   20.5641 C   0  0  0  0  0  0  0  0  0  0  0  0
  -23.8965  -27.0406   23.1140 C   0  0  0  0  0  0  0  0  0  0  0  0
  -29.4841  -29.3308   19.1587 C   0  0  0  0  0  0  0  0  0  0  0  0
  -21.3624  -13.0700   19.5383 C   0  0  0  0  0  0  0  0  0  0  0  0
  -29.2492  -29.1418   20.6540 C   0  0  0  0  0  0  0  0  0  0  0  0
  -22.8738  -13.2281   19.3636 C   0  0  0  0  0  0  0  0  0  0  0  0
  -20.7730  -14.1895   20.3934 C   0  0  0  0  0  0  0  0  0  0  0  0
  -22.9325  -14.5314   21.5307 C   0  0  0  0  0  0  0  0  0  0  0  0
  -28.8605  -27.6931   20.9726 C   0  0  1  0  0  0  0  0  0  0  0  0
  -25.0710  -27.4263   20.9245 C   0  0  1  0  0  0  0  0  0  0  0  0
  -23.5809  -13.3949   20.7220 C   0  0  2  0  0  0  0  0  0  0  0  0
  -21.8984  -13.4601   26.3029 C   0  0  0  0  0  0  0  0  0  0  0  0
  -18.1455  -30.2119   22.9935 C   0  0  0  0  0  0  0  0  0  0  0  0
  -24.6578  -30.8128   24.0424 C   0  0  0  0  0  0  0  0  0  0  0  0
  -22.3145  -31.3695   24.7259 C   0  0  0  0  0  0  0  0  0  0  0  0
  -23.1559  -32.0642   22.4827 C   0  0  0  0  0  0  0  0  0  0  0  0
  -18.8342  -26.8982   21.2553 C   0  0  0  0  0  0  0  0  0  0  0  0
  -23.9202  -21.1927   24.7832 C   0  0  0  0  0  0  0  0  0  1  0  0
  -22.7024  -19.1493   25.7491 C   0  0  0  0  0  0  0  0  0  0  0  0
  -20.9308  -14.1732   25.3472 C   0  0  2  0  0  0  0  0  0  0  0  0
  -22.6601  -29.6238   22.9192 C   0  0  1  0  0  0  0  0  0  0  0  0
  -18.9626  -29.2096   22.1931 C   0  0  2  0  0  0  0  0  0  0  0  0
  -23.2056  -30.9405   23.5407 C   0  0  0  0  0  0  0  0  0  0  0  0
  -25.5588  -14.8468   20.4722 N   0  0  0  0  0  0  0  0  0  0  0  0
  -25.0758  -13.5954   20.5541 N   0  0  0  0  0  0  0  0  0  0  0  0
  -24.0832  -27.8683   21.9108 N   0  0  0  0  0  0  0  0  0  0  0  0
  -21.4870  -14.2939   21.6683 N   0  0  0  0  0  0  0  0  0  0  0  0
  -19.1877  -19.2218   27.3177 N   0  0  0  0  0  0  0  0  0  0  0  0
  -25.7216  -11.3165   20.5371 N   0  0  0  0  0  0  0  0  0  0  0  0
  -29.6384  -13.5132   20.0578 N   0  0  0  0  0  0  0  0  0  0  0  0
  -27.4736  -27.4557   20.6338 N   0  0  0  0  0  0  0  0  0  0  0  0
  -21.2961  -29.7231   22.4111 N   0  0  0  0  0  0  0  0  0  0  0  0
  -21.5244  -14.2802   24.0330 N   0  0  0  0  0  0  0  0  0  0  0  0
  -18.1604  -27.9628   22.0424 N   0  3  0  0  0  0  0  0  0  0  0  0
  -28.6720  -11.4381   20.1950 O   0  0  0  0  0  0  0  0  0  0  0  0
  -26.5150  -28.2446   22.6038 O   0  0  0  0  0  0  0  0  0  0  0  0
  -22.7428  -21.2726   26.8795 O   0  0  0  0  0  0  0  0  0  0  0  0
  -23.6429  -29.8551   20.7728 O   0  0  0  0  0  0  0  0  0  0  0  0
  -20.4093  -28.0360   23.7317 O   0  0  0  0  0  0  0  0  0  0  0  0
  -19.5500  -13.9849   22.9055 O   0  0  0  0  0  0  0  0  0  0  0  0
  -30.3119  -19.0396   19.8578 O   0  0  0  0  0  0  0  0  0  0  0  0
  -24.2334  -22.5594   25.0486 O   0  0  0  0  0  0  0  0  0  1  0  0
  -21.9194  -18.7198   26.8428 O   0  0  0  0  0  0  0  0  0  0  0  0
  -28.8126  -23.1101   16.4537 F   0  0  0  0  0  0  0  0  0  0  0  0
  -17.3906  -17.1775   26.7917 F   0  0  0  0  0  0  0  0  0  0  0  0
  -31.8970  -19.7448   17.7054 F   0  0  0  0  0  0  0  0  0  0  0  0
  1  2  1  0  0  0  0
  1  5  2  0  0  0  0
  2  6  2  0  0  0  0
  3  8  2  0  0  0  0
  3 17  1  0  0  0  0
  4  9  1  0  0  0  0
  4 17  2  0  0  0  0
  5 19  1  0  0  0  0
  6 21  1  0  0  0  0
  7 10  2  0  0  0  0
  7 20  1  0  0  0  0
  8 25  1  0  0  0  0
  9 25  2  0  0  0  0
 10 26  1  0  0  0  0
 11 12  2  0  0  0  0
 11 27  1  0  0  0  0
 12 29  1  0  0  0  0
 13 22  1  0  0  0  0
 13 26  2  0  0  0  0
 14 23  2  0  0  0  0
 14 28  1  0  0  0  0
 15 23  1  0  0  0  0
 15 30  2  0  0  0  0
 16 29  2  0  0  0  0
 16 31  1  0  0  0  0
 17 32  1  0  0  0  0
 18 32  1  0  0  0  0
 18 33  2  0  0  0  0
 18 34  1  0  0  0  0
 19 21  2  0  0  0  0
 19 40  1  0  0  0  0
 20 22  2  0  0  0  0
 20 41  1  0  0  0  0
 21 49  1  0  0  0  0
 22 42  1  0  0  0  0
 23 60  1  0  0  0  0
 24 28  2  0  0  0  0
 24 30  1  0  0  0  0
 24 68  1  0  0  0  0
 25 81  1  0  0  0  0
 26 82  1  0  0  0  0
 27 31  2  0  0  0  0
 27 81  1  0  0  0  0
 28 83  1  0  0  0  0
 29 84  1  0  0  0  0
 30 85  1  0  0  0  0
 31 86  1  0  0  0  0
 32 64  2  0  0  0  0
 33 65  1  0  0  0  0
 33 69  1  0  0  0  0
 34 70  1  0  0  0  0
 34 75  2  0  0  0  0
 35 50  1  0  0  0  0
 35 71  1  0  0  0  0
 35 76  2  0  0  0  0
 36 58  1  0  0  0  0
 36 59  1  0  0  0  0
 36 77  2  0  0  0  0
 37 61  1  0  0  0  0
 37 66  1  0  0  0  0
 37 78  2  0  0  0  0
 38 62  1  0  0  0  0
 38 72  1  0  0  0  0
 38 79  2  0  0  0  0
 39 67  1  0  0  0  0
 39 73  1  0  0  0  0
 39 80  2  0  0  0  0
 40 43  1  0  0  0  0
 41 50  1  0  0  0  0
 42 66  1  0  0  0  0
 43 45  1  0  0  0  0
 44 46  1  0  0  0  0
 44 47  1  0  0  0  0
 45 49  1  0  0  0  0
 46 51  1  0  0  0  0
 47 67  1  0  0  0  0
 48 51  1  0  0  0  0
 48 67  1  0  0  0  0
 49 71  1  0  0  0  0
 50 66  1  0  0  0  0
 51 65  1  0  0  0  0
 52 60  1  0  0  0  0
 53 62  1  0  0  0  0
 54 63  1  0  0  0  0
 55 63  1  0  0  0  0
 56 63  1  0  0  0  0
 57 74  1  0  0  0  0
 58 82  1  0  0  0  0
 59 83  1  0  0  0  0
 60 73  1  0  0  0  0
 61 63  1  0  0  0  0
 61 72  1  0  0  0  0
 62 74  1  0  0  0  0
 64 65  1  0  0  0  0
M  CHG  1  74   1
M  ISO  4  39 100  58 101  73 100  82 101
M  END
> <Batch ID>
0106

> <Smiles>
CNC(C)C(=O)NC(C(=O)N1Cc2cc([101O:1][101CH2:1]C(=O)COc3cc(C(C)[100NH:0][100C:0](=O)N4CCCC(n5nc(-c6ccc(Oc7ccc(F)cc7F)cc6)c(C(N)=O)c5N)C4)cc(F)c3N)ccc2CC1C(=O)NC1CCCc2ccccc21)C(C)(C)C

> <Shape>
0.244

> <Color>
0.053

> <Negative vol penalty>
0.000

$$$$

  -OEChem-04052301143D

 85 93  0     1  0  0  0  0  0999 V2000
  -29.9839  -25.4135   17.3399 C   0  0  0  0  0  0  0  0  0  0  0  0
  -28.5979  -25.4782   17.4413 C   0  0  0  0  0  0  0  0  0  0  0  0
  -25.7846  -16.1835   20.0305 C   0  0  0  0  0  0  0  0  0  0  0  0
  -24.6166  -15.3710   21.9831 C   0  0  0  0  0  0  0  0  0  0  0  0
  -30.7802  -25.8482   18.3987 C   0  0  0  0  0  0  0  0  0  0  0  0
  -28.0074  -25.9767   18.6020 C   0  0  0  0  0  0  0  0  0  0  0  0
  -22.8357  -29.2332   18.9951 C   0  0  0  0  0  0  0  0  0  0  0  0
  -26.2285  -14.8896   19.7577 C   0  0  0  0  0  0  0  0  0  0  0  0
  -25.0605  -14.0771   21.7103 C   0  0  0  0  0  0  0  0  0  0  0  0
  -21.5242  -28.8769   19.3062 C   0  0  0  0  0  0  0  0  0  0  0  0
  -27.9653  -11.8580   18.7493 C   0  0  0  0  0  0  0  0  0  0  0  0
  -29.3054  -11.6906   18.4006 C   0  0  0  0  0  0  0  0  0  0  0  0
  -22.6757  -24.2153   23.8825 C   0  0  0  0  0  0  0  0  0  0  0  0
  -21.8963  -29.5318   21.5979 C   0  0  0  0  0  0  0  0  0  0  0  0
  -19.9099  -23.8901   23.7173 C   0  0  0  0  0  0  0  0  0  0  0  0
  -29.9752  -12.6244   20.5257 C   0  0  0  0  0  0  0  0  0  0  0  0
  -24.9787  -16.4242   21.1433 C   0  0  0  0  0  0  0  0  0  0  0  0
  -22.0112  -23.4130   24.8100 C   0  0  0  0  0  0  0  0  0  0  0  0
  -23.3348  -18.3671   20.9695 C   0  0  0  0  0  0  0  0  0  0  0  0
  -30.1993  -26.3612   19.5691 C   0  0  0  0  0  0  0  0  0  0  0  0
  -23.6921  -29.7322   19.9871 C   0  0  0  0  0  0  0  0  0  0  0  0
  -28.7966  -26.4174   19.6779 C   0  0  0  0  0  0  0  0  0  0  0  0
  -23.2174  -29.8962   21.2962 C   0  0  0  0  0  0  0  0  0  0  0  0
  -20.6283  -23.2503   24.7274 C   0  0  0  0  0  0  0  0  0  0  0  0
  -25.8664  -13.8364   20.5975 C   0  0  0  0  0  0  0  0  0  0  0  0
  -21.0552  -29.0234   20.6084 C   0  0  0  0  0  0  0  0  0  0  0  0
  -27.6301  -12.4088   19.9863 C   0  0  0  0  0  0  0  0  0  0  0  0
  -21.9573  -24.8551   22.8724 C   0  0  0  0  0  0  0  0  0  0  0  0
  -20.5744  -24.6924   22.7898 C   0  0  0  0  0  0  0  0  0  0  0  0
  -30.3104  -12.0737   19.2887 C   0  0  0  0  0  0  0  0  0  0  0  0
  -28.6351  -12.7919   20.8745 C   0  0  0  0  0  0  0  0  0  0  0  0
  -24.5204  -17.7606   21.4261 C   0  0  0  0  0  0  0  0  0  0  0  0
  -23.3633  -19.6284   21.5124 C   0  0  0  0  0  0  0  0  0  0  0  0
  -22.7905  -22.7573   25.8526 C   0  0  0  0  0  0  0  0  0  0  0  0
  -22.3003  -17.8376   20.1298 C   0  0  0  0  0  0  0  0  0  0  0  0
  -24.2588  -22.9300   25.9383 C   0  0  0  0  0  0  0  0  0  0  0  0
  -26.4368  -28.7723   21.2712 C   0  0  0  0  0  0  0  0  0  0  0  0
  -26.2802  -31.6365   22.7858 C   0  0  0  0  0  0  0  0  0  0  0  0
  -24.3498  -34.2111   23.9225 C   0  0  0  0  0  0  0  0  0  0  0  0
  -31.1003  -26.7749   20.7056 C   0  0  0  0  0  0  0  0  0  0  0  0
  -25.0959  -30.1371   19.6295 C   0  0  0  0  0  0  0  0  0  0  0  0
  -24.0905  -30.4463   22.3933 C   0  0  0  0  0  0  0  0  0  0  0  0
  -30.4021  -27.6383   21.7532 C   0  0  0  0  0  0  0  0  0  0  0  0
  -27.0683  -22.1329   23.8579 C   0  0  0  0  0  0  0  0  0  0  0  0
  -29.0513  -27.0362   22.1270 C   0  0  0  0  0  0  0  0  0  0  0  0
  -26.5701  -20.9486   23.0303 C   0  0  0  0  0  0  0  0  0  0  0  0
  -26.4843  -22.1145   25.2668 C   0  0  0  0  0  0  0  0  0  0  0  0
  -24.4856  -20.8813   24.4711 C   0  0  0  0  0  0  0  0  0  0  0  0
  -28.1191  -26.9748   20.9109 C   0  0  1  0  0  0  0  0  0  0  0  0
  -26.0376  -30.1519   20.8297 C   0  0  1  0  0  0  0  0  0  0  0  0
  -25.0325  -20.8811   23.0329 C   0  0  2  0  0  0  0  0  0  0  0  0
  -24.5014  -36.3920   25.1546 C   0  0  0  0  0  0  0  0  0  0  0  0
  -26.6296  -30.1250   25.4132 C   0  0  0  0  0  0  0  0  0  0  0  0
  -25.8327  -32.1713   26.6158 C   0  0  0  0  0  0  0  0  0  0  0  0
  -27.9233  -32.2596   25.2577 C   0  0  0  0  0  0  0  0  0  0  0  0
  -23.2727  -35.7217   21.6167 C   0  0  0  0  0  0  0  0  0  0  0  0
  -23.0949  -25.0015   20.7891 C   0  0  0  0  0  0  0  0  0  0  0  0
  -18.1888  -26.8605   21.0067 C   0  0  0  0  0  0  0  0  0  0  0  0
  -19.1879  -27.6234   20.1511 C   0  0  0  0  0  0  0  0  0  1  0  0
  -18.8478  -26.2259   22.2214 C   0  0  0  0  0  0  0  0  0  0  0  0
  -25.6877  -32.1282   24.0843 C   0  0  1  0  0  0  0  0  0  0  0  0
  -24.4996  -35.7161   23.7923 C   0  0  2  0  0  0  0  0  0  0  0  0
  -26.5022  -31.6588   25.3227 C   0  0  0  0  0  0  0  0  0  0  0  0
  -25.2489  -18.5701   22.1993 N   0  0  0  0  0  0  0  0  0  0  0  0
  -22.2600  -21.9909   26.7645 N   0  0  0  0  0  0  0  0  0  0  0  0
  -24.5193  -19.6982   22.2328 N   0  0  0  0  0  0  0  0  0  0  0  0
  -25.0266  -22.0136   25.2334 N   0  0  0  0  0  0  0  0  0  0  0  0
  -25.4572  -30.8220   21.9952 N   0  0  0  0  0  0  0  0  0  0  0  0
  -19.9364  -22.4421   25.6568 N   0  0  0  0  0  0  0  0  0  0  0  0
  -22.5120  -20.6736   21.4390 N   0  0  0  0  0  0  0  0  0  0  0  0
  -22.4288  -16.5238   19.6591 N   0  0  0  0  0  0  0  0  0  0  0  0
  -27.5612  -28.2814   20.6354 N   0  0  0  0  0  0  0  0  0  0  0  0
  -25.5738  -33.5772   23.9582 N   0  0  0  0  0  0  0  0  0  0  0  0
  -23.3785  -36.2806   22.9890 N   0  3  0  0  0  0  0  0  0  0  0  0
  -21.2998  -18.5153   19.7931 O   0  0  0  0  0  0  0  0  0  0  0  0
  -24.6403  -23.8679   26.6262 O   0  0  0  0  0  0  0  0  0  0  0  0
  -25.7747  -28.1964   22.1265 O   0  0  0  0  0  0  0  0  0  0  0  0
  -27.4283  -31.9689   22.4808 O   0  0  0  0  0  0  0  0  0  0  0  0
  -23.2564  -33.6538   23.9897 O   0  0  0  0  0  0  0  0  0  0  0  0
  -26.2992  -12.5737   20.3314 O   0  0  0  0  0  0  0  0  0  0  0  0
  -22.6172  -25.6372   21.9731 O   0  0  0  0  0  0  0  0  0  0  0  0
  -19.7757  -28.6757   20.9149 O   0  0  0  0  0  0  0  0  0  1  0  0
  -19.8575  -25.3176   21.8029 O   0  0  0  0  0  0  0  0  0  0  0  0
  -31.5972  -11.9114   18.9543 F   0  0  0  0  0  0  0  0  0  0  0  0
  -28.3192  -13.3205   22.0647 F   0  0  0  0  0  0  0  0  0  0  0  0
  1  2  1  0  0  0  0
  1  5  2  0  0  0  0
  2  6  2  0  0  0  0
  3  8  2  0  0  0  0
  3 17  1  0  0  0  0
  4  9  1  0  0  0  0
  4 17  2  0  0  0  0
  5 20  1  0  0  0  0
  6 22  1  0  0  0  0
  7 10  2  0  0  0  0
  7 21  1  0  0  0  0
  8 25  1  0  0  0  0
  9 25  2  0  0  0  0
 10 26  1  0  0  0  0
 11 12  2  0  0  0  0
 11 27  1  0  0  0  0
 12 30  1  0  0  0  0
 13 18  2  0  0  0  0
 13 28  1  0  0  0  0
 14 23  1  0  0  0  0
 14 26  2  0  0  0  0
 15 24  2  0  0  0  0
 15 29  1  0  0  0  0
 16 30  2  0  0  0  0
 16 31  1  0  0  0  0
 17 32  1  0  0  0  0
 18 24  1  0  0  0  0
 18 34  1  0  0  0  0
 19 32  1  0  0  0  0
 19 33  2  0  0  0  0
 19 35  1  0  0  0  0
 20 22  2  0  0  0  0
 20 40  1  0  0  0  0
 21 23  2  0  0  0  0
 21 41  1  0  0  0  0
 22 49  1  0  0  0  0
 23 42  1  0  0  0  0
 24 69  1  0  0  0  0
 25 80  1  0  0  0  0
 26 82  1  0  0  0  0
 27 31  2  0  0  0  0
 27 80  1  0  0  0  0
 28 29  2  0  0  0  0
 28 81  1  0  0  0  0
 29 83  1  0  0  0  0
 30 84  1  0  0  0  0
 31 85  1  0  0  0  0
 32 64  2  0  0  0  0
 33 66  1  0  0  0  0
 33 70  1  0  0  0  0
 34 36  1  0  0  0  0
 34 65  2  0  0  0  0
 35 71  1  0  0  0  0
 35 75  2  0  0  0  0
 36 67  1  0  0  0  0
 36 76  2  0  0  0  0
 37 50  1  0  0  0  0
 37 72  1  0  0  0  0
 37 77  2  0  0  0  0
 38 61  1  0  0  0  0
 38 68  1  0  0  0  0
 38 78  2  0  0  0  0
 39 62  1  0  0  0  0
 39 73  1  0  0  0  0
 39 79  2  0  0  0  0
 40 43  1  0  0  0  0
 41 50  1  0  0  0  0
 42 68  1  0  0  0  0
 43 45  1  0  0  0  0
 44 46  1  0  0  0  0
 44 47  1  0  0  0  0
 45 49  1  0  0  0  0
 46 51  1  0  0  0  0
 47 67  1  0  0  0  0
 48 51  1  0  0  0  0
 48 67  1  0  0  0  0
 49 72  1  0  0  0  0
 50 68  1  0  0  0  0
 51 66  1  0  0  0  0
 52 62  1  0  0  0  0
 53 63  1  0  0  0  0
 54 63  1  0  0  0  0
 55 63  1  0  0  0  0
 56 74  1  0  0  0  0
 57 81  1  0  0  0  0
 58 59  1  0  0  0  0
 58 60  1  0  0  0  0
 59 82  1  0  0  0  0
 60 83  1  0  0  0  0
 61 63  1  0  0  0  0
 61 73  1  0  0  0  0
 62 74  1  0  0  0  0
 64 66  1  0  0  0  0
M  CHG  1  74   1
M  ISO  4  34 100  36 100  59 101  82 101
M  END
> <Batch ID>
0106

> <Smiles>
CNC(C)C(=O)NC(C(=O)N1Cc2cc([101O:1][101CH2:1]CCOc3cc(N)c([100C:0](=N)[100C:0](=O)N4CCCC(n5nc(-c6ccc(Oc7ccc(F)cc7F)cc6)c(C(N)=O)c5N)C4)cc3OC)ccc2CC1C(=O)NC1CCCc2ccccc21)C(C)(C)C

> <Shape>
0.292

> <Color>
0.072

> <Negative vol penalty>
0.000

$$$$

  -OEChem-04052301143D

 86 94  0     1  0  0  0  0  0999 V2000
  -23.4089  -23.6688   18.5656 C   0  0  0  0  0  0  0  0  0  0  0  0
  -24.4808  -22.9391   19.0696 C   0  0  0  0  0  0  0  0  0  0  0  0
  -20.8666  -27.5885   20.0549 C   0  0  0  0  0  0  0  0  0  0  0  0
  -21.5847  -26.2541   21.9366 C   0  0  0  0  0  0  0  0  0  0  0  0
  -22.1036  -23.2336   18.7908 C   0  0  0  0  0  0  0  0  0  0  0  0
  -24.2479  -21.7743   19.8000 C   0  0  0  0  0  0  0  0  0  0  0  0
  -27.3045  -17.9771   18.4276 C   0  0  0  0  0  0  0  0  0  0  0  0
  -19.5899  -27.0349   20.1495 C   0  0  0  0  0  0  0  0  0  0  0  0
  -20.3079  -25.7005   22.0313 C   0  0  0  0  0  0  0  0  0  0  0  0
  -28.6131  -18.0078   18.9076 C   0  0  0  0  0  0  0  0  0  0  0  0
  -16.0426  -26.2403   20.1228 C   0  0  0  0  0  0  0  0  0  0  0  0
  -14.9522  -27.1051   20.0296 C   0  0  0  0  0  0  0  0  0  0  0  0
  -28.0160  -16.4170   20.6199 C   0  0  0  0  0  0  0  0  0  0  0  0
  -29.9107  -23.3500   22.5035 C   0  0  0  0  0  0  0  0  0  0  0  0
  -32.4571  -22.2113   22.5494 C   0  0  0  0  0  0  0  0  0  0  0  0
  -15.7411  -28.3089   21.9702 C   0  0  0  0  0  0  0  0  0  0  0  0
  -21.8641  -27.1981   20.9485 C   0  0  0  0  0  0  0  0  0  0  0  0
  -23.6572  -28.9290   21.4928 C   0  0  0  0  0  0  0  0  0  0  0  0
  -21.8549  -22.0577   19.5160 C   0  0  0  0  0  0  0  0  0  0  0  0
  -26.3375  -17.1730   19.0480 C   0  0  0  0  0  0  0  0  0  0  0  0
  -22.9380  -21.3237   20.0362 C   0  0  0  0  0  0  0  0  0  0  0  0
  -26.6965  -16.3759   20.1443 C   0  0  0  0  0  0  0  0  0  0  0  0
  -31.0296  -24.1321   22.2175 C   0  0  0  0  0  0  0  0  0  0  0  0
  -31.3381  -21.4292   22.8354 C   0  0  0  0  0  0  0  0  0  0  0  0
  -32.3028  -23.5628   22.2404 C   0  0  0  0  0  0  0  0  0  0  0  0
  -19.3105  -26.0909   21.1377 C   0  0  0  0  0  0  0  0  0  0  0  0
  -28.9683  -17.2299   20.0056 C   0  0  0  0  0  0  0  0  0  0  0  0
  -16.9822  -26.4097   21.1397 C   0  0  0  0  0  0  0  0  0  0  0  0
  -30.0649  -21.9985   22.8125 C   0  0  0  0  0  0  0  0  0  0  0  0
  -14.8015  -28.1394   20.9532 C   0  0  0  0  0  0  0  0  0  0  0  0
  -16.8315  -27.4440   22.0634 C   0  0  0  0  0  0  0  0  0  0  0  0
  -23.1833  -27.7692   20.8509 C   0  0  0  0  0  0  0  0  0  0  0  0
  -24.9613  -29.0430   21.0771 C   0  0  0  0  0  0  0  0  0  0  0  0
  -31.4758  -19.2555   22.1419 C   0  0  0  0  0  0  0  0  0  0  0  0
  -22.9792  -29.8233   22.3851 C   0  0  0  0  0  0  0  0  0  0  0  0
  -23.5901  -17.7230   20.5489 C   0  0  0  0  0  0  0  0  0  0  0  0
  -23.3983  -14.4849   20.5622 C   0  0  0  0  0  0  0  0  0  0  0  0
  -25.0216  -11.4859   20.4286 C   0  0  0  0  0  0  0  0  0  0  0  0
  -29.5424  -25.7504   19.7784 C   0  0  0  0  0  0  0  0  0  0  0  0
  -20.4252  -21.6525   19.7741 C   0  0  0  0  0  0  0  0  0  0  0  0
  -24.9368  -17.1306   18.5016 C   0  0  0  0  0  0  0  0  0  0  0  0
  -25.7008  -15.4802   20.8333 C   0  0  0  0  0  0  0  0  0  0  0  0
  -20.2764  -20.2058   20.2380 C   0  0  0  0  0  0  0  0  0  0  0  0
  -27.5648  -27.2973   17.2539 C   0  0  0  0  0  0  0  0  0  0  0  0
  -21.2920  -19.8885   21.3310 C   0  0  0  0  0  0  0  0  0  0  0  0
  -26.2774  -27.6845   17.9838 C   0  0  0  0  0  0  0  0  0  0  0  0
  -28.1228  -25.9690   17.7601 C   0  0  0  0  0  0  0  0  0  0  0  0
  -27.0360  -26.2846   19.9493 C   0  0  0  0  0  0  0  0  0  0  0  0
  -22.7268  -20.0417   20.8121 C   0  0  1  0  0  0  0  0  0  0  0  0
  -23.9085  -16.6669   19.5287 C   0  0  1  0  0  0  0  0  0  0  0  0
  -26.4657  -27.6447   19.5122 C   0  0  2  0  0  0  0  0  0  0  0  0
  -30.8908  -26.4797   23.1292 C   0  0  0  0  0  0  0  0  0  0  0  0
  -24.6004   -9.0131   20.5005 C   0  0  0  0  0  0  0  0  0  0  0  0
  -22.9739  -14.6474   23.5794 C   0  0  0  0  0  0  0  0  0  0  0  0
  -23.5086  -12.2053   23.7160 C   0  0  0  0  0  0  0  0  0  0  0  0
  -21.5270  -12.9754   22.4110 C   0  0  0  0  0  0  0  0  0  0  0  0
  -26.1448  -11.0984   17.7180 C   0  0  0  0  0  0  0  0  0  0  0  0
  -27.6995  -21.9122   23.0433 C   0  0  0  0  0  0  0  0  0  0  0  0
  -31.6603  -17.7760   22.3490 C   0  0  0  0  0  0  0  0  0  0  0  0
  -30.4273  -17.0266   21.8727 C   0  0  0  0  0  0  0  0  0  1  0  0
  -30.8353  -25.5768   21.8896 C   0  0  2  0  0  0  0  0  0  0  0  0
  -23.8486  -13.3911   21.5003 C   0  0  1  0  0  0  0  0  0  0  0  0
  -24.7605  -10.2349   19.6092 C   0  0  2  0  0  0  0  0  0  0  0  0
  -22.9830  -13.3231   22.7901 C   0  0  0  0  0  0  0  0  0  0  0  0
  -24.1109  -27.1880   20.0854 N   0  0  0  0  0  0  0  0  0  0  0  0
  -31.5076  -20.0695   23.1460 N   0  0  0  0  0  0  0  0  0  0  0  0
  -25.1806  -27.9859   20.2436 N   0  0  0  0  0  0  0  0  0  0  0  0
  -24.3423  -15.4783   20.2657 N   0  0  0  0  0  0  0  0  0  0  0  0
  -28.2791  -25.9977   19.2163 N   0  0  0  0  0  0  0  0  0  0  0  0
  -33.4467  -24.3394   21.9526 N   0  0  0  0  0  0  0  0  0  0  0  0
  -25.9303  -29.9434   21.3467 N   0  0  0  0  0  0  0  0  0  0  0  0
  -21.6411  -29.5587   22.7071 N   0  0  0  0  0  0  0  0  0  0  0  0
  -23.0990  -18.8965   20.0093 N   0  0  0  0  0  0  0  0  0  0  0  0
  -23.8538  -12.1594   20.7185 N   0  0  0  0  0  0  0  0  0  0  0  0
  -29.6044  -25.8030   21.1655 N   0  0  0  0  0  0  0  0  0  0  0  0
  -25.8900   -9.9862   18.6693 N   0  3  0  0  0  0  0  0  0  0  0  0
  -23.5383  -30.8365   22.8692 O   0  0  0  0  0  0  0  0  0  0  0  0
  -23.7748  -17.4900   21.7377 O   0  0  0  0  0  0  0  0  0  0  0  0
  -22.2536  -14.4550   20.1037 O   0  0  0  0  0  0  0  0  0  0  0  0
  -26.1482  -11.8292   20.7796 O   0  0  0  0  0  0  0  0  0  0  0  0
  -30.5422  -25.5064   19.0944 O   0  0  0  0  0  0  0  0  0  0  0  0
  -18.0646  -25.5507   21.2305 O   0  0  0  0  0  0  0  0  0  0  0  0
  -28.9611  -21.2490   23.0897 O   0  0  0  0  0  0  0  0  0  0  0  0
  -30.2448  -17.2585   20.4766 O   0  0  0  0  0  0  0  0  0  1  0  0
  -13.7552  -28.9708   20.8627 F   0  0  0  0  0  0  0  0  0  0  0  0
  -17.7315  -27.6124   23.0418 F   0  0  0  0  0  0  0  0  0  0  0  0
  1  2  1  0  0  0  0
  1  5  2  0  0  0  0
  2  6  2  0  0  0  0
  3  8  2  0  0  0  0
  3 17  1  0  0  0  0
  4  9  1  0  0  0  0
  4 17  2  0  0  0  0
  5 19  1  0  0  0  0
  6 21  1  0  0  0  0
  7 10  2  0  0  0  0
  7 20  1  0  0  0  0
  8 26  1  0  0  0  0
  9 26  2  0  0  0  0
 10 27  1  0  0  0  0
 11 12  2  0  0  0  0
 11 28  1  0  0  0  0
 12 30  1  0  0  0  0
 13 22  1  0  0  0  0
 13 27  2  0  0  0  0
 14 23  2  0  0  0  0
 14 29  1  0  0  0  0
 15 24  1  0  0  0  0
 15 25  2  0  0  0  0
 16 30  2  0  0  0  0
 16 31  1  0  0  0  0
 17 32  1  0  0  0  0
 18 32  1  0  0  0  0
 18 33  2  0  0  0  0
 18 35  1  0  0  0  0
 19 21  2  0  0  0  0
 19 40  1  0  0  0  0
 20 22  2  0  0  0  0
 20 41  1  0  0  0  0
 21 49  1  0  0  0  0
 22 42  1  0  0  0  0
 23 25  1  0  0  0  0
 23 61  1  0  0  0  0
 24 29  2  0  0  0  0
 24 66  1  0  0  0  0
 25 70  1  0  0  0  0
 26 82  1  0  0  0  0
 27 84  1  0  0  0  0
 28 31  2  0  0  0  0
 28 82  1  0  0  0  0
 29 83  1  0  0  0  0
 30 85  1  0  0  0  0
 31 86  1  0  0  0  0
 32 65  2  0  0  0  0
 33 67  1  0  0  0  0
 33 71  1  0  0  0  0
 34 59  1  0  0  0  0
 34 66  2  0  0  0  0
 35 72  1  0  0  0  0
 35 77  2  0  0  0  0
 36 50  1  0  0  0  0
 36 73  1  0  0  0  0
 36 78  2  0  0  0  0
 37 62  1  0  0  0  0
 37 68  1  0  0  0  0
 37 79  2  0  0  0  0
 38 63  1  0  0  0  0
 38 74  1  0  0  0  0
 38 80  2  0  0  0  0
 39 69  1  0  0  0  0
 39 75  1  0  0  0  0
 39 81  2  0  0  0  0
 40 43  1  0  0  0  0
 41 50  1  0  0  0  0
 42 68  1  0  0  0  0
 43 45  1  0  0  0  0
 44 46  1  0  0  0  0
 44 47  1  0  0  0  0
 45 49  1  0  0  0  0
 46 51  1  0  0  0  0
 47 69  1  0  0  0  0
 48 51  1  0  0  0  0
 48 69  1  0  0  0  0
 49 73  1  0  0  0  0
 50 68  1  0  0  0  0
 51 67  1  0  0  0  0
 52 61  1  0  0  0  0
 53 63  1  0  0  0  0
 54 64  1  0  0  0  0
 55 64  1  0  0  0  0
 56 64  1  0  0  0  0
 57 76  1  0  0  0  0
 58 83  1  0  0  0  0
 59 60  1  0  0  0  0
 60 84  1  0  0  0  0
 61 75  1  0  0  0  0
 62 64  1  0  0  0  0
 62 74  1  0  0  0  0
 63 76  1  0  0  0  0
 65 67  1  0  0  0  0
M  CHG  1  76   1
M  ISO  4  39 100  60 101  75 100  84 101
M  END
> <Batch ID>
0106

> <Smiles>
CNC(C)C(=O)NC(C(=O)N1Cc2cc([101O:1][101CH2:1]C=CNc3cc(N)c(C(C)[100NH:0][100C:0](=O)N4CCCC(n5nc(-c6ccc(Oc7ccc(F)cc7F)cc6)c(C(N)=O)c5N)C4)cc3OC)ccc2CC1C(=O)NC1CCCc2ccccc21)C(C)(C)C

> <Shape>
0.215

> <Color>
0.074

> <Negative vol penalty>
0.000

$$$$

  -OEChem-04052301143D

 83 91  0     1  0  0  0  0  0999 V2000
  -24.1708   -6.7688   23.9148 C   0  0  0  0  0  0  0  0  0  0  0  0
  -25.3453   -7.5093   23.8276 C   0  0  0  0  0  0  0  0  0  0  0  0
  -23.7101  -33.0795   22.1238 C   0  0  0  0  0  0  0  0  0  0  0  0
  -25.6925  -32.3255   23.2807 C   0  0  0  0  0  0  0  0  0  0  0  0
  -23.0925   -7.0737   23.0852 C   0  0  0  0  0  0  0  0  0  0  0  0
  -25.4425   -8.5547   22.9098 C   0  0  0  0  0  0  0  0  0  0  0  0
  -28.4942  -14.9812   22.0708 C   0  0  0  0  0  0  0  0  0  0  0  0
  -23.7283  -34.2621   22.8633 C   0  0  0  0  0  0  0  0  0  0  0  0
  -25.7108  -33.5081   24.0201 C   0  0  0  0  0  0  0  0  0  0  0  0
  -29.2875  -15.6871   21.1674 C   0  0  0  0  0  0  0  0  0  0  0  0
  -26.6588  -36.7187   23.5575 C   0  0  0  0  0  0  0  0  0  0  0  0
  -27.8836  -37.3693   23.7064 C   0  0  0  0  0  0  0  0  0  0  0  0
  -27.3327  -16.1743   19.8406 C   0  0  0  0  0  0  0  0  0  0  0  0
  -28.7089  -22.4529   19.6961 C   0  0  0  0  0  0  0  0  0  0  0  0
  -26.4503  -21.9212   21.2448 C   0  0  0  0  0  0  0  0  0  0  0  0
  -27.7159  -37.1358   26.1053 C   0  0  0  0  0  0  0  0  0  0  0  0
  -24.6921  -32.1112   22.3326 C   0  0  0  0  0  0  0  0  0  0  0  0
  -25.3035  -30.6489   20.3336 C   0  0  0  0  0  0  0  0  0  0  0  0
  -23.1732   -8.1296   22.1636 C   0  0  0  0  0  0  0  0  0  0  0  0
  -27.1134  -14.8571   21.8597 C   0  0  0  0  0  0  0  0  0  0  0  0
  -24.3648   -8.8732   22.0662 C   0  0  0  0  0  0  0  0  0  0  0  0
  -26.5236  -15.4685   20.7441 C   0  0  0  0  0  0  0  0  0  0  0  0
  -27.7184  -23.4242   19.8411 C   0  0  0  0  0  0  0  0  0  0  0  0
  -26.5891  -23.1584   20.6155 C   0  0  0  0  0  0  0  0  0  0  0  0
  -27.4409  -20.9499   21.0997 C   0  0  0  0  0  0  0  0  0  0  0  0
  -24.7287  -34.4764   23.8114 C   0  0  0  0  0  0  0  0  0  0  0  0
  -28.7073  -16.2813   20.0506 C   0  0  0  0  0  0  0  0  0  0  0  0
  -25.9624  -36.2767   24.6825 C   0  0  0  0  0  0  0  0  0  0  0  0
  -28.5702  -21.2157   20.3253 C   0  0  0  0  0  0  0  0  0  0  0  0
  -28.4121  -37.5778   24.9803 C   0  0  0  0  0  0  0  0  0  0  0  0
  -26.4910  -36.4853   25.9564 C   0  0  0  0  0  0  0  0  0  0  0  0
  -24.6735  -30.8891   21.5694 C   0  0  0  0  0  0  0  0  0  0  0  0
  -24.9848  -29.3472   20.0331 C   0  0  0  0  0  0  0  0  0  0  0  0
  -26.1052  -31.5242   19.5294 C   0  0  0  0  0  0  0  0  0  0  0  0
  -25.1279  -12.4222   21.3770 C   0  0  0  0  0  0  0  0  0  0  0  0
  -22.8633  -14.7361   21.5772 C   0  0  0  0  0  0  0  0  0  0  0  0
  -22.0626  -18.0400   21.2774 C   0  0  0  0  0  0  0  0  0  0  0  0
  -24.3942  -24.0113   21.5105 C   0  0  0  0  0  0  0  0  0  0  0  0
  -21.9982   -8.3914   21.2550 C   0  0  0  0  0  0  0  0  0  0  0  0
  -26.2674  -14.1150   22.8576 C   0  0  0  0  0  0  0  0  0  0  0  0
  -25.0429  -15.3819   20.4827 C   0  0  0  0  0  0  0  0  0  0  0  0
  -22.0496   -9.7548   20.5703 C   0  0  0  0  0  0  0  0  0  0  0  0
  -21.6588  -26.1909   22.1772 C   0  0  0  0  0  0  0  0  0  0  0  0
  -23.4386  -10.0107   19.9940 C   0  0  0  0  0  0  0  0  0  0  0  0
  -22.2511  -27.5877   21.9768 C   0  0  0  0  0  0  0  0  0  0  0  0
  -22.6659  -25.2336   22.8121 C   0  0  0  0  0  0  0  0  0  0  0  0
  -24.5526  -26.5451   21.9237 C   0  0  0  0  0  0  0  0  0  0  0  0
  -24.5000  -10.0306   21.1006 C   0  0  1  0  0  0  0  0  0  0  0  0
  -24.9502  -13.6167   22.2711 C   0  0  1  0  0  0  0  0  0  0  0  0
  -23.5965  -27.5272   21.2273 C   0  0  2  0  0  0  0  0  0  0  0  0
  -27.8935  -24.7408   19.1567 C   0  0  0  0  0  0  0  0  0  0  0  0
  -20.1241  -19.6222   21.4673 C   0  0  0  0  0  0  0  0  0  0  0  0
  -21.8042  -13.7574   18.8883 C   0  0  0  0  0  0  0  0  0  0  0  0
  -20.5331  -15.9048   18.6860 C   0  0  0  0  0  0  0  0  0  0  0  0
  -20.0349  -14.3342   20.5590 C   0  0  0  0  0  0  0  0  0  0  0  0
  -23.3724  -19.5676   23.4476 C   0  0  0  0  0  0  0  0  0  0  0  0
  -30.9702  -18.8412   18.8515 C   0  0  0  0  0  0  0  0  0  0  0  0
  -30.6444  -17.6116   19.6848 C   0  0  0  0  0  0  0  0  0  1  0  0
  -29.8262  -19.8429   18.8442 C   0  0  0  0  0  0  0  0  0  0  0  0
  -22.1879  -15.6591   20.5918 C   0  0  1  0  0  0  0  0  0  0  0  0
  -21.2953  -18.9775   22.1921 C   0  0  2  0  0  0  0  0  0  0  0  0
  -21.1682  -14.9141   19.6849 C   0  0  0  0  0  0  0  0  0  0  0  0
  -24.0050  -29.8254   22.0228 N   0  0  0  0  0  0  0  0  0  0  0  0
  -24.2131  -28.9042   21.0667 N   0  0  0  0  0  0  0  0  0  0  0  0
  -24.2590  -14.6400   21.4841 N   0  0  0  0  0  0  0  0  0  0  0  0
  -23.9141  -25.2252   22.0461 N   0  0  0  0  0  0  0  0  0  0  0  0
  -27.2872  -19.7015   21.7409 N   0  0  0  0  0  0  0  0  0  0  0  0
  -25.2922  -28.5497   18.9881 N   0  0  0  0  0  0  0  0  0  0  0  0
  -26.3339  -32.8292   19.9865 N   0  0  0  0  0  0  0  0  0  0  0  0
  -25.5719  -24.1321   20.7737 N   0  0  0  0  0  0  0  0  0  0  0  0
  -24.4650  -11.2905   21.8119 N   0  0  0  0  0  0  0  0  0  0  0  0
  -21.6080  -16.7422   21.3785 N   0  0  0  0  0  0  0  0  0  0  0  0
  -22.1899  -20.0586   22.6942 N   0  3  0  0  0  0  0  0  0  0  0  0
  -26.5904  -31.1650   18.4298 O   0  0  0  0  0  0  0  0  0  0  0  0
  -25.8143  -12.5206   20.3667 O   0  0  0  0  0  0  0  0  0  0  0  0
  -22.1785  -14.1284   22.4038 O   0  0  0  0  0  0  0  0  0  0  0  0
  -22.9718  -18.4215   20.5436 O   0  0  0  0  0  0  0  0  0  0  0  0
  -23.7895  -22.9478   21.6693 O   0  0  0  0  0  0  0  0  0  0  0  0
  -24.7469  -35.6303   24.5330 O   0  0  0  0  0  0  0  0  0  0  0  0
  -29.4795  -16.9704   19.1670 O   0  0  0  0  0  0  0  0  0  1  0  0
  -29.5548  -20.2749   20.1707 O   0  0  0  0  0  0  0  0  0  0  0  0
  -29.5891  -38.2012   25.1230 F   0  0  0  0  0  0  0  0  0  0  0  0
  -25.8273  -36.0619   27.0408 F   0  0  0  0  0  0  0  0  0  0  0  0
  1  2  1  0  0  0  0
  1  5  2  0  0  0  0
  2  6  2  0  0  0  0
  3  8  2  0  0  0  0
  3 17  1  0  0  0  0
  4  9  1  0  0  0  0
  4 17  2  0  0  0  0
  5 19  1  0  0  0  0
  6 21  1  0  0  0  0
  7 10  2  0  0  0  0
  7 20  1  0  0  0  0
  8 26  1  0  0  0  0
  9 26  2  0  0  0  0
 10 27  1  0  0  0  0
 11 12  2  0  0  0  0
 11 28  1  0  0  0  0
 12 30  1  0  0  0  0
 13 22  1  0  0  0  0
 13 27  2  0  0  0  0
 14 23  2  0  0  0  0
 14 29  1  0  0  0  0
 15 24  2  0  0  0  0
 15 25  1  0  0  0  0
 16 30  2  0  0  0  0
 16 31  1  0  0  0  0
 17 32  1  0  0  0  0
 18 32  1  0  0  0  0
 18 33  2  0  0  0  0
 18 34  1  0  0  0  0
 19 21  2  0  0  0  0
 19 39  1  0  0  0  0
 20 22  2  0  0  0  0
 20 40  1  0  0  0  0
 21 48  1  0  0  0  0
 22 41  1  0  0  0  0
 23 24  1  0  0  0  0
 23 51  1  0  0  0  0
 24 70  1  0  0  0  0
 25 29  2  0  0  0  0
 25 67  1  0  0  0  0
 26 79  1  0  0  0  0
 27 80  1  0  0  0  0
 28 31  2  0  0  0  0
 28 79  1  0  0  0  0
 29 81  1  0  0  0  0
 30 82  1  0  0  0  0
 31 83  1  0  0  0  0
 32 63  2  0  0  0  0
 33 64  1  0  0  0  0
 33 68  1  0  0  0  0
 34 69  1  0  0  0  0
 34 74  2  0  0  0  0
 35 49  1  0  0  0  0
 35 71  1  0  0  0  0
 35 75  2  0  0  0  0
 36 60  1  0  0  0  0
 36 65  1  0  0  0  0
 36 76  2  0  0  0  0
 37 61  1  0  0  0  0
 37 72  1  0  0  0  0
 37 77  2  0  0  0  0
 38 66  1  0  0  0  0
 38 70  1  0  0  0  0
 38 78  2  0  0  0  0
 39 42  1  0  0  0  0
 40 49  1  0  0  0  0
 41 65  1  0  0  0  0
 42 44  1  0  0  0  0
 43 45  1  0  0  0  0
 43 46  1  0  0  0  0
 44 48  1  0  0  0  0
 45 50  1  0  0  0  0
 46 66  1  0  0  0  0
 47 50  1  0  0  0  0
 47 66  1  0  0  0  0
 48 71  1  0  0  0  0
 49 65  1  0  0  0  0
 50 64  1  0  0  0  0
 52 61  1  0  0  0  0
 53 62  1  0  0  0  0
 54 62  1  0  0  0  0
 55 62  1  0  0  0  0
 56 73  1  0  0  0  0
 57 58  1  0  0  0  0
 57 59  1  0  0  0  0
 58 80  1  0  0  0  0
 59 81  1  0  0  0  0
 60 62  1  0  0  0  0
 60 72  1  0  0  0  0
 61 73  1  0  0  0  0
 63 64  1  0  0  0  0
M  CHG  1  73   1
M  ISO  4  38 100  58 101  70 100  80 101
M  END
> <Batch ID>
0106

> <Smiles>
CNC(C)C(=O)NC(C(=O)N1Cc2cc([101O:1][101CH2:1]CCOc3cc(C)c([100NH:0][100C:0](=O)N4CCCC(n5nc(-c6ccc(Oc7ccc(F)cc7F)cc6)c(C(N)=O)c5N)C4)cc3N)ccc2CC1C(=O)NC1CCCc2ccccc21)C(C)(C)C

> <Shape>
0.258

> <Color>
0.066

> <Negative vol penalty>
0.000

$$$$

  -OEChem-04052301143D

 88 96  0     1  0  0  0  0  0999 V2000
  -23.0193  -30.6908   21.2984 C   0  0  0  0  0  0  0  0  0  0  0  0
  -23.6093  -30.4211   20.0677 C   0  0  0  0  0  0  0  0  0  0  0  0
  -20.4139  -22.7069   20.9739 C   0  0  0  0  0  0  0  0  0  0  0  0
  -22.8191  -22.9026   20.8563 C   0  0  0  0  0  0  0  0  0  0  0  0
  -23.6484  -30.2869   22.4752 C   0  0  0  0  0  0  0  0  0  0  0  0
  -24.8293  -29.7481   20.0132 C   0  0  0  0  0  0  0  0  0  0  0  0
  -25.4748  -23.5234   16.4456 C   0  0  0  0  0  0  0  0  0  0  0  0
  -20.3662  -23.8072   21.8298 C   0  0  0  0  0  0  0  0  0  0  0  0
  -22.7715  -24.0030   21.7122 C   0  0  0  0  0  0  0  0  0  0  0  0
  -25.7299  -22.4372   15.6082 C   0  0  0  0  0  0  0  0  0  0  0  0
  -19.5791  -26.7864   23.7585 C   0  0  0  0  0  0  0  0  0  0  0  0
  -18.6097  -27.7585   23.5117 C   0  0  0  0  0  0  0  0  0  0  0  0
  -26.9442  -14.1392   20.9551 C   0  0  0  0  0  0  0  0  0  0  0  0
  -28.0205  -22.3663   16.3803 C   0  0  0  0  0  0  0  0  0  0  0  0
  -28.8700  -15.4854   19.4513 C   0  0  0  0  0  0  0  0  0  0  0  0
  -19.5570  -28.1477   21.3235 C   0  0  0  0  0  0  0  0  0  0  0  0
  -21.6404  -22.2546   20.4871 C   0  0  0  0  0  0  0  0  0  0  0  0
  -28.2532  -13.6596   20.9084 C   0  0  0  0  0  0  0  0  0  0  0  0
  -21.6208  -21.1302   18.1974 C   0  0  0  0  0  0  0  0  0  0  0  0
  -24.8720  -29.6001   22.4348 C   0  0  0  0  0  0  0  0  0  0  0  0
  -26.4886  -24.0260   17.2659 C   0  0  0  0  0  0  0  0  0  0  0  0
  -25.4760  -29.3357   21.1907 C   0  0  0  0  0  0  0  0  0  0  0  0
  -27.7674  -23.4461   17.2304 C   0  0  0  0  0  0  0  0  0  0  0  0
  -26.5980  -15.2918   20.2498 C   0  0  0  0  0  0  0  0  0  0  0  0
  -29.2161  -14.3328   20.1565 C   0  0  0  0  0  0  0  0  0  0  0  0
  -21.5450  -24.4553   22.1990 C   0  0  0  0  0  0  0  0  0  0  0  0
  -26.9997  -21.8602   15.5755 C   0  0  0  0  0  0  0  0  0  0  0  0
  -20.5375  -26.4950   22.7878 C   0  0  0  0  0  0  0  0  0  0  0  0
  -27.5610  -15.9649   19.4980 C   0  0  0  0  0  0  0  0  0  0  0  0
  -18.5986  -28.4391   22.2942 C   0  0  0  0  0  0  0  0  0  0  0  0
  -20.5264  -27.1756   21.5703 C   0  0  0  0  0  0  0  0  0  0  0  0
  -21.6904  -21.1177   19.6034 C   0  0  0  0  0  0  0  0  0  0  0  0
  -21.7116  -19.8078   17.8373 C   0  0  0  0  0  0  0  0  0  0  0  0
  -28.5831  -12.4528   21.6561 C   0  0  0  0  0  0  0  0  0  0  0  0
  -21.4862  -22.2381   17.2973 C   0  0  0  0  0  0  0  0  0  0  0  0
  -27.4964  -26.5435   19.8586 C   0  0  0  0  0  0  0  0  0  0  0  0
  -26.4176  -17.9558   16.6958 C   0  0  0  0  0  0  0  0  0  0  0  0
  -28.8095  -23.8839   20.6413 C   0  0  0  0  0  0  0  0  0  0  0  0
  -29.7269  -20.6828   21.3822 C   0  0  0  0  0  0  0  0  0  0  0  0
  -24.1050  -15.0126   20.4799 C   0  0  0  0  0  0  0  0  0  0  0  0
  -25.5373  -29.2251   23.7353 C   0  0  0  0  0  0  0  0  0  0  0  0
  -26.2758  -25.2333   18.1381 C   0  0  0  0  0  0  0  0  0  0  0  0
  -28.8368  -24.0420   18.1046 C   0  0  0  0  0  0  0  0  0  0  0  0
  -26.6445  -28.1864   23.5758 C   0  0  0  0  0  0  0  0  0  0  0  0
  -20.7191  -15.4102   19.4529 C   0  0  0  0  0  0  0  0  0  0  0  0
  -27.5602  -28.5565   22.4133 C   0  0  0  0  0  0  0  0  0  0  0  0
  -20.5793  -16.9194   19.2411 C   0  0  0  0  0  0  0  0  0  0  0  0
  -21.6261  -15.0855   20.6384 C   0  0  0  0  0  0  0  0  0  0  0  0
  -22.8086  -17.2323   20.3895 C   0  0  0  0  0  0  0  0  0  0  0  0
  -26.7867  -28.5861   21.0895 C   0  0  1  0  0  0  0  0  0  0  0  0
  -27.0547  -25.1649   19.4639 C   0  0  1  0  0  0  0  0  0  0  0  0
  -21.9562  -17.6079   19.1665 C   0  0  2  0  0  0  0  0  0  0  0  0
  -30.9884  -19.3394   23.0855 C   0  0  0  0  0  0  0  0  0  0  0  0
  -31.4444  -24.8602   19.4545 C   0  0  0  0  0  0  0  0  0  0  0  0
  -32.5607  -22.8634   20.4718 C   0  0  0  0  0  0  0  0  0  0  0  0
  -31.4659  -24.5595   21.9372 C   0  0  0  0  0  0  0  0  0  0  0  0
  -27.3219  -19.1121   22.0948 C   0  0  0  0  0  0  0  0  0  0  0  0
  -26.5133  -17.9923   15.1785 C   0  0  0  0  0  0  0  0  0  0  0  0
  -27.4289  -17.0695   17.3960 C   0  0  0  0  0  0  0  0  0  0  0  0
  -27.8611  -18.4814   14.6580 C   0  0  0  0  0  0  0  0  0  0  0  0
  -28.2307  -19.8625   15.1864 C   0  0  0  0  0  0  0  0  0  1  0  0
  -30.0300  -23.0025   20.5566 C   0  0  1  0  0  0  0  0  0  0  0  0
  -29.6296  -19.8784   22.6659 C   0  0  2  0  0  0  0  0  0  0  0  0
  -31.3533  -23.8182   20.5872 C   0  0  0  0  0  0  0  0  0  0  0  0
  -21.8155  -19.8851   20.1025 N   0  0  0  0  0  0  0  0  0  0  0  0
  -21.8253  -19.1108   19.0041 N   0  0  0  0  0  0  0  0  0  0  0  0
  -28.2842  -24.3547   19.4318 N   0  0  0  0  0  0  0  0  0  0  0  0
  -22.9138  -15.7687   20.4971 N   0  0  0  0  0  0  0  0  0  0  0  0
  -30.5471  -13.8631   20.0951 N   0  0  0  0  0  0  0  0  0  0  0  0
  -21.7044  -19.1850   16.6397 N   0  0  0  0  0  0  0  0  0  0  0  0
  -28.4424  -11.2325   21.0046 N   0  0  0  0  0  0  0  0  0  0  0  0
  -21.4067  -23.5299   17.8350 N   0  0  0  0  0  0  0  0  0  0  0  0
  -25.2647  -15.7677   20.3077 N   0  0  0  0  0  0  0  0  0  0  0  0
  -26.5648  -27.2411   20.6036 N   0  0  0  0  0  0  0  0  0  0  0  0
  -29.9044  -22.0268   21.6340 N   0  0  0  0  0  0  0  0  0  0  0  0
  -28.7021  -18.7259   22.4859 N   0  3  0  0  0  0  0  0  0  0  0  0
  -28.9603  -12.5090   22.8380 O   0  0  0  0  0  0  0  0  0  0  0  0
  -21.4214  -22.0856   16.0539 O   0  0  0  0  0  0  0  0  0  0  0  0
  -28.6017  -26.9455   19.5145 O   0  0  0  0  0  0  0  0  0  0  0  0
  -25.5625  -18.5807   17.3212 O   0  0  0  0  0  0  0  0  0  0  0  0
  -28.3362  -24.1538   21.7487 O   0  0  0  0  0  0  0  0  0  0  0  0
  -29.6565  -20.1698   20.2676 O   0  0  0  0  0  0  0  0  0  0  0  0
  -24.0947  -13.7831   20.5811 O   0  0  0  0  0  0  0  0  0  0  0  0
  -21.4988  -25.5291   23.0340 O   0  0  0  0  0  0  0  0  0  0  0  0
  -27.2399  -17.1019   18.7947 O   0  0  0  0  0  0  0  0  0  0  0  0
  -27.2407  -20.7972   14.7590 O   0  0  0  0  0  0  0  0  0  1  0  0
  -17.6667  -29.3715   22.0567 F   0  0  0  0  0  0  0  0  0  0  0  0
  -21.4439  -26.8991   20.6334 F   0  0  0  0  0  0  0  0  0  0  0  0
  1  2  1  0  0  0  0
  1  5  2  0  0  0  0
  2  6  2  0  0  0  0
  3  8  2  0  0  0  0
  3 17  1  0  0  0  0
  4  9  1  0  0  0  0
  4 17  2  0  0  0  0
  5 20  1  0  0  0  0
  6 22  1  0  0  0  0
  7 10  2  0  0  0  0
  7 21  1  0  0  0  0
  8 26  1  0  0  0  0
  9 26  2  0  0  0  0
 10 27  1  0  0  0  0
 11 12  2  0  0  0  0
 11 28  1  0  0  0  0
 12 30  1  0  0  0  0
 13 18  2  0  0  0  0
 13 24  1  0  0  0  0
 14 23  1  0  0  0  0
 14 27  2  0  0  0  0
 15 25  2  0  0  0  0
 15 29  1  0  0  0  0
 16 30  2  0  0  0  0
 16 31  1  0  0  0  0
 17 32  1  0  0  0  0
 18 25  1  0  0  0  0
 18 34  1  0  0  0  0
 19 32  1  0  0  0  0
 19 33  2  0  0  0  0
 19 35  1  0  0  0  0
 20 22  2  0  0  0  0
 20 41  1  0  0  0  0
 21 23  2  0  0  0  0
 21 42  1  0  0  0  0
 22 50  1  0  0  0  0
 23 43  1  0  0  0  0
 24 29  2  0  0  0  0
 24 73  1  0  0  0  0
 25 69  1  0  0  0  0
 26 84  1  0  0  0  0
 27 86  1  0  0  0  0
 28 31  2  0  0  0  0
 28 84  1  0  0  0  0
 29 85  1  0  0  0  0
 30 87  1  0  0  0  0
 31 88  1  0  0  0  0
 32 65  2  0  0  0  0
 33 66  1  0  0  0  0
 33 70  1  0  0  0  0
 34 71  1  0  0  0  0
 34 77  2  0  0  0  0
 35 72  1  0  0  0  0
 35 78  2  0  0  0  0
 36 51  1  0  0  0  0
 36 74  1  0  0  0  0
 36 79  2  0  0  0  0
 37 58  1  0  0  0  0
 37 59  1  0  0  0  0
 37 80  2  0  0  0  0
 38 62  1  0  0  0  0
 38 67  1  0  0  0  0
 38 81  2  0  0  0  0
 39 63  1  0  0  0  0
 39 75  1  0  0  0  0
 39 82  2  0  0  0  0
 40 68  1  0  0  0  0
 40 73  1  0  0  0  0
 40 83  2  0  0  0  0
 41 44  1  0  0  0  0
 42 51  1  0  0  0  0
 43 67  1  0  0  0  0
 44 46  1  0  0  0  0
 45 47  1  0  0  0  0
 45 48  1  0  0  0  0
 46 50  1  0  0  0  0
 47 52  1  0  0  0  0
 48 68  1  0  0  0  0
 49 52  1  0  0  0  0
 49 68  1  0  0  0  0
 50 74  1  0  0  0  0
 51 67  1  0  0  0  0
 52 66  1  0  0  0  0
 53 63  1  0  0  0  0
 54 64  1  0  0  0  0
 55 64  1  0  0  0  0
 56 64  1  0  0  0  0
 57 76  1  0  0  0  0
 58 60  1  0  0  0  0
 59 85  1  0  0  0  0
 60 61  1  0  0  0  0
 61 86  1  0  0  0  0
 62 64  1  0  0  0  0
 62 75  1  0  0  0  0
 63 76  1  0  0  0  0
 65 66  1  0  0  0  0
M  CHG  1  76   1
M  ISO  4  40 100  61 101  73 100  86 101
M  END
> <Batch ID>
0106

> <Smiles>
CNC(C)C(=O)NC(C(=O)N1Cc2cc([101O:1][101CH2:1]CCC(=O)COc3cc(N)c(C(N)=O)cc3[100NH:0][100C:0](=O)N3CCCC(n4nc(-c5ccc(Oc6ccc(F)cc6F)cc5)c(C(N)=O)c4N)C3)ccc2CC1C(=O)NC1CCCc2ccccc21)C(C)(C)C

> <Shape>
0.203

> <Color>
0.072

> <Negative vol penalty>
0.000

$$$$

  -OEChem-04052301143D

 90 98  0     1  0  0  0  0  0999 V2000
  -19.2098  -33.6838   21.7837 C   0  0  0  0  0  0  0  0  0  0  0  0
  -20.5707  -33.4180   21.6712 C   0  0  0  0  0  0  0  0  0  0  0  0
  -22.5886  -10.3634   20.0396 C   0  0  0  0  0  0  0  0  0  0  0  0
  -24.2788   -9.7828   21.6653 C   0  0  0  0  0  0  0  0  0  0  0  0
  -18.3609  -32.7372   22.3559 C   0  0  0  0  0  0  0  0  0  0  0  0
  -21.0838  -32.2060   22.1318 C   0  0  0  0  0  0  0  0  0  0  0  0
  -25.7099  -29.0075   19.7081 C   0  0  0  0  0  0  0  0  0  0  0  0
  -21.9203   -9.1688   20.3077 C   0  0  0  0  0  0  0  0  0  0  0  0
  -23.6105   -8.5881   21.9335 C   0  0  0  0  0  0  0  0  0  0  0  0
  -27.0610  -28.9149   20.0392 C   0  0  0  0  0  0  0  0  0  0  0  0
  -20.9177   -7.5877   23.7135 C   0  0  0  0  0  0  0  0  0  0  0  0
  -20.7553   -7.2237   25.0502 C   0  0  0  0  0  0  0  0  0  0  0  0
  -33.3663  -20.5893   19.1282 C   0  0  0  0  0  0  0  0  0  0  0  0
  -31.1628  -21.1234   19.9627 C   0  0  0  0  0  0  0  0  0  0  0  0
  -26.6027  -26.9282   21.3284 C   0  0  0  0  0  0  0  0  0  0  0  0
  -21.9939   -5.1889   24.6466 C   0  0  0  0  0  0  0  0  0  0  0  0
  -23.7679  -10.6704   20.7184 C   0  0  0  0  0  0  0  0  0  0  0  0
  -32.4756  -21.5059   19.6870 C   0  0  0  0  0  0  0  0  0  0  0  0
  -24.2719  -13.1449   21.0794 C   0  0  0  0  0  0  0  0  0  0  0  0
  -18.8623  -31.5090   22.8150 C   0  0  0  0  0  0  0  0  0  0  0  0
  -24.7917  -28.0658   20.1944 C   0  0  0  0  0  0  0  0  0  0  0  0
  -20.2410  -31.2427   22.7119 C   0  0  0  0  0  0  0  0  0  0  0  0
  -25.2409  -27.0096   20.9999 C   0  0  0  0  0  0  0  0  0  0  0  0
  -32.9442  -19.2903   18.8451 C   0  0  0  0  0  0  0  0  0  0  0  0
  -22.4312   -8.2812   21.2547 C   0  0  0  0  0  0  0  0  0  0  0  0
  -27.5072  -27.8768   20.8518 C   0  0  0  0  0  0  0  0  0  0  0  0
  -21.6182   -6.7523   22.8433 C   0  0  0  0  0  0  0  0  0  0  0  0
  -30.7407  -19.8244   19.6796 C   0  0  0  0  0  0  0  0  0  0  0  0
  -31.6314  -18.9079   19.1208 C   0  0  0  0  0  0  0  0  0  0  0  0
  -21.2934   -6.0243   25.5167 C   0  0  0  0  0  0  0  0  0  0  0  0
  -22.1563   -5.5530   23.3099 C   0  0  0  0  0  0  0  0  0  0  0  0
  -24.4590  -11.9040   20.4415 C   0  0  0  0  0  0  0  0  0  0  0  0
  -25.1605  -13.9879   20.4579 C   0  0  0  0  0  0  0  0  0  0  0  0
  -32.9248  -22.8891   19.9882 C   0  0  0  0  0  0  0  0  0  0  0  0
  -23.3752  -13.5035   22.1391 C   0  0  0  0  0  0  0  0  0  0  0  0
  -22.2263  -28.1939   22.0669 C   0  0  0  0  0  0  0  0  0  0  0  0
  -30.2907  -14.9546   18.4488 C   0  0  0  0  0  0  0  0  0  0  0  0
  -21.9568  -25.0656   21.2524 C   0  0  0  0  0  0  0  0  0  0  0  0
  -32.1484  -25.2248   20.2009 C   0  0  0  0  0  0  0  0  0  0  0  0
  -23.4831  -22.2120   20.1688 C   0  0  0  0  0  0  0  0  0  0  0  0
  -17.9132  -30.5365   23.4693 C   0  0  0  0  0  0  0  0  0  0  0  0
  -23.3419  -28.1645   19.8062 C   0  0  0  0  0  0  0  0  0  0  0  0
  -24.2988  -25.9614   21.5311 C   0  0  0  0  0  0  0  0  0  0  0  0
  -18.4776  -29.1234   23.5916 C   0  0  0  0  0  0  0  0  0  0  0  0
  -27.9231  -13.3704   16.2752 C   0  0  0  0  0  0  0  0  0  0  0  0
  -19.9046  -29.1632   24.1290 C   0  0  0  0  0  0  0  0  0  0  0  0
  -26.8101  -12.9230   17.2218 C   0  0  0  0  0  0  0  0  0  0  0  0
  -29.2935  -13.2703   16.9378 C   0  0  0  0  0  0  0  0  0  0  0  0
  -28.2870  -13.5674   19.1784 C   0  0  0  0  0  0  0  0  0  0  0  0
  -20.8314  -29.9293   23.1774 C   0  0  1  0  0  0  0  0  0  0  0  0
  -22.4127  -27.4440   20.7783 C   0  0  1  0  0  0  0  0  0  0  0  0
  -26.8831  -13.6820   18.5586 C   0  0  2  0  0  0  0  0  0  0  0  0
  -33.9121  -18.3231   18.2469 C   0  0  0  0  0  0  0  0  0  0  0  0
  -23.0103  -19.8060   19.6349 C   0  0  0  0  0  0  0  0  0  0  0  0
  -21.8468  -24.4280   24.2343 C   0  0  0  0  0  0  0  0  0  0  0  0
  -22.3319  -22.0375   23.6700 C   0  0  0  0  0  0  0  0  0  0  0  0
  -20.2471  -23.1177   22.8276 C   0  0  0  0  0  0  0  0  0  0  0  0
  -24.3137  -22.5540   17.3489 C   0  0  0  0  0  0  0  0  0  0  0  0
  -28.4929  -19.6602   18.9206 C   0  0  0  0  0  0  0  0  0  0  0  0
  -30.2464  -15.6504   19.7860 C   0  0  0  0  0  0  0  0  0  0  0  0
  -30.8539  -26.0152   20.1185 C   0  0  0  0  0  0  0  0  0  0  0  0
  -31.0643  -27.5054   20.3618 C   0  0  0  0  0  0  0  0  0  0  0  0
  -31.3684  -16.6693   19.8794 C   0  0  0  0  0  0  0  0  0  0  0  0
  -29.7652  -28.2864   20.2279 C   0  0  0  0  0  0  0  0  0  1  0  0
  -22.4732  -23.7651   21.8189 C   0  0  1  0  0  0  0  0  0  0  0  0
  -23.1088  -21.2196   19.0828 C   0  0  2  0  0  0  0  0  0  0  0  0
  -21.7425  -23.3578   23.1294 C   0  0  0  0  0  0  0  0  0  0  0  0
  -25.3929  -11.9501   19.4877 N   0  0  0  0  0  0  0  0  0  0  0  0
  -25.8006  -13.2302   19.5216 N   0  0  0  0  0  0  0  0  0  0  0  0
  -22.8899  -26.1047   21.1288 N   0  0  0  0  0  0  0  0  0  0  0  0
  -29.3153  -13.9851   18.2153 N   0  0  0  0  0  0  0  0  0  0  0  0
  -25.4489  -15.2959   20.6262 N   0  0  0  0  0  0  0  0  0  0  0  0
  -22.5308  -12.5152   22.6630 N   0  0  0  0  0  0  0  0  0  0  0  0
  -31.9286  -23.8638   19.9745 N   0  0  0  0  0  0  0  0  0  0  0  0
  -21.1861  -29.1032   22.0433 N   0  0  0  0  0  0  0  0  0  0  0  0
  -22.3681  -22.7822   20.7459 N   0  0  0  0  0  0  0  0  0  0  0  0
  -24.1299  -21.2301   17.9973 N   0  3  0  0  0  0  0  0  0  0  0  0
  -34.1163  -23.0980   20.1994 O   0  0  0  0  0  0  0  0  0  0  0  0
  -23.3127  -14.6699   22.5964 O   0  0  0  0  0  0  0  0  0  0  0  0
  -22.9702  -27.9635   23.0131 O   0  0  0  0  0  0  0  0  0  0  0  0
  -31.1651  -15.2669   17.6363 O   0  0  0  0  0  0  0  0  0  0  0  0
  -20.7708  -25.1539   20.9249 O   0  0  0  0  0  0  0  0  0  0  0  0
  -33.2371  -25.7400   20.4398 O   0  0  0  0  0  0  0  0  0  0  0  0
  -24.6479  -22.4542   20.4772 O   0  0  0  0  0  0  0  0  0  0  0  0
  -21.7793   -7.1155   21.5167 O   0  0  0  0  0  0  0  0  0  0  0  0
  -29.4558  -19.4639   19.9541 O   0  0  0  0  0  0  0  0  0  0  0  0
  -28.8253  -27.7844   21.1771 O   0  0  0  0  0  0  0  0  0  1  0  0
  -31.2144  -17.6389   18.8457 O   0  0  0  0  0  0  0  0  0  0  0  0
  -21.1387   -5.6756   26.8007 F   0  0  0  0  0  0  0  0  0  0  0  0
  -22.8312   -4.7469   22.4789 F   0  0  0  0  0  0  0  0  0  0  0  0
  1  2  1  0  0  0  0
  1  5  2  0  0  0  0
  2  6  2  0  0  0  0
  3  8  2  0  0  0  0
  3 17  1  0  0  0  0
  4  9  1  0  0  0  0
  4 17  2  0  0  0  0
  5 20  1  0  0  0  0
  6 22  1  0  0  0  0
  7 10  2  0  0  0  0
  7 21  1  0  0  0  0
  8 25  1  0  0  0  0
  9 25  2  0  0  0  0
 10 26  1  0  0  0  0
 11 12  2  0  0  0  0
 11 27  1  0  0  0  0
 12 30  1  0  0  0  0
 13 18  1  0  0  0  0
 13 24  2  0  0  0  0
 14 18  2  0  0  0  0
 14 28  1  0  0  0  0
 15 23  1  0  0  0  0
 15 26  2  0  0  0  0
 16 30  2  0  0  0  0
 16 31  1  0  0  0  0
 17 32  1  0  0  0  0
 18 34  1  0  0  0  0
 19 32  1  0  0  0  0
 19 33  2  0  0  0  0
 19 35  1  0  0  0  0
 20 22  2  0  0  0  0
 20 41  1  0  0  0  0
 21 23  2  0  0  0  0
 21 42  1  0  0  0  0
 22 50  1  0  0  0  0
 23 43  1  0  0  0  0
 24 29  1  0  0  0  0
 24 53  1  0  0  0  0
 25 85  1  0  0  0  0
 26 87  1  0  0  0  0
 27 31  2  0  0  0  0
 27 85  1  0  0  0  0
 28 29  2  0  0  0  0
 28 86  1  0  0  0  0
 29 88  1  0  0  0  0
 30 89  1  0  0  0  0
 31 90  1  0  0  0  0
 32 68  2  0  0  0  0
 33 69  1  0  0  0  0
 33 72  1  0  0  0  0
 34 74  1  0  0  0  0
 34 78  2  0  0  0  0
 35 73  1  0  0  0  0
 35 79  2  0  0  0  0
 36 51  1  0  0  0  0
 36 75  1  0  0  0  0
 36 80  2  0  0  0  0
 37 60  1  0  0  0  0
 37 71  1  0  0  0  0
 37 81  2  0  0  0  0
 38 65  1  0  0  0  0
 38 70  1  0  0  0  0
 38 82  2  0  0  0  0
 39 61  1  0  0  0  0
 39 74  1  0  0  0  0
 39 83  2  0  0  0  0
 40 66  1  0  0  0  0
 40 76  1  0  0  0  0
 40 84  2  0  0  0  0
 41 44  1  0  0  0  0
 42 51  1  0  0  0  0
 43 70  1  0  0  0  0
 44 46  1  0  0  0  0
 45 47  1  0  0  0  0
 45 48  1  0  0  0  0
 46 50  1  0  0  0  0
 47 52  1  0  0  0  0
 48 71  1  0  0  0  0
 49 52  1  0  0  0  0
 49 71  1  0  0  0  0
 50 75  1  0  0  0  0
 51 70  1  0  0  0  0
 52 69  1  0  0  0  0
 54 66  1  0  0  0  0
 55 67  1  0  0  0  0
 56 67  1  0  0  0  0
 57 67  1  0  0  0  0
 58 77  1  0  0  0  0
 59 86  1  0  0  0  0
 60 63  1  0  0  0  0
 61 62  1  0  0  0  0
 62 64  1  0  0  0  0
 63 88  1  0  0  0  0
 64 87  1  0  0  0  0
 65 67  1  0  0  0  0
 65 76  1  0  0  0  0
 66 77  1  0  0  0  0
 68 69  1  0  0  0  0
M  CHG  1  77   1
M  ISO  4  37 100  60 100  64 101  87 101
M  END
> <Batch ID>
0106

> <Smiles>
CNC(C)C(=O)NC(C(=O)N1Cc2cc([101O:1][101CH2:1]CCC(=O)NC(=O)c3cc(C)c(OC[100CH2:0][100C:0](=O)N4CCCC(n5nc(-c6ccc(Oc7ccc(F)cc7F)cc6)c(C(N)=O)c5N)C4)c(OC)c3)ccc2CC1C(=O)NC1CCCc2ccccc21)C(C)(C)C

> <Shape>
0.263

> <Color>
0.159

> <Negative vol penalty>
0.000

$$$$

  -OEChem-04052301143D

 84 92  0     1  0  0  0  0  0999 V2000
  -27.9953  -24.6423   27.2834 C   0  0  0  0  0  0  0  0  0  0  0  0
  -27.1832  -25.3066   26.3698 C   0  0  0  0  0  0  0  0  0  0  0  0
  -29.7331  -17.7224   19.8982 C   0  0  0  0  0  0  0  0  0  0  0  0
  -27.4466  -18.3821   20.3151 C   0  0  0  0  0  0  0  0  0  0  0  0
  -28.3362  -23.3074   27.0697 C   0  0  0  0  0  0  0  0  0  0  0  0
  -26.7124  -24.6365   25.2412 C   0  0  0  0  0  0  0  0  0  0  0  0
  -21.7983  -25.5023   24.3766 C   0  0  0  0  0  0  0  0  0  0  0  0
  -29.4335  -16.4238   20.3099 C   0  0  0  0  0  0  0  0  0  0  0  0
  -27.1469  -17.0835   20.7268 C   0  0  0  0  0  0  0  0  0  0  0  0
  -21.4605  -26.7192   23.7861 C   0  0  0  0  0  0  0  0  0  0  0  0
  -29.1829  -12.8469   20.9085 C   0  0  0  0  0  0  0  0  0  0  0  0
  -29.6606  -11.7932   20.1295 C   0  0  0  0  0  0  0  0  0  0  0  0
  -21.2633  -25.6201   21.6479 C   0  0  0  0  0  0  0  0  0  0  0  0
  -26.5311  -30.5480   23.1845 C   0  0  0  0  0  0  0  0  0  0  0  0
  -28.4139  -12.6278   18.2358 C   0  0  0  0  0  0  0  0  0  0  0  0
  -28.7396  -18.7016   19.9009 C   0  0  0  0  0  0  0  0  0  0  0  0
  -28.9605  -20.5635   18.1711 C   0  0  0  0  0  0  0  0  0  0  0  0
  -27.8614  -22.6178   25.9428 C   0  0  0  0  0  0  0  0  0  0  0  0
  -21.8820  -24.3351   23.6039 C   0  0  0  0  0  0  0  0  0  0  0  0
  -27.0484  -23.2915   25.0114 C   0  0  0  0  0  0  0  0  0  0  0  0
  -21.6000  -24.3891   22.2314 C   0  0  0  0  0  0  0  0  0  0  0  0
  -27.8745  -30.1027   23.0195 C   0  0  0  0  0  0  0  0  0  0  0  0
  -28.1404  -16.1043   20.7242 C   0  0  0  0  0  0  0  0  0  0  0  0
  -21.1957  -26.7788   22.4211 C   0  0  0  0  0  0  0  0  0  0  0  0
  -28.3205  -13.7911   20.3512 C   0  0  0  0  0  0  0  0  0  0  0  0
  -29.2762  -11.6836   18.7932 C   0  0  0  0  0  0  0  0  0  0  0  0
  -27.9361  -13.6816   19.0149 C   0  0  0  0  0  0  0  0  0  0  0  0
  -29.0486  -20.0433   19.4763 C   0  0  0  0  0  0  0  0  0  0  0  0
  -28.1236  -29.6750   21.7340 C   0  0  0  0  0  0  0  0  0  0  0  0
  -29.3597  -21.8718   18.2952 C   0  0  0  0  0  0  0  0  0  0  0  0
  -25.8047  -30.4440   22.0185 C   0  0  0  0  0  0  0  0  0  0  0  0
  -28.5541  -19.9214   16.9552 C   0  0  0  0  0  0  0  0  0  0  0  0
  -24.1997  -22.2816   22.8859 C   0  0  0  0  0  0  0  0  0  0  0  0
  -21.7797  -20.6437   21.4776 C   0  0  0  0  0  0  0  0  0  0  0  0
  -23.5076  -31.2898   22.6104 C   0  0  0  0  0  0  0  0  0  0  0  0
  -18.6767  -20.7107   20.0585 C   0  0  0  0  0  0  0  0  0  0  0  0
  -29.1307  -26.6902   20.8793 C   0  0  0  0  0  0  0  0  0  0  0  0
  -28.2955  -21.1892   25.7299 C   0  0  0  0  0  0  0  0  0  0  0  0
  -22.2216  -23.0253   24.2608 C   0  0  0  0  0  0  0  0  0  0  0  0
  -21.6563  -23.1610   21.3613 C   0  0  0  0  0  0  0  0  0  0  0  0
  -27.4488  -20.4421   24.7027 C   0  0  0  0  0  0  0  0  0  0  0  0
  -31.5258  -24.3023   22.1671 C   0  0  0  0  0  0  0  0  0  0  0  0
  -27.2470  -21.2957   23.4548 C   0  0  0  0  0  0  0  0  0  0  0  0
  -31.0808  -23.0172   21.4666 C   0  0  0  0  0  0  0  0  0  0  0  0
  -30.3274  -25.1614   22.5595 C   0  0  0  0  0  0  0  0  0  0  0  0
  -28.9728  -24.2214   20.7278 C   0  0  0  0  0  0  0  0  0  0  0  0
  -26.4977  -22.5915   23.7879 C   0  0  1  0  0  0  0  0  0  0  0  0
  -22.7798  -21.9943   23.2846 C   0  0  1  0  0  0  0  0  0  0  0  0
  -30.1397  -23.3198   20.2856 C   0  0  2  0  0  0  0  0  0  0  0  0
  -28.8773  -30.1042   24.1110 C   0  0  0  0  0  0  0  0  0  0  0  0
  -16.9779  -19.2218   18.9656 C   0  0  0  0  0  0  0  0  0  0  0  0
  -23.4544  -20.6090   18.9273 C   0  0  0  0  0  0  0  0  0  0  0  0
  -21.3862  -19.9872   17.6607 C   0  0  0  0  0  0  0  0  0  0  0  0
  -22.2702  -18.4636   19.4270 C   0  0  0  0  0  0  0  0  0  0  0  0
  -16.6571  -21.2903   22.1427 C   0  0  0  0  0  0  0  0  0  0  0  0
  -29.3798  -29.1431   21.1586 C   0  0  0  0  0  0  0  0  0  0  0  0
  -22.1774  -31.4897   21.8975 C   0  0  0  0  0  0  0  0  0  0  0  0
  -21.6100  -30.1901   21.3373 C   0  0  0  0  0  0  0  0  0  0  0  0
  -21.4113  -29.1472   22.4276 C   0  0  0  0  0  0  0  0  0  1  0  0
  -21.1558  -20.6301   20.1030 C   0  0  1  0  0  0  0  0  0  0  0  0
  -17.4524  -19.8389   20.2720 C   0  0  2  0  0  0  0  0  0  0  0  0
  -22.0674  -19.9462   19.0453 C   0  0  0  0  0  0  0  0  0  0  0  0
  -29.4708  -20.9474   20.3642 N   0  0  0  0  0  0  0  0  0  0  0  0
  -29.6516  -22.0488   19.6156 N   0  0  0  0  0  0  0  0  0  0  0  0
  -21.9990  -21.9051   22.0490 N   0  0  0  0  0  0  0  0  0  0  0  0
  -29.4823  -25.4285   21.3871 N   0  0  0  0  0  0  0  0  0  0  0  0
  -29.4861  -22.8765   17.4025 N   0  0  0  0  0  0  0  0  0  0  0  0
  -28.1751  -18.5730   17.0061 N   0  0  0  0  0  0  0  0  0  0  0  0
  -24.4563  -30.7674   21.7359 N   0  0  0  0  0  0  0  0  0  0  0  0
  -25.0832  -22.3306   23.9473 N   0  0  0  0  0  0  0  0  0  0  0  0
  -19.8457  -20.0065   20.2555 N   0  0  0  0  0  0  0  0  0  0  0  0
  -29.6487  -27.7818   21.5654 N   0  0  0  0  0  0  0  0  0  0  0  0
  -16.3365  -20.6442   20.8440 N   0  3  0  0  0  0  0  0  0  0  0  0
  -28.5434  -20.5210   15.8535 O   0  0  0  0  0  0  0  0  0  0  0  0
  -24.4737  -22.4452   21.7027 O   0  0  0  0  0  0  0  0  0  0  0  0
  -22.0554  -19.5744   22.0272 O   0  0  0  0  0  0  0  0  0  0  0  0
  -23.6600  -31.5692   23.7949 O   0  0  0  0  0  0  0  0  0  0  0  0
  -18.6034  -21.8967   19.7444 O   0  0  0  0  0  0  0  0  0  0  0  0
  -28.4122  -26.8335   19.8841 O   0  0  0  0  0  0  0  0  0  0  0  0
  -27.8477  -14.8372   21.1257 O   0  0  0  0  0  0  0  0  0  0  0  0
  -20.8664  -27.9655   21.8421 O   0  0  0  0  0  0  0  0  0  1  0  0
  -29.7363  -10.6725   18.0448 F   0  0  0  0  0  0  0  0  0  0  0  0
  -27.1088  -14.5863   18.4736 F   0  0  0  0  0  0  0  0  0  0  0  0
  -26.7415  -29.8112   20.7323 S   0  0  0  0  0  0  0  0  0  0  0  0
  1  2  1  0  0  0  0
  1  5  2  0  0  0  0
  2  6  2  0  0  0  0
  3  8  2  0  0  0  0
  3 16  1  0  0  0  0
  4  9  1  0  0  0  0
  4 16  2  0  0  0  0
  5 18  1  0  0  0  0
  6 20  1  0  0  0  0
  7 10  2  0  0  0  0
  7 19  1  0  0  0  0
  8 23  1  0  0  0  0
  9 23  2  0  0  0  0
 10 24  1  0  0  0  0
 11 12  2  0  0  0  0
 11 25  1  0  0  0  0
 12 26  1  0  0  0  0
 13 21  1  0  0  0  0
 13 24  2  0  0  0  0
 14 22  1  0  0  0  0
 14 31  2  0  0  0  0
 15 26  2  0  0  0  0
 15 27  1  0  0  0  0
 16 28  1  0  0  0  0
 17 28  1  0  0  0  0
 17 30  2  0  0  0  0
 17 32  1  0  0  0  0
 18 20  2  0  0  0  0
 18 38  1  0  0  0  0
 19 21  2  0  0  0  0
 19 39  1  0  0  0  0
 20 47  1  0  0  0  0
 21 40  1  0  0  0  0
 22 29  2  0  0  0  0
 22 50  1  0  0  0  0
 23 80  1  0  0  0  0
 24 81  1  0  0  0  0
 25 27  2  0  0  0  0
 25 80  1  0  0  0  0
 26 82  1  0  0  0  0
 27 83  1  0  0  0  0
 28 63  2  0  0  0  0
 29 56  1  0  0  0  0
 29 84  1  0  0  0  0
 30 64  1  0  0  0  0
 30 67  1  0  0  0  0
 31 69  1  0  0  0  0
 31 84  1  0  0  0  0
 32 68  1  0  0  0  0
 32 74  2  0  0  0  0
 33 48  1  0  0  0  0
 33 70  1  0  0  0  0
 33 75  2  0  0  0  0
 34 60  1  0  0  0  0
 34 65  1  0  0  0  0
 34 76  2  0  0  0  0
 35 57  1  0  0  0  0
 35 69  1  0  0  0  0
 35 77  2  0  0  0  0
 36 61  1  0  0  0  0
 36 71  1  0  0  0  0
 36 78  2  0  0  0  0
 37 66  1  0  0  0  0
 37 72  1  0  0  0  0
 37 79  2  0  0  0  0
 38 41  1  0  0  0  0
 39 48  1  0  0  0  0
 40 65  1  0  0  0  0
 41 43  1  0  0  0  0
 42 44  1  0  0  0  0
 42 45  1  0  0  0  0
 43 47  1  0  0  0  0
 44 49  1  0  0  0  0
 45 66  1  0  0  0  0
 46 49  1  0  0  0  0
 46 66  1  0  0  0  0
 47 70  1  0  0  0  0
 48 65  1  0  0  0  0
 49 64  1  0  0  0  0
 51 61  1  0  0  0  0
 52 62  1  0  0  0  0
 53 62  1  0  0  0  0
 54 62  1  0  0  0  0
 55 73  1  0  0  0  0
 56 72  1  0  0  0  0
 57 58  1  0  0  0  0
 58 59  1  0  0  0  0
 59 81  1  0  0  0  0
 60 62  1  0  0  0  0
 60 71  1  0  0  0  0
 61 73  1  0  0  0  0
 63 64  1  0  0  0  0
M  CHG  1  73   1
M  ISO  4  37 100  59 101  72 100  81 101
M  END
> <Batch ID>
0106

> <Smiles>
CNC(C)C(=O)NC(C(=O)N1Cc2cc([101O:1][101CH2:1]CCC(=O)Nc3cc(C)c(C[100NH:0][100C:0](=O)N4CCCC(n5nc(-c6ccc(Oc7ccc(F)cc7F)cc6)c(C(N)=O)c5N)C4)s3)ccc2CC1C(=O)NC1CCCc2ccccc21)C(C)(C)C

> <Shape>
0.209

> <Color>
0.064

> <Negative vol penalty>
0.000

$$$$

  -OEChem-04052301143D

 86 95  0     1  0  0  0  0  0999 V2000
  -16.6936  -29.5106   23.0801 C   0  0  0  0  0  0  0  0  0  0  0  0
  -17.7418  -29.8188   22.2188 C   0  0  0  0  0  0  0  0  0  0  0  0
  -26.3612  -12.3276   21.0508 C   0  0  0  0  0  0  0  0  0  0  0  0
  -25.7602  -14.6290   20.6272 C   0  0  0  0  0  0  0  0  0  0  0  0
  -32.8818  -22.4480   20.7555 C   0  0  0  0  0  0  0  0  0  0  0  0
  -16.9317  -28.7431   24.2194 C   0  0  0  0  0  0  0  0  0  0  0  0
  -19.0290  -29.3605   22.4971 C   0  0  0  0  0  0  0  0  0  0  0  0
  -25.0053  -27.1660   19.2130 C   0  0  0  0  0  0  0  0  0  0  0  0
  -32.3455  -21.4647   21.5868 C   0  0  0  0  0  0  0  0  0  0  0  0
  -25.0132  -11.9704   21.0229 C   0  0  0  0  0  0  0  0  0  0  0  0
  -24.4122  -14.2718   20.5992 C   0  0  0  0  0  0  0  0  0  0  0  0
  -26.3766  -27.4170   19.1913 C   0  0  0  0  0  0  0  0  0  0  0  0
  -21.7054  -10.5130   21.4205 C   0  0  0  0  0  0  0  0  0  0  0  0
  -21.2387   -9.6580   22.4188 C   0  0  0  0  0  0  0  0  0  0  0  0
  -30.9719  -22.2500   19.2891 C   0  0  0  0  0  0  0  0  0  0  0  0
  -26.6548  -26.0323   21.1469 C   0  0  0  0  0  0  0  0  0  0  0  0
  -21.8829  -11.2692   24.1000 C   0  0  0  0  0  0  0  0  0  0  0  0
  -26.7348  -13.6569   20.8530 C   0  0  0  0  0  0  0  0  0  0  0  0
  -32.1949  -22.8407   19.6067 C   0  0  0  0  0  0  0  0  0  0  0  0
  -29.1509  -13.5505   20.0416 C   0  0  0  0  0  0  0  0  0  0  0  0
  -18.2207  -28.2670   24.5067 C   0  0  0  0  0  0  0  0  0  0  0  0
  -24.4460  -26.3538   20.2100 C   0  0  0  0  0  0  0  0  0  0  0  0
  -19.2849  -28.5870   23.6421 C   0  0  0  0  0  0  0  0  0  0  0  0
  -25.2765  -25.7705   21.1776 C   0  0  0  0  0  0  0  0  0  0  0  0
  -31.1225  -20.8739   21.2692 C   0  0  0  0  0  0  0  0  0  0  0  0
  -30.4357  -21.2666   20.1204 C   0  0  0  0  0  0  0  0  0  0  0  0
  -24.0387  -12.9425   20.7971 C   0  0  0  0  0  0  0  0  0  0  0  0
  -27.2011  -26.8524   20.1601 C   0  0  0  0  0  0  0  0  0  0  0  0
  -22.2610  -11.7461   21.7619 C   0  0  0  0  0  0  0  0  0  0  0  0
  -21.3274  -10.0360   23.7585 C   0  0  0  0  0  0  0  0  0  0  0  0
  -22.3497  -12.1242   23.1016 C   0  0  0  0  0  0  0  0  0  0  0  0
  -28.1271  -14.0266   20.8823 C   0  0  0  0  0  0  0  0  0  0  0  0
  -30.2801  -14.2033   20.4720 C   0  0  0  0  0  0  0  0  0  0  0  0
  -32.7610  -23.8784   18.7303 C   0  0  0  0  0  0  0  0  0  0  0  0
  -29.0870  -12.6029   18.9675 C   0  0  0  0  0  0  0  0  0  0  0  0
  -22.3180  -26.7937   22.5298 C   0  0  0  0  0  0  0  0  0  0  0  0
  -22.6592  -23.5913   22.9181 C   0  0  0  0  0  0  0  0  0  0  0  0
  -24.5962  -20.8126   22.5019 C   0  0  0  0  0  0  0  0  0  0  0  0
  -31.1674  -19.3895   23.3042 C   0  0  0  0  0  0  0  0  0  0  0  0
  -18.4382  -27.4807   25.7752 C   0  0  0  0  0  0  0  0  0  0  0  0
  -22.9687  -26.0712   20.2037 C   0  0  0  0  0  0  0  0  0  0  0  0
  -24.7284  -24.8748   22.2573 C   0  0  0  0  0  0  0  0  0  0  0  0
  -19.7607  -26.7187   25.8003 C   0  0  0  0  0  0  0  0  0  0  0  0
  -32.2070  -16.1632   24.3938 C   0  0  0  0  0  0  0  0  0  0  0  0
  -20.9038  -27.6181   25.3409 C   0  0  0  0  0  0  0  0  0  0  0  0
  -31.3763  -15.2058   23.5362 C   0  0  0  0  0  0  0  0  0  0  0  0
  -31.3203  -27.0734   17.5818 C   0  0  0  0  0  0  0  0  0  0  0  0
  -31.4132  -17.4087   24.7843 C   0  0  0  0  0  0  0  0  0  0  0  0
  -32.4971  -26.1166   17.6959 C   0  0  0  0  0  0  0  0  0  0  0  0
  -30.7340  -25.3714   19.1528 C   0  0  0  0  0  0  0  0  0  0  0  0
  -29.9654  -17.1710   22.8053 C   0  0  0  0  0  0  0  0  0  0  0  0
  -20.6904  -28.0873   23.8967 C   0  0  1  0  0  0  0  0  0  0  0  0
  -22.4361  -25.6451   21.5683 C   0  0  1  0  0  0  0  0  0  0  0  0
  -30.5848  -26.8721   18.9088 C   0  0  2  0  0  0  0  0  0  0  0  0
  -30.7434  -15.9320   22.3330 C   0  0  2  0  0  0  0  0  0  0  0  0
  -24.6229  -18.3442   22.9534 C   0  0  0  0  0  0  0  0  0  0  0  0
  -23.2604  -24.1383   25.8591 C   0  0  0  0  0  0  0  0  0  0  0  0
  -24.1905  -21.8200   26.0281 C   0  0  0  0  0  0  0  0  0  0  0  0
  -21.7887  -22.1589   25.4457 C   0  0  0  0  0  0  0  0  0  0  0  0
  -24.7827  -20.1697   19.6190 C   0  0  0  0  0  0  0  0  0  0  0  0
  -29.1392  -27.3339   18.8686 C   0  0  0  0  0  0  0  0  0  1  0  0
  -23.5680  -22.7042   23.7343 C   0  0  1  0  0  0  0  0  0  0  0  0
  -24.2757  -19.4345   21.9516 C   0  0  2  0  0  0  0  0  0  0  0  0
  -23.2123  -22.7237   25.2477 C   0  0  0  0  0  0  0  0  0  0  0  0
  -28.5669  -14.9134   21.7791 N   0  0  0  0  0  0  0  0  0  0  0  0
  -29.8796  -14.9995   21.5044 N   0  0  0  0  0  0  0  0  0  0  0  0
  -32.0142  -25.0300   18.5350 N   0  0  0  0  0  0  0  0  0  0  0  0
  -23.2767  -24.6338   22.2125 N   0  0  0  0  0  0  0  0  0  0  0  0
  -30.8470  -18.0463   23.5937 N   0  0  0  0  0  0  0  0  0  0  0  0
  -29.1950  -20.6827   19.7796 N   0  0  0  0  0  0  0  0  0  0  0  0
  -31.5666  -14.1682   20.0644 N   0  0  0  0  0  0  0  0  0  0  0  0
  -28.8310  -13.0761   17.6734 N   0  0  0  0  0  0  0  0  0  0  0  0
  -30.5968  -19.8781   22.1293 N   0  0  0  0  0  0  0  0  0  0  0  0
  -21.0288  -27.0312   22.9669 N   0  0  0  0  0  0  0  0  0  0  0  0
  -23.5041  -21.3813   23.1225 N   0  0  0  0  0  0  0  0  0  0  0  0
  -25.0450  -19.1848   20.6999 N   0  3  0  0  0  0  0  0  0  0  0  0
  -33.8654  -23.6597   18.2365 O   0  0  0  0  0  0  0  0  0  0  0  0
  -29.2358  -11.3712   19.1525 O   0  0  0  0  0  0  0  0  0  0  0  0
  -23.3223  -27.4174   22.8523 O   0  0  0  0  0  0  0  0  0  0  0  0
  -21.4470  -23.3633   22.9014 O   0  0  0  0  0  0  0  0  0  0  0  0
  -25.7055  -21.3309   22.3953 O   0  0  0  0  0  0  0  0  0  0  0  0
  -31.9164  -20.0489   24.0296 O   0  0  0  0  0  0  0  0  0  0  0  0
  -22.7232  -12.5942   20.7695 O   0  0  0  0  0  0  0  0  0  0  0  0
  -28.5398  -27.0962   20.1416 O   0  0  0  0  0  0  0  0  0  1  0  0
  -20.8778   -9.2155   24.7170 F   0  0  0  0  0  0  0  0  0  0  0  0
  -22.8813  -13.3081   23.4356 F   0  0  0  0  0  0  0  0  0  0  0  0
  1  2  1  0  0  0  0
  1  6  2  0  0  0  0
  2  7  2  0  0  0  0
  3 10  2  0  0  0  0
  3 18  1  0  0  0  0
  4 11  1  0  0  0  0
  4 18  2  0  0  0  0
  5  9  2  0  0  0  0
  5 19  1  0  0  0  0
  6 21  1  0  0  0  0
  7 23  1  0  0  0  0
  8 12  2  0  0  0  0
  8 22  1  0  0  0  0
  9 25  1  0  0  0  0
 10 27  1  0  0  0  0
 11 27  2  0  0  0  0
 12 28  1  0  0  0  0
 13 14  2  0  0  0  0
 13 29  1  0  0  0  0
 14 30  1  0  0  0  0
 15 19  2  0  0  0  0
 15 26  1  0  0  0  0
 16 24  1  0  0  0  0
 16 28  2  0  0  0  0
 17 30  2  0  0  0  0
 17 31  1  0  0  0  0
 18 32  1  0  0  0  0
 19 34  1  0  0  0  0
 20 32  1  0  0  0  0
 20 33  2  0  0  0  0
 20 35  1  0  0  0  0
 21 23  2  0  0  0  0
 21 40  1  0  0  0  0
 22 24  2  0  0  0  0
 22 41  1  0  0  0  0
 23 52  1  0  0  0  0
 24 42  1  0  0  0  0
 25 26  2  0  0  0  0
 25 73  1  0  0  0  0
 26 70  1  0  0  0  0
 27 83  1  0  0  0  0
 28 84  1  0  0  0  0
 29 31  2  0  0  0  0
 29 83  1  0  0  0  0
 30 85  1  0  0  0  0
 31 86  1  0  0  0  0
 32 65  2  0  0  0  0
 33 66  1  0  0  0  0
 33 71  1  0  0  0  0
 34 67  1  0  0  0  0
 34 77  2  0  0  0  0
 35 72  1  0  0  0  0
 35 78  2  0  0  0  0
 36 53  1  0  0  0  0
 36 74  1  0  0  0  0
 36 79  2  0  0  0  0
 37 62  1  0  0  0  0
 37 68  1  0  0  0  0
 37 80  2  0  0  0  0
 38 63  1  0  0  0  0
 38 75  1  0  0  0  0
 38 81  2  0  0  0  0
 39 69  1  0  0  0  0
 39 73  1  0  0  0  0
 39 82  2  0  0  0  0
 40 43  1  0  0  0  0
 41 53  1  0  0  0  0
 42 68  1  0  0  0  0
 43 45  1  0  0  0  0
 44 46  1  0  0  0  0
 44 48  1  0  0  0  0
 45 52  1  0  0  0  0
 46 55  1  0  0  0  0
 47 49  1  0  0  0  0
 47 54  1  0  0  0  0
 48 69  1  0  0  0  0
 49 67  1  0  0  0  0
 50 54  1  0  0  0  0
 50 67  1  0  0  0  0
 51 55  1  0  0  0  0
 51 69  1  0  0  0  0
 52 74  1  0  0  0  0
 53 68  1  0  0  0  0
 54 61  1  0  0  0  0
 55 66  1  0  0  0  0
 56 63  1  0  0  0  0
 57 64  1  0  0  0  0
 58 64  1  0  0  0  0
 59 64  1  0  0  0  0
 60 76  1  0  0  0  0
 61 84  1  0  0  0  0
 62 64  1  0  0  0  0
 62 75  1  0  0  0  0
 63 76  1  0  0  0  0
 65 66  1  0  0  0  0
M  CHG  1  76   1
M  ISO  4  39 100  61 101  73 100  84 101
M  END
> <Batch ID>
0106

> <Smiles>
CNC(C)C(=O)NC(C(=O)N1Cc2cc([101O:1][101CH2:1]C3CCN(C(=O)c4ccc([100NH:0][100C:0](=O)N5CCCC(n6nc(-c7ccc(Oc8ccc(F)cc8F)cc7)c(C(N)=O)c6N)C5)c(N)c4)C3)ccc2CC1C(=O)NC1CCCc2ccccc21)C(C)(C)C

> <Shape>
0.223

> <Color>
0.078

> <Negative vol penalty>
0.000

$$$$

  -OEChem-04052301143D

 86 94  0     1  0  0  0  0  0999 V2000
  -19.3514  -24.0893   22.7193 C   0  0  0  0  0  0  0  0  0  0  0  0
  -20.5527  -24.3715   22.0769 C   0  0  0  0  0  0  0  0  0  0  0  0
  -24.7685  -17.2301   21.6797 C   0  0  0  0  0  0  0  0  0  0  0  0
  -23.7001  -16.8816   19.5410 C   0  0  0  0  0  0  0  0  0  0  0  0
  -18.4952  -25.1284   23.0818 C   0  0  0  0  0  0  0  0  0  0  0  0
  -20.8980  -25.6928   21.7956 C   0  0  0  0  0  0  0  0  0  0  0  0
  -25.7232  -26.7243   22.9350 C   0  0  0  0  0  0  0  0  0  0  0  0
  -24.1258  -18.4622   21.8000 C   0  0  0  0  0  0  0  0  0  0  0  0
  -23.0573  -18.1136   19.6613 C   0  0  0  0  0  0  0  0  0  0  0  0
  -26.6968  -26.2866   22.0382 C   0  0  0  0  0  0  0  0  0  0  0  0
  -20.8546  -21.0047   19.5715 C   0  0  0  0  0  0  0  0  0  0  0  0
  -19.4980  -21.0632   19.2527 C   0  0  0  0  0  0  0  0  0  0  0  0
  -26.8287  -28.5077   21.1064 C   0  0  0  0  0  0  0  0  0  0  0  0
  -30.5266  -19.8046   17.3578 C   0  0  0  0  0  0  0  0  0  0  0  0
  -28.6247  -19.4292   18.7996 C   0  0  0  0  0  0  0  0  0  0  0  0
  -19.0231  -19.4370   20.9753 C   0  0  0  0  0  0  0  0  0  0  0  0
  -24.5557  -16.4398   20.5501 C   0  0  0  0  0  0  0  0  0  0  0  0
  -24.7485  -13.9155   20.8642 C   0  0  0  0  0  0  0  0  0  0  0  0
  -18.8347  -26.4638   22.8134 C   0  0  0  0  0  0  0  0  0  0  0  0
  -25.2865  -28.0568   22.9169 C   0  0  0  0  0  0  0  0  0  0  0  0
  -20.0450  -26.7506   22.1536 C   0  0  0  0  0  0  0  0  0  0  0  0
  -25.8513  -28.9605   22.0057 C   0  0  0  0  0  0  0  0  0  0  0  0
  -30.4750  -21.1686   17.6447 C   0  0  0  0  0  0  0  0  0  0  0  0
  -29.6015  -18.9349   17.9352 C   0  0  0  0  0  0  0  0  0  0  0  0
  -28.5731  -20.7933   19.0866 C   0  0  0  0  0  0  0  0  0  0  0  0
  -23.2702  -18.9039   20.7909 C   0  0  0  0  0  0  0  0  0  0  0  0
  -27.2476  -27.1776   21.1218 C   0  0  0  0  0  0  0  0  0  0  0  0
  -21.2956  -20.1624   20.5922 C   0  0  0  0  0  0  0  0  0  0  0  0
  -29.4982  -21.6630   18.5091 C   0  0  0  0  0  0  0  0  0  0  0  0
  -18.5822  -20.2793   19.9546 C   0  0  0  0  0  0  0  0  0  0  0  0
  -20.3798  -19.3786   21.2941 C   0  0  0  0  0  0  0  0  0  0  0  0
  -25.2198  -15.1672   20.4250 C   0  0  0  0  0  0  0  0  0  0  0  0
  -25.7397  -13.0325   20.5120 C   0  0  0  0  0  0  0  0  0  0  0  0
  -23.5240  -13.5810   21.5310 C   0  0  0  0  0  0  0  0  0  0  0  0
  -22.5049  -29.4984   22.3803 C   0  0  0  0  0  0  0  0  0  0  0  0
  -24.1534  -32.1503   23.2591 C   0  0  0  0  0  0  0  0  0  0  0  0
  -30.1277  -17.0369   16.4123 C   0  0  0  0  0  0  0  0  0  0  0  0
  -27.1705  -33.7132   23.5773 C   0  0  0  0  0  0  0  0  0  0  0  0
  -29.4936  -16.6279   18.7194 C   0  0  0  0  0  0  0  0  0  0  0  0
  -17.8553  -27.5499   23.1819 C   0  0  0  0  0  0  0  0  0  0  0  0
  -24.2547  -28.5197   23.9087 C   0  0  0  0  0  0  0  0  0  0  0  0
  -25.4315  -30.4062   21.9590 C   0  0  0  0  0  0  0  0  0  0  0  0
  -18.4683  -28.9479   23.1835 C   0  0  0  0  0  0  0  0  0  0  0  0
  -27.8712  -13.8826   16.8567 C   0  0  0  0  0  0  0  0  0  0  0  0
  -19.3010  -29.1672   21.9244 C   0  0  0  0  0  0  0  0  0  0  0  0
  -27.8651  -12.7641   17.8919 C   0  0  0  0  0  0  0  0  0  0  0  0
  -29.0933  -14.7833   17.0025 C   0  0  0  0  0  0  0  0  0  0  0  0
  -29.2004  -14.2739   19.4396 C   0  0  0  0  0  0  0  0  0  0  0  0
  -20.4663  -28.1728   21.8535 C   0  0  1  0  0  0  0  0  0  0  0  0
  -23.5142  -29.7752   23.4584 C   0  0  1  0  0  0  0  0  0  0  0  0
  -28.0253  -13.2856   19.3281 C   0  0  1  0  0  0  0  0  0  0  0  0
  -31.4736  -22.0838   17.0160 C   0  0  0  0  0  0  0  0  0  0  0  0
  -29.6129  -17.7194   15.1635 C   0  0  0  0  0  0  0  0  0  0  0  0
  -28.1959  -35.8903   24.2885 C   0  0  0  0  0  0  0  0  0  0  0  0
  -23.2424  -33.4309   20.6438 C   0  0  0  0  0  0  0  0  0  0  0  0
  -25.0193  -35.1669   20.9558 C   0  0  0  0  0  0  0  0  0  0  0  0
  -23.1802  -34.9525   22.6275 C   0  0  0  0  0  0  0  0  0  0  0  0
  -28.7283  -32.4096   25.7298 C   0  0  0  0  0  0  0  0  0  0  0  0
  -28.6693  -25.2511   18.4161 C   0  0  0  0  0  0  0  0  0  0  0  0
  -28.1386  -25.3872   19.8346 C   0  0  0  0  0  0  0  0  0  1  0  0
  -28.6468  -23.8084   17.9363 C   0  0  0  0  0  0  0  0  0  0  0  0
  -24.9831  -33.1824   22.5343 C   0  0  1  0  0  0  0  0  0  0  0  0
  -27.7848  -34.4930   24.7258 C   0  0  2  0  0  0  0  0  0  0  0  0
  -24.1130  -34.1555   21.6897 C   0  0  0  0  0  0  0  0  0  0  0  0
  -26.4174  -15.0904   19.8386 N   0  0  0  0  0  0  0  0  0  0  0  0
  -26.7070  -13.7799   19.9070 N   0  0  0  0  0  0  0  0  0  0  0  0
  -24.4149  -30.8091   22.9448 N   0  0  0  0  0  0  0  0  0  0  0  0
  -29.2529  -15.2804   18.3751 N   0  0  0  0  0  0  0  0  0  0  0  0
  -27.5787  -21.2790   19.9637 N   0  0  0  0  0  0  0  0  0  0  0  0
  -25.8696  -11.6974   20.6639 N   0  0  0  0  0  0  0  0  0  0  0  0
  -22.6165  -14.6099   21.8175 N   0  0  0  0  0  0  0  0  0  0  0  0
  -21.5348  -28.5823   22.7395 N   0  0  0  0  0  0  0  0  0  0  0  0
  -25.7977  -33.8388   23.5513 N   0  0  0  0  0  0  0  0  0  0  0  0
  -29.6555  -17.5237   17.6390 N   0  0  0  0  0  0  0  0  0  0  0  0
  -28.9917  -33.7884   25.2434 N   0  3  0  0  0  0  0  0  0  0  0  0
  -23.2504  -12.4069   21.8775 O   0  0  0  0  0  0  0  0  0  0  0  0
  -22.5984  -30.0746   21.3028 O   0  0  0  0  0  0  0  0  0  0  0  0
  -23.3095  -32.5201   24.0793 O   0  0  0  0  0  0  0  0  0  0  0  0
  -30.8916  -16.0729   16.3094 O   0  0  0  0  0  0  0  0  0  0  0  0
  -27.8418  -33.0610   22.7807 O   0  0  0  0  0  0  0  0  0  0  0  0
  -29.6216  -17.0022   19.8917 O   0  0  0  0  0  0  0  0  0  0  0  0
  -22.6427  -20.1060   20.9080 O   0  0  0  0  0  0  0  0  0  0  0  0
  -28.1976  -26.7527   20.2449 O   0  0  0  0  0  0  0  0  0  1  0  0
  -29.4501  -23.0038   18.7890 O   0  0  0  0  0  0  0  0  0  0  0  0
  -17.2792  -20.3367   19.6493 F   0  0  0  0  0  0  0  0  0  0  0  0
  -20.7973  -18.5683   22.2764 F   0  0  0  0  0  0  0  0  0  0  0  0
  1  2  1  0  0  0  0
  1  5  2  0  0  0  0
  2  6  2  0  0  0  0
  3  8  2  0  0  0  0
  3 17  1  0  0  0  0
  4  9  1  0  0  0  0
  4 17  2  0  0  0  0
  5 19  1  0  0  0  0
  6 21  1  0  0  0  0
  7 10  2  0  0  0  0
  7 20  1  0  0  0  0
  8 26  1  0  0  0  0
  9 26  2  0  0  0  0
 10 27  1  0  0  0  0
 11 12  2  0  0  0  0
 11 28  1  0  0  0  0
 12 30  1  0  0  0  0
 13 22  1  0  0  0  0
 13 27  2  0  0  0  0
 14 23  2  0  0  0  0
 14 24  1  0  0  0  0
 15 24  2  0  0  0  0
 15 25  1  0  0  0  0
 16 30  2  0  0  0  0
 16 31  1  0  0  0  0
 17 32  1  0  0  0  0
 18 32  1  0  0  0  0
 18 33  2  0  0  0  0
 18 34  1  0  0  0  0
 19 21  2  0  0  0  0
 19 40  1  0  0  0  0
 20 22  2  0  0  0  0
 20 41  1  0  0  0  0
 21 49  1  0  0  0  0
 22 42  1  0  0  0  0
 23 29  1  0  0  0  0
 23 52  1  0  0  0  0
 24 74  1  0  0  0  0
 25 29  2  0  0  0  0
 25 69  1  0  0  0  0
 26 82  1  0  0  0  0
 27 83  1  0  0  0  0
 28 31  2  0  0  0  0
 28 82  1  0  0  0  0
 29 84  1  0  0  0  0
 30 85  1  0  0  0  0
 31 86  1  0  0  0  0
 32 65  2  0  0  0  0
 33 66  1  0  0  0  0
 33 70  1  0  0  0  0
 34 71  1  0  0  0  0
 34 76  2  0  0  0  0
 35 50  1  0  0  0  0
 35 72  1  0  0  0  0
 35 77  2  0  0  0  0
 36 62  1  0  0  0  0
 36 67  1  0  0  0  0
 36 78  2  0  0  0  0
 37 53  1  0  0  0  0
 37 74  1  0  0  0  0
 37 79  2  0  0  0  0
 38 63  1  0  0  0  0
 38 73  1  0  0  0  0
 38 80  2  0  0  0  0
 39 68  1  0  0  0  0
 39 74  1  0  0  0  0
 39 81  2  0  0  0  0
 40 43  1  0  0  0  0
 41 50  1  0  0  0  0
 42 67  1  0  0  0  0
 43 45  1  0  0  0  0
 44 46  1  0  0  0  0
 44 47  1  0  0  0  0
 45 49  1  0  0  0  0
 46 51  1  0  0  0  0
 47 68  1  0  0  0  0
 48 51  1  0  0  0  0
 48 68  1  0  0  0  0
 49 72  1  0  0  0  0
 50 67  1  0  0  0  0
 51 66  1  0  0  0  0
 54 63  1  0  0  0  0
 55 64  1  0  0  0  0
 56 64  1  0  0  0  0
 57 64  1  0  0  0  0
 58 75  1  0  0  0  0
 59 60  1  0  0  0  0
 59 61  1  0  0  0  0
 60 83  1  0  0  0  0
 61 84  1  0  0  0  0
 62 64  1  0  0  0  0
 62 73  1  0  0  0  0
 63 75  1  0  0  0  0
 65 66  1  0  0  0  0
M  CHG  1  75   1
M  ISO  4  39 100  60 101  74 100  83 101
M  END
> <Batch ID>
0106

> <Smiles>
CNC(C)C(=O)NC(C(=O)N1Cc2cc([101O:1][101CH2:1]CCOc3c(C)cc([100N:0](C(C)=O)[100C:0](=O)N4CCCC(n5nc(-c6ccc(Oc7ccc(F)cc7F)cc6)c(C(N)=O)c5N)C4)cc3N)ccc2CC1C(=O)NC1CCCc2ccccc21)C(C)(C)C

> <Shape>
0.267

> <Color>
0.124

> <Negative vol penalty>
0.000

$$$$

  -OEChem-04052301143D

 89 98  0     1  0  0  0  0  0999 V2000
  -15.9591  -26.6077   25.9838 C   0  0  0  0  0  0  0  0  0  0  0  0
  -16.9278  -25.6938   25.5847 C   0  0  0  0  0  0  0  0  0  0  0  0
  -26.4770  -20.5723   23.6724 C   0  0  0  0  0  0  0  0  0  0  0  0
  -27.8010  -19.2174   25.1718 C   0  0  0  0  0  0  0  0  0  0  0  0
  -15.9092  -27.8679   25.3918 C   0  0  0  0  0  0  0  0  0  0  0  0
  -17.8545  -26.0440   24.6021 C   0  0  0  0  0  0  0  0  0  0  0  0
  -22.2252  -22.7491   21.9248 C   0  0  0  0  0  0  0  0  0  0  0  0
  -23.9840  -17.0866   18.9532 C   0  0  0  0  0  0  0  0  0  0  0  0
  -23.9016  -15.9258   19.7223 C   0  0  0  0  0  0  0  0  0  0  0  0
  -25.9824  -21.2924   24.7598 C   0  0  0  0  0  0  0  0  0  0  0  0
  -27.3065  -19.9375   26.2592 C   0  0  0  0  0  0  0  0  0  0  0  0
  -22.3625  -21.9494   20.7911 C   0  0  0  0  0  0  0  0  0  0  0  0
  -27.0433  -23.7784   26.7913 C   0  0  0  0  0  0  0  0  0  0  0  0
  -26.9984  -25.1682   26.6821 C   0  0  0  0  0  0  0  0  0  0  0  0
  -23.2898  -23.8239   19.5886 C   0  0  0  0  0  0  0  0  0  0  0  0
  -25.8812  -16.1690   17.7717 C   0  0  0  0  0  0  0  0  0  0  0  0
  -24.6042  -25.1160   27.0014 C   0  0  0  0  0  0  0  0  0  0  0  0
  -27.3863  -19.5348   23.8784 C   0  0  0  0  0  0  0  0  0  0  0  0
  -28.6273  -19.2943   21.6626 C   0  0  0  0  0  0  0  0  0  0  0  0
  -16.8283  -28.2285   24.3926 C   0  0  0  0  0  0  0  0  0  0  0  0
  -22.6097  -24.0974   21.8957 C   0  0  0  0  0  0  0  0  0  0  0  0
  -17.8356  -27.3196   24.0096 C   0  0  0  0  0  0  0  0  0  0  0  0
  -23.1587  -24.6379   20.7241 C   0  0  0  0  0  0  0  0  0  0  0  0
  -24.9738  -17.2082   17.9779 C   0  0  0  0  0  0  0  0  0  0  0  0
  -24.8089  -14.8867   19.5161 C   0  0  0  0  0  0  0  0  0  0  0  0
  -26.3971  -20.9750   26.0532 C   0  0  0  0  0  0  0  0  0  0  0  0
  -22.8922  -22.4875   19.6219 C   0  0  0  0  0  0  0  0  0  0  0  0
  -25.8686  -23.0573   27.0055 C   0  0  0  0  0  0  0  0  0  0  0  0
  -25.7988  -15.0083   18.5408 C   0  0  0  0  0  0  0  0  0  0  0  0
  -25.7789  -25.8370   26.7871 C   0  0  0  0  0  0  0  0  0  0  0  0
  -24.6490  -23.7261   27.1105 C   0  0  0  0  0  0  0  0  0  0  0  0
  -27.8971  -18.7902   22.7555 C   0  0  0  0  0  0  0  0  0  0  0  0
  -28.8745  -18.1943   20.8781 C   0  0  0  0  0  0  0  0  0  0  0  0
  -24.5730  -20.6501   15.6281 C   0  0  0  0  0  0  0  0  0  0  0  0
  -24.6011  -20.7735   16.9619 C   0  0  0  0  0  0  0  0  0  0  0  0
  -25.0812  -19.4211   14.9856 C   0  0  0  0  0  0  0  0  0  0  0  0
  -29.0449  -20.6368   21.3816 C   0  0  0  0  0  0  0  0  0  0  0  0
  -21.1012  -26.8689   22.2789 C   0  0  0  0  0  0  0  0  0  0  0  0
  -24.1030  -28.0837   22.0891 C   0  0  0  0  0  0  0  0  0  0  0  0
  -27.0585  -27.5019   20.1031 C   0  0  0  0  0  0  0  0  0  0  0  0
  -25.8197  -12.8941   20.6559 C   0  0  0  0  0  0  0  0  0  0  0  0
  -16.7337  -29.6085   23.7910 C   0  0  0  0  0  0  0  0  0  0  0  0
  -22.4800  -24.9396   23.1351 C   0  0  0  0  0  0  0  0  0  0  0  0
  -23.6055  -26.0741   20.6469 C   0  0  0  0  0  0  0  0  0  0  0  0
  -25.5745  -18.2805   15.8404 C   0  0  0  0  0  0  0  0  0  0  0  0
  -17.4671  -29.7278   22.4590 C   0  0  0  0  0  0  0  0  0  0  0  0
  -29.4494  -13.4546   21.1078 C   0  0  0  0  0  0  0  0  0  0  0  0
  -18.8743  -29.1643   22.5881 C   0  0  0  0  0  0  0  0  0  0  0  0
  -29.5130  -14.9089   21.5709 C   0  0  0  0  0  0  0  0  0  0  0  0
  -28.1381  -12.7882   21.5127 C   0  0  0  0  0  0  0  0  0  0  0  0
  -26.9887  -14.9837   21.5092 C   0  0  0  0  0  0  0  0  0  0  0  0
  -18.8348  -27.6675   22.9210 C   0  0  1  0  0  0  0  0  0  0  0  0
  -25.1036  -19.6826   17.8846 C   0  0  2  0  0  0  0  0  0  0  0  0
  -22.4266  -26.4351   22.8384 C   0  0  1  0  0  0  0  0  0  0  0  0
  -28.2832  -15.6893   21.0783 C   0  0  1  0  0  0  0  0  0  0  0  0
  -26.5268  -19.9762   18.3716 C   0  0  0  0  0  0  0  0  0  0  0  0
  -22.8850  -13.5075   21.9638 C   0  0  0  0  0  0  0  0  0  0  0  0
  -29.2240  -27.8635   21.3185 C   0  0  0  0  0  0  0  0  0  0  0  0
  -23.6777  -30.7749   20.7155 C   0  0  0  0  0  0  0  0  0  0  0  0
  -25.9621  -30.5474   19.7166 C   0  0  0  0  0  0  0  0  0  0  0  0
  -25.6920  -30.6648   22.1936 C   0  0  0  0  0  0  0  0  0  0  0  0
  -30.4054  -25.6854   19.7661 C   0  0  0  0  0  0  0  0  0  0  0  0
  -24.0954  -22.0268   17.6229 C   0  0  0  0  0  0  0  0  0  1  0  0
  -23.3783  -13.1490   20.5765 C   0  0  0  0  0  0  0  0  0  0  0  0
  -24.9918  -28.5669   20.9686 C   0  0  1  0  0  0  0  0  0  0  0  0
  -28.3555  -26.8653   20.5688 C   0  0  2  0  0  0  0  0  0  0  0  0
  -25.0612  -30.1184   20.8943 C   0  0  0  0  0  0  0  0  0  0  0  0
  -27.6936  -17.4726   22.6759 N   0  0  0  0  0  0  0  0  0  0  0  0
  -28.2994  -17.1394   21.5235 N   0  0  0  0  0  0  0  0  0  0  0  0
  -25.0563  -18.3747   17.2043 N   0  0  2  0  0  0  0  0  0  0  0  0
  -23.4525  -26.8588   21.8832 N   0  0  0  0  0  0  0  0  0  0  0  0
  -26.9770  -13.5728   21.0896 N   0  0  0  0  0  0  0  0  0  0  0  0
  -29.5254  -18.0363   19.7060 N   0  0  0  0  0  0  0  0  0  0  0  0
  -28.7069  -21.6463   22.2932 N   0  0  0  0  0  0  0  0  0  0  0  0
  -20.1724  -27.2194   23.2401 N   0  0  0  0  0  0  0  0  0  0  0  0
  -26.2845  -27.9198   21.1650 N   0  0  0  0  0  0  0  0  0  0  0  0
  -24.7101  -13.6927   20.3195 N   0  0  0  0  0  0  0  0  0  0  0  0
  -29.1287  -26.3524   19.4026 N   0  3  0  0  0  0  0  0  0  0  0  0
  -25.1288  -19.3612   13.7569 O   0  0  0  0  0  0  0  0  0  0  0  0
  -29.6843  -20.9352   20.3445 O   0  0  0  0  0  0  0  0  0  0  0  0
  -20.9342  -26.8859   21.0651 O   0  0  0  0  0  0  0  0  0  0  0  0
  -23.9956  -28.7643   23.1122 O   0  0  0  0  0  0  0  0  0  0  0  0
  -26.7632  -27.6202   18.9159 O   0  0  0  0  0  0  0  0  0  0  0  0
  -25.7590  -11.6588   20.6234 O   0  0  0  0  0  0  0  0  0  0  0  0
  -26.6952  -14.0046   18.3228 O   0  0  0  0  0  0  0  0  0  0  0  0
  -25.9149  -21.6776   27.1145 O   0  0  0  0  0  0  0  0  0  0  0  0
  -23.0267  -21.7093   18.5136 O   0  0  0  0  0  0  0  0  0  1  0  0
  -25.7361  -27.1718   26.6838 F   0  0  0  0  0  0  0  0  0  0  0  0
  -23.5173  -23.0389   27.3175 F   0  0  0  0  0  0  0  0  0  0  0  0
  1  2  1  0  0  0  0
  1  5  2  0  0  0  0
  2  6  2  0  0  0  0
  3 10  2  0  0  0  0
  3 18  1  0  0  0  0
  4 11  1  0  0  0  0
  4 18  2  0  0  0  0
  5 20  1  0  0  0  0
  6 22  1  0  0  0  0
  7 12  2  0  0  0  0
  7 21  1  0  0  0  0
  8  9  2  0  0  0  0
  8 24  1  0  0  0  0
  9 25  1  0  0  0  0
 10 26  1  0  0  0  0
 11 26  2  0  0  0  0
 12 27  1  0  0  0  0
 13 14  2  0  0  0  0
 13 28  1  0  0  0  0
 14 30  1  0  0  0  0
 15 23  1  0  0  0  0
 15 27  2  0  0  0  0
 16 24  2  0  0  0  0
 16 29  1  0  0  0  0
 17 30  2  0  0  0  0
 17 31  1  0  0  0  0
 18 32  1  0  0  0  0
 19 32  1  0  0  0  0
 19 33  2  0  0  0  0
 19 37  1  0  0  0  0
 20 22  2  0  0  0  0
 20 42  1  0  0  0  0
 21 23  2  0  0  0  0
 21 43  1  0  0  0  0
 22 52  1  0  0  0  0
 23 44  1  0  0  0  0
 24 70  1  0  0  0  0
 25 29  2  0  0  0  0
 25 77  1  0  0  0  0
 26 86  1  0  0  0  0
 27 87  1  0  0  0  0
 28 31  2  0  0  0  0
 28 86  1  0  0  0  0
 29 85  1  0  0  0  0
 30 88  1  0  0  0  0
 31 89  1  0  0  0  0
 32 68  2  0  0  0  0
 33 69  1  0  0  0  0
 33 73  1  0  0  0  0
 34 35  2  0  0  0  0
 34 36  1  0  0  0  0
 35 53  1  0  0  0  0
 35 63  1  0  0  0  0
 36 45  1  0  0  0  0
 36 79  2  0  0  0  0
 37 74  1  0  0  0  0
 37 80  2  0  0  0  0
 38 54  1  0  0  0  0
 38 75  1  0  0  0  0
 38 81  2  0  0  0  0
 39 65  1  0  0  0  0
 39 71  1  0  0  0  0
 39 82  2  0  0  0  0
 40 66  1  0  0  0  0
 40 76  1  0  0  0  0
 40 83  2  0  0  0  0
 41 72  1  0  0  0  0
 41 77  1  0  0  0  0
 41 84  2  0  0  0  0
 42 46  1  0  0  0  0
 43 54  1  0  0  0  0
 44 71  1  0  0  0  0
 45 70  1  0  0  0  0
 46 48  1  0  0  0  0
 47 49  1  0  0  0  0
 47 50  1  0  0  0  0
 48 52  1  0  0  0  0
 49 55  1  0  0  0  0
 50 72  1  0  0  0  0
 51 55  1  0  0  0  0
 51 72  1  0  0  0  0
 52 75  1  0  0  0  0
 53 56  1  0  0  0  0
 53 70  1  0  0  0  0
 54 71  1  0  0  0  0
 55 69  1  0  0  0  0
 57 64  1  0  0  0  0
 58 66  1  0  0  0  0
 59 67  1  0  0  0  0
 60 67  1  0  0  0  0
 61 67  1  0  0  0  0
 62 78  1  0  0  0  0
 63 87  1  0  0  0  0
 64 77  1  0  0  0  0
 65 67  1  0  0  0  0
 65 76  1  0  0  0  0
 66 78  1  0  0  0  0
 68 69  1  0  0  0  0
M  CHG  1  78   1
M  ISO  4  41 100  63 101  77 100  87 101
M  END
> <Batch ID>
0106

> <Smiles>
CC[100N:0](c1ccc(N2CC(=O)CC([101CH2:1][101O:1]c3ccc4c(c3)CN(C(=O)C(NC(=O)C(C)NC)C(C)(C)C)C(C(=O)NC3CCCc5ccccc53)C4)=C2C)cc1O)[100C:0](=O)N1CCCC(n2nc(-c3ccc(Oc4ccc(F)cc4F)cc3)c(C(N)=O)c2N)C1

> <Shape>
0.208

> <Color>
0.061

> <Negative vol penalty>
0.000

$$$$

  -OEChem-04052301143D

 84 92  0     1  0  0  0  0  0999 V2000
  -16.6474  -30.4927   23.2607 C   0  0  0  0  0  0  0  0  0  0  0  0
  -17.8477  -31.0892   22.8881 C   0  0  0  0  0  0  0  0  0  0  0  0
  -25.7237  -14.4240   22.4293 C   0  0  0  0  0  0  0  0  0  0  0  0
  -27.0303  -12.6925   21.3655 C   0  0  0  0  0  0  0  0  0  0  0  0
  -16.6424  -29.1904   23.7586 C   0  0  0  0  0  0  0  0  0  0  0  0
  -19.0441  -30.3840   23.0144 C   0  0  0  0  0  0  0  0  0  0  0  0
  -25.4499  -29.6531   19.8924 C   0  0  0  0  0  0  0  0  0  0  0  0
  -24.7913  -13.4701   22.8368 C   0  0  0  0  0  0  0  0  0  0  0  0
  -26.0979  -11.7385   21.7731 C   0  0  0  0  0  0  0  0  0  0  0  0
  -26.8089  -29.6827   20.2025 C   0  0  0  0  0  0  0  0  0  0  0  0
  -23.0463  -10.6607   20.7949 C   0  0  0  0  0  0  0  0  0  0  0  0
  -22.6382   -9.7116   19.8577 C   0  0  0  0  0  0  0  0  0  0  0  0
  -26.6700  -27.4105   21.0007 C   0  0  0  0  0  0  0  0  0  0  0  0
  -23.4672   -7.9466   21.2841 C   0  0  0  0  0  0  0  0  0  0  0  0
  -26.8433  -14.0352   21.6936 C   0  0  0  0  0  0  0  0  0  0  0  0
  -28.9479  -15.4489   21.9756 C   0  0  0  0  0  0  0  0  0  0  0  0
  -17.8382  -28.4655   23.8820 C   0  0  0  0  0  0  0  0  0  0  0  0
  -24.6871  -28.5038   20.1447 C   0  0  0  0  0  0  0  0  0  0  0  0
  -19.0552  -29.0713   23.5157 C   0  0  0  0  0  0  0  0  0  0  0  0
  -25.3021  -27.3680   20.6905 C   0  0  0  0  0  0  0  0  0  0  0  0
  -29.8630  -22.7323   19.2004 C   0  0  0  0  0  0  0  0  0  0  0  0
  -24.9784  -12.1273   22.5088 C   0  0  0  0  0  0  0  0  0  0  0  0
  -27.4185  -28.5623   20.7594 C   0  0  0  0  0  0  0  0  0  0  0  0
  -23.6649  -10.2528   21.9767 C   0  0  0  0  0  0  0  0  0  0  0  0
  -22.8486   -8.3546   20.1023 C   0  0  0  0  0  0  0  0  0  0  0  0
  -23.8753   -8.8957   22.2213 C   0  0  0  0  0  0  0  0  0  0  0  0
  -27.8066  -15.0203   21.2718 C   0  0  0  0  0  0  0  0  0  0  0  0
  -29.2376  -23.1979   20.3389 C   0  0  0  0  0  0  0  0  0  0  0  0
  -30.6120  -23.6618   18.5081 C   0  0  0  0  0  0  0  0  0  0  0  0
  -29.5250  -16.3872   21.1552 C   0  0  0  0  0  0  0  0  0  0  0  0
  -30.0889  -25.2807   20.0156 C   0  0  0  0  0  0  0  0  0  0  0  0
  -29.4424  -15.0358   23.2564 C   0  0  0  0  0  0  0  0  0  0  0  0
  -22.1798  -27.8338   21.9799 C   0  0  0  0  0  0  0  0  0  0  0  0
  -22.3334  -24.9667   20.4705 C   0  0  0  0  0  0  0  0  0  0  0  0
  -24.2182  -22.6831   18.7737 C   0  0  0  0  0  0  0  0  0  0  0  0
  -28.7013  -20.9587   17.8966 C   0  0  0  0  0  0  0  0  0  0  0  0
  -17.7882  -27.0774   24.4698 C   0  0  0  0  0  0  0  0  0  0  0  0
  -23.2282  -28.4789   19.7797 C   0  0  0  0  0  0  0  0  0  0  0  0
  -24.5320  -26.1025   20.9620 C   0  0  0  0  0  0  0  0  0  0  0  0
  -19.0561  -26.2645   24.2207 C   0  0  0  0  0  0  0  0  0  0  0  0
  -28.5779  -17.6119   16.3492 C   0  0  0  0  0  0  0  0  0  0  0  0
  -20.2948  -27.1001   24.5276 C   0  0  0  0  0  0  0  0  0  0  0  0
  -28.3936  -16.6875   17.5515 C   0  0  0  0  0  0  0  0  0  0  0  0
  -27.9624  -18.9868   16.5917 C   0  0  0  0  0  0  0  0  0  0  0  0
  -28.2685  -18.7292   19.0351 C   0  0  0  0  0  0  0  0  0  0  0  0
  -20.3708  -28.3299   23.6146 C   0  0  1  0  0  0  0  0  0  0  0  0
  -22.4361  -27.4308   20.5553 C   0  0  1  0  0  0  0  0  0  0  0  0
  -28.9157  -17.3500   18.8381 C   0  0  1  0  0  0  0  0  0  0  0  0
  -28.4003  -22.2855   21.1748 C   0  0  0  0  0  0  0  0  0  0  0  0
  -24.0761  -20.4188   17.7011 C   0  0  0  0  0  0  0  0  0  0  0  0
  -22.3934  -23.6598   23.2270 C   0  0  0  0  0  0  0  0  0  0  0  0
  -23.1962  -21.5549   22.1348 C   0  0  0  0  0  0  0  0  0  0  0  0
  -20.9583  -22.4874   21.5477 C   0  0  0  0  0  0  0  0  0  0  0  0
  -30.8363  -20.4329   19.0521 C   0  0  0  0  0  0  0  0  0  0  0  0
  -24.9174  -23.7719   16.1121 C   0  0  0  0  0  0  0  0  0  0  0  0
  -30.9859  -28.8484   20.2086 C   0  0  0  0  0  0  0  0  0  0  0  0
  -29.5788  -29.4226   20.2605 C   0  0  0  0  0  0  0  0  0  1  0  0
  -31.0053  -27.4414   19.6322 C   0  0  0  0  0  0  0  0  0  0  0  0
  -23.0431  -23.6595   20.7282 C   0  0  1  0  0  0  0  0  0  0  0  0
  -23.9594  -21.9199   17.4872 C   0  0  2  0  0  0  0  0  0  0  0  0
  -22.4121  -22.8647   21.9062 C   0  0  0  0  0  0  0  0  0  0  0  0
  -27.6651  -15.6359   20.0949 N   0  0  0  0  0  0  0  0  0  0  0  0
  -29.3293  -24.4706   20.7774 N   0  0  0  0  0  0  0  0  0  0  0  0
  -30.7470  -24.9492   18.8885 N   0  0  0  0  0  0  0  0  0  0  0  0
  -28.7251  -16.4609   20.0529 N   0  0  0  0  0  0  0  0  0  0  0  0
  -23.1068  -26.1296   20.5937 N   0  0  0  0  0  0  0  0  0  0  0  0
  -28.4407  -19.5746   17.8437 N   0  0  0  0  0  0  0  0  0  0  0  0
  -31.2810  -23.2484   17.3290 N   0  0  0  0  0  0  0  0  0  0  0  0
  -30.6334  -17.1482   21.2763 N   0  0  0  0  0  0  0  0  0  0  0  0
  -28.7275  -14.0613   23.9661 N   0  0  0  0  0  0  0  0  0  0  0  0
  -20.8405  -27.9539   22.2984 N   0  0  0  0  0  0  0  0  0  0  0  0
  -23.0496  -22.9412   19.4584 N   0  0  0  0  0  0  0  0  0  0  0  0
  -29.7359  -21.3602   18.7692 N   0  0  0  0  0  0  0  0  0  0  0  0
  -24.9397  -22.3230   16.4396 N   0  3  0  0  0  0  0  0  0  0  0  0
  -30.4784  -15.5284   23.7641 O   0  0  0  0  0  0  0  0  0  0  0  0
  -23.1270  -28.0206   22.7347 O   0  0  0  0  0  0  0  0  0  0  0  0
  -21.1385  -24.9559   20.1640 O   0  0  0  0  0  0  0  0  0  0  0  0
  -25.3449  -23.0136   19.1369 O   0  0  0  0  0  0  0  0  0  0  0  0
  -28.0791  -21.7669   17.1973 O   0  0  0  0  0  0  0  0  0  0  0  0
  -24.0688  -11.1962   22.9065 O   0  0  0  0  0  0  0  0  0  0  0  0
  -28.7446  -28.5886   21.0636 O   0  0  0  0  0  0  0  0  0  1  0  0
  -30.2049  -26.5814   20.4319 O   0  0  0  0  0  0  0  0  0  0  0  0
  -22.4553   -7.4432   19.2029 F   0  0  0  0  0  0  0  0  0  0  0  0
  -24.4681   -8.4977   23.3553 F   0  0  0  0  0  0  0  0  0  0  0  0
  1  2  1  0  0  0  0
  1  5  2  0  0  0  0
  2  6  2  0  0  0  0
  3  8  2  0  0  0  0
  3 15  1  0  0  0  0
  4  9  1  0  0  0  0
  4 15  2  0  0  0  0
  5 17  1  0  0  0  0
  6 19  1  0  0  0  0
  7 10  2  0  0  0  0
  7 18  1  0  0  0  0
  8 22  1  0  0  0  0
  9 22  2  0  0  0  0
 10 23  1  0  0  0  0
 11 12  2  0  0  0  0
 11 24  1  0  0  0  0
 12 25  1  0  0  0  0
 13 20  1  0  0  0  0
 13 23  2  0  0  0  0
 14 25  2  0  0  0  0
 14 26  1  0  0  0  0
 15 27  1  0  0  0  0
 16 27  1  0  0  0  0
 16 30  2  0  0  0  0
 16 32  1  0  0  0  0
 17 19  2  0  0  0  0
 17 37  1  0  0  0  0
 18 20  2  0  0  0  0
 18 38  1  0  0  0  0
 19 46  1  0  0  0  0
 20 39  1  0  0  0  0
 21 28  1  0  0  0  0
 21 29  2  0  0  0  0
 21 73  1  0  0  0  0
 22 80  1  0  0  0  0
 23 81  1  0  0  0  0
 24 26  2  0  0  0  0
 24 80  1  0  0  0  0
 25 83  1  0  0  0  0
 26 84  1  0  0  0  0
 27 62  2  0  0  0  0
 28 49  1  0  0  0  0
 28 63  2  0  0  0  0
 29 64  1  0  0  0  0
 29 68  1  0  0  0  0
 30 65  1  0  0  0  0
 30 69  1  0  0  0  0
 31 63  1  0  0  0  0
 31 64  2  0  0  0  0
 31 82  1  0  0  0  0
 32 70  1  0  0  0  0
 32 75  2  0  0  0  0
 33 47  1  0  0  0  0
 33 71  1  0  0  0  0
 33 76  2  0  0  0  0
 34 59  1  0  0  0  0
 34 66  1  0  0  0  0
 34 77  2  0  0  0  0
 35 60  1  0  0  0  0
 35 72  1  0  0  0  0
 35 78  2  0  0  0  0
 36 67  1  0  0  0  0
 36 73  1  0  0  0  0
 36 79  2  0  0  0  0
 37 40  1  0  0  0  0
 38 47  1  0  0  0  0
 39 66  1  0  0  0  0
 40 42  1  0  0  0  0
 41 43  1  0  0  0  0
 41 44  1  0  0  0  0
 42 46  1  0  0  0  0
 43 48  1  0  0  0  0
 44 67  1  0  0  0  0
 45 48  1  0  0  0  0
 45 67  1  0  0  0  0
 46 71  1  0  0  0  0
 47 66  1  0  0  0  0
 48 65  1  0  0  0  0
 50 60  1  0  0  0  0
 51 61  1  0  0  0  0
 52 61  1  0  0  0  0
 53 61  1  0  0  0  0
 54 73  1  0  0  0  0
 55 74  1  0  0  0  0
 56 57  1  0  0  0  0
 56 58  1  0  0  0  0
 57 81  1  0  0  0  0
 58 82  1  0  0  0  0
 59 61  1  0  0  0  0
 59 72  1  0  0  0  0
 60 74  1  0  0  0  0
 62 65  1  0  0  0  0
M  CHG  1  74   1
M  ISO  4  36 100  57 101  73 100  81 101
M  END
> <Batch ID>
0106

> <Smiles>
CNC(C)C(=O)NC(C(=O)N1Cc2cc([101O:1][101CH2:1]CCOc3nc(C)c([100N:0](C)[100C:0](=O)N4CCCC(n5nc(-c6ccc(Oc7ccc(F)cc7F)cc6)c(C(N)=O)c5N)C4)c(N)n3)ccc2CC1C(=O)NC1CCCc2ccccc21)C(C)(C)C

> <Shape>
0.263

> <Color>
0.078

> <Negative vol penalty>
0.000

$$$$

  -OEChem-04052301143D

 89 98  0     1  0  0  0  0  0999 V2000
  -26.2898  -37.1574   17.7343 C   0  0  0  0  0  0  0  0  0  0  0  0
  -26.9450  -35.9731   17.4128 C   0  0  0  0  0  0  0  0  0  0  0  0
  -22.7181  -10.1867   20.1136 C   0  0  0  0  0  0  0  0  0  0  0  0
  -24.3101   -9.4941   21.7938 C   0  0  0  0  0  0  0  0  0  0  0  0
  -25.6896  -37.3035   18.9843 C   0  0  0  0  0  0  0  0  0  0  0  0
  -27.0015  -34.9345   18.3415 C   0  0  0  0  0  0  0  0  0  0  0  0
  -27.1024  -27.7816   18.7184 C   0  0  0  0  0  0  0  0  0  0  0  0
  -22.0077   -9.0005   20.2977 C   0  0  0  0  0  0  0  0  0  0  0  0
  -23.5997   -8.3079   21.9780 C   0  0  0  0  0  0  0  0  0  0  0  0
  -27.8422  -26.7431   19.2823 C   0  0  0  0  0  0  0  0  0  0  0  0
  -20.7973   -7.3080   23.5802 C   0  0  0  0  0  0  0  0  0  0  0  0
  -20.5592   -6.8937   24.8907 C   0  0  0  0  0  0  0  0  0  0  0  0
  -26.7013  -27.0781   21.3812 C   0  0  0  0  0  0  0  0  0  0  0  0
  -29.9507  -19.3130   23.0719 C   0  0  0  0  0  0  0  0  0  0  0  0
  -30.5362  -19.3708   20.7286 C   0  0  0  0  0  0  0  0  0  0  0  0
  -21.7653   -4.8446   24.4619 C   0  0  0  0  0  0  0  0  0  0  0  0
  -23.8694  -10.4335   20.8616 C   0  0  0  0  0  0  0  0  0  0  0  0
  -24.1300  -12.9711   20.8552 C   0  0  0  0  0  0  0  0  0  0  0  0
  -25.7304  -36.2625   19.9252 C   0  0  0  0  0  0  0  0  0  0  0  0
  -26.1627  -28.4845   19.4860 C   0  0  0  0  0  0  0  0  0  0  0  0
  -26.4024  -35.0673   19.6057 C   0  0  0  0  0  0  0  0  0  0  0  0
  -25.9491  -28.1235   20.8239 C   0  0  0  0  0  0  0  0  0  0  0  0
  -29.8262  -17.9253   23.0067 C   0  0  0  0  0  0  0  0  0  0  0  0
  -30.3056  -20.0358   21.9329 C   0  0  0  0  0  0  0  0  0  0  0  0
  -30.0568  -17.2603   21.8024 C   0  0  0  0  0  0  0  0  0  0  0  0
  -22.4485   -8.0611   21.2299 C   0  0  0  0  0  0  0  0  0  0  0  0
  -27.6438  -26.3931   20.6147 C   0  0  0  0  0  0  0  0  0  0  0  0
  -21.5192   -6.4906   22.7105 C   0  0  0  0  0  0  0  0  0  0  0  0
  -30.4118  -17.9830   20.6634 C   0  0  0  0  0  0  0  0  0  0  0  0
  -21.0433   -5.6621   25.3315 C   0  0  0  0  0  0  0  0  0  0  0  0
  -22.0033   -5.2589   23.1514 C   0  0  0  0  0  0  0  0  0  0  0  0
  -24.6039  -11.6583   20.6714 C   0  0  0  0  0  0  0  0  0  0  0  0
  -25.2042  -13.7701   20.5485 C   0  0  0  0  0  0  0  0  0  0  0  0
  -30.0391  -23.6631   21.1053 C   0  0  0  0  0  0  0  0  0  0  0  0
  -29.6801  -22.3631   21.2392 C   0  0  0  0  0  0  0  0  0  0  0  0
  -31.3156  -24.1149   21.7544 C   0  0  0  0  0  0  0  0  0  0  0  0
  -22.8345  -13.4275   21.2665 C   0  0  0  0  0  0  0  0  0  0  0  0
  -25.8345  -31.5068   20.4142 C   0  0  0  0  0  0  0  0  0  0  0  0
  -22.9947  -30.4379   21.5609 C   0  0  0  0  0  0  0  0  0  0  0  0
  -21.1210  -27.8076   22.6646 C   0  0  0  0  0  0  0  0  0  0  0  0
  -30.6279  -14.9824   20.8905 C   0  0  0  0  0  0  0  0  0  0  0  0
  -25.1080  -36.4846   21.2809 C   0  0  0  0  0  0  0  0  0  0  0  0
  -25.3537  -29.5846   18.8554 C   0  0  0  0  0  0  0  0  0  0  0  0
  -24.9378  -28.8334   21.6851 C   0  0  0  0  0  0  0  0  0  0  0  0
  -32.2014  -23.0779   22.4019 C   0  0  0  0  0  0  0  0  0  0  0  0
  -24.8899  -35.1959   22.0695 C   0  0  0  0  0  0  0  0  0  0  0  0
  -29.6445  -12.6371   18.3986 C   0  0  0  0  0  0  0  0  0  0  0  0
  -26.1381  -34.3207   22.0179 C   0  0  0  0  0  0  0  0  0  0  0  0
  -28.2065  -12.2814   18.7829 C   0  0  0  0  0  0  0  0  0  0  0  0
  -31.3928  -21.9368   22.9937 C   0  0  0  0  0  0  0  0  0  0  0  0
  -30.5258  -12.8438   19.6292 C   0  0  0  0  0  0  0  0  0  0  0  0
  -28.5670  -13.4471   20.9960 C   0  0  0  0  0  0  0  0  0  0  0  0
  -26.4637  -33.9086   20.5772 C   0  0  1  0  0  0  0  0  0  0  0  0
  -24.7905  -30.5711   19.8737 C   0  0  1  0  0  0  0  0  0  0  0  0
  -27.6257  -13.2930   19.7903 C   0  0  2  0  0  0  0  0  0  0  0  0
  -29.4446  -17.1780   24.2433 C   0  0  0  0  0  0  0  0  0  0  0  0
  -28.3681  -21.8772   20.6542 C   0  0  0  0  0  0  0  0  0  0  0  0
  -18.8480  -27.2511   23.5706 C   0  0  0  0  0  0  0  0  0  0  0  0
  -23.7887  -31.6074   24.2650 C   0  0  0  0  0  0  0  0  0  0  0  0
  -21.9831  -30.2264   25.3142 C   0  0  0  0  0  0  0  0  0  0  0  0
  -21.3970  -31.9728   23.6321 C   0  0  0  0  0  0  0  0  0  0  0  0
  -20.5304  -26.0030   20.3945 C   0  0  0  0  0  0  0  0  0  0  0  0
  -29.5261  -17.1777   18.6085 C   0  0  0  0  0  0  0  0  0  0  0  0
  -29.3080  -24.7190   20.3253 C   0  0  0  0  0  0  0  0  0  1  0  0
  -22.5245  -29.8433   22.8665 C   0  0  1  0  0  0  0  0  0  0  0  0
  -19.7106  -27.3621   22.3231 C   0  0  2  0  0  0  0  0  0  0  0  0
  -22.4438  -30.9002   24.0040 C   0  0  0  0  0  0  0  0  0  0  0  0
  -25.8799  -11.6211   20.2783 N   0  0  0  0  0  0  0  0  0  0  0  0
  -26.2168  -12.9204   20.2124 N   0  0  0  0  0  0  0  0  0  0  0  0
  -30.4319  -21.4475   21.9986 N   0  0  0  0  0  0  0  0  0  0  0  0
  -24.1760  -29.9063   21.0246 N   0  0  0  0  0  0  0  0  0  0  0  0
  -29.9145  -13.8178   20.5361 N   0  0  0  0  0  0  0  0  0  0  0  0
  -25.3720  -15.1095   20.5361 N   0  0  0  0  0  0  0  0  0  0  0  0
  -22.5926  -13.6060   22.6354 N   0  0  0  0  0  0  0  0  0  0  0  0
  -29.9331  -15.8505   21.7321 N   0  0  0  0  0  0  0  0  0  0  0  0
  -25.5877  -32.8399   20.1470 N   0  0  0  0  0  0  0  0  0  0  0  0
  -21.2589  -29.1769   22.5792 N   0  0  0  0  0  0  0  0  0  0  0  0
  -19.7361  -26.0330   21.6495 N   0  3  0  0  0  0  0  0  0  0  0  0
  -31.6611  -25.2954   21.7123 O   0  0  0  0  0  0  0  0  0  0  0  0
  -21.9135  -13.6542   20.4456 O   0  0  0  0  0  0  0  0  0  0  0  0
  -26.7922  -31.0531   21.0295 O   0  0  0  0  0  0  0  0  0  0  0  0
  -22.3341  -31.3359   21.0327 O   0  0  0  0  0  0  0  0  0  0  0  0
  -22.0105  -27.0201   22.9796 O   0  0  0  0  0  0  0  0  0  0  0  0
  -31.7605  -15.2071   20.4560 O   0  0  0  0  0  0  0  0  0  0  0  0
  -21.7554   -6.9037   21.4100 O   0  0  0  0  0  0  0  0  0  0  0  0
  -30.6434  -17.3537   19.4765 O   0  0  0  0  0  0  0  0  0  0  0  0
  -28.3650  -25.3803   21.1678 O   0  0  0  0  0  0  0  0  0  1  0  0
  -20.8160   -5.2650   26.5904 F   0  0  0  0  0  0  0  0  0  0  0  0
  -22.6986   -4.4699   22.3209 F   0  0  0  0  0  0  0  0  0  0  0  0
  1  2  1  0  0  0  0
  1  5  2  0  0  0  0
  2  6  2  0  0  0  0
  3  8  2  0  0  0  0
  3 17  1  0  0  0  0
  4  9  1  0  0  0  0
  4 17  2  0  0  0  0
  5 19  1  0  0  0  0
  6 21  1  0  0  0  0
  7 10  2  0  0  0  0
  7 20  1  0  0  0  0
  8 26  1  0  0  0  0
  9 26  2  0  0  0  0
 10 27  1  0  0  0  0
 11 12  2  0  0  0  0
 11 28  1  0  0  0  0
 12 30  1  0  0  0  0
 13 22  1  0  0  0  0
 13 27  2  0  0  0  0
 14 23  2  0  0  0  0
 14 24  1  0  0  0  0
 15 24  2  0  0  0  0
 15 29  1  0  0  0  0
 16 30  2  0  0  0  0
 16 31  1  0  0  0  0
 17 32  1  0  0  0  0
 18 32  1  0  0  0  0
 18 33  2  0  0  0  0
 18 37  1  0  0  0  0
 19 21  2  0  0  0  0
 19 42  1  0  0  0  0
 20 22  2  0  0  0  0
 20 43  1  0  0  0  0
 21 53  1  0  0  0  0
 22 44  1  0  0  0  0
 23 25  1  0  0  0  0
 23 56  1  0  0  0  0
 24 70  1  0  0  0  0
 25 29  2  0  0  0  0
 25 75  1  0  0  0  0
 26 85  1  0  0  0  0
 27 87  1  0  0  0  0
 28 31  2  0  0  0  0
 28 85  1  0  0  0  0
 29 86  1  0  0  0  0
 30 88  1  0  0  0  0
 31 89  1  0  0  0  0
 32 68  2  0  0  0  0
 33 69  1  0  0  0  0
 33 73  1  0  0  0  0
 34 35  2  0  0  0  0
 34 36  1  0  0  0  0
 34 64  1  0  0  0  0
 35 57  1  0  0  0  0
 35 70  1  0  0  0  0
 36 45  1  0  0  0  0
 36 79  2  0  0  0  0
 37 74  1  0  0  0  0
 37 80  2  0  0  0  0
 38 54  1  0  0  0  0
 38 76  1  0  0  0  0
 38 81  2  0  0  0  0
 39 65  1  0  0  0  0
 39 71  1  0  0  0  0
 39 82  2  0  0  0  0
 40 66  1  0  0  0  0
 40 77  1  0  0  0  0
 40 83  2  0  0  0  0
 41 72  1  0  0  0  0
 41 75  1  0  0  0  0
 41 84  2  0  0  0  0
 42 46  1  0  0  0  0
 43 54  1  0  0  0  0
 44 71  1  0  0  0  0
 45 50  1  0  0  0  0
 46 48  1  0  0  0  0
 47 49  1  0  0  0  0
 47 51  1  0  0  0  0
 48 53  1  0  0  0  0
 49 55  1  0  0  0  0
 50 70  1  0  0  0  0
 51 72  1  0  0  0  0
 52 55  1  0  0  0  0
 52 72  1  0  0  0  0
 53 76  1  0  0  0  0
 54 71  1  0  0  0  0
 55 69  1  0  0  0  0
 58 66  1  0  0  0  0
 59 67  1  0  0  0  0
 60 67  1  0  0  0  0
 61 67  1  0  0  0  0
 62 78  1  0  0  0  0
 63 86  1  0  0  0  0
 64 87  1  0  0  0  0
 65 67  1  0  0  0  0
 65 77  1  0  0  0  0
 66 78  1  0  0  0  0
 68 69  1  0  0  0  0
M  CHG  1  78   1
M  ISO  4  41 100  64 101  75 100  87 101
M  END
> <Batch ID>
0106

> <Smiles>
CNC(C)C(=O)NC(C(=O)N1Cc2cc([101O:1][101CH2:1]C3=C(C)N(c4cc(C)c([100NH:0][100C:0](=O)N5CCCC(n6nc(-c7ccc(Oc8ccc(F)cc8F)cc7)c(C(N)=O)c6N)C5)c(OC)c4)CCC3=O)ccc2CC1C(=O)NC1CCCc2ccccc21)C(C)(C)C

> <Shape>
0.389

> <Color>
0.227

> <Negative vol penalty>
0.000

$$$$

  -OEChem-04052301143D

 85 94  0     1  0  0  0  0  0999 V2000
  -22.7703   -8.4535   21.3069 C   0  0  0  0  0  0  0  0  0  0  0  0
  -23.9556   -9.0566   21.7152 C   0  0  0  0  0  0  0  0  0  0  0  0
  -27.2288  -29.4730   20.4298 C   0  0  0  0  0  0  0  0  0  0  0  0
  -27.1362  -28.2192   22.4929 C   0  0  0  0  0  0  0  0  0  0  0  0
  -21.8540   -9.1697   20.5379 C   0  0  0  0  0  0  0  0  0  0  0  0
  -24.2258  -10.3760   21.3538 C   0  0  0  0  0  0  0  0  0  0  0  0
  -27.2069  -14.5670   24.6786 C   0  0  0  0  0  0  0  0  0  0  0  0
  -32.0610  -18.5605   21.3260 C   0  0  0  0  0  0  0  0  0  0  0  0
  -31.4304  -19.6571   20.7385 C   0  0  0  0  0  0  0  0  0  0  0  0
  -26.5390  -30.5225   21.0366 C   0  0  0  0  0  0  0  0  0  0  0  0
  -26.4463  -29.2687   23.0998 C   0  0  0  0  0  0  0  0  0  0  0  0
  -28.5263  -15.0168   24.6563 C   0  0  0  0  0  0  0  0  0  0  0  0
  -27.1790  -32.2823   24.4422 C   0  0  0  0  0  0  0  0  0  0  0  0
  -27.5852  -32.6704   25.7189 C   0  0  0  0  0  0  0  0  0  0  0  0
  -27.8665  -16.8644   23.2527 C   0  0  0  0  0  0  0  0  0  0  0  0
  -29.6712  -18.2121   19.9296 C   0  0  0  0  0  0  0  0  0  0  0  0
  -25.3860  -32.1538   26.5756 C   0  0  0  0  0  0  0  0  0  0  0  0
  -27.5274  -28.3213   21.1580 C   0  0  0  0  0  0  0  0  0  0  0  0
  -29.6341  -27.0516   20.4819 C   0  0  0  0  0  0  0  0  0  0  0  0
  -22.1086  -10.5017   20.1751 C   0  0  0  0  0  0  0  0  0  0  0  0
  -26.2076  -15.2576   23.9779 C   0  0  0  0  0  0  0  0  0  0  0  0
  -23.3126  -11.1103   20.5781 C   0  0  0  0  0  0  0  0  0  0  0  0
  -26.5346  -16.4227   23.2698 C   0  0  0  0  0  0  0  0  0  0  0  0
  -30.3019  -17.1154   20.5172 C   0  0  0  0  0  0  0  0  0  0  0  0
  -31.4968  -17.2896   21.2153 C   0  0  0  0  0  0  0  0  0  0  0  0
  -30.2355  -19.4829   20.0403 C   0  0  0  0  0  0  0  0  0  0  0  0
  -26.1477  -30.4204   22.3716 C   0  0  0  0  0  0  0  0  0  0  0  0
  -28.8568  -16.1640   23.9410 C   0  0  0  0  0  0  0  0  0  0  0  0
  -25.8763  -31.8301   24.2321 C   0  0  0  0  0  0  0  0  0  0  0  0
  -26.6887  -32.6061   26.7856 C   0  0  0  0  0  0  0  0  0  0  0  0
  -24.9798  -31.7658   25.2988 C   0  0  0  0  0  0  0  0  0  0  0  0
  -28.2394  -27.2366   20.5315 C   0  0  0  0  0  0  0  0  0  0  0  0
  -29.8007  -25.8828   19.7801 C   0  0  0  0  0  0  0  0  0  0  0  0
  -32.6436  -15.0288   21.1628 C   0  0  0  0  0  0  0  0  0  0  0  0
  -30.6851  -27.8636   21.0221 C   0  0  0  0  0  0  0  0  0  0  0  0
  -24.2450  -14.5418   21.5821 C   0  0  0  0  0  0  0  0  0  0  0  0
  -22.9997  -17.4629   22.2447 C   0  0  0  0  0  0  0  0  0  0  0  0
  -23.4539  -20.5715   23.5776 C   0  0  0  0  0  0  0  0  0  0  0  0
  -28.4049  -20.5984   18.7170 C   0  0  0  0  0  0  0  0  0  0  0  0
  -21.1096  -11.2202   19.3031 C   0  0  0  0  0  0  0  0  0  0  0  0
  -24.7842  -14.7745   24.0339 C   0  0  0  0  0  0  0  0  0  0  0  0
  -25.4953  -17.2117   22.5176 C   0  0  0  0  0  0  0  0  0  0  0  0
  -33.2829  -14.1382   22.2018 C   0  0  0  0  0  0  0  0  0  0  0  0
  -21.3008  -12.7345   19.2784 C   0  0  0  0  0  0  0  0  0  0  0  0
  -33.5374  -15.0784   23.3647 C   0  0  0  0  0  0  0  0  0  0  0  0
  -26.4830  -23.1357   17.1214 C   0  0  0  0  0  0  0  0  0  0  0  0
  -22.7718  -13.0836   19.0751 C   0  0  0  0  0  0  0  0  0  0  0  0
  -26.8834  -24.4136   17.8623 C   0  0  0  0  0  0  0  0  0  0  0  0
  -26.4141  -21.9332   18.0612 C   0  0  0  0  0  0  0  0  0  0  0  0
  -28.0218  -22.9814   19.6059 C   0  0  0  0  0  0  0  0  0  0  0  0
  -23.6303  -12.5476   20.2271 C   0  0  1  0  0  0  0  0  0  0  0  0
  -23.9398  -15.2665   22.8625 C   0  0  1  0  0  0  0  0  0  0  0  0
  -28.1677  -24.2068   18.6890 C   0  0  2  0  0  0  0  0  0  0  0  0
  -32.4052  -16.0944   23.2630 C   0  0  2  0  0  0  0  0  0  0  0  0
  -29.6756  -15.7654   20.3825 C   0  0  0  0  0  0  0  0  0  0  0  0
  -22.2672  -22.7531   23.9377 C   0  0  0  0  0  0  0  0  0  0  0  0
  -23.3929  -18.1599   19.3002 C   0  0  0  0  0  0  0  0  0  0  0  0
  -23.1038  -20.5722   19.9046 C   0  0  0  0  0  0  0  0  0  0  0  0
  -21.2373  -18.9611   20.2831 C   0  0  0  0  0  0  0  0  0  0  0  0
  -23.6975  -20.3516   26.5189 C   0  0  0  0  0  0  0  0  0  0  0  0
  -31.1702  -15.6198   24.0320 C   0  0  0  0  0  0  0  0  0  1  0  0
  -23.2737  -18.8725   21.7790 C   0  0  1  0  0  0  0  0  0  0  0  0
  -22.6038  -21.3933   24.5297 C   0  0  2  0  0  0  0  0  0  0  0  0
  -22.7721  -19.1257   20.3292 C   0  0  0  0  0  0  0  0  0  0  0  0
  -27.5678  -26.2634   19.9105 N   0  0  0  0  0  0  0  0  0  0  0  0
  -28.5446  -25.4556   19.4639 N   0  0  0  0  0  0  0  0  0  0  0  0
  -32.1601  -16.1769   21.8258 N   0  0  0  0  0  0  0  0  0  0  0  0
  -24.1188  -16.6954   22.5975 N   0  0  0  0  0  0  0  0  0  0  0  0
  -27.6667  -21.7974   18.8078 N   0  0  0  0  0  0  0  0  0  0  0  0
  -30.8976  -25.1891   19.4086 N   0  0  0  0  0  0  0  0  0  0  0  0
  -30.3381  -29.0313   21.7153 N   0  0  0  0  0  0  0  0  0  0  0  0
  -29.5947  -20.5974   19.4442 N   0  0  0  0  0  0  0  0  0  0  0  0
  -23.4978  -13.3949   21.3928 N   0  0  0  0  0  0  0  0  0  0  0  0
  -22.6818  -19.7549   22.7787 N   0  0  0  0  0  0  0  0  0  0  0  0
  -23.3254  -21.6063   25.8161 N   0  3  0  0  0  0  0  0  0  0  0  0
  -32.5779  -14.7101   19.9844 O   0  0  0  0  0  0  0  0  0  0  0  0
  -31.8966  -27.5712   20.8797 O   0  0  0  0  0  0  0  0  0  0  0  0
  -25.0945  -14.9908   20.8215 O   0  0  0  0  0  0  0  0  0  0  0  0
  -21.8352  -17.0599   22.3003 O   0  0  0  0  0  0  0  0  0  0  0  0
  -24.6800  -20.6491   23.5434 O   0  0  0  0  0  0  0  0  0  0  0  0
  -28.0241  -19.6529   18.0219 O   0  0  0  0  0  0  0  0  0  0  0  0
  -25.4748  -31.4444   22.9641 O   0  0  0  0  0  0  0  0  0  0  0  0
  -30.1441  -16.6048   23.9170 O   0  0  0  0  0  0  0  0  0  1  0  0
  -27.0793  -32.9773   28.0119 F   0  0  0  0  0  0  0  0  0  0  0  0
  -23.7274  -31.3311   25.1034 F   0  0  0  0  0  0  0  0  0  0  0  0
  1  2  1  0  0  0  0
  1  5  2  0  0  0  0
  2  6  2  0  0  0  0
  3 10  2  0  0  0  0
  3 18  1  0  0  0  0
  4 11  1  0  0  0  0
  4 18  2  0  0  0  0
  5 20  1  0  0  0  0
  6 22  1  0  0  0  0
  7 12  2  0  0  0  0
  7 21  1  0  0  0  0
  8  9  2  0  0  0  0
  8 25  1  0  0  0  0
  9 26  1  0  0  0  0
 10 27  1  0  0  0  0
 11 27  2  0  0  0  0
 12 28  1  0  0  0  0
 13 14  2  0  0  0  0
 13 29  1  0  0  0  0
 14 30  1  0  0  0  0
 15 23  1  0  0  0  0
 15 28  2  0  0  0  0
 16 24  1  0  0  0  0
 16 26  2  0  0  0  0
 17 30  2  0  0  0  0
 17 31  1  0  0  0  0
 18 32  1  0  0  0  0
 19 32  1  0  0  0  0
 19 33  2  0  0  0  0
 19 35  1  0  0  0  0
 20 22  2  0  0  0  0
 20 40  1  0  0  0  0
 21 23  2  0  0  0  0
 21 41  1  0  0  0  0
 22 51  1  0  0  0  0
 23 42  1  0  0  0  0
 24 25  2  0  0  0  0
 24 55  1  0  0  0  0
 25 67  1  0  0  0  0
 26 72  1  0  0  0  0
 27 82  1  0  0  0  0
 28 83  1  0  0  0  0
 29 31  2  0  0  0  0
 29 82  1  0  0  0  0
 30 84  1  0  0  0  0
 31 85  1  0  0  0  0
 32 65  2  0  0  0  0
 33 66  1  0  0  0  0
 33 70  1  0  0  0  0
 34 43  1  0  0  0  0
 34 67  1  0  0  0  0
 34 76  2  0  0  0  0
 35 71  1  0  0  0  0
 35 77  2  0  0  0  0
 36 52  1  0  0  0  0
 36 73  1  0  0  0  0
 36 78  2  0  0  0  0
 37 62  1  0  0  0  0
 37 68  1  0  0  0  0
 37 79  2  0  0  0  0
 38 63  1  0  0  0  0
 38 74  1  0  0  0  0
 38 80  2  0  0  0  0
 39 69  1  0  0  0  0
 39 72  1  0  0  0  0
 39 81  2  0  0  0  0
 40 44  1  0  0  0  0
 41 52  1  0  0  0  0
 42 68  1  0  0  0  0
 43 45  1  0  0  0  0
 44 47  1  0  0  0  0
 45 54  1  0  0  0  0
 46 48  1  0  0  0  0
 46 49  1  0  0  0  0
 47 51  1  0  0  0  0
 48 53  1  0  0  0  0
 49 69  1  0  0  0  0
 50 53  1  0  0  0  0
 50 69  1  0  0  0  0
 51 73  1  0  0  0  0
 52 68  1  0  0  0  0
 53 66  1  0  0  0  0
 54 61  1  0  0  0  0
 54 67  1  0  0  0  0
 56 63  1  0  0  0  0
 57 64  1  0  0  0  0
 58 64  1  0  0  0  0
 59 64  1  0  0  0  0
 60 75  1  0  0  0  0
 61 83  1  0  0  0  0
 62 64  1  0  0  0  0
 62 74  1  0  0  0  0
 63 75  1  0  0  0  0
 65 66  1  0  0  0  0
M  CHG  1  75   1
M  ISO  4  39 100  61 101  72 100  83 101
M  END
> <Batch ID>
0106

> <Smiles>
CNC(C)C(=O)NC(C(=O)N1Cc2cc([101O:1][101CH2:1]C3CCC(=O)N3c3ccc([100NH:0][100C:0](=O)N4CCCC(n5nc(-c6ccc(Oc7ccc(F)cc7F)cc6)c(C(N)=O)c5N)C4)cc3C)ccc2CC1C(=O)NC1CCCc2ccccc21)C(C)(C)C

> <Shape>
0.231

> <Color>
0.065

> <Negative vol penalty>
0.000

$$$$

  -OEChem-04052301143D

 91100  0     1  0  0  0  0  0999 V2000
  -22.1793  -28.5005   27.1082 C   0  0  0  0  0  0  0  0  0  0  0  0
  -22.9957  -27.9447   26.1285 C   0  0  0  0  0  0  0  0  0  0  0  0
  -25.0387   -7.9576   21.7547 C   0  0  0  0  0  0  0  0  0  0  0  0
  -23.6285   -9.9146   21.6182 C   0  0  0  0  0  0  0  0  0  0  0  0
  -20.9745  -29.1041   26.7501 C   0  0  0  0  0  0  0  0  0  0  0  0
  -22.6072  -27.9911   24.7900 C   0  0  0  0  0  0  0  0  0  0  0  0
  -26.3956  -29.3432   21.7135 C   0  0  0  0  0  0  0  0  0  0  0  0
  -28.8435  -20.3674   17.8461 C   0  0  0  0  0  0  0  0  0  0  0  0
  -28.6713  -19.0400   17.4537 C   0  0  0  0  0  0  0  0  0  0  0  0
  -23.9084   -7.1409   21.7237 C   0  0  0  0  0  0  0  0  0  0  0  0
  -22.4982   -9.0979   21.5871 C   0  0  0  0  0  0  0  0  0  0  0  0
  -27.3393  -28.3665   21.3983 C   0  0  0  0  0  0  0  0  0  0  0  0
  -21.3741   -4.5528   22.0430 C   0  0  0  0  0  0  0  0  0  0  0  0
  -21.3126   -3.4933   22.9481 C   0  0  0  0  0  0  0  0  0  0  0  0
  -26.2433  -27.9996   19.2809 C   0  0  0  0  0  0  0  0  0  0  0  0
  -28.3918  -18.3931   19.7646 C   0  0  0  0  0  0  0  0  0  0  0  0
  -21.4526   -5.0553   24.7860 C   0  0  0  0  0  0  0  0  0  0  0  0
  -24.8988   -9.3445   21.7020 C   0  0  0  0  0  0  0  0  0  0  0  0
  -27.0323  -10.2643   22.7555 C   0  0  0  0  0  0  0  0  0  0  0  0
  -20.5757  -29.1665   25.4056 C   0  0  0  0  0  0  0  0  0  0  0  0
  -25.3606  -29.6482   20.8180 C   0  0  0  0  0  0  0  0  0  0  0  0
  -21.3954  -28.5949   24.4137 C   0  0  0  0  0  0  0  0  0  0  0  0
  -25.2892  -28.9823   19.5861 C   0  0  0  0  0  0  0  0  0  0  0  0
  -28.7899  -20.7076   19.1978 C   0  0  0  0  0  0  0  0  0  0  0  0
  -28.4454  -18.0528   18.4129 C   0  0  0  0  0  0  0  0  0  0  0  0
  -22.6382   -7.7110   21.6399 C   0  0  0  0  0  0  0  0  0  0  0  0
  -27.2616  -27.6925   20.1830 C   0  0  0  0  0  0  0  0  0  0  0  0
  -21.4749   -5.8636   22.5093 C   0  0  0  0  0  0  0  0  0  0  0  0
  -21.3518   -3.7446   24.3196 C   0  0  0  0  0  0  0  0  0  0  0  0
  -28.5640  -19.7205   20.1570 C   0  0  0  0  0  0  0  0  0  0  0  0
  -21.5141   -6.1148   23.8808 C   0  0  0  0  0  0  0  0  0  0  0  0
  -26.0660  -10.1887   21.7345 C   0  0  0  0  0  0  0  0  0  0  0  0
  -27.9280  -11.2060   22.3115 C   0  0  0  0  0  0  0  0  0  0  0  0
  -28.5490  -24.4298   19.3241 C   0  0  0  0  0  0  0  0  0  0  0  0
  -28.1533  -23.1388   19.1937 C   0  0  0  0  0  0  0  0  0  0  0  0
  -29.9442  -24.6931   19.8227 C   0  0  0  0  0  0  0  0  0  0  0  0
  -26.3232  -23.5741   17.6912 C   0  0  0  0  0  0  0  0  0  0  0  0
  -26.8190  -22.8410   18.6931 C   0  0  0  0  0  0  0  0  0  0  0  0
  -27.1130   -9.5472   23.9945 C   0  0  0  0  0  0  0  0  0  0  0  0
  -22.1880  -29.4780   20.9145 C   0  0  0  0  0  0  0  0  0  0  0  0
  -22.4095  -30.9712   18.0433 C   0  0  0  0  0  0  0  0  0  0  0  0
  -24.4864  -30.7298   15.1030 C   0  0  0  0  0  0  0  0  0  0  0  0
  -27.4610  -15.7932   18.7538 C   0  0  0  0  0  0  0  0  0  0  0  0
  -19.2423  -29.7874   25.0720 C   0  0  0  0  0  0  0  0  0  0  0  0
  -24.3662  -30.7232   21.1615 C   0  0  0  0  0  0  0  0  0  0  0  0
  -24.2094  -29.2870   18.5813 C   0  0  0  0  0  0  0  0  0  0  0  0
  -30.8552  -23.5186   20.0855 C   0  0  0  0  0  0  0  0  0  0  0  0
  -19.0816  -30.1267   23.5924 C   0  0  0  0  0  0  0  0  0  0  0  0
  -29.7192  -13.0841   18.3012 C   0  0  0  0  0  0  0  0  0  0  0  0
  -19.5354  -28.9575   22.7242 C   0  0  0  0  0  0  0  0  0  0  0  0
  -29.1188  -12.0301   19.2309 C   0  0  0  0  0  0  0  0  0  0  0  0
  -30.0785  -22.2902   20.5242 C   0  0  0  0  0  0  0  0  0  0  0  0
  -28.6405  -13.8763   17.5617 C   0  0  0  0  0  0  0  0  0  0  0  0
  -27.0244  -13.4306   19.3821 C   0  0  0  0  0  0  0  0  0  0  0  0
  -21.0203  -28.6475   22.9486 C   0  0  1  0  0  0  0  0  0  0  0  0
  -23.0540  -30.5904   20.3947 C   0  0  1  0  0  0  0  0  0  0  0  0
  -28.0845  -12.6575   20.1820 C   0  0  1  0  0  0  0  0  0  0  0  0
  -30.7528  -15.8528   15.1972 C   0  0  0  0  0  0  0  0  0  0  0  0
  -25.0943  -32.4585   13.3885 C   0  0  0  0  0  0  0  0  0  0  0  0
  -20.0353  -29.8473   16.4908 C   0  0  0  0  0  0  0  0  0  0  0  0
  -21.3612  -30.1403   14.3874 C   0  0  0  0  0  0  0  0  0  0  0  0
  -20.7664  -32.1283   15.7718 C   0  0  0  0  0  0  0  0  0  0  0  0
  -27.3836  -30.2911   15.5185 C   0  0  0  0  0  0  0  0  0  0  0  0
  -27.7504  -25.6713   19.0291 C   0  0  0  0  0  0  0  0  0  1  0  0
  -30.2568  -16.2446   16.5821 C   0  0  0  0  0  0  0  0  0  0  0  0
  -28.7360  -16.2760   16.6761 C   0  0  0  0  0  0  0  0  0  0  0  0
  -22.5260  -30.5171   16.6083 C   0  0  1  0  0  0  0  0  0  0  0  0
  -25.5356  -31.7277   14.6470 C   0  0  2  0  0  0  0  0  0  0  0  0
  -21.1824  -30.6425   15.8360 C   0  0  0  0  0  0  0  0  0  0  0  0
  -26.3236  -11.0166   20.7185 N   0  0  0  0  0  0  0  0  0  0  0  0
  -27.4618  -11.6214   21.0989 N   0  0  0  0  0  0  0  0  0  0  0  0
  -28.9673  -22.0603   19.5944 N   0  0  0  0  0  0  0  0  0  0  0  0
  -23.2569  -30.3417   18.9660 N   0  0  0  0  0  0  0  0  0  0  0  0
  -27.6547  -14.4211   18.5059 N   0  0  0  0  0  0  0  0  0  0  0  0
  -29.0611  -11.7112   22.8439 N   0  0  0  0  0  0  0  0  0  0  0  0
  -26.4957  -10.0972   25.1262 N   0  0  0  0  0  0  0  0  0  0  0  0
  -21.8482  -29.6056   22.2478 N   0  0  0  0  0  0  0  0  0  0  0  0
  -23.6236  -31.2818   16.0260 N   0  0  0  0  0  0  0  0  0  0  0  0
  -28.2671  -16.6787   18.0065 N   0  0  0  0  0  0  0  0  0  0  0  0
  -26.8219  -31.0321   14.3599 N   0  3  0  0  0  0  0  0  0  0  0  0
  -30.3590  -25.8446   19.9550 O   0  0  0  0  0  0  0  0  0  0  0  0
  -27.7287   -8.4593   24.0987 O   0  0  0  0  0  0  0  0  0  0  0  0
  -21.8516  -28.5718   20.1612 O   0  0  0  0  0  0  0  0  0  0  0  0
  -21.6016  -31.8570   18.3336 O   0  0  0  0  0  0  0  0  0  0  0  0
  -24.4350  -29.5771   14.6796 O   0  0  0  0  0  0  0  0  0  0  0  0
  -26.6151  -16.1971   19.5608 O   0  0  0  0  0  0  0  0  0  0  0  0
  -21.5350   -6.9144   21.6094 O   0  0  0  0  0  0  0  0  0  0  0  0
  -28.1810  -26.7383   19.8731 O   0  0  0  0  0  0  0  0  0  1  0  0
  -21.2912   -2.7272   25.1887 F   0  0  0  0  0  0  0  0  0  0  0  0
  -28.5121  -20.0366   21.4588 F   0  0  0  0  0  0  0  0  0  0  0  0
  -21.6097   -7.3720   24.3347 F   0  0  0  0  0  0  0  0  0  0  0  0
  1  2  1  0  0  0  0
  1  5  2  0  0  0  0
  2  6  2  0  0  0  0
  3 10  2  0  0  0  0
  3 18  1  0  0  0  0
  4 11  1  0  0  0  0
  4 18  2  0  0  0  0
  5 20  1  0  0  0  0
  6 22  1  0  0  0  0
  7 12  2  0  0  0  0
  7 21  1  0  0  0  0
  8  9  2  0  0  0  0
  8 24  1  0  0  0  0
  9 25  1  0  0  0  0
 10 26  1  0  0  0  0
 11 26  2  0  0  0  0
 12 27  1  0  0  0  0
 13 14  2  0  0  0  0
 13 28  1  0  0  0  0
 14 29  1  0  0  0  0
 15 23  1  0  0  0  0
 15 27  2  0  0  0  0
 16 25  2  0  0  0  0
 16 30  1  0  0  0  0
 17 29  2  0  0  0  0
 17 31  1  0  0  0  0
 18 32  1  0  0  0  0
 19 32  1  0  0  0  0
 19 33  2  0  0  0  0
 19 39  1  0  0  0  0
 20 22  2  0  0  0  0
 20 44  1  0  0  0  0
 21 23  2  0  0  0  0
 21 45  1  0  0  0  0
 22 55  1  0  0  0  0
 23 46  1  0  0  0  0
 24 30  2  0  0  0  0
 24 72  1  0  0  0  0
 25 79  1  0  0  0  0
 26 87  1  0  0  0  0
 27 88  1  0  0  0  0
 28 31  2  0  0  0  0
 28 87  1  0  0  0  0
 29 89  1  0  0  0  0
 30 90  1  0  0  0  0
 31 91  1  0  0  0  0
 32 70  2  0  0  0  0
 33 71  1  0  0  0  0
 33 75  1  0  0  0  0
 34 35  2  0  0  0  0
 34 36  1  0  0  0  0
 34 64  1  0  0  0  0
 35 38  1  0  0  0  0
 35 72  1  0  0  0  0
 36 47  1  0  0  0  0
 36 81  2  0  0  0  0
 37 38  2  0  0  0  0
 39 76  1  0  0  0  0
 39 82  2  0  0  0  0
 40 56  1  0  0  0  0
 40 77  1  0  0  0  0
 40 83  2  0  0  0  0
 41 67  1  0  0  0  0
 41 73  1  0  0  0  0
 41 84  2  0  0  0  0
 42 68  1  0  0  0  0
 42 78  1  0  0  0  0
 42 85  2  0  0  0  0
 43 74  1  0  0  0  0
 43 79  1  0  0  0  0
 43 86  2  0  0  0  0
 44 48  1  0  0  0  0
 45 56  1  0  0  0  0
 46 73  1  0  0  0  0
 47 52  1  0  0  0  0
 48 50  1  0  0  0  0
 49 51  1  0  0  0  0
 49 53  1  0  0  0  0
 50 55  1  0  0  0  0
 51 57  1  0  0  0  0
 52 72  1  0  0  0  0
 53 74  1  0  0  0  0
 54 57  1  0  0  0  0
 54 74  1  0  0  0  0
 55 77  1  0  0  0  0
 56 73  1  0  0  0  0
 57 71  1  0  0  0  0
 58 65  1  0  0  0  0
 59 68  1  0  0  0  0
 60 69  1  0  0  0  0
 61 69  1  0  0  0  0
 62 69  1  0  0  0  0
 63 80  1  0  0  0  0
 64 88  1  0  0  0  0
 65 66  1  0  0  0  0
 66 79  1  0  0  0  0
 67 69  1  0  0  0  0
 67 78  1  0  0  0  0
 68 80  1  0  0  0  0
 70 71  1  0  0  0  0
M  CHG  1  80   1
M  ISO  4  43 100  64 101  79 100  88 101
M  END
> <Batch ID>
0106

> <Smiles>
C=CC1=C([101CH2:1][101O:1]c2ccc3c(c2)CN(C(=O)C(NC(=O)C(C)NC)C(C)(C)C)C(C(=O)NC2CCCc4ccccc42)C3)C(=O)CCN1c1ccc([100N:0](CCC)[100C:0](=O)N2CCCC(n3nc(-c4ccc(Oc5ccc(F)cc5F)cc4)c(C(N)=O)c3N)C2)cc1F

> <Shape>
0.293

> <Color>
0.120

> <Negative vol penalty>
0.000

$$$$

  -OEChem-04052301143D

 84 92  0     1  0  0  0  0  0999 V2000
  -22.1217  -11.2253   19.9560 C   0  0  0  0  0  0  0  0  0  0  0  0
  -21.8810  -12.2924   20.8156 C   0  0  0  0  0  0  0  0  0  0  0  0
  -25.2109  -31.2576   22.8240 C   0  0  0  0  0  0  0  0  0  0  0  0
  -23.8492  -32.8319   24.0504 C   0  0  0  0  0  0  0  0  0  0  0  0
  -23.4199  -10.9609   19.5215 C   0  0  0  0  0  0  0  0  0  0  0  0
  -22.9385  -13.0950   21.2420 C   0  0  0  0  0  0  0  0  0  0  0  0
  -22.7754  -19.1154   22.3532 C   0  0  0  0  0  0  0  0  0  0  0  0
  -26.0410  -32.2988   22.4090 C   0  0  0  0  0  0  0  0  0  0  0  0
  -24.6793  -33.8732   23.6355 C   0  0  0  0  0  0  0  0  0  0  0  0
  -22.6494  -19.8485   23.5324 C   0  0  0  0  0  0  0  0  0  0  0  0
  -25.1301  -35.7430   20.8549 C   0  0  0  0  0  0  0  0  0  0  0  0
  -24.5232  -36.9127   20.3976 C   0  0  0  0  0  0  0  0  0  0  0  0
  -25.0483  -20.0781   23.6389 C   0  0  0  0  0  0  0  0  0  0  0  0
  -23.1878  -25.3926   22.2430 C   0  0  0  0  0  0  0  0  0  0  0  0
  -25.6221  -38.1664   22.1463 C   0  0  0  0  0  0  0  0  0  0  0  0
  -24.1149  -31.5241   23.6447 C   0  0  0  0  0  0  0  0  0  0  0  0
  -23.3930  -29.6634   25.2334 C   0  0  0  0  0  0  0  0  0  0  0  0
  -24.4924  -11.7666   19.9351 C   0  0  0  0  0  0  0  0  0  0  0  0
  -24.0416  -18.8484   21.8130 C   0  0  0  0  0  0  0  0  0  0  0  0
  -24.2524  -12.8403   20.8137 C   0  0  0  0  0  0  0  0  0  0  0  0
  -25.1876  -19.3435   22.4514 C   0  0  0  0  0  0  0  0  0  0  0  0
  -22.3785  -25.7816   21.1815 C   0  0  0  0  0  0  0  0  0  0  0  0
  -21.0019  -25.6038   21.2625 C   0  0  0  0  0  0  0  0  0  0  0  0
  -25.7753  -33.6067   22.8147 C   0  0  0  0  0  0  0  0  0  0  0  0
  -23.7861  -20.3275   24.1770 C   0  0  0  0  0  0  0  0  0  0  0  0
  -25.9829  -35.7850   21.9579 C   0  0  0  0  0  0  0  0  0  0  0  0
  -24.7692  -38.1244   21.0433 C   0  0  0  0  0  0  0  0  0  0  0  0
  -26.2289  -36.9967   22.6036 C   0  0  0  0  0  0  0  0  0  0  0  0
  -23.2567  -30.4490   24.0732 C   0  0  0  0  0  0  0  0  0  0  0  0
  -22.5763  -24.8351   23.3544 C   0  0  0  0  0  0  0  0  0  0  0  0
  -20.4882  -25.0366   22.4176 C   0  0  0  0  0  0  0  0  0  0  0  0
  -22.3348  -28.7892   25.1824 C   0  0  0  0  0  0  0  0  0  0  0  0
  -24.3871  -29.7189   26.2650 C   0  0  0  0  0  0  0  0  0  0  0  0
  -25.7111  -16.2124   21.2065 C   0  0  0  0  0  0  0  0  0  0  0  0
  -27.7764  -18.3042   19.8349 C   0  0  0  0  0  0  0  0  0  0  0  0
  -28.9685  -21.4964   19.6465 C   0  0  0  0  0  0  0  0  0  0  0  0
  -19.1212  -26.9588   20.3042 C   0  0  0  0  0  0  0  0  0  0  0  0
  -25.8850  -11.4129   19.4765 C   0  0  0  0  0  0  0  0  0  0  0  0
  -24.1591  -18.0789   20.5259 C   0  0  0  0  0  0  0  0  0  0  0  0
  -26.5687  -19.1016   21.9016 C   0  0  0  0  0  0  0  0  0  0  0  0
  -26.8965  -12.5386   19.6768 C   0  0  0  0  0  0  0  0  0  0  0  0
  -17.8822  -28.3566   23.4985 C   0  0  0  0  0  0  0  0  0  0  0  0
  -26.7605  -13.1361   21.0737 C   0  0  0  0  0  0  0  0  0  0  0  0
  -19.1164  -29.0573   24.0637 C   0  0  0  0  0  0  0  0  0  0  0  0
  -17.9017  -28.3176   21.9735 C   0  0  0  0  0  0  0  0  0  0  0  0
  -20.3784  -28.4041   21.9750 C   0  0  0  0  0  0  0  0  0  0  0  0
  -25.3698  -13.7488   21.2786 C   0  0  1  0  0  0  0  0  0  0  0  0
  -25.5262  -17.4273   20.3420 C   0  0  1  0  0  0  0  0  0  0  0  0
  -20.4022  -28.4208   23.5108 C   0  0  1  0  0  0  0  0  0  0  0  0
  -23.0143  -26.3844   19.9714 C   0  0  0  0  0  0  0  0  0  0  0  0
  -30.6836  -22.8919   18.4597 C   0  0  0  0  0  0  0  0  0  0  0  0
  -29.9660  -17.0948   21.5822 C   0  0  0  0  0  0  0  0  0  0  0  0
  -31.3807  -19.0969   21.0739 C   0  0  0  0  0  0  0  0  0  0  0  0
  -30.6588  -17.5812   19.2289 C   0  0  0  0  0  0  0  0  0  0  0  0
  -20.1706  -25.1968   18.9529 C   0  0  0  0  0  0  0  0  0  0  0  0
  -26.8957  -23.2497   18.4681 C   0  0  0  0  0  0  0  0  0  0  0  0
  -24.0398  -23.1679   26.3788 C   0  0  0  0  0  0  0  0  0  0  0  0
  -22.9087  -23.8581   25.6260 C   0  0  0  0  0  0  0  0  0  0  0  0
  -24.6679  -22.0243   25.5909 C   0  0  0  0  0  0  0  0  0  1  0  0
  -28.9610  -19.1074   20.3151 C   0  0  1  0  0  0  0  0  0  0  0  0
  -29.2445  -22.4001   18.4584 C   0  0  2  0  0  0  0  0  0  0  0  0
  -30.2158  -18.2232   20.5617 C   0  0  0  0  0  0  0  0  0  0  0  0
  -22.1957  -30.1042   23.3387 N   0  0  0  0  0  0  0  0  0  0  0  0
  -21.2426  -24.6464   23.4694 N   0  0  0  0  0  0  0  0  0  0  0  0
  -21.6557  -29.0923   24.0391 N   0  0  0  0  0  0  0  0  0  0  0  0
  -26.6319  -18.3386   20.6440 N   0  0  0  0  0  0  0  0  0  0  0  0
  -19.1563  -27.7648   21.4606 N   0  0  0  0  0  0  0  0  0  0  0  0
  -19.0859  -24.8495   22.5106 N   0  0  0  0  0  0  0  0  0  0  0  0
  -21.9284  -27.7984   26.0043 N   0  0  0  0  0  0  0  0  0  0  0  0
  -25.4041  -30.6777   26.1619 N   0  0  0  0  0  0  0  0  0  0  0  0
  -23.3960  -24.4519   24.4045 N   0  0  0  0  0  0  0  0  0  0  0  0
  -25.2827  -15.0357   20.6222 N   0  0  0  0  0  0  0  0  0  0  0  0
  -29.1606  -20.1675   19.3329 N   0  0  0  0  0  0  0  0  0  0  0  0
  -20.1456  -26.0020   20.1721 N   0  0  0  0  0  0  0  0  0  0  0  0
  -28.3426  -23.5861   18.4891 N   0  3  0  0  0  0  0  0  0  0  0  0
  -24.3833  -28.9305   27.2407 O   0  0  0  0  0  0  0  0  0  0  0  0
  -26.2072  -16.3333   22.3204 O   0  0  0  0  0  0  0  0  0  0  0  0
  -27.8610  -17.6754   18.7770 O   0  0  0  0  0  0  0  0  0  0  0  0
  -28.6211  -21.9266   20.7441 O   0  0  0  0  0  0  0  0  0  0  0  0
  -18.2686  -27.1171   19.4218 O   0  0  0  0  0  0  0  0  0  0  0  0
  -26.5852  -34.6229   22.4102 O   0  0  0  0  0  0  0  0  0  0  0  0
  -23.6659  -21.0427   25.3285 O   0  0  0  0  0  0  0  0  0  1  0  0
  -24.1876  -39.2478   20.6031 F   0  0  0  0  0  0  0  0  0  0  0  0
  -27.0482  -37.0434   23.6630 F   0  0  0  0  0  0  0  0  0  0  0  0
  1  2  1  0  0  0  0
  1  5  2  0  0  0  0
  2  6  2  0  0  0  0
  3  8  2  0  0  0  0
  3 16  1  0  0  0  0
  4  9  1  0  0  0  0
  4 16  2  0  0  0  0
  5 18  1  0  0  0  0
  6 20  1  0  0  0  0
  7 10  2  0  0  0  0
  7 19  1  0  0  0  0
  8 24  1  0  0  0  0
  9 24  2  0  0  0  0
 10 25  1  0  0  0  0
 11 12  2  0  0  0  0
 11 26  1  0  0  0  0
 12 27  1  0  0  0  0
 13 21  1  0  0  0  0
 13 25  2  0  0  0  0
 14 22  2  0  0  0  0
 14 30  1  0  0  0  0
 15 27  2  0  0  0  0
 15 28  1  0  0  0  0
 16 29  1  0  0  0  0
 17 29  1  0  0  0  0
 17 32  2  0  0  0  0
 17 33  1  0  0  0  0
 18 20  2  0  0  0  0
 18 38  1  0  0  0  0
 19 21  2  0  0  0  0
 19 39  1  0  0  0  0
 20 47  1  0  0  0  0
 21 40  1  0  0  0  0
 22 23  1  0  0  0  0
 22 50  1  0  0  0  0
 23 31  2  0  0  0  0
 23 74  1  0  0  0  0
 24 81  1  0  0  0  0
 25 82  1  0  0  0  0
 26 28  2  0  0  0  0
 26 81  1  0  0  0  0
 27 83  1  0  0  0  0
 28 84  1  0  0  0  0
 29 63  2  0  0  0  0
 30 64  2  0  0  0  0
 30 71  1  0  0  0  0
 31 64  1  0  0  0  0
 31 68  1  0  0  0  0
 32 65  1  0  0  0  0
 32 69  1  0  0  0  0
 33 70  1  0  0  0  0
 33 76  2  0  0  0  0
 34 48  1  0  0  0  0
 34 72  1  0  0  0  0
 34 77  2  0  0  0  0
 35 60  1  0  0  0  0
 35 66  1  0  0  0  0
 35 78  2  0  0  0  0
 36 61  1  0  0  0  0
 36 73  1  0  0  0  0
 36 79  2  0  0  0  0
 37 67  1  0  0  0  0
 37 74  1  0  0  0  0
 37 80  2  0  0  0  0
 38 41  1  0  0  0  0
 39 48  1  0  0  0  0
 40 66  1  0  0  0  0
 41 43  1  0  0  0  0
 42 44  1  0  0  0  0
 42 45  1  0  0  0  0
 43 47  1  0  0  0  0
 44 49  1  0  0  0  0
 45 67  1  0  0  0  0
 46 49  1  0  0  0  0
 46 67  1  0  0  0  0
 47 72  1  0  0  0  0
 48 66  1  0  0  0  0
 49 65  1  0  0  0  0
 51 61  1  0  0  0  0
 52 62  1  0  0  0  0
 53 62  1  0  0  0  0
 54 62  1  0  0  0  0
 55 74  1  0  0  0  0
 56 75  1  0  0  0  0
 57 58  1  0  0  0  0
 57 59  1  0  0  0  0
 58 71  1  0  0  0  0
 59 82  1  0  0  0  0
 60 62  1  0  0  0  0
 60 73  1  0  0  0  0
 61 75  1  0  0  0  0
 63 65  1  0  0  0  0
M  CHG  1  75   1
M  ISO  4  37 100  59 101  74 100  82 101
M  END
> <Batch ID>
0106

> <Smiles>
CNC(C)C(=O)NC(C(=O)N1Cc2cc([101O:1][101CH2:1]CCNc3cc(C)c([100N:0](C)[100C:0](=O)N4CCCC(n5nc(-c6ccc(Oc7ccc(F)cc7F)cc6)c(C(N)=O)c5N)C4)c(N)n3)ccc2CC1C(=O)NC1CCCc2ccccc21)C(C)(C)C

> <Shape>
0.255

> <Color>
0.062

> <Negative vol penalty>
0.000

$$$$

  -OEChem-04052301143D

 92100  0     1  0  0  0  0  0999 V2000
  -22.8780  -37.2460   16.7341 C   0  0  0  0  0  0  0  0  0  0  0  0
  -23.3124  -35.9879   16.3290 C   0  0  0  0  0  0  0  0  0  0  0  0
  -26.6899  -16.5866   23.1769 C   0  0  0  0  0  0  0  0  0  0  0  0
  -26.3860  -17.9724   21.2213 C   0  0  0  0  0  0  0  0  0  0  0  0
  -23.2277  -37.7307   17.9937 C   0  0  0  0  0  0  0  0  0  0  0  0
  -24.0977  -35.2144   17.1829 C   0  0  0  0  0  0  0  0  0  0  0  0
  -25.3602  -28.3893   18.9554 C   0  0  0  0  0  0  0  0  0  0  0  0
  -26.9121  -17.7261   23.9499 C   0  0  0  0  0  0  0  0  0  0  0  0
  -26.6081  -19.1120   21.9944 C   0  0  0  0  0  0  0  0  0  0  0  0
  -26.4168  -27.4905   19.0946 C   0  0  0  0  0  0  0  0  0  0  0  0
  -24.8655  -21.0227   24.1699 C   0  0  0  0  0  0  0  0  0  0  0  0
  -24.0022  -22.1036   23.9911 C   0  0  0  0  0  0  0  0  0  0  0  0
  -26.8930  -28.3978   21.2785 C   0  0  0  0  0  0  0  0  0  0  0  0
  -30.8743  -19.3840   21.4834 C   0  0  0  0  0  0  0  0  0  0  0  0
  -31.2484  -17.0229   21.1341 C   0  0  0  0  0  0  0  0  0  0  0  0
  -25.8721  -23.4899   23.3438 C   0  0  0  0  0  0  0  0  0  0  0  0
  -26.4269  -16.7097   21.8125 C   0  0  0  0  0  0  0  0  0  0  0  0
  -24.9639  -14.9046   20.7595 C   0  0  0  0  0  0  0  0  0  0  0  0
  -24.0097  -36.9587   18.8673 C   0  0  0  0  0  0  0  0  0  0  0  0
  -25.0684  -29.3081   19.9738 C   0  0  0  0  0  0  0  0  0  0  0  0
  -24.4594  -35.6898   18.4549 C   0  0  0  0  0  0  0  0  0  0  0  0
  -25.8305  -29.3056   21.1508 C   0  0  0  0  0  0  0  0  0  0  0  0
  -31.4696  -18.1846   21.8739 C   0  0  0  0  0  0  0  0  0  0  0  0
  -30.0577  -19.4218   20.3531 C   0  0  0  0  0  0  0  0  0  0  0  0
  -30.4319  -17.0607   20.0038 C   0  0  0  0  0  0  0  0  0  0  0  0
  -26.8712  -18.9889   23.3587 C   0  0  0  0  0  0  0  0  0  0  0  0
  -27.1852  -27.4965   20.2551 C   0  0  0  0  0  0  0  0  0  0  0  0
  -26.2321  -21.1754   23.9357 C   0  0  0  0  0  0  0  0  0  0  0  0
  -29.8365  -18.2601   19.6133 C   0  0  0  0  0  0  0  0  0  0  0  0
  -24.5055  -23.3372   23.5781 C   0  0  0  0  0  0  0  0  0  0  0  0
  -26.7353  -22.4090   23.5226 C   0  0  0  0  0  0  0  0  0  0  0  0
  -26.1979  -15.5329   21.0133 C   0  0  0  0  0  0  0  0  0  0  0  0
  -25.2808  -13.8384   19.9537 C   0  0  0  0  0  0  0  0  0  0  0  0
  -23.6488  -15.2535   21.2117 C   0  0  0  0  0  0  0  0  0  0  0  0
  -25.0324  -32.4791   20.1914 C   0  0  0  0  0  0  0  0  0  0  0  0
  -23.8044  -31.8741   23.1323 C   0  0  0  0  0  0  0  0  0  0  0  0
  -29.5822  -21.8825   20.6005 C   0  0  0  0  0  0  0  0  0  0  0  0
  -32.0218  -19.6835   25.0204 C   0  0  0  0  0  0  0  0  0  0  0  0
  -23.4743  -29.7012   25.7431 C   0  0  0  0  0  0  0  0  0  0  0  0
  -30.7351  -14.6048   19.5290 C   0  0  0  0  0  0  0  0  0  0  0  0
  -24.4019  -37.5446   20.2005 C   0  0  0  0  0  0  0  0  0  0  0  0
  -23.9085  -30.2532   19.8194 C   0  0  0  0  0  0  0  0  0  0  0  0
  -25.5456  -30.2582   22.2821 C   0  0  0  0  0  0  0  0  0  0  0  0
  -24.9239  -36.5076   21.1917 C   0  0  0  0  0  0  0  0  0  0  0  0
  -29.2433  -11.1308   19.2806 C   0  0  0  0  0  0  0  0  0  0  0  0
  -25.9361  -35.5869   20.5175 C   0  0  0  0  0  0  0  0  0  0  0  0
  -27.9240  -11.7024   19.7926 C   0  0  0  0  0  0  0  0  0  0  0  0
  -30.3613  -12.1684   19.3830 C   0  0  0  0  0  0  0  0  0  0  0  0
  -28.6876  -13.6514   18.3064 C   0  0  0  0  0  0  0  0  0  0  0  0
  -25.2921  -34.8106   19.3625 C   0  0  1  0  0  0  0  0  0  0  0  0
  -24.0239  -31.4904   20.7045 C   0  0  1  0  0  0  0  0  0  0  0  0
  -27.4928  -12.9370   18.9704 C   0  0  2  0  0  0  0  0  0  0  0  0
  -31.6543  -21.1987   27.0163 C   0  0  0  0  0  0  0  0  0  0  0  0
  -22.4443  -29.5030   28.0228 C   0  0  0  0  0  0  0  0  0  0  0  0
  -26.0090  -33.6444   24.2794 C   0  0  0  0  0  0  0  0  0  0  0  0
  -25.5296  -32.6621   26.5319 C   0  0  0  0  0  0  0  0  0  0  0  0
  -23.7641  -33.9569   25.3364 C   0  0  0  0  0  0  0  0  0  0  0  0
  -30.5087  -17.7024   24.6705 C   0  0  0  0  0  0  0  0  0  0  0  0
  -21.7884  -27.4158   24.9100 C   0  0  0  0  0  0  0  0  0  0  0  0
  -29.6701  -18.5814   17.2628 C   0  0  0  0  0  0  0  0  0  0  0  0
  -32.3411  -18.1440   23.0835 C   0  0  0  0  0  0  0  0  0  0  0  0
  -28.7743  -22.9398   19.8608 C   0  0  0  0  0  0  0  0  0  0  0  0
  -31.1799  -19.9707   26.2556 C   0  0  0  0  0  0  0  0  0  0  0  0
  -28.8733  -24.3157   20.5104 C   0  0  0  0  0  0  0  0  0  0  0  0
  -28.0970  -25.3644   19.7273 C   0  0  0  0  0  0  0  0  0  1  0  0
  -24.3848  -31.6504   24.5078 C   0  0  1  0  0  0  0  0  0  0  0  0
  -22.2581  -29.2544   26.5341 C   0  0  2  0  0  0  0  0  0  0  0  0
  -24.9287  -32.9617   25.1420 C   0  0  0  0  0  0  0  0  0  0  0  0
  -27.2223  -14.9172   20.4171 N   0  0  0  0  0  0  0  0  0  0  0  0
  -26.6327  -13.8907   19.7808 N   0  0  0  0  0  0  0  0  0  0  0  0
  -24.4050  -31.1671   22.0809 N   0  0  0  0  0  0  0  0  0  0  0  0
  -29.9099  -13.5365   19.1130 N   0  0  0  0  0  0  0  0  0  0  0  0
  -24.5322  -12.8706   19.3833 N   0  0  0  0  0  0  0  0  0  0  0  0
  -23.5016  -16.3793   22.0334 N   0  0  0  0  0  0  0  0  0  0  0  0
  -29.4607  -20.6467   19.9713 N   0  0  0  0  0  0  0  0  0  0  0  0
  -30.2160  -15.8712   19.2656 N   0  0  0  0  0  0  0  0  0  0  0  0
  -24.4984  -33.7129   19.8719 N   0  0  0  0  0  0  0  0  0  0  0  0
  -23.3411  -30.9966   25.2899 N   0  0  0  0  0  0  0  0  0  0  0  0
  -31.6412  -18.5469   24.2768 N   0  0  0  0  0  0  0  0  0  0  0  0
  -22.0119  -27.7991   26.3278 N   0  3  0  0  0  0  0  0  0  0  0  0
  -22.6364  -14.5771   20.9099 O   0  0  0  0  0  0  0  0  0  0  0  0
  -26.2081  -32.1476   20.0942 O   0  0  0  0  0  0  0  0  0  0  0  0
  -22.8488  -32.6421   22.9967 O   0  0  0  0  0  0  0  0  0  0  0  0
  -30.2309  -22.1453   21.6077 O   0  0  0  0  0  0  0  0  0  0  0  0
  -32.9669  -20.4192   24.7235 O   0  0  0  0  0  0  0  0  0  0  0  0
  -24.4468  -28.9750   25.5499 O   0  0  0  0  0  0  0  0  0  0  0  0
  -31.8075  -14.4015   20.1043 O   0  0  0  0  0  0  0  0  0  0  0  0
  -27.0877  -20.1011   24.1128 O   0  0  0  0  0  0  0  0  0  0  0  0
  -29.0370  -18.2968   18.5072 O   0  0  0  0  0  0  0  0  0  0  0  0
  -28.2175  -26.6207   20.3933 O   0  0  0  0  0  0  0  0  0  1  0  0
  -23.6761  -24.3747   23.4050 F   0  0  0  0  0  0  0  0  0  0  0  0
  -28.0471  -22.5614   23.2949 F   0  0  0  0  0  0  0  0  0  0  0  0
  1  2  1  0  0  0  0
  1  5  2  0  0  0  0
  2  6  2  0  0  0  0
  3  8  2  0  0  0  0
  3 17  1  0  0  0  0
  4  9  1  0  0  0  0
  4 17  2  0  0  0  0
  5 19  1  0  0  0  0
  6 21  1  0  0  0  0
  7 10  2  0  0  0  0
  7 20  1  0  0  0  0
  8 26  1  0  0  0  0
  9 26  2  0  0  0  0
 10 27  1  0  0  0  0
 11 12  2  0  0  0  0
 11 28  1  0  0  0  0
 12 30  1  0  0  0  0
 13 22  1  0  0  0  0
 13 27  2  0  0  0  0
 14 23  1  0  0  0  0
 14 24  2  0  0  0  0
 15 23  2  0  0  0  0
 15 25  1  0  0  0  0
 16 30  2  0  0  0  0
 16 31  1  0  0  0  0
 17 32  1  0  0  0  0
 18 32  1  0  0  0  0
 18 33  2  0  0  0  0
 18 34  1  0  0  0  0
 19 21  2  0  0  0  0
 19 41  1  0  0  0  0
 20 22  2  0  0  0  0
 20 42  1  0  0  0  0
 21 50  1  0  0  0  0
 22 43  1  0  0  0  0
 23 61  1  0  0  0  0
 24 29  1  0  0  0  0
 24 75  1  0  0  0  0
 25 29  2  0  0  0  0
 25 76  1  0  0  0  0
 26 88  1  0  0  0  0
 27 90  1  0  0  0  0
 28 31  2  0  0  0  0
 28 88  1  0  0  0  0
 29 89  1  0  0  0  0
 30 91  1  0  0  0  0
 31 92  1  0  0  0  0
 32 69  2  0  0  0  0
 33 70  1  0  0  0  0
 33 73  1  0  0  0  0
 34 74  1  0  0  0  0
 34 81  2  0  0  0  0
 35 51  1  0  0  0  0
 35 77  1  0  0  0  0
 35 82  2  0  0  0  0
 36 66  1  0  0  0  0
 36 71  1  0  0  0  0
 36 83  2  0  0  0  0
 37 62  1  0  0  0  0
 37 75  1  0  0  0  0
 37 84  2  0  0  0  0
 38 63  1  0  0  0  0
 38 79  1  0  0  0  0
 38 85  2  0  0  0  0
 39 67  1  0  0  0  0
 39 78  1  0  0  0  0
 39 86  2  0  0  0  0
 40 72  1  0  0  0  0
 40 76  1  0  0  0  0
 40 87  2  0  0  0  0
 41 44  1  0  0  0  0
 42 51  1  0  0  0  0
 43 71  1  0  0  0  0
 44 46  1  0  0  0  0
 45 47  1  0  0  0  0
 45 48  1  0  0  0  0
 46 50  1  0  0  0  0
 47 52  1  0  0  0  0
 48 72  1  0  0  0  0
 49 52  1  0  0  0  0
 49 72  1  0  0  0  0
 50 77  1  0  0  0  0
 51 71  1  0  0  0  0
 52 70  1  0  0  0  0
 53 63  1  0  0  0  0
 54 67  1  0  0  0  0
 55 68  1  0  0  0  0
 56 68  1  0  0  0  0
 57 68  1  0  0  0  0
 58 79  1  0  0  0  0
 59 80  1  0  0  0  0
 60 89  1  0  0  0  0
 61 79  1  0  0  0  0
 62 64  1  0  0  0  0
 64 65  1  0  0  0  0
 65 90  1  0  0  0  0
 66 68  1  0  0  0  0
 66 78  1  0  0  0  0
 67 80  1  0  0  0  0
 69 70  1  0  0  0  0
M  CHG  1  80   1
M  ISO  4  40 100  65 101  76 100  90 101
M  END
> <Batch ID>
0106

> <Smiles>
CCC(=O)N(C)Cc1cc(NC(=O)CC[101CH2:1][101O:1]c2ccc3c(c2)CN(C(=O)C(NC(=O)C(C)NC)C(C)(C)C)C(C(=O)NC2CCCc4ccccc42)C3)c(OC)c([100NH:0][100C:0](=O)N2CCCC(n3nc(-c4ccc(Oc5ccc(F)cc5F)cc4)c(C(N)=O)c3N)C2)c1

> <Shape>
0.242

> <Color>
0.106

> <Negative vol penalty>
0.000

$$$$

  -OEChem-04052301143D

 87 95  0     1  0  0  0  0  0999 V2000
  -25.3817  -31.4135   29.2019 C   0  0  0  0  0  0  0  0  0  0  0  0
  -25.8481  -30.1028   29.1946 C   0  0  0  0  0  0  0  0  0  0  0  0
  -23.3350   -9.7021   20.0835 C   0  0  0  0  0  0  0  0  0  0  0  0
  -23.8060  -10.0194   22.4318 C   0  0  0  0  0  0  0  0  0  0  0  0
  -24.9437  -32.0029   28.0167 C   0  0  0  0  0  0  0  0  0  0  0  0
  -25.8757  -29.3804   28.0022 C   0  0  0  0  0  0  0  0  0  0  0  0
  -30.0319  -25.2086   26.3206 C   0  0  0  0  0  0  0  0  0  0  0  0
  -22.6460   -8.5262   20.3805 C   0  0  0  0  0  0  0  0  0  0  0  0
  -23.1169   -8.8435   22.7289 C   0  0  0  0  0  0  0  0  0  0  0  0
  -30.0317  -23.8150   26.3615 C   0  0  0  0  0  0  0  0  0  0  0  0
  -19.9008   -7.8562   23.0488 C   0  0  0  0  0  0  0  0  0  0  0  0
  -19.0106   -7.8821   24.1223 C   0  0  0  0  0  0  0  0  0  0  0  0
  -29.3065  -23.7536   24.0616 C   0  0  0  0  0  0  0  0  0  0  0  0
  -30.6100  -16.4106   24.0900 C   0  0  0  0  0  0  0  0  0  0  0  0
  -28.5215  -15.3002   24.5820 C   0  0  0  0  0  0  0  0  0  0  0  0
  -20.2809   -6.1432   25.2177 C   0  0  0  0  0  0  0  0  0  0  0  0
  -23.9151  -10.4486   21.1091 C   0  0  0  0  0  0  0  0  0  0  0  0
  -30.2429  -14.1423   23.3440 C   0  0  0  0  0  0  0  0  0  0  0  0
  -24.0971  -12.9652   20.7335 C   0  0  0  0  0  0  0  0  0  0  0  0
  -24.9750  -31.2906   26.8075 C   0  0  0  0  0  0  0  0  0  0  0  0
  -29.6582  -25.8864   25.1513 C   0  0  0  0  0  0  0  0  0  0  0  0
  -25.4364  -29.9605   26.8000 C   0  0  0  0  0  0  0  0  0  0  0  0
  -29.3052  -25.1558   24.0077 C   0  0  0  0  0  0  0  0  0  0  0  0
  -31.0614  -15.2685   23.4287 C   0  0  0  0  0  0  0  0  0  0  0  0
  -29.3400  -16.4265   24.6667 C   0  0  0  0  0  0  0  0  0  0  0  0
  -22.5369   -8.0970   21.7032 C   0  0  0  0  0  0  0  0  0  0  0  0
  -29.6662  -23.0873   25.2328 C   0  0  0  0  0  0  0  0  0  0  0  0
  -20.9810   -6.9737   23.0597 C   0  0  0  0  0  0  0  0  0  0  0  0
  -28.9729  -14.1581   23.9207 C   0  0  0  0  0  0  0  0  0  0  0  0
  -19.2006   -7.0257   25.2067 C   0  0  0  0  0  0  0  0  0  0  0  0
  -21.1711   -6.1173   24.1441 C   0  0  0  0  0  0  0  0  0  0  0  0
  -24.6274  -11.6630   20.8028 C   0  0  0  0  0  0  0  0  0  0  0  0
  -25.1722  -13.7571   20.4117 C   0  0  0  0  0  0  0  0  0  0  0  0
  -30.7084  -12.9452   22.6521 C   0  0  0  0  0  0  0  0  0  0  0  0
  -22.7529  -13.4185   20.9414 C   0  0  0  0  0  0  0  0  0  0  0  0
  -31.0785  -12.9819   21.2186 C   0  0  0  0  0  0  0  0  0  0  0  0
  -27.3360  -27.9149   24.3792 C   0  0  0  0  0  0  0  0  0  0  0  0
  -28.9457  -28.0791   21.5677 C   0  0  0  0  0  0  0  0  0  0  0  0
  -29.5625  -18.7871   25.5164 C   0  0  0  0  0  0  0  0  0  0  0  0
  -31.1025  -26.6024   19.3736 C   0  0  0  0  0  0  0  0  0  0  0  0
  -24.4469  -31.9541   25.5602 C   0  0  0  0  0  0  0  0  0  0  0  0
  -29.6894  -27.3898   25.1152 C   0  0  0  0  0  0  0  0  0  0  0  0
  -28.9155  -25.8356   22.7214 C   0  0  0  0  0  0  0  0  0  0  0  0
  -24.8595  -31.2461   24.2723 C   0  0  0  0  0  0  0  0  0  0  0  0
  -29.3702  -13.6473   18.1372 C   0  0  0  0  0  0  0  0  0  0  0  0
  -24.6441  -29.7413   24.3979 C   0  0  0  0  0  0  0  0  0  0  0  0
  -27.9175  -13.2949   18.4556 C   0  0  0  0  0  0  0  0  0  0  0  0
  -30.3415  -12.7364   18.8808 C   0  0  0  0  0  0  0  0  0  0  0  0
  -28.6829  -12.3661   20.6865 C   0  0  0  0  0  0  0  0  0  0  0  0
  -25.5050  -29.1527   25.5221 C   0  0  1  0  0  0  0  0  0  0  0  0
  -28.7957  -27.9801   24.0288 C   0  0  1  0  0  0  0  0  0  0  0  0
  -27.6726  -13.2828   19.9749 C   0  0  2  0  0  0  0  0  0  0  0  0
  -32.4685  -16.0570   21.5091 C   0  0  0  0  0  0  0  0  0  0  0  0
  -32.1987  -26.9622   17.1450 C   0  0  0  0  0  0  0  0  0  0  0  0
  -26.3217  -27.3942   20.1692 C   0  0  0  0  0  0  0  0  0  0  0  0
  -27.6419  -26.8386   18.1157 C   0  0  0  0  0  0  0  0  0  0  0  0
  -27.6806  -29.1587   19.0315 C   0  0  0  0  0  0  0  0  0  0  0  0
  -33.8113  -26.5243   20.5632 C   0  0  0  0  0  0  0  0  0  0  0  0
  -26.8767  -13.1770   24.4676 C   0  0  0  0  0  0  0  0  0  0  0  0
  -32.4265  -15.2804   22.8214 C   0  0  0  0  0  0  0  0  0  0  0  0
  -28.7043  -19.7745   26.2991 C   0  0  0  0  0  0  0  0  0  0  0  0
  -29.3913  -21.1122   26.5286 C   0  0  0  0  0  0  0  0  0  1  0  0
  -28.9008  -27.3191   20.2641 C   0  0  1  0  0  0  0  0  0  0  0  0
  -32.3260  -27.1360   18.6505 C   0  0  2  0  0  0  0  0  0  0  0  0
  -27.6417  -27.6645   19.4198 C   0  0  0  0  0  0  0  0  0  0  0  0
  -25.9376  -11.6255   20.5457 N   0  0  0  0  0  0  0  0  0  0  0  0
  -30.8295  -11.7867   23.2366 N   0  0  0  0  0  0  0  0  0  0  0  0
  -26.2395  -12.9139   20.3115 N   0  0  0  0  0  0  0  0  0  0  0  0
  -30.0585  -12.7201   20.3146 N   0  0  0  0  0  0  0  0  0  0  0  0
  -28.9555  -27.3072   22.7381 N   0  0  0  0  0  0  0  0  0  0  0  0
  -25.2993  -15.0855   20.2075 N   0  0  0  0  0  0  0  0  0  0  0  0
  -21.7712  -12.4721   21.2654 N   0  0  0  0  0  0  0  0  0  0  0  0
  -28.8826  -17.5852   25.3383 N   0  0  0  0  0  0  0  0  0  0  0  0
  -26.8776  -29.0103   25.0859 N   0  0  0  0  0  0  0  0  0  0  0  0
  -30.1655  -27.5907   19.5895 N   0  0  0  0  0  0  0  0  0  0  0  0
  -33.5503  -26.4177   19.1046 N   0  3  0  0  0  0  0  0  0  0  0  0
  -22.4285  -14.6248   20.8266 O   0  0  0  0  0  0  0  0  0  0  0  0
  -32.2516  -13.2404   20.9833 O   0  0  0  0  0  0  0  0  0  0  0  0
  -26.6742  -26.9435   24.0326 O   0  0  0  0  0  0  0  0  0  0  0  0
  -28.9783  -29.3121   21.5481 O   0  0  0  0  0  0  0  0  0  0  0  0
  -30.6898  -19.0696   25.1245 O   0  0  0  0  0  0  0  0  0  0  0  0
  -30.9878  -25.4258   19.7097 O   0  0  0  0  0  0  0  0  0  0  0  0
  -21.8644   -6.9498   21.9935 O   0  0  0  0  0  0  0  0  0  0  0  0
  -28.1569  -13.0686   23.8491 O   0  0  0  0  0  0  0  0  0  0  0  0
  -29.6645  -21.7270   25.2702 O   0  0  0  0  0  0  0  0  0  1  0  0
  -18.3466   -7.0517   26.2383 F   0  0  0  0  0  0  0  0  0  0  0  0
  -22.2077   -5.2681   24.1607 F   0  0  0  0  0  0  0  0  0  0  0  0
  1  2  1  0  0  0  0
  1  5  2  0  0  0  0
  2  6  2  0  0  0  0
  3  8  2  0  0  0  0
  3 17  1  0  0  0  0
  4  9  1  0  0  0  0
  4 17  2  0  0  0  0
  5 20  1  0  0  0  0
  6 22  1  0  0  0  0
  7 10  2  0  0  0  0
  7 21  1  0  0  0  0
  8 26  1  0  0  0  0
  9 26  2  0  0  0  0
 10 27  1  0  0  0  0
 11 12  2  0  0  0  0
 11 28  1  0  0  0  0
 12 30  1  0  0  0  0
 13 23  1  0  0  0  0
 13 27  2  0  0  0  0
 14 24  1  0  0  0  0
 14 25  2  0  0  0  0
 15 25  1  0  0  0  0
 15 29  2  0  0  0  0
 16 30  2  0  0  0  0
 16 31  1  0  0  0  0
 17 32  1  0  0  0  0
 18 24  2  0  0  0  0
 18 29  1  0  0  0  0
 18 34  1  0  0  0  0
 19 32  1  0  0  0  0
 19 33  2  0  0  0  0
 19 35  1  0  0  0  0
 20 22  2  0  0  0  0
 20 41  1  0  0  0  0
 21 23  2  0  0  0  0
 21 42  1  0  0  0  0
 22 50  1  0  0  0  0
 23 43  1  0  0  0  0
 24 60  1  0  0  0  0
 25 73  1  0  0  0  0
 26 83  1  0  0  0  0
 27 85  1  0  0  0  0
 28 31  2  0  0  0  0
 28 83  1  0  0  0  0
 29 84  1  0  0  0  0
 30 86  1  0  0  0  0
 31 87  1  0  0  0  0
 32 66  2  0  0  0  0
 33 68  1  0  0  0  0
 33 71  1  0  0  0  0
 34 36  1  0  0  0  0
 34 67  2  0  0  0  0
 35 72  1  0  0  0  0
 35 77  2  0  0  0  0
 36 69  1  0  0  0  0
 36 78  2  0  0  0  0
 37 51  1  0  0  0  0
 37 74  1  0  0  0  0
 37 79  2  0  0  0  0
 38 63  1  0  0  0  0
 38 70  1  0  0  0  0
 38 80  2  0  0  0  0
 39 61  1  0  0  0  0
 39 73  1  0  0  0  0
 39 81  2  0  0  0  0
 40 64  1  0  0  0  0
 40 75  1  0  0  0  0
 40 82  2  0  0  0  0
 41 44  1  0  0  0  0
 42 51  1  0  0  0  0
 43 70  1  0  0  0  0
 44 46  1  0  0  0  0
 45 47  1  0  0  0  0
 45 48  1  0  0  0  0
 46 50  1  0  0  0  0
 47 52  1  0  0  0  0
 48 69  1  0  0  0  0
 49 52  1  0  0  0  0
 49 69  1  0  0  0  0
 50 74  1  0  0  0  0
 51 70  1  0  0  0  0
 52 68  1  0  0  0  0
 53 60  1  0  0  0  0
 54 64  1  0  0  0  0
 55 65  1  0  0  0  0
 56 65  1  0  0  0  0
 57 65  1  0  0  0  0
 58 76  1  0  0  0  0
 59 84  1  0  0  0  0
 61 62  1  0  0  0  0
 62 85  1  0  0  0  0
 63 65  1  0  0  0  0
 63 75  1  0  0  0  0
 64 76  1  0  0  0  0
 66 68  1  0  0  0  0
M  CHG  1  76   1
M  ISO  4  34 100  36 100  62 101  85 101
M  END
> <Batch ID>
0106

> <Smiles>
CCc1cc(NC(=O)C[101CH2:1][101O:1]c2ccc3c(c2)CN(C(=O)C(NC(=O)C(C)NC)C(C)(C)C)C(C(=O)NC2CCCc4ccccc42)C3)cc(OC)c1[100C:0](=N)[100C:0](=O)N1CCCC(n2nc(-c3ccc(Oc4ccc(F)cc4F)cc3)c(C(N)=O)c2N)C1

> <Shape>
0.238

> <Color>
0.175

> <Negative vol penalty>
0.000

$$$$

  -OEChem-04052301143D

 87 96  0     1  0  0  0  0  0999 V2000
  -17.1701  -25.8519   24.8987 C   0  0  0  0  0  0  0  0  0  0  0  0
  -18.3998  -25.4833   25.4351 C   0  0  0  0  0  0  0  0  0  0  0  0
  -24.3106   -9.1295   21.5217 C   0  0  0  0  0  0  0  0  0  0  0  0
  -23.6549  -11.0728   22.7988 C   0  0  0  0  0  0  0  0  0  0  0  0
  -28.5921  -18.6590   24.1683 C   0  0  0  0  0  0  0  0  0  0  0  0
  -17.1187  -26.7099   23.8010 C   0  0  0  0  0  0  0  0  0  0  0  0
  -19.5788  -25.9718   24.8732 C   0  0  0  0  0  0  0  0  0  0  0  0
  -24.7503  -27.3969   27.8279 C   0  0  0  0  0  0  0  0  0  0  0  0
  -28.3471  -17.7059   23.1798 C   0  0  0  0  0  0  0  0  0  0  0  0
  -23.7574   -8.3012   22.4981 C   0  0  0  0  0  0  0  0  0  0  0  0
  -23.1016  -10.2444   23.7752 C   0  0  0  0  0  0  0  0  0  0  0  0
  -25.9429  -26.7008   28.0204 C   0  0  0  0  0  0  0  0  0  0  0  0
  -20.6815   -7.2264   23.4018 C   0  0  0  0  0  0  0  0  0  0  0  0
  -19.8938   -6.1574   22.9747 C   0  0  0  0  0  0  0  0  0  0  0  0
  -26.9140  -27.8565   26.1388 C   0  0  0  0  0  0  0  0  0  0  0  0
  -30.7252  -17.3804   22.9044 C   0  0  0  0  0  0  0  0  0  0  0  0
  -21.4072   -4.6121   24.0511 C   0  0  0  0  0  0  0  0  0  0  0  0
  -24.2595  -10.5153   21.6721 C   0  0  0  0  0  0  0  0  0  0  0  0
  -29.9036  -18.9729   24.5248 C   0  0  0  0  0  0  0  0  0  0  0  0
  -24.1849  -11.8989   19.5301 C   0  0  0  0  0  0  0  0  0  0  0  0
  -18.2974  -27.2169   23.2314 C   0  0  0  0  0  0  0  0  0  0  0  0
  -24.6269  -28.3215   26.7809 C   0  0  0  0  0  0  0  0  0  0  0  0
  -19.5431  -26.8364   23.7660 C   0  0  0  0  0  0  0  0  0  0  0  0
  -25.7197  -28.5648   25.9367 C   0  0  0  0  0  0  0  0  0  0  0  0
  -29.4137  -17.0666   22.5478 C   0  0  0  0  0  0  0  0  0  0  0  0
  -23.1528   -8.8586   23.6248 C   0  0  0  0  0  0  0  0  0  0  0  0
  -27.0241  -26.9285   27.1740 C   0  0  0  0  0  0  0  0  0  0  0  0
  -21.8321   -6.9882   24.1536 C   0  0  0  0  0  0  0  0  0  0  0  0
  -20.2567   -4.8503   23.2993 C   0  0  0  0  0  0  0  0  0  0  0  0
  -30.9702  -18.3336   23.8928 C   0  0  0  0  0  0  0  0  0  0  0  0
  -22.1949   -5.6811   24.4783 C   0  0  0  0  0  0  0  0  0  0  0  0
  -24.8313  -11.3715   20.6641 C   0  0  0  0  0  0  0  0  0  0  0  0
  -25.1520  -12.6416   18.8980 C   0  0  0  0  0  0  0  0  0  0  0  0
  -30.1607  -19.9949   25.5804 C   0  0  0  0  0  0  0  0  0  0  0  0
  -22.8313  -11.7323   19.0878 C   0  0  0  0  0  0  0  0  0  0  0  0
  -22.7840  -28.5569   24.2018 C   0  0  0  0  0  0  0  0  0  0  0  0
  -24.2288  -31.4466   23.9116 C   0  0  0  0  0  0  0  0  0  0  0  0
  -26.9194  -33.4243   24.6161 C   0  0  0  0  0  0  0  0  0  0  0  0
  -30.1083  -15.3715   20.8185 C   0  0  0  0  0  0  0  0  0  0  0  0
  -18.1932  -28.1039   22.0161 C   0  0  0  0  0  0  0  0  0  0  0  0
  -23.3424  -29.0837   26.6031 C   0  0  0  0  0  0  0  0  0  0  0  0
  -25.6451  -29.5620   24.8104 C   0  0  0  0  0  0  0  0  0  0  0  0
  -19.4753  -28.8750   21.7131 C   0  0  0  0  0  0  0  0  0  0  0  0
  -29.8968  -12.8723   18.2913 C   0  0  0  0  0  0  0  0  0  0  0  0
  -20.6857  -27.9500   21.7911 C   0  0  0  0  0  0  0  0  0  0  0  0
  -28.5125  -12.2559   18.5060 C   0  0  0  0  0  0  0  0  0  0  0  0
  -30.6367  -24.3373   25.2247 C   0  0  0  0  0  0  0  0  0  0  0  0
  -30.5627  -13.2457   19.6145 C   0  0  0  0  0  0  0  0  0  0  0  0
  -28.3700  -13.4787   20.7131 C   0  0  0  0  0  0  0  0  0  0  0  0
  -30.9658  -22.8717   25.4573 C   0  0  0  0  0  0  0  0  0  0  0  0
  -28.8706  -23.4900   26.5537 C   0  0  0  0  0  0  0  0  0  0  0  0
  -20.8432  -27.3651   23.1999 C   0  0  1  0  0  0  0  0  0  0  0  0
  -23.1601  -29.6256   25.1887 C   0  0  1  0  0  0  0  0  0  0  0  0
  -29.7619  -24.7120   26.4128 C   0  0  2  0  0  0  0  0  0  0  0  0
  -27.6327  -13.1459   19.4057 C   0  0  2  0  0  0  0  0  0  0  0  0
  -27.8316  -35.7268   24.2113 C   0  0  0  0  0  0  0  0  0  0  0  0
  -24.9751  -30.6475   21.0630 C   0  0  0  0  0  0  0  0  0  0  0  0
  -26.6445  -32.5133   21.0513 C   0  0  0  0  0  0  0  0  0  0  0  0
  -24.2158  -33.0168   21.3168 C   0  0  0  0  0  0  0  0  0  0  0  0
  -26.9479  -34.0476   27.5091 C   0  0  0  0  0  0  0  0  0  0  0  0
  -29.1644  -21.1179   25.7553 C   0  0  0  0  0  0  0  0  0  0  0  0
  -28.9815  -25.9917   26.2009 C   0  0  0  0  0  0  0  0  0  1  0  0
  -25.4780  -31.9539   23.2324 C   0  0  1  0  0  0  0  0  0  0  0  0
  -27.0150  -34.8448   25.1429 C   0  0  2  0  0  0  0  0  0  0  0  0
  -25.3294  -32.0126   21.6858 C   0  0  0  0  0  0  0  0  0  0  0  0
  -26.1102  -11.7473   20.7500 N   0  0  0  0  0  0  0  0  0  0  0  0
  -26.2752  -12.5185   19.6619 N   0  0  0  0  0  0  0  0  0  0  0  0
  -24.3657  -30.2775   24.6734 N   0  0  0  0  0  0  0  0  0  0  0  0
  -29.6728  -14.0925   20.4119 N   0  0  0  0  0  0  0  0  0  0  0  0
  -25.1427  -13.3814   17.7688 N   0  0  0  0  0  0  0  0  0  0  0  0
  -21.9706  -10.9362   19.8557 N   0  0  0  0  0  0  0  0  0  0  0  0
  -29.1647  -16.0983   21.5437 N   0  0  0  0  0  0  0  0  0  0  0  0
  -21.4228  -28.3458   24.0925 N   0  0  0  0  0  0  0  0  0  0  0  0
  -25.7867  -33.2380   23.8522 N   0  0  0  0  0  0  0  0  0  0  0  0
  -29.8242  -22.3413   26.3051 N   0  3  1  0  0  0  0  0  0  0  0  0
  -27.6597  -34.8566   26.4865 N   0  3  0  0  0  0  0  0  0  0  0  0
  -31.1685  -19.9023   26.2774 O   0  0  0  0  0  0  0  0  0  0  0  0
  -22.4024  -12.2600   18.0337 O   0  0  0  0  0  0  0  0  0  0  0  0
  -23.6636  -27.9684   23.5840 O   0  0  0  0  0  0  0  0  0  0  0  0
  -23.1722  -32.0687   23.7771 O   0  0  0  0  0  0  0  0  0  0  0  0
  -27.7668  -32.5668   24.8550 O   0  0  0  0  0  0  0  0  0  0  0  0
  -31.2254  -15.8019   20.5202 O   0  0  0  0  0  0  0  0  0  0  0  0
  -22.6127   -8.0506   24.5776 O   0  0  0  0  0  0  0  0  0  0  0  0
  -28.1891  -26.2500   27.3592 O   0  0  0  0  0  0  0  0  0  1  0  0
  -19.4993   -3.8240   22.8904 F   0  0  0  0  0  0  0  0  0  0  0  0
  -32.2348  -18.6276   24.2271 F   0  0  0  0  0  0  0  0  0  0  0  0
  -23.2985   -5.4461   25.2012 F   0  0  0  0  0  0  0  0  0  0  0  0
  1  2  1  0  0  0  0
  1  6  2  0  0  0  0
  2  7  2  0  0  0  0
  3 10  2  0  0  0  0
  3 18  1  0  0  0  0
  4 11  1  0  0  0  0
  4 18  2  0  0  0  0
  5  9  2  0  0  0  0
  5 19  1  0  0  0  0
  6 21  1  0  0  0  0
  7 23  1  0  0  0  0
  8 12  2  0  0  0  0
  8 22  1  0  0  0  0
  9 25  1  0  0  0  0
 10 26  1  0  0  0  0
 11 26  2  0  0  0  0
 12 27  1  0  0  0  0
 13 14  2  0  0  0  0
 13 28  1  0  0  0  0
 14 29  1  0  0  0  0
 15 24  1  0  0  0  0
 15 27  2  0  0  0  0
 16 25  2  0  0  0  0
 16 30  1  0  0  0  0
 17 29  2  0  0  0  0
 17 31  1  0  0  0  0
 18 32  1  0  0  0  0
 19 30  2  0  0  0  0
 19 34  1  0  0  0  0
 20 32  1  0  0  0  0
 20 33  2  0  0  0  0
 20 35  1  0  0  0  0
 21 23  2  0  0  0  0
 21 40  1  0  0  0  0
 22 24  2  0  0  0  0
 22 41  1  0  0  0  0
 23 52  1  0  0  0  0
 24 42  1  0  0  0  0
 25 72  1  0  0  0  0
 26 83  1  0  0  0  0
 27 84  1  0  0  0  0
 28 31  2  0  0  0  0
 28 83  1  0  0  0  0
 29 85  1  0  0  0  0
 30 86  1  0  0  0  0
 31 87  1  0  0  0  0
 32 66  2  0  0  0  0
 33 67  1  0  0  0  0
 33 70  1  0  0  0  0
 34 61  1  0  0  0  0
 34 77  2  0  0  0  0
 35 71  1  0  0  0  0
 35 78  2  0  0  0  0
 36 53  1  0  0  0  0
 36 73  1  0  0  0  0
 36 79  2  0  0  0  0
 37 63  1  0  0  0  0
 37 68  1  0  0  0  0
 37 80  2  0  0  0  0
 38 64  1  0  0  0  0
 38 74  1  0  0  0  0
 38 81  2  0  0  0  0
 39 69  1  0  0  0  0
 39 72  1  0  0  0  0
 39 82  2  0  0  0  0
 40 43  1  0  0  0  0
 41 53  1  0  0  0  0
 42 68  1  0  0  0  0
 43 45  1  0  0  0  0
 44 46  1  0  0  0  0
 44 48  1  0  0  0  0
 45 52  1  0  0  0  0
 46 55  1  0  0  0  0
 47 50  1  0  0  0  0
 47 54  1  0  0  0  0
 48 69  1  0  0  0  0
 49 55  1  0  0  0  0
 49 69  1  0  0  0  0
 50 75  1  0  0  0  0
 51 54  1  0  0  0  0
 51 75  1  0  0  0  0
 52 73  1  0  0  0  0
 53 68  1  0  0  0  0
 54 62  1  0  0  0  0
 55 67  1  0  0  0  0
 56 64  1  0  0  0  0
 57 65  1  0  0  0  0
 58 65  1  0  0  0  0
 59 65  1  0  0  0  0
 60 76  1  0  0  0  0
 61 75  1  0  0  0  0
 62 84  1  0  0  0  0
 63 65  1  0  0  0  0
 63 74  1  0  0  0  0
 64 76  1  0  0  0  0
 66 67  1  0  0  0  0
M  CHG  2  75   1  76   1
M  ISO  4  39 100  62 101  72 100  84 101
M  END
> <Batch ID>
0106

> <Smiles>
CNC(C)C(=O)NC(C(=O)N1Cc2cc([101O:1][101CH2:1]C3CCN(CC(=O)c4ccc([100NH:0][100C:0](=O)N5CCCC(n6nc(-c7ccc(Oc8ccc(F)cc8F)cc7)c(C(N)=O)c6N)C5)cc4F)C3)ccc2CC1C(=O)NC1CCCc2ccccc21)C(C)(C)C

> <Shape>
0.251

> <Color>
0.108

> <Negative vol penalty>
0.000

$$$$

  -OEChem-04052301143D

 84 92  0     1  0  0  0  0  0999 V2000
  -29.7470  -21.6313   26.4440 C   0  0  0  0  0  0  0  0  0  0  0  0
  -30.2505  -21.5504   25.1506 C   0  0  0  0  0  0  0  0  0  0  0  0
  -23.0650   -9.8750   19.9610 C   0  0  0  0  0  0  0  0  0  0  0  0
  -23.8703   -9.8826   22.2388 C   0  0  0  0  0  0  0  0  0  0  0  0
  -28.7574  -22.5646   26.7455 C   0  0  0  0  0  0  0  0  0  0  0  0
  -29.7731  -22.4107   24.1612 C   0  0  0  0  0  0  0  0  0  0  0  0
  -32.0632  -22.3001   19.8084 C   0  0  0  0  0  0  0  0  0  0  0  0
  -22.3292   -8.7198   20.2249 C   0  0  0  0  0  0  0  0  0  0  0  0
  -23.1345   -8.7273   22.5027 C   0  0  0  0  0  0  0  0  0  0  0  0
  -31.9355  -21.2362   18.9164 C   0  0  0  0  0  0  0  0  0  0  0  0
  -19.9210   -7.9208   23.1688 C   0  0  0  0  0  0  0  0  0  0  0  0
  -19.1876   -7.8782   24.3545 C   0  0  0  0  0  0  0  0  0  0  0  0
  -28.8430  -17.6663   22.0773 C   0  0  0  0  0  0  0  0  0  0  0  0
  -29.2468  -17.0123   19.7869 C   0  0  0  0  0  0  0  0  0  0  0  0
  -30.4342  -22.5563   17.5664 C   0  0  0  0  0  0  0  0  0  0  0  0
  -27.9668  -19.0044   20.2666 C   0  0  0  0  0  0  0  0  0  0  0  0
  -20.4484   -5.9436   25.0648 C   0  0  0  0  0  0  0  0  0  0  0  0
  -23.8356  -10.4564   20.9679 C   0  0  0  0  0  0  0  0  0  0  0  0
  -29.4042  -16.7843   21.1539 C   0  0  0  0  0  0  0  0  0  0  0  0
  -24.1685  -12.9825   20.8428 C   0  0  0  0  0  0  0  0  0  0  0  0
  -28.2594  -23.4279   25.7557 C   0  0  0  0  0  0  0  0  0  0  0  0
  -31.3676  -23.4982   19.5915 C   0  0  0  0  0  0  0  0  0  0  0  0
  -28.7916  -23.3756   24.4514 C   0  0  0  0  0  0  0  0  0  0  0  0
  -30.5567  -23.6347   18.4558 C   0  0  0  0  0  0  0  0  0  0  0  0
  -22.3639   -8.1460   21.4958 C   0  0  0  0  0  0  0  0  0  0  0  0
  -31.1186  -21.3632   17.7967 C   0  0  0  0  0  0  0  0  0  0  0  0
  -20.9181   -6.9748   22.9311 C   0  0  0  0  0  0  0  0  0  0  0  0
  -28.1242  -18.7763   21.6336 C   0  0  0  0  0  0  0  0  0  0  0  0
  -28.5281  -18.1224   19.3432 C   0  0  0  0  0  0  0  0  0  0  0  0
  -19.4513   -6.8896   25.3025 C   0  0  0  0  0  0  0  0  0  0  0  0
  -21.1818   -5.9861   23.8791 C   0  0  0  0  0  0  0  0  0  0  0  0
  -24.5964  -11.6494   20.6957 C   0  0  0  0  0  0  0  0  0  0  0  0
  -25.2513  -13.7350   20.4584 C   0  0  0  0  0  0  0  0  0  0  0  0
  -30.1537  -15.6270   21.6171 C   0  0  0  0  0  0  0  0  0  0  0  0
  -22.9053  -13.4948   21.2872 C   0  0  0  0  0  0  0  0  0  0  0  0
  -30.7625  -14.6709   20.6639 C   0  0  0  0  0  0  0  0  0  0  0  0
  -29.1427  -25.1194   21.1805 C   0  0  0  0  0  0  0  0  0  0  0  0
  -29.6492  -27.3282   18.8595 C   0  0  0  0  0  0  0  0  0  0  0  0
  -30.7169  -28.0078   15.6901 C   0  0  0  0  0  0  0  0  0  0  0  0
  -27.1937  -24.4243   26.1389 C   0  0  0  0  0  0  0  0  0  0  0  0
  -31.5370  -24.6458   20.5490 C   0  0  0  0  0  0  0  0  0  0  0  0
  -29.8046  -24.9072   18.1667 C   0  0  0  0  0  0  0  0  0  0  0  0
  -26.4414  -24.9824   24.9352 C   0  0  0  0  0  0  0  0  0  0  0  0
  -29.5483  -12.4086   18.1610 C   0  0  0  0  0  0  0  0  0  0  0  0
  -27.4287  -25.4531   23.8777 C   0  0  0  0  0  0  0  0  0  0  0  0
  -28.1299  -12.0893   18.6320 C   0  0  0  0  0  0  0  0  0  0  0  0
  -30.4955  -12.6112   19.3392 C   0  0  0  0  0  0  0  0  0  0  0  0
  -28.6157  -13.3374   20.7841 C   0  0  0  0  0  0  0  0  0  0  0  0
  -28.2658  -24.2802   23.3517 C   0  0  1  0  0  0  0  0  0  0  0  0
  -30.3793  -25.6383   20.5029 C   0  0  1  0  0  0  0  0  0  0  0  0
  -27.6241  -13.1535   19.6220 C   0  0  2  0  0  0  0  0  0  0  0  0
  -30.9749  -29.8994   14.0615 C   0  0  0  0  0  0  0  0  0  0  0  0
  -26.6435  -27.2841   18.3359 C   0  0  0  0  0  0  0  0  0  0  0  0
  -27.0787  -28.4186   16.1469 C   0  0  0  0  0  0  0  0  0  0  0  0
  -27.6785  -29.5601   18.2823 C   0  0  0  0  0  0  0  0  0  0  0  0
  -33.6488  -27.6331   15.5413 C   0  0  0  0  0  0  0  0  0  0  0  0
  -26.8534  -20.7505   22.0126 C   0  0  0  0  0  0  0  0  0  0  0  0
  -29.4778  -18.7521   15.8989 C   0  0  0  0  0  0  0  0  0  0  0  0
  -29.7515  -20.2112   16.2283 C   0  0  0  0  0  0  0  0  0  1  0  0
  -29.4154  -17.8888   17.1491 C   0  0  0  0  0  0  0  0  0  0  0  0
  -29.0641  -27.5977   17.4942 C   0  0  1  0  0  0  0  0  0  0  0  0
  -31.6488  -29.0768   15.1487 C   0  0  2  0  0  0  0  0  0  0  0  0
  -27.6287  -28.1904   17.5710 C   0  0  0  0  0  0  0  0  0  0  0  0
  -25.8529  -11.5571   20.2523 N   0  0  0  0  0  0  0  0  0  0  0  0
  -30.3420  -15.3538   22.8799 N   0  0  0  0  0  0  0  0  0  0  0  0
  -26.2239  -12.8417   20.1173 N   0  0  0  0  0  0  0  0  0  0  0  0
  -29.9684  -13.6004   20.2772 N   0  0  0  0  0  0  0  0  0  0  0  0
  -29.9978  -25.9985   19.1358 N   0  0  0  0  0  0  0  0  0  0  0  0
  -25.4568  -15.0670   20.3821 N   0  0  0  0  0  0  0  0  0  0  0  0
  -21.9026  -12.5828   21.6440 N   0  0  0  0  0  0  0  0  0  0  0  0
  -29.3244  -24.7953   22.5115 N   0  0  0  0  0  0  0  0  0  0  0  0
  -30.0249  -28.4473   16.7989 N   0  0  0  0  0  0  0  0  0  0  0  0
  -32.8744  -28.4531   14.5744 N   0  3  0  0  0  0  0  0  0  0  0  0
  -22.6671  -14.7247   21.3501 O   0  0  0  0  0  0  0  0  0  0  0  0
  -31.9079  -14.9286   20.3177 O   0  0  0  0  0  0  0  0  0  0  0  0
  -28.1004  -25.0219   20.5435 O   0  0  0  0  0  0  0  0  0  0  0  0
  -29.7982  -28.2641   19.6491 O   0  0  0  0  0  0  0  0  0  0  0  0
  -30.6105  -26.8954   15.1783 O   0  0  0  0  0  0  0  0  0  0  0  0
  -21.6459   -7.0189   21.7538 O   0  0  0  0  0  0  0  0  0  0  0  0
  -27.5753  -19.6363   22.5350 O   0  0  0  0  0  0  0  0  0  0  0  0
  -30.9917  -20.3261   16.9248 O   0  0  0  0  0  0  0  0  0  1  0  0
  -28.3730  -18.3464   17.9999 O   0  0  0  0  0  0  0  0  0  0  0  0
  -18.7480   -6.8498   26.4418 F   0  0  0  0  0  0  0  0  0  0  0  0
  -22.1392   -5.0752   23.6568 F   0  0  0  0  0  0  0  0  0  0  0  0
  1  2  1  0  0  0  0
  1  5  2  0  0  0  0
  2  6  2  0  0  0  0
  3  8  2  0  0  0  0
  3 18  1  0  0  0  0
  4  9  1  0  0  0  0
  4 18  2  0  0  0  0
  5 21  1  0  0  0  0
  6 23  1  0  0  0  0
  7 10  2  0  0  0  0
  7 22  1  0  0  0  0
  8 25  1  0  0  0  0
  9 25  2  0  0  0  0
 10 26  1  0  0  0  0
 11 12  2  0  0  0  0
 11 27  1  0  0  0  0
 12 30  1  0  0  0  0
 13 19  2  0  0  0  0
 13 28  1  0  0  0  0
 14 19  1  0  0  0  0
 14 29  2  0  0  0  0
 15 24  1  0  0  0  0
 15 26  2  0  0  0  0
 16 28  2  0  0  0  0
 16 29  1  0  0  0  0
 17 30  2  0  0  0  0
 17 31  1  0  0  0  0
 18 32  1  0  0  0  0
 19 34  1  0  0  0  0
 20 32  1  0  0  0  0
 20 33  2  0  0  0  0
 20 35  1  0  0  0  0
 21 23  2  0  0  0  0
 21 40  1  0  0  0  0
 22 24  2  0  0  0  0
 22 41  1  0  0  0  0
 23 49  1  0  0  0  0
 24 42  1  0  0  0  0
 25 79  1  0  0  0  0
 26 81  1  0  0  0  0
 27 31  2  0  0  0  0
 27 79  1  0  0  0  0
 28 80  1  0  0  0  0
 29 82  1  0  0  0  0
 30 83  1  0  0  0  0
 31 84  1  0  0  0  0
 32 64  2  0  0  0  0
 33 66  1  0  0  0  0
 33 69  1  0  0  0  0
 34 36  1  0  0  0  0
 34 65  2  0  0  0  0
 35 70  1  0  0  0  0
 35 74  2  0  0  0  0
 36 67  1  0  0  0  0
 36 75  2  0  0  0  0
 37 50  1  0  0  0  0
 37 71  1  0  0  0  0
 37 76  2  0  0  0  0
 38 61  1  0  0  0  0
 38 68  1  0  0  0  0
 38 77  2  0  0  0  0
 39 62  1  0  0  0  0
 39 72  1  0  0  0  0
 39 78  2  0  0  0  0
 40 43  1  0  0  0  0
 41 50  1  0  0  0  0
 42 68  1  0  0  0  0
 43 45  1  0  0  0  0
 44 46  1  0  0  0  0
 44 47  1  0  0  0  0
 45 49  1  0  0  0  0
 46 51  1  0  0  0  0
 47 67  1  0  0  0  0
 48 51  1  0  0  0  0
 48 67  1  0  0  0  0
 49 71  1  0  0  0  0
 50 68  1  0  0  0  0
 51 66  1  0  0  0  0
 52 62  1  0  0  0  0
 53 63  1  0  0  0  0
 54 63  1  0  0  0  0
 55 63  1  0  0  0  0
 56 73  1  0  0  0  0
 57 80  1  0  0  0  0
 58 59  1  0  0  0  0
 58 60  1  0  0  0  0
 59 81  1  0  0  0  0
 60 82  1  0  0  0  0
 61 63  1  0  0  0  0
 61 72  1  0  0  0  0
 62 73  1  0  0  0  0
 64 66  1  0  0  0  0
M  CHG  1  73   1
M  ISO  4  34 100  36 100  59 101  81 101
M  END
> <Batch ID>
0106

> <Smiles>
CNC(C)C(=O)NC(C(=O)N1Cc2cc([101O:1][101CH2:1]CCOc3cc(OC)cc([100C:0](=N)[100C:0](=O)N4CCCC(n5nc(-c6ccc(Oc7ccc(F)cc7F)cc6)c(C(N)=O)c5N)C4)c3)ccc2CC1C(=O)NC1CCCc2ccccc21)C(C)(C)C

> <Shape>
0.264

> <Color>
0.186

> <Negative vol penalty>
0.000

$$$$

  -OEChem-04052301143D

 85 93  0     1  0  0  0  0  0999 V2000
  -32.5379  -26.8799   19.1293 C   0  0  0  0  0  0  0  0  0  0  0  0
  -31.2889  -26.6208   18.5741 C   0  0  0  0  0  0  0  0  0  0  0  0
  -25.6055  -15.7036   21.6257 C   0  0  0  0  0  0  0  0  0  0  0  0
  -27.9236  -15.0428   21.7889 C   0  0  0  0  0  0  0  0  0  0  0  0
  -32.6410  -27.2446   20.4711 C   0  0  0  0  0  0  0  0  0  0  0  0
  -30.1422  -26.7253   19.3606 C   0  0  0  0  0  0  0  0  0  0  0  0
  -23.2218  -28.5248   18.9300 C   0  0  0  0  0  0  0  0  0  0  0  0
  -25.2717  -14.4234   21.1838 C   0  0  0  0  0  0  0  0  0  0  0  0
  -27.5899  -13.7626   21.3471 C   0  0  0  0  0  0  0  0  0  0  0  0
  -21.9579  -28.0269   19.2438 C   0  0  0  0  0  0  0  0  0  0  0  0
  -25.4374  -12.6605   18.3047 C   0  0  0  0  0  0  0  0  0  0  0  0
  -24.5749  -12.5568   17.2134 C   0  0  0  0  0  0  0  0  0  0  0  0
  -22.9633  -22.4172   18.9491 C   0  0  0  0  0  0  0  0  0  0  0  0
  -22.2503  -28.7418   21.5292 C   0  0  0  0  0  0  0  0  0  0  0  0
  -20.8775  -22.6265   20.1502 C   0  0  0  0  0  0  0  0  0  0  0  0
  -23.0003  -11.3300   18.5746 C   0  0  0  0  0  0  0  0  0  0  0  0
  -26.9315  -16.0133   21.9282 C   0  0  0  0  0  0  0  0  0  0  0  0
  -23.4771  -23.5072   19.6514 C   0  0  0  0  0  0  0  0  0  0  0  0
  -27.3140  -17.7935   23.7149 C   0  0  0  0  0  0  0  0  0  0  0  0
  -31.4941  -27.3630   21.2720 C   0  0  0  0  0  0  0  0  0  0  0  0
  -24.0152  -29.1262   19.9176 C   0  0  0  0  0  0  0  0  0  0  0  0
  -30.2302  -27.0906   20.7147 C   0  0  0  0  0  0  0  0  0  0  0  0
  -23.5228  -29.2488   21.2247 C   0  0  0  0  0  0  0  0  0  0  0  0
  -22.6912  -24.1569   20.6032 C   0  0  0  0  0  0  0  0  0  0  0  0
  -26.2638  -13.4529   21.0445 C   0  0  0  0  0  0  0  0  0  0  0  0
  -21.4731  -28.1328   20.5442 C   0  0  0  0  0  0  0  0  0  0  0  0
  -25.0814  -12.0989   19.5309 C   0  0  0  0  0  0  0  0  0  0  0  0
  -21.3913  -23.7165   20.8526 C   0  0  0  0  0  0  0  0  0  0  0  0
  -23.3563  -11.8915   17.3484 C   0  0  0  0  0  0  0  0  0  0  0  0
  -23.8628  -11.4337   19.6659 C   0  0  0  0  0  0  0  0  0  0  0  0
  -21.6634  -21.9768   19.1984 C   0  0  0  0  0  0  0  0  0  0  0  0
  -27.2770  -17.3358   22.3841 C   0  0  0  0  0  0  0  0  0  0  0  0
  -27.6968  -19.1088   23.6150 C   0  0  0  0  0  0  0  0  0  0  0  0
  -24.8645  -23.9512   19.3598 C   0  0  0  0  0  0  0  0  0  0  0  0
  -27.0280  -17.0925   24.9324 C   0  0  0  0  0  0  0  0  0  0  0  0
  -26.8479  -28.4923   21.2130 C   0  0  0  0  0  0  0  0  0  0  0  0
  -26.3689  -31.3356   22.6990 C   0  0  0  0  0  0  0  0  0  0  0  0
  -24.1604  -33.6889   23.8087 C   0  0  0  0  0  0  0  0  0  0  0  0
  -27.2221  -23.2000   19.3292 C   0  0  0  0  0  0  0  0  0  0  0  0
  -31.6596  -27.7141   22.7293 C   0  0  0  0  0  0  0  0  0  0  0  0
  -25.3655  -29.6822   19.5569 C   0  0  0  0  0  0  0  0  0  0  0  0
  -24.3270  -29.9040   22.3168 C   0  0  0  0  0  0  0  0  0  0  0  0
  -30.3640  -28.1670   23.3976 C   0  0  0  0  0  0  0  0  0  0  0  0
  -30.2227  -22.0733   20.8204 C   0  0  0  0  0  0  0  0  0  0  0  0
  -29.2206  -27.2225   23.0405 C   0  0  0  0  0  0  0  0  0  0  0  0
  -29.8109  -20.7788   21.5269 C   0  0  0  0  0  0  0  0  0  0  0  0
  -29.5038  -22.2430   19.4828 C   0  0  0  0  0  0  0  0  0  0  0  0
  -27.6339  -20.8361   20.2457 C   0  0  0  0  0  0  0  0  0  0  0  0
  -28.9610  -27.2174   21.5291 C   0  0  1  0  0  0  0  0  0  0  0  0
  -26.2974  -29.8141   20.7575 C   0  0  1  0  0  0  0  0  0  0  0  0
  -28.2776  -20.6536   21.6297 C   0  0  1  0  0  0  0  0  0  0  0  0
  -24.0647  -35.8850   25.0192 C   0  0  0  0  0  0  0  0  0  0  0  0
  -26.8807  -29.8986   25.3415 C   0  0  0  0  0  0  0  0  0  0  0  0
  -25.8576  -31.8544   26.5231 C   0  0  0  0  0  0  0  0  0  0  0  0
  -27.9276  -32.1630   25.1656 C   0  0  0  0  0  0  0  0  0  0  0  0
  -22.9250  -35.0467   21.4873 C   0  0  0  0  0  0  0  0  0  0  0  0
  -18.9887  -26.0800   22.1951 C   0  0  0  0  0  0  0  0  0  0  0  0
  -20.0430  -27.1758   22.1858 C   0  0  0  0  0  0  0  0  0  1  0  0
  -19.3834  -24.9034   21.3164 C   0  0  0  0  0  0  0  0  0  0  0  0
  -25.7228  -31.7706   23.9921 C   0  0  1  0  0  0  0  0  0  0  0  0
  -24.1410  -35.1999   23.6637 C   0  0  2  0  0  0  0  0  0  0  0  0
  -26.5826  -31.4075   25.2357 C   0  0  0  0  0  0  0  0  0  0  0  0
  -27.6096  -18.2833   21.5035 N   0  0  0  0  0  0  0  0  0  0  0  0
  -27.8592  -19.3496   22.2824 N   0  0  0  0  0  0  0  0  0  0  0  0
  -25.6437  -30.4264   21.9159 N   0  0  0  0  0  0  0  0  0  0  0  0
  -28.0567  -22.1206   19.6677 N   0  0  0  0  0  0  0  0  0  0  0  0
  -23.2064  -25.2624   21.3191 N   0  0  0  0  0  0  0  0  0  0  0  0
  -27.9069  -20.0713   24.5380 N   0  0  0  0  0  0  0  0  0  0  0  0
  -26.6488  -15.7454   24.8545 N   0  0  0  0  0  0  0  0  0  0  0  0
  -25.8605  -23.0001   19.5828 N   0  0  0  0  0  0  0  0  0  0  0  0
  -28.2246  -28.4005   21.1388 N   0  0  0  0  0  0  0  0  0  0  0  0
  -25.4476  -33.1964   23.8516 N   0  0  0  0  0  0  0  0  0  0  0  0
  -22.9651  -35.6275   22.8541 N   0  3  0  0  0  0  0  0  0  0  0  0
  -25.0499  -25.0807   18.9150 O   0  0  0  0  0  0  0  0  0  0  0  0
  -27.0905  -17.6487   26.0550 O   0  0  0  0  0  0  0  0  0  0  0  0
  -26.0804  -27.6207   21.6042 O   0  0  0  0  0  0  0  0  0  0  0  0
  -27.4731  -31.7915   22.3914 O   0  0  0  0  0  0  0  0  0  0  0  0
  -23.1362  -33.0134   23.8808 O   0  0  0  0  0  0  0  0  0  0  0  0
  -27.6552  -24.2642   18.8761 O   0  0  0  0  0  0  0  0  0  0  0  0
  -25.9384  -12.2035   20.6136 O   0  0  0  0  0  0  0  0  0  0  0  0
  -20.2401  -27.6470   20.8533 O   0  0  0  0  0  0  0  0  0  1  0  0
  -20.6016  -24.3399   21.7834 O   0  0  0  0  0  0  0  0  0  0  0  0
  -22.5274  -11.7933   16.3007 F   0  0  0  0  0  0  0  0  0  0  0  0
  -23.5148  -10.8932   20.8417 F   0  0  0  0  0  0  0  0  0  0  0  0
  -21.0296  -20.6309   18.3330 Cl  0  0  0  0  0  0  0  0  0  0  0  0
  1  2  1  0  0  0  0
  1  5  2  0  0  0  0
  2  6  2  0  0  0  0
  3  8  2  0  0  0  0
  3 17  1  0  0  0  0
  4  9  1  0  0  0  0
  4 17  2  0  0  0  0
  5 20  1  0  0  0  0
  6 22  1  0  0  0  0
  7 10  2  0  0  0  0
  7 21  1  0  0  0  0
  8 25  1  0  0  0  0
  9 25  2  0  0  0  0
 10 26  1  0  0  0  0
 11 12  2  0  0  0  0
 11 27  1  0  0  0  0
 12 29  1  0  0  0  0
 13 18  2  0  0  0  0
 13 31  1  0  0  0  0
 14 23  1  0  0  0  0
 14 26  2  0  0  0  0
 15 28  1  0  0  0  0
 15 31  2  0  0  0  0
 16 29  2  0  0  0  0
 16 30  1  0  0  0  0
 17 32  1  0  0  0  0
 18 24  1  0  0  0  0
 18 34  1  0  0  0  0
 19 32  1  0  0  0  0
 19 33  2  0  0  0  0
 19 35  1  0  0  0  0
 20 22  2  0  0  0  0
 20 40  1  0  0  0  0
 21 23  2  0  0  0  0
 21 41  1  0  0  0  0
 22 49  1  0  0  0  0
 23 42  1  0  0  0  0
 24 28  2  0  0  0  0
 24 67  1  0  0  0  0
 25 80  1  0  0  0  0
 26 81  1  0  0  0  0
 27 30  2  0  0  0  0
 27 80  1  0  0  0  0
 28 82  1  0  0  0  0
 29 83  1  0  0  0  0
 30 84  1  0  0  0  0
 31 85  1  0  0  0  0
 32 63  2  0  0  0  0
 33 64  1  0  0  0  0
 33 68  1  0  0  0  0
 34 70  1  0  0  0  0
 34 74  2  0  0  0  0
 35 69  1  0  0  0  0
 35 75  2  0  0  0  0
 36 50  1  0  0  0  0
 36 71  1  0  0  0  0
 36 76  2  0  0  0  0
 37 60  1  0  0  0  0
 37 65  1  0  0  0  0
 37 77  2  0  0  0  0
 38 61  1  0  0  0  0
 38 72  1  0  0  0  0
 38 78  2  0  0  0  0
 39 66  1  0  0  0  0
 39 70  1  0  0  0  0
 39 79  2  0  0  0  0
 40 43  1  0  0  0  0
 41 50  1  0  0  0  0
 42 65  1  0  0  0  0
 43 45  1  0  0  0  0
 44 46  1  0  0  0  0
 44 47  1  0  0  0  0
 45 49  1  0  0  0  0
 46 51  1  0  0  0  0
 47 66  1  0  0  0  0
 48 51  1  0  0  0  0
 48 66  1  0  0  0  0
 49 71  1  0  0  0  0
 50 65  1  0  0  0  0
 51 64  1  0  0  0  0
 52 61  1  0  0  0  0
 53 62  1  0  0  0  0
 54 62  1  0  0  0  0
 55 62  1  0  0  0  0
 56 73  1  0  0  0  0
 57 58  1  0  0  0  0
 57 59  1  0  0  0  0
 58 81  1  0  0  0  0
 59 82  1  0  0  0  0
 60 62  1  0  0  0  0
 60 72  1  0  0  0  0
 61 73  1  0  0  0  0
 63 64  1  0  0  0  0
M  CHG  1  73   1
M  ISO  4  39 100  58 101  70 100  81 101
M  END
> <Batch ID>
0106

> <Smiles>
CNC(C)C(=O)NC(C(=O)N1Cc2cc([101O:1][101CH2:1]CCOc3cc(Cl)cc(C(=O)[100NH:0][100C:0](=O)N4CCCC(n5nc(-c6ccc(Oc7ccc(F)cc7F)cc6)c(C(N)=O)c5N)C4)c3N)ccc2CC1C(=O)NC1CCCc2ccccc21)C(C)(C)C

> <Shape>
0.263

> <Color>
0.064

> <Negative vol penalty>
0.000

$$$$

  -OEChem-04052301143D

 88 97  0     1  0  0  0  0  0999 V2000
  -20.1502   -9.8103   19.7460 C   0  0  0  0  0  0  0  0  0  0  0  0
  -20.1713  -11.0678   20.3407 C   0  0  0  0  0  0  0  0  0  0  0  0
  -24.5819  -29.0549   19.1212 C   0  0  0  0  0  0  0  0  0  0  0  0
  -26.8676  -28.8603   19.8792 C   0  0  0  0  0  0  0  0  0  0  0  0
  -21.2710   -8.9848   19.8236 C   0  0  0  0  0  0  0  0  0  0  0  0
  -21.3131  -11.5000   21.0144 C   0  0  0  0  0  0  0  0  0  0  0  0
  -24.7407  -17.5145   19.0221 C   0  0  0  0  0  0  0  0  0  0  0  0
  -29.7543  -24.4527   17.2287 C   0  0  0  0  0  0  0  0  0  0  0  0
  -30.5717  -25.0364   16.2609 C   0  0  0  0  0  0  0  0  0  0  0  0
  -24.3174  -29.9583   20.1505 C   0  0  0  0  0  0  0  0  0  0  0  0
  -26.6031  -29.7637   20.9085 C   0  0  0  0  0  0  0  0  0  0  0  0
  -25.3301  -18.7651   18.8356 C   0  0  0  0  0  0  0  0  0  0  0  0
  -25.1191  -29.7150   23.9460 C   0  0  0  0  0  0  0  0  0  0  0  0
  -25.5916  -29.4018   25.2204 C   0  0  0  0  0  0  0  0  0  0  0  0
  -26.9632  -18.2625   20.5469 C   0  0  0  0  0  0  0  0  0  0  0  0
  -30.3389  -26.2087   18.7817 C   0  0  0  0  0  0  0  0  0  0  0  0
  -26.9080  -31.4277   25.2301 C   0  0  0  0  0  0  0  0  0  0  0  0
  -25.8570  -28.5058   18.9855 C   0  0  0  0  0  0  0  0  0  0  0  0
  -25.5062  -26.3302   17.7006 C   0  0  0  0  0  0  0  0  0  0  0  0
  -22.4305   -9.4110   20.4904 C   0  0  0  0  0  0  0  0  0  0  0  0
  -25.2704  -16.6260   19.9621 C   0  0  0  0  0  0  0  0  0  0  0  0
  -22.4501  -10.6789   21.1022 C   0  0  0  0  0  0  0  0  0  0  0  0
  -26.3847  -17.0036   20.7293 C   0  0  0  0  0  0  0  0  0  0  0  0
  -29.6378  -25.0388   18.4891 C   0  0  0  0  0  0  0  0  0  0  0  0
  -31.2727  -26.2063   16.5534 C   0  0  0  0  0  0  0  0  0  0  0  0
  -31.1563  -26.7924   17.8138 C   0  0  0  0  0  0  0  0  0  0  0  0
  -25.3280  -30.3127   21.0442 C   0  0  0  0  0  0  0  0  0  0  0  0
  -26.4385  -19.1382   19.5963 C   0  0  0  0  0  0  0  0  0  0  0  0
  -25.5410  -30.8845   23.3135 C   0  0  0  0  0  0  0  0  0  0  0  0
  -26.4860  -30.2582   25.8625 C   0  0  0  0  0  0  0  0  0  0  0  0
  -26.4355  -31.7409   23.9556 C   0  0  0  0  0  0  0  0  0  0  0  0
  -26.1306  -27.5722   17.9228 C   0  0  0  0  0  0  0  0  0  0  0  0
  -26.1176  -25.8351   16.5747 C   0  0  0  0  0  0  0  0  0  0  0  0
  -28.1807  -25.2872   20.4449 C   0  0  0  0  0  0  0  0  0  0  0  0
  -28.6352  -23.0197   19.4613 C   0  0  0  0  0  0  0  0  0  0  0  0
  -24.4664  -25.6821   18.4452 C   0  0  0  0  0  0  0  0  0  0  0  0
  -25.0543  -13.2539   21.5924 C   0  0  0  0  0  0  0  0  0  0  0  0
  -28.0323  -13.8371   21.1428 C   0  0  0  0  0  0  0  0  0  0  0  0
  -31.3918  -13.6468   20.5818 C   0  0  0  0  0  0  0  0  0  0  0  0
  -31.6233  -27.2274   14.2895 C   0  0  0  0  0  0  0  0  0  0  0  0
  -23.6008   -8.4646   20.5886 C   0  0  0  0  0  0  0  0  0  0  0  0
  -24.6305  -15.2929   20.2398 C   0  0  0  0  0  0  0  0  0  0  0  0
  -26.8993  -16.0290   21.7532 C   0  0  0  0  0  0  0  0  0  0  0  0
  -27.4345  -24.6261   21.5853 C   0  0  0  0  0  0  0  0  0  0  0  0
  -24.9031   -9.1469   20.9992 C   0  0  0  0  0  0  0  0  0  0  0  0
  -27.7334  -23.1539   21.7463 C   0  0  0  0  0  0  0  0  0  0  0  0
  -28.3428  -27.2194   12.5773 C   0  0  0  0  0  0  0  0  0  0  0  0
  -24.6672  -10.0786   22.1838 C   0  0  0  0  0  0  0  0  0  0  0  0
  -27.3535  -27.2888   13.7391 C   0  0  0  0  0  0  0  0  0  0  0  0
  -29.6699  -27.8881   12.9227 C   0  0  0  0  0  0  0  0  0  0  0  0
  -29.3119  -27.4190   15.3296 C   0  0  0  0  0  0  0  0  0  0  0  0
  -23.6787  -11.1932   21.8207 C   0  0  1  0  0  0  0  0  0  0  0  0
  -27.5616  -22.4811   20.3962 C   0  0  2  0  0  0  0  0  0  0  0  0
  -25.6511  -14.1942   20.5869 C   0  0  1  0  0  0  0  0  0  0  0  0
  -27.9812  -26.7166   15.0209 C   0  0  1  0  0  0  0  0  0  0  0  0
  -33.4779  -12.5661   21.4635 C   0  0  0  0  0  0  0  0  0  0  0  0
  -28.0605  -15.8028   23.4750 C   0  0  0  0  0  0  0  0  0  0  0  0
  -30.5098  -15.3524   23.7326 C   0  0  0  0  0  0  0  0  0  0  0  0
  -28.8643  -13.5027   24.0390 C   0  0  0  0  0  0  0  0  0  0  0  0
  -33.5597  -26.6900   15.7012 C   0  0  0  0  0  0  0  0  0  0  0  0
  -31.8822  -12.2393   18.0250 C   0  0  0  0  0  0  0  0  0  0  0  0
  -27.6416  -20.9626   20.5351 C   0  0  0  0  0  0  0  0  0  1  0  0
  -29.3133  -14.3897   21.7144 C   0  0  1  0  0  0  0  0  0  0  0  0
  -32.3293  -12.4579   20.4727 C   0  0  2  0  0  0  0  0  0  0  0  0
  -29.1765  -14.7712   23.2155 C   0  0  0  0  0  0  0  0  0  0  0  0
  -27.0670  -27.8489   17.0114 N   0  0  0  0  0  0  0  0  0  0  0  0
  -27.0355  -26.7738   16.2056 N   0  0  0  0  0  0  0  0  0  0  0  0
  -28.7881  -24.4320   19.4945 N   0  0  0  0  0  0  0  0  0  0  0  0
  -26.9069  -14.6687   21.1926 N   0  0  0  0  0  0  0  0  0  0  0  0
  -30.2257  -27.3761   14.1763 N   0  0  0  0  0  0  0  0  0  0  0  0
  -31.8573  -27.9776   18.1313 N   0  0  0  0  0  0  0  0  0  0  0  0
  -25.9542  -24.6926   15.8744 N   0  0  0  0  0  0  0  0  0  0  0  0
  -23.9506  -26.3304   19.5757 N   0  0  0  0  0  0  0  0  0  0  0  0
  -24.3355  -12.2146   21.0333 N   0  0  0  0  0  0  0  0  0  0  0  0
  -30.3445  -13.3942   21.4425 N   0  0  0  0  0  0  0  0  0  0  0  0
  -32.1114  -26.7912   15.5359 N   0  0  0  0  0  0  0  0  0  0  0  0
  -32.9002  -12.3728   19.0987 N   0  3  0  0  0  0  0  0  0  0  0  0
  -28.1423  -26.5196   20.3682 O   0  0  0  0  0  0  0  0  0  0  0  0
  -29.3016  -22.2504   18.7659 O   0  0  0  0  0  0  0  0  0  0  0  0
  -24.0196  -24.5539   18.1272 O   0  0  0  0  0  0  0  0  0  0  0  0
  -25.2334  -13.4545   22.7879 O   0  0  0  0  0  0  0  0  0  0  0  0
  -28.0253  -12.6972   20.6695 O   0  0  0  0  0  0  0  0  0  0  0  0
  -31.5725  -14.6962   19.9681 O   0  0  0  0  0  0  0  0  0  0  0  0
  -32.3893  -27.5166   13.3620 O   0  0  0  0  0  0  0  0  0  0  0  0
  -25.0704  -31.1944   22.0486 O   0  0  0  0  0  0  0  0  0  0  0  0
  -27.0118  -20.3588   19.4060 O   0  0  0  0  0  0  0  0  0  1  0  0
  -26.9386  -29.9581   27.0870 F   0  0  0  0  0  0  0  0  0  0  0  0
  -26.8435  -32.8664   23.3536 F   0  0  0  0  0  0  0  0  0  0  0  0
  1  2  1  0  0  0  0
  1  5  2  0  0  0  0
  2  6  2  0  0  0  0
  3 10  2  0  0  0  0
  3 18  1  0  0  0  0
  4 11  1  0  0  0  0
  4 18  2  0  0  0  0
  5 20  1  0  0  0  0
  6 22  1  0  0  0  0
  7 12  2  0  0  0  0
  7 21  1  0  0  0  0
  8  9  2  0  0  0  0
  8 24  1  0  0  0  0
  9 25  1  0  0  0  0
 10 27  1  0  0  0  0
 11 27  2  0  0  0  0
 12 28  1  0  0  0  0
 13 14  2  0  0  0  0
 13 29  1  0  0  0  0
 14 30  1  0  0  0  0
 15 23  1  0  0  0  0
 15 28  2  0  0  0  0
 16 24  2  0  0  0  0
 16 26  1  0  0  0  0
 17 30  2  0  0  0  0
 17 31  1  0  0  0  0
 18 32  1  0  0  0  0
 19 32  1  0  0  0  0
 19 33  2  0  0  0  0
 19 36  1  0  0  0  0
 20 22  2  0  0  0  0
 20 41  1  0  0  0  0
 21 23  2  0  0  0  0
 21 42  1  0  0  0  0
 22 52  1  0  0  0  0
 23 43  1  0  0  0  0
 24 68  1  0  0  0  0
 25 26  2  0  0  0  0
 25 76  1  0  0  0  0
 26 71  1  0  0  0  0
 27 85  1  0  0  0  0
 28 86  1  0  0  0  0
 29 31  2  0  0  0  0
 29 85  1  0  0  0  0
 30 87  1  0  0  0  0
 31 88  1  0  0  0  0
 32 66  2  0  0  0  0
 33 67  1  0  0  0  0
 33 72  1  0  0  0  0
 34 44  1  0  0  0  0
 34 68  1  0  0  0  0
 34 78  2  0  0  0  0
 35 53  1  0  0  0  0
 35 68  1  0  0  0  0
 35 79  2  0  0  0  0
 36 73  1  0  0  0  0
 36 80  2  0  0  0  0
 37 54  1  0  0  0  0
 37 74  1  0  0  0  0
 37 81  2  0  0  0  0
 38 63  1  0  0  0  0
 38 69  1  0  0  0  0
 38 82  2  0  0  0  0
 39 64  1  0  0  0  0
 39 75  1  0  0  0  0
 39 83  2  0  0  0  0
 40 70  1  0  0  0  0
 40 76  1  0  0  0  0
 40 84  2  0  0  0  0
 41 45  1  0  0  0  0
 42 54  1  0  0  0  0
 43 69  1  0  0  0  0
 44 46  1  0  0  0  0
 45 48  1  0  0  0  0
 46 53  1  0  0  0  0
 47 49  1  0  0  0  0
 47 50  1  0  0  0  0
 48 52  1  0  0  0  0
 49 55  1  0  0  0  0
 50 70  1  0  0  0  0
 51 55  1  0  0  0  0
 51 70  1  0  0  0  0
 52 74  1  0  0  0  0
 53 62  1  0  0  0  0
 54 69  1  0  0  0  0
 55 67  1  0  0  0  0
 56 64  1  0  0  0  0
 57 65  1  0  0  0  0
 58 65  1  0  0  0  0
 59 65  1  0  0  0  0
 60 76  1  0  0  0  0
 61 77  1  0  0  0  0
 62 86  1  0  0  0  0
 63 65  1  0  0  0  0
 63 75  1  0  0  0  0
 64 77  1  0  0  0  0
 66 67  1  0  0  0  0
M  CHG  1  77   1
M  ISO  4  40 100  62 101  76 100  86 101
M  END
> <Batch ID>
0106

> <Smiles>
CNC(C)C(=O)NC(C(=O)N1Cc2cc([101O:1][101CH2:1]C3CCC(=O)N(c4ccc([100N:0](C)[100C:0](=O)N5CCCC(n6nc(-c7ccc(Oc8ccc(F)cc8F)cc7)c(C(N)=O)c6N)C5)c(N)c4)C3=O)ccc2CC1C(=O)NC1CCCc2ccccc21)C(C)(C)C

> <Shape>
0.259

> <Color>
0.058

> <Negative vol penalty>
0.000

$$$$

  -OEChem-04052301143D

 87 95  0     1  0  0  0  0  0999 V2000
  -18.2385  -24.2736   21.8780 C   0  0  0  0  0  0  0  0  0  0  0  0
  -19.0382  -24.4629   20.7555 C   0  0  0  0  0  0  0  0  0  0  0  0
  -26.6999  -16.8805   20.8999 C   0  0  0  0  0  0  0  0  0  0  0  0
  -25.1348  -15.8379   22.4168 C   0  0  0  0  0  0  0  0  0  0  0  0
  -18.1179  -25.2888   22.8260 C   0  0  0  0  0  0  0  0  0  0  0  0
  -19.7171  -25.6682   20.5798 C   0  0  0  0  0  0  0  0  0  0  0  0
  -26.8932  -25.8282   19.9728 C   0  0  0  0  0  0  0  0  0  0  0  0
  -26.9195  -15.6501   20.2808 C   0  0  0  0  0  0  0  0  0  0  0  0
  -25.3544  -14.6074   21.7976 C   0  0  0  0  0  0  0  0  0  0  0  0
  -28.2443  -25.9210   19.6378 C   0  0  0  0  0  0  0  0  0  0  0  0
  -28.6929  -12.8376   20.8887 C   0  0  0  0  0  0  0  0  0  0  0  0
  -30.0120  -12.4783   20.6124 C   0  0  0  0  0  0  0  0  0  0  0  0
  -28.0662  -28.3309   19.5430 C   0  0  0  0  0  0  0  0  0  0  0  0
  -32.1739  -22.8645   21.2476 C   0  0  0  0  0  0  0  0  0  0  0  0
  -29.4850  -12.3543   18.2578 C   0  0  0  0  0  0  0  0  0  0  0  0
  -25.8076  -16.9744   21.9680 C   0  0  0  0  0  0  0  0  0  0  0  0
  -24.6105  -19.2070   22.2688 C   0  0  0  0  0  0  0  0  0  0  0  0
  -18.8033  -26.5036   22.6666 C   0  0  0  0  0  0  0  0  0  0  0  0
  -26.1263  -26.9886   20.1095 C   0  0  0  0  0  0  0  0  0  0  0  0
  -19.6045  -26.7012   21.5258 C   0  0  0  0  0  0  0  0  0  0  0  0
  -26.7154  -28.2448   19.8906 C   0  0  0  0  0  0  0  0  0  0  0  0
  -31.9537  -22.3424   22.5461 C   0  0  0  0  0  0  0  0  0  0  0  0
  -26.2468  -14.5135   20.7296 C   0  0  0  0  0  0  0  0  0  0  0  0
  -28.8292  -27.1693   19.4232 C   0  0  0  0  0  0  0  0  0  0  0  0
  -27.7697  -12.9552   19.8496 C   0  0  0  0  0  0  0  0  0  0  0  0
  -30.4081  -12.2366   19.2969 C   0  0  0  0  0  0  0  0  0  0  0  0
  -28.1658  -12.7135   18.5342 C   0  0  0  0  0  0  0  0  0  0  0  0
  -25.5807  -18.2451   22.6083 C   0  0  0  0  0  0  0  0  0  0  0  0
  -31.3736  -23.3402   23.2978 C   0  0  0  0  0  0  0  0  0  0  0  0
  -31.7217  -24.1656   21.2454 C   0  0  0  0  0  0  0  0  0  0  0  0
  -24.8054  -20.2244   23.1706 C   0  0  0  0  0  0  0  0  0  0  0  0
  -23.6215  -19.1828   21.2310 C   0  0  0  0  0  0  0  0  0  0  0  0
  -30.9552  -23.2826   24.7220 C   0  0  0  0  0  0  0  0  0  0  0  0
  -22.7772  -28.4866   20.8940 C   0  0  0  0  0  0  0  0  0  0  0  0
  -24.8861  -30.2720   22.2264 C   0  0  0  0  0  0  0  0  0  0  0  0
  -27.4846  -31.7328   23.8850 C   0  0  0  0  0  0  0  0  0  0  0  0
  -29.5008  -22.0691   26.3144 C   0  0  0  0  0  0  0  0  0  0  0  0
  -18.6045  -27.5894   23.6942 C   0  0  0  0  0  0  0  0  0  0  0  0
  -24.6528  -26.9332   20.4086 C   0  0  0  0  0  0  0  0  0  0  0  0
  -25.8434  -29.4643   20.0148 C   0  0  0  0  0  0  0  0  0  0  0  0
  -19.6536  -28.6960   23.6219 C   0  0  0  0  0  0  0  0  0  0  0  0
  -26.3852  -21.0319   27.6236 C   0  0  0  0  0  0  0  0  0  0  0  0
  -19.8609  -29.1415   22.1778 C   0  0  0  0  0  0  0  0  0  0  0  0
  -25.7267  -20.2994   26.4514 C   0  0  0  0  0  0  0  0  0  0  0  0
  -27.8899  -20.7724   27.6816 C   0  0  0  0  0  0  0  0  0  0  0  0
  -27.9583  -20.3026   25.2666 C   0  0  0  0  0  0  0  0  0  0  0  0
  -20.3763  -27.9853   21.3123 C   0  0  1  0  0  0  0  0  0  0  0  0
  -24.1717  -28.0995   21.2903 C   0  0  1  0  0  0  0  0  0  0  0  0
  -26.4546  -20.5882   25.1232 C   0  0  1  0  0  0  0  0  0  0  0  0
  -32.2914  -20.9773   22.9980 C   0  0  0  0  0  0  0  0  0  0  0  0
  -31.1367  -28.0750   23.6397 C   0  0  0  0  0  0  0  0  0  0  0  0
  -28.0075  -33.6176   25.4571 C   0  0  0  0  0  0  0  0  0  0  0  0
  -30.3942  -27.5555   16.7348 C   0  0  0  0  0  0  0  0  0  0  0  0
  -24.6274  -32.2579   19.9257 C   0  0  0  0  0  0  0  0  0  0  0  0
  -26.0299  -33.8591   21.2438 C   0  0  0  0  0  0  0  0  0  0  0  0
  -23.8238  -33.1102   22.1353 C   0  0  0  0  0  0  0  0  0  0  0  0
  -28.4932  -29.8774   25.9585 C   0  0  0  0  0  0  0  0  0  0  0  0
  -31.7477  -26.7590   23.1873 C   0  0  0  0  0  0  0  0  0  0  0  0
  -32.0254  -26.1346   18.0390 C   0  0  0  0  0  0  0  0  0  0  0  0
  -30.6716  -25.7093   22.9190 C   0  0  0  0  0  0  0  0  0  0  0  0
  -32.1938  -24.8849   18.9033 C   0  0  0  0  0  0  0  0  0  0  0  0
  -25.7657  -31.4914   22.1127 C   0  0  1  0  0  0  0  0  0  0  0  0
  -27.6492  -32.1445   25.3369 C   0  0  2  0  0  0  0  0  0  0  0  0
  -30.5682  -26.5961   17.9050 C   0  0  1  0  0  0  0  0  0  1  0  0
  -25.0714  -32.6536   21.3481 C   0  0  0  0  0  0  0  0  0  0  0  0
  -26.3360  -18.6182   23.6449 N   0  0  0  0  0  0  0  0  0  0  0  0
  -31.2376  -24.4440   22.4969 N   0  0  0  0  0  0  0  0  0  0  0  0
  -25.8404  -19.8259   23.9643 N   0  0  0  0  0  0  0  0  0  0  0  0
  -24.9647  -29.3363   21.1879 N   0  0  0  0  0  0  0  0  0  0  0  0
  -28.5057  -21.0789   26.3893 N   0  0  0  0  0  0  0  0  0  0  0  0
  -24.1908  -21.4123   23.3540 N   0  0  0  0  0  0  0  0  0  0  0  0
  -23.5587  -18.0606   20.3938 N   0  0  0  0  0  0  0  0  0  0  0  0
  -31.7004  -25.1186   20.2391 N   0  0  0  0  0  0  0  0  0  0  0  0
  -29.9956  -22.3176   25.0293 N   0  0  0  0  0  0  0  0  0  0  0  0
  -21.7889  -27.7717   21.5433 N   0  0  0  0  0  0  0  0  0  0  0  0
  -26.1726  -31.8294   23.4723 N   0  0  0  0  0  0  0  0  0  0  0  0
  -28.7274  -31.3442   25.9833 N   0  3  0  0  0  0  0  0  0  0  0  0
  -22.8279  -20.1356   21.0411 O   0  0  0  0  0  0  0  0  0  0  0  0
  -31.4880  -24.0355   25.5327 O   0  0  0  0  0  0  0  0  0  0  0  0
  -22.6089  -29.3700   20.0615 O   0  0  0  0  0  0  0  0  0  0  0  0
  -24.1443  -30.1526   23.2056 O   0  0  0  0  0  0  0  0  0  0  0  0
  -28.4265  -31.3659   23.1859 O   0  0  0  0  0  0  0  0  0  0  0  0
  -29.8882  -22.7042   27.3002 O   0  0  0  0  0  0  0  0  0  0  0  0
  -26.4607  -13.3127   20.1255 O   0  0  0  0  0  0  0  0  0  0  0  0
  -30.1497  -27.2529   19.1008 O   0  0  0  0  0  0  0  0  0  1  0  0
  -31.6752  -11.8931   19.0315 F   0  0  0  0  0  0  0  0  0  0  0  0
  -27.2837  -12.8261   17.5316 F   0  0  0  0  0  0  0  0  0  0  0  0
  1  2  1  0  0  0  0
  1  5  2  0  0  0  0
  2  6  2  0  0  0  0
  3  8  2  0  0  0  0
  3 16  1  0  0  0  0
  4  9  1  0  0  0  0
  4 16  2  0  0  0  0
  5 18  1  0  0  0  0
  6 20  1  0  0  0  0
  7 10  2  0  0  0  0
  7 19  1  0  0  0  0
  8 23  1  0  0  0  0
  9 23  2  0  0  0  0
 10 24  1  0  0  0  0
 11 12  2  0  0  0  0
 11 25  1  0  0  0  0
 12 26  1  0  0  0  0
 13 21  1  0  0  0  0
 13 24  2  0  0  0  0
 14 22  1  0  0  0  0
 14 30  2  0  0  0  0
 15 26  2  0  0  0  0
 15 27  1  0  0  0  0
 16 28  1  0  0  0  0
 17 28  1  0  0  0  0
 17 31  2  0  0  0  0
 17 32  1  0  0  0  0
 18 20  2  0  0  0  0
 18 38  1  0  0  0  0
 19 21  2  0  0  0  0
 19 39  1  0  0  0  0
 20 47  1  0  0  0  0
 21 40  1  0  0  0  0
 22 29  2  0  0  0  0
 22 50  1  0  0  0  0
 23 84  1  0  0  0  0
 24 85  1  0  0  0  0
 25 27  2  0  0  0  0
 25 84  1  0  0  0  0
 26 86  1  0  0  0  0
 27 87  1  0  0  0  0
 28 66  2  0  0  0  0
 29 33  1  0  0  0  0
 29 67  1  0  0  0  0
 30 67  1  0  0  0  0
 30 73  1  0  0  0  0
 31 68  1  0  0  0  0
 31 71  1  0  0  0  0
 32 72  1  0  0  0  0
 32 78  2  0  0  0  0
 33 74  1  0  0  0  0
 33 79  2  0  0  0  0
 34 48  1  0  0  0  0
 34 75  1  0  0  0  0
 34 80  2  0  0  0  0
 35 62  1  0  0  0  0
 35 69  1  0  0  0  0
 35 81  2  0  0  0  0
 36 63  1  0  0  0  0
 36 76  1  0  0  0  0
 36 82  2  0  0  0  0
 37 70  1  0  0  0  0
 37 74  1  0  0  0  0
 37 83  2  0  0  0  0
 38 41  1  0  0  0  0
 39 48  1  0  0  0  0
 40 69  1  0  0  0  0
 41 43  1  0  0  0  0
 42 44  1  0  0  0  0
 42 45  1  0  0  0  0
 43 47  1  0  0  0  0
 44 49  1  0  0  0  0
 45 70  1  0  0  0  0
 46 49  1  0  0  0  0
 46 70  1  0  0  0  0
 47 75  1  0  0  0  0
 48 69  1  0  0  0  0
 49 68  1  0  0  0  0
 51 58  1  0  0  0  0
 52 63  1  0  0  0  0
 53 64  1  0  0  0  0
 54 65  1  0  0  0  0
 55 65  1  0  0  0  0
 56 65  1  0  0  0  0
 57 77  1  0  0  0  0
 58 60  1  0  0  0  0
 59 61  1  0  0  0  0
 59 64  1  0  0  0  0
 60 67  1  0  0  0  0
 61 73  1  0  0  0  0
 62 65  1  0  0  0  0
 62 76  1  0  0  0  0
 63 77  1  0  0  0  0
 64 85  1  0  0  0  0
 66 68  1  0  0  0  0
M  CHG  1  77   1
M  ISO  4  37 100  64 101  74 100  85 101
M  END
> <Batch ID>
0106

> <Smiles>
CCCn1c(NCC[101CH:1](C)[101O:1]c2ccc3c(c2)CN(C(=O)C(NC(=O)C(C)NC)C(C)(C)C)C(C(=O)NC2CCCc4ccccc42)C3)cc(C)c1C(=O)[100NH:0][100C:0](=O)N1CCCC(n2nc(-c3ccc(Oc4ccc(F)cc4F)cc3)c(C(N)=O)c2N)C1

> <Shape>
0.243

> <Color>
0.052

> <Negative vol penalty>
0.000

$$$$

  -OEChem-04052301143D

 86 94  0     1  0  0  0  0  0999 V2000
  -29.4800  -36.2527   25.1859 C   0  0  0  0  0  0  0  0  0  0  0  0
  -29.7898  -35.4320   24.1062 C   0  0  0  0  0  0  0  0  0  0  0  0
  -26.3307  -11.6088   20.8329 C   0  0  0  0  0  0  0  0  0  0  0  0
  -24.3016  -11.9111   19.5567 C   0  0  0  0  0  0  0  0  0  0  0  0
  -28.6275  -35.7919   26.1882 C   0  0  0  0  0  0  0  0  0  0  0  0
  -29.2481  -34.1494   24.0288 C   0  0  0  0  0  0  0  0  0  0  0  0
  -26.9697  -29.3307   19.2428 C   0  0  0  0  0  0  0  0  0  0  0  0
  -25.9360  -10.3097   21.1526 C   0  0  0  0  0  0  0  0  0  0  0  0
  -23.9070  -10.6120   19.8764 C   0  0  0  0  0  0  0  0  0  0  0  0
  -27.1502  -27.9939   18.8907 C   0  0  0  0  0  0  0  0  0  0  0  0
  -22.5392   -9.0022   22.5163 C   0  0  0  0  0  0  0  0  0  0  0  0
  -21.2183   -8.8068   22.9192 C   0  0  0  0  0  0  0  0  0  0  0  0
  -25.6266  -27.3335   20.6405 C   0  0  0  0  0  0  0  0  0  0  0  0
  -29.9738  -16.5324   21.8761 C   0  0  0  0  0  0  0  0  0  0  0  0
  -29.5345  -18.6217   20.7452 C   0  0  0  0  0  0  0  0  0  0  0  0
  -20.8727   -7.3052   21.0583 C   0  0  0  0  0  0  0  0  0  0  0  0
  -25.5134  -12.4095   20.0349 C   0  0  0  0  0  0  0  0  0  0  0  0
  -26.6804  -14.1603   18.5925 C   0  0  0  0  0  0  0  0  0  0  0  0
  -28.0674  -34.5066   26.1182 C   0  0  0  0  0  0  0  0  0  0  0  0
  -26.1232  -29.6789   20.3053 C   0  0  0  0  0  0  0  0  0  0  0  0
  -28.3884  -33.6704   25.0319 C   0  0  0  0  0  0  0  0  0  0  0  0
  -25.4350  -28.6757   21.0025 C   0  0  0  0  0  0  0  0  0  0  0  0
  -30.1656  -17.3783   20.7837 C   0  0  0  0  0  0  0  0  0  0  0  0
  -29.1508  -16.9298   22.9299 C   0  0  0  0  0  0  0  0  0  0  0  0
  -28.7116  -19.0191   21.7991 C   0  0  0  0  0  0  0  0  0  0  0  0
  -28.5198  -18.1731   22.8914 C   0  0  0  0  0  0  0  0  0  0  0  0
  -24.7242   -9.8113   20.6744 C   0  0  0  0  0  0  0  0  0  0  0  0
  -26.4809  -26.9948   19.5915 C   0  0  0  0  0  0  0  0  0  0  0  0
  -23.0270   -8.3492   21.3843 C   0  0  0  0  0  0  0  0  0  0  0  0
  -20.3850   -7.9583   22.1902 C   0  0  0  0  0  0  0  0  0  0  0  0
  -22.1938   -7.5007   20.6553 C   0  0  0  0  0  0  0  0  0  0  0  0
  -25.9202  -13.7518   19.7047 C   0  0  0  0  0  0  0  0  0  0  0  0
  -26.7927  -15.5218   18.7348 C   0  0  0  0  0  0  0  0  0  0  0  0
  -27.2353  -13.3790   17.5261 C   0  0  0  0  0  0  0  0  0  0  0  0
  -26.5182  -31.1330   23.1041 C   0  0  0  0  0  0  0  0  0  0  0  0
  -23.2838  -30.9204   23.2299 C   0  0  0  0  0  0  0  0  0  0  0  0
  -28.1804  -21.2307   20.7179 C   0  0  0  0  0  0  0  0  0  0  0  0
  -20.4421  -29.3361   22.1995 C   0  0  0  0  0  0  0  0  0  0  0  0
  -26.3039  -18.8857   23.8259 C   0  0  0  0  0  0  0  0  0  0  0  0
  -27.1887  -34.0351   27.2497 C   0  0  0  0  0  0  0  0  0  0  0  0
  -25.9185  -31.1273   20.6553 C   0  0  0  0  0  0  0  0  0  0  0  0
  -24.4994  -28.9982   22.1378 C   0  0  0  0  0  0  0  0  0  0  0  0
  -26.3593  -32.8012   26.9032 C   0  0  0  0  0  0  0  0  0  0  0  0
  -24.5535  -19.3136   20.5939 C   0  0  0  0  0  0  0  0  0  0  0  0
  -27.2268  -31.7499   26.2184 C   0  0  0  0  0  0  0  0  0  0  0  0
  -24.7007  -17.9392   19.9437 C   0  0  0  0  0  0  0  0  0  0  0  0
  -24.5472  -19.2221   22.1168 C   0  0  0  0  0  0  0  0  0  0  0  0
  -25.8888  -17.1405   22.0251 C   0  0  0  0  0  0  0  0  0  0  0  0
  -27.8010  -32.2821   24.8999 C   0  0  1  0  0  0  0  0  0  0  0  0
  -25.4311  -31.3331   22.0862 C   0  0  1  0  0  0  0  0  0  0  0  0
  -25.9386  -17.2099   20.4914 C   0  0  1  0  0  0  0  0  0  0  0  0
  -31.0469  -16.9535   19.6582 C   0  0  0  0  0  0  0  0  0  0  0  0
  -28.9648  -16.0012   24.0860 C   0  0  0  0  0  0  0  0  0  0  0  0
  -17.9513  -29.3630   22.5030 C   0  0  0  0  0  0  0  0  0  0  0  0
  -23.6030  -29.5756   25.9501 C   0  0  0  0  0  0  0  0  0  0  0  0
  -21.2336  -28.7890   25.7615 C   0  0  0  0  0  0  0  0  0  0  0  0
  -21.7342  -31.2322   25.8184 C   0  0  0  0  0  0  0  0  0  0  0  0
  -28.3047  -18.9383   25.2491 C   0  0  0  0  0  0  0  0  0  0  0  0
  -19.9827  -29.9115   19.3330 C   0  0  0  0  0  0  0  0  0  0  0  0
  -27.3431  -22.4585   21.0484 C   0  0  0  0  0  0  0  0  0  0  0  0
  -27.4142  -23.5274   19.9633 C   0  0  0  0  0  0  0  0  0  0  0  0
  -26.5328  -24.7232   20.2934 C   0  0  0  0  0  0  0  0  0  1  0  0
  -22.2988  -29.8992   23.7456 C   0  0  1  0  0  0  0  0  0  0  0  0
  -19.1220  -29.8737   21.6775 C   0  0  2  0  0  0  0  0  0  0  0  0
  -22.2365  -29.8675   25.2988 C   0  0  0  0  0  0  0  0  0  0  0  0
  -25.5742  -14.7712   20.4954 N   0  0  0  0  0  0  0  0  0  0  0  0
  -26.1195  -15.8338   19.8792 N   0  0  0  0  0  0  0  0  0  0  0  0
  -24.3373  -30.4286   22.4463 N   0  0  0  0  0  0  0  0  0  0  0  0
  -25.6999  -18.4735   22.6204 N   0  0  0  0  0  0  0  0  0  0  0  0
  -27.4007  -16.4706   17.9915 N   0  0  0  0  0  0  0  0  0  0  0  0
  -27.0250  -11.9934   17.5336 N   0  0  0  0  0  0  0  0  0  0  0  0
  -28.0836  -20.2857   21.7354 N   0  0  0  0  0  0  0  0  0  0  0  0
  -26.7925  -32.2553   23.8622 N   0  0  0  0  0  0  0  0  0  0  0  0
  -21.0243  -30.2003   23.1025 N   0  0  0  0  0  0  0  0  0  0  0  0
  -27.6692  -18.5799   23.9831 N   0  0  0  0  0  0  0  0  0  0  0  0
  -18.9162  -29.4563   20.2617 N   0  3  0  0  0  0  0  0  0  0  0  0
  -27.9118  -13.8923   16.6029 O   0  0  0  0  0  0  0  0  0  0  0  0
  -27.0663  -30.0409   23.1959 O   0  0  0  0  0  0  0  0  0  0  0  0
  -23.1203  -32.1115   23.5062 O   0  0  0  0  0  0  0  0  0  0  0  0
  -28.8301  -21.1454   19.6811 O   0  0  0  0  0  0  0  0  0  0  0  0
  -20.9084  -28.2556   21.8448 O   0  0  0  0  0  0  0  0  0  0  0  0
  -25.6590  -19.4390   24.7252 O   0  0  0  0  0  0  0  0  0  0  0  0
  -24.3390   -8.5436   20.9860 O   0  0  0  0  0  0  0  0  0  0  0  0
  -26.6558  -25.6891   19.2503 O   0  0  0  0  0  0  0  0  0  1  0  0
  -19.1169   -7.7696   22.5782 F   0  0  0  0  0  0  0  0  0  0  0  0
  -22.6570   -6.8696   19.5677 F   0  0  0  0  0  0  0  0  0  0  0  0
  1  2  1  0  0  0  0
  1  5  2  0  0  0  0
  2  6  2  0  0  0  0
  3  8  2  0  0  0  0
  3 17  1  0  0  0  0
  4  9  1  0  0  0  0
  4 17  2  0  0  0  0
  5 19  1  0  0  0  0
  6 21  1  0  0  0  0
  7 10  2  0  0  0  0
  7 20  1  0  0  0  0
  8 27  1  0  0  0  0
  9 27  2  0  0  0  0
 10 28  1  0  0  0  0
 11 12  2  0  0  0  0
 11 29  1  0  0  0  0
 12 30  1  0  0  0  0
 13 22  1  0  0  0  0
 13 28  2  0  0  0  0
 14 23  1  0  0  0  0
 14 24  2  0  0  0  0
 15 23  2  0  0  0  0
 15 25  1  0  0  0  0
 16 30  2  0  0  0  0
 16 31  1  0  0  0  0
 17 32  1  0  0  0  0
 18 32  1  0  0  0  0
 18 33  2  0  0  0  0
 18 34  1  0  0  0  0
 19 21  2  0  0  0  0
 19 40  1  0  0  0  0
 20 22  2  0  0  0  0
 20 41  1  0  0  0  0
 21 49  1  0  0  0  0
 22 42  1  0  0  0  0
 23 52  1  0  0  0  0
 24 26  1  0  0  0  0
 24 53  1  0  0  0  0
 25 26  2  0  0  0  0
 25 72  1  0  0  0  0
 26 75  1  0  0  0  0
 27 83  1  0  0  0  0
 28 84  1  0  0  0  0
 29 31  2  0  0  0  0
 29 83  1  0  0  0  0
 30 85  1  0  0  0  0
 31 86  1  0  0  0  0
 32 66  2  0  0  0  0
 33 67  1  0  0  0  0
 33 70  1  0  0  0  0
 34 71  1  0  0  0  0
 34 77  2  0  0  0  0
 35 50  1  0  0  0  0
 35 73  1  0  0  0  0
 35 78  2  0  0  0  0
 36 63  1  0  0  0  0
 36 68  1  0  0  0  0
 36 79  2  0  0  0  0
 37 60  1  0  0  0  0
 37 72  1  0  0  0  0
 37 80  2  0  0  0  0
 38 64  1  0  0  0  0
 38 74  1  0  0  0  0
 38 81  2  0  0  0  0
 39 69  1  0  0  0  0
 39 75  1  0  0  0  0
 39 82  2  0  0  0  0
 40 43  1  0  0  0  0
 41 50  1  0  0  0  0
 42 68  1  0  0  0  0
 43 45  1  0  0  0  0
 44 46  1  0  0  0  0
 44 47  1  0  0  0  0
 45 49  1  0  0  0  0
 46 51  1  0  0  0  0
 47 69  1  0  0  0  0
 48 51  1  0  0  0  0
 48 69  1  0  0  0  0
 49 73  1  0  0  0  0
 50 68  1  0  0  0  0
 51 67  1  0  0  0  0
 54 64  1  0  0  0  0
 55 65  1  0  0  0  0
 56 65  1  0  0  0  0
 57 65  1  0  0  0  0
 58 75  1  0  0  0  0
 59 76  1  0  0  0  0
 60 61  1  0  0  0  0
 61 62  1  0  0  0  0
 62 84  1  0  0  0  0
 63 65  1  0  0  0  0
 63 74  1  0  0  0  0
 64 76  1  0  0  0  0
 66 67  1  0  0  0  0
M  CHG  1  76   1
M  ISO  4  39 100  62 101  75 100  84 101
M  END
> <Batch ID>
0106

> <Smiles>
CNC(C)C(=O)NC(C(=O)N1Cc2cc([101O:1][101CH2:1]CCC(=O)Nc3cc(C)cc(C)c3[100N:0](C)[100C:0](=O)N3CCCC(n4nc(-c5ccc(Oc6ccc(F)cc6F)cc5)c(C(N)=O)c4N)C3)ccc2CC1C(=O)NC1CCCc2ccccc21)C(C)(C)C

> <Shape>
0.265

> <Color>
0.077

> <Negative vol penalty>
0.000

$$$$

  -OEChem-04052301143D

 88 97  0     1  0  0  0  0  0999 V2000
  -33.4603  -25.1954   18.3312 C   0  0  0  0  0  0  0  0  0  0  0  0
  -32.1809  -25.4846   17.8679 C   0  0  0  0  0  0  0  0  0  0  0  0
  -27.3304  -16.6100   21.2563 C   0  0  0  0  0  0  0  0  0  0  0  0
  -27.0018  -17.0821   18.9098 C   0  0  0  0  0  0  0  0  0  0  0  0
  -33.7259  -25.2153   19.6998 C   0  0  0  0  0  0  0  0  0  0  0  0
  -31.1659  -25.7929   18.7730 C   0  0  0  0  0  0  0  0  0  0  0  0
  -25.2725  -29.8176   19.3947 C   0  0  0  0  0  0  0  0  0  0  0  0
  -18.7401  -22.9005   22.9113 C   0  0  0  0  0  0  0  0  0  0  0  0
  -19.0697  -24.2522   23.0108 C   0  0  0  0  0  0  0  0  0  0  0  0
  -28.6621  -17.0111   21.1506 C   0  0  0  0  0  0  0  0  0  0  0  0
  -28.3336  -17.4832   18.8040 C   0  0  0  0  0  0  0  0  0  0  0  0
  -23.9255  -29.7092   19.7374 C   0  0  0  0  0  0  0  0  0  0  0  0
  -30.1778  -20.2139   19.5541 C   0  0  0  0  0  0  0  0  0  0  0  0
  -30.4450  -21.3905   18.8542 C   0  0  0  0  0  0  0  0  0  0  0  0
  -24.5197  -29.7908   22.0740 C   0  0  0  0  0  0  0  0  0  0  0  0
  -17.9088  -24.6879   20.9372 C   0  0  0  0  0  0  0  0  0  0  0  0
  -31.8165  -20.1529   17.2972 C   0  0  0  0  0  0  0  0  0  0  0  0
  -26.5002  -16.6454   20.1359 C   0  0  0  0  0  0  0  0  0  0  0  0
  -24.6464  -14.9652   20.6338 C   0  0  0  0  0  0  0  0  0  0  0  0
  -32.7160  -25.5333   20.6216 C   0  0  0  0  0  0  0  0  0  0  0  0
  -26.2558  -29.9025   20.3908 C   0  0  0  0  0  0  0  0  0  0  0  0
  -31.4179  -25.8157   20.1553 C   0  0  0  0  0  0  0  0  0  0  0  0
  -25.8783  -29.9028   21.7412 C   0  0  0  0  0  0  0  0  0  0  0  0
  -17.9949  -22.4424   21.8247 C   0  0  0  0  0  0  0  0  0  0  0  0
  -18.6540  -25.1459   22.0238 C   0  0  0  0  0  0  0  0  0  0  0  0
  -17.5792  -23.3361   20.8377 C   0  0  0  0  0  0  0  0  0  0  0  0
  -29.1637  -17.4477   19.9244 C   0  0  0  0  0  0  0  0  0  0  0  0
  -23.5491  -29.6929   21.0773 C   0  0  0  0  0  0  0  0  0  0  0  0
  -30.7300  -19.0068   19.1255 C   0  0  0  0  0  0  0  0  0  0  0  0
  -31.2643  -21.3601   17.7258 C   0  0  0  0  0  0  0  0  0  0  0  0
  -31.5493  -18.9763   17.9971 C   0  0  0  0  0  0  0  0  0  0  0  0
  -25.1246  -16.2307   20.2444 C   0  0  0  0  0  0  0  0  0  0  0  0
  -23.2791  -15.0820   20.5758 C   0  0  0  0  0  0  0  0  0  0  0  0
  -20.5753  -28.2960   22.5701 C   0  0  0  0  0  0  0  0  0  0  0  0
  -20.3017  -27.0309   22.1683 C   0  0  0  0  0  0  0  0  0  0  0  0
  -19.4328  -29.1546   23.0308 C   0  0  0  0  0  0  0  0  0  0  0  0
  -25.3732  -13.7892   21.0140 C   0  0  0  0  0  0  0  0  0  0  0  0
  -28.7398  -28.1145   21.2490 C   0  0  0  0  0  0  0  0  0  0  0  0
  -29.3140  -30.5774   23.2804 C   0  0  0  0  0  0  0  0  0  0  0  0
  -27.3694  -32.7276   25.4281 C   0  0  0  0  0  0  0  0  0  0  0  0
  -19.7055  -19.7537   21.0856 C   0  0  0  0  0  0  0  0  0  0  0  0
  -33.0393  -25.4958   22.0942 C   0  0  0  0  0  0  0  0  0  0  0  0
  -27.7024  -30.0459   20.0042 C   0  0  0  0  0  0  0  0  0  0  0  0
  -26.8935  -30.0117   22.8484 C   0  0  0  0  0  0  0  0  0  0  0  0
  -18.0649  -28.5282   23.1557 C   0  0  0  0  0  0  0  0  0  0  0  0
  -32.0002  -26.1987   22.9640 C   0  0  0  0  0  0  0  0  0  0  0  0
  -19.8181  -17.4650   18.2845 C   0  0  0  0  0  0  0  0  0  0  0  0
  -30.5912  -25.7805   22.5555 C   0  0  0  0  0  0  0  0  0  0  0  0
  -21.1595  -16.7669   18.5158 C   0  0  0  0  0  0  0  0  0  0  0  0
  -17.8473  -27.4395   22.1195 C   0  0  0  0  0  0  0  0  0  0  0  0
  -19.8926  -18.9429   18.6566 C   0  0  0  0  0  0  0  0  0  0  0  0
  -21.6924  -18.5083   20.2832 C   0  0  0  0  0  0  0  0  0  0  0  0
  -30.2965  -26.1789   21.1044 C   0  0  1  0  0  0  0  0  0  0  0  0
  -28.6617  -29.6082   21.1068 C   0  0  1  0  0  0  0  0  0  0  0  0
  -21.6762  -17.0061   19.9469 C   0  0  2  0  0  0  0  0  0  0  0  0
  -21.4148  -26.1495   21.6357 C   0  0  0  0  0  0  0  0  0  0  0  0
  -27.8121  -35.0636   26.2310 C   0  0  0  0  0  0  0  0  0  0  0  0
  -30.5297  -29.1997   25.7164 C   0  0  0  0  0  0  0  0  0  0  0  0
  -29.5391  -31.0025   27.1435 C   0  0  0  0  0  0  0  0  0  0  0  0
  -31.2325  -31.5795   25.4050 C   0  0  0  0  0  0  0  0  0  0  0  0
  -24.7757  -33.7012   24.3870 C   0  0  0  0  0  0  0  0  0  0  0  0
  -17.6567  -20.9894   21.7432 C   0  0  0  0  0  0  0  0  0  0  0  0
  -21.9318  -28.9376   22.6488 C   0  0  0  0  0  0  0  0  0  1  0  0
  -28.8988  -30.9187   24.6911 C   0  0  1  0  0  0  0  0  0  0  0  0
  -27.0784  -34.2022   25.2149 C   0  0  2  0  0  0  0  0  0  0  0  0
  -30.0335  -30.6594   25.7220 C   0  0  0  0  0  0  0  0  0  0  0  0
  -24.1410  -17.0884   19.9599 N   0  0  0  0  0  0  0  0  0  0  0  0
  -23.0311  -16.3605   20.1706 N   0  0  0  0  0  0  0  0  0  0  0  0
  -18.9910  -26.5204   22.1245 N   0  0  0  0  0  0  0  0  0  0  0  0
  -28.2958  -30.1436   22.4197 N   0  0  0  0  0  0  0  0  0  0  0  0
  -20.3734  -19.1005   20.0365 N   0  0  0  0  0  0  0  0  0  0  0  0
  -16.8235  -22.8900   19.7312 N   0  0  0  0  0  0  0  0  0  0  0  0
  -22.2769  -14.2148   20.8323 N   0  0  0  0  0  0  0  0  0  0  0  0
  -25.7303  -12.8725   20.0158 N   0  0  0  0  0  0  0  0  0  0  0  0
  -29.9984  -27.5925   21.0189 N   0  0  0  0  0  0  0  0  0  0  0  0
  -28.4280  -32.2991   24.6554 N   0  0  0  0  0  0  0  0  0  0  0  0
  -18.4652  -20.2931   20.7673 N   0  0  0  0  0  0  0  0  0  0  0  0
  -25.6172  -34.4656   25.3433 N   0  3  0  0  0  0  0  0  0  0  0  0
  -19.6159  -30.3282   23.3531 O   0  0  0  0  0  0  0  0  0  0  0  0
  -25.6821  -13.5501   22.2060 O   0  0  0  0  0  0  0  0  0  0  0  0
  -27.7331  -27.4825   21.5471 O   0  0  0  0  0  0  0  0  0  0  0  0
  -30.4969  -30.6983   22.9522 O   0  0  0  0  0  0  0  0  0  0  0  0
  -26.7247  -32.0270   26.2052 O   0  0  0  0  0  0  0  0  0  0  0  0
  -20.1774  -19.8450   22.2241 O   0  0  0  0  0  0  0  0  0  0  0  0
  -30.4631  -17.8394   19.8209 O   0  0  0  0  0  0  0  0  0  0  0  0
  -22.2351  -29.5866   21.4146 O   0  0  0  0  0  0  0  0  0  1  0  0
  -31.5196  -22.4898   17.0530 F   0  0  0  0  0  0  0  0  0  0  0  0
  -32.0817  -17.8195   17.5799 F   0  0  0  0  0  0  0  0  0  0  0  0
  1  2  1  0  0  0  0
  1  5  2  0  0  0  0
  2  6  2  0  0  0  0
  3 10  2  0  0  0  0
  3 18  1  0  0  0  0
  4 11  1  0  0  0  0
  4 18  2  0  0  0  0
  5 20  1  0  0  0  0
  6 22  1  0  0  0  0
  7 12  2  0  0  0  0
  7 21  1  0  0  0  0
  8  9  2  0  0  0  0
  8 24  1  0  0  0  0
  9 25  1  0  0  0  0
 10 27  1  0  0  0  0
 11 27  2  0  0  0  0
 12 28  1  0  0  0  0
 13 14  2  0  0  0  0
 13 29  1  0  0  0  0
 14 30  1  0  0  0  0
 15 23  1  0  0  0  0
 15 28  2  0  0  0  0
 16 25  2  0  0  0  0
 16 26  1  0  0  0  0
 17 30  2  0  0  0  0
 17 31  1  0  0  0  0
 18 32  1  0  0  0  0
 19 32  1  0  0  0  0
 19 33  2  0  0  0  0
 19 37  1  0  0  0  0
 20 22  2  0  0  0  0
 20 42  1  0  0  0  0
 21 23  2  0  0  0  0
 21 43  1  0  0  0  0
 22 53  1  0  0  0  0
 23 44  1  0  0  0  0
 24 26  2  0  0  0  0
 24 62  1  0  0  0  0
 25 69  1  0  0  0  0
 26 72  1  0  0  0  0
 27 85  1  0  0  0  0
 28 86  1  0  0  0  0
 29 31  2  0  0  0  0
 29 85  1  0  0  0  0
 30 87  1  0  0  0  0
 31 88  1  0  0  0  0
 32 67  2  0  0  0  0
 33 68  1  0  0  0  0
 33 73  1  0  0  0  0
 34 35  2  0  0  0  0
 34 36  1  0  0  0  0
 34 63  1  0  0  0  0
 35 56  1  0  0  0  0
 35 69  1  0  0  0  0
 36 45  1  0  0  0  0
 36 79  2  0  0  0  0
 37 74  1  0  0  0  0
 37 80  2  0  0  0  0
 38 54  1  0  0  0  0
 38 75  1  0  0  0  0
 38 81  2  0  0  0  0
 39 64  1  0  0  0  0
 39 70  1  0  0  0  0
 39 82  2  0  0  0  0
 40 65  1  0  0  0  0
 40 76  1  0  0  0  0
 40 83  2  0  0  0  0
 41 71  1  0  0  0  0
 41 77  1  0  0  0  0
 41 84  2  0  0  0  0
 42 46  1  0  0  0  0
 43 54  1  0  0  0  0
 44 70  1  0  0  0  0
 45 50  1  0  0  0  0
 46 48  1  0  0  0  0
 47 49  1  0  0  0  0
 47 51  1  0  0  0  0
 48 53  1  0  0  0  0
 49 55  1  0  0  0  0
 50 69  1  0  0  0  0
 51 71  1  0  0  0  0
 52 55  1  0  0  0  0
 52 71  1  0  0  0  0
 53 75  1  0  0  0  0
 54 70  1  0  0  0  0
 55 68  1  0  0  0  0
 57 65  1  0  0  0  0
 58 66  1  0  0  0  0
 59 66  1  0  0  0  0
 60 66  1  0  0  0  0
 61 78  1  0  0  0  0
 62 77  1  0  0  0  0
 63 86  1  0  0  0  0
 64 66  1  0  0  0  0
 64 76  1  0  0  0  0
 65 78  1  0  0  0  0
 67 68  1  0  0  0  0
M  CHG  1  78   1
M  ISO  4  41 100  63 101  77 100  86 101
M  END
> <Batch ID>
0106

> <Smiles>
CNC(C)C(=O)NC(C(=O)N1Cc2cc([101O:1][101CH2:1]C3=C(C)N(c4ccc(C[100NH:0][100C:0](=O)N5CCCC(n6nc(-c7ccc(Oc8ccc(F)cc8F)cc7)c(C(N)=O)c6N)C5)c(N)c4)CCC3=O)ccc2CC1C(=O)NC1CCCc2ccccc21)C(C)(C)C

> <Shape>
0.253

> <Color>
0.071

> <Negative vol penalty>
0.000

$$$$

  -OEChem-04052301143D

 87 95  0     1  0  0  0  0  0999 V2000
  -31.4917  -20.1006   23.1322 C   0  0  0  0  0  0  0  0  0  0  0  0
  -30.3034  -20.3865   22.4676 C   0  0  0  0  0  0  0  0  0  0  0  0
  -26.0687  -27.4641   21.5338 C   0  0  0  0  0  0  0  0  0  0  0  0
  -24.5977  -28.4831   19.9106 C   0  0  0  0  0  0  0  0  0  0  0  0
  -31.9220  -18.7798   23.2515 C   0  0  0  0  0  0  0  0  0  0  0  0
  -29.5452  -19.3518   21.9210 C   0  0  0  0  0  0  0  0  0  0  0  0
  -24.6019  -19.8342   22.9087 C   0  0  0  0  0  0  0  0  0  0  0  0
  -26.5752  -26.6204   20.5452 C   0  0  0  0  0  0  0  0  0  0  0  0
  -25.1042  -27.6395   18.9219 C   0  0  0  0  0  0  0  0  0  0  0  0
  -23.8863  -20.7535   22.1428 C   0  0  0  0  0  0  0  0  0  0  0  0
  -25.6267  -23.7886   18.9623 C   0  0  0  0  0  0  0  0  0  0  0  0
  -25.7765  -22.4383   19.2781 C   0  0  0  0  0  0  0  0  0  0  0  0
  -23.0582  -18.9534   20.7668 C   0  0  0  0  0  0  0  0  0  0  0  0
  -18.9331  -27.1591   20.8737 C   0  0  0  0  0  0  0  0  0  0  0  0
  -18.0250  -26.9573   23.5038 C   0  0  0  0  0  0  0  0  0  0  0  0
  -28.1476  -22.5996   18.8432 C   0  0  0  0  0  0  0  0  0  0  0  0
  -25.0800  -28.3955   21.2165 C   0  0  0  0  0  0  0  0  0  0  0  0
  -25.0383  -30.5391   22.5987 C   0  0  0  0  0  0  0  0  0  0  0  0
  -31.1637  -17.7275   22.7144 C   0  0  0  0  0  0  0  0  0  0  0  0
  -24.5596  -18.4665   22.6022 C   0  0  0  0  0  0  0  0  0  0  0  0
  -29.9664  -18.0158   22.0320 C   0  0  0  0  0  0  0  0  0  0  0  0
  -23.7722  -18.0186   21.5319 C   0  0  0  0  0  0  0  0  0  0  0  0
  -18.7017  -28.3132   21.6221 C   0  0  0  0  0  0  0  0  0  0  0  0
  -18.7103  -25.9040   21.4403 C   0  0  0  0  0  0  0  0  0  0  0  0
  -18.2477  -28.2123   22.9371 C   0  0  0  0  0  0  0  0  0  0  0  0
  -26.0929  -26.7081   19.2393 C   0  0  0  0  0  0  0  0  0  0  0  0
  -23.1166  -20.3135   21.0699 C   0  0  0  0  0  0  0  0  0  0  0  0
  -26.7373  -24.5445   18.5868 C   0  0  0  0  0  0  0  0  0  0  0  0
  -18.2563  -25.8032   22.7554 C   0  0  0  0  0  0  0  0  0  0  0  0
  -27.0369  -21.8438   19.2186 C   0  0  0  0  0  0  0  0  0  0  0  0
  -27.9977  -23.9500   18.5273 C   0  0  0  0  0  0  0  0  0  0  0  0
  -24.5560  -29.2669   22.2373 C   0  0  0  0  0  0  0  0  0  0  0  0
  -24.2040  -30.9480   23.6102 C   0  0  0  0  0  0  0  0  0  0  0  0
  -17.1025  -30.2482   23.2713 C   0  0  0  0  0  0  0  0  0  0  0  0
  -26.1417  -31.2847   22.0674 C   0  0  0  0  0  0  0  0  0  0  0  0
  -26.7100  -16.2976   21.7214 C   0  0  0  0  0  0  0  0  0  0  0  0
  -24.2119  -14.2551   22.0531 C   0  0  0  0  0  0  0  0  0  0  0  0
  -20.6612  -22.8721   20.3687 C   0  0  0  0  0  0  0  0  0  0  0  0
  -20.8304  -13.7960   22.0922 C   0  0  0  0  0  0  0  0  0  0  0  0
  -18.5801  -29.4707   25.0414 C   0  0  0  0  0  0  0  0  0  0  0  0
  -31.6934  -16.3199   22.8272 C   0  0  0  0  0  0  0  0  0  0  0  0
  -25.3160  -17.4847   23.4545 C   0  0  0  0  0  0  0  0  0  0  0  0
  -23.6771  -16.5587   21.1739 C   0  0  0  0  0  0  0  0  0  0  0  0
  -30.6422  -15.2492   22.5460 C   0  0  0  0  0  0  0  0  0  0  0  0
  -21.4476  -29.2608   27.1214 C   0  0  0  0  0  0  0  0  0  0  0  0
  -29.8554  -15.5919   21.2849 C   0  0  0  0  0  0  0  0  0  0  0  0
  -22.6189  -29.3196   26.1434 C   0  0  0  0  0  0  0  0  0  0  0  0
  -20.2815  -28.4778   26.5311 C   0  0  0  0  0  0  0  0  0  0  0  0
  -20.9596  -29.1038   24.2283 C   0  0  0  0  0  0  0  0  0  0  0  0
  -29.1037  -16.9186   21.4471 C   0  0  1  0  0  0  0  0  0  0  0  0
  -25.6089  -16.1712   22.7360 C   0  0  1  0  0  0  0  0  0  0  0  0
  -22.1669  -29.8823   24.7863 C   0  0  2  0  0  0  0  0  0  0  0  0
  -18.9474  -29.6468   20.9959 C   0  0  0  0  0  0  0  0  0  0  0  0
  -19.0879  -12.0083   22.3482 C   0  0  0  0  0  0  0  0  0  0  0  0
  -24.7756  -13.3019   19.2100 C   0  0  0  0  0  0  0  0  0  0  0  0
  -22.4998  -12.2586   19.1831 C   0  0  0  0  0  0  0  0  0  0  0  0
  -24.2070  -11.4810   20.8273 C   0  0  0  0  0  0  0  0  0  0  0  0
  -19.6928  -15.0873   24.5000 C   0  0  0  0  0  0  0  0  0  0  0  0
  -17.5697  -24.5750   24.6726 C   0  0  0  0  0  0  0  0  0  0  0  0
  -18.9638  -24.6724   20.6199 C   0  0  0  0  0  0  0  0  0  0  0  0
  -21.9602  -22.3896   20.9781 C   0  0  0  0  0  0  0  0  0  1  0  0
  -23.1218  -13.7426   21.1431 C   0  0  1  0  0  0  0  0  0  0  0  0
  -19.9251  -13.0582   23.0621 C   0  0  2  0  0  0  0  0  0  0  0  0
  -23.6542  -12.7238   20.0962 C   0  0  0  0  0  0  0  0  0  0  0  0
  -23.4975  -28.8922   22.9606 N   0  0  0  0  0  0  0  0  0  0  0  0
  -23.3078  -29.9351   23.7866 N   0  0  0  0  0  0  0  0  0  0  0  0
  -24.4399  -15.6384   22.0334 N   0  0  0  0  0  0  0  0  0  0  0  0
  -19.8858  -29.0033   25.2249 N   0  0  0  0  0  0  0  0  0  0  0  0
  -24.1569  -32.0715   24.3572 N   0  0  0  0  0  0  0  0  0  0  0  0
  -26.8942  -30.7169   21.0302 N   0  0  0  0  0  0  0  0  0  0  0  0
  -27.9125  -16.7301   22.2471 N   0  0  0  0  0  0  0  0  0  0  0  0
  -20.1879  -24.0088   21.0051 N   0  0  0  0  0  0  0  0  0  0  0  0
  -22.0778  -13.2138   22.0142 N   0  0  0  0  0  0  0  0  0  0  0  0
  -18.0132  -29.3507   23.6956 N   0  0  0  0  0  0  0  0  0  0  0  0
  -16.6687  -31.3959   23.7823 N   0  3  0  0  0  0  0  0  0  0  0  0
  -19.0034  -14.0136   23.7392 N   0  3  0  0  0  0  0  0  0  0  0  0
  -26.4614  -32.4137   22.5108 O   0  0  0  0  0  0  0  0  0  0  0  0
  -26.4855  -16.0217   20.5487 O   0  0  0  0  0  0  0  0  0  0  0  0
  -24.8331  -13.4584   22.7609 O   0  0  0  0  0  0  0  0  0  0  0  0
  -20.1175  -22.3025   19.4264 O   0  0  0  0  0  0  0  0  0  0  0  0
  -20.4660  -14.7873   21.4636 O   0  0  0  0  0  0  0  0  0  0  0  0
  -17.8831  -29.9708   25.9204 O   0  0  0  0  0  0  0  0  0  0  0  0
  -26.5871  -25.8851   18.2743 O   0  0  0  0  0  0  0  0  0  0  0  0
  -18.0332  -24.5853   23.3240 O   0  0  0  0  0  0  0  0  0  0  0  0
  -22.4177  -21.2088   20.3204 O   0  0  0  0  0  0  0  0  0  1  0  0
  -27.1809  -20.5474   19.5234 F   0  0  0  0  0  0  0  0  0  0  0  0
  -29.0686  -24.6713   18.1684 F   0  0  0  0  0  0  0  0  0  0  0  0
  1  2  1  0  0  0  0
  1  5  2  0  0  0  0
  2  6  2  0  0  0  0
  3  8  2  0  0  0  0
  3 17  1  0  0  0  0
  4  9  1  0  0  0  0
  4 17  2  0  0  0  0
  5 19  1  0  0  0  0
  6 21  1  0  0  0  0
  7 10  2  0  0  0  0
  7 20  1  0  0  0  0
  8 26  1  0  0  0  0
  9 26  2  0  0  0  0
 10 27  1  0  0  0  0
 11 12  2  0  0  0  0
 11 28  1  0  0  0  0
 12 30  1  0  0  0  0
 13 22  1  0  0  0  0
 13 27  2  0  0  0  0
 14 23  2  0  0  0  0
 14 24  1  0  0  0  0
 15 25  2  0  0  0  0
 15 29  1  0  0  0  0
 16 30  2  0  0  0  0
 16 31  1  0  0  0  0
 17 32  1  0  0  0  0
 18 32  1  0  0  0  0
 18 33  2  0  0  0  0
 18 35  1  0  0  0  0
 19 21  2  0  0  0  0
 19 41  1  0  0  0  0
 20 22  2  0  0  0  0
 20 42  1  0  0  0  0
 21 50  1  0  0  0  0
 22 43  1  0  0  0  0
 23 25  1  0  0  0  0
 23 53  1  0  0  0  0
 24 29  2  0  0  0  0
 24 60  1  0  0  0  0
 25 74  1  0  0  0  0
 26 83  1  0  0  0  0
 27 85  1  0  0  0  0
 28 31  2  0  0  0  0
 28 83  1  0  0  0  0
 29 84  1  0  0  0  0
 30 86  1  0  0  0  0
 31 87  1  0  0  0  0
 32 65  2  0  0  0  0
 33 66  1  0  0  0  0
 33 69  1  0  0  0  0
 34 74  1  0  0  0  0
 34 75  2  0  0  0  0
 35 70  1  0  0  0  0
 35 77  2  0  0  0  0
 36 51  1  0  0  0  0
 36 71  1  0  0  0  0
 36 78  2  0  0  0  0
 37 62  1  0  0  0  0
 37 67  1  0  0  0  0
 37 79  2  0  0  0  0
 38 61  1  0  0  0  0
 38 72  1  0  0  0  0
 38 80  2  0  0  0  0
 39 63  1  0  0  0  0
 39 73  1  0  0  0  0
 39 81  2  0  0  0  0
 40 68  1  0  0  0  0
 40 74  1  0  0  0  0
 40 82  2  0  0  0  0
 41 44  1  0  0  0  0
 42 51  1  0  0  0  0
 43 67  1  0  0  0  0
 44 46  1  0  0  0  0
 45 47  1  0  0  0  0
 45 48  1  0  0  0  0
 46 50  1  0  0  0  0
 47 52  1  0  0  0  0
 48 68  1  0  0  0  0
 49 52  1  0  0  0  0
 49 68  1  0  0  0  0
 50 71  1  0  0  0  0
 51 67  1  0  0  0  0
 52 66  1  0  0  0  0
 54 63  1  0  0  0  0
 55 64  1  0  0  0  0
 56 64  1  0  0  0  0
 57 64  1  0  0  0  0
 58 76  1  0  0  0  0
 59 84  1  0  0  0  0
 60 72  1  0  0  0  0
 61 85  1  0  0  0  0
 62 64  1  0  0  0  0
 62 73  1  0  0  0  0
 63 76  1  0  0  0  0
 65 66  1  0  0  0  0
M  CHG  2  75   1  76   1
M  ISO  4  40 100  61 101  74 100  85 101
M  END
> <Batch ID>
0106

> <Smiles>
CNC(C)C(=O)NC(C(=O)N1Cc2cc([101O:1][101CH2:1]C(=O)NCc3cc(C)c([100N:0](C=N)[100C:0](=O)N4CCCC(n5nc(-c6ccc(Oc7ccc(F)cc7F)cc6)c(C(N)=O)c5N)C4)cc3OC)ccc2CC1C(=O)NC1CCCc2ccccc21)C(C)(C)C

> <Shape>
0.221

> <Color>
0.059

> <Negative vol penalty>
0.000

$$$$

  -OEChem-04052301143D

 86 94  0     1  0  0  0  0  0999 V2000
  -24.3684   -7.4459   25.0997 C   0  0  0  0  0  0  0  0  0  0  0  0
  -25.5185   -8.1609   24.7810 C   0  0  0  0  0  0  0  0  0  0  0  0
  -27.2018  -30.9154   22.0532 C   0  0  0  0  0  0  0  0  0  0  0  0
  -25.4539  -31.6899   20.5760 C   0  0  0  0  0  0  0  0  0  0  0  0
  -23.2669   -7.4828   24.2457 C   0  0  0  0  0  0  0  0  0  0  0  0
  -25.5681   -8.9124   23.6075 C   0  0  0  0  0  0  0  0  0  0  0  0
  -28.4755  -14.2362   22.7654 C   0  0  0  0  0  0  0  0  0  0  0  0
  -30.8438  -21.8676   19.1583 C   0  0  0  0  0  0  0  0  0  0  0  0
  -27.3771  -32.2154   22.5274 C   0  0  0  0  0  0  0  0  0  0  0  0
  -25.6292  -32.9899   21.0503 C   0  0  0  0  0  0  0  0  0  0  0  0
  -29.7118  -14.5511   22.2031 C   0  0  0  0  0  0  0  0  0  0  0  0
  -31.5245  -20.7376   19.6115 C   0  0  0  0  0  0  0  0  0  0  0  0
  -24.7425  -34.7877   23.7710 C   0  0  0  0  0  0  0  0  0  0  0  0
  -23.5983  -35.5223   24.0818 C   0  0  0  0  0  0  0  0  0  0  0  0
  -28.6289  -15.0180   20.0987 C   0  0  0  0  0  0  0  0  0  0  0  0
  -28.7862  -20.9970   20.0778 C   0  0  0  0  0  0  0  0  0  0  0  0
  -24.2212  -37.1857   22.4440 C   0  0  0  0  0  0  0  0  0  0  0  0
  -26.2402  -30.6527   21.0774 C   0  0  0  0  0  0  0  0  0  0  0  0
  -25.1906  -28.3277   21.0990 C   0  0  0  0  0  0  0  0  0  0  0  0
  -23.2996   -8.2429   23.0659 C   0  0  0  0  0  0  0  0  0  0  0  0
  -27.3060  -14.2995   21.9943 C   0  0  0  0  0  0  0  0  0  0  0  0
  -24.4666   -8.9584   22.7362 C   0  0  0  0  0  0  0  0  0  0  0  0
  -27.3787  -14.7059   20.6543 C   0  0  0  0  0  0  0  0  0  0  0  0
  -29.4747  -21.9973   19.3915 C   0  0  0  0  0  0  0  0  0  0  0  0
  -29.4669  -19.8670   20.5310 C   0  0  0  0  0  0  0  0  0  0  0  0
  -26.5908  -33.2527   22.0260 C   0  0  0  0  0  0  0  0  0  0  0  0
  -29.7890  -14.9393   20.8688 C   0  0  0  0  0  0  0  0  0  0  0  0
  -30.8360  -19.7373   20.2979 C   0  0  0  0  0  0  0  0  0  0  0  0
  -25.6262  -35.2521   22.7967 C   0  0  0  0  0  0  0  0  0  0  0  0
  -23.3376  -36.7213   23.4183 C   0  0  0  0  0  0  0  0  0  0  0  0
  -25.3655  -36.4510   22.1332 C   0  0  0  0  0  0  0  0  0  0  0  0
  -26.0591  -29.3101   20.5867 C   0  0  0  0  0  0  0  0  0  0  0  0
  -25.3905  -27.2366   20.2891 C   0  0  0  0  0  0  0  0  0  0  0  0
  -24.2842  -28.3954   22.2078 C   0  0  0  0  0  0  0  0  0  0  0  0
  -25.1109  -12.1937   21.0717 C   0  0  0  0  0  0  0  0  0  0  0  0
  -27.5880  -23.9801   20.9507 C   0  0  0  0  0  0  0  0  0  0  0  0
  -23.6300  -14.8341   19.9064 C   0  0  0  0  0  0  0  0  0  0  0  0
  -23.8937  -18.0468   18.7858 C   0  0  0  0  0  0  0  0  0  0  0  0
  -29.1882  -23.8598   17.7653 C   0  0  0  0  0  0  0  0  0  0  0  0
  -22.1014   -8.2141   22.1504 C   0  0  0  0  0  0  0  0  0  0  0  0
  -25.9769  -13.9824   22.6231 C   0  0  0  0  0  0  0  0  0  0  0  0
  -26.1502  -14.8094   19.7892 C   0  0  0  0  0  0  0  0  0  0  0  0
  -22.1000   -9.3347   21.1137 C   0  0  0  0  0  0  0  0  0  0  0  0
  -27.8742  -26.7702   15.9179 C   0  0  0  0  0  0  0  0  0  0  0  0
  -23.4702   -9.4535   20.4541 C   0  0  0  0  0  0  0  0  0  0  0  0
  -27.2745  -27.6344   17.0259 C   0  0  0  0  0  0  0  0  0  0  0  0
  -29.0485  -25.9366   16.4221 C   0  0  0  0  0  0  0  0  0  0  0  0
  -28.1215  -25.9595   18.7179 C   0  0  0  0  0  0  0  0  0  0  0  0
  -24.5500   -9.8051   21.4847 C   0  0  1  0  0  0  0  0  0  0  0  0
  -24.9135  -13.5849   21.6040 C   0  0  1  0  0  0  0  0  0  0  0  0
  -26.9089  -26.7792   18.2515 C   0  0  1  0  0  0  0  0  0  0  0  0
  -26.4615  -23.7244   21.9186 C   0  0  0  0  0  0  0  0  0  0  0  0
  -22.5158  -19.9315   17.8657 C   0  0  0  0  0  0  0  0  0  0  0  0
  -23.4916  -13.4132   17.2098 C   0  0  0  0  0  0  0  0  0  0  0  0
  -23.0026  -15.6267   16.1471 C   0  0  0  0  0  0  0  0  0  0  0  0
  -21.4249  -14.6775   17.8301 C   0  0  0  0  0  0  0  0  0  0  0  0
  -24.5980  -19.8201   21.0482 C   0  0  0  0  0  0  0  0  0  0  0  0
  -27.4717  -23.4898   19.5221 C   0  0  0  0  0  0  0  0  0  0  0  0
  -32.9184  -16.7003   20.4025 C   0  0  0  0  0  0  0  0  0  0  0  0
  -31.9873  -15.7893   21.1869 C   0  0  0  0  0  0  0  0  0  1  0  0
  -32.1694  -17.8478   19.7433 C   0  0  0  0  0  0  0  0  0  0  0  0
  -23.6568  -15.5845   18.5968 C   0  0  1  0  0  0  0  0  0  0  0  0
  -23.1008  -19.2978   19.1183 C   0  0  2  0  0  0  0  0  0  0  0  0
  -22.9176  -14.8218   17.4615 C   0  0  0  0  0  0  0  0  0  0  0  0
  -26.7588  -28.8809   19.5330 N   0  0  0  0  0  0  0  0  0  0  0  0
  -26.3302  -27.6168   19.3766 N   0  0  0  0  0  0  0  0  0  0  0  0
  -24.8747  -14.4829   20.4481 N   0  0  0  0  0  0  0  0  0  0  0  0
  -28.6873  -25.1685   17.6142 N   0  0  0  0  0  0  0  0  0  0  0  0
  -28.7577  -18.8621   21.2245 N   0  0  0  0  0  0  0  0  0  0  0  0
  -24.8524  -25.9986   20.2755 N   0  0  0  0  0  0  0  0  0  0  0  0
  -24.2032  -29.5924   22.9325 N   0  0  0  0  0  0  0  0  0  0  0  0
  -24.4900  -11.2117   21.8197 N   0  0  0  0  0  0  0  0  0  0  0  0
  -23.1171  -16.9110   18.8754 N   0  0  0  0  0  0  0  0  0  0  0  0
  -28.7709  -23.1678   18.9229 N   0  0  0  0  0  0  0  0  0  0  0  0
  -23.9745  -20.3019   19.7888 N   0  3  0  0  0  0  0  0  0  0  0  0
  -23.5793  -27.4180   22.5562 O   0  0  0  0  0  0  0  0  0  0  0  0
  -25.7761  -12.0240   20.0566 O   0  0  0  0  0  0  0  0  0  0  0  0
  -28.6000  -24.5846   21.3142 O   0  0  0  0  0  0  0  0  0  0  0  0
  -22.5450  -14.5754   20.4331 O   0  0  0  0  0  0  0  0  0  0  0  0
  -25.0822  -18.0747   18.4739 O   0  0  0  0  0  0  0  0  0  0  0  0
  -29.9252  -23.3414   16.9181 O   0  0  0  0  0  0  0  0  0  0  0  0
  -26.7614  -34.5213   22.4887 O   0  0  0  0  0  0  0  0  0  0  0  0
  -30.9945  -15.2466   20.3173 O   0  0  0  0  0  0  0  0  0  1  0  0
  -31.5231  -18.6347   20.7347 O   0  0  0  0  0  0  0  0  0  0  0  0
  -22.2379  -37.4258   23.7158 F   0  0  0  0  0  0  0  0  0  0  0  0
  -26.2101  -36.9017   21.1954 F   0  0  0  0  0  0  0  0  0  0  0  0
  1  2  1  0  0  0  0
  1  5  2  0  0  0  0
  2  6  2  0  0  0  0
  3  9  2  0  0  0  0
  3 18  1  0  0  0  0
  4 10  1  0  0  0  0
  4 18  2  0  0  0  0
  5 20  1  0  0  0  0
  6 22  1  0  0  0  0
  7 11  2  0  0  0  0
  7 21  1  0  0  0  0
  8 12  2  0  0  0  0
  8 24  1  0  0  0  0
  9 26  1  0  0  0  0
 10 26  2  0  0  0  0
 11 27  1  0  0  0  0
 12 28  1  0  0  0  0
 13 14  2  0  0  0  0
 13 29  1  0  0  0  0
 14 30  1  0  0  0  0
 15 23  1  0  0  0  0
 15 27  2  0  0  0  0
 16 24  2  0  0  0  0
 16 25  1  0  0  0  0
 17 30  2  0  0  0  0
 17 31  1  0  0  0  0
 18 32  1  0  0  0  0
 19 32  1  0  0  0  0
 19 33  2  0  0  0  0
 19 34  1  0  0  0  0
 20 22  2  0  0  0  0
 20 40  1  0  0  0  0
 21 23  2  0  0  0  0
 21 41  1  0  0  0  0
 22 49  1  0  0  0  0
 23 42  1  0  0  0  0
 24 74  1  0  0  0  0
 25 28  2  0  0  0  0
 25 69  1  0  0  0  0
 26 82  1  0  0  0  0
 27 83  1  0  0  0  0
 28 84  1  0  0  0  0
 29 31  2  0  0  0  0
 29 82  1  0  0  0  0
 30 85  1  0  0  0  0
 31 86  1  0  0  0  0
 32 65  2  0  0  0  0
 33 66  1  0  0  0  0
 33 70  1  0  0  0  0
 34 71  1  0  0  0  0
 34 76  2  0  0  0  0
 35 50  1  0  0  0  0
 35 72  1  0  0  0  0
 35 77  2  0  0  0  0
 36 52  1  0  0  0  0
 36 58  1  0  0  0  0
 36 78  2  0  0  0  0
 37 62  1  0  0  0  0
 37 67  1  0  0  0  0
 37 79  2  0  0  0  0
 38 63  1  0  0  0  0
 38 73  1  0  0  0  0
 38 80  2  0  0  0  0
 39 68  1  0  0  0  0
 39 74  1  0  0  0  0
 39 81  2  0  0  0  0
 40 43  1  0  0  0  0
 41 50  1  0  0  0  0
 42 67  1  0  0  0  0
 43 45  1  0  0  0  0
 44 46  1  0  0  0  0
 44 47  1  0  0  0  0
 45 49  1  0  0  0  0
 46 51  1  0  0  0  0
 47 68  1  0  0  0  0
 48 51  1  0  0  0  0
 48 68  1  0  0  0  0
 49 72  1  0  0  0  0
 50 67  1  0  0  0  0
 51 66  1  0  0  0  0
 53 63  1  0  0  0  0
 54 64  1  0  0  0  0
 55 64  1  0  0  0  0
 56 64  1  0  0  0  0
 57 75  1  0  0  0  0
 58 74  1  0  0  0  0
 59 60  1  0  0  0  0
 59 61  1  0  0  0  0
 60 83  1  0  0  0  0
 61 84  1  0  0  0  0
 62 64  1  0  0  0  0
 62 73  1  0  0  0  0
 63 75  1  0  0  0  0
 65 66  1  0  0  0  0
M  CHG  1  75   1
M  ISO  4  39 100  60 101  74 100  83 101
M  END
> <Batch ID>
0106

> <Smiles>
CNC(C)C(=O)NC(C(=O)N1Cc2cc([101O:1][101CH2:1]CCOc3ccc([100N:0](CC(C)=O)[100C:0](=O)N4CCCC(n5nc(-c6ccc(Oc7ccc(F)cc7F)cc6)c(C(N)=O)c5N)C4)cc3N)ccc2CC1C(=O)NC1CCCc2ccccc21)C(C)(C)C

> <Shape>
0.259

> <Color>
0.087

> <Negative vol penalty>
0.000

$$$$

  -OEChem-04052301143D

 90 99  0     1  0  0  0  0  0999 V2000
  -23.4801  -38.9833   24.9925 C   0  0  0  0  0  0  0  0  0  0  0  0
  -23.0797  -38.1331   23.9666 C   0  0  0  0  0  0  0  0  0  0  0  0
  -23.4272  -12.4434   21.7126 C   0  0  0  0  0  0  0  0  0  0  0  0
  -22.3211  -13.9258   20.1582 C   0  0  0  0  0  0  0  0  0  0  0  0
  -24.7135  -38.7915   25.6137 C   0  0  0  0  0  0  0  0  0  0  0  0
  -23.9130  -37.0914   23.5606 C   0  0  0  0  0  0  0  0  0  0  0  0
  -23.6504  -30.4071   20.9980 C   0  0  0  0  0  0  0  0  0  0  0  0
  -28.7304  -22.8309   19.2551 C   0  0  0  0  0  0  0  0  0  0  0  0
  -29.1117  -21.8699   20.1914 C   0  0  0  0  0  0  0  0  0  0  0  0
  -22.1935  -11.9033   22.0755 C   0  0  0  0  0  0  0  0  0  0  0  0
  -21.0873  -13.3857   20.5211 C   0  0  0  0  0  0  0  0  0  0  0  0
  -24.1477  -29.6356   19.9485 C   0  0  0  0  0  0  0  0  0  0  0  0
  -17.6787  -12.1470   20.7759 C   0  0  0  0  0  0  0  0  0  0  0  0
  -16.7824  -11.8316   19.7548 C   0  0  0  0  0  0  0  0  0  0  0  0
  -26.2215  -29.3519   21.1476 C   0  0  0  0  0  0  0  0  0  0  0  0
  -26.6151  -23.0985   20.3913 C   0  0  0  0  0  0  0  0  0  0  0  0
  -18.3904  -10.2900   18.8194 C   0  0  0  0  0  0  0  0  0  0  0  0
  -23.4911  -13.4546   20.7539 C   0  0  0  0  0  0  0  0  0  0  0  0
  -25.8614  -13.3301   19.8191 C   0  0  0  0  0  0  0  0  0  0  0  0
  -25.5582  -37.7411   25.2217 C   0  0  0  0  0  0  0  0  0  0  0  0
  -24.4403  -30.6663   22.1273 C   0  0  0  0  0  0  0  0  0  0  0  0
  -25.1595  -36.8863   24.1763 C   0  0  0  0  0  0  0  0  0  0  0  0
  -25.7310  -30.1248   22.2112 C   0  0  0  0  0  0  0  0  0  0  0  0
  -27.4820  -23.4452   19.3551 C   0  0  0  0  0  0  0  0  0  0  0  0
  -28.2448  -21.5232   21.2277 C   0  0  0  0  0  0  0  0  0  0  0  0
  -26.9964  -22.1376   21.3277 C   0  0  0  0  0  0  0  0  0  0  0  0
  -21.0235  -12.3745   21.4798 C   0  0  0  0  0  0  0  0  0  0  0  0
  -25.4344  -29.1103   20.0219 C   0  0  0  0  0  0  0  0  0  0  0  0
  -18.9310  -11.5340   20.8188 C   0  0  0  0  0  0  0  0  0  0  0  0
  -17.1382  -10.9031   18.7766 C   0  0  0  0  0  0  0  0  0  0  0  0
  -19.2868  -10.6055   19.8405 C   0  0  0  0  0  0  0  0  0  0  0  0
  -24.7652  -14.0133   20.3790 C   0  0  0  0  0  0  0  0  0  0  0  0
  -26.8195  -14.2993   19.6489 C   0  0  0  0  0  0  0  0  0  0  0  0
  -27.6076  -24.3275   17.0712 C   0  0  0  0  0  0  0  0  0  0  0  0
  -26.2118  -25.4761   18.8171 C   0  0  0  0  0  0  0  0  0  0  0  0
  -26.0009  -11.9433   19.4827 C   0  0  0  0  0  0  0  0  0  0  0  0
  -25.6223  -33.2863   23.4846 C   0  0  0  0  0  0  0  0  0  0  0  0
  -26.5556  -31.2011   25.7875 C   0  0  0  0  0  0  0  0  0  0  0  0
  -27.9722  -27.8855   25.9205 C   0  0  0  0  0  0  0  0  0  0  0  0
  -27.9325  -19.3308   22.3622 C   0  0  0  0  0  0  0  0  0  0  0  0
  -26.9027  -37.6024   25.8907 C   0  0  0  0  0  0  0  0  0  0  0  0
  -23.8795  -31.4781   23.2626 C   0  0  0  0  0  0  0  0  0  0  0  0
  -26.6119  -30.3568   23.4107 C   0  0  0  0  0  0  0  0  0  0  0  0
  -27.3210  -25.4664   16.1147 C   0  0  0  0  0  0  0  0  0  0  0  0
  -27.5633  -36.2465   25.6551 C   0  0  0  0  0  0  0  0  0  0  0  0
  -26.8196  -26.7237   16.7857 C   0  0  0  0  0  0  0  0  0  0  0  0
  -27.3198  -18.9866   18.8767 C   0  0  0  0  0  0  0  0  0  0  0  0
  -27.4826  -35.8623   24.1811 C   0  0  0  0  0  0  0  0  0  0  0  0
  -26.6866  -17.5971   18.8157 C   0  0  0  0  0  0  0  0  0  0  0  0
  -26.8514  -19.7760   20.0996 C   0  0  0  0  0  0  0  0  0  0  0  0
  -26.4049  -17.6716   21.3229 C   0  0  0  0  0  0  0  0  0  0  0  0
  -26.0247  -35.7299   23.7245 C   0  0  1  0  0  0  0  0  0  0  0  0
  -25.6646  -26.3505   17.6978 C   0  0  2  0  0  0  0  0  0  0  0  0
  -24.9593  -32.1068   24.1380 C   0  0  1  0  0  0  0  0  0  0  0  0
  -26.9018  -16.8337   20.1345 C   0  0  1  0  0  0  0  0  0  0  0  0
  -29.0897  -21.6691   24.9439 C   0  0  0  0  0  0  0  0  0  0  0  0
  -27.8267  -26.1192   27.6972 C   0  0  0  0  0  0  0  0  0  0  0  0
  -29.1837  -32.3924   26.7795 C   0  0  0  0  0  0  0  0  0  0  0  0
  -29.9585  -30.0698   27.3025 C   0  0  0  0  0  0  0  0  0  0  0  0
  -27.9625  -31.0089   28.4674 C   0  0  0  0  0  0  0  0  0  0  0  0
  -26.9264  -25.8837   24.0080 C   0  0  0  0  0  0  0  0  0  0  0  0
  -24.9786  -27.6018   18.2407 C   0  0  0  0  0  0  0  0  0  1  0  0
  -30.0603  -21.8201   23.7808 C   0  0  0  0  0  0  0  0  0  0  0  0
  -29.9883  -20.6570   22.7987 C   0  0  0  0  0  0  0  0  0  0  0  0
  -27.7830  -30.3566   26.0314 C   0  0  1  0  0  0  0  0  0  0  0  0
  -27.2726  -26.6158   26.3708 C   0  0  2  0  0  0  0  0  0  0  0  0
  -28.7136  -30.9638   27.1189 C   0  0  0  0  0  0  0  0  0  0  0  0
  -25.0039  -15.3159   20.5531 N   0  0  0  0  0  0  0  0  0  0  0  0
  -26.2610  -15.4589   20.1000 N   0  0  0  0  0  0  0  0  0  0  0  0
  -27.0862  -24.4439   18.3820 N   0  0  0  0  0  0  0  0  0  0  0  0
  -26.0208  -31.1623   24.4920 N   0  0  0  0  0  0  0  0  0  0  0  0
  -27.0388  -18.9922   21.3287 N   0  0  0  0  0  0  0  0  0  0  0  0
  -26.1029  -21.8016   22.3695 N   0  0  0  0  0  0  0  0  0  0  0  0
  -28.0770  -14.2642   19.1590 N   0  0  0  0  0  0  0  0  0  0  0  0
  -25.6323  -11.5275   18.1961 N   0  0  0  0  0  0  0  0  0  0  0  0
  -25.4662  -34.4731   24.1750 N   0  0  0  0  0  0  0  0  0  0  0  0
  -27.3006  -29.0146   26.3392 N   0  0  0  0  0  0  0  0  0  0  0  0
  -28.6624  -20.5259   22.1849 N   0  0  0  0  0  0  0  0  0  0  0  0
  -27.4488  -25.5393   25.3553 N   0  3  0  0  0  0  0  0  0  0  0  0
  -28.2005  -23.3381   16.6288 O   0  0  0  0  0  0  0  0  0  0  0  0
  -25.9047  -25.6976   19.9902 O   0  0  0  0  0  0  0  0  0  0  0  0
  -26.4240  -11.0951   20.3044 O   0  0  0  0  0  0  0  0  0  0  0  0
  -26.2316  -33.1308   22.4329 O   0  0  0  0  0  0  0  0  0  0  0  0
  -26.0844  -31.8650   26.7143 O   0  0  0  0  0  0  0  0  0  0  0  0
  -29.0126  -27.8767   25.2663 O   0  0  0  0  0  0  0  0  0  0  0  0
  -28.0502  -18.6336   23.3771 O   0  0  0  0  0  0  0  0  0  0  0  0
  -19.8194  -11.8476   21.8336 O   0  0  0  0  0  0  0  0  0  0  0  0
  -25.9224  -28.3575   18.9987 O   0  0  0  0  0  0  0  0  0  1  0  0
  -16.2767  -10.5992   17.7970 F   0  0  0  0  0  0  0  0  0  0  0  0
  -20.4879  -10.0124   19.8771 F   0  0  0  0  0  0  0  0  0  0  0  0
  1  2  1  0  0  0  0
  1  5  2  0  0  0  0
  2  6  2  0  0  0  0
  3 10  2  0  0  0  0
  3 18  1  0  0  0  0
  4 11  1  0  0  0  0
  4 18  2  0  0  0  0
  5 20  1  0  0  0  0
  6 22  1  0  0  0  0
  7 12  2  0  0  0  0
  7 21  1  0  0  0  0
  8  9  2  0  0  0  0
  8 24  1  0  0  0  0
  9 25  1  0  0  0  0
 10 27  1  0  0  0  0
 11 27  2  0  0  0  0
 12 28  1  0  0  0  0
 13 14  2  0  0  0  0
 13 29  1  0  0  0  0
 14 30  1  0  0  0  0
 15 23  1  0  0  0  0
 15 28  2  0  0  0  0
 16 24  2  0  0  0  0
 16 26  1  0  0  0  0
 17 30  2  0  0  0  0
 17 31  1  0  0  0  0
 18 32  1  0  0  0  0
 19 32  1  0  0  0  0
 19 33  2  0  0  0  0
 19 36  1  0  0  0  0
 20 22  2  0  0  0  0
 20 41  1  0  0  0  0
 21 23  2  0  0  0  0
 21 42  1  0  0  0  0
 22 52  1  0  0  0  0
 23 43  1  0  0  0  0
 24 70  1  0  0  0  0
 25 26  2  0  0  0  0
 25 78  1  0  0  0  0
 26 73  1  0  0  0  0
 27 87  1  0  0  0  0
 28 88  1  0  0  0  0
 29 31  2  0  0  0  0
 29 87  1  0  0  0  0
 30 89  1  0  0  0  0
 31 90  1  0  0  0  0
 32 68  2  0  0  0  0
 33 69  1  0  0  0  0
 33 74  1  0  0  0  0
 34 44  1  0  0  0  0
 34 70  1  0  0  0  0
 34 80  2  0  0  0  0
 35 53  1  0  0  0  0
 35 70  1  0  0  0  0
 35 81  2  0  0  0  0
 36 75  1  0  0  0  0
 36 82  2  0  0  0  0
 37 54  1  0  0  0  0
 37 76  1  0  0  0  0
 37 83  2  0  0  0  0
 38 65  1  0  0  0  0
 38 71  1  0  0  0  0
 38 84  2  0  0  0  0
 39 66  1  0  0  0  0
 39 77  1  0  0  0  0
 39 85  2  0  0  0  0
 40 72  1  0  0  0  0
 40 78  1  0  0  0  0
 40 86  2  0  0  0  0
 41 45  1  0  0  0  0
 42 54  1  0  0  0  0
 43 71  1  0  0  0  0
 44 46  1  0  0  0  0
 45 48  1  0  0  0  0
 46 53  1  0  0  0  0
 47 49  1  0  0  0  0
 47 50  1  0  0  0  0
 48 52  1  0  0  0  0
 49 55  1  0  0  0  0
 50 72  1  0  0  0  0
 51 55  1  0  0  0  0
 51 72  1  0  0  0  0
 52 76  1  0  0  0  0
 53 62  1  0  0  0  0
 54 71  1  0  0  0  0
 55 69  1  0  0  0  0
 56 63  1  0  0  0  0
 57 66  1  0  0  0  0
 58 67  1  0  0  0  0
 59 67  1  0  0  0  0
 60 67  1  0  0  0  0
 61 79  1  0  0  0  0
 62 88  1  0  0  0  0
 63 64  1  0  0  0  0
 64 78  1  0  0  0  0
 65 67  1  0  0  0  0
 65 77  1  0  0  0  0
 66 79  1  0  0  0  0
 68 69  1  0  0  0  0
M  CHG  1  79   1
M  ISO  4  40 100  62 101  78 100  88 101
M  END
> <Batch ID>
0106

> <Smiles>
CCC[100N:0](c1ccc(N2C(=O)CCC([101CH2:1][101O:1]c3ccc4c(c3)CN(C(=O)C(NC(=O)C(C)NC)C(C)(C)C)C(C(=O)NC3CCCc5ccccc53)C4)C2=O)cc1N)[100C:0](=O)N1CCCC(n2nc(-c3ccc(Oc4ccc(F)cc4F)cc3)c(C(N)=O)c2N)C1

> <Shape>
0.263

> <Color>
0.054

> <Negative vol penalty>
0.000

$$$$

  -OEChem-04052301143D

 86 94  0     1  0  0  0  0  0999 V2000
  -16.1685  -24.1559   23.4040 C   0  0  0  0  0  0  0  0  0  0  0  0
  -16.9564  -23.1153   22.9226 C   0  0  0  0  0  0  0  0  0  0  0  0
  -29.1448  -18.7079   19.4815 C   0  0  0  0  0  0  0  0  0  0  0  0
  -28.9487  -19.8817   21.5840 C   0  0  0  0  0  0  0  0  0  0  0  0
  -22.1902   -9.5283   20.1612 C   0  0  0  0  0  0  0  0  0  0  0  0
  -16.6458  -25.4653   23.3660 C   0  0  0  0  0  0  0  0  0  0  0  0
  -18.2217  -23.3837   22.4017 C   0  0  0  0  0  0  0  0  0  0  0  0
  -21.7987  -20.0975   24.1041 C   0  0  0  0  0  0  0  0  0  0  0  0
  -29.0124  -19.9150   18.7952 C   0  0  0  0  0  0  0  0  0  0  0  0
  -28.8164  -21.0889   20.8978 C   0  0  0  0  0  0  0  0  0  0  0  0
  -22.8872   -8.3202   20.1749 C   0  0  0  0  0  0  0  0  0  0  0  0
  -21.8564  -18.8269   23.5331 C   0  0  0  0  0  0  0  0  0  0  0  0
  -30.8406  -23.3011   19.3393 C   0  0  0  0  0  0  0  0  0  0  0  0
  -31.5762  -24.3921   19.8023 C   0  0  0  0  0  0  0  0  0  0  0  0
  -23.6501  -19.5604   22.0969 C   0  0  0  0  0  0  0  0  0  0  0  0
  -24.4765   -9.2548   21.7362 C   0  0  0  0  0  0  0  0  0  0  0  0
  -29.5267  -25.6165   20.1732 C   0  0  0  0  0  0  0  0  0  0  0  0
  -29.1129  -18.6912   20.8759 C   0  0  0  0  0  0  0  0  0  0  0  0
  -22.6363  -10.5997   20.9349 C   0  0  0  0  0  0  0  0  0  0  0  0
  -30.4427  -16.8460   22.0310 C   0  0  0  0  0  0  0  0  0  0  0  0
  -17.9215  -25.7488   22.8533 C   0  0  0  0  0  0  0  0  0  0  0  0
  -22.6606  -21.1142   23.6681 C   0  0  0  0  0  0  0  0  0  0  0  0
  -18.7160  -24.6983   22.3555 C   0  0  0  0  0  0  0  0  0  0  0  0
  -23.6045  -20.8416   22.6674 C   0  0  0  0  0  0  0  0  0  0  0  0
  -28.8482  -21.1055   19.5033 C   0  0  0  0  0  0  0  0  0  0  0  0
  -22.7806  -18.5589   22.5278 C   0  0  0  0  0  0  0  0  0  0  0  0
  -24.0303   -8.1834   20.9624 C   0  0  0  0  0  0  0  0  0  0  0  0
  -29.4481  -23.3678   19.2932 C   0  0  0  0  0  0  0  0  0  0  0  0
  -23.7794  -10.4630   21.7225 C   0  0  0  0  0  0  0  0  0  0  0  0
  -30.9192  -25.5497   20.2193 C   0  0  0  0  0  0  0  0  0  0  0  0
  -28.7911  -24.5255   19.7102 C   0  0  0  0  0  0  0  0  0  0  0  0
  -29.2490  -17.4446   21.5854 C   0  0  0  0  0  0  0  0  0  0  0  0
  -30.0372  -15.6849   22.6424 C   0  0  0  0  0  0  0  0  0  0  0  0
  -21.8794  -11.8777   20.9043 C   0  0  0  0  0  0  0  0  0  0  0  0
  -31.7971  -17.2992   21.9038 C   0  0  0  0  0  0  0  0  0  0  0  0
  -22.3462  -24.0094   22.3397 C   0  0  0  0  0  0  0  0  0  0  0  0
  -22.1199  -15.0165   21.7512 C   0  0  0  0  0  0  0  0  0  0  0  0
  -25.6383  -24.0068   22.8033 C   0  0  0  0  0  0  0  0  0  0  0  0
  -25.9139  -27.6005   22.6691 C   0  0  0  0  0  0  0  0  0  0  0  0
  -25.1519  -12.3625   21.8518 C   0  0  0  0  0  0  0  0  0  0  0  0
  -18.3754  -27.1856   22.7894 C   0  0  0  0  0  0  0  0  0  0  0  0
  -22.6026  -22.4699   24.3185 C   0  0  0  0  0  0  0  0  0  0  0  0
  -24.5537  -21.8970   22.1675 C   0  0  0  0  0  0  0  0  0  0  0  0
  -19.8776  -27.3405   22.5662 C   0  0  0  0  0  0  0  0  0  0  0  0
  -26.3464  -13.7659   24.9884 C   0  0  0  0  0  0  0  0  0  0  0  0
  -20.3490  -26.4171   21.4473 C   0  0  0  0  0  0  0  0  0  0  0  0
  -27.3112  -14.8452   24.4983 C   0  0  0  0  0  0  0  0  0  0  0  0
  -25.1523  -13.6121   24.0507 C   0  0  0  0  0  0  0  0  0  0  0  0
  -26.5028  -14.4267   22.1354 C   0  0  0  0  0  0  0  0  0  0  0  0
  -20.1039  -24.9464   21.8057 C   0  0  1  0  0  0  0  0  0  0  0  0
  -23.2300  -23.5784   23.4757 C   0  0  1  0  0  0  0  0  0  0  0  0
  -27.7347  -14.5867   23.0416 C   0  0  1  0  0  0  0  0  0  0  0  0
  -27.9393  -29.0794   22.5797 C   0  0  0  0  0  0  0  0  0  0  0  0
  -25.3345  -24.1152   25.8367 C   0  0  0  0  0  0  0  0  0  0  0  0
  -25.9975  -26.5278   25.7462 C   0  0  0  0  0  0  0  0  0  0  0  0
  -27.5956  -24.7678   24.9905 C   0  0  0  0  0  0  0  0  0  0  0  0
  -24.9669  -28.9450   20.2084 C   0  0  0  0  0  0  0  0  0  0  0  0
  -25.8710   -6.9333   21.8020 C   0  0  0  0  0  0  0  0  0  0  0  0
  -21.2168  -13.8874   22.1997 C   0  0  0  0  0  0  0  0  0  0  0  0
  -21.9244  -16.3411   22.4612 C   0  0  0  0  0  0  0  0  0  1  0  0
  -25.5818  -25.3096   23.5611 C   0  0  1  0  0  0  0  0  0  0  0  0
  -26.8370  -28.4086   21.7750 C   0  0  2  0  0  0  0  0  0  0  0  0
  -26.1051  -25.1706   25.0186 C   0  0  0  0  0  0  0  0  0  0  0  0
  -28.1663  -16.7232   21.8877 N   0  0  0  0  0  0  0  0  0  0  0  0
  -28.6782  -15.6593   22.5299 N   0  0  0  0  0  0  0  0  0  0  0  0
  -24.5149  -23.1747   22.8906 N   0  0  0  0  0  0  0  0  0  0  0  0
  -25.5921  -13.4108   22.6665 N   0  0  0  0  0  0  0  0  0  0  0  0
  -30.7141  -14.6934   23.2599 N   0  0  0  0  0  0  0  0  0  0  0  0
  -32.0362  -18.5140   21.2471 N   0  0  0  0  0  0  0  0  0  0  0  0
  -21.9155  -12.6438   22.0667 N   0  0  0  0  0  0  0  0  0  0  0  0
  -21.1086  -24.4789   22.7366 N   0  0  0  0  0  0  0  0  0  0  0  0
  -26.3107  -26.2828   22.7548 N   0  0  0  0  0  0  0  0  0  0  0  0
  -26.0690  -29.4655   21.0579 N   0  3  0  0  0  0  0  0  0  0  0  0
  -21.2566  -12.1821   19.8904 O   0  0  0  0  0  0  0  0  0  0  0  0
  -32.7677  -16.6381   22.3446 O   0  0  0  0  0  0  0  0  0  0  0  0
  -22.7572  -23.9239   21.1884 O   0  0  0  0  0  0  0  0  0  0  0  0
  -22.9273  -14.8870   20.8313 O   0  0  0  0  0  0  0  0  0  0  0  0
  -26.6525  -23.7286   22.1573 O   0  0  0  0  0  0  0  0  0  0  0  0
  -24.9405  -28.0902   23.2377 O   0  0  0  0  0  0  0  0  0  0  0  0
  -25.5175  -12.1886   20.6897 O   0  0  0  0  0  0  0  0  0  0  0  0
  -28.7192  -22.2836   18.8340 O   0  0  0  0  0  0  0  0  0  0  0  0
  -24.2435  -11.5250   22.5053 O   0  0  0  0  0  0  0  0  0  0  0  0
  -24.7109   -7.0046   20.9746 O   0  0  0  0  0  0  0  0  0  0  0  0
  -22.8394  -17.3194   21.9692 O   0  0  0  0  0  0  0  0  0  1  0  0
  -31.6256  -26.5968   20.6653 F   0  0  0  0  0  0  0  0  0  0  0  0
  -27.4535  -24.5951   19.6693 F   0  0  0  0  0  0  0  0  0  0  0  0
  1  2  1  0  0  0  0
  1  6  2  0  0  0  0
  2  7  2  0  0  0  0
  3  9  2  0  0  0  0
  3 18  1  0  0  0  0
  4 10  1  0  0  0  0
  4 18  2  0  0  0  0
  5 11  2  0  0  0  0
  5 19  1  0  0  0  0
  6 21  1  0  0  0  0
  7 23  1  0  0  0  0
  8 12  2  0  0  0  0
  8 22  1  0  0  0  0
  9 25  1  0  0  0  0
 10 25  2  0  0  0  0
 11 27  1  0  0  0  0
 12 26  1  0  0  0  0
 13 14  2  0  0  0  0
 13 28  1  0  0  0  0
 14 30  1  0  0  0  0
 15 24  1  0  0  0  0
 15 26  2  0  0  0  0
 16 27  2  0  0  0  0
 16 29  1  0  0  0  0
 17 30  2  0  0  0  0
 17 31  1  0  0  0  0
 18 32  1  0  0  0  0
 19 29  2  0  0  0  0
 19 34  1  0  0  0  0
 20 32  1  0  0  0  0
 20 33  2  0  0  0  0
 20 35  1  0  0  0  0
 21 23  2  0  0  0  0
 21 41  1  0  0  0  0
 22 24  2  0  0  0  0
 22 42  1  0  0  0  0
 23 50  1  0  0  0  0
 24 43  1  0  0  0  0
 25 81  1  0  0  0  0
 26 84  1  0  0  0  0
 27 83  1  0  0  0  0
 28 31  2  0  0  0  0
 28 81  1  0  0  0  0
 29 82  1  0  0  0  0
 30 85  1  0  0  0  0
 31 86  1  0  0  0  0
 32 64  2  0  0  0  0
 33 65  1  0  0  0  0
 33 68  1  0  0  0  0
 34 70  1  0  0  0  0
 34 74  2  0  0  0  0
 35 69  1  0  0  0  0
 35 75  2  0  0  0  0
 36 51  1  0  0  0  0
 36 71  1  0  0  0  0
 36 76  2  0  0  0  0
 37 59  1  0  0  0  0
 37 60  1  0  0  0  0
 37 77  2  0  0  0  0
 38 61  1  0  0  0  0
 38 66  1  0  0  0  0
 38 78  2  0  0  0  0
 39 62  1  0  0  0  0
 39 72  1  0  0  0  0
 39 79  2  0  0  0  0
 40 67  1  0  0  0  0
 40 80  2  0  0  0  0
 40 82  1  0  0  0  0
 41 44  1  0  0  0  0
 42 51  1  0  0  0  0
 43 66  1  0  0  0  0
 44 46  1  0  0  0  0
 45 47  1  0  0  0  0
 45 48  1  0  0  0  0
 46 50  1  0  0  0  0
 47 52  1  0  0  0  0
 48 67  1  0  0  0  0
 49 52  1  0  0  0  0
 49 67  1  0  0  0  0
 50 71  1  0  0  0  0
 51 66  1  0  0  0  0
 52 65  1  0  0  0  0
 53 62  1  0  0  0  0
 54 63  1  0  0  0  0
 55 63  1  0  0  0  0
 56 63  1  0  0  0  0
 57 73  1  0  0  0  0
 58 83  1  0  0  0  0
 59 70  1  0  0  0  0
 60 84  1  0  0  0  0
 61 63  1  0  0  0  0
 61 72  1  0  0  0  0
 62 73  1  0  0  0  0
 64 65  1  0  0  0  0
M  CHG  1  73   1
M  ISO  4  40 100  60 101  82 100  84 101
M  END
> <Batch ID>
0106

> <Smiles>
CNC(C)C(=O)NC(C(=O)N1Cc2cc([101O:1][101CH2:1]C(=O)CNC(=O)c3ccc(OC)cc3[100O:0][100C:0](=O)N3CCCC(n4nc(-c5ccc(Oc6ccc(F)cc6F)cc5)c(C(N)=O)c4N)C3)ccc2CC1C(=O)NC1CCCc2ccccc21)C(C)(C)C

> <Shape>
0.213

> <Color>
0.072

> <Negative vol penalty>
0.000

$$$$

  -OEChem-04052301143D

 87 95  0     1  0  0  0  0  0999 V2000
  -28.4642  -37.3534   20.7107 C   0  0  0  0  0  0  0  0  0  0  0  0
  -28.8351  -36.0129   20.7360 C   0  0  0  0  0  0  0  0  0  0  0  0
  -24.4519   -8.5545   22.7922 C   0  0  0  0  0  0  0  0  0  0  0  0
  -23.9629   -9.5259   20.6348 C   0  0  0  0  0  0  0  0  0  0  0  0
  -27.2685  -37.7560   21.3041 C   0  0  0  0  0  0  0  0  0  0  0  0
  -28.0110  -35.0742   21.3558 C   0  0  0  0  0  0  0  0  0  0  0  0
  -27.1185  -29.2611   19.6478 C   0  0  0  0  0  0  0  0  0  0  0  0
  -23.3794   -7.6759   22.6397 C   0  0  0  0  0  0  0  0  0  0  0  0
  -22.8904   -8.6472   20.4822 C   0  0  0  0  0  0  0  0  0  0  0  0
  -27.6628  -28.0580   20.0949 C   0  0  0  0  0  0  0  0  0  0  0  0
  -22.7332   -4.7970   20.9882 C   0  0  0  0  0  0  0  0  0  0  0  0
  -22.9418   -3.4568   21.3138 C   0  0  0  0  0  0  0  0  0  0  0  0
  -25.7545  -27.7369   21.5352 C   0  0  0  0  0  0  0  0  0  0  0  0
  -30.8398  -18.9050   18.3513 C   0  0  0  0  0  0  0  0  0  0  0  0
  -29.3992  -18.6487   20.2737 C   0  0  0  0  0  0  0  0  0  0  0  0
  -21.2011   -3.5916   22.9838 C   0  0  0  0  0  0  0  0  0  0  0  0
  -24.7436   -9.4796   21.7897 C   0  0  0  0  0  0  0  0  0  0  0  0
  -30.4277  -16.7079   19.2676 C   0  0  0  0  0  0  0  0  0  0  0  0
  -27.1853  -10.1784   21.5499 C   0  0  0  0  0  0  0  0  0  0  0  0
  -26.4247  -36.8204   21.9231 C   0  0  0  0  0  0  0  0  0  0  0  0
  -25.8912  -29.7173   20.1499 C   0  0  0  0  0  0  0  0  0  0  0  0
  -26.8036  -35.4648   21.9593 C   0  0  0  0  0  0  0  0  0  0  0  0
  -25.1955  -28.9449   21.0910 C   0  0  0  0  0  0  0  0  0  0  0  0
  -30.0168  -19.4665   19.3274 C   0  0  0  0  0  0  0  0  0  0  0  0
  -31.0453  -17.5257   18.3213 C   0  0  0  0  0  0  0  0  0  0  0  0
  -29.6046  -17.2694   20.2438 C   0  0  0  0  0  0  0  0  0  0  0  0
  -22.5987   -7.7221   21.4847 C   0  0  0  0  0  0  0  0  0  0  0  0
  -26.9822  -27.2971   21.0409 C   0  0  0  0  0  0  0  0  0  0  0  0
  -21.7586   -5.5345   21.6604 C   0  0  0  0  0  0  0  0  0  0  0  0
  -22.1758   -2.8541   22.3116 C   0  0  0  0  0  0  0  0  0  0  0  0
  -20.9926   -4.9318   22.6582 C   0  0  0  0  0  0  0  0  0  0  0  0
  -25.8510  -10.3879   21.9469 C   0  0  0  0  0  0  0  0  0  0  0  0
  -27.8381  -11.3291   21.9191 C   0  0  0  0  0  0  0  0  0  0  0  0
  -30.6434  -15.2631   19.2362 C   0  0  0  0  0  0  0  0  0  0  0  0
  -27.7813   -9.0450   20.9051 C   0  0  0  0  0  0  0  0  0  0  0  0
  -24.9481  -32.2742   21.7860 C   0  0  0  0  0  0  0  0  0  0  0  0
  -21.9960  -31.0328   21.2699 C   0  0  0  0  0  0  0  0  0  0  0  0
  -29.0232  -21.5880   20.2520 C   0  0  0  0  0  0  0  0  0  0  0  0
  -20.0841  -28.2852   20.6049 C   0  0  0  0  0  0  0  0  0  0  0  0
  -28.1188  -16.8807   22.2407 C   0  0  0  0  0  0  0  0  0  0  0  0
  -25.1650  -37.3101   22.5924 C   0  0  0  0  0  0  0  0  0  0  0  0
  -25.3048  -31.0042   19.6376 C   0  0  0  0  0  0  0  0  0  0  0  0
  -23.8650  -29.3804   21.6464 C   0  0  0  0  0  0  0  0  0  0  0  0
  -24.1669  -36.1970   22.9010 C   0  0  0  0  0  0  0  0  0  0  0  0
  -26.3170  -15.1967   24.8087 C   0  0  0  0  0  0  0  0  0  0  0  0
  -24.8744  -35.0092   23.5456 C   0  0  0  0  0  0  0  0  0  0  0  0
  -26.1449  -13.7783   24.2605 C   0  0  0  0  0  0  0  0  0  0  0  0
  -26.2135  -16.2478   23.7050 C   0  0  0  0  0  0  0  0  0  0  0  0
  -26.9292  -14.6122   22.0074 C   0  0  0  0  0  0  0  0  0  0  0  0
  -25.9244  -34.4130   22.6003 C   0  0  1  0  0  0  0  0  0  0  0  0
  -24.2955  -31.6251   20.5984 C   0  0  1  0  0  0  0  0  0  0  0  0
  -27.0904  -13.5149   23.0720 C   0  0  2  0  0  0  0  0  0  0  0  0
  -17.6989  -27.5773   20.2782 C   0  0  0  0  0  0  0  0  0  0  0  0
  -21.5368  -31.1983   24.2818 C   0  0  0  0  0  0  0  0  0  0  0  0
  -19.5957  -29.6422   24.0011 C   0  0  0  0  0  0  0  0  0  0  0  0
  -19.5733  -31.8748   22.8885 C   0  0  0  0  0  0  0  0  0  0  0  0
  -20.6135  -27.3672   17.8416 C   0  0  0  0  0  0  0  0  0  0  0  0
  -29.0726  -23.0743   19.9262 C   0  0  0  0  0  0  0  0  0  0  0  0
  -28.2292  -23.9131   20.8802 C   0  0  0  0  0  0  0  0  0  0  0  0
  -28.3322  -25.3981   20.5642 C   0  0  0  0  0  0  0  0  0  1  0  0
  -21.1002  -30.0643   22.0038 C   0  0  1  0  0  0  0  0  0  0  0  0
  -18.9734  -28.0509   19.5970 C   0  0  2  0  0  0  0  0  0  0  0  0
  -20.4775  -30.6874   23.2850 C   0  0  0  0  0  0  0  0  0  0  0  0
  -25.6656  -11.5780   22.5242 N   0  0  0  0  0  0  0  0  0  0  0  0
  -26.8921  -12.1267   22.4928 N   0  0  0  0  0  0  0  0  0  0  0  0
  -23.3360  -30.6490   21.1188 N   0  0  0  0  0  0  0  0  0  0  0  0
  -27.1406  -15.9354   22.6151 N   0  0  0  0  0  0  0  0  0  0  0  0
  -31.8836  -16.9797   17.3233 N   0  0  0  0  0  0  0  0  0  0  0  0
  -29.1233  -11.7263   21.8059 N   0  0  0  0  0  0  0  0  0  0  0  0
  -29.7660  -14.5005   18.4766 N   0  0  0  0  0  0  0  0  0  0  0  0
  -26.9667   -7.9471   20.5962 N   0  0  0  0  0  0  0  0  0  0  0  0
  -29.8065  -20.8657   19.3561 N   0  0  0  0  0  0  0  0  0  0  0  0
  -28.9643  -16.4600   21.2146 N   0  0  0  0  0  0  0  0  0  0  0  0
  -25.2880  -33.5987   21.5872 N   0  0  0  0  0  0  0  0  0  0  0  0
  -20.1201  -29.5965   21.0297 N   0  0  0  0  0  0  0  0  0  0  0  0
  -19.3855  -27.0205   18.6024 N   0  3  0  0  0  0  0  0  0  0  0  0
  -31.5654  -14.7381   19.8781 O   0  0  0  0  0  0  0  0  0  0  0  0
  -29.0035   -9.0003   20.6262 O   0  0  0  0  0  0  0  0  0  0  0  0
  -25.1286  -31.6220   22.8077 O   0  0  0  0  0  0  0  0  0  0  0  0
  -21.5225  -32.0877   20.8401 O   0  0  0  0  0  0  0  0  0  0  0  0
  -28.3647  -21.1482   21.1886 O   0  0  0  0  0  0  0  0  0  0  0  0
  -20.8416  -27.3933   20.9809 O   0  0  0  0  0  0  0  0  0  0  0  0
  -28.2179  -17.9716   22.8082 O   0  0  0  0  0  0  0  0  0  0  0  0
  -21.5522   -6.8647   21.3355 O   0  0  0  0  0  0  0  0  0  0  0  0
  -27.5115  -26.1227   21.4796 O   0  0  0  0  0  0  0  0  0  1  0  0
  -22.3752   -1.5667   22.6231 F   0  0  0  0  0  0  0  0  0  0  0  0
  -20.0540   -5.6349   23.3067 F   0  0  0  0  0  0  0  0  0  0  0  0
  1  2  1  0  0  0  0
  1  5  2  0  0  0  0
  2  6  2  0  0  0  0
  3  8  2  0  0  0  0
  3 17  1  0  0  0  0
  4  9  1  0  0  0  0
  4 17  2  0  0  0  0
  5 20  1  0  0  0  0
  6 22  1  0  0  0  0
  7 10  2  0  0  0  0
  7 21  1  0  0  0  0
  8 27  1  0  0  0  0
  9 27  2  0  0  0  0
 10 28  1  0  0  0  0
 11 12  2  0  0  0  0
 11 29  1  0  0  0  0
 12 30  1  0  0  0  0
 13 23  1  0  0  0  0
 13 28  2  0  0  0  0
 14 24  1  0  0  0  0
 14 25  2  0  0  0  0
 15 24  2  0  0  0  0
 15 26  1  0  0  0  0
 16 30  2  0  0  0  0
 16 31  1  0  0  0  0
 17 32  1  0  0  0  0
 18 25  1  0  0  0  0
 18 26  2  0  0  0  0
 18 34  1  0  0  0  0
 19 32  1  0  0  0  0
 19 33  2  0  0  0  0
 19 35  1  0  0  0  0
 20 22  2  0  0  0  0
 20 41  1  0  0  0  0
 21 23  2  0  0  0  0
 21 42  1  0  0  0  0
 22 50  1  0  0  0  0
 23 43  1  0  0  0  0
 24 72  1  0  0  0  0
 25 68  1  0  0  0  0
 26 73  1  0  0  0  0
 27 84  1  0  0  0  0
 28 85  1  0  0  0  0
 29 31  2  0  0  0  0
 29 84  1  0  0  0  0
 30 86  1  0  0  0  0
 31 87  1  0  0  0  0
 32 64  2  0  0  0  0
 33 65  1  0  0  0  0
 33 69  1  0  0  0  0
 34 70  1  0  0  0  0
 34 77  2  0  0  0  0
 35 71  1  0  0  0  0
 35 78  2  0  0  0  0
 36 51  1  0  0  0  0
 36 74  1  0  0  0  0
 36 79  2  0  0  0  0
 37 61  1  0  0  0  0
 37 66  1  0  0  0  0
 37 80  2  0  0  0  0
 38 58  1  0  0  0  0
 38 72  1  0  0  0  0
 38 81  2  0  0  0  0
 39 62  1  0  0  0  0
 39 75  1  0  0  0  0
 39 82  2  0  0  0  0
 40 67  1  0  0  0  0
 40 73  1  0  0  0  0
 40 83  2  0  0  0  0
 41 44  1  0  0  0  0
 42 51  1  0  0  0  0
 43 66  1  0  0  0  0
 44 46  1  0  0  0  0
 45 47  1  0  0  0  0
 45 48  1  0  0  0  0
 46 50  1  0  0  0  0
 47 52  1  0  0  0  0
 48 67  1  0  0  0  0
 49 52  1  0  0  0  0
 49 67  1  0  0  0  0
 50 74  1  0  0  0  0
 51 66  1  0  0  0  0
 52 65  1  0  0  0  0
 53 62  1  0  0  0  0
 54 63  1  0  0  0  0
 55 63  1  0  0  0  0
 56 63  1  0  0  0  0
 57 76  1  0  0  0  0
 58 59  1  0  0  0  0
 59 60  1  0  0  0  0
 60 85  1  0  0  0  0
 61 63  1  0  0  0  0
 61 75  1  0  0  0  0
 62 76  1  0  0  0  0
 64 65  1  0  0  0  0
M  CHG  1  76   1
M  ISO  4  40 100  60 101  73 100  85 101
M  END
> <Batch ID>
0106

> <Smiles>
CNC(C)C(=O)NC(C(=O)N1Cc2cc([101O:1][101CH2:1]CCC(=O)Nc3cc(N)c(C(N)=O)c([100NH:0][100C:0](=O)N4CCCC(n5nc(-c6ccc(Oc7ccc(F)cc7F)cc6)c(C(N)=O)c5N)C4)c3)ccc2CC1C(=O)NC1CCCc2ccccc21)C(C)(C)C

> <Shape>
0.268

> <Color>
0.073

> <Negative vol penalty>
0.000

$$$$

  -OEChem-04052301143D

 87 95  0     1  0  0  0  0  0999 V2000
  -23.6990  -35.4399   21.4824 C   0  0  0  0  0  0  0  0  0  0  0  0
  -24.6333  -34.4091   21.4706 C   0  0  0  0  0  0  0  0  0  0  0  0
  -24.4953   -9.1858   21.5676 C   0  0  0  0  0  0  0  0  0  0  0  0
  -24.3388  -10.5663   23.5441 C   0  0  0  0  0  0  0  0  0  0  0  0
  -27.3024  -21.8237   19.6090 C   0  0  0  0  0  0  0  0  0  0  0  0
  -22.4626  -35.2516   22.0986 C   0  0  0  0  0  0  0  0  0  0  0  0
  -24.3320  -33.1897   22.0760 C   0  0  0  0  0  0  0  0  0  0  0  0
  -25.6521  -29.2231   19.2180 C   0  0  0  0  0  0  0  0  0  0  0  0
  -24.1940   -8.0582   22.3313 C   0  0  0  0  0  0  0  0  0  0  0  0
  -24.0374   -9.4387   24.3079 C   0  0  0  0  0  0  0  0  0  0  0  0
  -26.2137  -21.0484   20.0080 C   0  0  0  0  0  0  0  0  0  0  0  0
  -27.0013  -28.8724   19.1997 C   0  0  0  0  0  0  0  0  0  0  0  0
  -23.1111   -4.8677   23.6964 C   0  0  0  0  0  0  0  0  0  0  0  0
  -22.1780   -3.9670   23.1829 C   0  0  0  0  0  0  0  0  0  0  0  0
  -28.7276  -19.8756   19.7117 C   0  0  0  0  0  0  0  0  0  0  0  0
  -26.5588  -27.1109   20.7872 C   0  0  0  0  0  0  0  0  0  0  0  0
  -20.5090   -5.7135   23.1522 C   0  0  0  0  0  0  0  0  0  0  0  0
  -24.5677  -10.4399   22.1740 C   0  0  0  0  0  0  0  0  0  0  0  0
  -28.5593  -21.2373   19.4608 C   0  0  0  0  0  0  0  0  0  0  0  0
  -23.9703  -12.4511   20.7229 C   0  0  0  0  0  0  0  0  0  0  0  0
  -22.1423  -34.0259   22.7034 C   0  0  0  0  0  0  0  0  0  0  0  0
  -24.7465  -28.5261   20.0307 C   0  0  0  0  0  0  0  0  0  0  0  0
  -23.0906  -32.9852   22.7021 C   0  0  0  0  0  0  0  0  0  0  0  0
  -25.1981  -27.4530   20.8121 C   0  0  0  0  0  0  0  0  0  0  0  0
  -27.6389  -19.1002   20.1108 C   0  0  0  0  0  0  0  0  0  0  0  0
  -23.9651   -8.1846   23.7015 C   0  0  0  0  0  0  0  0  0  0  0  0
  -27.4554  -27.8180   19.9866 C   0  0  0  0  0  0  0  0  0  0  0  0
  -26.3820  -19.6866   20.2589 C   0  0  0  0  0  0  0  0  0  0  0  0
  -22.7431   -6.1913   23.9379 C   0  0  0  0  0  0  0  0  0  0  0  0
  -20.8770   -4.3899   22.9108 C   0  0  0  0  0  0  0  0  0  0  0  0
  -21.4421   -6.6142   23.6658 C   0  0  0  0  0  0  0  0  0  0  0  0
  -24.8794  -11.6050   21.3857 C   0  0  0  0  0  0  0  0  0  0  0  0
  -24.7601  -13.4011   20.1229 C   0  0  0  0  0  0  0  0  0  0  0  0
  -29.1015  -26.2077   19.5769 C   0  0  0  0  0  0  0  0  0  1  0  0
  -29.7177  -22.0636   19.0354 C   0  0  0  0  0  0  0  0  0  0  0  0
  -22.5396  -12.3843   20.6557 C   0  0  0  0  0  0  0  0  0  0  0  0
  -30.3548  -25.7463   19.5178 C   0  0  0  0  0  0  0  0  0  0  0  0
  -30.6422  -24.3476   19.0780 C   0  0  0  0  0  0  0  0  0  0  0  0
  -22.8635  -29.3045   22.4704 C   0  0  0  0  0  0  0  0  0  0  0  0
  -21.8114  -26.2555   22.1253 C   0  0  0  0  0  0  0  0  0  0  0  0
  -22.4306  -23.0836   21.0288 C   0  0  0  0  0  0  0  0  0  0  0  0
  -29.0122  -16.9934   20.2583 C   0  0  0  0  0  0  0  0  0  0  0  0
  -20.8111  -33.8853   23.3983 C   0  0  0  0  0  0  0  0  0  0  0  0
  -23.2895  -28.8996   20.0188 C   0  0  0  0  0  0  0  0  0  0  0  0
  -24.2628  -26.6599   21.6865 C   0  0  0  0  0  0  0  0  0  0  0  0
  -20.4264  -32.4372   23.6902 C   0  0  0  0  0  0  0  0  0  0  0  0
  -29.7802  -13.5993   19.5050 C   0  0  0  0  0  0  0  0  0  0  0  0
  -21.6053  -31.6836   24.2976 C   0  0  0  0  0  0  0  0  0  0  0  0
  -28.4988  -12.8475   19.8726 C   0  0  0  0  0  0  0  0  0  0  0  0
  -30.0594  -14.7498   20.4704 C   0  0  0  0  0  0  0  0  0  0  0  0
  -27.6656  -14.9389   21.0208 C   0  0  0  0  0  0  0  0  0  0  0  0
  -22.7913  -31.6396   23.3265 C   0  0  1  0  0  0  0  0  0  0  0  0
  -22.5476  -28.4517   21.2743 C   0  0  1  0  0  0  0  0  0  0  0  0
  -27.3078  -13.8115   20.0387 C   0  0  2  0  0  0  0  0  0  0  0  0
  -21.3963  -20.7998   20.9202 C   0  0  0  0  0  0  0  0  0  0  0  0
  -22.4105  -25.8459   25.0890 C   0  0  0  0  0  0  0  0  0  0  0  0
  -22.2748  -23.3758   24.7036 C   0  0  0  0  0  0  0  0  0  0  0  0
  -20.2737  -24.8106   24.3038 C   0  0  0  0  0  0  0  0  0  0  0  0
  -22.5021  -23.0649   18.0701 C   0  0  0  0  0  0  0  0  0  0  0  0
  -24.5306  -18.3380   19.6191 C   0  0  0  0  0  0  0  0  0  0  0  0
  -22.2160  -24.9147   22.6887 C   0  0  1  0  0  0  0  0  0  0  0  0
  -21.5968  -22.1238   20.1993 C   0  0  2  0  0  0  0  0  0  0  0  0
  -21.8120  -24.7527   24.1814 C   0  0  0  0  0  0  0  0  0  0  0  0
  -26.1497  -11.9840   21.2221 N   0  0  0  0  0  0  0  0  0  0  0  0
  -26.0444  -13.0786   20.4497 N   0  0  0  0  0  0  0  0  0  0  0  0
  -22.8487  -27.0675   21.6453 N   0  0  0  0  0  0  0  0  0  0  0  0
  -28.8888  -15.6238   20.5740 N   0  0  0  0  0  0  0  0  0  0  0  0
  -24.4745  -14.4725   19.3528 N   0  0  0  0  0  0  0  0  0  0  0  0
  -21.8869  -11.3434   21.3301 N   0  0  0  0  0  0  0  0  0  0  0  0
  -27.8255  -17.7182   20.3620 N   0  0  0  0  0  0  0  0  0  0  0  0
  -29.6439  -23.4180   19.3626 N   0  0  0  0  0  0  0  0  0  0  0  0
  -22.5678  -30.6435   22.3006 N   0  0  0  0  0  0  0  0  0  0  0  0
  -21.6415  -23.9090   21.8017 N   0  0  0  0  0  0  0  0  0  0  0  0
  -31.4316  -26.5870   19.8788 N   0  3  0  0  0  0  0  0  0  0  0  0
  -22.2640  -21.8523   18.8947 N   0  3  0  0  0  0  0  0  0  0  0  0
  -30.6582  -21.5207   18.4622 O   0  0  0  0  0  0  0  0  0  0  0  0
  -21.8613  -13.2133   20.0029 O   0  0  0  0  0  0  0  0  0  0  0  0
  -31.6985  -24.0776   18.5073 O   0  0  0  0  0  0  0  0  0  0  0  0
  -23.3390  -28.7857   23.4737 O   0  0  0  0  0  0  0  0  0  0  0  0
  -20.6182  -26.5678   22.1051 O   0  0  0  0  0  0  0  0  0  0  0  0
  -23.6592  -23.0971   20.9972 O   0  0  0  0  0  0  0  0  0  0  0  0
  -30.0853  -17.4813   19.8946 O   0  0  0  0  0  0  0  0  0  0  0  0
  -23.6708   -7.0846   24.4470 O   0  0  0  0  0  0  0  0  0  0  0  0
  -28.7719  -27.4741   19.9711 O   0  0  0  0  0  0  0  0  0  1  0  0
  -25.3055  -18.9472   20.6494 O   0  0  0  0  0  0  0  0  0  0  0  0
  -19.9815   -3.5252   22.4163 F   0  0  0  0  0  0  0  0  0  0  0  0
  -21.0830   -7.8849   23.8946 F   0  0  0  0  0  0  0  0  0  0  0  0
  1  2  1  0  0  0  0
  1  6  2  0  0  0  0
  2  7  2  0  0  0  0
  3  9  2  0  0  0  0
  3 18  1  0  0  0  0
  4 10  1  0  0  0  0
  4 18  2  0  0  0  0
  5 11  2  0  0  0  0
  5 19  1  0  0  0  0
  6 21  1  0  0  0  0
  7 23  1  0  0  0  0
  8 12  2  0  0  0  0
  8 22  1  0  0  0  0
  9 26  1  0  0  0  0
 10 26  2  0  0  0  0
 11 28  1  0  0  0  0
 12 27  1  0  0  0  0
 13 14  2  0  0  0  0
 13 29  1  0  0  0  0
 14 30  1  0  0  0  0
 15 19  2  0  0  0  0
 15 25  1  0  0  0  0
 16 24  1  0  0  0  0
 16 27  2  0  0  0  0
 17 30  2  0  0  0  0
 17 31  1  0  0  0  0
 18 32  1  0  0  0  0
 19 35  1  0  0  0  0
 20 32  1  0  0  0  0
 20 33  2  0  0  0  0
 20 36  1  0  0  0  0
 21 23  2  0  0  0  0
 21 43  1  0  0  0  0
 22 24  2  0  0  0  0
 22 44  1  0  0  0  0
 23 52  1  0  0  0  0
 24 45  1  0  0  0  0
 25 28  2  0  0  0  0
 25 70  1  0  0  0  0
 26 83  1  0  0  0  0
 27 84  1  0  0  0  0
 28 85  1  0  0  0  0
 29 31  2  0  0  0  0
 29 83  1  0  0  0  0
 30 86  1  0  0  0  0
 31 87  1  0  0  0  0
 32 64  2  0  0  0  0
 33 65  1  0  0  0  0
 33 68  1  0  0  0  0
 34 37  2  0  0  0  0
 34 84  1  0  0  0  0
 35 71  1  0  0  0  0
 35 76  2  0  0  0  0
 36 69  1  0  0  0  0
 36 77  2  0  0  0  0
 37 38  1  0  0  0  0
 37 74  1  0  0  0  0
 38 71  1  0  0  0  0
 38 78  2  0  0  0  0
 39 53  1  0  0  0  0
 39 72  1  0  0  0  0
 39 79  2  0  0  0  0
 40 61  1  0  0  0  0
 40 66  1  0  0  0  0
 40 80  2  0  0  0  0
 41 62  1  0  0  0  0
 41 73  1  0  0  0  0
 41 81  2  0  0  0  0
 42 67  1  0  0  0  0
 42 70  1  0  0  0  0
 42 82  2  0  0  0  0
 43 46  1  0  0  0  0
 44 53  1  0  0  0  0
 45 66  1  0  0  0  0
 46 48  1  0  0  0  0
 47 49  1  0  0  0  0
 47 50  1  0  0  0  0
 48 52  1  0  0  0  0
 49 54  1  0  0  0  0
 50 67  1  0  0  0  0
 51 54  1  0  0  0  0
 51 67  1  0  0  0  0
 52 72  1  0  0  0  0
 53 66  1  0  0  0  0
 54 65  1  0  0  0  0
 55 62  1  0  0  0  0
 56 63  1  0  0  0  0
 57 63  1  0  0  0  0
 58 63  1  0  0  0  0
 59 75  1  0  0  0  0
 60 85  1  0  0  0  0
 61 63  1  0  0  0  0
 61 73  1  0  0  0  0
 62 75  1  0  0  0  0
 64 65  1  0  0  0  0
M  CHG  2  74   1  75   1
M  ISO  4  34 101  42 100  70 100  84 101
M  END
> <Batch ID>
0106

> <Smiles>
CNC(C)C(=O)NC(C(=O)N1Cc2cc([101O:1][101CH2:1]C(=N)C(=O)NC(=O)c3ccc(OC)c([100NH:0][100C:0](=O)N4CCCC(n5nc(-c6ccc(Oc7ccc(F)cc7F)cc6)c(C(N)=O)c5N)C4)c3)ccc2CC1C(=O)NC1CCCc2ccccc21)C(C)(C)C

> <Shape>
0.287

> <Color>
0.117

> <Negative vol penalty>
0.000

$$$$

  -OEChem-04052301143D

 87 96  0     1  0  0  0  0  0999 V2000
  -33.1690  -31.8429   16.2928 C   0  0  0  0  0  0  0  0  0  0  0  0
  -32.6833  -30.5650   16.5502 C   0  0  0  0  0  0  0  0  0  0  0  0
  -28.8117  -15.9875   20.3912 C   0  0  0  0  0  0  0  0  0  0  0  0
  -28.3191  -14.2928   18.7413 C   0  0  0  0  0  0  0  0  0  0  0  0
  -33.0225  -32.8485   17.2475 C   0  0  0  0  0  0  0  0  0  0  0  0
  -32.0516  -30.2915   17.7629 C   0  0  0  0  0  0  0  0  0  0  0  0
  -27.3713  -26.4527   18.6926 C   0  0  0  0  0  0  0  0  0  0  0  0
  -25.7544  -18.2825   23.8380 C   0  0  0  0  0  0  0  0  0  0  0  0
  -24.2017  -18.2707   21.9870 C   0  0  0  0  0  0  0  0  0  0  0  0
  -24.8958  -17.4568   24.5636 C   0  0  0  0  0  0  0  0  0  0  0  0
  -23.3430  -17.4450   22.7126 C   0  0  0  0  0  0  0  0  0  0  0  0
  -30.1310  -15.5395   20.4575 C   0  0  0  0  0  0  0  0  0  0  0  0
  -29.6384  -13.8448   18.8075 C   0  0  0  0  0  0  0  0  0  0  0  0
  -27.3135  -25.1391   19.1562 C   0  0  0  0  0  0  0  0  0  0  0  0
  -32.7834  -12.0231   18.8058 C   0  0  0  0  0  0  0  0  0  0  0  0
  -32.9980  -10.6466   18.8748 C   0  0  0  0  0  0  0  0  0  0  0  0
  -26.8526  -25.9508   21.3806 C   0  0  0  0  0  0  0  0  0  0  0  0
  -31.7349  -10.5527   20.9322 C   0  0  0  0  0  0  0  0  0  0  0  0
  -27.5542  -19.1873   21.4841 C   0  0  0  0  0  0  0  0  0  0  0  0
  -27.9057  -15.3640   19.5332 C   0  0  0  0  0  0  0  0  0  0  0  0
  -26.0215  -16.8127   18.6066 C   0  0  0  0  0  0  0  0  0  0  0  0
  -32.3802  -32.5896   18.4686 C   0  0  0  0  0  0  0  0  0  0  0  0
  -27.1808  -27.5273   19.5732 C   0  0  0  0  0  0  0  0  0  0  0  0
  -31.8976  -31.2941   18.7353 C   0  0  0  0  0  0  0  0  0  0  0  0
  -26.9060  -27.2770   20.9253 C   0  0  0  0  0  0  0  0  0  0  0  0
  -27.0838  -21.2394   20.6857 C   0  0  0  0  0  0  0  0  0  0  0  0
  -25.4074  -18.6895   22.5497 C   0  0  0  0  0  0  0  0  0  0  0  0
  -23.6901  -17.0380   24.0009 C   0  0  0  0  0  0  0  0  0  0  0  0
  -30.5444  -14.4682   19.6656 C   0  0  0  0  0  0  0  0  0  0  0  0
  -27.0570  -24.8880   20.5009 C   0  0  0  0  0  0  0  0  0  0  0  0
  -32.0446  -12.6645   19.8000 C   0  0  0  0  0  0  0  0  0  0  0  0
  -28.0860  -20.2421   20.7757 C   0  0  0  0  0  0  0  0  0  0  0  0
  -32.4738   -9.9114   19.9379 C   0  0  0  0  0  0  0  0  0  0  0  0
  -31.5203  -11.9293   20.8632 C   0  0  0  0  0  0  0  0  0  0  0  0
  -26.5426  -15.8260   19.4648 C   0  0  0  0  0  0  0  0  0  0  0  0
  -25.9701  -20.7637   21.3420 C   0  0  0  0  0  0  0  0  0  0  0  0
  -24.6889  -16.8819   18.9322 C   0  0  0  0  0  0  0  0  0  0  0  0
  -26.6828  -17.5966   17.6046 C   0  0  0  0  0  0  0  0  0  0  0  0
  -28.9648  -29.9695   20.5511 C   0  0  0  0  0  0  0  0  0  0  0  0
  -26.2235  -30.8743   22.0306 C   0  0  0  0  0  0  0  0  0  0  0  0
  -23.2043  -29.9715   23.3407 C   0  0  0  0  0  0  0  0  0  0  0  0
  -21.9398  -15.2478   24.1520 C   0  0  0  0  0  0  0  0  0  0  0  0
  -32.2874  -33.6964   19.4889 C   0  0  0  0  0  0  0  0  0  0  0  0
  -27.2198  -28.9378   19.0523 C   0  0  0  0  0  0  0  0  0  0  0  0
  -26.6741  -28.3949   21.9075 C   0  0  0  0  0  0  0  0  0  0  0  0
  -31.2732  -33.4208   20.5960 C   0  0  0  0  0  0  0  0  0  0  0  0
  -21.0974  -14.2607   20.6866 C   0  0  0  0  0  0  0  0  0  0  0  0
  -31.4383  -32.0015   21.1300 C   0  0  0  0  0  0  0  0  0  0  0  0
  -22.3883  -14.5579   19.9258 C   0  0  0  0  0  0  0  0  0  0  0  0
  -21.3679  -13.9150   22.1477 C   0  0  0  0  0  0  0  0  0  0  0  0
  -23.4514  -15.2562   22.1084 C   0  0  0  0  0  0  0  0  0  0  0  0
  -31.1846  -30.9648   20.0289 C   0  0  1  0  0  0  0  0  0  0  0  0
  -27.5204  -29.9673   20.1372 C   0  0  1  0  0  0  0  0  0  0  0  0
  -23.2026  -15.6467   20.6438 C   0  0  1  0  0  0  0  0  0  0  0  0
  -24.6495  -21.4002   21.5470 C   0  0  0  0  0  0  0  0  0  0  0  0
  -23.4114  -15.5612   27.0564 C   0  0  0  0  0  0  0  0  0  0  0  0
  -21.2019  -30.9252   24.5147 C   0  0  0  0  0  0  0  0  0  0  0  0
  -27.8236  -31.0354   24.6236 C   0  0  0  0  0  0  0  0  0  0  0  0
  -25.6570  -31.0482   25.8781 C   0  0  0  0  0  0  0  0  0  0  0  0
  -26.1875  -32.8972   24.2900 C   0  0  0  0  0  0  0  0  0  0  0  0
  -21.3879  -29.1590   21.1499 C   0  0  0  0  0  0  0  0  0  0  0  0
  -27.2138  -22.5682   20.0010 C   0  0  0  0  0  0  0  0  0  1  0  0
  -22.6013  -16.4839   26.1684 C   0  0  0  0  0  0  0  0  0  0  0  0
  -25.6005  -30.6124   23.3806 C   0  0  1  0  0  0  0  0  0  0  0  0
  -21.8159  -30.5618   23.1717 C   0  0  2  0  0  0  0  0  0  0  0  0
  -26.3234  -31.3770   24.5252 C   0  0  0  0  0  0  0  0  0  0  0  0
  -25.6167  -15.3058   20.2748 N   0  0  0  0  0  0  0  0  0  0  0  0
  -26.2676  -19.5157   21.8235 N   0  0  0  0  0  0  0  0  0  0  0  0
  -24.5003  -15.9683   19.9271 N   0  0  0  0  0  0  0  0  0  0  0  0
  -26.7287  -29.7569   21.3510 N   0  0  0  0  0  0  0  0  0  0  0  0
  -22.1944  -14.9308   22.8018 N   0  0  0  0  0  0  0  0  0  0  0  0
  -23.6718  -17.6347   18.4617 N   0  0  0  0  0  0  0  0  0  0  0  0
  -28.0550  -17.3986   17.3993 N   0  0  0  0  0  0  0  0  0  0  0  0
  -29.7643  -30.8089   19.7990 N   0  0  0  0  0  0  0  0  0  0  0  0
  -24.1845  -30.9367   23.2465 N   0  0  0  0  0  0  0  0  0  0  0  0
  -22.8022  -16.1849   24.7523 N   0  0  0  0  0  0  0  0  0  0  0  0
  -20.9173  -29.5858   22.4928 N   0  3  0  0  0  0  0  0  0  0  0  0
  -26.0782  -18.4590   16.9233 O   0  0  0  0  0  0  0  0  0  0  0  0
  -29.3269  -29.2631   21.4848 O   0  0  0  0  0  0  0  0  0  0  0  0
  -26.2540  -32.0268   21.5921 O   0  0  0  0  0  0  0  0  0  0  0  0
  -23.3995  -28.7746   23.5402 O   0  0  0  0  0  0  0  0  0  0  0  0
  -21.0408  -14.6932   24.7961 O   0  0  0  0  0  0  0  0  0  0  0  0
  -29.3317  -20.2729   20.2809 O   0  0  0  0  0  0  0  0  0  0  0  0
  -31.8317  -14.0310   19.7297 O   0  0  0  0  0  0  0  0  0  0  0  0
  -27.0006  -23.6068   20.9561 O   0  0  0  0  0  0  0  0  0  1  0  0
  -32.6786   -8.5893   20.0032 F   0  0  0  0  0  0  0  0  0  0  0  0
  -30.8087  -12.5397   21.8207 F   0  0  0  0  0  0  0  0  0  0  0  0
  1  2  1  0  0  0  0
  1  5  2  0  0  0  0
  2  6  2  0  0  0  0
  3 12  2  0  0  0  0
  3 20  1  0  0  0  0
  4 13  1  0  0  0  0
  4 20  2  0  0  0  0
  5 22  1  0  0  0  0
  6 24  1  0  0  0  0
  7 14  2  0  0  0  0
  7 23  1  0  0  0  0
  8 10  2  0  0  0  0
  8 27  1  0  0  0  0
  9 11  1  0  0  0  0
  9 27  2  0  0  0  0
 10 28  1  0  0  0  0
 11 28  2  0  0  0  0
 12 29  1  0  0  0  0
 13 29  2  0  0  0  0
 14 30  1  0  0  0  0
 15 16  2  0  0  0  0
 15 31  1  0  0  0  0
 16 33  1  0  0  0  0
 17 25  1  0  0  0  0
 17 30  2  0  0  0  0
 18 33  2  0  0  0  0
 18 34  1  0  0  0  0
 19 32  2  0  0  0  0
 19 68  1  0  0  0  0
 20 35  1  0  0  0  0
 21 35  1  0  0  0  0
 21 37  2  0  0  0  0
 21 38  1  0  0  0  0
 22 24  2  0  0  0  0
 22 43  1  0  0  0  0
 23 25  2  0  0  0  0
 23 44  1  0  0  0  0
 24 52  1  0  0  0  0
 25 45  1  0  0  0  0
 26 32  1  0  0  0  0
 26 36  2  0  0  0  0
 26 62  1  0  0  0  0
 27 68  1  0  0  0  0
 28 76  1  0  0  0  0
 29 84  1  0  0  0  0
 30 85  1  0  0  0  0
 31 34  2  0  0  0  0
 31 84  1  0  0  0  0
 32 83  1  0  0  0  0
 33 86  1  0  0  0  0
 34 87  1  0  0  0  0
 35 67  2  0  0  0  0
 36 55  1  0  0  0  0
 36 68  1  0  0  0  0
 37 69  1  0  0  0  0
 37 72  1  0  0  0  0
 38 73  1  0  0  0  0
 38 78  2  0  0  0  0
 39 53  1  0  0  0  0
 39 74  1  0  0  0  0
 39 79  2  0  0  0  0
 40 64  1  0  0  0  0
 40 70  1  0  0  0  0
 40 80  2  0  0  0  0
 41 65  1  0  0  0  0
 41 75  1  0  0  0  0
 41 81  2  0  0  0  0
 42 71  1  0  0  0  0
 42 76  1  0  0  0  0
 42 82  2  0  0  0  0
 43 46  1  0  0  0  0
 44 53  1  0  0  0  0
 45 70  1  0  0  0  0
 46 48  1  0  0  0  0
 47 49  1  0  0  0  0
 47 50  1  0  0  0  0
 48 52  1  0  0  0  0
 49 54  1  0  0  0  0
 50 71  1  0  0  0  0
 51 54  1  0  0  0  0
 51 71  1  0  0  0  0
 52 74  1  0  0  0  0
 53 70  1  0  0  0  0
 54 69  1  0  0  0  0
 56 63  1  0  0  0  0
 57 65  1  0  0  0  0
 58 66  1  0  0  0  0
 59 66  1  0  0  0  0
 60 66  1  0  0  0  0
 61 77  1  0  0  0  0
 62 85  1  0  0  0  0
 63 76  1  0  0  0  0
 64 66  1  0  0  0  0
 64 75  1  0  0  0  0
 65 77  1  0  0  0  0
 67 69  1  0  0  0  0
M  CHG  1  77   1
M  ISO  4  42 100  62 101  76 100  85 101
M  END
> <Batch ID>
0106

> <Smiles>
CC[100N:0](c1ccc(N2CC(=O)C([101CH2:1][101O:1]c3ccc4c(c3)CN(C(=O)C(NC(=O)C(C)NC)C(C)(C)C)C(C(=O)NC3CCCc5ccccc53)C4)=C2C)cc1)[100C:0](=O)N1CCCC(n2nc(-c3ccc(Oc4ccc(F)cc4F)cc3)c(C(N)=O)c2N)C1

> <Shape>
0.182

> <Color>
0.099

> <Negative vol penalty>
0.000

$$$$

  -OEChem-04052301143D

 86 95  0     1  0  0  0  0  0999 V2000
  -18.5899  -30.9422   24.1980 C   0  0  0  0  0  0  0  0  0  0  0  0
  -19.9745  -30.8577   24.0915 C   0  0  0  0  0  0  0  0  0  0  0  0
  -27.3775  -13.3594   22.4362 C   0  0  0  0  0  0  0  0  0  0  0  0
  -27.2974  -12.2997   20.2665 C   0  0  0  0  0  0  0  0  0  0  0  0
  -17.7926  -29.8845   23.7628 C   0  0  0  0  0  0  0  0  0  0  0  0
  -20.5625  -29.7149   23.5507 C   0  0  0  0  0  0  0  0  0  0  0  0
  -25.6422  -29.4508   20.1400 C   0  0  0  0  0  0  0  0  0  0  0  0
  -30.0910  -24.6601   21.2054 C   0  0  0  0  0  0  0  0  0  0  0  0
  -29.7130  -23.4914   20.5446 C   0  0  0  0  0  0  0  0  0  0  0  0
  -26.9125  -12.1846   23.0272 C   0  0  0  0  0  0  0  0  0  0  0  0
  -26.8324  -11.1249   20.8574 C   0  0  0  0  0  0  0  0  0  0  0  0
  -26.9666  -29.1466   20.4517 C   0  0  0  0  0  0  0  0  0  0  0  0
  -28.1799   -9.1873   23.9453 C   0  0  0  0  0  0  0  0  0  0  0  0
  -28.8171   -8.7496   25.1063 C   0  0  0  0  0  0  0  0  0  0  0  0
  -26.5999  -26.8658   19.7569 C   0  0  0  0  0  0  0  0  0  0  0  0
  -28.2941  -24.3457   22.7895 C   0  0  0  0  0  0  0  0  0  0  0  0
  -26.7299   -8.9109   26.3125 C   0  0  0  0  0  0  0  0  0  0  0  0
  -27.5699  -13.4170   21.0558 C   0  0  0  0  0  0  0  0  0  0  0  0
  -29.3901  -14.9951   20.2169 C   0  0  0  0  0  0  0  0  0  0  0  0
  -18.3708  -28.7321   23.2075 C   0  0  0  0  0  0  0  0  0  0  0  0
  -24.7823  -28.4605   19.6438 C   0  0  0  0  0  0  0  0  0  0  0  0
  -19.7723  -28.6401   23.1089 C   0  0  0  0  0  0  0  0  0  0  0  0
  -25.2657  -27.1606   19.4372 C   0  0  0  0  0  0  0  0  0  0  0  0
  -29.3816  -25.0873   22.3280 C   0  0  0  0  0  0  0  0  0  0  0  0
  -28.6255  -22.7498   21.0061 C   0  0  0  0  0  0  0  0  0  0  0  0
  -27.9160  -23.1770   22.1286 C   0  0  0  0  0  0  0  0  0  0  0  0
  -26.6400  -11.0673   22.2378 C   0  0  0  0  0  0  0  0  0  0  0  0
  -27.4448  -27.8532   20.2630 C   0  0  0  0  0  0  0  0  0  0  0  0
  -26.8178   -9.4870   23.9679 C   0  0  0  0  0  0  0  0  0  0  0  0
  -28.0921   -8.6113   26.2899 C   0  0  0  0  0  0  0  0  0  0  0  0
  -26.0928   -9.3487   25.1514 C   0  0  0  0  0  0  0  0  0  0  0  0
  -28.0496  -14.6304   20.4447 C   0  0  0  0  0  0  0  0  0  0  0  0
  -29.3132  -16.2281   19.6166 C   0  0  0  0  0  0  0  0  0  0  0  0
  -29.6108  -26.5554   24.3825 C   0  0  0  0  0  0  0  0  0  0  0  0
  -30.5969  -14.2830   20.5206 C   0  0  0  0  0  0  0  0  0  0  0  0
  -22.0799  -27.1252   20.6528 C   0  0  0  0  0  0  0  0  0  0  0  0
  -22.1699  -25.6755   17.7523 C   0  0  0  0  0  0  0  0  0  0  0  0
  -24.0372  -24.6172   15.0991 C   0  0  0  0  0  0  0  0  0  0  0  0
  -26.9751  -21.3969   19.7252 C   0  0  0  0  0  0  0  0  0  0  0  0
  -17.4702  -27.5950   22.7945 C   0  0  0  0  0  0  0  0  0  0  0  0
  -23.3637  -28.8112   19.2871 C   0  0  0  0  0  0  0  0  0  0  0  0
  -24.3887  -26.0663   18.8880 C   0  0  0  0  0  0  0  0  0  0  0  0
  -30.1808  -27.9287   24.6479 C   0  0  0  0  0  0  0  0  0  0  0  0
  -18.1542  -26.5744   21.8885 C   0  0  0  0  0  0  0  0  0  0  0  0
  -31.0740  -28.1784   23.4476 C   0  0  0  0  0  0  0  0  0  0  0  0
  -25.3681  -18.7472   17.7234 C   0  0  0  0  0  0  0  0  0  0  0  0
  -19.5256  -26.2025   22.4434 C   0  0  0  0  0  0  0  0  0  0  0  0
  -25.9899  -17.4705   18.2868 C   0  0  0  0  0  0  0  0  0  0  0  0
  -25.2893  -19.8507   18.7742 C   0  0  0  0  0  0  0  0  0  0  0  0
  -27.2198  -18.8815   19.9843 C   0  0  0  0  0  0  0  0  0  0  0  0
  -20.4463  -27.4272   22.5051 C   0  0  1  0  0  0  0  0  0  0  0  0
  -22.4347  -27.6013   19.2725 C   0  0  1  0  0  0  0  0  0  0  0  0
  -27.3524  -17.7648   18.9378 C   0  0  1  0  0  0  0  0  0  0  0  0
  -30.3842  -27.4199   22.3191 C   0  0  2  0  0  0  0  0  0  0  0  0
  -23.8359  -23.4315   12.8966 C   0  0  0  0  0  0  0  0  0  0  0  0
  -21.8918  -23.0119   19.2144 C   0  0  0  0  0  0  0  0  0  0  0  0
  -22.6420  -21.8635   17.1200 C   0  0  0  0  0  0  0  0  0  0  0  0
  -20.5356  -23.1998   17.1216 C   0  0  0  0  0  0  0  0  0  0  0  0
  -29.3009  -20.5661   19.9903 C   0  0  0  0  0  0  0  0  0  0  0  0
  -25.0462  -26.9674   13.6100 C   0  0  0  0  0  0  0  0  0  0  0  0
  -29.3468  -28.3005   21.6189 C   0  0  0  0  0  0  0  0  0  1  0  0
  -22.7616  -24.3948   17.2152 C   0  0  1  0  0  0  0  0  0  0  0  0
  -23.8428  -24.7786   13.6022 C   0  0  2  0  0  0  0  0  0  0  0  0
  -21.9740  -23.1374   17.6800 C   0  0  0  0  0  0  0  0  0  0  0  0
  -27.1845  -15.5569   20.0237 N   0  0  0  0  0  0  0  0  0  0  0  0
  -27.9832  -16.5159   19.5253 N   0  0  0  0  0  0  0  0  0  0  0  0
  -29.7702  -26.2871   23.0063 N   0  0  0  0  0  0  0  0  0  0  0  0
  -23.0077  -26.4573   18.5604 N   0  0  0  0  0  0  0  0  0  0  0  0
  -26.5877  -20.0791   19.4096 N   0  0  0  0  0  0  0  0  0  0  0  0
  -26.8115  -22.4409   22.6133 N   0  0  0  0  0  0  0  0  0  0  0  0
  -30.2542  -17.0834   19.1633 N   0  0  0  0  0  0  0  0  0  0  0  0
  -30.4952  -13.0288   21.1377 N   0  0  0  0  0  0  0  0  0  0  0  0
  -20.9635  -27.7376   21.1895 N   0  0  0  0  0  0  0  0  0  0  0  0
  -22.8324  -24.5539   15.7667 N   0  0  0  0  0  0  0  0  0  0  0  0
  -28.2537  -21.5434   20.3053 N   0  0  0  0  0  0  0  0  0  0  0  0
  -24.9388  -25.6065   13.0239 N   0  3  0  0  0  0  0  0  0  0  0  0
  -29.0950  -25.8836   25.2642 O   0  0  0  0  0  0  0  0  0  0  0  0
  -31.7323  -14.7525   20.2675 O   0  0  0  0  0  0  0  0  0  0  0  0
  -22.7673  -26.2649   21.1904 O   0  0  0  0  0  0  0  0  0  0  0  0
  -21.0096  -25.9750   17.4597 O   0  0  0  0  0  0  0  0  0  0  0  0
  -25.1469  -24.5499   15.6232 O   0  0  0  0  0  0  0  0  0  0  0  0
  -26.2481  -22.3670   19.4802 O   0  0  0  0  0  0  0  0  0  0  0  0
  -26.1865   -9.9207   22.8142 O   0  0  0  0  0  0  0  0  0  0  0  0
  -28.7369  -27.5534   20.5671 O   0  0  0  0  0  0  0  0  0  1  0  0
  -28.7037   -8.1894   27.4044 F   0  0  0  0  0  0  0  0  0  0  0  0
  -24.7837   -9.6339   25.1790 F   0  0  0  0  0  0  0  0  0  0  0  0
  1  2  1  0  0  0  0
  1  5  2  0  0  0  0
  2  6  2  0  0  0  0
  3 10  2  0  0  0  0
  3 18  1  0  0  0  0
  4 11  1  0  0  0  0
  4 18  2  0  0  0  0
  5 20  1  0  0  0  0
  6 22  1  0  0  0  0
  7 12  2  0  0  0  0
  7 21  1  0  0  0  0
  8  9  2  0  0  0  0
  8 24  1  0  0  0  0
  9 25  1  0  0  0  0
 10 27  1  0  0  0  0
 11 27  2  0  0  0  0
 12 28  1  0  0  0  0
 13 14  2  0  0  0  0
 13 29  1  0  0  0  0
 14 30  1  0  0  0  0
 15 23  1  0  0  0  0
 15 28  2  0  0  0  0
 16 24  2  0  0  0  0
 16 26  1  0  0  0  0
 17 30  2  0  0  0  0
 17 31  1  0  0  0  0
 18 32  1  0  0  0  0
 19 32  1  0  0  0  0
 19 33  2  0  0  0  0
 19 35  1  0  0  0  0
 20 22  2  0  0  0  0
 20 40  1  0  0  0  0
 21 23  2  0  0  0  0
 21 41  1  0  0  0  0
 22 51  1  0  0  0  0
 23 42  1  0  0  0  0
 24 67  1  0  0  0  0
 25 26  2  0  0  0  0
 25 75  1  0  0  0  0
 26 70  1  0  0  0  0
 27 83  1  0  0  0  0
 28 84  1  0  0  0  0
 29 31  2  0  0  0  0
 29 83  1  0  0  0  0
 30 85  1  0  0  0  0
 31 86  1  0  0  0  0
 32 65  2  0  0  0  0
 33 66  1  0  0  0  0
 33 71  1  0  0  0  0
 34 43  1  0  0  0  0
 34 67  1  0  0  0  0
 34 77  2  0  0  0  0
 35 72  1  0  0  0  0
 35 78  2  0  0  0  0
 36 52  1  0  0  0  0
 36 73  1  0  0  0  0
 36 79  2  0  0  0  0
 37 62  1  0  0  0  0
 37 68  1  0  0  0  0
 37 80  2  0  0  0  0
 38 63  1  0  0  0  0
 38 74  1  0  0  0  0
 38 81  2  0  0  0  0
 39 69  1  0  0  0  0
 39 75  1  0  0  0  0
 39 82  2  0  0  0  0
 40 44  1  0  0  0  0
 41 52  1  0  0  0  0
 42 68  1  0  0  0  0
 43 45  1  0  0  0  0
 44 47  1  0  0  0  0
 45 54  1  0  0  0  0
 46 48  1  0  0  0  0
 46 49  1  0  0  0  0
 47 51  1  0  0  0  0
 48 53  1  0  0  0  0
 49 69  1  0  0  0  0
 50 53  1  0  0  0  0
 50 69  1  0  0  0  0
 51 73  1  0  0  0  0
 52 68  1  0  0  0  0
 53 66  1  0  0  0  0
 54 61  1  0  0  0  0
 54 67  1  0  0  0  0
 55 63  1  0  0  0  0
 56 64  1  0  0  0  0
 57 64  1  0  0  0  0
 58 64  1  0  0  0  0
 59 75  1  0  0  0  0
 60 76  1  0  0  0  0
 61 84  1  0  0  0  0
 62 64  1  0  0  0  0
 62 74  1  0  0  0  0
 63 76  1  0  0  0  0
 65 66  1  0  0  0  0
M  CHG  1  76   1
M  ISO  4  39 100  61 101  75 100  84 101
M  END
> <Batch ID>
0106

> <Smiles>
CNC(C)C(=O)NC(C(=O)N1Cc2cc([101O:1][101CH2:1]C3CCC(=O)N3c3ccc([100N:0](C)[100C:0](=O)N4CCCC(n5nc(-c6ccc(Oc7ccc(F)cc7F)cc6)c(C(N)=O)c5N)C4)c(N)c3)ccc2CC1C(=O)NC1CCCc2ccccc21)C(C)(C)C

> <Shape>
0.212

> <Color>
0.068

> <Negative vol penalty>
0.000

$$$$

  -OEChem-04052301143D

 84 92  0     1  0  0  0  0  0999 V2000
  -29.7791  -24.2229   17.4412 C   0  0  0  0  0  0  0  0  0  0  0  0
  -28.5258  -24.7701   17.6917 C   0  0  0  0  0  0  0  0  0  0  0  0
  -24.6599  -12.2538   20.7529 C   0  0  0  0  0  0  0  0  0  0  0  0
  -23.4015  -13.7805   22.1395 C   0  0  0  0  0  0  0  0  0  0  0  0
  -30.8420  -24.5042   18.2970 C   0  0  0  0  0  0  0  0  0  0  0  0
  -28.3378  -25.6083   18.7912 C   0  0  0  0  0  0  0  0  0  0  0  0
  -23.9704  -27.8396   19.1796 C   0  0  0  0  0  0  0  0  0  0  0  0
  -24.3978  -11.2206   21.6525 C   0  0  0  0  0  0  0  0  0  0  0  0
  -23.1392  -12.7472   23.0391 C   0  0  0  0  0  0  0  0  0  0  0  0
  -22.8041  -27.1584   19.5253 C   0  0  0  0  0  0  0  0  0  0  0  0
  -23.7564   -8.0980   23.3998 C   0  0  0  0  0  0  0  0  0  0  0  0
  -23.3638   -6.8662   22.8762 C   0  0  0  0  0  0  0  0  0  0  0  0
  -25.2142  -22.5886   20.6647 C   0  0  0  0  0  0  0  0  0  0  0  0
  -22.9418  -28.0668   21.7557 C   0  0  0  0  0  0  0  0  0  0  0  0
  -22.4734  -22.1588   20.3717 C   0  0  0  0  0  0  0  0  0  0  0  0
  -21.4376   -7.9123   21.8599 C   0  0  0  0  0  0  0  0  0  0  0  0
  -24.1618  -13.5338   20.9964 C   0  0  0  0  0  0  0  0  0  0  0  0
  -24.7390  -21.8130   19.6072 C   0  0  0  0  0  0  0  0  0  0  0  0
  -23.6584  -14.9760   18.9533 C   0  0  0  0  0  0  0  0  0  0  0  0
  -30.6630  -25.3363   19.4144 C   0  0  0  0  0  0  0  0  0  0  0  0
  -24.6383  -28.6322   20.1242 C   0  0  0  0  0  0  0  0  0  0  0  0
  -29.4038  -25.9235   19.6532 C   0  0  0  0  0  0  0  0  0  0  0  0
  -24.1149  -28.7591   21.4188 C   0  0  0  0  0  0  0  0  0  0  0  0
  -23.3686  -21.5981   19.4607 C   0  0  0  0  0  0  0  0  0  0  0  0
  -24.3190  -23.1492   21.5757 C   0  0  0  0  0  0  0  0  0  0  0  0
  -23.6374  -11.4673   22.7956 C   0  0  0  0  0  0  0  0  0  0  0  0
  -22.2912  -27.2696   20.8143 C   0  0  0  0  0  0  0  0  0  0  0  0
  -22.9896   -9.2369   23.1536 C   0  0  0  0  0  0  0  0  0  0  0  0
  -22.9486  -22.9343   21.4292 C   0  0  0  0  0  0  0  0  0  0  0  0
  -22.2044   -6.7734   22.1062 C   0  0  0  0  0  0  0  0  0  0  0  0
  -21.8302   -9.1440   22.3836 C   0  0  0  0  0  0  0  0  0  0  0  0
  -24.4328  -14.6017   20.0678 C   0  0  0  0  0  0  0  0  0  0  0  0
  -24.3374  -16.0360   18.4039 C   0  0  0  0  0  0  0  0  0  0  0  0
  -25.6957  -21.2359   18.6726 C   0  0  0  0  0  0  0  0  0  0  0  0
  -22.4348  -14.4156   18.4589 C   0  0  0  0  0  0  0  0  0  0  0  0
  -27.0651  -20.8697   19.1013 C   0  0  0  0  0  0  0  0  0  0  0  0
  -27.5197  -28.5748   21.4651 C   0  0  0  0  0  0  0  0  0  0  0  0
  -26.5500  -31.3916   22.7488 C   0  0  0  0  0  0  0  0  0  0  0  0
  -23.9628  -33.4091   23.6885 C   0  0  0  0  0  0  0  0  0  0  0  0
  -31.8496  -25.6137   20.3033 C   0  0  0  0  0  0  0  0  0  0  0  0
  -25.8806  -29.3819   19.7278 C   0  0  0  0  0  0  0  0  0  0  0  0
  -24.7829  -29.6135   22.4640 C   0  0  0  0  0  0  0  0  0  0  0  0
  -31.4523  -26.1453   21.6766 C   0  0  0  0  0  0  0  0  0  0  0  0
  -28.9628  -17.8363   19.3342 C   0  0  0  0  0  0  0  0  0  0  0  0
  -30.4654  -27.2930   21.5241 C   0  0  0  0  0  0  0  0  0  0  0  0
  -27.8897  -16.7599   19.4936 C   0  0  0  0  0  0  0  0  0  0  0  0
  -28.5555  -19.1365   20.0198 C   0  0  0  0  0  0  0  0  0  0  0  0
  -26.1543  -18.5930   19.7245 C   0  0  0  0  0  0  0  0  0  0  0  0
  -29.1683  -26.8133   20.8603 C   0  0  1  0  0  0  0  0  0  0  0  0
  -26.7611  -29.7507   20.9178 C   0  0  1  0  0  0  0  0  0  0  0  0
  -26.5179  -17.2736   19.0214 C   0  0  2  0  0  0  0  0  0  0  0  0
  -22.8335  -20.7702   18.3382 C   0  0  0  0  0  0  0  0  0  0  0  0
  -23.4833  -35.6352   24.7431 C   0  0  0  0  0  0  0  0  0  0  0  0
  -27.2608  -30.2454   25.4858 C   0  0  0  0  0  0  0  0  0  0  0  0
  -25.9079  -32.0769   26.5267 C   0  0  0  0  0  0  0  0  0  0  0  0
  -27.9144  -32.6365   25.1544 C   0  0  0  0  0  0  0  0  0  0  0  0
  -22.5478  -34.3774   21.2762 C   0  0  0  0  0  0  0  0  0  0  0  0
  -20.1653  -24.9452   22.6000 C   0  0  0  0  0  0  0  0  0  0  0  0
  -21.0204  -26.1997   22.5162 C   0  0  0  0  0  0  0  0  0  1  0  0
  -20.7637  -23.7946   21.8060 C   0  0  0  0  0  0  0  0  0  0  0  0
  -25.8228  -31.7988   24.0075 C   0  0  1  0  0  0  0  0  0  0  0  0
  -23.6917  -34.8817   23.4386 C   0  0  2  0  0  0  0  0  0  0  0  0
  -26.7147  -31.6717   25.2747 C   0  0  0  0  0  0  0  0  0  0  0  0
  -25.5205  -15.3620   20.2187 N   0  0  0  0  0  0  0  0  0  0  0  0
  -25.4189  -21.0039   17.4191 N   0  0  0  0  0  0  0  0  0  0  0  0
  -25.4346  -16.2246   19.1918 N   0  0  0  0  0  0  0  0  0  0  0  0
  -27.2343  -19.5766   19.5761 N   0  0  0  0  0  0  0  0  0  0  0  0
  -25.9983  -30.3218   22.0298 N   0  0  0  0  0  0  0  0  0  0  0  0
  -24.8135  -23.9326   22.6415 N   0  0  0  0  0  0  0  0  0  0  0  0
  -24.0970  -16.8158   17.3284 N   0  0  0  0  0  0  0  0  0  0  0  0
  -21.8728  -13.3294   19.1434 N   0  0  0  0  0  0  0  0  0  0  0  0
  -28.3473  -27.9613   20.5442 N   0  0  0  0  0  0  0  0  0  0  0  0
  -25.3138  -33.1448   23.7676 N   0  0  0  0  0  0  0  0  0  0  0  0
  -22.4716  -35.0486   22.5994 N   0  3  0  0  0  0  0  0  0  0  0  0
  -21.8656  -14.8544   17.4307 O   0  0  0  0  0  0  0  0  0  0  0  0
  -27.9061  -21.7522   18.9907 O   0  0  0  0  0  0  0  0  0  0  0  0
  -27.3667  -28.2493   22.6365 O   0  0  0  0  0  0  0  0  0  0  0  0
  -27.5659  -32.0049   22.4120 O   0  0  0  0  0  0  0  0  0  0  0  0
  -23.0658  -32.5772   23.8058 O   0  0  0  0  0  0  0  0  0  0  0  0
  -23.3812  -10.4592   23.6735 O   0  0  0  0  0  0  0  0  0  0  0  0
  -21.1533  -26.6053   21.1545 O   0  0  0  0  0  0  0  0  0  1  0  0
  -22.0530  -23.4778   22.3131 O   0  0  0  0  0  0  0  0  0  0  0  0
  -21.8283   -5.5907   21.6021 F   0  0  0  0  0  0  0  0  0  0  0  0
  -21.0901  -10.2349   22.1427 F   0  0  0  0  0  0  0  0  0  0  0  0
  1  2  1  0  0  0  0
  1  5  2  0  0  0  0
  2  6  2  0  0  0  0
  3  8  2  0  0  0  0
  3 17  1  0  0  0  0
  4  9  1  0  0  0  0
  4 17  2  0  0  0  0
  5 20  1  0  0  0  0
  6 22  1  0  0  0  0
  7 10  2  0  0  0  0
  7 21  1  0  0  0  0
  8 26  1  0  0  0  0
  9 26  2  0  0  0  0
 10 27  1  0  0  0  0
 11 12  2  0  0  0  0
 11 28  1  0  0  0  0
 12 30  1  0  0  0  0
 13 18  2  0  0  0  0
 13 25  1  0  0  0  0
 14 23  1  0  0  0  0
 14 27  2  0  0  0  0
 15 24  2  0  0  0  0
 15 29  1  0  0  0  0
 16 30  2  0  0  0  0
 16 31  1  0  0  0  0
 17 32  1  0  0  0  0
 18 24  1  0  0  0  0
 18 34  1  0  0  0  0
 19 32  1  0  0  0  0
 19 33  2  0  0  0  0
 19 35  1  0  0  0  0
 20 22  2  0  0  0  0
 20 40  1  0  0  0  0
 21 23  2  0  0  0  0
 21 41  1  0  0  0  0
 22 49  1  0  0  0  0
 23 42  1  0  0  0  0
 24 52  1  0  0  0  0
 25 29  2  0  0  0  0
 25 69  1  0  0  0  0
 26 80  1  0  0  0  0
 27 81  1  0  0  0  0
 28 31  2  0  0  0  0
 28 80  1  0  0  0  0
 29 82  1  0  0  0  0
 30 83  1  0  0  0  0
 31 84  1  0  0  0  0
 32 64  2  0  0  0  0
 33 66  1  0  0  0  0
 33 70  1  0  0  0  0
 34 36  1  0  0  0  0
 34 65  2  0  0  0  0
 35 71  1  0  0  0  0
 35 75  2  0  0  0  0
 36 67  1  0  0  0  0
 36 76  2  0  0  0  0
 37 50  1  0  0  0  0
 37 72  1  0  0  0  0
 37 77  2  0  0  0  0
 38 61  1  0  0  0  0
 38 68  1  0  0  0  0
 38 78  2  0  0  0  0
 39 62  1  0  0  0  0
 39 73  1  0  0  0  0
 39 79  2  0  0  0  0
 40 43  1  0  0  0  0
 41 50  1  0  0  0  0
 42 68  1  0  0  0  0
 43 45  1  0  0  0  0
 44 46  1  0  0  0  0
 44 47  1  0  0  0  0
 45 49  1  0  0  0  0
 46 51  1  0  0  0  0
 47 67  1  0  0  0  0
 48 51  1  0  0  0  0
 48 67  1  0  0  0  0
 49 72  1  0  0  0  0
 50 68  1  0  0  0  0
 51 66  1  0  0  0  0
 53 62  1  0  0  0  0
 54 63  1  0  0  0  0
 55 63  1  0  0  0  0
 56 63  1  0  0  0  0
 57 74  1  0  0  0  0
 58 59  1  0  0  0  0
 58 60  1  0  0  0  0
 59 81  1  0  0  0  0
 60 82  1  0  0  0  0
 61 63  1  0  0  0  0
 61 73  1  0  0  0  0
 62 74  1  0  0  0  0
 64 66  1  0  0  0  0
M  CHG  1  74   1
M  ISO  4  34 100  36 100  59 101  81 101
M  END
> <Batch ID>
0106

> <Smiles>
CNC(C)C(=O)NC(C(=O)N1Cc2cc([101O:1][101CH2:1]CCOc3cc(C)c([100C:0](=N)[100C:0](=O)N4CCCC(n5nc(-c6ccc(Oc7ccc(F)cc7F)cc6)c(C(N)=O)c5N)C4)cc3N)ccc2CC1C(=O)NC1CCCc2ccccc21)C(C)(C)C

> <Shape>
0.277

> <Color>
0.063

> <Negative vol penalty>
0.000

$$$$

  -OEChem-04052301143D

 83 91  0     1  0  0  0  0  0999 V2000
  -21.7836  -14.4847   28.7254 C   0  0  0  0  0  0  0  0  0  0  0  0
  -21.8086  -15.3765   27.6579 C   0  0  0  0  0  0  0  0  0  0  0  0
  -28.7188  -23.8770   18.2604 C   0  0  0  0  0  0  0  0  0  0  0  0
  -29.8235  -24.1255   20.3946 C   0  0  0  0  0  0  0  0  0  0  0  0
  -22.7469  -13.4809   28.8164 C   0  0  0  0  0  0  0  0  0  0  0  0
  -22.7977  -15.2656   26.6813 C   0  0  0  0  0  0  0  0  0  0  0  0
  -20.9502  -15.7031   21.9866 C   0  0  0  0  0  0  0  0  0  0  0  0
  -29.0769  -22.5292   18.2319 C   0  0  0  0  0  0  0  0  0  0  0  0
  -30.1816  -22.7777   20.3662 C   0  0  0  0  0  0  0  0  0  0  0  0
  -20.6582  -16.9893   21.5345 C   0  0  0  0  0  0  0  0  0  0  0  0
  -28.0123  -19.6389   19.6268 C   0  0  0  0  0  0  0  0  0  0  0  0
  -27.0352  -18.7163   19.2531 C   0  0  0  0  0  0  0  0  0  0  0  0
  -22.7424  -17.0293   20.3206 C   0  0  0  0  0  0  0  0  0  0  0  0
  -20.7890  -26.3831   21.6154 C   0  0  0  0  0  0  0  0  0  0  0  0
  -28.4103  -18.0126   17.3953 C   0  0  0  0  0  0  0  0  0  0  0  0
  -29.0921  -24.6752   19.3417 C   0  0  0  0  0  0  0  0  0  0  0  0
  -29.0762  -27.0609   18.4384 C   0  0  0  0  0  0  0  0  0  0  0  0
  -23.7426  -13.3517   27.8353 C   0  0  0  0  0  0  0  0  0  0  0  0
  -22.1475  -15.0736   21.6172 C   0  0  0  0  0  0  0  0  0  0  0  0
  -23.7761  -14.2599   26.7599 C   0  0  0  0  0  0  0  0  0  0  0  0
  -23.0460  -15.7342   20.7672 C   0  0  0  0  0  0  0  0  0  0  0  0
  -29.8083  -21.9796   19.2849 C   0  0  0  0  0  0  0  0  0  0  0  0
  -21.5556  -17.6537   20.7038 C   0  0  0  0  0  0  0  0  0  0  0  0
  -29.1884  -19.7485   18.8848 C   0  0  0  0  0  0  0  0  0  0  0  0
  -19.8216  -25.7305   22.4329 C   0  0  0  0  0  0  0  0  0  0  0  0
  -27.2342  -17.9031   18.1374 C   0  0  0  0  0  0  0  0  0  0  0  0
  -29.3874  -18.9353   17.7691 C   0  0  0  0  0  0  0  0  0  0  0  0
  -28.7229  -26.0676   19.3714 C   0  0  0  0  0  0  0  0  0  0  0  0
  -20.7863  -27.7482   21.8001 C   0  0  0  0  0  0  0  0  0  0  0  0
  -19.1164  -26.6217   23.2115 C   0  0  0  0  0  0  0  0  0  0  0  0
  -28.4819  -28.2046   18.9129 C   0  0  0  0  0  0  0  0  0  0  0  0
  -29.8705  -26.9587   17.2492 C   0  0  0  0  0  0  0  0  0  0  0  0
  -24.6845  -13.9799   23.1893 C   0  0  0  0  0  0  0  0  0  0  0  0
  -25.5373  -12.8767   20.2605 C   0  0  0  0  0  0  0  0  0  0  0  0
  -25.2712  -13.1545   16.8695 C   0  0  0  0  0  0  0  0  0  0  0  0
  -23.7246  -29.1757   22.4167 C   0  0  0  0  0  0  0  0  0  0  0  0
  -24.7908  -12.2801   28.0015 C   0  0  0  0  0  0  0  0  0  0  0  0
  -22.4354  -13.6756   22.0916 C   0  0  0  0  0  0  0  0  0  0  0  0
  -24.3359  -15.0943   20.3252 C   0  0  0  0  0  0  0  0  0  0  0  0
  -25.5815  -11.9985   26.7264 C   0  0  0  0  0  0  0  0  0  0  0  0
  -27.0631  -30.2740   22.9867 C   0  0  0  0  0  0  0  0  0  0  0  0
  -26.0261  -13.3041   26.0747 C   0  0  0  0  0  0  0  0  0  0  0  0
  -27.8989  -29.4101   22.0406 C   0  0  0  0  0  0  0  0  0  0  0  0
  -25.8905  -29.4932   23.5762 C   0  0  0  0  0  0  0  0  0  0  0  0
  -25.8561  -27.9743   21.6357 C   0  0  0  0  0  0  0  0  0  0  0  0
  -24.8183  -14.1567   25.6676 C   0  0  1  0  0  0  0  0  0  0  0  0
  -23.9214  -13.3311   22.0693 C   0  0  1  0  0  0  0  0  0  0  0  0
  -27.0179  -28.7341   20.9729 C   0  0  2  0  0  0  0  0  0  0  0  0
  -18.0352  -26.3499   24.1857 C   0  0  0  0  0  0  0  0  0  0  0  0
  -26.1160  -12.1361   14.7373 C   0  0  0  0  0  0  0  0  0  0  0  0
  -28.2040  -14.3116   20.6346 C   0  0  0  0  0  0  0  0  0  0  0  0
  -28.5982  -14.0728   18.1737 C   0  0  0  0  0  0  0  0  0  0  0  0
  -28.3774  -12.0401   19.6027 C   0  0  0  0  0  0  0  0  0  0  0  0
  -22.5453  -12.3631   16.0315 C   0  0  0  0  0  0  0  0  0  0  0  0
  -21.6336  -28.7672   21.1440 C   0  0  0  0  0  0  0  0  0  0  0  0
  -20.8305  -21.1984   20.8899 C   0  0  0  0  0  0  0  0  0  0  0  0
  -20.0164  -22.1166   21.7948 C   0  0  0  0  0  0  0  0  0  0  0  0
  -20.4773  -19.7337   21.1120 C   0  0  0  0  0  0  0  0  0  1  0  0
  -20.3992  -23.5775   21.6041 C   0  0  0  0  0  0  0  0  0  0  0  0
  -26.3261  -13.4292   19.0980 C   0  0  1  0  0  0  0  0  0  0  0  0
  -25.0192  -12.1168   15.7906 C   0  0  2  0  0  0  0  0  0  0  0  0
  -27.8531  -13.4765   19.3870 C   0  0  0  0  0  0  0  0  0  0  0  0
  -27.9632  -26.5391   20.3637 N   0  0  0  0  0  0  0  0  0  0  0  0
  -27.8343  -27.8412   20.0569 N   0  0  0  0  0  0  0  0  0  0  0  0
  -24.5751  -13.7287   20.8208 N   0  0  0  0  0  0  0  0  0  0  0  0
  -25.0942  -28.8784   22.5114 N   0  0  0  0  0  0  0  0  0  0  0  0
  -28.4554  -29.4757   18.4590 N   0  0  0  0  0  0  0  0  0  0  0  0
  -31.2531  -27.1656   17.3493 N   0  0  0  0  0  0  0  0  0  0  0  0
  -24.2266  -13.6459   24.4496 N   0  0  0  0  0  0  0  0  0  0  0  0
  -25.9622  -12.6230   17.9378 N   0  0  0  0  0  0  0  0  0  0  0  0
  -23.0452  -28.5557   21.3752 N   0  0  0  0  0  0  0  0  0  0  0  0
  -23.7156  -12.3764   15.1165 N   0  3  0  0  0  0  0  0  0  0  0  0
  -29.3668  -26.7080   16.1280 O   0  0  0  0  0  0  0  0  0  0  0  0
  -25.6204  -14.7271   22.9294 O   0  0  0  0  0  0  0  0  0  0  0  0
  -25.7616  -11.7287   20.6524 O   0  0  0  0  0  0  0  0  0  0  0  0
  -24.8960  -14.3208   16.7726 O   0  0  0  0  0  0  0  0  0  0  0  0
  -23.1511  -29.9413   23.1988 O   0  0  0  0  0  0  0  0  0  0  0  0
  -30.1578  -20.6644   19.2575 O   0  0  0  0  0  0  0  0  0  0  0  0
  -21.2734  -18.9094   20.2616 O   0  0  0  0  0  0  0  0  0  1  0  0
  -19.5976  -24.3784   22.4613 O   0  0  0  0  0  0  0  0  0  0  0  0
  -26.2965  -17.0161   17.7795 F   0  0  0  0  0  0  0  0  0  0  0  0
  -30.5157  -19.0351   17.0530 F   0  0  0  0  0  0  0  0  0  0  0  0
  -19.6209  -28.2379   22.9553 S   0  0  0  0  0  0  0  0  0  0  0  0
  1  2  1  0  0  0  0
  1  5  2  0  0  0  0
  2  6  2  0  0  0  0
  3  8  2  0  0  0  0
  3 16  1  0  0  0  0
  4  9  1  0  0  0  0
  4 16  2  0  0  0  0
  5 18  1  0  0  0  0
  6 20  1  0  0  0  0
  7 10  2  0  0  0  0
  7 19  1  0  0  0  0
  8 22  1  0  0  0  0
  9 22  2  0  0  0  0
 10 23  1  0  0  0  0
 11 12  2  0  0  0  0
 11 24  1  0  0  0  0
 12 26  1  0  0  0  0
 13 21  1  0  0  0  0
 13 23  2  0  0  0  0
 14 25  1  0  0  0  0
 14 29  2  0  0  0  0
 15 26  2  0  0  0  0
 15 27  1  0  0  0  0
 16 28  1  0  0  0  0
 17 28  1  0  0  0  0
 17 31  2  0  0  0  0
 17 32  1  0  0  0  0
 18 20  2  0  0  0  0
 18 37  1  0  0  0  0
 19 21  2  0  0  0  0
 19 38  1  0  0  0  0
 20 46  1  0  0  0  0
 21 39  1  0  0  0  0
 22 78  1  0  0  0  0
 23 79  1  0  0  0  0
 24 27  2  0  0  0  0
 24 78  1  0  0  0  0
 25 30  2  0  0  0  0
 25 80  1  0  0  0  0
 26 81  1  0  0  0  0
 27 82  1  0  0  0  0
 28 63  2  0  0  0  0
 29 55  1  0  0  0  0
 29 83  1  0  0  0  0
 30 49  1  0  0  0  0
 30 83  1  0  0  0  0
 31 64  1  0  0  0  0
 31 67  1  0  0  0  0
 32 68  1  0  0  0  0
 32 73  2  0  0  0  0
 33 47  1  0  0  0  0
 33 69  1  0  0  0  0
 33 74  2  0  0  0  0
 34 60  1  0  0  0  0
 34 65  1  0  0  0  0
 34 75  2  0  0  0  0
 35 61  1  0  0  0  0
 35 70  1  0  0  0  0
 35 76  2  0  0  0  0
 36 66  1  0  0  0  0
 36 71  1  0  0  0  0
 36 77  2  0  0  0  0
 37 40  1  0  0  0  0
 38 47  1  0  0  0  0
 39 65  1  0  0  0  0
 40 42  1  0  0  0  0
 41 43  1  0  0  0  0
 41 44  1  0  0  0  0
 42 46  1  0  0  0  0
 43 48  1  0  0  0  0
 44 66  1  0  0  0  0
 45 48  1  0  0  0  0
 45 66  1  0  0  0  0
 46 69  1  0  0  0  0
 47 65  1  0  0  0  0
 48 64  1  0  0  0  0
 50 61  1  0  0  0  0
 51 62  1  0  0  0  0
 52 62  1  0  0  0  0
 53 62  1  0  0  0  0
 54 72  1  0  0  0  0
 55 71  1  0  0  0  0
 56 57  1  0  0  0  0
 56 58  1  0  0  0  0
 57 59  1  0  0  0  0
 58 79  1  0  0  0  0
 59 80  1  0  0  0  0
 60 62  1  0  0  0  0
 60 70  1  0  0  0  0
 61 72  1  0  0  0  0
 63 64  1  0  0  0  0
M  CHG  1  72   1
M  ISO  4  36 100  58 101  71 100  79 101
M  END
> <Batch ID>
0106

> <Smiles>
CNC(C)C(=O)NC(C(=O)N1Cc2cc([101O:1][101CH2:1]CCCOc3cc(C[100NH:0][100C:0](=O)N4CCCC(n5nc(-c6ccc(Oc7ccc(F)cc7F)cc6)c(C(N)=O)c5N)C4)sc3C)ccc2CC1C(=O)NC1CCCc2ccccc21)C(C)(C)C

> <Shape>
0.211

> <Color>
0.051

> <Negative vol penalty>
0.000

$$$$

  -OEChem-04052301143D

 87 95  0     1  0  0  0  0  0999 V2000
  -16.6983  -29.3164   23.6998 C   0  0  0  0  0  0  0  0  0  0  0  0
  -17.5258  -28.2032   23.8063 C   0  0  0  0  0  0  0  0  0  0  0  0
  -27.0550  -17.2410   19.0123 C   0  0  0  0  0  0  0  0  0  0  0  0
  -27.6143  -17.2207   21.3626 C   0  0  0  0  0  0  0  0  0  0  0  0
  -17.1327  -30.4423   23.0015 C   0  0  0  0  0  0  0  0  0  0  0  0
  -18.7879  -28.2148   23.2134 C   0  0  0  0  0  0  0  0  0  0  0  0
  -22.3842  -26.3690   26.2637 C   0  0  0  0  0  0  0  0  0  0  0  0
  -27.5824  -18.5272   18.8978 C   0  0  0  0  0  0  0  0  0  0  0  0
  -28.1418  -18.5069   21.2481 C   0  0  0  0  0  0  0  0  0  0  0  0
  -22.4635  -24.9826   26.3884 C   0  0  0  0  0  0  0  0  0  0  0  0
  -26.9713  -21.6750   21.0944 C   0  0  0  0  0  0  0  0  0  0  0  0
  -26.6344  -22.6037   22.0791 C   0  0  0  0  0  0  0  0  0  0  0  0
  -23.5155  -16.6503   27.7251 C   0  0  0  0  0  0  0  0  0  0  0  0
  -24.2966  -24.9525   24.8205 C   0  0  0  0  0  0  0  0  0  0  0  0
  -22.2148  -17.5456   25.8965 C   0  0  0  0  0  0  0  0  0  0  0  0
  -28.9706  -22.8556   22.6409 C   0  0  0  0  0  0  0  0  0  0  0  0
  -27.0709  -16.5877   20.2447 C   0  0  0  0  0  0  0  0  0  0  0  0
  -22.7674  -15.4739   27.6813 C   0  0  0  0  0  0  0  0  0  0  0  0
  -27.2095  -14.0411   20.1906 C   0  0  0  0  0  0  0  0  0  0  0  0
  -18.4045  -30.4713   22.4080 C   0  0  0  0  0  0  0  0  0  0  0  0
  -23.2549  -27.0575   25.4067 C   0  0  0  0  0  0  0  0  0  0  0  0
  -19.2392  -29.3416   22.5053 C   0  0  0  0  0  0  0  0  0  0  0  0
  -24.2280  -26.3478   24.6887 C   0  0  0  0  0  0  0  0  0  0  0  0
  -21.7430  -15.3333   26.7451 C   0  0  0  0  0  0  0  0  0  0  0  0
  -23.2392  -17.6862   26.8327 C   0  0  0  0  0  0  0  0  0  0  0  0
  -28.1259  -19.1601   20.0157 C   0  0  0  0  0  0  0  0  0  0  0  0
  -23.4179  -24.2738   25.6646 C   0  0  0  0  0  0  0  0  0  0  0  0
  -28.3079  -21.3366   20.8829 C   0  0  0  0  0  0  0  0  0  0  0  0
  -27.6340  -23.1939   22.8524 C   0  0  0  0  0  0  0  0  0  0  0  0
  -21.4667  -16.3691   25.8527 C   0  0  0  0  0  0  0  0  0  0  0  0
  -29.3076  -21.9269   21.6562 C   0  0  0  0  0  0  0  0  0  0  0  0
  -26.5256  -15.2593   20.3637 C   0  0  0  0  0  0  0  0  0  0  0  0
  -26.2556  -13.0776   20.4101 C   0  0  0  0  0  0  0  0  0  0  0  0
  -24.2700  -13.8355   28.7171 C   0  0  0  0  0  0  0  0  0  0  0  0
  -23.0801  -14.4102   28.6267 C   0  0  0  0  0  0  0  0  0  0  0  0
  -28.5842  -13.8018   19.8609 C   0  0  0  0  0  0  0  0  0  0  0  0
  -22.8900  -28.8653   22.8178 C   0  0  0  0  0  0  0  0  0  0  0  0
  -26.0816  -29.3274   23.1674 C   0  0  0  0  0  0  0  0  0  0  0  0
  -23.8585  -20.0046   26.0675 C   0  0  0  0  0  0  0  0  0  0  0  0
  -29.0573  -28.1880   24.3897 C   0  0  0  0  0  0  0  0  0  0  0  0
  -21.1441  -13.0365   23.5282 C   0  0  0  0  0  0  0  0  0  0  0  0
  -18.8116  -31.6931   21.6230 C   0  0  0  0  0  0  0  0  0  0  0  0
  -23.1740  -28.5559   25.3037 C   0  0  0  0  0  0  0  0  0  0  0  0
  -25.1995  -27.0420   23.7706 C   0  0  0  0  0  0  0  0  0  0  0  0
  -20.3104  -31.7656   21.3428 C   0  0  0  0  0  0  0  0  0  0  0  0
  -21.5434  -12.3260   20.0623 C   0  0  0  0  0  0  0  0  0  0  0  0
  -20.8256  -30.4200   20.8421 C   0  0  0  0  0  0  0  0  0  0  0  0
  -22.9272  -12.8873   19.7309 C   0  0  0  0  0  0  0  0  0  0  0  0
  -20.8095  -13.1976   21.0790 C   0  0  0  0  0  0  0  0  0  0  0  0
  -22.9440  -14.0290   21.9881 C   0  0  0  0  0  0  0  0  0  0  0  0
  -20.6247  -29.3252   21.8970 C   0  0  1  0  0  0  0  0  0  0  0  0
  -23.7737  -29.0991   24.0104 C   0  0  1  0  0  0  0  0  0  0  0  0
  -23.7450  -13.1538   21.0090 C   0  0  2  0  0  0  0  0  0  0  0  0
  -31.4980  -28.7636   24.4843 C   0  0  0  0  0  0  0  0  0  0  0  0
  -26.4015  -28.4372   20.2665 C   0  0  0  0  0  0  0  0  0  0  0  0
  -28.8455  -28.1187   20.7067 C   0  0  0  0  0  0  0  0  0  0  0  0
  -27.8259  -30.3851   20.9230 C   0  0  0  0  0  0  0  0  0  0  0  0
  -29.0260  -28.3388   27.3452 C   0  0  0  0  0  0  0  0  0  0  0  0
  -20.9227  -14.0854   26.6721 C   0  0  0  0  0  0  0  0  0  0  0  0
  -24.8810  -21.0681   26.4515 C   0  0  0  0  0  0  0  0  0  0  0  0
  -21.6317  -12.9296   25.9592 C   0  0  0  0  0  0  0  0  0  0  0  0
  -24.7817  -22.3266   25.6027 C   0  0  0  0  0  0  0  0  0  1  0  0
  -27.3238  -28.6282   22.6704 C   0  0  1  0  0  0  0  0  0  0  0  0
  -30.1518  -28.8797   25.1822 C   0  0  2  0  0  0  0  0  0  0  0  0
  -27.5798  -28.8787   21.1574 C   0  0  0  0  0  0  0  0  0  0  0  0
  -25.2367  -15.0882   20.6694 N   0  0  0  0  0  0  0  0  0  0  0  0
  -25.1031  -13.7511   20.6901 N   0  0  0  0  0  0  0  0  0  0  0  0
  -25.0764  -28.5073   23.6991 N   0  0  0  0  0  0  0  0  0  0  0  0
  -21.6384  -13.4108   22.2678 N   0  0  0  0  0  0  0  0  0  0  0  0
  -26.2985  -11.7285   20.3890 N   0  0  0  0  0  0  0  0  0  0  0  0
  -29.4271  -14.9049   19.6690 N   0  0  0  0  0  0  0  0  0  0  0  0
  -23.9979  -18.8800   26.8765 N   0  0  0  0  0  0  0  0  0  0  0  0
  -21.6329  -29.4279   22.9302 N   0  0  0  0  0  0  0  0  0  0  0  0
  -28.4119  -29.0617   23.5403 N   0  0  0  0  0  0  0  0  0  0  0  0
  -21.9961  -13.2672   24.6013 N   0  0  0  0  0  0  0  0  0  0  0  0
  -30.2716  -28.2733   26.5382 N   0  3  0  0  0  0  0  0  0  0  0  0
  -29.0474  -12.6441   19.7239 O   0  0  0  0  0  0  0  0  0  0  0  0
  -23.3175  -28.2233   21.8656 O   0  0  0  0  0  0  0  0  0  0  0  0
  -26.0090  -30.5566   23.0933 O   0  0  0  0  0  0  0  0  0  0  0  0
  -23.0499  -20.1736   25.1609 O   0  0  0  0  0  0  0  0  0  0  0  0
  -28.8029  -26.9916   24.5092 O   0  0  0  0  0  0  0  0  0  0  0  0
  -20.0283  -12.5291   23.6848 O   0  0  0  0  0  0  0  0  0  0  0  0
  -28.6409  -20.4151   19.9044 O   0  0  0  0  0  0  0  0  0  0  0  0
  -23.4970  -22.9206   25.7839 O   0  0  0  0  0  0  0  0  0  1  0  0
  -27.3105  -24.0868   23.7970 F   0  0  0  0  0  0  0  0  0  0  0  0
  -20.4845  -16.2446   24.9489 F   0  0  0  0  0  0  0  0  0  0  0  0
  -30.5935  -21.6067   21.4569 F   0  0  0  0  0  0  0  0  0  0  0  0
  1  2  1  0  0  0  0
  1  5  2  0  0  0  0
  2  6  2  0  0  0  0
  3  8  2  0  0  0  0
  3 17  1  0  0  0  0
  4  9  1  0  0  0  0
  4 17  2  0  0  0  0
  5 20  1  0  0  0  0
  6 22  1  0  0  0  0
  7 10  2  0  0  0  0
  7 21  1  0  0  0  0
  8 26  1  0  0  0  0
  9 26  2  0  0  0  0
 10 27  1  0  0  0  0
 11 12  2  0  0  0  0
 11 28  1  0  0  0  0
 12 29  1  0  0  0  0
 13 18  1  0  0  0  0
 13 25  2  0  0  0  0
 14 23  1  0  0  0  0
 14 27  2  0  0  0  0
 15 25  1  0  0  0  0
 15 30  2  0  0  0  0
 16 29  2  0  0  0  0
 16 31  1  0  0  0  0
 17 32  1  0  0  0  0
 18 24  2  0  0  0  0
 18 35  1  0  0  0  0
 19 32  1  0  0  0  0
 19 33  2  0  0  0  0
 19 36  1  0  0  0  0
 20 22  2  0  0  0  0
 20 42  1  0  0  0  0
 21 23  2  0  0  0  0
 21 43  1  0  0  0  0
 22 51  1  0  0  0  0
 23 44  1  0  0  0  0
 24 30  1  0  0  0  0
 24 59  1  0  0  0  0
 25 72  1  0  0  0  0
 26 83  1  0  0  0  0
 27 84  1  0  0  0  0
 28 31  2  0  0  0  0
 28 83  1  0  0  0  0
 29 85  1  0  0  0  0
 30 86  1  0  0  0  0
 31 87  1  0  0  0  0
 32 66  2  0  0  0  0
 33 67  1  0  0  0  0
 33 70  1  0  0  0  0
 34 35  2  0  0  0  0
 36 71  1  0  0  0  0
 36 77  2  0  0  0  0
 37 52  1  0  0  0  0
 37 73  1  0  0  0  0
 37 78  2  0  0  0  0
 38 63  1  0  0  0  0
 38 68  1  0  0  0  0
 38 79  2  0  0  0  0
 39 60  1  0  0  0  0
 39 72  1  0  0  0  0
 39 80  2  0  0  0  0
 40 64  1  0  0  0  0
 40 74  1  0  0  0  0
 40 81  2  0  0  0  0
 41 69  1  0  0  0  0
 41 75  1  0  0  0  0
 41 82  2  0  0  0  0
 42 45  1  0  0  0  0
 43 52  1  0  0  0  0
 44 68  1  0  0  0  0
 45 47  1  0  0  0  0
 46 48  1  0  0  0  0
 46 49  1  0  0  0  0
 47 51  1  0  0  0  0
 48 53  1  0  0  0  0
 49 69  1  0  0  0  0
 50 53  1  0  0  0  0
 50 69  1  0  0  0  0
 51 73  1  0  0  0  0
 52 68  1  0  0  0  0
 53 67  1  0  0  0  0
 54 64  1  0  0  0  0
 55 65  1  0  0  0  0
 56 65  1  0  0  0  0
 57 65  1  0  0  0  0
 58 76  1  0  0  0  0
 59 61  1  0  0  0  0
 60 62  1  0  0  0  0
 61 75  1  0  0  0  0
 62 84  1  0  0  0  0
 63 65  1  0  0  0  0
 63 74  1  0  0  0  0
 64 76  1  0  0  0  0
 66 67  1  0  0  0  0
M  CHG  1  76   1
M  ISO  4  41 100  62 101  75 100  84 101
M  END
> <Batch ID>
0106

> <Smiles>
C=Cc1cc(NC(=O)C[101CH2:1][101O:1]c2ccc3c(c2)CN(C(=O)C(NC(=O)C(C)NC)C(C)(C)C)C(C(=O)NC2CCCc4ccccc42)C3)cc(F)c1CC[100NH:0][100C:0](=O)N1CCCC(n2nc(-c3ccc(Oc4ccc(F)cc4F)cc3)c(C(N)=O)c2N)C1

> <Shape>
0.199

> <Color>
0.076

> <Negative vol penalty>
0.000

$$$$

  -OEChem-04052301143D

 87 95  0     1  0  0  0  0  0999 V2000
  -18.8508  -24.7400   22.2929 C   0  0  0  0  0  0  0  0  0  0  0  0
  -20.0729  -24.9535   21.6633 C   0  0  0  0  0  0  0  0  0  0  0  0
  -23.7488  -13.8915   23.2317 C   0  0  0  0  0  0  0  0  0  0  0  0
  -22.2988  -13.9186   21.2994 C   0  0  0  0  0  0  0  0  0  0  0  0
  -18.0840  -25.8268   22.7109 C   0  0  0  0  0  0  0  0  0  0  0  0
  -20.5283  -26.2541   21.4504 C   0  0  0  0  0  0  0  0  0  0  0  0
  -25.4206  -26.8171   22.6309 C   0  0  0  0  0  0  0  0  0  0  0  0
  -22.7695  -14.5492   23.9759 C   0  0  0  0  0  0  0  0  0  0  0  0
  -21.3194  -14.5763   22.0437 C   0  0  0  0  0  0  0  0  0  0  0  0
  -26.3559  -26.3466   21.7104 C   0  0  0  0  0  0  0  0  0  0  0  0
  -21.6116  -17.7048   24.3308 C   0  0  0  0  0  0  0  0  0  0  0  0
  -22.0161  -18.7712   25.1337 C   0  0  0  0  0  0  0  0  0  0  0  0
  -26.6754  -28.5943   20.8951 C   0  0  0  0  0  0  0  0  0  0  0  0
  -30.3083  -17.9893   19.4741 C   0  0  0  0  0  0  0  0  0  0  0  0
  -29.6066  -20.2883   19.2314 C   0  0  0  0  0  0  0  0  0  0  0  0
  -31.7502  -19.7778   20.2219 C   0  0  0  0  0  0  0  0  0  0  0  0
  -21.1956  -17.6111   27.0878 C   0  0  0  0  0  0  0  0  0  0  0  0
  -23.5135  -13.5762   21.8934 C   0  0  0  0  0  0  0  0  0  0  0  0
  -24.6922  -11.5070   20.9786 C   0  0  0  0  0  0  0  0  0  0  0  0
  -18.5347  -27.1412   22.5116 C   0  0  0  0  0  0  0  0  0  0  0  0
  -25.0970  -28.1806   22.6832 C   0  0  0  0  0  0  0  0  0  0  0  0
  -19.7662  -27.3596   21.8649 C   0  0  0  0  0  0  0  0  0  0  0  0
  -25.7375  -29.0800   21.8189 C   0  0  0  0  0  0  0  0  0  0  0  0
  -29.3599  -18.9258   19.0631 C   0  0  0  0  0  0  0  0  0  0  0  0
  -31.5035  -18.4153   20.0536 C   0  0  0  0  0  0  0  0  0  0  0  0
  -30.8018  -20.7143   19.8109 C   0  0  0  0  0  0  0  0  0  0  0  0
  -21.5548  -14.8916   23.3819 C   0  0  0  0  0  0  0  0  0  0  0  0
  -26.9814  -27.2348   20.8403 C   0  0  0  0  0  0  0  0  0  0  0  0
  -20.9991  -16.5915   24.9063 C   0  0  0  0  0  0  0  0  0  0  0  0
  -21.8081  -18.7244   26.5122 C   0  0  0  0  0  0  0  0  0  0  0  0
  -20.7911  -16.5447   26.2848 C   0  0  0  0  0  0  0  0  0  0  0  0
  -24.5250  -12.8973   21.1239 C   0  0  0  0  0  0  0  0  0  0  0  0
  -25.7844  -11.3768   20.1561 C   0  0  0  0  0  0  0  0  0  0  0  0
  -26.2393  -20.1275   19.6596 C   0  0  0  0  0  0  0  0  0  0  0  0
  -26.3184  -18.8524   20.0464 C   0  0  0  0  0  0  0  0  0  0  0  0
  -23.9286  -10.4298   21.5372 C   0  0  0  0  0  0  0  0  0  0  0  0
  -22.4471  -29.8762   22.2286 C   0  0  0  0  0  0  0  0  0  0  0  0
  -24.3102  -32.3313   23.2404 C   0  0  0  0  0  0  0  0  0  0  0  0
  -30.2227  -23.1586   19.6304 C   0  0  0  0  0  0  0  0  0  0  0  0
  -27.4469  -33.6172   23.6327 C   0  0  0  0  0  0  0  0  0  0  0  0
  -27.1682  -16.6064   19.9021 C   0  0  0  0  0  0  0  0  0  0  0  0
  -17.6490  -28.2849   22.9383 C   0  0  0  0  0  0  0  0  0  0  0  0
  -24.1056  -28.6761   23.7000 C   0  0  0  0  0  0  0  0  0  0  0  0
  -25.4403  -30.5563   21.8485 C   0  0  0  0  0  0  0  0  0  0  0  0
  -18.3770  -29.6247   23.0112 C   0  0  0  0  0  0  0  0  0  0  0  0
  -26.3283  -14.4230   17.0952 C   0  0  0  0  0  0  0  0  0  0  0  0
  -19.2278  -29.8386   21.7633 C   0  0  0  0  0  0  0  0  0  0  0  0
  -26.9964  -13.1153   17.5033 C   0  0  0  0  0  0  0  0  0  0  0  0
  -27.1318  -15.6412   17.5429 C   0  0  0  0  0  0  0  0  0  0  0  0
  -28.0769  -14.3502   19.4476 C   0  0  0  0  0  0  0  0  0  0  0  0
  -20.3057  -28.7552   21.6382 C   0  0  1  0  0  0  0  0  0  0  0  0
  -23.4738  -30.0109   23.3174 C   0  0  1  0  0  0  0  0  0  0  0  0
  -27.3623  -13.0648   18.9949 C   0  0  1  0  0  0  0  0  0  0  0  0
  -28.6497  -35.6609   24.4538 C   0  0  0  0  0  0  0  0  0  0  0  0
  -23.5151  -33.8180   20.6973 C   0  0  0  0  0  0  0  0  0  0  0  0
  -25.4305  -35.3804   21.0952 C   0  0  0  0  0  0  0  0  0  0  0  0
  -23.5765  -35.2342   22.7577 C   0  0  0  0  0  0  0  0  0  0  0  0
  -28.8855  -32.0775   25.7109 C   0  0  0  0  0  0  0  0  0  0  0  0
  -28.0821  -18.4701   18.4436 C   0  0  0  0  0  0  0  0  0  0  0  0
  -30.8757  -24.4864   19.9884 C   0  0  0  0  0  0  0  0  0  0  0  0
  -30.0068  -25.6854   19.6243 C   0  0  0  0  0  0  0  0  0  0  0  0
  -28.6494  -25.6248   20.3095 C   0  0  0  0  0  0  0  0  0  1  0  0
  -25.2249  -33.3266   22.5685 C   0  0  1  0  0  0  0  0  0  0  0  0
  -28.1220  -34.2820   24.8187 C   0  0  2  0  0  0  0  0  0  0  0  0
  -24.4412  -34.4118   21.7775 C   0  0  0  0  0  0  0  0  0  0  0  0
  -25.4379  -13.5999   20.4480 N   0  0  0  0  0  0  0  0  0  0  0  0
  -26.1894  -12.6474   19.8701 N   0  0  0  0  0  0  0  0  0  0  0  0
  -24.4591  -30.9911   22.8562 N   0  0  0  0  0  0  0  0  0  0  0  0
  -27.4591  -15.5917   18.9733 N   0  0  0  0  0  0  0  0  0  0  0  0
  -32.4625  -17.4678   20.4693 N   0  0  0  0  0  0  0  0  0  0  0  0
  -26.4284  -10.3004   19.6568 N   0  0  0  0  0  0  0  0  0  0  0  0
  -22.8381  -10.7406   22.3609 N   0  0  0  0  0  0  0  0  0  0  0  0
  -31.0518  -22.0968   19.9810 N   0  0  0  0  0  0  0  0  0  0  0  0
  -21.4029  -29.0271   22.5419 N   0  0  0  0  0  0  0  0  0  0  0  0
  -26.0895  -33.8586   23.6163 N   0  0  0  0  0  0  0  0  0  0  0  0
  -27.1431  -17.9319   19.4336 N   0  0  0  0  0  0  0  0  0  0  0  0
  -29.2645  -33.4528   25.2963 N   0  3  0  0  0  0  0  0  0  0  0  0
  -24.2150   -9.2269   21.3257 O   0  0  0  0  0  0  0  0  0  0  0  0
  -22.5909  -30.4977   21.1823 O   0  0  0  0  0  0  0  0  0  0  0  0
  -23.4985  -32.7273   24.0806 O   0  0  0  0  0  0  0  0  0  0  0  0
  -29.1156  -23.0978   19.1059 O   0  0  0  0  0  0  0  0  0  0  0  0
  -28.0629  -32.9534   22.8016 O   0  0  0  0  0  0  0  0  0  0  0  0
  -26.9492  -16.3407   21.0923 O   0  0  0  0  0  0  0  0  0  0  0  0
  -20.5989  -15.5332   24.1079 O   0  0  0  0  0  0  0  0  0  0  0  0
  -27.8943  -26.7780   19.9403 O   0  0  0  0  0  0  0  0  0  1  0  0
  -22.1980  -19.7479   27.2833 F   0  0  0  0  0  0  0  0  0  0  0  0
  -20.2043  -15.4774   26.8436 F   0  0  0  0  0  0  0  0  0  0  0  0
  1  2  1  0  0  0  0
  1  5  2  0  0  0  0
  2  6  2  0  0  0  0
  3  8  2  0  0  0  0
  3 18  1  0  0  0  0
  4  9  1  0  0  0  0
  4 18  2  0  0  0  0
  5 20  1  0  0  0  0
  6 22  1  0  0  0  0
  7 10  2  0  0  0  0
  7 21  1  0  0  0  0
  8 27  1  0  0  0  0
  9 27  2  0  0  0  0
 10 28  1  0  0  0  0
 11 12  2  0  0  0  0
 11 29  1  0  0  0  0
 12 30  1  0  0  0  0
 13 23  1  0  0  0  0
 13 28  2  0  0  0  0
 14 24  1  0  0  0  0
 14 25  2  0  0  0  0
 15 24  2  0  0  0  0
 15 26  1  0  0  0  0
 16 25  1  0  0  0  0
 16 26  2  0  0  0  0
 17 30  2  0  0  0  0
 17 31  1  0  0  0  0
 18 32  1  0  0  0  0
 19 32  1  0  0  0  0
 19 33  2  0  0  0  0
 19 36  1  0  0  0  0
 20 22  2  0  0  0  0
 20 42  1  0  0  0  0
 21 23  2  0  0  0  0
 21 43  1  0  0  0  0
 22 51  1  0  0  0  0
 23 44  1  0  0  0  0
 24 59  1  0  0  0  0
 25 70  1  0  0  0  0
 26 73  1  0  0  0  0
 27 84  1  0  0  0  0
 28 85  1  0  0  0  0
 29 31  2  0  0  0  0
 29 84  1  0  0  0  0
 30 86  1  0  0  0  0
 31 87  1  0  0  0  0
 32 66  2  0  0  0  0
 33 67  1  0  0  0  0
 33 71  1  0  0  0  0
 34 35  2  0  0  0  0
 35 76  1  0  0  0  0
 36 72  1  0  0  0  0
 36 78  2  0  0  0  0
 37 52  1  0  0  0  0
 37 74  1  0  0  0  0
 37 79  2  0  0  0  0
 38 63  1  0  0  0  0
 38 68  1  0  0  0  0
 38 80  2  0  0  0  0
 39 60  1  0  0  0  0
 39 73  1  0  0  0  0
 39 81  2  0  0  0  0
 40 64  1  0  0  0  0
 40 75  1  0  0  0  0
 40 82  2  0  0  0  0
 41 69  1  0  0  0  0
 41 76  1  0  0  0  0
 41 83  2  0  0  0  0
 42 45  1  0  0  0  0
 43 52  1  0  0  0  0
 44 68  1  0  0  0  0
 45 47  1  0  0  0  0
 46 48  1  0  0  0  0
 46 49  1  0  0  0  0
 47 51  1  0  0  0  0
 48 53  1  0  0  0  0
 49 69  1  0  0  0  0
 50 53  1  0  0  0  0
 50 69  1  0  0  0  0
 51 74  1  0  0  0  0
 52 68  1  0  0  0  0
 53 67  1  0  0  0  0
 54 64  1  0  0  0  0
 55 65  1  0  0  0  0
 56 65  1  0  0  0  0
 57 65  1  0  0  0  0
 58 77  1  0  0  0  0
 59 76  1  0  0  0  0
 60 61  1  0  0  0  0
 61 62  1  0  0  0  0
 62 85  1  0  0  0  0
 63 65  1  0  0  0  0
 63 75  1  0  0  0  0
 64 77  1  0  0  0  0
 66 67  1  0  0  0  0
M  CHG  1  77   1
M  ISO  4  41 100  62 101  76 100  85 101
M  END
> <Batch ID>
0106

> <Smiles>
C=C[100N:0](Cc1cc(N)cc(NC(=O)CC[101CH2:1][101O:1]c2ccc3c(c2)CN(C(=O)C(NC(=O)C(C)NC)C(C)(C)C)C(C(=O)NC2CCCc4ccccc42)C3)c1)[100C:0](=O)N1CCCC(n2nc(-c3ccc(Oc4ccc(F)cc4F)cc3)c(C(N)=O)c2N)C1

> <Shape>
0.290

> <Color>
0.105

> <Negative vol penalty>
0.000

$$$$

  -OEChem-04052301143D

 86 94  0     1  0  0  0  0  0999 V2000
  -21.4309  -32.7097   26.9784 C   0  0  0  0  0  0  0  0  0  0  0  0
  -21.6444  -31.4728   26.3785 C   0  0  0  0  0  0  0  0  0  0  0  0
  -23.0464   -9.9086   19.9547 C   0  0  0  0  0  0  0  0  0  0  0  0
  -23.8610   -9.8866   22.2291 C   0  0  0  0  0  0  0  0  0  0  0  0
  -22.0053  -33.8566   26.4319 C   0  0  0  0  0  0  0  0  0  0  0  0
  -22.4317  -31.3822   25.2311 C   0  0  0  0  0  0  0  0  0  0  0  0
  -26.1637  -26.7807   23.6809 C   0  0  0  0  0  0  0  0  0  0  0  0
  -22.2982   -8.7598   20.2116 C   0  0  0  0  0  0  0  0  0  0  0  0
  -23.1128   -8.7378   22.4860 C   0  0  0  0  0  0  0  0  0  0  0  0
  -26.0055  -25.6929   22.8233 C   0  0  0  0  0  0  0  0  0  0  0  0
  -19.8928   -7.9633   23.1584 C   0  0  0  0  0  0  0  0  0  0  0  0
  -19.1637   -7.9189   24.3467 C   0  0  0  0  0  0  0  0  0  0  0  0
  -29.8200  -17.3155   19.9597 C   0  0  0  0  0  0  0  0  0  0  0  0
  -27.0966  -26.9298   21.0630 C   0  0  0  0  0  0  0  0  0  0  0  0
  -27.7418  -18.3957   21.4752 C   0  0  0  0  0  0  0  0  0  0  0  0
  -20.4045   -5.9633   25.0348 C   0  0  0  0  0  0  0  0  0  0  0  0
  -23.8279  -10.4720   20.9635 C   0  0  0  0  0  0  0  0  0  0  0  0
  -29.4702  -16.7340   21.1784 C   0  0  0  0  0  0  0  0  0  0  0  0
  -24.1900  -12.9950   20.8591 C   0  0  0  0  0  0  0  0  0  0  0  0
  -22.8079  -33.7787   25.2829 C   0  0  0  0  0  0  0  0  0  0  0  0
  -26.7809  -27.9571   23.2320 C   0  0  0  0  0  0  0  0  0  0  0  0
  -23.0163  -32.5293   24.6680 C   0  0  0  0  0  0  0  0  0  0  0  0
  -27.2637  -28.0301   21.9176 C   0  0  0  0  0  0  0  0  0  0  0  0
  -28.4311  -17.2741   21.9361 C   0  0  0  0  0  0  0  0  0  0  0  0
  -22.3313   -8.1744   21.4772 C   0  0  0  0  0  0  0  0  0  0  0  0
  -26.4693  -25.7684   21.5133 C   0  0  0  0  0  0  0  0  0  0  0  0
  -20.8776   -7.0077   22.9082 C   0  0  0  0  0  0  0  0  0  0  0  0
  -29.1307  -18.4372   19.4989 C   0  0  0  0  0  0  0  0  0  0  0  0
  -28.0916  -18.9773   20.2566 C   0  0  0  0  0  0  0  0  0  0  0  0
  -19.4196   -6.9189   25.2850 C   0  0  0  0  0  0  0  0  0  0  0  0
  -21.1335   -6.0077   23.8464 C   0  0  0  0  0  0  0  0  0  0  0  0
  -24.6015  -11.6583   20.6985 C   0  0  0  0  0  0  0  0  0  0  0  0
  -25.2800  -13.7381   20.4767 C   0  0  0  0  0  0  0  0  0  0  0  0
  -30.2090  -15.5622   21.6315 C   0  0  0  0  0  0  0  0  0  0  0  0
  -22.9347  -13.5181   21.3132 C   0  0  0  0  0  0  0  0  0  0  0  0
  -30.8026  -14.6074   20.6675 C   0  0  0  0  0  0  0  0  0  0  0  0
  -25.8659  -30.9826   22.8960 C   0  0  0  0  0  0  0  0  0  0  0  0
  -26.8474  -22.3774   20.2927 C   0  0  0  0  0  0  0  0  0  0  0  0
  -28.9890  -31.4359   22.1460 C   0  0  0  0  0  0  0  0  0  0  0  0
  -31.9149  -30.1075   20.9965 C   0  0  0  0  0  0  0  0  0  0  0  0
  -23.3689  -35.0523   24.7015 C   0  0  0  0  0  0  0  0  0  0  0  0
  -26.9678  -29.1119   24.1774 C   0  0  0  0  0  0  0  0  0  0  0  0
  -27.9515  -29.2630   21.3928 C   0  0  0  0  0  0  0  0  0  0  0  0
  -24.4969  -34.8195   23.6997 C   0  0  0  0  0  0  0  0  0  0  0  0
  -29.5517  -12.3817   18.1500 C   0  0  0  0  0  0  0  0  0  0  0  0
  -24.1167  -33.7193   22.7139 C   0  0  0  0  0  0  0  0  0  0  0  0
  -28.1315  -12.0749   18.6240 C   0  0  0  0  0  0  0  0  0  0  0  0
  -30.5060  -12.5627   19.3260 C   0  0  0  0  0  0  0  0  0  0  0  0
  -28.6407  -13.2982   20.7850 C   0  0  0  0  0  0  0  0  0  0  0  0
  -23.8844  -32.3870   23.4367 C   0  0  1  0  0  0  0  0  0  0  0  0
  -27.1506  -30.4466   23.4616 C   0  0  1  0  0  0  0  0  0  0  0  0
  -27.6423  -13.1362   19.6255 C   0  0  2  0  0  0  0  0  0  0  0  0
  -34.2846  -30.7328   20.4572 C   0  0  0  0  0  0  0  0  0  0  0  0
  -28.0469  -32.7768   19.5722 C   0  0  0  0  0  0  0  0  0  0  0  0
  -30.3676  -32.5166   18.6694 C   0  0  0  0  0  0  0  0  0  0  0  0
  -29.9694  -33.9135   20.6973 C   0  0  0  0  0  0  0  0  0  0  0  0
  -32.9925  -28.2215   23.0067 C   0  0  0  0  0  0  0  0  0  0  0  0
  -30.4784  -20.0174   18.3401 C   0  0  0  0  0  0  0  0  0  0  0  0
  -26.3093  -23.4087   21.2633 C   0  0  0  0  0  0  0  0  0  1  0  0
  -26.8755  -20.9487   20.7955 C   0  0  0  0  0  0  0  0  0  0  0  0
  -29.7993  -31.3971   20.8728 C   0  0  1  0  0  0  0  0  0  0  0  0
  -33.3370  -30.1988   21.5200 C   0  0  2  0  0  0  0  0  0  0  0  0
  -29.5311  -32.6283   19.9619 C   0  0  0  0  0  0  0  0  0  0  0  0
  -25.8551  -11.5552   20.2491 N   0  0  0  0  0  0  0  0  0  0  0  0
  -30.3965  -15.2799   22.8907 N   0  0  0  0  0  0  0  0  0  0  0  0
  -26.2406  -12.8365   20.1239 N   0  0  0  0  0  0  0  0  0  0  0  0
  -29.9944  -13.5498   20.2747 N   0  0  0  0  0  0  0  0  0  0  0  0
  -28.1048  -30.3678   22.3537 N   0  0  0  0  0  0  0  0  0  0  0  0
  -28.0612  -16.7002   23.1728 N   0  0  0  0  0  0  0  0  0  0  0  0
  -25.5008  -15.0683   20.4112 N   0  0  0  0  0  0  0  0  0  0  0  0
  -21.9228  -12.6149   21.6662 N   0  0  0  0  0  0  0  0  0  0  0  0
  -25.1483  -31.7693   23.7766 N   0  0  0  0  0  0  0  0  0  0  0  0
  -31.1922  -31.2471   21.2798 N   0  0  0  0  0  0  0  0  0  0  0  0
  -33.8190  -28.8549   21.9471 N   0  3  0  0  0  0  0  0  0  0  0  0
  -22.7112  -14.7502   21.3879 O   0  0  0  0  0  0  0  0  0  0  0  0
  -31.9496  -14.8547   20.3188 O   0  0  0  0  0  0  0  0  0  0  0  0
  -25.5498  -30.7042   21.7452 O   0  0  0  0  0  0  0  0  0  0  0  0
  -27.2376  -22.6816   19.1665 O   0  0  0  0  0  0  0  0  0  0  0  0
  -29.1404  -32.3755   22.9307 O   0  0  0  0  0  0  0  0  0  0  0  0
  -31.4891  -29.1251   20.3931 O   0  0  0  0  0  0  0  0  0  0  0  0
  -21.6011   -7.0536   21.7283 O   0  0  0  0  0  0  0  0  0  0  0  0
  -29.4824  -18.9970   18.3078 O   0  0  0  0  0  0  0  0  0  0  0  0
  -26.3156  -24.7083   20.6739 O   0  0  0  0  0  0  0  0  0  1  0  0
  -27.4062  -20.0837   19.8137 O   0  0  0  0  0  0  0  0  0  0  0  0
  -18.7205   -6.8773   26.4268 F   0  0  0  0  0  0  0  0  0  0  0  0
  -22.0793   -5.0877   23.6122 F   0  0  0  0  0  0  0  0  0  0  0  0
  1  2  1  0  0  0  0
  1  5  2  0  0  0  0
  2  6  2  0  0  0  0
  3  8  2  0  0  0  0
  3 17  1  0  0  0  0
  4  9  1  0  0  0  0
  4 17  2  0  0  0  0
  5 20  1  0  0  0  0
  6 22  1  0  0  0  0
  7 10  2  0  0  0  0
  7 21  1  0  0  0  0
  8 25  1  0  0  0  0
  9 25  2  0  0  0  0
 10 26  1  0  0  0  0
 11 12  2  0  0  0  0
 11 27  1  0  0  0  0
 12 30  1  0  0  0  0
 13 18  2  0  0  0  0
 13 28  1  0  0  0  0
 14 23  1  0  0  0  0
 14 26  2  0  0  0  0
 15 24  2  0  0  0  0
 15 29  1  0  0  0  0
 16 30  2  0  0  0  0
 16 31  1  0  0  0  0
 17 32  1  0  0  0  0
 18 24  1  0  0  0  0
 18 34  1  0  0  0  0
 19 32  1  0  0  0  0
 19 33  2  0  0  0  0
 19 35  1  0  0  0  0
 20 22  2  0  0  0  0
 20 41  1  0  0  0  0
 21 23  2  0  0  0  0
 21 42  1  0  0  0  0
 22 50  1  0  0  0  0
 23 43  1  0  0  0  0
 24 69  1  0  0  0  0
 25 81  1  0  0  0  0
 26 83  1  0  0  0  0
 27 31  2  0  0  0  0
 27 81  1  0  0  0  0
 28 29  2  0  0  0  0
 28 82  1  0  0  0  0
 29 84  1  0  0  0  0
 30 85  1  0  0  0  0
 31 86  1  0  0  0  0
 32 64  2  0  0  0  0
 33 66  1  0  0  0  0
 33 70  1  0  0  0  0
 34 36  1  0  0  0  0
 34 65  2  0  0  0  0
 35 71  1  0  0  0  0
 35 75  2  0  0  0  0
 36 67  1  0  0  0  0
 36 76  2  0  0  0  0
 37 51  1  0  0  0  0
 37 72  1  0  0  0  0
 37 77  2  0  0  0  0
 38 59  1  0  0  0  0
 38 60  1  0  0  0  0
 38 78  2  0  0  0  0
 39 61  1  0  0  0  0
 39 68  1  0  0  0  0
 39 79  2  0  0  0  0
 40 62  1  0  0  0  0
 40 73  1  0  0  0  0
 40 80  2  0  0  0  0
 41 44  1  0  0  0  0
 42 51  1  0  0  0  0
 43 68  1  0  0  0  0
 44 46  1  0  0  0  0
 45 47  1  0  0  0  0
 45 48  1  0  0  0  0
 46 50  1  0  0  0  0
 47 52  1  0  0  0  0
 48 67  1  0  0  0  0
 49 52  1  0  0  0  0
 49 67  1  0  0  0  0
 50 72  1  0  0  0  0
 51 68  1  0  0  0  0
 52 66  1  0  0  0  0
 53 62  1  0  0  0  0
 54 63  1  0  0  0  0
 55 63  1  0  0  0  0
 56 63  1  0  0  0  0
 57 74  1  0  0  0  0
 58 82  1  0  0  0  0
 59 83  1  0  0  0  0
 60 84  1  0  0  0  0
 61 63  1  0  0  0  0
 61 73  1  0  0  0  0
 62 74  1  0  0  0  0
 64 66  1  0  0  0  0
M  CHG  1  74   1
M  ISO  4  34 100  36 100  59 101  83 101
M  END
> <Batch ID>
0106

> <Smiles>
CNC(C)C(=O)NC(C(=O)N1Cc2cc([101O:1][101CH2:1]C(=O)COc3cc(N)c([100C:0](=N)[100C:0](=O)N4CCCC(n5nc(-c6ccc(Oc7ccc(F)cc7F)cc6)c(C(N)=O)c5N)C4)cc3OC)ccc2CC1C(=O)NC1CCCc2ccccc21)C(C)(C)C

> <Shape>
0.288

> <Color>
0.176

> <Negative vol penalty>
0.000

$$$$

  -OEChem-04052301143D

 85 93  0     1  0  0  0  0  0999 V2000
  -29.5408  -16.5439   22.9928 C   0  0  0  0  0  0  0  0  0  0  0  0
  -24.0159  -31.8995   12.9715 C   0  0  0  0  0  0  0  0  0  0  0  0
  -24.9168  -31.2304   13.7936 C   0  0  0  0  0  0  0  0  0  0  0  0
  -23.9306   -9.5184   20.7798 C   0  0  0  0  0  0  0  0  0  0  0  0
  -24.4064  -10.2401   23.0359 C   0  0  0  0  0  0  0  0  0  0  0  0
  -23.5937  -33.1861   13.3036 C   0  0  0  0  0  0  0  0  0  0  0  0
  -25.3970  -31.8479   14.9479 C   0  0  0  0  0  0  0  0  0  0  0  0
  -25.3849  -28.7527   18.9559 C   0  0  0  0  0  0  0  0  0  0  0  0
  -30.6543  -20.6204   22.1755 C   0  0  0  0  0  0  0  0  0  0  0  0
  -30.6493  -19.2300   22.2875 C   0  0  0  0  0  0  0  0  0  0  0  0
  -23.4584   -8.3005   21.2690 C   0  0  0  0  0  0  0  0  0  0  0  0
  -23.9341   -9.0221   23.5251 C   0  0  0  0  0  0  0  0  0  0  0  0
  -26.4128  -27.8145   19.0390 C   0  0  0  0  0  0  0  0  0  0  0  0
  -20.6403   -7.1230   22.7198 C   0  0  0  0  0  0  0  0  0  0  0  0
  -19.4442   -6.6335   22.1950 C   0  0  0  0  0  0  0  0  0  0  0  0
  -27.5745  -29.2348   20.6049 C   0  0  0  0  0  0  0  0  0  0  0  0
  -28.7652  -20.5062   20.6737 C   0  0  0  0  0  0  0  0  0  0  0  0
  -20.5928   -4.6524   21.4249 C   0  0  0  0  0  0  0  0  0  0  0  0
  -24.4046  -10.4882   21.6633 C   0  0  0  0  0  0  0  0  0  0  0  0
  -24.1489  -12.9211   20.9399 C   0  0  0  0  0  0  0  0  0  0  0  0
  -24.0616  -33.8161   14.4676 C   0  0  0  0  0  0  0  0  0  0  0  0
  -25.4494  -29.9460   19.6896 C   0  0  0  0  0  0  0  0  0  0  0  0
  -24.9818  -33.1447   15.2952 C   0  0  0  0  0  0  0  0  0  0  0  0
  -26.5449  -30.1854   20.5314 C   0  0  0  0  0  0  0  0  0  0  0  0
  -29.7121  -21.2585   21.3687 C   0  0  0  0  0  0  0  0  0  0  0  0
  -29.7024  -18.4777   21.5926 C   0  0  0  0  0  0  0  0  0  0  0  0
  -28.7602  -19.1158   20.7857 C   0  0  0  0  0  0  0  0  0  0  0  0
  -23.4601   -8.0523   22.6416 C   0  0  0  0  0  0  0  0  0  0  0  0
  -27.5092  -28.0567   19.8613 C   0  0  0  0  0  0  0  0  0  0  0  0
  -21.8127   -6.3772   22.5971 C   0  0  0  0  0  0  0  0  0  0  0  0
  -19.4204   -5.3983   21.5476 C   0  0  0  0  0  0  0  0  0  0  0  0
  -21.7889   -5.1419   21.9496 C   0  0  0  0  0  0  0  0  0  0  0  0
  -24.8931  -11.7463   21.1585 C   0  0  0  0  0  0  0  0  0  0  0  0
  -25.0656  -13.8236   20.4587 C   0  0  0  0  0  0  0  0  0  0  0  0
  -22.7537  -13.1739   21.1528 C   0  0  0  0  0  0  0  0  0  0  0  0
  -25.5482  -33.0345   18.9449 C   0  0  0  0  0  0  0  0  0  0  0  0
  -29.0711  -24.8669   20.5623 C   0  0  0  0  0  0  0  0  0  0  0  0
  -25.3033  -33.4173   22.1567 C   0  0  0  0  0  0  0  0  0  0  0  0
  -25.7735  -32.1109   25.2743 C   0  0  0  0  0  0  0  0  0  0  0  0
  -30.0566  -16.2301   20.5971 C   0  0  0  0  0  0  0  0  0  0  0  0
  -23.6132  -35.2260   14.7603 C   0  0  0  0  0  0  0  0  0  0  0  0
  -24.3196  -30.9358   19.6096 C   0  0  0  0  0  0  0  0  0  0  0  0
  -26.6523  -31.4416   21.3552 C   0  0  0  0  0  0  0  0  0  0  0  0
  -23.8809  -35.6643   16.1978 C   0  0  0  0  0  0  0  0  0  0  0  0
  -29.8131  -13.1852   18.8718 C   0  0  0  0  0  0  0  0  0  0  0  0
  -25.2999  -35.2905   16.6144 C   0  0  0  0  0  0  0  0  0  0  0  0
  -28.4603  -12.6198   19.3000 C   0  0  0  0  0  0  0  0  0  0  0  0
  -30.5179  -13.8554   20.0445 C   0  0  0  0  0  0  0  0  0  0  0  0
  -28.3517  -14.4031   21.1138 C   0  0  0  0  0  0  0  0  0  0  0  0
  -25.5062  -33.7717   16.5688 C   0  0  1  0  0  0  0  0  0  0  0  0
  -24.7345  -32.3493   20.0060 C   0  0  1  0  0  0  0  0  0  0  0  0
  -27.5972  -13.7063   19.9630 C   0  0  2  0  0  0  0  0  0  0  0  0
  -25.5151  -32.6747   27.7059 C   0  0  0  0  0  0  0  0  0  0  0  0
  -27.7930  -35.1752   22.0112 C   0  0  0  0  0  0  0  0  0  0  0  0
  -28.0322  -34.9212   24.4904 C   0  0  0  0  0  0  0  0  0  0  0  0
  -26.0054  -36.0228   23.5411 C   0  0  0  0  0  0  0  0  0  0  0  0
  -23.8648  -29.8906   25.7056 C   0  0  0  0  0  0  0  0  0  0  0  0
  -28.7842  -23.3847   20.4501 C   0  0  0  0  0  0  0  0  0  0  0  0
  -28.1636  -25.7729   19.7530 C   0  0  0  0  0  0  0  0  0  1  0  0
  -26.2849  -33.5218   23.2988 C   0  0  1  0  0  0  0  0  0  0  0  0
  -24.8618  -32.0436   26.4862 C   0  0  2  0  0  0  0  0  0  0  0  0
  -27.0281  -34.8873   23.3185 C   0  0  0  0  0  0  0  0  0  0  0  0
  -29.3971  -16.1176   24.0632 N   0  0  0  0  0  0  0  0  0  0  0  0
  -26.1831  -11.8867   20.8421 N   0  0  0  0  0  0  0  0  0  0  0  0
  -26.2566  -13.1603   20.4196 N   0  0  0  0  0  0  0  0  0  0  0  0
  -25.5254  -32.3817   21.2380 N   0  0  0  0  0  0  0  0  0  0  0  0
  -29.6705  -14.8756   20.6637 N   0  0  0  0  0  0  0  0  0  0  0  0
  -27.7917  -18.3733   20.0733 N   0  0  0  0  0  0  0  0  0  0  0  0
  -24.9609  -15.1120   20.0694 N   0  0  0  0  0  0  0  0  0  0  0  0
  -21.9553  -12.1361   21.6524 N   0  0  0  0  0  0  0  0  0  0  0  0
  -29.7170  -22.6416   21.2581 N   0  0  0  0  0  0  0  0  0  0  0  0
  -24.9053  -33.1450   17.7267 N   0  0  0  0  0  0  0  0  0  0  0  0
  -25.5298  -33.2349   24.5137 N   0  0  0  0  0  0  0  0  0  0  0  0
  -29.7178  -17.0308   21.7251 N   0  0  0  0  0  0  0  0  0  0  0  0
  -24.5337  -30.6262   26.8094 N   0  3  0  0  0  0  0  0  0  0  0  0
  -22.2274  -14.2822   20.8917 O   0  0  0  0  0  0  0  0  0  0  0  0
  -26.6752  -33.4348   19.2120 O   0  0  0  0  0  0  0  0  0  0  0  0
  -29.9782  -25.3180   21.2606 O   0  0  0  0  0  0  0  0  0  0  0  0
  -24.3696  -34.2203   22.0864 O   0  0  0  0  0  0  0  0  0  0  0  0
  -26.6199  -31.2542   25.0290 O   0  0  0  0  0  0  0  0  0  0  0  0
  -30.7158  -16.6642   19.6446 O   0  0  0  0  0  0  0  0  0  0  0  0
  -22.9992   -6.8641   23.1193 O   0  0  0  0  0  0  0  0  0  0  0  0
  -28.5142  -27.1429   19.9437 O   0  0  0  0  0  0  0  0  0  1  0  0
  -18.2714   -4.9277   21.0450 F   0  0  0  0  0  0  0  0  0  0  0  0
  -22.9117   -4.4203   21.8297 F   0  0  0  0  0  0  0  0  0  0  0  0
  1 63  3  0  0  0  0
  1 74  1  0  0  0  0
  2  3  1  0  0  0  0
  2  6  2  0  0  0  0
  3  7  2  0  0  0  0
  4 11  2  0  0  0  0
  4 19  1  0  0  0  0
  5 12  1  0  0  0  0
  5 19  2  0  0  0  0
  6 21  1  0  0  0  0
  7 23  1  0  0  0  0
  8 13  2  0  0  0  0
  8 22  1  0  0  0  0
  9 10  2  0  0  0  0
  9 25  1  0  0  0  0
 10 26  1  0  0  0  0
 11 28  1  0  0  0  0
 12 28  2  0  0  0  0
 13 29  1  0  0  0  0
 14 15  2  0  0  0  0
 14 30  1  0  0  0  0
 15 31  1  0  0  0  0
 16 24  1  0  0  0  0
 16 29  2  0  0  0  0
 17 25  2  0  0  0  0
 17 27  1  0  0  0  0
 18 31  2  0  0  0  0
 18 32  1  0  0  0  0
 19 33  1  0  0  0  0
 20 33  1  0  0  0  0
 20 34  2  0  0  0  0
 20 35  1  0  0  0  0
 21 23  2  0  0  0  0
 21 41  1  0  0  0  0
 22 24  2  0  0  0  0
 22 42  1  0  0  0  0
 23 50  1  0  0  0  0
 24 43  1  0  0  0  0
 25 71  1  0  0  0  0
 26 27  2  0  0  0  0
 26 74  1  0  0  0  0
 27 68  1  0  0  0  0
 28 82  1  0  0  0  0
 29 83  1  0  0  0  0
 30 32  2  0  0  0  0
 30 82  1  0  0  0  0
 31 84  1  0  0  0  0
 32 85  1  0  0  0  0
 33 64  2  0  0  0  0
 34 65  1  0  0  0  0
 34 69  1  0  0  0  0
 35 70  1  0  0  0  0
 35 76  2  0  0  0  0
 36 51  1  0  0  0  0
 36 72  1  0  0  0  0
 36 77  2  0  0  0  0
 37 58  1  0  0  0  0
 37 59  1  0  0  0  0
 37 78  2  0  0  0  0
 38 60  1  0  0  0  0
 38 66  1  0  0  0  0
 38 79  2  0  0  0  0
 39 61  1  0  0  0  0
 39 73  1  0  0  0  0
 39 80  2  0  0  0  0
 40 67  1  0  0  0  0
 40 74  1  0  0  0  0
 40 81  2  0  0  0  0
 41 44  1  0  0  0  0
 42 51  1  0  0  0  0
 43 66  1  0  0  0  0
 44 46  1  0  0  0  0
 45 47  1  0  0  0  0
 45 48  1  0  0  0  0
 46 50  1  0  0  0  0
 47 52  1  0  0  0  0
 48 67  1  0  0  0  0
 49 52  1  0  0  0  0
 49 67  1  0  0  0  0
 50 72  1  0  0  0  0
 51 66  1  0  0  0  0
 52 65  1  0  0  0  0
 53 61  1  0  0  0  0
 54 62  1  0  0  0  0
 55 62  1  0  0  0  0
 56 62  1  0  0  0  0
 57 75  1  0  0  0  0
 58 71  1  0  0  0  0
 59 83  1  0  0  0  0
 60 62  1  0  0  0  0
 60 73  1  0  0  0  0
 61 75  1  0  0  0  0
 64 65  1  0  0  0  0
M  CHG  1  75   1
M  ISO  4  40 100  59 101  74 100  83 101
M  END
> <Batch ID>
0106

> <Smiles>
CNC(C)C(=O)NC(C(=O)N1Cc2cc([101O:1][101CH2:1]C(=O)CNc3ccc([100N:0](C#N)[100C:0](=O)N4CCCC(n5nc(-c6ccc(Oc7ccc(F)cc7F)cc6)c(C(N)=O)c5N)C4)c(N)c3)ccc2CC1C(=O)NC1CCCc2ccccc21)C(C)(C)C

> <Shape>
0.330

> <Color>
0.149

> <Negative vol penalty>
0.000

$$$$

  -OEChem-04052301143D

 87 95  0     1  0  0  0  0  0999 V2000
  -26.8097  -32.7884   26.4754 C   0  0  0  0  0  0  0  0  0  0  0  0
  -25.9029  -32.7106   25.4233 C   0  0  0  0  0  0  0  0  0  0  0  0
  -22.9086  -10.8407   19.2365 C   0  0  0  0  0  0  0  0  0  0  0  0
  -23.2315   -9.7650   21.3755 C   0  0  0  0  0  0  0  0  0  0  0  0
  -28.1491  -32.4633   26.2652 C   0  0  0  0  0  0  0  0  0  0  0  0
  -26.3351  -32.3086   24.1600 C   0  0  0  0  0  0  0  0  0  0  0  0
  -23.4737  -26.5453   20.9215 C   0  0  0  0  0  0  0  0  0  0  0  0
  -21.9581   -9.8784   18.8960 C   0  0  0  0  0  0  0  0  0  0  0  0
  -22.2810   -8.8026   21.0351 C   0  0  0  0  0  0  0  0  0  0  0  0
  -22.8296  -25.5802   20.1470 C   0  0  0  0  0  0  0  0  0  0  0  0
  -19.6773   -6.2703   20.8736 C   0  0  0  0  0  0  0  0  0  0  0  0
  -18.7241   -5.9310   21.8337 C   0  0  0  0  0  0  0  0  0  0  0  0
  -24.4127  -25.9455   18.3559 C   0  0  0  0  0  0  0  0  0  0  0  0
  -28.2114  -20.4032   20.5974 C   0  0  0  0  0  0  0  0  0  0  0  0
  -27.3595  -19.5870   18.4891 C   0  0  0  0  0  0  0  0  0  0  0  0
  -17.9567   -8.2215   21.8812 C   0  0  0  0  0  0  0  0  0  0  0  0
  -23.5454  -10.7840   20.4763 C   0  0  0  0  0  0  0  0  0  0  0  0
  -29.2191  -18.4712   19.5539 C   0  0  0  0  0  0  0  0  0  0  0  0
  -24.3002  -13.0045   21.4799 C   0  0  0  0  0  0  0  0  0  0  0  0
  -28.5962  -32.0479   25.0010 C   0  0  0  0  0  0  0  0  0  0  0  0
  -24.6005  -27.2039   20.4215 C   0  0  0  0  0  0  0  0  0  0  0  0
  -27.6821  -31.9789   23.9323 C   0  0  0  0  0  0  0  0  0  0  0  0
  -25.0696  -26.9042   19.1319 C   0  0  0  0  0  0  0  0  0  0  0  0
  -27.3076  -20.5031   19.5397 C   0  0  0  0  0  0  0  0  0  0  0  0
  -29.1672  -19.3873   20.6045 C   0  0  0  0  0  0  0  0  0  0  0  0
  -21.6443   -8.8593   19.7953 C   0  0  0  0  0  0  0  0  0  0  0  0
  -23.2978  -25.2813   18.8673 C   0  0  0  0  0  0  0  0  0  0  0  0
  -19.7703   -7.5852   20.4173 C   0  0  0  0  0  0  0  0  0  0  0  0
  -17.8638   -6.9066   22.3376 C   0  0  0  0  0  0  0  0  0  0  0  0
  -28.3153  -18.5710   18.4962 C   0  0  0  0  0  0  0  0  0  0  0  0
  -18.9100   -8.5607   20.9211 C   0  0  0  0  0  0  0  0  0  0  0  0
  -24.5278  -11.7775   20.8283 C   0  0  0  0  0  0  0  0  0  0  0  0
  -25.5452  -13.5760   21.5803 C   0  0  0  0  0  0  0  0  0  0  0  0
  -30.2249  -17.3780   19.5362 C   0  0  0  0  0  0  0  0  0  0  0  0
  -23.0733  -13.5765   21.9523 C   0  0  0  0  0  0  0  0  0  0  0  0
  -27.3016  -29.7383   21.0189 C   0  0  0  0  0  0  0  0  0  0  0  0
  -28.6057  -27.3716   19.5670 C   0  0  0  0  0  0  0  0  0  0  0  0
  -29.6180  -24.4603   18.9326 C   0  0  0  0  0  0  0  0  0  0  0  0
  -30.4790  -14.9182   19.4465 C   0  0  0  0  0  0  0  0  0  0  0  0
  -30.0628  -31.7522   24.8107 C   0  0  0  0  0  0  0  0  0  0  0  0
  -25.2891  -28.2944   21.1965 C   0  0  0  0  0  0  0  0  0  0  0  0
  -26.2643  -27.6627   18.6218 C   0  0  0  0  0  0  0  0  0  0  0  0
  -30.3666  -30.9750   23.5324 C   0  0  0  0  0  0  0  0  0  0  0  0
  -30.1432  -11.6358   20.7156 C   0  0  0  0  0  0  0  0  0  0  0  0
  -29.6260  -31.5862   22.3472 C   0  0  0  0  0  0  0  0  0  0  0  0
  -28.6338  -11.4806   20.9205 C   0  0  0  0  0  0  0  0  0  0  0  0
  -30.4652  -12.4391   19.4563 C   0  0  0  0  0  0  0  0  0  0  0  0
  -28.2881  -13.5824   19.5615 C   0  0  0  0  0  0  0  0  0  0  0  0
  -28.1078  -31.5233   22.5535 C   0  0  1  0  0  0  0  0  0  0  0  0
  -26.8125  -28.3204   20.9779 C   0  0  1  0  0  0  0  0  0  0  0  0
  -27.9111  -12.8410   20.8543 C   0  0  1  0  0  0  0  0  0  0  0  0
  -30.7906  -22.3263   18.3257 C   0  0  0  0  0  0  0  0  0  0  0  0
  -28.4741  -28.9324   16.9497 C   0  0  0  0  0  0  0  0  0  0  0  0
  -29.9001  -27.1603   15.9035 C   0  0  0  0  0  0  0  0  0  0  0  0
  -30.7884  -28.5149   17.8005 C   0  0  0  0  0  0  0  0  0  0  0  0
  -22.4963  -22.0071   17.5903 C   0  0  0  0  0  0  0  0  0  0  0  0
  -24.0403  -23.5322   16.3432 C   0  0  0  0  0  0  0  0  0  0  0  0
  -30.8948  -24.2685   21.5957 C   0  0  0  0  0  0  0  0  0  0  0  0
  -24.5225  -22.9186   18.7735 C   0  0  0  0  0  0  0  0  0  0  0  0
  -25.3866  -21.6906   18.4789 C   0  0  0  0  0  0  0  0  0  0  0  0
  -29.0167  -26.7677   18.2480 C   0  0  1  0  0  0  0  0  0  0  0  0
  -30.8195  -23.5714   19.1984 C   0  0  2  0  0  0  0  0  0  0  0  0
  -29.5201  -27.8371   17.2378 C   0  0  0  0  0  0  0  0  0  0  0  0
  -23.4411  -23.2070   17.7122 C   0  0  0  0  0  0  0  0  0  1  0  0
  -25.8159  -11.5804   20.5353 N   0  0  0  0  0  0  0  0  0  0  0  0
  -26.4090  -12.6912   21.0049 N   0  0  0  0  0  0  0  0  0  0  0  0
  -27.2733  -27.7852   19.6855 N   0  0  0  0  0  0  0  0  0  0  0  0
  -29.7501  -13.7164   19.4751 N   0  0  0  0  0  0  0  0  0  0  0  0
  -30.0734  -19.3035   21.6852 N   0  0  0  0  0  0  0  0  0  0  0  0
  -25.9742  -14.7441   22.1038 N   0  0  0  0  0  0  0  0  0  0  0  0
  -21.8856  -12.8555   21.7681 N   0  0  0  0  0  0  0  0  0  0  0  0
  -26.3596  -21.5130   19.5322 N   0  0  0  0  0  0  0  0  0  0  0  0
  -29.7064  -16.0831   19.5111 N   0  0  0  0  0  0  0  0  0  0  0  0
  -27.6164  -30.1884   22.2869 N   0  0  0  0  0  0  0  0  0  0  0  0
  -29.9965  -25.7329   18.5605 N   0  0  0  0  0  0  0  0  0  0  0  0
  -30.8422  -23.1443   20.6260 N   0  3  0  0  0  0  0  0  0  0  0  0
  -31.4186  -17.6642   19.5051 O   0  0  0  0  0  0  0  0  0  0  0  0
  -23.0292  -14.7011   22.5060 O   0  0  0  0  0  0  0  0  0  0  0  0
  -27.3888  -30.3778   19.9772 O   0  0  0  0  0  0  0  0  0  0  0  0
  -29.4427  -27.4801   20.4676 O   0  0  0  0  0  0  0  0  0  0  0  0
  -28.4595  -24.0642   19.0405 O   0  0  0  0  0  0  0  0  0  0  0  0
  -31.7129  -14.9513   19.4057 O   0  0  0  0  0  0  0  0  0  0  0  0
  -20.7166   -7.9202   19.4634 O   0  0  0  0  0  0  0  0  0  0  0  0
  -22.6669  -24.3348   18.1183 O   0  0  0  0  0  0  0  0  0  1  0  0
  -16.9475   -6.5803   23.2585 F   0  0  0  0  0  0  0  0  0  0  0  0
  -28.3546  -17.6957   17.4814 F   0  0  0  0  0  0  0  0  0  0  0  0
  -18.9938   -9.8253   20.4857 F   0  0  0  0  0  0  0  0  0  0  0  0
  1  2  1  0  0  0  0
  1  5  2  0  0  0  0
  2  6  2  0  0  0  0
  3  8  2  0  0  0  0
  3 17  1  0  0  0  0
  4  9  1  0  0  0  0
  4 17  2  0  0  0  0
  5 20  1  0  0  0  0
  6 22  1  0  0  0  0
  7 10  2  0  0  0  0
  7 21  1  0  0  0  0
  8 26  1  0  0  0  0
  9 26  2  0  0  0  0
 10 27  1  0  0  0  0
 11 12  2  0  0  0  0
 11 28  1  0  0  0  0
 12 29  1  0  0  0  0
 13 23  1  0  0  0  0
 13 27  2  0  0  0  0
 14 24  1  0  0  0  0
 14 25  2  0  0  0  0
 15 24  2  0  0  0  0
 15 30  1  0  0  0  0
 16 29  2  0  0  0  0
 16 31  1  0  0  0  0
 17 32  1  0  0  0  0
 18 25  1  0  0  0  0
 18 30  2  0  0  0  0
 18 34  1  0  0  0  0
 19 32  1  0  0  0  0
 19 33  2  0  0  0  0
 19 35  1  0  0  0  0
 20 22  2  0  0  0  0
 20 40  1  0  0  0  0
 21 23  2  0  0  0  0
 21 41  1  0  0  0  0
 22 49  1  0  0  0  0
 23 42  1  0  0  0  0
 24 72  1  0  0  0  0
 25 69  1  0  0  0  0
 26 83  1  0  0  0  0
 27 84  1  0  0  0  0
 28 31  2  0  0  0  0
 28 83  1  0  0  0  0
 29 85  1  0  0  0  0
 30 86  1  0  0  0  0
 31 87  1  0  0  0  0
 32 65  2  0  0  0  0
 33 66  1  0  0  0  0
 33 70  1  0  0  0  0
 34 73  1  0  0  0  0
 34 77  2  0  0  0  0
 35 71  1  0  0  0  0
 35 78  2  0  0  0  0
 36 50  1  0  0  0  0
 36 74  1  0  0  0  0
 36 79  2  0  0  0  0
 37 61  1  0  0  0  0
 37 67  1  0  0  0  0
 37 80  2  0  0  0  0
 38 62  1  0  0  0  0
 38 75  1  0  0  0  0
 38 81  2  0  0  0  0
 39 68  1  0  0  0  0
 39 73  1  0  0  0  0
 39 82  2  0  0  0  0
 40 43  1  0  0  0  0
 41 50  1  0  0  0  0
 42 67  1  0  0  0  0
 43 45  1  0  0  0  0
 44 46  1  0  0  0  0
 44 47  1  0  0  0  0
 45 49  1  0  0  0  0
 46 51  1  0  0  0  0
 47 68  1  0  0  0  0
 48 51  1  0  0  0  0
 48 68  1  0  0  0  0
 49 74  1  0  0  0  0
 50 67  1  0  0  0  0
 51 66  1  0  0  0  0
 52 62  1  0  0  0  0
 53 63  1  0  0  0  0
 54 63  1  0  0  0  0
 55 63  1  0  0  0  0
 56 64  1  0  0  0  0
 57 64  1  0  0  0  0
 58 76  1  0  0  0  0
 59 60  1  0  0  0  0
 59 64  1  0  0  0  0
 60 72  1  0  0  0  0
 61 63  1  0  0  0  0
 61 75  1  0  0  0  0
 62 76  1  0  0  0  0
 64 84  1  0  0  0  0
 65 66  1  0  0  0  0
M  CHG  1  76   1
M  ISO  4  39 100  64 101  73 100  84 101
M  END
> <Batch ID>
0106

> <Smiles>
CNC(C)C(=O)NC(C(=O)N1Cc2cc([101O:1][101C:1](C)(C)CCNc3cc(N)c(C(=O)[100NH:0][100C:0](=O)N4CCCC(n5nc(-c6ccc(Oc7ccc(F)cc7F)cc6)c(C(N)=O)c5N)C4)c(F)c3)ccc2CC1C(=O)NC1CCCc2ccccc21)C(C)(C)C

> <Shape>
0.291

> <Color>
0.106

> <Negative vol penalty>
0.000

$$$$

  -OEChem-04052301143D

 85 94  0     1  0  0  0  0  0999 V2000
  -20.5574  -30.8997   23.9945 C   0  0  0  0  0  0  0  0  0  0  0  0
  -21.7693  -30.2551   23.7680 C   0  0  0  0  0  0  0  0  0  0  0  0
  -27.0160  -23.5518   23.2910 C   0  0  0  0  0  0  0  0  0  0  0  0
  -23.4899  -12.4553   20.5203 C   0  0  0  0  0  0  0  0  0  0  0  0
  -24.2837  -13.0098   22.7338 C   0  0  0  0  0  0  0  0  0  0  0  0
  -19.3596  -30.2634   23.6717 C   0  0  0  0  0  0  0  0  0  0  0  0
  -21.7840  -28.9732   23.2195 C   0  0  0  0  0  0  0  0  0  0  0  0
  -25.2492  -28.4649   19.5618 C   0  0  0  0  0  0  0  0  0  0  0  0
  -28.2828  -24.1343   23.3311 C   0  0  0  0  0  0  0  0  0  0  0  0
  -26.7951  -22.4157   22.5123 C   0  0  0  0  0  0  0  0  0  0  0  0
  -23.2853  -11.1360   20.9241 C   0  0  0  0  0  0  0  0  0  0  0  0
  -24.0790  -11.6904   23.1377 C   0  0  0  0  0  0  0  0  0  0  0  0
  -26.5755  -28.3021   19.9594 C   0  0  0  0  0  0  0  0  0  0  0  0
  -20.9750   -9.3974   22.6771 C   0  0  0  0  0  0  0  0  0  0  0  0
  -19.7772   -8.7851   22.3084 C   0  0  0  0  0  0  0  0  0  0  0  0
  -26.3853  -25.9244   19.5996 C   0  0  0  0  0  0  0  0  0  0  0  0
  -29.1078  -22.4448   21.8139 C   0  0  0  0  0  0  0  0  0  0  0  0
  -21.0126   -7.0929   21.1053 C   0  0  0  0  0  0  0  0  0  0  0  0
  -23.9892  -13.3922   21.4252 C   0  0  0  0  0  0  0  0  0  0  0  0
  -23.2796  -15.8171   21.0732 C   0  0  0  0  0  0  0  0  0  0  0  0
  -19.3600  -28.9768   23.1100 C   0  0  0  0  0  0  0  0  0  0  0  0
  -24.4764  -27.3554   19.1899 C   0  0  0  0  0  0  0  0  0  0  0  0
  -20.5850  -28.3185   22.8901 C   0  0  0  0  0  0  0  0  0  0  0  0
  -25.0502  -26.0760   19.1952 C   0  0  0  0  0  0  0  0  0  0  0  0
  -29.3286  -23.5809   22.5926 C   0  0  0  0  0  0  0  0  0  0  0  0
  -27.8410  -21.8623   21.7738 C   0  0  0  0  0  0  0  0  0  0  0  0
  -23.5798  -10.7535   22.2328 C   0  0  0  0  0  0  0  0  0  0  0  0
  -27.1429  -27.0314   19.9811 C   0  0  0  0  0  0  0  0  0  0  0  0
  -22.1916   -8.8576   22.2598 C   0  0  0  0  0  0  0  0  0  0  0  0
  -19.7960   -7.6328   21.5226 C   0  0  0  0  0  0  0  0  0  0  0  0
  -22.2104   -7.7054   21.4739 C   0  0  0  0  0  0  0  0  0  0  0  0
  -24.2014  -14.7551   21.0085 C   0  0  0  0  0  0  0  0  0  0  0  0
  -23.9602  -16.8943   20.5603 C   0  0  0  0  0  0  0  0  0  0  0  0
  -30.5202  -26.7073   22.3399 C   0  0  0  0  0  0  0  0  0  0  0  0
  -21.9289  -15.8290   21.5541 C   0  0  0  0  0  0  0  0  0  0  0  0
  -21.8235  -25.9976   20.2954 C   0  0  0  0  0  0  0  0  0  0  0  0
  -22.1311  -24.1495   17.6473 C   0  0  0  0  0  0  0  0  0  0  0  0
  -24.1752  -22.8470   15.2448 C   0  0  0  0  0  0  0  0  0  0  0  0
  -28.5445  -20.0329   20.1911 C   0  0  0  0  0  0  0  0  0  0  0  0
  -18.0382  -28.3104   22.8213 C   0  0  0  0  0  0  0  0  0  0  0  0
  -23.0552  -27.5510   18.7378 C   0  0  0  0  0  0  0  0  0  0  0  0
  -24.2693  -24.8550   18.7858 C   0  0  0  0  0  0  0  0  0  0  0  0
  -18.1547  -27.1017   21.8962 C   0  0  0  0  0  0  0  0  0  0  0  0
  -28.3924  -17.1354   18.1274 C   0  0  0  0  0  0  0  0  0  0  0  0
  -19.3011  -26.1985   22.3397 C   0  0  0  0  0  0  0  0  0  0  0  0
  -27.2127  -16.3452   18.6983 C   0  0  0  0  0  0  0  0  0  0  0  0
  -31.2886  -26.8315   20.0822 C   0  0  0  0  0  0  0  0  0  0  0  0
  -29.1903  -17.8361   19.2257 C   0  0  0  0  0  0  0  0  0  0  0  0
  -30.9645  -25.3900   20.4263 C   0  0  0  0  0  0  0  0  0  0  0  0
  -27.2165  -17.8895   20.6989 C   0  0  0  0  0  0  0  0  0  0  0  0
  -20.6431  -26.9376   22.2737 C   0  0  1  0  0  0  0  0  0  0  0  0
  -30.5670  -27.6537   21.1552 C   0  0  1  0  0  0  0  0  0  0  0  0
  -22.2066  -26.2903   18.8723 C   0  0  1  0  0  0  0  0  0  0  0  0
  -26.3445  -17.2192   19.6246 C   0  0  2  0  0  0  0  0  0  0  0  0
  -24.1454  -21.3411   13.2376 C   0  0  0  0  0  0  0  0  0  0  0  0
  -21.9602  -21.7152   19.4790 C   0  0  0  0  0  0  0  0  0  0  0  0
  -22.8721  -20.3280   17.6050 C   0  0  0  0  0  0  0  0  0  0  0  0
  -20.6867  -21.5007   17.3374 C   0  0  0  0  0  0  0  0  0  0  0  0
  -25.0960  -25.0187   13.4574 C   0  0  0  0  0  0  0  0  0  0  0  0
  -30.6919  -24.2083   22.6362 C   0  0  0  0  0  0  0  0  0  0  0  0
  -29.1553  -28.0453   20.7416 C   0  0  0  0  0  0  0  0  0  1  0  0
  -22.8260  -22.8482   17.3266 C   0  0  1  0  0  0  0  0  0  0  0  0
  -24.0359  -22.7741   13.7349 C   0  0  2  0  0  0  0  0  0  0  0  0
  -22.1007  -21.6206   17.9466 C   0  0  0  0  0  0  0  0  0  0  0  0
  -25.3778  -15.1240   20.4947 N   0  0  0  0  0  0  0  0  0  0  0  0
  -25.1998  -16.4299   20.2320 N   0  0  0  0  0  0  0  0  0  0  0  0
  -30.7539  -25.4237   21.8536 N   0  0  0  0  0  0  0  0  0  0  0  0
  -22.8816  -25.0971   18.3577 N   0  0  0  0  0  0  0  0  0  0  0  0
  -28.3031  -18.6489   20.0607 N   0  0  0  0  0  0  0  0  0  0  0  0
  -23.6132  -18.1838   20.3625 N   0  0  0  0  0  0  0  0  0  0  0  0
  -21.3848  -14.6353   22.0474 N   0  0  0  0  0  0  0  0  0  0  0  0
  -27.6165  -20.7078   20.9834 N   0  0  0  0  0  0  0  0  0  0  0  0
  -21.1121  -27.0124   20.9067 N   0  0  0  0  0  0  0  0  0  0  0  0
  -22.9491  -22.7984   15.8738 N   0  0  0  0  0  0  0  0  0  0  0  0
  -25.1009  -23.5826   13.0769 N   0  3  0  0  0  0  0  0  0  0  0  0
  -30.2702  -27.0433   23.4885 O   0  0  0  0  0  0  0  0  0  0  0  0
  -21.2199  -16.8636   21.5314 O   0  0  0  0  0  0  0  0  0  0  0  0
  -22.1479  -24.9294   20.8009 O   0  0  0  0  0  0  0  0  0  0  0  0
  -20.9679  -24.3217   17.2748 O   0  0  0  0  0  0  0  0  0  0  0  0
  -25.2631  -22.9341   15.8099 O   0  0  0  0  0  0  0  0  0  0  0  0
  -29.4881  -20.5839   19.6184 O   0  0  0  0  0  0  0  0  0  0  0  0
  -23.3799   -9.4663   22.6273 O   0  0  0  0  0  0  0  0  0  0  0  0
  -28.4371  -26.8697   20.3695 O   0  0  0  0  0  0  0  0  0  1  0  0
  -18.6457   -7.0440   21.1699 F   0  0  0  0  0  0  0  0  0  0  0  0
  -23.3762   -7.1814   21.0710 F   0  0  0  0  0  0  0  0  0  0  0  0
  1  2  1  0  0  0  0
  1  6  2  0  0  0  0
  2  7  2  0  0  0  0
  3  9  2  0  0  0  0
  3 10  1  0  0  0  0
  4 11  2  0  0  0  0
  4 19  1  0  0  0  0
  5 12  1  0  0  0  0
  5 19  2  0  0  0  0
  6 21  1  0  0  0  0
  7 23  1  0  0  0  0
  8 13  2  0  0  0  0
  8 22  1  0  0  0  0
  9 25  1  0  0  0  0
 10 26  2  0  0  0  0
 11 27  1  0  0  0  0
 12 27  2  0  0  0  0
 13 28  1  0  0  0  0
 14 15  2  0  0  0  0
 14 29  1  0  0  0  0
 15 30  1  0  0  0  0
 16 24  1  0  0  0  0
 16 28  2  0  0  0  0
 17 25  2  0  0  0  0
 17 26  1  0  0  0  0
 18 30  2  0  0  0  0
 18 31  1  0  0  0  0
 19 32  1  0  0  0  0
 20 32  1  0  0  0  0
 20 33  2  0  0  0  0
 20 35  1  0  0  0  0
 21 23  2  0  0  0  0
 21 40  1  0  0  0  0
 22 24  2  0  0  0  0
 22 41  1  0  0  0  0
 23 51  1  0  0  0  0
 24 42  1  0  0  0  0
 25 60  1  0  0  0  0
 26 72  1  0  0  0  0
 27 82  1  0  0  0  0
 28 83  1  0  0  0  0
 29 31  2  0  0  0  0
 29 82  1  0  0  0  0
 30 84  1  0  0  0  0
 31 85  1  0  0  0  0
 32 65  2  0  0  0  0
 33 66  1  0  0  0  0
 33 70  1  0  0  0  0
 34 52  1  0  0  0  0
 34 67  1  0  0  0  0
 34 76  2  0  0  0  0
 35 71  1  0  0  0  0
 35 77  2  0  0  0  0
 36 53  1  0  0  0  0
 36 73  1  0  0  0  0
 36 78  2  0  0  0  0
 37 62  1  0  0  0  0
 37 68  1  0  0  0  0
 37 79  2  0  0  0  0
 38 63  1  0  0  0  0
 38 74  1  0  0  0  0
 38 80  2  0  0  0  0
 39 69  1  0  0  0  0
 39 72  1  0  0  0  0
 39 81  2  0  0  0  0
 40 43  1  0  0  0  0
 41 53  1  0  0  0  0
 42 68  1  0  0  0  0
 43 45  1  0  0  0  0
 44 46  1  0  0  0  0
 44 48  1  0  0  0  0
 45 51  1  0  0  0  0
 46 54  1  0  0  0  0
 47 49  1  0  0  0  0
 47 52  1  0  0  0  0
 48 69  1  0  0  0  0
 49 67  1  0  0  0  0
 50 54  1  0  0  0  0
 50 69  1  0  0  0  0
 51 73  1  0  0  0  0
 52 61  1  0  0  0  0
 53 68  1  0  0  0  0
 54 66  1  0  0  0  0
 55 63  1  0  0  0  0
 56 64  1  0  0  0  0
 57 64  1  0  0  0  0
 58 64  1  0  0  0  0
 59 75  1  0  0  0  0
 60 67  1  0  0  0  0
 61 83  1  0  0  0  0
 62 64  1  0  0  0  0
 62 74  1  0  0  0  0
 63 75  1  0  0  0  0
 65 66  1  0  0  0  0
M  CHG  1  75   1
M  ISO  4  39 100  61 101  72 100  83 101
M  END
> <Batch ID>
0106

> <Smiles>
CNC(C)C(=O)NC(C(=O)N1Cc2cc([101O:1][101CH2:1]C3CCN(Cc4cccc([100NH:0][100C:0](=O)N5CCCC(n6nc(-c7ccc(Oc8ccc(F)cc8F)cc7)c(C(N)=O)c6N)C5)c4)C3=O)ccc2CC1C(=O)NC1CCCc2ccccc21)C(C)(C)C

> <Shape>
0.230

> <Color>
0.077

> <Negative vol penalty>
0.000

$$$$

  -OEChem-04052301143D

 85 93  0     1  0  0  0  0  0999 V2000
  -20.1116  -22.4961   19.0458 C   0  0  0  0  0  0  0  0  0  0  0  0
  -21.3647  -22.0483   19.4514 C   0  0  0  0  0  0  0  0  0  0  0  0
  -21.8307  -28.2028   20.4703 C   0  0  0  0  0  0  0  0  0  0  0  0
  -22.9245  -27.0764   22.3066 C   0  0  0  0  0  0  0  0  0  0  0  0
  -18.9749  -21.7446   19.3408 C   0  0  0  0  0  0  0  0  0  0  0  0
  -21.4817  -20.8491   20.1534 C   0  0  0  0  0  0  0  0  0  0  0  0
  -25.2759  -17.9615   18.4472 C   0  0  0  0  0  0  0  0  0  0  0  0
  -20.7901  -27.2753   20.5212 C   0  0  0  0  0  0  0  0  0  0  0  0
  -21.8839  -26.1489   22.3575 C   0  0  0  0  0  0  0  0  0  0  0  0
  -26.5674  -18.3094   18.8405 C   0  0  0  0  0  0  0  0  0  0  0  0
  -18.7303  -26.0097   23.5641 C   0  0  0  0  0  0  0  0  0  0  0  0
  -18.2162  -25.6829   24.8189 C   0  0  0  0  0  0  0  0  0  0  0  0
  -29.9780  -25.4779   22.1135 C   0  0  0  0  0  0  0  0  0  0  0  0
  -29.7053  -25.3799   19.7150 C   0  0  0  0  0  0  0  0  0  0  0  0
  -26.5097  -16.5889   20.5304 C   0  0  0  0  0  0  0  0  0  0  0  0
  -18.8229  -23.3712   24.4655 C   0  0  0  0  0  0  0  0  0  0  0  0
  -22.8979  -28.1033   21.3630 C   0  0  0  0  0  0  0  0  0  0  0  0
  -29.9751  -26.1121   20.8712 C   0  0  0  0  0  0  0  0  0  0  0  0
  -24.0601  -30.2808   22.0076 C   0  0  0  0  0  0  0  0  0  0  0  0
  -19.0790  -20.5308   20.0383 C   0  0  0  0  0  0  0  0  0  0  0  0
  -24.5863  -16.9302   19.1008 C   0  0  0  0  0  0  0  0  0  0  0  0
  -20.3452  -20.0813   20.4592 C   0  0  0  0  0  0  0  0  0  0  0  0
  -25.2105  -16.2282   20.1418 C   0  0  0  0  0  0  0  0  0  0  0  0
  -29.7112  -24.1115   22.1997 C   0  0  0  0  0  0  0  0  0  0  0  0
  -20.8167  -26.2484   21.4647 C   0  0  0  0  0  0  0  0  0  0  0  0
  -27.1834  -17.6250   19.8842 C   0  0  0  0  0  0  0  0  0  0  0  0
  -19.2907  -25.0172   22.7600 C   0  0  0  0  0  0  0  0  0  0  0  0
  -29.4385  -24.0134   19.8012 C   0  0  0  0  0  0  0  0  0  0  0  0
  -29.4415  -23.3793   21.0436 C   0  0  0  0  0  0  0  0  0  0  0  0
  -18.2625  -24.3637   25.2696 C   0  0  0  0  0  0  0  0  0  0  0  0
  -19.3370  -23.6980   23.2107 C   0  0  0  0  0  0  0  0  0  0  0  0
  -23.9734  -29.0608   21.3106 C   0  0  0  0  0  0  0  0  0  0  0  0
  -25.2646  -30.8138   21.6182 C   0  0  0  0  0  0  0  0  0  0  0  0
  -30.2534  -27.5368   20.7813 C   0  0  0  0  0  0  0  0  0  0  0  0
  -23.1347  -30.8788   22.9251 C   0  0  0  0  0  0  0  0  0  0  0  0
  -30.2582  -28.2407   19.4783 C   0  0  0  0  0  0  0  0  0  0  0  0
  -21.9051  -16.7490   20.7985 C   0  0  0  0  0  0  0  0  0  0  0  0
  -22.5235  -13.5659   20.7085 C   0  0  0  0  0  0  0  0  0  0  0  0
  -24.8254  -11.0705   20.3606 C   0  0  0  0  0  0  0  0  0  0  0  0
  -17.8171  -19.7768   20.3755 C   0  0  0  0  0  0  0  0  0  0  0  0
  -23.2038  -16.5493   18.6469 C   0  0  0  0  0  0  0  0  0  0  0  0
  -24.5208  -15.0997   20.8625 C   0  0  0  0  0  0  0  0  0  0  0  0
  -18.0657  -18.3305   20.7961 C   0  0  0  0  0  0  0  0  0  0  0  0
  -28.3427  -30.8682   17.9671 C   0  0  0  0  0  0  0  0  0  0  0  0
  -19.2052  -18.2571   21.8076 C   0  0  0  0  0  0  0  0  0  0  0  0
  -26.9993  -30.7872   18.6913 C   0  0  0  0  0  0  0  0  0  0  0  0
  -28.9664  -29.4875   17.7914 C   0  0  0  0  0  0  0  0  0  0  0  0
  -27.7818  -28.6467   19.8010 C   0  0  0  0  0  0  0  0  0  0  0  0
  -20.5155  -18.7733   21.2010 C   0  0  1  0  0  0  0  0  0  0  0  0
  -22.4002  -15.8246   19.7223 C   0  0  1  0  0  0  0  0  0  0  0  0
  -27.1342  -30.0249   20.0215 C   0  0  2  0  0  0  0  0  0  0  0  0
  -25.0368   -8.5700   20.3716 C   0  0  0  0  0  0  0  0  0  0  0  0
  -22.2930  -13.5622   23.7510 C   0  0  0  0  0  0  0  0  0  0  0  0
  -23.4249  -11.3290   23.7644 C   0  0  0  0  0  0  0  0  0  0  0  0
  -21.2246  -11.6034   22.6214 C   0  0  0  0  0  0  0  0  0  0  0  0
  -25.8091  -11.0254   17.5697 C   0  0  0  0  0  0  0  0  0  0  0  0
  -27.8133  -23.2260   18.2538 C   0  0  0  0  0  0  0  0  0  0  0  0
  -29.8294  -19.7183   21.1765 C   0  0  0  0  0  0  0  0  0  0  0  0
  -28.8328  -19.3250   20.0974 C   0  0  0  0  0  0  0  0  0  1  0  0
  -30.2927  -21.1587   21.0253 C   0  0  0  0  0  0  0  0  0  0  0  0
  -23.2980  -12.6024   21.5750 C   0  0  1  0  0  0  0  0  0  0  0  0
  -24.8237   -9.8091   19.5161 C   0  0  2  0  0  0  0  0  0  0  0  0
  -22.5727  -12.2968   22.9159 C   0  0  0  0  0  0  0  0  0  0  0  0
  -25.0379  -28.8321   20.5369 N   0  0  0  0  0  0  0  0  0  0  0  0
  -30.5117  -28.2834   21.8208 N   0  0  0  0  0  0  0  0  0  0  0  0
  -25.8049  -29.9158   20.7454 N   0  0  0  0  0  0  0  0  0  0  0  0
  -29.0464  -28.7775   19.0664 N   0  0  0  0  0  0  0  0  0  0  0  0
  -23.1676  -14.7689   20.3861 N   0  0  0  0  0  0  0  0  0  0  0  0
  -29.7179  -23.4833   23.4641 N   0  0  0  0  0  0  0  0  0  0  0  0
  -25.9036  -31.9584   21.9407 N   0  0  0  0  0  0  0  0  0  0  0  0
  -21.9451  -30.1964   23.2141 N   0  0  0  0  0  0  0  0  0  0  0  0
  -21.1004  -17.7722   20.3348 N   0  0  0  0  0  0  0  0  0  0  0  0
  -23.5515  -11.4255   20.7509 N   0  0  0  0  0  0  0  0  0  0  0  0
  -25.9080   -9.8677   18.4954 N   0  3  0  0  0  0  0  0  0  0  0  0
  -23.3486  -31.9932   23.4598 O   0  0  0  0  0  0  0  0  0  0  0  0
  -31.3368  -28.2734   18.9005 O   0  0  0  0  0  0  0  0  0  0  0  0
  -22.2279  -16.5478   21.9634 O   0  0  0  0  0  0  0  0  0  0  0  0
  -21.3917  -13.2594   20.3257 O   0  0  0  0  0  0  0  0  0  0  0  0
  -25.8543  -11.6779   20.6487 O   0  0  0  0  0  0  0  0  0  0  0  0
  -19.8014  -25.3433   21.5148 O   0  0  0  0  0  0  0  0  0  0  0  0
  -29.1766  -23.3103   18.6641 O   0  0  0  0  0  0  0  0  0  0  0  0
  -28.4437  -17.9630   20.2706 O   0  0  0  0  0  0  0  0  0  1  0  0
  -29.1788  -22.0362   21.1202 O   0  0  0  0  0  0  0  0  0  0  0  0
  -17.7702  -24.0504   26.4753 F   0  0  0  0  0  0  0  0  0  0  0  0
  -19.8752  -22.7404   22.4431 F   0  0  0  0  0  0  0  0  0  0  0  0
  1  2  1  0  0  0  0
  1  5  2  0  0  0  0
  2  6  2  0  0  0  0
  3  8  2  0  0  0  0
  3 17  1  0  0  0  0
  4  9  1  0  0  0  0
  4 17  2  0  0  0  0
  5 20  1  0  0  0  0
  6 22  1  0  0  0  0
  7 10  2  0  0  0  0
  7 21  1  0  0  0  0
  8 25  1  0  0  0  0
  9 25  2  0  0  0  0
 10 26  1  0  0  0  0
 11 12  2  0  0  0  0
 11 27  1  0  0  0  0
 12 30  1  0  0  0  0
 13 18  1  0  0  0  0
 13 24  2  0  0  0  0
 14 18  2  0  0  0  0
 14 28  1  0  0  0  0
 15 23  1  0  0  0  0
 15 26  2  0  0  0  0
 16 30  2  0  0  0  0
 16 31  1  0  0  0  0
 17 32  1  0  0  0  0
 18 34  1  0  0  0  0
 19 32  1  0  0  0  0
 19 33  2  0  0  0  0
 19 35  1  0  0  0  0
 20 22  2  0  0  0  0
 20 40  1  0  0  0  0
 21 23  2  0  0  0  0
 21 41  1  0  0  0  0
 22 49  1  0  0  0  0
 23 42  1  0  0  0  0
 24 29  1  0  0  0  0
 24 69  1  0  0  0  0
 25 80  1  0  0  0  0
 26 82  1  0  0  0  0
 27 31  2  0  0  0  0
 27 80  1  0  0  0  0
 28 29  2  0  0  0  0
 28 81  1  0  0  0  0
 29 83  1  0  0  0  0
 30 84  1  0  0  0  0
 31 85  1  0  0  0  0
 32 64  2  0  0  0  0
 33 66  1  0  0  0  0
 33 70  1  0  0  0  0
 34 36  1  0  0  0  0
 34 65  2  0  0  0  0
 35 71  1  0  0  0  0
 35 75  2  0  0  0  0
 36 67  1  0  0  0  0
 36 76  2  0  0  0  0
 37 50  1  0  0  0  0
 37 72  1  0  0  0  0
 37 77  2  0  0  0  0
 38 61  1  0  0  0  0
 38 68  1  0  0  0  0
 38 78  2  0  0  0  0
 39 62  1  0  0  0  0
 39 73  1  0  0  0  0
 39 79  2  0  0  0  0
 40 43  1  0  0  0  0
 41 50  1  0  0  0  0
 42 68  1  0  0  0  0
 43 45  1  0  0  0  0
 44 46  1  0  0  0  0
 44 47  1  0  0  0  0
 45 49  1  0  0  0  0
 46 51  1  0  0  0  0
 47 67  1  0  0  0  0
 48 51  1  0  0  0  0
 48 67  1  0  0  0  0
 49 72  1  0  0  0  0
 50 68  1  0  0  0  0
 51 66  1  0  0  0  0
 52 62  1  0  0  0  0
 53 63  1  0  0  0  0
 54 63  1  0  0  0  0
 55 63  1  0  0  0  0
 56 74  1  0  0  0  0
 57 81  1  0  0  0  0
 58 59  1  0  0  0  0
 58 60  1  0  0  0  0
 59 82  1  0  0  0  0
 60 83  1  0  0  0  0
 61 63  1  0  0  0  0
 61 73  1  0  0  0  0
 62 74  1  0  0  0  0
 64 66  1  0  0  0  0
M  CHG  1  74   1
M  ISO  4  34 100  36 100  59 101  82 101
M  END
> <Batch ID>
0106

> <Smiles>
CNC(C)C(=O)NC(C(=O)N1Cc2cc([101O:1][101CH2:1]CCOc3c(N)cc([100C:0](=N)[100C:0](=O)N4CCCC(n5nc(-c6ccc(Oc7ccc(F)cc7F)cc6)c(C(N)=O)c5N)C4)cc3OC)ccc2CC1C(=O)NC1CCCc2ccccc21)C(C)(C)C

> <Shape>
0.216

> <Color>
0.069

> <Negative vol penalty>
0.000

$$$$

  -OEChem-04052301143D

 87 95  0     1  0  0  0  0  0999 V2000
  -16.7540  -28.7303   23.8061 C   0  0  0  0  0  0  0  0  0  0  0  0
  -17.3810  -28.0557   22.7633 C   0  0  0  0  0  0  0  0  0  0  0  0
  -24.6075  -17.2509   19.7281 C   0  0  0  0  0  0  0  0  0  0  0  0
  -25.2913  -16.5349   21.9320 C   0  0  0  0  0  0  0  0  0  0  0  0
  -17.3186  -29.8972   24.3192 C   0  0  0  0  0  0  0  0  0  0  0  0
  -18.5725  -28.5484   22.2324 C   0  0  0  0  0  0  0  0  0  0  0  0
  -22.0318  -24.9183   21.5247 C   0  0  0  0  0  0  0  0  0  0  0  0
  -29.0037  -21.6931   14.1819 C   0  0  0  0  0  0  0  0  0  0  0  0
  -27.6138  -21.7581   14.2787 C   0  0  0  0  0  0  0  0  0  0  0  0
  -24.2986  -15.9320   19.3955 C   0  0  0  0  0  0  0  0  0  0  0  0
  -24.9824  -15.2160   21.5993 C   0  0  0  0  0  0  0  0  0  0  0  0
  -21.8785  -24.1024   20.4047 C   0  0  0  0  0  0  0  0  0  0  0  0
  -22.2130  -13.2959   21.3463 C   0  0  0  0  0  0  0  0  0  0  0  0
  -21.5008  -12.5434   22.2801 C   0  0  0  0  0  0  0  0  0  0  0  0
  -27.7422  -21.0651   16.5896 C   0  0  0  0  0  0  0  0  0  0  0  0
  -23.5426  -25.4017   19.2378 C   0  0  0  0  0  0  0  0  0  0  0  0
  -23.3196  -10.9567   22.3885 C   0  0  0  0  0  0  0  0  0  0  0  0
  -25.1039  -17.5524   20.9964 C   0  0  0  0  0  0  0  0  0  0  0  0
  -29.1322  -21.0000   16.4928 C   0  0  0  0  0  0  0  0  0  0  0  0
  -24.5653  -19.8695   21.9173 C   0  0  0  0  0  0  0  0  0  0  0  0
  -18.5227  -30.3992   23.8007 C   0  0  0  0  0  0  0  0  0  0  0  0
  -22.9353  -25.9906   21.5059 C   0  0  0  0  0  0  0  0  0  0  0  0
  -19.1531  -29.7239   22.7382 C   0  0  0  0  0  0  0  0  0  0  0  0
  -23.7074  -26.2282   20.3598 C   0  0  0  0  0  0  0  0  0  0  0  0
  -29.7630  -21.3139   15.2890 C   0  0  0  0  0  0  0  0  0  0  0  0
  -26.9830  -21.4442   15.4825 C   0  0  0  0  0  0  0  0  0  0  0  0
  -24.4861  -14.9145   20.3310 C   0  0  0  0  0  0  0  0  0  0  0  0
  -22.6319  -24.3457   19.2600 C   0  0  0  0  0  0  0  0  0  0  0  0
  -23.4784  -12.8788   20.9335 C   0  0  0  0  0  0  0  0  0  0  0  0
  -22.0541  -11.3738   22.8013 C   0  0  0  0  0  0  0  0  0  0  0  0
  -24.0317  -11.7093   21.4546 C   0  0  0  0  0  0  0  0  0  0  0  0
  -25.4237  -18.9145   21.3405 C   0  0  0  0  0  0  0  0  0  0  0  0
  -25.3406  -20.9962   22.0437 C   0  0  0  0  0  0  0  0  0  0  0  0
  -29.9104  -20.5972   17.6781 C   0  0  0  0  0  0  0  0  0  0  0  0
  -23.1900  -19.7490   22.3044 C   0  0  0  0  0  0  0  0  0  0  0  0
  -22.6783  -29.1456   21.7943 C   0  0  0  0  0  0  0  0  0  0  0  0
  -25.9195  -29.0227   21.7475 C   0  0  0  0  0  0  0  0  0  0  0  0
  -24.7852  -21.2313   16.6936 C   0  0  0  0  0  0  0  0  0  0  0  0
  -28.7419  -27.3362   20.8329 C   0  0  0  0  0  0  0  0  0  0  0  0
  -29.8595  -19.0899   19.6113 C   0  0  0  0  0  0  0  0  0  0  0  0
  -19.0701  -31.6901   24.3563 C   0  0  0  0  0  0  0  0  0  0  0  0
  -23.1083  -26.8451   22.7316 C   0  0  0  0  0  0  0  0  0  0  0  0
  -24.7058  -27.3540   20.2956 C   0  0  0  0  0  0  0  0  0  0  0  0
  -20.5303  -31.9407   23.9887 C   0  0  0  0  0  0  0  0  0  0  0  0
  -29.5644  -20.4046   22.9132 C   0  0  0  0  0  0  0  0  0  0  0  0
  -20.7603  -31.6753   22.5043 C   0  0  0  0  0  0  0  0  0  0  0  0
  -28.5931  -21.5740   22.7798 C   0  0  0  0  0  0  0  0  0  0  0  0
  -30.4630  -20.2991   21.6889 C   0  0  0  0  0  0  0  0  0  0  0  0
  -28.7018  -21.2794   20.2398 C   0  0  0  0  0  0  0  0  0  0  0  0
  -20.4597  -30.2134   22.1522 C   0  0  1  0  0  0  0  0  0  0  0  0
  -23.6846  -28.2234   22.4225 C   0  0  1  0  0  0  0  0  0  0  0  0
  -27.7994  -21.5530   21.4623 C   0  0  1  0  0  0  0  0  0  0  0  0
  -31.2500  -21.2525   15.1579 C   0  0  0  0  0  0  0  0  0  0  0  0
  -31.1899  -26.8081   20.6728 C   0  0  0  0  0  0  0  0  0  0  0  0
  -25.8391  -31.0571   19.4749 C   0  0  0  0  0  0  0  0  0  0  0  0
  -28.2182  -30.4715   18.9597 C   0  0  0  0  0  0  0  0  0  0  0  0
  -27.6301  -31.4603   21.1731 C   0  0  0  0  0  0  0  0  0  0  0  0
  -29.5860  -18.1426   17.3760 C   0  0  0  0  0  0  0  0  0  0  0  0
  -28.6857  -25.7657   23.3408 C   0  0  0  0  0  0  0  0  0  0  0  0
  -23.3110  -21.4249   16.3667 C   0  0  0  0  0  0  0  0  0  0  0  0
  -22.9889  -22.8489   15.9272 C   0  0  0  0  0  0  0  0  0  0  0  0
  -23.2876  -23.8578   17.0266 C   0  0  0  0  0  0  0  0  0  1  0  0
  -26.9757  -29.0707   20.6700 C   0  0  1  0  0  0  0  0  0  0  0  0
  -30.0017  -26.9876   21.6048 C   0  0  2  0  0  0  0  0  0  0  0  0
  -27.1456  -30.4948   20.0696 C   0  0  0  0  0  0  0  0  0  0  0  0
  -26.6504  -19.3928   21.1157 N   0  0  0  0  0  0  0  0  0  0  0  0
  -26.5684  -20.6607   21.5536 N   0  0  0  0  0  0  0  0  0  0  0  0
  -24.8342  -28.1654   21.5174 N   0  0  0  0  0  0  0  0  0  0  0  0
  -29.6799  -20.2020   20.4580 N   0  0  0  0  0  0  0  0  0  0  0  0
  -25.0850  -22.2313   22.5251 N   0  0  0  0  0  0  0  0  0  0  0  0
  -22.5449  -18.5209   22.1048 N   0  0  0  0  0  0  0  0  0  0  0  0
  -25.5727  -21.5084   15.5797 N   0  0  0  0  0  0  0  0  0  0  0  0
  -21.5520  -29.3590   22.5659 N   0  0  0  0  0  0  0  0  0  0  0  0
  -28.1906  -28.5240   21.2646 N   0  0  0  0  0  0  0  0  0  0  0  0
  -29.6670  -19.3253   18.2344 N   0  0  0  0  0  0  0  0  0  0  0  0
  -29.8080  -25.7226   22.3685 N   0  3  0  0  0  0  0  0  0  0  0  0
  -30.7389  -21.4063   18.0950 O   0  0  0  0  0  0  0  0  0  0  0  0
  -22.5475  -20.7070   22.7972 O   0  0  0  0  0  0  0  0  0  0  0  0
  -22.9076  -29.6291   20.6919 O   0  0  0  0  0  0  0  0  0  0  0  0
  -26.0561  -29.7148   22.7594 O   0  0  0  0  0  0  0  0  0  0  0  0
  -25.1647  -20.8777   17.8051 O   0  0  0  0  0  0  0  0  0  0  0  0
  -28.2939  -26.6276   19.9342 O   0  0  0  0  0  0  0  0  0  0  0  0
  -30.1901  -17.9762   20.0343 O   0  0  0  0  0  0  0  0  0  0  0  0
  -24.1845  -13.6275   20.0068 O   0  0  0  0  0  0  0  0  0  0  0  0
  -22.4837  -23.5512   18.1651 O   0  0  0  0  0  0  0  0  0  1  0  0
  -21.3708  -10.6521   23.6992 F   0  0  0  0  0  0  0  0  0  0  0  0
  -25.2475  -11.3042   21.0628 F   0  0  0  0  0  0  0  0  0  0  0  0
  1  2  1  0  0  0  0
  1  5  2  0  0  0  0
  2  6  2  0  0  0  0
  3 10  2  0  0  0  0
  3 18  1  0  0  0  0
  4 11  1  0  0  0  0
  4 18  2  0  0  0  0
  5 21  1  0  0  0  0
  6 23  1  0  0  0  0
  7 12  2  0  0  0  0
  7 22  1  0  0  0  0
  8  9  2  0  0  0  0
  8 25  1  0  0  0  0
  9 26  1  0  0  0  0
 10 27  1  0  0  0  0
 11 27  2  0  0  0  0
 12 28  1  0  0  0  0
 13 14  2  0  0  0  0
 13 29  1  0  0  0  0
 14 30  1  0  0  0  0
 15 19  1  0  0  0  0
 15 26  2  0  0  0  0
 16 24  1  0  0  0  0
 16 28  2  0  0  0  0
 17 30  2  0  0  0  0
 17 31  1  0  0  0  0
 18 32  1  0  0  0  0
 19 25  2  0  0  0  0
 19 34  1  0  0  0  0
 20 32  1  0  0  0  0
 20 33  2  0  0  0  0
 20 35  1  0  0  0  0
 21 23  2  0  0  0  0
 21 41  1  0  0  0  0
 22 24  2  0  0  0  0
 22 42  1  0  0  0  0
 23 50  1  0  0  0  0
 24 43  1  0  0  0  0
 25 53  1  0  0  0  0
 26 72  1  0  0  0  0
 27 84  1  0  0  0  0
 28 85  1  0  0  0  0
 29 31  2  0  0  0  0
 29 84  1  0  0  0  0
 30 86  1  0  0  0  0
 31 87  1  0  0  0  0
 32 66  2  0  0  0  0
 33 67  1  0  0  0  0
 33 70  1  0  0  0  0
 34 75  1  0  0  0  0
 34 77  2  0  0  0  0
 35 71  1  0  0  0  0
 35 78  2  0  0  0  0
 36 51  1  0  0  0  0
 36 73  1  0  0  0  0
 36 79  2  0  0  0  0
 37 63  1  0  0  0  0
 37 68  1  0  0  0  0
 37 80  2  0  0  0  0
 38 60  1  0  0  0  0
 38 72  1  0  0  0  0
 38 81  2  0  0  0  0
 39 64  1  0  0  0  0
 39 74  1  0  0  0  0
 39 82  2  0  0  0  0
 40 69  1  0  0  0  0
 40 75  1  0  0  0  0
 40 83  2  0  0  0  0
 41 44  1  0  0  0  0
 42 51  1  0  0  0  0
 43 68  1  0  0  0  0
 44 46  1  0  0  0  0
 45 47  1  0  0  0  0
 45 48  1  0  0  0  0
 46 50  1  0  0  0  0
 47 52  1  0  0  0  0
 48 69  1  0  0  0  0
 49 52  1  0  0  0  0
 49 69  1  0  0  0  0
 50 73  1  0  0  0  0
 51 68  1  0  0  0  0
 52 67  1  0  0  0  0
 54 64  1  0  0  0  0
 55 65  1  0  0  0  0
 56 65  1  0  0  0  0
 57 65  1  0  0  0  0
 58 75  1  0  0  0  0
 59 76  1  0  0  0  0
 60 61  1  0  0  0  0
 61 62  1  0  0  0  0
 62 85  1  0  0  0  0
 63 65  1  0  0  0  0
 63 74  1  0  0  0  0
 64 76  1  0  0  0  0
 66 67  1  0  0  0  0
M  CHG  1  76   1
M  ISO  4  40 100  62 101  75 100  85 101
M  END
> <Batch ID>
0106

> <Smiles>
CNC(C)C(=O)NC(C(=O)N1Cc2cc([101O:1][101CH2:1]CCC(=O)Nc3ccc(C)c(C(=O)[100N:0](C)[100C:0](=O)N4CCCC(n5nc(-c6ccc(Oc7ccc(F)cc7F)cc6)c(C(N)=O)c5N)C4)c3)ccc2CC1C(=O)NC1CCCc2ccccc21)C(C)(C)C

> <Shape>
0.214

> <Color>
0.072

> <Negative vol penalty>
0.000

$$$$

  -OEChem-04052301143D

 86 94  0     1  0  0  0  0  0999 V2000
  -29.0939  -31.4852   21.8713 C   0  0  0  0  0  0  0  0  0  0  0  0
  -28.6578  -30.1648   21.9102 C   0  0  0  0  0  0  0  0  0  0  0  0
  -23.2833   -9.8221   19.9268 C   0  0  0  0  0  0  0  0  0  0  0  0
  -23.7480   -9.9637   22.2935 C   0  0  0  0  0  0  0  0  0  0  0  0
  -29.5415  -32.0352   20.6708 C   0  0  0  0  0  0  0  0  0  0  0  0
  -28.6679  -29.3938   20.7484 C   0  0  0  0  0  0  0  0  0  0  0  0
  -30.5272  -24.7465   21.5169 C   0  0  0  0  0  0  0  0  0  0  0  0
  -22.5382   -8.6629   20.1425 C   0  0  0  0  0  0  0  0  0  0  0  0
  -23.0029   -8.8045   22.5092 C   0  0  0  0  0  0  0  0  0  0  0  0
  -29.6832  -23.8146   22.1193 C   0  0  0  0  0  0  0  0  0  0  0  0
  -19.7419   -7.9495   22.7456 C   0  0  0  0  0  0  0  0  0  0  0  0
  -18.8445   -7.9471   23.8134 C   0  0  0  0  0  0  0  0  0  0  0  0
  -29.2006  -22.8623   19.9561 C   0  0  0  0  0  0  0  0  0  0  0  0
  -27.6919  -17.3218   18.1226 C   0  0  0  0  0  0  0  0  0  0  0  0
  -20.0236   -6.0833   24.8000 C   0  0  0  0  0  0  0  0  0  0  0  0
  -29.6320  -16.5860   19.2849 C   0  0  0  0  0  0  0  0  0  0  0  0
  -23.8883  -10.4725   21.0023 C   0  0  0  0  0  0  0  0  0  0  0  0
  -24.1896  -12.9970   20.7930 C   0  0  0  0  0  0  0  0  0  0  0  0
  -29.5663  -31.2676   19.4957 C   0  0  0  0  0  0  0  0  0  0  0  0
  -30.7061  -24.7502   20.1261 C   0  0  0  0  0  0  0  0  0  0  0  0
  -29.1150  -29.9344   19.5308 C   0  0  0  0  0  0  0  0  0  0  0  0
  -30.0495  -23.7936   19.3388 C   0  0  0  0  0  0  0  0  0  0  0  0
  -28.8284  -16.5217   18.1580 C   0  0  0  0  0  0  0  0  0  0  0  0
  -22.3979   -8.1541   21.4336 C   0  0  0  0  0  0  0  0  0  0  0  0
  -29.0174  -22.8741   21.3386 C   0  0  0  0  0  0  0  0  0  0  0  0
  -20.7801   -7.0188   22.7049 C   0  0  0  0  0  0  0  0  0  0  0  0
  -27.3977  -18.1502   19.1999 C   0  0  0  0  0  0  0  0  0  0  0  0
  -18.9854   -7.0140   24.8406 C   0  0  0  0  0  0  0  0  0  0  0  0
  -20.9210   -6.0857   23.7321 C   0  0  0  0  0  0  0  0  0  0  0  0
  -24.6586  -11.6697   20.7801 C   0  0  0  0  0  0  0  0  0  0  0  0
  -28.2652  -18.1414   20.2803 C   0  0  0  0  0  0  0  0  0  0  0  0
  -25.3029  -13.7572   20.5298 C   0  0  0  0  0  0  0  0  0  0  0  0
  -22.8660  -13.4980   21.0225 C   0  0  0  0  0  0  0  0  0  0  0  0
  -30.1290  -26.8336   17.7958 C   0  0  0  0  0  0  0  0  0  0  0  0
  -31.6681  -24.6328   15.9766 C   0  0  0  0  0  0  0  0  0  0  0  0
  -28.7021  -19.1259   22.5571 C   0  0  0  0  0  0  0  0  0  0  0  0
  -32.6160  -21.3830   15.5441 C   0  0  0  0  0  0  0  0  0  0  0  0
  -29.8572  -14.4388   17.2122 C   0  0  0  0  0  0  0  0  0  0  0  0
  -30.0142  -31.9200   18.2118 C   0  0  0  0  0  0  0  0  0  0  0  0
  -31.6409  -25.7451   19.4944 C   0  0  0  0  0  0  0  0  0  0  0  0
  -30.2234  -23.7424   17.8436 C   0  0  0  0  0  0  0  0  0  0  0  0
  -30.3455  -30.9223   17.1049 C   0  0  0  0  0  0  0  0  0  0  0  0
  -30.1995  -12.5467   20.3738 C   0  0  0  0  0  0  0  0  0  0  0  0
  -29.2533  -29.8629   16.9967 C   0  0  0  0  0  0  0  0  0  0  0  0
  -28.7539  -12.1884   20.7129 C   0  0  0  0  0  0  0  0  0  0  0  0
  -30.4102  -12.6871   18.8692 C   0  0  0  0  0  0  0  0  0  0  0  0
  -28.0292  -13.3035   18.5651 C   0  0  0  0  0  0  0  0  0  0  0  0
  -29.1342  -29.0585   18.2968 C   0  0  1  0  0  0  0  0  0  0  0  0
  -31.3487  -25.9844   18.0163 C   0  0  1  0  0  0  0  0  0  0  0  0
  -27.7818  -13.1960   20.0773 C   0  0  1  0  0  0  0  0  0  0  0  0
  -30.1442  -17.0830   15.3081 C   0  0  0  0  0  0  0  0  0  0  0  0
  -33.8317  -19.8821   13.9420 C   0  0  0  0  0  0  0  0  0  0  0  0
  -29.2480  -24.6601   14.1184 C   0  0  0  0  0  0  0  0  0  0  0  0
  -30.0791  -22.5205   13.1185 C   0  0  0  0  0  0  0  0  0  0  0  0
  -31.4588  -24.5920   12.9512 C   0  0  0  0  0  0  0  0  0  0  0  0
  -34.6546  -20.6779   17.5705 C   0  0  0  0  0  0  0  0  0  0  0  0
  -25.4699  -18.8571   18.0001 C   0  0  0  0  0  0  0  0  0  0  0  0
  -28.0310  -20.1358   23.4812 C   0  0  0  0  0  0  0  0  0  0  0  0
  -28.9978  -16.1730   15.7003 C   0  0  0  0  0  0  0  0  0  0  0  0
  -28.5097  -21.5620   23.2560 C   0  0  0  0  0  0  0  0  0  1  0  0
  -31.2477  -23.4202   15.1815 C   0  0  1  0  0  0  0  0  0  0  0  0
  -33.9521  -20.7640   15.1751 C   0  0  2  0  0  0  0  0  0  0  0  0
  -30.5034  -23.8002   13.8704 C   0  0  0  0  0  0  0  0  0  0  0  0
  -29.3788  -17.3781   20.3508 N   0  0  0  0  0  0  0  0  0  0  0  0
  -25.9678  -11.5879   20.5285 N   0  0  0  0  0  0  0  0  0  0  0  0
  -26.3310  -12.8734   20.3807 N   0  0  0  0  0  0  0  0  0  0  0  0
  -31.1430  -24.7402   17.2722 N   0  0  0  0  0  0  0  0  0  0  0  0
  -29.4395  -13.6033   18.2684 N   0  0  0  0  0  0  0  0  0  0  0  0
  -25.4929  -15.0886   20.4136 N   0  0  0  0  0  0  0  0  0  0  0  0
  -21.8389  -12.5794   21.2783 N   0  0  0  0  0  0  0  0  0  0  0  0
  -27.9714  -18.9813   21.3808 N   0  0  0  0  0  0  0  0  0  0  0  0
  -30.1979  -28.0813   18.3858 N   0  0  0  0  0  0  0  0  0  0  0  0
  -32.4556  -22.6286   14.9750 N   0  0  0  0  0  0  0  0  0  0  0  0
  -29.1606  -15.6523   17.0559 N   0  0  0  0  0  0  0  0  0  0  0  0
  -34.4658  -19.9319   16.2997 N   0  3  0  0  0  0  0  0  0  0  0  0
  -22.5987  -14.7230   20.9850 O   0  0  0  0  0  0  0  0  0  0  0  0
  -29.1950  -26.3903   17.1379 O   0  0  0  0  0  0  0  0  0  0  0  0
  -32.4397  -25.4507   15.4694 O   0  0  0  0  0  0  0  0  0  0  0  0
  -29.7415  -18.5513   22.8630 O   0  0  0  0  0  0  0  0  0  0  0  0
  -31.7951  -20.8164   16.2622 O   0  0  0  0  0  0  0  0  0  0  0  0
  -30.7522  -14.1030   16.4268 O   0  0  0  0  0  0  0  0  0  0  0  0
  -21.6707   -7.0230   21.6445 O   0  0  0  0  0  0  0  0  0  0  0  0
  -26.2884  -18.9337   19.1677 O   0  0  0  0  0  0  0  0  0  0  0  0
  -28.1925  -21.9638   21.9240 O   0  0  0  0  0  0  0  0  0  1  0  0
  -18.1245   -7.0127   25.8668 F   0  0  0  0  0  0  0  0  0  0  0  0
  -21.9171   -5.1899   23.6991 F   0  0  0  0  0  0  0  0  0  0  0  0
  1  2  1  0  0  0  0
  1  5  2  0  0  0  0
  2  6  2  0  0  0  0
  3  8  2  0  0  0  0
  3 17  1  0  0  0  0
  4  9  1  0  0  0  0
  4 17  2  0  0  0  0
  5 19  1  0  0  0  0
  6 21  1  0  0  0  0
  7 10  2  0  0  0  0
  7 20  1  0  0  0  0
  8 24  1  0  0  0  0
  9 24  2  0  0  0  0
 10 25  1  0  0  0  0
 11 12  2  0  0  0  0
 11 26  1  0  0  0  0
 12 28  1  0  0  0  0
 13 22  1  0  0  0  0
 13 25  2  0  0  0  0
 14 23  2  0  0  0  0
 14 27  1  0  0  0  0
 15 28  2  0  0  0  0
 15 29  1  0  0  0  0
 16 23  1  0  0  0  0
 16 64  2  0  0  0  0
 17 30  1  0  0  0  0
 18 30  1  0  0  0  0
 18 32  2  0  0  0  0
 18 33  1  0  0  0  0
 19 21  2  0  0  0  0
 19 39  1  0  0  0  0
 20 22  2  0  0  0  0
 20 40  1  0  0  0  0
 21 48  1  0  0  0  0
 22 41  1  0  0  0  0
 23 74  1  0  0  0  0
 24 82  1  0  0  0  0
 25 84  1  0  0  0  0
 26 29  2  0  0  0  0
 26 82  1  0  0  0  0
 27 31  2  0  0  0  0
 27 83  1  0  0  0  0
 28 85  1  0  0  0  0
 29 86  1  0  0  0  0
 30 65  2  0  0  0  0
 31 64  1  0  0  0  0
 31 71  1  0  0  0  0
 32 66  1  0  0  0  0
 32 69  1  0  0  0  0
 33 70  1  0  0  0  0
 33 76  2  0  0  0  0
 34 49  1  0  0  0  0
 34 72  1  0  0  0  0
 34 77  2  0  0  0  0
 35 61  1  0  0  0  0
 35 67  1  0  0  0  0
 35 78  2  0  0  0  0
 36 58  1  0  0  0  0
 36 71  1  0  0  0  0
 36 79  2  0  0  0  0
 37 62  1  0  0  0  0
 37 73  1  0  0  0  0
 37 80  2  0  0  0  0
 38 68  1  0  0  0  0
 38 74  1  0  0  0  0
 38 81  2  0  0  0  0
 39 42  1  0  0  0  0
 40 49  1  0  0  0  0
 41 67  1  0  0  0  0
 42 44  1  0  0  0  0
 43 45  1  0  0  0  0
 43 46  1  0  0  0  0
 44 48  1  0  0  0  0
 45 50  1  0  0  0  0
 46 68  1  0  0  0  0
 47 50  1  0  0  0  0
 47 68  1  0  0  0  0
 48 72  1  0  0  0  0
 49 67  1  0  0  0  0
 50 66  1  0  0  0  0
 51 59  1  0  0  0  0
 52 62  1  0  0  0  0
 53 63  1  0  0  0  0
 54 63  1  0  0  0  0
 55 63  1  0  0  0  0
 56 75  1  0  0  0  0
 57 83  1  0  0  0  0
 58 60  1  0  0  0  0
 59 74  1  0  0  0  0
 60 84  1  0  0  0  0
 61 63  1  0  0  0  0
 61 73  1  0  0  0  0
 62 75  1  0  0  0  0
 65 66  1  0  0  0  0
M  CHG  1  75   1
M  ISO  4  38 100  60 101  74 100  84 101
M  END
> <Batch ID>
0106

> <Smiles>
CC[100N:0](c1cnc(NC(=O)C[101CH2:1][101O:1]c2ccc3c(c2)CN(C(=O)C(NC(=O)C(C)NC)C(C)(C)C)C(C(=O)NC2CCCc4ccccc42)C3)c(OC)c1)[100C:0](=O)N1CCCC(n2nc(-c3ccc(Oc4ccc(F)cc4F)cc3)c(C(N)=O)c2N)C1

> <Shape>
0.238

> <Color>
0.176

> <Negative vol penalty>
0.000

$$$$

  -OEChem-04052301143D

 85 93  0     1  0  0  0  0  0999 V2000
  -20.7529  -26.9450   26.6837 C   0  0  0  0  0  0  0  0  0  0  0  0
  -21.5176  -26.3931   25.6609 C   0  0  0  0  0  0  0  0  0  0  0  0
  -23.0757   -9.9457   19.9246 C   0  0  0  0  0  0  0  0  0  0  0  0
  -23.8712   -9.9216   22.2057 C   0  0  0  0  0  0  0  0  0  0  0  0
  -19.8752  -27.9928   26.4088 C   0  0  0  0  0  0  0  0  0  0  0  0
  -21.4041  -26.8881   24.3622 C   0  0  0  0  0  0  0  0  0  0  0  0
  -25.9039  -27.5473   22.1345 C   0  0  0  0  0  0  0  0  0  0  0  0
  -22.3411   -8.7854   20.1685 C   0  0  0  0  0  0  0  0  0  0  0  0
  -23.1365   -8.7613   22.4497 C   0  0  0  0  0  0  0  0  0  0  0  0
  -26.5411  -26.4110   21.6380 C   0  0  0  0  0  0  0  0  0  0  0  0
  -19.9218   -7.9392   23.0901 C   0  0  0  0  0  0  0  0  0  0  0  0
  -19.1833   -7.8780   24.2718 C   0  0  0  0  0  0  0  0  0  0  0  0
  -29.7472  -17.4439   20.0294 C   0  0  0  0  0  0  0  0  0  0  0  0
  -25.7758  -26.9596   19.4171 C   0  0  0  0  0  0  0  0  0  0  0  0
  -27.6457  -18.4908   21.5363 C   0  0  0  0  0  0  0  0  0  0  0  0
  -20.4448   -5.9356   24.9594 C   0  0  0  0  0  0  0  0  0  0  0  0
  -23.8409  -10.5138   20.9432 C   0  0  0  0  0  0  0  0  0  0  0  0
  -29.3951  -16.8507   21.2417 C   0  0  0  0  0  0  0  0  0  0  0  0
  -24.1694  -13.0421   20.8562 C   0  0  0  0  0  0  0  0  0  0  0  0
  -19.7580  -28.5073   25.1079 C   0  0  0  0  0  0  0  0  0  0  0  0
  -25.1874  -28.3938   21.2762 C   0  0  0  0  0  0  0  0  0  0  0  0
  -20.5230  -27.9429   24.0694 C   0  0  0  0  0  0  0  0  0  0  0  0
  -25.1325  -28.1074   19.9047 C   0  0  0  0  0  0  0  0  0  0  0  0
  -29.0486  -18.5607   19.5706 C   0  0  0  0  0  0  0  0  0  0  0  0
  -28.3444  -17.3741   21.9951 C   0  0  0  0  0  0  0  0  0  0  0  0
  -22.3714   -8.1932   21.4311 C   0  0  0  0  0  0  0  0  0  0  0  0
  -26.4747  -26.1154   20.2796 C   0  0  0  0  0  0  0  0  0  0  0  0
  -20.9217   -6.9985   22.8429 C   0  0  0  0  0  0  0  0  0  0  0  0
  -27.9979  -19.0841   20.3240 C   0  0  0  0  0  0  0  0  0  0  0  0
  -19.4449   -6.8762   25.2065 C   0  0  0  0  0  0  0  0  0  0  0  0
  -21.1832   -5.9967   23.7776 C   0  0  0  0  0  0  0  0  0  0  0  0
  -24.6005  -11.7121   20.6916 C   0  0  0  0  0  0  0  0  0  0  0  0
  -25.2523  -13.8021   20.4874 C   0  0  0  0  0  0  0  0  0  0  0  0
  -30.1460  -15.6864   21.6947 C   0  0  0  0  0  0  0  0  0  0  0  0
  -22.9033  -13.5455   21.3025 C   0  0  0  0  0  0  0  0  0  0  0  0
  -30.7607  -14.7453   20.7305 C   0  0  0  0  0  0  0  0  0  0  0  0
  -22.1515  -29.3070   21.0461 C   0  0  0  0  0  0  0  0  0  0  0  0
  -27.2020  -22.5901   19.8937 C   0  0  0  0  0  0  0  0  0  0  0  0
  -23.3234  -31.2718   18.7464 C   0  0  0  0  0  0  0  0  0  0  0  0
  -25.7685  -31.9130   16.4536 C   0  0  0  0  0  0  0  0  0  0  0  0
  -18.7610  -29.6092   24.8501 C   0  0  0  0  0  0  0  0  0  0  0  0
  -24.5280  -29.6301   21.8232 C   0  0  0  0  0  0  0  0  0  0  0  0
  -24.3934  -28.9950   18.9382 C   0  0  0  0  0  0  0  0  0  0  0  0
  -18.9754  -30.3256   23.5193 C   0  0  0  0  0  0  0  0  0  0  0  0
  -29.5618  -12.5174   18.1897 C   0  0  0  0  0  0  0  0  0  0  0  0
  -19.1927  -29.3147   22.3978 C   0  0  0  0  0  0  0  0  0  0  0  0
  -28.1419  -12.1885   18.6499 C   0  0  0  0  0  0  0  0  0  0  0  0
  -30.5035  -12.7045   19.3749 C   0  0  0  0  0  0  0  0  0  0  0  0
  -28.6160  -13.4062   20.8219 C   0  0  0  0  0  0  0  0  0  0  0  0
  -20.4462  -28.4690   22.6525 C   0  0  1  0  0  0  0  0  0  0  0  0
  -23.3951  -30.1436   20.9399 C   0  0  1  0  0  0  0  0  0  0  0  0
  -27.6298  -13.2373   19.6531 C   0  0  2  0  0  0  0  0  0  0  0  0
  -26.4333  -33.5756   14.6953 C   0  0  0  0  0  0  0  0  0  0  0  0
  -21.2148  -30.1213   16.8648 C   0  0  0  0  0  0  0  0  0  0  0  0
  -22.5067  -31.0773   14.9451 C   0  0  0  0  0  0  0  0  0  0  0  0
  -21.5438  -32.5933   16.6763 C   0  0  0  0  0  0  0  0  0  0  0  0
  -28.2864  -32.5712   17.8628 C   0  0  0  0  0  0  0  0  0  0  0  0
  -27.2144  -23.8895   20.6725 C   0  0  0  0  0  0  0  0  0  1  0  0
  -27.3043  -21.3242   20.7196 C   0  0  0  0  0  0  0  0  0  0  0  0
  -23.5450  -31.1616   17.2572 C   0  0  1  0  0  0  0  0  0  0  0  0
  -26.5649  -33.1705   16.1553 C   0  0  2  0  0  0  0  0  0  0  0  0
  -22.2150  -31.2204   16.4541 C   0  0  0  0  0  0  0  0  0  0  0  0
  -25.8591  -11.6286   20.2524 N   0  0  0  0  0  0  0  0  0  0  0  0
  -30.3265  -15.3996   22.9539 N   0  0  0  0  0  0  0  0  0  0  0  0
  -26.2281  -12.9157   20.1377 N   0  0  0  0  0  0  0  0  0  0  0  0
  -29.9704  -13.6791   20.3248 N   0  0  0  0  0  0  0  0  0  0  0  0
  -23.7597  -30.1886   19.5224 N   0  0  0  0  0  0  0  0  0  0  0  0
  -29.4157  -19.1514   18.3417 N   0  0  0  0  0  0  0  0  0  0  0  0
  -27.9729  -16.7888   23.2260 N   0  0  0  0  0  0  0  0  0  0  0  0
  -25.4556  -15.1355   20.4314 N   0  0  0  0  0  0  0  0  0  0  0  0
  -21.9008  -12.6265   21.6416 N   0  0  0  0  0  0  0  0  0  0  0  0
  -21.6385  -29.2217   22.3263 N   0  0  0  0  0  0  0  0  0  0  0  0
  -24.5005  -32.2074   16.9082 N   0  0  0  0  0  0  0  0  0  0  0  0
  -28.0085  -32.9525   16.4542 N   0  3  0  0  0  0  0  0  0  0  0  0
  -22.6624  -14.7739   21.3822 O   0  0  0  0  0  0  0  0  0  0  0  0
  -31.9072  -15.0102   20.3930 O   0  0  0  0  0  0  0  0  0  0  0  0
  -21.6907  -28.7793   20.0407 O   0  0  0  0  0  0  0  0  0  0  0  0
  -27.1149  -22.5647   18.6670 O   0  0  0  0  0  0  0  0  0  0  0  0
  -22.7895  -32.2849   19.2050 O   0  0  0  0  0  0  0  0  0  0  0  0
  -26.2244  -30.7827   16.2954 O   0  0  0  0  0  0  0  0  0  0  0  0
  -21.6544   -7.0611   21.6695 O   0  0  0  0  0  0  0  0  0  0  0  0
  -27.0953  -25.0066   19.7925 O   0  0  0  0  0  0  0  0  0  1  0  0
  -27.2961  -20.1830   19.8881 O   0  0  0  0  0  0  0  0  0  0  0  0
  -18.7367   -6.8185   26.3420 F   0  0  0  0  0  0  0  0  0  0  0  0
  -22.1434   -5.0910   23.5463 F   0  0  0  0  0  0  0  0  0  0  0  0
  1  2  1  0  0  0  0
  1  5  2  0  0  0  0
  2  6  2  0  0  0  0
  3  8  2  0  0  0  0
  3 17  1  0  0  0  0
  4  9  1  0  0  0  0
  4 17  2  0  0  0  0
  5 20  1  0  0  0  0
  6 22  1  0  0  0  0
  7 10  2  0  0  0  0
  7 21  1  0  0  0  0
  8 26  1  0  0  0  0
  9 26  2  0  0  0  0
 10 27  1  0  0  0  0
 11 12  2  0  0  0  0
 11 28  1  0  0  0  0
 12 30  1  0  0  0  0
 13 18  2  0  0  0  0
 13 24  1  0  0  0  0
 14 23  1  0  0  0  0
 14 27  2  0  0  0  0
 15 25  2  0  0  0  0
 15 29  1  0  0  0  0
 16 30  2  0  0  0  0
 16 31  1  0  0  0  0
 17 32  1  0  0  0  0
 18 25  1  0  0  0  0
 18 34  1  0  0  0  0
 19 32  1  0  0  0  0
 19 33  2  0  0  0  0
 19 35  1  0  0  0  0
 20 22  2  0  0  0  0
 20 41  1  0  0  0  0
 21 23  2  0  0  0  0
 21 42  1  0  0  0  0
 22 50  1  0  0  0  0
 23 43  1  0  0  0  0
 24 29  2  0  0  0  0
 24 68  1  0  0  0  0
 25 69  1  0  0  0  0
 26 81  1  0  0  0  0
 27 82  1  0  0  0  0
 28 31  2  0  0  0  0
 28 81  1  0  0  0  0
 29 83  1  0  0  0  0
 30 84  1  0  0  0  0
 31 85  1  0  0  0  0
 32 63  2  0  0  0  0
 33 65  1  0  0  0  0
 33 70  1  0  0  0  0
 34 36  1  0  0  0  0
 34 64  2  0  0  0  0
 35 71  1  0  0  0  0
 35 75  2  0  0  0  0
 36 66  1  0  0  0  0
 36 76  2  0  0  0  0
 37 51  1  0  0  0  0
 37 72  1  0  0  0  0
 37 77  2  0  0  0  0
 38 58  1  0  0  0  0
 38 59  1  0  0  0  0
 38 78  2  0  0  0  0
 39 60  1  0  0  0  0
 39 67  1  0  0  0  0
 39 79  2  0  0  0  0
 40 61  1  0  0  0  0
 40 73  1  0  0  0  0
 40 80  2  0  0  0  0
 41 44  1  0  0  0  0
 42 51  1  0  0  0  0
 43 67  1  0  0  0  0
 44 46  1  0  0  0  0
 45 47  1  0  0  0  0
 45 48  1  0  0  0  0
 46 50  1  0  0  0  0
 47 52  1  0  0  0  0
 48 66  1  0  0  0  0
 49 52  1  0  0  0  0
 49 66  1  0  0  0  0
 50 72  1  0  0  0  0
 51 67  1  0  0  0  0
 52 65  1  0  0  0  0
 53 61  1  0  0  0  0
 54 62  1  0  0  0  0
 55 62  1  0  0  0  0
 56 62  1  0  0  0  0
 57 74  1  0  0  0  0
 58 82  1  0  0  0  0
 59 83  1  0  0  0  0
 60 62  1  0  0  0  0
 60 73  1  0  0  0  0
 61 74  1  0  0  0  0
 63 65  1  0  0  0  0
M  CHG  1  74   1
M  ISO  4  34 100  36 100  58 101  82 101
M  END
> <Batch ID>
0106

> <Smiles>
CNC(C)C(=O)NC(C(=O)N1Cc2cc([101O:1][101CH2:1]C(=O)COc3cc(N)c([100C:0](=N)[100C:0](=O)N4CCCC(n5nc(-c6ccc(Oc7ccc(F)cc7F)cc6)c(C(N)=O)c5N)C4)cc3N)ccc2CC1C(=O)NC1CCCc2ccccc21)C(C)(C)C

> <Shape>
0.324

> <Color>
0.207

> <Negative vol penalty>
0.000

$$$$

  -OEChem-04052301143D

 86 94  0     1  0  0  0  0  0999 V2000
  -17.9747  -25.1104   22.2969 C   0  0  0  0  0  0  0  0  0  0  0  0
  -19.2709  -25.0828   21.7923 C   0  0  0  0  0  0  0  0  0  0  0  0
  -22.6465  -12.0986   19.3131 C   0  0  0  0  0  0  0  0  0  0  0  0
  -22.8772  -10.7323   21.2923 C   0  0  0  0  0  0  0  0  0  0  0  0
  -17.3471  -26.3321   22.5367 C   0  0  0  0  0  0  0  0  0  0  0  0
  -19.9398  -26.2770   21.5262 C   0  0  0  0  0  0  0  0  0  0  0  0
  -24.7207  -26.2393   23.1956 C   0  0  0  0  0  0  0  0  0  0  0  0
  -21.4335  -11.4739   19.0232 C   0  0  0  0  0  0  0  0  0  0  0  0
  -21.6642  -10.1076   21.0025 C   0  0  0  0  0  0  0  0  0  0  0  0
  -25.6582  -25.5512   22.4266 C   0  0  0  0  0  0  0  0  0  0  0  0
  -18.8056   -7.9010   20.5909 C   0  0  0  0  0  0  0  0  0  0  0  0
  -18.7477   -6.5122   20.7066 C   0  0  0  0  0  0  0  0  0  0  0  0
  -26.3984  -27.6391   21.4715 C   0  0  0  0  0  0  0  0  0  0  0  0
  -29.4907  -19.3048   19.8525 C   0  0  0  0  0  0  0  0  0  0  0  0
  -31.1582  -19.9739   18.2374 C   0  0  0  0  0  0  0  0  0  0  0  0
  -20.4823   -6.3008   19.0381 C   0  0  0  0  0  0  0  0  0  0  0  0
  -23.3684  -11.7278   20.4476 C   0  0  0  0  0  0  0  0  0  0  0  0
  -30.9069  -17.6424   18.8190 C   0  0  0  0  0  0  0  0  0  0  0  0
  -24.8179  -13.5301   21.5239 C   0  0  0  0  0  0  0  0  0  0  0  0
  -18.0123  -27.5419   22.2825 C   0  0  0  0  0  0  0  0  0  0  0  0
  -24.6074  -27.6337   23.1001 C   0  0  0  0  0  0  0  0  0  0  0  0
  -19.3201  -27.5160   21.7616 C   0  0  0  0  0  0  0  0  0  0  0  0
  -25.4604  -28.3428   22.2423 C   0  0  0  0  0  0  0  0  0  0  0  0
  -30.1303  -20.3049   19.1203 C   0  0  0  0  0  0  0  0  0  0  0  0
  -29.8790  -17.9735   19.7019 C   0  0  0  0  0  0  0  0  0  0  0  0
  -20.9424  -10.4784   19.8679 C   0  0  0  0  0  0  0  0  0  0  0  0
  -26.4953  -26.2507   21.5623 C   0  0  0  0  0  0  0  0  0  0  0  0
  -19.7018   -8.4898   19.6987 C   0  0  0  0  0  0  0  0  0  0  0  0
  -31.5465  -18.6426   18.0868 C   0  0  0  0  0  0  0  0  0  0  0  0
  -19.5860   -5.7121   19.9303 C   0  0  0  0  0  0  0  0  0  0  0  0
  -20.5401   -7.6897   18.9224 C   0  0  0  0  0  0  0  0  0  0  0  0
  -24.6217  -12.3724   20.7473 C   0  0  0  0  0  0  0  0  0  0  0  0
  -26.1766  -13.7302   21.5046 C   0  0  0  0  0  0  0  0  0  0  0  0
  -31.3254  -16.2393   18.6522 C   0  0  0  0  0  0  0  0  0  0  0  0
  -23.8579  -14.3511   22.2020 C   0  0  0  0  0  0  0  0  0  0  0  0
  -22.3078  -29.6421   22.2159 C   0  0  0  0  0  0  0  0  0  0  0  0
  -28.5397  -23.5670   20.0747 C   0  0  0  0  0  0  0  0  0  0  0  0
  -24.4183  -31.8889   23.2259 C   0  0  0  0  0  0  0  0  0  0  0  0
  -27.6618  -32.7400   23.8596 C   0  0  0  0  0  0  0  0  0  0  0  0
  -30.9600  -13.9683   18.6383 C   0  0  0  0  0  0  0  0  0  0  0  0
  -17.2757  -28.8376   22.5130 C   0  0  0  0  0  0  0  0  0  0  0  0
  -23.6092  -28.3639   23.9561 C   0  0  0  0  0  0  0  0  0  0  0  0
  -25.3927  -29.8422   22.1181 C   0  0  0  0  0  0  0  0  0  0  0  0
  -18.1905  -30.0588   22.5573 C   0  0  0  0  0  0  0  0  0  0  0  0
  -29.9336  -10.7538   19.9107 C   0  0  0  0  0  0  0  0  0  0  0  0
  -19.1824  -30.0251   21.3989 C   0  0  0  0  0  0  0  0  0  0  0  0
  -28.4652  -10.9765   20.2724 C   0  0  0  0  0  0  0  0  0  0  0  0
  -30.3334  -11.5538   18.6747 C   0  0  0  0  0  0  0  0  0  0  0  0
  -28.5824  -13.2444   19.1486 C   0  0  0  0  0  0  0  0  0  0  0  0
  -20.0877  -28.7902   21.4836 C   0  0  1  0  0  0  0  0  0  0  0  0
  -23.2311  -29.7324   23.3979 C   0  0  1  0  0  0  0  0  0  0  0  0
  -28.1511  -12.4769   20.4101 C   0  0  1  0  0  0  0  0  0  0  0  0
  -29.0785  -34.6586   24.6405 C   0  0  0  0  0  0  0  0  0  0  0  0
  -24.1151  -33.2203   20.4973 C   0  0  0  0  0  0  0  0  0  0  0  0
  -26.1998  -34.5208   20.9778 C   0  0  0  0  0  0  0  0  0  0  0  0
  -24.1913  -34.8064   22.4293 C   0  0  0  0  0  0  0  0  0  0  0  0
  -28.6352  -31.2183   26.2039 C   0  0  0  0  0  0  0  0  0  0  0  0
  -32.1831  -18.0576   15.8713 C   0  0  0  0  0  0  0  0  0  0  0  0
  -28.6948  -22.0632   20.1564 C   0  0  0  0  0  0  0  0  0  0  0  0
  -27.4594  -24.1628   20.9564 C   0  0  0  0  0  0  0  0  0  1  0  0
  -25.5368  -32.6714   22.5813 C   0  0  1  0  0  0  0  0  0  0  0  0
  -28.3115  -33.4126   25.0554 C   0  0  2  0  0  0  0  0  0  0  0  0
  -25.0110  -33.7763   21.6221 C   0  0  0  0  0  0  0  0  0  0  0  0
  -25.7643  -11.8722   20.2694 N   0  0  0  0  0  0  0  0  0  0  0  0
  -30.4973  -15.2590   18.8093 N   0  0  0  0  0  0  0  0  0  0  0  0
  -26.6915  -12.7197   20.7469 N   0  0  0  0  0  0  0  0  0  0  0  0
  -24.3960  -30.5103   22.9712 N   0  0  0  0  0  0  0  0  0  0  0  0
  -29.9893  -12.9679   18.8292 N   0  0  0  0  0  0  0  0  0  0  0  0
  -29.2174  -16.9769   20.4537 N   0  0  0  0  0  0  0  0  0  0  0  0
  -26.9692  -14.6702   22.0620 N   0  0  0  0  0  0  0  0  0  0  0  0
  -22.5029  -14.0025   22.1184 N   0  0  0  0  0  0  0  0  0  0  0  0
  -29.7441  -21.6292   19.2700 N   0  0  0  0  0  0  0  0  0  0  0  0
  -21.1196  -28.9874   22.4789 N   0  0  0  0  0  0  0  0  0  0  0  0
  -26.3660  -33.1723   23.6722 N   0  0  0  0  0  0  0  0  0  0  0  0
  -29.2603  -32.4774   25.7235 N   0  3  0  0  0  0  0  0  0  0  0  0
  -24.1901  -15.3732   22.8489 O   0  0  0  0  0  0  0  0  0  0  0  0
  -22.6475  -30.1316   21.1451 O   0  0  0  0  0  0  0  0  0  0  0  0
  -29.2380  -24.2692   19.3447 O   0  0  0  0  0  0  0  0  0  0  0  0
  -23.5988  -32.4779   23.9352 O   0  0  0  0  0  0  0  0  0  0  0  0
  -28.2467  -31.9166   23.1594 O   0  0  0  0  0  0  0  0  0  0  0  0
  -32.1229  -13.6891   18.3371 O   0  0  0  0  0  0  0  0  0  0  0  0
  -19.7587   -9.8687   19.5855 O   0  0  0  0  0  0  0  0  0  0  0  0
  -32.5535  -18.3421   17.2185 O   0  0  0  0  0  0  0  0  0  0  0  0
  -27.4108  -25.5815   20.8101 O   0  0  0  0  0  0  0  0  0  1  0  0
  -19.5314   -4.3784   20.0426 F   0  0  0  0  0  0  0  0  0  0  0  0
  -21.4040   -8.2496   18.0644 F   0  0  0  0  0  0  0  0  0  0  0  0
  1  2  1  0  0  0  0
  1  5  2  0  0  0  0
  2  6  2  0  0  0  0
  3  8  2  0  0  0  0
  3 17  1  0  0  0  0
  4  9  1  0  0  0  0
  4 17  2  0  0  0  0
  5 20  1  0  0  0  0
  6 22  1  0  0  0  0
  7 10  2  0  0  0  0
  7 21  1  0  0  0  0
  8 26  1  0  0  0  0
  9 26  2  0  0  0  0
 10 27  1  0  0  0  0
 11 12  2  0  0  0  0
 11 28  1  0  0  0  0
 12 30  1  0  0  0  0
 13 23  1  0  0  0  0
 13 27  2  0  0  0  0
 14 24  1  0  0  0  0
 14 25  2  0  0  0  0
 15 24  2  0  0  0  0
 15 29  1  0  0  0  0
 16 30  2  0  0  0  0
 16 31  1  0  0  0  0
 17 32  1  0  0  0  0
 18 25  1  0  0  0  0
 18 29  2  0  0  0  0
 18 34  1  0  0  0  0
 19 32  1  0  0  0  0
 19 33  2  0  0  0  0
 19 35  1  0  0  0  0
 20 22  2  0  0  0  0
 20 41  1  0  0  0  0
 21 23  2  0  0  0  0
 21 42  1  0  0  0  0
 22 50  1  0  0  0  0
 23 43  1  0  0  0  0
 24 72  1  0  0  0  0
 25 69  1  0  0  0  0
 26 82  1  0  0  0  0
 27 84  1  0  0  0  0
 28 31  2  0  0  0  0
 28 82  1  0  0  0  0
 29 83  1  0  0  0  0
 30 85  1  0  0  0  0
 31 86  1  0  0  0  0
 32 64  2  0  0  0  0
 33 66  1  0  0  0  0
 33 70  1  0  0  0  0
 34 65  2  0  0  0  0
 35 71  1  0  0  0  0
 35 76  2  0  0  0  0
 36 51  1  0  0  0  0
 36 73  1  0  0  0  0
 36 77  2  0  0  0  0
 37 59  1  0  0  0  0
 37 60  1  0  0  0  0
 37 78  2  0  0  0  0
 38 61  1  0  0  0  0
 38 67  1  0  0  0  0
 38 79  2  0  0  0  0
 39 62  1  0  0  0  0
 39 74  1  0  0  0  0
 39 80  2  0  0  0  0
 40 65  1  0  0  0  0
 40 68  1  0  0  0  0
 40 81  2  0  0  0  0
 41 44  1  0  0  0  0
 42 51  1  0  0  0  0
 43 67  1  0  0  0  0
 44 46  1  0  0  0  0
 45 47  1  0  0  0  0
 45 48  1  0  0  0  0
 46 50  1  0  0  0  0
 47 52  1  0  0  0  0
 48 68  1  0  0  0  0
 49 52  1  0  0  0  0
 49 68  1  0  0  0  0
 50 73  1  0  0  0  0
 51 67  1  0  0  0  0
 52 66  1  0  0  0  0
 53 62  1  0  0  0  0
 54 63  1  0  0  0  0
 55 63  1  0  0  0  0
 56 63  1  0  0  0  0
 57 75  1  0  0  0  0
 58 83  1  0  0  0  0
 59 72  1  0  0  0  0
 60 84  1  0  0  0  0
 61 63  1  0  0  0  0
 61 74  1  0  0  0  0
 62 75  1  0  0  0  0
 64 66  1  0  0  0  0
M  CHG  1  75   1
M  ISO  4  40 100  60 101  65 100  84 101
M  END
> <Batch ID>
0106

> <Smiles>
CNC(C)C(=O)NC(C(=O)N1Cc2cc([101O:1][101CH2:1]C(=O)CNc3cc(N)c(C=[100N:0][100C:0](=O)N4CCCC(n5nc(-c6ccc(Oc7ccc(F)cc7F)cc6)c(C(N)=O)c5N)C4)c(OC)c3)ccc2CC1C(=O)NC1CCCc2ccccc21)C(C)(C)C

> <Shape>
0.286

> <Color>
0.089

> <Negative vol penalty>
0.000

$$$$

  -OEChem-04052301143D

 90 98  0     1  0  0  0  0  0999 V2000
  -28.7227  -27.5729   14.4743 C   0  0  0  0  0  0  0  0  0  0  0  0
  -27.3666  -27.7542   14.7263 C   0  0  0  0  0  0  0  0  0  0  0  0
  -23.4647   -9.9648   22.3047 C   0  0  0  0  0  0  0  0  0  0  0  0
  -22.6628   -9.9668   20.0257 C   0  0  0  0  0  0  0  0  0  0  0  0
  -29.6040  -27.3543   15.5323 C   0  0  0  0  0  0  0  0  0  0  0  0
  -26.8909  -27.7160   16.0365 C   0  0  0  0  0  0  0  0  0  0  0  0
  -21.8494  -30.5970   20.2317 C   0  0  0  0  0  0  0  0  0  0  0  0
  -23.0863   -8.6288   22.4367 C   0  0  0  0  0  0  0  0  0  0  0  0
  -22.2844   -8.6307   20.1577 C   0  0  0  0  0  0  0  0  0  0  0  0
  -20.8307  -30.2199   21.1056 C   0  0  0  0  0  0  0  0  0  0  0  0
  -20.2376   -6.8878   22.9642 C   0  0  0  0  0  0  0  0  0  0  0  0
  -19.5617   -6.5183   24.1270 C   0  0  0  0  0  0  0  0  0  0  0  0
  -22.4575  -29.9141   22.8604 C   0  0  0  0  0  0  0  0  0  0  0  0
  -19.8340  -22.2844   19.6908 C   0  0  0  0  0  0  0  0  0  0  0  0
  -21.1072  -23.7305   21.7083 C   0  0  0  0  0  0  0  0  0  0  0  0
  -21.3245   -4.9524   24.6540 C   0  0  0  0  0  0  0  0  0  0  0  0
  -23.2529  -10.6339   21.0992 C   0  0  0  0  0  0  0  0  0  0  0  0
  -24.8872  -12.5065   20.5248 C   0  0  0  0  0  0  0  0  0  0  0  0
  -29.1403  -27.3230   16.8569 C   0  0  0  0  0  0  0  0  0  0  0  0
  -23.1834  -30.6251   20.6632 C   0  0  0  0  0  0  0  0  0  0  0  0
  -27.7666  -27.4954   17.1131 C   0  0  0  0  0  0  0  0  0  0  0  0
  -23.4910  -30.2944   21.9907 C   0  0  0  0  0  0  0  0  0  0  0  0
  -19.1563  -23.3127   20.3457 C   0  0  0  0  0  0  0  0  0  0  0  0
  -21.1482  -21.9791   20.0447 C   0  0  0  0  0  0  0  0  0  0  0  0
  -19.7929  -24.0357   21.3545 C   0  0  0  0  0  0  0  0  0  0  0  0
  -22.4962   -7.9617   21.3632 C   0  0  0  0  0  0  0  0  0  0  0  0
  -21.1350  -29.8756   22.4194 C   0  0  0  0  0  0  0  0  0  0  0  0
  -21.4569   -6.2895   22.6461 C   0  0  0  0  0  0  0  0  0  0  0  0
  -20.1052   -5.5506   24.9720 C   0  0  0  0  0  0  0  0  0  0  0  0
  -21.7848  -22.7021   21.0534 C   0  0  0  0  0  0  0  0  0  0  0  0
  -22.0003   -5.3218   23.4910 C   0  0  0  0  0  0  0  0  0  0  0  0
  -23.6430  -12.0141   20.9623 C   0  0  0  0  0  0  0  0  0  0  0  0
  -24.7520  -13.8725   20.5726 C   0  0  0  0  0  0  0  0  0  0  0  0
  -26.0602  -11.7929   20.1119 C   0  0  0  0  0  0  0  0  0  0  0  0
  -25.8424  -29.0946   19.8321 C   0  0  0  0  0  0  0  0  0  0  0  0
  -27.2179  -31.1518   21.9294 C   0  0  0  0  0  0  0  0  0  0  0  0
  -26.8648  -33.1855   24.6472 C   0  0  0  0  0  0  0  0  0  0  0  0
  -22.0614  -18.4388   19.6398 C   0  0  0  0  0  0  0  0  0  0  0  0
  -30.1239  -27.0365   17.9638 C   0  0  0  0  0  0  0  0  0  0  0  0
  -24.2676  -31.0599   19.7157 C   0  0  0  0  0  0  0  0  0  0  0  0
  -24.9047  -30.3279   22.5091 C   0  0  0  0  0  0  0  0  0  0  0  0
  -29.5954  -27.3836   19.3532 C   0  0  0  0  0  0  0  0  0  0  0  0
  -21.1553  -16.7673   22.6159 C   0  0  0  0  0  0  0  0  0  0  0  0
  -28.1779  -26.8499   19.5338 C   0  0  0  0  0  0  0  0  0  0  0  0
  -21.8200  -15.4065   22.4130 C   0  0  0  0  0  0  0  0  0  0  0  0
  -20.5381  -17.3038   21.3230 C   0  0  0  0  0  0  0  0  0  0  0  0
  -22.1467  -15.9875   19.9805 C   0  0  0  0  0  0  0  0  0  0  0  0
  -27.2161  -27.4855   18.5227 C   0  0  1  0  0  0  0  0  0  0  0  0
  -25.6504  -30.5570   20.1187 C   0  0  1  0  0  0  0  0  0  0  0  0
  -22.8268  -15.4538   21.2507 C   0  0  2  0  0  0  0  0  0  0  0  0
  -17.7493  -23.6186   19.9466 C   0  0  0  0  0  0  0  0  0  0  0  0
  -23.0169  -22.4181   15.9368 C   0  0  0  0  0  0  0  0  0  0  0  0
  -28.1751  -34.7065   26.1528 C   0  0  0  0  0  0  0  0  0  0  0  0
  -18.1445  -28.6705   25.2288 C   0  0  0  0  0  0  0  0  0  0  0  0
  -28.4309  -28.7235   23.3229 C   0  0  0  0  0  0  0  0  0  0  0  0
  -28.9087  -30.1837   25.2996 C   0  0  0  0  0  0  0  0  0  0  0  0
  -29.9755  -30.6777   23.0995 C   0  0  0  0  0  0  0  0  0  0  0  0
  -19.7948  -19.5611   19.5493 C   0  0  0  0  0  0  0  0  0  0  0  0
  -25.2124  -35.5279   23.9115 C   0  0  0  0  0  0  0  0  0  0  0  0
  -22.8327  -22.3037   17.4422 C   0  0  0  0  0  0  0  0  0  0  0  0
  -22.0078  -21.0671   17.8113 C   0  0  0  0  0  0  0  0  0  0  0  0
  -18.7151  -26.8596   23.5915 C   0  0  0  0  0  0  0  0  0  0  0  0
  -19.7328  -25.8488   23.0676 C   0  0  0  0  0  0  0  0  0  0  0  0
  -20.4849  -28.5824   24.3064 C   0  0  0  0  0  0  0  0  0  1  0  0
  -21.8702  -20.8788   19.3428 C   0  0  2  0  0  0  0  0  0  0  0  0
  -27.5082  -31.1332   23.4107 C   0  0  1  0  0  0  0  0  0  0  0  0
  -27.3145  -34.6127   24.9025 C   0  0  2  0  0  0  0  0  0  0  0  0
  -19.2633  -27.7522   24.7231 C   0  0  1  0  0  0  0  0  0  0  0  0
  -28.6793  -30.1769   23.7732 C   0  0  0  0  0  0  0  0  0  0  0  0
  -22.7809  -12.9881   21.2660 N   0  0  0  0  0  0  0  0  0  0  0  0
  -23.4845  -14.1061   21.0189 N   0  0  0  0  0  0  0  0  0  0  0  0
  -25.9304  -30.7535   21.5425 N   0  0  0  0  0  0  0  0  0  0  0  0
  -21.5184  -17.2873   20.2286 N   0  0  0  0  0  0  0  0  0  0  0  0
  -25.5948  -14.8845   20.2762 N   0  0  0  0  0  0  0  0  0  0  0  0
  -26.0283  -10.3917   20.1228 N   0  0  0  0  0  0  0  0  0  0  0  0
  -19.1352  -25.0605   22.0155 N   0  0  0  0  0  0  0  0  0  0  0  0
  -26.8603  -28.8257   18.9370 N   0  0  0  0  0  0  0  0  0  0  0  0
  -27.7278  -32.5217   23.8011 N   0  0  0  0  0  0  0  0  0  0  0  0
  -21.2549  -19.5865   19.6106 N   0  0  0  0  0  0  0  0  0  0  0  0
  -26.1334  -35.5046   25.0769 N   0  3  0  0  0  0  0  0  0  0  0  0
  -27.1112  -12.3803   19.7599 O   0  0  0  0  0  0  0  0  0  0  0  0
  -25.1216  -28.2711   20.3834 O   0  0  0  0  0  0  0  0  0  0  0  0
  -28.0986  -31.5134   21.1451 O   0  0  0  0  0  0  0  0  0  0  0  0
  -25.8515  -32.7061   25.1511 O   0  0  0  0  0  0  0  0  0  0  0  0
  -23.2018  -18.4406   19.1586 O   0  0  0  0  0  0  0  0  0  0  0  0
  -22.1270   -6.6580   21.4916 O   0  0  0  0  0  0  0  0  0  0  0  0
  -20.1426  -29.5065   23.2743 O   0  0  0  0  0  0  0  0  0  1  0  0
  -19.4568   -5.1970   26.0894 F   0  0  0  0  0  0  0  0  0  0  0  0
  -23.0475  -22.4159   21.4004 F   0  0  0  0  0  0  0  0  0  0  0  0
  -23.1719   -4.7444   23.1914 F   0  0  0  0  0  0  0  0  0  0  0  0
  1  2  1  0  0  0  0
  1  5  2  0  0  0  0
  2  6  2  0  0  0  0
  3  8  2  0  0  0  0
  3 17  1  0  0  0  0
  4  9  1  0  0  0  0
  4 17  2  0  0  0  0
  5 19  1  0  0  0  0
  6 21  1  0  0  0  0
  7 10  2  0  0  0  0
  7 20  1  0  0  0  0
  8 26  1  0  0  0  0
  9 26  2  0  0  0  0
 10 27  1  0  0  0  0
 11 12  2  0  0  0  0
 11 28  1  0  0  0  0
 12 29  1  0  0  0  0
 13 22  1  0  0  0  0
 13 27  2  0  0  0  0
 14 23  2  0  0  0  0
 14 24  1  0  0  0  0
 15 25  2  0  0  0  0
 15 30  1  0  0  0  0
 16 29  2  0  0  0  0
 16 31  1  0  0  0  0
 17 32  1  0  0  0  0
 18 32  1  0  0  0  0
 18 33  2  0  0  0  0
 18 34  1  0  0  0  0
 19 21  2  0  0  0  0
 19 39  1  0  0  0  0
 20 22  2  0  0  0  0
 20 40  1  0  0  0  0
 21 48  1  0  0  0  0
 22 41  1  0  0  0  0
 23 25  1  0  0  0  0
 23 51  1  0  0  0  0
 24 30  2  0  0  0  0
 24 65  1  0  0  0  0
 25 76  1  0  0  0  0
 26 86  1  0  0  0  0
 27 87  1  0  0  0  0
 28 31  2  0  0  0  0
 28 86  1  0  0  0  0
 29 88  1  0  0  0  0
 30 89  1  0  0  0  0
 31 90  1  0  0  0  0
 32 70  2  0  0  0  0
 33 71  1  0  0  0  0
 33 74  1  0  0  0  0
 34 75  1  0  0  0  0
 34 81  2  0  0  0  0
 35 49  1  0  0  0  0
 35 77  1  0  0  0  0
 35 82  2  0  0  0  0
 36 66  1  0  0  0  0
 36 72  1  0  0  0  0
 36 83  2  0  0  0  0
 37 67  1  0  0  0  0
 37 78  1  0  0  0  0
 37 84  2  0  0  0  0
 38 73  1  0  0  0  0
 38 79  1  0  0  0  0
 38 85  2  0  0  0  0
 39 42  1  0  0  0  0
 40 49  1  0  0  0  0
 41 72  1  0  0  0  0
 42 44  1  0  0  0  0
 43 45  1  0  0  0  0
 43 46  1  0  0  0  0
 44 48  1  0  0  0  0
 45 50  1  0  0  0  0
 46 73  1  0  0  0  0
 47 50  1  0  0  0  0
 47 73  1  0  0  0  0
 48 77  1  0  0  0  0
 49 72  1  0  0  0  0
 50 71  1  0  0  0  0
 52 60  1  0  0  0  0
 53 67  1  0  0  0  0
 54 68  1  0  0  0  0
 55 69  1  0  0  0  0
 56 69  1  0  0  0  0
 57 69  1  0  0  0  0
 58 79  1  0  0  0  0
 59 80  1  0  0  0  0
 60 61  1  0  0  0  0
 61 65  1  0  0  0  0
 62 63  1  0  0  0  0
 62 68  1  0  0  0  0
 63 76  1  0  0  0  0
 64 68  1  0  0  0  0
 64 87  1  0  0  0  0
 65 79  1  0  0  0  0
 66 69  1  0  0  0  0
 66 78  1  0  0  0  0
 67 80  1  0  0  0  0
 70 71  1  0  0  0  0
M  CHG  1  80   1
M  ISO  4  38 100  64 101  79 100  87 101
M  END
> <Batch ID>
0106

> <Smiles>
CCCC(c1cc(C)c(NCCC(C)[101CH2:1][101O:1]c2ccc3c(c2)CN(C(=O)C(NC(=O)C(C)NC)C(C)(C)C)C(C(=O)NC2CCCc4ccccc42)C3)cc1F)[100N:0](C)[100C:0](=O)N1CCCC(n2nc(-c3ccc(Oc4ccc(F)cc4F)cc3)c(C(N)=O)c2N)C1

> <Shape>
0.275

> <Color>
0.092

> <Negative vol penalty>
0.000

$$$$

  -OEChem-04052301143D

 89 98  0     1  0  0  0  0  0999 V2000
  -24.3859  -40.1442   26.2689 C   0  0  0  0  0  0  0  0  0  0  0  0
  -24.0340  -39.6901   25.0018 C   0  0  0  0  0  0  0  0  0  0  0  0
  -22.1474   -6.2389   22.3888 C   0  0  0  0  0  0  0  0  0  0  0  0
  -22.7082   -7.6647   24.2568 C   0  0  0  0  0  0  0  0  0  0  0  0
  -25.4352  -39.5386   26.9587 C   0  0  0  0  0  0  0  0  0  0  0  0
  -24.7322  -38.6306   24.4235 C   0  0  0  0  0  0  0  0  0  0  0  0
  -19.9005  -20.9649   20.6571 C   0  0  0  0  0  0  0  0  0  0  0  0
  -22.2616  -21.4727   20.5899 C   0  0  0  0  0  0  0  0  0  0  0  0
  -21.3360  -32.5959   22.4384 C   0  0  0  0  0  0  0  0  0  0  0  0
  -19.6077  -22.3286   20.6736 C   0  0  0  0  0  0  0  0  0  0  0  0
  -21.9688  -22.8364   20.6064 C   0  0  0  0  0  0  0  0  0  0  0  0
  -22.1278   -5.1331   23.2387 C   0  0  0  0  0  0  0  0  0  0  0  0
  -22.6886   -6.5589   25.1068 C   0  0  0  0  0  0  0  0  0  0  0  0
  -20.7255  -31.4937   21.8396 C   0  0  0  0  0  0  0  0  0  0  0  0
  -20.0161   -3.7642   25.4970 C   0  0  0  0  0  0  0  0  0  0  0  0
  -18.9538   -2.8690   25.3717 C   0  0  0  0  0  0  0  0  0  0  0  0
  -22.8923  -30.6162   21.2207 C   0  0  0  0  0  0  0  0  0  0  0  0
  -20.5101   -1.0944   24.8562 C   0  0  0  0  0  0  0  0  0  0  0  0
  -22.4377   -7.5047   22.8978 C   0  0  0  0  0  0  0  0  0  0  0  0
  -21.3957   -9.1387   21.2389 C   0  0  0  0  0  0  0  0  0  0  0  0
  -21.2275  -20.5370   20.6153 C   0  0  0  0  0  0  0  0  0  0  0  0
  -26.1403  -38.4648   26.3925 C   0  0  0  0  0  0  0  0  0  0  0  0
  -22.7294  -32.7048   22.4442 C   0  0  0  0  0  0  0  0  0  0  0  0
  -25.7928  -38.0108   25.1059 C   0  0  0  0  0  0  0  0  0  0  0  0
  -23.5100  -31.7117   21.8300 C   0  0  0  0  0  0  0  0  0  0  0  0
  -20.6418  -23.2643   20.6483 C   0  0  0  0  0  0  0  0  0  0  0  0
  -22.3984   -5.2931   24.5977 C   0  0  0  0  0  0  0  0  0  0  0  0
  -21.5018  -30.5065   21.2320 C   0  0  0  0  0  0  0  0  0  0  0  0
  -21.3255   -3.3245   25.3019 C   0  0  0  0  0  0  0  0  0  0  0  0
  -19.2008   -1.5341   25.0513 C   0  0  0  0  0  0  0  0  0  0  0  0
  -21.5724   -1.9896   24.9815 C   0  0  0  0  0  0  0  0  0  0  0  0
  -22.4587   -8.6473   22.0202 C   0  0  0  0  0  0  0  0  0  0  0  0
  -21.9214  -10.2300   20.5914 C   0  0  0  0  0  0  0  0  0  0  0  0
  -20.0532   -8.6523   21.1100 C   0  0  0  0  0  0  0  0  0  0  0  0
  -25.7376  -34.6925   23.4815 C   0  0  0  0  0  0  0  0  0  0  0  0
  -20.6885  -27.0166   20.6602 C   0  0  0  0  0  0  0  0  0  0  0  0
  -26.4236  -31.7368   23.9329 C   0  0  0  0  0  0  0  0  0  0  0  0
  -27.6713  -28.7641   25.0480 C   0  0  0  0  0  0  0  0  0  0  0  0
  -24.9415  -14.8205   20.4671 C   0  0  0  0  0  0  0  0  0  0  0  0
  -27.2979  -37.8729   27.1569 C   0  0  0  0  0  0  0  0  0  0  0  0
  -23.4273  -33.9053   23.0235 C   0  0  0  0  0  0  0  0  0  0  0  0
  -25.0039  -31.8880   21.8300 C   0  0  0  0  0  0  0  0  0  0  0  0
  -27.7435  -36.5114   26.6295 C   0  0  0  0  0  0  0  0  0  0  0  0
  -26.6885  -11.8398   20.1679 C   0  0  0  0  0  0  0  0  0  0  0  0
  -22.3487  -18.6256   21.8390 C   0  0  0  0  0  0  0  0  0  0  0  0
  -22.2722  -18.6393   19.3055 C   0  0  0  0  0  0  0  0  0  0  0  0
  -27.8628  -36.5409   25.1090 C   0  0  0  0  0  0  0  0  0  0  0  0
  -25.6664  -10.7738   20.5602 C   0  0  0  0  0  0  0  0  0  0  0  0
  -22.6534  -17.1273   21.8190 C   0  0  0  0  0  0  0  0  0  0  0  0
  -22.5783  -17.1412   19.2907 C   0  0  0  0  0  0  0  0  0  0  0  0
  -26.5748  -13.0617   21.0717 C   0  0  0  0  0  0  0  0  0  0  0  0
  -24.1742  -12.6207   21.4760 C   0  0  0  0  0  0  0  0  0  0  0  0
  -21.5472  -19.0532   20.5976 C   0  0  0  0  0  0  0  0  0  0  0  0
  -26.5101  -36.8479   24.4553 C   0  0  1  0  0  0  0  0  0  0  0  0
  -24.7742  -33.5600   23.6837 C   0  0  1  0  0  0  0  0  0  0  0  0
  -24.2438  -11.3592   20.5911 C   0  0  2  0  0  0  0  0  0  0  0  0
  -23.3708  -16.7196   20.5299 C   0  0  0  0  0  0  0  0  0  0  0  0
  -29.8388  -27.5808   25.4942 C   0  0  0  0  0  0  0  0  0  0  0  0
  -26.8004  -31.3051   20.9370 C   0  0  0  0  0  0  0  0  0  0  0  0
  -28.3386  -29.4048   21.4762 C   0  0  0  0  0  0  0  0  0  0  0  0
  -28.9153  -31.7196   22.2057 C   0  0  0  0  0  0  0  0  0  0  0  0
  -22.4646  -14.4440   20.8254 C   0  0  0  0  0  0  0  0  0  0  0  0
  -27.0430  -28.4521   27.9232 C   0  0  0  0  0  0  0  0  0  0  0  0
  -21.3523  -25.6561   20.6390 C   0  0  0  0  0  0  0  0  0  0  0  0
  -21.6301  -28.2051   20.6449 C   0  0  0  0  0  0  0  0  0  1  0  0
  -27.0442  -30.4824   23.3721 C   0  0  1  0  0  0  0  0  0  0  0  0
  -28.7330  -28.4422   26.0842 C   0  0  2  0  0  0  0  0  0  0  0  0
  -27.7479  -30.7282   22.0076 C   0  0  0  0  0  0  0  0  0  0  0  0
  -23.5753   -9.3673   21.8830 N   0  0  0  0  0  0  0  0  0  0  0  0
  -23.2169  -10.3221   21.0078 N   0  0  0  0  0  0  0  0  0  0  0  0
  -25.4530  -32.3687   23.1461 N   0  0  0  0  0  0  0  0  0  0  0  0
  -25.2096  -13.5881   21.0812 N   0  0  0  0  0  0  0  0  0  0  0  0
  -21.3973  -11.1101   19.7122 N   0  0  0  0  0  0  0  0  0  0  0  0
  -19.6792   -7.5200   21.8464 N   0  0  0  0  0  0  0  0  0  0  0  0
  -20.3508  -24.6209   20.6629 N   0  0  0  0  0  0  0  0  0  0  0  0
  -25.6695  -35.6698   24.4560 N   0  0  0  0  0  0  0  0  0  0  0  0
  -27.9239  -29.9616   24.4129 N   0  0  0  0  0  0  0  0  0  0  0  0
  -23.6183  -15.2849   20.5115 N   0  0  0  0  0  0  0  0  0  0  0  0
  -28.1299  -27.7104   27.2338 N   0  3  0  0  0  0  0  0  0  0  0  0
  -19.2149   -9.1955   20.3512 O   0  0  0  0  0  0  0  0  0  0  0  0
  -26.4891  -34.6809   22.5136 O   0  0  0  0  0  0  0  0  0  0  0  0
  -19.4669  -27.1605   20.6883 O   0  0  0  0  0  0  0  0  0  0  0  0
  -26.7916  -32.1507   25.0359 O   0  0  0  0  0  0  0  0  0  0  0  0
  -26.7156  -28.0252   24.8219 O   0  0  0  0  0  0  0  0  0  0  0  0
  -25.8359  -15.4748   19.9157 O   0  0  0  0  0  0  0  0  0  0  0  0
  -22.3791   -4.2143   25.4274 O   0  0  0  0  0  0  0  0  0  0  0  0
  -20.8994  -29.4309   20.6532 O   0  0  0  0  0  0  0  0  0  1  0  0
  -18.1806   -0.6742   24.9325 F   0  0  0  0  0  0  0  0  0  0  0  0
  -22.8282   -1.5610   24.7940 F   0  0  0  0  0  0  0  0  0  0  0  0
  1  2  1  0  0  0  0
  1  5  2  0  0  0  0
  2  6  2  0  0  0  0
  3 12  2  0  0  0  0
  3 19  1  0  0  0  0
  4 13  1  0  0  0  0
  4 19  2  0  0  0  0
  5 22  1  0  0  0  0
  6 24  1  0  0  0  0
  7 10  2  0  0  0  0
  7 21  1  0  0  0  0
  8 11  1  0  0  0  0
  8 21  2  0  0  0  0
  9 14  2  0  0  0  0
  9 23  1  0  0  0  0
 10 26  1  0  0  0  0
 11 26  2  0  0  0  0
 12 27  1  0  0  0  0
 13 27  2  0  0  0  0
 14 28  1  0  0  0  0
 15 16  2  0  0  0  0
 15 29  1  0  0  0  0
 16 30  1  0  0  0  0
 17 25  1  0  0  0  0
 17 28  2  0  0  0  0
 18 30  2  0  0  0  0
 18 31  1  0  0  0  0
 19 32  1  0  0  0  0
 20 32  1  0  0  0  0
 20 33  2  0  0  0  0
 20 34  1  0  0  0  0
 21 53  1  0  0  0  0
 22 24  2  0  0  0  0
 22 40  1  0  0  0  0
 23 25  2  0  0  0  0
 23 41  1  0  0  0  0
 24 54  1  0  0  0  0
 25 42  1  0  0  0  0
 26 75  1  0  0  0  0
 27 86  1  0  0  0  0
 28 87  1  0  0  0  0
 29 31  2  0  0  0  0
 29 86  1  0  0  0  0
 30 88  1  0  0  0  0
 31 89  1  0  0  0  0
 32 69  2  0  0  0  0
 33 70  1  0  0  0  0
 33 73  1  0  0  0  0
 34 74  1  0  0  0  0
 34 80  2  0  0  0  0
 35 55  1  0  0  0  0
 35 76  1  0  0  0  0
 35 81  2  0  0  0  0
 36 64  1  0  0  0  0
 36 65  1  0  0  0  0
 36 82  2  0  0  0  0
 37 66  1  0  0  0  0
 37 71  1  0  0  0  0
 37 83  2  0  0  0  0
 38 67  1  0  0  0  0
 38 77  1  0  0  0  0
 38 84  2  0  0  0  0
 39 72  1  0  0  0  0
 39 78  1  0  0  0  0
 39 85  2  0  0  0  0
 40 43  1  0  0  0  0
 41 55  1  0  0  0  0
 42 71  1  0  0  0  0
 43 47  1  0  0  0  0
 44 48  1  0  0  0  0
 44 51  1  0  0  0  0
 45 49  1  0  0  0  0
 45 53  1  0  0  0  0
 46 50  1  0  0  0  0
 46 53  1  0  0  0  0
 47 54  1  0  0  0  0
 48 56  1  0  0  0  0
 49 57  1  0  0  0  0
 50 57  1  0  0  0  0
 51 72  1  0  0  0  0
 52 56  1  0  0  0  0
 52 72  1  0  0  0  0
 54 76  1  0  0  0  0
 55 71  1  0  0  0  0
 56 70  1  0  0  0  0
 57 78  1  0  0  0  0
 58 67  1  0  0  0  0
 59 68  1  0  0  0  0
 60 68  1  0  0  0  0
 61 68  1  0  0  0  0
 62 78  1  0  0  0  0
 63 79  1  0  0  0  0
 64 75  1  0  0  0  0
 65 87  1  0  0  0  0
 66 68  1  0  0  0  0
 66 77  1  0  0  0  0
 67 79  1  0  0  0  0
 69 70  1  0  0  0  0
M  CHG  1  79   1
M  ISO  4  39 100  65 101  78 100  87 101
M  END
> <Batch ID>
0106

> <Smiles>
CNC(C)C(=O)NC(C(=O)N1Cc2cc([101O:1][101CH2:1]C(=O)CNc3ccc(C4CCC([100N:0](C)[100C:0](=O)N5CCCC(n6nc(-c7ccc(Oc8ccc(F)cc8F)cc7)c(C(N)=O)c6N)C5)CC4)cc3)ccc2CC1C(=O)NC1CCCc2ccccc21)C(C)(C)C

> <Shape>
0.247

> <Color>
0.058

> <Negative vol penalty>
0.000

$$$$

  -OEChem-04052301143D

 84 92  0     1  0  0  0  0  0999 V2000
  -25.5091  -19.0484   23.3716 C   0  0  0  0  0  0  0  0  0  0  0  0
  -26.3943  -20.1050   23.1897 C   0  0  0  0  0  0  0  0  0  0  0  0
  -23.8228   -9.7203   22.1738 C   0  0  0  0  0  0  0  0  0  0  0  0
  -24.6830   -8.4540   20.3047 C   0  0  0  0  0  0  0  0  0  0  0  0
  -24.1602  -19.2136   23.0645 C   0  0  0  0  0  0  0  0  0  0  0  0
  -25.9288  -21.3306   22.7120 C   0  0  0  0  0  0  0  0  0  0  0  0
  -29.1303  -25.0655   22.6470 C   0  0  0  0  0  0  0  0  0  0  0  0
  -22.7493   -8.8359   22.2789 C   0  0  0  0  0  0  0  0  0  0  0  0
  -23.6096   -7.5695   20.4098 C   0  0  0  0  0  0  0  0  0  0  0  0
  -30.1871  -25.1367   21.7404 C   0  0  0  0  0  0  0  0  0  0  0  0
  -19.9757   -6.7046   23.2687 C   0  0  0  0  0  0  0  0  0  0  0  0
  -19.6275   -6.2558   24.5427 C   0  0  0  0  0  0  0  0  0  0  0  0
  -28.8700  -21.1831   19.3922 C   0  0  0  0  0  0  0  0  0  0  0  0
  -28.9670  -26.7739   20.4559 C   0  0  0  0  0  0  0  0  0  0  0  0
  -31.0955  -21.3727   17.7207 C   0  0  0  0  0  0  0  0  0  0  0  0
  -21.8300   -5.2987   24.8075 C   0  0  0  0  0  0  0  0  0  0  0  0
  -24.7896   -9.5294   21.1866 C   0  0  0  0  0  0  0  0  0  0  0  0
  -29.6774  -20.0663   19.1765 C   0  0  0  0  0  0  0  0  0  0  0  0
  -27.1477  -10.3443   21.7187 C   0  0  0  0  0  0  0  0  0  0  0  0
  -23.6810  -20.4383   22.5711 C   0  0  0  0  0  0  0  0  0  0  0  0
  -27.9774  -25.8412   22.4586 C   0  0  0  0  0  0  0  0  0  0  0  0
  -24.5668  -21.5244   22.4190 C   0  0  0  0  0  0  0  0  0  0  0  0
  -27.8980  -26.7126   21.3629 C   0  0  0  0  0  0  0  0  0  0  0  0
  -30.7902  -20.1611   18.3409 C   0  0  0  0  0  0  0  0  0  0  0  0
  -29.1753  -22.3947   18.7720 C   0  0  0  0  0  0  0  0  0  0  0  0
  -22.6427   -7.7605   21.3970 C   0  0  0  0  0  0  0  0  0  0  0  0
  -30.1043  -25.9888   20.6431 C   0  0  0  0  0  0  0  0  0  0  0  0
  -21.2510   -6.4503   22.7641 C   0  0  0  0  0  0  0  0  0  0  0  0
  -30.2881  -22.4895   17.9363 C   0  0  0  0  0  0  0  0  0  0  0  0
  -20.5546   -5.5529   25.3121 C   0  0  0  0  0  0  0  0  0  0  0  0
  -22.1782   -5.7474   23.5335 C   0  0  0  0  0  0  0  0  0  0  0  0
  -25.8985  -10.4429   21.0771 C   0  0  0  0  0  0  0  0  0  0  0  0
  -27.8423  -11.4486   21.2892 C   0  0  0  0  0  0  0  0  0  0  0  0
  -29.3327  -18.8148   19.8383 C   0  0  0  0  0  0  0  0  0  0  0  0
  -28.1835  -18.1307   19.6647 C   0  0  0  0  0  0  0  0  0  0  0  0
  -27.6365   -9.3439   22.6220 C   0  0  0  0  0  0  0  0  0  0  0  0
  -27.9855  -16.8670   20.4028 C   0  0  0  0  0  0  0  0  0  0  0  0
  -24.9007  -25.2060   21.9748 C   0  0  0  0  0  0  0  0  0  0  0  0
  -24.5943  -28.4235   22.2497 C   0  0  0  0  0  0  0  0  0  0  0  0
  -26.0465  -31.5028   22.0136 C   0  0  0  0  0  0  0  0  0  0  0  0
  -22.2100  -20.5644   22.2623 C   0  0  0  0  0  0  0  0  0  0  0  0
  -26.8573  -25.7728   23.4601 C   0  0  0  0  0  0  0  0  0  0  0  0
  -26.6907  -27.5814   21.1265 C   0  0  0  0  0  0  0  0  0  0  0  0
  -21.8931  -21.7451   21.3503 C   0  0  0  0  0  0  0  0  0  0  0  0
  -26.8390  -14.7668   17.6267 C   0  0  0  0  0  0  0  0  0  0  0  0
  -22.5619  -23.0049   21.8796 C   0  0  0  0  0  0  0  0  0  0  0  0
  -26.5499  -13.4547   18.3510 C   0  0  0  0  0  0  0  0  0  0  0  0
  -26.5316  -15.9820   18.5004 C   0  0  0  0  0  0  0  0  0  0  0  0
  -26.9331  -14.6434   20.5466 C   0  0  0  0  0  0  0  0  0  0  0  0
  -24.0887  -22.8572   21.8718 C   0  0  1  0  0  0  0  0  0  0  0  0
  -25.5171  -26.2262   22.8896 C   0  0  1  0  0  0  0  0  0  0  0  0
  -27.2799  -13.4069   19.7027 C   0  0  1  0  0  0  0  0  0  0  0  0
  -31.6777  -18.9852   18.0869 C   0  0  0  0  0  0  0  0  0  0  0  0
  -25.5338  -33.9468   22.2615 C   0  0  0  0  0  0  0  0  0  0  0  0
  -23.1436  -28.3890   19.5656 C   0  0  0  0  0  0  0  0  0  0  0  0
  -23.5035  -30.8622   19.4181 C   0  0  0  0  0  0  0  0  0  0  0  0
  -22.1372  -29.9111   21.2758 C   0  0  0  0  0  0  0  0  0  0  0  0
  -28.0348  -31.8186   24.1829 C   0  0  0  0  0  0  0  0  0  0  0  0
  -31.8242  -25.7423   17.4661 C   0  0  0  0  0  0  0  0  0  0  0  0
  -30.8057  -26.3723   18.4032 C   0  0  0  0  0  0  0  0  0  1  0  0
  -31.8768  -24.2301   17.6170 C   0  0  0  0  0  0  0  0  0  0  0  0
  -24.6447  -29.5881   21.2904 C   0  0  1  0  0  0  0  0  0  0  0  0
  -26.0428  -32.6932   22.9557 C   0  0  2  0  0  0  0  0  0  0  0  0
  -23.3793  -29.6699   20.3906 C   0  0  0  0  0  0  0  0  0  0  0  0
  -25.8022  -11.5245   20.2994 N   0  0  0  0  0  0  0  0  0  0  0  0
  -26.9997  -12.1157   20.4495 N   0  0  0  0  0  0  0  0  0  0  0  0
  -27.1940  -15.8850   19.8098 N   0  0  0  0  0  0  0  0  0  0  0  0
  -25.6191  -27.4742   22.1304 N   0  0  0  0  0  0  0  0  0  0  0  0
  -28.3495  -23.5173   18.9989 N   0  0  0  0  0  0  0  0  0  0  0  0
  -29.0856  -11.9044   21.5517 N   0  0  0  0  0  0  0  0  0  0  0  0
  -26.7922   -8.2767   22.9574 N   0  0  0  0  0  0  0  0  0  0  0  0
  -24.6752  -23.9796   22.5703 N   0  0  0  0  0  0  0  0  0  0  0  0
  -24.8777  -30.7769   22.1034 N   0  0  0  0  0  0  0  0  0  0  0  0
  -27.4202  -32.9604   23.4580 N   0  3  0  0  0  0  0  0  0  0  0  0
  -28.7819   -9.4036   23.1299 O   0  0  0  0  0  0  0  0  0  0  0  0
  -28.5299  -16.7599   21.5031 O   0  0  0  0  0  0  0  0  0  0  0  0
  -24.6471  -25.5094   20.8149 O   0  0  0  0  0  0  0  0  0  0  0  0
  -23.6833  -28.3623   23.0791 O   0  0  0  0  0  0  0  0  0  0  0  0
  -26.9902  -31.2451   21.2696 O   0  0  0  0  0  0  0  0  0  0  0  0
  -21.5954   -6.8972   21.4994 O   0  0  0  0  0  0  0  0  0  0  0  0
  -31.1341  -26.0597   19.7563 O   0  0  0  0  0  0  0  0  0  1  0  0
  -30.6050  -23.6708   17.3178 O   0  0  0  0  0  0  0  0  0  0  0  0
  -20.2207   -5.1234   26.5361 F   0  0  0  0  0  0  0  0  0  0  0  0
  -23.4053   -5.5012   23.0545 F   0  0  0  0  0  0  0  0  0  0  0  0
  1  2  1  0  0  0  0
  1  5  2  0  0  0  0
  2  6  2  0  0  0  0
  3  8  2  0  0  0  0
  3 17  1  0  0  0  0
  4  9  1  0  0  0  0
  4 17  2  0  0  0  0
  5 20  1  0  0  0  0
  6 22  1  0  0  0  0
  7 10  2  0  0  0  0
  7 21  1  0  0  0  0
  8 26  1  0  0  0  0
  9 26  2  0  0  0  0
 10 27  1  0  0  0  0
 11 12  2  0  0  0  0
 11 28  1  0  0  0  0
 12 30  1  0  0  0  0
 13 18  2  0  0  0  0
 13 25  1  0  0  0  0
 14 23  1  0  0  0  0
 14 27  2  0  0  0  0
 15 24  2  0  0  0  0
 15 29  1  0  0  0  0
 16 30  2  0  0  0  0
 16 31  1  0  0  0  0
 17 32  1  0  0  0  0
 18 24  1  0  0  0  0
 18 34  1  0  0  0  0
 19 32  1  0  0  0  0
 19 33  2  0  0  0  0
 19 36  1  0  0  0  0
 20 22  2  0  0  0  0
 20 41  1  0  0  0  0
 21 23  2  0  0  0  0
 21 42  1  0  0  0  0
 22 50  1  0  0  0  0
 23 43  1  0  0  0  0
 24 53  1  0  0  0  0
 25 29  2  0  0  0  0
 25 69  1  0  0  0  0
 26 80  1  0  0  0  0
 27 81  1  0  0  0  0
 28 31  2  0  0  0  0
 28 80  1  0  0  0  0
 29 82  1  0  0  0  0
 30 83  1  0  0  0  0
 31 84  1  0  0  0  0
 32 65  2  0  0  0  0
 33 66  1  0  0  0  0
 33 70  1  0  0  0  0
 34 35  2  0  0  0  0
 35 37  1  0  0  0  0
 36 71  1  0  0  0  0
 36 75  2  0  0  0  0
 37 67  1  0  0  0  0
 37 76  2  0  0  0  0
 38 51  1  0  0  0  0
 38 72  1  0  0  0  0
 38 77  2  0  0  0  0
 39 62  1  0  0  0  0
 39 68  1  0  0  0  0
 39 78  2  0  0  0  0
 40 63  1  0  0  0  0
 40 73  1  0  0  0  0
 40 79  2  0  0  0  0
 41 44  1  0  0  0  0
 42 51  1  0  0  0  0
 43 68  1  0  0  0  0
 44 46  1  0  0  0  0
 45 47  1  0  0  0  0
 45 48  1  0  0  0  0
 46 50  1  0  0  0  0
 47 52  1  0  0  0  0
 48 67  1  0  0  0  0
 49 52  1  0  0  0  0
 49 67  1  0  0  0  0
 50 72  1  0  0  0  0
 51 68  1  0  0  0  0
 52 66  1  0  0  0  0
 54 63  1  0  0  0  0
 55 64  1  0  0  0  0
 56 64  1  0  0  0  0
 57 64  1  0  0  0  0
 58 74  1  0  0  0  0
 59 60  1  0  0  0  0
 59 61  1  0  0  0  0
 60 81  1  0  0  0  0
 61 82  1  0  0  0  0
 62 64  1  0  0  0  0
 62 73  1  0  0  0  0
 63 74  1  0  0  0  0
 65 66  1  0  0  0  0
M  CHG  1  74   1
M  ISO  4  35 100  37 100  60 101  81 101
M  END
> <Batch ID>
0106

> <Smiles>
CNC(C)C(=O)NC(C(=O)N1Cc2cc([101O:1][101CH2:1]CCOc3cc(C)c(C=[100CH:0][100C:0](=O)N4CCCC(n5nc(-c6ccc(Oc7ccc(F)cc7F)cc6)c(C(N)=O)c5N)C4)cc3N)ccc2CC1C(=O)NC1CCCc2ccccc21)C(C)(C)C

> <Shape>
0.256

> <Color>
0.085

> <Negative vol penalty>
0.000

$$$$

  -OEChem-04052301143D

 85 93  0     1  0  0  0  0  0999 V2000
  -23.9684  -22.0908   20.4591 C   0  0  0  0  0  0  0  0  0  0  0  0
  -24.9117  -21.4018   19.7034 C   0  0  0  0  0  0  0  0  0  0  0  0
  -26.4531  -28.2670   18.8211 C   0  0  0  0  0  0  0  0  0  0  0  0
  -26.6260  -28.2883   21.2308 C   0  0  0  0  0  0  0  0  0  0  0  0
  -23.4628  -21.5224   21.6275 C   0  0  0  0  0  0  0  0  0  0  0  0
  -25.3508  -20.1445   20.1165 C   0  0  0  0  0  0  0  0  0  0  0  0
  -27.5781  -13.8660   17.4828 C   0  0  0  0  0  0  0  0  0  0  0  0
  -29.4215  -16.4531   22.6887 C   0  0  0  0  0  0  0  0  0  0  0  0
  -29.6297  -15.1205   22.3334 C   0  0  0  0  0  0  0  0  0  0  0  0
  -25.2834  -29.0228   18.8983 C   0  0  0  0  0  0  0  0  0  0  0  0
  -25.4562  -29.0442   21.3081 C   0  0  0  0  0  0  0  0  0  0  0  0
  -28.6360  -12.9650   17.5957 C   0  0  0  0  0  0  0  0  0  0  0  0
  -22.1246  -28.5064   21.1035 C   0  0  0  0  0  0  0  0  0  0  0  0
  -21.1712  -28.1302   22.0496 C   0  0  0  0  0  0  0  0  0  0  0  0
  -27.6341  -12.0475   19.5890 C   0  0  0  0  0  0  0  0  0  0  0  0
  -31.8168  -15.6898   21.4794 C   0  0  0  0  0  0  0  0  0  0  0  0
  -21.3641  -30.2951   23.1047 C   0  0  0  0  0  0  0  0  0  0  0  0
  -27.1244  -27.8997   19.9874 C   0  0  0  0  0  0  0  0  0  0  0  0
  -29.6516  -27.6004   19.8097 C   0  0  0  0  0  0  0  0  0  0  0  0
  -23.8889  -20.2532   22.0499 C   0  0  0  0  0  0  0  0  0  0  0  0
  -26.5440  -13.8718   18.4299 C   0  0  0  0  0  0  0  0  0  0  0  0
  -24.8515  -19.5591   21.2924 C   0  0  0  0  0  0  0  0  0  0  0  0
  -26.5628  -12.9478   19.4844 C   0  0  0  0  0  0  0  0  0  0  0  0
  -30.4110  -17.4042   22.4393 C   0  0  0  0  0  0  0  0  0  0  0  0
  -31.6087  -17.0225   21.8346 C   0  0  0  0  0  0  0  0  0  0  0  0
  -30.8273  -14.7388   21.7288 C   0  0  0  0  0  0  0  0  0  0  0  0
  -24.7849  -29.4114   20.1418 C   0  0  0  0  0  0  0  0  0  0  0  0
  -28.6657  -12.0576   18.6505 C   0  0  0  0  0  0  0  0  0  0  0  0
  -22.6978  -29.7769   21.1580 C   0  0  0  0  0  0  0  0  0  0  0  0
  -20.7910  -29.0246   23.0502 C   0  0  0  0  0  0  0  0  0  0  0  0
  -22.3176  -30.6712   22.1586 C   0  0  0  0  0  0  0  0  0  0  0  0
  -28.3326  -27.1185   19.9083 C   0  0  0  0  0  0  0  0  0  0  0  0
  -30.4282  -26.4684   19.7648 C   0  0  0  0  0  0  0  0  0  0  0  0
  -30.1319  -28.9505   19.7628 C   0  0  0  0  0  0  0  0  0  0  0  0
  -25.4256  -15.9923   20.5170 C   0  0  0  0  0  0  0  0  0  0  0  0
  -23.1352  -13.7431   20.9837 C   0  0  0  0  0  0  0  0  0  0  0  0
  -32.1656  -12.8360   20.7640 C   0  0  0  0  0  0  0  0  0  0  0  0
  -22.2190  -10.4605   20.8045 C   0  0  0  0  0  0  0  0  0  0  0  0
  -29.5416  -21.0059   21.8216 C   0  0  0  0  0  0  0  0  0  0  0  0
  -23.3490  -19.7001   23.3450 C   0  0  0  0  0  0  0  0  0  0  0  0
  -25.3962  -14.8321   18.2789 C   0  0  0  0  0  0  0  0  0  0  0  0
  -25.4666  -12.8996   20.5162 C   0  0  0  0  0  0  0  0  0  0  0  0
  -23.5880  -18.2019   23.5141 C   0  0  0  0  0  0  0  0  0  0  0  0
  -30.2918  -21.8853   18.3922 C   0  0  0  0  0  0  0  0  0  0  0  0
  -25.0287  -17.8478   23.1593 C   0  0  0  0  0  0  0  0  0  0  0  0
  -29.9952  -23.3861   18.3911 C   0  0  0  0  0  0  0  0  0  0  0  0
  -29.2996  -21.1263   19.2683 C   0  0  0  0  0  0  0  0  0  0  0  0
  -28.9232  -23.1144   20.6752 C   0  0  0  0  0  0  0  0  0  0  0  0
  -25.3343  -18.1824   21.6944 C   0  0  1  0  0  0  0  0  0  0  0  0
  -24.6591  -15.0929   19.5889 C   0  0  1  0  0  0  0  0  0  0  0  0
  -29.9057  -23.9405   19.8253 C   0  0  2  0  0  0  0  0  0  0  0  0
  -32.6830  -18.0229   21.5598 C   0  0  0  0  0  0  0  0  0  0  0  0
  -20.2970   -8.9224   21.2918 C   0  0  0  0  0  0  0  0  0  0  0  0
  -23.7833  -13.8809   23.9621 C   0  0  0  0  0  0  0  0  0  0  0  0
  -22.5606  -11.7161   24.2571 C   0  0  0  0  0  0  0  0  0  0  0  0
  -21.3440  -13.7311   23.4311 C   0  0  0  0  0  0  0  0  0  0  0  0
  -21.9887   -9.6600   17.9646 C   0  0  0  0  0  0  0  0  0  0  0  0
  -30.1650  -18.8251   22.8278 C   0  0  0  0  0  0  0  0  0  0  0  0
  -31.9804  -11.3397   20.5529 C   0  0  0  0  0  0  0  0  0  0  0  0
  -32.0633  -10.9390   19.0841 C   0  0  0  0  0  0  0  0  0  0  0  0
  -30.9655  -11.5952   18.2595 C   0  0  0  0  0  0  0  0  0  1  0  0
  -22.9755  -12.5540   21.8998 C   0  0  1  0  0  0  0  0  0  0  0  0
  -20.9772   -9.7905   20.2447 C   0  0  2  0  0  0  0  0  0  0  0  0
  -22.6877  -12.9724   23.3693 C   0  0  0  0  0  0  0  0  0  0  0  0
  -28.2709  -25.7843   19.9251 N   0  0  0  0  0  0  0  0  0  0  0  0
  -29.5609  -25.4182   19.8362 N   0  0  0  0  0  0  0  0  0  0  0  0
  -24.3692  -13.8630   20.3289 N   0  0  0  0  0  0  0  0  0  0  0  0
  -29.2763  -21.6918   20.6247 N   0  0  0  0  0  0  0  0  0  0  0  0
  -31.7616  -26.2789   19.6716 N   0  0  0  0  0  0  0  0  0  0  0  0
  -29.1981  -29.9942   19.8198 N   0  0  0  0  0  0  0  0  0  0  0  0
  -31.0398  -13.3864   21.3699 N   0  0  0  0  0  0  0  0  0  0  0  0
  -24.7763  -17.1742   20.8187 N   0  0  0  0  0  0  0  0  0  0  0  0
  -21.9411  -11.7154   21.3038 N   0  0  0  0  0  0  0  0  0  0  0  0
  -29.8614  -19.6604   21.6872 N   0  0  0  0  0  0  0  0  0  0  0  0
  -21.3328   -8.9308   19.0804 N   0  3  0  0  0  0  0  0  0  0  0  0
  -31.3517  -29.2231   19.6566 O   0  0  0  0  0  0  0  0  0  0  0  0
  -26.5240  -15.6394   20.9301 O   0  0  0  0  0  0  0  0  0  0  0  0
  -22.1970  -14.5325   20.8482 O   0  0  0  0  0  0  0  0  0  0  0  0
  -33.1897  -13.4196   20.4248 O   0  0  0  0  0  0  0  0  0  0  0  0
  -23.3242   -9.9229   20.8027 O   0  0  0  0  0  0  0  0  0  0  0  0
  -29.5018  -21.5537   22.9287 O   0  0  0  0  0  0  0  0  0  0  0  0
  -23.6436  -30.1492   20.2175 O   0  0  0  0  0  0  0  0  0  0  0  0
  -29.6975  -11.1775   18.7635 O   0  0  0  0  0  0  0  0  0  1  0  0
  -19.8743  -28.6637   23.9578 F   0  0  0  0  0  0  0  0  0  0  0  0
  -22.8639  -31.8936   22.2154 F   0  0  0  0  0  0  0  0  0  0  0  0
  1  2  1  0  0  0  0
  1  5  2  0  0  0  0
  2  6  2  0  0  0  0
  3 10  2  0  0  0  0
  3 18  1  0  0  0  0
  4 11  1  0  0  0  0
  4 18  2  0  0  0  0
  5 20  1  0  0  0  0
  6 22  1  0  0  0  0
  7 12  2  0  0  0  0
  7 21  1  0  0  0  0
  8  9  2  0  0  0  0
  8 24  1  0  0  0  0
  9 26  1  0  0  0  0
 10 27  1  0  0  0  0
 11 27  2  0  0  0  0
 12 28  1  0  0  0  0
 13 14  2  0  0  0  0
 13 29  1  0  0  0  0
 14 30  1  0  0  0  0
 15 23  1  0  0  0  0
 15 28  2  0  0  0  0
 16 25  1  0  0  0  0
 16 26  2  0  0  0  0
 17 30  2  0  0  0  0
 17 31  1  0  0  0  0
 18 32  1  0  0  0  0
 19 32  1  0  0  0  0
 19 33  2  0  0  0  0
 19 34  1  0  0  0  0
 20 22  2  0  0  0  0
 20 40  1  0  0  0  0
 21 23  2  0  0  0  0
 21 41  1  0  0  0  0
 22 49  1  0  0  0  0
 23 42  1  0  0  0  0
 24 25  2  0  0  0  0
 24 58  1  0  0  0  0
 25 52  1  0  0  0  0
 26 71  1  0  0  0  0
 27 82  1  0  0  0  0
 28 83  1  0  0  0  0
 29 31  2  0  0  0  0
 29 82  1  0  0  0  0
 30 84  1  0  0  0  0
 31 85  1  0  0  0  0
 32 65  2  0  0  0  0
 33 66  1  0  0  0  0
 33 69  1  0  0  0  0
 34 70  1  0  0  0  0
 34 76  2  0  0  0  0
 35 50  1  0  0  0  0
 35 72  1  0  0  0  0
 35 77  2  0  0  0  0
 36 62  1  0  0  0  0
 36 67  1  0  0  0  0
 36 78  2  0  0  0  0
 37 59  1  0  0  0  0
 37 71  1  0  0  0  0
 37 79  2  0  0  0  0
 38 63  1  0  0  0  0
 38 73  1  0  0  0  0
 38 80  2  0  0  0  0
 39 68  1  0  0  0  0
 39 74  1  0  0  0  0
 39 81  2  0  0  0  0
 40 43  1  0  0  0  0
 41 50  1  0  0  0  0
 42 67  1  0  0  0  0
 43 45  1  0  0  0  0
 44 46  1  0  0  0  0
 44 47  1  0  0  0  0
 45 49  1  0  0  0  0
 46 51  1  0  0  0  0
 47 68  1  0  0  0  0
 48 51  1  0  0  0  0
 48 68  1  0  0  0  0
 49 72  1  0  0  0  0
 50 67  1  0  0  0  0
 51 66  1  0  0  0  0
 53 63  1  0  0  0  0
 54 64  1  0  0  0  0
 55 64  1  0  0  0  0
 56 64  1  0  0  0  0
 57 75  1  0  0  0  0
 58 74  1  0  0  0  0
 59 60  1  0  0  0  0
 60 61  1  0  0  0  0
 61 83  1  0  0  0  0
 62 64  1  0  0  0  0
 62 73  1  0  0  0  0
 63 75  1  0  0  0  0
 65 66  1  0  0  0  0
M  CHG  1  75   1
M  ISO  4  39 100  61 101  74 100  83 101
M  END
> <Batch ID>
0106

> <Smiles>
CNC(C)C(=O)NC(C(=O)N1Cc2cc([101O:1][101CH2:1]CCC(=O)Nc3ccc(C[100NH:0][100C:0](=O)N4CCCC(n5nc(-c6ccc(Oc7ccc(F)cc7F)cc6)c(C(N)=O)c5N)C4)c(C)c3)ccc2CC1C(=O)NC1CCCc2ccccc21)C(C)(C)C

> <Shape>
0.313

> <Color>
0.052

> <Negative vol penalty>
0.000

$$$$

  -OEChem-04052301143D

 88 96  0     1  0  0  0  0  0999 V2000
  -29.3516  -31.8623   27.2883 C   0  0  0  0  0  0  0  0  0  0  0  0
  -28.8791  -31.1370   26.1992 C   0  0  0  0  0  0  0  0  0  0  0  0
  -22.9007  -10.5422   21.3457 C   0  0  0  0  0  0  0  0  0  0  0  0
  -24.6791   -8.9109   21.4604 C   0  0  0  0  0  0  0  0  0  0  0  0
  -28.5593  -32.8583   27.8577 C   0  0  0  0  0  0  0  0  0  0  0  0
  -27.6135  -31.4065   25.6796 C   0  0  0  0  0  0  0  0  0  0  0  0
  -27.5976  -31.6293   20.6205 C   0  0  0  0  0  0  0  0  0  0  0  0
  -21.9566   -9.5168   21.3983 C   0  0  0  0  0  0  0  0  0  0  0  0
  -23.7350   -7.8854   21.5131 C   0  0  0  0  0  0  0  0  0  0  0  0
  -27.6154  -30.4183   19.9298 C   0  0  0  0  0  0  0  0  0  0  0  0
  -21.7010   -6.4908   23.8236 C   0  0  0  0  0  0  0  0  0  0  0  0
  -21.8979   -5.4782   24.7624 C   0  0  0  0  0  0  0  0  0  0  0  0
  -25.2355  -30.5920   19.5761 C   0  0  0  0  0  0  0  0  0  0  0  0
  -28.0629  -19.5886   18.0169 C   0  0  0  0  0  0  0  0  0  0  0  0
  -27.1938  -19.6066   20.2711 C   0  0  0  0  0  0  0  0  0  0  0  0
  -21.9882   -3.8461   22.9833 C   0  0  0  0  0  0  0  0  0  0  0  0
  -24.2620  -10.2393   21.3767 C   0  0  0  0  0  0  0  0  0  0  0  0
  -25.8029  -11.9905   22.4094 C   0  0  0  0  0  0  0  0  0  0  0  0
  -27.2873  -33.1467   27.3387 C   0  0  0  0  0  0  0  0  0  0  0  0
  -26.3948  -32.3264   20.8039 C   0  0  0  0  0  0  0  0  0  0  0  0
  -26.8029  -32.4063   26.2435 C   0  0  0  0  0  0  0  0  0  0  0  0
  -25.2055  -31.8128   20.2673 C   0  0  0  0  0  0  0  0  0  0  0  0
  -27.4680  -18.9212   19.0876 C   0  0  0  0  0  0  0  0  0  0  0  0
  -28.3836  -20.9414   18.1298 C   0  0  0  0  0  0  0  0  0  0  0  0
  -22.3737   -8.1884   21.4820 C   0  0  0  0  0  0  0  0  0  0  0  0
  -26.4338  -29.8981   19.4099 C   0  0  0  0  0  0  0  0  0  0  0  0
  -21.6476   -6.1810   22.4645 C   0  0  0  0  0  0  0  0  0  0  0  0
  -27.5144  -20.9595   20.3839 C   0  0  0  0  0  0  0  0  0  0  0  0
  -28.1094  -21.6268   19.3132 C   0  0  0  0  0  0  0  0  0  0  0  0
  -22.0416   -4.1559   24.3423 C   0  0  0  0  0  0  0  0  0  0  0  0
  -21.7912   -4.8587   22.0444 C   0  0  0  0  0  0  0  0  0  0  0  0
  -25.2377  -11.2981   21.3218 C   0  0  0  0  0  0  0  0  0  0  0  0
  -26.6662  -12.8897   21.8328 C   0  0  0  0  0  0  0  0  0  0  0  0
  -24.4844  -17.1557   21.1816 C   0  0  0  0  0  0  0  0  0  0  0  0
  -25.2588  -16.6596   20.2100 C   0  0  0  0  0  0  0  0  0  0  0  0
  -25.5686  -11.8346   23.8153 C   0  0  0  0  0  0  0  0  0  0  0  0
  -24.6834  -33.2214   23.3286 C   0  0  0  0  0  0  0  0  0  0  0  0
  -22.9057  -34.7558   21.0908 C   0  0  0  0  0  0  0  0  0  0  0  0
  -21.9041  -34.9728   17.8356 C   0  0  0  0  0  0  0  0  0  0  0  0
  -27.4066  -16.7994   17.7879 C   0  0  0  0  0  0  0  0  0  0  0  0
  -26.4481  -34.2002   28.0175 C   0  0  0  0  0  0  0  0  0  0  0  0
  -26.3968  -33.6447   21.5283 C   0  0  0  0  0  0  0  0  0  0  0  0
  -23.8912  -32.5325   20.4193 C   0  0  0  0  0  0  0  0  0  0  0  0
  -25.2705  -34.6788   27.1722 C   0  0  0  0  0  0  0  0  0  0  0  0
  -28.3342  -13.2986   17.0847 C   0  0  0  0  0  0  0  0  0  0  0  0
  -24.5301  -33.4905   26.5668 C   0  0  0  0  0  0  0  0  0  0  0  0
  -27.5998  -12.5255   18.1787 C   0  0  0  0  0  0  0  0  0  0  0  0
  -27.5980  -14.5799   16.7044 C   0  0  0  0  0  0  0  0  0  0  0  0
  -26.5785  -14.7017   18.9575 C   0  0  0  0  0  0  0  0  0  0  0  0
  -25.4454  -32.6861   25.6359 C   0  0  1  0  0  0  0  0  0  0  0  0
  -25.0317  -34.0140   22.1006 C   0  0  1  0  0  0  0  0  0  0  0  0
  -27.3177  -13.4273   19.3928 C   0  0  1  0  0  0  0  0  0  0  0  0
  -20.4168  -36.3066   16.3169 C   0  0  0  0  0  0  0  0  0  0  0  0
  -20.4631  -33.3273   22.2324 C   0  0  0  0  0  0  0  0  0  0  0  0
  -19.2211  -33.9304   20.1439 C   0  0  0  0  0  0  0  0  0  0  0  0
  -20.0862  -35.7280   21.6416 C   0  0  0  0  0  0  0  0  0  0  0  0
  -24.1886  -35.8316   16.1616 C   0  0  0  0  0  0  0  0  0  0  0  0
  -26.6339  -20.8605   22.5909 C   0  0  0  0  0  0  0  0  0  0  0  0
  -26.7454  -16.7913   20.1821 C   0  0  0  0  0  0  0  0  0  0  0  0
  -26.9281  -26.3524   18.8536 C   0  0  0  0  0  0  0  0  0  0  0  0
  -27.9489  -25.2979   19.2670 C   0  0  0  0  0  0  0  0  0  0  0  0
  -27.4390  -27.7626   19.1179 C   0  0  0  0  0  0  0  0  0  1  0  0
  -27.4221  -23.8875   19.0430 C   0  0  0  0  0  0  0  0  0  0  0  0
  -21.7126  -34.3929   20.2401 C   0  0  1  0  0  0  0  0  0  0  0  0
  -21.8194  -36.1528   16.8843 C   0  0  2  0  0  0  0  0  0  0  0  0
  -20.3950  -34.3299   21.0631 C   0  0  0  0  0  0  0  0  0  0  0  0
  -25.7026  -11.7213   20.1434 N   0  0  0  0  0  0  0  0  0  0  0  0
  -26.5691  -12.6894   20.4872 N   0  0  0  0  0  0  0  0  0  0  0  0
  -23.9438  -33.8146   21.1409 N   0  0  0  0  0  0  0  0  0  0  0  0
  -27.3019  -15.3970   17.8818 N   0  0  0  0  0  0  0  0  0  0  0  0
  -28.9861  -21.6040   17.0378 N   0  0  0  0  0  0  0  0  0  0  0  0
  -27.4912  -13.8244   22.3505 N   0  0  0  0  0  0  0  0  0  0  0  0
  -24.6497  -10.8635   24.2359 N   0  0  0  0  0  0  0  0  0  0  0  0
  -25.5892  -33.3595   24.3630 N   0  0  0  0  0  0  0  0  0  0  0  0
  -21.6863  -35.3539   19.1427 N   0  0  0  0  0  0  0  0  0  0  0  0
  -27.1387  -17.5201   18.9718 N   0  0  0  0  0  0  0  0  0  0  0  0
  -22.7683  -35.9724   15.7494 N   0  3  0  0  0  0  0  0  0  0  0  0
  -26.1445  -12.5469   24.6724 O   0  0  0  0  0  0  0  0  0  0  0  0
  -23.6673  -32.5364   23.3376 O   0  0  0  0  0  0  0  0  0  0  0  0
  -22.9194  -35.8377   21.6832 O   0  0  0  0  0  0  0  0  0  0  0  0
  -22.1364  -33.8270   17.4566 O   0  0  0  0  0  0  0  0  0  0  0  0
  -27.7420  -17.3597   16.7375 O   0  0  0  0  0  0  0  0  0  0  0  0
  -21.4528   -7.1875   21.5336 O   0  0  0  0  0  0  0  0  0  0  0  0
  -27.2428  -21.6165   21.5461 O   0  0  0  0  0  0  0  0  0  0  0  0
  -26.4483  -28.7160   18.7359 O   0  0  0  0  0  0  0  0  0  1  0  0
  -28.4221  -22.9561   19.4323 O   0  0  0  0  0  0  0  0  0  0  0  0
  -22.2322   -3.1838   25.2439 F   0  0  0  0  0  0  0  0  0  0  0  0
  -21.7420   -4.5552   20.7401 F   0  0  0  0  0  0  0  0  0  0  0  0
  1  2  1  0  0  0  0
  1  5  2  0  0  0  0
  2  6  2  0  0  0  0
  3  8  2  0  0  0  0
  3 17  1  0  0  0  0
  4  9  1  0  0  0  0
  4 17  2  0  0  0  0
  5 19  1  0  0  0  0
  6 21  1  0  0  0  0
  7 10  2  0  0  0  0
  7 20  1  0  0  0  0
  8 25  1  0  0  0  0
  9 25  2  0  0  0  0
 10 26  1  0  0  0  0
 11 12  2  0  0  0  0
 11 27  1  0  0  0  0
 12 30  1  0  0  0  0
 13 22  1  0  0  0  0
 13 26  2  0  0  0  0
 14 23  1  0  0  0  0
 14 24  2  0  0  0  0
 15 23  2  0  0  0  0
 15 28  1  0  0  0  0
 16 30  2  0  0  0  0
 16 31  1  0  0  0  0
 17 32  1  0  0  0  0
 18 32  1  0  0  0  0
 18 33  2  0  0  0  0
 18 36  1  0  0  0  0
 19 21  2  0  0  0  0
 19 41  1  0  0  0  0
 20 22  2  0  0  0  0
 20 42  1  0  0  0  0
 21 50  1  0  0  0  0
 22 43  1  0  0  0  0
 23 76  1  0  0  0  0
 24 29  1  0  0  0  0
 24 71  1  0  0  0  0
 25 83  1  0  0  0  0
 26 85  1  0  0  0  0
 27 31  2  0  0  0  0
 27 83  1  0  0  0  0
 28 29  2  0  0  0  0
 28 84  1  0  0  0  0
 29 86  1  0  0  0  0
 30 87  1  0  0  0  0
 31 88  1  0  0  0  0
 32 67  2  0  0  0  0
 33 68  1  0  0  0  0
 33 72  1  0  0  0  0
 34 35  2  0  0  0  0
 35 59  1  0  0  0  0
 36 73  1  0  0  0  0
 36 78  2  0  0  0  0
 37 51  1  0  0  0  0
 37 74  1  0  0  0  0
 37 79  2  0  0  0  0
 38 64  1  0  0  0  0
 38 69  1  0  0  0  0
 38 80  2  0  0  0  0
 39 65  1  0  0  0  0
 39 75  1  0  0  0  0
 39 81  2  0  0  0  0
 40 70  1  0  0  0  0
 40 76  1  0  0  0  0
 40 82  2  0  0  0  0
 41 44  1  0  0  0  0
 42 51  1  0  0  0  0
 43 69  1  0  0  0  0
 44 46  1  0  0  0  0
 45 47  1  0  0  0  0
 45 48  1  0  0  0  0
 46 50  1  0  0  0  0
 47 52  1  0  0  0  0
 48 70  1  0  0  0  0
 49 52  1  0  0  0  0
 49 70  1  0  0  0  0
 50 74  1  0  0  0  0
 51 69  1  0  0  0  0
 52 68  1  0  0  0  0
 53 65  1  0  0  0  0
 54 66  1  0  0  0  0
 55 66  1  0  0  0  0
 56 66  1  0  0  0  0
 57 77  1  0  0  0  0
 58 84  1  0  0  0  0
 59 76  1  0  0  0  0
 60 61  1  0  0  0  0
 60 62  1  0  0  0  0
 61 63  1  0  0  0  0
 62 85  1  0  0  0  0
 63 86  1  0  0  0  0
 64 66  1  0  0  0  0
 64 75  1  0  0  0  0
 65 77  1  0  0  0  0
 67 68  1  0  0  0  0
M  CHG  1  77   1
M  ISO  4  40 100  62 101  76 100  85 101
M  END
> <Batch ID>
0106

> <Smiles>
C=CC[100N:0](c1cc(N)c(OCCC[101CH2:1][101O:1]c2ccc3c(c2)CN(C(=O)C(NC(=O)C(C)NC)C(C)(C)C)C(C(=O)NC2CCCc4ccccc42)C3)c(OC)c1)[100C:0](=O)N1CCCC(n2nc(-c3ccc(Oc4ccc(F)cc4F)cc3)c(C(N)=O)c2N)C1

> <Shape>
0.236

> <Color>
0.111

> <Negative vol penalty>
0.000

$$$$

  -OEChem-04052301143D

 87 96  0     1  0  0  0  0  0999 V2000
  -23.4460  -30.5241   18.5993 C   0  0  0  0  0  0  0  0  0  0  0  0
  -24.1313  -29.7052   19.4910 C   0  0  0  0  0  0  0  0  0  0  0  0
  -23.0660   -9.8834   19.9359 C   0  0  0  0  0  0  0  0  0  0  0  0
  -23.8383   -9.8675   22.2251 C   0  0  0  0  0  0  0  0  0  0  0  0
  -22.0730  -30.7173   18.7461 C   0  0  0  0  0  0  0  0  0  0  0  0
  -23.4441  -29.0798   20.5307 C   0  0  0  0  0  0  0  0  0  0  0  0
  -24.7446  -24.2153   21.0697 C   0  0  0  0  0  0  0  0  0  0  0  0
  -22.3197   -8.7305   20.1797 C   0  0  0  0  0  0  0  0  0  0  0  0
  -23.0920   -8.7146   22.4689 C   0  0  0  0  0  0  0  0  0  0  0  0
  -25.9509  -23.9464   21.7149 C   0  0  0  0  0  0  0  0  0  0  0  0
  -19.8645   -7.9220   23.0819 C   0  0  0  0  0  0  0  0  0  0  0  0
  -19.1138   -7.8741   24.2565 C   0  0  0  0  0  0  0  0  0  0  0  0
  -24.7484  -23.4669   23.7503 C   0  0  0  0  0  0  0  0  0  0  0  0
  -31.6606  -19.3357   22.8341 C   0  0  0  0  0  0  0  0  0  0  0  0
  -31.8921  -17.2965   21.5592 C   0  0  0  0  0  0  0  0  0  0  0  0
  -20.3528   -5.9262   24.9690 C   0  0  0  0  0  0  0  0  0  0  0  0
  -23.8254  -10.4519   20.9586 C   0  0  0  0  0  0  0  0  0  0  0  0
  -29.8520  -17.7349   22.7771 C   0  0  0  0  0  0  0  0  0  0  0  0
  -24.1748  -12.9769   20.8591 C   0  0  0  0  0  0  0  0  0  0  0  0
  -21.3669  -30.0863   19.7824 C   0  0  0  0  0  0  0  0  0  0  0  0
  -23.5298  -24.1224   21.7641 C   0  0  0  0  0  0  0  0  0  0  0  0
  -22.0606  -29.2658   20.6923 C   0  0  0  0  0  0  0  0  0  0  0  0
  -23.5278  -23.7326   23.1110 C   0  0  0  0  0  0  0  0  0  0  0  0
  -30.3777  -18.9482   23.2210 C   0  0  0  0  0  0  0  0  0  0  0  0
  -32.4178  -18.5099   22.0031 C   0  0  0  0  0  0  0  0  0  0  0  0
  -30.6092  -16.9090   21.9462 C   0  0  0  0  0  0  0  0  0  0  0  0
  -22.3326   -8.1461   21.4462 C   0  0  0  0  0  0  0  0  0  0  0  0
  -25.9532  -23.5750   23.0562 C   0  0  0  0  0  0  0  0  0  0  0  0
  -20.8593   -6.9719   22.8508 C   0  0  0  0  0  0  0  0  0  0  0  0
  -19.3579   -6.8763   25.2001 C   0  0  0  0  0  0  0  0  0  0  0  0
  -21.1035   -5.9741   23.7944 C   0  0  0  0  0  0  0  0  0  0  0  0
  -24.5970  -11.6425   20.7072 C   0  0  0  0  0  0  0  0  0  0  0  0
  -25.2675  -13.7260   20.4965 C   0  0  0  0  0  0  0  0  0  0  0  0
  -28.5081  -17.3296   23.1826 C   0  0  0  0  0  0  0  0  0  0  0  0
  -22.9084  -13.4931   21.2895 C   0  0  0  0  0  0  0  0  0  0  0  0
  -21.2139  -26.1657   22.5159 C   0  0  0  0  0  0  0  0  0  0  0  0
  -19.7443  -23.4912   23.6158 C   0  0  0  0  0  0  0  0  0  0  0  0
  -20.0357  -20.3007   24.7915 C   0  0  0  0  0  0  0  0  0  0  0  0
  -30.7380  -14.7523   20.6507 C   0  0  0  0  0  0  0  0  0  0  0  0
  -19.8916  -30.3630   19.9291 C   0  0  0  0  0  0  0  0  0  0  0  0
  -22.2352  -24.3897   21.0465 C   0  0  0  0  0  0  0  0  0  0  0  0
  -22.2494  -23.5986   23.8959 C   0  0  0  0  0  0  0  0  0  0  0  0
  -19.1719  -29.3659   20.8335 C   0  0  0  0  0  0  0  0  0  0  0  0
  -29.6028  -12.3632   18.2673 C   0  0  0  0  0  0  0  0  0  0  0  0
  -19.9635  -29.1423   22.1180 C   0  0  0  0  0  0  0  0  0  0  0  0
  -28.1645  -12.0725   18.7021 C   0  0  0  0  0  0  0  0  0  0  0  0
  -28.5116  -20.6090   25.9319 C   0  0  0  0  0  0  0  0  0  0  0  0
  -30.5251  -12.5783   19.4659 C   0  0  0  0  0  0  0  0  0  0  0  0
  -29.6753  -19.7183   25.5021 C   0  0  0  0  0  0  0  0  0  0  0  0
  -28.7466  -20.8246   23.5602 C   0  0  0  0  0  0  0  0  0  0  0  0
  -28.6281  -13.2967   20.8639 C   0  0  0  0  0  0  0  0  0  0  0  0
  -21.3459  -28.5503   21.8182 C   0  0  1  0  0  0  0  0  0  0  0  0
  -21.0956  -24.7633   21.9894 C   0  0  1  0  0  0  0  0  0  0  0  0
  -28.4364  -21.6470   24.8160 C   0  0  1  0  0  0  0  0  0  0  0  0
  -27.6483  -13.1371   19.6899 C   0  0  2  0  0  0  0  0  0  0  0  0
  -18.6609  -18.3822   25.6440 C   0  0  0  0  0  0  0  0  0  0  0  0
  -19.3856  -24.9351   26.2797 C   0  0  0  0  0  0  0  0  0  0  0  0
  -18.8985  -22.7182   27.3363 C   0  0  0  0  0  0  0  0  0  0  0  0
  -17.4047  -23.5983   25.5427 C   0  0  0  0  0  0  0  0  0  0  0  0
  -20.9416  -18.5274   22.6021 C   0  0  0  0  0  0  0  0  0  0  0  0
  -27.0972  -22.3601   24.7506 C   0  0  0  0  0  0  0  0  0  1  0  0
  -19.7093  -22.7558   24.9337 C   0  0  1  0  0  0  0  0  0  0  0  0
  -19.3060  -19.0212   24.4241 C   0  0  2  0  0  0  0  0  0  0  0  0
  -18.8739  -23.5062   26.0091 C   0  0  0  0  0  0  0  0  0  0  0  0
  -25.8592  -11.5463   20.2812 N   0  0  0  0  0  0  0  0  0  0  0  0
  -26.2396  -12.8297   20.1622 N   0  0  0  0  0  0  0  0  0  0  0  0
  -29.6476  -19.7802   24.0430 N   0  0  3  0  0  0  0  0  0  0  0  0
  -21.0099  -23.8767   23.1517 N   0  0  0  0  0  0  0  0  0  0  0  0
  -29.9743  -13.6032   20.3554 N   0  0  0  0  0  0  0  0  0  0  0  0
  -33.7145  -18.9015   21.6108 N   0  0  0  0  0  0  0  0  0  0  0  0
  -25.4819  -15.0574   20.4341 N   0  0  0  0  0  0  0  0  0  0  0  0
  -27.4498  -17.7169   22.3712 N   0  0  0  0  0  0  0  0  0  0  0  0
  -21.8953  -12.5842   21.6242 N   0  0  0  0  0  0  0  0  0  0  0  0
  -30.0981  -15.6721   21.4808 N   0  0  0  0  0  0  0  0  0  0  0  0
  -21.2388  -27.1357   21.5321 N   0  0  0  0  0  0  0  0  0  0  0  0
  -19.2310  -21.4097   24.6375 N   0  0  0  0  0  0  0  0  0  0  0  0
  -20.2528  -18.0389   23.8244 N   0  3  0  0  0  0  0  0  0  0  0  0
  -28.3204  -16.6789   24.2214 O   0  0  0  0  0  0  0  0  0  0  0  0
  -22.6765  -14.7239   21.3590 O   0  0  0  0  0  0  0  0  0  0  0  0
  -21.2764  -26.3538   23.7252 O   0  0  0  0  0  0  0  0  0  0  0  0
  -18.6883  -23.7091   23.0167 O   0  0  0  0  0  0  0  0  0  0  0  0
  -21.2016  -20.3145   25.1801 O   0  0  0  0  0  0  0  0  0  0  0  0
  -31.8650  -14.9215   20.1785 O   0  0  0  0  0  0  0  0  0  0  0  0
  -21.6043   -7.0212   21.6845 O   0  0  0  0  0  0  0  0  0  0  0  0
  -27.1292  -23.3126   23.6885 O   0  0  0  0  0  0  0  0  0  1  0  0
  -18.6380   -6.8314   26.3287 F   0  0  0  0  0  0  0  0  0  0  0  0
  -22.0587   -5.0593   23.5784 F   0  0  0  0  0  0  0  0  0  0  0  0
  1  2  1  0  0  0  0
  1  5  2  0  0  0  0
  2  6  2  0  0  0  0
  3  8  2  0  0  0  0
  3 17  1  0  0  0  0
  4  9  1  0  0  0  0
  4 17  2  0  0  0  0
  5 20  1  0  0  0  0
  6 22  1  0  0  0  0
  7 10  2  0  0  0  0
  7 21  1  0  0  0  0
  8 27  1  0  0  0  0
  9 27  2  0  0  0  0
 10 28  1  0  0  0  0
 11 12  2  0  0  0  0
 11 29  1  0  0  0  0
 12 30  1  0  0  0  0
 13 23  1  0  0  0  0
 13 28  2  0  0  0  0
 14 24  1  0  0  0  0
 14 25  2  0  0  0  0
 15 25  1  0  0  0  0
 15 26  2  0  0  0  0
 16 30  2  0  0  0  0
 16 31  1  0  0  0  0
 17 32  1  0  0  0  0
 18 24  2  0  0  0  0
 18 26  1  0  0  0  0
 18 34  1  0  0  0  0
 19 32  1  0  0  0  0
 19 33  2  0  0  0  0
 19 35  1  0  0  0  0
 20 22  2  0  0  0  0
 20 40  1  0  0  0  0
 21 23  2  0  0  0  0
 21 41  1  0  0  0  0
 22 52  1  0  0  0  0
 23 42  1  0  0  0  0
 24 67  1  0  0  0  0
 25 70  1  0  0  0  0
 26 74  1  0  0  0  0
 27 84  1  0  0  0  0
 28 85  1  0  0  0  0
 29 31  2  0  0  0  0
 29 84  1  0  0  0  0
 30 86  1  0  0  0  0
 31 87  1  0  0  0  0
 32 65  2  0  0  0  0
 33 66  1  0  0  0  0
 33 71  1  0  0  0  0
 34 72  1  0  0  0  0
 34 78  2  0  0  0  0
 35 73  1  0  0  0  0
 35 79  2  0  0  0  0
 36 53  1  0  0  0  0
 36 75  1  0  0  0  0
 36 80  2  0  0  0  0
 37 62  1  0  0  0  0
 37 68  1  0  0  0  0
 37 81  2  0  0  0  0
 38 63  1  0  0  0  0
 38 76  1  0  0  0  0
 38 82  2  0  0  0  0
 39 69  1  0  0  0  0
 39 74  1  0  0  0  0
 39 83  2  0  0  0  0
 40 43  1  0  0  0  0
 41 53  1  0  0  0  0
 42 68  1  0  0  0  0
 43 45  1  0  0  0  0
 44 46  1  0  0  0  0
 44 48  1  0  0  0  0
 45 52  1  0  0  0  0
 46 55  1  0  0  0  0
 47 49  1  0  0  0  0
 47 54  1  0  0  0  0
 48 69  1  0  0  0  0
 49 67  1  0  0  0  0
 50 54  1  0  0  0  0
 50 67  1  0  0  0  0
 51 55  1  0  0  0  0
 51 69  1  0  0  0  0
 52 75  1  0  0  0  0
 53 68  1  0  0  0  0
 54 61  1  0  0  0  0
 55 66  1  0  0  0  0
 56 63  1  0  0  0  0
 57 64  1  0  0  0  0
 58 64  1  0  0  0  0
 59 64  1  0  0  0  0
 60 77  1  0  0  0  0
 61 85  1  0  0  0  0
 62 64  1  0  0  0  0
 62 76  1  0  0  0  0
 63 77  1  0  0  0  0
 65 66  1  0  0  0  0
M  CHG  1  77   1
M  ISO  4  39 100  61 101  74 100  85 101
M  END
> <Batch ID>
0106

> <Smiles>
CNC(C)C(=O)NC(C(=O)N1Cc2cc([101O:1][101CH2:1]C3CCN(c4cc(N)cc([100NH:0][100C:0](=O)N5CCCC(n6nc(-c7ccc(Oc8ccc(F)cc8F)cc7)c(C(N)=O)c6N)C5)c4C(N)=O)C3)ccc2CC1C(=O)NC1CCCc2ccccc21)C(C)(C)C

> <Shape>
0.227

> <Color>
0.180

> <Negative vol penalty>
0.000

$$$$

  -OEChem-04052301143D

 86 94  0     1  0  0  0  0  0999 V2000
  -27.7142  -31.6412   27.6422 C   0  0  0  0  0  0  0  0  0  0  0  0
  -27.7897  -30.6086   26.7129 C   0  0  0  0  0  0  0  0  0  0  0  0
  -22.9424  -10.1202   19.9243 C   0  0  0  0  0  0  0  0  0  0  0  0
  -23.9497   -9.7833   22.0943 C   0  0  0  0  0  0  0  0  0  0  0  0
  -26.4968  -32.2792   27.8762 C   0  0  0  0  0  0  0  0  0  0  0  0
  -26.6475  -30.2127   26.0179 C   0  0  0  0  0  0  0  0  0  0  0  0
  -27.5174  -29.5381   21.0749 C   0  0  0  0  0  0  0  0  0  0  0  0
  -22.1773   -8.9673   20.1004 C   0  0  0  0  0  0  0  0  0  0  0  0
  -23.1846   -8.6304   22.2705 C   0  0  0  0  0  0  0  0  0  0  0  0
  -28.1496  -28.3549   20.6953 C   0  0  0  0  0  0  0  0  0  0  0  0
  -20.0085   -7.8577   23.1285 C   0  0  0  0  0  0  0  0  0  0  0  0
  -19.3841   -7.6785   24.3628 C   0  0  0  0  0  0  0  0  0  0  0  0
  -29.4283  -16.9815   20.1154 C   0  0  0  0  0  0  0  0  0  0  0  0
  -29.2646  -17.3269   22.5009 C   0  0  0  0  0  0  0  0  0  0  0  0
  -26.0148  -27.4220   20.0695 C   0  0  0  0  0  0  0  0  0  0  0  0
  -20.6068   -5.6193   24.6824 C   0  0  0  0  0  0  0  0  0  0  0  0
  -23.8286  -10.5282   20.9212 C   0  0  0  0  0  0  0  0  0  0  0  0
  -29.6971  -16.5614   21.4180 C   0  0  0  0  0  0  0  0  0  0  0  0
  -24.2732  -13.0335   21.1048 C   0  0  0  0  0  0  0  0  0  0  0  0
  -25.3412  -31.8975   27.1767 C   0  0  0  0  0  0  0  0  0  0  0  0
  -26.1255  -29.6684   20.9646 C   0  0  0  0  0  0  0  0  0  0  0  0
  -25.4132  -30.8454   26.2438 C   0  0  0  0  0  0  0  0  0  0  0  0
  -25.3676  -28.6089   20.4460 C   0  0  0  0  0  0  0  0  0  0  0  0
  -28.7270  -18.1672   19.8957 C   0  0  0  0  0  0  0  0  0  0  0  0
  -28.5633  -18.5124   22.2812 C   0  0  0  0  0  0  0  0  0  0  0  0
  -22.2984   -8.2224   21.2735 C   0  0  0  0  0  0  0  0  0  0  0  0
  -27.3980  -27.2956   20.1953 C   0  0  0  0  0  0  0  0  0  0  0  0
  -20.9321   -6.9177   22.6711 C   0  0  0  0  0  0  0  0  0  0  0  0
  -28.2945  -18.9326   20.9786 C   0  0  0  0  0  0  0  0  0  0  0  0
  -19.6832   -6.5593   25.1397 C   0  0  0  0  0  0  0  0  0  0  0  0
  -21.2312   -5.7986   23.4480 C   0  0  0  0  0  0  0  0  0  0  0  0
  -24.6197  -11.7188   20.7396 C   0  0  0  0  0  0  0  0  0  0  0  0
  -25.3527  -13.7918   20.7224 C   0  0  0  0  0  0  0  0  0  0  0  0
  -30.4272  -15.3248   21.6471 C   0  0  0  0  0  0  0  0  0  0  0  0
  -23.0822  -13.5253   21.7335 C   0  0  0  0  0  0  0  0  0  0  0  0
  -30.8994  -14.4880   20.5202 C   0  0  0  0  0  0  0  0  0  0  0  0
  -23.7485  -30.1551   23.0181 C   0  0  0  0  0  0  0  0  0  0  0  0
  -21.9727  -30.3652   20.3116 C   0  0  0  0  0  0  0  0  0  0  0  0
  -21.6143  -29.5689   17.0125 C   0  0  0  0  0  0  0  0  0  0  0  0
  -24.0378  -32.5850   27.4980 C   0  0  0  0  0  0  0  0  0  0  0  0
  -25.4617  -30.9610   21.3534 C   0  0  0  0  0  0  0  0  0  0  0  0
  -23.8729  -28.7056   20.2886 C   0  0  0  0  0  0  0  0  0  0  0  0
  -22.9537  -32.3566   26.4478 C   0  0  0  0  0  0  0  0  0  0  0  0
  -29.3537  -12.6394   17.8649 C   0  0  0  0  0  0  0  0  0  0  0  0
  -22.8807  -30.8811   26.0680 C   0  0  0  0  0  0  0  0  0  0  0  0
  -27.9696  -12.3101   18.4231 C   0  0  0  0  0  0  0  0  0  0  0  0
  -30.4123  -12.6423   18.9630 C   0  0  0  0  0  0  0  0  0  0  0  0
  -28.7090  -13.2301   20.6664 C   0  0  0  0  0  0  0  0  0  0  0  0
  -24.2014  -30.4040   25.4519 C   0  0  1  0  0  0  0  0  0  0  0  0
  -23.9804  -30.7974   21.6797 C   0  0  1  0  0  0  0  0  0  0  0  0
  -27.6085  -13.2451   19.5911 C   0  0  2  0  0  0  0  0  0  0  0  0
  -27.0082  -18.3290   18.0775 C   0  0  0  0  0  0  0  0  0  0  0  0
  -20.0406  -29.8494   15.0780 C   0  0  0  0  0  0  0  0  0  0  0  0
  -20.1337  -28.2417   21.5028 C   0  0  0  0  0  0  0  0  0  0  0  0
  -19.1812  -27.8832   19.2153 C   0  0  0  0  0  0  0  0  0  0  0  0
  -18.9511  -30.1049   20.3262 C   0  0  0  0  0  0  0  0  0  0  0  0
  -23.6413  -31.0285   15.4253 C   0  0  0  0  0  0  0  0  0  0  0  0
  -28.4507  -18.6008   18.4935 C   0  0  0  0  0  0  0  0  0  0  0  0
  -28.1956  -23.7703   20.2541 C   0  0  0  0  0  0  0  0  0  0  0  0
  -27.4347  -22.4549   20.3800 C   0  0  0  0  0  0  0  0  0  0  0  0
  -27.2600  -24.9337   19.9534 C   0  0  0  0  0  0  0  0  0  1  0  0
  -28.3735  -21.2849   20.6380 C   0  0  0  0  0  0  0  0  0  0  0  0
  -21.2116  -29.3837   19.4534 C   0  0  1  0  0  0  0  0  0  0  0  0
  -21.2502  -30.4150   15.8059 C   0  0  2  0  0  0  0  0  0  0  0  0
  -19.8973  -28.9005   20.1291 C   0  0  0  0  0  0  0  0  0  0  0  0
  -25.8249  -11.6427   20.1689 N   0  0  0  0  0  0  0  0  0  0  0  0
  -30.7153  -14.8726   22.8378 N   0  0  0  0  0  0  0  0  0  0  0  0
  -26.2452  -12.9192   20.1725 N   0  0  0  0  0  0  0  0  0  0  0  0
  -30.0217  -13.5110   20.0715 N   0  0  0  0  0  0  0  0  0  0  0  0
  -23.2693  -29.9876   20.6884 N   0  0  0  0  0  0  0  0  0  0  0  0
  -28.1326  -19.2768   23.3880 N   0  0  0  0  0  0  0  0  0  0  0  0
  -25.6160  -15.1132   20.8061 N   0  0  0  0  0  0  0  0  0  0  0  0
  -22.0720  -12.6100   22.0594 N   0  0  0  0  0  0  0  0  0  0  0  0
  -24.3064  -30.8449   24.0775 N   0  0  0  0  0  0  0  0  0  0  0  0
  -21.0155  -30.0361   18.1633 N   0  0  0  0  0  0  0  0  0  0  0  0
  -22.3912  -30.4702   14.8487 N   0  3  0  0  0  0  0  0  0  0  0  0
  -22.9117  -14.7426   21.9835 O   0  0  0  0  0  0  0  0  0  0  0  0
  -32.0202  -14.7490   20.1030 O   0  0  0  0  0  0  0  0  0  0  0  0
  -23.1093  -29.1117   23.0848 O   0  0  0  0  0  0  0  0  0  0  0  0
  -21.4391  -31.4309   20.6299 O   0  0  0  0  0  0  0  0  0  0  0  0
  -22.3528  -28.5891   16.9407 O   0  0  0  0  0  0  0  0  0  0  0  0
  -21.5518   -7.0975   21.4458 O   0  0  0  0  0  0  0  0  0  0  0  0
  -28.0125  -26.1394   19.8247 O   0  0  0  0  0  0  0  0  0  1  0  0
  -27.6043  -20.0964   20.7595 O   0  0  0  0  0  0  0  0  0  0  0  0
  -19.0846   -6.3881   26.3257 F   0  0  0  0  0  0  0  0  0  0  0  0
  -22.1185   -4.8927   23.0144 F   0  0  0  0  0  0  0  0  0  0  0  0
  1  2  1  0  0  0  0
  1  5  2  0  0  0  0
  2  6  2  0  0  0  0
  3  8  2  0  0  0  0
  3 17  1  0  0  0  0
  4  9  1  0  0  0  0
  4 17  2  0  0  0  0
  5 20  1  0  0  0  0
  6 22  1  0  0  0  0
  7 10  2  0  0  0  0
  7 21  1  0  0  0  0
  8 26  1  0  0  0  0
  9 26  2  0  0  0  0
 10 27  1  0  0  0  0
 11 12  2  0  0  0  0
 11 28  1  0  0  0  0
 12 30  1  0  0  0  0
 13 18  2  0  0  0  0
 13 24  1  0  0  0  0
 14 18  1  0  0  0  0
 14 25  2  0  0  0  0
 15 23  1  0  0  0  0
 15 27  2  0  0  0  0
 16 30  2  0  0  0  0
 16 31  1  0  0  0  0
 17 32  1  0  0  0  0
 18 34  1  0  0  0  0
 19 32  1  0  0  0  0
 19 33  2  0  0  0  0
 19 35  1  0  0  0  0
 20 22  2  0  0  0  0
 20 40  1  0  0  0  0
 21 23  2  0  0  0  0
 21 41  1  0  0  0  0
 22 49  1  0  0  0  0
 23 42  1  0  0  0  0
 24 29  2  0  0  0  0
 24 58  1  0  0  0  0
 25 29  1  0  0  0  0
 25 71  1  0  0  0  0
 26 82  1  0  0  0  0
 27 83  1  0  0  0  0
 28 31  2  0  0  0  0
 28 82  1  0  0  0  0
 29 84  1  0  0  0  0
 30 85  1  0  0  0  0
 31 86  1  0  0  0  0
 32 66  2  0  0  0  0
 33 68  1  0  0  0  0
 33 72  1  0  0  0  0
 34 36  1  0  0  0  0
 34 67  2  0  0  0  0
 35 73  1  0  0  0  0
 35 77  2  0  0  0  0
 36 69  1  0  0  0  0
 36 78  2  0  0  0  0
 37 50  1  0  0  0  0
 37 74  1  0  0  0  0
 37 79  2  0  0  0  0
 38 63  1  0  0  0  0
 38 70  1  0  0  0  0
 38 80  2  0  0  0  0
 39 64  1  0  0  0  0
 39 75  1  0  0  0  0
 39 81  2  0  0  0  0
 40 43  1  0  0  0  0
 41 50  1  0  0  0  0
 42 70  1  0  0  0  0
 43 45  1  0  0  0  0
 44 46  1  0  0  0  0
 44 47  1  0  0  0  0
 45 49  1  0  0  0  0
 46 51  1  0  0  0  0
 47 69  1  0  0  0  0
 48 51  1  0  0  0  0
 48 69  1  0  0  0  0
 49 74  1  0  0  0  0
 50 70  1  0  0  0  0
 51 68  1  0  0  0  0
 52 58  1  0  0  0  0
 53 64  1  0  0  0  0
 54 65  1  0  0  0  0
 55 65  1  0  0  0  0
 56 65  1  0  0  0  0
 57 76  1  0  0  0  0
 59 60  1  0  0  0  0
 59 61  1  0  0  0  0
 60 62  1  0  0  0  0
 61 83  1  0  0  0  0
 62 84  1  0  0  0  0
 63 65  1  0  0  0  0
 63 75  1  0  0  0  0
 64 76  1  0  0  0  0
 66 68  1  0  0  0  0
M  CHG  1  76   1
M  ISO  4  34 100  36 100  61 101  83 101
M  END
> <Batch ID>
0106

> <Smiles>
CCc1cc([100C:0](=N)[100C:0](=O)N2CCCC(n3nc(-c4ccc(Oc5ccc(F)cc5F)cc4)c(C(N)=O)c3N)C2)cc(N)c1OCCC[101CH2:1][101O:1]c1ccc2c(c1)CN(C(=O)C(NC(=O)C(C)NC)C(C)(C)C)C(C(=O)NC1CCCc3ccccc31)C2

> <Shape>
0.378

> <Color>
0.230

> <Negative vol penalty>
0.000

$$$$

  -OEChem-04052301143D

 89 98  0     1  0  0  0  0  0999 V2000
  -30.0054  -10.1520   19.3895 C   0  0  0  0  0  0  0  0  0  0  0  0
  -29.9736  -11.0213   20.4741 C   0  0  0  0  0  0  0  0  0  0  0  0
  -17.5150  -21.7408   21.1651 C   0  0  0  0  0  0  0  0  0  0  0  0
  -19.2197  -22.8551   19.8653 C   0  0  0  0  0  0  0  0  0  0  0  0
  -29.9436  -10.6585   18.0931 C   0  0  0  0  0  0  0  0  0  0  0  0
  -29.8679  -12.3964   20.2629 C   0  0  0  0  0  0  0  0  0  0  0  0
  -29.4073  -20.1113   22.1313 C   0  0  0  0  0  0  0  0  0  0  0  0
  -17.2209  -20.9203   20.0762 C   0  0  0  0  0  0  0  0  0  0  0  0
  -18.9257  -22.0346   18.7763 C   0  0  0  0  0  0  0  0  0  0  0  0
  -29.5788  -21.3939   21.6123 C   0  0  0  0  0  0  0  0  0  0  0  0
  -15.4948  -21.1501   17.1793 C   0  0  0  0  0  0  0  0  0  0  0  0
  -14.1509  -20.9475   16.8656 C   0  0  0  0  0  0  0  0  0  0  0  0
  -28.0256  -20.8780   19.8401 C   0  0  0  0  0  0  0  0  0  0  0  0
  -24.9578  -29.1510   22.2154 C   0  0  0  0  0  0  0  0  0  0  0  0
  -25.1132  -28.2307   19.5864 C   0  0  0  0  0  0  0  0  0  0  0  0
  -14.4291  -18.5721   17.2078 C   0  0  0  0  0  0  0  0  0  0  0  0
  -18.5143  -22.7083   21.0597 C   0  0  0  0  0  0  0  0  0  0  0  0
  -19.2589  -23.1532   23.4587 C   0  0  0  0  0  0  0  0  0  0  0  0
  -29.8497  -12.0416   17.8665 C   0  0  0  0  0  0  0  0  0  0  0  0
  -28.5506  -19.1973   21.5012 C   0  0  0  0  0  0  0  0  0  0  0  0
  -29.7802  -12.9255   18.9625 C   0  0  0  0  0  0  0  0  0  0  0  0
  -27.8431  -19.5853   20.3545 C   0  0  0  0  0  0  0  0  0  0  0  0
  -23.9371  -29.4461   21.3118 C   0  0  0  0  0  0  0  0  0  0  0  0
  -26.1340  -27.9358   20.4901 C   0  0  0  0  0  0  0  0  0  0  0  0
  -26.0564  -28.3959   21.8046 C   0  0  0  0  0  0  0  0  0  0  0  0
  -24.0147  -28.9859   19.9973 C   0  0  0  0  0  0  0  0  0  0  0  0
  -17.9263  -21.0672   18.8818 C   0  0  0  0  0  0  0  0  0  0  0  0
  -28.8901  -21.7765   20.4649 C   0  0  0  0  0  0  0  0  0  0  0  0
  -16.3059  -20.0637   17.5071 C   0  0  0  0  0  0  0  0  0  0  0  0
  -13.6180  -19.6586   16.8799 C   0  0  0  0  0  0  0  0  0  0  0  0
  -15.7730  -18.7747   17.5214 C   0  0  0  0  0  0  0  0  0  0  0  0
  -18.8181  -23.5566   22.1841 C   0  0  0  0  0  0  0  0  0  0  0  0
  -19.4029  -24.3257   24.1593 C   0  0  0  0  0  0  0  0  0  0  0  0
  -28.8510  -25.3835   20.3595 C   0  0  0  0  0  0  0  0  0  0  0  0
  -27.6310  -25.9264   20.5912 C   0  0  0  0  0  0  0  0  0  0  0  0
  -29.8307  -26.1702   19.5371 C   0  0  0  0  0  0  0  0  0  0  0  0
  -19.5154  -21.8362   23.9643 C   0  0  0  0  0  0  0  0  0  0  0  0
  -28.9236  -16.3596   20.1185 C   0  0  0  0  0  0  0  0  0  0  0  0
  -25.6858  -16.4537   19.9443 C   0  0  0  0  0  0  0  0  0  0  0  0
  -23.1610  -18.9099   19.1634 C   0  0  0  0  0  0  0  0  0  0  0  0
  -20.4060  -29.9838   22.4767 C   0  0  0  0  0  0  0  0  0  0  0  0
  -29.7780  -12.5350   16.4430 C   0  0  0  0  0  0  0  0  0  0  0  0
  -28.3561  -17.8264   22.0888 C   0  0  0  0  0  0  0  0  0  0  0  0
  -26.8960  -18.6482   19.6521 C   0  0  0  0  0  0  0  0  0  0  0  0
  -29.4634  -27.5763   19.1283 C   0  0  0  0  0  0  0  0  0  0  0  0
  -30.1143  -14.0167   16.3097 C   0  0  0  0  0  0  0  0  0  0  0  0
  -17.6674  -28.7775   24.4058 C   0  0  0  0  0  0  0  0  0  0  0  0
  -29.3176  -14.8238   17.3239 C   0  0  0  0  0  0  0  0  0  0  0  0
  -17.6916  -27.2663   24.1702 C   0  0  0  0  0  0  0  0  0  0  0  0
  -27.9686  -27.7257   18.9055 C   0  0  0  0  0  0  0  0  0  0  0  0
  -18.0616  -29.5509   23.1494 C   0  0  0  0  0  0  0  0  0  0  0  0
  -19.3733  -27.6376   22.3175 C   0  0  0  0  0  0  0  0  0  0  0  0
  -29.6964  -14.4271   18.7564 C   0  0  1  0  0  0  0  0  0  0  0  0
  -27.8521  -16.8066   21.0723 C   0  0  1  0  0  0  0  0  0  0  0  0
  -19.0371  -26.8134   23.5721 C   0  0  2  0  0  0  0  0  0  0  0  0
  -26.5884  -25.1408   21.3628 C   0  0  0  0  0  0  0  0  0  0  0  0
  -20.7673  -19.0793   19.8973 C   0  0  0  0  0  0  0  0  0  0  0  0
  -25.0866  -14.9727   17.3448 C   0  0  0  0  0  0  0  0  0  0  0  0
  -23.0515  -16.4064   17.0785 C   0  0  0  0  0  0  0  0  0  0  0  0
  -23.2531  -14.8827   19.0432 C   0  0  0  0  0  0  0  0  0  0  0  0
  -23.5566  -21.6470   20.2173 C   0  0  0  0  0  0  0  0  0  0  0  0
  -22.7719  -30.2567   21.7786 C   0  0  0  0  0  0  0  0  0  0  0  0
  -29.3613  -24.0701   20.8814 C   0  0  0  0  0  0  0  0  0  1  0  0
  -24.6837  -16.9645   18.9374 C   0  0  1  0  0  0  0  0  0  0  0  0
  -22.1912  -19.5571   20.1356 C   0  0  2  0  0  0  0  0  0  0  0  0
  -24.0445  -15.8184   18.1036 C   0  0  0  0  0  0  0  0  0  0  0  0
  -18.6903  -24.8819   22.0783 N   0  0  0  0  0  0  0  0  0  0  0  0
  -19.0529  -25.3214   23.2954 N   0  0  0  0  0  0  0  0  0  0  0  0
  -27.2425  -27.1665   20.0513 N   0  0  0  0  0  0  0  0  0  0  0  0
  -26.7444  -17.3166   20.2616 N   0  0  0  0  0  0  0  0  0  0  0  0
  -19.3472  -29.0743   22.6336 N   0  0  0  0  0  0  0  0  0  0  0  0
  -27.0794  -28.1089   22.7359 N   0  0  0  0  0  0  0  0  0  0  0  0
  -22.9904  -29.2750   19.0691 N   0  0  0  0  0  0  0  0  0  0  0  0
  -19.7934  -24.5919   25.4238 N   0  0  0  0  0  0  0  0  0  0  0  0
  -20.8045  -21.3050   23.8215 N   0  0  0  0  0  0  0  0  0  0  0  0
  -28.7783  -15.0575   19.6792 N   0  0  0  0  0  0  0  0  0  0  0  0
  -23.7225  -17.7651   19.6881 N   0  0  0  0  0  0  0  0  0  0  0  0
  -21.5915  -29.4483   21.9882 N   0  0  0  0  0  0  0  0  0  0  0  0
  -22.2206  -21.0396   19.9868 N   0  3  0  0  0  0  0  0  0  0  0  0
  -30.9317  -25.7016   19.2488 O   0  0  0  0  0  0  0  0  0  0  0  0
  -18.6234  -21.1443   24.5113 O   0  0  0  0  0  0  0  0  0  0  0  0
  -29.8153  -17.1388   19.8032 O   0  0  0  0  0  0  0  0  0  0  0  0
  -25.5309  -15.3334   20.4368 O   0  0  0  0  0  0  0  0  0  0  0  0
  -23.3941  -19.3717   18.0485 O   0  0  0  0  0  0  0  0  0  0  0  0
  -20.3042  -31.1831   22.7565 O   0  0  0  0  0  0  0  0  0  0  0  0
  -17.6398  -20.2665   17.8190 O   0  0  0  0  0  0  0  0  0  0  0  0
  -29.0562  -23.0276   19.9559 O   0  0  0  0  0  0  0  0  0  1  0  0
  -12.3270  -19.4643   16.5802 F   0  0  0  0  0  0  0  0  0  0  0  0
  -16.5470  -17.7272   17.8367 F   0  0  0  0  0  0  0  0  0  0  0  0
  1  2  1  0  0  0  0
  1  5  2  0  0  0  0
  2  6  2  0  0  0  0
  3  8  2  0  0  0  0
  3 17  1  0  0  0  0
  4  9  1  0  0  0  0
  4 17  2  0  0  0  0
  5 19  1  0  0  0  0
  6 21  1  0  0  0  0
  7 10  2  0  0  0  0
  7 20  1  0  0  0  0
  8 27  1  0  0  0  0
  9 27  2  0  0  0  0
 10 28  1  0  0  0  0
 11 12  2  0  0  0  0
 11 29  1  0  0  0  0
 12 30  1  0  0  0  0
 13 22  1  0  0  0  0
 13 28  2  0  0  0  0
 14 23  2  0  0  0  0
 14 25  1  0  0  0  0
 15 24  1  0  0  0  0
 15 26  2  0  0  0  0
 16 30  2  0  0  0  0
 16 31  1  0  0  0  0
 17 32  1  0  0  0  0
 18 32  1  0  0  0  0
 18 33  2  0  0  0  0
 18 37  1  0  0  0  0
 19 21  2  0  0  0  0
 19 42  1  0  0  0  0
 20 22  2  0  0  0  0
 20 43  1  0  0  0  0
 21 53  1  0  0  0  0
 22 44  1  0  0  0  0
 23 26  1  0  0  0  0
 23 62  1  0  0  0  0
 24 25  2  0  0  0  0
 24 69  1  0  0  0  0
 25 72  1  0  0  0  0
 26 73  1  0  0  0  0
 27 86  1  0  0  0  0
 28 87  1  0  0  0  0
 29 31  2  0  0  0  0
 29 86  1  0  0  0  0
 30 88  1  0  0  0  0
 31 89  1  0  0  0  0
 32 67  2  0  0  0  0
 33 68  1  0  0  0  0
 33 74  1  0  0  0  0
 34 35  2  0  0  0  0
 34 36  1  0  0  0  0
 34 63  1  0  0  0  0
 35 56  1  0  0  0  0
 35 69  1  0  0  0  0
 36 45  1  0  0  0  0
 36 80  2  0  0  0  0
 37 75  1  0  0  0  0
 37 81  2  0  0  0  0
 38 54  1  0  0  0  0
 38 76  1  0  0  0  0
 38 82  2  0  0  0  0
 39 64  1  0  0  0  0
 39 70  1  0  0  0  0
 39 83  2  0  0  0  0
 40 65  1  0  0  0  0
 40 77  1  0  0  0  0
 40 84  2  0  0  0  0
 41 71  1  0  0  0  0
 41 78  1  0  0  0  0
 41 85  2  0  0  0  0
 42 46  1  0  0  0  0
 43 54  1  0  0  0  0
 44 70  1  0  0  0  0
 45 50  1  0  0  0  0
 46 48  1  0  0  0  0
 47 49  1  0  0  0  0
 47 51  1  0  0  0  0
 48 53  1  0  0  0  0
 49 55  1  0  0  0  0
 50 69  1  0  0  0  0
 51 71  1  0  0  0  0
 52 55  1  0  0  0  0
 52 71  1  0  0  0  0
 53 76  1  0  0  0  0
 54 70  1  0  0  0  0
 55 68  1  0  0  0  0
 57 65  1  0  0  0  0
 58 66  1  0  0  0  0
 59 66  1  0  0  0  0
 60 66  1  0  0  0  0
 61 79  1  0  0  0  0
 62 78  1  0  0  0  0
 63 87  1  0  0  0  0
 64 66  1  0  0  0  0
 64 77  1  0  0  0  0
 65 79  1  0  0  0  0
 67 68  1  0  0  0  0
M  CHG  1  79   1
M  ISO  4  41 100  63 101  78 100  87 101
M  END
> <Batch ID>
0106

> <Smiles>
CNC(C)C(=O)NC(C(=O)N1Cc2cc([101O:1][101CH2:1]C3=C(C)N(c4cc(N)c(C[100NH:0][100C:0](=O)N5CCCC(n6nc(-c7ccc(Oc8ccc(F)cc8F)cc7)c(C(N)=O)c6N)C5)cc4N)CCC3=O)ccc2CC1C(=O)NC1CCCc2ccccc21)C(C)(C)C

> <Shape>
0.218

> <Color>
0.074

> <Negative vol penalty>
0.000

$$$$

  -OEChem-04052301143D

 87 96  0     1  0  0  0  0  0999 V2000
  -28.2350  -23.0962   17.5582 C   0  0  0  0  0  0  0  0  0  0  0  0
  -27.0639  -23.3656   18.2592 C   0  0  0  0  0  0  0  0  0  0  0  0
  -28.4183  -16.9148   22.4300 C   0  0  0  0  0  0  0  0  0  0  0  0
  -26.0146  -17.0317   22.2158 C   0  0  0  0  0  0  0  0  0  0  0  0
  -29.4322  -23.6961   17.9465 C   0  0  0  0  0  0  0  0  0  0  0  0
  -27.0897  -24.2342   19.3498 C   0  0  0  0  0  0  0  0  0  0  0  0
  -23.2446  -27.5293   19.3001 C   0  0  0  0  0  0  0  0  0  0  0  0
  -28.3897  -15.5811   22.0223 C   0  0  0  0  0  0  0  0  0  0  0  0
  -25.9861  -15.6980   21.8081 C   0  0  0  0  0  0  0  0  0  0  0  0
  -21.9983  -27.0598   19.7126 C   0  0  0  0  0  0  0  0  0  0  0  0
  -28.1148  -13.8690   19.1196 C   0  0  0  0  0  0  0  0  0  0  0  0
  -29.0554  -13.4599   18.1744 C   0  0  0  0  0  0  0  0  0  0  0  0
  -18.2460  -22.5475   25.1204 C   0  0  0  0  0  0  0  0  0  0  0  0
  -20.4570  -22.3419   24.1687 C   0  0  0  0  0  0  0  0  0  0  0  0
  -22.3445  -28.0627   21.8791 C   0  0  0  0  0  0  0  0  0  0  0  0
  -20.1888  -22.6041   26.5554 C   0  0  0  0  0  0  0  0  0  0  0  0
  -29.9272  -11.8418   19.7424 C   0  0  0  0  0  0  0  0  0  0  0  0
  -27.2307  -17.6400   22.5268 C   0  0  0  0  0  0  0  0  0  0  0  0
  -19.0723  -22.3916   24.0076 C   0  0  0  0  0  0  0  0  0  0  0  0
  -27.9309  -20.0845   22.3218 C   0  0  0  0  0  0  0  0  0  0  0  0
  -29.4708  -24.5800   19.0364 C   0  0  0  0  0  0  0  0  0  0  0  0
  -24.0562  -28.2609   20.1790 C   0  0  0  0  0  0  0  0  0  0  0  0
  -28.2888  -24.8454   19.7539 C   0  0  0  0  0  0  0  0  0  0  0  0
  -23.5995  -28.5425   21.4745 C   0  0  0  0  0  0  0  0  0  0  0  0
  -18.8042  -22.6538   26.3943 C   0  0  0  0  0  0  0  0  0  0  0  0
  -21.0153  -22.4482   25.4426 C   0  0  0  0  0  0  0  0  0  0  0  0
  -27.1737  -14.9727   21.7114 C   0  0  0  0  0  0  0  0  0  0  0  0
  -21.5493  -27.3240   21.0033 C   0  0  0  0  0  0  0  0  0  0  0  0
  -28.0804  -13.2647   20.3763 C   0  0  0  0  0  0  0  0  0  0  0  0
  -29.9616  -12.4462   18.4858 C   0  0  0  0  0  0  0  0  0  0  0  0
  -28.9866  -12.2510   20.6877 C   0  0  0  0  0  0  0  0  0  0  0  0
  -27.2594  -19.0175   22.9484 C   0  0  0  0  0  0  0  0  0  0  0  0
  -27.6473  -21.1762   23.1055 C   0  0  0  0  0  0  0  0  0  0  0  0
  -18.5386  -24.8139   22.3140 C   0  0  0  0  0  0  0  0  0  0  0  0
  -18.4830  -22.2780   22.6639 C   0  0  0  0  0  0  0  0  0  0  0  0
  -28.7386  -20.0884   21.1373 C   0  0  0  0  0  0  0  0  0  0  0  0
  -26.9345  -27.8315   21.4575 C   0  0  0  0  0  0  0  0  0  0  0  0
  -26.4527  -30.8344   22.5856 C   0  0  0  0  0  0  0  0  0  0  0  0
  -24.2395  -33.2822   23.4552 C   0  0  0  0  0  0  0  0  0  0  0  0
  -23.1375  -22.4889   26.7993 C   0  0  0  0  0  0  0  0  0  0  0  0
  -30.7975  -25.1675   19.4479 C   0  0  0  0  0  0  0  0  0  0  0  0
  -25.3865  -28.7832   19.7100 C   0  0  0  0  0  0  0  0  0  0  0  0
  -24.4239  -29.3408   22.4499 C   0  0  0  0  0  0  0  0  0  0  0  0
  -30.6686  -26.3670   20.3832 C   0  0  0  0  0  0  0  0  0  0  0  0
  -26.5995  -22.3726   27.6228 C   0  0  0  0  0  0  0  0  0  0  0  0
  -29.6694  -26.0706   21.4970 C   0  0  0  0  0  0  0  0  0  0  0  0
  -27.2236  -21.6014   26.4575 C   0  0  0  0  0  0  0  0  0  0  0  0
  -17.4258  -24.7870   20.2038 C   0  0  0  0  0  0  0  0  0  0  0  0
  -25.2186  -21.8302   27.9869 C   0  0  0  0  0  0  0  0  0  0  0  0
  -17.9047  -23.3933   20.5412 C   0  0  0  0  0  0  0  0  0  0  0  0
  -24.8969  -20.9669   25.7021 C   0  0  0  0  0  0  0  0  0  0  0  0
  -28.2716  -25.8013   20.9270 C   0  0  1  0  0  0  0  0  0  0  0  0
  -18.2612  -25.6903   21.1062 C   0  0  2  0  0  0  0  0  0  0  0  0
  -26.3502  -29.0779   20.8553 C   0  0  1  0  0  0  0  0  0  0  0  0
  -26.2610  -21.5186   25.2566 C   0  0  2  0  0  0  0  0  0  0  0  0
  -24.1432  -35.6129   24.3804 C   0  0  0  0  0  0  0  0  0  0  0  0
  -27.0629  -29.7509   25.3719 C   0  0  0  0  0  0  0  0  0  0  0  0
  -26.0428  -31.8282   26.3271 C   0  0  0  0  0  0  0  0  0  0  0  0
  -28.0678  -31.9874   24.8791 C   0  0  0  0  0  0  0  0  0  0  0  0
  -22.9165  -34.3191   21.0193 C   0  0  0  0  0  0  0  0  0  0  0  0
  -19.5703  -26.1222   20.4600 C   0  0  0  0  0  0  0  0  0  1  0  0
  -25.8370  -31.4221   23.8323 C   0  0  1  0  0  0  0  0  0  0  0  0
  -24.1917  -34.7622   23.1208 C   0  0  2  0  0  0  0  0  0  0  0  0
  -26.7377  -31.2304   25.0851 C   0  0  0  0  0  0  0  0  0  0  0  0
  -26.5992  -19.3971   24.0457 N   0  0  0  0  0  0  0  0  0  0  0  0
  -26.8544  -20.7147   24.1148 N   0  0  0  0  0  0  0  0  0  0  0  0
  -18.2806  -23.4657   21.9392 N   0  0  0  0  0  0  0  0  0  0  0  0
  -25.7201  -29.8243   21.9463 N   0  0  0  0  0  0  0  0  0  0  0  0
  -24.3601  -21.7845   26.8013 N   0  0  0  0  0  0  0  0  0  0  0  0
  -17.9689  -22.8119   27.5197 N   0  0  0  0  0  0  0  0  0  0  0  0
  -28.0013  -22.4763   23.0230 N   0  0  0  0  0  0  0  0  0  0  0  0
  -28.9273  -18.8797   20.4533 N   0  0  0  0  0  0  0  0  0  0  0  0
  -22.4219  -22.3984   25.6059 N   0  0  0  0  0  0  0  0  0  0  0  0
  -27.6281  -27.0440   20.5583 N   0  0  0  0  0  0  0  0  0  0  0  0
  -25.5351  -32.8150   23.5209 N   0  0  0  0  0  0  0  0  0  0  0  0
  -22.9864  -35.0691   22.2997 N   0  3  0  0  0  0  0  0  0  0  0  0
  -18.9608  -25.2411   23.3795 O   0  0  0  0  0  0  0  0  0  0  0  0
  -18.2257  -21.1494   22.2488 O   0  0  0  0  0  0  0  0  0  0  0  0
  -29.2905  -21.1297   20.7075 O   0  0  0  0  0  0  0  0  0  0  0  0
  -26.7697  -27.6019   22.6499 O   0  0  0  0  0  0  0  0  0  0  0  0
  -27.5402  -31.2610   22.1894 O   0  0  0  0  0  0  0  0  0  0  0  0
  -23.2286  -32.6089   23.6433 O   0  0  0  0  0  0  0  0  0  0  0  0
  -22.7666  -23.1477   27.7742 O   0  0  0  0  0  0  0  0  0  0  0  0
  -27.1455  -13.6715   21.3133 O   0  0  0  0  0  0  0  0  0  0  0  0
  -20.3336  -26.8663   21.4087 O   0  0  0  0  0  0  0  0  0  1  0  0
  -30.8638  -12.0523   17.5774 F   0  0  0  0  0  0  0  0  0  0  0  0
  -28.9577  -11.6659   21.8929 F   0  0  0  0  0  0  0  0  0  0  0  0
  1  2  1  0  0  0  0
  1  5  2  0  0  0  0
  2  6  2  0  0  0  0
  3  8  2  0  0  0  0
  3 18  1  0  0  0  0
  4  9  1  0  0  0  0
  4 18  2  0  0  0  0
  5 21  1  0  0  0  0
  6 23  1  0  0  0  0
  7 10  2  0  0  0  0
  7 22  1  0  0  0  0
  8 27  1  0  0  0  0
  9 27  2  0  0  0  0
 10 28  1  0  0  0  0
 11 12  2  0  0  0  0
 11 29  1  0  0  0  0
 12 30  1  0  0  0  0
 13 19  1  0  0  0  0
 13 25  2  0  0  0  0
 14 19  2  0  0  0  0
 14 26  1  0  0  0  0
 15 24  1  0  0  0  0
 15 28  2  0  0  0  0
 16 25  1  0  0  0  0
 16 26  2  0  0  0  0
 17 30  2  0  0  0  0
 17 31  1  0  0  0  0
 18 32  1  0  0  0  0
 19 35  1  0  0  0  0
 20 32  1  0  0  0  0
 20 33  2  0  0  0  0
 20 36  1  0  0  0  0
 21 23  2  0  0  0  0
 21 41  1  0  0  0  0
 22 24  2  0  0  0  0
 22 42  1  0  0  0  0
 23 52  1  0  0  0  0
 24 43  1  0  0  0  0
 25 70  1  0  0  0  0
 26 73  1  0  0  0  0
 27 84  1  0  0  0  0
 28 85  1  0  0  0  0
 29 31  2  0  0  0  0
 29 84  1  0  0  0  0
 30 86  1  0  0  0  0
 31 87  1  0  0  0  0
 32 65  2  0  0  0  0
 33 66  1  0  0  0  0
 33 71  1  0  0  0  0
 34 53  1  0  0  0  0
 34 67  1  0  0  0  0
 34 77  2  0  0  0  0
 35 67  1  0  0  0  0
 35 78  2  0  0  0  0
 36 72  1  0  0  0  0
 36 79  2  0  0  0  0
 37 54  1  0  0  0  0
 37 74  1  0  0  0  0
 37 80  2  0  0  0  0
 38 62  1  0  0  0  0
 38 68  1  0  0  0  0
 38 81  2  0  0  0  0
 39 63  1  0  0  0  0
 39 75  1  0  0  0  0
 39 82  2  0  0  0  0
 40 69  1  0  0  0  0
 40 73  1  0  0  0  0
 40 83  2  0  0  0  0
 41 44  1  0  0  0  0
 42 54  1  0  0  0  0
 43 68  1  0  0  0  0
 44 46  1  0  0  0  0
 45 47  1  0  0  0  0
 45 49  1  0  0  0  0
 46 52  1  0  0  0  0
 47 55  1  0  0  0  0
 48 50  1  0  0  0  0
 48 53  1  0  0  0  0
 49 69  1  0  0  0  0
 50 67  1  0  0  0  0
 51 55  1  0  0  0  0
 51 69  1  0  0  0  0
 52 74  1  0  0  0  0
 53 61  1  0  0  0  0
 54 68  1  0  0  0  0
 55 66  1  0  0  0  0
 56 63  1  0  0  0  0
 57 64  1  0  0  0  0
 58 64  1  0  0  0  0
 59 64  1  0  0  0  0
 60 76  1  0  0  0  0
 61 85  1  0  0  0  0
 62 64  1  0  0  0  0
 62 75  1  0  0  0  0
 63 76  1  0  0  0  0
 65 66  1  0  0  0  0
M  CHG  1  76   1
M  ISO  4  40 100  61 101  73 100  85 101
M  END
> <Batch ID>
0106

> <Smiles>
CNC(C)C(=O)NC(C(=O)N1Cc2cc([101O:1][101CH2:1]C3CCN(C(=O)c4cc(N)cc([100NH:0][100C:0](=O)N5CCCC(n6nc(-c7ccc(Oc8ccc(F)cc8F)cc7)c(C(N)=O)c6N)C5)c4)C3=O)ccc2CC1C(=O)NC1CCCc2ccccc21)C(C)(C)C

> <Shape>
0.250

> <Color>
0.061

> <Negative vol penalty>
0.000

$$$$

  -OEChem-04052301143D

 86 94  0     1  0  0  0  0  0999 V2000
  -20.8154  -24.8196   24.9943 C   0  0  0  0  0  0  0  0  0  0  0  0
  -21.8590  -24.8802   24.0763 C   0  0  0  0  0  0  0  0  0  0  0  0
  -23.9102  -11.1831   17.6487 C   0  0  0  0  0  0  0  0  0  0  0  0
  -24.0017   -9.7746   19.6094 C   0  0  0  0  0  0  0  0  0  0  0  0
  -19.7079  -25.6533   24.8450 C   0  0  0  0  0  0  0  0  0  0  0  0
  -21.7952  -25.7738   23.0078 C   0  0  0  0  0  0  0  0  0  0  0  0
  -26.1501  -28.2561   22.2885 C   0  0  0  0  0  0  0  0  0  0  0  0
  -27.8145  -20.3023   20.1763 C   0  0  0  0  0  0  0  0  0  0  0  0
  -27.9946  -21.6041   19.7089 C   0  0  0  0  0  0  0  0  0  0  0  0
  -23.4422  -10.1057   16.8965 C   0  0  0  0  0  0  0  0  0  0  0  0
  -23.5337   -8.6971   18.8573 C   0  0  0  0  0  0  0  0  0  0  0  0
  -27.1760  -27.5679   21.6422 C   0  0  0  0  0  0  0  0  0  0  0  0
  -24.7906   -6.4689   16.6469 C   0  0  0  0  0  0  0  0  0  0  0  0
  -25.4295   -5.2395   16.8086 C   0  0  0  0  0  0  0  0  0  0  0  0
  -26.6232  -28.6920   19.5806 C   0  0  0  0  0  0  0  0  0  0  0  0
  -29.6066  -19.5408   18.7462 C   0  0  0  0  0  0  0  0  0  0  0  0
  -23.3469   -4.2528   17.5342 C   0  0  0  0  0  0  0  0  0  0  0  0
  -24.1900  -11.0175   19.0051 C   0  0  0  0  0  0  0  0  0  0  0  0
  -23.9035  -13.0694   20.4936 C   0  0  0  0  0  0  0  0  0  0  0  0
  -19.6349  -26.5644   23.7796 C   0  0  0  0  0  0  0  0  0  0  0  0
  -25.3447  -29.1608   21.5819 C   0  0  0  0  0  0  0  0  0  0  0  0
  -20.6850  -26.6196   22.8434 C   0  0  0  0  0  0  0  0  0  0  0  0
  -25.5894  -29.3923   20.2208 C   0  0  0  0  0  0  0  0  0  0  0  0
  -28.6205  -19.2706   19.6950 C   0  0  0  0  0  0  0  0  0  0  0  0
  -28.9807  -21.8742   18.7601 C   0  0  0  0  0  0  0  0  0  0  0  0
  -23.2539   -8.8627   17.5008 C   0  0  0  0  0  0  0  0  0  0  0  0
  -27.4109  -27.7836   20.2874 C   0  0  0  0  0  0  0  0  0  0  0  0
  -23.4300   -6.5902   16.9290 C   0  0  0  0  0  0  0  0  0  0  0  0
  -24.7076   -4.1315   17.2522 C   0  0  0  0  0  0  0  0  0  0  0  0
  -29.7867  -20.8426   18.2787 C   0  0  0  0  0  0  0  0  0  0  0  0
  -22.7081   -5.4822   17.3726 C   0  0  0  0  0  0  0  0  0  0  0  0
  -24.6740  -12.1300   19.7825 C   0  0  0  0  0  0  0  0  0  0  0  0
  -24.8275  -13.9142   21.0584 C   0  0  0  0  0  0  0  0  0  0  0  0
  -25.0045  -18.3392   19.8217 C   0  0  0  0  0  0  0  0  0  0  0  0
  -26.0840  -17.5495   19.7957 C   0  0  0  0  0  0  0  0  0  0  0  0
  -22.4799  -13.1694   20.6313 C   0  0  0  0  0  0  0  0  0  0  0  0
  -22.2468  -29.3421   20.8936 C   0  0  0  0  0  0  0  0  0  0  0  0
  -23.0841  -32.2310   19.6789 C   0  0  0  0  0  0  0  0  0  0  0  0
  -28.4496  -24.3342   18.6577 C   0  0  0  0  0  0  0  0  0  0  0  0
  -25.5263  -34.2307   18.3813 C   0  0  0  0  0  0  0  0  0  0  0  0
  -29.5110  -17.0130   20.2478 C   0  0  0  0  0  0  0  0  0  0  0  0
  -18.3960  -27.4120   23.6329 C   0  0  0  0  0  0  0  0  0  0  0  0
  -24.2593  -29.9152   22.2998 C   0  0  0  0  0  0  0  0  0  0  0  0
  -24.7662  -30.3682   19.4219 C   0  0  0  0  0  0  0  0  0  0  0  0
  -18.5760  -28.5948   22.6849 C   0  0  0  0  0  0  0  0  0  0  0  0
  -29.8476  -13.5419   21.4513 C   0  0  0  0  0  0  0  0  0  0  0  0
  -19.2632  -28.1481   21.3984 C   0  0  0  0  0  0  0  0  0  0  0  0
  -28.4867  -12.9327   21.1184 C   0  0  0  0  0  0  0  0  0  0  0  0
  -30.2257  -14.6521   20.4752 C   0  0  0  0  0  0  0  0  0  0  0  0
  -27.8355  -15.1164   20.0262 C   0  0  0  0  0  0  0  0  0  0  0  0
  -20.6638  -27.5933   21.6851 C   0  0  1  0  0  0  0  0  0  0  0  0
  -23.1702  -30.4302   21.3639 C   0  0  1  0  0  0  0  0  0  0  0  0
  -27.4069  -14.0240   21.0176 C   0  0  1  0  0  0  0  0  0  0  0  0
  -25.8997  -36.5285   17.4442 C   0  0  0  0  0  0  0  0  0  0  0  0
  -21.7469  -31.3821   17.0710 C   0  0  0  0  0  0  0  0  0  0  0  0
  -22.9527  -33.2531   15.9249 C   0  0  0  0  0  0  0  0  0  0  0  0
  -21.3166  -33.7530   17.7404 C   0  0  0  0  0  0  0  0  0  0  0  0
  -27.4720  -34.9074   20.5063 C   0  0  0  0  0  0  0  0  0  0  0  0
  -27.1633  -17.5815   20.8263 C   0  0  0  0  0  0  0  0  0  0  0  0
  -28.9673  -25.5549   17.9056 C   0  0  0  0  0  0  0  0  0  0  0  0
  -28.2300  -26.8358   18.2659 C   0  0  0  0  0  0  0  0  0  1  0  0
  -23.5515  -32.7300   18.3330 C   0  0  1  0  0  0  0  0  0  0  0  0
  -25.9284  -35.6610   18.6930 C   0  0  2  0  0  0  0  0  0  0  0  0
  -22.4064  -32.7597   17.2816 C   0  0  0  0  0  0  0  0  0  0  0  0
  -25.9864  -12.3564   19.8845 N   0  0  0  0  0  0  0  0  0  0  0  0
  -26.0477  -13.4479   20.6663 N   0  0  0  0  0  0  0  0  0  0  0  0
  -23.7126  -31.0767   20.1672 N   0  0  0  0  0  0  0  0  0  0  0  0
  -29.1632  -15.6522   20.3637 N   0  0  0  0  0  0  0  0  0  0  0  0
  -24.7071  -15.0032   21.8471 N   0  0  0  0  0  0  0  0  0  0  0  0
  -21.6778  -12.2189   19.9851 N   0  0  0  0  0  0  0  0  0  0  0  0
  -29.1607  -23.1959   18.2874 N   0  0  0  0  0  0  0  0  0  0  0  0
  -21.5983  -28.6742   21.9148 N   0  0  0  0  0  0  0  0  0  0  0  0
  -24.1762  -34.0264   18.5727 N   0  0  0  0  0  0  0  0  0  0  0  0
  -28.4339  -17.9229   20.1783 N   0  0  0  0  0  0  0  0  0  0  0  0
  -27.3057  -35.6999   19.2608 N   0  3  0  0  0  0  0  0  0  0  0  0
  -21.9347  -14.0843   21.2939 O   0  0  0  0  0  0  0  0  0  0  0  0
  -22.1301  -29.1256   19.6931 O   0  0  0  0  0  0  0  0  0  0  0  0
  -22.1992  -32.8469   20.2783 O   0  0  0  0  0  0  0  0  0  0  0  0
  -27.5296  -24.4069   19.4656 O   0  0  0  0  0  0  0  0  0  0  0  0
  -26.3290  -33.3807   18.0022 O   0  0  0  0  0  0  0  0  0  0  0  0
  -30.6900  -17.3865   20.2375 O   0  0  0  0  0  0  0  0  0  0  0  0
  -22.7970   -7.8112   16.7672 O   0  0  0  0  0  0  0  0  0  0  0  0
  -28.4111  -27.1127   19.6540 O   0  0  0  0  0  0  0  0  0  1  0  0
  -25.3209   -2.9506   17.4059 F   0  0  0  0  0  0  0  0  0  0  0  0
  -30.7367  -21.0903   17.3655 F   0  0  0  0  0  0  0  0  0  0  0  0
  -21.4004   -5.5923   17.6440 F   0  0  0  0  0  0  0  0  0  0  0  0
  1  2  1  0  0  0  0
  1  5  2  0  0  0  0
  2  6  2  0  0  0  0
  3 10  2  0  0  0  0
  3 18  1  0  0  0  0
  4 11  1  0  0  0  0
  4 18  2  0  0  0  0
  5 20  1  0  0  0  0
  6 22  1  0  0  0  0
  7 12  2  0  0  0  0
  7 21  1  0  0  0  0
  8  9  2  0  0  0  0
  8 24  1  0  0  0  0
  9 25  1  0  0  0  0
 10 26  1  0  0  0  0
 11 26  2  0  0  0  0
 12 27  1  0  0  0  0
 13 14  2  0  0  0  0
 13 28  1  0  0  0  0
 14 29  1  0  0  0  0
 15 23  1  0  0  0  0
 15 27  2  0  0  0  0
 16 24  2  0  0  0  0
 16 30  1  0  0  0  0
 17 29  2  0  0  0  0
 17 31  1  0  0  0  0
 18 32  1  0  0  0  0
 19 32  1  0  0  0  0
 19 33  2  0  0  0  0
 19 36  1  0  0  0  0
 20 22  2  0  0  0  0
 20 42  1  0  0  0  0
 21 23  2  0  0  0  0
 21 43  1  0  0  0  0
 22 51  1  0  0  0  0
 23 44  1  0  0  0  0
 24 74  1  0  0  0  0
 25 30  2  0  0  0  0
 25 71  1  0  0  0  0
 26 82  1  0  0  0  0
 27 83  1  0  0  0  0
 28 31  2  0  0  0  0
 28 82  1  0  0  0  0
 29 84  1  0  0  0  0
 30 85  1  0  0  0  0
 31 86  1  0  0  0  0
 32 65  2  0  0  0  0
 33 66  1  0  0  0  0
 33 69  1  0  0  0  0
 34 35  2  0  0  0  0
 35 59  1  0  0  0  0
 36 70  1  0  0  0  0
 36 76  2  0  0  0  0
 37 52  1  0  0  0  0
 37 72  1  0  0  0  0
 37 77  2  0  0  0  0
 38 62  1  0  0  0  0
 38 67  1  0  0  0  0
 38 78  2  0  0  0  0
 39 60  1  0  0  0  0
 39 71  1  0  0  0  0
 39 79  2  0  0  0  0
 40 63  1  0  0  0  0
 40 73  1  0  0  0  0
 40 80  2  0  0  0  0
 41 68  1  0  0  0  0
 41 74  1  0  0  0  0
 41 81  2  0  0  0  0
 42 45  1  0  0  0  0
 43 52  1  0  0  0  0
 44 67  1  0  0  0  0
 45 47  1  0  0  0  0
 46 48  1  0  0  0  0
 46 49  1  0  0  0  0
 47 51  1  0  0  0  0
 48 53  1  0  0  0  0
 49 68  1  0  0  0  0
 50 53  1  0  0  0  0
 50 68  1  0  0  0  0
 51 72  1  0  0  0  0
 52 67  1  0  0  0  0
 53 66  1  0  0  0  0
 54 63  1  0  0  0  0
 55 64  1  0  0  0  0
 56 64  1  0  0  0  0
 57 64  1  0  0  0  0
 58 75  1  0  0  0  0
 59 74  1  0  0  0  0
 60 61  1  0  0  0  0
 61 83  1  0  0  0  0
 62 64  1  0  0  0  0
 62 73  1  0  0  0  0
 63 75  1  0  0  0  0
 65 66  1  0  0  0  0
M  CHG  1  75   1
M  ISO  4  41 100  61 101  74 100  83 101
M  END
> <Batch ID>
0106

> <Smiles>
C=CC[100N:0](c1ccc(NC(=O)C[101CH2:1][101O:1]c2ccc3c(c2)CN(C(=O)C(NC(=O)C(C)NC)C(C)(C)C)C(C(=O)NC2CCCc4ccccc42)C3)c(F)c1)[100C:0](=O)N1CCCC(n2nc(-c3ccc(Oc4ccc(F)cc4F)cc3)c(C(N)=O)c2N)C1

> <Shape>
0.239

> <Color>
0.123

> <Negative vol penalty>
0.000

$$$$

  -OEChem-04052301143D

 82 90  0     1  0  0  0  0  0999 V2000
  -20.2258  -29.0874   15.2992 C   0  0  0  0  0  0  0  0  0  0  0  0
  -21.5604  -28.8840   15.6352 C   0  0  0  0  0  0  0  0  0  0  0  0
  -28.8773  -14.6084   20.4630 C   0  0  0  0  0  0  0  0  0  0  0  0
  -29.1355  -15.9040   22.4858 C   0  0  0  0  0  0  0  0  0  0  0  0
  -19.5327  -30.1750   15.8289 C   0  0  0  0  0  0  0  0  0  0  0  0
  -22.2030  -29.7688   16.5004 C   0  0  0  0  0  0  0  0  0  0  0  0
  -24.9691  -27.3885   20.0115 C   0  0  0  0  0  0  0  0  0  0  0  0
  -28.7376  -13.4479   21.2241 C   0  0  0  0  0  0  0  0  0  0  0  0
  -28.9958  -14.7435   23.2469 C   0  0  0  0  0  0  0  0  0  0  0  0
  -26.2083  -26.8881   19.6144 C   0  0  0  0  0  0  0  0  0  0  0  0
  -30.9158  -12.1123   24.1531 C   0  0  0  0  0  0  0  0  0  0  0  0
  -31.8093  -11.9165   25.2061 C   0  0  0  0  0  0  0  0  0  0  0  0
  -27.2909  -28.8081   20.5946 C   0  0  0  0  0  0  0  0  0  0  0  0
  -29.9635  -11.8751   26.7645 C   0  0  0  0  0  0  0  0  0  0  0  0
  -29.0763  -15.8365   21.0938 C   0  0  0  0  0  0  0  0  0  0  0  0
  -28.1967  -17.9027   19.8836 C   0  0  0  0  0  0  0  0  0  0  0  0
  -20.1644  -31.0682   16.7086 C   0  0  0  0  0  0  0  0  0  0  0  0
  -24.8804  -28.6098   20.6948 C   0  0  0  0  0  0  0  0  0  0  0  0
  -21.5181  -30.8702   17.0413 C   0  0  0  0  0  0  0  0  0  0  0  0
  -26.0495  -29.3205   21.0016 C   0  0  0  0  0  0  0  0  0  0  0  0
  -28.7968  -13.5154   22.6161 C   0  0  0  0  0  0  0  0  0  0  0  0
  -27.3692  -27.5994   19.9034 C   0  0  0  0  0  0  0  0  0  0  0  0
  -29.5462  -12.1896   24.4058 C   0  0  0  0  0  0  0  0  0  0  0  0
  -31.3332  -11.7979   26.5119 C   0  0  0  0  0  0  0  0  0  0  0  0
  -29.0700  -12.0710   25.7115 C   0  0  0  0  0  0  0  0  0  0  0  0
  -29.2212  -17.0355   20.3081 C   0  0  0  0  0  0  0  0  0  0  0  0
  -34.2139  -23.7277   21.0613 C   0  0  0  0  0  0  0  0  0  0  0  0
  -28.8479  -18.8821   19.1742 C   0  0  0  0  0  0  0  0  0  0  0  0
  -33.0498  -24.2901   21.5216 C   0  0  0  0  0  0  0  0  0  0  0  0
  -26.7829  -17.8296   20.1104 C   0  0  0  0  0  0  0  0  0  0  0  0
  -23.5177  -31.4192   20.0997 C   0  0  0  0  0  0  0  0  0  0  0  0
  -30.7567  -26.3589   20.2678 C   0  0  0  0  0  0  0  0  0  0  0  0
  -24.4792  -32.0871   23.1248 C   0  0  0  0  0  0  0  0  0  0  0  0
  -26.6241  -31.4261   25.6957 C   0  0  0  0  0  0  0  0  0  0  0  0
  -34.4532  -20.9817   19.3235 C   0  0  0  0  0  0  0  0  0  0  0  0
  -19.3877  -32.2562   17.2186 C   0  0  0  0  0  0  0  0  0  0  0  0
  -23.5383  -29.1227   21.1398 C   0  0  0  0  0  0  0  0  0  0  0  0
  -26.0101  -30.6266   21.7507 C   0  0  0  0  0  0  0  0  0  0  0  0
  -20.0344  -32.9352   18.4231 C   0  0  0  0  0  0  0  0  0  0  0  0
  -32.7567  -19.6060   16.5118 C   0  0  0  0  0  0  0  0  0  0  0  0
  -21.5274  -33.1373   18.1842 C   0  0  0  0  0  0  0  0  0  0  0  0
  -31.5658  -18.8694   17.1276 C   0  0  0  0  0  0  0  0  0  0  0  0
  -34.0013  -19.5001   17.3903 C   0  0  0  0  0  0  0  0  0  0  0  0
  -32.6181  -19.1867   19.4059 C   0  0  0  0  0  0  0  0  0  0  0  0
  -22.2428  -31.7940   17.9961 C   0  0  1  0  0  0  0  0  0  0  0  0
  -23.5235  -30.6295   21.3780 C   0  0  1  0  0  0  0  0  0  0  0  0
  -31.3244  -19.3122   18.5833 C   0  0  2  0  0  0  0  0  0  0  0  0
  -27.1897  -32.1605   28.0276 C   0  0  0  0  0  0  0  0  0  0  0  0
  -25.8493  -34.5736   22.0067 C   0  0  0  0  0  0  0  0  0  0  0  0
  -27.1523  -34.7293   24.1389 C   0  0  0  0  0  0  0  0  0  0  0  0
  -24.6657  -34.9237   24.1818 C   0  0  0  0  0  0  0  0  0  0  0  0
  -26.0266  -28.7494   26.8081 C   0  0  0  0  0  0  0  0  0  0  0  0
  -34.7773  -22.3986   21.3351 C   0  0  0  0  0  0  0  0  0  0  0  0
  -32.0123  -26.6140   21.0816 C   0  0  0  0  0  0  0  0  0  0  0  0
  -29.7042  -27.4489   20.3288 C   0  0  0  0  0  0  0  0  0  1  0  0
  -25.7253  -32.6699   23.7464 C   0  0  1  0  0  0  0  0  0  0  0  0
  -26.3809  -31.1943   27.1761 C   0  0  2  0  0  0  0  0  0  0  0  0
  -25.8491  -34.2005   23.5026 C   0  0  0  0  0  0  0  0  0  0  0  0
  -30.4312  -17.4292   19.9020 N   0  0  0  0  0  0  0  0  0  0  0  0
  -34.8604  -24.6133   20.2446 N   0  0  0  0  0  0  0  0  0  0  0  0
  -34.1286  -25.7204   20.1823 N   0  0  0  0  0  0  0  0  0  0  0  0
  -30.1712  -18.5545   19.2149 N   0  0  0  0  0  0  0  0  0  0  0  0
  -33.0435  -25.5246   20.9488 N   0  0  0  0  0  0  0  0  0  0  0  0
  -24.6735  -31.0897   22.1589 N   0  0  0  0  0  0  0  0  0  0  0  0
  -33.7053  -19.9364   18.7571 N   0  0  0  0  0  0  0  0  0  0  0  0
  -28.4118  -19.9828   18.5256 N   0  0  0  0  0  0  0  0  0  0  0  0
  -32.0661  -23.8610   22.3354 N   0  0  0  0  0  0  0  0  0  0  0  0
  -26.2811  -16.7572   20.8605 N   0  0  0  0  0  0  0  0  0  0  0  0
  -22.4440  -31.1453   19.2740 N   0  0  0  0  0  0  0  0  0  0  0  0
  -25.6953  -32.2897   25.1546 N   0  0  0  0  0  0  0  0  0  0  0  0
  -34.1037  -21.3373   20.6205 N   0  0  0  0  0  0  0  0  0  0  0  0
  -26.7625  -29.8037   27.5522 N   0  3  0  0  0  0  0  0  0  0  0  0
  -25.9863  -18.6808   19.6474 O   0  0  0  0  0  0  0  0  0  0  0  0
  -24.4197  -32.2189   19.8794 O   0  0  0  0  0  0  0  0  0  0  0  0
  -30.5915  -25.3391   19.5996 O   0  0  0  0  0  0  0  0  0  0  0  0
  -23.3738  -32.4966   23.4883 O   0  0  0  0  0  0  0  0  0  0  0  0
  -27.5479  -30.8970   25.0816 O   0  0  0  0  0  0  0  0  0  0  0  0
  -35.3615  -21.5591   18.7163 O   0  0  0  0  0  0  0  0  0  0  0  0
  -28.6603  -12.3833   23.3591 O   0  0  0  0  0  0  0  0  0  0  0  0
  -28.5800  -27.1136   19.5163 O   0  0  0  0  0  0  0  0  0  1  0  0
  -32.1912  -11.6083   27.5228 F   0  0  0  0  0  0  0  0  0  0  0  0
  -27.7552  -12.1432   25.9602 F   0  0  0  0  0  0  0  0  0  0  0  0
  1  2  1  0  0  0  0
  1  5  2  0  0  0  0
  2  6  2  0  0  0  0
  3  8  2  0  0  0  0
  3 15  1  0  0  0  0
  4  9  1  0  0  0  0
  4 15  2  0  0  0  0
  5 17  1  0  0  0  0
  6 19  1  0  0  0  0
  7 10  2  0  0  0  0
  7 18  1  0  0  0  0
  8 21  1  0  0  0  0
  9 21  2  0  0  0  0
 10 22  1  0  0  0  0
 11 12  2  0  0  0  0
 11 23  1  0  0  0  0
 12 24  1  0  0  0  0
 13 20  1  0  0  0  0
 13 22  2  0  0  0  0
 14 24  2  0  0  0  0
 14 25  1  0  0  0  0
 15 26  1  0  0  0  0
 16 26  1  0  0  0  0
 16 28  2  0  0  0  0
 16 30  1  0  0  0  0
 17 19  2  0  0  0  0
 17 36  1  0  0  0  0
 18 20  2  0  0  0  0
 18 37  1  0  0  0  0
 19 45  1  0  0  0  0
 20 38  1  0  0  0  0
 21 79  1  0  0  0  0
 22 80  1  0  0  0  0
 23 25  2  0  0  0  0
 23 79  1  0  0  0  0
 24 81  1  0  0  0  0
 25 82  1  0  0  0  0
 26 59  2  0  0  0  0
 27 29  2  0  0  0  0
 27 53  1  0  0  0  0
 27 60  1  0  0  0  0
 28 62  1  0  0  0  0
 28 66  1  0  0  0  0
 29 63  1  0  0  0  0
 29 67  1  0  0  0  0
 30 68  1  0  0  0  0
 30 73  2  0  0  0  0
 31 46  1  0  0  0  0
 31 69  1  0  0  0  0
 31 74  2  0  0  0  0
 32 54  1  0  0  0  0
 32 55  1  0  0  0  0
 32 75  2  0  0  0  0
 33 56  1  0  0  0  0
 33 64  1  0  0  0  0
 33 76  2  0  0  0  0
 34 57  1  0  0  0  0
 34 70  1  0  0  0  0
 34 77  2  0  0  0  0
 35 65  1  0  0  0  0
 35 71  1  0  0  0  0
 35 78  2  0  0  0  0
 36 39  1  0  0  0  0
 37 46  1  0  0  0  0
 38 64  1  0  0  0  0
 39 41  1  0  0  0  0
 40 42  1  0  0  0  0
 40 43  1  0  0  0  0
 41 45  1  0  0  0  0
 42 47  1  0  0  0  0
 43 65  1  0  0  0  0
 44 47  1  0  0  0  0
 44 65  1  0  0  0  0
 45 69  1  0  0  0  0
 46 64  1  0  0  0  0
 47 62  1  0  0  0  0
 48 57  1  0  0  0  0
 49 58  1  0  0  0  0
 50 58  1  0  0  0  0
 51 58  1  0  0  0  0
 52 72  1  0  0  0  0
 53 71  1  0  0  0  0
 54 63  1  0  0  0  0
 55 80  1  0  0  0  0
 56 58  1  0  0  0  0
 56 70  1  0  0  0  0
 57 72  1  0  0  0  0
 59 62  1  0  0  0  0
 60 61  2  0  0  0  0
 61 63  1  0  0  0  0
M  CHG  1  72   1
M  ISO  4  35 100  55 101  71 100  80 101
M  END
> <Batch ID>
0106

> <Smiles>
CNC(C)C(=O)NC(C(=O)N1Cc2cc([101O:1][101CH2:1]C(=O)Cn3nnc(C[100NH:0][100C:0](=O)N4CCCC(n5nc(-c6ccc(Oc7ccc(F)cc7F)cc6)c(C(N)=O)c5N)C4)c3N)ccc2CC1C(=O)NC1CCCc2ccccc21)C(C)(C)C

> <Shape>
0.213

> <Color>
0.096

> <Negative vol penalty>
0.000

$$$$
