
  -OEChem-04052301173D

 82 91  0     1  0  0  0  0  0999 V2000
  -29.5647  -36.1827   18.7172 C   0  0  0  0  0  0  0  0  0  0  0  0
  -29.3709  -34.8578   18.3400 C   0  0  0  0  0  0  0  0  0  0  0  0
  -24.7773   -8.6765   21.4780 C   0  0  0  0  0  0  0  0  0  0  0  0
  -23.1426  -10.3850   20.9821 C   0  0  0  0  0  0  0  0  0  0  0  0
  -29.3981  -36.5586   20.0495 C   0  0  0  0  0  0  0  0  0  0  0  0
  -29.0114  -33.9075   19.2952 C   0  0  0  0  0  0  0  0  0  0  0  0
  -25.3344  -29.0781   18.4814 C   0  0  0  0  0  0  0  0  0  0  0  0
  -23.8868   -8.0844   22.3735 C   0  0  0  0  0  0  0  0  0  0  0  0
  -22.2520   -9.7928   21.8776 C   0  0  0  0  0  0  0  0  0  0  0  0
  -25.5961  -27.7298   18.2415 C   0  0  0  0  0  0  0  0  0  0  0  0
  -21.9105   -5.9169   24.5209 C   0  0  0  0  0  0  0  0  0  0  0  0
  -21.7681   -4.5302   24.4726 C   0  0  0  0  0  0  0  0  0  0  0  0
  -25.3724  -27.2731   20.5996 C   0  0  0  0  0  0  0  0  0  0  0  0
  -27.6198  -19.0935   19.4653 C   0  0  0  0  0  0  0  0  0  0  0  0
  -21.0295   -4.6861   22.1775 C   0  0  0  0  0  0  0  0  0  0  0  0
  -25.4863  -18.2243   19.1570 C   0  0  0  0  0  0  0  0  0  0  0  0
  -24.4052   -9.8268   20.7823 C   0  0  0  0  0  0  0  0  0  0  0  0
  -25.4561  -10.1661   18.4827 C   0  0  0  0  0  0  0  0  0  0  0  0
  -29.0269  -35.6143   21.0197 C   0  0  0  0  0  0  0  0  0  0  0  0
  -25.1002  -29.5366   19.7857 C   0  0  0  0  0  0  0  0  0  0  0  0
  -28.8410  -34.2708   20.6419 C   0  0  0  0  0  0  0  0  0  0  0  0
  -25.1054  -28.6272   20.8530 C   0  0  0  0  0  0  0  0  0  0  0  0
  -26.7951  -17.9316   19.4714 C   0  0  0  0  0  0  0  0  0  0  0  0
  -22.6242   -8.6425   22.5734 C   0  0  0  0  0  0  0  0  0  0  0  0
  -25.6180  -26.8276   19.3011 C   0  0  0  0  0  0  0  0  0  0  0  0
  -21.6123   -6.6883   23.3976 C   0  0  0  0  0  0  0  0  0  0  0  0
  -21.3276   -3.9148   23.3009 C   0  0  0  0  0  0  0  0  0  0  0  0
  -21.1719   -6.0729   22.2259 C   0  0  0  0  0  0  0  0  0  0  0  0
  -25.3248  -10.4393   19.8574 C   0  0  0  0  0  0  0  0  0  0  0  0
  -26.4589  -11.0043   18.0603 C   0  0  0  0  0  0  0  0  0  0  0  0
  -26.9098  -20.2301   19.1462 C   0  0  0  0  0  0  0  0  0  0  0  0
  -27.5407  -23.8234   18.8974 C   0  0  0  0  0  0  0  0  0  0  0  0
  -27.1739  -25.0918   19.1091 C   0  0  0  0  0  0  0  0  0  1  0  0
  -24.7359   -9.2379   17.6609 C   0  0  0  0  0  0  0  0  0  0  0  0
  -26.5450  -31.5901   21.7350 C   0  0  0  0  0  0  0  0  0  0  0  0
  -23.9704  -31.0101   23.6211 C   0  0  0  0  0  0  0  0  0  0  0  0
  -21.4291  -28.9032   24.4870 C   0  0  0  0  0  0  0  0  0  0  0  0
  -28.5416  -16.2245   20.0892 C   0  0  0  0  0  0  0  0  0  0  0  0
  -28.9048  -36.0587   22.4558 C   0  0  0  0  0  0  0  0  0  0  0  0
  -24.7930  -30.9895   20.0244 C   0  0  0  0  0  0  0  0  0  0  0  0
  -24.8401  -29.0653   22.2694 C   0  0  0  0  0  0  0  0  0  0  0  0
  -28.9483  -23.3180   18.9299 C   0  0  0  0  0  0  0  0  0  0  0  0
  -26.5957  -22.6748   18.7098 C   0  0  0  0  0  0  0  0  0  0  0  0
  -28.1574  -35.0637   23.3398 C   0  0  0  0  0  0  0  0  0  0  0  0
  -30.3998  -13.2209   19.6384 C   0  0  0  0  0  0  0  0  0  0  0  0
  -28.6662  -33.6464   23.0966 C   0  0  0  0  0  0  0  0  0  0  0  0
  -29.3210  -12.1427   19.5122 C   0  0  0  0  0  0  0  0  0  0  0  0
  -28.7814  -21.8787   19.4091 C   0  0  0  0  0  0  0  0  0  0  0  0
  -30.0091  -14.2986   20.6483 C   0  0  0  0  0  0  0  0  0  0  0  0
  -27.6153  -13.8341   20.2976 C   0  0  0  0  0  0  0  0  0  0  0  0
  -28.4263  -33.2158   21.6445 C   0  0  1  0  0  0  0  0  0  0  0  0
  -25.0769  -31.4329   21.4563 C   0  0  1  0  0  0  0  0  0  0  0  0
  -27.9349  -12.7611   19.2440 C   0  0  2  0  0  0  0  0  0  0  0  0
  -19.5105  -28.6853   26.0899 C   0  0  0  0  0  0  0  0  0  0  0  0
  -25.9239  -30.3246   25.8625 C   0  0  0  0  0  0  0  0  0  0  0  0
  -24.0319  -29.2286   27.0819 C   0  0  0  0  0  0  0  0  0  0  0  0
  -23.9425  -31.6707   26.5810 C   0  0  0  0  0  0  0  0  0  0  0  0
  -19.4523  -28.7945   22.2871 C   0  0  0  0  0  0  0  0  0  0  0  0
  -23.6401  -30.0079   24.7007 C   0  0  1  0  0  0  0  0  0  0  0  0
  -19.9478  -29.1498   24.7093 C   0  0  2  0  0  0  0  0  0  0  0  0
  -24.3916  -30.2997   26.0302 C   0  0  0  0  0  0  0  0  0  0  0  0
  -26.1762  -11.3774   20.2803 N   0  0  0  0  0  0  0  0  0  0  0  0
  -26.8522  -11.7011   19.1648 N   0  0  0  0  0  0  0  0  0  0  0  0
  -27.4119  -21.5134   19.0545 N   0  0  3  0  0  0  0  0  0  0  0  0
  -24.5509  -30.4973   22.4524 N   0  0  0  0  0  0  0  0  0  0  0  0
  -28.6871  -14.8416   20.3284 N   0  0  0  0  0  0  0  0  0  0  0  0
  -27.0338  -11.2057   16.8556 N   0  0  0  0  0  0  0  0  0  0  0  0
  -23.7375   -8.4541   18.2554 N   0  0  0  0  0  0  0  0  0  0  0  0
  -27.2449  -16.6198   19.7625 N   0  0  0  0  0  0  0  0  0  0  0  0
  -27.0404  -32.8479   21.4488 N   0  0  0  0  0  0  0  0  0  0  0  0
  -22.1864  -30.0051   24.8242 N   0  0  0  0  0  0  0  0  0  0  0  0
  -19.1424  -28.4187   23.6906 N   0  3  0  0  0  0  0  0  0  0  0  0
  -24.9819   -9.0956   16.4391 O   0  0  0  0  0  0  0  0  0  0  0  0
  -27.1808  -30.6409   22.1783 O   0  0  0  0  0  0  0  0  0  0  0  0
  -23.7159  -32.2030   23.8050 O   0  0  0  0  0  0  0  0  0  0  0  0
  -21.8705  -27.8384   24.0608 O   0  0  0  0  0  0  0  0  0  0  0  0
  -29.5023  -16.9967   20.1417 O   0  0  0  0  0  0  0  0  0  0  0  0
  -21.7549   -8.0648   23.4470 O   0  0  0  0  0  0  0  0  0  0  0  0
  -25.8738  -25.5112   19.0698 O   0  0  0  0  0  0  0  0  0  1  0  0
  -21.1924   -2.5830   23.2541 F   0  0  0  0  0  0  0  0  0  0  0  0
  -20.8850   -6.8085   21.1432 F   0  0  0  0  0  0  0  0  0  0  0  0
  -25.2559  -19.8943   18.8560 S   0  0  0  0  0  0  0  0  0  0  0  0
  1  2  1  0  0  0  0
  1  5  2  0  0  0  0
  2  6  2  0  0  0  0
  3  8  2  0  0  0  0
  3 17  1  0  0  0  0
  4  9  1  0  0  0  0
  4 17  2  0  0  0  0
  5 19  1  0  0  0  0
  6 21  1  0  0  0  0
  7 10  2  0  0  0  0
  7 20  1  0  0  0  0
  8 24  1  0  0  0  0
  9 24  2  0  0  0  0
 10 25  1  0  0  0  0
 11 12  2  0  0  0  0
 11 26  1  0  0  0  0
 12 27  1  0  0  0  0
 13 22  1  0  0  0  0
 13 25  2  0  0  0  0
 14 23  1  0  0  0  0
 14 31  2  0  0  0  0
 15 27  2  0  0  0  0
 15 28  1  0  0  0  0
 16 23  2  0  0  0  0
 16 82  1  0  0  0  0
 17 29  1  0  0  0  0
 18 29  1  0  0  0  0
 18 30  2  0  0  0  0
 18 34  1  0  0  0  0
 19 21  2  0  0  0  0
 19 39  1  0  0  0  0
 20 22  2  0  0  0  0
 20 40  1  0  0  0  0
 21 51  1  0  0  0  0
 22 41  1  0  0  0  0
 23 69  1  0  0  0  0
 24 78  1  0  0  0  0
 25 79  1  0  0  0  0
 26 28  2  0  0  0  0
 26 78  1  0  0  0  0
 27 80  1  0  0  0  0
 28 81  1  0  0  0  0
 29 62  2  0  0  0  0
 30 63  1  0  0  0  0
 30 67  1  0  0  0  0
 31 64  1  0  0  0  0
 31 82  1  0  0  0  0
 32 33  2  0  0  0  0
 32 42  1  0  0  0  0
 32 43  1  0  0  0  0
 33 79  1  0  0  0  0
 34 68  1  0  0  0  0
 34 73  2  0  0  0  0
 35 52  1  0  0  0  0
 35 70  1  0  0  0  0
 35 74  2  0  0  0  0
 36 59  1  0  0  0  0
 36 65  1  0  0  0  0
 36 75  2  0  0  0  0
 37 60  1  0  0  0  0
 37 71  1  0  0  0  0
 37 76  2  0  0  0  0
 38 66  1  0  0  0  0
 38 69  1  0  0  0  0
 38 77  2  0  0  0  0
 39 44  1  0  0  0  0
 40 52  1  0  0  0  0
 41 65  1  0  0  0  0
 42 48  1  0  0  0  0
 43 64  1  0  0  0  0
 44 46  1  0  0  0  0
 45 47  1  0  0  0  0
 45 49  1  0  0  0  0
 46 51  1  0  0  0  0
 47 53  1  0  0  0  0
 48 64  1  0  0  0  0
 49 66  1  0  0  0  0
 50 53  1  0  0  0  0
 50 66  1  0  0  0  0
 51 70  1  0  0  0  0
 52 65  1  0  0  0  0
 53 63  1  0  0  0  0
 54 60  1  0  0  0  0
 55 61  1  0  0  0  0
 56 61  1  0  0  0  0
 57 61  1  0  0  0  0
 58 72  1  0  0  0  0
 59 61  1  0  0  0  0
 59 71  1  0  0  0  0
 60 72  1  0  0  0  0
 62 63  1  0  0  0  0
M  CHG  1  72   1
M  ISO  4  33 101  38 100  69 100  79 101
M  END
> <Batch ID>
0107

> <Smiles>
CNC(C)C(=O)NC(C(=O)N1Cc2cc([101O:1][101CH:1]=C3CCN(c4cc([100NH:0][100C:0](=O)N5CCCC(n6nc(-c7ccc(Oc8ccc(F)cc8F)cc7)c(C(N)=O)c6N)C5)cs4)C3)ccc2CC1C(=O)NC1CCCc2ccccc21)C(C)(C)C

> <Shape>
0.272

> <Color>
0.112

> <Negative vol penalty>
0.000

$$$$

  -OEChem-04052301173D

 86 94  0     1  0  0  0  0  0999 V2000
  -29.1326  -24.2802   18.2153 C   0  0  0  0  0  0  0  0  0  0  0  0
  -27.8768  -24.4874   18.7769 C   0  0  0  0  0  0  0  0  0  0  0  0
  -28.5143  -18.8171   22.4789 C   0  0  0  0  0  0  0  0  0  0  0  0
  -27.1630  -18.9019   20.4779 C   0  0  0  0  0  0  0  0  0  0  0  0
  -30.2474  -24.9290   18.7447 C   0  0  0  0  0  0  0  0  0  0  0  0
  -27.7352  -25.3428   19.8690 C   0  0  0  0  0  0  0  0  0  0  0  0
  -23.7726  -28.4601   19.3943 C   0  0  0  0  0  0  0  0  0  0  0  0
  -29.5403  -18.2037   21.7601 C   0  0  0  0  0  0  0  0  0  0  0  0
  -28.1890  -18.2885   19.7591 C   0  0  0  0  0  0  0  0  0  0  0  0
  -22.5101  -27.9293   19.6554 C   0  0  0  0  0  0  0  0  0  0  0  0
  -29.4146  -15.1656   19.3391 C   0  0  0  0  0  0  0  0  0  0  0  0
  -29.0691  -14.1263   18.4754 C   0  0  0  0  0  0  0  0  0  0  0  0
  -22.5551  -28.9200   21.8544 C   0  0  0  0  0  0  0  0  0  0  0  0
  -16.8924  -18.9923   23.3302 C   0  0  0  0  0  0  0  0  0  0  0  0
  -16.3901  -21.2460   22.6192 C   0  0  0  0  0  0  0  0  0  0  0  0
  -29.9657  -15.3764   16.6125 C   0  0  0  0  0  0  0  0  0  0  0  0
  -27.3256  -19.1662   21.8378 C   0  0  0  0  0  0  0  0  0  0  0  0
  -26.0684  -21.1802   22.7711 C   0  0  0  0  0  0  0  0  0  0  0  0
  -30.1179  -25.8002   19.8378 C   0  0  0  0  0  0  0  0  0  0  0  0
  -24.4417  -29.2169   20.3669 C   0  0  0  0  0  0  0  0  0  0  0  0
  -28.8495  -26.0028   20.4144 C   0  0  0  0  0  0  0  0  0  0  0  0
  -23.8249  -29.4614   21.6022 C   0  0  0  0  0  0  0  0  0  0  0  0
  -17.9462  -18.9393   22.4180 C   0  0  0  0  0  0  0  0  0  0  0  0
  -16.1143  -20.1456   23.4308 C   0  0  0  0  0  0  0  0  0  0  0  0
  -29.3777  -17.9394   20.4002 C   0  0  0  0  0  0  0  0  0  0  0  0
  -21.9024  -28.1569   20.8867 C   0  0  0  0  0  0  0  0  0  0  0  0
  -30.0356  -16.3104   18.8395 C   0  0  0  0  0  0  0  0  0  0  0  0
  -17.4440  -21.1930   21.7069 C   0  0  0  0  0  0  0  0  0  0  0  0
  -18.2220  -20.0396   21.6063 C   0  0  0  0  0  0  0  0  0  0  0  0
  -29.3447  -14.2317   17.1121 C   0  0  0  0  0  0  0  0  0  0  0  0
  -30.3112  -16.4158   17.4762 C   0  0  0  0  0  0  0  0  0  0  0  0
  -26.2652  -19.7994   22.5799 C   0  0  0  0  0  0  0  0  0  0  0  0
  -24.9333  -21.2620   23.5400 C   0  0  0  0  0  0  0  0  0  0  0  0
  -26.8424  -22.2896   22.2959 C   0  0  0  0  0  0  0  0  0  0  0  0
  -27.1688  -28.9029   21.9693 C   0  0  0  0  0  0  0  0  0  0  0  0
  -26.4199  -31.8667   23.0544 C   0  0  0  0  0  0  0  0  0  0  0  0
  -24.0090  -34.2005   23.6771 C   0  0  0  0  0  0  0  0  0  0  0  0
  -20.2569  -17.6026   24.3091 C   0  0  0  0  0  0  0  0  0  0  0  0
  -31.3590  -26.4423   20.4054 C   0  0  0  0  0  0  0  0  0  0  0  0
  -25.7916  -29.8048   20.0599 C   0  0  0  0  0  0  0  0  0  0  0  0
  -24.4924  -30.2842   22.6727 C   0  0  0  0  0  0  0  0  0  0  0  0
  -31.0665  -27.6231   21.3276 C   0  0  0  0  0  0  0  0  0  0  0  0
  -22.4549  -18.8262   26.8287 C   0  0  0  0  0  0  0  0  0  0  0  0
  -29.9597  -27.2678   22.3152 C   0  0  0  0  0  0  0  0  0  0  0  0
  -23.6629  -19.3389   26.0428 C   0  0  0  0  0  0  0  0  0  0  0  0
  -21.8619  -17.5693   26.1957 C   0  0  0  0  0  0  0  0  0  0  0  0
  -22.7307  -18.2097   23.9801 C   0  0  0  0  0  0  0  0  0  0  0  0
  -28.6516  -26.9423   21.5842 C   0  0  1  0  0  0  0  0  0  0  0  0
  -26.6010  -30.1289   21.3118 C   0  0  1  0  0  0  0  0  0  0  0  0
  -23.3290  -19.5079   24.5484 C   0  0  2  0  0  0  0  0  0  0  0  0
  -23.6975  -36.5128   24.6010 C   0  0  0  0  0  0  0  0  0  0  0  0
  -26.7521  -30.7777   25.8853 C   0  0  0  0  0  0  0  0  0  0  0  0
  -25.5323  -32.7946   26.7294 C   0  0  0  0  0  0  0  0  0  0  0  0
  -27.7022  -33.0635   25.5287 C   0  0  0  0  0  0  0  0  0  0  0  0
  -22.9311  -35.2061   21.1108 C   0  0  0  0  0  0  0  0  0  0  0  0
  -18.9489  -19.5148   19.4036 C   0  0  0  0  0  0  0  0  0  0  0  0
  -18.7686  -17.6962   22.3253 C   0  0  0  0  0  0  0  0  0  0  0  0
  -19.3491  -25.6291   21.3522 C   0  0  0  0  0  0  0  0  0  0  0  0
  -18.9734  -24.3013   20.7036 C   0  0  0  0  0  0  0  0  0  0  0  0
  -20.3309  -26.4156   20.4938 C   0  0  0  0  0  0  0  0  0  1  0  0
  -18.0257  -23.4955   21.5807 C   0  0  0  0  0  0  0  0  0  0  0  0
  -25.6368  -32.4103   24.2249 C   0  0  1  0  0  0  0  0  0  0  0  0
  -23.9315  -35.6808   23.3497 C   0  0  2  0  0  0  0  0  0  0  0  0
  -26.3938  -32.2444   25.5728 C   0  0  0  0  0  0  0  0  0  0  0  0
  -25.3302  -19.0574   23.1793 N   0  0  0  0  0  0  0  0  0  0  0  0
  -24.5350  -19.9753   23.7547 N   0  0  0  0  0  0  0  0  0  0  0  0
  -25.8144  -30.8323   22.3270 N   0  0  0  0  0  0  0  0  0  0  0  0
  -21.5663  -17.7968   24.7791 N   0  0  0  0  0  0  0  0  0  0  0  0
  -15.0491  -20.1993   24.3539 N   0  0  0  0  0  0  0  0  0  0  0  0
  -24.2471  -22.3082   24.0469 N   0  0  0  0  0  0  0  0  0  0  0  0
  -27.9786  -22.0274   21.5184 N   0  0  0  0  0  0  0  0  0  0  0  0
  -27.9981  -28.1590   21.1517 N   0  0  0  0  0  0  0  0  0  0  0  0
  -25.3086  -33.7919   23.8901 N   0  0  0  0  0  0  0  0  0  0  0  0
  -20.0615  -17.8462   22.9551 N   0  0  0  0  0  0  0  0  0  0  0  0
  -22.8168  -35.9426   22.3958 N   0  3  0  0  0  0  0  0  0  0  0  0
  -26.5447  -23.4777   22.5670 O   0  0  0  0  0  0  0  0  0  0  0  0
  -26.8775  -28.6514   23.1327 O   0  0  0  0  0  0  0  0  0  0  0  0
  -27.5251  -32.3471   22.7907 O   0  0  0  0  0  0  0  0  0  0  0  0
  -23.0157  -33.4796   23.7413 O   0  0  0  0  0  0  0  0  0  0  0  0
  -19.3295  -17.2443   25.0429 O   0  0  0  0  0  0  0  0  0  0  0  0
  -30.3787  -17.3410   19.6985 O   0  0  0  0  0  0  0  0  0  0  0  0
  -19.2509  -19.9922   20.7125 O   0  0  0  0  0  0  0  0  0  0  0  0
  -20.6704  -27.6395   21.1444 O   0  0  0  0  0  0  0  0  0  1  0  0
  -17.7039  -22.2818   20.9157 O   0  0  0  0  0  0  0  0  0  0  0  0
  -29.0143  -13.2329   16.2829 F   0  0  0  0  0  0  0  0  0  0  0  0
  -30.9087  -17.5126   16.9906 F   0  0  0  0  0  0  0  0  0  0  0  0
  1  2  1  0  0  0  0
  1  5  2  0  0  0  0
  2  6  2  0  0  0  0
  3  8  2  0  0  0  0
  3 17  1  0  0  0  0
  4  9  1  0  0  0  0
  4 17  2  0  0  0  0
  5 19  1  0  0  0  0
  6 21  1  0  0  0  0
  7 10  2  0  0  0  0
  7 20  1  0  0  0  0
  8 25  1  0  0  0  0
  9 25  2  0  0  0  0
 10 26  1  0  0  0  0
 11 12  2  0  0  0  0
 11 27  1  0  0  0  0
 12 30  1  0  0  0  0
 13 22  1  0  0  0  0
 13 26  2  0  0  0  0
 14 23  2  0  0  0  0
 14 24  1  0  0  0  0
 15 24  2  0  0  0  0
 15 28  1  0  0  0  0
 16 30  2  0  0  0  0
 16 31  1  0  0  0  0
 17 32  1  0  0  0  0
 18 32  1  0  0  0  0
 18 33  2  0  0  0  0
 18 34  1  0  0  0  0
 19 21  2  0  0  0  0
 19 39  1  0  0  0  0
 20 22  2  0  0  0  0
 20 40  1  0  0  0  0
 21 48  1  0  0  0  0
 22 41  1  0  0  0  0
 23 29  1  0  0  0  0
 23 57  1  0  0  0  0
 24 69  1  0  0  0  0
 25 81  1  0  0  0  0
 26 83  1  0  0  0  0
 27 31  2  0  0  0  0
 27 81  1  0  0  0  0
 28 29  2  0  0  0  0
 28 84  1  0  0  0  0
 29 82  1  0  0  0  0
 30 85  1  0  0  0  0
 31 86  1  0  0  0  0
 32 65  2  0  0  0  0
 33 66  1  0  0  0  0
 33 70  1  0  0  0  0
 34 71  1  0  0  0  0
 34 76  2  0  0  0  0
 35 49  1  0  0  0  0
 35 72  1  0  0  0  0
 35 77  2  0  0  0  0
 36 62  1  0  0  0  0
 36 67  1  0  0  0  0
 36 78  2  0  0  0  0
 37 63  1  0  0  0  0
 37 73  1  0  0  0  0
 37 79  2  0  0  0  0
 38 68  1  0  0  0  0
 38 74  1  0  0  0  0
 38 80  2  0  0  0  0
 39 42  1  0  0  0  0
 40 49  1  0  0  0  0
 41 67  1  0  0  0  0
 42 44  1  0  0  0  0
 43 45  1  0  0  0  0
 43 46  1  0  0  0  0
 44 48  1  0  0  0  0
 45 50  1  0  0  0  0
 46 68  1  0  0  0  0
 47 50  1  0  0  0  0
 47 68  1  0  0  0  0
 48 72  1  0  0  0  0
 49 67  1  0  0  0  0
 50 66  1  0  0  0  0
 51 63  1  0  0  0  0
 52 64  1  0  0  0  0
 53 64  1  0  0  0  0
 54 64  1  0  0  0  0
 55 75  1  0  0  0  0
 56 82  1  0  0  0  0
 57 74  1  0  0  0  0
 58 59  1  0  0  0  0
 58 60  1  0  0  0  0
 59 61  1  0  0  0  0
 60 83  1  0  0  0  0
 61 84  1  0  0  0  0
 62 64  1  0  0  0  0
 62 73  1  0  0  0  0
 63 75  1  0  0  0  0
 65 66  1  0  0  0  0
M  CHG  1  75   1
M  ISO  4  38 100  60 101  74 100  83 101
M  END
> <Batch ID>
0107

> <Smiles>
CNC(C)C(=O)NC(C(=O)N1Cc2cc([101O:1][101CH2:1]CCCOc3cc(N)cc(C[100NH:0][100C:0](=O)N4CCCC(n5nc(-c6ccc(Oc7ccc(F)cc7F)cc6)c(C(N)=O)c5N)C4)c3OC)ccc2CC1C(=O)NC1CCCc2ccccc21)C(C)(C)C

> <Shape>
0.225

> <Color>
0.052

> <Negative vol penalty>
0.000

$$$$

  -OEChem-04052301173D

 86 95  0     1  0  0  0  0  0999 V2000
  -30.2551  -12.2244   20.0826 C   0  0  0  0  0  0  0  0  0  0  0  0
  -30.0950  -13.5307   19.6317 C   0  0  0  0  0  0  0  0  0  0  0  0
  -25.8850  -31.0702   22.2797 C   0  0  0  0  0  0  0  0  0  0  0  0
  -26.2023  -29.0215   23.5204 C   0  0  0  0  0  0  0  0  0  0  0  0
  -29.1601  -11.3622   20.1206 C   0  0  0  0  0  0  0  0  0  0  0  0
  -28.8399  -13.9752   19.2175 C   0  0  0  0  0  0  0  0  0  0  0  0
  -25.6734  -19.6181   22.3834 C   0  0  0  0  0  0  0  0  0  0  0  0
  -26.0162  -24.6374   22.5465 C   0  0  0  0  0  0  0  0  0  0  0  0
  -27.2433  -24.1088   22.1459 C   0  0  0  0  0  0  0  0  0  0  0  0
  -25.9823  -31.8019   23.4632 C   0  0  0  0  0  0  0  0  0  0  0  0
  -26.2997  -29.7532   24.7039 C   0  0  0  0  0  0  0  0  0  0  0  0
  -25.0953  -20.8184   22.7970 C   0  0  0  0  0  0  0  0  0  0  0  0
  -23.9985  -32.5603   26.0926 C   0  0  0  0  0  0  0  0  0  0  0  0
  -23.0644  -33.5740   26.3055 C   0  0  0  0  0  0  0  0  0  0  0  0
  -23.1944  -20.4107   21.3587 C   0  0  0  0  0  0  0  0  0  0  0  0
  -25.1258  -24.2466   20.3348 C   0  0  0  0  0  0  0  0  0  0  0  0
  -24.8509  -35.1966   26.4183 C   0  0  0  0  0  0  0  0  0  0  0  0
  -25.9949  -29.6799   22.3083 C   0  0  0  0  0  0  0  0  0  0  0  0
  -24.7996  -28.8793   20.2017 C   0  0  0  0  0  0  0  0  0  0  0  0
  -27.8890  -11.7992   19.7157 C   0  0  0  0  0  0  0  0  0  0  0  0
  -25.0063  -18.8011   21.4664 C   0  0  0  0  0  0  0  0  0  0  0  0
  -27.7272  -13.1176   19.2488 C   0  0  0  0  0  0  0  0  0  0  0  0
  -23.7629  -19.2013   20.9502 C   0  0  0  0  0  0  0  0  0  0  0  0
  -26.3529  -23.7180   19.9342 C   0  0  0  0  0  0  0  0  0  0  0  0
  -24.9574  -24.7062   21.6409 C   0  0  0  0  0  0  0  0  0  0  0  0
  -27.4117  -23.6491   20.8398 C   0  0  0  0  0  0  0  0  0  0  0  0
  -26.1897  -31.1435   24.6753 C   0  0  0  0  0  0  0  0  0  0  0  0
  -23.8590  -21.2138   22.2857 C   0  0  0  0  0  0  0  0  0  0  0  0
  -25.3588  -32.8647   26.0426 C   0  0  0  0  0  0  0  0  0  0  0  0
  -23.4905  -34.8922   26.4684 C   0  0  0  0  0  0  0  0  0  0  0  0
  -25.7850  -34.1828   26.2054 C   0  0  0  0  0  0  0  0  0  0  0  0
  -25.8939  -28.9234   21.0862 C   0  0  0  0  0  0  0  0  0  0  0  0
  -25.1989  -28.0242   19.2038 C   0  0  0  0  0  0  0  0  0  0  0  0
  -21.3308  -25.1657   22.3523 C   0  0  0  0  0  0  0  0  0  0  0  0
  -22.4884  -24.5491   22.0351 C   0  0  0  0  0  0  0  0  0  0  0  0
  -23.5352  -29.5512   20.2755 C   0  0  0  0  0  0  0  0  0  0  0  0
  -25.0121  -15.6122   19.4899 C   0  0  0  0  0  0  0  0  0  0  0  0
  -22.1496  -16.0201   20.5147 C   0  0  0  0  0  0  0  0  0  0  0  0
  -19.4046  -15.3099   21.8799 C   0  0  0  0  0  0  0  0  0  0  0  0
  -29.4698  -23.6433   19.4062 C   0  0  0  0  0  0  0  0  0  0  0  0
  -26.7449  -10.8166   19.7300 C   0  0  0  0  0  0  0  0  0  0  0  0
  -25.6198  -17.5295   20.9463 C   0  0  0  0  0  0  0  0  0  0  0  0
  -23.0977  -18.3072   19.9397 C   0  0  0  0  0  0  0  0  0  0  0  0
  -21.2554  -26.6256   22.6875 C   0  0  0  0  0  0  0  0  0  0  0  0
  -25.3729  -11.4778   19.6270 C   0  0  0  0  0  0  0  0  0  0  0  0
  -22.5208  -27.3821   22.2870 C   0  0  0  0  0  0  0  0  0  0  0  0
  -29.1003  -26.4024   16.9683 C   0  0  0  0  0  0  0  0  0  0  0  0
  -25.3678  -12.5275   18.5202 C   0  0  0  0  0  0  0  0  0  0  0  0
  -28.2091  -27.3954   17.7122 C   0  0  0  0  0  0  0  0  0  0  0  0
  -23.7868  -26.5962   22.6308 C   0  0  0  0  0  0  0  0  0  0  0  0
  -29.9444  -25.5695   17.9282 C   0  0  0  0  0  0  0  0  0  0  0  0
  -28.2450  -25.8498   19.7100 C   0  0  0  0  0  0  0  0  0  0  0  0
  -26.3766  -13.6443   18.8144 C   0  0  1  0  0  0  0  0  0  0  0  0
  -24.5820  -16.4256   20.6751 C   0  0  1  0  0  0  0  0  0  0  0  0
  -27.3549  -26.6729   18.7669 C   0  0  1  0  0  0  0  0  0  0  0  0
  -26.5046  -23.2317   18.5293 C   0  0  0  0  0  0  0  0  0  0  0  0
  -19.0394  -12.8665   21.4397 C   0  0  0  0  0  0  0  0  0  0  0  0
  -21.6518  -18.1960   18.4359 C   0  0  0  0  0  0  0  0  0  0  0  0
  -19.2085  -17.6663   18.5702 C   0  0  0  0  0  0  0  0  0  0  0  0
  -20.8190  -15.9274   17.7921 C   0  0  0  0  0  0  0  0  0  0  0  0
  -29.0632  -21.7927   20.9688 C   0  0  0  0  0  0  0  0  0  0  0  0
  -16.4772  -15.6721   21.6393 C   0  0  0  0  0  0  0  0  0  0  0  0
  -22.4601  -23.0655   21.7640 C   0  0  0  0  0  0  0  0  0  1  0  0
  -20.7728  -16.5686   20.2372 C   0  0  1  0  0  0  0  0  0  0  0  0
  -18.4291  -14.1510   21.9785 C   0  0  2  0  0  0  0  0  0  0  0  0
  -20.6275  -17.0969   18.7822 C   0  0  0  0  0  0  0  0  0  0  0  0
  -26.9119  -28.1572   20.6855 N   0  0  0  0  0  0  0  0  0  0  0  0
  -26.4590  -27.6235   19.5383 N   0  0  0  0  0  0  0  0  0  0  0  0
  -23.7103  -25.2429   22.0484 N   0  0  0  0  0  0  0  0  0  0  0  0
  -23.2259  -16.9007   20.3518 N   0  0  0  0  0  0  0  0  0  0  0  0
  -29.1246  -24.9364   18.9625 N   0  0  0  0  0  0  0  0  0  0  0  0
  -24.5916  -27.5835   18.0816 N   0  0  0  0  0  0  0  0  0  0  0  0
  -23.2889  -30.3935   21.3683 N   0  0  0  0  0  0  0  0  0  0  0  0
  -25.8462  -14.5565   19.8048 N   0  0  0  0  0  0  0  0  0  0  0  0
  -19.8333  -15.5078   20.5844 N   0  0  0  0  0  0  0  0  0  0  0  0
  -28.6879  -23.1045   20.4457 N   0  0  0  0  0  0  0  0  0  0  0  0
  -17.1931  -14.4467   21.2002 N   0  3  0  0  0  0  0  0  0  0  0  0
  -22.6436  -29.3961   19.4069 O   0  0  0  0  0  0  0  0  0  0  0  0
  -24.6157  -15.9179   18.3713 O   0  0  0  0  0  0  0  0  0  0  0  0
  -22.2709  -14.8417   20.8611 O   0  0  0  0  0  0  0  0  0  0  0  0
  -19.7489  -15.9755   22.8540 O   0  0  0  0  0  0  0  0  0  0  0  0
  -30.4425  -23.0319   18.9472 O   0  0  0  0  0  0  0  0  0  0  0  0
  -26.2849  -31.8573   25.8303 O   0  0  0  0  0  0  0  0  0  0  0  0
  -23.2981  -22.3847   22.6971 O   0  0  0  0  0  0  0  0  0  1  0  0
  -22.5933  -35.8658   26.6713 F   0  0  0  0  0  0  0  0  0  0  0  0
  -27.0905  -34.4815   26.1571 F   0  0  0  0  0  0  0  0  0  0  0  0
  1  2  1  0  0  0  0
  1  5  2  0  0  0  0
  2  6  2  0  0  0  0
  3 10  2  0  0  0  0
  3 18  1  0  0  0  0
  4 11  1  0  0  0  0
  4 18  2  0  0  0  0
  5 20  1  0  0  0  0
  6 22  1  0  0  0  0
  7 12  2  0  0  0  0
  7 21  1  0  0  0  0
  8  9  2  0  0  0  0
  8 25  1  0  0  0  0
  9 26  1  0  0  0  0
 10 27  1  0  0  0  0
 11 27  2  0  0  0  0
 12 28  1  0  0  0  0
 13 14  2  0  0  0  0
 13 29  1  0  0  0  0
 14 30  1  0  0  0  0
 15 23  1  0  0  0  0
 15 28  2  0  0  0  0
 16 24  1  0  0  0  0
 16 25  2  0  0  0  0
 17 30  2  0  0  0  0
 17 31  1  0  0  0  0
 18 32  1  0  0  0  0
 19 32  1  0  0  0  0
 19 33  2  0  0  0  0
 19 36  1  0  0  0  0
 20 22  2  0  0  0  0
 20 41  1  0  0  0  0
 21 23  2  0  0  0  0
 21 42  1  0  0  0  0
 22 53  1  0  0  0  0
 23 43  1  0  0  0  0
 24 26  2  0  0  0  0
 24 56  1  0  0  0  0
 25 69  1  0  0  0  0
 26 76  1  0  0  0  0
 27 83  1  0  0  0  0
 28 84  1  0  0  0  0
 29 31  2  0  0  0  0
 29 83  1  0  0  0  0
 30 85  1  0  0  0  0
 31 86  1  0  0  0  0
 32 67  2  0  0  0  0
 33 68  1  0  0  0  0
 33 72  1  0  0  0  0
 34 35  2  0  0  0  0
 34 44  1  0  0  0  0
 35 63  1  0  0  0  0
 35 69  1  0  0  0  0
 36 73  1  0  0  0  0
 36 78  2  0  0  0  0
 37 54  1  0  0  0  0
 37 74  1  0  0  0  0
 37 79  2  0  0  0  0
 38 64  1  0  0  0  0
 38 70  1  0  0  0  0
 38 80  2  0  0  0  0
 39 65  1  0  0  0  0
 39 75  1  0  0  0  0
 39 81  2  0  0  0  0
 40 71  1  0  0  0  0
 40 76  1  0  0  0  0
 40 82  2  0  0  0  0
 41 45  1  0  0  0  0
 42 54  1  0  0  0  0
 43 70  1  0  0  0  0
 44 46  1  0  0  0  0
 45 48  1  0  0  0  0
 46 50  1  0  0  0  0
 47 49  1  0  0  0  0
 47 51  1  0  0  0  0
 48 53  1  0  0  0  0
 49 55  1  0  0  0  0
 50 69  1  0  0  0  0
 51 71  1  0  0  0  0
 52 55  1  0  0  0  0
 52 71  1  0  0  0  0
 53 74  1  0  0  0  0
 54 70  1  0  0  0  0
 55 68  1  0  0  0  0
 57 65  1  0  0  0  0
 58 66  1  0  0  0  0
 59 66  1  0  0  0  0
 60 66  1  0  0  0  0
 61 76  1  0  0  0  0
 62 77  1  0  0  0  0
 63 84  1  0  0  0  0
 64 66  1  0  0  0  0
 64 75  1  0  0  0  0
 65 77  1  0  0  0  0
 67 68  1  0  0  0  0
M  CHG  1  77   1
M  ISO  4  40 100  63 101  76 100  84 101
M  END
> <Batch ID>
0107

> <Smiles>
CNC(C)C(=O)NC(C(=O)N1Cc2cc([101O:1][101CH2:1]C3=CCCCN3c3ccc([100N:0](C)[100C:0](=O)N4CCCC(n5nc(-c6ccc(Oc7ccc(F)cc7F)cc6)c(C(N)=O)c5N)C4)c(C)c3)ccc2CC1C(=O)NC1CCCc2ccccc21)C(C)(C)C

> <Shape>
0.224

> <Color>
0.067

> <Negative vol penalty>
0.000

$$$$

  -OEChem-04052301173D

 84 92  0     1  0  0  0  0  0999 V2000
  -28.1277  -33.0077   14.0371 C   0  0  0  0  0  0  0  0  0  0  0  0
  -28.0554  -31.6247   14.1693 C   0  0  0  0  0  0  0  0  0  0  0  0
  -22.7588  -10.6749   21.3436 C   0  0  0  0  0  0  0  0  0  0  0  0
  -24.7560   -9.3155   21.3436 C   0  0  0  0  0  0  0  0  0  0  0  0
  -27.9401  -33.8241   15.1516 C   0  0  0  0  0  0  0  0  0  0  0  0
  -27.7964  -31.0573   15.4165 C   0  0  0  0  0  0  0  0  0  0  0  0
  -24.5810  -25.9699   16.5504 C   0  0  0  0  0  0  0  0  0  0  0  0
  -30.3362  -16.5801   23.3905 C   0  0  0  0  0  0  0  0  0  0  0  0
  -21.9748   -9.5232   21.2773 C   0  0  0  0  0  0  0  0  0  0  0  0
  -23.9720   -8.1637   21.2773 C   0  0  0  0  0  0  0  0  0  0  0  0
  -24.9656  -24.6531   16.7993 C   0  0  0  0  0  0  0  0  0  0  0  0
  -29.9895  -17.9092   23.1483 C   0  0  0  0  0  0  0  0  0  0  0  0
  -21.0041   -7.3036   18.9203 C   0  0  0  0  0  0  0  0  0  0  0  0
  -19.9420   -7.2947   18.0162 C   0  0  0  0  0  0  0  0  0  0  0  0
  -30.0933  -17.5027   20.7690 C   0  0  0  0  0  0  0  0  0  0  0  0
  -24.8096  -25.0624   19.1715 C   0  0  0  0  0  0  0  0  0  0  0  0
  -18.3940   -6.9458   19.8381 C   0  0  0  0  0  0  0  0  0  0  0  0
  -24.1494  -10.5711   21.3767 C   0  0  0  0  0  0  0  0  0  0  0  0
  -30.4401  -16.1735   21.0113 C   0  0  0  0  0  0  0  0  0  0  0  0
  -25.4081  -12.4186   22.6055 C   0  0  0  0  0  0  0  0  0  0  0  0
  -27.6691  -33.2668   16.4111 C   0  0  0  0  0  0  0  0  0  0  0  0
  -24.3179  -26.8474   17.6121 C   0  0  0  0  0  0  0  0  0  0  0  0
  -27.6063  -31.8670   16.5491 C   0  0  0  0  0  0  0  0  0  0  0  0
  -24.4194  -26.3890   18.9334 C   0  0  0  0  0  0  0  0  0  0  0  0
  -30.5616  -15.7122   22.3220 C   0  0  0  0  0  0  0  0  0  0  0  0
  -22.5814   -8.2676   21.2442 C   0  0  0  0  0  0  0  0  0  0  0  0
  -29.8680  -18.3705   21.8375 C   0  0  0  0  0  0  0  0  0  0  0  0
  -25.0828  -24.2000   18.1100 C   0  0  0  0  0  0  0  0  0  0  0  0
  -20.7612   -7.1335   20.2833 C   0  0  0  0  0  0  0  0  0  0  0  0
  -18.6370   -7.1158   18.4750 C   0  0  0  0  0  0  0  0  0  0  0  0
  -19.4562   -6.9547   20.7422 C   0  0  0  0  0  0  0  0  0  0  0  0
  -24.9599  -11.7605   21.4446 C   0  0  0  0  0  0  0  0  0  0  0  0
  -26.1352  -13.4853   22.1364 C   0  0  0  0  0  0  0  0  0  0  0  0
  -30.6705  -15.2923   19.8735 C   0  0  0  0  0  0  0  0  0  0  0  0
  -25.1871  -12.0947   23.9846 C   0  0  0  0  0  0  0  0  0  0  0  0
  -29.9638  -15.4957   18.5880 C   0  0  0  0  0  0  0  0  0  0  0  0
  -25.5833  -29.5799   18.6299 C   0  0  0  0  0  0  0  0  0  0  0  0
  -23.0938  -29.5069   20.7082 C   0  0  0  0  0  0  0  0  0  0  0  0
  -20.7703  -27.6502   22.3819 C   0  0  0  0  0  0  0  0  0  0  0  0
  -27.5204  -34.1882   17.5959 C   0  0  0  0  0  0  0  0  0  0  0  0
  -23.8781  -28.2571   17.3265 C   0  0  0  0  0  0  0  0  0  0  0  0
  -24.1284  -27.2855   20.1082 C   0  0  0  0  0  0  0  0  0  0  0  0
  -26.8787  -33.5209   18.8096 C   0  0  0  0  0  0  0  0  0  0  0  0
  -26.5527  -15.4099   17.4864 C   0  0  0  0  0  0  0  0  0  0  0  0
  -27.5158  -32.1595   19.0694 C   0  0  0  0  0  0  0  0  0  0  0  0
  -25.8805  -14.4752   18.4915 C   0  0  0  0  0  0  0  0  0  0  0  0
  -27.9904  -14.9857   17.2045 C   0  0  0  0  0  0  0  0  0  0  0  0
  -28.1667  -13.9333   19.4428 C   0  0  0  0  0  0  0  0  0  0  0  0
  -27.3027  -31.2147   17.8805 C   0  0  1  0  0  0  0  0  0  0  0  0
  -24.1336  -29.2101   18.4901 C   0  0  1  0  0  0  0  0  0  0  0  0
  -26.7219  -14.3461   19.7737 C   0  0  2  0  0  0  0  0  0  0  0  0
  -18.8971  -27.8661   24.0376 C   0  0  0  0  0  0  0  0  0  0  0  0
  -25.1257  -29.8442   22.9594 C   0  0  0  0  0  0  0  0  0  0  0  0
  -23.3573  -29.1083   24.5717 C   0  0  0  0  0  0  0  0  0  0  0  0
  -23.0340  -31.1877   23.2321 C   0  0  0  0  0  0  0  0  0  0  0  0
  -18.7903  -26.5884   20.4554 C   0  0  0  0  0  0  0  0  0  0  0  0
  -27.9126  -21.1637   20.6039 C   0  0  0  0  0  0  0  0  0  0  0  0
  -27.0981  -21.4743   19.3529 C   0  0  0  0  0  0  0  0  0  0  0  0
  -28.8006  -19.9422   20.4070 C   0  0  0  0  0  0  0  0  0  0  0  0
  -26.1786  -22.6690   19.5630 C   0  0  0  0  0  0  0  0  0  1  0  0
  -22.8700  -28.9386   22.0888 C   0  0  1  0  0  0  0  0  0  0  0  0
  -19.2748  -27.8352   22.5648 C   0  0  2  0  0  0  0  0  0  0  0  0
  -23.6041  -29.7531   23.1911 C   0  0  0  0  0  0  0  0  0  0  0  0
  -25.3679  -12.3591   20.3224 N   0  0  0  0  0  0  0  0  0  0  0  0
  -31.4990  -14.2858   19.9068 N   0  0  0  0  0  0  0  0  0  0  0  0
  -26.0801  -13.4046   20.7760 N   0  0  0  0  0  0  0  0  0  0  0  0
  -28.7505  -14.8375   18.4440 N   0  0  0  0  0  0  0  0  0  0  0  0
  -23.7080  -28.6571   19.7775 N   0  0  0  0  0  0  0  0  0  0  0  0
  -30.9141  -14.3705   22.5886 N   0  0  0  0  0  0  0  0  0  0  0  0
  -26.8098  -14.4751   22.7590 N   0  0  0  0  0  0  0  0  0  0  0  0
  -24.4168  -10.9644   24.2902 N   0  0  0  0  0  0  0  0  0  0  0  0
  -25.9555  -30.6861   17.8901 N   0  0  0  0  0  0  0  0  0  0  0  0
  -21.4243  -28.8587   22.2679 N   0  0  0  0  0  0  0  0  0  0  0  0
  -18.5313  -26.7206   21.9123 N   0  3  0  0  0  0  0  0  0  0  0  0
  -25.6450  -12.7963   24.9181 O   0  0  0  0  0  0  0  0  0  0  0  0
  -30.5292  -16.2266   17.7852 O   0  0  0  0  0  0  0  0  0  0  0  0
  -26.3098  -28.9120   19.3563 O   0  0  0  0  0  0  0  0  0  0  0  0
  -22.7303  -30.6598   20.4626 O   0  0  0  0  0  0  0  0  0  0  0  0
  -21.3055  -26.5443   22.3475 O   0  0  0  0  0  0  0  0  0  0  0  0
  -21.8166   -7.1435   21.1798 O   0  0  0  0  0  0  0  0  0  0  0  0
  -29.5266  -19.6764   21.5998 O   0  0  0  0  0  0  0  0  0  0  0  0
  -25.4587  -22.9154   18.3558 O   0  0  0  0  0  0  0  0  0  1  0  0
  -17.6170   -7.1088   17.6068 F   0  0  0  0  0  0  0  0  0  0  0  0
  -19.2165   -6.7920   22.0506 F   0  0  0  0  0  0  0  0  0  0  0  0
  1  2  1  0  0  0  0
  1  5  2  0  0  0  0
  2  6  2  0  0  0  0
  3  9  2  0  0  0  0
  3 18  1  0  0  0  0
  4 10  1  0  0  0  0
  4 18  2  0  0  0  0
  5 21  1  0  0  0  0
  6 23  1  0  0  0  0
  7 11  2  0  0  0  0
  7 22  1  0  0  0  0
  8 12  2  0  0  0  0
  8 25  1  0  0  0  0
  9 26  1  0  0  0  0
 10 26  2  0  0  0  0
 11 28  1  0  0  0  0
 12 27  1  0  0  0  0
 13 14  2  0  0  0  0
 13 29  1  0  0  0  0
 14 30  1  0  0  0  0
 15 19  1  0  0  0  0
 15 27  2  0  0  0  0
 16 24  1  0  0  0  0
 16 28  2  0  0  0  0
 17 30  2  0  0  0  0
 17 31  1  0  0  0  0
 18 32  1  0  0  0  0
 19 25  2  0  0  0  0
 19 34  1  0  0  0  0
 20 32  1  0  0  0  0
 20 33  2  0  0  0  0
 20 35  1  0  0  0  0
 21 23  2  0  0  0  0
 21 40  1  0  0  0  0
 22 24  2  0  0  0  0
 22 41  1  0  0  0  0
 23 49  1  0  0  0  0
 24 42  1  0  0  0  0
 25 69  1  0  0  0  0
 26 80  1  0  0  0  0
 27 81  1  0  0  0  0
 28 82  1  0  0  0  0
 29 31  2  0  0  0  0
 29 80  1  0  0  0  0
 30 83  1  0  0  0  0
 31 84  1  0  0  0  0
 32 64  2  0  0  0  0
 33 66  1  0  0  0  0
 33 70  1  0  0  0  0
 34 36  1  0  0  0  0
 34 65  2  0  0  0  0
 35 71  1  0  0  0  0
 35 75  2  0  0  0  0
 36 67  1  0  0  0  0
 36 76  2  0  0  0  0
 37 50  1  0  0  0  0
 37 72  1  0  0  0  0
 37 77  2  0  0  0  0
 38 61  1  0  0  0  0
 38 68  1  0  0  0  0
 38 78  2  0  0  0  0
 39 62  1  0  0  0  0
 39 73  1  0  0  0  0
 39 79  2  0  0  0  0
 40 43  1  0  0  0  0
 41 50  1  0  0  0  0
 42 68  1  0  0  0  0
 43 45  1  0  0  0  0
 44 46  1  0  0  0  0
 44 47  1  0  0  0  0
 45 49  1  0  0  0  0
 46 51  1  0  0  0  0
 47 67  1  0  0  0  0
 48 51  1  0  0  0  0
 48 67  1  0  0  0  0
 49 72  1  0  0  0  0
 50 68  1  0  0  0  0
 51 66  1  0  0  0  0
 52 62  1  0  0  0  0
 53 63  1  0  0  0  0
 54 63  1  0  0  0  0
 55 63  1  0  0  0  0
 56 74  1  0  0  0  0
 57 58  1  0  0  0  0
 57 59  1  0  0  0  0
 58 60  1  0  0  0  0
 59 81  1  0  0  0  0
 60 82  1  0  0  0  0
 61 63  1  0  0  0  0
 61 73  1  0  0  0  0
 62 74  1  0  0  0  0
 64 66  1  0  0  0  0
M  CHG  1  74   1
M  ISO  4  34 100  36 100  60 101  82 101
M  END
> <Batch ID>
0107

> <Smiles>
CNC(C)C(=O)NC(C(=O)N1Cc2cc([101O:1][101CH2:1]CCCOc3ccc(N)c([100C:0](=N)[100C:0](=O)N4CCCC(n5nc(-c6ccc(Oc7ccc(F)cc7F)cc6)c(C(N)=O)c5N)C4)c3)ccc2CC1C(=O)NC1CCCc2ccccc21)C(C)(C)C

> <Shape>
0.229

> <Color>
0.080

> <Negative vol penalty>
0.000

$$$$

  -OEChem-04052301173D

 90 99  0     1  0  0  0  0  0999 V2000
  -29.1173  -25.0584   16.9373 C   0  0  0  0  0  0  0  0  0  0  0  0
  -27.9620  -25.0617   17.7123 C   0  0  0  0  0  0  0  0  0  0  0  0
  -28.0721  -13.1443   18.6708 C   0  0  0  0  0  0  0  0  0  0  0  0
  -28.6661  -12.0324   20.7318 C   0  0  0  0  0  0  0  0  0  0  0  0
  -30.2200  -25.8167   17.3286 C   0  0  0  0  0  0  0  0  0  0  0  0
  -27.9090  -25.8225   18.8797 C   0  0  0  0  0  0  0  0  0  0  0  0
  -23.5760  -28.4063   19.3197 C   0  0  0  0  0  0  0  0  0  0  0  0
  -20.2719  -19.3498   22.3696 C   0  0  0  0  0  0  0  0  0  0  0  0
  -21.3118  -20.0020   24.4506 C   0  0  0  0  0  0  0  0  0  0  0  0
  -19.8430  -20.6624   22.1726 C   0  0  0  0  0  0  0  0  0  0  0  0
  -20.8829  -21.3146   24.2535 C   0  0  0  0  0  0  0  0  0  0  0  0
  -29.4241  -13.3042   18.3674 C   0  0  0  0  0  0  0  0  0  0  0  0
  -30.0181  -12.1923   20.4284 C   0  0  0  0  0  0  0  0  0  0  0  0
  -22.4516  -27.6971   19.7395 C   0  0  0  0  0  0  0  0  0  0  0  0
  -32.3281  -14.6571   20.5682 C   0  0  0  0  0  0  0  0  0  0  0  0
  -33.1727  -15.1001   21.5860 C   0  0  0  0  0  0  0  0  0  0  0  0
  -22.7563  -28.5494   21.9756 C   0  0  0  0  0  0  0  0  0  0  0  0
  -34.4721  -13.0727   21.3901 C   0  0  0  0  0  0  0  0  0  0  0  0
  -27.6930  -12.5084   19.8530 C   0  0  0  0  0  0  0  0  0  0  0  0
  -25.3319  -11.6488   19.4132 C   0  0  0  0  0  0  0  0  0  0  0  0
  -30.1771  -26.5948   18.4962 C   0  0  0  0  0  0  0  0  0  0  0  0
  -24.3067  -29.1851   20.2286 C   0  0  0  0  0  0  0  0  0  0  0  0
  -29.0126  -26.5909   19.2876 C   0  0  0  0  0  0  0  0  0  0  0  0
  -23.8882  -29.2696   21.5642 C   0  0  0  0  0  0  0  0  0  0  0  0
  -21.0063  -19.0196   23.5087 C   0  0  0  0  0  0  0  0  0  0  0  0
  -20.1485  -21.6448   23.1145 C   0  0  0  0  0  0  0  0  0  0  0  0
  -30.3971  -12.8282   19.2462 C   0  0  0  0  0  0  0  0  0  0  0  0
  -22.0432  -27.7662   21.0683 C   0  0  0  0  0  0  0  0  0  0  0  0
  -32.5555  -13.4219   19.9613 C   0  0  0  0  0  0  0  0  0  0  0  0
  -34.2447  -14.3079   21.9970 C   0  0  0  0  0  0  0  0  0  0  0  0
  -33.6275  -12.6297   20.3722 C   0  0  0  0  0  0  0  0  0  0  0  0
  -26.2966  -12.3434   20.1673 C   0  0  0  0  0  0  0  0  0  0  0  0
  -24.1700  -11.7853   20.1329 C   0  0  0  0  0  0  0  0  0  0  0  0
  -20.1037  -25.3698   22.9272 C   0  0  0  0  0  0  0  0  0  0  0  0
  -20.5609  -24.0995   22.8091 C   0  0  0  0  0  0  0  0  0  0  0  0
  -18.6471  -25.5720   23.2313 C   0  0  0  0  0  0  0  0  0  0  0  0
  -25.4733  -10.9432   18.1731 C   0  0  0  0  0  0  0  0  0  0  0  0
  -27.2877  -29.1410   21.3308 C   0  0  0  0  0  0  0  0  0  0  0  0
  -26.3845  -31.9069   22.7648 C   0  0  0  0  0  0  0  0  0  0  0  0
  -20.4530  -16.7727   24.4909 C   0  0  0  0  0  0  0  0  0  0  0  0
  -23.8530  -33.8559   23.9647 C   0  0  0  0  0  0  0  0  0  0  0  0
  -20.6169  -14.8006   22.9326 C   0  0  0  0  0  0  0  0  0  0  0  0
  -31.4106  -27.3610   18.9036 C   0  0  0  0  0  0  0  0  0  0  0  0
  -25.5017  -29.9655   19.7540 C   0  0  0  0  0  0  0  0  0  0  0  0
  -24.6261  -30.1076   22.5750 C   0  0  0  0  0  0  0  0  0  0  0  0
  -17.7973  -24.3596   23.5267 C   0  0  0  0  0  0  0  0  0  0  0  0
  -31.1414  -28.4340   19.9556 C   0  0  0  0  0  0  0  0  0  0  0  0
  -23.3713  -13.5156   24.8147 C   0  0  0  0  0  0  0  0  0  0  0  0
  -30.2736  -27.8748   21.0785 C   0  0  0  0  0  0  0  0  0  0  0  0
  -24.3078  -13.0424   23.7023 C   0  0  0  0  0  0  0  0  0  0  0  0
  -18.2649  -23.1414   22.7498 C   0  0  0  0  0  0  0  0  0  0  0  0
  -22.6693  -14.8208   24.4441 C   0  0  0  0  0  0  0  0  0  0  0  0
  -22.8752  -14.2945   22.0352 C   0  0  0  0  0  0  0  0  0  0  0  0
  -28.9079  -27.4228   20.5474 C   0  0  1  0  0  0  0  0  0  0  0  0
  -26.4703  -30.3179   20.8788 C   0  0  1  0  0  0  0  0  0  0  0  0
  -23.5719  -12.9612   22.3522 C   0  0  1  0  0  0  0  0  0  0  0  0
  -22.0104  -23.8490   22.4404 C   0  0  0  0  0  0  0  0  0  0  0  0
  -23.4283  -36.0455   25.1147 C   0  0  0  0  0  0  0  0  0  0  0  0
  -27.3313  -30.7019   25.4033 C   0  0  0  0  0  0  0  0  0  0  0  0
  -26.0408  -32.4829   26.5995 C   0  0  0  0  0  0  0  0  0  0  0  0
  -27.9212  -33.1113   25.0857 C   0  0  0  0  0  0  0  0  0  0  0  0
  -18.4869  -15.4575   23.8969 C   0  0  0  0  0  0  0  0  0  0  0  0
  -22.2333  -34.8629   21.7016 C   0  0  0  0  0  0  0  0  0  0  0  0
  -21.4698  -17.6015   23.7227 C   0  0  0  0  0  0  0  0  0  0  0  0
  -20.9185  -26.6284   22.8279 C   0  0  0  0  0  0  0  0  0  1  0  0
  -25.7559  -32.2690   24.0887 C   0  0  1  0  0  0  0  0  0  0  0  0
  -23.5412  -35.3298   23.7777 C   0  0  2  0  0  0  0  0  0  0  0  0
  -26.7493  -32.1239   25.2759 C   0  0  0  0  0  0  0  0  0  0  0  0
  -25.7914  -12.8814   21.2806 N   0  0  0  0  0  0  0  0  0  0  0  0
  -24.4966  -12.5248   21.2313 N   0  0  0  0  0  0  0  0  0  0  0  0
  -19.7140  -22.9804   22.9135 N   0  0  0  0  0  0  0  0  0  0  0  0
  -25.7920  -30.8470   22.0637 N   0  0  0  0  0  0  0  0  0  0  0  0
  -22.0029  -14.6949   23.1407 N   0  0  0  0  0  0  0  0  0  0  0  0
  -22.9110  -11.3437   19.9269 N   0  0  0  0  0  0  0  0  0  0  0  0
  -25.8004   -9.5809   18.2130 N   0  0  0  0  0  0  0  0  0  0  0  0
  -28.0468  -28.5654   20.3298 N   0  0  0  0  0  0  0  0  0  0  0  0
  -25.2097  -33.6122   23.9274 N   0  0  0  0  0  0  0  0  0  0  0  0
  -19.9309  -15.6309   23.8439 N   0  0  0  0  0  0  0  0  0  0  0  0
  -22.2548  -35.4981   23.0444 N   0  3  0  0  0  0  0  0  0  0  0  0
  -18.1670  -26.7035   23.2938 O   0  0  0  0  0  0  0  0  0  0  0  0
  -25.3305  -11.5080   17.0622 O   0  0  0  0  0  0  0  0  0  0  0  0
  -27.2349  -28.7826   22.5015 O   0  0  0  0  0  0  0  0  0  0  0  0
  -27.3608  -32.5456   22.3641 O   0  0  0  0  0  0  0  0  0  0  0  0
  -20.0835  -17.1475   25.6083 O   0  0  0  0  0  0  0  0  0  0  0  0
  -22.9806  -33.0064   24.1312 O   0  0  0  0  0  0  0  0  0  0  0  0
  -20.0149  -14.2048   22.0335 O   0  0  0  0  0  0  0  0  0  0  0  0
  -31.7165  -12.9839   18.9503 O   0  0  0  0  0  0  0  0  0  0  0  0
  -20.9354  -27.0674   21.4850 O   0  0  0  0  0  0  0  0  0  1  0  0
  -35.0566  -14.7341   22.9734 F   0  0  0  0  0  0  0  0  0  0  0  0
  -33.8516  -11.4427   19.7921 F   0  0  0  0  0  0  0  0  0  0  0  0
  1  2  1  0  0  0  0
  1  5  2  0  0  0  0
  2  6  2  0  0  0  0
  3 12  2  0  0  0  0
  3 19  1  0  0  0  0
  4 13  1  0  0  0  0
  4 19  2  0  0  0  0
  5 21  1  0  0  0  0
  6 23  1  0  0  0  0
  7 14  2  0  0  0  0
  7 22  1  0  0  0  0
  8 10  2  0  0  0  0
  8 25  1  0  0  0  0
  9 11  1  0  0  0  0
  9 25  2  0  0  0  0
 10 26  1  0  0  0  0
 11 26  2  0  0  0  0
 12 27  1  0  0  0  0
 13 27  2  0  0  0  0
 14 28  1  0  0  0  0
 15 16  2  0  0  0  0
 15 29  1  0  0  0  0
 16 30  1  0  0  0  0
 17 24  1  0  0  0  0
 17 28  2  0  0  0  0
 18 30  2  0  0  0  0
 18 31  1  0  0  0  0
 19 32  1  0  0  0  0
 20 32  1  0  0  0  0
 20 33  2  0  0  0  0
 20 37  1  0  0  0  0
 21 23  2  0  0  0  0
 21 43  1  0  0  0  0
 22 24  2  0  0  0  0
 22 44  1  0  0  0  0
 23 54  1  0  0  0  0
 24 45  1  0  0  0  0
 25 64  1  0  0  0  0
 26 71  1  0  0  0  0
 27 87  1  0  0  0  0
 28 88  1  0  0  0  0
 29 31  2  0  0  0  0
 29 87  1  0  0  0  0
 30 89  1  0  0  0  0
 31 90  1  0  0  0  0
 32 69  2  0  0  0  0
 33 70  1  0  0  0  0
 33 74  1  0  0  0  0
 34 35  2  0  0  0  0
 34 36  1  0  0  0  0
 34 65  1  0  0  0  0
 35 57  1  0  0  0  0
 35 71  1  0  0  0  0
 36 46  1  0  0  0  0
 36 80  2  0  0  0  0
 37 75  1  0  0  0  0
 37 81  2  0  0  0  0
 38 55  1  0  0  0  0
 38 76  1  0  0  0  0
 38 82  2  0  0  0  0
 39 66  1  0  0  0  0
 39 72  1  0  0  0  0
 39 83  2  0  0  0  0
 40 64  1  0  0  0  0
 40 78  1  0  0  0  0
 40 84  2  0  0  0  0
 41 67  1  0  0  0  0
 41 77  1  0  0  0  0
 41 85  2  0  0  0  0
 42 73  1  0  0  0  0
 42 78  1  0  0  0  0
 42 86  2  0  0  0  0
 43 47  1  0  0  0  0
 44 55  1  0  0  0  0
 45 72  1  0  0  0  0
 46 51  1  0  0  0  0
 47 49  1  0  0  0  0
 48 50  1  0  0  0  0
 48 52  1  0  0  0  0
 49 54  1  0  0  0  0
 50 56  1  0  0  0  0
 51 71  1  0  0  0  0
 52 73  1  0  0  0  0
 53 56  1  0  0  0  0
 53 73  1  0  0  0  0
 54 76  1  0  0  0  0
 55 72  1  0  0  0  0
 56 70  1  0  0  0  0
 58 67  1  0  0  0  0
 59 68  1  0  0  0  0
 60 68  1  0  0  0  0
 61 68  1  0  0  0  0
 62 78  1  0  0  0  0
 63 79  1  0  0  0  0
 65 88  1  0  0  0  0
 66 68  1  0  0  0  0
 66 77  1  0  0  0  0
 67 79  1  0  0  0  0
 69 70  1  0  0  0  0
M  CHG  1  79   1
M  ISO  4  42 100  65 101  78 100  88 101
M  END
> <Batch ID>
0107

> <Smiles>
CNC(C)C(=O)NC(C(=O)N1Cc2cc([101O:1][101CH2:1]C3=C(C)N(c4ccc(CC(=O)[100N:0](C)[100C:0](=O)N5CCCC(n6nc(-c7ccc(Oc8ccc(F)cc8F)cc7)c(C(N)=O)c6N)C5)cc4)CCC3=O)ccc2CC1C(=O)NC1CCCc2ccccc21)C(C)(C)C

> <Shape>
0.273

> <Color>
0.085

> <Negative vol penalty>
0.000

$$$$

  -OEChem-04052301173D

 88 97  0     1  0  0  0  0  0999 V2000
  -18.9391  -35.2210   19.3602 C   0  0  0  0  0  0  0  0  0  0  0  0
  -20.0768  -34.7498   18.7129 C   0  0  0  0  0  0  0  0  0  0  0  0
  -22.6473  -10.3122   20.2277 C   0  0  0  0  0  0  0  0  0  0  0  0
  -24.2864   -9.5761   21.8429 C   0  0  0  0  0  0  0  0  0  0  0  0
  -29.8203  -17.3960   20.0630 C   0  0  0  0  0  0  0  0  0  0  0  0
  -18.9016  -35.2718   20.7530 C   0  0  0  0  0  0  0  0  0  0  0  0
  -21.1782  -34.3301   19.4581 C   0  0  0  0  0  0  0  0  0  0  0  0
  -23.7247  -27.6188   18.8540 C   0  0  0  0  0  0  0  0  0  0  0  0
  -29.1254  -18.5273   19.6352 C   0  0  0  0  0  0  0  0  0  0  0  0
  -21.8998   -9.1577   20.4601 C   0  0  0  0  0  0  0  0  0  0  0  0
  -23.5388   -8.4216   22.0754 C   0  0  0  0  0  0  0  0  0  0  0  0
  -24.4003  -26.4174   18.6387 C   0  0  0  0  0  0  0  0  0  0  0  0
  -20.7758   -7.5538   23.8170 C   0  0  0  0  0  0  0  0  0  0  0  0
  -20.5822   -7.1648   25.1424 C   0  0  0  0  0  0  0  0  0  0  0  0
  -25.9908  -26.9897   20.3682 C   0  0  0  0  0  0  0  0  0  0  0  0
  -27.7464  -18.4294   21.6166 C   0  0  0  0  0  0  0  0  0  0  0  0
  -21.6854   -5.0641   24.6870 C   0  0  0  0  0  0  0  0  0  0  0  0
  -23.8406  -10.5214   20.9191 C   0  0  0  0  0  0  0  0  0  0  0  0
  -29.4782  -16.7814   21.2675 C   0  0  0  0  0  0  0  0  0  0  0  0
  -24.2008  -13.0463   20.8664 C   0  0  0  0  0  0  0  0  0  0  0  0
  -19.9995  -34.8435   21.5159 C   0  0  0  0  0  0  0  0  0  0  0  0
  -24.1711  -28.5043   19.8389 C   0  0  0  0  0  0  0  0  0  0  0  0
  -21.1559  -34.3766   20.8624 C   0  0  0  0  0  0  0  0  0  0  0  0
  -25.3108  -28.1888   20.5968 C   0  0  0  0  0  0  0  0  0  0  0  0
  -28.0885  -19.0440   20.4120 C   0  0  0  0  0  0  0  0  0  0  0  0
  -22.3455   -8.2124   21.3839 C   0  0  0  0  0  0  0  0  0  0  0  0
  -25.5307  -26.1038   19.3938 C   0  0  0  0  0  0  0  0  0  0  0  0
  -21.4241   -6.6979   22.9265 C   0  0  0  0  0  0  0  0  0  0  0  0
  -28.4412  -17.2981   22.0443 C   0  0  0  0  0  0  0  0  0  0  0  0
  -21.0370   -5.9200   25.5775 C   0  0  0  0  0  0  0  0  0  0  0  0
  -21.8789   -5.4531   23.3615 C   0  0  0  0  0  0  0  0  0  0  0  0
  -24.6135  -11.7135   20.6791 C   0  0  0  0  0  0  0  0  0  0  0  0
  -25.2905  -13.7978   20.5002 C   0  0  0  0  0  0  0  0  0  0  0  0
  -26.0268  -22.5512   19.1848 C   0  0  0  0  0  0  0  0  0  0  0  0
  -25.4876  -23.7650   19.3646 C   0  0  0  0  0  0  0  0  0  1  0  0
  -30.2171  -15.6019   21.6962 C   0  0  0  0  0  0  0  0  0  0  0  0
  -22.9447  -13.5591   21.3300 C   0  0  0  0  0  0  0  0  0  0  0  0
  -30.8123  -14.6674   20.7135 C   0  0  0  0  0  0  0  0  0  0  0  0
  -23.6572  -31.7651   21.6218 C   0  0  0  0  0  0  0  0  0  0  0  0
  -24.4783  -29.7086   23.7448 C   0  0  0  0  0  0  0  0  0  0  0  0
  -24.9955  -27.0543   25.8243 C   0  0  0  0  0  0  0  0  0  0  0  0
  -19.9301  -34.9616   23.0179 C   0  0  0  0  0  0  0  0  0  0  0  0
  -23.5107  -29.8375   20.0632 C   0  0  0  0  0  0  0  0  0  0  0  0
  -25.7751  -29.1873   21.6218 C   0  0  0  0  0  0  0  0  0  0  0  0
  -25.2566  -21.2774   19.3864 C   0  0  0  0  0  0  0  0  0  0  0  0
  -27.4609  -22.3450   18.7870 C   0  0  0  0  0  0  0  0  0  0  0  0
  -20.9983  -34.1470   23.7429 C   0  0  0  0  0  0  0  0  0  0  0  0
  -29.5653  -12.4924   18.1501 C   0  0  0  0  0  0  0  0  0  0  0  0
  -22.3630  -34.3603   23.0958 C   0  0  0  0  0  0  0  0  0  0  0  0
  -28.1450  -12.1748   18.6166 C   0  0  0  0  0  0  0  0  0  0  0  0
  -25.9810  -20.3464   20.3620 C   0  0  0  0  0  0  0  0  0  0  0  0
  -28.1695  -21.4126   19.7713 C   0  0  0  0  0  0  0  0  0  0  0  0
  -30.5184  -12.6502   19.3304 C   0  0  0  0  0  0  0  0  0  0  0  0
  -28.6514  -13.3544   20.8024 C   0  0  0  0  0  0  0  0  0  0  0  0
  -22.3614  -33.8892   21.6365 C   0  0  1  0  0  0  0  0  0  0  0  0
  -23.5172  -30.2735   21.5393 C   0  0  1  0  0  0  0  0  0  0  0  0
  -27.6541  -13.2152   19.6390 C   0  0  2  0  0  0  0  0  0  0  0  0
  -26.3502  -15.5959   24.4288 C   0  0  0  0  0  0  0  0  0  0  0  0
  -25.2676  -26.4773   28.2513 C   0  0  0  0  0  0  0  0  0  0  0  0
  -27.3207  -30.8137   23.6850 C   0  0  0  0  0  0  0  0  0  0  0  0
  -27.8333  -29.4089   25.6930 C   0  0  0  0  0  0  0  0  0  0  0  0
  -26.0976  -31.1951   25.8329 C   0  0  0  0  0  0  0  0  0  0  0  0
  -22.6088  -25.3046   25.7954 C   0  0  0  0  0  0  0  0  0  0  0  0
  -26.7274  -16.8202   23.6223 C   0  0  0  0  0  0  0  0  0  0  0  0
  -25.6016  -29.0841   24.5331 C   0  0  1  0  0  0  0  0  0  0  0  0
  -24.2896  -26.6177   27.0953 C   0  0  2  0  0  0  0  0  0  0  0  0
  -26.7035  -30.1135   24.9121 C   0  0  0  0  0  0  0  0  0  0  0  0
  -25.8675  -11.6205   20.2287 N   0  0  0  0  0  0  0  0  0  0  0  0
  -30.4047  -15.2926   22.9497 N   0  0  0  0  0  0  0  0  0  0  0  0
  -26.2522  -12.9044   20.1299 N   0  0  0  0  0  0  0  0  0  0  0  0
  -27.3915  -20.1804   19.9828 N   0  0  0  0  0  0  0  0  0  0  0  0
  -30.0053  -13.6173   20.2985 N   0  0  0  0  0  0  0  0  0  0  0  0
  -24.6197  -29.7319   22.3519 N   0  0  0  0  0  0  0  0  0  0  0  0
  -25.5104  -15.1292   20.4620 N   0  0  0  0  0  0  0  0  0  0  0  0
  -21.9333  -12.6480   21.6636 N   0  0  0  0  0  0  0  0  0  0  0  0
  -22.4561  -32.4465   21.5710 N   0  0  0  0  0  0  0  0  0  0  0  0
  -24.9805  -28.4252   25.6770 N   0  0  0  0  0  0  0  0  0  0  0  0
  -23.6151  -25.3050   26.8883 N   0  3  0  0  0  0  0  0  0  0  0  0
  -22.7202  -14.7892   21.4295 O   0  0  0  0  0  0  0  0  0  0  0  0
  -31.9594  -14.9226   20.3709 O   0  0  0  0  0  0  0  0  0  0  0  0
  -24.7723  -32.2625   21.7255 O   0  0  0  0  0  0  0  0  0  0  0  0
  -23.5034  -30.1692   24.3453 O   0  0  0  0  0  0  0  0  0  0  0  0
  -25.5122  -26.2592   25.0425 O   0  0  0  0  0  0  0  0  0  0  0  0
  -21.6163   -7.0859   21.6111 O   0  0  0  0  0  0  0  0  0  0  0  0
  -26.1829  -24.9272   19.1816 O   0  0  0  0  0  0  0  0  0  1  0  0
  -28.0923  -16.7117   23.2241 O   0  0  0  0  0  0  0  0  0  0  0  0
  -20.8524   -5.5472   26.8507 F   0  0  0  0  0  0  0  0  0  0  0  0
  -22.5035   -4.6271   22.5110 F   0  0  0  0  0  0  0  0  0  0  0  0
  1  2  1  0  0  0  0
  1  6  2  0  0  0  0
  2  7  2  0  0  0  0
  3 10  2  0  0  0  0
  3 18  1  0  0  0  0
  4 11  1  0  0  0  0
  4 18  2  0  0  0  0
  5  9  2  0  0  0  0
  5 19  1  0  0  0  0
  6 21  1  0  0  0  0
  7 23  1  0  0  0  0
  8 12  2  0  0  0  0
  8 22  1  0  0  0  0
  9 25  1  0  0  0  0
 10 26  1  0  0  0  0
 11 26  2  0  0  0  0
 12 27  1  0  0  0  0
 13 14  2  0  0  0  0
 13 28  1  0  0  0  0
 14 30  1  0  0  0  0
 15 24  1  0  0  0  0
 15 27  2  0  0  0  0
 16 25  2  0  0  0  0
 16 29  1  0  0  0  0
 17 30  2  0  0  0  0
 17 31  1  0  0  0  0
 18 32  1  0  0  0  0
 19 29  2  0  0  0  0
 19 36  1  0  0  0  0
 20 32  1  0  0  0  0
 20 33  2  0  0  0  0
 20 37  1  0  0  0  0
 21 23  2  0  0  0  0
 21 42  1  0  0  0  0
 22 24  2  0  0  0  0
 22 43  1  0  0  0  0
 23 55  1  0  0  0  0
 24 44  1  0  0  0  0
 25 71  1  0  0  0  0
 26 84  1  0  0  0  0
 27 85  1  0  0  0  0
 28 31  2  0  0  0  0
 28 84  1  0  0  0  0
 29 86  1  0  0  0  0
 30 87  1  0  0  0  0
 31 88  1  0  0  0  0
 32 68  2  0  0  0  0
 33 70  1  0  0  0  0
 33 74  1  0  0  0  0
 34 35  2  0  0  0  0
 34 45  1  0  0  0  0
 34 46  1  0  0  0  0
 35 85  1  0  0  0  0
 36 38  1  0  0  0  0
 36 69  2  0  0  0  0
 37 75  1  0  0  0  0
 37 79  2  0  0  0  0
 38 72  1  0  0  0  0
 38 80  2  0  0  0  0
 39 56  1  0  0  0  0
 39 76  1  0  0  0  0
 39 81  2  0  0  0  0
 40 65  1  0  0  0  0
 40 73  1  0  0  0  0
 40 82  2  0  0  0  0
 41 66  1  0  0  0  0
 41 77  1  0  0  0  0
 41 83  2  0  0  0  0
 42 47  1  0  0  0  0
 43 56  1  0  0  0  0
 44 73  1  0  0  0  0
 45 51  1  0  0  0  0
 46 52  1  0  0  0  0
 47 49  1  0  0  0  0
 48 50  1  0  0  0  0
 48 53  1  0  0  0  0
 49 55  1  0  0  0  0
 50 57  1  0  0  0  0
 51 71  1  0  0  0  0
 52 71  1  0  0  0  0
 53 72  1  0  0  0  0
 54 57  1  0  0  0  0
 54 72  1  0  0  0  0
 55 76  1  0  0  0  0
 56 73  1  0  0  0  0
 57 70  1  0  0  0  0
 58 64  1  0  0  0  0
 59 66  1  0  0  0  0
 60 67  1  0  0  0  0
 61 67  1  0  0  0  0
 62 67  1  0  0  0  0
 63 78  1  0  0  0  0
 64 86  1  0  0  0  0
 65 67  1  0  0  0  0
 65 77  1  0  0  0  0
 66 78  1  0  0  0  0
 68 70  1  0  0  0  0
M  CHG  1  78   1
M  ISO  4  35 101  36 100  38 100  85 101
M  END
> <Batch ID>
0107

> <Smiles>
CCOc1cc(N2CCC(=[101CH:1][101O:1]c3ccc4c(c3)CN(C(=O)C(NC(=O)C(C)NC)C(C)(C)C)C(C(=O)NC3CCCc5ccccc53)C4)CC2)ccc1[100C:0](=N)[100C:0](=O)N1CCCC(n2nc(-c3ccc(Oc4ccc(F)cc4F)cc3)c(C(N)=O)c2N)C1

> <Shape>
0.338

> <Color>
0.210

> <Negative vol penalty>
0.000

$$$$

  -OEChem-04052301173D

 86 94  0     1  0  0  0  0  0999 V2000
  -19.8711  -33.1026   26.2913 C   0  0  0  0  0  0  0  0  0  0  0  0
  -19.6345  -32.1116   25.3440 C   0  0  0  0  0  0  0  0  0  0  0  0
  -27.4242  -12.6085   23.0611 C   0  0  0  0  0  0  0  0  0  0  0  0
  -26.3902  -13.0227   20.9172 C   0  0  0  0  0  0  0  0  0  0  0  0
  -21.0245  -33.8817   26.2101 C   0  0  0  0  0  0  0  0  0  0  0  0
  -20.5506  -31.8999   24.3143 C   0  0  0  0  0  0  0  0  0  0  0  0
  -22.0032  -26.5448   21.7221 C   0  0  0  0  0  0  0  0  0  0  0  0
  -26.3075  -11.8727   23.4575 C   0  0  0  0  0  0  0  0  0  0  0  0
  -25.2735  -12.2869   21.3136 C   0  0  0  0  0  0  0  0  0  0  0  0
  -21.5828  -25.9281   20.5446 C   0  0  0  0  0  0  0  0  0  0  0  0
  -24.4116   -9.0320   21.6026 C   0  0  0  0  0  0  0  0  0  0  0  0
  -23.8871   -8.1130   20.6940 C   0  0  0  0  0  0  0  0  0  0  0  0
  -23.5214  -26.7992   19.4034 C   0  0  0  0  0  0  0  0  0  0  0  0
  -25.6021  -21.8285   17.4070 C   0  0  0  0  0  0  0  0  0  0  0  0
  -24.8379  -20.9882   19.5393 C   0  0  0  0  0  0  0  0  0  0  0  0
  -21.7791   -9.2932   20.7172 C   0  0  0  0  0  0  0  0  0  0  0  0
  -27.4655  -13.1836   21.7909 C   0  0  0  0  0  0  0  0  0  0  0  0
  -27.1118  -20.5881   18.8279 C   0  0  0  0  0  0  0  0  0  0  0  0
  -29.7699  -13.4596   20.7319 C   0  0  0  0  0  0  0  0  0  0  0  0
  -21.9600  -33.6730   25.1845 C   0  0  0  0  0  0  0  0  0  0  0  0
  -23.1822  -27.3037   21.7465 C   0  0  0  0  0  0  0  0  0  0  0  0
  -21.7170  -32.6778   24.2186 C   0  0  0  0  0  0  0  0  0  0  0  0
  -23.9559  -27.4224   20.5832 C   0  0  0  0  0  0  0  0  0  0  0  0
  -26.8633  -21.2817   17.6435 C   0  0  0  0  0  0  0  0  0  0  0  0
  -24.5894  -21.6818   18.3549 C   0  0  0  0  0  0  0  0  0  0  0  0
  -25.2322  -11.7119   22.5838 C   0  0  0  0  0  0  0  0  0  0  0  0
  -22.3404  -26.0576   19.3842 C   0  0  0  0  0  0  0  0  0  0  0  0
  -23.6199  -10.0817   22.0687 C   0  0  0  0  0  0  0  0  0  0  0  0
  -22.5708   -8.2436   20.2512 C   0  0  0  0  0  0  0  0  0  0  0  0
  -26.0991  -20.4413   19.7759 C   0  0  0  0  0  0  0  0  0  0  0  0
  -22.3036  -10.2123   21.6259 C   0  0  0  0  0  0  0  0  0  0  0  0
  -28.6186  -13.9443   21.3810 C   0  0  0  0  0  0  0  0  0  0  0  0
  -30.5618  -14.5690   20.5634 C   0  0  0  0  0  0  0  0  0  0  0  0
  -28.4215  -20.0092   19.0966 C   0  0  0  0  0  0  0  0  0  0  0  0
  -30.0944  -12.1257   20.3181 C   0  0  0  0  0  0  0  0  0  0  0  0
  -29.2172  -20.4210   20.2758 C   0  0  0  0  0  0  0  0  0  0  0  0
  -23.8773  -30.3500   22.3300 C   0  0  0  0  0  0  0  0  0  0  0  0
  -26.9347  -29.2944   22.0836 C   0  0  0  0  0  0  0  0  0  0  0  0
  -22.8907  -22.9534   16.9980 C   0  0  0  0  0  0  0  0  0  0  0  0
  -29.1047  -26.9623   20.8591 C   0  0  0  0  0  0  0  0  0  0  0  0
  -23.1689  -34.5718   25.1106 C   0  0  0  0  0  0  0  0  0  0  0  0
  -23.6359  -27.9405   23.0314 C   0  0  0  0  0  0  0  0  0  0  0  0
  -25.2400  -28.2092   20.5617 C   0  0  0  0  0  0  0  0  0  0  0  0
  -24.2736  -34.0336   24.2050 C   0  0  0  0  0  0  0  0  0  0  0  0
  -31.5271  -18.8241   22.5053 C   0  0  0  0  0  0  0  0  0  0  0  0
  -23.6904  -33.5506   22.8808 C   0  0  0  0  0  0  0  0  0  0  0  0
  -31.1214  -17.3521   22.4391 C   0  0  0  0  0  0  0  0  0  0  0  0
  -30.3171  -19.7432   22.3733 C   0  0  0  0  0  0  0  0  0  0  0  0
  -29.0951  -18.0224   21.0716 C   0  0  0  0  0  0  0  0  0  0  0  0
  -22.6992  -32.4014   23.1011 C   0  0  1  0  0  0  0  0  0  0  0  0
  -24.5843  -29.1155   22.8136 C   0  0  1  0  0  0  0  0  0  0  0  0
  -30.2942  -17.0637   21.1737 C   0  0  2  0  0  0  0  0  0  0  0  0
  -27.7440  -20.5108   15.4261 C   0  0  0  0  0  0  0  0  0  0  0  0
  -31.5464  -26.3867   20.7922 C   0  0  0  0  0  0  0  0  0  0  0  0
  -27.3919  -31.4858   20.0102 C   0  0  0  0  0  0  0  0  0  0  0  0
  -29.4756  -30.2891   19.3071 C   0  0  0  0  0  0  0  0  0  0  0  0
  -29.2713  -31.1740   21.6304 C   0  0  0  0  0  0  0  0  0  0  0  0
  -28.6533  -24.3828   22.2379 C   0  0  0  0  0  0  0  0  0  0  0  0
  -27.9295  -21.4534   16.6111 C   0  0  0  0  0  0  0  0  0  0  0  0
  -21.4314  -23.3688   17.1468 C   0  0  0  0  0  0  0  0  0  0  0  0
  -21.1819  -24.2501   18.3613 C   0  0  0  0  0  0  0  0  0  1  0  0
  -27.9257  -29.1430   20.9549 C   0  0  1  0  0  0  0  0  0  0  0  0
  -30.2275  -26.1850   21.5221 C   0  0  2  0  0  0  0  0  0  0  0  0
  -28.4910  -30.5097   20.4753 C   0  0  0  0  0  0  0  0  0  0  0  0
  -28.6705  -15.2592   21.6095 N   0  0  0  0  0  0  0  0  0  0  0  0
  -28.9727  -19.1054   18.3347 N   0  0  0  0  0  0  0  0  0  0  0  0
  -29.8640  -15.6102   21.1012 N   0  0  0  0  0  0  0  0  0  0  0  0
  -29.5346  -19.4191   21.1822 N   0  0  0  0  0  0  0  0  0  0  0  0
  -25.6382  -28.8185   21.8415 N   0  0  0  0  0  0  0  0  0  0  0  0
  -31.7800  -14.7458   20.0092 N   0  0  0  0  0  0  0  0  0  0  0  0
  -29.1678  -11.1044   20.5685 N   0  0  0  0  0  0  0  0  0  0  0  0
  -23.3096  -22.2366   18.1156 N   0  0  0  0  0  0  0  0  0  0  0  0
  -23.4073  -31.1628   23.3438 N   0  0  0  0  0  0  0  0  0  0  0  0
  -28.9419  -28.2084   21.4266 N   0  0  0  0  0  0  0  0  0  0  0  0
  -29.9137  -24.7282   21.5315 N   0  3  0  0  0  0  0  0  0  0  0  0
  -31.1812  -11.8449   19.7582 O   0  0  0  0  0  0  0  0  0  0  0  0
  -29.5110  -21.6083   20.3253 O   0  0  0  0  0  0  0  0  0  0  0  0
  -23.7678  -30.5510   21.1261 O   0  0  0  0  0  0  0  0  0  0  0  0
  -27.2993  -29.8093   23.1435 O   0  0  0  0  0  0  0  0  0  0  0  0
  -23.5534  -23.2410   16.0068 O   0  0  0  0  0  0  0  0  0  0  0  0
  -28.4411  -26.5108   19.9284 O   0  0  0  0  0  0  0  0  0  0  0  0
  -24.1424  -10.9938   22.9702 O   0  0  0  0  0  0  0  0  0  0  0  0
  -21.9320  -25.4572   18.2333 O   0  0  0  0  0  0  0  0  0  1  0  0
  -22.0677   -7.3618   19.3774 F   0  0  0  0  0  0  0  0  0  0  0  0
  -26.3255  -19.7772   20.9183 F   0  0  0  0  0  0  0  0  0  0  0  0
  -21.5386  -11.2193   22.0692 F   0  0  0  0  0  0  0  0  0  0  0  0
  1  2  1  0  0  0  0
  1  5  2  0  0  0  0
  2  6  2  0  0  0  0
  3  8  2  0  0  0  0
  3 17  1  0  0  0  0
  4  9  1  0  0  0  0
  4 17  2  0  0  0  0
  5 20  1  0  0  0  0
  6 22  1  0  0  0  0
  7 10  2  0  0  0  0
  7 21  1  0  0  0  0
  8 26  1  0  0  0  0
  9 26  2  0  0  0  0
 10 27  1  0  0  0  0
 11 12  2  0  0  0  0
 11 28  1  0  0  0  0
 12 29  1  0  0  0  0
 13 23  1  0  0  0  0
 13 27  2  0  0  0  0
 14 24  1  0  0  0  0
 14 25  2  0  0  0  0
 15 25  1  0  0  0  0
 15 30  2  0  0  0  0
 16 29  2  0  0  0  0
 16 31  1  0  0  0  0
 17 32  1  0  0  0  0
 18 24  2  0  0  0  0
 18 30  1  0  0  0  0
 18 34  1  0  0  0  0
 19 32  1  0  0  0  0
 19 33  2  0  0  0  0
 19 35  1  0  0  0  0
 20 22  2  0  0  0  0
 20 41  1  0  0  0  0
 21 23  2  0  0  0  0
 21 42  1  0  0  0  0
 22 50  1  0  0  0  0
 23 43  1  0  0  0  0
 24 59  1  0  0  0  0
 25 72  1  0  0  0  0
 26 82  1  0  0  0  0
 27 83  1  0  0  0  0
 28 31  2  0  0  0  0
 28 82  1  0  0  0  0
 29 84  1  0  0  0  0
 30 85  1  0  0  0  0
 31 86  1  0  0  0  0
 32 65  2  0  0  0  0
 33 67  1  0  0  0  0
 33 70  1  0  0  0  0
 34 36  1  0  0  0  0
 34 66  2  0  0  0  0
 35 71  1  0  0  0  0
 35 76  2  0  0  0  0
 36 68  1  0  0  0  0
 36 77  2  0  0  0  0
 37 51  1  0  0  0  0
 37 73  1  0  0  0  0
 37 78  2  0  0  0  0
 38 62  1  0  0  0  0
 38 69  1  0  0  0  0
 38 79  2  0  0  0  0
 39 60  1  0  0  0  0
 39 72  1  0  0  0  0
 39 80  2  0  0  0  0
 40 63  1  0  0  0  0
 40 74  1  0  0  0  0
 40 81  2  0  0  0  0
 41 44  1  0  0  0  0
 42 51  1  0  0  0  0
 43 69  1  0  0  0  0
 44 46  1  0  0  0  0
 45 47  1  0  0  0  0
 45 48  1  0  0  0  0
 46 50  1  0  0  0  0
 47 52  1  0  0  0  0
 48 68  1  0  0  0  0
 49 52  1  0  0  0  0
 49 68  1  0  0  0  0
 50 73  1  0  0  0  0
 51 69  1  0  0  0  0
 52 67  1  0  0  0  0
 53 59  1  0  0  0  0
 54 63  1  0  0  0  0
 55 64  1  0  0  0  0
 56 64  1  0  0  0  0
 57 64  1  0  0  0  0
 58 75  1  0  0  0  0
 60 61  1  0  0  0  0
 61 83  1  0  0  0  0
 62 64  1  0  0  0  0
 62 74  1  0  0  0  0
 63 75  1  0  0  0  0
 65 67  1  0  0  0  0
M  CHG  1  75   1
M  ISO  4  34 100  36 100  61 101  83 101
M  END
> <Batch ID>
0107

> <Smiles>
CCc1cc(NC(=O)C[101CH2:1][101O:1]c2ccc3c(c2)CN(C(=O)C(NC(=O)C(C)NC)C(C)(C)C)C(C(=O)NC2CCCc4ccccc42)C3)cc(F)c1[100C:0](=N)[100C:0](=O)N1CCCC(n2nc(-c3ccc(Oc4ccc(F)cc4F)cc3)c(C(N)=O)c2N)C1

> <Shape>
0.247

> <Color>
0.058

> <Negative vol penalty>
0.000

$$$$

  -OEChem-04052301173D

 85 93  0     1  0  0  0  0  0999 V2000
  -16.7965  -28.5234   23.4458 C   0  0  0  0  0  0  0  0  0  0  0  0
  -17.5199  -28.1285   22.3250 C   0  0  0  0  0  0  0  0  0  0  0  0
  -26.1491  -13.8879   21.9507 C   0  0  0  0  0  0  0  0  0  0  0  0
  -24.9107  -15.3388   20.4680 C   0  0  0  0  0  0  0  0  0  0  0  0
  -17.3180  -29.4886   24.3062 C   0  0  0  0  0  0  0  0  0  0  0  0
  -18.7649  -28.6995   22.0634 C   0  0  0  0  0  0  0  0  0  0  0  0
  -25.1526  -27.1107   19.2368 C   0  0  0  0  0  0  0  0  0  0  0  0
  -25.0378  -13.0523   22.0612 C   0  0  0  0  0  0  0  0  0  0  0  0
  -23.7993  -14.5031   20.5785 C   0  0  0  0  0  0  0  0  0  0  0  0
  -26.0572  -27.5823   18.2865 C   0  0  0  0  0  0  0  0  0  0  0  0
  -23.5411  -10.6416   20.2224 C   0  0  0  0  0  0  0  0  0  0  0  0
  -23.7515   -9.2664   20.1215 C   0  0  0  0  0  0  0  0  0  0  0  0
  -26.8936  -29.1829   19.8858 C   0  0  0  0  0  0  0  0  0  0  0  0
  -31.0936  -23.7744   17.3012 C   0  0  0  0  0  0  0  0  0  0  0  0
  -30.4740  -24.3804   19.9529 C   0  0  0  0  0  0  0  0  0  0  0  0
  -22.8543   -8.9661   22.3446 C   0  0  0  0  0  0  0  0  0  0  0  0
  -26.0855  -15.0312   21.1541 C   0  0  0  0  0  0  0  0  0  0  0  0
  -28.2696  -15.8108   20.0912 C   0  0  0  0  0  0  0  0  0  0  0  0
  -18.5743  -30.0646   24.0603 C   0  0  0  0  0  0  0  0  0  0  0  0
  -25.1041  -27.6800   20.5174 C   0  0  0  0  0  0  0  0  0  0  0  0
  -19.3031  -29.6743   22.9207 C   0  0  0  0  0  0  0  0  0  0  0  0
  -25.9892  -28.7151   20.8513 C   0  0  0  0  0  0  0  0  0  0  0  0
  -30.8426  -22.7474   18.2110 C   0  0  0  0  0  0  0  0  0  0  0  0
  -30.5328  -23.0503   19.5369 C   0  0  0  0  0  0  0  0  0  0  0  0
  -30.7251  -25.4075   19.0431 C   0  0  0  0  0  0  0  0  0  0  0  0
  -23.8629  -13.3598   21.3752 C   0  0  0  0  0  0  0  0  0  0  0  0
  -26.9260  -28.6204   18.6100 C   0  0  0  0  0  0  0  0  0  0  0  0
  -22.9873  -11.1791   21.3844 C   0  0  0  0  0  0  0  0  0  0  0  0
  -31.0349  -25.1045   17.7173 C   0  0  0  0  0  0  0  0  0  0  0  0
  -23.4081   -8.4287   21.1826 C   0  0  0  0  0  0  0  0  0  0  0  0
  -22.6439  -10.3414   22.4454 C   0  0  0  0  0  0  0  0  0  0  0  0
  -27.2330  -15.8952   21.0399 C   0  0  0  0  0  0  0  0  0  0  0  0
  -29.1092  -16.8510   20.4065 C   0  0  0  0  0  0  0  0  0  0  0  0
  -28.4568  -14.8757   19.0205 C   0  0  0  0  0  0  0  0  0  0  0  0
  -22.9002  -29.2356   22.1988 C   0  0  0  0  0  0  0  0  0  0  0  0
  -29.6765  -28.5173   16.2467 C   0  0  0  0  0  0  0  0  0  0  0  0
  -25.1126  -29.0229   24.5615 C   0  0  0  0  0  0  0  0  0  0  0  0
  -28.3921  -28.6673   25.4363 C   0  0  0  0  0  0  0  0  0  0  0  0
  -29.9566  -22.1682   21.8251 C   0  0  0  0  0  0  0  0  0  0  0  0
  -19.0756  -31.1385   24.9932 C   0  0  0  0  0  0  0  0  0  0  0  0
  -24.1408  -27.1421   21.5397 C   0  0  0  0  0  0  0  0  0  0  0  0
  -25.9911  -29.3466   22.2187 C   0  0  0  0  0  0  0  0  0  0  0  0
  -20.5685  -31.4224   24.8487 C   0  0  0  0  0  0  0  0  0  0  0  0
  -29.2164  -19.8861   24.4560 C   0  0  0  0  0  0  0  0  0  0  0  0
  -20.9468  -31.5547   23.3769 C   0  0  0  0  0  0  0  0  0  0  0  0
  -28.7197  -18.6374   23.7237 C   0  0  0  0  0  0  0  0  0  0  0  0
  -28.7624  -21.1689   23.7617 C   0  0  0  0  0  0  0  0  0  0  0  0
  -28.5904  -20.0007   21.5996 C   0  0  0  0  0  0  0  0  0  0  0  0
  -20.6681  -30.2525   22.6166 C   0  0  1  0  0  0  0  0  0  0  0  0
  -23.8266  -28.1415   22.6487 C   0  0  1  0  0  0  0  0  0  0  0  0
  -29.0772  -18.6833   22.2252 C   0  0  2  0  0  0  0  0  0  0  0  0
  -30.9115  -21.3318   17.7377 C   0  0  0  0  0  0  0  0  0  0  0  0
  -29.8961  -28.5684   27.4426 C   0  0  0  0  0  0  0  0  0  0  0  0
  -24.8718  -32.0470   24.8880 C   0  0  0  0  0  0  0  0  0  0  0  0
  -27.0146  -32.0079   26.1823 C   0  0  0  0  0  0  0  0  0  0  0  0
  -25.0213  -30.7745   27.0357 C   0  0  0  0  0  0  0  0  0  0  0  0
  -29.2936  -25.9282   24.7701 C   0  0  0  0  0  0  0  0  0  0  0  0
  -30.2821  -27.5980   15.1964 C   0  0  0  0  0  0  0  0  0  0  0  0
  -28.2815  -28.1495   16.7135 C   0  0  0  0  0  0  0  0  0  1  0  0
  -30.4270  -26.1607   15.6751 C   0  0  0  0  0  0  0  0  0  0  0  0
  -26.2663  -29.8786   25.0259 C   0  0  1  0  0  0  0  0  0  0  0  0
  -29.0722  -27.7640   26.4492 C   0  0  2  0  0  0  0  0  0  0  0  0
  -25.7924  -31.1666   25.7565 C   0  0  0  0  0  0  0  0  0  0  0  0
  -27.3970  -16.9088   21.8941 N   0  0  0  0  0  0  0  0  0  0  0  0
  -28.5466  -17.4709   21.4832 N   0  0  0  0  0  0  0  0  0  0  0  0
  -25.0264  -28.7901   23.1816 N   0  0  0  0  0  0  0  0  0  0  0  0
  -29.1390  -21.1434   22.3467 N   0  0  0  0  0  0  0  0  0  0  0  0
  -30.6636  -26.7495   19.4778 N   0  0  0  0  0  0  0  0  0  0  0  0
  -30.2665  -17.2868   19.8651 N   0  0  0  0  0  0  0  0  0  0  0  0
  -27.4987  -13.8693   18.8372 N   0  0  0  0  0  0  0  0  0  0  0  0
  -30.2758  -22.0206   20.4757 N   0  0  0  0  0  0  0  0  0  0  0  0
  -21.7030  -29.2777   22.8874 N   0  0  0  0  0  0  0  0  0  0  0  0
  -27.1177  -29.0122   25.8340 N   0  0  0  0  0  0  0  0  0  0  0  0
  -29.9764  -26.8009   25.7596 N   0  3  0  0  0  0  0  0  0  0  0  0
  -29.4529  -14.9210   18.2595 O   0  0  0  0  0  0  0  0  0  0  0  0
  -23.2467  -29.9869   21.2948 O   0  0  0  0  0  0  0  0  0  0  0  0
  -30.2722  -29.4952   16.6957 O   0  0  0  0  0  0  0  0  0  0  0  0
  -24.3212  -28.5716   25.3932 O   0  0  0  0  0  0  0  0  0  0  0  0
  -28.9382  -29.0335   24.3979 O   0  0  0  0  0  0  0  0  0  0  0  0
  -30.3674  -23.0930   22.5308 O   0  0  0  0  0  0  0  0  0  0  0  0
  -22.7784  -12.5445   21.4826 O   0  0  0  0  0  0  0  0  0  0  0  0
  -27.8095  -29.0830   17.6842 O   0  0  0  0  0  0  0  0  0  1  0  0
  -31.2842  -26.0989   16.8082 O   0  0  0  0  0  0  0  0  0  0  0  0
  -23.6088   -7.1079   21.0851 F   0  0  0  0  0  0  0  0  0  0  0  0
  -22.1105  -10.8518   23.5638 F   0  0  0  0  0  0  0  0  0  0  0  0
  1  2  1  0  0  0  0
  1  5  2  0  0  0  0
  2  6  2  0  0  0  0
  3  8  2  0  0  0  0
  3 17  1  0  0  0  0
  4  9  1  0  0  0  0
  4 17  2  0  0  0  0
  5 19  1  0  0  0  0
  6 21  1  0  0  0  0
  7 10  2  0  0  0  0
  7 20  1  0  0  0  0
  8 26  1  0  0  0  0
  9 26  2  0  0  0  0
 10 27  1  0  0  0  0
 11 12  2  0  0  0  0
 11 28  1  0  0  0  0
 12 30  1  0  0  0  0
 13 22  1  0  0  0  0
 13 27  2  0  0  0  0
 14 23  2  0  0  0  0
 14 29  1  0  0  0  0
 15 24  2  0  0  0  0
 15 25  1  0  0  0  0
 16 30  2  0  0  0  0
 16 31  1  0  0  0  0
 17 32  1  0  0  0  0
 18 32  1  0  0  0  0
 18 33  2  0  0  0  0
 18 34  1  0  0  0  0
 19 21  2  0  0  0  0
 19 40  1  0  0  0  0
 20 22  2  0  0  0  0
 20 41  1  0  0  0  0
 21 49  1  0  0  0  0
 22 42  1  0  0  0  0
 23 24  1  0  0  0  0
 23 52  1  0  0  0  0
 24 71  1  0  0  0  0
 25 29  2  0  0  0  0
 25 68  1  0  0  0  0
 26 81  1  0  0  0  0
 27 82  1  0  0  0  0
 28 31  2  0  0  0  0
 28 81  1  0  0  0  0
 29 83  1  0  0  0  0
 30 84  1  0  0  0  0
 31 85  1  0  0  0  0
 32 64  2  0  0  0  0
 33 65  1  0  0  0  0
 33 69  1  0  0  0  0
 34 70  1  0  0  0  0
 34 75  2  0  0  0  0
 35 50  1  0  0  0  0
 35 72  1  0  0  0  0
 35 76  2  0  0  0  0
 36 58  1  0  0  0  0
 36 59  1  0  0  0  0
 36 77  2  0  0  0  0
 37 61  1  0  0  0  0
 37 66  1  0  0  0  0
 37 78  2  0  0  0  0
 38 62  1  0  0  0  0
 38 73  1  0  0  0  0
 38 79  2  0  0  0  0
 39 67  1  0  0  0  0
 39 71  1  0  0  0  0
 39 80  2  0  0  0  0
 40 43  1  0  0  0  0
 41 50  1  0  0  0  0
 42 66  1  0  0  0  0
 43 45  1  0  0  0  0
 44 46  1  0  0  0  0
 44 47  1  0  0  0  0
 45 49  1  0  0  0  0
 46 51  1  0  0  0  0
 47 67  1  0  0  0  0
 48 51  1  0  0  0  0
 48 67  1  0  0  0  0
 49 72  1  0  0  0  0
 50 66  1  0  0  0  0
 51 65  1  0  0  0  0
 53 62  1  0  0  0  0
 54 63  1  0  0  0  0
 55 63  1  0  0  0  0
 56 63  1  0  0  0  0
 57 74  1  0  0  0  0
 58 60  1  0  0  0  0
 59 82  1  0  0  0  0
 60 83  1  0  0  0  0
 61 63  1  0  0  0  0
 61 73  1  0  0  0  0
 62 74  1  0  0  0  0
 64 65  1  0  0  0  0
M  CHG  1  74   1
M  ISO  4  39 100  59 101  71 100  82 101
M  END
> <Batch ID>
0107

> <Smiles>
CNC(C)C(=O)NC(C(=O)N1Cc2cc([101O:1][101CH2:1]C(=O)CCOc3cc(C)c([100NH:0][100C:0](=O)N4CCCC(n5nc(-c6ccc(Oc7ccc(F)cc7F)cc6)c(C(N)=O)c5N)C4)cc3N)ccc2CC1C(=O)NC1CCCc2ccccc21)C(C)(C)C

> <Shape>
0.294

> <Color>
0.081

> <Negative vol penalty>
0.000

$$$$

  -OEChem-04052301173D

 89 98  0     1  0  0  0  0  0999 V2000
  -23.4852  -32.6279   29.1176 C   0  0  0  0  0  0  0  0  0  0  0  0
  -23.0066  -31.3481   28.8607 C   0  0  0  0  0  0  0  0  0  0  0  0
  -22.2008  -14.7907   18.9681 C   0  0  0  0  0  0  0  0  0  0  0  0
  -23.6001  -16.7357   19.2778 C   0  0  0  0  0  0  0  0  0  0  0  0
  -24.1437  -33.3360   28.1146 C   0  0  0  0  0  0  0  0  0  0  0  0
  -23.1968  -30.7714   27.6044 C   0  0  0  0  0  0  0  0  0  0  0  0
  -23.2348  -23.9477   26.1904 C   0  0  0  0  0  0  0  0  0  0  0  0
  -21.3193  -15.5478   18.1964 C   0  0  0  0  0  0  0  0  0  0  0  0
  -22.7186  -17.4928   18.5061 C   0  0  0  0  0  0  0  0  0  0  0  0
  -23.1247  -22.5974   25.8574 C   0  0  0  0  0  0  0  0  0  0  0  0
  -18.8500  -17.7955   18.7207 C   0  0  0  0  0  0  0  0  0  0  0  0
  -17.4851  -17.6535   18.9703 C   0  0  0  0  0  0  0  0  0  0  0  0
  -23.5157  -23.1283   23.5308 C   0  0  0  0  0  0  0  0  0  0  0  0
  -27.2232  -17.6765   21.7738 C   0  0  0  0  0  0  0  0  0  0  0  0
  -27.7519  -15.9148   23.3403 C   0  0  0  0  0  0  0  0  0  0  0  0
  -17.1460  -16.9140   16.6954 C   0  0  0  0  0  0  0  0  0  0  0  0
  -23.3412  -15.3847   19.5089 C   0  0  0  0  0  0  0  0  0  0  0  0
  -23.9636  -13.9236   21.5052 C   0  0  0  0  0  0  0  0  0  0  0  0
  -24.3307  -32.7719   26.8419 C   0  0  0  0  0  0  0  0  0  0  0  0
  -23.5015  -24.8927   25.1958 C   0  0  0  0  0  0  0  0  0  0  0  0
  -23.8800  -31.4608   26.5863 C   0  0  0  0  0  0  0  0  0  0  0  0
  -23.6395  -24.4807   23.8601 C   0  0  0  0  0  0  0  0  0  0  0  0
  -28.4195  -17.4349   21.0984 C   0  0  0  0  0  0  0  0  0  0  0  0
  -28.9481  -15.6732   22.6649 C   0  0  0  0  0  0  0  0  0  0  0  0
  -26.8894  -16.9164   22.8948 C   0  0  0  0  0  0  0  0  0  0  0  0
  -29.2819  -16.4333   21.5439 C   0  0  0  0  0  0  0  0  0  0  0  0
  -21.5782  -16.8988   17.9654 C   0  0  0  0  0  0  0  0  0  0  0  0
  -23.2645  -22.1889   24.5308 C   0  0  0  0  0  0  0  0  0  0  0  0
  -19.3630  -17.4969   17.4583 C   0  0  0  0  0  0  0  0  0  0  0  0
  -16.6331  -17.2127   17.9577 C   0  0  0  0  0  0  0  0  0  0  0  0
  -18.5109  -17.0562   16.4457 C   0  0  0  0  0  0  0  0  0  0  0  0
  -24.2518  -14.6033   20.3066 C   0  0  0  0  0  0  0  0  0  0  0  0
  -25.1540  -13.3394   21.8633 C   0  0  0  0  0  0  0  0  0  0  0  0
  -24.0438  -18.6647   24.5561 C   0  0  0  0  0  0  0  0  0  0  0  0
  -25.3166  -18.3813   24.1869 C   0  0  0  0  0  0  0  0  0  0  0  0
  -22.9777  -17.6510   24.2554 C   0  0  0  0  0  0  0  0  0  0  0  0
  -22.7302  -13.8286   22.2300 C   0  0  0  0  0  0  0  0  0  0  0  0
  -24.0946  -28.4976   24.3421 C   0  0  0  0  0  0  0  0  0  0  0  0
  -26.0626  -26.8488   22.6631 C   0  0  0  0  0  0  0  0  0  0  0  0
  -28.7266  -25.7074   20.8638 C   0  0  0  0  0  0  0  0  0  0  0  0
  -30.8372  -14.9472   20.2540 C   0  0  0  0  0  0  0  0  0  0  0  0
  -25.0572  -33.5797   25.7955 C   0  0  0  0  0  0  0  0  0  0  0  0
  -23.5672  -26.3648   25.4996 C   0  0  0  0  0  0  0  0  0  0  0  0
  -23.8914  -25.5365   22.8186 C   0  0  0  0  0  0  0  0  0  0  0  0
  -23.3478  -16.4351   23.4408 C   0  0  0  0  0  0  0  0  0  0  0  0
  -24.8199  -33.0677   24.3785 C   0  0  0  0  0  0  0  0  0  0  0  0
  -29.2176  -11.6285   20.0173 C   0  0  0  0  0  0  0  0  0  0  0  0
  -25.0509  -31.5650   24.3234 C   0  0  0  0  0  0  0  0  0  0  0  0
  -27.7305  -11.9713   20.0823 C   0  0  0  0  0  0  0  0  0  0  0  0
  -24.7811  -16.0017   23.6941 C   0  0  0  0  0  0  0  0  0  0  0  0
  -30.0347  -12.7646   19.4098 C   0  0  0  0  0  0  0  0  0  0  0  0
  -28.3525  -14.4182   20.1695 C   0  0  0  0  0  0  0  0  0  0  0  0
  -24.0484  -30.8251   25.2181 C   0  0  1  0  0  0  0  0  0  0  0  0
  -24.5965  -27.1142   24.6346 C   0  0  1  0  0  0  0  0  0  0  0  0
  -27.5129  -13.3055   20.8150 C   0  0  1  0  0  0  0  0  0  0  0  0
  -28.7495  -18.2662   19.9011 C   0  0  0  0  0  0  0  0  0  0  0  0
  -29.8522  -14.5939   23.1665 C   0  0  0  0  0  0  0  0  0  0  0  0
  -26.4349  -19.3478   24.5262 C   0  0  0  0  0  0  0  0  0  0  0  0
  -30.1661  -26.2882   18.8921 C   0  0  0  0  0  0  0  0  0  0  0  0
  -23.8244  -25.9852   20.7793 C   0  0  0  0  0  0  0  0  0  0  0  0
  -25.5478  -25.6692   18.9910 C   0  0  0  0  0  0  0  0  0  0  0  0
  -25.1735  -27.9310   19.9742 C   0  0  0  0  0  0  0  0  0  0  0  0
  -31.5914  -17.1684   20.9813 C   0  0  0  0  0  0  0  0  0  0  0  0
  -31.1661  -25.8327   22.5347 C   0  0  0  0  0  0  0  0  0  0  0  0
  -23.5605  -19.9285   25.2095 C   0  0  0  0  0  0  0  0  0  1  0  0
  -26.3362  -26.1579   21.3512 C   0  0  1  0  0  0  0  0  0  0  0  0
  -29.9979  -26.3949   20.3998 C   0  0  2  0  0  0  0  0  0  0  0  0
  -25.2227  -26.4221   20.2987 C   0  0  0  0  0  0  0  0  0  0  0  0
  -25.5254  -14.4648   19.9286 N   0  0  0  0  0  0  0  0  0  0  0  0
  -26.0480  -13.6914   20.8953 N   0  0  0  0  0  0  0  0  0  0  0  0
  -25.6727  -17.1614   23.5823 N   0  0  0  0  0  0  0  0  0  0  0  0
  -24.8723  -26.5121   23.3192 N   0  0  0  0  0  0  0  0  0  0  0  0
  -29.7722  -14.0400   20.0785 N   0  0  0  0  0  0  0  0  0  0  0  0
  -25.5127  -12.5642   22.9087 N   0  0  0  0  0  0  0  0  0  0  0  0
  -21.6038  -14.4896   21.7215 N   0  0  0  0  0  0  0  0  0  0  0  0
  -24.4296  -29.4325   25.3029 N   0  0  0  0  0  0  0  0  0  0  0  0
  -27.6668  -26.5867   20.9338 N   0  0  0  0  0  0  0  0  0  0  0  0
  -30.5196  -16.1845   20.8460 N   0  0  0  0  0  0  0  0  0  0  0  0
  -31.1880  -25.7772   21.0503 N   0  3  0  0  0  0  0  0  0  0  0  0
  -21.8150  -17.8327   24.6158 O   0  0  0  0  0  0  0  0  0  0  0  0
  -22.6340  -13.1904   23.3056 O   0  0  0  0  0  0  0  0  0  0  0  0
  -23.4518  -28.7034   23.3193 O   0  0  0  0  0  0  0  0  0  0  0  0
  -26.8775  -27.6695   23.0941 O   0  0  0  0  0  0  0  0  0  0  0  0
  -28.6776  -24.5093   21.1335 O   0  0  0  0  0  0  0  0  0  0  0  0
  -31.9827  -14.6957   19.8599 O   0  0  0  0  0  0  0  0  0  0  0  0
  -20.7184  -17.6377   17.2123 O   0  0  0  0  0  0  0  0  0  0  0  0
  -23.1603  -20.8686   24.2134 O   0  0  0  0  0  0  0  0  0  1  0  0
  -15.3226  -17.0748   18.1981 F   0  0  0  0  0  0  0  0  0  0  0  0
  -18.9980  -16.7666   15.2313 F   0  0  0  0  0  0  0  0  0  0  0  0
  1  2  1  0  0  0  0
  1  5  2  0  0  0  0
  2  6  2  0  0  0  0
  3  8  2  0  0  0  0
  3 17  1  0  0  0  0
  4  9  1  0  0  0  0
  4 17  2  0  0  0  0
  5 19  1  0  0  0  0
  6 21  1  0  0  0  0
  7 10  2  0  0  0  0
  7 20  1  0  0  0  0
  8 27  1  0  0  0  0
  9 27  2  0  0  0  0
 10 28  1  0  0  0  0
 11 12  2  0  0  0  0
 11 29  1  0  0  0  0
 12 30  1  0  0  0  0
 13 22  1  0  0  0  0
 13 28  2  0  0  0  0
 14 23  2  0  0  0  0
 14 25  1  0  0  0  0
 15 24  1  0  0  0  0
 15 25  2  0  0  0  0
 16 30  2  0  0  0  0
 16 31  1  0  0  0  0
 17 32  1  0  0  0  0
 18 32  1  0  0  0  0
 18 33  2  0  0  0  0
 18 37  1  0  0  0  0
 19 21  2  0  0  0  0
 19 42  1  0  0  0  0
 20 22  2  0  0  0  0
 20 43  1  0  0  0  0
 21 53  1  0  0  0  0
 22 44  1  0  0  0  0
 23 26  1  0  0  0  0
 23 56  1  0  0  0  0
 24 26  2  0  0  0  0
 24 57  1  0  0  0  0
 25 71  1  0  0  0  0
 26 78  1  0  0  0  0
 27 86  1  0  0  0  0
 28 87  1  0  0  0  0
 29 31  2  0  0  0  0
 29 86  1  0  0  0  0
 30 88  1  0  0  0  0
 31 89  1  0  0  0  0
 32 69  2  0  0  0  0
 33 70  1  0  0  0  0
 33 74  1  0  0  0  0
 34 35  2  0  0  0  0
 34 36  1  0  0  0  0
 34 65  1  0  0  0  0
 35 58  1  0  0  0  0
 35 71  1  0  0  0  0
 36 45  1  0  0  0  0
 36 80  2  0  0  0  0
 37 75  1  0  0  0  0
 37 81  2  0  0  0  0
 38 54  1  0  0  0  0
 38 76  1  0  0  0  0
 38 82  2  0  0  0  0
 39 66  1  0  0  0  0
 39 72  1  0  0  0  0
 39 83  2  0  0  0  0
 40 67  1  0  0  0  0
 40 77  1  0  0  0  0
 40 84  2  0  0  0  0
 41 73  1  0  0  0  0
 41 78  1  0  0  0  0
 41 85  2  0  0  0  0
 42 46  1  0  0  0  0
 43 54  1  0  0  0  0
 44 72  1  0  0  0  0
 45 50  1  0  0  0  0
 46 48  1  0  0  0  0
 47 49  1  0  0  0  0
 47 51  1  0  0  0  0
 48 53  1  0  0  0  0
 49 55  1  0  0  0  0
 50 71  1  0  0  0  0
 51 73  1  0  0  0  0
 52 55  1  0  0  0  0
 52 73  1  0  0  0  0
 53 76  1  0  0  0  0
 54 72  1  0  0  0  0
 55 70  1  0  0  0  0
 59 67  1  0  0  0  0
 60 68  1  0  0  0  0
 61 68  1  0  0  0  0
 62 68  1  0  0  0  0
 63 78  1  0  0  0  0
 64 79  1  0  0  0  0
 65 87  1  0  0  0  0
 66 68  1  0  0  0  0
 66 77  1  0  0  0  0
 67 79  1  0  0  0  0
 69 70  1  0  0  0  0
M  CHG  1  79   1
M  ISO  4  41 100  65 101  78 100  87 101
M  END
> <Batch ID>
0107

> <Smiles>
CNC(C)C(=O)NC(C(=O)N1Cc2cc([101O:1][101CH2:1]C3=C(C)N(c4cc(C)c([100N:0](C)[100C:0](=O)N5CCCC(n6nc(-c7ccc(Oc8ccc(F)cc8F)cc7)c(C(N)=O)c6N)C5)c(C)c4)CCC3=O)ccc2CC1C(=O)NC1CCCc2ccccc21)C(C)(C)C

> <Shape>
0.172

> <Color>
0.062

> <Negative vol penalty>
0.000

$$$$

  -OEChem-04052301173D

 86 94  0     1  0  0  0  0  0999 V2000
  -32.6882  -19.5878   19.5122 C   0  0  0  0  0  0  0  0  0  0  0  0
  -31.5420  -19.7925   18.7508 C   0  0  0  0  0  0  0  0  0  0  0  0
  -23.2631   -9.7819   19.9023 C   0  0  0  0  0  0  0  0  0  0  0  0
  -23.6953   -9.9067   22.2760 C   0  0  0  0  0  0  0  0  0  0  0  0
  -32.9035  -20.3445   20.6633 C   0  0  0  0  0  0  0  0  0  0  0  0
  -30.6097  -20.7533   19.1408 C   0  0  0  0  0  0  0  0  0  0  0  0
  -29.0188  -23.6011   15.2673 C   0  0  0  0  0  0  0  0  0  0  0  0
  -22.5188   -8.6187   20.0989 C   0  0  0  0  0  0  0  0  0  0  0  0
  -22.9510   -8.7435   22.4727 C   0  0  0  0  0  0  0  0  0  0  0  0
  -28.0719  -23.0401   14.4114 C   0  0  0  0  0  0  0  0  0  0  0  0
  -20.8049   -5.4158   19.9330 C   0  0  0  0  0  0  0  0  0  0  0  0
  -21.0225   -4.3495   19.0605 C   0  0  0  0  0  0  0  0  0  0  0  0
  -27.4665  -18.5733   17.1923 C   0  0  0  0  0  0  0  0  0  0  0  0
  -26.3302  -24.2648   15.5454 C   0  0  0  0  0  0  0  0  0  0  0  0
  -26.3989  -18.2471   14.6356 C   0  0  0  0  0  0  0  0  0  0  0  0
  -23.3388   -4.2645   19.7422 C   0  0  0  0  0  0  0  0  0  0  0  0
  -23.8514  -10.4259   20.9908 C   0  0  0  0  0  0  0  0  0  0  0  0
  -28.0511  -17.6724   16.3021 C   0  0  0  0  0  0  0  0  0  0  0  0
  -24.1473  -12.9528   20.8050 C   0  0  0  0  0  0  0  0  0  0  0  0
  -31.9781  -21.3218   21.0622 C   0  0  0  0  0  0  0  0  0  0  0  0
  -28.6265  -24.4912   16.2773 C   0  0  0  0  0  0  0  0  0  0  0  0
  -30.8121  -21.5229   20.2990 C   0  0  0  0  0  0  0  0  0  0  0  0
  -27.2744  -24.8376   16.4111 C   0  0  0  0  0  0  0  0  0  0  0  0
  -26.3481  -19.3110   16.8042 C   0  0  0  0  0  0  0  0  0  0  0  0
  -27.5173  -17.5094   15.0238 C   0  0  0  0  0  0  0  0  0  0  0  0
  -22.3628   -8.0995   21.3841 C   0  0  0  0  0  0  0  0  0  0  0  0
  -26.7271  -23.3697   14.5522 C   0  0  0  0  0  0  0  0  0  0  0  0
  -21.8543   -5.9065   20.7101 C   0  0  0  0  0  0  0  0  0  0  0  0
  -25.8143  -19.1479   15.5259 C   0  0  0  0  0  0  0  0  0  0  0  0
  -22.2895   -3.7739   18.9651 C   0  0  0  0  0  0  0  0  0  0  0  0
  -23.1212   -5.3308   20.6147 C   0  0  0  0  0  0  0  0  0  0  0  0
  -24.6207  -11.6272   20.7883 C   0  0  0  0  0  0  0  0  0  0  0  0
  -25.2616  -13.7185   20.5627 C   0  0  0  0  0  0  0  0  0  0  0  0
  -29.2401  -16.8984   16.7425 C   0  0  0  0  0  0  0  0  0  0  0  0
  -22.8191  -13.4479   21.0203 C   0  0  0  0  0  0  0  0  0  0  0  0
  -28.7766  -24.4882   19.4524 C   0  0  0  0  0  0  0  0  0  0  0  0
  -27.6495  -27.5116   19.1199 C   0  0  0  0  0  0  0  0  0  0  0  0
  -25.9510  -29.7773   17.2150 C   0  0  0  0  0  0  0  0  0  0  0  0
  -29.9441  -14.7721   17.7947 C   0  0  0  0  0  0  0  0  0  0  0  0
  -32.2308  -22.0822   22.3399 C   0  0  0  0  0  0  0  0  0  0  0  0
  -29.6634  -25.1082   17.1753 C   0  0  0  0  0  0  0  0  0  0  0  0
  -26.8040  -25.8038   17.4664 C   0  0  0  0  0  0  0  0  0  0  0  0
  -31.3775  -23.3403   22.4789 C   0  0  0  0  0  0  0  0  0  0  0  0
  -30.1671  -12.4617   20.4610 C   0  0  0  0  0  0  0  0  0  0  0  0
  -29.9231  -23.0401   22.1303 C   0  0  0  0  0  0  0  0  0  0  0  0
  -28.7050  -12.1514   20.7932 C   0  0  0  0  0  0  0  0  0  0  0  0
  -30.3845  -12.6275   18.9576 C   0  0  0  0  0  0  0  0  0  0  0  0
  -28.0323  -13.2751   18.6324 C   0  0  0  0  0  0  0  0  0  0  0  0
  -29.7896  -22.5730   20.6758 C   0  0  1  0  0  0  0  0  0  0  0  0
  -29.0886  -25.6059   18.4979 C   0  0  1  0  0  0  0  0  0  0  0  0
  -27.7482  -13.1686   20.1394 C   0  0  1  0  0  0  0  0  0  0  0  0
  -25.7335  -20.2692   17.7705 C   0  0  0  0  0  0  0  0  0  0  0  0
  -27.3154  -15.2608   13.9330 C   0  0  0  0  0  0  0  0  0  0  0  0
  -25.1577  -32.1580   17.2247 C   0  0  0  0  0  0  0  0  0  0  0  0
  -25.4082  -26.7543   21.0467 C   0  0  0  0  0  0  0  0  0  0  0  0
  -24.1618  -28.7882   20.2864 C   0  0  0  0  0  0  0  0  0  0  0  0
  -26.3739  -29.0319   21.4133 C   0  0  0  0  0  0  0  0  0  0  0  0
  -27.5559  -30.4438   14.8193 C   0  0  0  0  0  0  0  0  0  0  0  0
  -28.1227  -16.5498   14.0519 C   0  0  0  0  0  0  0  0  0  0  0  0
  -23.8224  -21.4517   13.5545 C   0  0  0  0  0  0  0  0  0  0  0  0
  -24.4869  -22.6340   14.2423 C   0  0  0  0  0  0  0  0  0  1  0  0
  -24.6116  -20.1659   13.7445 C   0  0  0  0  0  0  0  0  0  0  0  0
  -26.2786  -28.1398   19.0496 C   0  0  1  0  0  0  0  0  0  0  0  0
  -26.2748  -31.2076   16.8228 C   0  0  2  0  0  0  0  0  0  0  0  0
  -25.5639  -28.1588   20.4303 C   0  0  0  0  0  0  0  0  0  0  0  0
  -25.9335  -11.5514   20.5537 N   0  0  0  0  0  0  0  0  0  0  0  0
  -26.2944  -12.8391   20.4207 N   0  0  0  0  0  0  0  0  0  0  0  0
  -27.8551  -26.3757   18.3241 N   0  0  0  0  0  0  0  0  0  0  0  0
  -29.4472  -13.6137   18.4172 N   0  0  0  0  0  0  0  0  0  0  0  0
  -25.4488  -15.0514   20.4592 N   0  0  0  0  0  0  0  0  0  0  0  0
  -21.7916  -12.5241   21.2552 N   0  0  0  0  0  0  0  0  0  0  0  0
  -28.9691  -15.6721   17.3501 N   0  0  0  0  0  0  0  0  0  0  0  0
  -29.8666  -23.7017   19.7733 N   0  0  0  0  0  0  0  0  0  0  0  0
  -26.4641  -29.4589   18.4546 N   0  0  0  0  0  0  0  0  0  0  0  0
  -26.4706  -31.3090   15.3489 N   0  3  0  0  0  0  0  0  0  0  0  0
  -30.3615  -17.3463   16.5195 O   0  0  0  0  0  0  0  0  0  0  0  0
  -22.5483  -14.6723   20.9886 O   0  0  0  0  0  0  0  0  0  0  0  0
  -27.6321  -24.3504   19.8682 O   0  0  0  0  0  0  0  0  0  0  0  0
  -28.5086  -28.0146   19.8483 O   0  0  0  0  0  0  0  0  0  0  0  0
  -25.3042  -29.0195   16.4953 O   0  0  0  0  0  0  0  0  0  0  0  0
  -31.1516  -15.0037   17.6787 O   0  0  0  0  0  0  0  0  0  0  0  0
  -21.6364   -6.9646   21.5764 O   0  0  0  0  0  0  0  0  0  0  0  0
  -25.8007  -22.8232   13.7185 O   0  0  0  0  0  0  0  0  0  1  0  0
  -24.7143  -19.8630   15.1293 O   0  0  0  0  0  0  0  0  0  0  0  0
  -22.4979   -2.7489   18.1283 F   0  0  0  0  0  0  0  0  0  0  0  0
  -24.1329   -5.7971   21.3595 F   0  0  0  0  0  0  0  0  0  0  0  0
  1  2  1  0  0  0  0
  1  5  2  0  0  0  0
  2  6  2  0  0  0  0
  3  8  2  0  0  0  0
  3 17  1  0  0  0  0
  4  9  1  0  0  0  0
  4 17  2  0  0  0  0
  5 20  1  0  0  0  0
  6 22  1  0  0  0  0
  7 10  2  0  0  0  0
  7 21  1  0  0  0  0
  8 26  1  0  0  0  0
  9 26  2  0  0  0  0
 10 27  1  0  0  0  0
 11 12  2  0  0  0  0
 11 28  1  0  0  0  0
 12 30  1  0  0  0  0
 13 18  1  0  0  0  0
 13 24  2  0  0  0  0
 14 23  1  0  0  0  0
 14 27  2  0  0  0  0
 15 25  1  0  0  0  0
 15 29  2  0  0  0  0
 16 30  2  0  0  0  0
 16 31  1  0  0  0  0
 17 32  1  0  0  0  0
 18 25  2  0  0  0  0
 18 34  1  0  0  0  0
 19 32  1  0  0  0  0
 19 33  2  0  0  0  0
 19 35  1  0  0  0  0
 20 22  2  0  0  0  0
 20 40  1  0  0  0  0
 21 23  2  0  0  0  0
 21 41  1  0  0  0  0
 22 49  1  0  0  0  0
 23 42  1  0  0  0  0
 24 29  1  0  0  0  0
 24 52  1  0  0  0  0
 25 59  1  0  0  0  0
 26 82  1  0  0  0  0
 27 83  1  0  0  0  0
 28 31  2  0  0  0  0
 28 82  1  0  0  0  0
 29 84  1  0  0  0  0
 30 85  1  0  0  0  0
 31 86  1  0  0  0  0
 32 66  2  0  0  0  0
 33 67  1  0  0  0  0
 33 70  1  0  0  0  0
 34 72  1  0  0  0  0
 34 76  2  0  0  0  0
 35 71  1  0  0  0  0
 35 77  2  0  0  0  0
 36 50  1  0  0  0  0
 36 73  1  0  0  0  0
 36 78  2  0  0  0  0
 37 63  1  0  0  0  0
 37 68  1  0  0  0  0
 37 79  2  0  0  0  0
 38 64  1  0  0  0  0
 38 74  1  0  0  0  0
 38 80  2  0  0  0  0
 39 69  1  0  0  0  0
 39 72  1  0  0  0  0
 39 81  2  0  0  0  0
 40 43  1  0  0  0  0
 41 50  1  0  0  0  0
 42 68  1  0  0  0  0
 43 45  1  0  0  0  0
 44 46  1  0  0  0  0
 44 47  1  0  0  0  0
 45 49  1  0  0  0  0
 46 51  1  0  0  0  0
 47 69  1  0  0  0  0
 48 51  1  0  0  0  0
 48 69  1  0  0  0  0
 49 73  1  0  0  0  0
 50 68  1  0  0  0  0
 51 67  1  0  0  0  0
 53 59  1  0  0  0  0
 54 64  1  0  0  0  0
 55 65  1  0  0  0  0
 56 65  1  0  0  0  0
 57 65  1  0  0  0  0
 58 75  1  0  0  0  0
 60 61  1  0  0  0  0
 60 62  1  0  0  0  0
 61 83  1  0  0  0  0
 62 84  1  0  0  0  0
 63 65  1  0  0  0  0
 63 74  1  0  0  0  0
 64 75  1  0  0  0  0
 66 67  1  0  0  0  0
M  CHG  1  75   1
M  ISO  4  39 100  61 101  72 100  83 101
M  END
> <Batch ID>
0107

> <Smiles>
CCc1cc(OCC[101CH2:1][101O:1]c2ccc3c(c2)CN(C(=O)C(NC(=O)C(C)NC)C(C)(C)C)C(C(=O)NC2CCCc4ccccc42)C3)c(C)cc1C(=O)[100NH:0][100C:0](=O)N1CCCC(n2nc(-c3ccc(Oc4ccc(F)cc4F)cc3)c(C(N)=O)c2N)C1

> <Shape>
0.198

> <Color>
0.174

> <Negative vol penalty>
0.000

$$$$

  -OEChem-04052301173D

 88 97  0     1  0  0  0  0  0999 V2000
  -18.6162  -23.8673   23.2323 C   0  0  0  0  0  0  0  0  0  0  0  0
  -19.8050  -23.7341   22.5221 C   0  0  0  0  0  0  0  0  0  0  0  0
  -20.6311  -16.6417   23.5868 C   0  0  0  0  0  0  0  0  0  0  0  0
  -21.9401  -18.4075   22.5839 C   0  0  0  0  0  0  0  0  0  0  0  0
  -18.0697  -25.1324   23.4435 C   0  0  0  0  0  0  0  0  0  0  0  0
  -20.4475  -24.8661   22.0218 C   0  0  0  0  0  0  0  0  0  0  0  0
  -25.4420  -24.7928   22.8551 C   0  0  0  0  0  0  0  0  0  0  0  0
  -20.2595  -17.5034   24.6188 C   0  0  0  0  0  0  0  0  0  0  0  0
  -21.5684  -19.2692   23.6159 C   0  0  0  0  0  0  0  0  0  0  0  0
  -26.2157  -23.9917   22.0164 C   0  0  0  0  0  0  0  0  0  0  0  0
  -22.4493  -19.8307   26.8314 C   0  0  0  0  0  0  0  0  0  0  0  0
  -23.4464  -20.6146   27.4119 C   0  0  0  0  0  0  0  0  0  0  0  0
  -26.8319  -25.9399   20.7342 C   0  0  0  0  0  0  0  0  0  0  0  0
  -30.8931  -16.6851   21.2176 C   0  0  0  0  0  0  0  0  0  0  0  0
  -30.8045  -16.9826   18.8216 C   0  0  0  0  0  0  0  0  0  0  0  0
  -22.2548  -22.6127   26.7603 C   0  0  0  0  0  0  0  0  0  0  0  0
  -21.4714  -17.0938   22.5693 C   0  0  0  0  0  0  0  0  0  0  0  0
  -21.1885  -16.0044   20.2800 C   0  0  0  0  0  0  0  0  0  0  0  0
  -18.7108  -26.2813   22.9539 C   0  0  0  0  0  0  0  0  0  0  0  0
  -25.3485  -26.1741   22.6327 C   0  0  0  0  0  0  0  0  0  0  0  0
  -19.9083  -26.1477   22.2255 C   0  0  0  0  0  0  0  0  0  0  0  0
  -26.0583  -26.7567   21.5730 C   0  0  0  0  0  0  0  0  0  0  0  0
  -30.2902  -17.9304   21.3945 C   0  0  0  0  0  0  0  0  0  0  0  0
  -30.2016  -18.2279   18.9986 C   0  0  0  0  0  0  0  0  0  0  0  0
  -20.7281  -18.8171   24.6334 C   0  0  0  0  0  0  0  0  0  0  0  0
  -26.9085  -24.5649   20.9540 C   0  0  0  0  0  0  0  0  0  0  0  0
  -21.3550  -20.4378   26.2153 C   0  0  0  0  0  0  0  0  0  0  0  0
  -31.1503  -16.2112   19.9311 C   0  0  0  0  0  0  0  0  0  0  0  0
  -29.9445  -18.7018   20.2850 C   0  0  0  0  0  0  0  0  0  0  0  0
  -23.3492  -22.0056   27.3764 C   0  0  0  0  0  0  0  0  0  0  0  0
  -21.2578  -21.8288   26.1798 C   0  0  0  0  0  0  0  0  0  0  0  0
  -21.8561  -16.2040   21.5033 C   0  0  0  0  0  0  0  0  0  0  0  0
  -21.9490  -15.0684   19.6226 C   0  0  0  0  0  0  0  0  0  0  0  0
  -19.9884  -16.6109   19.7825 C   0  0  0  0  0  0  0  0  0  0  0  0
  -22.9813  -28.1796   21.9412 C   0  0  0  0  0  0  0  0  0  0  0  0
  -27.7095  -13.7023   20.0976 C   0  0  0  0  0  0  0  0  0  0  0  0
  -25.2892  -30.4246   22.3365 C   0  0  0  0  0  0  0  0  0  0  0  0
  -28.6135  -31.1964   22.3201 C   0  0  0  0  0  0  0  0  0  0  0  0
  -18.0572  -27.6237   23.1666 C   0  0  0  0  0  0  0  0  0  0  0  0
  -24.5310  -27.0283   23.5626 C   0  0  0  0  0  0  0  0  0  0  0  0
  -26.0073  -28.2376   21.3037 C   0  0  0  0  0  0  0  0  0  0  0  0
  -18.9960  -28.8032   22.9261 C   0  0  0  0  0  0  0  0  0  0  0  0
  -24.9090  -11.4049   20.4229 C   0  0  0  0  0  0  0  0  0  0  0  0
  -19.7724  -28.6113   21.6271 C   0  0  0  0  0  0  0  0  0  0  0  0
  -23.7472  -12.3700   20.6549 C   0  0  0  0  0  0  0  0  0  0  0  0
  -31.3544  -12.5441   19.6226 C   0  0  0  0  0  0  0  0  0  0  0  0
  -26.1953  -11.9083   21.0725 C   0  0  0  0  0  0  0  0  0  0  0  0
  -25.4265  -14.2525   20.8766 C   0  0  0  0  0  0  0  0  0  0  0  0
  -20.6479  -27.3538   21.6884 C   0  0  1  0  0  0  0  0  0  0  0  0
  -24.0963  -28.3487   22.9341 C   0  0  1  0  0  0  0  0  0  0  0  0
  -30.0366  -13.2240   19.3730 C   0  0  2  0  0  0  0  0  0  0  0  0
  -24.1174  -13.7961   20.2111 C   0  0  2  0  0  0  0  0  0  0  0  0
  -31.0517  -13.8613   20.2838 C   0  0  2  0  0  0  0  0  0  0  0  0
  -30.0231  -18.4202   22.7797 C   0  0  0  0  0  0  0  0  0  0  0  0
  -28.3445  -18.9858   17.4942 C   0  0  0  0  0  0  0  0  0  0  0  0
  -30.1904  -33.1216   22.6428 C   0  0  0  0  0  0  0  0  0  0  0  0
  -24.5537  -31.4873   19.5725 C   0  0  0  0  0  0  0  0  0  0  0  0
  -26.7215  -32.7396   19.5537 C   0  0  0  0  0  0  0  0  0  0  0  0
  -25.0007  -33.2546   21.2847 C   0  0  0  0  0  0  0  0  0  0  0  0
  -29.9380  -29.8774   24.6146 C   0  0  0  0  0  0  0  0  0  0  0  0
  -29.8387  -19.0388   17.7983 C   0  0  0  0  0  0  0  0  0  0  0  0
  -28.7807  -12.6536   19.9350 C   0  0  0  0  0  0  0  0  0  0  0  0
  -29.5419  -22.2779   19.9810 C   0  0  0  0  0  0  0  0  0  0  0  0
  -28.2483  -22.6157   20.7055 C   0  0  0  0  0  0  0  0  0  1  0  0
  -30.2171  -21.0475   20.5663 C   0  0  0  0  0  0  0  0  0  0  0  0
  -26.2990  -31.0903   21.4332 C   0  0  1  0  0  0  0  0  0  0  0  0
  -29.4758  -31.9572   23.3110 C   0  0  2  0  0  0  0  0  0  0  0  0
  -25.6433  -32.1147   20.4647 C   0  0  0  0  0  0  0  0  0  0  0  0
  -22.9559  -15.4550   21.6187 N   0  0  0  0  0  0  0  0  0  0  0  0
  -22.9853  -14.7755   20.4596 N   0  0  0  0  0  0  0  0  0  0  0  0
  -25.1893  -29.0297   22.2369 N   0  0  0  0  0  0  0  0  0  0  0  0
  -26.4982  -13.2796   20.6456 N   0  0  0  0  0  0  0  0  0  0  0  0
  -21.8256  -14.4756   18.4161 N   0  0  0  0  0  0  0  0  0  0  0  0
  -19.3327  -17.5528   20.5869 N   0  0  0  0  0  0  0  0  0  0  0  0
  -21.8404  -27.6057   22.4687 N   0  0  0  0  0  0  0  0  0  0  0  0
  -27.3158  -31.6623   22.3092 N   0  0  0  0  0  0  0  0  0  0  0  0
  -30.5020  -31.0543   23.9048 N   0  3  0  0  0  0  0  0  0  0  0  0
  -19.5027  -16.3138   18.6647 O   0  0  0  0  0  0  0  0  0  0  0  0
  -23.1436  -28.5444   20.7826 O   0  0  0  0  0  0  0  0  0  0  0  0
  -27.9432  -14.8613   19.7451 O   0  0  0  0  0  0  0  0  0  0  0  0
  -24.6189  -31.1161   23.1073 O   0  0  0  0  0  0  0  0  0  0  0  0
  -29.0485  -30.2827   21.6226 O   0  0  0  0  0  0  0  0  0  0  0  0
  -20.3655  -19.6582   25.6402 O   0  0  0  0  0  0  0  0  0  0  0  0
  -31.7389  -14.9959   19.7586 O   0  0  0  0  0  0  0  0  0  0  0  0
  -27.6640  -23.7852   20.1335 O   0  0  0  0  0  0  0  0  0  1  0  0
  -29.3517  -19.9253   20.4588 O   0  0  0  0  0  0  0  0  0  0  0  0
  -24.3060  -22.7582   27.9352 F   0  0  0  0  0  0  0  0  0  0  0  0
  -20.2082  -22.4178   25.5904 F   0  0  0  0  0  0  0  0  0  0  0  0
  1  2  1  0  0  0  0
  1  5  2  0  0  0  0
  2  6  2  0  0  0  0
  3  8  2  0  0  0  0
  3 17  1  0  0  0  0
  4  9  1  0  0  0  0
  4 17  2  0  0  0  0
  5 19  1  0  0  0  0
  6 21  1  0  0  0  0
  7 10  2  0  0  0  0
  7 20  1  0  0  0  0
  8 25  1  0  0  0  0
  9 25  2  0  0  0  0
 10 26  1  0  0  0  0
 11 12  2  0  0  0  0
 11 27  1  0  0  0  0
 12 30  1  0  0  0  0
 13 22  1  0  0  0  0
 13 26  2  0  0  0  0
 14 23  2  0  0  0  0
 14 28  1  0  0  0  0
 15 24  1  0  0  0  0
 15 28  2  0  0  0  0
 16 30  2  0  0  0  0
 16 31  1  0  0  0  0
 17 32  1  0  0  0  0
 18 32  1  0  0  0  0
 18 33  2  0  0  0  0
 18 34  1  0  0  0  0
 19 21  2  0  0  0  0
 19 39  1  0  0  0  0
 20 22  2  0  0  0  0
 20 40  1  0  0  0  0
 21 49  1  0  0  0  0
 22 41  1  0  0  0  0
 23 29  1  0  0  0  0
 23 54  1  0  0  0  0
 24 29  2  0  0  0  0
 24 61  1  0  0  0  0
 25 83  1  0  0  0  0
 26 85  1  0  0  0  0
 27 31  2  0  0  0  0
 27 83  1  0  0  0  0
 28 84  1  0  0  0  0
 29 86  1  0  0  0  0
 30 87  1  0  0  0  0
 31 88  1  0  0  0  0
 32 69  2  0  0  0  0
 33 70  1  0  0  0  0
 33 73  1  0  0  0  0
 34 74  1  0  0  0  0
 34 78  2  0  0  0  0
 35 50  1  0  0  0  0
 35 75  1  0  0  0  0
 35 79  2  0  0  0  0
 36 62  1  0  0  0  0
 36 72  1  0  0  0  0
 36 80  2  0  0  0  0
 37 66  1  0  0  0  0
 37 71  1  0  0  0  0
 37 81  2  0  0  0  0
 38 67  1  0  0  0  0
 38 76  1  0  0  0  0
 38 82  2  0  0  0  0
 39 42  1  0  0  0  0
 40 50  1  0  0  0  0
 41 71  1  0  0  0  0
 42 44  1  0  0  0  0
 43 45  1  0  0  0  0
 43 47  1  0  0  0  0
 44 49  1  0  0  0  0
 45 52  1  0  0  0  0
 46 51  1  0  0  0  0
 46 53  1  0  0  0  0
 47 72  1  0  0  0  0
 48 52  1  0  0  0  0
 48 72  1  0  0  0  0
 49 75  1  0  0  0  0
 50 71  1  0  0  0  0
 51 53  1  0  0  0  0
 51 62  1  0  0  0  0
 52 70  1  0  0  0  0
 53 84  1  0  0  0  0
 55 61  1  0  0  0  0
 56 67  1  0  0  0  0
 57 68  1  0  0  0  0
 58 68  1  0  0  0  0
 59 68  1  0  0  0  0
 60 77  1  0  0  0  0
 63 64  1  0  0  0  0
 63 65  1  0  0  0  0
 64 85  1  0  0  0  0
 65 86  1  0  0  0  0
 66 68  1  0  0  0  0
 66 76  1  0  0  0  0
 67 77  1  0  0  0  0
 69 70  1  0  0  0  0
M  CHG  1  77   1
M  ISO  4  36 100  62 100  64 101  85 101
M  END
> <Batch ID>
0107

> <Smiles>
CCc1cc(OC2CC2[100CH2:0][100C:0](=O)N2CCCC(n3nc(-c4ccc(Oc5ccc(F)cc5F)cc4)c(C(N)=O)c3N)C2)cc(C)c1OCC[101CH2:1][101O:1]c1ccc2c(c1)CN(C(=O)C(NC(=O)C(C)NC)C(C)(C)C)C(C(=O)NC1CCCc3ccccc31)C2

> <Shape>
0.233

> <Color>
0.069

> <Negative vol penalty>
0.000

$$$$

  -OEChem-04052301173D

 83 91  0     1  0  0  0  0  0999 V2000
  -16.5896  -29.5533   23.8945 C   0  0  0  0  0  0  0  0  0  0  0  0
  -17.0414  -28.7318   22.8667 C   0  0  0  0  0  0  0  0  0  0  0  0
  -24.3473  -14.2307   22.5947 C   0  0  0  0  0  0  0  0  0  0  0  0
  -26.5810  -14.3589   21.6828 C   0  0  0  0  0  0  0  0  0  0  0  0
  -17.4165  -30.5564   24.3983 C   0  0  0  0  0  0  0  0  0  0  0  0
  -18.3202  -28.9137   22.3413 C   0  0  0  0  0  0  0  0  0  0  0  0
  -23.7609  -25.2274   19.4906 C   0  0  0  0  0  0  0  0  0  0  0  0
  -24.0690  -13.1479   21.7605 C   0  0  0  0  0  0  0  0  0  0  0  0
  -26.3026  -13.2761   20.8487 C   0  0  0  0  0  0  0  0  0  0  0  0
  -24.5856  -25.2209   18.3665 C   0  0  0  0  0  0  0  0  0  0  0  0
  -24.7142   -9.8296   21.6872 C   0  0  0  0  0  0  0  0  0  0  0  0
  -24.0630   -8.7306   22.2472 C   0  0  0  0  0  0  0  0  0  0  0  0
  -25.9557  -26.9345   19.3692 C   0  0  0  0  0  0  0  0  0  0  0  0
  -22.2377   -9.0192   20.6907 C   0  0  0  0  0  0  0  0  0  0  0  0
  -29.3011  -22.4201   17.4888 C   0  0  0  0  0  0  0  0  0  0  0  0
  -25.6033  -14.8362   22.5558 C   0  0  0  0  0  0  0  0  0  0  0  0
  -29.3363  -21.7447   18.6842 C   0  0  0  0  0  0  0  0  0  0  0  0
  -26.4255  -15.9107   24.7185 C   0  0  0  0  0  0  0  0  0  0  0  0
  -18.7097  -30.7444   23.8853 C   0  0  0  0  0  0  0  0  0  0  0  0
  -24.0215  -26.0968   20.5595 C   0  0  0  0  0  0  0  0  0  0  0  0
  -19.1647  -29.9211   22.8377 C   0  0  0  0  0  0  0  0  0  0  0  0
  -25.1343  -26.9483   20.5068 C   0  0  0  0  0  0  0  0  0  0  0  0
  -25.0466  -12.6706   20.8876 C   0  0  0  0  0  0  0  0  0  0  0  0
  -25.6815  -26.0765   18.3044 C   0  0  0  0  0  0  0  0  0  0  0  0
  -24.1272  -10.5235   20.6290 C   0  0  0  0  0  0  0  0  0  0  0  0
  -22.8247   -8.3253   21.7489 C   0  0  0  0  0  0  0  0  0  0  0  0
  -22.8890  -10.1183   20.1308 C   0  0  0  0  0  0  0  0  0  0  0  0
  -25.8913  -15.9551   23.4167 C   0  0  0  0  0  0  0  0  0  0  0  0
  -29.2600  -22.7551   19.6616 C   0  0  0  0  0  0  0  0  0  0  0  0
  -26.5070  -17.2272   25.1013 C   0  0  0  0  0  0  0  0  0  0  0  0
  -29.4305  -20.3247   18.8382 C   0  0  0  0  0  0  0  0  0  0  0  0
  -26.8133  -14.7804   25.5108 C   0  0  0  0  0  0  0  0  0  0  0  0
  -22.4512  -28.4932   21.9361 C   0  0  0  0  0  0  0  0  0  0  0  0
  -24.9110  -28.3773   24.0475 C   0  0  0  0  0  0  0  0  0  0  0  0
  -28.1494  -27.5041   24.6779 C   0  0  0  0  0  0  0  0  0  0  0  0
  -26.9599  -22.3463   22.0286 C   0  0  0  0  0  0  0  0  0  0  0  0
  -19.5496  -31.8726   24.4298 C   0  0  0  0  0  0  0  0  0  0  0  0
  -23.1378  -26.0727   21.7764 C   0  0  0  0  0  0  0  0  0  0  0  0
  -25.4692  -27.8864   21.6365 C   0  0  0  0  0  0  0  0  0  0  0  0
  -21.0295  -31.7570   24.0735 C   0  0  0  0  0  0  0  0  0  0  0  0
  -24.4269  -21.4740   24.3738 C   0  0  0  0  0  0  0  0  0  0  0  0
  -21.1980  -31.4220   22.5949 C   0  0  0  0  0  0  0  0  0  0  0  0
  -24.5632  -19.9566   24.5119 C   0  0  0  0  0  0  0  0  0  0  0  0
  -24.6945  -21.9368   22.9433 C   0  0  0  0  0  0  0  0  0  0  0  0
  -26.1163  -19.9698   22.5153 C   0  0  0  0  0  0  0  0  0  0  0  0
  -20.5547  -30.0712   22.2585 C   0  0  1  0  0  0  0  0  0  0  0  0
  -23.2002  -27.3643   22.5859 C   0  0  1  0  0  0  0  0  0  0  0  0
  -25.9104  -19.4614   23.9525 C   0  0  2  0  0  0  0  0  0  0  0  0
  -29.4985  -19.4720   17.5917 C   0  0  0  0  0  0  0  0  0  0  0  0
  -30.2450  -27.1361   26.0084 C   0  0  0  0  0  0  0  0  0  0  0  0
  -25.3261  -31.3565   23.5360 C   0  0  0  0  0  0  0  0  0  0  0  0
  -27.5903  -31.1500   24.5845 C   0  0  0  0  0  0  0  0  0  0  0  0
  -25.5459  -30.6686   25.9304 C   0  0  0  0  0  0  0  0  0  0  0  0
  -27.3236  -24.7660   25.4391 C   0  0  0  0  0  0  0  0  0  0  0  0
  -29.2585  -22.5964   21.1269 C   0  0  0  0  0  0  0  0  0  0  0  0
  -27.9870  -24.7918   15.8414 C   0  0  0  0  0  0  0  0  0  0  0  0
  -29.1406  -24.8958   16.8414 C   0  0  0  0  0  0  0  0  0  0  0  0
  -26.6122  -24.8413   16.4978 C   0  0  0  0  0  0  0  0  0  1  0  0
  -26.2683  -29.0310   24.1447 C   0  0  1  0  0  0  0  0  0  0  0  0
  -28.7833  -26.7537   25.8352 C   0  0  2  0  0  0  0  0  0  0  0  0
  -26.1755  -30.5353   24.5266 C   0  0  0  0  0  0  0  0  0  0  0  0
  -25.6504  -17.2012   23.0005 N   0  0  0  0  0  0  0  0  0  0  0  0
  -29.1823  -23.9792   19.1328 N   0  0  0  0  0  0  0  0  0  0  0  0
  -29.2098  -23.7424   17.8102 N   0  0  0  0  0  0  0  0  0  0  0  0
  -26.0348  -17.9519   24.0468 N   0  0  0  0  0  0  0  0  0  0  0  0
  -24.5715  -27.8302   22.8020 N   0  0  0  0  0  0  0  0  0  0  0  0
  -25.9880  -21.4349   22.4733 N   0  0  0  0  0  0  0  0  0  0  0  0
  -26.9358  -17.8241   26.2337 N   0  0  0  0  0  0  0  0  0  0  0  0
  -26.6632  -13.4984   24.9645 N   0  0  0  0  0  0  0  0  0  0  0  0
  -21.4050  -28.9841   22.6937 N   0  0  0  0  0  0  0  0  0  0  0  0
  -27.0441  -28.2238   25.0800 N   0  0  0  0  0  0  0  0  0  0  0  0
  -28.1599  -21.7876   21.6062 N   0  0  0  0  0  0  0  0  0  0  0  0
  -28.7063  -25.2835   25.6035 N   0  3  0  0  0  0  0  0  0  0  0  0
  -29.4578  -19.7087   19.9211 O   0  0  0  0  0  0  0  0  0  0  0  0
  -27.2639  -14.9027   26.6750 O   0  0  0  0  0  0  0  0  0  0  0  0
  -22.7978  -28.8906   20.8299 O   0  0  0  0  0  0  0  0  0  0  0  0
  -24.1819  -28.3466   25.0421 O   0  0  0  0  0  0  0  0  0  0  0  0
  -28.5927  -27.4595   23.5325 O   0  0  0  0  0  0  0  0  0  0  0  0
  -26.7740  -23.5679   22.0145 O   0  0  0  0  0  0  0  0  0  0  0  0
  -24.7754  -11.6139   20.0737 O   0  0  0  0  0  0  0  0  0  0  0  0
  -26.4877  -26.0727   17.2081 O   0  0  0  0  0  0  0  0  0  1  0  0
  -22.2001   -7.2690   22.2857 F   0  0  0  0  0  0  0  0  0  0  0  0
  -22.3207  -10.7802   19.1136 F   0  0  0  0  0  0  0  0  0  0  0  0
  1  2  1  0  0  0  0
  1  5  2  0  0  0  0
  2  6  2  0  0  0  0
  3  8  2  0  0  0  0
  3 16  1  0  0  0  0
  4  9  1  0  0  0  0
  4 16  2  0  0  0  0
  5 19  1  0  0  0  0
  6 21  1  0  0  0  0
  7 10  2  0  0  0  0
  7 20  1  0  0  0  0
  8 23  1  0  0  0  0
  9 23  2  0  0  0  0
 10 24  1  0  0  0  0
 11 12  2  0  0  0  0
 11 25  1  0  0  0  0
 12 26  1  0  0  0  0
 13 22  1  0  0  0  0
 13 24  2  0  0  0  0
 14 26  2  0  0  0  0
 14 27  1  0  0  0  0
 15 17  2  0  0  0  0
 15 64  1  0  0  0  0
 16 28  1  0  0  0  0
 17 29  1  0  0  0  0
 17 31  1  0  0  0  0
 18 28  1  0  0  0  0
 18 30  2  0  0  0  0
 18 32  1  0  0  0  0
 19 21  2  0  0  0  0
 19 37  1  0  0  0  0
 20 22  2  0  0  0  0
 20 38  1  0  0  0  0
 21 46  1  0  0  0  0
 22 39  1  0  0  0  0
 23 80  1  0  0  0  0
 24 81  1  0  0  0  0
 25 27  2  0  0  0  0
 25 80  1  0  0  0  0
 26 82  1  0  0  0  0
 27 83  1  0  0  0  0
 28 62  2  0  0  0  0
 29 55  1  0  0  0  0
 29 63  2  0  0  0  0
 30 65  1  0  0  0  0
 30 68  1  0  0  0  0
 31 49  1  0  0  0  0
 31 74  2  0  0  0  0
 32 69  1  0  0  0  0
 32 75  2  0  0  0  0
 33 47  1  0  0  0  0
 33 70  1  0  0  0  0
 33 76  2  0  0  0  0
 34 59  1  0  0  0  0
 34 66  1  0  0  0  0
 34 77  2  0  0  0  0
 35 60  1  0  0  0  0
 35 71  1  0  0  0  0
 35 78  2  0  0  0  0
 36 67  1  0  0  0  0
 36 72  1  0  0  0  0
 36 79  2  0  0  0  0
 37 40  1  0  0  0  0
 38 47  1  0  0  0  0
 39 66  1  0  0  0  0
 40 42  1  0  0  0  0
 41 43  1  0  0  0  0
 41 44  1  0  0  0  0
 42 46  1  0  0  0  0
 43 48  1  0  0  0  0
 44 67  1  0  0  0  0
 45 48  1  0  0  0  0
 45 67  1  0  0  0  0
 46 70  1  0  0  0  0
 47 66  1  0  0  0  0
 48 65  1  0  0  0  0
 50 60  1  0  0  0  0
 51 61  1  0  0  0  0
 52 61  1  0  0  0  0
 53 61  1  0  0  0  0
 54 73  1  0  0  0  0
 55 72  1  0  0  0  0
 56 57  1  0  0  0  0
 56 58  1  0  0  0  0
 57 64  1  0  0  0  0
 58 81  1  0  0  0  0
 59 61  1  0  0  0  0
 59 71  1  0  0  0  0
 60 73  1  0  0  0  0
 62 65  1  0  0  0  0
 63 64  1  0  0  0  0
M  CHG  1  73   1
M  ISO  4  36 100  58 101  72 100  81 101
M  END
> <Batch ID>
0107

> <Smiles>
CNC(C)C(=O)NC(C(=O)N1Cc2cc([101O:1][101CH2:1]CCn3cc(C(C)=O)c(C[100NH:0][100C:0](=O)N4CCCC(n5nc(-c6ccc(Oc7ccc(F)cc7F)cc6)c(C(N)=O)c5N)C4)n3)ccc2CC1C(=O)NC1CCCc2ccccc21)C(C)(C)C

> <Shape>
0.231

> <Color>
0.081

> <Negative vol penalty>
0.000

$$$$

  -OEChem-04052301173D

 87 95  0     1  0  0  0  0  0999 V2000
  -28.6788  -37.1918   20.8118 C   0  0  0  0  0  0  0  0  0  0  0  0
  -29.0046  -35.8662   20.5431 C   0  0  0  0  0  0  0  0  0  0  0  0
  -24.7953   -8.9445   21.7090 C   0  0  0  0  0  0  0  0  0  0  0  0
  -23.2158  -10.7437   21.3851 C   0  0  0  0  0  0  0  0  0  0  0  0
  -27.7259  -37.4908   21.7846 C   0  0  0  0  0  0  0  0  0  0  0  0
  -28.3784  -34.8389   21.2480 C   0  0  0  0  0  0  0  0  0  0  0  0
  -26.8624  -29.3022   19.1144 C   0  0  0  0  0  0  0  0  0  0  0  0
  -23.8764   -8.2846   22.5247 C   0  0  0  0  0  0  0  0  0  0  0  0
  -22.2967  -10.0837   22.2008 C   0  0  0  0  0  0  0  0  0  0  0  0
  -27.4832  -28.0575   19.2109 C   0  0  0  0  0  0  0  0  0  0  0  0
  -21.1079   -6.3842   22.1278 C   0  0  0  0  0  0  0  0  0  0  0  0
  -20.9253   -5.0165   21.9239 C   0  0  0  0  0  0  0  0  0  0  0  0
  -26.0839  -27.5128   21.0989 C   0  0  0  0  0  0  0  0  0  0  0  0
  -28.8110  -18.8010   17.3013 C   0  0  0  0  0  0  0  0  0  0  0  0
  -21.6264   -4.5843   24.1952 C   0  0  0  0  0  0  0  0  0  0  0  0
  -24.4651  -10.1742   21.1392 C   0  0  0  0  0  0  0  0  0  0  0  0
  -27.6393  -17.3705   15.7465 C   0  0  0  0  0  0  0  0  0  0  0  0
  -25.5570  -10.7312   18.9020 C   0  0  0  0  0  0  0  0  0  0  0  0
  -27.0806  -36.4663   22.4950 C   0  0  0  0  0  0  0  0  0  0  0  0
  -25.8536  -29.6663   20.0178 C   0  0  0  0  0  0  0  0  0  0  0  0
  -27.4169  -35.1245   22.2322 C   0  0  0  0  0  0  0  0  0  0  0  0
  -25.4501  -28.7616   21.0101 C   0  0  0  0  0  0  0  0  0  0  0  0
  -27.4490  -18.4558   14.8912 C   0  0  0  0  0  0  0  0  0  0  0  0
  -28.3202  -17.5431   16.9515 C   0  0  0  0  0  0  0  0  0  0  0  0
  -27.9397  -19.7138   15.2410 C   0  0  0  0  0  0  0  0  0  0  0  0
  -22.6270   -8.8541   22.7706 C   0  0  0  0  0  0  0  0  0  0  0  0
  -27.0959  -27.1637   20.2050 C   0  0  0  0  0  0  0  0  0  0  0  0
  -21.5499   -6.8520   23.3654 C   0  0  0  0  0  0  0  0  0  0  0  0
  -28.6206  -19.8864   16.4461 C   0  0  0  0  0  0  0  0  0  0  0  0
  -21.1845   -4.1166   22.9576 C   0  0  0  0  0  0  0  0  0  0  0  0
  -21.8091   -5.9521   24.3991 C   0  0  0  0  0  0  0  0  0  0  0  0
  -25.4141  -10.8567   20.2968 C   0  0  0  0  0  0  0  0  0  0  0  0
  -26.5885  -11.5808   18.5847 C   0  0  0  0  0  0  0  0  0  0  0  0
  -27.1245  -16.0543   15.3786 C   0  0  0  0  0  0  0  0  0  0  0  0
  -24.8228   -9.9194   17.9759 C   0  0  0  0  0  0  0  0  0  0  0  0
  -25.5101  -31.9598   22.1916 C   0  0  0  0  0  0  0  0  0  0  0  0
  -22.5066  -30.7560   22.4194 C   0  0  0  0  0  0  0  0  0  0  0  0
  -20.4110  -28.0966   21.9913 C   0  0  0  0  0  0  0  0  0  0  0  0
  -29.1852  -16.4827   19.0667 C   0  0  0  0  0  0  0  0  0  0  0  0
  -26.0916  -36.8402   23.5705 C   0  0  0  0  0  0  0  0  0  0  0  0
  -25.1754  -31.0022   19.8836 C   0  0  0  0  0  0  0  0  0  0  0  0
  -24.3581  -29.0964   21.9919 C   0  0  0  0  0  0  0  0  0  0  0  0
  -25.2019  -35.6801   24.0098 C   0  0  0  0  0  0  0  0  0  0  0  0
  -29.8694  -14.0332   21.5584 C   0  0  0  0  0  0  0  0  0  0  0  0
  -26.0377  -34.4262   24.2461 C   0  0  0  0  0  0  0  0  0  0  0  0
  -28.7831  -12.9781   21.3376 C   0  0  0  0  0  0  0  0  0  0  0  0
  -29.3433  -15.4474   21.3202 C   0  0  0  0  0  0  0  0  0  0  0  0
  -27.5965  -14.5991   19.8041 C   0  0  0  0  0  0  0  0  0  0  0  0
  -26.7414  -33.9814   22.9583 C   0  0  1  0  0  0  0  0  0  0  0  0
  -24.5157  -31.4700   21.1772 C   0  0  1  0  0  0  0  0  0  0  0  0
  -28.0960  -13.1545   19.9692 C   0  0  2  0  0  0  0  0  0  0  0  0
  -26.7173  -18.2721   13.5974 C   0  0  0  0  0  0  0  0  0  0  0  0
  -18.0190  -27.4038   22.3005 C   0  0  0  0  0  0  0  0  0  0  0  0
  -22.9718  -30.4996   25.4240 C   0  0  0  0  0  0  0  0  0  0  0  0
  -20.9947  -28.9672   25.5289 C   0  0  0  0  0  0  0  0  0  0  0  0
  -20.7007  -31.3307   24.7872 C   0  0  0  0  0  0  0  0  0  0  0  0
  -20.0669  -27.5746   19.0985 C   0  0  0  0  0  0  0  0  0  0  0  0
  -28.1163  -23.8504   19.1812 C   0  0  0  0  0  0  0  0  0  0  0  0
  -28.6505  -23.1871   17.9165 C   0  0  0  0  0  0  0  0  0  0  0  0
  -28.1911  -25.3690   19.0935 C   0  0  0  0  0  0  0  0  0  1  0  0
  -28.6159  -21.6689   18.0204 C   0  0  0  0  0  0  0  0  0  0  0  0
  -21.8452  -29.6824   23.2494 C   0  0  1  0  0  0  0  0  0  0  0  0
  -19.0443  -27.9858   21.3399 C   0  0  2  0  0  0  0  0  0  0  0  0
  -21.6500  -30.1141   24.7303 C   0  0  0  0  0  0  0  0  0  0  0  0
  -26.2853  -11.7180   20.8290 N   0  0  0  0  0  0  0  0  0  0  0  0
  -26.9856  -12.1414   19.7629 N   0  0  0  0  0  0  0  0  0  0  0  0
  -23.7297  -30.4171   21.8237 N   0  0  0  0  0  0  0  0  0  0  0  0
  -28.7097  -15.5404   20.0031 N   0  0  0  0  0  0  0  0  0  0  0  0
  -27.7496  -20.8184   14.3786 N   0  0  0  0  0  0  0  0  0  0  0  0
  -27.1856  -11.8955   17.4156 N   0  0  0  0  0  0  0  0  0  0  0  0
  -25.8342  -15.7345   15.7817 N   0  0  0  0  0  0  0  0  0  0  0  0
  -23.7949   -9.1050   18.4703 N   0  0  0  0  0  0  0  0  0  0  0  0
  -28.5268  -16.4568   17.8376 N   0  0  0  0  0  0  0  0  0  0  0  0
  -25.8102  -33.3042   22.0815 N   0  0  0  0  0  0  0  0  0  0  0  0
  -20.6069  -29.3377   22.5593 N   0  0  0  0  0  0  0  0  0  0  0  0
  -19.1132  -27.1080   20.1375 N   0  3  0  0  0  0  0  0  0  0  0  0
  -27.8205  -15.2466   14.7446 O   0  0  0  0  0  0  0  0  0  0  0  0
  -25.0819   -9.9040   16.7486 O   0  0  0  0  0  0  0  0  0  0  0  0
  -25.9698  -31.1765   23.0142 O   0  0  0  0  0  0  0  0  0  0  0  0
  -21.9546  -31.8525   22.2980 O   0  0  0  0  0  0  0  0  0  0  0  0
  -21.2221  -27.1733   21.9989 O   0  0  0  0  0  0  0  0  0  0  0  0
  -30.1263  -17.2370   19.3258 O   0  0  0  0  0  0  0  0  0  0  0  0
  -21.7300   -8.2103   23.5664 O   0  0  0  0  0  0  0  0  0  0  0  0
  -27.7006  -25.9485   20.3018 O   0  0  0  0  0  0  0  0  0  1  0  0
  -29.1107  -21.1139   16.8095 O   0  0  0  0  0  0  0  0  0  0  0  0
  -21.0076   -2.8033   22.7622 F   0  0  0  0  0  0  0  0  0  0  0  0
  -22.2327   -6.3956   25.5905 F   0  0  0  0  0  0  0  0  0  0  0  0
  1  2  1  0  0  0  0
  1  5  2  0  0  0  0
  2  6  2  0  0  0  0
  3  8  2  0  0  0  0
  3 16  1  0  0  0  0
  4  9  1  0  0  0  0
  4 16  2  0  0  0  0
  5 19  1  0  0  0  0
  6 21  1  0  0  0  0
  7 10  2  0  0  0  0
  7 20  1  0  0  0  0
  8 26  1  0  0  0  0
  9 26  2  0  0  0  0
 10 27  1  0  0  0  0
 11 12  2  0  0  0  0
 11 28  1  0  0  0  0
 12 30  1  0  0  0  0
 13 22  1  0  0  0  0
 13 27  2  0  0  0  0
 14 24  2  0  0  0  0
 14 29  1  0  0  0  0
 15 30  2  0  0  0  0
 15 31  1  0  0  0  0
 16 32  1  0  0  0  0
 17 23  2  0  0  0  0
 17 24  1  0  0  0  0
 17 34  1  0  0  0  0
 18 32  1  0  0  0  0
 18 33  2  0  0  0  0
 18 35  1  0  0  0  0
 19 21  2  0  0  0  0
 19 40  1  0  0  0  0
 20 22  2  0  0  0  0
 20 41  1  0  0  0  0
 21 49  1  0  0  0  0
 22 42  1  0  0  0  0
 23 25  1  0  0  0  0
 23 52  1  0  0  0  0
 24 73  1  0  0  0  0
 25 29  2  0  0  0  0
 25 69  1  0  0  0  0
 26 83  1  0  0  0  0
 27 84  1  0  0  0  0
 28 31  2  0  0  0  0
 28 83  1  0  0  0  0
 29 85  1  0  0  0  0
 30 86  1  0  0  0  0
 31 87  1  0  0  0  0
 32 65  2  0  0  0  0
 33 66  1  0  0  0  0
 33 70  1  0  0  0  0
 34 71  1  0  0  0  0
 34 77  2  0  0  0  0
 35 72  1  0  0  0  0
 35 78  2  0  0  0  0
 36 50  1  0  0  0  0
 36 74  1  0  0  0  0
 36 79  2  0  0  0  0
 37 62  1  0  0  0  0
 37 67  1  0  0  0  0
 37 80  2  0  0  0  0
 38 63  1  0  0  0  0
 38 75  1  0  0  0  0
 38 81  2  0  0  0  0
 39 68  1  0  0  0  0
 39 73  1  0  0  0  0
 39 82  2  0  0  0  0
 40 43  1  0  0  0  0
 41 50  1  0  0  0  0
 42 67  1  0  0  0  0
 43 45  1  0  0  0  0
 44 46  1  0  0  0  0
 44 47  1  0  0  0  0
 45 49  1  0  0  0  0
 46 51  1  0  0  0  0
 47 68  1  0  0  0  0
 48 51  1  0  0  0  0
 48 68  1  0  0  0  0
 49 74  1  0  0  0  0
 50 67  1  0  0  0  0
 51 66  1  0  0  0  0
 53 63  1  0  0  0  0
 54 64  1  0  0  0  0
 55 64  1  0  0  0  0
 56 64  1  0  0  0  0
 57 76  1  0  0  0  0
 58 59  1  0  0  0  0
 58 60  1  0  0  0  0
 59 61  1  0  0  0  0
 60 84  1  0  0  0  0
 61 85  1  0  0  0  0
 62 64  1  0  0  0  0
 62 75  1  0  0  0  0
 63 76  1  0  0  0  0
 65 66  1  0  0  0  0
M  CHG  1  76   1
M  ISO  4  39 100  60 101  73 100  84 101
M  END
> <Batch ID>
0107

> <Smiles>
CNC(C)C(=O)NC(C(=O)N1Cc2cc([101O:1][101CH2:1]CCCOc3cc([100NH:0][100C:0](=O)N4CCCC(n5nc(-c6ccc(Oc7ccc(F)cc7F)cc6)c(C(N)=O)c5N)C4)c(C(N)=O)c(C)c3N)ccc2CC1C(=O)NC1CCCc2ccccc21)C(C)(C)C

> <Shape>
0.296

> <Color>
0.096

> <Negative vol penalty>
0.000

$$$$

  -OEChem-04052301173D

 85 94  0     1  0  0  0  0  0999 V2000
  -30.7495  -24.6080   17.3568 C   0  0  0  0  0  0  0  0  0  0  0  0
  -29.5150  -24.5207   17.9924 C   0  0  0  0  0  0  0  0  0  0  0  0
  -27.9200  -14.6990   19.6208 C   0  0  0  0  0  0  0  0  0  0  0  0
  -25.6088  -15.3802   19.7983 C   0  0  0  0  0  0  0  0  0  0  0  0
  -31.7308  -25.4630   17.8567 C   0  0  0  0  0  0  0  0  0  0  0  0
  -29.2615  -25.2878   19.1289 C   0  0  0  0  0  0  0  0  0  0  0  0
  -24.7047  -27.4936   19.0073 C   0  0  0  0  0  0  0  0  0  0  0  0
  -27.5632  -13.3970   19.9715 C   0  0  0  0  0  0  0  0  0  0  0  0
  -25.2520  -14.0781   20.1489 C   0  0  0  0  0  0  0  0  0  0  0  0
  -23.6025  -26.6950   19.3093 C   0  0  0  0  0  0  0  0  0  0  0  0
  -26.1847  -10.7010   18.4667 C   0  0  0  0  0  0  0  0  0  0  0  0
  -26.7308   -9.6561   17.7214 C   0  0  0  0  0  0  0  0  0  0  0  0
  -23.5697  -27.5966   21.5465 C   0  0  0  0  0  0  0  0  0  0  0  0
  -25.0453  -23.6870   24.3154 C   0  0  0  0  0  0  0  0  0  0  0  0
  -23.5303  -22.6735   22.7463 C   0  0  0  0  0  0  0  0  0  0  0  0
  -27.7559   -8.7662   19.7200 C   0  0  0  0  0  0  0  0  0  0  0  0
  -26.9428  -15.6906   19.5343 C   0  0  0  0  0  0  0  0  0  0  0  0
  -27.3719  -17.5812   17.8762 C   0  0  0  0  0  0  0  0  0  0  0  0
  -31.4857  -26.2481   18.9944 C   0  0  0  0  0  0  0  0  0  0  0  0
  -25.2554  -28.3431   19.9777 C   0  0  0  0  0  0  0  0  0  0  0  0
  -30.2409  -26.1532   19.6453 C   0  0  0  0  0  0  0  0  0  0  0  0
  -24.6774  -28.4068   21.2536 C   0  0  0  0  0  0  0  0  0  0  0  0
  -24.8299  -22.9470   23.1581 C   0  0  0  0  0  0  0  0  0  0  0  0
  -26.2292  -13.0865   20.2355 C   0  0  0  0  0  0  0  0  0  0  0  0
  -23.0366  -26.7443   20.5799 C   0  0  0  0  0  0  0  0  0  0  0  0
  -26.4242  -10.7785   19.8387 C   0  0  0  0  0  0  0  0  0  0  0  0
  -27.5164   -8.6887   18.3480 C   0  0  0  0  0  0  0  0  0  0  0  0
  -27.2097   -9.8111   20.4654 C   0  0  0  0  0  0  0  0  0  0  0  0
  -27.3109  -17.0359   19.1726 C   0  0  0  0  0  0  0  0  0  0  0  0
  -23.9362  -24.1270   25.0197 C   0  0  0  0  0  0  0  0  0  0  0  0
  -22.4890  -23.1587   23.5210 C   0  0  0  0  0  0  0  0  0  0  0  0
  -27.7692  -18.8818   18.0691 C   0  0  0  0  0  0  0  0  0  0  0  0
  -27.0942  -16.9671   16.6107 C   0  0  0  0  0  0  0  0  0  0  0  0
  -28.0795  -28.5689   21.4189 C   0  0  0  0  0  0  0  0  0  0  0  0
  -26.7845  -31.2633   22.6781 C   0  0  0  0  0  0  0  0  0  0  0  0
  -23.9746  -33.0009   23.5337 C   0  0  0  0  0  0  0  0  0  0  0  0
  -27.2853  -22.6576   22.6750 C   0  0  0  0  0  0  0  0  0  0  0  0
  -32.5940  -27.1225   19.5253 C   0  0  0  0  0  0  0  0  0  0  0  0
  -26.4279  -29.2179   19.6281 C   0  0  0  0  0  0  0  0  0  0  0  0
  -25.2184  -29.3170   22.3247 C   0  0  0  0  0  0  0  0  0  0  0  0
  -32.1137  -28.1806   20.5154 C   0  0  0  0  0  0  0  0  0  0  0  0
  -30.2944  -21.6186   21.0803 C   0  0  0  0  0  0  0  0  0  0  0  0
  -18.3599  -24.1497   21.2637 C   0  0  0  0  0  0  0  0  0  0  0  0
  -31.1703  -27.5619   21.5420 C   0  0  0  0  0  0  0  0  0  0  0  0
  -29.8750  -20.3787   20.2873 C   0  0  0  0  0  0  0  0  0  0  0  0
  -19.1074  -25.4649   21.3598 C   0  0  0  0  0  0  0  0  0  0  0  0
  -29.5673  -21.7072   22.4209 C   0  0  0  0  0  0  0  0  0  0  0  0
  -27.6842  -20.3806   21.5471 C   0  0  0  0  0  0  0  0  0  0  0  0
  -19.4651  -23.1151   21.1745 C   0  0  0  0  0  0  0  0  0  0  0  0
  -29.9193  -26.9876   20.8661 C   0  0  1  0  0  0  0  0  0  0  0  0
  -27.2246  -29.6656   20.8496 C   0  0  1  0  0  0  0  0  0  0  0  0
  -28.3419  -20.2825   20.1610 C   0  0  2  0  0  0  0  0  0  0  0  0
  -20.2375  -25.1386   22.3250 C   0  0  2  0  0  0  0  0  0  0  0  0
  -24.1300  -24.9235   26.2666 C   0  0  0  0  0  0  0  0  0  0  0  0
  -23.2349  -35.1591   24.5789 C   0  0  0  0  0  0  0  0  0  0  0  0
  -27.5131  -30.1754   25.4341 C   0  0  0  0  0  0  0  0  0  0  0  0
  -25.9457  -31.8525   26.4336 C   0  0  0  0  0  0  0  0  0  0  0  0
  -27.9312  -32.6228   25.1347 C   0  0  0  0  0  0  0  0  0  0  0  0
  -22.5527  -33.8379   21.0767 C   0  0  0  0  0  0  0  0  0  0  0  0
  -21.0735  -22.8827   23.1072 C   0  0  0  0  0  0  0  0  0  0  0  0
  -21.4318  -26.0663   22.1988 C   0  0  0  0  0  0  0  0  0  1  0  0
  -25.9765  -31.5854   23.9119 C   0  0  1  0  0  0  0  0  0  0  0  0
  -23.5639  -34.4401   23.2798 C   0  0  2  0  0  0  0  0  0  0  0  0
  -26.8324  -31.5403   25.2092 C   0  0  0  0  0  0  0  0  0  0  0  0
  -27.6430  -17.9179   20.1191 N   0  0  0  0  0  0  0  0  0  0  0  0
  -22.6591  -23.8810   24.6510 N   0  0  0  0  0  0  0  0  0  0  0  0
  -27.9166  -19.0305   19.4168 N   0  0  0  0  0  0  0  0  0  0  0  0
  -26.3698  -30.1482   21.9361 N   0  0  0  0  0  0  0  0  0  0  0  0
  -28.1193  -21.6133   22.2225 N   0  0  0  0  0  0  0  0  0  0  0  0
  -28.0034  -19.9012   17.2156 N   0  0  0  0  0  0  0  0  0  0  0  0
  -26.6975  -15.6230   16.5931 N   0  0  0  0  0  0  0  0  0  0  0  0
  -25.9304  -22.4729   22.4018 N   0  0  0  0  0  0  0  0  0  0  0  0
  -28.9966  -28.0492   20.5254 N   0  0  0  0  0  0  0  0  0  0  0  0
  -25.3419  -32.8745   23.6592 N   0  0  0  0  0  0  0  0  0  0  0  0
  -20.6284  -23.7169   21.9448 N   0  3  1  0  0  0  0  0  0  0  0  0
  -22.3629  -34.4883   22.3988 N   0  3  0  0  0  0  0  0  0  0  0  0
  -27.2108  -17.5870   15.5265 O   0  0  0  0  0  0  0  0  0  0  0  0
  -27.9200  -28.2210   22.5830 O   0  0  0  0  0  0  0  0  0  0  0  0
  -27.7438  -31.9790   22.3795 O   0  0  0  0  0  0  0  0  0  0  0  0
  -23.1633  -32.0814   23.6163 O   0  0  0  0  0  0  0  0  0  0  0  0
  -27.7426  -23.6558   23.2375 O   0  0  0  0  0  0  0  0  0  0  0  0
  -25.8806  -11.8160   20.5775 O   0  0  0  0  0  0  0  0  0  0  0  0
  -21.9611  -25.9654   20.8774 O   0  0  0  0  0  0  0  0  0  1  0  0
  -28.0396   -7.6845   17.6324 F   0  0  0  0  0  0  0  0  0  0  0  0
  -27.4423   -9.8796   21.7833 F   0  0  0  0  0  0  0  0  0  0  0  0
  1  2  1  0  0  0  0
  1  5  2  0  0  0  0
  2  6  2  0  0  0  0
  3  8  2  0  0  0  0
  3 17  1  0  0  0  0
  4  9  1  0  0  0  0
  4 17  2  0  0  0  0
  5 19  1  0  0  0  0
  6 21  1  0  0  0  0
  7 10  2  0  0  0  0
  7 20  1  0  0  0  0
  8 24  1  0  0  0  0
  9 24  2  0  0  0  0
 10 25  1  0  0  0  0
 11 12  2  0  0  0  0
 11 26  1  0  0  0  0
 12 27  1  0  0  0  0
 13 22  1  0  0  0  0
 13 25  2  0  0  0  0
 14 23  1  0  0  0  0
 14 30  2  0  0  0  0
 15 23  2  0  0  0  0
 15 31  1  0  0  0  0
 16 27  2  0  0  0  0
 16 28  1  0  0  0  0
 17 29  1  0  0  0  0
 18 29  1  0  0  0  0
 18 32  2  0  0  0  0
 18 33  1  0  0  0  0
 19 21  2  0  0  0  0
 19 38  1  0  0  0  0
 20 22  2  0  0  0  0
 20 39  1  0  0  0  0
 21 50  1  0  0  0  0
 22 40  1  0  0  0  0
 23 72  1  0  0  0  0
 24 82  1  0  0  0  0
 25 83  1  0  0  0  0
 26 28  2  0  0  0  0
 26 82  1  0  0  0  0
 27 84  1  0  0  0  0
 28 85  1  0  0  0  0
 29 65  2  0  0  0  0
 30 54  1  0  0  0  0
 30 66  1  0  0  0  0
 31 60  1  0  0  0  0
 31 66  2  0  0  0  0
 32 67  1  0  0  0  0
 32 70  1  0  0  0  0
 33 71  1  0  0  0  0
 33 77  2  0  0  0  0
 34 51  1  0  0  0  0
 34 73  1  0  0  0  0
 34 78  2  0  0  0  0
 35 62  1  0  0  0  0
 35 68  1  0  0  0  0
 35 79  2  0  0  0  0
 36 63  1  0  0  0  0
 36 74  1  0  0  0  0
 36 80  2  0  0  0  0
 37 69  1  0  0  0  0
 37 72  1  0  0  0  0
 37 81  2  0  0  0  0
 38 41  1  0  0  0  0
 39 51  1  0  0  0  0
 40 68  1  0  0  0  0
 41 44  1  0  0  0  0
 42 45  1  0  0  0  0
 42 47  1  0  0  0  0
 43 46  1  0  0  0  0
 43 49  1  0  0  0  0
 44 50  1  0  0  0  0
 45 52  1  0  0  0  0
 46 53  1  0  0  0  0
 47 69  1  0  0  0  0
 48 52  1  0  0  0  0
 48 69  1  0  0  0  0
 49 75  1  0  0  0  0
 50 73  1  0  0  0  0
 51 68  1  0  0  0  0
 52 67  1  0  0  0  0
 53 61  1  0  0  0  0
 53 75  1  0  0  0  0
 55 63  1  0  0  0  0
 56 64  1  0  0  0  0
 57 64  1  0  0  0  0
 58 64  1  0  0  0  0
 59 76  1  0  0  0  0
 60 75  1  0  0  0  0
 61 83  1  0  0  0  0
 62 64  1  0  0  0  0
 62 74  1  0  0  0  0
 63 76  1  0  0  0  0
 65 67  1  0  0  0  0
M  CHG  2  75   1  76   1
M  ISO  4  37 100  61 101  72 100  83 101
M  END
> <Batch ID>
0107

> <Smiles>
CNC(C)C(=O)NC(C(=O)N1Cc2cc([101O:1][101CH2:1]C3CCCN3Cc3cc([100NH:0][100C:0](=O)N4CCCC(n5nc(-c6ccc(Oc7ccc(F)cc7F)cc6)c(C(N)=O)c5N)C4)cc(C)n3)ccc2CC1C(=O)NC1CCCc2ccccc21)C(C)(C)C

> <Shape>
0.251

> <Color>
0.058

> <Negative vol penalty>
0.000

$$$$

  -OEChem-04052301173D

 86 94  0     1  0  0  0  0  0999 V2000
  -29.3911  -28.4486   21.2001 C   0  0  0  0  0  0  0  0  0  0  0  0
  -29.3416  -27.2992   20.4180 C   0  0  0  0  0  0  0  0  0  0  0  0
  -23.0923   -9.8595   20.0893 C   0  0  0  0  0  0  0  0  0  0  0  0
  -23.8012  -10.0564   22.3905 C   0  0  0  0  0  0  0  0  0  0  0  0
  -28.2257  -29.1729   21.4475 C   0  0  0  0  0  0  0  0  0  0  0  0
  -28.1263  -26.8727   19.8836 C   0  0  0  0  0  0  0  0  0  0  0  0
  -28.5148  -25.5036   15.0236 C   0  0  0  0  0  0  0  0  0  0  0  0
  -22.3304   -8.7388   20.4198 C   0  0  0  0  0  0  0  0  0  0  0  0
  -23.0393   -8.9357   22.7211 C   0  0  0  0  0  0  0  0  0  0  0  0
  -29.0637  -24.2501   14.7571 C   0  0  0  0  0  0  0  0  0  0  0  0
  -20.9953   -6.3415   24.2410 C   0  0  0  0  0  0  0  0  0  0  0  0
  -20.2128   -6.4054   25.3940 C   0  0  0  0  0  0  0  0  0  0  0  0
  -26.8464  -23.3513   14.4491 C   0  0  0  0  0  0  0  0  0  0  0  0
  -29.1907  -18.7909   20.3527 C   0  0  0  0  0  0  0  0  0  0  0  0
  -30.0856  -19.8558   18.3773 C   0  0  0  0  0  0  0  0  0  0  0  0
  -30.1623  -17.4506   18.5930 C   0  0  0  0  0  0  0  0  0  0  0  0
  -19.0061   -8.2839   24.4708 C   0  0  0  0  0  0  0  0  0  0  0  0
  -23.8277  -10.5182   21.0746 C   0  0  0  0  0  0  0  0  0  0  0  0
  -24.1998  -13.0206   20.7468 C   0  0  0  0  0  0  0  0  0  0  0  0
  -26.9971  -28.7604   20.9078 C   0  0  0  0  0  0  0  0  0  0  0  0
  -27.1248  -25.6883   15.0155 C   0  0  0  0  0  0  0  0  0  0  0  0
  -26.9431  -27.5913   20.1250 C   0  0  0  0  0  0  0  0  0  0  0  0
  -26.2824  -24.6088   14.7133 C   0  0  0  0  0  0  0  0  0  0  0  0
  -29.4634  -19.9476   19.6224 C   0  0  0  0  0  0  0  0  0  0  0  0
  -29.5401  -17.5424   19.8380 C   0  0  0  0  0  0  0  0  0  0  0  0
  -30.4350  -18.6073   17.8626 C   0  0  0  0  0  0  0  0  0  0  0  0
  -22.3039   -8.2769   21.7357 C   0  0  0  0  0  0  0  0  0  0  0  0
  -28.2294  -23.1730   14.4727 C   0  0  0  0  0  0  0  0  0  0  0  0
  -20.7833   -7.2488   23.2030 C   0  0  0  0  0  0  0  0  0  0  0  0
  -19.2182   -7.3766   25.5089 C   0  0  0  0  0  0  0  0  0  0  0  0
  -19.7887   -8.2200   23.3179 C   0  0  0  0  0  0  0  0  0  0  0  0
  -24.6153  -11.6756   20.7337 C   0  0  0  0  0  0  0  0  0  0  0  0
  -25.3079  -13.7262   20.3459 C   0  0  0  0  0  0  0  0  0  0  0  0
  -22.9261  -13.5819   21.0907 C   0  0  0  0  0  0  0  0  0  0  0  0
  -24.9656  -26.5632   17.1780 C   0  0  0  0  0  0  0  0  0  0  0  0
  -30.1032  -20.1403   15.1078 C   0  0  0  0  0  0  0  0  0  0  0  0
  -22.9596  -26.5010   14.6295 C   0  0  0  0  0  0  0  0  0  0  0  0
  -22.2712  -25.2922   11.5132 C   0  0  0  0  0  0  0  0  0  0  0  0
  -30.9063  -14.4388   21.0296 C   0  0  0  0  0  0  0  0  0  0  0  0
  -25.7560  -29.5494   21.2418 C   0  0  0  0  0  0  0  0  0  0  0  0
  -26.5495  -27.0529   15.2787 C   0  0  0  0  0  0  0  0  0  0  0  0
  -24.7844  -24.7592   14.6721 C   0  0  0  0  0  0  0  0  0  0  0  0
  -24.5725  -29.2386   20.3291 C   0  0  0  0  0  0  0  0  0  0  0  0
  -29.6866  -12.1708   18.3705 C   0  0  0  0  0  0  0  0  0  0  0  0
  -24.4084  -27.7312   20.1625 C   0  0  0  0  0  0  0  0  0  0  0  0
  -28.2452  -11.9004   18.7986 C   0  0  0  0  0  0  0  0  0  0  0  0
  -30.5848  -12.4785   19.5648 C   0  0  0  0  0  0  0  0  0  0  0  0
  -28.6466  -13.3187   20.8499 C   0  0  0  0  0  0  0  0  0  0  0  0
  -25.6480  -27.1104   19.5073 C   0  0  1  0  0  0  0  0  0  0  0  0
  -25.0990  -27.0093   15.7494 C   0  0  1  0  0  0  0  0  0  0  0  0
  -27.7055  -13.0510   19.6658 C   0  0  2  0  0  0  0  0  0  0  0  0
  -29.0898  -21.2824   20.1728 C   0  0  0  0  0  0  0  0  0  0  0  0
  -32.4314  -19.2777   14.7872 C   0  0  0  0  0  0  0  0  0  0  0  0
  -20.5395  -25.3922    9.6997 C   0  0  0  0  0  0  0  0  0  0  0  0
  -21.1566  -24.6503   16.2525 C   0  0  0  0  0  0  0  0  0  0  0  0
  -19.9861  -24.0395   14.1253 C   0  0  0  0  0  0  0  0  0  0  0  0
  -19.9441  -26.3979   14.9371 C   0  0  0  0  0  0  0  0  0  0  0  0
  -31.3258  -16.7126   21.8858 C   0  0  0  0  0  0  0  0  0  0  0  0
  -24.1997  -26.4235    9.5741 C   0  0  0  0  0  0  0  0  0  0  0  0
  -29.2485  -16.3058   20.6190 C   0  0  0  0  0  0  0  0  0  0  0  0
  -30.0017  -21.6318   14.8457 C   0  0  0  0  0  0  0  0  0  1  0  0
  -31.3699  -19.6625   15.8039 C   0  0  2  0  0  0  0  0  0  0  0  0
  -22.0862  -25.4539   13.9818 C   0  0  1  0  0  0  0  0  0  0  0  0
  -21.8314  -25.9876   10.2375 C   0  0  2  0  0  0  0  0  0  0  0  0
  -20.8214  -25.1318   14.8268 C   0  0  0  0  0  0  0  0  0  0  0  0
  -25.8880  -11.5328   20.3543 N   0  0  0  0  0  0  0  0  0  0  0  0
  -26.2817  -12.7972   20.1253 N   0  0  0  0  0  0  0  0  0  0  0  0
  -24.2697  -26.1118   14.9426 N   0  0  0  0  0  0  0  0  0  0  0  0
  -30.0266  -13.5460   20.3955 N   0  0  0  0  0  0  0  0  0  0  0  0
  -25.5344  -15.0446   20.1641 N   0  0  0  0  0  0  0  0  0  0  0  0
  -21.8970  -12.7142   21.4811 N   0  0  0  0  0  0  0  0  0  0  0  0
  -31.0525  -18.5162   16.6271 N   0  0  0  0  0  0  0  0  0  0  0  0
  -25.6440  -27.3586   18.0815 N   0  0  0  0  0  0  0  0  0  0  0  0
  -21.7983  -25.9379   12.6360 N   0  0  0  0  0  0  0  0  0  0  0  0
  -30.4462  -15.7471   21.2425 N   0  0  0  0  0  0  0  0  0  0  0  0
  -22.8815  -25.8574    9.1881 N   0  3  0  0  0  0  0  0  0  0  0  0
  -22.7021  -14.8150   21.0370 O   0  0  0  0  0  0  0  0  0  0  0  0
  -24.2954  -25.5715   17.4412 O   0  0  0  0  0  0  0  0  0  0  0  0
  -29.2103  -19.3651   14.7644 O   0  0  0  0  0  0  0  0  0  0  0  0
  -22.4988  -27.6251   14.8431 O   0  0  0  0  0  0  0  0  0  0  0  0
  -22.9618  -24.2755   11.5135 O   0  0  0  0  0  0  0  0  0  0  0  0
  -32.0418  -14.0892   21.3764 O   0  0  0  0  0  0  0  0  0  0  0  0
  -21.5604   -7.1835   22.0587 O   0  0  0  0  0  0  0  0  0  0  0  0
  -28.7625  -21.9482   14.2129 O   0  0  0  0  0  0  0  0  0  1  0  0
  -18.4659   -7.4368   26.6154 F   0  0  0  0  0  0  0  0  0  0  0  0
  -19.5795   -9.0936   22.3235 F   0  0  0  0  0  0  0  0  0  0  0  0
  1  2  1  0  0  0  0
  1  5  2  0  0  0  0
  2  6  2  0  0  0  0
  3  8  2  0  0  0  0
  3 18  1  0  0  0  0
  4  9  1  0  0  0  0
  4 18  2  0  0  0  0
  5 20  1  0  0  0  0
  6 22  1  0  0  0  0
  7 10  2  0  0  0  0
  7 21  1  0  0  0  0
  8 27  1  0  0  0  0
  9 27  2  0  0  0  0
 10 28  1  0  0  0  0
 11 12  2  0  0  0  0
 11 29  1  0  0  0  0
 12 30  1  0  0  0  0
 13 23  1  0  0  0  0
 13 28  2  0  0  0  0
 14 24  1  0  0  0  0
 14 25  2  0  0  0  0
 15 24  2  0  0  0  0
 15 26  1  0  0  0  0
 16 25  1  0  0  0  0
 16 26  2  0  0  0  0
 17 30  2  0  0  0  0
 17 31  1  0  0  0  0
 18 32  1  0  0  0  0
 19 32  1  0  0  0  0
 19 33  2  0  0  0  0
 19 34  1  0  0  0  0
 20 22  2  0  0  0  0
 20 40  1  0  0  0  0
 21 23  2  0  0  0  0
 21 41  1  0  0  0  0
 22 49  1  0  0  0  0
 23 42  1  0  0  0  0
 24 52  1  0  0  0  0
 25 60  1  0  0  0  0
 26 72  1  0  0  0  0
 27 83  1  0  0  0  0
 28 84  1  0  0  0  0
 29 31  2  0  0  0  0
 29 83  1  0  0  0  0
 30 85  1  0  0  0  0
 31 86  1  0  0  0  0
 32 66  2  0  0  0  0
 33 67  1  0  0  0  0
 33 70  1  0  0  0  0
 34 71  1  0  0  0  0
 34 77  2  0  0  0  0
 35 50  1  0  0  0  0
 35 73  1  0  0  0  0
 35 78  2  0  0  0  0
 36 61  1  0  0  0  0
 36 62  1  0  0  0  0
 36 79  2  0  0  0  0
 37 63  1  0  0  0  0
 37 68  1  0  0  0  0
 37 80  2  0  0  0  0
 38 64  1  0  0  0  0
 38 74  1  0  0  0  0
 38 81  2  0  0  0  0
 39 69  1  0  0  0  0
 39 75  1  0  0  0  0
 39 82  2  0  0  0  0
 40 43  1  0  0  0  0
 41 50  1  0  0  0  0
 42 68  1  0  0  0  0
 43 45  1  0  0  0  0
 44 46  1  0  0  0  0
 44 47  1  0  0  0  0
 45 49  1  0  0  0  0
 46 51  1  0  0  0  0
 47 69  1  0  0  0  0
 48 51  1  0  0  0  0
 48 69  1  0  0  0  0
 49 73  1  0  0  0  0
 50 68  1  0  0  0  0
 51 67  1  0  0  0  0
 53 62  1  0  0  0  0
 54 64  1  0  0  0  0
 55 65  1  0  0  0  0
 56 65  1  0  0  0  0
 57 65  1  0  0  0  0
 58 75  1  0  0  0  0
 59 76  1  0  0  0  0
 60 75  1  0  0  0  0
 61 84  1  0  0  0  0
 62 72  1  0  0  0  0
 63 65  1  0  0  0  0
 63 74  1  0  0  0  0
 64 76  1  0  0  0  0
 66 67  1  0  0  0  0
M  CHG  1  76   1
M  ISO  4  39 100  61 101  75 100  84 101
M  END
> <Batch ID>
0107

> <Smiles>
CNC(C)C(=O)NC(C(=O)N1Cc2cc([101O:1][101CH2:1]C(=O)C(C)Nc3cc(C)cc(C[100N:0](C)[100C:0](=O)N4CCCC(n5nc(-c6ccc(Oc7ccc(F)cc7F)cc6)c(C(N)=O)c5N)C4)c3)ccc2CC1C(=O)NC1CCCc2ccccc21)C(C)(C)C

> <Shape>
0.255

> <Color>
0.187

> <Negative vol penalty>
0.000

$$$$

  -OEChem-04052301173D

 85 93  0     1  0  0  0  0  0999 V2000
  -19.7062  -11.9787   20.7736 C   0  0  0  0  0  0  0  0  0  0  0  0
  -20.1977  -13.2463   21.0689 C   0  0  0  0  0  0  0  0  0  0  0  0
  -29.3760  -27.4263   21.8017 C   0  0  0  0  0  0  0  0  0  0  0  0
  -27.7558  -27.1317   20.0339 C   0  0  0  0  0  0  0  0  0  0  0  0
  -20.5403  -10.8666   20.8804 C   0  0  0  0  0  0  0  0  0  0  0  0
  -21.5234  -13.4023   21.4723 C   0  0  0  0  0  0  0  0  0  0  0  0
  -23.8157  -17.2783   19.1558 C   0  0  0  0  0  0  0  0  0  0  0  0
  -30.1171  -26.3560   21.3009 C   0  0  0  0  0  0  0  0  0  0  0  0
  -28.4970  -26.0614   19.5330 C   0  0  0  0  0  0  0  0  0  0  0  0
  -23.5297  -18.5597   19.6249 C   0  0  0  0  0  0  0  0  0  0  0  0
  -28.9602  -22.7931   20.2643 C   0  0  0  0  0  0  0  0  0  0  0  0
  -28.2669  -21.6389   19.9001 C   0  0  0  0  0  0  0  0  0  0  0  0
  -20.9747  -26.2121   23.1181 C   0  0  0  0  0  0  0  0  0  0  0  0
  -25.5978  -18.5601   20.8667 C   0  0  0  0  0  0  0  0  0  0  0  0
  -19.0439  -25.1024   22.1814 C   0  0  0  0  0  0  0  0  0  0  0  0
  -29.0780  -21.8661   17.6357 C   0  0  0  0  0  0  0  0  0  0  0  0
  -28.1953  -27.8141   21.1682 C   0  0  0  0  0  0  0  0  0  0  0  0
  -20.3976  -27.4511   22.8400 C   0  0  0  0  0  0  0  0  0  0  0  0
  -27.5577  -30.2781   21.3408 C   0  0  0  0  0  0  0  0  0  0  0  0
  -21.8795  -11.0102   21.2760 C   0  0  0  0  0  0  0  0  0  0  0  0
  -24.9917  -16.6228   19.5479 C   0  0  0  0  0  0  0  0  0  0  0  0
  -22.3757  -12.2908   21.5858 C   0  0  0  0  0  0  0  0  0  0  0  0
  -25.8977  -17.2715   20.3991 C   0  0  0  0  0  0  0  0  0  0  0  0
  -19.1436  -27.5158   22.2327 C   0  0  0  0  0  0  0  0  0  0  0  0
  -18.4667  -26.3414   21.9033 C   0  0  0  0  0  0  0  0  0  0  0  0
  -29.6777  -25.6735   20.1665 C   0  0  0  0  0  0  0  0  0  0  0  0
  -24.4194  -19.1996   20.4828 C   0  0  0  0  0  0  0  0  0  0  0  0
  -29.7123  -23.4839   19.3141 C   0  0  0  0  0  0  0  0  0  0  0  0
  -20.2979  -25.0377   22.7888 C   0  0  0  0  0  0  0  0  0  0  0  0
  -28.3258  -21.1753   18.5858 C   0  0  0  0  0  0  0  0  0  0  0  0
  -29.7712  -23.0204   17.9999 C   0  0  0  0  0  0  0  0  0  0  0  0
  -27.4290  -28.9192   21.6854 C   0  0  0  0  0  0  0  0  0  0  0  0
  -26.6096  -30.9167   22.1022 C   0  0  0  0  0  0  0  0  0  0  0  0
  -21.1288  -28.6600   23.1960 C   0  0  0  0  0  0  0  0  0  0  0  0
  -28.4541  -30.9068   20.4151 C   0  0  0  0  0  0  0  0  0  0  0  0
  -21.5095  -28.9437   24.5988 C   0  0  0  0  0  0  0  0  0  0  0  0
  -25.6459  -13.9536   21.1451 C   0  0  0  0  0  0  0  0  0  0  0  0
  -28.6997  -14.6695   20.3179 C   0  0  0  0  0  0  0  0  0  0  0  0
  -30.9734  -17.0460   19.4074 C   0  0  0  0  0  0  0  0  0  0  0  0
  -22.7297   -9.7731   21.4227 C   0  0  0  0  0  0  0  0  0  0  0  0
  -25.2984  -15.2513   19.0118 C   0  0  0  0  0  0  0  0  0  0  0  0
  -27.1837  -16.6191   20.8338 C   0  0  0  0  0  0  0  0  0  0  0  0
  -24.2258  -10.0674   21.4954 C   0  0  0  0  0  0  0  0  0  0  0  0
  -24.2549  -30.5622   26.2420 C   0  0  0  0  0  0  0  0  0  0  0  0
  -24.4983  -11.2116   22.4667 C   0  0  0  0  0  0  0  0  0  0  0  0
  -25.4018  -30.4131   25.2430 C   0  0  0  0  0  0  0  0  0  0  0  0
  -23.3267  -29.3522   26.2110 C   0  0  0  0  0  0  0  0  0  0  0  0
  -23.9253  -28.8965   23.8483 C   0  0  0  0  0  0  0  0  0  0  0  0
  -23.8149  -12.5036   22.0028 C   0  0  1  0  0  0  0  0  0  0  0  0
  -26.2781  -14.4737   19.8852 C   0  0  1  0  0  0  0  0  0  0  0  0
  -24.8686  -30.1120   23.8310 C   0  0  2  0  0  0  0  0  0  0  0  0
  -18.5248  -28.8459   21.9343 C   0  0  0  0  0  0  0  0  0  0  0  0
  -33.3998  -17.3343   18.8357 C   0  0  0  0  0  0  0  0  0  0  0  0
  -29.4201  -14.4484   23.2746 C   0  0  0  0  0  0  0  0  0  0  0  0
  -31.5590  -15.6485   22.7716 C   0  0  0  0  0  0  0  0  0  0  0  0
  -31.0932  -13.4374   21.7148 C   0  0  0  0  0  0  0  0  0  0  0  0
  -30.3361  -18.0222   16.6871 C   0  0  0  0  0  0  0  0  0  0  0  0
  -24.2265  -22.2137   22.5898 C   0  0  0  0  0  0  0  0  0  0  0  0
  -22.7088  -22.3499   22.6438 C   0  0  0  0  0  0  0  0  0  0  0  0
  -24.6508  -20.7959   22.2305 C   0  0  0  0  0  0  0  0  0  1  0  0
  -22.2845  -23.7556   23.0448 C   0  0  0  0  0  0  0  0  0  0  0  0
  -29.8145  -15.4758   20.9391 C   0  0  1  0  0  0  0  0  0  0  0  0
  -32.0025  -17.0806   18.2919 C   0  0  2  0  0  0  0  0  0  0  0  0
  -30.4466  -14.7643   22.1686 C   0  0  0  0  0  0  0  0  0  0  0  0
  -26.4745  -28.7062   22.5951 N   0  0  0  0  0  0  0  0  0  0  0  0
  -21.4935  -29.5571   22.3223 N   0  0  0  0  0  0  0  0  0  0  0  0
  -25.9948  -29.9396   22.8286 N   0  0  0  0  0  0  0  0  0  0  0  0
  -22.8680  -29.0726   24.8518 N   0  0  0  0  0  0  0  0  0  0  0  0
  -27.4356  -15.2753   20.2877 N   0  0  0  0  0  0  0  0  0  0  0  0
  -17.1962  -26.3856   21.2878 N   0  0  0  0  0  0  0  0  0  0  0  0
  -26.2502  -32.2131   22.2146 N   0  0  0  0  0  0  0  0  0  0  0  0
  -29.3645  -30.1028   19.7157 N   0  0  0  0  0  0  0  0  0  0  0  0
  -24.5679  -13.1164   20.9295 N   0  0  0  0  0  0  0  0  0  0  0  0
  -30.7584  -15.7629   19.8643 N   0  0  0  0  0  0  0  0  0  0  0  0
  -31.6742  -18.1595   17.3176 N   0  3  0  0  0  0  0  0  0  0  0  0
  -28.4590  -32.1469   20.2262 O   0  0  0  0  0  0  0  0  0  0  0  0
  -20.5796  -29.0342   25.3896 O   0  0  0  0  0  0  0  0  0  0  0  0
  -26.1033  -14.2859   22.2324 O   0  0  0  0  0  0  0  0  0  0  0  0
  -28.9430  -13.5464   19.8693 O   0  0  0  0  0  0  0  0  0  0  0  0
  -30.4187  -18.0566   19.8335 O   0  0  0  0  0  0  0  0  0  0  0  0
  -30.4007  -24.6293   19.6774 O   0  0  0  0  0  0  0  0  0  0  0  0
  -24.1424  -20.4501   20.9427 O   0  0  0  0  0  0  0  0  0  1  0  0
  -20.8651  -23.8201   23.0619 O   0  0  0  0  0  0  0  0  0  0  0  0
  -27.6612  -20.0660   18.2366 F   0  0  0  0  0  0  0  0  0  0  0  0
  -30.4931  -23.6791   17.0829 F   0  0  0  0  0  0  0  0  0  0  0  0
  1  2  1  0  0  0  0
  1  5  2  0  0  0  0
  2  6  2  0  0  0  0
  3  8  2  0  0  0  0
  3 17  1  0  0  0  0
  4  9  1  0  0  0  0
  4 17  2  0  0  0  0
  5 20  1  0  0  0  0
  6 22  1  0  0  0  0
  7 10  2  0  0  0  0
  7 21  1  0  0  0  0
  8 26  1  0  0  0  0
  9 26  2  0  0  0  0
 10 27  1  0  0  0  0
 11 12  2  0  0  0  0
 11 28  1  0  0  0  0
 12 30  1  0  0  0  0
 13 18  1  0  0  0  0
 13 29  2  0  0  0  0
 14 23  1  0  0  0  0
 14 27  2  0  0  0  0
 15 25  2  0  0  0  0
 15 29  1  0  0  0  0
 16 30  2  0  0  0  0
 16 31  1  0  0  0  0
 17 32  1  0  0  0  0
 18 24  2  0  0  0  0
 18 34  1  0  0  0  0
 19 32  1  0  0  0  0
 19 33  2  0  0  0  0
 19 35  1  0  0  0  0
 20 22  2  0  0  0  0
 20 40  1  0  0  0  0
 21 23  2  0  0  0  0
 21 41  1  0  0  0  0
 22 49  1  0  0  0  0
 23 42  1  0  0  0  0
 24 25  1  0  0  0  0
 24 52  1  0  0  0  0
 25 70  1  0  0  0  0
 26 81  1  0  0  0  0
 27 82  1  0  0  0  0
 28 31  2  0  0  0  0
 28 81  1  0  0  0  0
 29 83  1  0  0  0  0
 30 84  1  0  0  0  0
 31 85  1  0  0  0  0
 32 65  2  0  0  0  0
 33 67  1  0  0  0  0
 33 71  1  0  0  0  0
 34 36  1  0  0  0  0
 34 66  2  0  0  0  0
 35 72  1  0  0  0  0
 35 76  2  0  0  0  0
 36 68  1  0  0  0  0
 36 77  2  0  0  0  0
 37 50  1  0  0  0  0
 37 73  1  0  0  0  0
 37 78  2  0  0  0  0
 38 62  1  0  0  0  0
 38 69  1  0  0  0  0
 38 79  2  0  0  0  0
 39 63  1  0  0  0  0
 39 74  1  0  0  0  0
 39 80  2  0  0  0  0
 40 43  1  0  0  0  0
 41 50  1  0  0  0  0
 42 69  1  0  0  0  0
 43 45  1  0  0  0  0
 44 46  1  0  0  0  0
 44 47  1  0  0  0  0
 45 49  1  0  0  0  0
 46 51  1  0  0  0  0
 47 68  1  0  0  0  0
 48 51  1  0  0  0  0
 48 68  1  0  0  0  0
 49 73  1  0  0  0  0
 50 69  1  0  0  0  0
 51 67  1  0  0  0  0
 53 63  1  0  0  0  0
 54 64  1  0  0  0  0
 55 64  1  0  0  0  0
 56 64  1  0  0  0  0
 57 75  1  0  0  0  0
 58 59  1  0  0  0  0
 58 60  1  0  0  0  0
 59 61  1  0  0  0  0
 60 82  1  0  0  0  0
 61 83  1  0  0  0  0
 62 64  1  0  0  0  0
 62 74  1  0  0  0  0
 63 75  1  0  0  0  0
 65 67  1  0  0  0  0
M  CHG  1  75   1
M  ISO  4  34 100  36 100  60 101  82 101
M  END
> <Batch ID>
0107

> <Smiles>
CNC(C)C(=O)NC(C(=O)N1Cc2cc([101O:1][101CH2:1]CCCOc3cc(N)c(C)c([100C:0](=N)[100C:0](=O)N4CCCC(n5nc(-c6ccc(Oc7ccc(F)cc7F)cc6)c(C(N)=O)c5N)C4)c3)ccc2CC1C(=O)NC1CCCc2ccccc21)C(C)(C)C

> <Shape>
0.289

> <Color>
0.045

> <Negative vol penalty>
0.000

$$$$

  -OEChem-04052301173D

 88 96  0     1  0  0  0  0  0999 V2000
  -26.3821  -34.7793   15.4350 C   0  0  0  0  0  0  0  0  0  0  0  0
  -26.9429  -33.6393   16.0020 C   0  0  0  0  0  0  0  0  0  0  0  0
  -24.8309  -13.8357   18.4699 C   0  0  0  0  0  0  0  0  0  0  0  0
  -23.5906  -14.0751   20.5294 C   0  0  0  0  0  0  0  0  0  0  0  0
  -25.8129  -35.7550   16.2522 C   0  0  0  0  0  0  0  0  0  0  0  0
  -26.9357  -33.4749   17.3866 C   0  0  0  0  0  0  0  0  0  0  0  0
  -25.5742  -28.8009   18.7811 C   0  0  0  0  0  0  0  0  0  0  0  0
  -24.3296  -12.5429   18.3182 C   0  0  0  0  0  0  0  0  0  0  0  0
  -23.0893  -12.7822   20.3777 C   0  0  0  0  0  0  0  0  0  0  0  0
  -26.5375  -27.7986   18.6744 C   0  0  0  0  0  0  0  0  0  0  0  0
  -24.1703   -9.6171   20.8720 C   0  0  0  0  0  0  0  0  0  0  0  0
  -24.1713   -8.7861   21.9923 C   0  0  0  0  0  0  0  0  0  0  0  0
  -26.9766  -27.9772   21.0397 C   0  0  0  0  0  0  0  0  0  0  0  0
  -30.1218  -18.9256   18.6633 C   0  0  0  0  0  0  0  0  0  0  0  0
  -29.0793  -18.5353   16.5190 C   0  0  0  0  0  0  0  0  0  0  0  0
  -30.2878  -16.7544   17.6167 C   0  0  0  0  0  0  0  0  0  0  0  0
  -21.7687   -8.5812   21.8423 C   0  0  0  0  0  0  0  0  0  0  0  0
  -24.4614  -14.6018   19.5755 C   0  0  0  0  0  0  0  0  0  0  0  0
  -24.4106  -17.1317   19.2519 C   0  0  0  0  0  0  0  0  0  0  0  0
  -25.7901  -35.5980   17.6470 C   0  0  0  0  0  0  0  0  0  0  0  0
  -25.3122  -29.4074   20.0180 C   0  0  0  0  0  0  0  0  0  0  0  0
  -26.3668  -34.4501   18.2234 C   0  0  0  0  0  0  0  0  0  0  0  0
  -26.0077  -28.9851   21.1599 C   0  0  0  0  0  0  0  0  0  0  0  0
  -29.3715  -19.3891   17.5826 C   0  0  0  0  0  0  0  0  0  0  0  0
  -30.5800  -17.6082   18.6803 C   0  0  0  0  0  0  0  0  0  0  0  0
  -23.4588  -12.0162   19.2721 C   0  0  0  0  0  0  0  0  0  0  0  0
  -27.2409  -27.3886   19.8032 C   0  0  0  0  0  0  0  0  0  0  0  0
  -22.9685   -9.9302   20.2369 C   0  0  0  0  0  0  0  0  0  0  0  0
  -29.5374  -17.2179   16.5360 C   0  0  0  0  0  0  0  0  0  0  0  0
  -22.9705   -8.2681   22.4774 C   0  0  0  0  0  0  0  0  0  0  0  0
  -21.7677   -9.4123   20.7220 C   0  0  0  0  0  0  0  0  0  0  0  0
  -24.9793  -15.9371   19.7330 C   0  0  0  0  0  0  0  0  0  0  0  0
  -25.2785  -18.1143   19.6614 C   0  0  0  0  0  0  0  0  0  0  0  0
  -23.2056  -17.3349   18.5021 C   0  0  0  0  0  0  0  0  0  0  0  0
  -25.5481  -32.3640   21.1612 C   0  0  0  0  0  0  0  0  0  0  0  0
  -24.1172  -31.0553   23.7616 C   0  0  0  0  0  0  0  0  0  0  0  0
  -29.1053  -21.7058   18.5338 C   0  0  0  0  0  0  0  0  0  0  0  0
  -23.4567  -28.2607   25.6057 C   0  0  0  0  0  0  0  0  0  0  0  0
  -31.2057  -17.6183   21.1091 C   0  0  0  0  0  0  0  0  0  0  0  0
  -25.2059  -36.7020   18.4923 C   0  0  0  0  0  0  0  0  0  0  0  0
  -24.2511  -30.4685   20.1214 C   0  0  0  0  0  0  0  0  0  0  0  0
  -25.7496  -29.5903   22.5147 C   0  0  0  0  0  0  0  0  0  0  0  0
  -24.9043  -36.2760   19.9269 C   0  0  0  0  0  0  0  0  0  0  0  0
  -28.4654  -19.1457   23.0714 C   0  0  0  0  0  0  0  0  0  0  0  0
  -26.0833  -35.5068   20.5144 C   0  0  0  0  0  0  0  0  0  0  0  0
  -27.2157  -18.5282   22.4467 C   0  0  0  0  0  0  0  0  0  0  0  0
  -29.6729  -18.2206   22.9552 C   0  0  0  0  0  0  0  0  0  0  0  0
  -28.7099  -17.1724   20.9266 C   0  0  0  0  0  0  0  0  0  0  0  0
  -26.3562  -34.2241   19.7197 C   0  0  1  0  0  0  0  0  0  0  0  0
  -24.4296  -31.3758   21.3348 C   0  0  1  0  0  0  0  0  0  0  0  0
  -27.4891  -18.1020   20.9948 C   0  0  1  0  0  0  0  0  0  0  0  0
  -22.2940  -27.5116   27.6996 C   0  0  0  0  0  0  0  0  0  0  0  0
  -33.7567  -17.1467   19.2960 C   0  0  0  0  0  0  0  0  0  0  0  0
  -32.7321  -15.2847   20.6400 C   0  0  0  0  0  0  0  0  0  0  0  0
  -26.4073  -32.1824   25.4334 C   0  0  0  0  0  0  0  0  0  0  0  0
  -25.7236  -30.6399   27.2832 C   0  0  0  0  0  0  0  0  0  0  0  0
  -24.1465  -32.3982   26.4808 C   0  0  0  0  0  0  0  0  0  0  0  0
  -21.6199  -26.4996   24.0944 C   0  0  0  0  0  0  0  0  0  0  0  0
  -29.7519  -15.0507   15.5805 C   0  0  0  0  0  0  0  0  0  0  0  0
  -28.4353  -23.0086   18.1199 C   0  0  0  0  0  0  0  0  0  0  0  0
  -28.6223  -24.1181   19.1490 C   0  0  0  0  0  0  0  0  0  0  0  0
  -27.9853  -25.4223   18.6917 C   0  0  0  0  0  0  0  0  0  1  0  0
  -24.6017  -30.3830   25.0234 C   0  0  1  0  0  0  0  0  0  0  0  0
  -22.1653  -27.7278   26.1998 C   0  0  2  0  0  0  0  0  0  0  0  0
  -32.5172  -16.2883   19.5145 C   0  0  0  0  0  0  0  0  0  0  0  0
  -25.2263  -31.3906   26.0295 C   0  0  0  0  0  0  0  0  0  0  0  0
  -26.1202  -16.1400   20.3971 N   0  0  0  0  0  0  0  0  0  0  0  0
  -26.2756  -17.4735   20.3362 N   0  0  0  0  0  0  0  0  0  0  0  0
  -24.7069  -30.6286   22.5633 N   0  0  0  0  0  0  0  0  0  0  0  0
  -29.8849  -17.7751   21.5771 N   0  0  0  0  0  0  0  0  0  0  0  0
  -25.2784  -19.4554   19.5063 N   0  0  0  0  0  0  0  0  0  0  0  0
  -22.4316  -16.2161   18.1651 N   0  0  0  0  0  0  0  0  0  0  0  0
  -28.9073  -20.7259   17.5651 N   0  0  0  0  0  0  0  0  0  0  0  0
  -25.3970  -33.1986   20.0703 N   0  0  0  0  0  0  0  0  0  0  0  0
  -23.4639  -29.6385   25.5520 N   0  0  0  0  0  0  0  0  0  0  0  0
  -31.3553  -17.1280   19.7979 N   0  0  0  0  0  0  0  0  0  0  0  0
  -21.8014  -26.4285   25.5671 N   0  3  0  0  0  0  0  0  0  0  0  0
  -22.8349  -18.4732   18.1274 O   0  0  0  0  0  0  0  0  0  0  0  0
  -26.4784  -32.3699   21.9587 O   0  0  0  0  0  0  0  0  0  0  0  0
  -23.2425  -31.9218   23.8357 O   0  0  0  0  0  0  0  0  0  0  0  0
  -29.7207  -21.5966   19.5892 O   0  0  0  0  0  0  0  0  0  0  0  0
  -24.3693  -27.5280   25.2304 O   0  0  0  0  0  0  0  0  0  0  0  0
  -32.1862  -17.8461   21.8285 O   0  0  0  0  0  0  0  0  0  0  0  0
  -22.9693  -10.7548   19.1243 O   0  0  0  0  0  0  0  0  0  0  0  0
  -29.2524  -16.3846   15.4983 O   0  0  0  0  0  0  0  0  0  0  0  0
  -28.1821  -26.4110   19.7017 O   0  0  0  0  0  0  0  0  0  1  0  0
  -22.9717   -7.4689   23.5523 F   0  0  0  0  0  0  0  0  0  0  0  0
  -20.6101   -9.7085   20.1154 F   0  0  0  0  0  0  0  0  0  0  0  0
  1  2  1  0  0  0  0
  1  5  2  0  0  0  0
  2  6  2  0  0  0  0
  3  8  2  0  0  0  0
  3 18  1  0  0  0  0
  4  9  1  0  0  0  0
  4 18  2  0  0  0  0
  5 20  1  0  0  0  0
  6 22  1  0  0  0  0
  7 10  2  0  0  0  0
  7 21  1  0  0  0  0
  8 26  1  0  0  0  0
  9 26  2  0  0  0  0
 10 27  1  0  0  0  0
 11 12  2  0  0  0  0
 11 28  1  0  0  0  0
 12 30  1  0  0  0  0
 13 23  1  0  0  0  0
 13 27  2  0  0  0  0
 14 24  2  0  0  0  0
 14 25  1  0  0  0  0
 15 24  1  0  0  0  0
 15 29  2  0  0  0  0
 16 25  2  0  0  0  0
 16 29  1  0  0  0  0
 17 30  2  0  0  0  0
 17 31  1  0  0  0  0
 18 32  1  0  0  0  0
 19 32  1  0  0  0  0
 19 33  2  0  0  0  0
 19 34  1  0  0  0  0
 20 22  2  0  0  0  0
 20 40  1  0  0  0  0
 21 23  2  0  0  0  0
 21 41  1  0  0  0  0
 22 49  1  0  0  0  0
 23 42  1  0  0  0  0
 24 73  1  0  0  0  0
 25 76  1  0  0  0  0
 26 84  1  0  0  0  0
 27 86  1  0  0  0  0
 28 31  2  0  0  0  0
 28 84  1  0  0  0  0
 29 85  1  0  0  0  0
 30 87  1  0  0  0  0
 31 88  1  0  0  0  0
 32 67  2  0  0  0  0
 33 68  1  0  0  0  0
 33 71  1  0  0  0  0
 34 72  1  0  0  0  0
 34 78  2  0  0  0  0
 35 50  1  0  0  0  0
 35 74  1  0  0  0  0
 35 79  2  0  0  0  0
 36 63  1  0  0  0  0
 36 69  1  0  0  0  0
 36 80  2  0  0  0  0
 37 60  1  0  0  0  0
 37 73  1  0  0  0  0
 37 81  2  0  0  0  0
 38 64  1  0  0  0  0
 38 75  1  0  0  0  0
 38 82  2  0  0  0  0
 39 70  1  0  0  0  0
 39 76  1  0  0  0  0
 39 83  2  0  0  0  0
 40 43  1  0  0  0  0
 41 50  1  0  0  0  0
 42 69  1  0  0  0  0
 43 45  1  0  0  0  0
 44 46  1  0  0  0  0
 44 47  1  0  0  0  0
 45 49  1  0  0  0  0
 46 51  1  0  0  0  0
 47 70  1  0  0  0  0
 48 51  1  0  0  0  0
 48 70  1  0  0  0  0
 49 74  1  0  0  0  0
 50 69  1  0  0  0  0
 51 68  1  0  0  0  0
 52 64  1  0  0  0  0
 53 65  1  0  0  0  0
 54 65  1  0  0  0  0
 55 66  1  0  0  0  0
 56 66  1  0  0  0  0
 57 66  1  0  0  0  0
 58 77  1  0  0  0  0
 59 85  1  0  0  0  0
 60 61  1  0  0  0  0
 61 62  1  0  0  0  0
 62 86  1  0  0  0  0
 63 66  1  0  0  0  0
 63 75  1  0  0  0  0
 64 77  1  0  0  0  0
 65 76  1  0  0  0  0
 67 68  1  0  0  0  0
M  CHG  1  77   1
M  ISO  4  39 100  62 101  76 100  86 101
M  END
> <Batch ID>
0107

> <Smiles>
CNC(C)C(=O)NC(C(=O)N1Cc2cc([101O:1][101CH2:1]CCC(=O)Nc3cc(OC)cc([100N:0](C(C)C)[100C:0](=O)N4CCCC(n5nc(-c6ccc(Oc7ccc(F)cc7F)cc6)c(C(N)=O)c5N)C4)c3)ccc2CC1C(=O)NC1CCCc2ccccc21)C(C)(C)C

> <Shape>
0.225

> <Color>
0.094

> <Negative vol penalty>
0.000

$$$$

  -OEChem-04052301173D

 86 95  0     1  0  0  0  0  0999 V2000
  -17.0275  -30.5699   24.1424 C   0  0  0  0  0  0  0  0  0  0  0  0
  -18.3227  -31.0036   24.4065 C   0  0  0  0  0  0  0  0  0  0  0  0
  -24.7488  -14.1633   19.8141 C   0  0  0  0  0  0  0  0  0  0  0  0
  -26.2028  -14.4061   21.7282 C   0  0  0  0  0  0  0  0  0  0  0  0
  -16.8184  -29.3341   23.5316 C   0  0  0  0  0  0  0  0  0  0  0  0
  -19.4096  -30.2012   24.0609 C   0  0  0  0  0  0  0  0  0  0  0  0
  -26.2062  -30.6596   21.8445 C   0  0  0  0  0  0  0  0  0  0  0  0
  -30.2096  -25.3991   22.2654 C   0  0  0  0  0  0  0  0  0  0  0  0
  -29.7982  -24.4017   21.3814 C   0  0  0  0  0  0  0  0  0  0  0  0
  -24.7804  -12.7772   19.9658 C   0  0  0  0  0  0  0  0  0  0  0  0
  -26.2344  -13.0199   21.8800 C   0  0  0  0  0  0  0  0  0  0  0  0
  -27.4792  -30.1943   22.1710 C   0  0  0  0  0  0  0  0  0  0  0  0
  -24.1874   -9.1921   20.0679 C   0  0  0  0  0  0  0  0  0  0  0  0
  -22.9797   -8.5011   19.9694 C   0  0  0  0  0  0  0  0  0  0  0  0
  -27.0002  -28.1136   21.0482 C   0  0  0  0  0  0  0  0  0  0  0  0
  -28.2865  -24.9568   23.6594 C   0  0  0  0  0  0  0  0  0  0  0  0
  -22.1068   -9.7606   21.8373 C   0  0  0  0  0  0  0  0  0  0  0  0
  -25.4600  -14.9779   20.6952 C   0  0  0  0  0  0  0  0  0  0  0  0
  -24.5135  -17.3084   21.1198 C   0  0  0  0  0  0  0  0  0  0  0  0
  -17.9035  -28.5204   23.1696 C   0  0  0  0  0  0  0  0  0  0  0  0
  -25.3151  -29.8498   21.1256 C   0  0  0  0  0  0  0  0  0  0  0  0
  -19.2147  -28.9528   23.4459 C   0  0  0  0  0  0  0  0  0  0  0  0
  -25.7173  -28.5719   20.7116 C   0  0  0  0  0  0  0  0  0  0  0  0
  -27.8751  -23.9594   22.7753 C   0  0  0  0  0  0  0  0  0  0  0  0
  -29.4538  -25.6766   23.4045 C   0  0  0  0  0  0  0  0  0  0  0  0
  -28.6309  -23.6818   21.6363 C   0  0  0  0  0  0  0  0  0  0  0  0
  -25.5232  -12.2054   20.9988 C   0  0  0  0  0  0  0  0  0  0  0  0
  -27.8754  -28.9201   21.7754 C   0  0  0  0  0  0  0  0  0  0  0  0
  -24.3548  -10.1672   21.0512 C   0  0  0  0  0  0  0  0  0  0  0  0
  -21.9394   -8.7854   20.8540 C   0  0  0  0  0  0  0  0  0  0  0  0
  -23.3145  -10.4515   21.9358 C   0  0  0  0  0  0  0  0  0  0  0  0
  -25.4282  -16.4098   20.5387 C   0  0  0  0  0  0  0  0  0  0  0  0
  -24.9082  -18.5426   20.6644 C   0  0  0  0  0  0  0  0  0  0  0  0
  -29.6393  -26.7289   25.7039 C   0  0  0  0  0  0  0  0  0  0  0  0
  -23.4060  -17.0505   21.9931 C   0  0  0  0  0  0  0  0  0  0  0  0
  -22.4579  -28.5873   21.7136 C   0  0  0  0  0  0  0  0  0  0  0  0
  -22.6522  -27.6776   18.6061 C   0  0  0  0  0  0  0  0  0  0  0  0
  -24.6249  -26.9580   15.9158 C   0  0  0  0  0  0  0  0  0  0  0  0
  -28.8805  -22.2836   19.5557 C   0  0  0  0  0  0  0  0  0  0  0  0
  -17.6260  -27.1717   22.5544 C   0  0  0  0  0  0  0  0  0  0  0  0
  -23.9550  -30.3766   20.7582 C   0  0  0  0  0  0  0  0  0  0  0  0
  -24.8056  -27.6711   19.9206 C   0  0  0  0  0  0  0  0  0  0  0  0
  -30.2862  -27.9797   26.2501 C   0  0  0  0  0  0  0  0  0  0  0  0
  -18.8449  -26.5476   21.8797 C   0  0  0  0  0  0  0  0  0  0  0  0
  -31.2793  -28.3643   25.1698 C   0  0  0  0  0  0  0  0  0  0  0  0
  -28.2358  -19.8177   17.0695 C   0  0  0  0  0  0  0  0  0  0  0  0
  -20.0690  -26.6556   22.7833 C   0  0  0  0  0  0  0  0  0  0  0  0
  -27.3726  -18.7852   17.7982 C   0  0  0  0  0  0  0  0  0  0  0  0
  -29.3083  -20.4071   17.9839 C   0  0  0  0  0  0  0  0  0  0  0  0
  -27.9470  -19.9247   19.9797 C   0  0  0  0  0  0  0  0  0  0  0  0
  -20.4202  -28.1218   23.0635 C   0  0  1  0  0  0  0  0  0  0  0  0
  -22.9446  -29.2711   20.4674 C   0  0  1  0  0  0  0  0  0  0  0  0
  -26.8109  -19.3506   19.1175 C   0  0  2  0  0  0  0  0  0  0  0  0
  -30.6199  -27.8806   23.8831 C   0  0  2  0  0  0  0  0  0  0  0  0
  -25.4482  -23.6667   22.2173 C   0  0  0  0  0  0  0  0  0  0  0  0
  -24.4981  -26.2067   13.5248 C   0  0  0  0  0  0  0  0  0  0  0  0
  -22.0781  -24.8283   19.5343 C   0  0  0  0  0  0  0  0  0  0  0  0
  -22.8928  -24.0142   17.3113 C   0  0  0  0  0  0  0  0  0  0  0  0
  -20.8935  -25.5008   17.4370 C   0  0  0  0  0  0  0  0  0  0  0  0
  -25.9054  -29.4435   14.9456 C   0  0  0  0  0  0  0  0  0  0  0  0
  -26.6218  -23.2026   23.0742 C   0  0  0  0  0  0  0  0  0  0  0  0
  -29.7018  -28.9562   23.2981 C   0  0  0  0  0  0  0  0  0  1  0  0
  -23.1873  -26.4685   17.8775 C   0  0  1  0  0  0  0  0  0  0  0  0
  -24.5512  -27.4004   14.4656 C   0  0  2  0  0  0  0  0  0  0  0  0
  -22.2796  -25.2189   18.0566 C   0  0  0  0  0  0  0  0  0  0  0  0
  -26.3356  -17.0212   19.7725 N   0  0  0  0  0  0  0  0  0  0  0  0
  -25.9929  -18.3171   19.8690 N   0  0  0  0  0  0  0  0  0  0  0  0
  -29.8778  -26.6987   24.3134 N   0  0  0  0  0  0  0  0  0  0  0  0
  -23.4836  -28.2290   19.5913 N   0  0  0  0  0  0  0  0  0  0  0  0
  -28.7021  -20.9269   19.2115 N   0  0  0  0  0  0  0  0  0  0  0  0
  -24.4298  -19.7880   20.8708 N   0  0  0  0  0  0  0  0  0  0  0  0
  -23.1407  -15.7247   22.3619 N   0  0  0  0  0  0  0  0  0  0  0  0
  -28.2308  -22.6715   20.7270 N   0  0  0  0  0  0  0  0  0  0  0  0
  -21.0975  -28.7056   21.9256 N   0  0  0  0  0  0  0  0  0  0  0  0
  -23.3737  -26.8777   16.4896 N   0  0  0  0  0  0  0  0  0  0  0  0
  -25.7428  -28.2234   14.1138 N   0  3  0  0  0  0  0  0  0  0  0  0
  -29.0142  -25.9559   26.4156 O   0  0  0  0  0  0  0  0  0  0  0  0
  -22.6636  -17.9669   22.4203 O   0  0  0  0  0  0  0  0  0  0  0  0
  -23.2571  -27.9948   22.4291 O   0  0  0  0  0  0  0  0  0  0  0  0
  -21.5406  -28.1209   18.3070 O   0  0  0  0  0  0  0  0  0  0  0  0
  -25.6861  -26.7051   16.4819 O   0  0  0  0  0  0  0  0  0  0  0  0
  -29.5372  -23.0517   18.8480 O   0  0  0  0  0  0  0  0  0  0  0  0
  -25.5541  -10.8528   21.1473 O   0  0  0  0  0  0  0  0  0  0  0  0
  -29.1172  -28.4633   22.0933 O   0  0  0  0  0  0  0  0  0  1  0  0
  -20.7792   -8.1229   20.7583 F   0  0  0  0  0  0  0  0  0  0  0  0
  -23.4690  -11.3880   22.8818 F   0  0  0  0  0  0  0  0  0  0  0  0
  1  2  1  0  0  0  0
  1  5  2  0  0  0  0
  2  6  2  0  0  0  0
  3 10  2  0  0  0  0
  3 18  1  0  0  0  0
  4 11  1  0  0  0  0
  4 18  2  0  0  0  0
  5 20  1  0  0  0  0
  6 22  1  0  0  0  0
  7 12  2  0  0  0  0
  7 21  1  0  0  0  0
  8  9  2  0  0  0  0
  8 25  1  0  0  0  0
  9 26  1  0  0  0  0
 10 27  1  0  0  0  0
 11 27  2  0  0  0  0
 12 28  1  0  0  0  0
 13 14  2  0  0  0  0
 13 29  1  0  0  0  0
 14 30  1  0  0  0  0
 15 23  1  0  0  0  0
 15 28  2  0  0  0  0
 16 24  1  0  0  0  0
 16 25  2  0  0  0  0
 17 30  2  0  0  0  0
 17 31  1  0  0  0  0
 18 32  1  0  0  0  0
 19 32  1  0  0  0  0
 19 33  2  0  0  0  0
 19 35  1  0  0  0  0
 20 22  2  0  0  0  0
 20 40  1  0  0  0  0
 21 23  2  0  0  0  0
 21 41  1  0  0  0  0
 22 51  1  0  0  0  0
 23 42  1  0  0  0  0
 24 26  2  0  0  0  0
 24 61  1  0  0  0  0
 25 68  1  0  0  0  0
 26 73  1  0  0  0  0
 27 83  1  0  0  0  0
 28 84  1  0  0  0  0
 29 31  2  0  0  0  0
 29 83  1  0  0  0  0
 30 85  1  0  0  0  0
 31 86  1  0  0  0  0
 32 66  2  0  0  0  0
 33 67  1  0  0  0  0
 33 71  1  0  0  0  0
 34 43  1  0  0  0  0
 34 68  1  0  0  0  0
 34 77  2  0  0  0  0
 35 72  1  0  0  0  0
 35 78  2  0  0  0  0
 36 52  1  0  0  0  0
 36 74  1  0  0  0  0
 36 79  2  0  0  0  0
 37 63  1  0  0  0  0
 37 69  1  0  0  0  0
 37 80  2  0  0  0  0
 38 64  1  0  0  0  0
 38 75  1  0  0  0  0
 38 81  2  0  0  0  0
 39 70  1  0  0  0  0
 39 73  1  0  0  0  0
 39 82  2  0  0  0  0
 40 44  1  0  0  0  0
 41 52  1  0  0  0  0
 42 69  1  0  0  0  0
 43 45  1  0  0  0  0
 44 47  1  0  0  0  0
 45 54  1  0  0  0  0
 46 48  1  0  0  0  0
 46 49  1  0  0  0  0
 47 51  1  0  0  0  0
 48 53  1  0  0  0  0
 49 70  1  0  0  0  0
 50 53  1  0  0  0  0
 50 70  1  0  0  0  0
 51 74  1  0  0  0  0
 52 69  1  0  0  0  0
 53 67  1  0  0  0  0
 54 62  1  0  0  0  0
 54 68  1  0  0  0  0
 55 61  1  0  0  0  0
 56 64  1  0  0  0  0
 57 65  1  0  0  0  0
 58 65  1  0  0  0  0
 59 65  1  0  0  0  0
 60 76  1  0  0  0  0
 62 84  1  0  0  0  0
 63 65  1  0  0  0  0
 63 75  1  0  0  0  0
 64 76  1  0  0  0  0
 66 67  1  0  0  0  0
M  CHG  1  76   1
M  ISO  4  39 100  62 101  73 100  84 101
M  END
> <Batch ID>
0107

> <Smiles>
CCc1cc(N2C(=O)CCC2[101CH2:1][101O:1]c2ccc3c(c2)CN(C(=O)C(NC(=O)C(C)NC)C(C)(C)C)C(C(=O)NC2CCCc4ccccc42)C3)ccc1[100NH:0][100C:0](=O)N1CCCC(n2nc(-c3ccc(Oc4ccc(F)cc4F)cc3)c(C(N)=O)c2N)C1

> <Shape>
0.245

> <Color>
0.094

> <Negative vol penalty>
0.000

$$$$

  -OEChem-04052301173D

 89 97  0     1  0  0  0  0  0999 V2000
  -28.0461  -34.4769   25.8105 C   0  0  0  0  0  0  0  0  0  0  0  0
  -27.3889  -33.3352   26.2577 C   0  0  0  0  0  0  0  0  0  0  0  0
  -23.0188   -9.8498   19.9962 C   0  0  0  0  0  0  0  0  0  0  0  0
  -23.7241   -9.9571   22.3045 C   0  0  0  0  0  0  0  0  0  0  0  0
  -28.3208  -34.6350   24.4528 C   0  0  0  0  0  0  0  0  0  0  0  0
  -27.0050  -32.3513   25.3472 C   0  0  0  0  0  0  0  0  0  0  0  0
  -26.8724  -26.3032   26.3002 C   0  0  0  0  0  0  0  0  0  0  0  0
  -22.2608   -8.7139   20.2806 C   0  0  0  0  0  0  0  0  0  0  0  0
  -22.9661   -8.8212   22.5889 C   0  0  0  0  0  0  0  0  0  0  0  0
  -25.8383  -25.4280   26.6298 C   0  0  0  0  0  0  0  0  0  0  0  0
  -23.2461   -5.4754   22.1907 C   0  0  0  0  0  0  0  0  0  0  0  0
  -23.8369   -4.4803   22.9693 C   0  0  0  0  0  0  0  0  0  0  0  0
  -25.5641  -24.8829   24.2959 C   0  0  0  0  0  0  0  0  0  0  0  0
  -27.5445  -17.8830   25.2938 C   0  0  0  0  0  0  0  0  0  0  0  0
  -26.3778  -20.2090   24.2885 C   0  0  0  0  0  0  0  0  0  0  0  0
  -22.0968   -4.7423   24.6247 C   0  0  0  0  0  0  0  0  0  0  0  0
  -23.7505  -10.4714   21.0082 C   0  0  0  0  0  0  0  0  0  0  0  0
  -24.1133  -12.9862   20.7814 C   0  0  0  0  0  0  0  0  0  0  0  0
  -27.9487  -33.6481   23.5264 C   0  0  0  0  0  0  0  0  0  0  0  0
  -27.2534  -26.4833   24.9628 C   0  0  0  0  0  0  0  0  0  0  0  0
  -27.2738  -32.4970   23.9756 C   0  0  0  0  0  0  0  0  0  0  0  0
  -26.6050  -25.7590   23.9523 C   0  0  0  0  0  0  0  0  0  0  0  0
  -27.6735  -18.1996   23.9415 C   0  0  0  0  0  0  0  0  0  0  0  0
  -27.0901  -19.3626   23.4388 C   0  0  0  0  0  0  0  0  0  0  0  0
  -26.8321  -18.7293   26.1435 C   0  0  0  0  0  0  0  0  0  0  0  0
  -22.2345   -8.1996   21.5769 C   0  0  0  0  0  0  0  0  0  0  0  0
  -25.1821  -24.7199   25.6273 C   0  0  0  0  0  0  0  0  0  0  0  0
  -22.0806   -6.1041   22.6292 C   0  0  0  0  0  0  0  0  0  0  0  0
  -26.2488  -19.8924   25.6408 C   0  0  0  0  0  0  0  0  0  0  0  0
  -23.2623   -4.1136   24.1863 C   0  0  0  0  0  0  0  0  0  0  0  0
  -21.5060   -5.7375   23.8462 C   0  0  0  0  0  0  0  0  0  0  0  0
  -24.5340  -11.6445   20.7150 C   0  0  0  0  0  0  0  0  0  0  0  0
  -25.2192  -13.7116   20.4107 C   0  0  0  0  0  0  0  0  0  0  0  0
  -22.8370  -13.5285   21.1457 C   0  0  0  0  0  0  0  0  0  0  0  0
  -27.2926  -28.9462   22.9537 C   0  0  0  0  0  0  0  0  0  0  0  0
  -29.8363  -17.7844   22.6943 C   0  0  0  0  0  0  0  0  0  0  0  0
  -28.7941  -26.8317   21.0052 C   0  0  0  0  0  0  0  0  0  0  0  0
  -29.3792  -23.5758   20.1661 C   0  0  0  0  0  0  0  0  0  0  0  0
  -30.7041  -14.7044   20.6840 C   0  0  0  0  0  0  0  0  0  0  0  0
  -28.2250  -33.8852   22.0628 C   0  0  0  0  0  0  0  0  0  0  0  0
  -28.3886  -27.4109   24.6264 C   0  0  0  0  0  0  0  0  0  0  0  0
  -26.9896  -25.9012   22.5031 C   0  0  0  0  0  0  0  0  0  0  0  0
  -28.1183  -32.6233   21.2105 C   0  0  0  0  0  0  0  0  0  0  0  0
  -29.6062  -12.2202   18.3818 C   0  0  0  0  0  0  0  0  0  0  0  0
  -26.8496  -31.8506   21.5573 C   0  0  0  0  0  0  0  0  0  0  0  0
  -28.1568  -11.9555   18.7931 C   0  0  0  0  0  0  0  0  0  0  0  0
  -30.4962  -12.4901   19.5931 C   0  0  0  0  0  0  0  0  0  0  0  0
  -28.5674  -13.2956   20.8988 C   0  0  0  0  0  0  0  0  0  0  0  0
  -26.8635  -31.3961   23.0218 C   0  0  1  0  0  0  0  0  0  0  0  0
  -28.3500  -27.9036   23.1831 C   0  0  1  0  0  0  0  0  0  0  0  0
  -27.6202  -13.0733   19.7073 C   0  0  2  0  0  0  0  0  0  0  0  0
  -27.2127  -19.7218   21.9943 C   0  0  0  0  0  0  0  0  0  0  0  0
  -30.6194  -22.1621   18.5046 C   0  0  0  0  0  0  0  0  0  0  0  0
  -31.1071  -17.6794   20.5472 C   0  0  0  0  0  0  0  0  0  0  0  0
  -32.0245  -16.5898   22.6190 C   0  0  0  0  0  0  0  0  0  0  0  0
  -26.6973  -27.4857   18.8872 C   0  0  0  0  0  0  0  0  0  0  0  0
  -27.3910  -25.4160   17.6612 C   0  0  0  0  0  0  0  0  0  0  0  0
  -29.0296  -27.2637   18.0125 C   0  0  0  0  0  0  0  0  0  0  0  0
  -30.9918  -22.2904   22.2889 C   0  0  0  0  0  0  0  0  0  0  0  0
  -28.4393  -17.2777   23.0502 C   0  0  0  0  0  0  0  0  0  0  0  0
  -23.5450  -21.8784   27.1627 C   0  0  0  0  0  0  0  0  0  0  0  0
  -24.2363  -23.2314   27.2229 C   0  0  0  0  0  0  0  0  0  1  0  0
  -24.1810  -20.9600   26.1310 C   0  0  0  0  0  0  0  0  0  0  0  0
  -28.3464  -25.8233   19.9747 C   0  0  1  0  0  0  0  0  0  0  0  0
  -30.6666  -22.8274   19.8713 C   0  0  2  0  0  0  0  0  0  0  0  0
  -30.7562  -16.9089   21.8228 C   0  0  0  0  0  0  0  0  0  0  0  0
  -27.8573  -26.4957   18.6609 C   0  0  0  0  0  0  0  0  0  0  0  0
  -25.8077  -11.5218   20.3320 N   0  0  0  0  0  0  0  0  0  0  0  0
  -26.1969  -12.7958   20.1544 N   0  0  0  0  0  0  0  0  0  0  0  0
  -28.1014  -26.8252   22.2242 N   0  0  0  0  0  0  0  0  0  0  0  0
  -29.9322  -13.5615   20.4178 N   0  0  0  0  0  0  0  0  0  0  0  0
  -26.7094  -18.3973   27.5105 N   0  0  0  0  0  0  0  0  0  0  0  0
  -25.4409  -15.0370   20.2821 N   0  0  0  0  0  0  0  0  0  0  0  0
  -21.8108  -12.6420   21.4997 N   0  0  0  0  0  0  0  0  0  0  0  0
  -27.7191  -30.2402   23.1841 N   0  0  0  0  0  0  0  0  0  0  0  0
  -29.4623  -24.9010   19.7944 N   0  0  0  0  0  0  0  0  0  0  0  0
  -30.0919  -15.6745   21.4682 N   0  0  0  0  0  0  0  0  0  0  0  0
  -30.9002  -21.7737   20.8990 N   0  3  0  0  0  0  0  0  0  0  0  0
  -22.6084  -14.7619   21.1412 O   0  0  0  0  0  0  0  0  0  0  0  0
  -26.1732  -28.6022   22.5929 O   0  0  0  0  0  0  0  0  0  0  0  0
  -30.2353  -18.8783   23.1057 O   0  0  0  0  0  0  0  0  0  0  0  0
  -29.7287  -27.5921   20.7409 O   0  0  0  0  0  0  0  0  0  0  0  0
  -28.3968  -23.0378   20.6719 O   0  0  0  0  0  0  0  0  0  0  0  0
  -31.8518  -14.8520   20.2503 O   0  0  0  0  0  0  0  0  0  0  0  0
  -21.4948   -7.0913   21.8548 O   0  0  0  0  0  0  0  0  0  0  0  0
  -24.1720  -23.8655   25.9461 O   0  0  0  0  0  0  0  0  0  1  0  0
  -25.5459  -20.7378   26.4592 O   0  0  0  0  0  0  0  0  0  0  0  0
  -23.8290   -3.1569   24.9331 F   0  0  0  0  0  0  0  0  0  0  0  0
  -20.3858   -6.3370   24.2721 F   0  0  0  0  0  0  0  0  0  0  0  0
  1  2  1  0  0  0  0
  1  5  2  0  0  0  0
  2  6  2  0  0  0  0
  3  8  2  0  0  0  0
  3 17  1  0  0  0  0
  4  9  1  0  0  0  0
  4 17  2  0  0  0  0
  5 19  1  0  0  0  0
  6 21  1  0  0  0  0
  7 10  2  0  0  0  0
  7 20  1  0  0  0  0
  8 26  1  0  0  0  0
  9 26  2  0  0  0  0
 10 27  1  0  0  0  0
 11 12  2  0  0  0  0
 11 28  1  0  0  0  0
 12 30  1  0  0  0  0
 13 22  1  0  0  0  0
 13 27  2  0  0  0  0
 14 23  2  0  0  0  0
 14 25  1  0  0  0  0
 15 24  2  0  0  0  0
 15 29  1  0  0  0  0
 16 30  2  0  0  0  0
 16 31  1  0  0  0  0
 17 32  1  0  0  0  0
 18 32  1  0  0  0  0
 18 33  2  0  0  0  0
 18 34  1  0  0  0  0
 19 21  2  0  0  0  0
 19 40  1  0  0  0  0
 20 22  2  0  0  0  0
 20 41  1  0  0  0  0
 21 49  1  0  0  0  0
 22 42  1  0  0  0  0
 23 24  1  0  0  0  0
 23 60  1  0  0  0  0
 24 52  1  0  0  0  0
 25 29  2  0  0  0  0
 25 72  1  0  0  0  0
 26 85  1  0  0  0  0
 27 86  1  0  0  0  0
 28 31  2  0  0  0  0
 28 85  1  0  0  0  0
 29 87  1  0  0  0  0
 30 88  1  0  0  0  0
 31 89  1  0  0  0  0
 32 68  2  0  0  0  0
 33 69  1  0  0  0  0
 33 73  1  0  0  0  0
 34 74  1  0  0  0  0
 34 79  2  0  0  0  0
 35 50  1  0  0  0  0
 35 75  1  0  0  0  0
 35 80  2  0  0  0  0
 36 60  1  0  0  0  0
 36 66  1  0  0  0  0
 36 81  2  0  0  0  0
 37 64  1  0  0  0  0
 37 70  1  0  0  0  0
 37 82  2  0  0  0  0
 38 65  1  0  0  0  0
 38 76  1  0  0  0  0
 38 83  2  0  0  0  0
 39 71  1  0  0  0  0
 39 77  1  0  0  0  0
 39 84  2  0  0  0  0
 40 43  1  0  0  0  0
 41 50  1  0  0  0  0
 42 70  1  0  0  0  0
 43 45  1  0  0  0  0
 44 46  1  0  0  0  0
 44 47  1  0  0  0  0
 45 49  1  0  0  0  0
 46 51  1  0  0  0  0
 47 71  1  0  0  0  0
 48 51  1  0  0  0  0
 48 71  1  0  0  0  0
 49 75  1  0  0  0  0
 50 70  1  0  0  0  0
 51 69  1  0  0  0  0
 53 65  1  0  0  0  0
 54 66  1  0  0  0  0
 55 66  1  0  0  0  0
 56 67  1  0  0  0  0
 57 67  1  0  0  0  0
 58 67  1  0  0  0  0
 59 78  1  0  0  0  0
 61 62  1  0  0  0  0
 61 63  1  0  0  0  0
 62 86  1  0  0  0  0
 63 87  1  0  0  0  0
 64 67  1  0  0  0  0
 64 76  1  0  0  0  0
 65 78  1  0  0  0  0
 66 77  1  0  0  0  0
 68 69  1  0  0  0  0
M  CHG  1  78   1
M  ISO  4  39 100  62 101  77 100  86 101
M  END
> <Batch ID>
0107

> <Smiles>
CNC(C)C(=O)NC(C(=O)N1Cc2cc([101O:1][101CH2:1]CCOc3cc(C)c(CC(=O)C(C)(C)[100NH:0][100C:0](=O)N4CCCC(n5nc(-c6ccc(Oc7ccc(F)cc7F)cc6)c(C(N)=O)c5N)C4)cc3N)ccc2CC1C(=O)NC1CCCc2ccccc21)C(C)(C)C

> <Shape>
0.297

> <Color>
0.187

> <Negative vol penalty>
0.000

$$$$

  -OEChem-04052301173D

 83 91  0     1  0  0  0  0  0999 V2000
  -24.9495  -27.2280    5.1858 C   0  0  0  0  0  0  0  0  0  0  0  0
  -25.3774  -26.1022    5.8820 C   0  0  0  0  0  0  0  0  0  0  0  0
  -22.9871   -9.9081   19.9909 C   0  0  0  0  0  0  0  0  0  0  0  0
  -23.7687   -9.9352   22.2768 C   0  0  0  0  0  0  0  0  0  0  0  0
  -25.1482  -28.4978    5.7264 C   0  0  0  0  0  0  0  0  0  0  0  0
  -26.0054  -26.2455    7.1187 C   0  0  0  0  0  0  0  0  0  0  0  0
  -25.5878  -22.4663   11.9197 C   0  0  0  0  0  0  0  0  0  0  0  0
  -22.2275   -8.7706   20.2641 C   0  0  0  0  0  0  0  0  0  0  0  0
  -23.0090   -8.7977   22.5501 C   0  0  0  0  0  0  0  0  0  0  0  0
  -26.4198  -21.4510   12.3894 C   0  0  0  0  0  0  0  0  0  0  0  0
  -23.2420   -5.4640   22.0374 C   0  0  0  0  0  0  0  0  0  0  0  0
  -23.8480   -4.4392   22.7641 C   0  0  0  0  0  0  0  0  0  0  0  0
  -27.4344  -23.0041   13.9313 C   0  0  0  0  0  0  0  0  0  0  0  0
  -29.1941  -17.1011   19.8855 C   0  0  0  0  0  0  0  0  0  0  0  0
  -22.1657   -4.6640   24.4837 C   0  0  0  0  0  0  0  0  0  0  0  0
  -23.7577  -10.4904   20.9973 C   0  0  0  0  0  0  0  0  0  0  0  0
  -24.1383  -13.0078   20.8382 C   0  0  0  0  0  0  0  0  0  0  0  0
  -25.7703  -28.6562    6.9748 C   0  0  0  0  0  0  0  0  0  0  0  0
  -25.6804  -23.7629   12.4455 C   0  0  0  0  0  0  0  0  0  0  0  0
  -26.2139  -27.5186    7.6759 C   0  0  0  0  0  0  0  0  0  0  0  0
  -26.6006  -24.0335   13.4684 C   0  0  0  0  0  0  0  0  0  0  0  0
  -22.2384   -8.2154   21.5437 C   0  0  0  0  0  0  0  0  0  0  0  0
  -27.3453  -21.7205   13.3933 C   0  0  0  0  0  0  0  0  0  0  0  0
  -22.0979   -6.0889   22.5338 C   0  0  0  0  0  0  0  0  0  0  0  0
  -28.4461  -18.3128   19.8371 C   0  0  0  0  0  0  0  0  0  0  0  0
  -23.3098   -4.0392   23.9873 C   0  0  0  0  0  0  0  0  0  0  0  0
  -21.5598   -5.6888   23.7569 C   0  0  0  0  0  0  0  0  0  0  0  0
  -24.5431  -11.6651   20.7155 C   0  0  0  0  0  0  0  0  0  0  0  0
  -29.4496  -16.7019   21.1789 C   0  0  0  0  0  0  0  0  0  0  0  0
  -28.1580  -18.7935   21.0957 C   0  0  0  0  0  0  0  0  0  0  0  0
  -25.2387  -13.7346   20.4542 C   0  0  0  0  0  0  0  0  0  0  0  0
  -22.8802  -13.5497   21.2614 C   0  0  0  0  0  0  0  0  0  0  0  0
  -30.1628  -15.5541   21.6370 C   0  0  0  0  0  0  0  0  0  0  0  0
  -30.7638  -14.5728   20.7047 C   0  0  0  0  0  0  0  0  0  0  0  0
  -26.4038  -26.6200   11.2549 C   0  0  0  0  0  0  0  0  0  0  0  0
  -25.5585  -27.6365   14.2170 C   0  0  0  0  0  0  0  0  0  0  0  0
  -25.1648  -26.9072   17.5276 C   0  0  0  0  0  0  0  0  0  0  0  0
  -26.0058  -30.0515    7.4967 C   0  0  0  0  0  0  0  0  0  0  0  0
  -24.7572  -24.8406   11.9468 C   0  0  0  0  0  0  0  0  0  0  0  0
  -26.7257  -25.4039   14.0805 C   0  0  0  0  0  0  0  0  0  0  0  0
  -26.3429  -30.0963    8.9849 C   0  0  0  0  0  0  0  0  0  0  0  0
  -29.5343  -12.2956   18.2229 C   0  0  0  0  0  0  0  0  0  0  0  0
  -27.3941  -29.0450    9.3260 C   0  0  0  0  0  0  0  0  0  0  0  0
  -28.1054  -12.0093   18.6834 C   0  0  0  0  0  0  0  0  0  0  0  0
  -30.4727  -12.4986   19.4080 C   0  0  0  0  0  0  0  0  0  0  0  0
  -28.5916  -13.2806   20.8217 C   0  0  0  0  0  0  0  0  0  0  0  0
  -26.8769  -27.6318    9.0315 C   0  0  1  0  0  0  0  0  0  0  0  0
  -25.2922  -26.2476   12.1948 C   0  0  1  0  0  0  0  0  0  0  0  0
  -27.6090  -13.0974   19.6520 C   0  0  2  0  0  0  0  0  0  0  0  0
  -27.4075  -20.0116   21.4747 C   0  0  0  0  0  0  0  0  0  0  0  0
  -24.4963  -27.9523   19.7090 C   0  0  0  0  0  0  0  0  0  0  0  0
  -28.2633  -29.0401   14.3707 C   0  0  0  0  0  0  0  0  0  0  0  0
  -27.9404  -29.2406   16.8454 C   0  0  0  0  0  0  0  0  0  0  0  0
  -26.3483  -30.3624   15.2866 C   0  0  0  0  0  0  0  0  0  0  0  0
  -22.8911  -25.0417   17.8575 C   0  0  0  0  0  0  0  0  0  0  0  0
  -28.2358  -18.5851   14.9566 C   0  0  0  0  0  0  0  0  0  0  0  0
  -27.8643  -19.1751   16.3126 C   0  0  0  0  0  0  0  0  0  0  0  0
  -27.6502  -19.3991   13.8104 C   0  0  0  0  0  0  0  0  0  1  0  0
  -28.4132  -18.3381   17.4593 C   0  0  0  0  0  0  0  0  0  0  0  0
  -26.2855  -27.8460   15.5234 C   0  0  1  0  0  0  0  0  0  0  0  0
  -24.0219  -27.1772   18.4896 C   0  0  2  0  0  0  0  0  0  0  0  0
  -27.2086  -29.0968   15.4939 C   0  0  0  0  0  0  0  0  0  0  0  0
  -25.8023  -11.5432   20.2870 N   0  0  0  0  0  0  0  0  0  0  0  0
  -30.3570  -15.2576   22.9095 N   0  0  0  0  0  0  0  0  0  0  0  0
  -26.1982  -12.8187   20.1369 N   0  0  0  0  0  0  0  0  0  0  0  0
  -29.9542  -13.5112   20.3255 N   0  0  0  0  0  0  0  0  0  0  0  0
  -25.8053  -26.4256   13.5547 N   0  0  0  0  0  0  0  0  0  0  0  0
  -25.4695  -15.0614   20.3603 N   0  0  0  0  0  0  0  0  0  0  0  0
  -21.8573  -12.6616   21.6209 N   0  0  0  0  0  0  0  0  0  0  0  0
  -25.9735  -27.1966   10.0751 N   0  0  0  0  0  0  0  0  0  0  0  0
  -25.2596  -27.8848   16.5599 N   0  0  0  0  0  0  0  0  0  0  0  0
  -23.4206  -25.8947   18.9526 N   0  3  0  0  0  0  0  0  0  0  0  0
  -22.6640  -14.7846   21.3034 O   0  0  0  0  0  0  0  0  0  0  0  0
  -31.9173  -14.8043   20.3669 O   0  0  0  0  0  0  0  0  0  0  0  0
  -27.5658  -26.4018   11.5769 O   0  0  0  0  0  0  0  0  0  0  0  0
  -24.7940  -28.5118   13.8033 O   0  0  0  0  0  0  0  0  0  0  0  0
  -25.9022  -25.9291   17.6272 O   0  0  0  0  0  0  0  0  0  0  0  0
  -21.4971   -7.1056   21.8107 O   0  0  0  0  0  0  0  0  0  0  0  0
  -28.1592  -20.7315   13.8531 O   0  0  0  0  0  0  0  0  0  1  0  0
  -28.0463  -18.9471   18.6896 O   0  0  0  0  0  0  0  0  0  0  0  0
  -23.8909   -3.0540   24.6843 F   0  0  0  0  0  0  0  0  0  0  0  0
  -20.4602   -6.2846   24.2383 F   0  0  0  0  0  0  0  0  0  0  0  0
  -28.7887  -17.7858   22.3282 S   0  0  0  0  0  0  0  0  0  0  0  0
  1  2  1  0  0  0  0
  1  5  2  0  0  0  0
  2  6  2  0  0  0  0
  3  8  2  0  0  0  0
  3 16  1  0  0  0  0
  4  9  1  0  0  0  0
  4 16  2  0  0  0  0
  5 18  1  0  0  0  0
  6 20  1  0  0  0  0
  7 10  2  0  0  0  0
  7 19  1  0  0  0  0
  8 22  1  0  0  0  0
  9 22  2  0  0  0  0
 10 23  1  0  0  0  0
 11 12  2  0  0  0  0
 11 24  1  0  0  0  0
 12 26  1  0  0  0  0
 13 21  1  0  0  0  0
 13 23  2  0  0  0  0
 14 25  1  0  0  0  0
 14 29  2  0  0  0  0
 15 26  2  0  0  0  0
 15 27  1  0  0  0  0
 16 28  1  0  0  0  0
 17 28  1  0  0  0  0
 17 31  2  0  0  0  0
 17 32  1  0  0  0  0
 18 20  2  0  0  0  0
 18 38  1  0  0  0  0
 19 21  2  0  0  0  0
 19 39  1  0  0  0  0
 20 47  1  0  0  0  0
 21 40  1  0  0  0  0
 22 78  1  0  0  0  0
 23 79  1  0  0  0  0
 24 27  2  0  0  0  0
 24 78  1  0  0  0  0
 25 30  2  0  0  0  0
 25 80  1  0  0  0  0
 26 81  1  0  0  0  0
 27 82  1  0  0  0  0
 28 63  2  0  0  0  0
 29 33  1  0  0  0  0
 29 83  1  0  0  0  0
 30 50  1  0  0  0  0
 30 83  1  0  0  0  0
 31 65  1  0  0  0  0
 31 68  1  0  0  0  0
 32 69  1  0  0  0  0
 32 73  2  0  0  0  0
 33 34  1  0  0  0  0
 33 64  2  0  0  0  0
 34 66  1  0  0  0  0
 34 74  2  0  0  0  0
 35 48  1  0  0  0  0
 35 70  1  0  0  0  0
 35 75  2  0  0  0  0
 36 60  1  0  0  0  0
 36 67  1  0  0  0  0
 36 76  2  0  0  0  0
 37 61  1  0  0  0  0
 37 71  1  0  0  0  0
 37 77  2  0  0  0  0
 38 41  1  0  0  0  0
 39 48  1  0  0  0  0
 40 67  1  0  0  0  0
 41 43  1  0  0  0  0
 42 44  1  0  0  0  0
 42 45  1  0  0  0  0
 43 47  1  0  0  0  0
 44 49  1  0  0  0  0
 45 66  1  0  0  0  0
 46 49  1  0  0  0  0
 46 66  1  0  0  0  0
 47 70  1  0  0  0  0
 48 67  1  0  0  0  0
 49 65  1  0  0  0  0
 51 61  1  0  0  0  0
 52 62  1  0  0  0  0
 53 62  1  0  0  0  0
 54 62  1  0  0  0  0
 55 72  1  0  0  0  0
 56 57  1  0  0  0  0
 56 58  1  0  0  0  0
 57 59  1  0  0  0  0
 58 79  1  0  0  0  0
 59 80  1  0  0  0  0
 60 62  1  0  0  0  0
 60 71  1  0  0  0  0
 61 72  1  0  0  0  0
 63 65  1  0  0  0  0
M  CHG  1  72   1
M  ISO  4  33 100  34 100  58 101  79 101
M  END
> <Batch ID>
0107

> <Smiles>
CNC(C)C(=O)NC(C(=O)N1Cc2cc([101O:1][101CH2:1]CCCOc3cc([100C:0](=N)[100C:0](=O)N4CCCC(n5nc(-c6ccc(Oc7ccc(F)cc7F)cc6)c(C(N)=O)c5N)C4)sc3C)ccc2CC1C(=O)NC1CCCc2ccccc21)C(C)(C)C

> <Shape>
0.214

> <Color>
0.194

> <Negative vol penalty>
0.000

$$$$

  -OEChem-04052301173D

 88 97  0     1  0  0  0  0  0999 V2000
  -18.1605  -24.4930   23.9123 C   0  0  0  0  0  0  0  0  0  0  0  0
  -19.5372  -24.3510   23.7717 C   0  0  0  0  0  0  0  0  0  0  0  0
  -27.8409  -15.0329   19.4599 C   0  0  0  0  0  0  0  0  0  0  0  0
  -25.9371  -15.7057   20.7866 C   0  0  0  0  0  0  0  0  0  0  0  0
  -17.5423  -25.6861   23.5404 C   0  0  0  0  0  0  0  0  0  0  0  0
  -20.2966  -25.4017   23.2581 C   0  0  0  0  0  0  0  0  0  0  0  0
  -24.5396  -26.2064   25.9027 C   0  0  0  0  0  0  0  0  0  0  0  0
  -27.5318  -13.6933   19.6956 C   0  0  0  0  0  0  0  0  0  0  0  0
  -25.6280  -14.3661   21.0223 C   0  0  0  0  0  0  0  0  0  0  0  0
  -25.6050  -25.3358   25.6774 C   0  0  0  0  0  0  0  0  0  0  0  0
  -24.1397  -11.8257   19.3632 C   0  0  0  0  0  0  0  0  0  0  0  0
  -22.8059  -11.4379   19.2362 C   0  0  0  0  0  0  0  0  0  0  0  0
  -25.6766  -21.6910   22.5670 C   0  0  0  0  0  0  0  0  0  0  0  0
  -26.6321  -26.9752   24.2363 C   0  0  0  0  0  0  0  0  0  0  0  0
  -26.6117  -23.3890   21.1250 C   0  0  0  0  0  0  0  0  0  0  0  0
  -22.7911  -10.7320   21.5468 C   0  0  0  0  0  0  0  0  0  0  0  0
  -27.0436  -16.0391   20.0055 C   0  0  0  0  0  0  0  0  0  0  0  0
  -24.4937  -21.7150   21.8283 C   0  0  0  0  0  0  0  0  0  0  0  0
  -28.5511  -18.0945   20.1072 C   0  0  0  0  0  0  0  0  0  0  0  0
  -18.2958  -26.7555   23.0309 C   0  0  0  0  0  0  0  0  0  0  0  0
  -24.5070  -27.4658   25.2868 C   0  0  0  0  0  0  0  0  0  0  0  0
  -19.6878  -26.6097   22.8777 C   0  0  0  0  0  0  0  0  0  0  0  0
  -25.5663  -27.8609   24.4574 C   0  0  0  0  0  0  0  0  0  0  0  0
  -26.7356  -22.5281   22.2154 C   0  0  0  0  0  0  0  0  0  0  0  0
  -25.4288  -23.4130   20.3862 C   0  0  0  0  0  0  0  0  0  0  0  0
  -24.3698  -22.5760   20.7379 C   0  0  0  0  0  0  0  0  0  0  0  0
  -26.4253  -13.3599   20.4768 C   0  0  0  0  0  0  0  0  0  0  0  0
  -26.6501  -25.7190   24.8419 C   0  0  0  0  0  0  0  0  0  0  0  0
  -24.7993  -11.6666   20.5820 C   0  0  0  0  0  0  0  0  0  0  0  0
  -22.1316  -10.8911   20.3279 C   0  0  0  0  0  0  0  0  0  0  0  0
  -24.1249  -11.1198   21.6738 C   0  0  0  0  0  0  0  0  0  0  0  0
  -27.3627  -17.4231   19.7628 C   0  0  0  0  0  0  0  0  0  0  0  0
  -28.3600  -19.3802   19.6636 C   0  0  0  0  0  0  0  0  0  0  0  0
  -28.4313  -21.3626   23.6401 C   0  0  0  0  0  0  0  0  0  0  0  0
  -22.8093  -20.8868   23.4069 C   0  0  0  0  0  0  0  0  0  0  0  0
  -23.4103  -20.8247   22.2291 C   0  0  0  0  0  0  0  0  0  0  0  0
  -29.7231  -17.6000   20.7687 C   0  0  0  0  0  0  0  0  0  0  0  0
  -22.5635  -28.9040   23.2233 C   0  0  0  0  0  0  0  0  0  0  0  0
  -24.4606  -31.4665   23.8206 C   0  0  0  0  0  0  0  0  0  0  0  0
  -27.4921  -32.6501   24.8484 C   0  0  0  0  0  0  0  0  0  0  0  0
  -23.0931  -22.3115   18.5951 C   0  0  0  0  0  0  0  0  0  0  0  0
  -17.5770  -28.0088   22.5982 C   0  0  0  0  0  0  0  0  0  0  0  0
  -23.3637  -28.4038   25.5612 C   0  0  0  0  0  0  0  0  0  0  0  0
  -25.5889  -29.2101   23.7884 C   0  0  0  0  0  0  0  0  0  0  0  0
  -29.8457  -21.6563   24.0693 C   0  0  0  0  0  0  0  0  0  0  0  0
  -18.5024  -29.2085   22.4128 C   0  0  0  0  0  0  0  0  0  0  0  0
  -29.9203  -23.1682   24.0563 C   0  0  0  0  0  0  0  0  0  0  0  0
  -26.0156  -21.9173   16.3598 C   0  0  0  0  0  0  0  0  0  0  0  0
  -19.7387  -28.8104   21.6128 C   0  0  0  0  0  0  0  0  0  0  0  0
  -26.7466  -20.7203   16.9649 C   0  0  0  0  0  0  0  0  0  0  0  0
  -24.5139  -21.8555   16.6219 C   0  0  0  0  0  0  0  0  0  0  0  0
  -24.8989  -20.5244   18.6765 C   0  0  0  0  0  0  0  0  0  0  0  0
  -20.5488  -27.7356   22.3476 C   0  0  1  0  0  0  0  0  0  0  0  0
  -23.1828  -29.4593   24.4746 C   0  0  1  0  0  0  0  0  0  0  0  0
  -26.4186  -20.5841   18.4610 C   0  0  1  0  0  0  0  0  0  0  0  0
  -28.9151  -23.5941   22.9857 C   0  0  2  0  0  0  0  0  0  0  0  0
  -28.7571  -34.7896   25.1942 C   0  0  0  0  0  0  0  0  0  0  0  0
  -24.8660  -31.7112   20.8064 C   0  0  0  0  0  0  0  0  0  0  0  0
  -26.8266  -33.2003   21.2611 C   0  0  0  0  0  0  0  0  0  0  0  0
  -24.5439  -33.8875   21.9957 C   0  0  0  0  0  0  0  0  0  0  0  0
  -21.9710  -23.2183   20.5827 C   0  0  0  0  0  0  0  0  0  0  0  0
  -27.8209  -32.1236   27.7421 C   0  0  0  0  0  0  0  0  0  0  0  0
  -28.3478  -24.9657   23.3565 C   0  0  0  0  0  0  0  0  0  1  0  0
  -25.7300  -32.0201   23.2197 C   0  0  1  0  0  0  0  0  0  0  0  0
  -27.8654  -33.7392   25.8378 C   0  0  2  0  0  0  0  0  0  0  0  0
  -25.4905  -32.6785   21.8316 C   0  0  0  0  0  0  0  0  0  0  0  0
  -26.4816  -18.2168   19.1481 N   0  0  0  0  0  0  0  0  0  0  0  0
  -27.1170  -19.4002   19.1027 N   0  0  0  0  0  0  0  0  0  0  0  0
  -27.9454  -22.5039   22.9713 N   0  0  0  0  0  0  0  0  0  0  0  0
  -24.4453  -30.0893   24.0829 N   0  0  0  0  0  0  0  0  0  0  0  0
  -24.2182  -21.6655   18.0428 N   0  0  0  0  0  0  0  0  0  0  0  0
  -25.3270  -24.2951   19.2869 N   0  0  0  0  0  0  0  0  0  0  0  0
  -29.1356  -20.4844   19.7026 N   0  0  0  0  0  0  0  0  0  0  0  0
  -29.7820  -17.6731   22.1671 N   0  0  0  0  0  0  0  0  0  0  0  0
  -21.3221  -28.3289   23.4174 N   0  0  0  0  0  0  0  0  0  0  0  0
  -26.2957  -32.9205   24.2185 N   0  0  0  0  0  0  0  0  0  0  0  0
  -23.1487  -22.6070   19.9706 N   0  0  0  0  0  0  0  0  0  0  0  0
  -28.5911  -33.1555   27.0012 N   0  3  0  0  0  0  0  0  0  0  0  0
  -27.9111  -20.2662   23.7936 O   0  0  0  0  0  0  0  0  0  0  0  0
  -30.6965  -17.1230   20.1374 O   0  0  0  0  0  0  0  0  0  0  0  0
  -23.1665  -28.9923   22.1602 O   0  0  0  0  0  0  0  0  0  0  0  0
  -23.5200  -32.2292   24.0555 O   0  0  0  0  0  0  0  0  0  0  0  0
  -28.1936  -31.6605   24.6511 O   0  0  0  0  0  0  0  0  0  0  0  0
  -22.0846  -22.5586   17.9225 O   0  0  0  0  0  0  0  0  0  0  0  0
  -26.1233  -12.0528   20.7068 O   0  0  0  0  0  0  0  0  0  0  0  0
  -27.6909  -24.8709   24.6198 O   0  0  0  0  0  0  0  0  0  1  0  0
  -20.8503  -10.5202   20.2062 F   0  0  0  0  0  0  0  0  0  0  0  0
  -24.7529  -10.9656   22.8475 F   0  0  0  0  0  0  0  0  0  0  0  0
  1  2  1  0  0  0  0
  1  5  2  0  0  0  0
  2  6  2  0  0  0  0
  3  8  2  0  0  0  0
  3 17  1  0  0  0  0
  4  9  1  0  0  0  0
  4 17  2  0  0  0  0
  5 20  1  0  0  0  0
  6 22  1  0  0  0  0
  7 10  2  0  0  0  0
  7 21  1  0  0  0  0
  8 27  1  0  0  0  0
  9 27  2  0  0  0  0
 10 28  1  0  0  0  0
 11 12  2  0  0  0  0
 11 29  1  0  0  0  0
 12 30  1  0  0  0  0
 13 18  1  0  0  0  0
 13 24  2  0  0  0  0
 14 23  1  0  0  0  0
 14 28  2  0  0  0  0
 15 24  1  0  0  0  0
 15 25  2  0  0  0  0
 16 30  2  0  0  0  0
 16 31  1  0  0  0  0
 17 32  1  0  0  0  0
 18 26  2  0  0  0  0
 18 36  1  0  0  0  0
 19 32  1  0  0  0  0
 19 33  2  0  0  0  0
 19 37  1  0  0  0  0
 20 22  2  0  0  0  0
 20 42  1  0  0  0  0
 21 23  2  0  0  0  0
 21 43  1  0  0  0  0
 22 53  1  0  0  0  0
 23 44  1  0  0  0  0
 24 69  1  0  0  0  0
 25 26  1  0  0  0  0
 25 72  1  0  0  0  0
 26 77  1  0  0  0  0
 27 85  1  0  0  0  0
 28 86  1  0  0  0  0
 29 31  2  0  0  0  0
 29 85  1  0  0  0  0
 30 87  1  0  0  0  0
 31 88  1  0  0  0  0
 32 67  2  0  0  0  0
 33 68  1  0  0  0  0
 33 73  1  0  0  0  0
 34 45  1  0  0  0  0
 34 69  1  0  0  0  0
 34 79  2  0  0  0  0
 35 36  2  0  0  0  0
 37 74  1  0  0  0  0
 37 80  2  0  0  0  0
 38 54  1  0  0  0  0
 38 75  1  0  0  0  0
 38 81  2  0  0  0  0
 39 64  1  0  0  0  0
 39 70  1  0  0  0  0
 39 82  2  0  0  0  0
 40 65  1  0  0  0  0
 40 76  1  0  0  0  0
 40 83  2  0  0  0  0
 41 71  1  0  0  0  0
 41 77  1  0  0  0  0
 41 84  2  0  0  0  0
 42 46  1  0  0  0  0
 43 54  1  0  0  0  0
 44 70  1  0  0  0  0
 45 47  1  0  0  0  0
 46 49  1  0  0  0  0
 47 56  1  0  0  0  0
 48 50  1  0  0  0  0
 48 51  1  0  0  0  0
 49 53  1  0  0  0  0
 50 55  1  0  0  0  0
 51 71  1  0  0  0  0
 52 55  1  0  0  0  0
 52 71  1  0  0  0  0
 53 75  1  0  0  0  0
 54 70  1  0  0  0  0
 55 68  1  0  0  0  0
 56 63  1  0  0  0  0
 56 69  1  0  0  0  0
 57 65  1  0  0  0  0
 58 66  1  0  0  0  0
 59 66  1  0  0  0  0
 60 66  1  0  0  0  0
 61 77  1  0  0  0  0
 62 78  1  0  0  0  0
 63 86  1  0  0  0  0
 64 66  1  0  0  0  0
 64 76  1  0  0  0  0
 65 78  1  0  0  0  0
 67 68  1  0  0  0  0
M  CHG  1  78   1
M  ISO  4  41 100  63 101  77 100  86 101
M  END
> <Batch ID>
0107

> <Smiles>
C=Cc1cc(N2C(=O)CCC2[101CH2:1][101O:1]c2ccc3c(c2)CN(C(=O)C(NC(=O)C(C)NC)C(C)(C)C)C(C(=O)NC2CCCc4ccccc42)C3)cc(N)c1[100N:0](C)[100C:0](=O)N1CCCC(n2nc(-c3ccc(Oc4ccc(F)cc4F)cc3)c(C(N)=O)c2N)C1

> <Shape>
0.225

> <Color>
0.089

> <Negative vol penalty>
0.000

$$$$

  -OEChem-04052301173D

 85 93  0     1  0  0  0  0  0999 V2000
  -23.9684  -22.0908   20.4591 C   0  0  0  0  0  0  0  0  0  0  0  0
  -24.9117  -21.4018   19.7034 C   0  0  0  0  0  0  0  0  0  0  0  0
  -26.4531  -28.2670   18.8211 C   0  0  0  0  0  0  0  0  0  0  0  0
  -26.6260  -28.2883   21.2308 C   0  0  0  0  0  0  0  0  0  0  0  0
  -23.4628  -21.5224   21.6275 C   0  0  0  0  0  0  0  0  0  0  0  0
  -25.3508  -20.1445   20.1165 C   0  0  0  0  0  0  0  0  0  0  0  0
  -27.5781  -13.8660   17.4828 C   0  0  0  0  0  0  0  0  0  0  0  0
  -29.4215  -16.4531   22.6887 C   0  0  0  0  0  0  0  0  0  0  0  0
  -29.6297  -15.1205   22.3334 C   0  0  0  0  0  0  0  0  0  0  0  0
  -25.2834  -29.0228   18.8983 C   0  0  0  0  0  0  0  0  0  0  0  0
  -25.4562  -29.0442   21.3081 C   0  0  0  0  0  0  0  0  0  0  0  0
  -28.6360  -12.9650   17.5957 C   0  0  0  0  0  0  0  0  0  0  0  0
  -22.1246  -28.5064   21.1035 C   0  0  0  0  0  0  0  0  0  0  0  0
  -21.1712  -28.1302   22.0496 C   0  0  0  0  0  0  0  0  0  0  0  0
  -27.6341  -12.0475   19.5890 C   0  0  0  0  0  0  0  0  0  0  0  0
  -31.8168  -15.6898   21.4794 C   0  0  0  0  0  0  0  0  0  0  0  0
  -21.3641  -30.2951   23.1047 C   0  0  0  0  0  0  0  0  0  0  0  0
  -27.1244  -27.8997   19.9874 C   0  0  0  0  0  0  0  0  0  0  0  0
  -29.6516  -27.6004   19.8097 C   0  0  0  0  0  0  0  0  0  0  0  0
  -23.8889  -20.2532   22.0499 C   0  0  0  0  0  0  0  0  0  0  0  0
  -26.5440  -13.8718   18.4299 C   0  0  0  0  0  0  0  0  0  0  0  0
  -24.8515  -19.5591   21.2924 C   0  0  0  0  0  0  0  0  0  0  0  0
  -26.5628  -12.9478   19.4844 C   0  0  0  0  0  0  0  0  0  0  0  0
  -30.4110  -17.4042   22.4393 C   0  0  0  0  0  0  0  0  0  0  0  0
  -31.6087  -17.0225   21.8346 C   0  0  0  0  0  0  0  0  0  0  0  0
  -30.8273  -14.7388   21.7288 C   0  0  0  0  0  0  0  0  0  0  0  0
  -24.7849  -29.4114   20.1418 C   0  0  0  0  0  0  0  0  0  0  0  0
  -28.6657  -12.0576   18.6505 C   0  0  0  0  0  0  0  0  0  0  0  0
  -22.6978  -29.7769   21.1580 C   0  0  0  0  0  0  0  0  0  0  0  0
  -20.7910  -29.0246   23.0502 C   0  0  0  0  0  0  0  0  0  0  0  0
  -22.3176  -30.6712   22.1586 C   0  0  0  0  0  0  0  0  0  0  0  0
  -28.3326  -27.1185   19.9083 C   0  0  0  0  0  0  0  0  0  0  0  0
  -30.4282  -26.4684   19.7648 C   0  0  0  0  0  0  0  0  0  0  0  0
  -30.1319  -28.9505   19.7628 C   0  0  0  0  0  0  0  0  0  0  0  0
  -25.4256  -15.9923   20.5170 C   0  0  0  0  0  0  0  0  0  0  0  0
  -23.1352  -13.7431   20.9837 C   0  0  0  0  0  0  0  0  0  0  0  0
  -32.1656  -12.8360   20.7640 C   0  0  0  0  0  0  0  0  0  0  0  0
  -22.2190  -10.4605   20.8045 C   0  0  0  0  0  0  0  0  0  0  0  0
  -29.5416  -21.0059   21.8216 C   0  0  0  0  0  0  0  0  0  0  0  0
  -23.3490  -19.7001   23.3450 C   0  0  0  0  0  0  0  0  0  0  0  0
  -25.3962  -14.8321   18.2789 C   0  0  0  0  0  0  0  0  0  0  0  0
  -25.4666  -12.8996   20.5162 C   0  0  0  0  0  0  0  0  0  0  0  0
  -23.5880  -18.2019   23.5141 C   0  0  0  0  0  0  0  0  0  0  0  0
  -30.2918  -21.8853   18.3922 C   0  0  0  0  0  0  0  0  0  0  0  0
  -25.0287  -17.8478   23.1593 C   0  0  0  0  0  0  0  0  0  0  0  0
  -29.9952  -23.3861   18.3911 C   0  0  0  0  0  0  0  0  0  0  0  0
  -29.2996  -21.1263   19.2683 C   0  0  0  0  0  0  0  0  0  0  0  0
  -28.9232  -23.1144   20.6752 C   0  0  0  0  0  0  0  0  0  0  0  0
  -25.3343  -18.1824   21.6944 C   0  0  1  0  0  0  0  0  0  0  0  0
  -24.6591  -15.0929   19.5889 C   0  0  1  0  0  0  0  0  0  0  0  0
  -29.9057  -23.9405   19.8253 C   0  0  2  0  0  0  0  0  0  0  0  0
  -32.6830  -18.0229   21.5598 C   0  0  0  0  0  0  0  0  0  0  0  0
  -20.2970   -8.9224   21.2918 C   0  0  0  0  0  0  0  0  0  0  0  0
  -23.7833  -13.8809   23.9621 C   0  0  0  0  0  0  0  0  0  0  0  0
  -22.5606  -11.7161   24.2571 C   0  0  0  0  0  0  0  0  0  0  0  0
  -21.3440  -13.7311   23.4311 C   0  0  0  0  0  0  0  0  0  0  0  0
  -21.9887   -9.6600   17.9646 C   0  0  0  0  0  0  0  0  0  0  0  0
  -30.1650  -18.8251   22.8278 C   0  0  0  0  0  0  0  0  0  0  0  0
  -31.9804  -11.3397   20.5529 C   0  0  0  0  0  0  0  0  0  0  0  0
  -32.0633  -10.9390   19.0841 C   0  0  0  0  0  0  0  0  0  0  0  0
  -30.9655  -11.5952   18.2595 C   0  0  0  0  0  0  0  0  0  1  0  0
  -22.9755  -12.5540   21.8998 C   0  0  1  0  0  0  0  0  0  0  0  0
  -20.9772   -9.7905   20.2447 C   0  0  2  0  0  0  0  0  0  0  0  0
  -22.6877  -12.9724   23.3693 C   0  0  0  0  0  0  0  0  0  0  0  0
  -28.2709  -25.7843   19.9251 N   0  0  0  0  0  0  0  0  0  0  0  0
  -29.5609  -25.4182   19.8362 N   0  0  0  0  0  0  0  0  0  0  0  0
  -24.3692  -13.8630   20.3289 N   0  0  0  0  0  0  0  0  0  0  0  0
  -29.2763  -21.6918   20.6247 N   0  0  0  0  0  0  0  0  0  0  0  0
  -31.7616  -26.2789   19.6716 N   0  0  0  0  0  0  0  0  0  0  0  0
  -29.1981  -29.9942   19.8198 N   0  0  0  0  0  0  0  0  0  0  0  0
  -31.0398  -13.3864   21.3699 N   0  0  0  0  0  0  0  0  0  0  0  0
  -24.7763  -17.1742   20.8187 N   0  0  0  0  0  0  0  0  0  0  0  0
  -21.9411  -11.7154   21.3038 N   0  0  0  0  0  0  0  0  0  0  0  0
  -29.8614  -19.6604   21.6872 N   0  0  0  0  0  0  0  0  0  0  0  0
  -21.3328   -8.9308   19.0804 N   0  3  0  0  0  0  0  0  0  0  0  0
  -31.3517  -29.2231   19.6566 O   0  0  0  0  0  0  0  0  0  0  0  0
  -26.5240  -15.6394   20.9301 O   0  0  0  0  0  0  0  0  0  0  0  0
  -22.1970  -14.5325   20.8482 O   0  0  0  0  0  0  0  0  0  0  0  0
  -33.1897  -13.4196   20.4248 O   0  0  0  0  0  0  0  0  0  0  0  0
  -23.3242   -9.9229   20.8027 O   0  0  0  0  0  0  0  0  0  0  0  0
  -29.5018  -21.5537   22.9287 O   0  0  0  0  0  0  0  0  0  0  0  0
  -23.6436  -30.1492   20.2175 O   0  0  0  0  0  0  0  0  0  0  0  0
  -29.6975  -11.1775   18.7635 O   0  0  0  0  0  0  0  0  0  1  0  0
  -19.8743  -28.6637   23.9578 F   0  0  0  0  0  0  0  0  0  0  0  0
  -22.8639  -31.8936   22.2154 F   0  0  0  0  0  0  0  0  0  0  0  0
  1  2  1  0  0  0  0
  1  5  2  0  0  0  0
  2  6  2  0  0  0  0
  3 10  2  0  0  0  0
  3 18  1  0  0  0  0
  4 11  1  0  0  0  0
  4 18  2  0  0  0  0
  5 20  1  0  0  0  0
  6 22  1  0  0  0  0
  7 12  2  0  0  0  0
  7 21  1  0  0  0  0
  8  9  2  0  0  0  0
  8 24  1  0  0  0  0
  9 26  1  0  0  0  0
 10 27  1  0  0  0  0
 11 27  2  0  0  0  0
 12 28  1  0  0  0  0
 13 14  2  0  0  0  0
 13 29  1  0  0  0  0
 14 30  1  0  0  0  0
 15 23  1  0  0  0  0
 15 28  2  0  0  0  0
 16 25  1  0  0  0  0
 16 26  2  0  0  0  0
 17 30  2  0  0  0  0
 17 31  1  0  0  0  0
 18 32  1  0  0  0  0
 19 32  1  0  0  0  0
 19 33  2  0  0  0  0
 19 34  1  0  0  0  0
 20 22  2  0  0  0  0
 20 40  1  0  0  0  0
 21 23  2  0  0  0  0
 21 41  1  0  0  0  0
 22 49  1  0  0  0  0
 23 42  1  0  0  0  0
 24 25  2  0  0  0  0
 24 58  1  0  0  0  0
 25 52  1  0  0  0  0
 26 71  1  0  0  0  0
 27 82  1  0  0  0  0
 28 83  1  0  0  0  0
 29 31  2  0  0  0  0
 29 82  1  0  0  0  0
 30 84  1  0  0  0  0
 31 85  1  0  0  0  0
 32 65  2  0  0  0  0
 33 66  1  0  0  0  0
 33 69  1  0  0  0  0
 34 70  1  0  0  0  0
 34 76  2  0  0  0  0
 35 50  1  0  0  0  0
 35 72  1  0  0  0  0
 35 77  2  0  0  0  0
 36 62  1  0  0  0  0
 36 67  1  0  0  0  0
 36 78  2  0  0  0  0
 37 59  1  0  0  0  0
 37 71  1  0  0  0  0
 37 79  2  0  0  0  0
 38 63  1  0  0  0  0
 38 73  1  0  0  0  0
 38 80  2  0  0  0  0
 39 68  1  0  0  0  0
 39 74  1  0  0  0  0
 39 81  2  0  0  0  0
 40 43  1  0  0  0  0
 41 50  1  0  0  0  0
 42 67  1  0  0  0  0
 43 45  1  0  0  0  0
 44 46  1  0  0  0  0
 44 47  1  0  0  0  0
 45 49  1  0  0  0  0
 46 51  1  0  0  0  0
 47 68  1  0  0  0  0
 48 51  1  0  0  0  0
 48 68  1  0  0  0  0
 49 72  1  0  0  0  0
 50 67  1  0  0  0  0
 51 66  1  0  0  0  0
 53 63  1  0  0  0  0
 54 64  1  0  0  0  0
 55 64  1  0  0  0  0
 56 64  1  0  0  0  0
 57 75  1  0  0  0  0
 58 74  1  0  0  0  0
 59 60  1  0  0  0  0
 60 61  1  0  0  0  0
 61 83  1  0  0  0  0
 62 64  1  0  0  0  0
 62 73  1  0  0  0  0
 63 75  1  0  0  0  0
 65 66  1  0  0  0  0
M  CHG  1  75   1
M  ISO  4  39 100  61 101  74 100  83 101
M  END
> <Batch ID>
0107

> <Smiles>
CNC(C)C(=O)NC(C(=O)N1Cc2cc([101O:1][101CH2:1]CCC(=O)Nc3ccc(C[100NH:0][100C:0](=O)N4CCCC(n5nc(-c6ccc(Oc7ccc(F)cc7F)cc6)c(C(N)=O)c5N)C4)c(C)c3)ccc2CC1C(=O)NC1CCCc2ccccc21)C(C)(C)C

> <Shape>
0.313

> <Color>
0.052

> <Negative vol penalty>
0.000

$$$$

  -OEChem-04052301173D

 86 95  0     1  0  0  0  0  0999 V2000
  -19.9496  -35.3066   18.3148 C   0  0  0  0  0  0  0  0  0  0  0  0
  -21.2047  -34.8220   17.9609 C   0  0  0  0  0  0  0  0  0  0  0  0
  -24.5608   -9.7221   21.5181 C   0  0  0  0  0  0  0  0  0  0  0  0
  -24.8702  -10.8607   23.6264 C   0  0  0  0  0  0  0  0  0  0  0  0
  -19.3320  -34.8541   19.4800 C   0  0  0  0  0  0  0  0  0  0  0  0
  -21.8436  -33.8854   18.7727 C   0  0  0  0  0  0  0  0  0  0  0  0
  -26.2748  -28.2695   18.3958 C   0  0  0  0  0  0  0  0  0  0  0  0
  -24.2866   -8.5360   22.1989 C   0  0  0  0  0  0  0  0  0  0  0  0
  -24.5960   -9.6746   24.3072 C   0  0  0  0  0  0  0  0  0  0  0  0
  -27.4697  -27.8018   18.9411 C   0  0  0  0  0  0  0  0  0  0  0  0
  -21.6747   -7.1538   23.8421 C   0  0  0  0  0  0  0  0  0  0  0  0
  -20.5852   -6.3965   23.4120 C   0  0  0  0  0  0  0  0  0  0  0  0
  -26.2726  -27.0330   20.8892 C   0  0  0  0  0  0  0  0  0  0  0  0
  -22.0579   -4.5358   22.9577 C   0  0  0  0  0  0  0  0  0  0  0  0
  -24.8527  -10.8845   22.2318 C   0  0  0  0  0  0  0  0  0  0  0  0
  -24.2134  -13.0959   21.1324 C   0  0  0  0  0  0  0  0  0  0  0  0
  -19.9594  -33.9042   20.3015 C   0  0  0  0  0  0  0  0  0  0  0  0
  -25.0695  -28.1320   19.0991 C   0  0  0  0  0  0  0  0  0  0  0  0
  -21.2344  -33.4208   19.9507 C   0  0  0  0  0  0  0  0  0  0  0  0
  -25.0634  -27.4975   20.3495 C   0  0  0  0  0  0  0  0  0  0  0  0
  -27.6662  -21.6977   20.7040 C   0  0  0  0  0  0  0  0  0  0  0  0
  -27.3256  -20.3358   20.9474 C   0  0  0  0  0  0  0  0  0  0  0  0
  -24.3041   -8.5122   23.5934 C   0  0  0  0  0  0  0  0  0  0  0  0
  -27.4691  -27.1861   20.1893 C   0  0  0  0  0  0  0  0  0  0  0  0
  -22.9558   -6.6022   23.8300 C   0  0  0  0  0  0  0  0  0  0  0  0
  -20.7768   -5.0875   22.9698 C   0  0  0  0  0  0  0  0  0  0  0  0
  -23.1474   -5.2932   23.3878 C   0  0  0  0  0  0  0  0  0  0  0  0
  -25.1366  -12.1099   21.5291 C   0  0  0  0  0  0  0  0  0  0  0  0
  -28.9289  -21.8276   20.1688 C   0  0  0  0  0  0  0  0  0  0  0  0
  -24.9777  -14.0498   20.5060 C   0  0  0  0  0  0  0  0  0  0  0  0
  -28.3409  -19.4765   20.5888 C   0  0  0  0  0  0  0  0  0  0  0  0
  -31.8210  -25.4149   20.6334 C   0  0  0  0  0  0  0  0  0  0  0  0
  -30.4985  -25.2450   20.4562 C   0  0  0  0  0  0  0  0  0  0  0  0
  -22.7920  -13.1451   21.3139 C   0  0  0  0  0  0  0  0  0  0  0  0
  -22.9246  -30.1526   20.2907 C   0  0  0  0  0  0  0  0  0  0  0  0
  -21.2823  -27.4271   20.9207 C   0  0  0  0  0  0  0  0  0  0  0  0
  -21.3592  -24.0603   21.4731 C   0  0  0  0  0  0  0  0  0  0  0  0
  -29.5134  -17.2704   20.2647 C   0  0  0  0  0  0  0  0  0  0  0  0
  -19.2733  -33.4804   21.5759 C   0  0  0  0  0  0  0  0  0  0  0  0
  -23.7851  -28.6178   18.4853 C   0  0  0  0  0  0  0  0  0  0  0  0
  -23.7932  -27.3071   21.1360 C   0  0  0  0  0  0  0  0  0  0  0  0
  -32.7307  -24.4579   21.3411 C   0  0  0  0  0  0  0  0  0  0  0  0
  -19.8538  -32.2071   22.1858 C   0  0  0  0  0  0  0  0  0  0  0  0
  -32.0371  -23.1759   21.7857 C   0  0  0  0  0  0  0  0  0  0  0  0
  -29.8184  -13.9448   19.0300 C   0  0  0  0  0  0  0  0  0  0  0  0
  -21.3775  -32.2740   22.2113 C   0  0  0  0  0  0  0  0  0  0  0  0
  -28.5516  -13.2521   19.5375 C   0  0  0  0  0  0  0  0  0  0  0  0
  -30.3637  -14.9456   20.0472 C   0  0  0  0  0  0  0  0  0  0  0  0
  -28.1253  -15.2454   21.0315 C   0  0  0  0  0  0  0  0  0  0  0  0
  -30.5722  -23.4221   22.1083 C   0  0  0  0  0  0  0  0  0  0  0  0
  -21.9486  -32.3857   20.7926 C   0  0  1  0  0  0  0  0  0  0  0  0
  -22.6936  -28.8856   19.5169 C   0  0  1  0  0  0  0  0  0  0  0  0
  -27.5023  -14.2753   20.0144 C   0  0  2  0  0  0  0  0  0  0  0  0
  -26.7664  -22.8426   20.9904 C   0  0  0  0  0  0  0  0  0  0  0  0
  -26.0281  -19.8931   21.5168 C   0  0  0  0  0  0  0  0  0  0  0  0
  -19.8626  -22.1154   21.9975 C   0  0  0  0  0  0  0  0  0  0  0  0
  -21.0798  -28.3668   23.8165 C   0  0  0  0  0  0  0  0  0  0  0  0
  -20.4501  -26.0300   24.4576 C   0  0  0  0  0  0  0  0  0  0  0  0
  -18.9926  -27.3318   22.9073 C   0  0  0  0  0  0  0  0  0  0  0  0
  -22.0918  -22.6711   18.9646 C   0  0  0  0  0  0  0  0  0  0  0  0
  -29.6600  -23.0760   19.7716 C   0  0  0  0  0  0  0  0  0  0  0  0
  -29.6421  -26.2964   19.8115 C   0  0  0  0  0  0  0  0  0  1  0  0
  -21.2173  -26.4617   22.0794 C   0  0  1  0  0  0  0  0  0  0  0  0
  -20.5307  -22.9259   20.8977 C   0  0  2  0  0  0  0  0  0  0  0  0
  -20.4593  -27.0527   23.3015 C   0  0  0  0  0  0  0  0  0  0  0  0
  -26.3915  -12.4097   21.1836 N   0  0  0  0  0  0  0  0  0  0  0  0
  -26.2622  -13.5948   20.5631 N   0  0  0  0  0  0  0  0  0  0  0  0
  -22.5641  -27.8047   20.4962 N   0  0  0  0  0  0  0  0  0  0  0  0
  -29.3154  -15.8857   20.4498 N   0  0  0  0  0  0  0  0  0  0  0  0
  -24.6696  -15.2249   19.9174 N   0  0  0  0  0  0  0  0  0  0  0  0
  -22.1662  -12.0819   21.9790 N   0  0  0  0  0  0  0  0  0  0  0  0
  -28.4351  -18.0642   20.6544 N   0  0  0  0  0  0  0  0  0  0  0  0
  -21.9269  -31.0962   20.1360 N   0  0  0  0  0  0  0  0  0  0  0  0
  -20.6358  -25.2314   21.5535 N   0  0  0  0  0  0  0  0  0  0  0  0
  -29.8643  -24.0310   20.9191 N   0  3  2  0  0  0  0  0  0  0  0  0
  -21.3913  -22.0107   20.0961 N   0  3  0  0  0  0  0  0  0  0  0  0
  -22.0953  -14.0956   20.8841 O   0  0  0  0  0  0  0  0  0  0  0  0
  -23.9325  -30.2653   20.9785 O   0  0  0  0  0  0  0  0  0  0  0  0
  -20.2344  -27.8259   20.4063 O   0  0  0  0  0  0  0  0  0  0  0  0
  -22.5299  -23.9205   21.8203 O   0  0  0  0  0  0  0  0  0  0  0  0
  -30.5515  -17.7171   19.7700 O   0  0  0  0  0  0  0  0  0  0  0  0
  -24.0364   -7.3550   24.2581 O   0  0  0  0  0  0  0  0  0  0  0  0
  -28.6341  -26.7292   20.7242 O   0  0  0  0  0  0  0  0  0  1  0  0
  -19.7302   -4.3598   22.5582 F   0  0  0  0  0  0  0  0  0  0  0  0
  -24.3757   -4.7574   23.3749 F   0  0  0  0  0  0  0  0  0  0  0  0
  -29.6980  -20.3117   19.9619 S   0  0  0  0  0  0  0  0  0  0  0  0
  1  2  1  0  0  0  0
  1  5  2  0  0  0  0
  2  6  2  0  0  0  0
  3  8  2  0  0  0  0
  3 15  1  0  0  0  0
  4  9  1  0  0  0  0
  4 15  2  0  0  0  0
  5 17  1  0  0  0  0
  6 19  1  0  0  0  0
  7 10  2  0  0  0  0
  7 18  1  0  0  0  0
  8 23  1  0  0  0  0
  9 23  2  0  0  0  0
 10 24  1  0  0  0  0
 11 12  2  0  0  0  0
 11 25  1  0  0  0  0
 12 26  1  0  0  0  0
 13 20  1  0  0  0  0
 13 24  2  0  0  0  0
 14 26  2  0  0  0  0
 14 27  1  0  0  0  0
 15 28  1  0  0  0  0
 16 28  1  0  0  0  0
 16 30  2  0  0  0  0
 16 34  1  0  0  0  0
 17 19  2  0  0  0  0
 17 39  1  0  0  0  0
 18 20  2  0  0  0  0
 18 40  1  0  0  0  0
 19 51  1  0  0  0  0
 20 41  1  0  0  0  0
 21 22  1  0  0  0  0
 21 29  2  0  0  0  0
 21 54  1  0  0  0  0
 22 31  2  0  0  0  0
 22 55  1  0  0  0  0
 23 82  1  0  0  0  0
 24 83  1  0  0  0  0
 25 27  2  0  0  0  0
 25 82  1  0  0  0  0
 26 84  1  0  0  0  0
 27 85  1  0  0  0  0
 28 66  2  0  0  0  0
 29 61  1  0  0  0  0
 29 86  1  0  0  0  0
 30 67  1  0  0  0  0
 30 70  1  0  0  0  0
 31 72  1  0  0  0  0
 31 86  1  0  0  0  0
 32 33  2  0  0  0  0
 32 42  1  0  0  0  0
 33 62  1  0  0  0  0
 33 75  1  0  0  0  0
 34 71  1  0  0  0  0
 34 77  2  0  0  0  0
 35 52  1  0  0  0  0
 35 73  1  0  0  0  0
 35 78  2  0  0  0  0
 36 63  1  0  0  0  0
 36 68  1  0  0  0  0
 36 79  2  0  0  0  0
 37 64  1  0  0  0  0
 37 74  1  0  0  0  0
 37 80  2  0  0  0  0
 38 69  1  0  0  0  0
 38 72  1  0  0  0  0
 38 81  2  0  0  0  0
 39 43  1  0  0  0  0
 40 52  1  0  0  0  0
 41 68  1  0  0  0  0
 42 44  1  0  0  0  0
 43 46  1  0  0  0  0
 44 50  1  0  0  0  0
 45 47  1  0  0  0  0
 45 48  1  0  0  0  0
 46 51  1  0  0  0  0
 47 53  1  0  0  0  0
 48 69  1  0  0  0  0
 49 53  1  0  0  0  0
 49 69  1  0  0  0  0
 50 75  1  0  0  0  0
 51 73  1  0  0  0  0
 52 68  1  0  0  0  0
 53 67  1  0  0  0  0
 56 64  1  0  0  0  0
 57 65  1  0  0  0  0
 58 65  1  0  0  0  0
 59 65  1  0  0  0  0
 60 76  1  0  0  0  0
 61 75  1  0  0  0  0
 62 83  1  0  0  0  0
 63 65  1  0  0  0  0
 63 74  1  0  0  0  0
 64 76  1  0  0  0  0
 66 67  1  0  0  0  0
M  CHG  2  75   1  76   1
M  ISO  4  38 100  62 101  72 100  83 101
M  END
> <Batch ID>
0107

> <Smiles>
CNC(C)C(=O)NC(C(=O)N1Cc2cc([101O:1][101CH2:1]C3=CCCCN3Cc3sc([100NH:0][100C:0](=O)N4CCCC(n5nc(-c6ccc(Oc7ccc(F)cc7F)cc6)c(C(N)=O)c5N)C4)c(C)c3C)ccc2CC1C(=O)NC1CCCc2ccccc21)C(C)(C)C

> <Shape>
0.290

> <Color>
0.116

> <Negative vol penalty>
0.000

$$$$

  -OEChem-04052301173D

 88 96  0     1  0  0  0  0  0999 V2000
  -32.8363  -25.1008   18.0238 C   0  0  0  0  0  0  0  0  0  0  0  0
  -31.6120  -24.6984   18.5479 C   0  0  0  0  0  0  0  0  0  0  0  0
  -28.7883  -19.4155   24.0232 C   0  0  0  0  0  0  0  0  0  0  0  0
  -31.1121  -18.8619   23.6616 C   0  0  0  0  0  0  0  0  0  0  0  0
  -33.4728  -26.2323   18.5321 C   0  0  0  0  0  0  0  0  0  0  0  0
  -31.0240  -25.4267   19.5814 C   0  0  0  0  0  0  0  0  0  0  0  0
  -26.0756  -26.2053   18.8386 C   0  0  0  0  0  0  0  0  0  0  0  0
  -29.1129  -19.9694   25.2615 C   0  0  0  0  0  0  0  0  0  0  0  0
  -31.4367  -19.4159   24.8999 C   0  0  0  0  0  0  0  0  0  0  0  0
  -25.2160  -25.1415   19.1091 C   0  0  0  0  0  0  0  0  0  0  0  0
  -30.4464  -22.8486   26.4297 C   0  0  0  0  0  0  0  0  0  0  0  0
  -29.8847  -24.0833   26.7548 C   0  0  0  0  0  0  0  0  0  0  0  0
  -24.6742  -26.1293   21.2421 C   0  0  0  0  0  0  0  0  0  0  0  0
  -25.1622  -15.6499   20.0709 C   0  0  0  0  0  0  0  0  0  0  0  0
  -25.1039  -17.1850   22.3996 C   0  0  0  0  0  0  0  0  0  0  0  0
  -28.8208  -23.0913   28.6838 C   0  0  0  0  0  0  0  0  0  0  0  0
  -29.7879  -18.8616   23.2233 C   0  0  0  0  0  0  0  0  0  0  0  0
  -29.4169  -18.9478   20.7009 C   0  0  0  0  0  0  0  0  0  0  0  0
  -32.8877  -26.9805   19.5658 C   0  0  0  0  0  0  0  0  0  0  0  0
  -26.2496  -27.2354   19.7742 C   0  0  0  0  0  0  0  0  0  0  0  0
  -31.6540  -26.5686   20.1049 C   0  0  0  0  0  0  0  0  0  0  0  0
  -25.5346  -27.2064   20.9800 C   0  0  0  0  0  0  0  0  0  0  0  0
  -25.2170  -17.0413   19.9905 C   0  0  0  0  0  0  0  0  0  0  0  0
  -25.0490  -15.7935   22.4800 C   0  0  0  0  0  0  0  0  0  0  0  0
  -25.0781  -15.0260   21.3157 C   0  0  0  0  0  0  0  0  0  0  0  0
  -30.4371  -19.9697   25.6998 C   0  0  0  0  0  0  0  0  0  0  0  0
  -24.5174  -25.1019   20.3122 C   0  0  0  0  0  0  0  0  0  0  0  0
  -30.1952  -21.7353   27.2316 C   0  0  0  0  0  0  0  0  0  0  0  0
  -25.1879  -17.8089   21.1548 C   0  0  0  0  0  0  0  0  0  0  0  0
  -29.0719  -24.2047   27.8819 C   0  0  0  0  0  0  0  0  0  0  0  0
  -29.3824  -21.8566   28.3587 C   0  0  0  0  0  0  0  0  0  0  0  0
  -29.4531  -18.2888   21.9443 C   0  0  0  0  0  0  0  0  0  0  0  0
  -29.0465  -17.9735   19.8065 C   0  0  0  0  0  0  0  0  0  0  0  0
  -20.9108  -11.2550   20.3440 C   0  0  0  0  0  0  0  0  0  0  0  0
  -21.4502  -12.3115   20.9621 C   0  0  0  0  0  0  0  0  0  0  0  0
  -29.6934  -20.3182   20.3827 C   0  0  0  0  0  0  0  0  0  0  0  0
  -28.7109  -28.3575   21.4434 C   0  0  0  0  0  0  0  0  0  0  0  0
  -26.5736  -30.6322   22.3264 C   0  0  0  0  0  0  0  0  0  0  0  0
  -23.3092  -31.5295   22.7566 C   0  0  0  0  0  0  0  0  0  0  0  0
  -26.0366  -12.7508   20.8732 C   0  0  0  0  0  0  0  0  0  0  0  0
  -33.6361  -28.1692   20.1149 C   0  0  0  0  0  0  0  0  0  0  0  0
  -27.1601  -28.3895   19.4559 C   0  0  0  0  0  0  0  0  0  0  0  0
  -25.6707  -28.2979   22.0090 C   0  0  0  0  0  0  0  0  0  0  0  0
  -32.7669  -29.1009   20.9556 C   0  0  0  0  0  0  0  0  0  0  0  0
  -29.2368  -13.2522   19.0842 C   0  0  0  0  0  0  0  0  0  0  0  0
  -31.9248  -28.2990   21.9429 C   0  0  0  0  0  0  0  0  0  0  0  0
  -29.6904  -14.6246   19.5785 C   0  0  0  0  0  0  0  0  0  0  0  0
  -28.3835  -12.5299   20.1224 C   0  0  0  0  0  0  0  0  0  0  0  0
  -27.6566  -14.6991   21.0751 C   0  0  0  0  0  0  0  0  0  0  0  0
  -30.9725  -27.3468   21.2096 C   0  0  1  0  0  0  0  0  0  0  0  0
  -27.6528  -29.1225   20.6999 C   0  0  1  0  0  0  0  0  0  0  0  0
  -28.4842  -15.4639   20.0313 C   0  0  1  0  0  0  0  0  0  0  0  0
  -25.3052  -17.6917   18.6494 C   0  0  0  0  0  0  0  0  0  0  0  0
  -24.9592  -15.1516   23.8264 C   0  0  0  0  0  0  0  0  0  0  0  0
  -21.8766  -33.4401   23.5278 C   0  0  0  0  0  0  0  0  0  0  0  0
  -27.2582  -29.9722   25.2257 C   0  0  0  0  0  0  0  0  0  0  0  0
  -25.1779  -31.1806   25.9189 C   0  0  0  0  0  0  0  0  0  0  0  0
  -27.0011  -32.4128   24.7441 C   0  0  0  0  0  0  0  0  0  0  0  0
  -22.0006  -31.7672   20.1128 C   0  0  0  0  0  0  0  0  0  0  0  0
  -22.7639  -12.9288   20.5774 C   0  0  0  0  0  0  0  0  0  0  0  0
  -23.2379  -22.2049   22.0551 C   0  0  0  0  0  0  0  0  0  0  0  0
  -24.3929  -21.3803   21.4975 C   0  0  0  0  0  0  0  0  0  0  0  0
  -23.7495  -12.9659   21.7418 C   0  0  0  0  0  0  0  0  0  0  0  0
  -23.5117  -23.6992   21.9483 C   0  0  0  0  0  0  0  0  0  1  0  0
  -24.1388  -19.8866   21.6429 C   0  0  0  0  0  0  0  0  0  0  0  0
  -25.5717  -30.7808   23.4458 C   0  0  1  0  0  0  0  0  0  0  0  0
  -22.5415  -32.7696   22.3357 C   0  0  2  0  0  0  0  0  0  0  0  0
  -26.2509  -31.0649   24.8153 C   0  0  0  0  0  0  0  0  0  0  0  0
  -29.1312  -16.9957   21.8521 N   0  0  0  0  0  0  0  0  0  0  0  0
  -28.8891  -16.8345   20.5400 N   0  0  0  0  0  0  0  0  0  0  0  0
  -26.5779  -29.4018   21.6542 N   0  0  0  0  0  0  0  0  0  0  0  0
  -27.2741  -13.3636   20.5883 N   0  0  0  0  0  0  0  0  0  0  0  0
  -28.8432  -17.9885   18.4720 N   0  0  0  0  0  0  0  0  0  0  0  0
  -30.0606  -21.1843   21.4217 N   0  0  0  0  0  0  0  0  0  0  0  0
  -29.8334  -28.0725   20.6896 N   0  0  0  0  0  0  0  0  0  0  0  0
  -24.6329  -31.8128   23.0190 N   0  0  0  0  0  0  0  0  0  0  0  0
  -25.0215  -13.5859   21.3776 N   0  0  0  0  0  0  0  0  0  0  0  0
  -21.4849  -32.4139   21.3468 N   0  3  0  0  0  0  0  0  0  0  0  0
  -29.6012  -20.7654   19.2144 O   0  0  0  0  0  0  0  0  0  0  0  0
  -28.5235  -28.0498   22.6147 O   0  0  0  0  0  0  0  0  0  0  0  0
  -27.3200  -31.5757   22.0536 O   0  0  0  0  0  0  0  0  0  0  0  0
  -22.7860  -30.4211   22.8475 O   0  0  0  0  0  0  0  0  0  0  0  0
  -25.8635  -11.5329   20.7406 O   0  0  0  0  0  0  0  0  0  0  0  0
  -30.7542  -20.5103   26.9080 O   0  0  0  0  0  0  0  0  0  0  0  0
  -23.6782  -24.0643   20.5789 O   0  0  0  0  0  0  0  0  0  1  0  0
  -25.2405  -19.1772   21.0932 O   0  0  0  0  0  0  0  0  0  0  0  0
  -28.5339  -25.3907   28.1948 F   0  0  0  0  0  0  0  0  0  0  0  0
  -29.1385  -20.7909   29.1336 F   0  0  0  0  0  0  0  0  0  0  0  0
  1  2  1  0  0  0  0
  1  5  2  0  0  0  0
  2  6  2  0  0  0  0
  3  8  2  0  0  0  0
  3 17  1  0  0  0  0
  4  9  1  0  0  0  0
  4 17  2  0  0  0  0
  5 19  1  0  0  0  0
  6 21  1  0  0  0  0
  7 10  2  0  0  0  0
  7 20  1  0  0  0  0
  8 26  1  0  0  0  0
  9 26  2  0  0  0  0
 10 27  1  0  0  0  0
 11 12  2  0  0  0  0
 11 28  1  0  0  0  0
 12 30  1  0  0  0  0
 13 22  1  0  0  0  0
 13 27  2  0  0  0  0
 14 23  2  0  0  0  0
 14 25  1  0  0  0  0
 15 24  1  0  0  0  0
 15 29  2  0  0  0  0
 16 30  2  0  0  0  0
 16 31  1  0  0  0  0
 17 32  1  0  0  0  0
 18 32  1  0  0  0  0
 18 33  2  0  0  0  0
 18 36  1  0  0  0  0
 19 21  2  0  0  0  0
 19 41  1  0  0  0  0
 20 22  2  0  0  0  0
 20 42  1  0  0  0  0
 21 50  1  0  0  0  0
 22 43  1  0  0  0  0
 23 29  1  0  0  0  0
 23 53  1  0  0  0  0
 24 25  2  0  0  0  0
 24 54  1  0  0  0  0
 25 77  1  0  0  0  0
 26 84  1  0  0  0  0
 27 85  1  0  0  0  0
 28 31  2  0  0  0  0
 28 84  1  0  0  0  0
 29 86  1  0  0  0  0
 30 87  1  0  0  0  0
 31 88  1  0  0  0  0
 32 69  2  0  0  0  0
 33 70  1  0  0  0  0
 33 73  1  0  0  0  0
 34 35  2  0  0  0  0
 35 60  1  0  0  0  0
 36 74  1  0  0  0  0
 36 79  2  0  0  0  0
 37 51  1  0  0  0  0
 37 75  1  0  0  0  0
 37 80  2  0  0  0  0
 38 66  1  0  0  0  0
 38 71  1  0  0  0  0
 38 81  2  0  0  0  0
 39 67  1  0  0  0  0
 39 76  1  0  0  0  0
 39 82  2  0  0  0  0
 40 72  1  0  0  0  0
 40 77  1  0  0  0  0
 40 83  2  0  0  0  0
 41 44  1  0  0  0  0
 42 51  1  0  0  0  0
 43 71  1  0  0  0  0
 44 46  1  0  0  0  0
 45 47  1  0  0  0  0
 45 48  1  0  0  0  0
 46 50  1  0  0  0  0
 47 52  1  0  0  0  0
 48 72  1  0  0  0  0
 49 52  1  0  0  0  0
 49 72  1  0  0  0  0
 50 75  1  0  0  0  0
 51 71  1  0  0  0  0
 52 70  1  0  0  0  0
 55 67  1  0  0  0  0
 56 68  1  0  0  0  0
 57 68  1  0  0  0  0
 58 68  1  0  0  0  0
 59 78  1  0  0  0  0
 60 63  1  0  0  0  0
 61 62  1  0  0  0  0
 61 64  1  0  0  0  0
 62 65  1  0  0  0  0
 63 77  1  0  0  0  0
 64 85  1  0  0  0  0
 65 86  1  0  0  0  0
 66 68  1  0  0  0  0
 66 76  1  0  0  0  0
 67 78  1  0  0  0  0
 69 70  1  0  0  0  0
M  CHG  1  78   1
M  ISO  4  40 100  64 101  77 100  85 101
M  END
> <Batch ID>
0107

> <Smiles>
C=CCC[100N:0](c1cc(C)c(OCCC[101CH2:1][101O:1]c2ccc3c(c2)CN(C(=O)C(NC(=O)C(C)NC)C(C)(C)C)C(C(=O)NC2CCCc4ccccc42)C3)cc1C)[100C:0](=O)N1CCCC(n2nc(-c3ccc(Oc4ccc(F)cc4F)cc3)c(C(N)=O)c2N)C1

> <Shape>
0.245

> <Color>
0.059

> <Negative vol penalty>
0.000

$$$$

  -OEChem-04052301173D

 89 98  0     1  0  0  0  0  0999 V2000
  -16.3964  -17.2475   20.8698 C   0  0  0  0  0  0  0  0  0  0  0  0
  -17.7128  -16.9917   20.4995 C   0  0  0  0  0  0  0  0  0  0  0  0
  -23.4969  -29.4902   20.3182 C   0  0  0  0  0  0  0  0  0  0  0  0
  -25.8631  -29.1942   20.7062 C   0  0  0  0  0  0  0  0  0  0  0  0
  -16.0741  -18.4412   21.5141 C   0  0  0  0  0  0  0  0  0  0  0  0
  -18.7076  -17.9300   20.7724 C   0  0  0  0  0  0  0  0  0  0  0  0
  -22.9003  -15.8194   22.6727 C   0  0  0  0  0  0  0  0  0  0  0  0
  -29.7631  -17.7476   18.4468 C   0  0  0  0  0  0  0  0  0  0  0  0
  -29.7439  -16.3662   18.6388 C   0  0  0  0  0  0  0  0  0  0  0  0
  -23.4882  -30.5732   21.1971 C   0  0  0  0  0  0  0  0  0  0  0  0
  -25.8544  -30.2773   21.5851 C   0  0  0  0  0  0  0  0  0  0  0  0
  -23.7564  -15.1837   21.7745 C   0  0  0  0  0  0  0  0  0  0  0  0
  -24.9485  -30.8811   24.7860 C   0  0  0  0  0  0  0  0  0  0  0  0
  -25.6221  -30.7369   25.9988 C   0  0  0  0  0  0  0  0  0  0  0  0
  -25.1836  -17.1286   21.7676 C   0  0  0  0  0  0  0  0  0  0  0  0
  -29.0865  -16.6951   20.9403 C   0  0  0  0  0  0  0  0  0  0  0  0
  -27.0569  -32.5934   25.4228 C   0  0  0  0  0  0  0  0  0  0  0  0
  -24.6843  -28.8006   20.0728 C   0  0  0  0  0  0  0  0  0  0  0  0
  -24.3459  -27.6899   17.8013 C   0  0  0  0  0  0  0  0  0  0  0  0
  -17.0670  -19.3904   21.8037 C   0  0  0  0  0  0  0  0  0  0  0  0
  -23.1741  -17.1208   23.1174 C   0  0  0  0  0  0  0  0  0  0  0  0
  -18.3980  -19.1381   21.4200 C   0  0  0  0  0  0  0  0  0  0  0  0
  -24.3307  -17.7776   22.6734 C   0  0  0  0  0  0  0  0  0  0  0  0
  -29.4441  -18.6028   19.5016 C   0  0  0  0  0  0  0  0  0  0  0  0
  -29.4056  -15.8399   19.8854 C   0  0  0  0  0  0  0  0  0  0  0  0
  -29.1058  -18.0765   20.7483 C   0  0  0  0  0  0  0  0  0  0  0  0
  -24.6670  -30.9668   21.8305 C   0  0  0  0  0  0  0  0  0  0  0  0
  -24.8967  -15.8394   21.3196 C   0  0  0  0  0  0  0  0  0  0  0  0
  -25.3291  -31.8814   23.8914 C   0  0  0  0  0  0  0  0  0  0  0  0
  -26.6762  -31.5930   26.3173 C   0  0  0  0  0  0  0  0  0  0  0  0
  -26.3833  -32.7376   24.2099 C   0  0  0  0  0  0  0  0  0  0  0  0
  -24.6938  -27.6814   19.1654 C   0  0  0  0  0  0  0  0  0  0  0  0
  -24.5212  -26.3899   17.3942 C   0  0  0  0  0  0  0  0  0  0  0  0
  -27.2559  -12.5207   18.9838 C   0  0  0  0  0  0  0  0  0  0  0  0
  -27.1733  -13.3369   20.0481 C   0  0  0  0  0  0  0  0  0  0  0  0
  -28.5323  -12.0072   18.4360 C   0  0  0  0  0  0  0  0  0  0  0  0
  -23.9040  -28.7758   16.9761 C   0  0  0  0  0  0  0  0  0  0  0  0
  -21.6905  -19.9237   22.9016 C   0  0  0  0  0  0  0  0  0  0  0  0
  -24.0775  -20.8984   24.8700 C   0  0  0  0  0  0  0  0  0  0  0  0
  -27.6341  -20.3659   25.1603 C   0  0  0  0  0  0  0  0  0  0  0  0
  -28.0011  -22.0702   19.4156 C   0  0  0  0  0  0  0  0  0  0  0  0
  -16.6627  -20.6869   22.4595 C   0  0  0  0  0  0  0  0  0  0  0  0
  -22.2548  -17.7825   24.1070 C   0  0  0  0  0  0  0  0  0  0  0  0
  -24.6805  -19.1676   23.1362 C   0  0  0  0  0  0  0  0  0  0  0  0
  -29.6079  -13.0053   18.0802 C   0  0  0  0  0  0  0  0  0  0  0  0
  -17.8374  -21.4644   23.0475 C   0  0  0  0  0  0  0  0  0  0  0  0
  -24.4048  -21.8999   19.0475 C   0  0  0  0  0  0  0  0  0  0  0  0
  -18.9901  -21.5251   22.0502 C   0  0  0  0  0  0  0  0  0  0  0  0
  -24.0432  -23.3795   18.9056 C   0  0  0  0  0  0  0  0  0  0  0  0
  -30.2943  -13.5980   19.2992 C   0  0  0  0  0  0  0  0  0  0  0  0
  -25.5399  -21.7017   20.0478 C   0  0  0  0  0  0  0  0  0  0  0  0
  -26.4124  -23.9632   19.6027 C   0  0  0  0  0  0  0  0  0  0  0  0
  -19.5092  -20.1203   21.7209 C   0  0  1  0  0  0  0  0  0  0  0  0
  -28.3349  -13.8227   20.9029 C   0  0  1  0  0  0  0  0  0  0  0  0
  -22.3603  -19.3044   24.0956 C   0  0  1  0  0  0  0  0  0  0  0  0
  -25.2860  -24.2321   18.5883 C   0  0  2  0  0  0  0  0  0  0  0  0
  -28.8820  -12.7153   21.8108 C   0  0  0  0  0  0  0  0  0  0  0  0
  -29.6348  -20.2449   26.6703 C   0  0  0  0  0  0  0  0  0  0  0  0
  -24.5536  -23.7862   24.0073 C   0  0  0  0  0  0  0  0  0  0  0  0
  -26.9522  -23.5160   24.6721 C   0  0  0  0  0  0  0  0  0  0  0  0
  -25.1525  -23.2955   26.3854 C   0  0  0  0  0  0  0  0  0  0  0  0
  -27.5117  -17.4112   25.2780 C   0  0  0  0  0  0  0  0  0  0  0  0
  -29.4733  -20.0783   19.2681 C   0  0  0  0  0  0  0  0  0  0  0  0
  -25.8149  -13.7986   20.5147 C   0  0  0  0  0  0  0  0  0  1  0  0
  -25.4635  -21.4630   24.6715 C   0  0  1  0  0  0  0  0  0  0  0  0
  -28.3482  -19.5625   26.2323 C   0  0  2  0  0  0  0  0  0  0  0  0
  -25.5187  -22.9976   24.9150 C   0  0  0  0  0  0  0  0  0  0  0  0
  -25.0621  -26.4719   19.5961 N   0  0  0  0  0  0  0  0  0  0  0  0
  -24.9465  -25.7082   18.4963 N   0  0  0  0  0  0  0  0  0  0  0  0
  -29.3881  -14.4518   20.0783 N   0  0  3  0  0  0  0  0  0  0  0  0
  -23.7469  -19.7749   24.0991 N   0  0  0  0  0  0  0  0  0  0  0  0
  -26.6988  -22.5267   19.6782 N   0  0  0  0  0  0  0  0  0  0  0  0
  -28.7792  -18.9275   21.8271 N   0  0  0  0  0  0  0  0  0  0  0  0
  -24.3514  -25.7748   16.2045 N   0  0  0  0  0  0  0  0  0  0  0  0
  -24.8673  -29.5323   16.2948 N   0  0  0  0  0  0  0  0  0  0  0  0
  -20.3454  -19.6262   22.7937 N   0  0  0  0  0  0  0  0  0  0  0  0
  -26.3473  -20.6886   25.5361 N   0  0  0  0  0  0  0  0  0  0  0  0
  -28.1901  -20.6972   19.5152 N   0  0  0  0  0  0  0  0  0  0  0  0
  -28.6870  -18.2039   25.7220 N   0  3  0  0  0  0  0  0  0  0  0  0
  -28.6561  -10.8058   18.2058 O   0  0  0  0  0  0  0  0  0  0  0  0
  -22.6918  -29.0770   16.8595 O   0  0  0  0  0  0  0  0  0  0  0  0
  -22.3453  -20.6211   22.1357 O   0  0  0  0  0  0  0  0  0  0  0  0
  -23.3188  -21.4302   25.6843 O   0  0  0  0  0  0  0  0  0  0  0  0
  -28.1660  -20.6791   24.0975 O   0  0  0  0  0  0  0  0  0  0  0  0
  -28.9265  -22.8298   19.1093 O   0  0  0  0  0  0  0  0  0  0  0  0
  -24.6589  -32.0238   22.6880 O   0  0  0  0  0  0  0  0  0  0  0  0
  -25.7337  -15.2214   20.4424 O   0  0  0  0  0  0  0  0  0  1  0  0
  -27.3220  -31.4554   27.4827 F   0  0  0  0  0  0  0  0  0  0  0  0
  -26.7527  -33.7012   23.3550 F   0  0  0  0  0  0  0  0  0  0  0  0
  1  2  1  0  0  0  0
  1  5  2  0  0  0  0
  2  6  2  0  0  0  0
  3 10  2  0  0  0  0
  3 18  1  0  0  0  0
  4 11  1  0  0  0  0
  4 18  2  0  0  0  0
  5 20  1  0  0  0  0
  6 22  1  0  0  0  0
  7 12  2  0  0  0  0
  7 21  1  0  0  0  0
  8  9  2  0  0  0  0
  8 24  1  0  0  0  0
  9 25  1  0  0  0  0
 10 27  1  0  0  0  0
 11 27  2  0  0  0  0
 12 28  1  0  0  0  0
 13 14  2  0  0  0  0
 13 29  1  0  0  0  0
 14 30  1  0  0  0  0
 15 23  1  0  0  0  0
 15 28  2  0  0  0  0
 16 25  2  0  0  0  0
 16 26  1  0  0  0  0
 17 30  2  0  0  0  0
 17 31  1  0  0  0  0
 18 32  1  0  0  0  0
 19 32  1  0  0  0  0
 19 33  2  0  0  0  0
 19 37  1  0  0  0  0
 20 22  2  0  0  0  0
 20 42  1  0  0  0  0
 21 23  2  0  0  0  0
 21 43  1  0  0  0  0
 22 53  1  0  0  0  0
 23 44  1  0  0  0  0
 24 26  2  0  0  0  0
 24 63  1  0  0  0  0
 25 70  1  0  0  0  0
 26 73  1  0  0  0  0
 27 86  1  0  0  0  0
 28 87  1  0  0  0  0
 29 31  2  0  0  0  0
 29 86  1  0  0  0  0
 30 88  1  0  0  0  0
 31 89  1  0  0  0  0
 32 68  2  0  0  0  0
 33 69  1  0  0  0  0
 33 74  1  0  0  0  0
 34 35  2  0  0  0  0
 34 36  1  0  0  0  0
 35 54  1  0  0  0  0
 35 64  1  0  0  0  0
 36 45  1  0  0  0  0
 36 80  2  0  0  0  0
 37 75  1  0  0  0  0
 37 81  2  0  0  0  0
 38 55  1  0  0  0  0
 38 76  1  0  0  0  0
 38 82  2  0  0  0  0
 39 65  1  0  0  0  0
 39 71  1  0  0  0  0
 39 83  2  0  0  0  0
 40 66  1  0  0  0  0
 40 77  1  0  0  0  0
 40 84  2  0  0  0  0
 41 72  1  0  0  0  0
 41 78  1  0  0  0  0
 41 85  2  0  0  0  0
 42 46  1  0  0  0  0
 43 55  1  0  0  0  0
 44 71  1  0  0  0  0
 45 50  1  0  0  0  0
 46 48  1  0  0  0  0
 47 49  1  0  0  0  0
 47 51  1  0  0  0  0
 48 53  1  0  0  0  0
 49 56  1  0  0  0  0
 50 70  1  0  0  0  0
 51 72  1  0  0  0  0
 52 56  1  0  0  0  0
 52 72  1  0  0  0  0
 53 76  1  0  0  0  0
 54 57  1  0  0  0  0
 54 70  1  0  0  0  0
 55 71  1  0  0  0  0
 56 69  1  0  0  0  0
 58 66  1  0  0  0  0
 59 67  1  0  0  0  0
 60 67  1  0  0  0  0
 61 67  1  0  0  0  0
 62 79  1  0  0  0  0
 63 78  1  0  0  0  0
 64 87  1  0  0  0  0
 65 67  1  0  0  0  0
 65 77  1  0  0  0  0
 66 79  1  0  0  0  0
 68 69  1  0  0  0  0
M  CHG  1  79   1
M  ISO  4  41 100  64 101  78 100  87 101
M  END
> <Batch ID>
0107

> <Smiles>
CNC(C)C(=O)NC(C(=O)N1Cc2cc([101O:1][101CH2:1]C3=C(C)N(c4ccc(C[100NH:0][100C:0](=O)N5CCCC(n6nc(-c7ccc(Oc8ccc(F)cc8F)cc7)c(C(N)=O)c6N)C5)c(N)c4)CCC(=O)C3)ccc2CC1C(=O)NC1CCCc2ccccc21)C(C)(C)C

> <Shape>
0.219

> <Color>
0.064

> <Negative vol penalty>
0.000

$$$$

  -OEChem-04052301173D

 87 95  0     1  0  0  0  0  0999 V2000
  -22.5415  -37.3570   18.0903 C   0  0  0  0  0  0  0  0  0  0  0  0
  -22.8565  -36.1374   17.4998 C   0  0  0  0  0  0  0  0  0  0  0  0
  -23.7818   -9.5732   21.7532 C   0  0  0  0  0  0  0  0  0  0  0  0
  -22.9202  -11.8296   21.8099 C   0  0  0  0  0  0  0  0  0  0  0  0
  -23.1317  -37.7171   19.3011 C   0  0  0  0  0  0  0  0  0  0  0  0
  -23.7627  -35.2775   18.1193 C   0  0  0  0  0  0  0  0  0  0  0  0
  -25.1286  -28.3012   19.0038 C   0  0  0  0  0  0  0  0  0  0  0  0
  -22.9202   -9.2181   22.7910 C   0  0  0  0  0  0  0  0  0  0  0  0
  -22.0586  -11.4745   22.8478 C   0  0  0  0  0  0  0  0  0  0  0  0
  -26.1657  -27.3803   18.8622 C   0  0  0  0  0  0  0  0  0  0  0  0
  -19.6501   -8.4401   23.1578 C   0  0  0  0  0  0  0  0  0  0  0  0
  -18.9474   -7.2414   23.0355 C   0  0  0  0  0  0  0  0  0  0  0  0
  -28.0021  -19.7089   19.4217 C   0  0  0  0  0  0  0  0  0  0  0  0
  -27.0630  -28.0727   20.9917 C   0  0  0  0  0  0  0  0  0  0  0  0
  -30.1691  -19.6188   20.4860 C   0  0  0  0  0  0  0  0  0  0  0  0
  -19.9865   -6.4259   25.0585 C   0  0  0  0  0  0  0  0  0  0  0  0
  -23.7819  -10.8790   21.2627 C   0  0  0  0  0  0  0  0  0  0  0  0
  -27.9148  -18.3181   19.4816 C   0  0  0  0  0  0  0  0  0  0  0  0
  -24.4112  -11.1819   18.8091 C   0  0  0  0  0  0  0  0  0  0  0  0
  -24.0382  -36.8569   19.9405 C   0  0  0  0  0  0  0  0  0  0  0  0
  -25.0568  -29.1237   20.1372 C   0  0  0  0  0  0  0  0  0  0  0  0
  -24.3665  -35.6269   19.3391 C   0  0  0  0  0  0  0  0  0  0  0  0
  -26.0225  -29.0014   21.1465 C   0  0  0  0  0  0  0  0  0  0  0  0
  -29.1293  -20.3593   19.9239 C   0  0  0  0  0  0  0  0  0  0  0  0
  -28.9547  -17.5776   20.0437 C   0  0  0  0  0  0  0  0  0  0  0  0
  -22.0585  -10.1687   23.3383 C   0  0  0  0  0  0  0  0  0  0  0  0
  -27.1348  -27.2680   19.8549 C   0  0  0  0  0  0  0  0  0  0  0  0
  -20.5211   -8.6316   24.2304 C   0  0  0  0  0  0  0  0  0  0  0  0
  -30.0819  -18.2279   20.5459 C   0  0  0  0  0  0  0  0  0  0  0  0
  -19.1156   -6.2343   23.9859 C   0  0  0  0  0  0  0  0  0  0  0  0
  -20.6893   -7.6245   25.1808 C   0  0  0  0  0  0  0  0  0  0  0  0
  -24.6721  -11.2465   20.1910 C   0  0  0  0  0  0  0  0  0  0  0  0
  -25.5650  -11.6381   18.2201 C   0  0  0  0  0  0  0  0  0  0  0  0
  -25.4950  -17.9336   19.3727 C   0  0  0  0  0  0  0  0  0  0  0  0
  -26.7208  -17.6753   18.9448 C   0  0  0  0  0  0  0  0  0  0  0  0
  -27.8256  -25.0475   19.6045 C   0  0  0  0  0  0  0  0  0  1  0  0
  -23.2313  -10.7482   18.1196 C   0  0  0  0  0  0  0  0  0  0  0  0
  -28.7407  -24.0804   19.4663 C   0  0  0  0  0  0  0  0  0  0  0  0
  -28.2830  -22.6575   19.3474 C   0  0  0  0  0  0  0  0  0  0  0  0
  -25.1550  -32.2605   20.6423 C   0  0  0  0  0  0  0  0  0  0  0  0
  -24.4732  -31.3970   23.6938 C   0  0  0  0  0  0  0  0  0  0  0  0
  -24.5662  -28.9927   26.1141 C   0  0  0  0  0  0  0  0  0  0  0  0
  -29.9402  -15.2595   20.0772 C   0  0  0  0  0  0  0  0  0  0  0  0
  -24.6867  -37.3101   21.2246 C   0  0  0  0  0  0  0  0  0  0  0  0
  -23.9167  -30.0933   20.2874 C   0  0  0  0  0  0  0  0  0  0  0  0
  -25.9792  -29.8469   22.3921 C   0  0  0  0  0  0  0  0  0  0  0  0
  -25.3517  -36.1783   22.0037 C   0  0  0  0  0  0  0  0  0  0  0  0
  -30.2909  -11.9006   18.9491 C   0  0  0  0  0  0  0  0  0  0  0  0
  -26.1947  -35.3127   21.0726 C   0  0  0  0  0  0  0  0  0  0  0  0
  -28.8651  -11.3477   19.0080 C   0  0  0  0  0  0  0  0  0  0  0  0
  -30.5764  -12.8575   20.1053 C   0  0  0  0  0  0  0  0  0  0  0  0
  -28.1822  -13.3976   20.3190 C   0  0  0  0  0  0  0  0  0  0  0  0
  -25.3260  -34.6562   19.9927 C   0  0  1  0  0  0  0  0  0  0  0  0
  -24.2298  -31.2404   21.2432 C   0  0  1  0  0  0  0  0  0  0  0  0
  -27.8268  -12.4793   19.1383 C   0  0  2  0  0  0  0  0  0  0  0  0
  -23.9690  -28.5939   28.5186 C   0  0  0  0  0  0  0  0  0  0  0  0
  -26.9027  -33.0246   24.5647 C   0  0  0  0  0  0  0  0  0  0  0  0
  -26.8182  -31.8411   26.7693 C   0  0  0  0  0  0  0  0  0  0  0  0
  -24.9015  -33.2640   26.0453 C   0  0  0  0  0  0  0  0  0  0  0  0
  -22.6890  -26.8165   25.4075 C   0  0  0  0  0  0  0  0  0  0  0  0
  -32.2199  -18.2772   21.5862 C   0  0  0  0  0  0  0  0  0  0  0  0
  -25.2904  -31.0380   24.9113 C   0  0  1  0  0  0  0  0  0  0  0  0
  -23.5041  -28.4886   27.0744 C   0  0  2  0  0  0  0  0  0  0  0  0
  -25.9804  -32.2772   25.5484 C   0  0  0  0  0  0  0  0  0  0  0  0
  -25.8957  -11.7074   20.4637 N   0  0  0  0  0  0  0  0  0  0  0  0
  -26.4140  -11.9364   19.2451 N   0  0  0  0  0  0  0  0  0  0  0  0
  -24.8484  -30.7846   22.4897 N   0  0  0  0  0  0  0  0  0  0  0  0
  -29.5546  -13.9050   20.1641 N   0  0  0  0  0  0  0  0  0  0  0  0
  -25.9262  -11.8092   16.9307 N   0  0  0  0  0  0  0  0  0  0  0  0
  -22.1370  -10.3106   18.8781 N   0  0  0  0  0  0  0  0  0  0  0  0
  -29.2176  -21.7711   19.8646 N   0  0  0  0  0  0  0  0  0  0  0  0
  -28.8797  -16.1643   20.1114 N   0  0  0  0  0  0  0  0  0  0  0  0
  -24.6079  -33.5253   20.5402 N   0  0  0  0  0  0  0  0  0  0  0  0
  -24.3900  -30.3265   25.8121 N   0  0  0  0  0  0  0  0  0  0  0  0
  -23.1814  -27.0622   26.7874 N   0  3  0  0  0  0  0  0  0  0  0  0
  -23.1557  -10.7334   16.8676 O   0  0  0  0  0  0  0  0  0  0  0  0
  -27.1996  -22.3843   18.8419 O   0  0  0  0  0  0  0  0  0  0  0  0
  -26.2824  -31.9252   20.2982 O   0  0  0  0  0  0  0  0  0  0  0  0
  -23.5320  -32.1861   23.8084 O   0  0  0  0  0  0  0  0  0  0  0  0
  -25.4646  -28.2760   25.6785 O   0  0  0  0  0  0  0  0  0  0  0  0
  -31.1220  -15.5910   19.9521 O   0  0  0  0  0  0  0  0  0  0  0  0
  -30.0954  -24.3406   19.4274 O   0  0  0  0  0  0  0  0  0  0  0  0
  -21.2175   -9.8225   24.3509 O   0  0  0  0  0  0  0  0  0  0  0  0
  -28.1486  -26.3705   19.7189 O   0  0  0  0  0  0  0  0  0  1  0  0
  -31.1104  -17.5252   21.1001 O   0  0  0  0  0  0  0  0  0  0  0  0
  -18.4395   -5.0839   23.8692 F   0  0  0  0  0  0  0  0  0  0  0  0
  -21.5237   -7.8032   26.2140 F   0  0  0  0  0  0  0  0  0  0  0  0
  1  2  1  0  0  0  0
  1  5  2  0  0  0  0
  2  6  2  0  0  0  0
  3  8  2  0  0  0  0
  3 17  1  0  0  0  0
  4  9  1  0  0  0  0
  4 17  2  0  0  0  0
  5 20  1  0  0  0  0
  6 22  1  0  0  0  0
  7 10  2  0  0  0  0
  7 21  1  0  0  0  0
  8 26  1  0  0  0  0
  9 26  2  0  0  0  0
 10 27  1  0  0  0  0
 11 12  2  0  0  0  0
 11 28  1  0  0  0  0
 12 30  1  0  0  0  0
 13 18  1  0  0  0  0
 13 24  2  0  0  0  0
 14 23  1  0  0  0  0
 14 27  2  0  0  0  0
 15 24  1  0  0  0  0
 15 29  2  0  0  0  0
 16 30  2  0  0  0  0
 16 31  1  0  0  0  0
 17 32  1  0  0  0  0
 18 25  2  0  0  0  0
 18 35  1  0  0  0  0
 19 32  1  0  0  0  0
 19 33  2  0  0  0  0
 19 37  1  0  0  0  0
 20 22  2  0  0  0  0
 20 44  1  0  0  0  0
 21 23  2  0  0  0  0
 21 45  1  0  0  0  0
 22 53  1  0  0  0  0
 23 46  1  0  0  0  0
 24 71  1  0  0  0  0
 25 29  1  0  0  0  0
 25 72  1  0  0  0  0
 26 83  1  0  0  0  0
 27 84  1  0  0  0  0
 28 31  2  0  0  0  0
 28 83  1  0  0  0  0
 29 85  1  0  0  0  0
 30 86  1  0  0  0  0
 31 87  1  0  0  0  0
 32 65  2  0  0  0  0
 33 66  1  0  0  0  0
 33 69  1  0  0  0  0
 34 35  2  0  0  0  0
 36 38  2  0  0  0  0
 36 84  1  0  0  0  0
 37 70  1  0  0  0  0
 37 76  2  0  0  0  0
 38 39  1  0  0  0  0
 38 82  1  0  0  0  0
 39 71  1  0  0  0  0
 39 77  2  0  0  0  0
 40 54  1  0  0  0  0
 40 73  1  0  0  0  0
 40 78  2  0  0  0  0
 41 62  1  0  0  0  0
 41 67  1  0  0  0  0
 41 79  2  0  0  0  0
 42 63  1  0  0  0  0
 42 74  1  0  0  0  0
 42 80  2  0  0  0  0
 43 68  1  0  0  0  0
 43 72  1  0  0  0  0
 43 81  2  0  0  0  0
 44 47  1  0  0  0  0
 45 54  1  0  0  0  0
 46 67  1  0  0  0  0
 47 49  1  0  0  0  0
 48 50  1  0  0  0  0
 48 51  1  0  0  0  0
 49 53  1  0  0  0  0
 50 55  1  0  0  0  0
 51 68  1  0  0  0  0
 52 55  1  0  0  0  0
 52 68  1  0  0  0  0
 53 73  1  0  0  0  0
 54 67  1  0  0  0  0
 55 66  1  0  0  0  0
 56 63  1  0  0  0  0
 57 64  1  0  0  0  0
 58 64  1  0  0  0  0
 59 64  1  0  0  0  0
 60 75  1  0  0  0  0
 61 85  1  0  0  0  0
 62 64  1  0  0  0  0
 62 74  1  0  0  0  0
 63 75  1  0  0  0  0
 65 66  1  0  0  0  0
M  CHG  1  75   1
M  ISO  4  36 101  43 100  72 100  84 101
M  END
> <Batch ID>
0107

> <Smiles>
C=Cc1cc(NC(=O)C(=O)[101CH2:1][101O:1]c2ccc3c(c2)CN(C(=O)C(NC(=O)C(C)NC)C(C)(C)C)C(C(=O)NC2CCCc4ccccc42)C3)cc(OC)c1[100NH:0][100C:0](=O)N1CCCC(n2nc(-c3ccc(Oc4ccc(F)cc4F)cc3)c(C(N)=O)c2N)C1

> <Shape>
0.290

> <Color>
0.119

> <Negative vol penalty>
0.000

$$$$

  -OEChem-04052301173D

 87 95  0     1  0  0  0  0  0999 V2000
  -16.8834  -26.6276   21.3050 C   0  0  0  0  0  0  0  0  0  0  0  0
  -18.1501  -26.4767   20.7498 C   0  0  0  0  0  0  0  0  0  0  0  0
  -22.8677  -14.0552   20.4311 C   0  0  0  0  0  0  0  0  0  0  0  0
  -24.2715  -14.7748   22.2610 C   0  0  0  0  0  0  0  0  0  0  0  0
  -16.6817  -27.5385   22.3411 C   0  0  0  0  0  0  0  0  0  0  0  0
  -19.2156  -27.2375   21.2298 C   0  0  0  0  0  0  0  0  0  0  0  0
  -23.4142  -24.4889   21.9097 C   0  0  0  0  0  0  0  0  0  0  0  0
  -22.6116  -12.8575   21.0986 C   0  0  0  0  0  0  0  0  0  0  0  0
  -24.0154  -13.5771   22.9285 C   0  0  0  0  0  0  0  0  0  0  0  0
  -24.1598  -24.1740   20.7746 C   0  0  0  0  0  0  0  0  0  0  0  0
  -24.1910   -9.9173   21.6329 C   0  0  0  0  0  0  0  0  0  0  0  0
  -24.2582   -8.7368   20.8930 C   0  0  0  0  0  0  0  0  0  0  0  0
  -28.9693  -20.9371   21.8104 C   0  0  0  0  0  0  0  0  0  0  0  0
  -29.5592  -20.9938   19.0843 C   0  0  0  0  0  0  0  0  0  0  0  0
  -25.6922  -25.9638   21.2919 C   0  0  0  0  0  0  0  0  0  0  0  0
  -21.9454   -8.2759   21.4182 C   0  0  0  0  0  0  0  0  0  0  0  0
  -23.6977  -15.0139   21.0123 C   0  0  0  0  0  0  0  0  0  0  0  0
  -29.2692  -19.7530   21.1370 C   0  0  0  0  0  0  0  0  0  0  0  0
  -29.5641  -19.7813   19.7740 C   0  0  0  0  0  0  0  0  0  0  0  0
  -23.2298  -17.4493   20.4145 C   0  0  0  0  0  0  0  0  0  0  0  0
  -17.7473  -28.3038   22.8405 C   0  0  0  0  0  0  0  0  0  0  0  0
  -23.7965  -25.5524   22.7400 C   0  0  0  0  0  0  0  0  0  0  0  0
  -19.0277  -28.1604   22.2727 C   0  0  0  0  0  0  0  0  0  0  0  0
  -24.9511  -26.2886   22.4384 C   0  0  0  0  0  0  0  0  0  0  0  0
  -23.1855  -12.6184   22.3472 C   0  0  0  0  0  0  0  0  0  0  0  0
  -25.2974  -24.9133   20.4639 C   0  0  0  0  0  0  0  0  0  0  0  0
  -23.0010  -10.2772   22.2655 C   0  0  0  0  0  0  0  0  0  0  0  0
  -28.9643  -22.1496   21.1208 C   0  0  0  0  0  0  0  0  0  0  0  0
  -29.2593  -22.1779   19.7578 C   0  0  0  0  0  0  0  0  0  0  0  0
  -23.1355   -7.9161   20.7857 C   0  0  0  0  0  0  0  0  0  0  0  0
  -21.8783   -9.4565   22.1581 C   0  0  0  0  0  0  0  0  0  0  0  0
  -23.9630  -16.2510   20.3230 C   0  0  0  0  0  0  0  0  0  0  0  0
  -23.8831  -18.3166   19.5733 C   0  0  0  0  0  0  0  0  0  0  0  0
  -29.2655  -18.5047   21.8893 C   0  0  0  0  0  0  0  0  0  0  0  0
  -30.0642  -18.2130   22.9387 C   0  0  0  0  0  0  0  0  0  0  0  0
  -29.8809  -18.5655   19.0334 C   0  0  0  0  0  0  0  0  0  0  0  0
  -22.0627  -17.7514   21.1905 C   0  0  0  0  0  0  0  0  0  0  0  0
  -29.5579  -18.4368   17.5938 C   0  0  0  0  0  0  0  0  0  0  0  0
  -22.4651  -28.3012   23.6206 C   0  0  0  0  0  0  0  0  0  0  0  0
  -25.0500  -28.4789   25.5723 C   0  0  0  0  0  0  0  0  0  0  0  0
  -28.2667  -27.5359   26.2132 C   0  0  0  0  0  0  0  0  0  0  0  0
  -17.4706  -29.3097   23.9297 C   0  0  0  0  0  0  0  0  0  0  0  0
  -22.9965  -25.8623   23.9754 C   0  0  0  0  0  0  0  0  0  0  0  0
  -25.4155  -27.4270   23.3084 C   0  0  0  0  0  0  0  0  0  0  0  0
  -18.7305  -29.8069   24.6340 C   0  0  0  0  0  0  0  0  0  0  0  0
  -26.5634  -18.4127   15.6217 C   0  0  0  0  0  0  0  0  0  0  0  0
  -19.8038  -30.1718   23.6134 C   0  0  0  0  0  0  0  0  0  0  0  0
  -25.4978  -17.9272   16.6038 C   0  0  0  0  0  0  0  0  0  0  0  0
  -27.9127  -17.7549   15.8918 C   0  0  0  0  0  0  0  0  0  0  0  0
  -27.3345  -17.4455   18.2831 C   0  0  0  0  0  0  0  0  0  0  0  0
  -20.2138  -28.9496   22.7829 C   0  0  1  0  0  0  0  0  0  0  0  0
  -23.1886  -27.2933   24.4683 C   0  0  1  0  0  0  0  0  0  0  0  0
  -25.9643  -18.1089   18.0592 C   0  0  2  0  0  0  0  0  0  0  0  0
  -30.0318  -16.9135   23.6757 C   0  0  0  0  0  0  0  0  0  0  0  0
  -30.1268  -27.8735   27.8635 C   0  0  0  0  0  0  0  0  0  0  0  0
  -25.6037  -31.2328   24.3811 C   0  0  0  0  0  0  0  0  0  0  0  0
  -27.9171  -31.1010   25.3293 C   0  0  0  0  0  0  0  0  0  0  0  0
  -25.9429  -31.0785   26.8540 C   0  0  0  0  0  0  0  0  0  0  0  0
  -28.3253  -24.6604   26.9112 C   0  0  0  0  0  0  0  0  0  0  0  0
  -28.3794  -23.1842   23.1807 C   0  0  0  0  0  0  0  0  0  0  0  0
  -27.8809  -24.9119   17.8425 C   0  0  0  0  0  0  0  0  0  0  0  0
  -27.1805  -25.4073   19.0980 C   0  0  0  0  0  0  0  0  0  1  0  0
  -28.3483  -23.4717   17.9824 C   0  0  0  0  0  0  0  0  0  0  0  0
  -26.4467  -29.0383   25.4484 C   0  0  1  0  0  0  0  0  0  0  0  0
  -28.9317  -27.0168   27.4753 C   0  0  2  0  0  0  0  0  0  0  0  0
  -26.4680  -30.5925   25.4855 C   0  0  0  0  0  0  0  0  0  0  0  0
  -25.0024  -16.3449   19.4894 N   0  0  0  0  0  0  0  0  0  0  0  0
  -30.4598  -17.5312   19.5758 N   0  0  0  0  0  0  0  0  0  0  0  0
  -24.9270  -17.6124   19.0493 N   0  0  0  0  0  0  0  0  0  0  0  0
  -28.3085  -17.9148   17.2896 N   0  0  0  0  0  0  0  0  0  0  0  0
  -24.5962  -27.6953   24.5018 N   0  0  0  0  0  0  0  0  0  0  0  0
  -23.6606  -19.6052   19.2382 N   0  0  0  0  0  0  0  0  0  0  0  0
  -21.5205  -16.7450   22.0013 N   0  0  0  0  0  0  0  0  0  0  0  0
  -21.1008  -28.0960   23.5439 N   0  0  0  0  0  0  0  0  0  0  0  0
  -27.2350  -28.4046   26.4999 N   0  0  0  0  0  0  0  0  0  0  0  0
  -29.4022  -25.6170   27.2747 N   0  3  0  0  0  0  0  0  0  0  0  0
  -21.5071  -18.8755   21.1531 O   0  0  0  0  0  0  0  0  0  0  0  0
  -30.4330  -18.8065   16.8219 O   0  0  0  0  0  0  0  0  0  0  0  0
  -23.0977  -29.1994   23.0777 O   0  0  0  0  0  0  0  0  0  0  0  0
  -24.3888  -28.7220   26.5849 O   0  0  0  0  0  0  0  0  0  0  0  0
  -28.6287  -27.2067   25.0858 O   0  0  0  0  0  0  0  0  0  0  0  0
  -22.9356  -11.4499   22.9990 O   0  0  0  0  0  0  0  0  0  0  0  0
  -28.6693  -23.2997   21.7892 O   0  0  0  0  0  0  0  0  0  0  0  0
  -26.0266  -24.6084   19.3561 O   0  0  0  0  0  0  0  0  0  1  0  0
  -29.2576  -23.3630   19.0692 O   0  0  0  0  0  0  0  0  0  0  0  0
  -23.1997   -6.7832   20.0739 F   0  0  0  0  0  0  0  0  0  0  0  0
  -20.7319   -9.7975   22.7626 F   0  0  0  0  0  0  0  0  0  0  0  0
  1  2  1  0  0  0  0
  1  5  2  0  0  0  0
  2  6  2  0  0  0  0
  3  8  2  0  0  0  0
  3 17  1  0  0  0  0
  4  9  1  0  0  0  0
  4 17  2  0  0  0  0
  5 21  1  0  0  0  0
  6 23  1  0  0  0  0
  7 10  2  0  0  0  0
  7 22  1  0  0  0  0
  8 25  1  0  0  0  0
  9 25  2  0  0  0  0
 10 26  1  0  0  0  0
 11 12  2  0  0  0  0
 11 27  1  0  0  0  0
 12 30  1  0  0  0  0
 13 18  1  0  0  0  0
 13 28  2  0  0  0  0
 14 19  1  0  0  0  0
 14 29  2  0  0  0  0
 15 24  1  0  0  0  0
 15 26  2  0  0  0  0
 16 30  2  0  0  0  0
 16 31  1  0  0  0  0
 17 32  1  0  0  0  0
 18 19  2  0  0  0  0
 18 34  1  0  0  0  0
 19 36  1  0  0  0  0
 20 32  1  0  0  0  0
 20 33  2  0  0  0  0
 20 37  1  0  0  0  0
 21 23  2  0  0  0  0
 21 42  1  0  0  0  0
 22 24  2  0  0  0  0
 22 43  1  0  0  0  0
 23 51  1  0  0  0  0
 24 44  1  0  0  0  0
 25 82  1  0  0  0  0
 26 84  1  0  0  0  0
 27 31  2  0  0  0  0
 27 82  1  0  0  0  0
 28 29  1  0  0  0  0
 28 83  1  0  0  0  0
 29 85  1  0  0  0  0
 30 86  1  0  0  0  0
 31 87  1  0  0  0  0
 32 67  2  0  0  0  0
 33 69  1  0  0  0  0
 33 72  1  0  0  0  0
 34 35  2  0  0  0  0
 35 54  1  0  0  0  0
 36 38  1  0  0  0  0
 36 68  2  0  0  0  0
 37 73  1  0  0  0  0
 37 77  2  0  0  0  0
 38 70  1  0  0  0  0
 38 78  2  0  0  0  0
 39 52  1  0  0  0  0
 39 74  1  0  0  0  0
 39 79  2  0  0  0  0
 40 64  1  0  0  0  0
 40 71  1  0  0  0  0
 40 80  2  0  0  0  0
 41 65  1  0  0  0  0
 41 75  1  0  0  0  0
 41 81  2  0  0  0  0
 42 45  1  0  0  0  0
 43 52  1  0  0  0  0
 44 71  1  0  0  0  0
 45 47  1  0  0  0  0
 46 48  1  0  0  0  0
 46 49  1  0  0  0  0
 47 51  1  0  0  0  0
 48 53  1  0  0  0  0
 49 70  1  0  0  0  0
 50 53  1  0  0  0  0
 50 70  1  0  0  0  0
 51 74  1  0  0  0  0
 52 71  1  0  0  0  0
 53 69  1  0  0  0  0
 55 65  1  0  0  0  0
 56 66  1  0  0  0  0
 57 66  1  0  0  0  0
 58 66  1  0  0  0  0
 59 76  1  0  0  0  0
 60 83  1  0  0  0  0
 61 62  1  0  0  0  0
 61 63  1  0  0  0  0
 62 84  1  0  0  0  0
 63 85  1  0  0  0  0
 64 66  1  0  0  0  0
 64 75  1  0  0  0  0
 65 76  1  0  0  0  0
 67 69  1  0  0  0  0
M  CHG  1  76   1
M  ISO  4  36 100  38 100  62 101  84 101
M  END
> <Batch ID>
0107

> <Smiles>
CC=Cc1cc(OC)c(OCC[101CH2:1][101O:1]c2ccc3c(c2)CN(C(=O)C(NC(=O)C(C)NC)C(C)(C)C)C(C(=O)NC2CCCc4ccccc42)C3)cc1[100C:0](=N)[100C:0](=O)N1CCCC(n2nc(-c3ccc(Oc4ccc(F)cc4F)cc3)c(C(N)=O)c2N)C1

> <Shape>
0.229

> <Color>
0.087

> <Negative vol penalty>
0.000

$$$$

  -OEChem-04052301173D

 85 93  0     1  0  0  0  0  0999 V2000
  -26.3829  -37.6449   20.2251 C   0  0  0  0  0  0  0  0  0  0  0  0
  -26.9698  -36.4340   19.8721 C   0  0  0  0  0  0  0  0  0  0  0  0
  -22.7425  -12.0613   19.4630 C   0  0  0  0  0  0  0  0  0  0  0  0
  -23.6606   -9.9182   18.8294 C   0  0  0  0  0  0  0  0  0  0  0  0
  -25.6348  -37.7400   21.3978 C   0  0  0  0  0  0  0  0  0  0  0  0
  -26.8098  -35.3176   20.6922 C   0  0  0  0  0  0  0  0  0  0  0  0
  -26.3297  -29.4783   18.9095 C   0  0  0  0  0  0  0  0  0  0  0  0
  -28.1592  -19.9654   21.1638 C   0  0  0  0  0  0  0  0  0  0  0  0
  -29.5620  -19.4337   19.2700 C   0  0  0  0  0  0  0  0  0  0  0  0
  -28.0991  -18.6128   21.4991 C   0  0  0  0  0  0  0  0  0  0  0  0
  -29.5019  -18.0810   19.6053 C   0  0  0  0  0  0  0  0  0  0  0  0
  -21.7700  -11.9380   18.4708 C   0  0  0  0  0  0  0  0  0  0  0  0
  -22.6880   -9.7949   17.8372 C   0  0  0  0  0  0  0  0  0  0  0  0
  -27.2562  -28.4387   18.8431 C   0  0  0  0  0  0  0  0  0  0  0  0
  -18.8240  -12.0225   16.3426 C   0  0  0  0  0  0  0  0  0  0  0  0
  -17.5096  -12.3456   16.6792 C   0  0  0  0  0  0  0  0  0  0  0  0
  -26.5178  -27.6509   21.0003 C   0  0  0  0  0  0  0  0  0  0  0  0
  -17.5236  -10.6300   18.3803 C   0  0  0  0  0  0  0  0  0  0  0  0
  -23.6879  -11.0514   19.6423 C   0  0  0  0  0  0  0  0  0  0  0  0
  -24.6045  -10.7451   22.0031 C   0  0  0  0  0  0  0  0  0  0  0  0
  -25.4575  -36.6218   22.2278 C   0  0  0  0  0  0  0  0  0  0  0  0
  -25.4964  -29.6187   20.0286 C   0  0  0  0  0  0  0  0  0  0  0  0
  -26.0598  -35.3982   21.8778 C   0  0  0  0  0  0  0  0  0  0  0  0
  -25.5797  -28.6917   21.0773 C   0  0  0  0  0  0  0  0  0  0  0  0
  -28.8906  -20.3759   20.0492 C   0  0  0  0  0  0  0  0  0  0  0  0
  -28.7705  -17.6706   20.7199 C   0  0  0  0  0  0  0  0  0  0  0  0
  -21.7426  -10.8048   17.6579 C   0  0  0  0  0  0  0  0  0  0  0  0
  -27.3524  -27.5264   19.8899 C   0  0  0  0  0  0  0  0  0  0  0  0
  -19.4883  -11.0031   17.0247 C   0  0  0  0  0  0  0  0  0  0  0  0
  -16.8594  -11.6494   17.6981 C   0  0  0  0  0  0  0  0  0  0  0  0
  -18.8381  -10.3069   18.0436 C   0  0  0  0  0  0  0  0  0  0  0  0
  -24.6932  -11.1784   20.6667 C   0  0  0  0  0  0  0  0  0  0  0  0
  -25.8104  -11.0965   22.5588 C   0  0  0  0  0  0  0  0  0  0  0  0
  -23.5283  -10.0840   22.6817 C   0  0  0  0  0  0  0  0  0  0  0  0
  -25.0800  -31.8549   22.2489 C   0  0  0  0  0  0  0  0  0  0  0  0
  -28.5637  -24.1072   19.8212 C   0  0  0  0  0  0  0  0  0  0  0  0
  -22.6256  -29.9402   23.1611 C   0  0  0  0  0  0  0  0  0  0  0  0
  -21.2489  -26.8177   23.2057 C   0  0  0  0  0  0  0  0  0  0  0  0
  -29.7737  -15.3933   20.7698 C   0  0  0  0  0  0  0  0  0  0  0  0
  -24.6798  -36.7852   23.5096 C   0  0  0  0  0  0  0  0  0  0  0  0
  -24.4836  -30.7299   20.0729 C   0  0  0  0  0  0  0  0  0  0  0  0
  -24.6940  -28.7864   22.2917 C   0  0  0  0  0  0  0  0  0  0  0  0
  -24.2460  -35.4605   24.1319 C   0  0  0  0  0  0  0  0  0  0  0  0
  -30.3975  -11.8179   21.4313 C   0  0  0  0  0  0  0  0  0  0  0  0
  -25.4088  -34.4734   24.1508 C   0  0  0  0  0  0  0  0  0  0  0  0
  -28.9983  -11.2089   21.3581 C   0  0  0  0  0  0  0  0  0  0  0  0
  -30.5289  -13.0457   20.5350 C   0  0  0  0  0  0  0  0  0  0  0  0
  -28.0992  -13.4834   20.7226 C   0  0  0  0  0  0  0  0  0  0  0  0
  -25.8884  -34.1586   22.7287 C   0  0  1  0  0  0  0  0  0  0  0  0
  -24.0408  -31.0785   21.4906 C   0  0  1  0  0  0  0  0  0  0  0  0
  -27.9223  -12.2698   21.6477 C   0  0  1  0  0  0  0  0  0  0  0  0
  -25.1391  -15.3952   22.1829 C   0  0  0  0  0  0  0  0  0  0  0  0
  -19.2548  -25.5561   24.0596 C   0  0  0  0  0  0  0  0  0  0  0  0
  -23.8184  -29.9603   25.9695 C   0  0  0  0  0  0  0  0  0  0  0  0
  -22.3837  -27.9830   26.5175 C   0  0  0  0  0  0  0  0  0  0  0  0
  -21.3262  -30.1543   25.8932 C   0  0  0  0  0  0  0  0  0  0  0  0
  -20.3969  -26.0821   20.4686 C   0  0  0  0  0  0  0  0  0  0  0  0
  -28.2871  -22.7621   20.4584 C   0  0  0  0  0  0  0  0  0  0  0  0
  -27.9191  -25.2992   20.5016 C   0  0  0  0  0  0  0  0  0  1  0  0
  -26.2688  -15.8410   21.2650 C   0  0  0  0  0  0  0  0  0  0  0  0
  -27.6297  -15.8158   21.9506 C   0  0  0  0  0  0  0  0  0  0  0  0
  -22.4733  -28.7764   24.1106 C   0  0  1  0  0  0  0  0  0  0  0  0
  -19.8457  -26.3310   22.8921 C   0  0  2  0  0  0  0  0  0  0  0  0
  -22.5186  -29.2176   25.6008 C   0  0  0  0  0  0  0  0  0  0  0  0
  -25.8630  -11.7607   20.3900 N   0  0  0  0  0  0  0  0  0  0  0  0
  -26.5204  -11.6959   21.5603 N   0  0  0  0  0  0  0  0  0  0  0  0
  -23.7241  -29.8940   22.2911 N   0  0  0  0  0  0  0  0  0  0  0  0
  -29.4675  -14.0179   20.7993 N   0  0  0  0  0  0  0  0  0  0  0  0
  -26.3222  -10.9482   23.7991 N   0  0  0  0  0  0  0  0  0  0  0  0
  -22.3604   -9.7974   21.9618 N   0  0  0  0  0  0  0  0  0  0  0  0
  -28.9490  -21.7211   19.7144 N   0  0  0  0  0  0  0  0  0  0  0  0
  -24.9886  -33.2241   22.0871 N   0  0  0  0  0  0  0  0  0  0  0  0
  -21.2422  -28.0945   23.7264 N   0  0  0  0  0  0  0  0  0  0  0  0
  -28.7083  -16.2705   21.0671 N   0  0  0  0  0  0  0  0  0  0  0  0
  -19.8613  -25.4408   21.6969 N   0  3  0  0  0  0  0  0  0  0  0  0
  -23.5939   -9.7719   23.8948 O   0  0  0  0  0  0  0  0  0  0  0  0
  -25.9028  -31.2560   22.9315 O   0  0  0  0  0  0  0  0  0  0  0  0
  -29.2633  -24.2367   18.8174 O   0  0  0  0  0  0  0  0  0  0  0  0
  -21.7962  -30.8530   23.1854 O   0  0  0  0  0  0  0  0  0  0  0  0
  -22.2506  -26.1324   23.0120 O   0  0  0  0  0  0  0  0  0  0  0  0
  -30.9152  -15.8025   20.5267 O   0  0  0  0  0  0  0  0  0  0  0  0
  -20.7936  -10.6841   16.6898 O   0  0  0  0  0  0  0  0  0  0  0  0
  -28.2563  -26.5111   19.8279 O   0  0  0  0  0  0  0  0  0  1  0  0
  -15.5976  -11.9607   18.0224 F   0  0  0  0  0  0  0  0  0  0  0  0
  -19.4715   -9.3274   18.7033 F   0  0  0  0  0  0  0  0  0  0  0  0
  1  2  1  0  0  0  0
  1  5  2  0  0  0  0
  2  6  2  0  0  0  0
  3 12  2  0  0  0  0
  3 19  1  0  0  0  0
  4 13  1  0  0  0  0
  4 19  2  0  0  0  0
  5 21  1  0  0  0  0
  6 23  1  0  0  0  0
  7 14  2  0  0  0  0
  7 22  1  0  0  0  0
  8 10  2  0  0  0  0
  8 25  1  0  0  0  0
  9 11  1  0  0  0  0
  9 25  2  0  0  0  0
 10 26  1  0  0  0  0
 11 26  2  0  0  0  0
 12 27  1  0  0  0  0
 13 27  2  0  0  0  0
 14 28  1  0  0  0  0
 15 16  2  0  0  0  0
 15 29  1  0  0  0  0
 16 30  1  0  0  0  0
 17 24  1  0  0  0  0
 17 28  2  0  0  0  0
 18 30  2  0  0  0  0
 18 31  1  0  0  0  0
 19 32  1  0  0  0  0
 20 32  1  0  0  0  0
 20 33  2  0  0  0  0
 20 34  1  0  0  0  0
 21 23  2  0  0  0  0
 21 40  1  0  0  0  0
 22 24  2  0  0  0  0
 22 41  1  0  0  0  0
 23 49  1  0  0  0  0
 24 42  1  0  0  0  0
 25 71  1  0  0  0  0
 26 74  1  0  0  0  0
 27 82  1  0  0  0  0
 28 83  1  0  0  0  0
 29 31  2  0  0  0  0
 29 82  1  0  0  0  0
 30 84  1  0  0  0  0
 31 85  1  0  0  0  0
 32 65  2  0  0  0  0
 33 66  1  0  0  0  0
 33 69  1  0  0  0  0
 34 70  1  0  0  0  0
 34 76  2  0  0  0  0
 35 50  1  0  0  0  0
 35 72  1  0  0  0  0
 35 77  2  0  0  0  0
 36 58  1  0  0  0  0
 36 59  1  0  0  0  0
 36 78  2  0  0  0  0
 37 62  1  0  0  0  0
 37 67  1  0  0  0  0
 37 79  2  0  0  0  0
 38 63  1  0  0  0  0
 38 73  1  0  0  0  0
 38 80  2  0  0  0  0
 39 68  1  0  0  0  0
 39 74  1  0  0  0  0
 39 81  2  0  0  0  0
 40 43  1  0  0  0  0
 41 50  1  0  0  0  0
 42 67  1  0  0  0  0
 43 45  1  0  0  0  0
 44 46  1  0  0  0  0
 44 47  1  0  0  0  0
 45 49  1  0  0  0  0
 46 51  1  0  0  0  0
 47 68  1  0  0  0  0
 48 51  1  0  0  0  0
 48 68  1  0  0  0  0
 49 72  1  0  0  0  0
 50 67  1  0  0  0  0
 51 66  1  0  0  0  0
 52 60  1  0  0  0  0
 53 63  1  0  0  0  0
 54 64  1  0  0  0  0
 55 64  1  0  0  0  0
 56 64  1  0  0  0  0
 57 75  1  0  0  0  0
 58 71  1  0  0  0  0
 59 83  1  0  0  0  0
 60 61  1  0  0  0  0
 61 74  1  0  0  0  0
 62 64  1  0  0  0  0
 62 73  1  0  0  0  0
 63 75  1  0  0  0  0
 65 66  1  0  0  0  0
M  CHG  1  75   1
M  ISO  4  39 100  59 101  74 100  83 101
M  END
> <Batch ID>
0107

> <Smiles>
CCC[100N:0](c1ccc(NCC(=O)[101CH2:1][101O:1]c2ccc3c(c2)CN(C(=O)C(NC(=O)C(C)NC)C(C)(C)C)C(C(=O)NC2CCCc4ccccc42)C3)cc1)[100C:0](=O)N1CCCC(n2nc(-c3ccc(Oc4ccc(F)cc4F)cc3)c(C(N)=O)c2N)C1

> <Shape>
0.287

> <Color>
0.078

> <Negative vol penalty>
0.000

$$$$

  -OEChem-04052301173D

 90 99  0     1  0  0  0  0  0999 V2000
  -26.7576  -28.8188   27.4668 C   0  0  0  0  0  0  0  0  0  0  0  0
  -27.5926  -28.2802   26.4931 C   0  0  0  0  0  0  0  0  0  0  0  0
  -23.0542   -9.9332   19.9067 C   0  0  0  0  0  0  0  0  0  0  0  0
  -23.8610   -9.8418   22.1822 C   0  0  0  0  0  0  0  0  0  0  0  0
  -25.3849  -28.5798   27.4163 C   0  0  0  0  0  0  0  0  0  0  0  0
  -27.0554  -27.5013   25.4688 C   0  0  0  0  0  0  0  0  0  0  0  0
  -28.9849  -27.2141   19.6636 C   0  0  0  0  0  0  0  0  0  0  0  0
  -22.3102   -8.7735   20.1239 C   0  0  0  0  0  0  0  0  0  0  0  0
  -23.1169   -8.6821   22.3994 C   0  0  0  0  0  0  0  0  0  0  0  0
  -29.8014  -26.3064   18.9904 C   0  0  0  0  0  0  0  0  0  0  0  0
  -19.8981   -7.8723   23.0348 C   0  0  0  0  0  0  0  0  0  0  0  0
  -19.1651   -7.7865   24.2184 C   0  0  0  0  0  0  0  0  0  0  0  0
  -30.6668  -19.8301   21.6922 C   0  0  0  0  0  0  0  0  0  0  0  0
  -27.8433  -25.1358   18.2064 C   0  0  0  0  0  0  0  0  0  0  0  0
  -31.1815  -17.6819   20.7137 C   0  0  0  0  0  0  0  0  0  0  0  0
  -20.4122   -5.8154   24.8479 C   0  0  0  0  0  0  0  0  0  0  0  0
  -23.8297  -10.4673   20.9359 C   0  0  0  0  0  0  0  0  0  0  0  0
  -29.7788  -19.2154   22.5748 C   0  0  0  0  0  0  0  0  0  0  0  0
  -24.1808  -12.9939   20.9139 C   0  0  0  0  0  0  0  0  0  0  0  0
  -24.8295  -27.8057   26.3854 C   0  0  0  0  0  0  0  0  0  0  0  0
  -27.5894  -27.0828   19.6222 C   0  0  0  0  0  0  0  0  0  0  0  0
  -25.6741  -27.2507   25.4052 C   0  0  0  0  0  0  0  0  0  0  0  0
  -27.0113  -26.0446   18.8778 C   0  0  0  0  0  0  0  0  0  0  0  0
  -31.3682  -19.0634   20.7616 C   0  0  0  0  0  0  0  0  0  0  0  0
  -30.2935  -17.0671   21.5964 C   0  0  0  0  0  0  0  0  0  0  0  0
  -22.3415   -8.1480   21.3702 C   0  0  0  0  0  0  0  0  0  0  0  0
  -29.2307  -25.2653   18.2640 C   0  0  0  0  0  0  0  0  0  0  0  0
  -20.8881   -6.9295   22.7577 C   0  0  0  0  0  0  0  0  0  0  0  0
  -29.5921  -17.8339   22.5270 C   0  0  0  0  0  0  0  0  0  0  0  0
  -19.4221   -6.7581   25.1250 C   0  0  0  0  0  0  0  0  0  0  0  0
  -21.1451   -5.9011   23.6643 C   0  0  0  0  0  0  0  0  0  0  0  0
  -24.5989  -11.6649   20.7120 C   0  0  0  0  0  0  0  0  0  0  0  0
  -25.2688  -13.7537   20.5596 C   0  0  0  0  0  0  0  0  0  0  0  0
  -31.2629  -21.7664   18.7728 C   0  0  0  0  0  0  0  0  0  0  0  0
  -29.0588  -20.0402   23.5362 C   0  0  0  0  0  0  0  0  0  0  0  0
  -28.2317  -21.0650   23.2348 C   0  0  0  0  0  0  0  0  0  0  0  0
  -22.9216  -13.4968   21.3800 C   0  0  0  0  0  0  0  0  0  0  0  0
  -25.3182  -26.5816   21.7887 C   0  0  0  0  0  0  0  0  0  0  0  0
  -23.3437  -27.0602   19.2600 C   0  0  0  0  0  0  0  0  0  0  0  0
  -22.9053  -27.0079   15.8759 C   0  0  0  0  0  0  0  0  0  0  0  0
  -30.7423  -14.7701   20.6646 C   0  0  0  0  0  0  0  0  0  0  0  0
  -23.3457  -27.5355   26.3993 C   0  0  0  0  0  0  0  0  0  0  0  0
  -26.7219  -28.0859   20.3318 C   0  0  0  0  0  0  0  0  0  0  0  0
  -25.5180  -25.8717   18.7850 C   0  0  0  0  0  0  0  0  0  0  0  0
  -22.8098  -27.0105   25.0698 C   0  0  0  0  0  0  0  0  0  0  0  0
  -29.5683  -12.4613   18.2216 C   0  0  0  0  0  0  0  0  0  0  0  0
  -23.7085  -25.9013   24.5325 C   0  0  0  0  0  0  0  0  0  0  0  0
  -28.1364  -12.1576   18.6683 C   0  0  0  0  0  0  0  0  0  0  0  0
  -30.3194  -20.7066   16.8550 C   0  0  0  0  0  0  0  0  0  0  0  0
  -30.5089  -12.6363   19.4125 C   0  0  0  0  0  0  0  0  0  0  0  0
  -31.3385  -19.7795   17.4902 C   0  0  0  0  0  0  0  0  0  0  0  0
  -28.6340  -13.3100   20.8618 C   0  0  0  0  0  0  0  0  0  0  0  0
  -25.1260  -26.4212   24.2642 C   0  0  1  0  0  0  0  0  0  0  0  0
  -30.6971  -22.0859   17.4004 C   0  0  1  0  0  0  0  0  0  0  0  0
  -25.3263  -27.5543   20.6436 C   0  0  1  0  0  0  0  0  0  0  0  0
  -27.6365  -13.1896   19.6981 C   0  0  2  0  0  0  0  0  0  0  0  0
  -27.5201  -21.8911   24.2566 C   0  0  0  0  0  0  0  0  0  0  0  0
  -21.1712  -27.4124   14.1077 C   0  0  0  0  0  0  0  0  0  0  0  0
  -22.0331  -24.3894   19.9378 C   0  0  0  0  0  0  0  0  0  0  0  0
  -21.0030  -24.3951   17.6558 C   0  0  0  0  0  0  0  0  0  0  0  0
  -20.4358  -26.1989   19.2829 C   0  0  0  0  0  0  0  0  0  0  0  0
  -24.4977  -29.1788   14.6469 C   0  0  0  0  0  0  0  0  0  0  0  0
  -27.3725  -17.0960   22.9565 C   0  0  0  0  0  0  0  0  0  0  0  0
  -32.3244  -19.7249   19.8117 C   0  0  0  0  0  0  0  0  0  0  0  0
  -29.5271  -23.0492   17.4536 C   0  0  0  0  0  0  0  0  0  1  0  0
  -22.7230  -26.1756   18.2058 C   0  0  1  0  0  0  0  0  0  0  0  0
  -22.3007  -28.0229   14.9227 C   0  0  2  0  0  0  0  0  0  0  0  0
  -21.5769  -25.2916   18.7737 C   0  0  0  0  0  0  0  0  0  0  0  0
  -25.8544  -11.5817   20.2641 N   0  0  0  0  0  0  0  0  0  0  0  0
  -26.2347  -12.8681   20.1814 N   0  0  0  0  0  0  0  0  0  0  0  0
  -31.6352  -20.4233   18.7485 N   0  0  0  0  0  0  0  0  0  0  0  0
  -24.7123  -26.8743   19.5013 N   0  0  0  0  0  0  0  0  0  0  0  0
  -29.9728  -13.6319   20.3433 N   0  0  0  0  0  0  0  0  0  0  0  0
  -25.4839  -15.0862   20.5376 N   0  0  0  0  0  0  0  0  0  0  0  0
  -21.9126  -12.5782   21.7001 N   0  0  0  0  0  0  0  0  0  0  0  0
  -30.1162  -15.6627   21.5339 N   0  0  0  0  0  0  0  0  0  0  0  0
  -25.1632  -27.1728   23.0281 N   0  0  0  0  0  0  0  0  0  0  0  0
  -22.3135  -27.0600   17.1202 N   0  0  0  0  0  0  0  0  0  0  0  0
  -23.3380  -28.5313   13.9812 N   0  3  0  0  0  0  0  0  0  0  0  0
  -31.3994  -22.5681   19.6849 O   0  0  0  0  0  0  0  0  0  0  0  0
  -22.6924  -14.7248   21.4933 O   0  0  0  0  0  0  0  0  0  0  0  0
  -25.4418  -25.3832   21.5644 O   0  0  0  0  0  0  0  0  0  0  0  0
  -22.6417  -27.8905   19.8426 O   0  0  0  0  0  0  0  0  0  0  0  0
  -23.8095  -26.2425   15.5482 O   0  0  0  0  0  0  0  0  0  0  0  0
  -31.8624  -14.9538   20.1811 O   0  0  0  0  0  0  0  0  0  0  0  0
  -21.6154   -7.0165   21.5825 O   0  0  0  0  0  0  0  0  0  0  0  0
  -28.7237  -17.2264   23.3886 O   0  0  0  0  0  0  0  0  0  0  0  0
  -30.0253  -24.3776   17.6065 O   0  0  0  0  0  0  0  0  0  1  0  0
  -18.7192   -6.6768   26.2623 F   0  0  0  0  0  0  0  0  0  0  0  0
  -22.0958   -4.9931   23.4041 F   0  0  0  0  0  0  0  0  0  0  0  0
  1  2  1  0  0  0  0
  1  5  2  0  0  0  0
  2  6  2  0  0  0  0
  3  8  2  0  0  0  0
  3 17  1  0  0  0  0
  4  9  1  0  0  0  0
  4 17  2  0  0  0  0
  5 20  1  0  0  0  0
  6 22  1  0  0  0  0
  7 10  2  0  0  0  0
  7 21  1  0  0  0  0
  8 26  1  0  0  0  0
  9 26  2  0  0  0  0
 10 27  1  0  0  0  0
 11 12  2  0  0  0  0
 11 28  1  0  0  0  0
 12 30  1  0  0  0  0
 13 18  1  0  0  0  0
 13 24  2  0  0  0  0
 14 23  1  0  0  0  0
 14 27  2  0  0  0  0
 15 24  1  0  0  0  0
 15 25  2  0  0  0  0
 16 30  2  0  0  0  0
 16 31  1  0  0  0  0
 17 32  1  0  0  0  0
 18 29  2  0  0  0  0
 18 35  1  0  0  0  0
 19 32  1  0  0  0  0
 19 33  2  0  0  0  0
 19 37  1  0  0  0  0
 20 22  2  0  0  0  0
 20 42  1  0  0  0  0
 21 23  2  0  0  0  0
 21 43  1  0  0  0  0
 22 53  1  0  0  0  0
 23 44  1  0  0  0  0
 24 64  1  0  0  0  0
 25 29  1  0  0  0  0
 25 76  1  0  0  0  0
 26 86  1  0  0  0  0
 27 88  1  0  0  0  0
 28 31  2  0  0  0  0
 28 86  1  0  0  0  0
 29 87  1  0  0  0  0
 30 89  1  0  0  0  0
 31 90  1  0  0  0  0
 32 69  2  0  0  0  0
 33 70  1  0  0  0  0
 33 74  1  0  0  0  0
 34 54  1  0  0  0  0
 34 71  1  0  0  0  0
 34 80  2  0  0  0  0
 35 36  2  0  0  0  0
 36 57  1  0  0  0  0
 37 75  1  0  0  0  0
 37 81  2  0  0  0  0
 38 55  1  0  0  0  0
 38 77  1  0  0  0  0
 38 82  2  0  0  0  0
 39 66  1  0  0  0  0
 39 72  1  0  0  0  0
 39 83  2  0  0  0  0
 40 67  1  0  0  0  0
 40 78  1  0  0  0  0
 40 84  2  0  0  0  0
 41 73  1  0  0  0  0
 41 76  1  0  0  0  0
 41 85  2  0  0  0  0
 42 45  1  0  0  0  0
 43 55  1  0  0  0  0
 44 72  1  0  0  0  0
 45 47  1  0  0  0  0
 46 48  1  0  0  0  0
 46 50  1  0  0  0  0
 47 53  1  0  0  0  0
 48 56  1  0  0  0  0
 49 51  1  0  0  0  0
 49 54  1  0  0  0  0
 50 73  1  0  0  0  0
 51 71  1  0  0  0  0
 52 56  1  0  0  0  0
 52 73  1  0  0  0  0
 53 77  1  0  0  0  0
 54 65  1  0  0  0  0
 55 72  1  0  0  0  0
 56 70  1  0  0  0  0
 58 67  1  0  0  0  0
 59 68  1  0  0  0  0
 60 68  1  0  0  0  0
 61 68  1  0  0  0  0
 62 79  1  0  0  0  0
 63 87  1  0  0  0  0
 64 71  1  0  0  0  0
 65 88  1  0  0  0  0
 66 68  1  0  0  0  0
 66 78  1  0  0  0  0
 67 79  1  0  0  0  0
 69 70  1  0  0  0  0
M  CHG  1  79   1
M  ISO  4  41 100  65 101  76 100  88 101
M  END
> <Batch ID>
0107

> <Smiles>
CC=Cc1cc(CN2CCC([101CH2:1][101O:1]c3ccc4c(c3)CN(C(=O)C(NC(=O)C(C)NC)C(C)(C)C)C(C(=O)NC3CCCc5ccccc53)C4)C2=O)cc([100NH:0][100C:0](=O)N2CCCC(n3nc(-c4ccc(Oc5ccc(F)cc5F)cc4)c(C(N)=O)c3N)C2)c1OC

> <Shape>
0.262

> <Color>
0.186

> <Negative vol penalty>
0.000

$$$$

  -OEChem-04052301173D

 86 94  0     1  0  0  0  0  0999 V2000
  -31.6745  -29.3975   14.7975 C   0  0  0  0  0  0  0  0  0  0  0  0
  -31.1940  -28.1598   15.2131 C   0  0  0  0  0  0  0  0  0  0  0  0
  -22.8883  -10.2310   20.1791 C   0  0  0  0  0  0  0  0  0  0  0  0
  -24.2003   -9.3929   22.0266 C   0  0  0  0  0  0  0  0  0  0  0  0
  -31.3135  -30.5525   15.4900 C   0  0  0  0  0  0  0  0  0  0  0  0
  -30.3530  -28.0763   16.3222 C   0  0  0  0  0  0  0  0  0  0  0  0
  -26.3924  -25.0213   15.5316 C   0  0  0  0  0  0  0  0  0  0  0  0
  -22.1158   -9.0698   20.2010 C   0  0  0  0  0  0  0  0  0  0  0  0
  -23.4278   -8.2317   22.0485 C   0  0  0  0  0  0  0  0  0  0  0  0
  -26.6214  -23.6484   15.6110 C   0  0  0  0  0  0  0  0  0  0  0  0
  -20.3923   -7.2826   23.1909 C   0  0  0  0  0  0  0  0  0  0  0  0
  -19.9565   -6.8192   24.4323 C   0  0  0  0  0  0  0  0  0  0  0  0
  -30.1401  -17.1146   21.0563 C   0  0  0  0  0  0  0  0  0  0  0  0
  -25.7161  -23.6327   17.8469 C   0  0  0  0  0  0  0  0  0  0  0  0
  -28.5780  -17.5905   23.3181 C   0  0  0  0  0  0  0  0  0  0  0  0
  -21.1348   -4.7413   24.0703 C   0  0  0  0  0  0  0  0  0  0  0  0
  -23.9306  -10.3925   21.0919 C   0  0  0  0  0  0  0  0  0  0  0  0
  -30.0286  -16.1371   22.0451 C   0  0  0  0  0  0  0  0  0  0  0  0
  -24.4924  -12.7842   21.7790 C   0  0  0  0  0  0  0  0  0  0  0  0
  -30.4599  -30.4842   16.6023 C   0  0  0  0  0  0  0  0  0  0  0  0
  -25.8325  -25.7134   16.6152 C   0  0  0  0  0  0  0  0  0  0  0  0
  -29.9813  -29.2314   17.0311 C   0  0  0  0  0  0  0  0  0  0  0  0
  -25.4785  -25.0140   17.7778 C   0  0  0  0  0  0  0  0  0  0  0  0
  -29.2475  -16.3751   23.1760 C   0  0  0  0  0  0  0  0  0  0  0  0
  -22.3855   -8.0701   21.1356 C   0  0  0  0  0  0  0  0  0  0  0  0
  -26.2859  -22.9544   16.7698 C   0  0  0  0  0  0  0  0  0  0  0  0
  -21.1993   -6.4753   22.3892 C   0  0  0  0  0  0  0  0  0  0  0  0
  -29.4707  -18.3301   21.1984 C   0  0  0  0  0  0  0  0  0  0  0  0
  -28.6897  -18.5680   22.3293 C   0  0  0  0  0  0  0  0  0  0  0  0
  -20.3277   -5.5486   24.8720 C   0  0  0  0  0  0  0  0  0  0  0  0
  -21.5706   -5.2046   22.8289 C   0  0  0  0  0  0  0  0  0  0  0  0
  -24.7293  -11.5916   21.0695 C   0  0  0  0  0  0  0  0  0  0  0  0
  -25.5290  -13.6099   21.4184 C   0  0  0  0  0  0  0  0  0  0  0  0
  -30.7394  -14.8774   21.8663 C   0  0  0  0  0  0  0  0  0  0  0  0
  -23.4303  -13.1159   22.6832 C   0  0  0  0  0  0  0  0  0  0  0  0
  -31.0028  -14.3281   20.5165 C   0  0  0  0  0  0  0  0  0  0  0  0
  -26.8049  -28.0673   18.5171 C   0  0  0  0  0  0  0  0  0  0  0  0
  -23.7725  -27.8777   19.6532 C   0  0  0  0  0  0  0  0  0  0  0  0
  -20.9574  -26.0004   20.0981 C   0  0  0  0  0  0  0  0  0  0  0  0
  -30.1355  -31.7546   17.3475 C   0  0  0  0  0  0  0  0  0  0  0  0
  -25.5671  -27.1897   16.5037 C   0  0  0  0  0  0  0  0  0  0  0  0
  -24.8562  -25.7069   18.9615 C   0  0  0  0  0  0  0  0  0  0  0  0
  -28.9394  -31.6215   18.2866 C   0  0  0  0  0  0  0  0  0  0  0  0
  -29.0025  -13.1563   17.7811 C   0  0  0  0  0  0  0  0  0  0  0  0
  -29.0497  -30.3447   19.1139 C   0  0  0  0  0  0  0  0  0  0  0  0
  -27.7079  -12.7067   18.4575 C   0  0  0  0  0  0  0  0  0  0  0  0
  -30.2151  -12.9002   18.6700 C   0  0  0  0  0  0  0  0  0  0  0  0
  -28.8141  -13.0734   20.7086 C   0  0  0  0  0  0  0  0  0  0  0  0
  -29.0471  -29.1027   18.2146 C   0  0  1  0  0  0  0  0  0  0  0  0
  -25.4668  -27.8827   17.8591 C   0  0  1  0  0  0  0  0  0  0  0  0
  -27.5643  -13.3416   19.8521 C   0  0  2  0  0  0  0  0  0  0  0  0
  -18.6564  -26.1058   21.0941 C   0  0  0  0  0  0  0  0  0  0  0  0
  -24.9699  -27.5849   22.4444 C   0  0  0  0  0  0  0  0  0  0  0  0
  -22.7440  -26.7567   23.2366 C   0  0  0  0  0  0  0  0  0  0  0  0
  -22.9596  -29.0675   22.3219 C   0  0  0  0  0  0  0  0  0  0  0  0
  -19.6739  -25.5203   17.4750 C   0  0  0  0  0  0  0  0  0  0  0  0
  -26.7089  -19.8300   21.9554 C   0  0  0  0  0  0  0  0  0  0  0  0
  -28.1623  -19.8553   16.7943 C   0  0  0  0  0  0  0  0  0  0  0  0
  -28.6356  -20.1678   18.2096 C   0  0  0  0  0  0  0  0  0  0  0  0
  -27.6064  -21.0926   16.1019 C   0  0  0  0  0  0  0  0  0  1  0  0
  -29.1516  -18.9230   18.9176 C   0  0  0  0  0  0  0  0  0  0  0  0
  -23.0876  -27.0940   20.7468 C   0  0  1  0  0  0  0  0  0  0  0  0
  -19.4927  -26.3044   19.8395 C   0  0  2  0  0  0  0  0  0  0  0  0
  -23.4538  -27.6128   22.1660 C   0  0  0  0  0  0  0  0  0  0  0  0
  -25.8299  -11.6503   20.3151 N   0  0  0  0  0  0  0  0  0  0  0  0
  -31.1855  -14.1624   22.8614 N   0  0  0  0  0  0  0  0  0  0  0  0
  -26.2938  -12.8899   20.5485 N   0  0  0  0  0  0  0  0  0  0  0  0
  -30.0307  -13.4847   19.9968 N   0  0  0  0  0  0  0  0  0  0  0  0
  -24.6223  -27.1521   18.8064 N   0  0  0  0  0  0  0  0  0  0  0  0
  -29.1213  -15.3984   24.1888 N   0  0  0  0  0  0  0  0  0  0  0  0
  -25.8518  -14.8744   21.7638 N   0  0  0  0  0  0  0  0  0  0  0  0
  -22.4476  -12.1508   22.9424 N   0  0  0  0  0  0  0  0  0  0  0  0
  -27.7030  -28.8043   17.7689 N   0  0  0  0  0  0  0  0  0  0  0  0
  -21.6607  -27.1344   20.4455 N   0  0  0  0  0  0  0  0  0  0  0  0
  -18.9589  -25.4112   18.7726 N   0  3  0  0  0  0  0  0  0  0  0  0
  -23.3459  -14.2407   23.2320 O   0  0  0  0  0  0  0  0  0  0  0  0
  -32.0561  -14.6785   20.0008 O   0  0  0  0  0  0  0  0  0  0  0  0
  -27.0072  -27.5785   19.6225 O   0  0  0  0  0  0  0  0  0  0  0  0
  -23.5558  -29.0876   19.5497 O   0  0  0  0  0  0  0  0  0  0  0  0
  -21.4295  -24.8695   20.0051 O   0  0  0  0  0  0  0  0  0  0  0  0
  -21.6318   -6.9370   21.1574 O   0  0  0  0  0  0  0  0  0  0  0  0
  -28.0328  -19.7519   22.4801 O   0  0  0  0  0  0  0  0  0  0  0  0
  -26.5091  -21.6144   16.8502 O   0  0  0  0  0  0  0  0  0  1  0  0
  -29.5892  -19.2833   20.2205 O   0  0  0  0  0  0  0  0  0  0  0  0
  -19.9104   -5.1044   26.0647 F   0  0  0  0  0  0  0  0  0  0  0  0
  -22.3467   -4.4250   22.0637 F   0  0  0  0  0  0  0  0  0  0  0  0
  1  2  1  0  0  0  0
  1  5  2  0  0  0  0
  2  6  2  0  0  0  0
  3  8  2  0  0  0  0
  3 17  1  0  0  0  0
  4  9  1  0  0  0  0
  4 17  2  0  0  0  0
  5 20  1  0  0  0  0
  6 22  1  0  0  0  0
  7 10  2  0  0  0  0
  7 21  1  0  0  0  0
  8 25  1  0  0  0  0
  9 25  2  0  0  0  0
 10 26  1  0  0  0  0
 11 12  2  0  0  0  0
 11 27  1  0  0  0  0
 12 30  1  0  0  0  0
 13 18  2  0  0  0  0
 13 28  1  0  0  0  0
 14 23  1  0  0  0  0
 14 26  2  0  0  0  0
 15 24  2  0  0  0  0
 15 29  1  0  0  0  0
 16 30  2  0  0  0  0
 16 31  1  0  0  0  0
 17 32  1  0  0  0  0
 18 24  1  0  0  0  0
 18 34  1  0  0  0  0
 19 32  1  0  0  0  0
 19 33  2  0  0  0  0
 19 35  1  0  0  0  0
 20 22  2  0  0  0  0
 20 40  1  0  0  0  0
 21 23  2  0  0  0  0
 21 41  1  0  0  0  0
 22 49  1  0  0  0  0
 23 42  1  0  0  0  0
 24 70  1  0  0  0  0
 25 81  1  0  0  0  0
 26 83  1  0  0  0  0
 27 31  2  0  0  0  0
 27 81  1  0  0  0  0
 28 29  2  0  0  0  0
 28 84  1  0  0  0  0
 29 82  1  0  0  0  0
 30 85  1  0  0  0  0
 31 86  1  0  0  0  0
 32 65  2  0  0  0  0
 33 67  1  0  0  0  0
 33 71  1  0  0  0  0
 34 36  1  0  0  0  0
 34 66  2  0  0  0  0
 35 72  1  0  0  0  0
 35 76  2  0  0  0  0
 36 68  1  0  0  0  0
 36 77  2  0  0  0  0
 37 50  1  0  0  0  0
 37 73  1  0  0  0  0
 37 78  2  0  0  0  0
 38 62  1  0  0  0  0
 38 69  1  0  0  0  0
 38 79  2  0  0  0  0
 39 63  1  0  0  0  0
 39 74  1  0  0  0  0
 39 80  2  0  0  0  0
 40 43  1  0  0  0  0
 41 50  1  0  0  0  0
 42 69  1  0  0  0  0
 43 45  1  0  0  0  0
 44 46  1  0  0  0  0
 44 47  1  0  0  0  0
 45 49  1  0  0  0  0
 46 51  1  0  0  0  0
 47 68  1  0  0  0  0
 48 51  1  0  0  0  0
 48 68  1  0  0  0  0
 49 73  1  0  0  0  0
 50 69  1  0  0  0  0
 51 67  1  0  0  0  0
 52 63  1  0  0  0  0
 53 64  1  0  0  0  0
 54 64  1  0  0  0  0
 55 64  1  0  0  0  0
 56 75  1  0  0  0  0
 57 82  1  0  0  0  0
 58 59  1  0  0  0  0
 58 60  1  0  0  0  0
 59 61  1  0  0  0  0
 60 83  1  0  0  0  0
 61 84  1  0  0  0  0
 62 64  1  0  0  0  0
 62 74  1  0  0  0  0
 63 75  1  0  0  0  0
 65 67  1  0  0  0  0
M  CHG  1  75   1
M  ISO  4  34 100  36 100  60 101  83 101
M  END
> <Batch ID>
0107

> <Smiles>
CNC(C)C(=O)NC(C(=O)N1Cc2cc([101O:1][101CH2:1]CCCOc3cc([100C:0](=N)[100C:0](=O)N4CCCC(n5nc(-c6ccc(Oc7ccc(F)cc7F)cc6)c(C(N)=O)c5N)C4)c(N)cc3OC)ccc2CC1C(=O)NC1CCCc2ccccc21)C(C)(C)C

> <Shape>
0.256

> <Color>
0.122

> <Negative vol penalty>
0.000

$$$$

  -OEChem-04052301173D

 84 92  0     1  0  0  0  0  0999 V2000
  -27.2385  -30.9933   12.9612 C   0  0  0  0  0  0  0  0  0  0  0  0
  -27.1264  -29.7098   13.4862 C   0  0  0  0  0  0  0  0  0  0  0  0
  -22.8517  -11.1257   19.1050 C   0  0  0  0  0  0  0  0  0  0  0  0
  -23.1050   -9.8718   21.1545 C   0  0  0  0  0  0  0  0  0  0  0  0
  -27.1713  -32.0995   13.8071 C   0  0  0  0  0  0  0  0  0  0  0  0
  -26.9481  -29.5318   14.8577 C   0  0  0  0  0  0  0  0  0  0  0  0
  -23.6504  -25.1635   17.6051 C   0  0  0  0  0  0  0  0  0  0  0  0
  -21.8347  -10.2606   18.7013 C   0  0  0  0  0  0  0  0  0  0  0  0
  -22.0880   -9.0066   20.7509 C   0  0  0  0  0  0  0  0  0  0  0  0
  -24.0053  -23.9498   18.1922 C   0  0  0  0  0  0  0  0  0  0  0  0
  -21.5818   -7.1660   17.3657 C   0  0  0  0  0  0  0  0  0  0  0  0
  -21.6097   -6.7033   16.0501 C   0  0  0  0  0  0  0  0  0  0  0  0
  -28.4076  -18.1763   19.3831 C   0  0  0  0  0  0  0  0  0  0  0  0
  -30.0904  -19.4105   20.6003 C   0  0  0  0  0  0  0  0  0  0  0  0
  -24.0560  -25.0177   20.3547 C   0  0  0  0  0  0  0  0  0  0  0  0
  -19.4468   -7.7036   15.6524 C   0  0  0  0  0  0  0  0  0  0  0  0
  -23.4869  -10.9313   20.3315 C   0  0  0  0  0  0  0  0  0  0  0  0
  -29.6841  -18.2508   19.9403 C   0  0  0  0  0  0  0  0  0  0  0  0
  -24.3992  -13.0115   21.4925 C   0  0  0  0  0  0  0  0  0  0  0  0
  -26.9825  -31.9353   15.1885 C   0  0  0  0  0  0  0  0  0  0  0  0
  -23.5060  -26.3178   18.3883 C   0  0  0  0  0  0  0  0  0  0  0  0
  -26.8797  -30.6369   15.7230 C   0  0  0  0  0  0  0  0  0  0  0  0
  -23.6967  -26.2442   19.7755 C   0  0  0  0  0  0  0  0  0  0  0  0
  -27.5374  -19.2617   19.4858 C   0  0  0  0  0  0  0  0  0  0  0  0
  -29.2202  -20.4958   20.7031 C   0  0  0  0  0  0  0  0  0  0  0  0
  -21.4529   -9.2010   19.5243 C   0  0  0  0  0  0  0  0  0  0  0  0
  -24.2110  -23.8774   19.5668 C   0  0  0  0  0  0  0  0  0  0  0  0
  -20.4863   -7.8974   17.8247 C   0  0  0  0  0  0  0  0  0  0  0  0
  -27.9437  -20.4214   20.1458 C   0  0  0  0  0  0  0  0  0  0  0  0
  -20.5422   -6.9721   15.1935 C   0  0  0  0  0  0  0  0  0  0  0  0
  -19.4188   -8.1663   16.9680 C   0  0  0  0  0  0  0  0  0  0  0  0
  -24.5378  -11.8243   20.7488 C   0  0  0  0  0  0  0  0  0  0  0  0
  -25.6815  -13.4854   21.6250 C   0  0  0  0  0  0  0  0  0  0  0  0
  -30.6105  -17.0945   19.8321 C   0  0  0  0  0  0  0  0  0  0  0  0
  -23.2170  -13.6306   22.0169 C   0  0  0  0  0  0  0  0  0  0  0  0
  -24.9485  -29.1481   18.4992 C   0  0  0  0  0  0  0  0  0  0  0  0
  -22.6335  -29.8066   20.6739 C   0  0  0  0  0  0  0  0  0  0  0  0
  -20.3860  -28.6331   22.9583 C   0  0  0  0  0  0  0  0  0  0  0  0
  -30.6907  -14.6366   19.5560 C   0  0  0  0  0  0  0  0  0  0  0  0
  -26.9635  -33.1596   16.0691 C   0  0  0  0  0  0  0  0  0  0  0  0
  -23.0966  -27.6135   17.7433 C   0  0  0  0  0  0  0  0  0  0  0  0
  -23.5344  -27.4500   20.6633 C   0  0  0  0  0  0  0  0  0  0  0  0
  -26.3976  -32.8987   17.4627 C   0  0  0  0  0  0  0  0  0  0  0  0
  -30.1290  -11.2995   20.5780 C   0  0  0  0  0  0  0  0  0  0  0  0
  -27.0033  -31.6307   18.0560 C   0  0  0  0  0  0  0  0  0  0  0  0
  -28.6131  -11.2350   20.7835 C   0  0  0  0  0  0  0  0  0  0  0  0
  -30.5026  -12.1710   19.3798 C   0  0  0  0  0  0  0  0  0  0  0  0
  -28.4117  -13.4524   19.5891 C   0  0  0  0  0  0  0  0  0  0  0  0
  -26.6607  -30.4039   17.2022 C   0  0  1  0  0  0  0  0  0  0  0  0
  -23.4797  -28.8386   18.5677 C   0  0  1  0  0  0  0  0  0  0  0  0
  -27.9876  -12.6437   20.8257 C   0  0  1  0  0  0  0  0  0  0  0  0
  -26.1754  -19.1629   18.8810 C   0  0  0  0  0  0  0  0  0  0  0  0
  -18.6614  -29.4139   24.6056 C   0  0  0  0  0  0  0  0  0  0  0  0
  -24.8512  -30.6447   22.5948 C   0  0  0  0  0  0  0  0  0  0  0  0
  -23.1926  -30.4955   24.4644 C   0  0  0  0  0  0  0  0  0  0  0  0
  -22.8389  -32.1295   22.6131 C   0  0  0  0  0  0  0  0  0  0  0  0
  -18.2197  -27.1893   21.5507 C   0  0  0  0  0  0  0  0  0  0  0  0
  -25.3635  -22.7557   21.3188 C   0  0  0  0  0  0  0  0  0  1  0  0
  -26.2365  -21.5176   21.3866 C   0  0  0  0  0  0  0  0  0  0  0  0
  -22.5010  -29.6633   22.1709 C   0  0  1  0  0  0  0  0  0  0  0  0
  -18.9178  -28.9484   23.1807 C   0  0  2  0  0  0  0  0  0  0  0  0
  -23.3509  -30.7108   22.9441 C   0  0  0  0  0  0  0  0  0  0  0  0
  -25.8080  -11.5603   20.4309 N   0  0  0  0  0  0  0  0  0  0  0  0
  -26.4792  -12.5884   20.9774 N   0  0  0  0  0  0  0  0  0  0  0  0
  -23.1392  -28.6954   19.9847 N   0  0  0  0  0  0  0  0  0  0  0  0
  -29.8792  -13.4901   19.5005 N   0  0  0  0  0  0  0  0  0  0  0  0
  -29.6464  -21.6634   21.3737 N   0  0  0  0  0  0  0  0  0  0  0  0
  -26.1934  -14.5778   22.2309 N   0  0  0  0  0  0  0  0  0  0  0  0
  -21.9810  -13.0103   21.7893 N   0  0  0  0  0  0  0  0  0  0  0  0
  -30.0021  -15.8445   19.7144 N   0  0  0  0  0  0  0  0  0  0  0  0
  -25.3002  -29.9783   17.4520 N   0  0  0  0  0  0  0  0  0  0  0  0
  -21.0725  -29.7209   22.4616 N   0  0  0  0  0  0  0  0  0  0  0  0
  -18.0839  -27.7404   22.9236 N   0  3  0  0  0  0  0  0  0  0  0  0
  -31.8213  -17.2980   19.8124 O   0  0  0  0  0  0  0  0  0  0  0  0
  -23.2539  -14.7106   22.6538 O   0  0  0  0  0  0  0  0  0  0  0  0
  -25.7063  -28.6704   19.3354 O   0  0  0  0  0  0  0  0  0  0  0  0
  -22.2939  -30.8631   20.1352 O   0  0  0  0  0  0  0  0  0  0  0  0
  -20.8758  -27.5330   23.2044 O   0  0  0  0  0  0  0  0  0  0  0  0
  -31.9238  -14.5865   19.5073 O   0  0  0  0  0  0  0  0  0  0  0  0
  -20.4604   -8.3568   19.1308 O   0  0  0  0  0  0  0  0  0  0  0  0
  -24.5582  -22.6941   20.1424 O   0  0  0  0  0  0  0  0  0  1  0  0
  -27.0862  -21.4852   20.2463 O   0  0  0  0  0  0  0  0  0  0  0  0
  -20.5699   -6.5290   13.9297 F   0  0  0  0  0  0  0  0  0  0  0  0
  -18.3642   -8.8695   17.4029 F   0  0  0  0  0  0  0  0  0  0  0  0
  1  2  1  0  0  0  0
  1  5  2  0  0  0  0
  2  6  2  0  0  0  0
  3  8  2  0  0  0  0
  3 17  1  0  0  0  0
  4  9  1  0  0  0  0
  4 17  2  0  0  0  0
  5 20  1  0  0  0  0
  6 22  1  0  0  0  0
  7 10  2  0  0  0  0
  7 21  1  0  0  0  0
  8 26  1  0  0  0  0
  9 26  2  0  0  0  0
 10 27  1  0  0  0  0
 11 12  2  0  0  0  0
 11 28  1  0  0  0  0
 12 30  1  0  0  0  0
 13 18  1  0  0  0  0
 13 24  2  0  0  0  0
 14 18  2  0  0  0  0
 14 25  1  0  0  0  0
 15 23  1  0  0  0  0
 15 27  2  0  0  0  0
 16 30  2  0  0  0  0
 16 31  1  0  0  0  0
 17 32  1  0  0  0  0
 18 34  1  0  0  0  0
 19 32  1  0  0  0  0
 19 33  2  0  0  0  0
 19 35  1  0  0  0  0
 20 22  2  0  0  0  0
 20 40  1  0  0  0  0
 21 23  2  0  0  0  0
 21 41  1  0  0  0  0
 22 49  1  0  0  0  0
 23 42  1  0  0  0  0
 24 29  1  0  0  0  0
 24 52  1  0  0  0  0
 25 29  2  0  0  0  0
 25 67  1  0  0  0  0
 26 80  1  0  0  0  0
 27 81  1  0  0  0  0
 28 31  2  0  0  0  0
 28 80  1  0  0  0  0
 29 82  1  0  0  0  0
 30 83  1  0  0  0  0
 31 84  1  0  0  0  0
 32 63  2  0  0  0  0
 33 64  1  0  0  0  0
 33 68  1  0  0  0  0
 34 70  1  0  0  0  0
 34 74  2  0  0  0  0
 35 69  1  0  0  0  0
 35 75  2  0  0  0  0
 36 50  1  0  0  0  0
 36 71  1  0  0  0  0
 36 76  2  0  0  0  0
 37 60  1  0  0  0  0
 37 65  1  0  0  0  0
 37 77  2  0  0  0  0
 38 61  1  0  0  0  0
 38 72  1  0  0  0  0
 38 78  2  0  0  0  0
 39 66  1  0  0  0  0
 39 70  1  0  0  0  0
 39 79  2  0  0  0  0
 40 43  1  0  0  0  0
 41 50  1  0  0  0  0
 42 65  1  0  0  0  0
 43 45  1  0  0  0  0
 44 46  1  0  0  0  0
 44 47  1  0  0  0  0
 45 49  1  0  0  0  0
 46 51  1  0  0  0  0
 47 66  1  0  0  0  0
 48 51  1  0  0  0  0
 48 66  1  0  0  0  0
 49 71  1  0  0  0  0
 50 65  1  0  0  0  0
 51 64  1  0  0  0  0
 53 61  1  0  0  0  0
 54 62  1  0  0  0  0
 55 62  1  0  0  0  0
 56 62  1  0  0  0  0
 57 73  1  0  0  0  0
 58 59  1  0  0  0  0
 58 81  1  0  0  0  0
 59 82  1  0  0  0  0
 60 62  1  0  0  0  0
 60 72  1  0  0  0  0
 61 73  1  0  0  0  0
 63 64  1  0  0  0  0
M  CHG  1  73   1
M  ISO  4  39 100  58 101  70 100  81 101
M  END
> <Batch ID>
0107

> <Smiles>
CNC(C)C(=O)NC(C(=O)N1Cc2cc([101O:1][101CH2:1]COc3c(C)cc(C(=O)[100NH:0][100C:0](=O)N4CCCC(n5nc(-c6ccc(Oc7ccc(F)cc7F)cc6)c(C(N)=O)c5N)C4)cc3N)ccc2CC1C(=O)NC1CCCc2ccccc21)C(C)(C)C

> <Shape>
0.255

> <Color>
0.095

> <Negative vol penalty>
0.000

$$$$

  -OEChem-04052301173D

 81 89  0     1  0  0  0  0  0999 V2000
  -32.4283  -14.0382   20.9469 C   0  0  0  0  0  0  0  0  0  0  0  0
  -31.6353  -15.1780   21.0327 C   0  0  0  0  0  0  0  0  0  0  0  0
  -28.9692  -26.9462   20.2481 C   0  0  0  0  0  0  0  0  0  0  0  0
  -27.3148  -25.6792   19.0255 C   0  0  0  0  0  0  0  0  0  0  0  0
  -31.8840  -12.8458   20.4718 C   0  0  0  0  0  0  0  0  0  0  0  0
  -30.2976  -15.1263   20.6423 C   0  0  0  0  0  0  0  0  0  0  0  0
  -25.6152  -18.1897   23.1315 C   0  0  0  0  0  0  0  0  0  0  0  0
  -29.9067  -25.9380   20.0243 C   0  0  0  0  0  0  0  0  0  0  0  0
  -28.2524  -24.6710   18.8016 C   0  0  0  0  0  0  0  0  0  0  0  0
  -24.9612  -19.3646   22.7630 C   0  0  0  0  0  0  0  0  0  0  0  0
  -30.1060  -21.6000   18.2158 C   0  0  0  0  0  0  0  0  0  0  0  0
  -29.6973  -20.2803   18.4080 C   0  0  0  0  0  0  0  0  0  0  0  0
  -23.2727  -18.0634   21.6338 C   0  0  0  0  0  0  0  0  0  0  0  0
  -18.6799  -23.4541   24.0862 C   0  0  0  0  0  0  0  0  0  0  0  0
  -29.1917  -20.7735   20.7185 C   0  0  0  0  0  0  0  0  0  0  0  0
  -27.6732  -26.8168   19.7487 C   0  0  0  0  0  0  0  0  0  0  0  0
  -26.4482  -28.9772   19.1657 C   0  0  0  0  0  0  0  0  0  0  0  0
  -30.5364  -12.7770   20.0845 C   0  0  0  0  0  0  0  0  0  0  0  0
  -25.1079  -16.9412   22.7439 C   0  0  0  0  0  0  0  0  0  0  0  0
  -29.7351  -13.9322   20.1603 C   0  0  0  0  0  0  0  0  0  0  0  0
  -23.9208  -16.8741   22.0008 C   0  0  0  0  0  0  0  0  0  0  0  0
  -18.4132  -24.8430   24.0303 C   0  0  0  0  0  0  0  0  0  0  0  0
  -29.5484  -24.8004   19.3011 C   0  0  0  0  0  0  0  0  0  0  0  0
  -23.7913  -19.3016   22.0117 C   0  0  0  0  0  0  0  0  0  0  0  0
  -30.0577  -22.5065   19.2750 C   0  0  0  0  0  0  0  0  0  0  0  0
  -29.2401  -19.8671   19.6594 C   0  0  0  0  0  0  0  0  0  0  0  0
  -29.6005  -22.0932   20.5263 C   0  0  0  0  0  0  0  0  0  0  0  0
  -26.7041  -27.8577   19.9800 C   0  0  0  0  0  0  0  0  0  0  0  0
  -19.6291  -23.2083   23.1216 C   0  0  0  0  0  0  0  0  0  0  0  0
  -19.2188  -25.3469   23.0357 C   0  0  0  0  0  0  0  0  0  0  0  0
  -25.4467  -29.6542   19.8176 C   0  0  0  0  0  0  0  0  0  0  0  0
  -20.2411  -21.9130   22.7810 C   0  0  0  0  0  0  0  0  0  0  0  0
  -21.1507  -21.7170   21.8138 C   0  0  0  0  0  0  0  0  0  0  0  0
  -27.0610  -29.3699   17.9304 C   0  0  0  0  0  0  0  0  0  0  0  0
  -26.1783  -14.5428   20.9534 C   0  0  0  0  0  0  0  0  0  0  0  0
  -23.4800  -13.0748   21.9960 C   0  0  0  0  0  0  0  0  0  0  0  0
  -20.3113  -13.3721   23.2278 C   0  0  0  0  0  0  0  0  0  0  0  0
  -21.2070  -27.9349   23.6803 C   0  0  0  0  0  0  0  0  0  0  0  0
  -30.0051  -11.4778   19.5326 C   0  0  0  0  0  0  0  0  0  0  0  0
  -25.8107  -15.6821   23.1721 C   0  0  0  0  0  0  0  0  0  0  0  0
  -23.3239  -15.5578   21.5768 C   0  0  0  0  0  0  0  0  0  0  0  0
  -28.4806  -11.4114   19.4921 C   0  0  0  0  0  0  0  0  0  0  0  0
  -23.6903  -30.4330   24.1993 C   0  0  0  0  0  0  0  0  0  0  0  0
  -27.9056  -12.6970   18.9061 C   0  0  0  0  0  0  0  0  0  0  0  0
  -24.7212  -30.1573   23.1034 C   0  0  0  0  0  0  0  0  0  0  0  0
  -23.0897  -29.1403   24.7474 C   0  0  0  0  0  0  0  0  0  0  0  0
  -23.5510  -27.9650   22.6309 C   0  0  0  0  0  0  0  0  0  0  0  0
  -28.2732  -13.9096   19.7697 C   0  0  1  0  0  0  0  0  0  0  0  0
  -25.4847  -14.4846   22.2850 C   0  0  1  0  0  0  0  0  0  0  0  0
  -24.1437  -29.2406   22.0082 C   0  0  2  0  0  0  0  0  0  0  0  0
  -17.4629  -25.5936   24.8708 C   0  0  0  0  0  0  0  0  0  0  0  0
  -18.3399  -11.9956   23.9463 C   0  0  0  0  0  0  0  0  0  0  0  0
  -22.7917  -12.5389   19.0722 C   0  0  0  0  0  0  0  0  0  0  0  0
  -20.4441  -12.0440   19.7880 C   0  0  0  0  0  0  0  0  0  0  0  0
  -22.3241  -10.6314   20.6205 C   0  0  0  0  0  0  0  0  0  0  0  0
  -20.4272  -14.4356   25.9872 C   0  0  0  0  0  0  0  0  0  0  0  0
  -19.4197  -26.6954   22.4851 C   0  0  0  0  0  0  0  0  0  0  0  0
  -21.7344  -20.3779   21.4952 C   0  0  0  0  0  0  0  0  0  1  0  0
  -22.0549  -12.9841   21.5063 C   0  0  1  0  0  0  0  0  0  0  0  0
  -19.6157  -12.6922   24.3933 C   0  0  2  0  0  0  0  0  0  0  0  0
  -21.9158  -12.0746   20.2530 C   0  0  0  0  0  0  0  0  0  0  0  0
  -25.9278  -27.8221   21.0663 N   0  0  0  0  0  0  0  0  0  0  0  0
  -25.1744  -28.9276   20.9393 N   0  0  0  0  0  0  0  0  0  0  0  0
  -24.0514  -14.3551   22.0146 N   0  0  0  0  0  0  0  0  0  0  0  0
  -22.5584  -28.3173   23.6582 N   0  0  0  0  0  0  0  0  0  0  0  0
  -24.7813  -30.7943   19.5352 N   0  0  0  0  0  0  0  0  0  0  0  0
  -28.0744  -28.5599   17.4001 N   0  0  0  0  0  0  0  0  0  0  0  0
  -27.4334  -13.9649   20.9471 N   0  0  0  0  0  0  0  0  0  0  0  0
  -21.2573  -12.5527   22.6492 N   0  0  0  0  0  0  0  0  0  0  0  0
  -20.7833  -27.1609   22.6069 N   0  0  0  0  0  0  0  0  0  0  0  0
  -19.2631  -13.6919   25.4407 N   0  3  0  0  0  0  0  0  0  0  0  0
  -26.7314  -30.4171   17.3235 O   0  0  0  0  0  0  0  0  0  0  0  0
  -25.6157  -15.0715   20.0017 O   0  0  0  0  0  0  0  0  0  0  0  0
  -24.0624  -12.0486   22.3557 O   0  0  0  0  0  0  0  0  0  0  0  0
  -20.0397  -14.5144   22.8645 O   0  0  0  0  0  0  0  0  0  0  0  0
  -20.4339  -28.2637   24.5864 O   0  0  0  0  0  0  0  0  0  0  0  0
  -19.9631  -24.3569   22.4768 O   0  0  0  0  0  0  0  0  0  0  0  0
  -30.4630  -23.8165   19.0823 O   0  0  0  0  0  0  0  0  0  0  0  0
  -23.1513  -20.4469   21.6501 O   0  0  0  0  0  0  0  0  0  1  0  0
  -28.8462  -18.6001   19.8434 F   0  0  0  0  0  0  0  0  0  0  0  0
  -29.5506  -22.9597   21.5473 F   0  0  0  0  0  0  0  0  0  0  0  0
  1  2  1  0  0  0  0
  1  5  2  0  0  0  0
  2  6  2  0  0  0  0
  3  8  2  0  0  0  0
  3 16  1  0  0  0  0
  4  9  1  0  0  0  0
  4 16  2  0  0  0  0
  5 18  1  0  0  0  0
  6 20  1  0  0  0  0
  7 10  2  0  0  0  0
  7 19  1  0  0  0  0
  8 23  1  0  0  0  0
  9 23  2  0  0  0  0
 10 24  1  0  0  0  0
 11 12  2  0  0  0  0
 11 25  1  0  0  0  0
 12 26  1  0  0  0  0
 13 21  1  0  0  0  0
 13 24  2  0  0  0  0
 14 22  1  0  0  0  0
 14 29  2  0  0  0  0
 15 26  2  0  0  0  0
 15 27  1  0  0  0  0
 16 28  1  0  0  0  0
 17 28  1  0  0  0  0
 17 31  2  0  0  0  0
 17 34  1  0  0  0  0
 18 20  2  0  0  0  0
 18 39  1  0  0  0  0
 19 21  2  0  0  0  0
 19 40  1  0  0  0  0
 20 48  1  0  0  0  0
 21 41  1  0  0  0  0
 22 30  2  0  0  0  0
 22 51  1  0  0  0  0
 23 78  1  0  0  0  0
 24 79  1  0  0  0  0
 25 27  2  0  0  0  0
 25 78  1  0  0  0  0
 26 80  1  0  0  0  0
 27 81  1  0  0  0  0
 28 62  2  0  0  0  0
 29 32  1  0  0  0  0
 29 77  1  0  0  0  0
 30 57  1  0  0  0  0
 30 77  1  0  0  0  0
 31 63  1  0  0  0  0
 31 66  1  0  0  0  0
 32 33  2  0  0  0  0
 33 58  1  0  0  0  0
 34 67  1  0  0  0  0
 34 72  2  0  0  0  0
 35 49  1  0  0  0  0
 35 68  1  0  0  0  0
 35 73  2  0  0  0  0
 36 59  1  0  0  0  0
 36 64  1  0  0  0  0
 36 74  2  0  0  0  0
 37 60  1  0  0  0  0
 37 69  1  0  0  0  0
 37 75  2  0  0  0  0
 38 65  1  0  0  0  0
 38 70  1  0  0  0  0
 38 76  2  0  0  0  0
 39 42  1  0  0  0  0
 40 49  1  0  0  0  0
 41 64  1  0  0  0  0
 42 44  1  0  0  0  0
 43 45  1  0  0  0  0
 43 46  1  0  0  0  0
 44 48  1  0  0  0  0
 45 50  1  0  0  0  0
 46 65  1  0  0  0  0
 47 50  1  0  0  0  0
 47 65  1  0  0  0  0
 48 68  1  0  0  0  0
 49 64  1  0  0  0  0
 50 63  1  0  0  0  0
 52 60  1  0  0  0  0
 53 61  1  0  0  0  0
 54 61  1  0  0  0  0
 55 61  1  0  0  0  0
 56 71  1  0  0  0  0
 57 70  1  0  0  0  0
 58 79  1  0  0  0  0
 59 61  1  0  0  0  0
 59 69  1  0  0  0  0
 60 71  1  0  0  0  0
 62 63  1  0  0  0  0
M  CHG  1  71   1
M  ISO  4  38 100  58 101  70 100  79 101
M  END
> <Batch ID>
0107

> <Smiles>
CNC(C)C(=O)NC(C(=O)N1Cc2cc([101O:1][101CH2:1]C=Cc3cc(C)c(C[100NH:0][100C:0](=O)N4CCCC(n5nc(-c6ccc(Oc7ccc(F)cc7F)cc6)c(C(N)=O)c5N)C4)o3)ccc2CC1C(=O)NC1CCCc2ccccc21)C(C)(C)C

> <Shape>
0.258

> <Color>
0.060

> <Negative vol penalty>
0.000

$$$$

  -OEChem-04052301173D

 88 97  0     1  0  0  0  0  0999 V2000
  -20.8369  -28.3647   23.3612 C   0  0  0  0  0  0  0  0  0  0  0  0
  -20.9938  -27.1781   24.0702 C   0  0  0  0  0  0  0  0  0  0  0  0
  -27.5885  -25.5702   20.4898 C   0  0  0  0  0  0  0  0  0  0  0  0
  -26.3465  -24.5192   18.7038 C   0  0  0  0  0  0  0  0  0  0  0  0
  -20.2644  -28.3454   22.0900 C   0  0  0  0  0  0  0  0  0  0  0  0
  -20.5772  -25.9715   23.5089 C   0  0  0  0  0  0  0  0  0  0  0  0
  -24.6010  -19.4003   22.2221 C   0  0  0  0  0  0  0  0  0  0  0  0
  -26.4890  -26.3784   20.7788 C   0  0  0  0  0  0  0  0  0  0  0  0
  -25.2470  -25.3274   18.9928 C   0  0  0  0  0  0  0  0  0  0  0  0
  -25.2474  -18.2382   21.8005 C   0  0  0  0  0  0  0  0  0  0  0  0
  -25.0543  -29.1718   19.5285 C   0  0  0  0  0  0  0  0  0  0  0  0
  -25.2885  -30.5292   19.7477 C   0  0  0  0  0  0  0  0  0  0  0  0
  -28.9059  -13.8541   22.2478 C   0  0  0  0  0  0  0  0  0  0  0  0
  -27.5936  -13.8324   24.2761 C   0  0  0  0  0  0  0  0  0  0  0  0
  -23.6037  -17.9458   20.0510 C   0  0  0  0  0  0  0  0  0  0  0  0
  -29.3581  -15.4588   23.9963 C   0  0  0  0  0  0  0  0  0  0  0  0
  -24.3666  -30.3292   21.9719 C   0  0  0  0  0  0  0  0  0  0  0  0
  -27.5173  -24.6406   19.4522 C   0  0  0  0  0  0  0  0  0  0  0  0
  -27.8803  -13.3047   23.0172 C   0  0  0  0  0  0  0  0  0  0  0  0
  -29.9398  -24.2273   18.7681 C   0  0  0  0  0  0  0  0  0  0  0  0
  -19.8494  -27.1368   21.5089 C   0  0  0  0  0  0  0  0  0  0  0  0
  -23.4609  -19.8486   21.5492 C   0  0  0  0  0  0  0  0  0  0  0  0
  -19.9973  -25.9362   22.2293 C   0  0  0  0  0  0  0  0  0  0  0  0
  -22.9592  -19.1160   20.4609 C   0  0  0  0  0  0  0  0  0  0  0  0
  -29.6449  -14.9311   22.7374 C   0  0  0  0  0  0  0  0  0  0  0  0
  -25.3182  -26.2570   20.0303 C   0  0  0  0  0  0  0  0  0  0  0  0
  -24.7498  -17.5126   20.7179 C   0  0  0  0  0  0  0  0  0  0  0  0
  -24.4762  -28.3930   20.5310 C   0  0  0  0  0  0  0  0  0  0  0  0
  -24.9447  -31.1079   20.9694 C   0  0  0  0  0  0  0  0  0  0  0  0
  -28.3325  -14.9095   24.7657 C   0  0  0  0  0  0  0  0  0  0  0  0
  -24.1324  -28.9717   21.7527 C   0  0  0  0  0  0  0  0  0  0  0  0
  -28.6529  -23.8059   19.1528 C   0  0  0  0  0  0  0  0  0  0  0  0
  -30.6477  -23.0620   18.6031 C   0  0  0  0  0  0  0  0  0  0  0  0
  -27.1025  -12.1707   22.5024 C   0  0  0  0  0  0  0  0  0  0  0  0
  -30.4498  -25.5537   18.5771 C   0  0  0  0  0  0  0  0  0  0  0  0
  -20.7712  -22.4502   21.2796 C   0  0  0  0  0  0  0  0  0  0  0  0
  -21.6289  -21.7554   18.4175 C   0  0  0  0  0  0  0  0  0  0  0  0
  -23.1495  -21.0166   15.4545 C   0  0  0  0  0  0  0  0  0  0  0  0
  -30.0043  -17.6982   20.9846 C   0  0  0  0  0  0  0  0  0  0  0  0
  -19.1926  -27.1718   20.1517 C   0  0  0  0  0  0  0  0  0  0  0  0
  -22.6969  -21.0613   22.0070 C   0  0  0  0  0  0  0  0  0  0  0  0
  -21.7100  -19.6170   19.7890 C   0  0  0  0  0  0  0  0  0  0  0  0
  -19.1204  -25.8055   19.4746 C   0  0  0  0  0  0  0  0  0  0  0  0
  -24.9577  -11.4997   19.7176 C   0  0  0  0  0  0  0  0  0  0  0  0
  -30.0597  -18.4551   17.4460 C   0  0  0  0  0  0  0  0  0  0  0  0
  -18.6222  -24.7491   20.4557 C   0  0  0  0  0  0  0  0  0  0  0  0
  -24.3838  -12.8738   19.3734 C   0  0  0  0  0  0  0  0  0  0  0  0
  -29.8253  -19.9668   17.4546 C   0  0  0  0  0  0  0  0  0  0  0  0
  -25.1618  -11.3364   21.2210 C   0  0  0  0  0  0  0  0  0  0  0  0
  -29.2431  -17.7629   18.5332 C   0  0  0  0  0  0  0  0  0  0  0  0
  -25.4025  -13.7810   21.4954 C   0  0  0  0  0  0  0  0  0  0  0  0
  -29.2406  -19.8012   19.9185 C   0  0  0  0  0  0  0  0  0  0  0  0
  -19.5805  -24.6043   21.6441 C   0  0  1  0  0  0  0  0  0  0  0  0
  -22.0805  -21.8603   20.8448 C   0  0  1  0  0  0  0  0  0  0  0  0
  -25.2246  -14.0028   19.9881 C   0  0  2  0  0  0  0  0  0  0  0  0
  -30.0556  -20.5615   18.8566 C   0  0  2  0  0  0  0  0  0  0  0  0
  -23.0486  -21.5445   13.0033 C   0  0  0  0  0  0  0  0  0  0  0  0
  -19.1722  -19.9693   18.1378 C   0  0  0  0  0  0  0  0  0  0  0  0
  -19.6877  -19.7632   15.6964 C   0  0  0  0  0  0  0  0  0  0  0  0
  -19.1604  -21.9969   16.6739 C   0  0  0  0  0  0  0  0  0  0  0  0
  -25.8972  -22.1164   15.4599 C   0  0  0  0  0  0  0  0  0  0  0  0
  -30.7412  -15.5191   21.9150 C   0  0  0  0  0  0  0  0  0  0  0  0
  -24.5855  -15.3623   19.7145 C   0  0  0  0  0  0  0  0  0  1  0  0
  -21.3833  -20.9101   17.1933 C   0  0  1  0  0  0  0  0  0  0  0  0
  -23.6736  -21.9062   14.3417 C   0  0  2  0  0  0  0  0  0  0  0  0
  -19.8702  -20.6525   16.9449 C   0  0  0  0  0  0  0  0  0  0  0  0
  -28.5466  -22.4766   19.2276 N   0  0  0  0  0  0  0  0  0  0  0  0
  -29.7757  -22.0526   18.8876 N   0  0  0  0  0  0  0  0  0  0  0  0
  -25.9506  -12.4435   21.7600 N   0  0  0  0  0  0  0  0  0  0  0  0
  -21.7744  -21.0787   19.6346 N   0  0  0  0  0  0  0  0  0  0  0  0
  -29.5224  -18.3637   19.8451 N   0  0  0  0  0  0  0  0  0  0  0  0
  -31.9248  -22.8124   18.2437 N   0  0  0  0  0  0  0  0  0  0  0  0
  -30.3466  -26.1323   17.3047 N   0  0  0  0  0  0  0  0  0  0  0  0
  -20.7437  -23.8317   21.2641 N   0  0  0  0  0  0  0  0  0  0  0  0
  -22.0641  -21.5807   16.0910 N   0  0  0  0  0  0  0  0  0  0  0  0
  -30.2391  -16.3370   20.8334 N   0  0  0  0  0  0  0  0  0  0  0  0
  -25.1527  -21.7691   14.2221 N   0  3  0  0  0  0  0  0  0  0  0  0
  -27.5404  -11.0504   22.7604 O   0  0  0  0  0  0  0  0  0  0  0  0
  -30.9961  -26.2000   19.5030 O   0  0  0  0  0  0  0  0  0  0  0  0
  -19.8520  -21.7076   21.6042 O   0  0  0  0  0  0  0  0  0  0  0  0
  -21.6851  -22.9829   18.3015 O   0  0  0  0  0  0  0  0  0  0  0  0
  -23.6504  -19.9284   15.7291 O   0  0  0  0  0  0  0  0  0  0  0  0
  -30.2152  -18.2756   22.0566 O   0  0  0  0  0  0  0  0  0  0  0  0
  -24.2451  -27.0453   20.3122 O   0  0  0  0  0  0  0  0  0  0  0  0
  -25.3884  -16.3814   20.3087 O   0  0  0  0  0  0  0  0  0  1  0  0
  -25.1710  -32.4112   21.1802 F   0  0  0  0  0  0  0  0  0  0  0  0
  -28.0571  -15.4164   25.9747 F   0  0  0  0  0  0  0  0  0  0  0  0
  -23.5778  -28.2283   22.7200 F   0  0  0  0  0  0  0  0  0  0  0  0
  1  2  1  0  0  0  0
  1  5  2  0  0  0  0
  2  6  2  0  0  0  0
  3  8  2  0  0  0  0
  3 18  1  0  0  0  0
  4  9  1  0  0  0  0
  4 18  2  0  0  0  0
  5 21  1  0  0  0  0
  6 23  1  0  0  0  0
  7 10  2  0  0  0  0
  7 22  1  0  0  0  0
  8 26  1  0  0  0  0
  9 26  2  0  0  0  0
 10 27  1  0  0  0  0
 11 12  2  0  0  0  0
 11 28  1  0  0  0  0
 12 29  1  0  0  0  0
 13 19  2  0  0  0  0
 13 25  1  0  0  0  0
 14 19  1  0  0  0  0
 14 30  2  0  0  0  0
 15 24  1  0  0  0  0
 15 27  2  0  0  0  0
 16 25  2  0  0  0  0
 16 30  1  0  0  0  0
 17 29  2  0  0  0  0
 17 31  1  0  0  0  0
 18 32  1  0  0  0  0
 19 34  1  0  0  0  0
 20 32  1  0  0  0  0
 20 33  2  0  0  0  0
 20 35  1  0  0  0  0
 21 23  2  0  0  0  0
 21 40  1  0  0  0  0
 22 24  2  0  0  0  0
 22 41  1  0  0  0  0
 23 53  1  0  0  0  0
 24 42  1  0  0  0  0
 25 62  1  0  0  0  0
 26 84  1  0  0  0  0
 27 85  1  0  0  0  0
 28 31  2  0  0  0  0
 28 84  1  0  0  0  0
 29 86  1  0  0  0  0
 30 87  1  0  0  0  0
 31 88  1  0  0  0  0
 32 67  2  0  0  0  0
 33 68  1  0  0  0  0
 33 72  1  0  0  0  0
 34 69  1  0  0  0  0
 34 78  2  0  0  0  0
 35 73  1  0  0  0  0
 35 79  2  0  0  0  0
 36 54  1  0  0  0  0
 36 74  1  0  0  0  0
 36 80  2  0  0  0  0
 37 64  1  0  0  0  0
 37 70  1  0  0  0  0
 37 81  2  0  0  0  0
 38 65  1  0  0  0  0
 38 75  1  0  0  0  0
 38 82  2  0  0  0  0
 39 71  1  0  0  0  0
 39 76  1  0  0  0  0
 39 83  2  0  0  0  0
 40 43  1  0  0  0  0
 41 54  1  0  0  0  0
 42 70  1  0  0  0  0
 43 46  1  0  0  0  0
 44 47  1  0  0  0  0
 44 49  1  0  0  0  0
 45 48  1  0  0  0  0
 45 50  1  0  0  0  0
 46 53  1  0  0  0  0
 47 55  1  0  0  0  0
 48 56  1  0  0  0  0
 49 69  1  0  0  0  0
 50 71  1  0  0  0  0
 51 55  1  0  0  0  0
 51 69  1  0  0  0  0
 52 56  1  0  0  0  0
 52 71  1  0  0  0  0
 53 74  1  0  0  0  0
 54 70  1  0  0  0  0
 55 63  1  0  0  0  0
 56 68  1  0  0  0  0
 57 65  1  0  0  0  0
 58 66  1  0  0  0  0
 59 66  1  0  0  0  0
 60 66  1  0  0  0  0
 61 77  1  0  0  0  0
 62 76  1  0  0  0  0
 63 85  1  0  0  0  0
 64 66  1  0  0  0  0
 64 75  1  0  0  0  0
 65 77  1  0  0  0  0
 67 68  1  0  0  0  0
M  CHG  1  77   1
M  ISO  4  39 100  63 101  76 100  85 101
M  END
> <Batch ID>
0107

> <Smiles>
CNC(C)C(=O)NC(C(=O)N1Cc2cc([101O:1][101CH2:1]C3CCCN(C(=O)c4cc(F)cc(C[100NH:0][100C:0](=O)N5CCCC(n6nc(-c7ccc(Oc8ccc(F)cc8F)cc7)c(C(N)=O)c6N)C5)c4)C3)ccc2CC1C(=O)NC1CCCc2ccccc21)C(C)(C)C

> <Shape>
0.226

> <Color>
0.063

> <Negative vol penalty>
0.000

$$$$

  -OEChem-04052301173D

 86 95  0     1  0  0  0  0  0999 V2000
  -23.9405  -37.8703   24.7951 C   0  0  0  0  0  0  0  0  0  0  0  0
  -23.1749  -36.8204   24.2980 C   0  0  0  0  0  0  0  0  0  0  0  0
  -22.4768  -10.3478   20.4635 C   0  0  0  0  0  0  0  0  0  0  0  0
  -24.0432   -9.7436   22.2009 C   0  0  0  0  0  0  0  0  0  0  0  0
  -25.3322  -37.7992   24.7498 C   0  0  0  0  0  0  0  0  0  0  0  0
  -23.8007  -35.6992   23.7543 C   0  0  0  0  0  0  0  0  0  0  0  0
  -21.8711  -29.8950   24.0608 C   0  0  0  0  0  0  0  0  0  0  0  0
  -21.2783  -21.9766   22.7124 C   0  0  0  0  0  0  0  0  0  0  0  0
  -21.8859  -20.8183   23.1970 C   0  0  0  0  0  0  0  0  0  0  0  0
  -22.0443   -9.0236   20.3929 C   0  0  0  0  0  0  0  0  0  0  0  0
  -23.6106   -8.4194   22.1303 C   0  0  0  0  0  0  0  0  0  0  0  0
  -21.1756  -29.0890   23.1606 C   0  0  0  0  0  0  0  0  0  0  0  0
  -20.9910   -6.5940   23.2377 C   0  0  0  0  0  0  0  0  0  0  0  0
  -20.7485   -5.9282   24.4391 C   0  0  0  0  0  0  0  0  0  0  0  0
  -23.2638  -28.1627   22.3858 C   0  0  0  0  0  0  0  0  0  0  0  0
  -21.8497  -21.3321   20.4552 C   0  0  0  0  0  0  0  0  0  0  0  0
  -22.4224   -4.2832   23.8652 C   0  0  0  0  0  0  0  0  0  0  0  0
  -23.4763  -10.7078   21.3675 C   0  0  0  0  0  0  0  0  0  0  0  0
  -24.5001  -12.8376   20.4066 C   0  0  0  0  0  0  0  0  0  0  0  0
  -25.9754  -36.6724   24.2140 C   0  0  0  0  0  0  0  0  0  0  0  0
  -23.2713  -29.8488   24.1227 C   0  0  0  0  0  0  0  0  0  0  0  0
  -25.2023  -35.6136   23.7005 C   0  0  0  0  0  0  0  0  0  0  0  0
  -23.9746  -28.9673   23.2894 C   0  0  0  0  0  0  0  0  0  0  0  0
  -22.4574  -20.1738   20.9397 C   0  0  0  0  0  0  0  0  0  0  0  0
  -21.2601  -22.2334   21.3415 C   0  0  0  0  0  0  0  0  0  0  0  0
  -22.4755  -19.9169   22.3106 C   0  0  0  0  0  0  0  0  0  0  0  0
  -22.6112   -8.0594   21.2263 C   0  0  0  0  0  0  0  0  0  0  0  0
  -21.8721  -28.2248   22.3209 C   0  0  0  0  0  0  0  0  0  0  0  0
  -21.9491   -6.1045   22.3499 C   0  0  0  0  0  0  0  0  0  0  0  0
  -21.4642   -4.7728   24.7529 C   0  0  0  0  0  0  0  0  0  0  0  0
  -22.6648   -4.9491   22.6637 C   0  0  0  0  0  0  0  0  0  0  0  0
  -23.9239  -12.0754   21.4405 C   0  0  0  0  0  0  0  0  0  0  0  0
  -24.7464  -14.0617   20.9788 C   0  0  0  0  0  0  0  0  0  0  0  0
  -20.5899  -24.6064   21.6197 C   0  0  0  0  0  0  0  0  0  0  0  0
  -24.7869  -12.4719   19.0503 C   0  0  0  0  0  0  0  0  0  0  0  0
  -25.6093  -31.9420   23.6169 C   0  0  0  0  0  0  0  0  0  0  0  0
  -27.4790  -29.5293   24.7148 C   0  0  0  0  0  0  0  0  0  0  0  0
  -27.6718  -25.9503   24.3015 C   0  0  0  0  0  0  0  0  0  0  0  0
  -23.1801  -18.3561   24.1582 C   0  0  0  0  0  0  0  0  0  0  0  0
  -27.4819  -36.6615   24.1433 C   0  0  0  0  0  0  0  0  0  0  0  0
  -24.0051  -30.7052   25.1179 C   0  0  0  0  0  0  0  0  0  0  0  0
  -25.4767  -28.8652   23.3309 C   0  0  0  0  0  0  0  0  0  0  0  0
  -28.0700  -35.2753   23.8926 C   0  0  0  0  0  0  0  0  0  0  0  0
  -19.1747  -24.4678   19.0569 C   0  0  0  0  0  0  0  0  0  0  0  0
  -24.5700  -15.5303   25.8197 C   0  0  0  0  0  0  0  0  0  0  0  0
  -27.3208  -34.5737   22.7642 C   0  0  0  0  0  0  0  0  0  0  0  0
  -19.5181  -25.8134   19.6586 C   0  0  0  0  0  0  0  0  0  0  0  0
  -24.5732  -14.4423   24.7434 C   0  0  0  0  0  0  0  0  0  0  0  0
  -20.2454  -23.4524   19.4166 C   0  0  0  0  0  0  0  0  0  0  0  0
  -23.3373  -16.4267   25.7163 C   0  0  0  0  0  0  0  0  0  0  0  0
  -23.1103  -15.9273   23.3146 C   0  0  0  0  0  0  0  0  0  0  0  0
  -25.8445  -34.3697   23.1254 C   0  0  1  0  0  0  0  0  0  0  0  0
  -19.5826  -25.6708   21.1718 C   0  0  2  0  0  0  0  0  0  0  0  0
  -25.4617  -30.9503   24.7360 C   0  0  1  0  0  0  0  0  0  0  0  0
  -24.3652  -15.0394   23.3378 C   0  0  2  0  0  0  0  0  0  0  0  0
  -23.0793  -19.2247   19.9675 C   0  0  0  0  0  0  0  0  0  0  0  0
  -28.5694  -24.1770   25.8336 C   0  0  0  0  0  0  0  0  0  0  0  0
  -30.0638  -29.8779   23.1313 C   0  0  0  0  0  0  0  0  0  0  0  0
  -30.4046  -27.4018   23.2763 C   0  0  0  0  0  0  0  0  0  0  0  0
  -30.3453  -28.7749   25.3581 C   0  0  0  0  0  0  0  0  0  0  0  0
  -25.1215  -24.4496   24.2481 C   0  0  0  0  0  0  0  0  0  0  0  0
  -19.8818  -27.0252   21.8152 C   0  0  0  0  0  0  0  0  0  1  0  0
  -28.2013  -28.3640   24.0827 C   0  0  1  0  0  0  0  0  0  0  0  0
  -27.3247  -24.8959   25.3370 C   0  0  2  0  0  0  0  0  0  0  0  0
  -29.7299  -28.6153   23.9507 C   0  0  0  0  0  0  0  0  0  0  0  0
  -23.8110  -12.7581   22.5829 N   0  0  0  0  0  0  0  0  0  0  0  0
  -24.3197  -13.9621   22.2704 N   0  0  0  0  0  0  0  0  0  0  0  0
  -20.6271  -23.4339   20.8388 N   0  0  0  0  0  0  0  0  0  0  0  0
  -26.1494  -29.7275   24.3165 N   0  0  0  0  0  0  0  0  0  0  0  0
  -23.2070  -16.9597   24.3584 N   0  0  0  0  0  0  0  0  0  0  0  0
  -25.2843  -15.2028   20.4982 N   0  0  0  0  0  0  0  0  0  0  0  0
  -24.4698  -11.1740   18.6269 N   0  0  0  0  0  0  0  0  0  0  0  0
  -23.0863  -18.7453   22.8224 N   0  0  0  0  0  0  0  0  0  0  0  0
  -25.6965  -33.2555   24.0370 N   0  0  0  0  0  0  0  0  0  0  0  0
  -27.8551  -27.1900   24.8766 N   0  0  0  0  0  0  0  0  0  0  0  0
  -26.3981  -23.8839   24.7553 N   0  3  0  0  0  0  0  0  0  0  0  0
  -21.2507  -24.7863   22.6460 O   0  0  0  0  0  0  0  0  0  0  0  0
  -25.3240  -13.2671   18.2424 O   0  0  0  0  0  0  0  0  0  0  0  0
  -25.6432  -31.5448   22.4582 O   0  0  0  0  0  0  0  0  0  0  0  0
  -28.0705  -30.2333   25.5371 O   0  0  0  0  0  0  0  0  0  0  0  0
  -27.7742  -25.6985   23.1029 O   0  0  0  0  0  0  0  0  0  0  0  0
  -23.2636  -19.1485   25.1001 O   0  0  0  0  0  0  0  0  0  0  0  0
  -22.1892   -6.7671   21.1579 O   0  0  0  0  0  0  0  0  0  0  0  0
  -21.1957  -27.4375   21.4408 O   0  0  0  0  0  0  0  0  0  1  0  0
  -21.2324   -4.1343   25.9073 F   0  0  0  0  0  0  0  0  0  0  0  0
  -23.5874   -4.4747   21.8154 F   0  0  0  0  0  0  0  0  0  0  0  0
  1  2  1  0  0  0  0
  1  5  2  0  0  0  0
  2  6  2  0  0  0  0
  3 10  2  0  0  0  0
  3 18  1  0  0  0  0
  4 11  1  0  0  0  0
  4 18  2  0  0  0  0
  5 20  1  0  0  0  0
  6 22  1  0  0  0  0
  7 12  2  0  0  0  0
  7 21  1  0  0  0  0
  8  9  2  0  0  0  0
  8 25  1  0  0  0  0
  9 26  1  0  0  0  0
 10 27  1  0  0  0  0
 11 27  2  0  0  0  0
 12 28  1  0  0  0  0
 13 14  2  0  0  0  0
 13 29  1  0  0  0  0
 14 30  1  0  0  0  0
 15 23  1  0  0  0  0
 15 28  2  0  0  0  0
 16 24  1  0  0  0  0
 16 25  2  0  0  0  0
 17 30  2  0  0  0  0
 17 31  1  0  0  0  0
 18 32  1  0  0  0  0
 19 32  1  0  0  0  0
 19 33  2  0  0  0  0
 19 35  1  0  0  0  0
 20 22  2  0  0  0  0
 20 40  1  0  0  0  0
 21 23  2  0  0  0  0
 21 41  1  0  0  0  0
 22 52  1  0  0  0  0
 23 42  1  0  0  0  0
 24 26  2  0  0  0  0
 24 56  1  0  0  0  0
 25 68  1  0  0  0  0
 26 73  1  0  0  0  0
 27 83  1  0  0  0  0
 28 84  1  0  0  0  0
 29 31  2  0  0  0  0
 29 83  1  0  0  0  0
 30 85  1  0  0  0  0
 31 86  1  0  0  0  0
 32 66  2  0  0  0  0
 33 67  1  0  0  0  0
 33 71  1  0  0  0  0
 34 53  1  0  0  0  0
 34 68  1  0  0  0  0
 34 77  2  0  0  0  0
 35 72  1  0  0  0  0
 35 78  2  0  0  0  0
 36 54  1  0  0  0  0
 36 74  1  0  0  0  0
 36 79  2  0  0  0  0
 37 63  1  0  0  0  0
 37 69  1  0  0  0  0
 37 80  2  0  0  0  0
 38 64  1  0  0  0  0
 38 75  1  0  0  0  0
 38 81  2  0  0  0  0
 39 70  1  0  0  0  0
 39 73  1  0  0  0  0
 39 82  2  0  0  0  0
 40 43  1  0  0  0  0
 41 54  1  0  0  0  0
 42 69  1  0  0  0  0
 43 46  1  0  0  0  0
 44 47  1  0  0  0  0
 44 49  1  0  0  0  0
 45 48  1  0  0  0  0
 45 50  1  0  0  0  0
 46 52  1  0  0  0  0
 47 53  1  0  0  0  0
 48 55  1  0  0  0  0
 49 68  1  0  0  0  0
 50 70  1  0  0  0  0
 51 55  1  0  0  0  0
 51 70  1  0  0  0  0
 52 74  1  0  0  0  0
 53 62  1  0  0  0  0
 54 69  1  0  0  0  0
 55 67  1  0  0  0  0
 57 64  1  0  0  0  0
 58 65  1  0  0  0  0
 59 65  1  0  0  0  0
 60 65  1  0  0  0  0
 61 76  1  0  0  0  0
 62 84  1  0  0  0  0
 63 65  1  0  0  0  0
 63 75  1  0  0  0  0
 64 76  1  0  0  0  0
 66 67  1  0  0  0  0
M  CHG  1  76   1
M  ISO  4  39 100  62 101  73 100  84 101
M  END
> <Batch ID>
0107

> <Smiles>
CNC(C)C(=O)NC(C(=O)N1Cc2cc([101O:1][101CH2:1]C3CCCN(c4ccc([100NH:0][100C:0](=O)N5CCCC(n6nc(-c7ccc(Oc8ccc(F)cc8F)cc7)c(C(N)=O)c6N)C5)c(C)c4)C3=O)ccc2CC1C(=O)NC1CCCc2ccccc21)C(C)(C)C

> <Shape>
0.241

> <Color>
0.105

> <Negative vol penalty>
0.000

$$$$

  -OEChem-04052301173D

 85 93  0     1  0  0  0  0  0999 V2000
  -31.8845  -32.3169   19.3849 C   0  0  0  0  0  0  0  0  0  0  0  0
  -31.2744  -31.0676   19.4340 C   0  0  0  0  0  0  0  0  0  0  0  0
  -23.6445  -10.3326   22.2631 C   0  0  0  0  0  0  0  0  0  0  0  0
  -23.7781   -9.9143   19.8873 C   0  0  0  0  0  0  0  0  0  0  0  0
  -31.5742  -33.2811   20.3430 C   0  0  0  0  0  0  0  0  0  0  0  0
  -30.3544  -30.7814   20.4421 C   0  0  0  0  0  0  0  0  0  0  0  0
  -26.2164  -28.4465   18.6899 C   0  0  0  0  0  0  0  0  0  0  0  0
  -22.7189   -9.2973   22.3934 C   0  0  0  0  0  0  0  0  0  0  0  0
  -22.8525   -8.8790   20.0176 C   0  0  0  0  0  0  0  0  0  0  0  0
  -26.3236  -27.0847   18.4111 C   0  0  0  0  0  0  0  0  0  0  0  0
  -20.5928   -6.5287   23.4083 C   0  0  0  0  0  0  0  0  0  0  0  0
  -20.7648   -5.6342   24.4645 C   0  0  0  0  0  0  0  0  0  0  0  0
  -25.2671  -26.5760   20.5192 C   0  0  0  0  0  0  0  0  0  0  0  0
  -28.5408  -20.9700   20.7756 C   0  0  0  0  0  0  0  0  0  0  0  0
  -29.3256  -20.5062   18.5381 C   0  0  0  0  0  0  0  0  0  0  0  0
  -22.9346   -5.0240   23.5946 C   0  0  0  0  0  0  0  0  0  0  0  0
  -24.1741  -10.6411   21.0101 C   0  0  0  0  0  0  0  0  0  0  0  0
  -26.5312  -11.6159   20.9701 C   0  0  0  0  0  0  0  0  0  0  0  0
  -30.6427  -33.0099   21.3576 C   0  0  0  0  0  0  0  0  0  0  0  0
  -25.6426  -28.8838   19.8924 C   0  0  0  0  0  0  0  0  0  0  0  0
  -30.0324  -31.7424   21.4154 C   0  0  0  0  0  0  0  0  0  0  0  0
  -25.1514  -27.9439   20.8098 C   0  0  0  0  0  0  0  0  0  0  0  0
  -28.7656  -19.6399   21.1302 C   0  0  0  0  0  0  0  0  0  0  0  0
  -29.5505  -19.1760   18.8927 C   0  0  0  0  0  0  0  0  0  0  0  0
  -29.2704  -18.7429   20.1888 C   0  0  0  0  0  0  0  0  0  0  0  0
  -28.8208  -21.4032   19.4795 C   0  0  0  0  0  0  0  0  0  0  0  0
  -22.3229   -8.5705   21.2706 C   0  0  0  0  0  0  0  0  0  0  0  0
  -25.8516  -26.1491   19.3271 C   0  0  0  0  0  0  0  0  0  0  0  0
  -21.5917   -6.6709   22.4450 C   0  0  0  0  0  0  0  0  0  0  0  0
  -21.9356   -4.8818   24.5577 C   0  0  0  0  0  0  0  0  0  0  0  0
  -22.7626   -5.9185   22.5382 C   0  0  0  0  0  0  0  0  0  0  0  0
  -25.1299  -11.7108   20.8748 C   0  0  0  0  0  0  0  0  0  0  0  0
  -26.9768  -12.8993   20.7683 C   0  0  0  0  0  0  0  0  0  0  0  0
  -27.4173  -23.0079   18.6544 C   0  0  0  0  0  0  0  0  0  0  0  0
  -27.3563  -10.4700   21.2187 C   0  0  0  0  0  0  0  0  0  0  0  0
  -26.6742  -30.5516   22.3940 C   0  0  0  0  0  0  0  0  0  0  0  0
  -23.5650  -30.3735   23.3015 C   0  0  0  0  0  0  0  0  0  0  0  0
  -20.5786  -28.7337   23.1039 C   0  0  0  0  0  0  0  0  0  0  0  0
  -26.8110  -17.7253   17.9706 C   0  0  0  0  0  0  0  0  0  0  0  0
  -30.3749  -34.0676   22.3988 C   0  0  0  0  0  0  0  0  0  0  0  0
  -25.5100  -30.3568   20.1663 C   0  0  0  0  0  0  0  0  0  0  0  0
  -24.5087  -28.3621   22.1061 C   0  0  0  0  0  0  0  0  0  0  0  0
  -29.1095  -33.8133   23.2139 C   0  0  0  0  0  0  0  0  0  0  0  0
  -24.4441  -17.2743   20.5918 C   0  0  0  0  0  0  0  0  0  0  0  0
  -29.0549  -32.3604   23.6756 C   0  0  0  0  0  0  0  0  0  0  0  0
  -24.5227  -15.7785   20.9023 C   0  0  0  0  0  0  0  0  0  0  0  0
  -24.6129  -17.5505   19.0994 C   0  0  0  0  0  0  0  0  0  0  0  0
  -25.9042  -15.4721   18.8055 C   0  0  0  0  0  0  0  0  0  0  0  0
  -29.0107  -31.4026   22.4789 C   0  0  1  0  0  0  0  0  0  0  0  0
  -25.3742  -30.6786   21.6513 C   0  0  1  0  0  0  0  0  0  0  0  0
  -25.7953  -15.1481   20.3053 C   0  0  2  0  0  0  0  0  0  0  0  0
  -28.4574  -19.2007   22.5244 C   0  0  0  0  0  0  0  0  0  0  0  0
  -18.2310  -28.8030   23.9878 C   0  0  0  0  0  0  0  0  0  0  0  0
  -24.5370  -29.2455   25.9648 C   0  0  0  0  0  0  0  0  0  0  0  0
  -22.2000  -28.4641   26.4073 C   0  0  0  0  0  0  0  0  0  0  0  0
  -22.6712  -30.9003   26.1514 C   0  0  0  0  0  0  0  0  0  0  0  0
  -19.4446  -29.0842   20.3928 C   0  0  0  0  0  0  0  0  0  0  0  0
  -30.0918  -18.2352   17.8665 C   0  0  0  0  0  0  0  0  0  0  0  0
  -29.5110  -17.3164   20.5690 C   0  0  0  0  0  0  0  0  0  0  0  0
  -27.0548  -24.4047   18.2475 C   0  0  0  0  0  0  0  0  0  1  0  0
  -29.0360  -17.7418   16.8714 C   0  0  0  0  0  0  0  0  0  0  0  0
  -22.7427  -29.4036   24.1151 C   0  0  1  0  0  0  0  0  0  0  0  0
  -19.1660  -29.2382   22.8702 C   0  0  2  0  0  0  0  0  0  0  0  0
  -23.0516  -29.4951   25.6362 C   0  0  0  0  0  0  0  0  0  0  0  0
  -24.7128  -12.9562   20.6316 N   0  0  0  0  0  0  0  0  0  0  0  0
  -28.5931  -22.7429   19.1222 N   0  0  0  0  0  0  0  0  0  0  0  0
  -25.8589  -13.6556   20.5724 N   0  0  0  0  0  0  0  0  0  0  0  0
  -24.4079  -29.8135   22.3310 N   0  0  0  0  0  0  0  0  0  0  0  0
  -25.8391  -16.9270   18.5959 N   0  0  0  0  0  0  0  0  0  0  0  0
  -28.2120  -13.4434   20.7412 N   0  0  0  0  0  0  0  0  0  0  0  0
  -26.7355   -9.2271   21.4033 N   0  0  0  0  0  0  0  0  0  0  0  0
  -27.6805  -31.3655   21.9100 N   0  0  0  0  0  0  0  0  0  0  0  0
  -21.3485  -29.6623   23.7719 N   0  0  0  0  0  0  0  0  0  0  0  0
  -27.9456  -17.0561   17.5282 N   0  0  0  0  0  0  0  0  0  0  0  0
  -30.8790  -17.0734   21.0997 N   0  3  0  0  0  0  0  0  0  0  0  0
  -18.6347  -28.7117   21.5812 N   0  3  0  0  0  0  0  0  0  0  0  0
  -28.6061  -10.5488   21.2916 O   0  0  0  0  0  0  0  0  0  0  0  0
  -26.7576  -29.7738   23.3373 O   0  0  0  0  0  0  0  0  0  0  0  0
  -23.4581  -31.5839   23.5143 O   0  0  0  0  0  0  0  0  0  0  0  0
  -20.9597  -27.6252   22.7345 O   0  0  0  0  0  0  0  0  0  0  0  0
  -26.6799  -18.9451   17.8225 O   0  0  0  0  0  0  0  0  0  0  0  0
  -21.4198   -7.5600   21.3974 O   0  0  0  0  0  0  0  0  0  0  0  0
  -25.9557  -24.8193   19.0577 O   0  0  0  0  0  0  0  0  0  1  0  0
  -22.1013   -4.0239   25.5730 F   0  0  0  0  0  0  0  0  0  0  0  0
  -23.7262   -6.0517   21.6166 F   0  0  0  0  0  0  0  0  0  0  0  0
  1  2  1  0  0  0  0
  1  5  2  0  0  0  0
  2  6  2  0  0  0  0
  3  8  2  0  0  0  0
  3 17  1  0  0  0  0
  4  9  1  0  0  0  0
  4 17  2  0  0  0  0
  5 19  1  0  0  0  0
  6 21  1  0  0  0  0
  7 10  2  0  0  0  0
  7 20  1  0  0  0  0
  8 27  1  0  0  0  0
  9 27  2  0  0  0  0
 10 28  1  0  0  0  0
 11 12  2  0  0  0  0
 11 29  1  0  0  0  0
 12 30  1  0  0  0  0
 13 22  1  0  0  0  0
 13 28  2  0  0  0  0
 14 23  2  0  0  0  0
 14 26  1  0  0  0  0
 15 24  1  0  0  0  0
 15 26  2  0  0  0  0
 16 30  2  0  0  0  0
 16 31  1  0  0  0  0
 17 32  1  0  0  0  0
 18 32  1  0  0  0  0
 18 33  2  0  0  0  0
 18 35  1  0  0  0  0
 19 21  2  0  0  0  0
 19 40  1  0  0  0  0
 20 22  2  0  0  0  0
 20 41  1  0  0  0  0
 21 49  1  0  0  0  0
 22 42  1  0  0  0  0
 23 25  1  0  0  0  0
 23 52  1  0  0  0  0
 24 25  2  0  0  0  0
 24 58  1  0  0  0  0
 25 59  1  0  0  0  0
 26 66  1  0  0  0  0
 27 82  1  0  0  0  0
 28 83  1  0  0  0  0
 29 31  2  0  0  0  0
 29 82  1  0  0  0  0
 30 84  1  0  0  0  0
 31 85  1  0  0  0  0
 32 65  2  0  0  0  0
 33 67  1  0  0  0  0
 33 70  1  0  0  0  0
 34 60  1  0  0  0  0
 34 66  2  0  0  0  0
 35 71  1  0  0  0  0
 35 77  2  0  0  0  0
 36 50  1  0  0  0  0
 36 72  1  0  0  0  0
 36 78  2  0  0  0  0
 37 62  1  0  0  0  0
 37 68  1  0  0  0  0
 37 79  2  0  0  0  0
 38 63  1  0  0  0  0
 38 73  1  0  0  0  0
 38 80  2  0  0  0  0
 39 69  1  0  0  0  0
 39 74  1  0  0  0  0
 39 81  2  0  0  0  0
 40 43  1  0  0  0  0
 41 50  1  0  0  0  0
 42 68  1  0  0  0  0
 43 45  1  0  0  0  0
 44 46  1  0  0  0  0
 44 47  1  0  0  0  0
 45 49  1  0  0  0  0
 46 51  1  0  0  0  0
 47 69  1  0  0  0  0
 48 51  1  0  0  0  0
 48 69  1  0  0  0  0
 49 72  1  0  0  0  0
 50 68  1  0  0  0  0
 51 67  1  0  0  0  0
 53 63  1  0  0  0  0
 54 64  1  0  0  0  0
 55 64  1  0  0  0  0
 56 64  1  0  0  0  0
 57 76  1  0  0  0  0
 58 61  1  0  0  0  0
 59 75  1  0  0  0  0
 60 83  1  0  0  0  0
 61 74  1  0  0  0  0
 62 64  1  0  0  0  0
 62 73  1  0  0  0  0
 63 76  1  0  0  0  0
 65 67  1  0  0  0  0
M  CHG  2  75   1  76   1
M  ISO  4  39 100  60 101  74 100  83 101
M  END
> <Batch ID>
0107

> <Smiles>
CNC(C)C(=O)NC(C(=O)N1Cc2cc([101O:1][101CH:1]=CNc3cc(C)c(CN)c(CC[100NH:0][100C:0](=O)N4CCCC(n5nc(-c6ccc(Oc7ccc(F)cc7F)cc6)c(C(N)=O)c5N)C4)c3)ccc2CC1C(=O)NC1CCCc2ccccc21)C(C)(C)C

> <Shape>
0.295

> <Color>
0.104

> <Negative vol penalty>
0.000

$$$$

  -OEChem-04052301173D

 90 99  0     1  0  0  0  0  0999 V2000
  -27.1647  -36.3649   21.4398 C   0  0  0  0  0  0  0  0  0  0  0  0
  -27.5925  -35.0411   21.4527 C   0  0  0  0  0  0  0  0  0  0  0  0
  -24.3736   -9.0701   21.2451 C   0  0  0  0  0  0  0  0  0  0  0  0
  -22.3839  -10.4401   21.2119 C   0  0  0  0  0  0  0  0  0  0  0  0
  -25.9438  -36.7074   22.0194 C   0  0  0  0  0  0  0  0  0  0  0  0
  -26.8001  -34.0592   22.0462 C   0  0  0  0  0  0  0  0  0  0  0  0
  -26.4505  -29.8729   19.2183 C   0  0  0  0  0  0  0  0  0  0  0  0
  -27.3978  -22.1538   17.7731 C   0  0  0  0  0  0  0  0  0  0  0  0
  -26.5068  -21.1023   17.5582 C   0  0  0  0  0  0  0  0  0  0  0  0
  -23.5833   -7.9245   21.3374 C   0  0  0  0  0  0  0  0  0  0  0  0
  -21.5935   -9.2945   21.3041 C   0  0  0  0  0  0  0  0  0  0  0  0
  -27.5362  -28.9985   19.2383 C   0  0  0  0  0  0  0  0  0  0  0  0
  -22.0976   -4.6614   21.9442 C   0  0  0  0  0  0  0  0  0  0  0  0
  -22.4714   -3.6865   22.8690 C   0  0  0  0  0  0  0  0  0  0  0  0
  -26.3654  -27.5901   20.8082 C   0  0  0  0  0  0  0  0  0  0  0  0
  -28.5589  -20.8316   19.4286 C   0  0  0  0  0  0  0  0  0  0  0  0
  -22.2371   -5.2936   24.6577 C   0  0  0  0  0  0  0  0  0  0  0  0
  -23.7739  -10.3280   21.1824 C   0  0  0  0  0  0  0  0  0  0  0  0
  -25.5584  -11.9526   22.0092 C   0  0  0  0  0  0  0  0  0  0  0  0
  -25.1315  -35.7276   22.6119 C   0  0  0  0  0  0  0  0  0  0  0  0
  -25.3166  -29.6177   20.0028 C   0  0  0  0  0  0  0  0  0  0  0  0
  -25.5678  -34.3892   22.6355 C   0  0  0  0  0  0  0  0  0  0  0  0
  -25.2655  -28.4615   20.7944 C   0  0  0  0  0  0  0  0  0  0  0  0
  -28.4239  -22.0184   18.7083 C   0  0  0  0  0  0  0  0  0  0  0  0
  -26.6419  -19.9154   18.2784 C   0  0  0  0  0  0  0  0  0  0  0  0
  -22.1933   -8.0366   21.3669 C   0  0  0  0  0  0  0  0  0  0  0  0
  -27.4950  -27.8584   20.0355 C   0  0  0  0  0  0  0  0  0  0  0  0
  -21.7935   -5.9524   22.3760 C   0  0  0  0  0  0  0  0  0  0  0  0
  -22.5412   -4.0026   24.2258 C   0  0  0  0  0  0  0  0  0  0  0  0
  -27.6679  -19.7801   19.2137 C   0  0  0  0  0  0  0  0  0  0  0  0
  -21.8632   -6.2685   23.7328 C   0  0  0  0  0  0  0  0  0  0  0  0
  -24.5898  -11.5118   21.0877 C   0  0  0  0  0  0  0  0  0  0  0  0
  -26.0463  -13.1154   21.4647 C   0  0  0  0  0  0  0  0  0  0  0  0
  -30.6677  -22.7847   19.3312 C   0  0  0  0  0  0  0  0  0  0  0  0
  -28.8634  -24.4335   18.7469 C   0  0  0  0  0  0  0  0  0  0  0  0
  -25.6612  -18.9715   14.4245 C   0  0  0  0  0  0  0  0  0  0  0  0
  -25.8482  -18.5148   15.6680 C   0  0  0  0  0  0  0  0  0  0  0  0
  -25.9797  -11.3637   23.2467 C   0  0  0  0  0  0  0  0  0  0  0  0
  -23.8541  -31.1249   22.3888 C   0  0  0  0  0  0  0  0  0  0  0  0
  -21.6514  -28.7746   22.0062 C   0  0  0  0  0  0  0  0  0  0  0  0
  -21.6738  -25.2173   21.4037 C   0  0  0  0  0  0  0  0  0  0  0  0
  -25.3877  -17.9238   19.0858 C   0  0  0  0  0  0  0  0  0  0  0  0
  -23.8418  -36.1533   23.2676 C   0  0  0  0  0  0  0  0  0  0  0  0
  -24.1428  -30.5568   19.9496 C   0  0  0  0  0  0  0  0  0  0  0  0
  -24.0633  -28.1314   21.6395 C   0  0  0  0  0  0  0  0  0  0  0  0
  -31.5714  -23.9356   19.7226 C   0  0  0  0  0  0  0  0  0  0  0  0
  -22.8879  -34.9942   23.5448 C   0  0  0  0  0  0  0  0  0  0  0  0
  -30.8424  -25.2358   19.9684 C   0  0  0  0  0  0  0  0  0  0  0  0
  -25.4106  -15.1352   16.8799 C   0  0  0  0  0  0  0  0  0  0  0  0
  -23.6357  -33.8287   24.1844 C   0  0  0  0  0  0  0  0  0  0  0  0
  -25.2665  -13.9716   17.8602 C   0  0  0  0  0  0  0  0  0  0  0  0
  -24.5494  -16.3328   17.2823 C   0  0  0  0  0  0  0  0  0  0  0  0
  -24.6274  -15.6289   19.6535 C   0  0  0  0  0  0  0  0  0  0  0  0
  -24.7248  -33.2916   23.2479 C   0  0  1  0  0  0  0  0  0  0  0  0
  -29.9394  -25.5095   18.7790 C   0  0  2  0  0  0  0  0  0  0  0  0
  -23.2484  -30.4657   21.1820 C   0  0  1  0  0  0  0  0  0  0  0  0
  -25.5260  -14.4319   19.3055 C   0  0  1  0  0  0  0  0  0  0  0  0
  -19.9753  -23.7396   20.2951 C   0  0  0  0  0  0  0  0  0  0  0  0
  -20.6268  -28.3143   24.8431 C   0  0  0  0  0  0  0  0  0  0  0  0
  -20.2115  -25.9226   24.2305 C   0  0  0  0  0  0  0  0  0  0  0  0
  -18.9925  -27.7434   23.0382 C   0  0  0  0  0  0  0  0  0  0  0  0
  -23.6648  -24.1785   19.4760 C   0  0  0  0  0  0  0  0  0  0  0  0
  -24.9381  -18.8186   16.8115 C   0  0  0  0  0  0  0  0  0  0  0  0
  -29.3373  -26.9098   18.8685 C   0  0  0  0  0  0  0  0  0  1  0  0
  -21.4535  -27.3915   22.5779 C   0  0  1  0  0  0  0  0  0  0  0  0
  -21.2747  -24.5103   20.1210 C   0  0  2  0  0  0  0  0  0  0  0  0
  -20.3470  -27.3543   23.6696 C   0  0  0  0  0  0  0  0  0  0  0  0
  -24.4679  -12.3281   20.0375 N   0  0  0  0  0  0  0  0  0  0  0  0
  -25.3664  -13.2936   20.2959 N   0  0  0  0  0  0  0  0  0  0  0  0
  -29.3494  -23.1112   18.9323 N   0  0  0  0  0  0  0  0  0  0  0  0
  -22.9435  -29.0838   21.5583 N   0  0  0  0  0  0  0  0  0  0  0  0
  -24.8018  -16.7098   18.6803 N   0  0  0  0  0  0  0  0  0  0  0  0
  -26.9861  -13.9926   21.8765 N   0  0  0  0  0  0  0  0  0  0  0  0
  -25.3129  -11.7321   24.4231 N   0  0  0  0  0  0  0  0  0  0  0  0
  -24.1397  -32.4655   22.2136 N   0  0  0  0  0  0  0  0  0  0  0  0
  -21.2014  -26.5122   21.4414 N   0  0  0  0  0  0  0  0  0  0  0  0
  -25.7176  -18.8289   18.0541 N   0  0  0  0  0  0  0  0  0  0  0  0
  -22.3375  -23.5519   19.7055 N   0  3  0  0  0  0  0  0  0  0  0  0
  -31.1572  -21.6508   19.3032 O   0  0  0  0  0  0  0  0  0  0  0  0
  -27.6796  -24.7380   18.5874 O   0  0  0  0  0  0  0  0  0  0  0  0
  -26.9303  -10.5477   23.3096 O   0  0  0  0  0  0  0  0  0  0  0  0
  -24.0466  -30.4664   23.4042 O   0  0  0  0  0  0  0  0  0  0  0  0
  -20.6931  -29.5494   21.9521 O   0  0  0  0  0  0  0  0  0  0  0  0
  -22.3351  -24.6740   22.2857 O   0  0  0  0  0  0  0  0  0  0  0  0
  -25.5774  -18.1900   20.2787 O   0  0  0  0  0  0  0  0  0  0  0  0
  -21.4218   -6.9189   21.4566 O   0  0  0  0  0  0  0  0  0  0  0  0
  -28.5536  -27.0037   20.0573 O   0  0  0  0  0  0  0  0  0  1  0  0
  -22.8987   -3.0659   25.1141 F   0  0  0  0  0  0  0  0  0  0  0  0
  -27.8064  -18.6444   19.9129 F   0  0  0  0  0  0  0  0  0  0  0  0
  -21.5711   -7.5067   24.1538 F   0  0  0  0  0  0  0  0  0  0  0  0
  1  2  1  0  0  0  0
  1  5  2  0  0  0  0
  2  6  2  0  0  0  0
  3 10  2  0  0  0  0
  3 18  1  0  0  0  0
  4 11  1  0  0  0  0
  4 18  2  0  0  0  0
  5 20  1  0  0  0  0
  6 22  1  0  0  0  0
  7 12  2  0  0  0  0
  7 21  1  0  0  0  0
  8  9  2  0  0  0  0
  8 24  1  0  0  0  0
  9 25  1  0  0  0  0
 10 26  1  0  0  0  0
 11 26  2  0  0  0  0
 12 27  1  0  0  0  0
 13 14  2  0  0  0  0
 13 28  1  0  0  0  0
 14 29  1  0  0  0  0
 15 23  1  0  0  0  0
 15 27  2  0  0  0  0
 16 24  2  0  0  0  0
 16 30  1  0  0  0  0
 17 29  2  0  0  0  0
 17 31  1  0  0  0  0
 18 32  1  0  0  0  0
 19 32  1  0  0  0  0
 19 33  2  0  0  0  0
 19 38  1  0  0  0  0
 20 22  2  0  0  0  0
 20 43  1  0  0  0  0
 21 23  2  0  0  0  0
 21 44  1  0  0  0  0
 22 54  1  0  0  0  0
 23 45  1  0  0  0  0
 24 70  1  0  0  0  0
 25 30  2  0  0  0  0
 25 77  1  0  0  0  0
 26 86  1  0  0  0  0
 27 87  1  0  0  0  0
 28 31  2  0  0  0  0
 28 86  1  0  0  0  0
 29 88  1  0  0  0  0
 30 89  1  0  0  0  0
 31 90  1  0  0  0  0
 32 68  2  0  0  0  0
 33 69  1  0  0  0  0
 33 73  1  0  0  0  0
 34 46  1  0  0  0  0
 34 70  1  0  0  0  0
 34 79  2  0  0  0  0
 35 55  1  0  0  0  0
 35 70  1  0  0  0  0
 35 80  2  0  0  0  0
 36 37  2  0  0  0  0
 37 63  1  0  0  0  0
 38 74  1  0  0  0  0
 38 81  2  0  0  0  0
 39 56  1  0  0  0  0
 39 75  1  0  0  0  0
 39 82  2  0  0  0  0
 40 65  1  0  0  0  0
 40 71  1  0  0  0  0
 40 83  2  0  0  0  0
 41 66  1  0  0  0  0
 41 76  1  0  0  0  0
 41 84  2  0  0  0  0
 42 72  1  0  0  0  0
 42 77  1  0  0  0  0
 42 85  2  0  0  0  0
 43 47  1  0  0  0  0
 44 56  1  0  0  0  0
 45 71  1  0  0  0  0
 46 48  1  0  0  0  0
 47 50  1  0  0  0  0
 48 55  1  0  0  0  0
 49 51  1  0  0  0  0
 49 52  1  0  0  0  0
 50 54  1  0  0  0  0
 51 57  1  0  0  0  0
 52 72  1  0  0  0  0
 53 57  1  0  0  0  0
 53 72  1  0  0  0  0
 54 75  1  0  0  0  0
 55 64  1  0  0  0  0
 56 71  1  0  0  0  0
 57 69  1  0  0  0  0
 58 66  1  0  0  0  0
 59 67  1  0  0  0  0
 60 67  1  0  0  0  0
 61 67  1  0  0  0  0
 62 78  1  0  0  0  0
 63 77  1  0  0  0  0
 64 87  1  0  0  0  0
 65 67  1  0  0  0  0
 65 76  1  0  0  0  0
 66 78  1  0  0  0  0
 68 69  1  0  0  0  0
M  CHG  1  78   1
M  ISO  4  42 100  64 101  77 100  87 101
M  END
> <Batch ID>
0107

> <Smiles>
C=CC[100N:0](c1ccc(N2C(=O)CCC([101CH2:1][101O:1]c3ccc4c(c3)CN(C(=O)C(NC(=O)C(C)NC)C(C)(C)C)C(C(=O)NC3CCCc5ccccc53)C4)C2=O)cc1F)[100C:0](=O)N1CCCC(n2nc(-c3ccc(Oc4ccc(F)cc4F)cc3)c(C(N)=O)c2N)C1

> <Shape>
0.314

> <Color>
0.109

> <Negative vol penalty>
0.000

$$$$

  -OEChem-04052301173D

 90 99  0     1  0  0  0  0  0999 V2000
  -16.9015  -30.6828   23.9819 C   0  0  0  0  0  0  0  0  0  0  0  0
  -18.0936  -30.9473   24.6486 C   0  0  0  0  0  0  0  0  0  0  0  0
  -24.4963   -9.4134   20.4006 C   0  0  0  0  0  0  0  0  0  0  0  0
  -22.7713  -10.5261   21.6748 C   0  0  0  0  0  0  0  0  0  0  0  0
  -16.8443  -29.6575   23.0388 C   0  0  0  0  0  0  0  0  0  0  0  0
  -19.2289  -30.1858   24.3733 C   0  0  0  0  0  0  0  0  0  0  0  0
  -26.7944  -27.9959   21.4714 C   0  0  0  0  0  0  0  0  0  0  0  0
  -23.8211   -8.2015   20.5448 C   0  0  0  0  0  0  0  0  0  0  0  0
  -22.0961   -9.3141   21.8190 C   0  0  0  0  0  0  0  0  0  0  0  0
  -27.3045  -26.8669   20.8321 C   0  0  0  0  0  0  0  0  0  0  0  0
  -20.1014   -6.4489   22.8298 C   0  0  0  0  0  0  0  0  0  0  0  0
  -19.6041   -6.1302   24.0934 C   0  0  0  0  0  0  0  0  0  0  0  0
  -23.9798  -21.8832   19.5272 C   0  0  0  0  0  0  0  0  0  0  0  0
  -25.3844  -26.8333   19.3723 C   0  0  0  0  0  0  0  0  0  0  0  0
  -23.5557  -19.5055   20.9233 C   0  0  0  0  0  0  0  0  0  0  0  0
  -21.8431   -6.2182   24.9968 C   0  0  0  0  0  0  0  0  0  0  0  0
  -23.9714  -10.5758   20.9657 C   0  0  0  0  0  0  0  0  0  0  0  0
  -22.9469  -21.0263   19.1475 C   0  0  0  0  0  0  0  0  0  0  0  0
  -25.9722  -12.1319   21.2539 C   0  0  0  0  0  0  0  0  0  0  0  0
  -17.9819  -28.8894   22.7448 C   0  0  0  0  0  0  0  0  0  0  0  0
  -25.5680  -28.5466   21.0725 C   0  0  0  0  0  0  0  0  0  0  0  0
  -19.1864  -29.1484   23.4264 C   0  0  0  0  0  0  0  0  0  0  0  0
  -24.8621  -27.9709   20.0065 C   0  0  0  0  0  0  0  0  0  0  0  0
  -24.8007  -21.5513   20.6050 C   0  0  0  0  0  0  0  0  0  0  0  0
  -22.7348  -19.8374   19.8455 C   0  0  0  0  0  0  0  0  0  0  0  0
  -22.6209   -8.1518   21.2540 C   0  0  0  0  0  0  0  0  0  0  0  0
  -26.5981  -26.2837   19.7843 C   0  0  0  0  0  0  0  0  0  0  0  0
  -21.4696   -6.6522   22.6497 C   0  0  0  0  0  0  0  0  0  0  0  0
  -24.5887  -20.3625   21.3031 C   0  0  0  0  0  0  0  0  0  0  0  0
  -20.4749   -6.0148   25.1769 C   0  0  0  0  0  0  0  0  0  0  0  0
  -22.3404   -6.5369   23.7332 C   0  0  0  0  0  0  0  0  0  0  0  0
  -24.6688  -11.8279   20.8175 C   0  0  0  0  0  0  0  0  0  0  0  0
  -26.1648  -13.4383   20.8764 C   0  0  0  0  0  0  0  0  0  0  0  0
  -21.4137  -22.5308   17.9638 C   0  0  0  0  0  0  0  0  0  0  0  0
  -22.1104  -21.4061   18.0152 C   0  0  0  0  0  0  0  0  0  0  0  0
  -26.9238  -11.3070   21.9392 C   0  0  0  0  0  0  0  0  0  0  0  0
  -22.7548  -29.0114   22.4772 C   0  0  0  0  0  0  0  0  0  0  0  0
  -22.0725  -30.5713   19.7162 C   0  0  0  0  0  0  0  0  0  0  0  0
  -22.6576  -30.0655   16.1921 C   0  0  0  0  0  0  0  0  0  0  0  0
  -21.7500  -17.5393   19.6699 C   0  0  0  0  0  0  0  0  0  0  0  0
  -17.8591  -27.7608   21.7520 C   0  0  0  0  0  0  0  0  0  0  0  0
  -25.0444  -29.7806   21.7547 C   0  0  0  0  0  0  0  0  0  0  0  0
  -23.5509  -28.5357   19.5266 C   0  0  0  0  0  0  0  0  0  0  0  0
  -19.2041  -27.2454   21.2463 C   0  0  0  0  0  0  0  0  0  0  0  0
  -28.7177  -21.4732   17.8353 C   0  0  0  0  0  0  0  0  0  0  0  0
  -24.4192  -16.3114   17.3779 C   0  0  0  0  0  0  0  0  0  0  0  0
  -28.9982  -21.0589   19.2713 C   0  0  0  0  0  0  0  0  0  0  0  0
  -20.1686  -27.0394   22.4100 C   0  0  0  0  0  0  0  0  0  0  0  0
  -25.1875  -15.2741   18.1990 C   0  0  0  0  0  0  0  0  0  0  0  0
  -28.0246  -22.8280   17.7855 C   0  0  0  0  0  0  0  0  0  0  0  0
  -23.8548  -17.4330   18.2422 C   0  0  0  0  0  0  0  0  0  0  0  0
  -23.2169  -15.5570   19.7752 C   0  0  0  0  0  0  0  0  0  0  0  0
  -27.7315  -21.0689   20.1099 C   0  0  0  0  0  0  0  0  0  0  0  0
  -20.4457  -28.3607   23.1373 C   0  0  1  0  0  0  0  0  0  0  0  0
  -23.5360  -29.9522   21.6041 C   0  0  1  0  0  0  0  0  0  0  0  0
  -24.6993  -15.1792   19.6566 C   0  0  1  0  0  0  0  0  0  0  0  0
  -26.7443  -22.8602   18.6297 C   0  0  2  0  0  0  0  0  0  0  0  0
  -22.8426  -31.7206   14.3149 C   0  0  0  0  0  0  0  0  0  0  0  0
  -19.0958  -30.0253   19.3272 C   0  0  0  0  0  0  0  0  0  0  0  0
  -19.4670  -30.1511   16.8544 C   0  0  0  0  0  0  0  0  0  0  0  0
  -19.9124  -32.1464   18.2839 C   0  0  0  0  0  0  0  0  0  0  0  0
  -20.3752  -19.5018   19.1347 C   0  0  0  0  0  0  0  0  0  0  0  0
  -25.3134  -29.0345   15.3903 C   0  0  0  0  0  0  0  0  0  0  0  0
  -25.0943  -18.7900   23.0141 C   0  0  0  0  0  0  0  0  0  0  0  0
  -25.9066  -22.4850   21.0005 C   0  0  0  0  0  0  0  0  0  0  0  0
  -26.1467  -24.2657   18.6096 C   0  0  0  0  0  0  0  0  0  1  0  0
  -21.4928  -30.1753   18.3797 C   0  0  1  0  0  0  0  0  0  0  0  0
  -23.6046  -30.8543   15.3057 C   0  0  2  0  0  0  0  0  0  0  0  0
  -20.0067  -30.6061   18.2272 C   0  0  0  0  0  0  0  0  0  0  0  0
  -24.0752  -12.8584   20.2094 N   0  0  0  0  0  0  0  0  0  0  0  0
  -25.0098  -13.8226   20.2611 N   0  0  0  0  0  0  0  0  0  0  0  0
  -23.0774  -29.7394   20.2298 N   0  0  0  0  0  0  0  0  0  0  0  0
  -22.9534  -16.9137   19.2850 N   0  0  0  0  0  0  0  0  0  0  0  0
  -27.2077  -14.2844   21.0141 N   0  0  0  0  0  0  0  0  0  0  0  0
  -26.5635   -9.9889   22.2508 N   0  0  0  0  0  0  0  0  0  0  0  0
  -21.3846  -29.1646   22.3845 N   0  0  0  0  0  0  0  0  0  0  0  0
  -22.3833  -30.7325   17.3673 N   0  0  0  0  0  0  0  0  0  0  0  0
  -21.6760  -18.9315   19.4771 N   0  0  0  0  0  0  0  0  0  0  0  0
  -27.0848  -22.4394   20.0576 N   0  3  1  0  0  0  0  0  0  0  0  0
  -24.4878  -29.9301   14.5398 N   0  3  0  0  0  0  0  0  0  0  0  0
  -28.0540  -11.7314   22.2801 O   0  0  0  0  0  0  0  0  0  0  0  0
  -23.3510  -28.2053   23.1818 O   0  0  0  0  0  0  0  0  0  0  0  0
  -21.6542  -31.5855   20.2802 O   0  0  0  0  0  0  0  0  0  0  0  0
  -22.2036  -28.9692   15.8722 O   0  0  0  0  0  0  0  0  0  0  0  0
  -20.7859  -16.8908   20.0946 O   0  0  0  0  0  0  0  0  0  0  0  0
  -21.9617   -6.9694   21.3947 O   0  0  0  0  0  0  0  0  0  0  0  0
  -25.3818  -20.0231   22.3578 O   0  0  0  0  0  0  0  0  0  0  0  0
  -27.0935  -25.1812   19.1590 O   0  0  0  0  0  0  0  0  0  1  0  0
  -19.9970   -5.7103   26.3906 F   0  0  0  0  0  0  0  0  0  0  0  0
  -23.6557   -6.7322   23.5665 F   0  0  0  0  0  0  0  0  0  0  0  0
  1  2  1  0  0  0  0
  1  5  2  0  0  0  0
  2  6  2  0  0  0  0
  3  8  2  0  0  0  0
  3 17  1  0  0  0  0
  4  9  1  0  0  0  0
  4 17  2  0  0  0  0
  5 20  1  0  0  0  0
  6 22  1  0  0  0  0
  7 10  2  0  0  0  0
  7 21  1  0  0  0  0
  8 26  1  0  0  0  0
  9 26  2  0  0  0  0
 10 27  1  0  0  0  0
 11 12  2  0  0  0  0
 11 28  1  0  0  0  0
 12 30  1  0  0  0  0
 13 18  1  0  0  0  0
 13 24  2  0  0  0  0
 14 23  1  0  0  0  0
 14 27  2  0  0  0  0
 15 25  1  0  0  0  0
 15 29  2  0  0  0  0
 16 30  2  0  0  0  0
 16 31  1  0  0  0  0
 17 32  1  0  0  0  0
 18 25  2  0  0  0  0
 18 35  1  0  0  0  0
 19 32  1  0  0  0  0
 19 33  2  0  0  0  0
 19 36  1  0  0  0  0
 20 22  2  0  0  0  0
 20 41  1  0  0  0  0
 21 23  2  0  0  0  0
 21 42  1  0  0  0  0
 22 54  1  0  0  0  0
 23 43  1  0  0  0  0
 24 29  1  0  0  0  0
 24 65  1  0  0  0  0
 25 78  1  0  0  0  0
 26 86  1  0  0  0  0
 27 88  1  0  0  0  0
 28 31  2  0  0  0  0
 28 86  1  0  0  0  0
 29 87  1  0  0  0  0
 30 89  1  0  0  0  0
 31 90  1  0  0  0  0
 32 70  2  0  0  0  0
 33 71  1  0  0  0  0
 33 74  1  0  0  0  0
 34 35  2  0  0  0  0
 36 75  1  0  0  0  0
 36 81  2  0  0  0  0
 37 55  1  0  0  0  0
 37 76  1  0  0  0  0
 37 82  2  0  0  0  0
 38 67  1  0  0  0  0
 38 72  1  0  0  0  0
 38 83  2  0  0  0  0
 39 68  1  0  0  0  0
 39 77  1  0  0  0  0
 39 84  2  0  0  0  0
 40 73  1  0  0  0  0
 40 78  1  0  0  0  0
 40 85  2  0  0  0  0
 41 44  1  0  0  0  0
 42 55  1  0  0  0  0
 43 72  1  0  0  0  0
 44 48  1  0  0  0  0
 45 47  1  0  0  0  0
 45 50  1  0  0  0  0
 46 49  1  0  0  0  0
 46 51  1  0  0  0  0
 47 53  1  0  0  0  0
 48 54  1  0  0  0  0
 49 56  1  0  0  0  0
 50 57  1  0  0  0  0
 51 73  1  0  0  0  0
 52 56  1  0  0  0  0
 52 73  1  0  0  0  0
 53 79  1  0  0  0  0
 54 76  1  0  0  0  0
 55 72  1  0  0  0  0
 56 71  1  0  0  0  0
 57 66  1  0  0  0  0
 57 79  1  0  0  0  0
 58 68  1  0  0  0  0
 59 69  1  0  0  0  0
 60 69  1  0  0  0  0
 61 69  1  0  0  0  0
 62 78  1  0  0  0  0
 63 80  1  0  0  0  0
 64 87  1  0  0  0  0
 65 79  1  0  0  0  0
 66 88  1  0  0  0  0
 67 69  1  0  0  0  0
 67 77  1  0  0  0  0
 68 80  1  0  0  0  0
 70 71  1  0  0  0  0
M  CHG  2  79   1  80   1
M  ISO  4  40 100  66 101  78 100  88 101
M  END
> <Batch ID>
0107

> <Smiles>
C=Cc1cc(CN2CCCCC2[101CH2:1][101O:1]c2ccc3c(c2)CN(C(=O)C(NC(=O)C(C)NC)C(C)(C)C)C(C(=O)NC2CCCc4ccccc42)C3)c(OC)cc1[100N:0](C)[100C:0](=O)N1CCCC(n2nc(-c3ccc(Oc4ccc(F)cc4F)cc3)c(C(N)=O)c2N)C1

> <Shape>
0.245

> <Color>
0.135

> <Negative vol penalty>
0.000

$$$$

  -OEChem-04052301173D

 87 95  0     1  0  0  0  0  0999 V2000
  -26.6880  -35.7162   21.9457 C   0  0  0  0  0  0  0  0  0  0  0  0
  -27.1298  -34.3970   21.9484 C   0  0  0  0  0  0  0  0  0  0  0  0
  -23.1210   -9.8241   20.2641 C   0  0  0  0  0  0  0  0  0  0  0  0
  -23.9002  -10.1700   22.5247 C   0  0  0  0  0  0  0  0  0  0  0  0
  -25.4186  -36.0260   22.4322 C   0  0  0  0  0  0  0  0  0  0  0  0
  -26.3027  -33.3870   22.4385 C   0  0  0  0  0  0  0  0  0  0  0  0
  -26.2438  -29.3015   19.4467 C   0  0  0  0  0  0  0  0  0  0  0  0
  -22.4085   -8.7000   20.6816 C   0  0  0  0  0  0  0  0  0  0  0  0
  -23.1876   -9.0459   22.9423 C   0  0  0  0  0  0  0  0  0  0  0  0
  -27.3349  -28.4374   19.5275 C   0  0  0  0  0  0  0  0  0  0  0  0
  -23.5571   -5.6864   22.8510 C   0  0  0  0  0  0  0  0  0  0  0  0
  -24.2043   -4.7865   23.6977 C   0  0  0  0  0  0  0  0  0  0  0  0
  -26.0543  -26.9625   20.9432 C   0  0  0  0  0  0  0  0  0  0  0  0
  -30.1516  -19.8384   19.7383 C   0  0  0  0  0  0  0  0  0  0  0  0
  -28.9731  -20.1425   21.8253 C   0  0  0  0  0  0  0  0  0  0  0  0
  -22.5138   -5.1570   25.3836 C   0  0  0  0  0  0  0  0  0  0  0  0
  -23.8669  -10.5591   21.1856 C   0  0  0  0  0  0  0  0  0  0  0  0
  -24.1441  -13.0499   20.7098 C   0  0  0  0  0  0  0  0  0  0  0  0
  -24.5719  -35.0180   22.9196 C   0  0  0  0  0  0  0  0  0  0  0  0
  -25.0514  -29.0075   20.1236 C   0  0  0  0  0  0  0  0  0  0  0  0
  -25.0214  -33.6838   22.9332 C   0  0  0  0  0  0  0  0  0  0  0  0
  -24.9487  -27.8232   20.8673 C   0  0  0  0  0  0  0  0  0  0  0  0
  -29.9455  -18.4615   19.8225 C   0  0  0  0  0  0  0  0  0  0  0  0
  -29.2531  -17.9250   20.9081 C   0  0  0  0  0  0  0  0  0  0  0  0
  -29.6654  -20.6790   20.7397 C   0  0  0  0  0  0  0  0  0  0  0  0
  -22.4418   -8.3109   22.0207 C   0  0  0  0  0  0  0  0  0  0  0  0
  -27.2413  -27.2691   20.2781 C   0  0  0  0  0  0  0  0  0  0  0  0
  -22.3882   -6.3217   23.2706 C   0  0  0  0  0  0  0  0  0  0  0  0
  -23.6826   -4.5218   24.9640 C   0  0  0  0  0  0  0  0  0  0  0  0
  -28.7669  -18.7656   21.9095 C   0  0  0  0  0  0  0  0  0  0  0  0
  -21.8666   -6.0569   24.5369 C   0  0  0  0  0  0  0  0  0  0  0  0
  -24.6036  -11.7200   20.7547 C   0  0  0  0  0  0  0  0  0  0  0  0
  -25.2140  -13.7668   20.2323 C   0  0  0  0  0  0  0  0  0  0  0  0
  -28.9547  -22.7281   20.0412 C   0  0  0  0  0  0  0  0  0  0  0  0
  -22.8648  -13.5891   21.0679 C   0  0  0  0  0  0  0  0  0  0  0  0
  -29.1109  -24.2084   19.9110 C   0  0  0  0  0  0  0  0  0  0  0  0
  -23.3754  -30.4142   22.4293 C   0  0  0  0  0  0  0  0  0  0  0  0
  -21.2421  -28.0582   21.7808 C   0  0  0  0  0  0  0  0  0  0  0  0
  -20.6654  -24.9358   20.5298 C   0  0  0  0  0  0  0  0  0  0  0  0
  -30.8054  -14.6915   20.6771 C   0  0  0  0  0  0  0  0  0  0  0  0
  -23.2265  -35.4076   23.4789 C   0  0  0  0  0  0  0  0  0  0  0  0
  -23.8745  -29.9367   20.0047 C   0  0  0  0  0  0  0  0  0  0  0  0
  -23.6841  -27.4516   21.5962 C   0  0  0  0  0  0  0  0  0  0  0  0
  -22.2673  -34.2302   23.6343 C   0  0  0  0  0  0  0  0  0  0  0  0
  -29.5729  -12.2430   18.1896 C   0  0  0  0  0  0  0  0  0  0  0  0
  -22.9735  -33.0497   24.2934 C   0  0  0  0  0  0  0  0  0  0  0  0
  -28.1566  -11.9515   18.6827 C   0  0  0  0  0  0  0  0  0  0  0  0
  -30.5001  -12.6442   19.3328 C   0  0  0  0  0  0  0  0  0  0  0  0
  -28.5795  -13.4928   20.6387 C   0  0  0  0  0  0  0  0  0  0  0  0
  -24.1439  -32.5570   23.4337 C   0  0  1  0  0  0  0  0  0  0  0  0
  -22.8812  -29.7930   21.1536 C   0  0  1  0  0  0  0  0  0  0  0  0
  -27.6084  -13.1307   19.5049 C   0  0  2  0  0  0  0  0  0  0  0  0
  -29.6138  -17.6308   17.4802 C   0  0  0  0  0  0  0  0  0  0  0  0
  -18.8266  -23.2663   20.1706 C   0  0  0  0  0  0  0  0  0  0  0  0
  -21.2953  -27.3640   24.7516 C   0  0  0  0  0  0  0  0  0  0  0  0
  -20.2314  -25.1692   24.1864 C   0  0  0  0  0  0  0  0  0  0  0  0
  -19.0246  -27.2988   23.7055 C   0  0  0  0  0  0  0  0  0  0  0  0
  -30.9852  -16.3367   22.5048 C   0  0  0  0  0  0  0  0  0  0  0  0
  -21.0518  -24.9678   17.5958 C   0  0  0  0  0  0  0  0  0  0  0  0
  -30.4755  -17.5816   18.7383 C   0  0  0  0  0  0  0  0  0  0  0  0
  -29.0214  -16.4535   21.0164 C   0  0  0  0  0  0  0  0  0  0  0  0
  -28.0206  -25.0367   20.5333 C   0  0  0  0  0  0  0  0  0  1  0  0
  -21.0143  -26.6537   22.2853 C   0  0  1  0  0  0  0  0  0  0  0  0
  -19.6162  -24.4157   19.5638 C   0  0  2  0  0  0  0  0  0  0  0  0
  -20.4160  -26.6291   23.7202 C   0  0  0  0  0  0  0  0  0  0  0  0
  -25.8668  -11.5965   20.3387 N   0  0  0  0  0  0  0  0  0  0  0  0
  -29.8726  -22.0661   20.6555 N   0  0  0  0  0  0  0  0  0  0  0  0
  -26.2102  -12.8580   20.0278 N   0  0  0  0  0  0  0  0  0  0  0  0
  -22.5633  -28.3956   21.4543 N   0  0  0  0  0  0  0  0  0  0  0  0
  -29.9351  -13.7379   20.1239 N   0  0  0  0  0  0  0  0  0  0  0  0
  -25.3902  -15.0795   19.9714 N   0  0  0  0  0  0  0  0  0  0  0  0
  -21.8789  -12.7124   21.5410 N   0  0  0  0  0  0  0  0  0  0  0  0
  -23.6579  -31.7629   22.3257 N   0  0  0  0  0  0  0  0  0  0  0  0
  -20.1895  -25.9885   21.2825 N   0  0  0  0  0  0  0  0  0  0  0  0
  -30.2261  -15.7315   21.4197 N   0  0  0  0  0  0  0  0  0  0  0  0
  -20.2608  -23.9328   18.3099 N   0  3  0  0  0  0  0  0  0  0  0  0
  -22.5982  -14.8097   20.9555 O   0  0  0  0  0  0  0  0  0  0  0  0
  -30.0975  -24.6367   19.3334 O   0  0  0  0  0  0  0  0  0  0  0  0
  -23.4904  -29.7216   23.4336 O   0  0  0  0  0  0  0  0  0  0  0  0
  -20.2821  -28.8253   21.6734 O   0  0  0  0  0  0  0  0  0  0  0  0
  -21.7930  -24.4538   20.6114 O   0  0  0  0  0  0  0  0  0  0  0  0
  -32.0296  -14.6229   20.5082 O   0  0  0  0  0  0  0  0  0  0  0  0
  -21.7464   -7.2142   22.4286 O   0  0  0  0  0  0  0  0  0  0  0  0
  -28.3050  -26.4242   20.3592 O   0  0  0  0  0  0  0  0  0  1  0  0
  -24.3034   -3.6564   25.7764 F   0  0  0  0  0  0  0  0  0  0  0  0
  -28.1001  -18.2602   22.9569 F   0  0  0  0  0  0  0  0  0  0  0  0
  -20.7434   -6.6632   24.9451 F   0  0  0  0  0  0  0  0  0  0  0  0
  1  2  1  0  0  0  0
  1  5  2  0  0  0  0
  2  6  2  0  0  0  0
  3  8  2  0  0  0  0
  3 17  1  0  0  0  0
  4  9  1  0  0  0  0
  4 17  2  0  0  0  0
  5 19  1  0  0  0  0
  6 21  1  0  0  0  0
  7 10  2  0  0  0  0
  7 20  1  0  0  0  0
  8 26  1  0  0  0  0
  9 26  2  0  0  0  0
 10 27  1  0  0  0  0
 11 12  2  0  0  0  0
 11 28  1  0  0  0  0
 12 29  1  0  0  0  0
 13 22  1  0  0  0  0
 13 27  2  0  0  0  0
 14 23  1  0  0  0  0
 14 25  2  0  0  0  0
 15 25  1  0  0  0  0
 15 30  2  0  0  0  0
 16 29  2  0  0  0  0
 16 31  1  0  0  0  0
 17 32  1  0  0  0  0
 18 32  1  0  0  0  0
 18 33  2  0  0  0  0
 18 35  1  0  0  0  0
 19 21  2  0  0  0  0
 19 41  1  0  0  0  0
 20 22  2  0  0  0  0
 20 42  1  0  0  0  0
 21 50  1  0  0  0  0
 22 43  1  0  0  0  0
 23 24  2  0  0  0  0
 23 60  1  0  0  0  0
 24 30  1  0  0  0  0
 24 61  1  0  0  0  0
 25 67  1  0  0  0  0
 26 83  1  0  0  0  0
 27 84  1  0  0  0  0
 28 31  2  0  0  0  0
 28 83  1  0  0  0  0
 29 85  1  0  0  0  0
 30 86  1  0  0  0  0
 31 87  1  0  0  0  0
 32 66  2  0  0  0  0
 33 68  1  0  0  0  0
 33 71  1  0  0  0  0
 34 36  1  0  0  0  0
 34 67  2  0  0  0  0
 35 72  1  0  0  0  0
 35 77  2  0  0  0  0
 36 62  1  0  0  0  0
 36 78  2  0  0  0  0
 37 51  1  0  0  0  0
 37 73  1  0  0  0  0
 37 79  2  0  0  0  0
 38 63  1  0  0  0  0
 38 69  1  0  0  0  0
 38 80  2  0  0  0  0
 39 64  1  0  0  0  0
 39 74  1  0  0  0  0
 39 81  2  0  0  0  0
 40 70  1  0  0  0  0
 40 75  1  0  0  0  0
 40 82  2  0  0  0  0
 41 44  1  0  0  0  0
 42 51  1  0  0  0  0
 43 69  1  0  0  0  0
 44 46  1  0  0  0  0
 45 47  1  0  0  0  0
 45 48  1  0  0  0  0
 46 50  1  0  0  0  0
 47 52  1  0  0  0  0
 48 70  1  0  0  0  0
 49 52  1  0  0  0  0
 49 70  1  0  0  0  0
 50 73  1  0  0  0  0
 51 69  1  0  0  0  0
 52 68  1  0  0  0  0
 53 60  1  0  0  0  0
 54 64  1  0  0  0  0
 55 65  1  0  0  0  0
 56 65  1  0  0  0  0
 57 65  1  0  0  0  0
 58 75  1  0  0  0  0
 59 76  1  0  0  0  0
 61 75  1  0  0  0  0
 62 84  1  0  0  0  0
 63 65  1  0  0  0  0
 63 74  1  0  0  0  0
 64 76  1  0  0  0  0
 66 68  1  0  0  0  0
M  CHG  1  76   1
M  ISO  4  40 100  62 101  75 100  84 101
M  END
> <Batch ID>
0107

> <Smiles>
C=Cc1cc(NCC(=O)[101CH2:1][101O:1]c2ccc3c(c2)CN(C(=O)C(NC(=O)C(C)NC)C(C)(C)C)C(C(=O)NC2CCCc4ccccc42)C3)cc(F)c1C[100N:0](C)[100C:0](=O)N1CCCC(n2nc(-c3ccc(Oc4ccc(F)cc4F)cc3)c(C(N)=O)c2N)C1

> <Shape>
0.402

> <Color>
0.239

> <Negative vol penalty>
0.000

$$$$

  -OEChem-04052301173D

 85 93  0     1  0  0  0  0  0999 V2000
  -16.4342  -28.8421   23.2596 C   0  0  0  0  0  0  0  0  0  0  0  0
  -17.2429  -28.6677   22.1411 C   0  0  0  0  0  0  0  0  0  0  0  0
  -26.0696  -12.8253   22.1132 C   0  0  0  0  0  0  0  0  0  0  0  0
  -26.1612  -13.7223   19.8718 C   0  0  0  0  0  0  0  0  0  0  0  0
  -16.9089  -29.5600   24.3565 C   0  0  0  0  0  0  0  0  0  0  0  0
  -18.5264  -29.2121   22.1185 C   0  0  0  0  0  0  0  0  0  0  0  0
  -23.4928  -26.8210   19.4494 C   0  0  0  0  0  0  0  0  0  0  0  0
  -24.8942  -12.1459   21.7933 C   0  0  0  0  0  0  0  0  0  0  0  0
  -24.9858  -13.0427   19.5518 C   0  0  0  0  0  0  0  0  0  0  0  0
  -24.1117  -27.0705   18.2253 C   0  0  0  0  0  0  0  0  0  0  0  0
  -24.0164   -9.3263   20.1464 C   0  0  0  0  0  0  0  0  0  0  0  0
  -23.9070   -7.9953   20.5490 C   0  0  0  0  0  0  0  0  0  0  0  0
  -25.6469  -28.5782   19.3156 C   0  0  0  0  0  0  0  0  0  0  0  0
  -28.4496  -22.9120   20.1824 C   0  0  0  0  0  0  0  0  0  0  0  0
  -28.7482  -21.2950   18.4123 C   0  0  0  0  0  0  0  0  0  0  0  0
  -21.9567   -8.5527   21.8615 C   0  0  0  0  0  0  0  0  0  0  0  0
  -26.7031  -13.6136   21.1525 C   0  0  0  0  0  0  0  0  0  0  0  0
  -29.2362  -13.8439   21.3472 C   0  0  0  0  0  0  0  0  0  0  0  0
  -18.2025  -30.1052   24.3512 C   0  0  0  0  0  0  0  0  0  0  0  0
  -23.9401  -27.4577   20.6160 C   0  0  0  0  0  0  0  0  0  0  0  0
  -19.0184  -29.9391   23.2158 C   0  0  0  0  0  0  0  0  0  0  0  0
  -25.0337  -28.3332   20.5537 C   0  0  0  0  0  0  0  0  0  0  0  0
  -28.1122  -23.8825   19.2390 C   0  0  0  0  0  0  0  0  0  0  0  0
  -28.4108  -22.2655   17.4689 C   0  0  0  0  0  0  0  0  0  0  0  0
  -28.7676  -21.6183   19.7690 C   0  0  0  0  0  0  0  0  0  0  0  0
  -28.0928  -23.5592   17.8823 C   0  0  0  0  0  0  0  0  0  0  0  0
  -24.3523  -12.2545   20.5126 C   0  0  0  0  0  0  0  0  0  0  0  0
  -25.1871  -27.9514   18.1577 C   0  0  0  0  0  0  0  0  0  0  0  0
  -23.0960  -10.2706   20.6013 C   0  0  0  0  0  0  0  0  0  0  0  0
  -22.8771   -7.6085   21.4065 C   0  0  0  0  0  0  0  0  0  0  0  0
  -22.0661   -9.8837   21.4589 C   0  0  0  0  0  0  0  0  0  0  0  0
  -27.9169  -14.3162   21.4825 C   0  0  0  0  0  0  0  0  0  0  0  0
  -30.0194  -14.8804   21.7930 C   0  0  0  0  0  0  0  0  0  0  0  0
  -29.7112  -12.5812   20.8618 C   0  0  0  0  0  0  0  0  0  0  0  0
  -22.6485  -29.4721   22.7082 C   0  0  0  0  0  0  0  0  0  0  0  0
  -25.4340  -28.9924   24.2999 C   0  0  0  0  0  0  0  0  0  0  0  0
  -28.3976  -25.7521   16.6818 C   0  0  0  0  0  0  0  0  0  0  0  0
  -28.7257  -28.1006   24.1748 C   0  0  0  0  0  0  0  0  0  0  0  0
  -29.1791  -20.7878   22.1115 C   0  0  0  0  0  0  0  0  0  0  0  0
  -18.6544  -30.9138   25.5414 C   0  0  0  0  0  0  0  0  0  0  0  0
  -23.2788  -27.1574   21.9331 C   0  0  0  0  0  0  0  0  0  0  0  0
  -25.5652  -29.0266   21.7805 C   0  0  0  0  0  0  0  0  0  0  0  0
  -20.1636  -31.1389   25.5873 C   0  0  0  0  0  0  0  0  0  0  0  0
  -29.9488  -18.5978   24.8113 C   0  0  0  0  0  0  0  0  0  0  0  0
  -20.6801  -31.5751   24.2199 C   0  0  0  0  0  0  0  0  0  0  0  0
  -29.6409  -17.2078   24.2497 C   0  0  0  0  0  0  0  0  0  0  0  0
  -28.9577  -19.6454   24.3072 C   0  0  0  0  0  0  0  0  0  0  0  0
  -28.4970  -18.3140   22.2863 C   0  0  0  0  0  0  0  0  0  0  0  0
  -20.4256  -30.4933   23.1632 C   0  0  1  0  0  0  0  0  0  0  0  0
  -23.4894  -28.2550   22.9715 C   0  0  1  0  0  0  0  0  0  0  0  0
  -29.5074  -17.2372   22.7145 C   0  0  2  0  0  0  0  0  0  0  0  0
  -27.7774  -25.2600   19.7124 C   0  0  0  0  0  0  0  0  0  0  0  0
  -28.3981  -21.8893   16.0224 C   0  0  0  0  0  0  0  0  0  0  0  0
  -31.0162  -27.5254   25.0236 C   0  0  0  0  0  0  0  0  0  0  0  0
  -25.7776  -32.0237   24.3579 C   0  0  0  0  0  0  0  0  0  0  0  0
  -28.1867  -31.6695   24.9400 C   0  0  0  0  0  0  0  0  0  0  0  0
  -26.4009  -30.8622   26.4833 C   0  0  0  0  0  0  0  0  0  0  0  0
  -28.0224  -25.2418   24.4773 C   0  0  0  0  0  0  0  0  0  0  0  0
  -27.7017  -26.5144   15.5628 C   0  0  0  0  0  0  0  0  0  0  0  0
  -27.8323  -28.0262   15.7123 C   0  0  0  0  0  0  0  0  0  0  0  0
  -27.1816  -28.5226   16.9952 C   0  0  0  0  0  0  0  0  0  1  0  0
  -26.7926  -29.6504   24.2992 C   0  0  1  0  0  0  0  0  0  0  0  0
  -29.5436  -27.1455   25.0254 C   0  0  2  0  0  0  0  0  0  0  0  0
  -26.7785  -31.0400   24.9965 C   0  0  0  0  0  0  0  0  0  0  0  0
  -27.8613  -15.5562   21.9758 N   0  0  0  0  0  0  0  0  0  0  0  0
  -29.1553  -15.8718   22.1545 N   0  0  0  0  0  0  0  0  0  0  0  0
  -24.8810  -28.7051   23.0439 N   0  0  0  0  0  0  0  0  0  0  0  0
  -28.8872  -19.6181   22.8446 N   0  0  0  0  0  0  0  0  0  0  0  0
  -31.3560  -15.0313   21.9073 N   0  0  0  0  0  0  0  0  0  0  0  0
  -28.7710  -11.6297   20.4435 N   0  0  0  0  0  0  0  0  0  0  0  0
  -27.7509  -24.5435   16.9246 N   0  0  0  0  0  0  0  0  0  0  0  0
  -29.1111  -20.6327   20.7274 N   0  0  0  0  0  0  0  0  0  0  0  0
  -21.3953  -29.4263   23.2887 N   0  0  0  0  0  0  0  0  0  0  0  0
  -27.7117  -28.6898   24.8999 N   0  0  0  0  0  0  0  0  0  0  0  0
  -29.4167  -25.7534   24.5087 N   0  3  0  0  0  0  0  0  0  0  0  0
  -30.9325  -12.2987   20.8163 O   0  0  0  0  0  0  0  0  0  0  0  0
  -23.1034  -30.3857   22.0300 O   0  0  0  0  0  0  0  0  0  0  0  0
  -24.8867  -28.7360   25.3752 O   0  0  0  0  0  0  0  0  0  0  0  0
  -29.3884  -26.1949   17.2532 O   0  0  0  0  0  0  0  0  0  0  0  0
  -28.9650  -28.3063   22.9870 O   0  0  0  0  0  0  0  0  0  0  0  0
  -29.4948  -21.8417   22.6698 O   0  0  0  0  0  0  0  0  0  0  0  0
  -23.2055  -11.5914   20.2001 O   0  0  0  0  0  0  0  0  0  0  0  0
  -25.7926  -28.1972   16.9641 O   0  0  0  0  0  0  0  0  0  1  0  0
  -22.7713   -6.3301   21.7919 F   0  0  0  0  0  0  0  0  0  0  0  0
  -21.1782  -10.7861   21.8983 F   0  0  0  0  0  0  0  0  0  0  0  0
  1  2  1  0  0  0  0
  1  5  2  0  0  0  0
  2  6  2  0  0  0  0
  3  8  2  0  0  0  0
  3 17  1  0  0  0  0
  4  9  1  0  0  0  0
  4 17  2  0  0  0  0
  5 19  1  0  0  0  0
  6 21  1  0  0  0  0
  7 10  2  0  0  0  0
  7 20  1  0  0  0  0
  8 27  1  0  0  0  0
  9 27  2  0  0  0  0
 10 28  1  0  0  0  0
 11 12  2  0  0  0  0
 11 29  1  0  0  0  0
 12 30  1  0  0  0  0
 13 22  1  0  0  0  0
 13 28  2  0  0  0  0
 14 23  2  0  0  0  0
 14 25  1  0  0  0  0
 15 24  1  0  0  0  0
 15 25  2  0  0  0  0
 16 30  2  0  0  0  0
 16 31  1  0  0  0  0
 17 32  1  0  0  0  0
 18 32  1  0  0  0  0
 18 33  2  0  0  0  0
 18 34  1  0  0  0  0
 19 21  2  0  0  0  0
 19 40  1  0  0  0  0
 20 22  2  0  0  0  0
 20 41  1  0  0  0  0
 21 49  1  0  0  0  0
 22 42  1  0  0  0  0
 23 26  1  0  0  0  0
 23 52  1  0  0  0  0
 24 26  2  0  0  0  0
 24 53  1  0  0  0  0
 25 72  1  0  0  0  0
 26 71  1  0  0  0  0
 27 82  1  0  0  0  0
 28 83  1  0  0  0  0
 29 31  2  0  0  0  0
 29 82  1  0  0  0  0
 30 84  1  0  0  0  0
 31 85  1  0  0  0  0
 32 65  2  0  0  0  0
 33 66  1  0  0  0  0
 33 69  1  0  0  0  0
 34 70  1  0  0  0  0
 34 76  2  0  0  0  0
 35 50  1  0  0  0  0
 35 73  1  0  0  0  0
 35 77  2  0  0  0  0
 36 62  1  0  0  0  0
 36 67  1  0  0  0  0
 36 78  2  0  0  0  0
 37 59  1  0  0  0  0
 37 71  1  0  0  0  0
 37 79  2  0  0  0  0
 38 63  1  0  0  0  0
 38 74  1  0  0  0  0
 38 80  2  0  0  0  0
 39 68  1  0  0  0  0
 39 72  1  0  0  0  0
 39 81  2  0  0  0  0
 40 43  1  0  0  0  0
 41 50  1  0  0  0  0
 42 67  1  0  0  0  0
 43 45  1  0  0  0  0
 44 46  1  0  0  0  0
 44 47  1  0  0  0  0
 45 49  1  0  0  0  0
 46 51  1  0  0  0  0
 47 68  1  0  0  0  0
 48 51  1  0  0  0  0
 48 68  1  0  0  0  0
 49 73  1  0  0  0  0
 50 67  1  0  0  0  0
 51 66  1  0  0  0  0
 54 63  1  0  0  0  0
 55 64  1  0  0  0  0
 56 64  1  0  0  0  0
 57 64  1  0  0  0  0
 58 75  1  0  0  0  0
 59 60  1  0  0  0  0
 60 61  1  0  0  0  0
 61 83  1  0  0  0  0
 62 64  1  0  0  0  0
 62 74  1  0  0  0  0
 63 75  1  0  0  0  0
 65 66  1  0  0  0  0
M  CHG  1  75   1
M  ISO  4  39 100  61 101  72 100  83 101
M  END
> <Batch ID>
0107

> <Smiles>
CNC(C)C(=O)NC(C(=O)N1Cc2cc([101O:1][101CH2:1]CCC(=O)Nc3c(C)cc([100NH:0][100C:0](=O)N4CCCC(n5nc(-c6ccc(Oc7ccc(F)cc7F)cc6)c(C(N)=O)c5N)C4)cc3C)ccc2CC1C(=O)NC1CCCc2ccccc21)C(C)(C)C

> <Shape>
0.283

> <Color>
0.079

> <Negative vol penalty>
0.000

$$$$

  -OEChem-04052301173D

 84 92  0     1  0  0  0  0  0999 V2000
  -24.4023   -6.4335   23.9789 C   0  0  0  0  0  0  0  0  0  0  0  0
  -25.5826   -7.1185   23.7087 C   0  0  0  0  0  0  0  0  0  0  0  0
  -24.0402  -29.8110   24.3894 C   0  0  0  0  0  0  0  0  0  0  0  0
  -24.6249  -30.6374   22.1957 C   0  0  0  0  0  0  0  0  0  0  0  0
  -23.2485   -6.7210   23.2508 C   0  0  0  0  0  0  0  0  0  0  0  0
  -25.6101   -8.0908   22.7095 C   0  0  0  0  0  0  0  0  0  0  0  0
  -28.8902  -13.2625   22.6943 C   0  0  0  0  0  0  0  0  0  0  0  0
  -24.2689  -31.0774   24.9275 C   0  0  0  0  0  0  0  0  0  0  0  0
  -24.8535  -31.9038   22.7337 C   0  0  0  0  0  0  0  0  0  0  0  0
  -30.1043  -13.6014   22.0987 C   0  0  0  0  0  0  0  0  0  0  0  0
  -27.2974  -33.4699   24.4675 C   0  0  0  0  0  0  0  0  0  0  0  0
  -28.4511  -34.1448   24.0687 C   0  0  0  0  0  0  0  0  0  0  0  0
  -28.9142  -14.5653   20.2349 C   0  0  0  0  0  0  0  0  0  0  0  0
  -30.3670  -18.7842   18.7006 C   0  0  0  0  0  0  0  0  0  0  0  0
  -32.4199  -20.0315   18.9592 C   0  0  0  0  0  0  0  0  0  0  0  0
  -27.0962  -35.9413   23.1890 C   0  0  0  0  0  0  0  0  0  0  0  0
  -24.2182  -29.5910   23.0236 C   0  0  0  0  0  0  0  0  0  0  0  0
  -22.7705  -27.7824   21.9555 C   0  0  0  0  0  0  0  0  0  0  0  0
  -23.2594   -7.7040   22.2488 C   0  0  0  0  0  0  0  0  0  0  0  0
  -27.6770  -13.5632   22.0584 C   0  0  0  0  0  0  0  0  0  0  0  0
  -24.4557   -8.3908   21.9665 C   0  0  0  0  0  0  0  0  0  0  0  0
  -27.6859  -14.2314   20.8257 C   0  0  0  0  0  0  0  0  0  0  0  0
  -29.6573  -19.9784   18.5747 C   0  0  0  0  0  0  0  0  0  0  0  0
  -30.3289  -21.1991   18.6410 C   0  0  0  0  0  0  0  0  0  0  0  0
  -31.7483  -18.8107   18.8929 C   0  0  0  0  0  0  0  0  0  0  0  0
  -24.6755  -32.1238   24.0996 C   0  0  0  0  0  0  0  0  0  0  0  0
  -30.1165  -14.2503   20.8675 C   0  0  0  0  0  0  0  0  0  0  0  0
  -26.0430  -34.0307   24.2270 C   0  0  0  0  0  0  0  0  0  0  0  0
  -28.3505  -35.3805   23.4295 C   0  0  0  0  0  0  0  0  0  0  0  0
  -31.7103  -21.2257   18.8333 C   0  0  0  0  0  0  0  0  0  0  0  0
  -25.9424  -35.2664   23.5878 C   0  0  0  0  0  0  0  0  0  0  0  0
  -23.9827  -28.2828   22.4673 C   0  0  0  0  0  0  0  0  0  0  0  0
  -23.0697  -26.5038   21.5527 C   0  0  0  0  0  0  0  0  0  0  0  0
  -32.5890  -17.1530   20.2234 C   0  0  0  0  0  0  0  0  0  0  0  0
  -21.4887  -28.4166   21.8532 C   0  0  0  0  0  0  0  0  0  0  0  0
  -25.2494  -11.8481   20.9321 C   0  0  0  0  0  0  0  0  0  0  0  0
  -23.9171  -14.7669   20.4548 C   0  0  0  0  0  0  0  0  0  0  0  0
  -24.3703  -18.1160   19.9805 C   0  0  0  0  0  0  0  0  0  0  0  0
  -28.1333  -24.0074   19.8255 C   0  0  0  0  0  0  0  0  0  0  0  0
  -21.9994   -7.9467   21.4562 C   0  0  0  0  0  0  0  0  0  0  0  0
  -26.3753  -13.2148   22.7267 C   0  0  0  0  0  0  0  0  0  0  0  0
  -26.4107  -14.5948   20.1115 C   0  0  0  0  0  0  0  0  0  0  0  0
  -22.0174   -9.2545   20.6689 C   0  0  0  0  0  0  0  0  0  0  0  0
  -26.0187  -22.8630   22.5303 C   0  0  0  0  0  0  0  0  0  0  0  0
  -23.3409   -9.4129   19.9273 C   0  0  0  0  0  0  0  0  0  0  0  0
  -25.1375  -24.0908   22.7679 C   0  0  0  0  0  0  0  0  0  0  0  0
  -27.4494  -23.2674   22.1871 C   0  0  0  0  0  0  0  0  0  0  0  0
  -26.6864  -25.4193   21.2593 C   0  0  0  0  0  0  0  0  0  0  0  0
  -24.5191   -9.4697   20.9072 C   0  0  1  0  0  0  0  0  0  0  0  0
  -25.2103  -13.1097   21.7473 C   0  0  1  0  0  0  0  0  0  0  0  0
  -25.2218  -25.0777   21.5884 C   0  0  2  0  0  0  0  0  0  0  0  0
  -28.1789  -19.9248   18.3696 C   0  0  0  0  0  0  0  0  0  0  0  0
  -23.7544  -20.5332   19.7058 C   0  0  0  0  0  0  0  0  0  0  0  0
  -23.4617  -13.9457   17.5517 C   0  0  0  0  0  0  0  0  0  0  0  0
  -23.0862  -16.3590   17.0009 C   0  0  0  0  0  0  0  0  0  0  0  0
  -21.5608  -15.1931   18.5935 C   0  0  0  0  0  0  0  0  0  0  0  0
  -24.4229  -18.5814   22.9027 C   0  0  0  0  0  0  0  0  0  0  0  0
  -29.5874  -22.4887   18.5078 C   0  0  0  0  0  0  0  0  0  0  0  0
  -33.3231  -15.8647   20.4826 C   0  0  0  0  0  0  0  0  0  0  0  0
  -32.3964  -14.8641   21.1525 C   0  0  0  0  0  0  0  0  0  1  0  0
  -23.9118  -15.7678   19.3247 C   0  0  1  0  0  0  0  0  0  0  0  0
  -23.7130  -19.3228   20.6256 C   0  0  2  0  0  0  0  0  0  0  0  0
  -23.0294  -15.3080   18.1300 C   0  0  0  0  0  0  0  0  0  0  0  0
  -24.9778  -27.3946   22.3974 N   0  0  0  0  0  0  0  0  0  0  0  0
  -32.4638  -17.6083   19.0196 N   0  0  0  0  0  0  0  0  0  0  0  0
  -24.3913  -26.3231   21.8370 N   0  0  0  0  0  0  0  0  0  0  0  0
  -25.1636  -14.2273   20.8024 N   0  0  0  0  0  0  0  0  0  0  0  0
  -27.4608  -24.1922   21.0449 N   0  0  0  0  0  0  0  0  0  0  0  0
  -22.3285  -25.5277   20.9867 N   0  0  0  0  0  0  0  0  0  0  0  0
  -21.3560  -29.7333   22.3146 N   0  0  0  0  0  0  0  0  0  0  0  0
  -24.6035  -10.7777   21.5208 N   0  0  0  0  0  0  0  0  0  0  0  0
  -23.5085  -17.0420   19.9097 N   0  0  0  0  0  0  0  0  0  0  0  0
  -28.8492  -22.8226   19.7056 N   0  0  0  0  0  0  0  0  0  0  0  0
  -24.4084  -19.6739   21.8961 N   0  3  0  0  0  0  0  0  0  0  0  0
  -20.4866  -27.8272   21.3821 O   0  0  0  0  0  0  0  0  0  0  0  0
  -25.8218  -11.8464   19.8486 O   0  0  0  0  0  0  0  0  0  0  0  0
  -22.8554  -14.4799   21.0135 O   0  0  0  0  0  0  0  0  0  0  0  0
  -25.5309  -18.1264   19.5761 O   0  0  0  0  0  0  0  0  0  0  0  0
  -28.0944  -24.8351   18.9087 O   0  0  0  0  0  0  0  0  0  0  0  0
  -24.8985  -33.3598   24.6242 O   0  0  0  0  0  0  0  0  0  0  0  0
  -31.3003  -14.5817   20.2836 O   0  0  0  0  0  0  0  0  0  1  0  0
  -29.4586  -36.0291   23.0480 F   0  0  0  0  0  0  0  0  0  0  0  0
  -32.3653  -22.3934   18.8983 F   0  0  0  0  0  0  0  0  0  0  0  0
  -24.7402  -35.8107   23.3551 F   0  0  0  0  0  0  0  0  0  0  0  0
  1  2  1  0  0  0  0
  1  5  2  0  0  0  0
  2  6  2  0  0  0  0
  3  8  2  0  0  0  0
  3 17  1  0  0  0  0
  4  9  1  0  0  0  0
  4 17  2  0  0  0  0
  5 19  1  0  0  0  0
  6 21  1  0  0  0  0
  7 10  2  0  0  0  0
  7 20  1  0  0  0  0
  8 26  1  0  0  0  0
  9 26  2  0  0  0  0
 10 27  1  0  0  0  0
 11 12  2  0  0  0  0
 11 28  1  0  0  0  0
 12 29  1  0  0  0  0
 13 22  1  0  0  0  0
 13 27  2  0  0  0  0
 14 23  2  0  0  0  0
 14 25  1  0  0  0  0
 15 25  2  0  0  0  0
 15 30  1  0  0  0  0
 16 29  2  0  0  0  0
 16 31  1  0  0  0  0
 17 32  1  0  0  0  0
 18 32  1  0  0  0  0
 18 33  2  0  0  0  0
 18 35  1  0  0  0  0
 19 21  2  0  0  0  0
 19 40  1  0  0  0  0
 20 22  2  0  0  0  0
 20 41  1  0  0  0  0
 21 49  1  0  0  0  0
 22 42  1  0  0  0  0
 23 24  1  0  0  0  0
 23 52  1  0  0  0  0
 24 30  2  0  0  0  0
 24 58  1  0  0  0  0
 25 65  1  0  0  0  0
 26 80  1  0  0  0  0
 27 81  1  0  0  0  0
 28 31  2  0  0  0  0
 28 80  1  0  0  0  0
 29 82  1  0  0  0  0
 30 83  1  0  0  0  0
 31 84  1  0  0  0  0
 32 64  2  0  0  0  0
 33 66  1  0  0  0  0
 33 69  1  0  0  0  0
 34 59  1  0  0  0  0
 34 65  2  0  0  0  0
 35 70  1  0  0  0  0
 35 75  2  0  0  0  0
 36 50  1  0  0  0  0
 36 71  1  0  0  0  0
 36 76  2  0  0  0  0
 37 61  1  0  0  0  0
 37 67  1  0  0  0  0
 37 77  2  0  0  0  0
 38 62  1  0  0  0  0
 38 72  1  0  0  0  0
 38 78  2  0  0  0  0
 39 68  1  0  0  0  0
 39 73  1  0  0  0  0
 39 79  2  0  0  0  0
 40 43  1  0  0  0  0
 41 50  1  0  0  0  0
 42 67  1  0  0  0  0
 43 45  1  0  0  0  0
 44 46  1  0  0  0  0
 44 47  1  0  0  0  0
 45 49  1  0  0  0  0
 46 51  1  0  0  0  0
 47 68  1  0  0  0  0
 48 51  1  0  0  0  0
 48 68  1  0  0  0  0
 49 71  1  0  0  0  0
 50 67  1  0  0  0  0
 51 66  1  0  0  0  0
 53 62  1  0  0  0  0
 54 63  1  0  0  0  0
 55 63  1  0  0  0  0
 56 63  1  0  0  0  0
 57 74  1  0  0  0  0
 58 73  1  0  0  0  0
 59 60  1  0  0  0  0
 60 81  1  0  0  0  0
 61 63  1  0  0  0  0
 61 72  1  0  0  0  0
 62 74  1  0  0  0  0
 64 66  1  0  0  0  0
M  CHG  1  74   1
M  ISO  4  39 100  60 101  73 100  81 101
M  END
> <Batch ID>
0107

> <Smiles>
CNC(C)C(=O)NC(C(=O)N1Cc2cc([101O:1][101CH2:1]C=CNc3cc(C)c(C[100NH:0][100C:0](=O)N4CCCC(n5nc(-c6ccc(Oc7ccc(F)cc7F)cc6)c(C(N)=O)c5N)C4)c(F)c3)ccc2CC1C(=O)NC1CCCc2ccccc21)C(C)(C)C

> <Shape>
0.241

> <Color>
0.072

> <Negative vol penalty>
0.000

$$$$

  -OEChem-04052301173D

 86 94  0     1  0  0  0  0  0999 V2000
  -32.9089  -26.0230   18.6871 C   0  0  0  0  0  0  0  0  0  0  0  0
  -31.7280  -26.5108   18.1365 C   0  0  0  0  0  0  0  0  0  0  0  0
  -24.2930  -14.3257   19.6180 C   0  0  0  0  0  0  0  0  0  0  0  0
  -25.9007  -14.7817   21.3628 C   0  0  0  0  0  0  0  0  0  0  0  0
  -33.0657  -25.9808   20.0718 C   0  0  0  0  0  0  0  0  0  0  0  0
  -30.7029  -26.9557   18.9705 C   0  0  0  0  0  0  0  0  0  0  0  0
  -26.8288  -31.5762   17.8988 C   0  0  0  0  0  0  0  0  0  0  0  0
  -24.2073  -25.0763   20.7374 C   0  0  0  0  0  0  0  0  0  0  0  0
  -23.4329  -26.2014   20.4547 C   0  0  0  0  0  0  0  0  0  0  0  0
  -24.4996  -12.9565   19.7853 C   0  0  0  0  0  0  0  0  0  0  0  0
  -26.1073  -13.4124   21.5302 C   0  0  0  0  0  0  0  0  0  0  0  0
  -25.5198  -31.6108   17.4200 C   0  0  0  0  0  0  0  0  0  0  0  0
  -24.3372   -9.3313   20.0015 C   0  0  0  0  0  0  0  0  0  0  0  0
  -23.2135   -8.5060   20.0419 C   0  0  0  0  0  0  0  0  0  0  0  0
  -24.6990  -31.6886   19.6870 C   0  0  0  0  0  0  0  0  0  0  0  0
  -23.8151  -25.8710   18.0921 C   0  0  0  0  0  0  0  0  0  0  0  0
  -22.4005   -9.7077   21.9739 C   0  0  0  0  0  0  0  0  0  0  0  0
  -24.9935  -15.2384   20.4066 C   0  0  0  0  0  0  0  0  0  0  0  0
  -23.8343  -17.4575   20.8960 C   0  0  0  0  0  0  0  0  0  0  0  0
  -32.0458  -26.4345   20.9230 C   0  0  0  0  0  0  0  0  0  0  0  0
  -27.0827  -31.5864   19.2778 C   0  0  0  0  0  0  0  0  0  0  0  0
  -30.8458  -26.9184   20.3680 C   0  0  0  0  0  0  0  0  0  0  0  0
  -26.0122  -31.6565   20.1807 C   0  0  0  0  0  0  0  0  0  0  0  0
  -24.7857  -24.3485   19.6974 C   0  0  0  0  0  0  0  0  0  0  0  0
  -24.5896  -24.7459   18.3748 C   0  0  0  0  0  0  0  0  0  0  0  0
  -23.2367  -26.5988   19.1321 C   0  0  0  0  0  0  0  0  0  0  0  0
  -25.4068  -12.4998   20.7415 C   0  0  0  0  0  0  0  0  0  0  0  0
  -24.4546  -31.6641   18.3142 C   0  0  0  0  0  0  0  0  0  0  0  0
  -24.4927  -10.3447   20.9473 C   0  0  0  0  0  0  0  0  0  0  0  0
  -22.2451   -8.6942   21.0281 C   0  0  0  0  0  0  0  0  0  0  0  0
  -23.5243  -10.5329   21.9334 C   0  0  0  0  0  0  0  0  0  0  0  0
  -24.7809  -16.6529   20.2338 C   0  0  0  0  0  0  0  0  0  0  0  0
  -24.0348  -18.7159   20.3836 C   0  0  0  0  0  0  0  0  0  0  0  0
  -22.8609  -17.0993   21.8859 C   0  0  0  0  0  0  0  0  0  0  0  0
  -28.4665  -29.5806   21.3188 C   0  0  0  0  0  0  0  0  0  0  0  0
  -28.0292  -32.0218   23.4097 C   0  0  0  0  0  0  0  0  0  0  0  0
  -22.1529  -28.2722   17.5935 C   0  0  0  0  0  0  0  0  0  0  0  0
  -26.2895  -34.8322   24.2594 C   0  0  0  0  0  0  0  0  0  0  0  0
  -27.8964  -22.6687   19.0491 C   0  0  0  0  0  0  0  0  0  0  0  0
  -32.2427  -26.3253   22.4143 C   0  0  0  0  0  0  0  0  0  0  0  0
  -28.5013  -31.5755   19.7777 C   0  0  0  0  0  0  0  0  0  0  0  0
  -26.2320  -31.6902   21.6703 C   0  0  0  0  0  0  0  0  0  0  0  0
  -31.2560  -27.1644   23.2221 C   0  0  0  0  0  0  0  0  0  0  0  0
  -26.7757  -20.2883   16.4453 C   0  0  0  0  0  0  0  0  0  0  0  0
  -29.8367  -26.9720   22.6971 C   0  0  0  0  0  0  0  0  0  0  0  0
  -26.1442  -19.1670   17.2687 C   0  0  0  0  0  0  0  0  0  0  0  0
  -27.8730  -21.0119   17.2198 C   0  0  0  0  0  0  0  0  0  0  0  0
  -26.8018  -20.4116   19.3661 C   0  0  0  0  0  0  0  0  0  0  0  0
  -29.7206  -27.4331   21.2392 C   0  0  1  0  0  0  0  0  0  0  0  0
  -28.6255  -31.0709   21.2120 C   0  0  1  0  0  0  0  0  0  0  0  0
  -25.6604  -19.6926   18.6313 C   0  0  2  0  0  0  0  0  0  0  0  0
  -25.1973  -23.9809   17.2451 C   0  0  0  0  0  0  0  0  0  0  0  0
  -26.1360  -36.5897   26.0440 C   0  0  0  0  0  0  0  0  0  0  0  0
  -26.6196  -30.0325   25.2442 C   0  0  0  0  0  0  0  0  0  0  0  0
  -25.6796  -31.9753   26.5132 C   0  0  0  0  0  0  0  0  0  0  0  0
  -28.1480  -31.6288   26.4146 C   0  0  0  0  0  0  0  0  0  0  0  0
  -27.5097  -24.6680   20.4392 C   0  0  0  0  0  0  0  0  0  0  0  0
  -26.9272  -36.9971   22.3448 C   0  0  0  0  0  0  0  0  0  0  0  0
  -25.6115  -23.1479   20.0248 C   0  0  0  0  0  0  0  0  0  0  0  0
  -21.2721  -29.5060   17.7341 C   0  0  0  0  0  0  0  0  0  0  0  0
  -21.4928  -30.5161   16.6134 C   0  0  0  0  0  0  0  0  0  0  0  0
  -22.9195  -31.0454   16.6064 C   0  0  0  0  0  0  0  0  0  1  0  0
  -26.9265  -32.4364   24.3537 C   0  0  1  0  0  0  0  0  0  0  0  0
  -26.7527  -36.2066   24.7078 C   0  0  2  0  0  0  0  0  0  0  0  0
  -26.8389  -31.5157   25.6035 C   0  0  0  0  0  0  0  0  0  0  0  0
  -25.5271  -17.3424   19.3667 N   0  0  0  0  0  0  0  0  0  0  0  0
  -25.0495  -18.5934   19.4805 N   0  0  0  0  0  0  0  0  0  0  0  0
  -27.6369  -31.6713   22.1101 N   0  0  0  0  0  0  0  0  0  0  0  0
  -27.3986  -21.4628   18.5285 N   0  0  0  0  0  0  0  0  0  0  0  0
  -23.4403  -19.9043   20.6218 N   0  0  0  0  0  0  0  0  0  0  0  0
  -22.7898  -15.7621   22.2999 N   0  0  0  0  0  0  0  0  0  0  0  0
  -22.4495  -27.7391   18.8447 N   0  0  0  0  0  0  0  0  0  0  0  0
  -29.6463  -28.8768   21.1702 N   0  0  0  0  0  0  0  0  0  0  0  0
  -27.1610  -33.8428   24.6628 N   0  0  0  0  0  0  0  0  0  0  0  0
  -27.0430  -23.4054   19.8844 N   0  0  0  0  0  0  0  0  0  0  0  0
  -26.3696  -37.2363   23.7008 N   0  3  0  0  0  0  0  0  0  0  0  0
  -22.0664  -17.9369   22.3765 O   0  0  0  0  0  0  0  0  0  0  0  0
  -27.3558  -29.1046   21.5226 O   0  0  0  0  0  0  0  0  0  0  0  0
  -29.1965  -32.0163   23.8086 O   0  0  0  0  0  0  0  0  0  0  0  0
  -22.5185  -27.8544   16.4998 O   0  0  0  0  0  0  0  0  0  0  0  0
  -25.2559  -34.6538   23.6189 O   0  0  0  0  0  0  0  0  0  0  0  0
  -29.0350  -23.0689   18.7747 O   0  0  0  0  0  0  0  0  0  0  0  0
  -25.6085  -11.1638   20.9053 O   0  0  0  0  0  0  0  0  0  0  0  0
  -23.1760  -31.6974   17.8495 O   0  0  0  0  0  0  0  0  0  1  0  0
  -21.1652   -7.9026   21.0659 F   0  0  0  0  0  0  0  0  0  0  0  0
  -23.6676  -11.5056   22.8440 F   0  0  0  0  0  0  0  0  0  0  0  0
  1  2  1  0  0  0  0
  1  5  2  0  0  0  0
  2  6  2  0  0  0  0
  3 10  2  0  0  0  0
  3 18  1  0  0  0  0
  4 11  1  0  0  0  0
  4 18  2  0  0  0  0
  5 20  1  0  0  0  0
  6 22  1  0  0  0  0
  7 12  2  0  0  0  0
  7 21  1  0  0  0  0
  8  9  2  0  0  0  0
  8 24  1  0  0  0  0
  9 26  1  0  0  0  0
 10 27  1  0  0  0  0
 11 27  2  0  0  0  0
 12 28  1  0  0  0  0
 13 14  2  0  0  0  0
 13 29  1  0  0  0  0
 14 30  1  0  0  0  0
 15 23  1  0  0  0  0
 15 28  2  0  0  0  0
 16 25  1  0  0  0  0
 16 26  2  0  0  0  0
 17 30  2  0  0  0  0
 17 31  1  0  0  0  0
 18 32  1  0  0  0  0
 19 32  1  0  0  0  0
 19 33  2  0  0  0  0
 19 34  1  0  0  0  0
 20 22  2  0  0  0  0
 20 40  1  0  0  0  0
 21 23  2  0  0  0  0
 21 41  1  0  0  0  0
 22 49  1  0  0  0  0
 23 42  1  0  0  0  0
 24 25  2  0  0  0  0
 24 59  1  0  0  0  0
 25 52  1  0  0  0  0
 26 72  1  0  0  0  0
 27 83  1  0  0  0  0
 28 84  1  0  0  0  0
 29 31  2  0  0  0  0
 29 83  1  0  0  0  0
 30 85  1  0  0  0  0
 31 86  1  0  0  0  0
 32 66  2  0  0  0  0
 33 67  1  0  0  0  0
 33 70  1  0  0  0  0
 34 71  1  0  0  0  0
 34 77  2  0  0  0  0
 35 50  1  0  0  0  0
 35 73  1  0  0  0  0
 35 78  2  0  0  0  0
 36 63  1  0  0  0  0
 36 68  1  0  0  0  0
 36 79  2  0  0  0  0
 37 60  1  0  0  0  0
 37 72  1  0  0  0  0
 37 80  2  0  0  0  0
 38 64  1  0  0  0  0
 38 74  1  0  0  0  0
 38 81  2  0  0  0  0
 39 69  1  0  0  0  0
 39 75  1  0  0  0  0
 39 82  2  0  0  0  0
 40 43  1  0  0  0  0
 41 50  1  0  0  0  0
 42 68  1  0  0  0  0
 43 45  1  0  0  0  0
 44 46  1  0  0  0  0
 44 47  1  0  0  0  0
 45 49  1  0  0  0  0
 46 51  1  0  0  0  0
 47 69  1  0  0  0  0
 48 51  1  0  0  0  0
 48 69  1  0  0  0  0
 49 73  1  0  0  0  0
 50 68  1  0  0  0  0
 51 67  1  0  0  0  0
 53 64  1  0  0  0  0
 54 65  1  0  0  0  0
 55 65  1  0  0  0  0
 56 65  1  0  0  0  0
 57 75  1  0  0  0  0
 58 76  1  0  0  0  0
 59 75  1  0  0  0  0
 60 61  1  0  0  0  0
 61 62  1  0  0  0  0
 62 84  1  0  0  0  0
 63 65  1  0  0  0  0
 63 74  1  0  0  0  0
 64 76  1  0  0  0  0
 66 67  1  0  0  0  0
M  CHG  1  76   1
M  ISO  4  39 100  62 101  75 100  84 101
M  END
> <Batch ID>
0107

> <Smiles>
CNC(C)C(=O)NC(C(=O)N1Cc2cc([101O:1][101CH2:1]CCC(=O)Nc3ccc(C[100N:0](C)[100C:0](=O)N4CCCC(n5nc(-c6ccc(Oc7ccc(F)cc7F)cc6)c(C(N)=O)c5N)C4)c(C)c3)ccc2CC1C(=O)NC1CCCc2ccccc21)C(C)(C)C

> <Shape>
0.215

> <Color>
0.108

> <Negative vol penalty>
0.000

$$$$

  -OEChem-04052301173D

 87 96  0     1  0  0  0  0  0999 V2000
  -24.1905  -35.7649   25.1230 C   0  0  0  0  0  0  0  0  0  0  0  0
  -25.0953  -34.8971   24.5198 C   0  0  0  0  0  0  0  0  0  0  0  0
  -27.0558  -12.3823   21.6606 C   0  0  0  0  0  0  0  0  0  0  0  0
  -26.3698  -13.8835   19.8964 C   0  0  0  0  0  0  0  0  0  0  0  0
  -22.9874  -35.2746   25.6289 C   0  0  0  0  0  0  0  0  0  0  0  0
  -24.7978  -33.5382   24.4232 C   0  0  0  0  0  0  0  0  0  0  0  0
  -26.3217  -29.7516   19.8575 C   0  0  0  0  0  0  0  0  0  0  0  0
  -26.9738  -23.8792   23.5401 C   0  0  0  0  0  0  0  0  0  0  0  0
  -28.0493  -24.7407   23.3242 C   0  0  0  0  0  0  0  0  0  0  0  0
  -26.2771  -11.3692   21.1014 C   0  0  0  0  0  0  0  0  0  0  0  0
  -25.5910  -12.8704   19.3371 C   0  0  0  0  0  0  0  0  0  0  0  0
  -27.3576  -28.8304   19.7091 C   0  0  0  0  0  0  0  0  0  0  0  0
  -24.1855   -8.4941   20.3380 C   0  0  0  0  0  0  0  0  0  0  0  0
  -23.3910   -7.7354   21.1974 C   0  0  0  0  0  0  0  0  0  0  0  0
  -28.5025  -23.6471   21.2180 C   0  0  0  0  0  0  0  0  0  0  0  0
  -25.8842  -27.0651   20.4385 C   0  0  0  0  0  0  0  0  0  0  0  0
  -22.2168   -9.7347   21.8767 C   0  0  0  0  0  0  0  0  0  0  0  0
  -27.1021  -13.6395   21.0581 C   0  0  0  0  0  0  0  0  0  0  0  0
  -27.4270  -22.7855   21.4340 C   0  0  0  0  0  0  0  0  0  0  0  0
  -29.2552  -14.9749   21.3560 C   0  0  0  0  0  0  0  0  0  0  0  0
  -22.6707  -33.9106   25.5298 C   0  0  0  0  0  0  0  0  0  0  0  0
  -25.0602  -29.3375   20.3087 C   0  0  0  0  0  0  0  0  0  0  0  0
  -23.5899  -33.0290   24.9294 C   0  0  0  0  0  0  0  0  0  0  0  0
  -24.8332  -27.9826   20.5893 C   0  0  0  0  0  0  0  0  0  0  0  0
  -26.6626  -22.9015   22.5951 C   0  0  0  0  0  0  0  0  0  0  0  0
  -28.8136  -24.6247   22.1631 C   0  0  0  0  0  0  0  0  0  0  0  0
  -25.5447  -11.6132   19.9396 C   0  0  0  0  0  0  0  0  0  0  0  0
  -27.1398  -27.4874   20.0024 C   0  0  0  0  0  0  0  0  0  0  0  0
  -23.9958   -9.8731   20.2479 C   0  0  0  0  0  0  0  0  0  0  0  0
  -22.4066   -8.3557   21.9668 C   0  0  0  0  0  0  0  0  0  0  0  0
  -23.0114  -10.4933   21.0172 C   0  0  0  0  0  0  0  0  0  0  0  0
  -27.9059  -14.6866   21.6357 C   0  0  0  0  0  0  0  0  0  0  0  0
  -29.5493  -16.0515   22.1566 C   0  0  0  0  0  0  0  0  0  0  0  0
  -30.7211  -26.1053   22.9366 C   0  0  0  0  0  0  0  0  0  0  0  0
  -27.9688  -20.8105   20.0846 C   0  0  0  0  0  0  0  0  0  0  0  0
  -27.1279  -21.7744   20.4284 C   0  0  0  0  0  0  0  0  0  0  0  0
  -30.1616  -14.3274   20.4533 C   0  0  0  0  0  0  0  0  0  0  0  0
  -23.2537  -30.0011   22.8386 C   0  0  0  0  0  0  0  0  0  0  0  0
  -21.0753  -28.1769   21.2737 C   0  0  0  0  0  0  0  0  0  0  0  0
  -20.4621  -25.7197   18.9862 C   0  0  0  0  0  0  0  0  0  0  0  0
  -26.1814  -20.3585   24.5975 C   0  0  0  0  0  0  0  0  0  0  0  0
  -21.3788  -33.4195   26.1335 C   0  0  0  0  0  0  0  0  0  0  0  0
  -23.9456  -30.3393   20.4380 C   0  0  0  0  0  0  0  0  0  0  0  0
  -23.4915  -27.4836   21.0575 C   0  0  0  0  0  0  0  0  0  0  0  0
  -31.7683  -26.9397   22.2376 C   0  0  0  0  0  0  0  0  0  0  0  0
  -20.9740  -32.0272   25.6562 C   0  0  0  0  0  0  0  0  0  0  0  0
  -31.7788  -26.3835   20.8264 C   0  0  0  0  0  0  0  0  0  0  0  0
  -28.3122  -18.0777   26.3105 C   0  0  0  0  0  0  0  0  0  0  0  0
  -22.1661  -31.0770   25.7094 C   0  0  0  0  0  0  0  0  0  0  0  0
  -28.5715  -16.9760   25.2814 C   0  0  0  0  0  0  0  0  0  0  0  0
  -26.8871  -18.6176   26.2123 C   0  0  0  0  0  0  0  0  0  0  0  0
  -26.7479  -17.9712   23.8382 C   0  0  0  0  0  0  0  0  0  0  0  0
  -23.2922  -31.5524   24.7835 C   0  0  1  0  0  0  0  0  0  0  0  0
  -22.8469  -29.8903   21.3964 C   0  0  1  0  0  0  0  0  0  0  0  0
  -28.1892  -17.4341   23.8611 C   0  0  2  0  0  0  0  0  0  0  0  0
  -30.3413  -25.9253   20.6072 C   0  0  2  0  0  0  0  0  0  0  0  0
  -18.5840  -24.4180   17.9489 C   0  0  0  0  0  0  0  0  0  0  0  0
  -20.8265  -26.5124   23.8188 C   0  0  0  0  0  0  0  0  0  0  0  0
  -19.7121  -24.7289   22.4603 C   0  0  0  0  0  0  0  0  0  0  0  0
  -18.6589  -26.9811   22.6628 C   0  0  0  0  0  0  0  0  0  0  0  0
  -21.1126  -26.7172   16.2768 C   0  0  0  0  0  0  0  0  0  0  0  0
  -25.5034  -21.9954   22.8597 C   0  0  0  0  0  0  0  0  0  0  0  0
  -29.4794  -27.0640   20.0571 C   0  0  0  0  0  0  0  0  0  1  0  0
  -20.7347  -26.7064   21.2459 C   0  0  1  0  0  0  0  0  0  0  0  0
  -19.4802  -25.6410   17.8311 C   0  0  2  0  0  0  0  0  0  0  0  0
  -20.0090  -26.2416   22.5400 C   0  0  0  0  0  0  0  0  0  0  0  0
  -27.3794  -15.5133   22.5431 N   0  0  0  0  0  0  0  0  0  0  0  0
  -28.4031  -16.3315   22.8407 N   0  0  0  0  0  0  0  0  0  0  0  0
  -29.9174  -25.5097   21.9414 N   0  0  0  0  0  0  0  0  0  0  0  0
  -22.4353  -28.5027   21.1743 N   0  0  0  0  0  0  0  0  0  0  0  0
  -26.5886  -19.0363   24.8407 N   0  0  0  0  0  0  0  0  0  0  0  0
  -30.6741  -16.7764   22.3351 N   0  0  0  0  0  0  0  0  0  0  0  0
  -29.6958  -13.2363   19.7070 N   0  0  0  0  0  0  0  0  0  0  0  0
  -22.9837  -31.2315   23.4064 N   0  0  0  0  0  0  0  0  0  0  0  0
  -19.9721  -26.4871   20.0216 N   0  0  0  0  0  0  0  0  0  0  0  0
  -25.9246  -20.6741   23.2689 N   0  0  0  0  0  0  0  0  0  0  0  0
  -20.2109  -25.5651   16.5344 N   0  3  0  0  0  0  0  0  0  0  0  0
  -30.6449  -26.0444   24.1553 O   0  0  0  0  0  0  0  0  0  0  0  0
  -31.3540  -14.6949   20.3246 O   0  0  0  0  0  0  0  0  0  0  0  0
  -23.7728  -29.0407   23.3954 O   0  0  0  0  0  0  0  0  0  0  0  0
  -20.1674  -29.0061   21.3726 O   0  0  0  0  0  0  0  0  0  0  0  0
  -21.5529  -25.1536   18.9729 O   0  0  0  0  0  0  0  0  0  0  0  0
  -26.0613  -21.1972   25.4970 O   0  0  0  0  0  0  0  0  0  0  0  0
  -24.7849  -10.6248   19.3935 O   0  0  0  0  0  0  0  0  0  0  0  0
  -28.1494  -26.5863   19.8590 O   0  0  0  0  0  0  0  0  0  1  0  0
  -21.6426   -7.6268   22.7909 F   0  0  0  0  0  0  0  0  0  0  0  0
  -22.8236  -11.8176   20.9340 F   0  0  0  0  0  0  0  0  0  0  0  0
  1  2  1  0  0  0  0
  1  5  2  0  0  0  0
  2  6  2  0  0  0  0
  3 10  2  0  0  0  0
  3 18  1  0  0  0  0
  4 11  1  0  0  0  0
  4 18  2  0  0  0  0
  5 21  1  0  0  0  0
  6 23  1  0  0  0  0
  7 12  2  0  0  0  0
  7 22  1  0  0  0  0
  8  9  2  0  0  0  0
  8 25  1  0  0  0  0
  9 26  1  0  0  0  0
 10 27  1  0  0  0  0
 11 27  2  0  0  0  0
 12 28  1  0  0  0  0
 13 14  2  0  0  0  0
 13 29  1  0  0  0  0
 14 30  1  0  0  0  0
 15 19  1  0  0  0  0
 15 26  2  0  0  0  0
 16 24  1  0  0  0  0
 16 28  2  0  0  0  0
 17 30  2  0  0  0  0
 17 31  1  0  0  0  0
 18 32  1  0  0  0  0
 19 25  2  0  0  0  0
 19 36  1  0  0  0  0
 20 32  1  0  0  0  0
 20 33  2  0  0  0  0
 20 37  1  0  0  0  0
 21 23  2  0  0  0  0
 21 42  1  0  0  0  0
 22 24  2  0  0  0  0
 22 43  1  0  0  0  0
 23 53  1  0  0  0  0
 24 44  1  0  0  0  0
 25 62  1  0  0  0  0
 26 69  1  0  0  0  0
 27 84  1  0  0  0  0
 28 85  1  0  0  0  0
 29 31  2  0  0  0  0
 29 84  1  0  0  0  0
 30 86  1  0  0  0  0
 31 87  1  0  0  0  0
 32 67  2  0  0  0  0
 33 68  1  0  0  0  0
 33 72  1  0  0  0  0
 34 45  1  0  0  0  0
 34 69  1  0  0  0  0
 34 78  2  0  0  0  0
 35 36  2  0  0  0  0
 37 73  1  0  0  0  0
 37 79  2  0  0  0  0
 38 54  1  0  0  0  0
 38 74  1  0  0  0  0
 38 80  2  0  0  0  0
 39 64  1  0  0  0  0
 39 70  1  0  0  0  0
 39 81  2  0  0  0  0
 40 65  1  0  0  0  0
 40 75  1  0  0  0  0
 40 82  2  0  0  0  0
 41 71  1  0  0  0  0
 41 76  1  0  0  0  0
 41 83  2  0  0  0  0
 42 46  1  0  0  0  0
 43 54  1  0  0  0  0
 44 70  1  0  0  0  0
 45 47  1  0  0  0  0
 46 49  1  0  0  0  0
 47 56  1  0  0  0  0
 48 50  1  0  0  0  0
 48 51  1  0  0  0  0
 49 53  1  0  0  0  0
 50 55  1  0  0  0  0
 51 71  1  0  0  0  0
 52 55  1  0  0  0  0
 52 71  1  0  0  0  0
 53 74  1  0  0  0  0
 54 70  1  0  0  0  0
 55 68  1  0  0  0  0
 56 63  1  0  0  0  0
 56 69  1  0  0  0  0
 57 65  1  0  0  0  0
 58 66  1  0  0  0  0
 59 66  1  0  0  0  0
 60 66  1  0  0  0  0
 61 77  1  0  0  0  0
 62 76  1  0  0  0  0
 63 85  1  0  0  0  0
 64 66  1  0  0  0  0
 64 75  1  0  0  0  0
 65 77  1  0  0  0  0
 67 68  1  0  0  0  0
M  CHG  1  77   1
M  ISO  4  41 100  63 101  76 100  85 101
M  END
> <Batch ID>
0107

> <Smiles>
C=Cc1cc(N2C(=O)CCC2[101CH2:1][101O:1]c2ccc3c(c2)CN(C(=O)C(NC(=O)C(C)NC)C(C)(C)C)C(C(=O)NC2CCCc4ccccc42)C3)ccc1C[100NH:0][100C:0](=O)N1CCCC(n2nc(-c3ccc(Oc4ccc(F)cc4F)cc3)c(C(N)=O)c2N)C1

> <Shape>
0.259

> <Color>
0.094

> <Negative vol penalty>
0.000

$$$$

  -OEChem-04052301173D

 88 96  0     1  0  0  0  0  0999 V2000
  -23.1317  -33.8582   12.5732 C   0  0  0  0  0  0  0  0  0  0  0  0
  -23.0250  -32.4854   12.3746 C   0  0  0  0  0  0  0  0  0  0  0  0
  -23.1867   -9.8218   19.9309 C   0  0  0  0  0  0  0  0  0  0  0  0
  -23.5558   -9.9982   22.3120 C   0  0  0  0  0  0  0  0  0  0  0  0
  -23.3288  -34.3623   13.8581 C   0  0  0  0  0  0  0  0  0  0  0  0
  -23.1163  -31.6158   13.4607 C   0  0  0  0  0  0  0  0  0  0  0  0
  -20.1039  -26.3372   14.2139 C   0  0  0  0  0  0  0  0  0  0  0  0
  -22.4158   -8.6774   20.1351 C   0  0  0  0  0  0  0  0  0  0  0  0
  -22.7849   -8.8538   22.5163 C   0  0  0  0  0  0  0  0  0  0  0  0
  -20.4711  -25.0091   14.0017 C   0  0  0  0  0  0  0  0  0  0  0  0
  -23.1762   -5.5062   22.2500 C   0  0  0  0  0  0  0  0  0  0  0  0
  -23.6678   -4.5422   23.1301 C   0  0  0  0  0  0  0  0  0  0  0  0
  -21.0487  -24.8022   16.3346 C   0  0  0  0  0  0  0  0  0  0  0  0
  -26.5209  -19.2095   16.6549 C   0  0  0  0  0  0  0  0  0  0  0  0
  -21.7064   -4.8070   24.5157 C   0  0  0  0  0  0  0  0  0  0  0  0
  -23.7567  -10.4822   21.0193 C   0  0  0  0  0  0  0  0  0  0  0  0
  -28.2177  -17.5327   16.2733 C   0  0  0  0  0  0  0  0  0  0  0  0
  -24.1047  -12.9980   20.7798 C   0  0  0  0  0  0  0  0  0  0  0  0
  -23.4130  -33.4990   14.9618 C   0  0  0  0  0  0  0  0  0  0  0  0
  -20.2168  -26.9119   15.4880 C   0  0  0  0  0  0  0  0  0  0  0  0
  -23.3160  -32.1087   14.7614 C   0  0  0  0  0  0  0  0  0  0  0  0
  -20.6799  -26.1370   16.5610 C   0  0  0  0  0  0  0  0  0  0  0  0
  -27.6127  -18.4704   17.1101 C   0  0  0  0  0  0  0  0  0  0  0  0
  -26.6390  -18.0731   14.5261 C   0  0  0  0  0  0  0  0  0  0  0  0
  -26.0339  -19.0108   15.3629 C   0  0  0  0  0  0  0  0  0  0  0  0
  -27.7308  -17.3340   14.9813 C   0  0  0  0  0  0  0  0  0  0  0  0
  -22.2149   -8.1934   21.4278 C   0  0  0  0  0  0  0  0  0  0  0  0
  -20.9464  -24.2422   15.0614 C   0  0  0  0  0  0  0  0  0  0  0  0
  -21.9497   -6.1206   22.5027 C   0  0  0  0  0  0  0  0  0  0  0  0
  -22.9329   -4.1926   24.2630 C   0  0  0  0  0  0  0  0  0  0  0  0
  -21.2148   -5.7710   23.6356 C   0  0  0  0  0  0  0  0  0  0  0  0
  -24.5536  -11.6641   20.8089 C   0  0  0  0  0  0  0  0  0  0  0  0
  -25.2392  -13.7372   20.5500 C   0  0  0  0  0  0  0  0  0  0  0  0
  -29.3796  -16.7487   16.7655 C   0  0  0  0  0  0  0  0  0  0  0  0
  -22.7805  -13.5220   20.9458 C   0  0  0  0  0  0  0  0  0  0  0  0
  -21.8771  -29.3260   16.7207 C   0  0  0  0  0  0  0  0  0  0  0  0
  -23.1394  -21.3638   14.9542 C   0  0  0  0  0  0  0  0  0  0  0  0
  -20.1160  -28.6752   19.3660 C   0  0  0  0  0  0  0  0  0  0  0  0
  -18.2938  -26.4050   21.1472 C   0  0  0  0  0  0  0  0  0  0  0  0
  -30.0147  -14.6372   17.8888 C   0  0  0  0  0  0  0  0  0  0  0  0
  -23.6738  -34.0876   16.3257 C   0  0  0  0  0  0  0  0  0  0  0  0
  -19.7913  -28.3380   15.7062 C   0  0  0  0  0  0  0  0  0  0  0  0
  -20.8008  -26.7009   17.9524 C   0  0  0  0  0  0  0  0  0  0  0  0
  -23.3848  -33.1213   17.4715 C   0  0  0  0  0  0  0  0  0  0  0  0
  -30.1215  -12.3905   20.6161 C   0  0  0  0  0  0  0  0  0  0  0  0
  -23.9935  -31.7529   17.1822 C   0  0  0  0  0  0  0  0  0  0  0  0
  -28.6453  -12.1149   20.9148 C   0  0  0  0  0  0  0  0  0  0  0  0
  -30.3831  -12.5148   19.1157 C   0  0  0  0  0  0  0  0  0  0  0  0
  -28.0532  -13.1961   18.7093 C   0  0  0  0  0  0  0  0  0  0  0  0
  -23.3852  -31.1347   15.9176 C   0  0  1  0  0  0  0  0  0  0  0  0
  -20.4330  -28.9715   16.9367 C   0  0  1  0  0  0  0  0  0  0  0  0
  -27.7259  -13.1324   20.2099 C   0  0  1  0  0  0  0  0  0  0  0  0
  -26.1149  -17.8626   13.1391 C   0  0  0  0  0  0  0  0  0  0  0  0
  -17.0109  -26.1541   23.2893 C   0  0  0  0  0  0  0  0  0  0  0  0
  -22.7395  -28.4777   20.9112 C   0  0  0  0  0  0  0  0  0  0  0  0
  -21.4907  -27.3194   22.7463 C   0  0  0  0  0  0  0  0  0  0  0  0
  -20.9010  -29.6621   22.1242 C   0  0  0  0  0  0  0  0  0  0  0  0
  -15.7757  -25.8209   19.7061 C   0  0  0  0  0  0  0  0  0  0  0  0
  -28.1105  -18.7053   18.4994 C   0  0  0  0  0  0  0  0  0  0  0  0
  -24.2746  -20.7399   15.7378 C   0  0  0  0  0  0  0  0  0  0  0  0
  -22.3368  -22.4184   15.6910 C   0  0  0  0  0  0  0  0  0  1  0  0
  -20.2804  -27.7718   20.5642 C   0  0  1  0  0  0  0  0  0  0  0  0
  -16.9325  -26.5047   21.8115 C   0  0  2  0  0  0  0  0  0  0  0  0
  -21.3526  -28.2974   21.5600 C   0  0  0  0  0  0  0  0  0  0  0  0
  -25.8707  -11.5589   20.6130 N   0  0  0  0  0  0  0  0  0  0  0  0
  -26.2590  -12.8362   20.4586 N   0  0  0  0  0  0  0  0  0  0  0  0
  -20.3782  -28.1019   18.1136 N   0  0  0  0  0  0  0  0  0  0  0  0
  -29.4795  -13.5038   18.5254 N   0  0  0  0  0  0  0  0  0  0  0  0
  -28.3429  -16.3836   14.1297 N   0  0  0  0  0  0  0  0  0  0  0  0
  -25.4540  -15.0635   20.4191 N   0  0  0  0  0  0  0  0  0  0  0  0
  -21.7299  -12.6230   21.1746 N   0  0  0  0  0  0  0  0  0  0  0  0
  -24.9470  -19.7560   14.9286 N   0  0  0  0  0  0  0  0  0  0  0  0
  -29.0693  -15.5430   17.3952 N   0  0  0  0  0  0  0  0  0  0  0  0
  -22.0742  -30.5911   16.2011 N   0  0  0  0  0  0  0  0  0  0  0  0
  -18.9508  -27.6173   21.1444 N   0  0  0  0  0  0  0  0  0  0  0  0
  -27.4585  -17.8328   19.5129 N   0  3  0  0  0  0  0  0  0  0  0  0
  -15.9681  -25.5749   21.1585 N   0  3  0  0  0  0  0  0  0  0  0  0
  -30.5148  -17.1707   16.5630 O   0  0  0  0  0  0  0  0  0  0  0  0
  -22.5335  -14.7499   20.8766 O   0  0  0  0  0  0  0  0  0  0  0  0
  -22.7481  -28.5125   17.0059 O   0  0  0  0  0  0  0  0  0  0  0  0
  -22.8760  -21.0439   13.7957 O   0  0  0  0  0  0  0  0  0  0  0  0
  -19.7608  -29.8445   19.5344 O   0  0  0  0  0  0  0  0  0  0  0  0
  -18.7322  -25.3558   20.6808 O   0  0  0  0  0  0  0  0  0  0  0  0
  -31.2291  -14.8441   17.8008 O   0  0  0  0  0  0  0  0  0  0  0  0
  -21.4626   -7.0769   21.6276 O   0  0  0  0  0  0  0  0  0  0  0  0
  -21.3061  -22.9458   14.8569 O   0  0  0  0  0  0  0  0  0  1  0  0
  -23.4044   -3.2658   25.1072 F   0  0  0  0  0  0  0  0  0  0  0  0
  -20.0353   -6.3570   23.8831 F   0  0  0  0  0  0  0  0  0  0  0  0
  1  2  1  0  0  0  0
  1  5  2  0  0  0  0
  2  6  2  0  0  0  0
  3  8  2  0  0  0  0
  3 16  1  0  0  0  0
  4  9  1  0  0  0  0
  4 16  2  0  0  0  0
  5 19  1  0  0  0  0
  6 21  1  0  0  0  0
  7 10  2  0  0  0  0
  7 20  1  0  0  0  0
  8 27  1  0  0  0  0
  9 27  2  0  0  0  0
 10 28  1  0  0  0  0
 11 12  2  0  0  0  0
 11 29  1  0  0  0  0
 12 30  1  0  0  0  0
 13 22  1  0  0  0  0
 13 28  2  0  0  0  0
 14 23  2  0  0  0  0
 14 25  1  0  0  0  0
 15 30  2  0  0  0  0
 15 31  1  0  0  0  0
 16 32  1  0  0  0  0
 17 23  1  0  0  0  0
 17 26  2  0  0  0  0
 17 34  1  0  0  0  0
 18 32  1  0  0  0  0
 18 33  2  0  0  0  0
 18 35  1  0  0  0  0
 19 21  2  0  0  0  0
 19 41  1  0  0  0  0
 20 22  2  0  0  0  0
 20 42  1  0  0  0  0
 21 50  1  0  0  0  0
 22 43  1  0  0  0  0
 23 59  1  0  0  0  0
 24 25  2  0  0  0  0
 24 26  1  0  0  0  0
 24 53  1  0  0  0  0
 25 72  1  0  0  0  0
 26 69  1  0  0  0  0
 27 85  1  0  0  0  0
 28 86  1  0  0  0  0
 29 31  2  0  0  0  0
 29 85  1  0  0  0  0
 30 87  1  0  0  0  0
 31 88  1  0  0  0  0
 32 65  2  0  0  0  0
 33 66  1  0  0  0  0
 33 70  1  0  0  0  0
 34 73  1  0  0  0  0
 34 78  2  0  0  0  0
 35 71  1  0  0  0  0
 35 79  2  0  0  0  0
 36 51  1  0  0  0  0
 36 74  1  0  0  0  0
 36 80  2  0  0  0  0
 37 60  1  0  0  0  0
 37 61  1  0  0  0  0
 37 81  2  0  0  0  0
 38 62  1  0  0  0  0
 38 67  1  0  0  0  0
 38 82  2  0  0  0  0
 39 63  1  0  0  0  0
 39 75  1  0  0  0  0
 39 83  2  0  0  0  0
 40 68  1  0  0  0  0
 40 73  1  0  0  0  0
 40 84  2  0  0  0  0
 41 44  1  0  0  0  0
 42 51  1  0  0  0  0
 43 67  1  0  0  0  0
 44 46  1  0  0  0  0
 45 47  1  0  0  0  0
 45 48  1  0  0  0  0
 46 50  1  0  0  0  0
 47 52  1  0  0  0  0
 48 68  1  0  0  0  0
 49 52  1  0  0  0  0
 49 68  1  0  0  0  0
 50 74  1  0  0  0  0
 51 67  1  0  0  0  0
 52 66  1  0  0  0  0
 54 63  1  0  0  0  0
 55 64  1  0  0  0  0
 56 64  1  0  0  0  0
 57 64  1  0  0  0  0
 58 77  1  0  0  0  0
 59 76  1  0  0  0  0
 60 72  1  0  0  0  0
 61 86  1  0  0  0  0
 62 64  1  0  0  0  0
 62 75  1  0  0  0  0
 63 77  1  0  0  0  0
 65 66  1  0  0  0  0
M  CHG  2  76   1  77   1
M  ISO  4  40 100  61 101  73 100  86 101
M  END
> <Batch ID>
0107

> <Smiles>
CNC(C)C(=O)NC(C(=O)N1Cc2cc([101O:1][101CH2:1]C(=O)CNc3cc(CN)c(C(=O)[100NH:0][100C:0](=O)N4CCCC(n5nc(-c6ccc(Oc7ccc(F)cc7F)cc6)c(C(N)=O)c5N)C4)c(N)c3C)ccc2CC1C(=O)NC1CCCc2ccccc21)C(C)(C)C

> <Shape>
0.197

> <Color>
0.165

> <Negative vol penalty>
0.000

$$$$

  -OEChem-04052301173D

 87 95  0     1  0  0  0  0  0999 V2000
  -30.8669  -33.7346   17.5374 C   0  0  0  0  0  0  0  0  0  0  0  0
  -30.6913  -32.3559   17.4752 C   0  0  0  0  0  0  0  0  0  0  0  0
  -23.2141  -15.8379   20.6226 C   0  0  0  0  0  0  0  0  0  0  0  0
  -22.6626  -14.2856   18.8553 C   0  0  0  0  0  0  0  0  0  0  0  0
  -30.3440  -34.4551   18.6104 C   0  0  0  0  0  0  0  0  0  0  0  0
  -29.9934  -31.6968   18.4867 C   0  0  0  0  0  0  0  0  0  0  0  0
  -26.3587  -26.8069   17.8678 C   0  0  0  0  0  0  0  0  0  0  0  0
  -22.2094  -16.6984   20.1804 C   0  0  0  0  0  0  0  0  0  0  0  0
  -21.6578  -15.1461   18.4131 C   0  0  0  0  0  0  0  0  0  0  0  0
  -26.5744  -25.4454   18.0765 C   0  0  0  0  0  0  0  0  0  0  0  0
  -20.0265  -19.4691   19.2963 C   0  0  0  0  0  0  0  0  0  0  0  0
  -20.3287  -20.8276   19.2028 C   0  0  0  0  0  0  0  0  0  0  0  0
  -30.2915  -17.7265   22.9849 C   0  0  0  0  0  0  0  0  0  0  0  0
  -25.6298  -25.6408   20.2876 C   0  0  0  0  0  0  0  0  0  0  0  0
  -29.8911  -18.3112   25.2947 C   0  0  0  0  0  0  0  0  0  0  0  0
  -22.0826  -20.3283   17.6179 C   0  0  0  0  0  0  0  0  0  0  0  0
  -23.4408  -14.6315   19.9600 C   0  0  0  0  0  0  0  0  0  0  0  0
  -31.0271  -16.6142   23.3940 C   0  0  0  0  0  0  0  0  0  0  0  0
  -24.3568  -12.7077   21.3627 C   0  0  0  0  0  0  0  0  0  0  0  0
  -29.6311  -33.8058   19.6306 C   0  0  0  0  0  0  0  0  0  0  0  0
  -25.7859  -27.5991   18.8732 C   0  0  0  0  0  0  0  0  0  0  0  0
  -29.4616  -32.4091   19.5750 C   0  0  0  0  0  0  0  0  0  0  0  0
  -25.4055  -27.0116   20.0882 C   0  0  0  0  0  0  0  0  0  0  0  0
  -31.1946  -16.3503   24.7534 C   0  0  0  0  0  0  0  0  0  0  0  0
  -29.7236  -18.5751   23.9353 C   0  0  0  0  0  0  0  0  0  0  0  0
  -21.4312  -16.3526   19.0757 C   0  0  0  0  0  0  0  0  0  0  0  0
  -26.2126  -24.8627   19.2876 C   0  0  0  0  0  0  0  0  0  0  0  0
  -20.7523  -18.5402   18.5507 C   0  0  0  0  0  0  0  0  0  0  0  0
  -21.3567  -21.2572   18.3636 C   0  0  0  0  0  0  0  0  0  0  0  0
  -30.6266  -17.1988   25.7038 C   0  0  0  0  0  0  0  0  0  0  0  0
  -21.7803  -18.9698   17.7115 C   0  0  0  0  0  0  0  0  0  0  0  0
  -24.4789  -13.7424   20.4160 C   0  0  0  0  0  0  0  0  0  0  0  0
  -25.6164  -12.1662   21.4440 C   0  0  0  0  0  0  0  0  0  0  0  0
  -31.6209  -15.7276   22.3605 C   0  0  0  0  0  0  0  0  0  0  0  0
  -23.2074  -12.2746   22.1024 C   0  0  0  0  0  0  0  0  0  0  0  0
  -26.7451  -30.1103   20.5695 C   0  0  0  0  0  0  0  0  0  0  0  0
  -23.6917  -30.0468   21.6625 C   0  0  0  0  0  0  0  0  0  0  0  0
  -28.7125  -20.1140   22.2172 C   0  0  0  0  0  0  0  0  0  0  0  0
  -20.8530  -28.2380   22.2255 C   0  0  0  0  0  0  0  0  0  0  0  0
  -31.0678  -14.3010   20.4157 C   0  0  0  0  0  0  0  0  0  0  0  0
  -29.1252  -34.6206   20.7946 C   0  0  0  0  0  0  0  0  0  0  0  0
  -25.5353  -29.0609   18.6224 C   0  0  0  0  0  0  0  0  0  0  0  0
  -24.7685  -27.8143   21.1920 C   0  0  0  0  0  0  0  0  0  0  0  0
  -28.0754  -33.8970   21.6341 C   0  0  0  0  0  0  0  0  0  0  0  0
  -29.5854  -11.5062   18.8382 C   0  0  0  0  0  0  0  0  0  0  0  0
  -28.5222  -32.4694   21.9329 C   0  0  0  0  0  0  0  0  0  0  0  0
  -28.0964  -11.6566   19.1617 C   0  0  0  0  0  0  0  0  0  0  0  0
  -30.2481  -12.8575   18.5744 C   0  0  0  0  0  0  0  0  0  0  0  0
  -28.5597  -14.0150   19.9410 C   0  0  0  0  0  0  0  0  0  0  0  0
  -28.6892  -31.6616   20.6402 C   0  0  1  0  0  0  0  0  0  0  0  0
  -25.4172  -29.8757   19.9067 C   0  0  1  0  0  0  0  0  0  0  0  0
  -27.8626  -12.6884   20.2834 C   0  0  1  0  0  0  0  0  0  0  0  0
  -31.9792  -15.1657   25.2159 C   0  0  0  0  0  0  0  0  0  0  0  0
  -18.5359  -28.4503   23.1654 C   0  0  0  0  0  0  0  0  0  0  0  0
  -24.8372  -30.0024   24.4902 C   0  0  0  0  0  0  0  0  0  0  0  0
  -22.5906  -29.2659   25.3139 C   0  0  0  0  0  0  0  0  0  0  0  0
  -22.8423  -31.4816   24.1959 C   0  0  0  0  0  0  0  0  0  0  0  0
  -19.6117  -27.5288   19.6342 C   0  0  0  0  0  0  0  0  0  0  0  0
  -27.8711  -21.3828   22.2174 C   0  0  0  0  0  0  0  0  0  0  0  0
  -27.5517  -21.8760   20.8104 C   0  0  0  0  0  0  0  0  0  0  0  0
  -26.6711  -23.1168   20.8360 C   0  0  0  0  0  0  0  0  0  1  0  0
  -22.9809  -29.3714   22.8104 C   0  0  1  0  0  0  0  0  0  0  0  0
  -19.3958  -28.5273   21.9135 C   0  0  2  0  0  0  0  0  0  0  0  0
  -23.3265  -30.0153   24.1827 C   0  0  0  0  0  0  0  0  0  0  0  0
  -25.7183  -13.8537   19.9308 N   0  0  0  0  0  0  0  0  0  0  0  0
  -26.3865  -12.8819   20.5752 N   0  0  0  0  0  0  0  0  0  0  0  0
  -24.5499  -29.2408   20.9012 N   0  0  0  0  0  0  0  0  0  0  0  0
  -29.9879  -13.7736   19.6864 N   0  0  0  0  0  0  0  0  0  0  0  0
  -26.1294  -11.1526   22.1732 N   0  0  0  0  0  0  0  0  0  0  0  0
  -21.9914  -12.9407   21.8979 N   0  0  0  0  0  0  0  0  0  0  0  0
  -28.9774  -19.7038   23.5208 N   0  0  0  0  0  0  0  0  0  0  0  0
  -30.7133  -15.1317   21.4845 N   0  0  0  0  0  0  0  0  0  0  0  0
  -27.3987  -31.2469   20.1331 N   0  0  0  0  0  0  0  0  0  0  0  0
  -21.5599  -29.3941   22.4806 N   0  0  0  0  0  0  0  0  0  0  0  0
  -18.8731  -27.5440   20.9231 N   0  3  0  0  0  0  0  0  0  0  0  0
  -32.8415  -15.6026   22.3095 O   0  0  0  0  0  0  0  0  0  0  0  0
  -23.2612  -11.3357   22.9326 O   0  0  0  0  0  0  0  0  0  0  0  0
  -27.1463  -29.3195   21.4153 O   0  0  0  0  0  0  0  0  0  0  0  0
  -23.4873  -31.2437   21.4449 O   0  0  0  0  0  0  0  0  0  0  0  0
  -29.0766  -19.5743   21.1777 O   0  0  0  0  0  0  0  0  0  0  0  0
  -21.3169  -27.1001   22.2450 O   0  0  0  0  0  0  0  0  0  0  0  0
  -32.2446  -14.0260   20.1615 O   0  0  0  0  0  0  0  0  0  0  0  0
  -20.4505  -17.1919   18.6440 O   0  0  0  0  0  0  0  0  0  0  0  0
  -26.4226  -23.5342   19.4942 O   0  0  0  0  0  0  0  0  0  1  0  0
  -21.6458  -22.5620   18.2728 F   0  0  0  0  0  0  0  0  0  0  0  0
  -30.7820  -16.9548   27.0126 F   0  0  0  0  0  0  0  0  0  0  0  0
  -22.4804  -18.0822   16.9918 F   0  0  0  0  0  0  0  0  0  0  0  0
  1  2  1  0  0  0  0
  1  5  2  0  0  0  0
  2  6  2  0  0  0  0
  3  8  2  0  0  0  0
  3 17  1  0  0  0  0
  4  9  1  0  0  0  0
  4 17  2  0  0  0  0
  5 20  1  0  0  0  0
  6 22  1  0  0  0  0
  7 10  2  0  0  0  0
  7 21  1  0  0  0  0
  8 26  1  0  0  0  0
  9 26  2  0  0  0  0
 10 27  1  0  0  0  0
 11 12  2  0  0  0  0
 11 28  1  0  0  0  0
 12 29  1  0  0  0  0
 13 18  1  0  0  0  0
 13 25  2  0  0  0  0
 14 23  1  0  0  0  0
 14 27  2  0  0  0  0
 15 25  1  0  0  0  0
 15 30  2  0  0  0  0
 16 29  2  0  0  0  0
 16 31  1  0  0  0  0
 17 32  1  0  0  0  0
 18 24  2  0  0  0  0
 18 34  1  0  0  0  0
 19 32  1  0  0  0  0
 19 33  2  0  0  0  0
 19 35  1  0  0  0  0
 20 22  2  0  0  0  0
 20 41  1  0  0  0  0
 21 23  2  0  0  0  0
 21 42  1  0  0  0  0
 22 50  1  0  0  0  0
 23 43  1  0  0  0  0
 24 30  1  0  0  0  0
 24 53  1  0  0  0  0
 25 71  1  0  0  0  0
 26 83  1  0  0  0  0
 27 84  1  0  0  0  0
 28 31  2  0  0  0  0
 28 83  1  0  0  0  0
 29 85  1  0  0  0  0
 30 86  1  0  0  0  0
 31 87  1  0  0  0  0
 32 65  2  0  0  0  0
 33 66  1  0  0  0  0
 33 69  1  0  0  0  0
 34 72  1  0  0  0  0
 34 76  2  0  0  0  0
 35 70  1  0  0  0  0
 35 77  2  0  0  0  0
 36 51  1  0  0  0  0
 36 73  1  0  0  0  0
 36 78  2  0  0  0  0
 37 62  1  0  0  0  0
 37 67  1  0  0  0  0
 37 79  2  0  0  0  0
 38 59  1  0  0  0  0
 38 71  1  0  0  0  0
 38 80  2  0  0  0  0
 39 63  1  0  0  0  0
 39 74  1  0  0  0  0
 39 81  2  0  0  0  0
 40 68  1  0  0  0  0
 40 72  1  0  0  0  0
 40 82  2  0  0  0  0
 41 44  1  0  0  0  0
 42 51  1  0  0  0  0
 43 67  1  0  0  0  0
 44 46  1  0  0  0  0
 45 47  1  0  0  0  0
 45 48  1  0  0  0  0
 46 50  1  0  0  0  0
 47 52  1  0  0  0  0
 48 68  1  0  0  0  0
 49 52  1  0  0  0  0
 49 68  1  0  0  0  0
 50 73  1  0  0  0  0
 51 67  1  0  0  0  0
 52 66  1  0  0  0  0
 54 63  1  0  0  0  0
 55 64  1  0  0  0  0
 56 64  1  0  0  0  0
 57 64  1  0  0  0  0
 58 75  1  0  0  0  0
 59 60  1  0  0  0  0
 60 61  1  0  0  0  0
 61 84  1  0  0  0  0
 62 64  1  0  0  0  0
 62 74  1  0  0  0  0
 63 75  1  0  0  0  0
 65 66  1  0  0  0  0
M  CHG  1  75   1
M  ISO  4  40 100  61 101  72 100  84 101
M  END
> <Batch ID>
0107

> <Smiles>
CNC(C)C(=O)NC(C(=O)N1Cc2cc([101O:1][101CH2:1]CCC(=O)Nc3cc(F)c(C)c(C(=O)[100NH:0][100C:0](=O)N4CCCC(n5nc(-c6ccc(Oc7ccc(F)cc7F)cc6)c(C(N)=O)c5N)C4)c3)ccc2CC1C(=O)NC1CCCc2ccccc21)C(C)(C)C

> <Shape>
0.235

> <Color>
0.097

> <Negative vol penalty>
0.000

$$$$

  -OEChem-04052301173D

 85 93  0     1  0  0  0  0  0999 V2000
  -28.5638  -24.6902   21.6147 C   0  0  0  0  0  0  0  0  0  0  0  0
  -28.4793  -25.5445   20.7749 C   0  0  0  0  0  0  0  0  0  1  0  0
  -27.4149  -33.6066   26.1603 C   0  0  0  0  0  0  0  0  0  0  0  0
  -27.6903  -32.4236   25.4821 C   0  0  0  0  0  0  0  0  0  0  0  0
  -24.8187  -14.6788   20.0173 C   0  0  0  0  0  0  0  0  0  0  0  0
  -26.0489  -13.3916   21.6504 C   0  0  0  0  0  0  0  0  0  0  0  0
  -26.1031  -21.4829   20.7934 C   0  0  0  0  0  0  0  0  0  0  0  0
  -26.1018  -33.9189   26.5100 C   0  0  0  0  0  0  0  0  0  0  0  0
  -26.6528  -31.5516   25.1540 C   0  0  0  0  0  0  0  0  0  0  0  0
  -26.9934  -29.8265   20.4050 C   0  0  0  0  0  0  0  0  0  0  0  0
  -25.9437  -20.7996   19.5879 C   0  0  0  0  0  0  0  0  0  0  0  0
  -24.3038  -13.5006   19.4766 C   0  0  0  0  0  0  0  0  0  0  0  0
  -25.5340  -12.2134   21.1097 C   0  0  0  0  0  0  0  0  0  0  0  0
  -27.9154  -28.8095   20.1616 C   0  0  0  0  0  0  0  0  0  0  0  0
  -22.6451  -10.4654   21.2488 C   0  0  0  0  0  0  0  0  0  0  0  0
  -22.1711   -9.4997   22.1366 C   0  0  0  0  0  0  0  0  0  0  0  0
  -28.4831  -21.6198   20.4011 C   0  0  0  0  0  0  0  0  0  0  0  0
  -26.1332  -27.1853   20.2309 C   0  0  0  0  0  0  0  0  0  0  0  0
  -23.7847   -7.9192   21.2790 C   0  0  0  0  0  0  0  0  0  0  0  0
  -25.6914  -14.6243   21.1042 C   0  0  0  0  0  0  0  0  0  0  0  0
  -27.3729  -21.8930   21.2000 C   0  0  0  0  0  0  0  0  0  0  0  0
  -25.6661  -16.6178   22.6957 C   0  0  0  0  0  0  0  0  0  0  0  0
  -25.0465  -33.0549   26.1775 C   0  0  0  0  0  0  0  0  0  0  0  0
  -25.6335  -29.5288   20.5743 C   0  0  0  0  0  0  0  0  0  0  0  0
  -25.3245  -31.8520   25.5007 C   0  0  0  0  0  0  0  0  0  0  0  0
  -25.1956  -28.2006   20.4738 C   0  0  0  0  0  0  0  0  0  0  0  0
  -27.0540  -20.5264   18.7889 C   0  0  0  0  0  0  0  0  0  0  0  0
  -28.3237  -20.9365   19.1955 C   0  0  0  0  0  0  0  0  0  0  0  0
  -24.6613  -12.2680   20.0228 C   0  0  0  0  0  0  0  0  0  0  0  0
  -27.4859  -27.4884   20.0774 C   0  0  0  0  0  0  0  0  0  0  0  0
  -23.6889  -10.1580   20.3759 C   0  0  0  0  0  0  0  0  0  0  0  0
  -22.7409   -8.2266   22.1517 C   0  0  0  0  0  0  0  0  0  0  0  0
  -24.2587   -8.8850   20.3911 C   0  0  0  0  0  0  0  0  0  0  0  0
  -26.2241  -15.8409   21.6628 C   0  0  0  0  0  0  0  0  0  0  0  0
  -26.5463  -17.6600   22.8554 C   0  0  0  0  0  0  0  0  0  0  0  0
  -27.5427  -22.6253   22.4905 C   0  0  0  0  0  0  0  0  0  0  0  0
  -24.4600  -16.4153   23.4441 C   0  0  0  0  0  0  0  0  0  0  0  0
  -23.5394  -29.8741   22.9406 C   0  0  0  0  0  0  0  0  0  0  0  0
  -21.4311  -28.8360   20.7046 C   0  0  0  0  0  0  0  0  0  0  0  0
  -20.8921  -27.1043   17.8137 C   0  0  0  0  0  0  0  0  0  0  0  0
  -30.5814  -19.9046   18.8362 C   0  0  0  0  0  0  0  0  0  0  0  0
  -23.6492  -33.4126   26.6182 C   0  0  0  0  0  0  0  0  0  0  0  0
  -24.6477  -30.6402   20.8097 C   0  0  0  0  0  0  0  0  0  0  0  0
  -23.7437  -27.8305   20.6279 C   0  0  0  0  0  0  0  0  0  0  0  0
  -22.5620  -32.6143   25.9033 C   0  0  0  0  0  0  0  0  0  0  0  0
  -31.1542  -18.8154   22.3260 C   0  0  0  0  0  0  0  0  0  0  0  0
  -22.9191  -31.1316   25.8759 C   0  0  0  0  0  0  0  0  0  0  0  0
  -29.9447  -17.9255   22.6065 C   0  0  0  0  0  0  0  0  0  0  0  0
  -31.5264  -18.8154   20.8464 C   0  0  0  0  0  0  0  0  0  0  0  0
  -29.1819  -18.3029   20.2280 C   0  0  0  0  0  0  0  0  0  0  0  0
  -24.2232  -30.8923   25.1054 C   0  0  1  0  0  0  0  0  0  0  0  0
  -23.3607  -30.1659   21.4775 C   0  0  1  0  0  0  0  0  0  0  0  0
  -28.7621  -18.3177   21.7055 C   0  0  1  0  0  0  0  0  0  0  0  0
  -28.6152  -24.2617   24.0383 C   0  0  0  0  0  0  0  0  0  0  0  0
  -19.0581  -26.3976   16.2535 C   0  0  0  0  0  0  0  0  0  0  0  0
  -20.5662  -26.6923   22.6963 C   0  0  0  0  0  0  0  0  0  0  0  0
  -19.4710  -25.4739   20.8030 C   0  0  0  0  0  0  0  0  0  0  0  0
  -18.6907  -27.7585   21.4312 C   0  0  0  0  0  0  0  0  0  0  0  0
  -29.6509  -21.4275   17.1490 C   0  0  0  0  0  0  0  0  0  0  0  0
  -22.0929  -28.5811   15.5473 C   0  0  0  0  0  0  0  0  0  0  0  0
  -28.6740  -23.6389   22.6462 C   0  0  2  0  0  0  0  0  0  0  0  0
  -20.9172  -27.4863   20.2648 C   0  0  1  0  0  0  0  0  0  0  0  0
  -20.1082  -27.4536   16.5615 C   0  0  2  0  0  0  0  0  0  0  0  0
  -19.9390  -26.8592   21.2978 C   0  0  0  0  0  0  0  0  0  0  0  0
  -27.3700  -16.3466   21.1988 N   0  0  0  0  0  0  0  0  0  0  0  0
  -27.5392  -17.4524   21.9436 N   0  0  0  0  0  0  0  0  0  0  0  0
  -22.8193  -28.9520   20.8631 N   0  0  0  0  0  0  0  0  0  0  0  0
  -30.3766  -19.1315   19.9975 N   0  0  0  0  0  0  0  0  0  0  0  0
  -26.8691  -19.8343   17.5711 N   0  0  0  0  0  0  0  0  0  0  0  0
  -26.5600  -18.7247   23.6852 N   0  0  0  0  0  0  0  0  0  0  0  0
  -23.6727  -15.2933   23.1517 N   0  0  0  0  0  0  0  0  0  0  0  0
  -23.9859  -30.9533   23.6791 N   0  0  0  0  0  0  0  0  0  0  0  0
  -20.3415  -27.6812   18.9385 N   0  0  0  0  0  0  0  0  0  0  0  0
  -29.4868  -20.6670   18.3859 N   0  0  0  0  0  0  0  0  0  0  0  0
  -21.0236  -27.5617   15.3905 N   0  3  0  0  0  0  0  0  0  0  0  0
  -26.7643  -22.3836   23.4130 O   0  0  0  0  0  0  0  0  0  0  0  0
  -24.0830  -17.2148   24.3341 O   0  0  0  0  0  0  0  0  0  0  0  0
  -23.2892  -28.7532   23.3681 O   0  0  0  0  0  0  0  0  0  0  0  0
  -20.6308  -29.7555   20.8936 O   0  0  0  0  0  0  0  0  0  0  0  0
  -21.8907  -26.3881   17.7962 O   0  0  0  0  0  0  0  0  0  0  0  0
  -31.6483  -19.8755   18.2104 O   0  0  0  0  0  0  0  0  0  0  0  0
  -28.3839  -26.4937   19.8405 O   0  0  0  0  0  0  0  0  0  1  0  0
  -24.1588  -11.1181   19.4956 O   0  0  0  0  0  0  0  0  0  0  0  0
  -22.2867   -7.2998   23.0055 F   0  0  0  0  0  0  0  0  0  0  0  0
  -25.2625   -8.5842   19.5557 F   0  0  0  0  0  0  0  0  0  0  0  0
  1  2  3  0  0  0  0
  1 61  1  0  0  0  0
  2 82  1  0  0  0  0
  3  4  1  0  0  0  0
  3  8  2  0  0  0  0
  4  9  2  0  0  0  0
  5 12  2  0  0  0  0
  5 20  1  0  0  0  0
  6 13  1  0  0  0  0
  6 20  2  0  0  0  0
  7 11  2  0  0  0  0
  7 21  1  0  0  0  0
  8 23  1  0  0  0  0
  9 25  1  0  0  0  0
 10 14  2  0  0  0  0
 10 24  1  0  0  0  0
 11 27  1  0  0  0  0
 12 29  1  0  0  0  0
 13 29  2  0  0  0  0
 14 30  1  0  0  0  0
 15 16  2  0  0  0  0
 15 31  1  0  0  0  0
 16 32  1  0  0  0  0
 17 21  2  0  0  0  0
 17 28  1  0  0  0  0
 18 26  1  0  0  0  0
 18 30  2  0  0  0  0
 19 32  2  0  0  0  0
 19 33  1  0  0  0  0
 20 34  1  0  0  0  0
 21 36  1  0  0  0  0
 22 34  1  0  0  0  0
 22 35  2  0  0  0  0
 22 37  1  0  0  0  0
 23 25  2  0  0  0  0
 23 42  1  0  0  0  0
 24 26  2  0  0  0  0
 24 43  1  0  0  0  0
 25 51  1  0  0  0  0
 26 44  1  0  0  0  0
 27 28  2  0  0  0  0
 27 69  1  0  0  0  0
 28 74  1  0  0  0  0
 29 83  1  0  0  0  0
 30 82  1  0  0  0  0
 31 33  2  0  0  0  0
 31 83  1  0  0  0  0
 32 84  1  0  0  0  0
 33 85  1  0  0  0  0
 34 65  2  0  0  0  0
 35 66  1  0  0  0  0
 35 70  1  0  0  0  0
 36 61  1  0  0  0  0
 36 76  2  0  0  0  0
 37 71  1  0  0  0  0
 37 77  2  0  0  0  0
 38 52  1  0  0  0  0
 38 72  1  0  0  0  0
 38 78  2  0  0  0  0
 39 62  1  0  0  0  0
 39 67  1  0  0  0  0
 39 79  2  0  0  0  0
 40 63  1  0  0  0  0
 40 73  1  0  0  0  0
 40 80  2  0  0  0  0
 41 68  1  0  0  0  0
 41 74  1  0  0  0  0
 41 81  2  0  0  0  0
 42 45  1  0  0  0  0
 43 52  1  0  0  0  0
 44 67  1  0  0  0  0
 45 47  1  0  0  0  0
 46 48  1  0  0  0  0
 46 49  1  0  0  0  0
 47 51  1  0  0  0  0
 48 53  1  0  0  0  0
 49 68  1  0  0  0  0
 50 53  1  0  0  0  0
 50 68  1  0  0  0  0
 51 72  1  0  0  0  0
 52 67  1  0  0  0  0
 53 66  1  0  0  0  0
 54 61  1  0  0  0  0
 55 63  1  0  0  0  0
 56 64  1  0  0  0  0
 57 64  1  0  0  0  0
 58 64  1  0  0  0  0
 59 74  1  0  0  0  0
 60 75  1  0  0  0  0
 62 64  1  0  0  0  0
 62 73  1  0  0  0  0
 63 75  1  0  0  0  0
 65 66  1  0  0  0  0
M  CHG  1  75   1
M  ISO  4   2 101  41 100  74 100  82 101
M  END
> <Batch ID>
0107

> <Smiles>
CNC(C)C(=O)NC(C(=O)N1Cc2cc([101O:1][101C:1]#CC(C)C(=O)c3ccc(N)c([100N:0](C)[100C:0](=O)N4CCCC(n5nc(-c6ccc(Oc7ccc(F)cc7F)cc6)c(C(N)=O)c5N)C4)c3)ccc2CC1C(=O)NC1CCCc2ccccc21)C(C)(C)C

> <Shape>
0.271

> <Color>
0.084

> <Negative vol penalty>
0.000

$$$$

  -OEChem-04052301173D

 86 95  0     1  0  0  0  0  0999 V2000
  -36.3692  -27.4162   10.7213 C   0  0  0  0  0  0  0  0  0  0  0  0
  -36.3265  -26.4960   11.7638 C   0  0  0  0  0  0  0  0  0  0  0  0
  -23.0625   -9.8098   20.0550 C   0  0  0  0  0  0  0  0  0  0  0  0
  -23.7767   -9.9670   22.3577 C   0  0  0  0  0  0  0  0  0  0  0  0
  -32.6605  -17.5528   23.2297 C   0  0  0  0  0  0  0  0  0  0  0  0
  -35.9216  -28.7207   10.9256 C   0  0  0  0  0  0  0  0  0  0  0  0
  -35.8371  -26.8802   13.0118 C   0  0  0  0  0  0  0  0  0  0  0  0
  -32.6632  -23.4221   16.9454 C   0  0  0  0  0  0  0  0  0  0  0  0
  -32.0774  -16.6160   22.3765 C   0  0  0  0  0  0  0  0  0  0  0  0
  -22.2999   -8.6847   20.3683 C   0  0  0  0  0  0  0  0  0  0  0  0
  -23.0140   -8.8419   22.6710 C   0  0  0  0  0  0  0  0  0  0  0  0
  -33.0403  -22.7068   18.0811 C   0  0  0  0  0  0  0  0  0  0  0  0
  -19.7651   -8.1223   23.2602 C   0  0  0  0  0  0  0  0  0  0  0  0
  -18.9846   -8.1714   24.4152 C   0  0  0  0  0  0  0  0  0  0  0  0
  -30.4779  -18.4670   23.7175 C   0  0  0  0  0  0  0  0  0  0  0  0
  -32.3787  -24.5681   19.4656 C   0  0  0  0  0  0  0  0  0  0  0  0
  -20.1875   -6.2762   25.3087 C   0  0  0  0  0  0  0  0  0  0  0  0
  -23.8010  -10.4510   21.0497 C   0  0  0  0  0  0  0  0  0  0  0  0
  -31.8607  -18.4783   23.9003 C   0  0  0  0  0  0  0  0  0  0  0  0
  -24.1757  -12.9580   20.7633 C   0  0  0  0  0  0  0  0  0  0  0  0
  -35.4175  -29.1184   12.1740 C   0  0  0  0  0  0  0  0  0  0  0  0
  -32.1503  -24.7221   17.0607 C   0  0  0  0  0  0  0  0  0  0  0  0
  -35.3835  -28.1917   13.2334 C   0  0  0  0  0  0  0  0  0  0  0  0
  -31.9934  -25.2968   18.3300 C   0  0  0  0  0  0  0  0  0  0  0  0
  -30.6946  -16.6047   22.1937 C   0  0  0  0  0  0  0  0  0  0  0  0
  -22.2756   -8.2008   21.6763 C   0  0  0  0  0  0  0  0  0  0  0  0
  -32.9007  -23.2808   19.3413 C   0  0  0  0  0  0  0  0  0  0  0  0
  -20.7568   -7.1501   23.1294 C   0  0  0  0  0  0  0  0  0  0  0  0
  -19.1958   -7.2484   25.4394 C   0  0  0  0  0  0  0  0  0  0  0  0
  -29.8948  -17.5302   22.8642 C   0  0  0  0  0  0  0  0  0  0  0  0
  -20.9680   -6.2271   24.1537 C   0  0  0  0  0  0  0  0  0  0  0  0
  -24.5894  -11.6129   20.7266 C   0  0  0  0  0  0  0  0  0  0  0  0
  -25.2839  -13.6688   20.3719 C   0  0  0  0  0  0  0  0  0  0  0  0
  -32.4759  -19.4685   24.8021 C   0  0  0  0  0  0  0  0  0  0  0  0
  -22.9035  -13.5151   21.1194 C   0  0  0  0  0  0  0  0  0  0  0  0
  -33.0659  -27.5927   16.0481 C   0  0  0  0  0  0  0  0  0  0  0  0
  -30.2040  -28.5070   17.2712 C   0  0  0  0  0  0  0  0  0  0  0  0
  -27.6601  -27.8929   19.4616 C   0  0  0  0  0  0  0  0  0  0  0  0
  -30.7578  -14.6653   20.5872 C   0  0  0  0  0  0  0  0  0  0  0  0
  -34.9890  -30.5524   12.3604 C   0  0  0  0  0  0  0  0  0  0  0  0
  -31.7232  -25.4703   15.8277 C   0  0  0  0  0  0  0  0  0  0  0  0
  -31.4291  -26.6817   18.5092 C   0  0  0  0  0  0  0  0  0  0  0  0
  -34.1365  -30.7763   13.6067 C   0  0  0  0  0  0  0  0  0  0  0  0
  -29.6615  -12.1058   18.3681 C   0  0  0  0  0  0  0  0  0  0  0  0
  -34.7599  -30.0796   14.8121 C   0  0  0  0  0  0  0  0  0  0  0  0
  -28.2101  -11.8600   18.7869 C   0  0  0  0  0  0  0  0  0  0  0  0
  -33.4158  -22.9034   24.2145 C   0  0  0  0  0  0  0  0  0  0  0  0
  -30.5552  -12.4072   19.5698 C   0  0  0  0  0  0  0  0  0  0  0  0
  -33.4798  -21.6907   25.1358 C   0  0  0  0  0  0  0  0  0  0  0  0
  -32.7016  -21.0233   22.9067 C   0  0  0  0  0  0  0  0  0  0  0  0
  -28.6301  -13.2457   20.8582 C   0  0  0  0  0  0  0  0  0  0  0  0
  -34.8365  -28.5636   14.5944 C   0  0  1  0  0  0  0  0  0  0  0  0
  -31.6930  -26.9825   16.0269 C   0  0  1  0  0  0  0  0  0  0  0  0
  -33.5482  -22.2954   22.8158 C   0  0  1  0  0  0  0  0  0  0  0  0
  -27.6789  -13.0020   19.6753 C   0  0  2  0  0  0  0  0  0  0  0  0
  -25.4766  -28.8377   20.2598 C   0  0  0  0  0  0  0  0  0  0  0  0
  -31.7088  -30.6122   18.8879 C   0  0  0  0  0  0  0  0  0  0  0  0
  -29.6751  -30.8602   20.3269 C   0  0  0  0  0  0  0  0  0  0  0  0
  -29.5539  -31.4029   17.8951 C   0  0  0  0  0  0  0  0  0  0  0  0
  -26.1677  -25.4927   18.5837 C   0  0  0  0  0  0  0  0  0  0  0  0
  -33.0984  -23.2342   21.7108 C   0  0  0  0  0  0  0  0  0  1  0  0
  -29.7213  -28.9863   18.6189 C   0  0  1  0  0  0  0  0  0  0  0  0
  -26.1529  -27.8913   19.2802 C   0  0  2  0  0  0  0  0  0  0  0  0
  -30.1773  -30.4400   18.9290 C   0  0  0  0  0  0  0  0  0  0  0  0
  -25.8610  -11.4748   20.3421 N   0  0  0  0  0  0  0  0  0  0  0  0
  -26.2560  -12.7423   20.1336 N   0  0  0  0  0  0  0  0  0  0  0  0
  -32.8570  -20.6369   24.3193 N   0  0  0  0  0  0  0  0  0  0  0  0
  -31.0318  -27.3754   17.2729 N   0  0  0  0  0  0  0  0  0  0  0  0
  -29.9915  -13.5021   20.3624 N   0  0  0  0  0  0  0  0  0  0  0  0
  -25.5118  -14.9897   20.2118 N   0  0  0  0  0  0  0  0  0  0  0  0
  -21.8741  -12.6423   21.4974 N   0  0  0  0  0  0  0  0  0  0  0  0
  -30.1055  -15.6515   21.3264 N   0  0  0  0  0  0  0  0  0  0  0  0
  -33.5390  -27.9570   14.8020 N   0  0  0  0  0  0  0  0  0  0  0  0
  -28.2744  -28.7998   18.6242 N   0  0  0  0  0  0  0  0  0  0  0  0
  -32.6359  -19.1703   26.0881 N   0  3  0  0  0  0  0  0  0  0  0  0
  -25.6066  -26.5218   19.4965 N   0  3  0  0  0  0  0  0  0  0  0  0
  -22.6811  -14.7492   21.0870 O   0  0  0  0  0  0  0  0  0  0  0  0
  -33.6520  -27.7246   17.1162 O   0  0  0  0  0  0  0  0  0  0  0  0
  -29.8535  -29.1101   16.2538 O   0  0  0  0  0  0  0  0  0  0  0  0
  -28.2346  -27.1652   20.2684 O   0  0  0  0  0  0  0  0  0  0  0  0
  -31.8979  -14.7892   20.1325 O   0  0  0  0  0  0  0  0  0  0  0  0
  -21.5313   -7.1031   21.9825 O   0  0  0  0  0  0  0  0  0  0  0  0
  -33.2686  -22.5851   20.4515 O   0  0  0  0  0  0  0  0  0  1  0  0
  -18.4473   -7.2967   26.5492 F   0  0  0  0  0  0  0  0  0  0  0  0
  -28.5649  -17.5294   22.6950 F   0  0  0  0  0  0  0  0  0  0  0  0
  -21.9200   -5.2916   24.0343 F   0  0  0  0  0  0  0  0  0  0  0  0
  1  2  1  0  0  0  0
  1  6  2  0  0  0  0
  2  7  2  0  0  0  0
  3 10  2  0  0  0  0
  3 18  1  0  0  0  0
  4 11  1  0  0  0  0
  4 18  2  0  0  0  0
  5  9  2  0  0  0  0
  5 19  1  0  0  0  0
  6 21  1  0  0  0  0
  7 23  1  0  0  0  0
  8 12  2  0  0  0  0
  8 22  1  0  0  0  0
  9 25  1  0  0  0  0
 10 26  1  0  0  0  0
 11 26  2  0  0  0  0
 12 27  1  0  0  0  0
 13 14  2  0  0  0  0
 13 28  1  0  0  0  0
 14 29  1  0  0  0  0
 15 19  2  0  0  0  0
 15 30  1  0  0  0  0
 16 24  1  0  0  0  0
 16 27  2  0  0  0  0
 17 29  2  0  0  0  0
 17 31  1  0  0  0  0
 18 32  1  0  0  0  0
 19 34  1  0  0  0  0
 20 32  1  0  0  0  0
 20 33  2  0  0  0  0
 20 35  1  0  0  0  0
 21 23  2  0  0  0  0
 21 40  1  0  0  0  0
 22 24  2  0  0  0  0
 22 41  1  0  0  0  0
 23 52  1  0  0  0  0
 24 42  1  0  0  0  0
 25 30  2  0  0  0  0
 25 72  1  0  0  0  0
 26 82  1  0  0  0  0
 27 83  1  0  0  0  0
 28 31  2  0  0  0  0
 28 82  1  0  0  0  0
 29 84  1  0  0  0  0
 30 85  1  0  0  0  0
 31 86  1  0  0  0  0
 32 65  2  0  0  0  0
 33 66  1  0  0  0  0
 33 70  1  0  0  0  0
 34 67  1  0  0  0  0
 34 75  2  0  0  0  0
 35 71  1  0  0  0  0
 35 77  2  0  0  0  0
 36 53  1  0  0  0  0
 36 73  1  0  0  0  0
 36 78  2  0  0  0  0
 37 62  1  0  0  0  0
 37 68  1  0  0  0  0
 37 79  2  0  0  0  0
 38 63  1  0  0  0  0
 38 74  1  0  0  0  0
 38 80  2  0  0  0  0
 39 69  1  0  0  0  0
 39 72  1  0  0  0  0
 39 81  2  0  0  0  0
 40 43  1  0  0  0  0
 41 53  1  0  0  0  0
 42 68  1  0  0  0  0
 43 45  1  0  0  0  0
 44 46  1  0  0  0  0
 44 48  1  0  0  0  0
 45 52  1  0  0  0  0
 46 55  1  0  0  0  0
 47 49  1  0  0  0  0
 47 54  1  0  0  0  0
 48 69  1  0  0  0  0
 49 67  1  0  0  0  0
 50 54  1  0  0  0  0
 50 67  1  0  0  0  0
 51 55  1  0  0  0  0
 51 69  1  0  0  0  0
 52 73  1  0  0  0  0
 53 68  1  0  0  0  0
 54 61  1  0  0  0  0
 55 66  1  0  0  0  0
 56 63  1  0  0  0  0
 57 64  1  0  0  0  0
 58 64  1  0  0  0  0
 59 64  1  0  0  0  0
 60 76  1  0  0  0  0
 61 83  1  0  0  0  0
 62 64  1  0  0  0  0
 62 74  1  0  0  0  0
 63 76  1  0  0  0  0
 65 66  1  0  0  0  0
M  CHG  2  75   1  76   1
M  ISO  4  39 100  61 101  72 100  83 101
M  END
> <Batch ID>
0107

> <Smiles>
CNC(C)C(=O)NC(C(=O)N1Cc2cc([101O:1][101CH2:1]C3CCN(C(=N)c4ccc([100NH:0][100C:0](=O)N5CCCC(n6nc(-c7ccc(Oc8ccc(F)cc8F)cc7)c(C(N)=O)c6N)C5)c(F)c4)C3)ccc2CC1C(=O)NC1CCCc2ccccc21)C(C)(C)C

> <Shape>
0.215

> <Color>
0.200

> <Negative vol penalty>
0.000

$$$$

  -OEChem-04052301173D

 85 93  0     1  0  0  0  0  0999 V2000
  -26.5214  -36.1290   21.4418 C   0  0  0  0  0  0  0  0  0  0  0  0
  -27.0271  -34.8330   21.4506 C   0  0  0  0  0  0  0  0  0  0  0  0
  -24.9391   -8.4040   20.9518 C   0  0  0  0  0  0  0  0  0  0  0  0
  -23.4102  -10.1627   20.3141 C   0  0  0  0  0  0  0  0  0  0  0  0
  -25.3188  -36.4111   22.0883 C   0  0  0  0  0  0  0  0  0  0  0  0
  -26.3310  -33.8186   22.1070 C   0  0  0  0  0  0  0  0  0  0  0  0
  -26.0640  -29.5633   19.3746 C   0  0  0  0  0  0  0  0  0  0  0  0
  -23.8594   -7.5625   21.2195 C   0  0  0  0  0  0  0  0  0  0  0  0
  -22.3305   -9.3211   20.5818 C   0  0  0  0  0  0  0  0  0  0  0  0
  -27.1990  -28.7543   19.3435 C   0  0  0  0  0  0  0  0  0  0  0  0
  -21.6055   -7.1151   23.6982 C   0  0  0  0  0  0  0  0  0  0  0  0
  -21.6398   -6.3740   24.8793 C   0  0  0  0  0  0  0  0  0  0  0  0
  -26.2090  -27.3116   21.0041 C   0  0  0  0  0  0  0  0  0  0  0  0
  -27.7129  -20.4099   19.5018 C   0  0  0  0  0  0  0  0  0  0  0  0
  -30.1007  -20.2585   19.1664 C   0  0  0  0  0  0  0  0  0  0  0  0
  -21.5325   -4.3281   23.5987 C   0  0  0  0  0  0  0  0  0  0  0  0
  -24.7145   -9.7042   20.4991 C   0  0  0  0  0  0  0  0  0  0  0  0
  -26.5094  -10.7221   18.9992 C   0  0  0  0  0  0  0  0  0  0  0  0
  -24.6027  -35.3977   22.7447 C   0  0  0  0  0  0  0  0  0  0  0  0
  -24.9957  -29.2580   20.2302 C   0  0  0  0  0  0  0  0  0  0  0  0
  -25.1184  -34.0877   22.7641 C   0  0  0  0  0  0  0  0  0  0  0  0
  -25.0605  -28.1169   21.0424 C   0  0  0  0  0  0  0  0  0  0  0  0
  -27.6661  -19.0450   19.7853 C   0  0  0  0  0  0  0  0  0  0  0  0
  -28.8366  -18.2868   19.7594 C   0  0  0  0  0  0  0  0  0  0  0  0
  -28.9302  -21.0167   19.1923 C   0  0  0  0  0  0  0  0  0  0  0  0
  -22.5551   -8.0210   21.0345 C   0  0  0  0  0  0  0  0  0  0  0  0
  -27.2729  -27.6299   20.1604 C   0  0  0  0  0  0  0  0  0  0  0  0
  -21.5346   -6.4628   22.4672 C   0  0  0  0  0  0  0  0  0  0  0  0
  -21.6033   -4.9805   24.8296 C   0  0  0  0  0  0  0  0  0  0  0  0
  -30.0539  -18.8935   19.4500 C   0  0  0  0  0  0  0  0  0  0  0  0
  -21.4981   -5.0693   22.4175 C   0  0  0  0  0  0  0  0  0  0  0  0
  -25.8293  -10.5742   20.2229 C   0  0  0  0  0  0  0  0  0  0  0  0
  -27.4794  -11.6598   19.2567 C   0  0  0  0  0  0  0  0  0  0  0  0
  -29.1698  -23.1626   19.9201 C   0  0  0  0  0  0  0  0  0  0  0  0
  -26.2845  -10.0701   17.7422 C   0  0  0  0  0  0  0  0  0  0  0  0
  -29.2289  -24.6379   19.6909 C   0  0  0  0  0  0  0  0  0  0  0  0
  -23.5901  -30.7248   22.6750 C   0  0  0  0  0  0  0  0  0  0  0  0
  -28.9805  -16.5442   21.5324 C   0  0  0  0  0  0  0  0  0  0  0  0
  -21.5123  -28.2427   22.4647 C   0  0  0  0  0  0  0  0  0  0  0  0
  -20.9283  -25.0289   21.4760 C   0  0  0  0  0  0  0  0  0  0  0  0
  -23.3311  -35.7605   23.4700 C   0  0  0  0  0  0  0  0  0  0  0  0
  -23.7671  -30.1258   20.2324 C   0  0  0  0  0  0  0  0  0  0  0  0
  -23.9322  -27.7342   21.9638 C   0  0  0  0  0  0  0  0  0  0  0  0
  -22.4658  -34.5535   23.8233 C   0  0  0  0  0  0  0  0  0  0  0  0
  -29.0886  -13.6328   23.6185 C   0  0  0  0  0  0  0  0  0  0  0  0
  -23.3182  -33.4466   24.4357 C   0  0  0  0  0  0  0  0  0  0  0  0
  -28.2808  -12.5993   22.8347 C   0  0  0  0  0  0  0  0  0  0  0  0
  -28.5220  -15.0377   23.4388 C   0  0  0  0  0  0  0  0  0  0  0  0
  -27.5932  -14.4340   21.2264 C   0  0  0  0  0  0  0  0  0  0  0  0
  -24.3799  -32.9554   23.4442 C   0  0  1  0  0  0  0  0  0  0  0  0
  -22.9543  -30.0074   21.5180 C   0  0  1  0  0  0  0  0  0  0  0  0
  -28.1506  -13.0053   21.3559 C   0  0  2  0  0  0  0  0  0  0  0  0
  -26.3512  -18.4176   20.1138 C   0  0  0  0  0  0  0  0  0  0  0  0
  -19.1467  -23.2618   21.4730 C   0  0  0  0  0  0  0  0  0  0  0  0
  -22.0192  -27.7300   25.4295 C   0  0  0  0  0  0  0  0  0  0  0  0
  -21.0019  -25.4608   25.1396 C   0  0  0  0  0  0  0  0  0  0  0  0
  -19.6304  -27.5028   24.7250 C   0  0  0  0  0  0  0  0  0  0  0  0
  -20.8956  -24.9028   18.5193 C   0  0  0  0  0  0  0  0  0  0  0  0
  -28.1955  -25.4532   20.4186 C   0  0  0  0  0  0  0  0  0  1  0  0
  -28.8077  -16.8242   20.0607 C   0  0  2  0  0  0  0  0  0  0  0  0
  -21.4311  -26.8622   23.0700 C   0  0  1  0  0  0  0  0  0  0  0  0
  -19.7821  -24.4065   20.6994 C   0  0  2  0  0  0  0  0  0  0  0  0
  -21.0429  -26.8970   24.5752 C   0  0  0  0  0  0  0  0  0  0  0  0
  -26.3253  -11.3553   21.1862 N   0  0  0  0  0  0  0  0  0  0  0  0
  -28.9781  -22.3915   18.9067 N   0  0  0  0  0  0  0  0  0  0  0  0
  -27.3275  -12.0030   20.5679 N   0  0  0  0  0  0  0  0  0  0  0  0
  -22.7549  -28.6178   21.9346 N   0  0  0  0  0  0  0  0  0  0  0  0
  -28.3929  -15.3770   22.0205 N   0  0  0  0  0  0  0  0  0  0  0  0
  -28.4390  -12.2160   18.4871 N   0  0  0  0  0  0  0  0  0  0  0  0
  -25.2459   -9.1334   17.6518 N   0  0  0  0  0  0  0  0  0  0  0  0
  -23.7847  -32.0760   22.4608 N   0  0  0  0  0  0  0  0  0  0  0  0
  -20.5090  -26.1028   22.2325 N   0  0  0  0  0  0  0  0  0  0  0  0
  -29.8243  -16.0293   19.2985 N   0  3  0  0  0  0  0  0  0  0  0  0
  -20.2679  -23.8784   19.3932 N   0  3  0  0  0  0  0  0  0  0  0  0
  -26.9942  -10.2990   16.7336 O   0  0  0  0  0  0  0  0  0  0  0  0
  -30.1007  -25.0739   18.9559 O   0  0  0  0  0  0  0  0  0  0  0  0
  -23.8813  -30.0990   23.6876 O   0  0  0  0  0  0  0  0  0  0  0  0
  -29.6215  -17.3388   22.2252 O   0  0  0  0  0  0  0  0  0  0  0  0
  -20.5081  -28.9591   22.4558 O   0  0  0  0  0  0  0  0  0  0  0  0
  -22.0798  -24.6027   21.4203 O   0  0  0  0  0  0  0  0  0  0  0  0
  -21.5014   -7.2000   21.2955 O   0  0  0  0  0  0  0  0  0  0  0  0
  -28.3799  -26.8390   20.1324 O   0  0  0  0  0  0  0  0  0  1  0  0
  -21.6378   -4.2688   25.9638 F   0  0  0  0  0  0  0  0  0  0  0  0
  -31.1846  -18.1739   19.4225 F   0  0  0  0  0  0  0  0  0  0  0  0
  -21.4312   -4.4369   21.2379 F   0  0  0  0  0  0  0  0  0  0  0  0
  1  2  1  0  0  0  0
  1  5  2  0  0  0  0
  2  6  2  0  0  0  0
  3  8  2  0  0  0  0
  3 17  1  0  0  0  0
  4  9  1  0  0  0  0
  4 17  2  0  0  0  0
  5 19  1  0  0  0  0
  6 21  1  0  0  0  0
  7 10  2  0  0  0  0
  7 20  1  0  0  0  0
  8 26  1  0  0  0  0
  9 26  2  0  0  0  0
 10 27  1  0  0  0  0
 11 12  2  0  0  0  0
 11 28  1  0  0  0  0
 12 29  1  0  0  0  0
 13 22  1  0  0  0  0
 13 27  2  0  0  0  0
 14 23  2  0  0  0  0
 14 25  1  0  0  0  0
 15 25  2  0  0  0  0
 15 30  1  0  0  0  0
 16 29  2  0  0  0  0
 16 31  1  0  0  0  0
 17 32  1  0  0  0  0
 18 32  1  0  0  0  0
 18 33  2  0  0  0  0
 18 35  1  0  0  0  0
 19 21  2  0  0  0  0
 19 41  1  0  0  0  0
 20 22  2  0  0  0  0
 20 42  1  0  0  0  0
 21 50  1  0  0  0  0
 22 43  1  0  0  0  0
 23 24  1  0  0  0  0
 23 53  1  0  0  0  0
 24 30  2  0  0  0  0
 24 60  1  0  0  0  0
 25 65  1  0  0  0  0
 26 81  1  0  0  0  0
 27 82  1  0  0  0  0
 28 31  2  0  0  0  0
 28 81  1  0  0  0  0
 29 83  1  0  0  0  0
 30 84  1  0  0  0  0
 31 85  1  0  0  0  0
 32 64  2  0  0  0  0
 33 66  1  0  0  0  0
 33 69  1  0  0  0  0
 34 36  1  0  0  0  0
 34 65  2  0  0  0  0
 35 70  1  0  0  0  0
 35 75  2  0  0  0  0
 36 59  1  0  0  0  0
 36 76  2  0  0  0  0
 37 51  1  0  0  0  0
 37 71  1  0  0  0  0
 37 77  2  0  0  0  0
 38 60  1  0  0  0  0
 38 68  1  0  0  0  0
 38 78  2  0  0  0  0
 39 61  1  0  0  0  0
 39 67  1  0  0  0  0
 39 79  2  0  0  0  0
 40 62  1  0  0  0  0
 40 72  1  0  0  0  0
 40 80  2  0  0  0  0
 41 44  1  0  0  0  0
 42 51  1  0  0  0  0
 43 67  1  0  0  0  0
 44 46  1  0  0  0  0
 45 47  1  0  0  0  0
 45 48  1  0  0  0  0
 46 50  1  0  0  0  0
 47 52  1  0  0  0  0
 48 68  1  0  0  0  0
 49 52  1  0  0  0  0
 49 68  1  0  0  0  0
 50 71  1  0  0  0  0
 51 67  1  0  0  0  0
 52 66  1  0  0  0  0
 54 62  1  0  0  0  0
 55 63  1  0  0  0  0
 56 63  1  0  0  0  0
 57 63  1  0  0  0  0
 58 74  1  0  0  0  0
 59 82  1  0  0  0  0
 60 73  1  0  0  0  0
 61 63  1  0  0  0  0
 61 72  1  0  0  0  0
 62 74  1  0  0  0  0
 64 66  1  0  0  0  0
M  CHG  2  73   1  74   1
M  ISO  4  38 100  59 101  60 100  82 101
M  END
> <Batch ID>
0107

> <Smiles>
CNC(C)C(=O)NC(C(=O)N1Cc2cc([101O:1][101CH2:1]C(=O)CNc3cc(C)c([100C:0](=N)[100C:0](=O)N4CCCC(n5nc(-c6ccc(Oc7ccc(F)cc7F)cc6)c(C(N)=O)c5N)C4)c(F)c3)ccc2CC1C(=O)NC1CCCc2ccccc21)C(C)(C)C

> <Shape>
0.338

> <Color>
0.121

> <Negative vol penalty>
0.000

$$$$

  -OEChem-04052301173D

 84 92  0     1  0  0  0  0  0999 V2000
  -33.2333   -7.1981   18.4389 C   0  0  0  0  0  0  0  0  0  0  0  0
  -32.6163   -8.3153   18.9928 C   0  0  0  0  0  0  0  0  0  0  0  0
  -27.2827  -18.1555   19.1404 C   0  0  0  0  0  0  0  0  0  0  0  0
  -23.2803   -9.7954   19.9246 C   0  0  0  0  0  0  0  0  0  0  0  0
  -23.7203   -9.9513   22.2951 C   0  0  0  0  0  0  0  0  0  0  0  0
  -32.8423   -5.9196   18.8343 C   0  0  0  0  0  0  0  0  0  0  0  0
  -31.6072   -8.1545   19.9416 C   0  0  0  0  0  0  0  0  0  0  0  0
  -32.1349  -11.2832   23.8884 C   0  0  0  0  0  0  0  0  0  0  0  0
  -28.0840  -18.2257   20.2799 C   0  0  0  0  0  0  0  0  0  0  0  0
  -27.6359  -17.3077   18.0905 C   0  0  0  0  0  0  0  0  0  0  0  0
  -22.5421   -8.6313   20.1381 C   0  0  0  0  0  0  0  0  0  0  0  0
  -22.9820   -8.7872   22.5086 C   0  0  0  0  0  0  0  0  0  0  0  0
  -31.7431  -12.6088   23.7069 C   0  0  0  0  0  0  0  0  0  0  0  0
  -19.4473   -7.8082   21.2233 C   0  0  0  0  0  0  0  0  0  0  0  0
  -18.2205   -7.6897   20.5703 C   0  0  0  0  0  0  0  0  0  0  0  0
  -29.6599  -12.1404   24.8295 C   0  0  0  0  0  0  0  0  0  0  0  0
  -19.0096   -5.7003   19.4491 C   0  0  0  0  0  0  0  0  0  0  0  0
  -23.8694  -10.4554   21.0030 C   0  0  0  0  0  0  0  0  0  0  0  0
  -24.1532  -12.9812   20.7852 C   0  0  0  0  0  0  0  0  0  0  0  0
  -31.8346   -5.7431   19.7955 C   0  0  0  0  0  0  0  0  0  0  0  0
  -31.2862  -10.3720   24.5333 C   0  0  0  0  0  0  0  0  0  0  0  0
  -31.2015   -6.8723   20.3492 C   0  0  0  0  0  0  0  0  0  0  0  0
  -30.0444  -10.8044   25.0202 C   0  0  0  0  0  0  0  0  0  0  0  0
  -29.2386  -17.4481   20.3696 C   0  0  0  0  0  0  0  0  0  0  0  0
  -28.7904  -16.5301   18.1802 C   0  0  0  0  0  0  0  0  0  0  0  0
  -22.3929   -8.1273   21.4301 C   0  0  0  0  0  0  0  0  0  0  0  0
  -30.5042  -13.0369   24.1749 C   0  0  0  0  0  0  0  0  0  0  0  0
  -20.4553   -6.8729   20.9892 C   0  0  0  0  0  0  0  0  0  0  0  0
  -29.5918  -16.6003   19.3197 C   0  0  0  0  0  0  0  0  0  0  0  0
  -18.0016   -6.6357   19.6832 C   0  0  0  0  0  0  0  0  0  0  0  0
  -20.2364   -5.8189   20.1021 C   0  0  0  0  0  0  0  0  0  0  0  0
  -24.6326  -11.6576   20.7830 C   0  0  0  0  0  0  0  0  0  0  0  0
  -25.2631  -13.7488   20.5295 C   0  0  0  0  0  0  0  0  0  0  0  0
  -29.7361  -16.7022   22.4722 C   0  0  0  0  0  0  0  0  0  0  0  0
  -22.8234  -13.4728   20.9992 C   0  0  0  0  0  0  0  0  0  0  0  0
  -29.8370   -7.6720   23.6886 C   0  0  0  0  0  0  0  0  0  0  0  0
  -29.0045   -7.5954   26.8228 C   0  0  0  0  0  0  0  0  0  0  0  0
  -28.4635   -9.3166   29.7197 C   0  0  0  0  0  0  0  0  0  0  0  0
  -29.8447  -14.4511   17.2541 C   0  0  0  0  0  0  0  0  0  0  0  0
  -31.4132   -4.3407   20.1565 C   0  0  0  0  0  0  0  0  0  0  0  0
  -31.7349   -8.9520   24.7449 C   0  0  0  0  0  0  0  0  0  0  0  0
  -29.1050   -9.8706   25.7371 C   0  0  0  0  0  0  0  0  0  0  0  0
  -30.5953   -4.2625   21.4431 C   0  0  0  0  0  0  0  0  0  0  0  0
  -30.1703  -12.5760   20.4276 C   0  0  0  0  0  0  0  0  0  0  0  0
  -29.5092   -5.3335   21.4511 C   0  0  0  0  0  0  0  0  0  0  0  0
  -28.7241  -12.2079   20.7541 C   0  0  0  0  0  0  0  0  0  0  0  0
  -30.3948  -12.7113   18.9247 C   0  0  0  0  0  0  0  0  0  0  0  0
  -28.0122  -13.3076   18.5941 C   0  0  0  0  0  0  0  0  0  0  0  0
  -30.1200   -6.7391   21.3994 C   0  0  1  0  0  0  0  0  0  0  0  0
  -30.5749   -7.9846   24.9596 C   0  0  1  0  0  0  0  0  0  0  0  0
  -27.7507  -13.2051   20.1042 C   0  0  1  0  0  0  0  0  0  0  0  0
  -27.7545   -8.9864   32.1042 C   0  0  0  0  0  0  0  0  0  0  0  0
  -26.1068   -7.2921   25.9167 C   0  0  0  0  0  0  0  0  0  0  0  0
  -25.3902   -7.9179   28.2325 C   0  0  0  0  0  0  0  0  0  0  0  0
  -26.7469   -5.8575   27.8627 C   0  0  0  0  0  0  0  0  0  0  0  0
  -28.9869  -16.1717   15.7259 C   0  0  0  0  0  0  0  0  0  0  0  0
  -31.0429  -10.3386   30.7498 C   0  0  0  0  0  0  0  0  0  0  0  0
  -31.9296  -16.4178   18.9231 C   0  0  0  0  0  0  0  0  0  0  0  0
  -30.5278  -16.6859   23.7524 C   0  0  0  0  0  0  0  0  0  0  0  0
  -31.1502  -15.3157   23.9612 C   0  0  0  0  0  0  0  0  0  1  0  0
  -27.8460   -8.1229   27.6345 C   0  0  1  0  0  0  0  0  0  0  0  0
  -28.9299   -9.0659   31.1424 C   0  0  2  0  0  0  0  0  0  0  0  0
  -26.5391   -7.3149   27.3964 C   0  0  0  0  0  0  0  0  0  0  0  0
  -25.9448  -11.5849   20.5448 N   0  0  0  0  0  0  0  0  0  0  0  0
  -30.0345  -17.5296   21.5244 N   0  0  0  0  0  0  0  0  0  0  0  0
  -26.2994  -12.8724   20.3947 N   0  0  0  0  0  0  0  0  0  0  0  0
  -29.5863   -8.4906   25.9139 N   0  0  0  0  0  0  0  0  0  0  0  0
  -29.4230  -13.6171   18.3100 N   0  0  0  0  0  0  0  0  0  0  0  0
  -25.4438  -15.0812   20.4091 N   0  0  0  0  0  0  0  0  0  0  0  0
  -21.8010  -12.5473   21.2490 N   0  0  0  0  0  0  0  0  0  0  0  0
  -30.6281   -7.1176   22.7006 N   0  0  0  0  0  0  0  0  0  0  0  0
  -28.2941   -8.1390   29.0228 N   0  0  0  0  0  0  0  0  0  0  0  0
  -29.1403  -15.6584   17.0854 N   0  0  0  0  0  0  0  0  0  0  0  0
  -29.8322  -10.1632   31.5926 N   0  3  0  0  0  0  0  0  0  0  0  0
  -22.5470  -14.6955   20.9534 O   0  0  0  0  0  0  0  0  0  0  0  0
  -28.6383   -7.9143   23.6107 O   0  0  0  0  0  0  0  0  0  0  0  0
  -29.3840   -6.4343   26.9942 O   0  0  0  0  0  0  0  0  0  0  0  0
  -28.2655  -10.4442   29.2725 O   0  0  0  0  0  0  0  0  0  0  0  0
  -30.7501  -14.1188   16.4793 O   0  0  0  0  0  0  0  0  0  0  0  0
  -21.6724   -6.9915   21.6389 O   0  0  0  0  0  0  0  0  0  0  0  0
  -30.7216  -15.8399   19.4106 O   0  0  0  0  0  0  0  0  0  0  0  0
  -30.1190  -14.3301   23.9985 O   0  0  0  0  0  0  0  0  0  1  0  0
  -16.8229   -6.5211   19.0573 F   0  0  0  0  0  0  0  0  0  0  0  0
  -21.2006   -4.9166   19.8741 F   0  0  0  0  0  0  0  0  0  0  0  0
  1  2  1  0  0  0  0
  1  6  2  0  0  0  0
  2  7  2  0  0  0  0
  3  9  2  0  0  0  0
  3 10  1  0  0  0  0
  4 11  2  0  0  0  0
  4 18  1  0  0  0  0
  5 12  1  0  0  0  0
  5 18  2  0  0  0  0
  6 20  1  0  0  0  0
  7 22  1  0  0  0  0
  8 13  2  0  0  0  0
  8 21  1  0  0  0  0
  9 24  1  0  0  0  0
 10 25  2  0  0  0  0
 11 26  1  0  0  0  0
 12 26  2  0  0  0  0
 13 27  1  0  0  0  0
 14 15  2  0  0  0  0
 14 28  1  0  0  0  0
 15 30  1  0  0  0  0
 16 23  1  0  0  0  0
 16 27  2  0  0  0  0
 17 30  2  0  0  0  0
 17 31  1  0  0  0  0
 18 32  1  0  0  0  0
 19 32  1  0  0  0  0
 19 33  2  0  0  0  0
 19 35  1  0  0  0  0
 20 22  2  0  0  0  0
 20 40  1  0  0  0  0
 21 23  2  0  0  0  0
 21 41  1  0  0  0  0
 22 49  1  0  0  0  0
 23 42  1  0  0  0  0
 24 29  2  0  0  0  0
 24 65  1  0  0  0  0
 25 29  1  0  0  0  0
 25 73  1  0  0  0  0
 26 80  1  0  0  0  0
 27 82  1  0  0  0  0
 28 31  2  0  0  0  0
 28 80  1  0  0  0  0
 29 81  1  0  0  0  0
 30 83  1  0  0  0  0
 31 84  1  0  0  0  0
 32 64  2  0  0  0  0
 33 66  1  0  0  0  0
 33 69  1  0  0  0  0
 34 59  1  0  0  0  0
 34 65  2  0  0  0  0
 35 70  1  0  0  0  0
 35 75  2  0  0  0  0
 36 50  1  0  0  0  0
 36 71  1  0  0  0  0
 36 76  2  0  0  0  0
 37 61  1  0  0  0  0
 37 67  1  0  0  0  0
 37 77  2  0  0  0  0
 38 62  1  0  0  0  0
 38 72  1  0  0  0  0
 38 78  2  0  0  0  0
 39 68  1  0  0  0  0
 39 73  1  0  0  0  0
 39 79  2  0  0  0  0
 40 43  1  0  0  0  0
 41 50  1  0  0  0  0
 42 67  1  0  0  0  0
 43 45  1  0  0  0  0
 44 46  1  0  0  0  0
 44 47  1  0  0  0  0
 45 49  1  0  0  0  0
 46 51  1  0  0  0  0
 47 68  1  0  0  0  0
 48 51  1  0  0  0  0
 48 68  1  0  0  0  0
 49 71  1  0  0  0  0
 50 67  1  0  0  0  0
 51 66  1  0  0  0  0
 52 62  1  0  0  0  0
 53 63  1  0  0  0  0
 54 63  1  0  0  0  0
 55 63  1  0  0  0  0
 56 73  1  0  0  0  0
 57 74  1  0  0  0  0
 58 81  1  0  0  0  0
 59 60  1  0  0  0  0
 60 82  1  0  0  0  0
 61 63  1  0  0  0  0
 61 72  1  0  0  0  0
 62 74  1  0  0  0  0
 64 66  1  0  0  0  0
M  CHG  1  74   1
M  ISO  4  39 100  60 101  73 100  82 101
M  END
> <Batch ID>
0107

> <Smiles>
CNC(C)C(=O)NC(C(=O)N1Cc2cc([101O:1][101CH2:1]C=CNc3cccc([100N:0](C)[100C:0](=O)N4CCCC(n5nc(-c6ccc(Oc7ccc(F)cc7F)cc6)c(C(N)=O)c5N)C4)c3OC)ccc2CC1C(=O)NC1CCCc2ccccc21)C(C)(C)C

> <Shape>
0.157

> <Color>
0.180

> <Negative vol penalty>
0.000

$$$$

  -OEChem-04052301173D

 83 91  0     1  0  0  0  0  0999 V2000
  -22.9995  -30.7355   21.0626 C   0  0  0  0  0  0  0  0  0  0  0  0
  -23.3297  -29.8455   20.0456 C   0  0  0  0  0  0  0  0  0  0  0  0
  -27.9814  -14.5774   19.0982 C   0  0  0  0  0  0  0  0  0  0  0  0
  -28.1480  -14.8610   21.4917 C   0  0  0  0  0  0  0  0  0  0  0  0
  -23.9346  -31.0416   22.0504 C   0  0  0  0  0  0  0  0  0  0  0  0
  -24.5958  -29.2619   20.0152 C   0  0  0  0  0  0  0  0  0  0  0  0
  -24.4230  -24.2959   19.0390 C   0  0  0  0  0  0  0  0  0  0  0  0
  -29.3592  -14.3724   19.0265 C   0  0  0  0  0  0  0  0  0  0  0  0
  -29.5259  -14.6559   21.4201 C   0  0  0  0  0  0  0  0  0  0  0  0
  -24.2232  -23.9142   17.7130 C   0  0  0  0  0  0  0  0  0  0  0  0
  -32.7815  -13.4163   18.2593 C   0  0  0  0  0  0  0  0  0  0  0  0
  -33.2400  -12.3618   17.4698 C   0  0  0  0  0  0  0  0  0  0  0  0
  -26.5887  -23.5017   17.4816 C   0  0  0  0  0  0  0  0  0  0  0  0
  -31.9972  -10.8011   18.8325 C   0  0  0  0  0  0  0  0  0  0  0  0
  -20.2225  -19.1906   13.7000 C   0  0  0  0  0  0  0  0  0  0  0  0
  -27.3758  -14.8218   20.3308 C   0  0  0  0  0  0  0  0  0  0  0  0
  -24.9559  -14.0576   20.5907 C   0  0  0  0  0  0  0  0  0  0  0  0
  -25.2094  -30.4541   22.0375 C   0  0  0  0  0  0  0  0  0  0  0  0
  -25.7108  -24.2937   19.5939 C   0  0  0  0  0  0  0  0  0  0  0  0
  -25.5493  -29.5615   21.0031 C   0  0  0  0  0  0  0  0  0  0  0  0
  -26.8018  -23.8813   18.8157 C   0  0  0  0  0  0  0  0  0  0  0  0
  -21.0330  -19.3561   14.7964 C   0  0  0  0  0  0  0  0  0  0  0  0
  -30.1315  -14.4116   20.1874 C   0  0  0  0  0  0  0  0  0  0  0  0
  -25.3065  -23.5198   16.9332 C   0  0  0  0  0  0  0  0  0  0  0  0
  -31.9309  -13.1632   19.3355 C   0  0  0  0  0  0  0  0  0  0  0  0
  -32.8479  -11.0542   17.7563 C   0  0  0  0  0  0  0  0  0  0  0  0
  -31.5387  -11.8556   19.6220 C   0  0  0  0  0  0  0  0  0  0  0  0
  -25.9526  -15.0343   20.4054 C   0  0  0  0  0  0  0  0  0  0  0  0
  -20.4146  -18.5984   15.8089 C   0  0  0  0  0  0  0  0  0  0  0  0
  -23.7782  -14.7644   20.5898 C   0  0  0  0  0  0  0  0  0  0  0  0
  -25.0831  -12.6383   20.7495 C   0  0  0  0  0  0  0  0  0  0  0  0
  -27.6278  -26.5119   20.8221 C   0  0  0  0  0  0  0  0  0  0  0  0
  -24.0108  -21.5556   14.1821 C   0  0  0  0  0  0  0  0  0  0  0  0
  -29.4872  -23.9522   21.5382 C   0  0  0  0  0  0  0  0  0  0  0  0
  -30.3679  -20.7278   20.8495 C   0  0  0  0  0  0  0  0  0  0  0  0
  -21.6470  -19.5017   17.7736 C   0  0  0  0  0  0  0  0  0  0  0  0
  -26.2029  -30.8521   23.1002 C   0  0  0  0  0  0  0  0  0  0  0  0
  -25.9059  -24.6826   21.0338 C   0  0  0  0  0  0  0  0  0  0  0  0
  -28.2016  -23.8419   19.3701 C   0  0  0  0  0  0  0  0  0  0  0  0
  -27.3941  -29.9034   23.2064 C   0  0  0  0  0  0  0  0  0  0  0  0
  -22.5230  -19.4754   21.3572 C   0  0  0  0  0  0  0  0  0  0  0  0
  -27.9524  -29.5905   21.8217 C   0  0  0  0  0  0  0  0  0  0  0  0
  -23.4568  -18.2716   21.4706 C   0  0  0  0  0  0  0  0  0  0  0  0
  -22.5956  -20.1211   19.9767 C   0  0  0  0  0  0  0  0  0  0  0  0
  -23.2800  -17.9657   18.9685 C   0  0  0  0  0  0  0  0  0  0  0  0
  -26.9039  -28.8890   20.9498 C   0  0  1  0  0  0  0  0  0  0  0  0
  -27.3299  -25.1344   21.3429 C   0  0  1  0  0  0  0  0  0  0  0  0
  -23.1978  -17.2673   20.3343 C   0  0  1  0  0  0  0  0  0  0  0  0
  -31.9449  -18.9176   21.5799 C   0  0  0  0  0  0  0  0  0  0  0  0
  -31.7770  -25.3731   20.1071 C   0  0  0  0  0  0  0  0  0  0  0  0
  -32.9946  -23.1867   20.0325 C   0  0  0  0  0  0  0  0  0  0  0  0
  -32.4277  -24.2223   22.2300 C   0  0  0  0  0  0  0  0  0  0  0  0
  -18.1026  -17.9166   13.2992 C   0  0  0  0  0  0  0  0  0  0  0  0
  -20.4300  -17.3457   17.9739 C   0  0  0  0  0  0  0  0  0  0  0  0
  -28.1402  -18.9238   21.5860 C   0  0  0  0  0  0  0  0  0  0  0  0
  -22.7408  -20.8493   13.7574 C   0  0  0  0  0  0  0  0  0  0  0  0
  -23.8581  -22.5542   15.3129 C   0  0  0  0  0  0  0  0  0  1  0  0
  -30.5875  -23.1988   20.8307 C   0  0  1  0  0  0  0  0  0  0  0  0
  -30.5598  -19.5215   21.7510 C   0  0  2  0  0  0  0  0  0  0  0  0
  -31.9207  -23.9977   20.7888 C   0  0  0  0  0  0  0  0  0  0  0  0
  -25.4519  -16.2675   20.2946 N   0  0  0  0  0  0  0  0  0  0  0  0
  -19.2972  -17.9964   15.3928 N   0  0  0  0  0  0  0  0  0  0  0  0
  -19.2071  -18.3759   14.1067 N   0  0  0  0  0  0  0  0  0  0  0  0
  -24.1275  -16.0706   20.4106 N   0  0  0  0  0  0  0  0  0  0  0  0
  -28.3420  -24.2374   20.7813 N   0  0  0  0  0  0  0  0  0  0  0  0
  -22.3911  -19.1365   18.9134 N   0  0  0  0  0  0  0  0  0  0  0  0
  -22.4883  -14.3898   20.7247 N   0  0  0  0  0  0  0  0  0  0  0  0
  -26.3666  -12.0758   20.7261 N   0  0  0  0  0  0  0  0  0  0  0  0
  -22.1971  -20.1079   14.8664 N   0  0  0  0  0  0  0  0  0  0  0  0
  -26.7918  -27.4940   21.3182 N   0  0  0  0  0  0  0  0  0  0  0  0
  -30.6877  -21.9036   21.4947 N   0  0  0  0  0  0  0  0  0  0  0  0
  -20.9093  -18.4669   17.1590 N   0  0  0  0  0  0  0  0  0  0  0  0
  -29.5480  -18.4735   21.4364 N   0  3  0  0  0  0  0  0  0  0  0  0
  -24.0870  -11.8892   20.8912 O   0  0  0  0  0  0  0  0  0  0  0  0
  -28.5490  -26.6722   20.0299 O   0  0  0  0  0  0  0  0  0  0  0  0
  -25.1002  -21.3417   13.6518 O   0  0  0  0  0  0  0  0  0  0  0  0
  -29.6353  -24.2695   22.7210 O   0  0  0  0  0  0  0  0  0  0  0  0
  -29.9771  -20.6358   19.6879 O   0  0  0  0  0  0  0  0  0  0  0  0
  -21.6207  -20.6660   17.3571 O   0  0  0  0  0  0  0  0  0  0  0  0
  -31.4759  -14.2113   20.1179 O   0  0  0  0  0  0  0  0  0  0  0  0
  -25.1144  -23.1474   15.6385 O   0  0  0  0  0  0  0  0  0  1  0  0
  -33.2870  -10.0418   16.9971 F   0  0  0  0  0  0  0  0  0  0  0  0
  -30.7208  -11.6064   20.6538 F   0  0  0  0  0  0  0  0  0  0  0  0
  1  2  1  0  0  0  0
  1  5  2  0  0  0  0
  2  6  2  0  0  0  0
  3  8  2  0  0  0  0
  3 16  1  0  0  0  0
  4  9  1  0  0  0  0
  4 16  2  0  0  0  0
  5 18  1  0  0  0  0
  6 20  1  0  0  0  0
  7 10  2  0  0  0  0
  7 19  1  0  0  0  0
  8 23  1  0  0  0  0
  9 23  2  0  0  0  0
 10 24  1  0  0  0  0
 11 12  2  0  0  0  0
 11 25  1  0  0  0  0
 12 26  1  0  0  0  0
 13 21  1  0  0  0  0
 13 24  2  0  0  0  0
 14 26  2  0  0  0  0
 14 27  1  0  0  0  0
 15 22  2  0  0  0  0
 15 63  1  0  0  0  0
 16 28  1  0  0  0  0
 17 28  1  0  0  0  0
 17 30  2  0  0  0  0
 17 31  1  0  0  0  0
 18 20  2  0  0  0  0
 18 37  1  0  0  0  0
 19 21  2  0  0  0  0
 19 38  1  0  0  0  0
 20 46  1  0  0  0  0
 21 39  1  0  0  0  0
 22 29  1  0  0  0  0
 22 69  1  0  0  0  0
 23 80  1  0  0  0  0
 24 81  1  0  0  0  0
 25 27  2  0  0  0  0
 25 80  1  0  0  0  0
 26 82  1  0  0  0  0
 27 83  1  0  0  0  0
 28 61  2  0  0  0  0
 29 62  2  0  0  0  0
 29 72  1  0  0  0  0
 30 64  1  0  0  0  0
 30 67  1  0  0  0  0
 31 68  1  0  0  0  0
 31 74  2  0  0  0  0
 32 47  1  0  0  0  0
 32 70  1  0  0  0  0
 32 75  2  0  0  0  0
 33 56  1  0  0  0  0
 33 57  1  0  0  0  0
 33 76  2  0  0  0  0
 34 58  1  0  0  0  0
 34 65  1  0  0  0  0
 34 77  2  0  0  0  0
 35 59  1  0  0  0  0
 35 71  1  0  0  0  0
 35 78  2  0  0  0  0
 36 66  1  0  0  0  0
 36 72  1  0  0  0  0
 36 79  2  0  0  0  0
 37 40  1  0  0  0  0
 38 47  1  0  0  0  0
 39 65  1  0  0  0  0
 40 42  1  0  0  0  0
 41 43  1  0  0  0  0
 41 44  1  0  0  0  0
 42 46  1  0  0  0  0
 43 48  1  0  0  0  0
 44 66  1  0  0  0  0
 45 48  1  0  0  0  0
 45 66  1  0  0  0  0
 46 70  1  0  0  0  0
 47 65  1  0  0  0  0
 48 64  1  0  0  0  0
 49 59  1  0  0  0  0
 50 60  1  0  0  0  0
 51 60  1  0  0  0  0
 52 60  1  0  0  0  0
 53 63  1  0  0  0  0
 54 72  1  0  0  0  0
 55 73  1  0  0  0  0
 56 69  1  0  0  0  0
 57 81  1  0  0  0  0
 58 60  1  0  0  0  0
 58 71  1  0  0  0  0
 59 73  1  0  0  0  0
 61 64  1  0  0  0  0
 62 63  1  0  0  0  0
M  CHG  1  73   1
M  ISO  4  36 100  57 101  72 100  81 101
M  END
> <Batch ID>
0107

> <Smiles>
CNC(C)C(=O)NC(C(=O)N1Cc2cc([101O:1][101CH2:1]C(=O)CNc3cn(C)nc3[100N:0](C)[100C:0](=O)N3CCCC(n4nc(-c5ccc(Oc6ccc(F)cc6F)cc5)c(C(N)=O)c4N)C3)ccc2CC1C(=O)NC1CCCc2ccccc21)C(C)(C)C

> <Shape>
0.189

> <Color>
0.086

> <Negative vol penalty>
0.000

$$$$

  -OEChem-04052301173D

 91100  0     1  0  0  0  0  0999 V2000
  -16.4507  -28.3182   23.8181 C   0  0  0  0  0  0  0  0  0  0  0  0
  -17.2623  -27.8492   22.7901 C   0  0  0  0  0  0  0  0  0  0  0  0
  -23.3404  -10.1947   18.5182 C   0  0  0  0  0  0  0  0  0  0  0  0
  -23.3434   -9.7073   20.8845 C   0  0  0  0  0  0  0  0  0  0  0  0
  -16.7806  -29.4992   24.4816 C   0  0  0  0  0  0  0  0  0  0  0  0
  -18.4038  -28.5617   22.4243 C   0  0  0  0  0  0  0  0  0  0  0  0
  -22.4338  -25.5673   21.7624 C   0  0  0  0  0  0  0  0  0  0  0  0
  -22.5514   -9.0679   18.2871 C   0  0  0  0  0  0  0  0  0  0  0  0
  -22.5544   -8.5805   20.6534 C   0  0  0  0  0  0  0  0  0  0  0  0
  -22.5063  -24.8520   20.5679 C   0  0  0  0  0  0  0  0  0  0  0  0
  -19.2939   -8.2071   18.5714 C   0  0  0  0  0  0  0  0  0  0  0  0
  -18.2047   -8.3438   17.7109 C   0  0  0  0  0  0  0  0  0  0  0  0
  -24.0420  -26.4905   19.6869 C   0  0  0  0  0  0  0  0  0  0  0  0
  -27.9142  -19.9446   16.2638 C   0  0  0  0  0  0  0  0  0  0  0  0
  -26.7279  -19.4948   18.3199 C   0  0  0  0  0  0  0  0  0  0  0  0
  -19.1433   -6.6594   16.2552 C   0  0  0  0  0  0  0  0  0  0  0  0
  -23.7365  -10.5144   19.8169 C   0  0  0  0  0  0  0  0  0  0  0  0
  -28.8416  -18.4093   17.8824 C   0  0  0  0  0  0  0  0  0  0  0  0
  -24.1080  -12.9862   20.3264 C   0  0  0  0  0  0  0  0  0  0  0  0
  -17.9319  -30.2214   24.1302 C   0  0  0  0  0  0  0  0  0  0  0  0
  -23.1576  -26.7574   21.9244 C   0  0  0  0  0  0  0  0  0  0  0  0
  -18.7487  -29.7542   23.0828 C   0  0  0  0  0  0  0  0  0  0  0  0
  -23.9790  -27.2177   20.8853 C   0  0  0  0  0  0  0  0  0  0  0  0
  -28.9279  -19.0710   16.6575 C   0  0  0  0  0  0  0  0  0  0  0  0
  -26.8143  -20.1565   17.0950 C   0  0  0  0  0  0  0  0  0  0  0  0
  -22.1583   -8.2609   19.3547 C   0  0  0  0  0  0  0  0  0  0  0  0
  -23.3081  -25.3151   19.5288 C   0  0  0  0  0  0  0  0  0  0  0  0
  -20.3079   -7.2965   18.2738 C   0  0  0  0  0  0  0  0  0  0  0  0
  -27.7416  -18.6212   18.7136 C   0  0  0  0  0  0  0  0  0  0  0  0
  -18.1294   -7.5700   16.5528 C   0  0  0  0  0  0  0  0  0  0  0  0
  -20.2326   -6.5227   17.1158 C   0  0  0  0  0  0  0  0  0  0  0  0
  -24.5520  -11.6779   20.0562 C   0  0  0  0  0  0  0  0  0  0  0  0
  -25.2618  -13.7162   20.4762 C   0  0  0  0  0  0  0  0  0  0  0  0
  -23.3632  -22.3237   16.1344 C   0  0  0  0  0  0  0  0  0  0  0  0
  -23.9553  -22.5356   17.3174 C   0  0  0  0  0  0  0  0  0  0  0  0
  -24.1091  -21.6757   15.0366 C   0  0  0  0  0  0  0  0  0  0  0  0
  -29.9180  -17.4779   18.3073 C   0  0  0  0  0  0  0  0  0  0  0  0
  -22.7722  -13.4960   20.4327 C   0  0  0  0  0  0  0  0  0  0  0  0
  -22.3889  -29.7965   22.4506 C   0  0  0  0  0  0  0  0  0  0  0  0
  -25.6016  -30.1567   22.7177 C   0  0  0  0  0  0  0  0  0  0  0  0
  -28.7202  -29.0020   21.9509 C   0  0  0  0  0  0  0  0  0  0  0  0
  -30.3826  -15.1188   18.8927 C   0  0  0  0  0  0  0  0  0  0  0  0
  -18.2219  -31.5177   24.8444 C   0  0  0  0  0  0  0  0  0  0  0  0
  -23.0896  -27.5031   23.2289 C   0  0  0  0  0  0  0  0  0  0  0  0
  -24.7918  -28.4789   21.0164 C   0  0  0  0  0  0  0  0  0  0  0  0
  -25.5200  -21.1973   15.2726 C   0  0  0  0  0  0  0  0  0  0  0  0
  -19.6515  -32.0153   24.6471 C   0  0  0  0  0  0  0  0  0  0  0  0
  -30.0821  -12.2167   20.8888 C   0  0  0  0  0  0  0  0  0  0  0  0
  -20.0467  -31.9341   23.1760 C   0  0  0  0  0  0  0  0  0  0  0  0
  -28.5786  -11.9271   20.8809 C   0  0  0  0  0  0  0  0  0  0  0  0
  -30.5679  -12.7315   19.5345 C   0  0  0  0  0  0  0  0  0  0  0  0
  -28.3243  -13.5855   18.9917 C   0  0  0  0  0  0  0  0  0  0  0  0
  -20.0086  -30.4858   22.6737 C   0  0  1  0  0  0  0  0  0  0  0  0
  -25.3754  -22.1060   17.6220 C   0  0  2  0  0  0  0  0  0  0  0  0
  -23.4687  -28.9749   23.0963 C   0  0  1  0  0  0  0  0  0  0  0  0
  -27.7734  -13.1315   20.3531 C   0  0  1  0  0  0  0  0  0  0  0  0
  -30.0941  -18.8640   15.7466 C   0  0  0  0  0  0  0  0  0  0  0  0
  -26.3459  -23.2891   17.5379 C   0  0  0  0  0  0  0  0  0  0  0  0
  -31.1516  -29.5289   22.2789 C   0  0  0  0  0  0  0  0  0  0  0  0
  -25.4012  -32.3710   20.6280 C   0  0  0  0  0  0  0  0  0  0  0  0
  -27.8778  -32.1953   20.3057 C   0  0  0  0  0  0  0  0  0  0  0  0
  -26.9549  -32.8641   22.5247 C   0  0  0  0  0  0  0  0  0  0  0  0
  -29.1998  -26.4525   23.3752 C   0  0  0  0  0  0  0  0  0  0  0  0
  -28.1976  -18.6447   21.0476 C   0  0  0  0  0  0  0  0  0  0  0  0
  -23.2054  -23.2050   18.4368 C   0  0  0  0  0  0  0  0  0  1  0  0
  -26.7262  -30.4654   21.7590 C   0  0  1  0  0  0  0  0  0  0  0  0
  -29.9478  -28.7682   22.8127 C   0  0  2  0  0  0  0  0  0  0  0  0
  -26.7233  -31.9512   21.3008 C   0  0  0  0  0  0  0  0  0  0  0  0
  -25.8838  -11.5795   20.0347 N   0  0  0  0  0  0  0  0  0  0  0  0
  -26.2867  -12.8352   20.2933 N   0  0  0  0  0  0  0  0  0  0  0  0
  -25.7952  -21.0345   16.6993 N   0  0  2  0  0  0  0  0  0  0  0  0
  -24.6868  -29.1761   22.3089 N   0  0  0  0  0  0  0  0  0  0  0  0
  -29.7609  -13.8769   19.1103 N   0  0  0  0  0  0  0  0  0  0  0  0
  -25.4894  -15.0194   20.7450 N   0  0  0  0  0  0  0  0  0  0  0  0
  -21.7022  -12.6093   20.2507 N   0  0  0  0  0  0  0  0  0  0  0  0
  -29.5199  -16.1597   18.5316 N   0  0  0  0  0  0  0  0  0  0  0  0
  -21.1810  -29.7648   23.1209 N   0  0  0  0  0  0  0  0  0  0  0  0
  -27.9557  -30.0475   22.4239 N   0  0  0  0  0  0  0  0  0  0  0  0
  -30.2868  -27.3175   22.8487 N   0  3  0  0  0  0  0  0  0  0  0  0
  -23.5786  -21.5689   13.9308 O   0  0  0  0  0  0  0  0  0  0  0  0
  -31.0693  -17.8953   18.3965 O   0  0  0  0  0  0  0  0  0  0  0  0
  -22.5344  -14.7055   20.6655 O   0  0  0  0  0  0  0  0  0  0  0  0
  -22.6340  -30.4146   21.4213 O   0  0  0  0  0  0  0  0  0  0  0  0
  -25.5413  -30.7583   23.7929 O   0  0  0  0  0  0  0  0  0  0  0  0
  -28.4668  -28.3272   20.9554 O   0  0  0  0  0  0  0  0  0  0  0  0
  -31.5956  -15.2954   19.0438 O   0  0  0  0  0  0  0  0  0  0  0  0
  -21.3882   -7.1614   19.1296 O   0  0  0  0  0  0  0  0  0  0  0  0
  -27.6369  -17.9851   19.9146 O   0  0  0  0  0  0  0  0  0  0  0  0
  -23.3801  -24.6192   18.3616 O   0  0  0  0  0  0  0  0  0  1  0  0
  -17.0826   -7.7003   15.7273 F   0  0  0  0  0  0  0  0  0  0  0  0
  -21.2030   -5.6454   16.8252 F   0  0  0  0  0  0  0  0  0  0  0  0
  1  2  1  0  0  0  0
  1  5  2  0  0  0  0
  2  6  2  0  0  0  0
  3  8  2  0  0  0  0
  3 17  1  0  0  0  0
  4  9  1  0  0  0  0
  4 17  2  0  0  0  0
  5 20  1  0  0  0  0
  6 22  1  0  0  0  0
  7 10  2  0  0  0  0
  7 21  1  0  0  0  0
  8 26  1  0  0  0  0
  9 26  2  0  0  0  0
 10 27  1  0  0  0  0
 11 12  2  0  0  0  0
 11 28  1  0  0  0  0
 12 30  1  0  0  0  0
 13 23  1  0  0  0  0
 13 27  2  0  0  0  0
 14 24  2  0  0  0  0
 14 25  1  0  0  0  0
 15 25  2  0  0  0  0
 15 29  1  0  0  0  0
 16 30  2  0  0  0  0
 16 31  1  0  0  0  0
 17 32  1  0  0  0  0
 18 24  1  0  0  0  0
 18 29  2  0  0  0  0
 18 37  1  0  0  0  0
 19 32  1  0  0  0  0
 19 33  2  0  0  0  0
 19 38  1  0  0  0  0
 20 22  2  0  0  0  0
 20 43  1  0  0  0  0
 21 23  2  0  0  0  0
 21 44  1  0  0  0  0
 22 53  1  0  0  0  0
 23 45  1  0  0  0  0
 24 57  1  0  0  0  0
 25 71  1  0  0  0  0
 26 87  1  0  0  0  0
 27 89  1  0  0  0  0
 28 31  2  0  0  0  0
 28 87  1  0  0  0  0
 29 88  1  0  0  0  0
 30 90  1  0  0  0  0
 31 91  1  0  0  0  0
 32 69  2  0  0  0  0
 33 70  1  0  0  0  0
 33 74  1  0  0  0  0
 34 35  2  0  0  0  0
 34 36  1  0  0  0  0
 35 54  1  0  0  0  0
 35 65  1  0  0  0  0
 36 46  1  0  0  0  0
 36 80  2  0  0  0  0
 37 76  1  0  0  0  0
 37 81  2  0  0  0  0
 38 75  1  0  0  0  0
 38 82  2  0  0  0  0
 39 55  1  0  0  0  0
 39 77  1  0  0  0  0
 39 83  2  0  0  0  0
 40 66  1  0  0  0  0
 40 72  1  0  0  0  0
 40 84  2  0  0  0  0
 41 67  1  0  0  0  0
 41 78  1  0  0  0  0
 41 85  2  0  0  0  0
 42 73  1  0  0  0  0
 42 76  1  0  0  0  0
 42 86  2  0  0  0  0
 43 47  1  0  0  0  0
 44 55  1  0  0  0  0
 45 72  1  0  0  0  0
 46 71  1  0  0  0  0
 47 49  1  0  0  0  0
 48 50  1  0  0  0  0
 48 51  1  0  0  0  0
 49 53  1  0  0  0  0
 50 56  1  0  0  0  0
 51 73  1  0  0  0  0
 52 56  1  0  0  0  0
 52 73  1  0  0  0  0
 53 77  1  0  0  0  0
 54 58  1  0  0  0  0
 54 71  1  0  0  0  0
 55 72  1  0  0  0  0
 56 70  1  0  0  0  0
 59 67  1  0  0  0  0
 60 68  1  0  0  0  0
 61 68  1  0  0  0  0
 62 68  1  0  0  0  0
 63 79  1  0  0  0  0
 64 88  1  0  0  0  0
 65 89  1  0  0  0  0
 66 68  1  0  0  0  0
 66 78  1  0  0  0  0
 67 79  1  0  0  0  0
 69 70  1  0  0  0  0
M  CHG  1  79   1
M  ISO  4  42 100  65 101  76 100  89 101
M  END
> <Batch ID>
0107

> <Smiles>
CNC(C)C(=O)NC(C(=O)N1Cc2cc([101O:1][101CH2:1]C3=C(C)N(c4cc(C)c(C(=O)[100NH:0][100C:0](=O)N5CCCC(n6nc(-c7ccc(Oc8ccc(F)cc8F)cc7)c(C(N)=O)c6N)C5)c(OC)c4)CC(=O)C3)ccc2CC1C(=O)NC1CCCc2ccccc21)C(C)(C)C

> <Shape>
0.248

> <Color>
0.133

> <Negative vol penalty>
0.000

$$$$

  -OEChem-04052301173D

 87 95  0     1  0  0  0  0  0999 V2000
  -20.4127   -9.0611   18.8382 C   0  0  0  0  0  0  0  0  0  0  0  0
  -20.3187  -10.4260   19.0902 C   0  0  0  0  0  0  0  0  0  0  0  0
  -29.4207  -27.9742   21.2774 C   0  0  0  0  0  0  0  0  0  0  0  0
  -27.6890  -27.2893   19.7382 C   0  0  0  0  0  0  0  0  0  0  0  0
  -21.4386   -8.3155   19.4174 C   0  0  0  0  0  0  0  0  0  0  0  0
  -21.2500  -11.0460   19.9224 C   0  0  0  0  0  0  0  0  0  0  0  0
  -23.4585  -16.7326   19.3832 C   0  0  0  0  0  0  0  0  0  0  0  0
  -30.2258  -26.9227   20.8395 C   0  0  0  0  0  0  0  0  0  0  0  0
  -28.4941  -26.2378   19.3003 C   0  0  0  0  0  0  0  0  0  0  0  0
  -23.1264  -17.9314   20.0128 C   0  0  0  0  0  0  0  0  0  0  0  0
  -29.3756  -23.1578   20.3809 C   0  0  0  0  0  0  0  0  0  0  0  0
  -28.7823  -21.9036   20.2375 C   0  0  0  0  0  0  0  0  0  0  0  0
  -21.3535  -26.1421   23.6006 C   0  0  0  0  0  0  0  0  0  0  0  0
  -24.9094  -17.5846   21.6002 C   0  0  0  0  0  0  0  0  0  0  0  0
  -18.7475  -25.8707   22.6426 C   0  0  0  0  0  0  0  0  0  0  0  0
  -29.3553  -21.9009   17.8904 C   0  0  0  0  0  0  0  0  0  0  0  0
  -28.1523  -28.1575   20.7268 C   0  0  0  0  0  0  0  0  0  0  0  0
  -20.6245  -27.2728   23.2327 C   0  0  0  0  0  0  0  0  0  0  0  0
  -27.2677  -30.5492   20.6564 C   0  0  0  0  0  0  0  0  0  0  0  0
  -22.3886   -8.9284   20.2495 C   0  0  0  0  0  0  0  0  0  0  0  0
  -24.5133  -15.9441   19.8648 C   0  0  0  0  0  0  0  0  0  0  0  0
  -22.2888  -10.3076   20.5144 C   0  0  0  0  0  0  0  0  0  0  0  0
  -25.2545  -16.3775   20.9734 C   0  0  0  0  0  0  0  0  0  0  0  0
  -19.3214  -27.1372   22.7538 C   0  0  0  0  0  0  0  0  0  0  0  0
  -29.7625  -26.0545   19.8509 C   0  0  0  0  0  0  0  0  0  0  0  0
  -23.8501  -18.3562   21.1232 C   0  0  0  0  0  0  0  0  0  0  0  0
  -29.9587  -23.7837   19.2790 C   0  0  0  0  0  0  0  0  0  0  0  0
  -20.7796  -24.8756   23.4894 C   0  0  0  0  0  0  0  0  0  0  0  0
  -19.4766  -24.7399   23.0105 C   0  0  0  0  0  0  0  0  0  0  0  0
  -28.7722  -21.2752   18.9923 C   0  0  0  0  0  0  0  0  0  0  0  0
  -29.9486  -23.1552   18.0338 C   0  0  0  0  0  0  0  0  0  0  0  0
  -27.3199  -29.2431   21.1792 C   0  0  0  0  0  0  0  0  0  0  0  0
  -26.3284  -31.1901   21.4267 C   0  0  0  0  0  0  0  0  0  0  0  0
  -21.2485  -28.5834   23.3573 C   0  0  0  0  0  0  0  0  0  0  0  0
  -28.0026  -31.1310   19.5714 C   0  0  0  0  0  0  0  0  0  0  0  0
  -21.7214  -29.0888   24.6666 C   0  0  0  0  0  0  0  0  0  0  0  0
  -24.7568  -13.0048   21.0503 C   0  0  0  0  0  0  0  0  0  0  0  0
  -27.9345  -13.6489   20.9534 C   0  0  0  0  0  0  0  0  0  0  0  0
  -30.4165  -15.9911   20.9281 C   0  0  0  0  0  0  0  0  0  0  0  0
  -23.4519   -8.0723   20.8908 C   0  0  0  0  0  0  0  0  0  0  0  0
  -24.8760  -14.6667   19.1583 C   0  0  0  0  0  0  0  0  0  0  0  0
  -26.4089  -15.5775   21.5174 C   0  0  0  0  0  0  0  0  0  0  0  0
  -24.6185   -8.8752   21.4608 C   0  0  0  0  0  0  0  0  0  0  0  0
  -24.4112  -31.1710   25.8008 C   0  0  0  0  0  0  0  0  0  0  0  0
  -24.1049  -10.0610   22.2713 C   0  0  0  0  0  0  0  0  0  0  0  0
  -25.4723  -31.0001   24.7143 C   0  0  0  0  0  0  0  0  0  0  0  0
  -23.6217  -29.8841   26.0175 C   0  0  0  0  0  0  0  0  0  0  0  0
  -24.0500  -29.1741   23.6806 C   0  0  0  0  0  0  0  0  0  0  0  0
  -23.2946  -11.0208   21.3918 C   0  0  1  0  0  0  0  0  0  0  0  0
  -25.6401  -13.6891   20.0458 C   0  0  1  0  0  0  0  0  0  0  0  0
  -24.8495  -30.4615   23.4140 C   0  0  2  0  0  0  0  0  0  0  0  0
  -18.4474  -28.4979   20.8377 C   0  0  0  0  0  0  0  0  0  0  0  0
  -32.9158  -16.2124   20.8834 C   0  0  0  0  0  0  0  0  0  0  0  0
  -28.0529  -12.8810   23.9041 C   0  0  0  0  0  0  0  0  0  0  0  0
  -30.2856  -14.0060   24.0355 C   0  0  0  0  0  0  0  0  0  0  0  0
  -29.9670  -12.0424   22.5303 C   0  0  0  0  0  0  0  0  0  0  0  0
  -30.3569  -17.4557   18.3571 C   0  0  0  0  0  0  0  0  0  0  0  0
  -19.0802  -22.8251   21.6569 C   0  0  0  0  0  0  0  0  0  0  0  0
  -18.5186  -28.3315   22.3525 C   0  0  0  0  0  0  0  0  0  0  0  0
  -24.2866  -21.7293   22.3709 C   0  0  0  0  0  0  0  0  0  0  0  0
  -23.0000  -22.0481   23.1245 C   0  0  0  0  0  0  0  0  0  0  0  0
  -24.5872  -20.2364   22.3792 C   0  0  0  0  0  0  0  0  0  1  0  0
  -22.7214  -23.5442   23.1534 C   0  0  0  0  0  0  0  0  0  0  0  0
  -28.9305  -14.2627   21.9074 C   0  0  1  0  0  0  0  0  0  0  0  0
  -31.6451  -16.1473   20.0503 C   0  0  2  0  0  0  0  0  0  0  0  0
  -29.2861  -13.3124   23.0855 C   0  0  0  0  0  0  0  0  0  0  0  0
  -26.4807  -29.0635   22.2026 N   0  0  0  0  0  0  0  0  0  0  0  0
  -21.4326  -29.3858   22.3456 N   0  0  0  0  0  0  0  0  0  0  0  0
  -25.8923  -30.2651   22.3292 N   0  0  0  0  0  0  0  0  0  0  0  0
  -23.0750  -29.3810   24.7589 N   0  0  0  0  0  0  0  0  0  0  0  0
  -26.7207  -14.3327   20.7958 N   0  0  0  0  0  0  0  0  0  0  0  0
  -25.8413  -32.4490   21.4135 N   0  0  0  0  0  0  0  0  0  0  0  0
  -28.9282  -30.3317   18.8868 N   0  0  0  0  0  0  0  0  0  0  0  0
  -24.1783  -11.8381   20.5883 N   0  0  0  0  0  0  0  0  0  0  0  0
  -30.0756  -14.6659   21.0984 N   0  0  0  0  0  0  0  0  0  0  0  0
  -31.5488  -17.3955   19.2418 N   0  3  0  0  0  0  0  0  0  0  0  0
  -27.8550  -32.3290   19.2300 O   0  0  0  0  0  0  0  0  0  0  0  0
  -20.8627  -29.1949   25.5323 O   0  0  0  0  0  0  0  0  0  0  0  0
  -24.6119  -13.4981   22.1627 O   0  0  0  0  0  0  0  0  0  0  0  0
  -28.2257  -12.6050   20.3642 O   0  0  0  0  0  0  0  0  0  0  0  0
  -29.8210  -16.9486   21.4171 O   0  0  0  0  0  0  0  0  0  0  0  0
  -30.5480  -25.0285   19.4232 O   0  0  0  0  0  0  0  0  0  0  0  0
  -18.9058  -23.5082   22.8967 O   0  0  0  0  0  0  0  0  0  0  0  0
  -23.5277  -19.5256   21.7400 O   0  0  0  0  0  0  0  0  0  1  0  0
  -21.5065  -23.7722   23.8542 O   0  0  0  0  0  0  0  0  0  0  0  0
  -28.2038  -20.0701   18.8550 F   0  0  0  0  0  0  0  0  0  0  0  0
  -30.5082  -23.7509   16.9719 F   0  0  0  0  0  0  0  0  0  0  0  0
  1  2  1  0  0  0  0
  1  5  2  0  0  0  0
  2  6  2  0  0  0  0
  3  8  2  0  0  0  0
  3 17  1  0  0  0  0
  4  9  1  0  0  0  0
  4 17  2  0  0  0  0
  5 20  1  0  0  0  0
  6 22  1  0  0  0  0
  7 10  2  0  0  0  0
  7 21  1  0  0  0  0
  8 25  1  0  0  0  0
  9 25  2  0  0  0  0
 10 26  1  0  0  0  0
 11 12  2  0  0  0  0
 11 27  1  0  0  0  0
 12 30  1  0  0  0  0
 13 18  1  0  0  0  0
 13 28  2  0  0  0  0
 14 23  1  0  0  0  0
 14 26  2  0  0  0  0
 15 24  1  0  0  0  0
 15 29  2  0  0  0  0
 16 30  2  0  0  0  0
 16 31  1  0  0  0  0
 17 32  1  0  0  0  0
 18 24  2  0  0  0  0
 18 34  1  0  0  0  0
 19 32  1  0  0  0  0
 19 33  2  0  0  0  0
 19 35  1  0  0  0  0
 20 22  2  0  0  0  0
 20 40  1  0  0  0  0
 21 23  2  0  0  0  0
 21 41  1  0  0  0  0
 22 49  1  0  0  0  0
 23 42  1  0  0  0  0
 24 59  1  0  0  0  0
 25 82  1  0  0  0  0
 26 84  1  0  0  0  0
 27 31  2  0  0  0  0
 27 82  1  0  0  0  0
 28 29  1  0  0  0  0
 28 85  1  0  0  0  0
 29 83  1  0  0  0  0
 30 86  1  0  0  0  0
 31 87  1  0  0  0  0
 32 67  2  0  0  0  0
 33 69  1  0  0  0  0
 33 72  1  0  0  0  0
 34 36  1  0  0  0  0
 34 68  2  0  0  0  0
 35 73  1  0  0  0  0
 35 77  2  0  0  0  0
 36 70  1  0  0  0  0
 36 78  2  0  0  0  0
 37 50  1  0  0  0  0
 37 74  1  0  0  0  0
 37 79  2  0  0  0  0
 38 64  1  0  0  0  0
 38 71  1  0  0  0  0
 38 80  2  0  0  0  0
 39 65  1  0  0  0  0
 39 75  1  0  0  0  0
 39 81  2  0  0  0  0
 40 43  1  0  0  0  0
 41 50  1  0  0  0  0
 42 71  1  0  0  0  0
 43 45  1  0  0  0  0
 44 46  1  0  0  0  0
 44 47  1  0  0  0  0
 45 49  1  0  0  0  0
 46 51  1  0  0  0  0
 47 70  1  0  0  0  0
 48 51  1  0  0  0  0
 48 70  1  0  0  0  0
 49 74  1  0  0  0  0
 50 71  1  0  0  0  0
 51 69  1  0  0  0  0
 52 59  1  0  0  0  0
 53 65  1  0  0  0  0
 54 66  1  0  0  0  0
 55 66  1  0  0  0  0
 56 66  1  0  0  0  0
 57 76  1  0  0  0  0
 58 83  1  0  0  0  0
 60 61  1  0  0  0  0
 60 62  1  0  0  0  0
 61 63  1  0  0  0  0
 62 84  1  0  0  0  0
 63 85  1  0  0  0  0
 64 66  1  0  0  0  0
 64 75  1  0  0  0  0
 65 76  1  0  0  0  0
 67 69  1  0  0  0  0
M  CHG  1  76   1
M  ISO  4  34 100  36 100  62 101  84 101
M  END
> <Batch ID>
0107

> <Smiles>
CCc1cc(OC)c(OCCC[101CH2:1][101O:1]c2ccc3c(c2)CN(C(=O)C(NC(=O)C(C)NC)C(C)(C)C)C(C(=O)NC2CCCc4ccccc42)C3)cc1[100C:0](=N)[100C:0](=O)N1CCCC(n2nc(-c3ccc(Oc4ccc(F)cc4F)cc3)c(C(N)=O)c2N)C1

> <Shape>
0.320

> <Color>
0.052

> <Negative vol penalty>
0.000

$$$$

  -OEChem-04052301173D

 87 95  0     1  0  0  0  0  0999 V2000
  -25.4914  -14.3903   19.6729 C   0  0  0  0  0  0  0  0  0  0  0  0
  -25.0828  -15.6746   20.0182 C   0  0  0  0  0  0  0  0  0  0  0  0
  -29.4643  -17.5554   19.1979 C   0  0  0  0  0  0  0  0  0  0  0  0
  -30.7967  -17.9481   21.1746 C   0  0  0  0  0  0  0  0  0  0  0  0
  -25.8163  -14.0956   18.3494 C   0  0  0  0  0  0  0  0  0  0  0  0
  -24.9999  -16.6652   19.0403 C   0  0  0  0  0  0  0  0  0  0  0  0
  -20.9166  -21.2203   18.7515 C   0  0  0  0  0  0  0  0  0  0  0  0
  -25.2238  -29.6156   20.9312 C   0  0  0  0  0  0  0  0  0  0  0  0
  -24.4064  -28.7377   20.2194 C   0  0  0  0  0  0  0  0  0  0  0  0
  -29.9048  -16.2324   19.1637 C   0  0  0  0  0  0  0  0  0  0  0  0
  -31.2372  -16.6250   21.1405 C   0  0  0  0  0  0  0  0  0  0  0  0
  -20.9800  -22.5619   19.1255 C   0  0  0  0  0  0  0  0  0  0  0  0
  -30.3971  -12.6527   18.7654 C   0  0  0  0  0  0  0  0  0  0  0  0
  -29.4464  -11.6584   18.5351 C   0  0  0  0  0  0  0  0  0  0  0  0
  -21.5381  -23.1619   16.8567 C   0  0  0  0  0  0  0  0  0  0  0  0
  -26.3537  -27.4870   19.5259 C   0  0  0  0  0  0  0  0  0  0  0  0
  -28.2551  -12.3366   20.5246 C   0  0  0  0  0  0  0  0  0  0  0  0
  -29.9103  -18.4133   20.2033 C   0  0  0  0  0  0  0  0  0  0  0  0
  -28.3214  -20.2819   20.9042 C   0  0  0  0  0  0  0  0  0  0  0  0
  -25.7280  -15.0806   17.3531 C   0  0  0  0  0  0  0  0  0  0  0  0
  -21.1746  -20.8377   17.4273 C   0  0  0  0  0  0  0  0  0  0  0  0
  -25.3251  -16.3837   17.7025 C   0  0  0  0  0  0  0  0  0  0  0  0
  -21.4748  -21.8151   16.4678 C   0  0  0  0  0  0  0  0  0  0  0  0
  -26.6062  -29.4293   20.9404 C   0  0  0  0  0  0  0  0  0  0  0  0
  -27.1711  -28.3650   20.2378 C   0  0  0  0  0  0  0  0  0  0  0  0
  -24.9714  -27.6733   19.5168 C   0  0  0  0  0  0  0  0  0  0  0  0
  -30.7912  -15.7672   20.1350 C   0  0  0  0  0  0  0  0  0  0  0  0
  -21.2936  -23.5326   18.1787 C   0  0  0  0  0  0  0  0  0  0  0  0
  -30.2769  -13.4890   19.8753 C   0  0  0  0  0  0  0  0  0  0  0  0
  -28.3754  -11.5003   19.4147 C   0  0  0  0  0  0  0  0  0  0  0  0
  -29.2059  -13.3309   20.7549 C   0  0  0  0  0  0  0  0  0  0  0  0
  -29.4560  -19.7802   20.2388 C   0  0  0  0  0  0  0  0  0  0  0  0
  -28.3307  -21.6281   20.6315 C   0  0  0  0  0  0  0  0  0  0  0  0
  -27.3462  -19.5928   21.6978 C   0  0  0  0  0  0  0  0  0  0  0  0
  -23.3448  -19.0012   16.0055 C   0  0  0  0  0  0  0  0  0  0  0  0
  -21.5295  -19.5634   13.3766 C   0  0  0  0  0  0  0  0  0  0  0  0
  -22.7569  -26.8178   18.6813 C   0  0  0  0  0  0  0  0  0  0  0  0
  -19.2847  -21.5805   11.7832 C   0  0  0  0  0  0  0  0  0  0  0  0
  -31.4984  -26.3444   20.4341 C   0  0  0  0  0  0  0  0  0  0  0  0
  -26.1349  -14.7270   15.9445 C   0  0  0  0  0  0  0  0  0  0  0  0
  -21.0760  -19.3892   17.0341 C   0  0  0  0  0  0  0  0  0  0  0  0
  -21.7403  -21.4585   15.0288 C   0  0  0  0  0  0  0  0  0  0  0  0
  -25.6607  -15.7362   14.9020 C   0  0  0  0  0  0  0  0  0  0  0  0
  -31.0756  -24.3240   17.3615 C   0  0  0  0  0  0  0  0  0  0  0  0
  -25.9495  -17.1599   15.3672 C   0  0  0  0  0  0  0  0  0  0  0  0
  -30.5912  -22.9825   17.9090 C   0  0  0  0  0  0  0  0  0  0  0  0
  -31.9461  -25.0672   18.3702 C   0  0  0  0  0  0  0  0  0  0  0  0
  -30.8163  -23.9171   20.2449 C   0  0  0  0  0  0  0  0  0  0  0  0
  -25.1988  -17.4789   16.6658 C   0  0  1  0  0  0  0  0  0  0  0  0
  -21.8621  -19.0586   15.7691 C   0  0  1  0  0  0  0  0  0  0  0  0
  -29.8982  -23.1637   19.2707 C   0  0  2  0  0  0  0  0  0  0  0  0
  -27.4609  -30.3828   21.7090 C   0  0  0  0  0  0  0  0  0  0  0  0
  -29.0818  -29.6021   18.1696 C   0  0  0  0  0  0  0  0  0  0  0  0
  -18.0149  -21.7991    9.6297 C   0  0  0  0  0  0  0  0  0  0  0  0
  -24.0719  -20.5032   11.9757 C   0  0  0  0  0  0  0  0  0  0  0  0
  -22.6312  -21.5724   10.2295 C   0  0  0  0  0  0  0  0  0  0  0  0
  -22.5590  -19.1012   10.5616 C   0  0  0  0  0  0  0  0  0  0  0  0
  -30.7679  -27.4809   22.4967 C   0  0  0  0  0  0  0  0  0  0  0  0
  -16.6754  -21.4335   13.1721 C   0  0  0  0  0  0  0  0  0  0  0  0
  -22.2608  -25.6747   17.8154 C   0  0  0  0  0  0  0  0  0  1  0  0
  -29.2852  -28.2383   18.8188 C   0  0  0  0  0  0  0  0  0  0  0  0
  -29.0460  -26.7880   20.8718 C   0  0  0  0  0  0  0  0  0  0  0  0
  -28.6483  -28.1447   20.2349 C   0  0  2  0  0  0  0  0  0  0  0  0
  -21.5123  -20.6157   12.2944 C   0  0  1  0  0  0  0  0  0  0  0  0
  -17.9899  -21.2684   11.0547 C   0  0  2  0  0  0  0  0  0  0  0  0
  -22.6906  -20.4550   11.2927 C   0  0  0  0  0  0  0  0  0  0  0  0
  -30.1366  -20.7302   19.5920 N   0  0  0  0  0  0  0  0  0  0  0  0
  -29.4275  -21.8424   19.8496 N   0  0  0  0  0  0  0  0  0  0  0  0
  -21.6381  -20.0282   14.6950 N   0  0  0  0  0  0  0  0  0  0  0  0
  -31.2810  -25.1875   19.6679 N   0  0  0  0  0  0  0  0  0  0  0  0
  -27.5077  -22.6375   20.9867 N   0  0  0  0  0  0  0  0  0  0  0  0
  -27.4868  -18.2099   21.8769 N   0  0  0  0  0  0  0  0  0  0  0  0
  -24.1424  -26.7812   18.7961 N   0  0  0  0  0  0  0  0  0  0  0  0
  -23.8056  -17.7563   16.3891 N   0  0  0  0  0  0  0  0  0  0  0  0
  -20.1913  -20.5469   11.6790 N   0  0  0  0  0  0  0  0  0  0  0  0
  -30.4520  -26.7645   21.2691 N   0  0  0  0  0  0  0  0  0  0  0  0
  -16.8341  -21.8845   11.7655 N   0  3  0  0  0  0  0  0  0  0  0  0
  -26.3697  -20.1832   22.2188 O   0  0  0  0  0  0  0  0  0  0  0  0
  -24.0210  -20.0113   15.8498 O   0  0  0  0  0  0  0  0  0  0  0  0
  -21.4423  -18.3733   13.0643 O   0  0  0  0  0  0  0  0  0  0  0  0
  -21.9832  -27.6280   19.1808 O   0  0  0  0  0  0  0  0  0  0  0  0
  -19.4743  -22.6372   12.3815 O   0  0  0  0  0  0  0  0  0  0  0  0
  -32.5632  -26.9718   20.3679 O   0  0  0  0  0  0  0  0  0  0  0  0
  -31.2211  -14.4762   20.1021 O   0  0  0  0  0  0  0  0  0  0  0  0
  -21.3567  -24.8428   18.5413 O   0  0  0  0  0  0  0  0  0  1  0  0
  -27.4617  -10.5464   19.1926 F   0  0  0  0  0  0  0  0  0  0  0  0
  -29.0845  -14.1320   21.8223 F   0  0  0  0  0  0  0  0  0  0  0  0
  1  2  1  0  0  0  0
  1  5  2  0  0  0  0
  2  6  2  0  0  0  0
  3 10  2  0  0  0  0
  3 18  1  0  0  0  0
  4 11  1  0  0  0  0
  4 18  2  0  0  0  0
  5 20  1  0  0  0  0
  6 22  1  0  0  0  0
  7 12  2  0  0  0  0
  7 21  1  0  0  0  0
  8  9  2  0  0  0  0
  8 24  1  0  0  0  0
  9 26  1  0  0  0  0
 10 27  1  0  0  0  0
 11 27  2  0  0  0  0
 12 28  1  0  0  0  0
 13 14  2  0  0  0  0
 13 29  1  0  0  0  0
 14 30  1  0  0  0  0
 15 23  1  0  0  0  0
 15 28  2  0  0  0  0
 16 25  1  0  0  0  0
 16 26  2  0  0  0  0
 17 30  2  0  0  0  0
 17 31  1  0  0  0  0
 18 32  1  0  0  0  0
 19 32  1  0  0  0  0
 19 33  2  0  0  0  0
 19 34  1  0  0  0  0
 20 22  2  0  0  0  0
 20 40  1  0  0  0  0
 21 23  2  0  0  0  0
 21 41  1  0  0  0  0
 22 49  1  0  0  0  0
 23 42  1  0  0  0  0
 24 25  2  0  0  0  0
 24 52  1  0  0  0  0
 25 63  1  0  0  0  0
 26 73  1  0  0  0  0
 27 84  1  0  0  0  0
 28 85  1  0  0  0  0
 29 31  2  0  0  0  0
 29 84  1  0  0  0  0
 30 86  1  0  0  0  0
 31 87  1  0  0  0  0
 32 67  2  0  0  0  0
 33 68  1  0  0  0  0
 33 71  1  0  0  0  0
 34 72  1  0  0  0  0
 34 78  2  0  0  0  0
 35 50  1  0  0  0  0
 35 74  1  0  0  0  0
 35 79  2  0  0  0  0
 36 64  1  0  0  0  0
 36 69  1  0  0  0  0
 36 80  2  0  0  0  0
 37 60  1  0  0  0  0
 37 73  1  0  0  0  0
 37 81  2  0  0  0  0
 38 65  1  0  0  0  0
 38 75  1  0  0  0  0
 38 82  2  0  0  0  0
 39 70  1  0  0  0  0
 39 76  1  0  0  0  0
 39 83  2  0  0  0  0
 40 43  1  0  0  0  0
 41 50  1  0  0  0  0
 42 69  1  0  0  0  0
 43 45  1  0  0  0  0
 44 46  1  0  0  0  0
 44 47  1  0  0  0  0
 45 49  1  0  0  0  0
 46 51  1  0  0  0  0
 47 70  1  0  0  0  0
 48 51  1  0  0  0  0
 48 70  1  0  0  0  0
 49 74  1  0  0  0  0
 50 69  1  0  0  0  0
 51 68  1  0  0  0  0
 53 61  1  0  0  0  0
 54 65  1  0  0  0  0
 55 66  1  0  0  0  0
 56 66  1  0  0  0  0
 57 66  1  0  0  0  0
 58 76  1  0  0  0  0
 59 77  1  0  0  0  0
 60 85  1  0  0  0  0
 61 63  1  0  0  0  0
 62 63  1  0  0  0  0
 62 76  1  0  0  0  0
 64 66  1  0  0  0  0
 64 75  1  0  0  0  0
 65 77  1  0  0  0  0
 67 68  1  0  0  0  0
M  CHG  1  77   1
M  ISO  4  39 100  60 101  76 100  85 101
M  END
> <Batch ID>
0107

> <Smiles>
CCC(C[100N:0](C)[100C:0](=O)N1CCCC(n2nc(-c3ccc(Oc4ccc(F)cc4F)cc3)c(C(N)=O)c2N)C1)c1cc(NC(=O)[101CH2:1][101O:1]c2ccc3c(c2)CN(C(=O)C(NC(=O)C(C)NC)C(C)(C)C)C(C(=O)NC2CCCc4ccccc42)C3)ccc1C

> <Shape>
0.217

> <Color>
0.054

> <Negative vol penalty>
0.000

$$$$

  -OEChem-04052301173D

 89 98  0     1  0  0  0  0  0999 V2000
  -34.9796  -22.5477   14.4147 C   0  0  0  0  0  0  0  0  0  0  0  0
  -33.6341  -22.4034   14.7377 C   0  0  0  0  0  0  0  0  0  0  0  0
  -23.1780   -9.8451   19.8668 C   0  0  0  0  0  0  0  0  0  0  0  0
  -23.5102   -9.9028   22.2591 C   0  0  0  0  0  0  0  0  0  0  0  0
  -27.5311  -17.1284   15.6775 C   0  0  0  0  0  0  0  0  0  0  0  0
  -35.7876  -23.4014   15.1645 C   0  0  0  0  0  0  0  0  0  0  0  0
  -33.0961  -23.1120   15.8114 C   0  0  0  0  0  0  0  0  0  0  0  0
  -28.6245  -25.2159   14.7055 C   0  0  0  0  0  0  0  0  0  0  0  0
  -26.4499  -17.8778   15.2138 C   0  0  0  0  0  0  0  0  0  0  0  0
  -22.3889   -8.7032   20.0039 C   0  0  0  0  0  0  0  0  0  0  0  0
  -22.7210   -8.7609   22.3963 C   0  0  0  0  0  0  0  0  0  0  0  0
  -27.5092  -24.3794   14.7080 C   0  0  0  0  0  0  0  0  0  0  0  0
  -23.0723   -5.4246   21.9764 C   0  0  0  0  0  0  0  0  0  0  0  0
  -23.5365   -4.4130   22.8172 C   0  0  0  0  0  0  0  0  0  0  0  0
  -27.0469  -19.6707   16.7191 C   0  0  0  0  0  0  0  0  0  0  0  0
  -26.9233  -25.1773   16.9079 C   0  0  0  0  0  0  0  0  0  0  0  0
  -21.5562   -4.6390   24.1826 C   0  0  0  0  0  0  0  0  0  0  0  0
  -23.7388  -10.4449   20.9944 C   0  0  0  0  0  0  0  0  0  0  0  0
  -28.3702  -17.6502   16.6622 C   0  0  0  0  0  0  0  0  0  0  0  0
  -28.1281  -18.9213   17.1829 C   0  0  0  0  0  0  0  0  0  0  0  0
  -24.1238  -12.9641   20.8810 C   0  0  0  0  0  0  0  0  0  0  0  0
  -35.2570  -24.1282   16.2420 C   0  0  0  0  0  0  0  0  0  0  0  0
  -28.9041  -26.0328   15.8105 C   0  0  0  0  0  0  0  0  0  0  0  0
  -33.8981  -23.9752   16.5772 C   0  0  0  0  0  0  0  0  0  0  0  0
  -28.0414  -26.0252   16.9158 C   0  0  0  0  0  0  0  0  0  0  0  0
  -26.2079  -19.1490   15.7345 C   0  0  0  0  0  0  0  0  0  0  0  0
  -22.1603   -8.1611   21.2686 C   0  0  0  0  0  0  0  0  0  0  0  0
  -26.6600  -24.3578   15.8105 C   0  0  0  0  0  0  0  0  0  0  0  0
  -21.8500   -6.0434   22.2389 C   0  0  0  0  0  0  0  0  0  0  0  0
  -22.7785   -4.0202   23.9202 C   0  0  0  0  0  0  0  0  0  0  0  0
  -21.0920   -5.6506   23.3419 C   0  0  0  0  0  0  0  0  0  0  0  0
  -24.5546  -11.6242   20.8534 C   0  0  0  0  0  0  0  0  0  0  0  0
  -25.2717  -13.6975   20.7048 C   0  0  0  0  0  0  0  0  0  0  0  0
  -24.1706  -19.5209   14.2716 C   0  0  0  0  0  0  0  0  0  0  0  0
  -28.9865  -19.4936   18.2120 C   0  0  0  0  0  0  0  0  0  0  0  0
  -29.5133  -16.8275   17.1347 C   0  0  0  0  0  0  0  0  0  0  0  0
  -22.8041  -13.4982   21.0509 C   0  0  0  0  0  0  0  0  0  0  0  0
  -31.3028  -26.2575   17.8840 C   0  0  0  0  0  0  0  0  0  0  0  0
  -29.6605  -28.8615   18.9063 C   0  0  0  0  0  0  0  0  0  0  0  0
  -26.6726  -30.4934   19.1427 C   0  0  0  0  0  0  0  0  0  0  0  0
  -30.1019  -14.6562   18.1656 C   0  0  0  0  0  0  0  0  0  0  0  0
  -36.1804  -25.0027   17.0526 C   0  0  0  0  0  0  0  0  0  0  0  0
  -30.0964  -26.9492   15.7811 C   0  0  0  0  0  0  0  0  0  0  0  0
  -28.2859  -26.8979   18.1187 C   0  0  0  0  0  0  0  0  0  0  0  0
  -23.1688  -20.6399   14.1108 C   0  0  0  0  0  0  0  0  0  0  0  0
  -35.4469  -26.0033   17.9420 C   0  0  0  0  0  0  0  0  0  0  0  0
  -23.3289  -21.4433   15.3876 C   0  0  0  0  0  0  0  0  0  0  0  0
  -30.1339  -12.2811   20.7837 C   0  0  0  0  0  0  0  0  0  0  0  0
  -34.3101  -25.3171   18.6927 C   0  0  0  0  0  0  0  0  0  0  0  0
  -28.6495  -12.0122   21.0456 C   0  0  0  0  0  0  0  0  0  0  0  0
  -30.4219  -12.4729   19.2954 C   0  0  0  0  0  0  0  0  0  0  0  0
  -28.1082  -13.2053   18.8851 C   0  0  0  0  0  0  0  0  0  0  0  0
  -33.2720  -24.7457   17.7193 C   0  0  1  0  0  0  0  0  0  0  0  0
  -30.5694  -27.3591   17.1724 C   0  0  1  0  0  0  0  0  0  0  0  0
  -27.7554  -13.0749   20.3757 C   0  0  1  0  0  0  0  0  0  0  0  0
  -24.7991  -21.2613   15.7478 C   0  0  2  0  0  0  0  0  0  0  0  0
  -29.1334  -20.9860   18.2374 C   0  0  0  0  0  0  0  0  0  0  0  0
  -25.6378  -32.5843   20.0672 C   0  0  0  0  0  0  0  0  0  0  0  0
  -29.7583  -27.6664   21.7121 C   0  0  0  0  0  0  0  0  0  0  0  0
  -27.9459  -29.2598   22.3785 C   0  0  0  0  0  0  0  0  0  0  0  0
  -30.1540  -30.1338   21.6148 C   0  0  0  0  0  0  0  0  0  0  0  0
  -25.8394  -31.4085   16.4543 C   0  0  0  0  0  0  0  0  0  0  0  0
  -25.6662  -22.3268   15.0734 C   0  0  0  0  0  0  0  0  0  1  0  0
  -28.5757  -29.1085   19.9267 C   0  0  1  0  0  0  0  0  0  0  0  0
  -26.2856  -31.9329   18.8553 C   0  0  2  0  0  0  0  0  0  0  0  0
  -29.1047  -29.0241   21.3863 C   0  0  0  0  0  0  0  0  0  0  0  0
  -25.8731  -11.5100   20.6736 N   0  0  0  0  0  0  0  0  0  0  0  0
  -26.2808  -12.7877   20.5866 N   0  0  0  0  0  0  0  0  0  0  0  0
  -25.0979  -19.9183   15.2583 N   0  0  0  0  0  0  0  0  0  0  0  0
  -29.4683  -27.7721   18.0449 N   0  0  0  0  0  0  0  0  0  0  0  0
  -29.5413  -13.5014   18.7388 N   0  0  0  0  0  0  0  0  0  0  0  0
  -25.5061  -15.0254   20.6410 N   0  0  0  0  0  0  0  0  0  0  0  0
  -21.7381  -12.6040   21.2198 N   0  0  0  0  0  0  0  0  0  0  0  0
  -29.1767  -15.5977   17.7010 N   0  0  0  0  0  0  0  0  0  0  0  0
  -32.4203  -25.8002   17.2123 N   0  0  0  0  0  0  0  0  0  0  0  0
  -27.9758  -30.3929   19.5818 N   0  0  0  0  0  0  0  0  0  0  0  0
  -25.3236  -31.9936   17.7187 N   0  3  0  0  0  0  0  0  0  0  0  0
  -24.1213  -18.5020   13.5978 O   0  0  0  0  0  0  0  0  0  0  0  0
  -29.6019  -18.8429   19.0569 O   0  0  0  0  0  0  0  0  0  0  0  0
  -30.6572  -17.2428   16.9705 O   0  0  0  0  0  0  0  0  0  0  0  0
  -22.5746  -14.7313   21.0365 O   0  0  0  0  0  0  0  0  0  0  0  0
  -30.8864  -25.8535   18.9634 O   0  0  0  0  0  0  0  0  0  0  0  0
  -30.6389  -29.6118   18.8701 O   0  0  0  0  0  0  0  0  0  0  0  0
  -25.8954  -29.5527   18.9961 O   0  0  0  0  0  0  0  0  0  0  0  0
  -31.3202  -14.8501   18.1069 O   0  0  0  0  0  0  0  0  0  0  0  0
  -21.3901   -7.0470   21.4028 O   0  0  0  0  0  0  0  0  0  0  0  0
  -25.5710  -23.5417   15.8159 O   0  0  0  0  0  0  0  0  0  1  0  0
  -23.2238   -3.0477   24.7266 F   0  0  0  0  0  0  0  0  0  0  0  0
  -19.9164   -6.2406   23.5984 F   0  0  0  0  0  0  0  0  0  0  0  0
  1  2  1  0  0  0  0
  1  6  2  0  0  0  0
  2  7  2  0  0  0  0
  3 10  2  0  0  0  0
  3 18  1  0  0  0  0
  4 11  1  0  0  0  0
  4 18  2  0  0  0  0
  5  9  2  0  0  0  0
  5 19  1  0  0  0  0
  6 22  1  0  0  0  0
  7 24  1  0  0  0  0
  8 12  2  0  0  0  0
  8 23  1  0  0  0  0
  9 26  1  0  0  0  0
 10 27  1  0  0  0  0
 11 27  2  0  0  0  0
 12 28  1  0  0  0  0
 13 14  2  0  0  0  0
 13 29  1  0  0  0  0
 14 30  1  0  0  0  0
 15 20  1  0  0  0  0
 15 26  2  0  0  0  0
 16 25  1  0  0  0  0
 16 28  2  0  0  0  0
 17 30  2  0  0  0  0
 17 31  1  0  0  0  0
 18 32  1  0  0  0  0
 19 20  2  0  0  0  0
 19 36  1  0  0  0  0
 20 35  1  0  0  0  0
 21 32  1  0  0  0  0
 21 33  2  0  0  0  0
 21 37  1  0  0  0  0
 22 24  2  0  0  0  0
 22 42  1  0  0  0  0
 23 25  2  0  0  0  0
 23 43  1  0  0  0  0
 24 53  1  0  0  0  0
 25 44  1  0  0  0  0
 26 69  1  0  0  0  0
 27 86  1  0  0  0  0
 28 87  1  0  0  0  0
 29 31  2  0  0  0  0
 29 86  1  0  0  0  0
 30 88  1  0  0  0  0
 31 89  1  0  0  0  0
 32 67  2  0  0  0  0
 33 68  1  0  0  0  0
 33 72  1  0  0  0  0
 34 45  1  0  0  0  0
 34 69  1  0  0  0  0
 34 78  2  0  0  0  0
 35 57  1  0  0  0  0
 35 79  2  0  0  0  0
 36 74  1  0  0  0  0
 36 80  2  0  0  0  0
 37 73  1  0  0  0  0
 37 81  2  0  0  0  0
 38 54  1  0  0  0  0
 38 75  1  0  0  0  0
 38 82  2  0  0  0  0
 39 64  1  0  0  0  0
 39 70  1  0  0  0  0
 39 83  2  0  0  0  0
 40 65  1  0  0  0  0
 40 76  1  0  0  0  0
 40 84  2  0  0  0  0
 41 71  1  0  0  0  0
 41 74  1  0  0  0  0
 41 85  2  0  0  0  0
 42 46  1  0  0  0  0
 43 54  1  0  0  0  0
 44 70  1  0  0  0  0
 45 47  1  0  0  0  0
 46 49  1  0  0  0  0
 47 56  1  0  0  0  0
 48 50  1  0  0  0  0
 48 51  1  0  0  0  0
 49 53  1  0  0  0  0
 50 55  1  0  0  0  0
 51 71  1  0  0  0  0
 52 55  1  0  0  0  0
 52 71  1  0  0  0  0
 53 75  1  0  0  0  0
 54 70  1  0  0  0  0
 55 68  1  0  0  0  0
 56 63  1  0  0  0  0
 56 69  1  0  0  0  0
 58 65  1  0  0  0  0
 59 66  1  0  0  0  0
 60 66  1  0  0  0  0
 61 66  1  0  0  0  0
 62 77  1  0  0  0  0
 63 87  1  0  0  0  0
 64 66  1  0  0  0  0
 64 76  1  0  0  0  0
 65 77  1  0  0  0  0
 67 68  1  0  0  0  0
M  CHG  1  77   1
M  ISO  4  41 100  63 101  74 100  87 101
M  END
> <Batch ID>
0107

> <Smiles>
CNC(C)C(=O)NC(C(=O)N1Cc2cc([101O:1][101CH2:1]C3CCC(=O)N3c3ccc(C(=O)[100NH:0][100C:0](=O)N4CCCC(n5nc(-c6ccc(Oc7ccc(F)cc7F)cc6)c(C(N)=O)c5N)C4)c(C(C)=O)c3)ccc2CC1C(=O)NC1CCCc2ccccc21)C(C)(C)C

> <Shape>
0.200

> <Color>
0.184

> <Negative vol penalty>
0.000

$$$$

  -OEChem-04052301173D

 89 98  0     1  0  0  0  0  0999 V2000
  -19.3977  -33.2157   16.5054 C   0  0  0  0  0  0  0  0  0  0  0  0
  -20.3252  -32.1793   16.4711 C   0  0  0  0  0  0  0  0  0  0  0  0
  -22.7548   -9.6763   20.0861 C   0  0  0  0  0  0  0  0  0  0  0  0
  -24.5257   -8.8184   21.4878 C   0  0  0  0  0  0  0  0  0  0  0  0
  -29.4271  -20.7254   20.0387 C   0  0  0  0  0  0  0  0  0  0  0  0
  -19.7215  -34.4189   17.1310 C   0  0  0  0  0  0  0  0  0  0  0  0
  -21.5775  -32.3461   17.0614 C   0  0  0  0  0  0  0  0  0  0  0  0
  -22.9736  -28.3363   19.8214 C   0  0  0  0  0  0  0  0  0  0  0  0
  -30.6402  -20.0381   19.9973 C   0  0  0  0  0  0  0  0  0  0  0  0
  -21.8061   -9.1675   20.9731 C   0  0  0  0  0  0  0  0  0  0  0  0
  -23.5771   -8.3096   22.3749 C   0  0  0  0  0  0  0  0  0  0  0  0
  -23.4549  -27.2247   19.1312 C   0  0  0  0  0  0  0  0  0  0  0  0
  -21.5232   -5.6304   22.5592 C   0  0  0  0  0  0  0  0  0  0  0  0
  -21.7093   -4.3315   23.0323 C   0  0  0  0  0  0  0  0  0  0  0  0
  -28.2349  -18.6251   19.9734 C   0  0  0  0  0  0  0  0  0  0  0  0
  -25.7157  -27.8959   19.6389 C   0  0  0  0  0  0  0  0  0  0  0  0
  -21.8039   -5.1697   25.2963 C   0  0  0  0  0  0  0  0  0  0  0  0
  -24.1146   -9.5017   20.3434 C   0  0  0  0  0  0  0  0  0  0  0  0
  -28.2244  -20.0189   20.0268 C   0  0  0  0  0  0  0  0  0  0  0  0
  -25.2484   -9.6988   18.0667 C   0  0  0  0  0  0  0  0  0  0  0  0
  -20.9748  -34.5970   17.7377 C   0  0  0  0  0  0  0  0  0  0  0  0
  -23.8615  -29.2435   20.4172 C   0  0  0  0  0  0  0  0  0  0  0  0
  -21.9188  -33.5533   17.6945 C   0  0  0  0  0  0  0  0  0  0  0  0
  -25.2430  -29.0169   20.3382 C   0  0  0  0  0  0  0  0  0  0  0  0
  -30.6506  -18.6443   19.9440 C   0  0  0  0  0  0  0  0  0  0  0  0
  -29.4480  -17.9378   19.9320 C   0  0  0  0  0  0  0  0  0  0  0  0
  -22.2173   -8.4842   22.1176 C   0  0  0  0  0  0  0  0  0  0  0  0
  -24.8262  -27.0059   19.0374 C   0  0  0  0  0  0  0  0  0  0  0  0
  -21.4775   -6.6990   23.4547 C   0  0  0  0  0  0  0  0  0  0  0  0
  -21.8497   -4.1011   24.4009 C   0  0  0  0  0  0  0  0  0  0  0  0
  -21.6179   -6.4686   24.8232 C   0  0  0  0  0  0  0  0  0  0  0  0
  -25.0950  -10.0266   19.4272 C   0  0  0  0  0  0  0  0  0  0  0  0
  -26.3111  -10.4613   17.6476 C   0  0  0  0  0  0  0  0  0  0  0  0
  -25.3311  -23.5251   18.2175 C   0  0  0  0  0  0  0  0  0  0  0  0
  -25.8466  -22.8028   19.2421 C   0  0  0  0  0  0  0  0  0  0  0  0
  -25.5388  -23.0615   16.8075 C   0  0  0  0  0  0  0  0  0  0  0  0
  -26.9422  -20.7462   20.0714 C   0  0  0  0  0  0  0  0  0  0  0  0
  -24.4973   -8.7868   17.2545 C   0  0  0  0  0  0  0  0  0  0  0  0
  -24.5060  -32.3323   20.0329 C   0  0  0  0  0  0  0  0  0  0  0  0
  -26.4053  -31.8582   22.6195 C   0  0  0  0  0  0  0  0  0  0  0  0
  -28.6856  -29.3151   23.7815 C   0  0  0  0  0  0  0  0  0  0  0  0
  -28.3190  -15.6783   19.8629 C   0  0  0  0  0  0  0  0  0  0  0  0
  -21.2965  -35.9324   18.3607 C   0  0  0  0  0  0  0  0  0  0  0  0
  -23.3255  -30.4233   21.1810 C   0  0  0  0  0  0  0  0  0  0  0  0
  -26.2375  -29.9499   20.9777 C   0  0  0  0  0  0  0  0  0  0  0  0
  -26.1719  -21.7179   16.6012 C   0  0  0  0  0  0  0  0  0  0  0  0
  -22.5077  -35.8953   19.2891 C   0  0  0  0  0  0  0  0  0  0  0  0
  -30.0923  -12.2810   20.0572 C   0  0  0  0  0  0  0  0  0  0  0  0
  -23.6613  -35.1440   18.6320 C   0  0  0  0  0  0  0  0  0  0  0  0
  -29.2005  -11.4753   19.1155 C   0  0  0  0  0  0  0  0  0  0  0  0
  -27.2013  -21.4655   17.6789 C   0  0  0  0  0  0  0  0  0  0  0  0
  -30.0169  -13.7779   19.7843 C   0  0  0  0  0  0  0  0  0  0  0  0
  -27.5598  -13.3105   19.8013 C   0  0  0  0  0  0  0  0  0  0  0  0
  -23.2785  -33.6871   18.3452 C   0  0  1  0  0  0  0  0  0  0  0  0
  -24.3349  -31.5599   21.3103 C   0  0  1  0  0  0  0  0  0  0  0  0
  -27.8562  -12.1683   18.8171 C   0  0  2  0  0  0  0  0  0  0  0  0
  -25.6526  -23.2558   20.6737 C   0  0  0  0  0  0  0  0  0  0  0  0
  -29.3798  -28.6867   26.1097 C   0  0  0  0  0  0  0  0  0  0  0  0
  -28.7381  -33.7622   22.1267 C   0  0  0  0  0  0  0  0  0  0  0  0
  -30.2131  -32.1651   23.3685 C   0  0  0  0  0  0  0  0  0  0  0  0
  -28.2965  -33.2549   24.5354 C   0  0  0  0  0  0  0  0  0  0  0  0
  -27.8910  -26.4925   23.3812 C   0  0  0  0  0  0  0  0  0  0  0  0
  -24.4751  -24.7568   18.3487 C   0  0  0  0  0  0  0  0  0  1  0  0
  -27.8420  -31.4451   22.8296 C   0  0  1  0  0  0  0  0  0  0  0  0
  -28.4662  -28.3581   24.9392 C   0  0  2  0  0  0  0  0  0  0  0  0
  -28.7576  -32.6482   23.1923 C   0  0  0  0  0  0  0  0  0  0  0  0
  -25.9888  -10.9270   19.8447 N   0  0  0  0  0  0  0  0  0  0  0  0
  -26.7142  -11.1715   18.7400 N   0  0  0  0  0  0  0  0  0  0  0  0
  -26.6513  -21.6600   19.0321 N   0  0  0  0  0  0  0  0  0  0  0  0
  -25.6644  -31.0925   21.7081 N   0  0  0  0  0  0  0  0  0  0  0  0
  -28.6430  -14.3006   19.8075 N   0  0  0  0  0  0  0  0  0  0  0  0
  -31.8909  -17.9687   19.9042 N   0  0  0  0  0  0  0  0  0  0  0  0
  -26.9309  -10.5868   16.4549 N   0  0  0  0  0  0  0  0  0  0  0  0
  -24.9203   -7.4525   17.1822 N   0  0  0  0  0  0  0  0  0  0  0  0
  -29.4333  -16.5215   19.8796 N   0  0  0  0  0  0  0  0  0  0  0  0
  -23.3391  -32.9003   19.5583 N   0  0  0  0  0  0  0  0  0  0  0  0
  -27.8198  -30.3870   23.8338 N   0  0  0  0  0  0  0  0  0  0  0  0
  -28.7367  -26.9565   24.5110 N   0  3  0  0  0  0  0  0  0  0  0  0
  -25.1530  -23.7308   15.8504 O   0  0  0  0  0  0  0  0  0  0  0  0
  -26.2253  -20.4816   21.0361 O   0  0  0  0  0  0  0  0  0  0  0  0
  -23.4908   -9.1481   16.5988 O   0  0  0  0  0  0  0  0  0  0  0  0
  -25.6149  -32.4086   19.5169 O   0  0  0  0  0  0  0  0  0  0  0  0
  -25.9548  -32.8203   23.2465 O   0  0  0  0  0  0  0  0  0  0  0  0
  -29.5420  -29.1322   22.9192 O   0  0  0  0  0  0  0  0  0  0  0  0
  -27.1498  -16.0686   19.8804 O   0  0  0  0  0  0  0  0  0  0  0  0
  -21.2919   -7.9878   22.9835 O   0  0  0  0  0  0  0  0  0  0  0  0
  -25.2987  -25.9220   18.3637 O   0  0  0  0  0  0  0  0  0  1  0  0
  -22.0268   -2.8536   24.8552 F   0  0  0  0  0  0  0  0  0  0  0  0
  -21.5736   -7.4910   25.6884 F   0  0  0  0  0  0  0  0  0  0  0  0
  1  2  1  0  0  0  0
  1  6  2  0  0  0  0
  2  7  2  0  0  0  0
  3 10  2  0  0  0  0
  3 18  1  0  0  0  0
  4 11  1  0  0  0  0
  4 18  2  0  0  0  0
  5  9  2  0  0  0  0
  5 19  1  0  0  0  0
  6 21  1  0  0  0  0
  7 23  1  0  0  0  0
  8 12  2  0  0  0  0
  8 22  1  0  0  0  0
  9 25  1  0  0  0  0
 10 27  1  0  0  0  0
 11 27  2  0  0  0  0
 12 28  1  0  0  0  0
 13 14  2  0  0  0  0
 13 29  1  0  0  0  0
 14 30  1  0  0  0  0
 15 19  2  0  0  0  0
 15 26  1  0  0  0  0
 16 24  1  0  0  0  0
 16 28  2  0  0  0  0
 17 30  2  0  0  0  0
 17 31  1  0  0  0  0
 18 32  1  0  0  0  0
 19 37  1  0  0  0  0
 20 32  1  0  0  0  0
 20 33  2  0  0  0  0
 20 38  1  0  0  0  0
 21 23  2  0  0  0  0
 21 43  1  0  0  0  0
 22 24  2  0  0  0  0
 22 44  1  0  0  0  0
 23 54  1  0  0  0  0
 24 45  1  0  0  0  0
 25 26  2  0  0  0  0
 25 72  1  0  0  0  0
 26 75  1  0  0  0  0
 27 86  1  0  0  0  0
 28 87  1  0  0  0  0
 29 31  2  0  0  0  0
 29 86  1  0  0  0  0
 30 88  1  0  0  0  0
 31 89  1  0  0  0  0
 32 67  2  0  0  0  0
 33 68  1  0  0  0  0
 33 73  1  0  0  0  0
 34 35  2  0  0  0  0
 34 36  1  0  0  0  0
 34 63  1  0  0  0  0
 35 57  1  0  0  0  0
 35 69  1  0  0  0  0
 36 46  1  0  0  0  0
 36 79  2  0  0  0  0
 37 69  1  0  0  0  0
 37 80  2  0  0  0  0
 38 74  1  0  0  0  0
 38 81  2  0  0  0  0
 39 55  1  0  0  0  0
 39 76  1  0  0  0  0
 39 82  2  0  0  0  0
 40 64  1  0  0  0  0
 40 70  1  0  0  0  0
 40 83  2  0  0  0  0
 41 65  1  0  0  0  0
 41 77  1  0  0  0  0
 41 84  2  0  0  0  0
 42 71  1  0  0  0  0
 42 75  1  0  0  0  0
 42 85  2  0  0  0  0
 43 47  1  0  0  0  0
 44 55  1  0  0  0  0
 45 70  1  0  0  0  0
 46 51  1  0  0  0  0
 47 49  1  0  0  0  0
 48 50  1  0  0  0  0
 48 52  1  0  0  0  0
 49 54  1  0  0  0  0
 50 56  1  0  0  0  0
 51 69  1  0  0  0  0
 52 71  1  0  0  0  0
 53 56  1  0  0  0  0
 53 71  1  0  0  0  0
 54 76  1  0  0  0  0
 55 70  1  0  0  0  0
 56 68  1  0  0  0  0
 58 65  1  0  0  0  0
 59 66  1  0  0  0  0
 60 66  1  0  0  0  0
 61 66  1  0  0  0  0
 62 78  1  0  0  0  0
 63 87  1  0  0  0  0
 64 66  1  0  0  0  0
 64 77  1  0  0  0  0
 65 78  1  0  0  0  0
 67 68  1  0  0  0  0
M  CHG  1  78   1
M  ISO  4  42 100  63 101  75 100  87 101
M  END
> <Batch ID>
0107

> <Smiles>
CNC(C)C(=O)NC(C(=O)N1Cc2cc([101O:1][101CH2:1]C3=C(C)N(C(=O)c4ccc(N)c([100NH:0][100C:0](=O)N5CCCC(n6nc(-c7ccc(Oc8ccc(F)cc8F)cc7)c(C(N)=O)c6N)C5)c4)CCC3=O)ccc2CC1C(=O)NC1CCCc2ccccc21)C(C)(C)C

> <Shape>
0.250

> <Color>
0.078

> <Negative vol penalty>
0.000

$$$$

  -OEChem-04052301173D

 87 96  0     1  0  0  0  0  0999 V2000
  -21.7542  -12.2991   19.8024 C   0  0  0  0  0  0  0  0  0  0  0  0
  -21.6309  -13.6487   20.1170 C   0  0  0  0  0  0  0  0  0  0  0  0
  -30.0377  -29.6980   22.0120 C   0  0  0  0  0  0  0  0  0  0  0  0
  -28.9615  -27.5478   22.2472 C   0  0  0  0  0  0  0  0  0  0  0  0
  -22.9832  -11.6586   19.9544 C   0  0  0  0  0  0  0  0  0  0  0  0
  -22.7364  -14.3582   20.5847 C   0  0  0  0  0  0  0  0  0  0  0  0
  -23.2173  -18.8868   18.3699 C   0  0  0  0  0  0  0  0  0  0  0  0
  -31.0864  -29.2616   22.8216 C   0  0  0  0  0  0  0  0  0  0  0  0
  -30.0102  -27.1114   23.0568 C   0  0  0  0  0  0  0  0  0  0  0  0
  -22.3809  -19.9076   18.8196 C   0  0  0  0  0  0  0  0  0  0  0  0
  -33.1699  -25.9856   22.6455 C   0  0  0  0  0  0  0  0  0  0  0  0
  -33.6922  -24.7160   22.3986 C   0  0  0  0  0  0  0  0  0  0  0  0
  -24.1832  -20.7847   20.1619 C   0  0  0  0  0  0  0  0  0  0  0  0
  -19.1941  -28.7694   22.6067 C   0  0  0  0  0  0  0  0  0  0  0  0
  -33.1039  -24.0379   24.6417 C   0  0  0  0  0  0  0  0  0  0  0  0
  -28.9752  -28.8411   21.7249 C   0  0  0  0  0  0  0  0  0  0  0  0
  -27.7970  -29.1852   19.4885 C   0  0  0  0  0  0  0  0  0  0  0  0
  -24.1067  -12.3630   20.4150 C   0  0  0  0  0  0  0  0  0  0  0  0
  -24.5419  -18.8008   18.8219 C   0  0  0  0  0  0  0  0  0  0  0  0
  -23.9813  -13.7262   20.7442 C   0  0  0  0  0  0  0  0  0  0  0  0
  -25.0351  -19.7634   19.7144 C   0  0  0  0  0  0  0  0  0  0  0  0
  -18.2956  -26.5294   22.7157 C   0  0  0  0  0  0  0  0  0  0  0  0
  -19.5744  -26.0070   22.5215 C   0  0  0  0  0  0  0  0  0  0  0  0
  -18.1055  -27.9106   22.7583 C   0  0  0  0  0  0  0  0  0  0  0  0
  -20.4729  -28.2471   22.4125 C   0  0  0  0  0  0  0  0  0  0  0  0
  -31.0727  -27.9684   23.3439 C   0  0  0  0  0  0  0  0  0  0  0  0
  -22.8629  -20.8550   19.7180 C   0  0  0  0  0  0  0  0  0  0  0  0
  -32.6147  -26.2815   23.8905 C   0  0  0  0  0  0  0  0  0  0  0  0
  -20.6630  -26.8659   22.3699 C   0  0  0  0  0  0  0  0  0  0  0  0
  -33.6591  -23.7421   23.3967 C   0  0  0  0  0  0  0  0  0  0  0  0
  -32.5817  -25.3076   24.8885 C   0  0  0  0  0  0  0  0  0  0  0  0
  -27.8913  -29.2914   20.8891 C   0  0  0  0  0  0  0  0  0  0  0  0
  -26.5864  -29.7566   19.1816 C   0  0  0  0  0  0  0  0  0  0  0  0
  -20.4803  -22.5362   21.8112 C   0  0  0  0  0  0  0  0  0  0  0  0
  -21.3121  -21.6290   21.2885 C   0  0  0  0  0  0  0  0  0  1  0  0
  -28.7211  -28.6203   18.5490 C   0  0  0  0  0  0  0  0  0  0  0  0
  -26.2184  -16.6532   20.4592 C   0  0  0  0  0  0  0  0  0  0  0  0
  -28.6907  -18.6406   19.7810 C   0  0  0  0  0  0  0  0  0  0  0  0
  -29.7428  -21.7855   18.9750 C   0  0  0  0  0  0  0  0  0  0  0  0
  -21.5342  -30.5278   22.2776 C   0  0  0  0  0  0  0  0  0  0  0  0
  -25.4028  -11.6163   20.6080 C   0  0  0  0  0  0  0  0  0  0  0  0
  -25.4392  -17.7092   18.3066 C   0  0  0  0  0  0  0  0  0  0  0  0
  -26.4554  -19.7273   20.2144 C   0  0  0  0  0  0  0  0  0  0  0  0
  -19.6561  -22.3386   23.0439 C   0  0  0  0  0  0  0  0  0  0  0  0
  -20.3232  -23.9435   21.3188 C   0  0  0  0  0  0  0  0  0  0  0  0
  -26.6167  -12.5305   20.7533 C   0  0  0  0  0  0  0  0  0  0  0  0
  -23.5042  -33.0697   20.7495 C   0  0  0  0  0  0  0  0  0  0  0  0
  -26.3190  -13.6614   21.7326 C   0  0  0  0  0  0  0  0  0  0  0  0
  -24.8422  -32.3778   20.4789 C   0  0  0  0  0  0  0  0  0  0  0  0
  -19.5554  -23.7502   23.6151 C   0  0  0  0  0  0  0  0  0  0  0  0
  -22.8813  -32.6051   22.0648 C   0  0  0  0  0  0  0  0  0  0  0  0
  -24.0826  -30.4581   21.9365 C   0  0  0  0  0  0  0  0  0  0  0  0
  -25.1636  -14.5359   21.2308 C   0  0  1  0  0  0  0  0  0  0  0  0
  -26.6184  -17.4193   19.2301 C   0  0  1  0  0  0  0  0  0  0  0  0
  -24.7172  -30.8457   20.5909 C   0  0  2  0  0  0  0  0  0  0  0  0
  -17.1254  -25.6091   22.8768 C   0  0  0  0  0  0  0  0  0  0  0  0
  -31.8253  -23.1106   18.5227 C   0  0  0  0  0  0  0  0  0  0  0  0
  -29.2986  -18.7011   22.7704 C   0  0  0  0  0  0  0  0  0  0  0  0
  -30.7227  -20.7208   22.3691 C   0  0  0  0  0  0  0  0  0  0  0  0
  -31.3148  -18.5468   21.2988 C   0  0  0  0  0  0  0  0  0  0  0  0
  -28.8700  -22.4367   16.2231 C   0  0  0  0  0  0  0  0  0  0  0  0
  -22.6920  -26.1011   23.3465 C   0  0  0  0  0  0  0  0  0  0  0  0
  -29.3136  -19.8401   20.4534 C   0  0  1  0  0  0  0  0  0  0  0  0
  -30.7043  -22.2844   17.9115 C   0  0  2  0  0  0  0  0  0  0  0  0
  -30.1350  -19.4520   21.7152 C   0  0  0  0  0  0  0  0  0  0  0  0
  -26.8255  -29.8839   21.4342 N   0  0  0  0  0  0  0  0  0  0  0  0
  -26.0501  -30.1552   20.3706 N   0  0  0  0  0  0  0  0  0  0  0  0
  -19.7671  -24.6402   22.4760 N   0  0  3  0  0  0  0  0  0  0  0  0
  -27.2918  -18.6369   19.6862 N   0  0  0  0  0  0  0  0  0  0  0  0
  -22.7908  -31.1437   22.0977 N   0  0  0  0  0  0  0  0  0  0  0  0
  -16.8187  -28.4591   22.9535 N   0  0  0  0  0  0  0  0  0  0  0  0
  -25.9389  -29.9521   18.0133 N   0  0  0  0  0  0  0  0  0  0  0  0
  -29.9178  -28.0753   19.0341 N   0  0  0  0  0  0  0  0  0  0  0  0
  -21.5673  -29.1339   22.2592 N   0  0  0  0  0  0  0  0  0  0  0  0
  -25.6233  -15.4346   20.1938 N   0  0  0  0  0  0  0  0  0  0  0  0
  -30.0868  -20.5286   19.4255 N   0  0  0  0  0  0  0  0  0  0  0  0
  -29.9844  -23.1307   16.9183 N   0  3  0  0  0  0  0  0  0  0  0  0
  -28.4999  -28.6144   17.3143 O   0  0  0  0  0  0  0  0  0  0  0  0
  -26.4350  -17.1315   21.5665 O   0  0  0  0  0  0  0  0  0  0  0  0
  -29.4189  -17.7435   19.3491 O   0  0  0  0  0  0  0  0  0  0  0  0
  -28.7846  -22.4464   19.3695 O   0  0  0  0  0  0  0  0  0  0  0  0
  -20.5006  -31.1884   22.4092 O   0  0  0  0  0  0  0  0  0  0  0  0
  -32.0960  -27.5422   24.1337 O   0  0  0  0  0  0  0  0  0  0  0  0
  -22.0485  -21.8520   20.1591 O   0  0  0  0  0  0  0  0  0  1  0  0
  -21.9147  -26.3557   22.1796 O   0  0  0  0  0  0  0  0  0  0  0  0
  -34.1592  -22.5225   23.1590 F   0  0  0  0  0  0  0  0  0  0  0  0
  -32.0485  -25.5855   26.0862 F   0  0  0  0  0  0  0  0  0  0  0  0
  1  2  1  0  0  0  0
  1  5  2  0  0  0  0
  2  6  2  0  0  0  0
  3  8  2  0  0  0  0
  3 16  1  0  0  0  0
  4  9  1  0  0  0  0
  4 16  2  0  0  0  0
  5 18  1  0  0  0  0
  6 20  1  0  0  0  0
  7 10  2  0  0  0  0
  7 19  1  0  0  0  0
  8 26  1  0  0  0  0
  9 26  2  0  0  0  0
 10 27  1  0  0  0  0
 11 12  2  0  0  0  0
 11 28  1  0  0  0  0
 12 30  1  0  0  0  0
 13 21  1  0  0  0  0
 13 27  2  0  0  0  0
 14 24  1  0  0  0  0
 14 25  2  0  0  0  0
 15 30  2  0  0  0  0
 15 31  1  0  0  0  0
 16 32  1  0  0  0  0
 17 32  1  0  0  0  0
 17 33  2  0  0  0  0
 17 36  1  0  0  0  0
 18 20  2  0  0  0  0
 18 41  1  0  0  0  0
 19 21  2  0  0  0  0
 19 42  1  0  0  0  0
 20 53  1  0  0  0  0
 21 43  1  0  0  0  0
 22 23  1  0  0  0  0
 22 24  2  0  0  0  0
 22 56  1  0  0  0  0
 23 29  2  0  0  0  0
 23 68  1  0  0  0  0
 24 71  1  0  0  0  0
 25 29  1  0  0  0  0
 25 74  1  0  0  0  0
 26 83  1  0  0  0  0
 27 84  1  0  0  0  0
 28 31  2  0  0  0  0
 28 83  1  0  0  0  0
 29 85  1  0  0  0  0
 30 86  1  0  0  0  0
 31 87  1  0  0  0  0
 32 66  2  0  0  0  0
 33 67  1  0  0  0  0
 33 72  1  0  0  0  0
 34 35  2  0  0  0  0
 34 44  1  0  0  0  0
 34 45  1  0  0  0  0
 35 84  1  0  0  0  0
 36 73  1  0  0  0  0
 36 78  2  0  0  0  0
 37 54  1  0  0  0  0
 37 75  1  0  0  0  0
 37 79  2  0  0  0  0
 38 63  1  0  0  0  0
 38 69  1  0  0  0  0
 38 80  2  0  0  0  0
 39 64  1  0  0  0  0
 39 76  1  0  0  0  0
 39 81  2  0  0  0  0
 40 70  1  0  0  0  0
 40 74  1  0  0  0  0
 40 82  2  0  0  0  0
 41 46  1  0  0  0  0
 42 54  1  0  0  0  0
 43 69  1  0  0  0  0
 44 50  1  0  0  0  0
 45 68  1  0  0  0  0
 46 48  1  0  0  0  0
 47 49  1  0  0  0  0
 47 51  1  0  0  0  0
 48 53  1  0  0  0  0
 49 55  1  0  0  0  0
 50 68  1  0  0  0  0
 51 70  1  0  0  0  0
 52 55  1  0  0  0  0
 52 70  1  0  0  0  0
 53 75  1  0  0  0  0
 54 69  1  0  0  0  0
 55 67  1  0  0  0  0
 57 64  1  0  0  0  0
 58 65  1  0  0  0  0
 59 65  1  0  0  0  0
 60 65  1  0  0  0  0
 61 77  1  0  0  0  0
 62 85  1  0  0  0  0
 63 65  1  0  0  0  0
 63 76  1  0  0  0  0
 64 77  1  0  0  0  0
 66 67  1  0  0  0  0
M  CHG  1  77   1
M  ISO  4  35 101  40 100  74 100  84 101
M  END
> <Batch ID>
0107

> <Smiles>
CNC(C)C(=O)NC(C(=O)N1Cc2cc([101O:1][101CH:1]=C3CCN(c4c(C)c(N)cc([100NH:0][100C:0](=O)N5CCCC(n6nc(-c7ccc(Oc8ccc(F)cc8F)cc7)c(C(N)=O)c6N)C5)c4OC)C3)ccc2CC1C(=O)NC1CCCc2ccccc21)C(C)(C)C

> <Shape>
0.228

> <Color>
0.083

> <Negative vol penalty>
0.000

$$$$

  -OEChem-04052301173D

 84 92  0     1  0  0  0  0  0999 V2000
  -29.7791  -24.2229   17.4412 C   0  0  0  0  0  0  0  0  0  0  0  0
  -28.5258  -24.7701   17.6917 C   0  0  0  0  0  0  0  0  0  0  0  0
  -24.6599  -12.2538   20.7529 C   0  0  0  0  0  0  0  0  0  0  0  0
  -23.4015  -13.7805   22.1395 C   0  0  0  0  0  0  0  0  0  0  0  0
  -30.8420  -24.5042   18.2970 C   0  0  0  0  0  0  0  0  0  0  0  0
  -28.3378  -25.6083   18.7912 C   0  0  0  0  0  0  0  0  0  0  0  0
  -23.9704  -27.8396   19.1796 C   0  0  0  0  0  0  0  0  0  0  0  0
  -24.3978  -11.2206   21.6525 C   0  0  0  0  0  0  0  0  0  0  0  0
  -23.1392  -12.7472   23.0391 C   0  0  0  0  0  0  0  0  0  0  0  0
  -22.8041  -27.1584   19.5253 C   0  0  0  0  0  0  0  0  0  0  0  0
  -23.7564   -8.0980   23.3998 C   0  0  0  0  0  0  0  0  0  0  0  0
  -23.3638   -6.8662   22.8762 C   0  0  0  0  0  0  0  0  0  0  0  0
  -25.2142  -22.5886   20.6647 C   0  0  0  0  0  0  0  0  0  0  0  0
  -22.9418  -28.0668   21.7557 C   0  0  0  0  0  0  0  0  0  0  0  0
  -22.4734  -22.1588   20.3717 C   0  0  0  0  0  0  0  0  0  0  0  0
  -21.4376   -7.9123   21.8599 C   0  0  0  0  0  0  0  0  0  0  0  0
  -24.1618  -13.5338   20.9964 C   0  0  0  0  0  0  0  0  0  0  0  0
  -24.7390  -21.8130   19.6072 C   0  0  0  0  0  0  0  0  0  0  0  0
  -23.6584  -14.9760   18.9533 C   0  0  0  0  0  0  0  0  0  0  0  0
  -30.6630  -25.3363   19.4144 C   0  0  0  0  0  0  0  0  0  0  0  0
  -24.6383  -28.6322   20.1242 C   0  0  0  0  0  0  0  0  0  0  0  0
  -29.4038  -25.9235   19.6532 C   0  0  0  0  0  0  0  0  0  0  0  0
  -24.1149  -28.7591   21.4188 C   0  0  0  0  0  0  0  0  0  0  0  0
  -23.3686  -21.5981   19.4607 C   0  0  0  0  0  0  0  0  0  0  0  0
  -24.3190  -23.1492   21.5757 C   0  0  0  0  0  0  0  0  0  0  0  0
  -23.6374  -11.4673   22.7956 C   0  0  0  0  0  0  0  0  0  0  0  0
  -22.2912  -27.2696   20.8143 C   0  0  0  0  0  0  0  0  0  0  0  0
  -22.9896   -9.2369   23.1536 C   0  0  0  0  0  0  0  0  0  0  0  0
  -22.9486  -22.9343   21.4292 C   0  0  0  0  0  0  0  0  0  0  0  0
  -22.2044   -6.7734   22.1062 C   0  0  0  0  0  0  0  0  0  0  0  0
  -21.8302   -9.1440   22.3836 C   0  0  0  0  0  0  0  0  0  0  0  0
  -24.4328  -14.6017   20.0678 C   0  0  0  0  0  0  0  0  0  0  0  0
  -24.3374  -16.0360   18.4039 C   0  0  0  0  0  0  0  0  0  0  0  0
  -25.6957  -21.2359   18.6726 C   0  0  0  0  0  0  0  0  0  0  0  0
  -22.4348  -14.4156   18.4589 C   0  0  0  0  0  0  0  0  0  0  0  0
  -27.0651  -20.8697   19.1013 C   0  0  0  0  0  0  0  0  0  0  0  0
  -27.5197  -28.5748   21.4651 C   0  0  0  0  0  0  0  0  0  0  0  0
  -26.5500  -31.3916   22.7488 C   0  0  0  0  0  0  0  0  0  0  0  0
  -23.9628  -33.4091   23.6885 C   0  0  0  0  0  0  0  0  0  0  0  0
  -31.8496  -25.6137   20.3033 C   0  0  0  0  0  0  0  0  0  0  0  0
  -25.8806  -29.3819   19.7278 C   0  0  0  0  0  0  0  0  0  0  0  0
  -24.7829  -29.6135   22.4640 C   0  0  0  0  0  0  0  0  0  0  0  0
  -31.4523  -26.1453   21.6766 C   0  0  0  0  0  0  0  0  0  0  0  0
  -28.9628  -17.8363   19.3342 C   0  0  0  0  0  0  0  0  0  0  0  0
  -30.4654  -27.2930   21.5241 C   0  0  0  0  0  0  0  0  0  0  0  0
  -27.8897  -16.7599   19.4936 C   0  0  0  0  0  0  0  0  0  0  0  0
  -28.5555  -19.1365   20.0198 C   0  0  0  0  0  0  0  0  0  0  0  0
  -26.1543  -18.5930   19.7245 C   0  0  0  0  0  0  0  0  0  0  0  0
  -29.1683  -26.8133   20.8603 C   0  0  1  0  0  0  0  0  0  0  0  0
  -26.7611  -29.7507   20.9178 C   0  0  1  0  0  0  0  0  0  0  0  0
  -26.5179  -17.2736   19.0214 C   0  0  2  0  0  0  0  0  0  0  0  0
  -22.8335  -20.7702   18.3382 C   0  0  0  0  0  0  0  0  0  0  0  0
  -23.4833  -35.6352   24.7431 C   0  0  0  0  0  0  0  0  0  0  0  0
  -27.2608  -30.2454   25.4858 C   0  0  0  0  0  0  0  0  0  0  0  0
  -25.9079  -32.0769   26.5267 C   0  0  0  0  0  0  0  0  0  0  0  0
  -27.9144  -32.6365   25.1544 C   0  0  0  0  0  0  0  0  0  0  0  0
  -22.5478  -34.3774   21.2762 C   0  0  0  0  0  0  0  0  0  0  0  0
  -20.1653  -24.9452   22.6000 C   0  0  0  0  0  0  0  0  0  0  0  0
  -21.0204  -26.1997   22.5162 C   0  0  0  0  0  0  0  0  0  1  0  0
  -20.7637  -23.7946   21.8060 C   0  0  0  0  0  0  0  0  0  0  0  0
  -25.8228  -31.7988   24.0075 C   0  0  1  0  0  0  0  0  0  0  0  0
  -23.6917  -34.8817   23.4386 C   0  0  2  0  0  0  0  0  0  0  0  0
  -26.7147  -31.6717   25.2747 C   0  0  0  0  0  0  0  0  0  0  0  0
  -25.5205  -15.3620   20.2187 N   0  0  0  0  0  0  0  0  0  0  0  0
  -25.4189  -21.0039   17.4191 N   0  0  0  0  0  0  0  0  0  0  0  0
  -25.4346  -16.2246   19.1918 N   0  0  0  0  0  0  0  0  0  0  0  0
  -27.2343  -19.5766   19.5761 N   0  0  0  0  0  0  0  0  0  0  0  0
  -25.9983  -30.3218   22.0298 N   0  0  0  0  0  0  0  0  0  0  0  0
  -24.8135  -23.9326   22.6415 N   0  0  0  0  0  0  0  0  0  0  0  0
  -24.0970  -16.8158   17.3284 N   0  0  0  0  0  0  0  0  0  0  0  0
  -21.8728  -13.3294   19.1434 N   0  0  0  0  0  0  0  0  0  0  0  0
  -28.3473  -27.9613   20.5442 N   0  0  0  0  0  0  0  0  0  0  0  0
  -25.3138  -33.1448   23.7676 N   0  0  0  0  0  0  0  0  0  0  0  0
  -22.4716  -35.0486   22.5994 N   0  3  0  0  0  0  0  0  0  0  0  0
  -21.8656  -14.8544   17.4307 O   0  0  0  0  0  0  0  0  0  0  0  0
  -27.9061  -21.7522   18.9907 O   0  0  0  0  0  0  0  0  0  0  0  0
  -27.3667  -28.2493   22.6365 O   0  0  0  0  0  0  0  0  0  0  0  0
  -27.5659  -32.0049   22.4120 O   0  0  0  0  0  0  0  0  0  0  0  0
  -23.0658  -32.5772   23.8058 O   0  0  0  0  0  0  0  0  0  0  0  0
  -23.3812  -10.4592   23.6735 O   0  0  0  0  0  0  0  0  0  0  0  0
  -21.1533  -26.6053   21.1545 O   0  0  0  0  0  0  0  0  0  1  0  0
  -22.0530  -23.4778   22.3131 O   0  0  0  0  0  0  0  0  0  0  0  0
  -21.8283   -5.5907   21.6021 F   0  0  0  0  0  0  0  0  0  0  0  0
  -21.0901  -10.2349   22.1427 F   0  0  0  0  0  0  0  0  0  0  0  0
  1  2  1  0  0  0  0
  1  5  2  0  0  0  0
  2  6  2  0  0  0  0
  3  8  2  0  0  0  0
  3 17  1  0  0  0  0
  4  9  1  0  0  0  0
  4 17  2  0  0  0  0
  5 20  1  0  0  0  0
  6 22  1  0  0  0  0
  7 10  2  0  0  0  0
  7 21  1  0  0  0  0
  8 26  1  0  0  0  0
  9 26  2  0  0  0  0
 10 27  1  0  0  0  0
 11 12  2  0  0  0  0
 11 28  1  0  0  0  0
 12 30  1  0  0  0  0
 13 18  2  0  0  0  0
 13 25  1  0  0  0  0
 14 23  1  0  0  0  0
 14 27  2  0  0  0  0
 15 24  2  0  0  0  0
 15 29  1  0  0  0  0
 16 30  2  0  0  0  0
 16 31  1  0  0  0  0
 17 32  1  0  0  0  0
 18 24  1  0  0  0  0
 18 34  1  0  0  0  0
 19 32  1  0  0  0  0
 19 33  2  0  0  0  0
 19 35  1  0  0  0  0
 20 22  2  0  0  0  0
 20 40  1  0  0  0  0
 21 23  2  0  0  0  0
 21 41  1  0  0  0  0
 22 49  1  0  0  0  0
 23 42  1  0  0  0  0
 24 52  1  0  0  0  0
 25 29  2  0  0  0  0
 25 69  1  0  0  0  0
 26 80  1  0  0  0  0
 27 81  1  0  0  0  0
 28 31  2  0  0  0  0
 28 80  1  0  0  0  0
 29 82  1  0  0  0  0
 30 83  1  0  0  0  0
 31 84  1  0  0  0  0
 32 64  2  0  0  0  0
 33 66  1  0  0  0  0
 33 70  1  0  0  0  0
 34 36  1  0  0  0  0
 34 65  2  0  0  0  0
 35 71  1  0  0  0  0
 35 75  2  0  0  0  0
 36 67  1  0  0  0  0
 36 76  2  0  0  0  0
 37 50  1  0  0  0  0
 37 72  1  0  0  0  0
 37 77  2  0  0  0  0
 38 61  1  0  0  0  0
 38 68  1  0  0  0  0
 38 78  2  0  0  0  0
 39 62  1  0  0  0  0
 39 73  1  0  0  0  0
 39 79  2  0  0  0  0
 40 43  1  0  0  0  0
 41 50  1  0  0  0  0
 42 68  1  0  0  0  0
 43 45  1  0  0  0  0
 44 46  1  0  0  0  0
 44 47  1  0  0  0  0
 45 49  1  0  0  0  0
 46 51  1  0  0  0  0
 47 67  1  0  0  0  0
 48 51  1  0  0  0  0
 48 67  1  0  0  0  0
 49 72  1  0  0  0  0
 50 68  1  0  0  0  0
 51 66  1  0  0  0  0
 53 62  1  0  0  0  0
 54 63  1  0  0  0  0
 55 63  1  0  0  0  0
 56 63  1  0  0  0  0
 57 74  1  0  0  0  0
 58 59  1  0  0  0  0
 58 60  1  0  0  0  0
 59 81  1  0  0  0  0
 60 82  1  0  0  0  0
 61 63  1  0  0  0  0
 61 73  1  0  0  0  0
 62 74  1  0  0  0  0
 64 66  1  0  0  0  0
M  CHG  1  74   1
M  ISO  4  34 100  36 100  59 101  81 101
M  END
> <Batch ID>
0107

> <Smiles>
CNC(C)C(=O)NC(C(=O)N1Cc2cc([101O:1][101CH2:1]CCOc3cc(C)c([100C:0](=N)[100C:0](=O)N4CCCC(n5nc(-c6ccc(Oc7ccc(F)cc7F)cc6)c(C(N)=O)c5N)C4)cc3N)ccc2CC1C(=O)NC1CCCc2ccccc21)C(C)(C)C

> <Shape>
0.277

> <Color>
0.063

> <Negative vol penalty>
0.000

$$$$

  -OEChem-04052301173D

 83 91  0     1  0  0  0  0  0999 V2000
  -18.4269  -14.8233   18.9693 C   0  0  0  0  0  0  0  0  0  0  0  0
  -19.7355  -15.2862   19.0632 C   0  0  0  0  0  0  0  0  0  0  0  0
  -23.1999  -29.9690   22.0160 C   0  0  0  0  0  0  0  0  0  0  0  0
  -24.2182  -28.2918   23.4256 C   0  0  0  0  0  0  0  0  0  0  0  0
  -17.9225  -13.9602   19.9412 C   0  0  0  0  0  0  0  0  0  0  0  0
  -20.5402  -14.8869   20.1298 C   0  0  0  0  0  0  0  0  0  0  0  0
  -25.2038  -13.5712   18.6585 C   0  0  0  0  0  0  0  0  0  0  0  0
  -29.6056  -23.0459   22.2461 C   0  0  0  0  0  0  0  0  0  0  0  0
  -22.0288  -29.8916   22.7698 C   0  0  0  0  0  0  0  0  0  0  0  0
  -23.0472  -28.2144   24.1795 C   0  0  0  0  0  0  0  0  0  0  0  0
  -26.0983  -14.6035   18.3794 C   0  0  0  0  0  0  0  0  0  0  0  0
  -29.0885  -21.8453   21.7596 C   0  0  0  0  0  0  0  0  0  0  0  0
  -18.6461  -29.8740   24.1042 C   0  0  0  0  0  0  0  0  0  0  0  0
  -17.4334  -29.8186   23.4174 C   0  0  0  0  0  0  0  0  0  0  0  0
  -29.1864  -22.7156   19.5079 C   0  0  0  0  0  0  0  0  0  0  0  0
  -27.1024  -14.3132   20.5535 C   0  0  0  0  0  0  0  0  0  0  0  0
  -18.1419  -27.7803   22.3308 C   0  0  0  0  0  0  0  0  0  0  0  0
  -24.2946  -29.1691   22.3438 C   0  0  0  0  0  0  0  0  0  0  0  0
  -29.7035  -23.9162   19.9944 C   0  0  0  0  0  0  0  0  0  0  0  0
  -26.6030  -30.1003   21.7856 C   0  0  0  0  0  0  0  0  0  0  0  0
  -18.7245  -13.5425   21.0150 C   0  0  0  0  0  0  0  0  0  0  0  0
  -25.2448  -12.9083   19.8936 C   0  0  0  0  0  0  0  0  0  0  0  0
  -20.0457  -14.0185   21.1177 C   0  0  0  0  0  0  0  0  0  0  0  0
  -26.2089  -13.2711   20.8449 C   0  0  0  0  0  0  0  0  0  0  0  0
  -29.9131  -24.0814   21.3635 C   0  0  0  0  0  0  0  0  0  0  0  0
  -21.9525  -29.0143   23.8516 C   0  0  0  0  0  0  0  0  0  0  0  0
  -28.8789  -21.6801   20.3905 C   0  0  0  0  0  0  0  0  0  0  0  0
  -27.0459  -14.9766   19.3280 C   0  0  0  0  0  0  0  0  0  0  0  0
  -19.6068  -28.8826   23.9043 C   0  0  0  0  0  0  0  0  0  0  0  0
  -17.1812  -28.7718   22.5307 C   0  0  0  0  0  0  0  0  0  0  0  0
  -19.3547  -27.8358   23.0177 C   0  0  0  0  0  0  0  0  0  0  0  0
  -25.5043  -29.2482   21.5652 C   0  0  0  0  0  0  0  0  0  0  0  0
  -27.4855  -29.7898   20.7800 C   0  0  0  0  0  0  0  0  0  0  0  0
  -28.7084  -18.1448   19.7354 C   0  0  0  0  0  0  0  0  0  0  0  0
  -27.9104  -17.0799   19.8752 C   0  0  0  0  0  0  0  0  0  1  0  0
  -30.0162  -24.9810   19.0508 C   0  0  0  0  0  0  0  0  0  0  0  0
  -26.8076  -31.0844   22.8080 C   0  0  0  0  0  0  0  0  0  0  0  0
  -29.2601  -25.1354   17.7869 C   0  0  0  0  0  0  0  0  0  0  0  0
  -23.2180  -12.5511   22.3160 C   0  0  0  0  0  0  0  0  0  0  0  0
  -25.5054  -10.5350   23.4230 C   0  0  0  0  0  0  0  0  0  0  0  0
  -28.7870   -9.5982   23.4257 C   0  0  0  0  0  0  0  0  0  0  0  0
  -18.1203  -12.6461   22.0667 C   0  0  0  0  0  0  0  0  0  0  0  0
  -24.2902  -11.7790   20.1689 C   0  0  0  0  0  0  0  0  0  0  0  0
  -26.3078  -12.5774   22.1781 C   0  0  0  0  0  0  0  0  0  0  0  0
  -19.1572  -11.9737   22.9628 C   0  0  0  0  0  0  0  0  0  0  0  0
  -27.1277  -27.6369   16.3544 C   0  0  0  0  0  0  0  0  0  0  0  0
  -20.1944  -12.9884   23.4334 C   0  0  0  0  0  0  0  0  0  0  0  0
  -26.5662  -28.3638   17.5759 C   0  0  0  0  0  0  0  0  0  0  0  0
  -27.3346  -26.1520   16.6346 C   0  0  0  0  0  0  0  0  0  0  0  0
  -27.6356  -26.6041   19.0540 C   0  0  0  0  0  0  0  0  0  0  0  0
  -20.9575  -13.5884   22.2463 C   0  0  1  0  0  0  0  0  0  0  0  0
  -24.0877  -11.5175   21.6582 C   0  0  1  0  0  0  0  0  0  0  0  0
  -27.4392  -28.1118   18.8180 C   0  0  2  0  0  0  0  0  0  0  0  0
  -30.4656  -25.3566   21.9116 C   0  0  0  0  0  0  0  0  0  0  0  0
  -30.3612   -7.9393   24.4589 C   0  0  0  0  0  0  0  0  0  0  0  0
  -25.4777  -12.1317   26.0230 C   0  0  0  0  0  0  0  0  0  0  0  0
  -27.6639  -11.0668   26.6187 C   0  0  0  0  0  0  0  0  0  0  0  0
  -25.6299   -9.6535   26.3223 C   0  0  0  0  0  0  0  0  0  0  0  0
  -29.4783   -8.4389   20.7919 C   0  0  0  0  0  0  0  0  0  0  0  0
  -28.6754  -19.3251   20.6517 C   0  0  0  0  0  0  0  0  0  0  0  0
  -26.7308  -10.6825   24.2922 C   0  0  1  0  0  0  0  0  0  0  0  0
  -29.4465   -8.2385   23.2814 C   0  0  2  0  0  0  0  0  0  0  0  0
  -26.3727  -10.8982   25.7898 C   0  0  0  0  0  0  0  0  0  0  0  0
  -25.6712  -28.4560   20.5028 N   0  0  0  0  0  0  0  0  0  0  0  0
  -30.9629  -25.8561   19.2494 N   0  0  0  0  0  0  0  0  0  0  0  0
  -26.8851  -28.8090   20.0467 N   0  0  0  0  0  0  0  0  0  0  0  0
  -28.1364  -25.9482   17.8395 N   0  0  0  0  0  0  0  0  0  0  0  0
  -25.3482  -11.4836   22.4027 N   0  0  0  0  0  0  0  0  0  0  0  0
  -28.7088  -30.2628   20.4603 N   0  0  0  0  0  0  0  0  0  0  0  0
  -25.7994  -31.2756   23.7627 N   0  0  0  0  0  0  0  0  0  0  0  0
  -21.9555  -12.6576   21.7646 N   0  0  0  0  0  0  0  0  0  0  0  0
  -27.5552   -9.5059   24.0385 N   0  0  0  0  0  0  0  0  0  0  0  0
  -30.2567   -8.1859   22.0317 N   0  3  0  0  0  0  0  0  0  0  0  0
  -27.8464  -31.7853   22.8635 O   0  0  0  0  0  0  0  0  0  0  0  0
  -29.7098  -24.5256   16.8254 O   0  0  0  0  0  0  0  0  0  0  0  0
  -23.6592  -13.2028   23.2554 O   0  0  0  0  0  0  0  0  0  0  0  0
  -24.7203   -9.6079   23.6369 O   0  0  0  0  0  0  0  0  0  0  0  0
  -29.3136  -10.6385   23.0374 O   0  0  0  0  0  0  0  0  0  0  0  0
  -20.8100  -28.9387   24.5875 O   0  0  0  0  0  0  0  0  0  0  0  0
  -27.9199  -15.9842   19.0584 O   0  0  0  0  0  0  0  0  0  1  0  0
  -28.3699  -20.5007   19.9131 O   0  0  0  0  0  0  0  0  0  0  0  0
  -16.0159  -28.7178   21.8724 F   0  0  0  0  0  0  0  0  0  0  0  0
  -20.2733  -26.8798   22.8224 F   0  0  0  0  0  0  0  0  0  0  0  0
  1  2  1  0  0  0  0
  1  5  2  0  0  0  0
  2  6  2  0  0  0  0
  3  9  2  0  0  0  0
  3 18  1  0  0  0  0
  4 10  1  0  0  0  0
  4 18  2  0  0  0  0
  5 21  1  0  0  0  0
  6 23  1  0  0  0  0
  7 11  2  0  0  0  0
  7 22  1  0  0  0  0
  8 12  2  0  0  0  0
  8 25  1  0  0  0  0
  9 26  1  0  0  0  0
 10 26  2  0  0  0  0
 11 28  1  0  0  0  0
 12 27  1  0  0  0  0
 13 14  2  0  0  0  0
 13 29  1  0  0  0  0
 14 30  1  0  0  0  0
 15 19  1  0  0  0  0
 15 27  2  0  0  0  0
 16 24  1  0  0  0  0
 16 28  2  0  0  0  0
 17 30  2  0  0  0  0
 17 31  1  0  0  0  0
 18 32  1  0  0  0  0
 19 25  2  0  0  0  0
 19 36  1  0  0  0  0
 20 32  1  0  0  0  0
 20 33  2  0  0  0  0
 20 37  1  0  0  0  0
 21 23  2  0  0  0  0
 21 42  1  0  0  0  0
 22 24  2  0  0  0  0
 22 43  1  0  0  0  0
 23 51  1  0  0  0  0
 24 44  1  0  0  0  0
 25 54  1  0  0  0  0
 26 79  1  0  0  0  0
 27 81  1  0  0  0  0
 28 80  1  0  0  0  0
 29 31  2  0  0  0  0
 29 79  1  0  0  0  0
 30 82  1  0  0  0  0
 31 83  1  0  0  0  0
 32 64  2  0  0  0  0
 33 66  1  0  0  0  0
 33 69  1  0  0  0  0
 34 35  2  0  0  0  0
 34 60  1  0  0  0  0
 35 80  1  0  0  0  0
 36 38  1  0  0  0  0
 36 65  2  0  0  0  0
 37 70  1  0  0  0  0
 37 74  2  0  0  0  0
 38 67  1  0  0  0  0
 38 75  2  0  0  0  0
 39 52  1  0  0  0  0
 39 71  1  0  0  0  0
 39 76  2  0  0  0  0
 40 61  1  0  0  0  0
 40 68  1  0  0  0  0
 40 77  2  0  0  0  0
 41 62  1  0  0  0  0
 41 72  1  0  0  0  0
 41 78  2  0  0  0  0
 42 45  1  0  0  0  0
 43 52  1  0  0  0  0
 44 68  1  0  0  0  0
 45 47  1  0  0  0  0
 46 48  1  0  0  0  0
 46 49  1  0  0  0  0
 47 51  1  0  0  0  0
 48 53  1  0  0  0  0
 49 67  1  0  0  0  0
 50 53  1  0  0  0  0
 50 67  1  0  0  0  0
 51 71  1  0  0  0  0
 52 68  1  0  0  0  0
 53 66  1  0  0  0  0
 55 62  1  0  0  0  0
 56 63  1  0  0  0  0
 57 63  1  0  0  0  0
 58 63  1  0  0  0  0
 59 73  1  0  0  0  0
 60 81  1  0  0  0  0
 61 63  1  0  0  0  0
 61 72  1  0  0  0  0
 62 73  1  0  0  0  0
 64 66  1  0  0  0  0
M  CHG  1  73   1
M  ISO  4  35 101  36 100  38 100  80 101
M  END
> <Batch ID>
0107

> <Smiles>
CNC(C)C(=O)NC(C(=O)N1Cc2cc([101O:1][101CH:1]=CCOc3ccc(C)c([100C:0](=N)[100C:0](=O)N4CCCC(n5nc(-c6ccc(Oc7ccc(F)cc7F)cc6)c(C(N)=O)c5N)C4)c3)ccc2CC1C(=O)NC1CCCc2ccccc21)C(C)(C)C

> <Shape>
0.261

> <Color>
0.065

> <Negative vol penalty>
0.000

$$$$

  -OEChem-04052301173D

 87 95  0     1  0  0  0  0  0999 V2000
  -21.2467  -26.9655   26.5990 C   0  0  0  0  0  0  0  0  0  0  0  0
  -22.1653  -26.5832   25.6267 C   0  0  0  0  0  0  0  0  0  0  0  0
  -25.6355  -13.4882   20.5997 C   0  0  0  0  0  0  0  0  0  0  0  0
  -27.4406  -12.4973   19.3360 C   0  0  0  0  0  0  0  0  0  0  0  0
  -20.1427  -27.7407   26.2469 C   0  0  0  0  0  0  0  0  0  0  0  0
  -21.9798  -26.9750   24.3014 C   0  0  0  0  0  0  0  0  0  0  0  0
  -26.2461  -28.6650   22.1596 C   0  0  0  0  0  0  0  0  0  0  0  0
  -24.8243  -12.3942   20.2988 C   0  0  0  0  0  0  0  0  0  0  0  0
  -26.6294  -11.4032   19.0352 C   0  0  0  0  0  0  0  0  0  0  0  0
  -27.1700  -27.7088   21.7400 C   0  0  0  0  0  0  0  0  0  0  0  0
  -27.5191  -19.6596   23.1583 C   0  0  0  0  0  0  0  0  0  0  0  0
  -28.3933  -20.4652   22.4287 C   0  0  0  0  0  0  0  0  0  0  0  0
  -24.4318   -9.2131   21.3759 C   0  0  0  0  0  0  0  0  0  0  0  0
  -23.6850   -8.6551   22.4134 C   0  0  0  0  0  0  0  0  0  0  0  0
  -26.3763  -27.9451   19.4743 C   0  0  0  0  0  0  0  0  0  0  0  0
  -21.6485   -9.1323   21.2041 C   0  0  0  0  0  0  0  0  0  0  0  0
  -26.9437  -13.5398   20.1183 C   0  0  0  0  0  0  0  0  0  0  0  0
  -28.6377  -14.8150   21.5366 C   0  0  0  0  0  0  0  0  0  0  0  0
  -19.9486  -28.1504   24.9183 C   0  0  0  0  0  0  0  0  0  0  0  0
  -25.3715  -29.2614   21.2399 C   0  0  0  0  0  0  0  0  0  0  0  0
  -20.8713  -27.7554   23.9309 C   0  0  0  0  0  0  0  0  0  0  0  0
  -25.4440  -28.9104   19.8843 C   0  0  0  0  0  0  0  0  0  0  0  0
  -25.8926  -19.8126   21.3784 C   0  0  0  0  0  0  0  0  0  0  0  0
  -26.7668  -20.6182   20.6488 C   0  0  0  0  0  0  0  0  0  0  0  0
  -25.3212  -11.3517   19.5166 C   0  0  0  0  0  0  0  0  0  0  0  0
  -27.2332  -27.3467   20.3976 C   0  0  0  0  0  0  0  0  0  0  0  0
  -26.2687  -19.3333   22.6332 C   0  0  0  0  0  0  0  0  0  0  0  0
  -28.0172  -20.9445   21.1740 C   0  0  0  0  0  0  0  0  0  0  0  0
  -23.7870   -9.7308   20.2525 C   0  0  0  0  0  0  0  0  0  0  0  0
  -22.2933   -8.6147   22.3275 C   0  0  0  0  0  0  0  0  0  0  0  0
  -22.3954   -9.6904   20.1666 C   0  0  0  0  0  0  0  0  0  0  0  0
  -27.7819  -14.6700   20.4283 C   0  0  0  0  0  0  0  0  0  0  0  0
  -29.2048  -16.0552   21.3726 C   0  0  0  0  0  0  0  0  0  0  0  0
  -28.8969  -13.9096   22.6177 C   0  0  0  0  0  0  0  0  0  0  0  0
  -22.2144  -29.3564   20.8837 C   0  0  0  0  0  0  0  0  0  0  0  0
  -28.8615  -24.1157   20.2108 C   0  0  0  0  0  0  0  0  0  0  0  0
  -22.9356  -31.4525   18.5154 C   0  0  0  0  0  0  0  0  0  0  0  0
  -25.2235  -32.5965   16.2564 C   0  0  0  0  0  0  0  0  0  0  0  0
  -27.0972  -20.8284   18.1713 C   0  0  0  0  0  0  0  0  0  0  0  0
  -18.7148  -28.9480   24.5775 C   0  0  0  0  0  0  0  0  0  0  0  0
  -24.3989  -30.3106   21.7042 C   0  0  0  0  0  0  0  0  0  0  0  0
  -24.5411  -29.5360   18.8538 C   0  0  0  0  0  0  0  0  0  0  0  0
  -18.7910  -29.6362   23.2170 C   0  0  0  0  0  0  0  0  0  0  0  0
  -30.4280  -19.2244   18.0100 C   0  0  0  0  0  0  0  0  0  0  0  0
  -19.3011  -28.6662   22.1559 C   0  0  0  0  0  0  0  0  0  0  0  0
  -30.1744  -17.8525   18.6320 C   0  0  0  0  0  0  0  0  0  0  0  0
  -29.1772  -19.7810   17.3366 C   0  0  0  0  0  0  0  0  0  0  0  0
  -27.7357  -18.4682   18.8663 C   0  0  0  0  0  0  0  0  0  0  0  0
  -20.7178  -28.1815   22.4870 C   0  0  1  0  0  0  0  0  0  0  0  0
  -23.2075  -30.4778   20.7661 C   0  0  1  0  0  0  0  0  0  0  0  0
  -28.9697  -17.9038   19.5860 C   0  0  1  0  0  0  0  0  0  0  0  0
  -24.5491  -19.4543   20.8252 C   0  0  0  0  0  0  0  0  0  0  0  0
  -30.8052  -22.9113   21.2579 C   0  0  0  0  0  0  0  0  0  0  0  0
  -25.5107  -34.2948   14.4313 C   0  0  0  0  0  0  0  0  0  0  0  0
  -21.2628  -29.7192   16.6426 C   0  0  0  0  0  0  0  0  0  0  0  0
  -22.3419  -30.8884   14.7096 C   0  0  0  0  0  0  0  0  0  0  0  0
  -20.9594  -32.1823   16.3336 C   0  0  0  0  0  0  0  0  0  0  0  0
  -25.3710  -22.1682   19.2924 C   0  0  0  0  0  0  0  0  0  0  0  0
  -27.4352  -33.9383   17.6940 C   0  0  0  0  0  0  0  0  0  0  0  0
  -25.5297  -17.1354   23.1613 C   0  0  0  0  0  0  0  0  0  0  0  0
  -28.4989  -25.4037   20.9255 C   0  0  0  0  0  0  0  0  0  1  0  0
  -29.2972  -22.9469   21.0861 C   0  0  2  0  0  0  0  0  0  0  0  0
  -23.2350  -31.3372   17.0403 C   0  0  1  0  0  0  0  0  0  0  0  0
  -25.6848  -34.0015   15.9134 C   0  0  2  0  0  0  0  0  0  0  0  0
  -21.9656  -31.0184   16.2010 C   0  0  0  0  0  0  0  0  0  0  0  0
  -27.8004  -15.7332   19.6200 N   0  0  0  0  0  0  0  0  0  0  0  0
  -28.6746  -16.5582   20.2211 N   0  0  0  0  0  0  0  0  0  0  0  0
  -23.6028  -30.5522   19.3581 N   0  0  0  0  0  0  0  0  0  0  0  0
  -28.0240  -19.7679   18.2380 N   0  0  0  0  0  0  0  0  0  0  0  0
  -30.1002  -16.7536   22.1026 N   0  0  0  0  0  0  0  0  0  0  0  0
  -28.2294  -12.6773   22.6318 N   0  0  0  0  0  0  0  0  0  0  0  0
  -21.6911  -29.1991   22.1529 N   0  0  0  0  0  0  0  0  0  0  0  0
  -23.9058  -32.5763   16.6619 N   0  0  0  0  0  0  0  0  0  0  0  0
  -26.3838  -21.1165   19.3504 N   0  0  0  0  0  0  0  0  0  0  0  0
  -27.1239  -34.1735   16.2606 N   0  3  0  0  0  0  0  0  0  0  0  0
  -29.6844  -14.1920   23.5524 O   0  0  0  0  0  0  0  0  0  0  0  0
  -21.9418  -28.6846   19.8957 O   0  0  0  0  0  0  0  0  0  0  0  0
  -28.7842  -24.0142   18.9860 O   0  0  0  0  0  0  0  0  0  0  0  0
  -22.1444  -32.3144   18.9063 O   0  0  0  0  0  0  0  0  0  0  0  0
  -25.9576  -31.6146   16.1694 O   0  0  0  0  0  0  0  0  0  0  0  0
  -26.8788  -21.4413   17.1191 O   0  0  0  0  0  0  0  0  0  0  0  0
  -24.5300  -10.2838   19.2230 O   0  0  0  0  0  0  0  0  0  0  0  0
  -25.4290  -18.5439   23.3603 O   0  0  0  0  0  0  0  0  0  0  0  0
  -28.1336  -26.4132   19.9855 O   0  0  0  0  0  0  0  0  0  1  0  0
  -28.8947  -21.7323   20.4733 O   0  0  0  0  0  0  0  0  0  0  0  0
  -21.5763   -8.0774   23.3232 F   0  0  0  0  0  0  0  0  0  0  0  0
  -21.7704  -10.1851   19.0894 F   0  0  0  0  0  0  0  0  0  0  0  0
  1  2  1  0  0  0  0
  1  5  2  0  0  0  0
  2  6  2  0  0  0  0
  3  8  2  0  0  0  0
  3 17  1  0  0  0  0
  4  9  1  0  0  0  0
  4 17  2  0  0  0  0
  5 19  1  0  0  0  0
  6 21  1  0  0  0  0
  7 10  2  0  0  0  0
  7 20  1  0  0  0  0
  8 25  1  0  0  0  0
  9 25  2  0  0  0  0
 10 26  1  0  0  0  0
 11 12  2  0  0  0  0
 11 27  1  0  0  0  0
 12 28  1  0  0  0  0
 13 14  2  0  0  0  0
 13 29  1  0  0  0  0
 14 30  1  0  0  0  0
 15 22  1  0  0  0  0
 15 26  2  0  0  0  0
 16 30  2  0  0  0  0
 16 31  1  0  0  0  0
 17 32  1  0  0  0  0
 18 32  1  0  0  0  0
 18 33  2  0  0  0  0
 18 34  1  0  0  0  0
 19 21  2  0  0  0  0
 19 40  1  0  0  0  0
 20 22  2  0  0  0  0
 20 41  1  0  0  0  0
 21 49  1  0  0  0  0
 22 42  1  0  0  0  0
 23 24  1  0  0  0  0
 23 27  2  0  0  0  0
 23 52  1  0  0  0  0
 24 28  2  0  0  0  0
 24 74  1  0  0  0  0
 25 82  1  0  0  0  0
 26 84  1  0  0  0  0
 27 83  1  0  0  0  0
 28 85  1  0  0  0  0
 29 31  2  0  0  0  0
 29 82  1  0  0  0  0
 30 86  1  0  0  0  0
 31 87  1  0  0  0  0
 32 66  2  0  0  0  0
 33 67  1  0  0  0  0
 33 70  1  0  0  0  0
 34 71  1  0  0  0  0
 34 76  2  0  0  0  0
 35 50  1  0  0  0  0
 35 72  1  0  0  0  0
 35 77  2  0  0  0  0
 36 61  1  0  0  0  0
 36 62  1  0  0  0  0
 36 78  2  0  0  0  0
 37 63  1  0  0  0  0
 37 68  1  0  0  0  0
 37 79  2  0  0  0  0
 38 64  1  0  0  0  0
 38 73  1  0  0  0  0
 38 80  2  0  0  0  0
 39 69  1  0  0  0  0
 39 74  1  0  0  0  0
 39 81  2  0  0  0  0
 40 43  1  0  0  0  0
 41 50  1  0  0  0  0
 42 68  1  0  0  0  0
 43 45  1  0  0  0  0
 44 46  1  0  0  0  0
 44 47  1  0  0  0  0
 45 49  1  0  0  0  0
 46 51  1  0  0  0  0
 47 69  1  0  0  0  0
 48 51  1  0  0  0  0
 48 69  1  0  0  0  0
 49 72  1  0  0  0  0
 50 68  1  0  0  0  0
 51 67  1  0  0  0  0
 53 62  1  0  0  0  0
 54 64  1  0  0  0  0
 55 65  1  0  0  0  0
 56 65  1  0  0  0  0
 57 65  1  0  0  0  0
 58 74  1  0  0  0  0
 59 75  1  0  0  0  0
 60 83  1  0  0  0  0
 61 84  1  0  0  0  0
 62 85  1  0  0  0  0
 63 65  1  0  0  0  0
 63 73  1  0  0  0  0
 64 75  1  0  0  0  0
 66 67  1  0  0  0  0
M  CHG  1  75   1
M  ISO  4  39 100  61 101  74 100  84 101
M  END
> <Batch ID>
0107

> <Smiles>
CNC(C)C(=O)NC(C(=O)N1Cc2cc([101O:1][101CH2:1]C(=O)C(C)Oc3ccc(OC)c(C)c3[100N:0](C)[100C:0](=O)N3CCCC(n4nc(-c5ccc(Oc6ccc(F)cc6F)cc5)c(C(N)=O)c4N)C3)ccc2CC1C(=O)NC1CCCc2ccccc21)C(C)(C)C

> <Shape>
0.262

> <Color>
0.090

> <Negative vol penalty>
0.000

$$$$

  -OEChem-04052301173D

 87 95  0     1  0  0  0  0  0999 V2000
  -23.4626  -35.7454   20.7073 C   0  0  0  0  0  0  0  0  0  0  0  0
  -23.1612  -34.4875   21.2195 C   0  0  0  0  0  0  0  0  0  0  0  0
  -23.1102   -9.8654   21.4144 C   0  0  0  0  0  0  0  0  0  0  0  0
  -23.9017  -10.7093   23.5353 C   0  0  0  0  0  0  0  0  0  0  0  0
  -27.7130  -21.0721   23.0093 C   0  0  0  0  0  0  0  0  0  0  0  0
  -24.7881  -36.0923   20.4489 C   0  0  0  0  0  0  0  0  0  0  0  0
  -24.1851  -33.5754   21.4727 C   0  0  0  0  0  0  0  0  0  0  0  0
  -24.4192  -29.4695   26.0105 C   0  0  0  0  0  0  0  0  0  0  0  0
  -22.3989   -8.8655   22.0776 C   0  0  0  0  0  0  0  0  0  0  0  0
  -23.1904   -9.7094   24.1986 C   0  0  0  0  0  0  0  0  0  0  0  0
  -28.6703  -20.3645   22.2824 C   0  0  0  0  0  0  0  0  0  0  0  0
  -24.1290  -28.1067   26.0583 C   0  0  0  0  0  0  0  0  0  0  0  0
  -23.0580   -5.8839   23.5268 C   0  0  0  0  0  0  0  0  0  0  0  0
  -23.1374   -4.5873   23.0187 C   0  0  0  0  0  0  0  0  0  0  0  0
  -25.9588  -20.0182   21.7250 C   0  0  0  0  0  0  0  0  0  0  0  0
  -26.4649  -27.6038   25.7272 C   0  0  0  0  0  0  0  0  0  0  0  0
  -20.7448   -4.5721   22.6835 C   0  0  0  0  0  0  0  0  0  0  0  0
  -23.8616  -10.7873   22.1432 C   0  0  0  0  0  0  0  0  0  0  0  0
  -26.3572  -20.8989   22.7307 C   0  0  0  0  0  0  0  0  0  0  0  0
  -24.1386  -13.1067   21.1179 C   0  0  0  0  0  0  0  0  0  0  0  0
  -25.8296  -35.1875   20.7081 C   0  0  0  0  0  0  0  0  0  0  0  0
  -25.7351  -29.9104   25.8095 C   0  0  0  0  0  0  0  0  0  0  0  0
  -25.5256  -33.9101   21.2163 C   0  0  0  0  0  0  0  0  0  0  0  0
  -26.7696  -28.9727   25.6798 C   0  0  0  0  0  0  0  0  0  0  0  0
  -26.9162  -19.3106   20.9981 C   0  0  0  0  0  0  0  0  0  0  0  0
  -22.4390   -8.7875   23.4697 C   0  0  0  0  0  0  0  0  0  0  0  0
  -25.1515  -27.1736   25.9137 C   0  0  0  0  0  0  0  0  0  0  0  0
  -28.2720  -19.4838   21.2768 C   0  0  0  0  0  0  0  0  0  0  0  0
  -21.8220   -6.5246   23.6134 C   0  0  0  0  0  0  0  0  0  0  0  0
  -21.9808   -3.9315   22.5970 C   0  0  0  0  0  0  0  0  0  0  0  0
  -20.6654   -5.8687   23.1917 C   0  0  0  0  0  0  0  0  0  0  0  0
  -24.5970  -11.8200   21.4586 C   0  0  0  0  0  0  0  0  0  0  0  0
  -25.2064  -13.6956   20.4860 C   0  0  0  0  0  0  0  0  0  0  0  0
  -25.3386  -21.6525   23.5054 C   0  0  0  0  0  0  0  0  0  0  0  0
  -22.8616  -13.7152   21.3519 C   0  0  0  0  0  0  0  0  0  0  0  0
  -27.2124  -31.6144   23.5695 C   0  0  0  0  0  0  0  0  0  0  0  0
  -30.6890  -14.7876   20.2892 C   0  0  0  0  0  0  0  0  0  0  0  0
  -29.7211  -31.4043   25.6151 C   0  0  0  0  0  0  0  0  0  0  0  0
  -24.9502  -23.7405   24.7643 C   0  0  0  0  0  0  0  0  0  0  0  0
  -31.2498  -29.7241   28.1620 C   0  0  0  0  0  0  0  0  0  0  0  0
  -27.2427  -35.5905   20.3683 C   0  0  0  0  0  0  0  0  0  0  0  0
  -26.0356  -31.3840   25.7872 C   0  0  0  0  0  0  0  0  0  0  0  0
  -28.2019  -29.3944   25.4822 C   0  0  0  0  0  0  0  0  0  0  0  0
  -28.3018  -34.7023   21.0161 C   0  0  0  0  0  0  0  0  0  0  0  0
  -29.5471  -11.7286   18.8134 C   0  0  0  0  0  0  0  0  0  0  0  0
  -27.9429  -33.2300   20.8422 C   0  0  0  0  0  0  0  0  0  0  0  0
  -28.1312  -11.5700   19.3659 C   0  0  0  0  0  0  0  0  0  0  0  0
  -30.4790  -12.3652   19.8397 C   0  0  0  0  0  0  0  0  0  0  0  0
  -28.5777  -13.5186   20.9243 C   0  0  0  0  0  0  0  0  0  0  0  0
  -26.6108  -32.9022   21.5273 C   0  0  1  0  0  0  0  0  0  0  0  0
  -27.3364  -31.7177   25.0634 C   0  0  1  0  0  0  0  0  0  0  0  0
  -27.5966  -12.9073   19.9084 C   0  0  2  0  0  0  0  0  0  0  0  0
  -33.3077  -29.7710   29.5973 C   0  0  0  0  0  0  0  0  0  0  0  0
  -31.3660  -30.3137   23.2881 C   0  0  0  0  0  0  0  0  0  0  0  0
  -33.0543  -29.5060   24.9511 C   0  0  0  0  0  0  0  0  0  0  0  0
  -32.5760  -31.9457   24.7464 C   0  0  0  0  0  0  0  0  0  0  0  0
  -29.6574  -30.0347   30.6372 C   0  0  0  0  0  0  0  0  0  0  0  0
  -30.0496  -16.0428   20.8276 C   0  0  0  0  0  0  0  0  0  0  0  0
  -25.7110  -24.9754   25.1990 C   0  0  0  0  0  0  0  0  0  1  0  0
  -31.0146  -17.2110   20.6875 C   0  0  0  0  0  0  0  0  0  0  0  0
  -30.4338  -18.4928   21.2654 C   0  0  0  0  0  0  0  0  0  0  0  0
  -30.8576  -30.4313   25.8167 C   0  0  1  0  0  0  0  0  0  0  0  0
  -31.8570  -30.2079   29.4665 C   0  0  2  0  0  0  0  0  0  0  0  0
  -31.9363  -30.5409   24.7023 C   0  0  0  0  0  0  0  0  0  0  0  0
  -25.8579  -11.6035   21.0747 N   0  0  0  0  0  0  0  0  0  0  0  0
  -26.2008  -12.7621   20.4863 N   0  0  0  0  0  0  0  0  0  0  0  0
  -28.4441  -30.8464   25.4611 N   0  0  0  0  0  0  0  0  0  0  0  0
  -29.9252  -13.6218   20.3472 N   0  0  0  0  0  0  0  0  0  0  0  0
  -26.4991  -18.4216   19.9835 N   0  0  0  0  0  0  0  0  0  0  0  0
  -25.3825  -14.9157   19.9357 N   0  0  0  0  0  0  0  0  0  0  0  0
  -21.8775  -12.9695   22.0150 N   0  0  0  0  0  0  0  0  0  0  0  0
  -25.7617  -22.8707   24.0341 N   0  0  0  0  0  0  0  0  0  0  0  0
  -26.7945  -32.7808   22.9577 N   0  0  0  0  0  0  0  0  0  0  0  0
  -31.3641  -30.6687   27.1641 N   0  0  0  0  0  0  0  0  0  0  0  0
  -31.0956  -29.6628   30.6258 N   0  3  0  0  0  0  0  0  0  0  0  0
  -24.2060  -21.1899   23.6123 O   0  0  0  0  0  0  0  0  0  0  0  0
  -22.5955  -14.8798   20.9692 O   0  0  0  0  0  0  0  0  0  0  0  0
  -27.4777  -30.5554   23.0130 O   0  0  0  0  0  0  0  0  0  0  0  0
  -31.8321  -14.8443   19.8286 O   0  0  0  0  0  0  0  0  0  0  0  0
  -29.9568  -32.6151   25.6021 O   0  0  0  0  0  0  0  0  0  0  0  0
  -23.7675  -23.5575   25.0392 O   0  0  0  0  0  0  0  0  0  0  0  0
  -30.7297  -28.6173   28.0394 O   0  0  0  0  0  0  0  0  0  0  0  0
  -21.7449   -7.8121   24.1173 O   0  0  0  0  0  0  0  0  0  0  0  0
  -24.8708  -25.8428   25.9593 O   0  0  0  0  0  0  0  0  0  1  0  0
  -29.2227  -18.8010   20.5787 O   0  0  0  0  0  0  0  0  0  0  0  0
  -22.0574   -2.6869   22.1077 F   0  0  0  0  0  0  0  0  0  0  0  0
  -19.4753   -6.4795   23.2713 F   0  0  0  0  0  0  0  0  0  0  0  0
  1  2  1  0  0  0  0
  1  6  2  0  0  0  0
  2  7  2  0  0  0  0
  3  9  2  0  0  0  0
  3 18  1  0  0  0  0
  4 10  1  0  0  0  0
  4 18  2  0  0  0  0
  5 11  2  0  0  0  0
  5 19  1  0  0  0  0
  6 21  1  0  0  0  0
  7 23  1  0  0  0  0
  8 12  2  0  0  0  0
  8 22  1  0  0  0  0
  9 26  1  0  0  0  0
 10 26  2  0  0  0  0
 11 28  1  0  0  0  0
 12 27  1  0  0  0  0
 13 14  2  0  0  0  0
 13 29  1  0  0  0  0
 14 30  1  0  0  0  0
 15 19  2  0  0  0  0
 15 25  1  0  0  0  0
 16 24  1  0  0  0  0
 16 27  2  0  0  0  0
 17 30  2  0  0  0  0
 17 31  1  0  0  0  0
 18 32  1  0  0  0  0
 19 34  1  0  0  0  0
 20 32  1  0  0  0  0
 20 33  2  0  0  0  0
 20 35  1  0  0  0  0
 21 23  2  0  0  0  0
 21 41  1  0  0  0  0
 22 24  2  0  0  0  0
 22 42  1  0  0  0  0
 23 50  1  0  0  0  0
 24 43  1  0  0  0  0
 25 28  2  0  0  0  0
 25 69  1  0  0  0  0
 26 83  1  0  0  0  0
 27 84  1  0  0  0  0
 28 85  1  0  0  0  0
 29 31  2  0  0  0  0
 29 83  1  0  0  0  0
 30 86  1  0  0  0  0
 31 87  1  0  0  0  0
 32 65  2  0  0  0  0
 33 66  1  0  0  0  0
 33 70  1  0  0  0  0
 34 72  1  0  0  0  0
 34 76  2  0  0  0  0
 35 71  1  0  0  0  0
 35 77  2  0  0  0  0
 36 51  1  0  0  0  0
 36 73  1  0  0  0  0
 36 78  2  0  0  0  0
 37 58  1  0  0  0  0
 37 68  1  0  0  0  0
 37 79  2  0  0  0  0
 38 62  1  0  0  0  0
 38 67  1  0  0  0  0
 38 80  2  0  0  0  0
 39 59  1  0  0  0  0
 39 72  1  0  0  0  0
 39 81  2  0  0  0  0
 40 63  1  0  0  0  0
 40 74  1  0  0  0  0
 40 82  2  0  0  0  0
 41 44  1  0  0  0  0
 42 51  1  0  0  0  0
 43 67  1  0  0  0  0
 44 46  1  0  0  0  0
 45 47  1  0  0  0  0
 45 48  1  0  0  0  0
 46 50  1  0  0  0  0
 47 52  1  0  0  0  0
 48 68  1  0  0  0  0
 49 52  1  0  0  0  0
 49 68  1  0  0  0  0
 50 73  1  0  0  0  0
 51 67  1  0  0  0  0
 52 66  1  0  0  0  0
 53 63  1  0  0  0  0
 54 64  1  0  0  0  0
 55 64  1  0  0  0  0
 56 64  1  0  0  0  0
 57 75  1  0  0  0  0
 58 60  1  0  0  0  0
 59 84  1  0  0  0  0
 60 61  1  0  0  0  0
 61 85  1  0  0  0  0
 62 64  1  0  0  0  0
 62 74  1  0  0  0  0
 63 75  1  0  0  0  0
 65 66  1  0  0  0  0
M  CHG  1  75   1
M  ISO  4  37 100  58 100  59 101  84 101
M  END
> <Batch ID>
0107

> <Smiles>
CNC(C)C(=O)NC(C(=O)N1Cc2cc([101O:1][101CH2:1]C(=O)NC(=O)c3ccc(OCC[100CH2:0][100C:0](=O)N4CCCC(n5nc(-c6ccc(Oc7ccc(F)cc7F)cc6)c(C(N)=O)c5N)C4)c(N)c3)ccc2CC1C(=O)NC1CCCc2ccccc21)C(C)(C)C

> <Shape>
0.227

> <Color>
0.148

> <Negative vol penalty>
0.000

$$$$

  -OEChem-04052301173D

 84 92  0     1  0  0  0  0  0999 V2000
  -18.4674  -32.7774   24.8506 C   0  0  0  0  0  0  0  0  0  0  0  0
  -19.7687  -33.0067   24.4152 C   0  0  0  0  0  0  0  0  0  0  0  0
  -23.8384  -12.2782   21.3924 C   0  0  0  0  0  0  0  0  0  0  0  0
  -25.7054  -11.7595   19.9493 C   0  0  0  0  0  0  0  0  0  0  0  0
  -18.0172  -31.4716   25.0412 C   0  0  0  0  0  0  0  0  0  0  0  0
  -20.6209  -31.9303   24.1712 C   0  0  0  0  0  0  0  0  0  0  0  0
  -26.0095  -29.9340   19.8939 C   0  0  0  0  0  0  0  0  0  0  0  0
  -30.6410  -21.3690   23.6484 C   0  0  0  0  0  0  0  0  0  0  0  0
  -30.3047  -22.7199   23.5609 C   0  0  0  0  0  0  0  0  0  0  0  0
  -23.2323  -11.0718   21.0419 C   0  0  0  0  0  0  0  0  0  0  0  0
  -25.0993  -10.5531   19.5988 C   0  0  0  0  0  0  0  0  0  0  0  0
  -27.3016  -29.4145   19.9603 C   0  0  0  0  0  0  0  0  0  0  0  0
  -21.3622   -7.9636   20.8048 C   0  0  0  0  0  0  0  0  0  0  0  0
  -20.8082   -7.1947   21.8282 C   0  0  0  0  0  0  0  0  0  0  0  0
  -26.3899  -27.1997   20.2478 C   0  0  0  0  0  0  0  0  0  0  0  0
  -30.1596  -22.5280   21.1569 C   0  0  0  0  0  0  0  0  0  0  0  0
  -22.9767   -7.0343   22.8814 C   0  0  0  0  0  0  0  0  0  0  0  0
  -25.0750  -12.6221   20.8461 C   0  0  0  0  0  0  0  0  0  0  0  0
  -26.5900  -14.0950   22.2753 C   0  0  0  0  0  0  0  0  0  0  0  0
  -18.8613  -30.3784   24.7901 C   0  0  0  0  0  0  0  0  0  0  0  0
  -24.8960  -29.0902   20.0151 C   0  0  0  0  0  0  0  0  0  0  0  0
  -20.1820  -30.6087   24.3598 C   0  0  0  0  0  0  0  0  0  0  0  0
  -25.0847  -27.7106   20.1801 C   0  0  0  0  0  0  0  0  0  0  0  0
  -30.7366  -20.5976   22.4901 C   0  0  0  0  0  0  0  0  0  0  0  0
  -30.4959  -21.1771   21.2444 C   0  0  0  0  0  0  0  0  0  0  0  0
  -30.0640  -23.2994   22.3151 C   0  0  0  0  0  0  0  0  0  0  0  0
  -23.8627  -10.2093   20.1451 C   0  0  0  0  0  0  0  0  0  0  0  0
  -27.4919  -28.0476   20.1402 C   0  0  0  0  0  0  0  0  0  0  0  0
  -22.7234   -8.2678   20.8195 C   0  0  0  0  0  0  0  0  0  0  0  0
  -21.6154   -6.7301   22.8666 C   0  0  0  0  0  0  0  0  0  0  0  0
  -23.5306   -7.8032   21.8579 C   0  0  0  0  0  0  0  0  0  0  0  0
  -25.7013  -13.8684   21.2073 C   0  0  0  0  0  0  0  0  0  0  0  0
  -26.8962  -15.4312   22.1897 C   0  0  0  0  0  0  0  0  0  0  0  0
  -27.0939  -13.1795   23.2570 C   0  0  0  0  0  0  0  0  0  0  0  0
  -22.4801  -28.8450   22.0662 C   0  0  0  0  0  0  0  0  0  0  0  0
  -21.4265  -26.6170   19.9570 C   0  0  0  0  0  0  0  0  0  0  0  0
  -22.1751  -24.3761   17.4944 C   0  0  0  0  0  0  0  0  0  0  0  0
  -29.4423  -25.4012   21.0762 C   0  0  0  0  0  0  0  0  0  0  0  0
  -28.2871  -19.9224   19.1830 C   0  0  0  0  0  0  0  0  0  0  0  0
  -18.3448  -28.9865   25.0557 C   0  0  0  0  0  0  0  0  0  0  0  0
  -23.5087  -29.6626   19.9146 C   0  0  0  0  0  0  0  0  0  0  0  0
  -23.9226  -26.7595   20.2953 C   0  0  0  0  0  0  0  0  0  0  0  0
  -19.1920  -27.8900   24.4153 C   0  0  0  0  0  0  0  0  0  0  0  0
  -24.8274  -19.1106   19.4025 C   0  0  0  0  0  0  0  0  0  0  0  0
  -20.6740  -28.1384   24.6778 C   0  0  0  0  0  0  0  0  0  0  0  0
  -24.8201  -17.6915   19.9735 C   0  0  0  0  0  0  0  0  0  0  0  0
  -25.9979  -19.3282   18.4461 C   0  0  0  0  0  0  0  0  0  0  0  0
  -27.3154  -17.5773   19.5742 C   0  0  0  0  0  0  0  0  0  0  0  0
  -21.1285  -29.4665   24.0606 C   0  0  1  0  0  0  0  0  0  0  0  0
  -22.4491  -28.7789   20.5654 C   0  0  1  0  0  0  0  0  0  0  0  0
  -26.1853  -17.3272   20.5874 C   0  0  2  0  0  0  0  0  0  0  0  0
  -31.0989  -19.1536   22.6089 C   0  0  0  0  0  0  0  0  0  0  0  0
  -21.1095  -22.6741   15.9894 C   0  0  0  0  0  0  0  0  0  0  0  0
  -30.2961  -27.5648   22.0505 C   0  0  0  0  0  0  0  0  0  0  0  0
  -21.2204  -24.6759   22.3021 C   0  0  0  0  0  0  0  0  0  0  0  0
  -21.0858  -22.8012   20.6482 C   0  0  0  0  0  0  0  0  0  0  0  0
  -19.3182  -24.5610   20.6826 C   0  0  0  0  0  0  0  0  0  0  0  0
  -23.0090  -25.8369   15.0593 C   0  0  0  0  0  0  0  0  0  0  0  0
  -30.5904  -20.3703   19.9911 C   0  0  0  0  0  0  0  0  0  0  0  0
  -21.6150  -25.1284   19.7911 C   0  0  1  0  0  0  0  0  0  0  0  0
  -21.5449  -24.1238   16.1366 C   0  0  2  0  0  0  0  0  0  0  0  0
  -29.1148  -26.8553   21.4055 C   0  0  1  0  0  0  0  0  0  1  0  0
  -20.8320  -24.3095   20.8558 C   0  0  0  0  0  0  0  0  0  0  0  0
  -25.4585  -14.9722   20.4955 N   0  0  0  0  0  0  0  0  0  0  0  0
  -26.1991  -15.9053   21.1175 N   0  0  0  0  0  0  0  0  0  0  0  0
  -22.5857  -27.3682   20.1972 N   0  0  0  0  0  0  0  0  0  0  0  0
  -27.2628  -18.9657   19.0899 N   0  0  0  0  0  0  0  0  0  0  0  0
  -27.6908  -16.2351   22.9276 N   0  0  0  0  0  0  0  0  0  0  0  0
  -26.6773  -11.8425   23.1998 N   0  0  0  0  0  0  0  0  0  0  0  0
  -29.7209  -24.6695   22.2260 N   0  0  0  0  0  0  0  0  0  0  0  0
  -21.3138  -29.3230   22.6325 N   0  0  0  0  0  0  0  0  0  0  0  0
  -21.2481  -24.8217   18.4128 N   0  0  0  0  0  0  0  0  0  0  0  0
  -29.4506  -19.4986   19.8134 N   0  0  0  0  0  0  0  0  0  0  0  0
  -22.5151  -24.4358   15.0492 N   0  3  0  0  0  0  0  0  0  0  0  0
  -27.8771  -13.5400   24.1681 O   0  0  0  0  0  0  0  0  0  0  0  0
  -23.4870  -28.4873   22.6660 O   0  0  0  0  0  0  0  0  0  0  0  0
  -20.2933  -27.0966   19.8695 O   0  0  0  0  0  0  0  0  0  0  0  0
  -23.3694  -24.1925   17.7189 O   0  0  0  0  0  0  0  0  0  0  0  0
  -29.4266  -24.9916   19.9190 O   0  0  0  0  0  0  0  0  0  0  0  0
  -28.1711  -21.0709   18.7420 O   0  0  0  0  0  0  0  0  0  0  0  0
  -23.2717   -9.0319   19.8031 O   0  0  0  0  0  0  0  0  0  0  0  0
  -28.7521  -27.5380   20.2060 O   0  0  0  0  0  0  0  0  0  1  0  0
  -21.0830   -5.9931   23.8502 F   0  0  0  0  0  0  0  0  0  0  0  0
  -24.8388   -8.0932   21.8781 F   0  0  0  0  0  0  0  0  0  0  0  0
  1  2  1  0  0  0  0
  1  5  2  0  0  0  0
  2  6  2  0  0  0  0
  3 10  2  0  0  0  0
  3 18  1  0  0  0  0
  4 11  1  0  0  0  0
  4 18  2  0  0  0  0
  5 20  1  0  0  0  0
  6 22  1  0  0  0  0
  7 12  2  0  0  0  0
  7 21  1  0  0  0  0
  8  9  2  0  0  0  0
  8 24  1  0  0  0  0
  9 26  1  0  0  0  0
 10 27  1  0  0  0  0
 11 27  2  0  0  0  0
 12 28  1  0  0  0  0
 13 14  2  0  0  0  0
 13 29  1  0  0  0  0
 14 30  1  0  0  0  0
 15 23  1  0  0  0  0
 15 28  2  0  0  0  0
 16 25  1  0  0  0  0
 16 26  2  0  0  0  0
 17 30  2  0  0  0  0
 17 31  1  0  0  0  0
 18 32  1  0  0  0  0
 19 32  1  0  0  0  0
 19 33  2  0  0  0  0
 19 34  1  0  0  0  0
 20 22  2  0  0  0  0
 20 40  1  0  0  0  0
 21 23  2  0  0  0  0
 21 41  1  0  0  0  0
 22 49  1  0  0  0  0
 23 42  1  0  0  0  0
 24 25  2  0  0  0  0
 24 52  1  0  0  0  0
 25 59  1  0  0  0  0
 26 70  1  0  0  0  0
 27 81  1  0  0  0  0
 28 82  1  0  0  0  0
 29 31  2  0  0  0  0
 29 81  1  0  0  0  0
 30 83  1  0  0  0  0
 31 84  1  0  0  0  0
 32 64  2  0  0  0  0
 33 65  1  0  0  0  0
 33 68  1  0  0  0  0
 34 69  1  0  0  0  0
 34 75  2  0  0  0  0
 35 50  1  0  0  0  0
 35 71  1  0  0  0  0
 35 76  2  0  0  0  0
 36 60  1  0  0  0  0
 36 66  1  0  0  0  0
 36 77  2  0  0  0  0
 37 61  1  0  0  0  0
 37 72  1  0  0  0  0
 37 78  2  0  0  0  0
 38 62  1  0  0  0  0
 38 70  1  0  0  0  0
 38 79  2  0  0  0  0
 39 67  1  0  0  0  0
 39 73  1  0  0  0  0
 39 80  2  0  0  0  0
 40 43  1  0  0  0  0
 41 50  1  0  0  0  0
 42 66  1  0  0  0  0
 43 45  1  0  0  0  0
 44 46  1  0  0  0  0
 44 47  1  0  0  0  0
 45 49  1  0  0  0  0
 46 51  1  0  0  0  0
 47 67  1  0  0  0  0
 48 51  1  0  0  0  0
 48 67  1  0  0  0  0
 49 71  1  0  0  0  0
 50 66  1  0  0  0  0
 51 65  1  0  0  0  0
 53 61  1  0  0  0  0
 54 62  1  0  0  0  0
 55 63  1  0  0  0  0
 56 63  1  0  0  0  0
 57 63  1  0  0  0  0
 58 74  1  0  0  0  0
 59 73  1  0  0  0  0
 60 63  1  0  0  0  0
 60 72  1  0  0  0  0
 61 74  1  0  0  0  0
 62 82  1  0  0  0  0
 64 65  1  0  0  0  0
M  CHG  1  74   1
M  ISO  4  39 100  62 101  73 100  82 101
M  END
> <Batch ID>
0107

> <Smiles>
CNC(C)C(=O)NC(C(=O)N1Cc2cc([101O:1][101CH:1](C)C(=O)Nc3ccc(C)c(C[100NH:0][100C:0](=O)N4CCCC(n5nc(-c6ccc(Oc7ccc(F)cc7F)cc6)c(C(N)=O)c5N)C4)c3)ccc2CC1C(=O)NC1CCCc2ccccc21)C(C)(C)C

> <Shape>
0.243

> <Color>
0.080

> <Negative vol penalty>
0.000

$$$$

  -OEChem-04052301173D

 91100  0     1  0  0  0  0  0999 V2000
  -19.7285  -28.8812   27.0686 C   0  0  0  0  0  0  0  0  0  0  0  0
  -20.9198  -28.3438   26.5917 C   0  0  0  0  0  0  0  0  0  0  0  0
  -25.1349  -10.8548   24.0333 C   0  0  0  0  0  0  0  0  0  0  0  0
  -25.4510  -13.2486   24.1151 C   0  0  0  0  0  0  0  0  0  0  0  0
  -26.9102  -19.1056   19.6560 C   0  0  0  0  0  0  0  0  0  0  0  0
  -18.7590  -29.3290   26.1723 C   0  0  0  0  0  0  0  0  0  0  0  0
  -21.1417  -28.2528   25.2181 C   0  0  0  0  0  0  0  0  0  0  0  0
  -26.4897  -28.8903   22.3028 C   0  0  0  0  0  0  0  0  0  0  0  0
  -27.3796  -20.3667   19.2887 C   0  0  0  0  0  0  0  0  0  0  0  0
  -25.1341  -10.8072   25.4273 C   0  0  0  0  0  0  0  0  0  0  0  0
  -25.4501  -13.2011   25.5092 C   0  0  0  0  0  0  0  0  0  0  0  0
  -27.4088  -27.9621   21.8154 C   0  0  0  0  0  0  0  0  0  0  0  0
  -22.9685  -11.4593   27.9407 C   0  0  0  0  0  0  0  0  0  0  0  0
  -21.9867  -10.6878   28.5624 C   0  0  0  0  0  0  0  0  0  0  0  0
  -26.4045  -28.1252   19.6282 C   0  0  0  0  0  0  0  0  0  0  0  0
  -29.0581  -20.2467   21.0224 C   0  0  0  0  0  0  0  0  0  0  0  0
  -23.7026   -9.3314   29.5886 C   0  0  0  0  0  0  0  0  0  0  0  0
  -25.2934  -12.0755   23.3772 C   0  0  0  0  0  0  0  0  0  0  0  0
  -27.5146  -18.4151   20.7065 C   0  0  0  0  0  0  0  0  0  0  0  0
  -24.2590  -11.7256   21.0717 C   0  0  0  0  0  0  0  0  0  0  0  0
  -18.9732  -29.2523   24.7870 C   0  0  0  0  0  0  0  0  0  0  0  0
  -25.5126  -29.4356   21.4577 C   0  0  0  0  0  0  0  0  0  0  0  0
  -20.1736  -28.6987   24.3023 C   0  0  0  0  0  0  0  0  0  0  0  0
  -25.4758  -29.0621   20.1067 C   0  0  0  0  0  0  0  0  0  0  0  0
  -28.4536  -20.9372   19.9718 C   0  0  0  0  0  0  0  0  0  0  0  0
  -25.2917  -11.9803   26.1653 C   0  0  0  0  0  0  0  0  0  0  0  0
  -27.3645  -27.5773   20.4786 C   0  0  0  0  0  0  0  0  0  0  0  0
  -24.3173  -11.1668   28.1429 C   0  0  0  0  0  0  0  0  0  0  0  0
  -28.5886  -18.9857   21.3897 C   0  0  0  0  0  0  0  0  0  0  0  0
  -22.3538   -9.6238   29.3864 C   0  0  0  0  0  0  0  0  0  0  0  0
  -24.6843  -10.1029   28.9669 C   0  0  0  0  0  0  0  0  0  0  0  0
  -25.2948  -12.1253   21.9372 C   0  0  0  0  0  0  0  0  0  0  0  0
  -24.7493  -11.9719   19.8126 C   0  0  0  0  0  0  0  0  0  0  0  0
  -28.5626  -24.5276   18.9664 C   0  0  0  0  0  0  0  0  0  0  0  0
  -28.1705  -23.4031   19.6133 C   0  0  0  0  0  0  0  0  0  0  0  0
  -29.8320  -24.4769   18.1659 C   0  0  0  0  0  0  0  0  0  0  0  0
  -27.0095  -17.0993   21.0732 C   0  0  0  0  0  0  0  0  0  0  0  0
  -22.9688  -11.1806   21.3785 C   0  0  0  0  0  0  0  0  0  0  0  0
  -26.3899  -16.2052   20.0681 C   0  0  0  0  0  0  0  0  0  0  0  0
  -22.3348  -29.4040   21.3895 C   0  0  0  0  0  0  0  0  0  0  0  0
  -22.7552  -31.4808   18.9334 C   0  0  0  0  0  0  0  0  0  0  0  0
  -22.7081  -33.4598   16.1534 C   0  0  0  0  0  0  0  0  0  0  0  0
  -17.8761  -29.7056   23.8566 C   0  0  0  0  0  0  0  0  0  0  0  0
  -24.5453  -30.4558   21.9925 C   0  0  0  0  0  0  0  0  0  0  0  0
  -24.4593  -29.6333   19.1534 C   0  0  0  0  0  0  0  0  0  0  0  0
  -30.5317  -23.1486   18.0071 C   0  0  0  0  0  0  0  0  0  0  0  0
  -18.3454  -29.9186   22.4197 C   0  0  0  0  0  0  0  0  0  0  0  0
  -29.0763  -13.8647   20.1086 C   0  0  0  0  0  0  0  0  0  0  0  0
  -19.2007  -28.7431   21.9577 C   0  0  0  0  0  0  0  0  0  0  0  0
  -28.4901  -12.7603   19.2185 C   0  0  0  0  0  0  0  0  0  0  0  0
  -30.3516  -22.2674   19.2309 C   0  0  0  0  0  0  0  0  0  0  0  0
  -28.6929  -15.2587   19.6251 C   0  0  0  0  0  0  0  0  0  0  0  0
  -26.7175  -14.3761   18.4468 C   0  0  0  0  0  0  0  0  0  0  0  0
  -20.4616  -28.6060   22.8196 C   0  0  1  0  0  0  0  0  0  0  0  0
  -23.2681  -30.5599   21.1646 C   0  0  1  0  0  0  0  0  0  0  0  0
  -26.9820  -12.9275   18.9115 C   0  0  2  0  0  0  0  0  0  0  0  0
  -26.9293  -23.4259   20.4844 C   0  0  0  0  0  0  0  0  0  0  0  0
  -32.7119  -17.5440   23.4649 C   0  0  0  0  0  0  0  0  0  0  0  0
  -21.2550  -34.0863   14.2058 C   0  0  0  0  0  0  0  0  0  0  0  0
  -23.4056  -28.8173   17.5944 C   0  0  0  0  0  0  0  0  0  0  0  0
  -22.7852  -29.8489   15.3992 C   0  0  0  0  0  0  0  0  0  0  0  0
  -21.0763  -29.6397   17.2043 C   0  0  0  0  0  0  0  0  0  0  0  0
  -22.6342  -36.3024   16.9741 C   0  0  0  0  0  0  0  0  0  0  0  0
  -27.8299  -25.8388   18.9240 C   0  0  0  0  0  0  0  0  0  1  0  0
  -31.2316  -17.3367   23.1997 C   0  0  0  0  0  0  0  0  0  0  0  0
  -30.5785  -18.5862   22.6292 C   0  0  0  0  0  0  0  0  0  0  0  0
  -22.9242  -31.3491   17.4390 C   0  0  1  0  0  0  0  0  0  0  0  0
  -21.6688  -34.4333   15.6275 C   0  0  2  0  0  0  0  0  0  0  0  0
  -22.5680  -29.9254   16.9255 C   0  0  0  0  0  0  0  0  0  0  0  0
  -26.3627  -12.5900   21.2831 N   0  0  0  0  0  0  0  0  0  0  0  0
  -27.0677  -16.6242   22.2868 N   0  0  0  0  0  0  0  0  0  0  0  0
  -26.0005  -12.4839   19.9933 N   0  0  0  0  0  0  0  0  0  0  0  0
  -28.9317  -22.2196   19.5975 N   0  0  0  0  0  0  0  0  0  0  0  0
  -27.2484  -15.3397   19.4074 N   0  0  0  0  0  0  0  0  0  0  0  0
  -23.5311  -30.6226   19.7254 N   0  0  0  0  0  0  0  0  0  0  0  0
  -24.2280  -11.7983   18.5795 N   0  0  0  0  0  0  0  0  0  0  0  0
  -21.8962  -12.0642   21.5603 N   0  0  0  0  0  0  0  0  0  0  0  0
  -21.4481  -29.5917   22.4326 N   0  0  0  0  0  0  0  0  0  0  0  0
  -22.1277  -32.4160   16.8426 N   0  0  0  0  0  0  0  0  0  0  0  0
  -22.2096  -35.8219   15.6339 N   0  3  0  0  0  0  0  0  0  0  0  0
  -30.2643  -25.4833   17.6046 O   0  0  0  0  0  0  0  0  0  0  0  0
  -22.7764   -9.9474   21.5043 O   0  0  0  0  0  0  0  0  0  0  0  0
  -25.1790  -16.3213   19.9321 O   0  0  0  0  0  0  0  0  0  0  0  0
  -22.4124  -28.4158   20.6691 O   0  0  0  0  0  0  0  0  0  0  0  0
  -21.9693  -32.3193   19.3816 O   0  0  0  0  0  0  0  0  0  0  0  0
  -23.9140  -33.6083   15.9681 O   0  0  0  0  0  0  0  0  0  0  0  0
  -25.2908  -11.9342   27.5256 O   0  0  0  0  0  0  0  0  0  0  0  0
  -28.2600  -26.6710   20.0005 O   0  0  0  0  0  0  0  0  0  1  0  0
  -29.1923  -18.3267   22.4186 O   0  0  0  0  0  0  0  0  0  0  0  0
  -21.4110   -8.8840   29.9846 F   0  0  0  0  0  0  0  0  0  0  0  0
  -25.9786   -9.8179   29.1658 F   0  0  0  0  0  0  0  0  0  0  0  0
  1  2  1  0  0  0  0
  1  6  2  0  0  0  0
  2  7  2  0  0  0  0
  3 10  2  0  0  0  0
  3 18  1  0  0  0  0
  4 11  1  0  0  0  0
  4 18  2  0  0  0  0
  5  9  2  0  0  0  0
  5 19  1  0  0  0  0
  6 21  1  0  0  0  0
  7 23  1  0  0  0  0
  8 12  2  0  0  0  0
  8 22  1  0  0  0  0
  9 25  1  0  0  0  0
 10 26  1  0  0  0  0
 11 26  2  0  0  0  0
 12 27  1  0  0  0  0
 13 14  2  0  0  0  0
 13 28  1  0  0  0  0
 14 30  1  0  0  0  0
 15 24  1  0  0  0  0
 15 27  2  0  0  0  0
 16 25  2  0  0  0  0
 16 29  1  0  0  0  0
 17 30  2  0  0  0  0
 17 31  1  0  0  0  0
 18 32  1  0  0  0  0
 19 29  2  0  0  0  0
 19 37  1  0  0  0  0
 20 32  1  0  0  0  0
 20 33  2  0  0  0  0
 20 38  1  0  0  0  0
 21 23  2  0  0  0  0
 21 43  1  0  0  0  0
 22 24  2  0  0  0  0
 22 44  1  0  0  0  0
 23 54  1  0  0  0  0
 24 45  1  0  0  0  0
 25 73  1  0  0  0  0
 26 87  1  0  0  0  0
 27 88  1  0  0  0  0
 28 31  2  0  0  0  0
 28 87  1  0  0  0  0
 29 89  1  0  0  0  0
 30 90  1  0  0  0  0
 31 91  1  0  0  0  0
 32 70  2  0  0  0  0
 33 72  1  0  0  0  0
 33 76  1  0  0  0  0
 34 35  2  0  0  0  0
 34 36  1  0  0  0  0
 34 64  1  0  0  0  0
 35 57  1  0  0  0  0
 35 73  1  0  0  0  0
 36 46  1  0  0  0  0
 36 81  2  0  0  0  0
 37 39  1  0  0  0  0
 37 71  2  0  0  0  0
 38 77  1  0  0  0  0
 38 82  2  0  0  0  0
 39 74  1  0  0  0  0
 39 83  2  0  0  0  0
 40 55  1  0  0  0  0
 40 78  1  0  0  0  0
 40 84  2  0  0  0  0
 41 67  1  0  0  0  0
 41 75  1  0  0  0  0
 41 85  2  0  0  0  0
 42 68  1  0  0  0  0
 42 79  1  0  0  0  0
 42 86  2  0  0  0  0
 43 47  1  0  0  0  0
 44 55  1  0  0  0  0
 45 75  1  0  0  0  0
 46 51  1  0  0  0  0
 47 49  1  0  0  0  0
 48 50  1  0  0  0  0
 48 52  1  0  0  0  0
 49 54  1  0  0  0  0
 50 56  1  0  0  0  0
 51 73  1  0  0  0  0
 52 74  1  0  0  0  0
 53 56  1  0  0  0  0
 53 74  1  0  0  0  0
 54 78  1  0  0  0  0
 55 75  1  0  0  0  0
 56 72  1  0  0  0  0
 58 65  1  0  0  0  0
 59 68  1  0  0  0  0
 60 69  1  0  0  0  0
 61 69  1  0  0  0  0
 62 69  1  0  0  0  0
 63 80  1  0  0  0  0
 64 88  1  0  0  0  0
 65 66  1  0  0  0  0
 66 89  1  0  0  0  0
 67 69  1  0  0  0  0
 67 79  1  0  0  0  0
 68 80  1  0  0  0  0
 70 72  1  0  0  0  0
M  CHG  1  80   1
M  ISO  4  37 100  39 100  64 101  88 101
M  END
> <Batch ID>
0107

> <Smiles>
CCCOc1cc(N2CCC(=O)C([101CH2:1][101O:1]c3ccc4c(c3)CN(C(=O)C(NC(=O)C(C)NC)C(C)(C)C)C(C(=O)NC3CCCc5ccccc53)C4)=C2C)ccc1[100C:0](=N)[100C:0](=O)N1CCCC(n2nc(-c3ccc(Oc4ccc(F)cc4F)cc3)c(C(N)=O)c2N)C1

> <Shape>
0.252

> <Color>
0.093

> <Negative vol penalty>
0.000

$$$$

  -OEChem-04052301173D

 87 96  0     1  0  0  0  0  0999 V2000
  -31.1937  -35.0281   20.8909 C   0  0  0  0  0  0  0  0  0  0  0  0
  -31.0197  -33.7032   20.5039 C   0  0  0  0  0  0  0  0  0  0  0  0
  -21.8859  -15.5228   21.1708 C   0  0  0  0  0  0  0  0  0  0  0  0
  -22.9934  -16.7289   19.3944 C   0  0  0  0  0  0  0  0  0  0  0  0
  -30.5485  -35.5113   22.0285 C   0  0  0  0  0  0  0  0  0  0  0  0
  -30.2011  -32.8604   21.2549 C   0  0  0  0  0  0  0  0  0  0  0  0
  -26.6427  -28.3449   19.1446 C   0  0  0  0  0  0  0  0  0  0  0  0
  -20.8026  -16.3977   21.0895 C   0  0  0  0  0  0  0  0  0  0  0  0
  -21.9101  -17.6039   19.3131 C   0  0  0  0  0  0  0  0  0  0  0  0
  -26.8245  -26.9646   19.0693 C   0  0  0  0  0  0  0  0  0  0  0  0
  -20.7390  -20.2832   21.0103 C   0  0  0  0  0  0  0  0  0  0  0  0
  -21.0134  -21.6479   20.9219 C   0  0  0  0  0  0  0  0  0  0  0  0
  -25.6203  -26.6991   21.1426 C   0  0  0  0  0  0  0  0  0  0  0  0
  -28.3406  -19.3952   19.9346 C   0  0  0  0  0  0  0  0  0  0  0  0
  -28.6463  -17.8516   17.6311 C   0  0  0  0  0  0  0  0  0  0  0  0
  -19.8700  -21.7400   18.7955 C   0  0  0  0  0  0  0  0  0  0  0  0
  -22.9813  -15.6884   20.3232 C   0  0  0  0  0  0  0  0  0  0  0  0
  -24.0847  -13.3910   20.2131 C   0  0  0  0  0  0  0  0  0  0  0  0
  -29.7139  -34.6766   22.7884 C   0  0  0  0  0  0  0  0  0  0  0  0
  -25.9566  -28.9145   20.2268 C   0  0  0  0  0  0  0  0  0  0  0  0
  -29.5452  -33.3325   22.4045 C   0  0  0  0  0  0  0  0  0  0  0  0
  -25.4289  -28.0866   21.2279 C   0  0  0  0  0  0  0  0  0  0  0  0
  -29.2817  -18.3661   19.9045 C   0  0  0  0  0  0  0  0  0  0  0  0
  -27.5523  -19.6525   18.8129 C   0  0  0  0  0  0  0  0  0  0  0  0
  -29.4346  -17.5943   18.7528 C   0  0  0  0  0  0  0  0  0  0  0  0
  -20.8147  -17.4382   20.1607 C   0  0  0  0  0  0  0  0  0  0  0  0
  -26.3158  -26.1417   20.0699 C   0  0  0  0  0  0  0  0  0  0  0  0
  -20.0301  -19.6469   19.9913 C   0  0  0  0  0  0  0  0  0  0  0  0
  -20.5789  -22.3763   19.8145 C   0  0  0  0  0  0  0  0  0  0  0  0
  -27.7052  -18.8807   17.6612 C   0  0  0  0  0  0  0  0  0  0  0  0
  -19.5956  -20.3753   18.8840 C   0  0  0  0  0  0  0  0  0  0  0  0
  -24.1009  -14.7852   20.4071 C   0  0  0  0  0  0  0  0  0  0  0  0
  -25.3887  -13.0030   20.4015 C   0  0  0  0  0  0  0  0  0  0  0  0
  -25.6123  -22.7246   19.2253 C   0  0  0  0  0  0  0  0  0  0  0  0
  -30.7768  -16.7379   16.3508 C   0  0  0  0  0  0  0  0  0  0  0  0
  -25.5416  -24.0537   19.3548 C   0  0  0  0  0  0  0  0  0  1  0  0
  -31.0240  -16.1448   17.5208 C   0  0  0  0  0  0  0  0  0  0  0  0
  -22.9890  -12.5241   19.8912 C   0  0  0  0  0  0  0  0  0  0  0  0
  -26.7164  -30.9592   22.5388 C   0  0  0  0  0  0  0  0  0  0  0  0
  -23.5528  -30.7543   23.2258 C   0  0  0  0  0  0  0  0  0  0  0  0
  -20.6575  -28.9575   23.0371 C   0  0  0  0  0  0  0  0  0  0  0  0
  -30.6094  -15.7282   19.8618 C   0  0  0  0  0  0  0  0  0  0  0  0
  -29.0751  -35.2312   24.0370 C   0  0  0  0  0  0  0  0  0  0  0  0
  -25.7458  -30.4028   20.2796 C   0  0  0  0  0  0  0  0  0  0  0  0
  -24.6671  -28.6467   22.4003 C   0  0  0  0  0  0  0  0  0  0  0  0
  -24.5981  -21.8727   18.5299 C   0  0  0  0  0  0  0  0  0  0  0  0
  -26.7756  -21.8798   19.6503 C   0  0  0  0  0  0  0  0  0  0  0  0
  -27.9277  -34.3745   24.5661 C   0  0  0  0  0  0  0  0  0  0  0  0
  -29.3644  -14.2171   22.7523 C   0  0  0  0  0  0  0  0  0  0  0  0
  -28.3276  -32.9027   24.5904 C   0  0  0  0  0  0  0  0  0  0  0  0
  -27.8704  -14.0584   22.4715 C   0  0  0  0  0  0  0  0  0  0  0  0
  -25.4374  -20.7189   17.9884 C   0  0  0  0  0  0  0  0  0  0  0  0
  -29.8808  -15.5519   22.2276 C   0  0  0  0  0  0  0  0  0  0  0  0
  -28.1358  -15.6098   20.4739 C   0  0  0  0  0  0  0  0  0  0  0  0
  -28.6456  -32.3940   23.1792 C   0  0  1  0  0  0  0  0  0  0  0  0
  -25.4773  -30.9186   21.6900 C   0  0  1  0  0  0  0  0  0  0  0  0
  -27.5635  -14.2699   20.9785 C   0  0  2  0  0  0  0  0  0  0  0  0
  -30.1106  -18.1110   21.1214 C   0  0  0  0  0  0  0  0  0  0  0  0
  -18.2448  -29.0317   23.7232 C   0  0  0  0  0  0  0  0  0  0  0  0
  -24.3474  -30.0525   26.0870 C   0  0  0  0  0  0  0  0  0  0  0  0
  -22.0138  -29.2250   26.4580 C   0  0  0  0  0  0  0  0  0  0  0  0
  -22.4104  -31.6231   25.8976 C   0  0  0  0  0  0  0  0  0  0  0  0
  -19.7354  -28.8756   20.2261 C   0  0  0  0  0  0  0  0  0  0  0  0
  -22.7048  -29.8660   24.1038 C   0  0  1  0  0  0  0  0  0  0  0  0
  -19.2503  -29.3547   22.6290 C   0  0  2  0  0  0  0  0  0  0  0  0
  -22.8851  -30.1810   25.6156 C   0  0  0  0  0  0  0  0  0  0  0  0
  -25.3185  -15.2515   20.6967 N   0  0  0  0  0  0  0  0  0  0  0  0
  -26.0797  -14.1439   20.6862 N   0  0  0  0  0  0  0  0  0  0  0  0
  -26.6205  -20.6714   18.8444 N   0  0  3  0  0  0  0  0  0  0  0  0
  -24.4927  -30.1085   22.4101 N   0  0  0  0  0  0  0  0  0  0  0  0
  -29.5655  -15.7169   20.8082 N   0  0  0  0  0  0  0  0  0  0  0  0
  -26.0002  -11.8006   20.3500 N   0  0  0  0  0  0  0  0  0  0  0  0
  -22.7009  -12.2846   18.5407 N   0  0  0  0  0  0  0  0  0  0  0  0
  -27.4239  -32.1425   22.4453 N   0  0  0  0  0  0  0  0  0  0  0  0
  -21.3343  -30.0060   23.6235 N   0  0  0  0  0  0  0  0  0  0  0  0
  -30.4047  -16.5200   18.7020 N   0  0  0  0  0  0  0  0  0  0  0  0
  -18.8463  -28.6305   21.3908 N   0  3  0  0  0  0  0  0  0  0  0  0
  -22.2759  -11.9911   20.7750 O   0  0  0  0  0  0  0  0  0  0  0  0
  -27.0082  -29.9894   23.2288 O   0  0  0  0  0  0  0  0  0  0  0  0
  -23.3825  -31.9757   23.2572 O   0  0  0  0  0  0  0  0  0  0  0  0
  -21.1097  -27.8289   22.8573 O   0  0  0  0  0  0  0  0  0  0  0  0
  -31.6589  -15.0971   20.0424 O   0  0  0  0  0  0  0  0  0  0  0  0
  -19.7577  -18.2921   20.0809 O   0  0  0  0  0  0  0  0  0  0  0  0
  -26.4924  -24.7943   19.9992 O   0  0  0  0  0  0  0  0  0  1  0  0
  -20.8412  -23.6872   19.7304 F   0  0  0  0  0  0  0  0  0  0  0  0
  -26.9523  -19.1178   16.5776 F   0  0  0  0  0  0  0  0  0  0  0  0
  -18.9131  -19.7697   17.9025 F   0  0  0  0  0  0  0  0  0  0  0  0
  1  2  1  0  0  0  0
  1  5  2  0  0  0  0
  2  6  2  0  0  0  0
  3  8  2  0  0  0  0
  3 17  1  0  0  0  0
  4  9  1  0  0  0  0
  4 17  2  0  0  0  0
  5 19  1  0  0  0  0
  6 21  1  0  0  0  0
  7 10  2  0  0  0  0
  7 20  1  0  0  0  0
  8 26  1  0  0  0  0
  9 26  2  0  0  0  0
 10 27  1  0  0  0  0
 11 12  2  0  0  0  0
 11 28  1  0  0  0  0
 12 29  1  0  0  0  0
 13 22  1  0  0  0  0
 13 27  2  0  0  0  0
 14 23  1  0  0  0  0
 14 24  2  0  0  0  0
 15 25  1  0  0  0  0
 15 30  2  0  0  0  0
 16 29  2  0  0  0  0
 16 31  1  0  0  0  0
 17 32  1  0  0  0  0
 18 32  1  0  0  0  0
 18 33  2  0  0  0  0
 18 38  1  0  0  0  0
 19 21  2  0  0  0  0
 19 43  1  0  0  0  0
 20 22  2  0  0  0  0
 20 44  1  0  0  0  0
 21 55  1  0  0  0  0
 22 45  1  0  0  0  0
 23 25  2  0  0  0  0
 23 58  1  0  0  0  0
 24 30  1  0  0  0  0
 24 69  1  0  0  0  0
 25 76  1  0  0  0  0
 26 83  1  0  0  0  0
 27 84  1  0  0  0  0
 28 31  2  0  0  0  0
 28 83  1  0  0  0  0
 29 85  1  0  0  0  0
 30 86  1  0  0  0  0
 31 87  1  0  0  0  0
 32 67  2  0  0  0  0
 33 68  1  0  0  0  0
 33 72  1  0  0  0  0
 34 36  2  0  0  0  0
 34 46  1  0  0  0  0
 34 47  1  0  0  0  0
 35 37  2  0  0  0  0
 36 84  1  0  0  0  0
 37 76  1  0  0  0  0
 38 73  1  0  0  0  0
 38 78  2  0  0  0  0
 39 56  1  0  0  0  0
 39 74  1  0  0  0  0
 39 79  2  0  0  0  0
 40 64  1  0  0  0  0
 40 70  1  0  0  0  0
 40 80  2  0  0  0  0
 41 65  1  0  0  0  0
 41 75  1  0  0  0  0
 41 81  2  0  0  0  0
 42 71  1  0  0  0  0
 42 76  1  0  0  0  0
 42 82  2  0  0  0  0
 43 48  1  0  0  0  0
 44 56  1  0  0  0  0
 45 70  1  0  0  0  0
 46 52  1  0  0  0  0
 47 69  1  0  0  0  0
 48 50  1  0  0  0  0
 49 51  1  0  0  0  0
 49 53  1  0  0  0  0
 50 55  1  0  0  0  0
 51 57  1  0  0  0  0
 52 69  1  0  0  0  0
 53 71  1  0  0  0  0
 54 57  1  0  0  0  0
 54 71  1  0  0  0  0
 55 74  1  0  0  0  0
 56 70  1  0  0  0  0
 57 68  1  0  0  0  0
 59 65  1  0  0  0  0
 60 66  1  0  0  0  0
 61 66  1  0  0  0  0
 62 66  1  0  0  0  0
 63 77  1  0  0  0  0
 64 66  1  0  0  0  0
 64 75  1  0  0  0  0
 65 77  1  0  0  0  0
 67 68  1  0  0  0  0
M  CHG  1  77   1
M  ISO  4  36 101  42 100  76 100  84 101
M  END
> <Batch ID>
0107

> <Smiles>
C=C[100N:0](c1cc(F)c(N2CCC(=[101CH:1][101O:1]c3ccc4c(c3)CN(C(=O)C(NC(=O)C(C)NC)C(C)(C)C)C(C(=O)NC3CCCc5ccccc53)C4)C2)cc1C)[100C:0](=O)N1CCCC(n2nc(-c3ccc(Oc4ccc(F)cc4F)cc3)c(C(N)=O)c2N)C1

> <Shape>
0.223

> <Color>
0.095

> <Negative vol penalty>
0.000

$$$$

  -OEChem-04052301173D

 88 96  0     1  0  0  0  0  0999 V2000
  -22.4523   -7.8432   20.6136 C   0  0  0  0  0  0  0  0  0  0  0  0
  -22.2252   -9.0922   20.0446 C   0  0  0  0  0  0  0  0  0  0  0  0
  -28.3524  -31.9177   23.4431 C   0  0  0  0  0  0  0  0  0  0  0  0
  -26.1314  -31.3977   22.6469 C   0  0  0  0  0  0  0  0  0  0  0  0
  -23.3326   -7.7173   21.6875 C   0  0  0  0  0  0  0  0  0  0  0  0
  -22.8775  -10.2163   20.5499 C   0  0  0  0  0  0  0  0  0  0  0  0
  -24.8486  -15.0671   17.3733 C   0  0  0  0  0  0  0  0  0  0  0  0
  -28.1188  -33.2729   23.2097 C   0  0  0  0  0  0  0  0  0  0  0  0
  -25.8977  -32.7529   22.4135 C   0  0  0  0  0  0  0  0  0  0  0  0
  -24.3034  -16.3322   17.1585 C   0  0  0  0  0  0  0  0  0  0  0  0
  -25.0920  -35.4883   24.2270 C   0  0  0  0  0  0  0  0  0  0  0  0
  -23.8694  -36.0148   24.6437 C   0  0  0  0  0  0  0  0  0  0  0  0
  -25.6342  -17.2067   18.9706 C   0  0  0  0  0  0  0  0  0  0  0  0
  -24.6234  -24.6928   18.2957 C   0  0  0  0  0  0  0  0  0  0  0  0
  -26.4473  -23.8102   16.9798 C   0  0  0  0  0  0  0  0  0  0  0  0
  -23.3612  -36.6378   22.3654 C   0  0  0  0  0  0  0  0  0  0  0  0
  -27.3587  -30.9801   23.1616 C   0  0  0  0  0  0  0  0  0  0  0  0
  -27.3423  -28.8642   24.5866 C   0  0  0  0  0  0  0  0  0  0  0  0
  -24.0034   -8.8390   22.2000 C   0  0  0  0  0  0  0  0  0  0  0  0
  -25.7841  -14.8597   18.3972 C   0  0  0  0  0  0  0  0  0  0  0  0
  -23.7666  -10.1056   21.6325 C   0  0  0  0  0  0  0  0  0  0  0  0
  -26.1917  -15.9386   19.1946 C   0  0  0  0  0  0  0  0  0  0  0  0
  -23.7337  -24.3915   17.2647 C   0  0  0  0  0  0  0  0  0  0  0  0
  -25.9803  -24.4022   18.1533 C   0  0  0  0  0  0  0  0  0  0  0  0
  -25.5575  -23.5088   15.9487 C   0  0  0  0  0  0  0  0  0  0  0  0
  -24.2006  -23.7994   16.0912 C   0  0  0  0  0  0  0  0  0  0  0  0
  -26.8915  -33.6905   22.6949 C   0  0  0  0  0  0  0  0  0  0  0  0
  -24.6940  -17.4016   17.9591 C   0  0  0  0  0  0  0  0  0  0  0  0
  -25.4493  -35.5367   22.8795 C   0  0  0  0  0  0  0  0  0  0  0  0
  -23.0040  -36.5895   23.7129 C   0  0  0  0  0  0  0  0  0  0  0  0
  -24.5838  -36.1114   21.9487 C   0  0  0  0  0  0  0  0  0  0  0  0
  -27.5996  -29.5800   23.4020 C   0  0  0  0  0  0  0  0  0  0  0  0
  -27.7425  -27.5806   24.3060 C   0  0  0  0  0  0  0  0  0  0  0  0
  -22.3926  -20.1436   18.3203 C   0  0  0  0  0  0  0  0  0  0  0  0
  -23.0216  -18.9685   18.4267 C   0  0  0  0  0  0  0  0  0  1  0  0
  -26.7908  -29.3189   25.8294 C   0  0  0  0  0  0  0  0  0  0  0  0
  -21.1669  -20.3958   19.1309 C   0  0  0  0  0  0  0  0  0  0  0  0
  -25.8687  -13.0845   21.0325 C   0  0  0  0  0  0  0  0  0  0  0  0
  -28.9263  -14.1565   21.1882 C   0  0  0  0  0  0  0  0  0  0  0  0
  -31.2049  -16.5485   20.3319 C   0  0  0  0  0  0  0  0  0  0  0  0
  -28.2605  -24.4857   19.2209 C   0  0  0  0  0  0  0  0  0  0  0  0
  -24.9096   -8.6608   23.3923 C   0  0  0  0  0  0  0  0  0  0  0  0
  -26.3828  -13.4946   18.5987 C   0  0  0  0  0  0  0  0  0  0  0  0
  -27.2079  -15.7729   20.2939 C   0  0  0  0  0  0  0  0  0  0  0  0
  -25.8467   -9.8427   23.6272 C   0  0  0  0  0  0  0  0  0  0  0  0
  -30.8365  -25.1314   21.5925 C   0  0  0  0  0  0  0  0  0  0  0  0
  -25.0805  -11.1584   23.5327 C   0  0  0  0  0  0  0  0  0  0  0  0
  -30.2728  -26.2763   22.4373 C   0  0  0  0  0  0  0  0  0  0  0  0
  -30.4416  -25.2635   20.1227 C   0  0  0  0  0  0  0  0  0  0  0  0
  -28.4385  -26.5659   20.7231 C   0  0  0  0  0  0  0  0  0  0  0  0
  -24.4742  -11.3446   22.1366 C   0  0  1  0  0  0  0  0  0  0  0  0
  -26.9434  -13.2894   20.0026 C   0  0  1  0  0  0  0  0  0  0  0  0
  -28.7555  -26.4412   22.2224 C   0  0  2  0  0  0  0  0  0  0  0  0
  -33.6165  -17.1713   20.6379 C   0  0  0  0  0  0  0  0  0  0  0  0
  -28.3226  -15.0886   24.0301 C   0  0  0  0  0  0  0  0  0  0  0  0
  -30.3843  -16.5054   23.9289 C   0  0  0  0  0  0  0  0  0  0  0  0
  -30.5668  -14.0250   23.7357 C   0  0  0  0  0  0  0  0  0  0  0  0
  -19.7671  -22.0430   20.3157 C   0  0  0  0  0  0  0  0  0  0  0  0
  -31.7311  -16.4055   17.4231 C   0  0  0  0  0  0  0  0  0  0  0  0
  -22.2729  -24.7175   17.4479 C   0  0  0  0  0  0  0  0  0  0  0  0
  -21.4100  -23.5081   17.8321 C   0  0  0  0  0  0  0  0  0  0  0  0
  -21.7916  -22.8545   19.1589 C   0  0  0  0  0  0  0  0  0  0  0  0
  -29.6100  -15.3514   21.8076 C   0  0  1  0  0  0  0  0  0  0  0  0
  -32.6079  -16.4450   19.7615 C   0  0  2  0  0  0  0  0  0  0  0  0
  -29.7003  -15.2456   23.3562 C   0  0  0  0  0  0  0  0  0  0  0  0
  -28.1229  -28.8147   22.4405 N   0  0  0  0  0  0  0  0  0  0  0  0
  -28.1978  -27.6047   23.0205 N   0  0  0  0  0  0  0  0  0  0  0  0
  -27.7596  -14.4175   20.4558 N   0  0  0  0  0  0  0  0  0  0  0  0
  -28.9900  -25.4116   19.9963 N   0  0  0  0  0  0  0  0  0  0  0  0
  -26.0531  -22.9092   14.7691 N   0  0  0  0  0  0  0  0  0  0  0  0
  -23.2952  -23.4951   15.0475 N   0  0  0  0  0  0  0  0  0  0  0  0
  -27.7460  -26.4450   25.0359 N   0  0  0  0  0  0  0  0  0  0  0  0
  -26.4332  -30.6689   25.9476 N   0  0  0  0  0  0  0  0  0  0  0  0
  -26.8841  -24.7084   19.2007 N   0  0  0  0  0  0  0  0  0  0  0  0
  -25.4905  -11.7655   21.1962 N   0  0  0  0  0  0  0  0  0  0  0  0
  -30.9018  -15.4737   21.1407 N   0  0  0  0  0  0  0  0  0  0  0  0
  -20.9299  -21.7236   19.4973 N   0  0  0  0  0  0  0  0  0  0  0  0
  -32.6571  -17.0401   18.3961 N   0  3  0  0  0  0  0  0  0  0  0  0
  -26.6354  -28.5544   26.8117 O   0  0  0  0  0  0  0  0  0  0  0  0
  -20.4458  -19.4517   19.4579 O   0  0  0  0  0  0  0  0  0  0  0  0
  -25.4172  -14.0512   21.6352 O   0  0  0  0  0  0  0  0  0  0  0  0
  -29.4136  -13.0338   21.3423 O   0  0  0  0  0  0  0  0  0  0  0  0
  -30.4543  -17.4906   20.0876 O   0  0  0  0  0  0  0  0  0  0  0  0
  -28.8129  -23.5471   18.6412 O   0  0  0  0  0  0  0  0  0  0  0  0
  -26.6631  -35.0128   22.4673 O   0  0  0  0  0  0  0  0  0  0  0  0
  -24.1630  -18.6373   17.7520 O   0  0  0  0  0  0  0  0  0  1  0  0
  -21.8293  -37.0937   24.1130 F   0  0  0  0  0  0  0  0  0  0  0  0
  -24.9210  -36.1596   20.6527 F   0  0  0  0  0  0  0  0  0  0  0  0
  1  2  1  0  0  0  0
  1  5  2  0  0  0  0
  2  6  2  0  0  0  0
  3  8  2  0  0  0  0
  3 17  1  0  0  0  0
  4  9  1  0  0  0  0
  4 17  2  0  0  0  0
  5 19  1  0  0  0  0
  6 21  1  0  0  0  0
  7 10  2  0  0  0  0
  7 20  1  0  0  0  0
  8 27  1  0  0  0  0
  9 27  2  0  0  0  0
 10 28  1  0  0  0  0
 11 12  2  0  0  0  0
 11 29  1  0  0  0  0
 12 30  1  0  0  0  0
 13 22  1  0  0  0  0
 13 28  2  0  0  0  0
 14 23  1  0  0  0  0
 14 24  2  0  0  0  0
 15 24  1  0  0  0  0
 15 25  2  0  0  0  0
 16 30  2  0  0  0  0
 16 31  1  0  0  0  0
 17 32  1  0  0  0  0
 18 32  1  0  0  0  0
 18 33  2  0  0  0  0
 18 36  1  0  0  0  0
 19 21  2  0  0  0  0
 19 42  1  0  0  0  0
 20 22  2  0  0  0  0
 20 43  1  0  0  0  0
 21 51  1  0  0  0  0
 22 44  1  0  0  0  0
 23 26  2  0  0  0  0
 23 60  1  0  0  0  0
 24 74  1  0  0  0  0
 25 26  1  0  0  0  0
 25 70  1  0  0  0  0
 26 71  1  0  0  0  0
 27 85  1  0  0  0  0
 28 86  1  0  0  0  0
 29 31  2  0  0  0  0
 29 85  1  0  0  0  0
 30 87  1  0  0  0  0
 31 88  1  0  0  0  0
 32 66  2  0  0  0  0
 33 67  1  0  0  0  0
 33 72  1  0  0  0  0
 34 35  2  0  0  0  0
 34 37  1  0  0  0  0
 35 86  1  0  0  0  0
 36 73  1  0  0  0  0
 36 79  2  0  0  0  0
 37 77  1  0  0  0  0
 37 80  2  0  0  0  0
 38 52  1  0  0  0  0
 38 75  1  0  0  0  0
 38 81  2  0  0  0  0
 39 63  1  0  0  0  0
 39 68  1  0  0  0  0
 39 82  2  0  0  0  0
 40 64  1  0  0  0  0
 40 76  1  0  0  0  0
 40 83  2  0  0  0  0
 41 69  1  0  0  0  0
 41 74  1  0  0  0  0
 41 84  2  0  0  0  0
 42 45  1  0  0  0  0
 43 52  1  0  0  0  0
 44 68  1  0  0  0  0
 45 47  1  0  0  0  0
 46 48  1  0  0  0  0
 46 49  1  0  0  0  0
 47 51  1  0  0  0  0
 48 53  1  0  0  0  0
 49 69  1  0  0  0  0
 50 53  1  0  0  0  0
 50 69  1  0  0  0  0
 51 75  1  0  0  0  0
 52 68  1  0  0  0  0
 53 67  1  0  0  0  0
 54 64  1  0  0  0  0
 55 65  1  0  0  0  0
 56 65  1  0  0  0  0
 57 65  1  0  0  0  0
 58 77  1  0  0  0  0
 59 78  1  0  0  0  0
 60 61  1  0  0  0  0
 61 62  1  0  0  0  0
 62 77  1  0  0  0  0
 63 65  1  0  0  0  0
 63 76  1  0  0  0  0
 64 78  1  0  0  0  0
 66 67  1  0  0  0  0
M  CHG  1  78   1
M  ISO  4  35 101  41 100  74 100  86 101
M  END
> <Batch ID>
0107

> <Smiles>
CNC(C)C(=O)NC(C(=O)N1Cc2cc([101O:1][101CH:1]=CC(=O)N(C)CCCc3cc([100NH:0][100C:0](=O)N4CCCC(n5nc(-c6ccc(Oc7ccc(F)cc7F)cc6)c(C(N)=O)c5N)C4)cc(N)c3N)ccc2CC1C(=O)NC1CCCc2ccccc21)C(C)(C)C

> <Shape>
0.214

> <Color>
0.065

> <Negative vol penalty>
0.000

$$$$

  -OEChem-04052301173D

 84 92  0     1  0  0  0  0  0999 V2000
  -16.8231  -30.2342   23.3621 C   0  0  0  0  0  0  0  0  0  0  0  0
  -18.0977  -30.7440   23.1364 C   0  0  0  0  0  0  0  0  0  0  0  0
  -22.6242  -15.4282   20.0318 C   0  0  0  0  0  0  0  0  0  0  0  0
  -24.7212  -14.5264   20.8230 C   0  0  0  0  0  0  0  0  0  0  0  0
  -16.6388  -28.8598   23.5071 C   0  0  0  0  0  0  0  0  0  0  0  0
  -19.1890  -29.8796   23.0567 C   0  0  0  0  0  0  0  0  0  0  0  0
  -25.4994  -29.1460   19.7465 C   0  0  0  0  0  0  0  0  0  0  0  0
  -21.9544  -14.3137   20.5367 C   0  0  0  0  0  0  0  0  0  0  0  0
  -24.0515  -13.4119   21.3279 C   0  0  0  0  0  0  0  0  0  0  0  0
  -26.8447  -28.9162   20.0313 C   0  0  0  0  0  0  0  0  0  0  0  0
  -22.7508  -10.5315   20.1270 C   0  0  0  0  0  0  0  0  0  0  0  0
  -23.3073   -9.2758   19.8839 C   0  0  0  0  0  0  0  0  0  0  0  0
  -26.3954  -26.5535   20.2182 C   0  0  0  0  0  0  0  0  0  0  0  0
  -29.7618  -24.1211   17.3114 C   0  0  0  0  0  0  0  0  0  0  0  0
  -23.4984   -8.8999   22.2629 C   0  0  0  0  0  0  0  0  0  0  0  0
  -24.0076  -15.5345   20.1749 C   0  0  0  0  0  0  0  0  0  0  0  0
  -24.9667  -17.8936   20.3243 C   0  0  0  0  0  0  0  0  0  0  0  0
  -17.7270  -27.9774   23.4195 C   0  0  0  0  0  0  0  0  0  0  0  0
  -24.5884  -28.0807   19.7062 C   0  0  0  0  0  0  0  0  0  0  0  0
  -19.0193  -28.4922   23.2020 C   0  0  0  0  0  0  0  0  0  0  0  0
  -25.0395  -26.7721   19.9302 C   0  0  0  0  0  0  0  0  0  0  0  0
  -22.6680  -13.3056   21.1848 C   0  0  0  0  0  0  0  0  0  0  0  0
  -27.2924  -27.6201   20.2700 C   0  0  0  0  0  0  0  0  0  0  0  0
  -22.5681  -10.9714   21.4381 C   0  0  0  0  0  0  0  0  0  0  0  0
  -29.8266  -22.9063   16.5696 C   0  0  0  0  0  0  0  0  0  0  0  0
  -23.6811   -8.4600   20.9518 C   0  0  0  0  0  0  0  0  0  0  0  0
  -22.9419  -10.1557   22.5059 C   0  0  0  0  0  0  0  0  0  0  0  0
  -24.7001  -16.6853   19.6531 C   0  0  0  0  0  0  0  0  0  0  0  0
  -30.7964  -22.0559   17.0532 C   0  0  0  0  0  0  0  0  0  0  0  0
  -30.6845  -24.1528   18.3338 C   0  0  0  0  0  0  0  0  0  0  0  0
  -25.6430  -18.6560   19.4034 C   0  0  0  0  0  0  0  0  0  0  0  0
  -30.6708  -26.3771   18.8602 C   0  0  0  0  0  0  0  0  0  0  0  0
  -24.6330  -18.2914   21.6607 C   0  0  0  0  0  0  0  0  0  0  0  0
  -21.9823  -27.2945   21.3474 C   0  0  0  0  0  0  0  0  0  0  0  0
  -21.7865  -24.9193   19.1469 C   0  0  0  0  0  0  0  0  0  0  0  0
  -23.3867  -22.9241   16.8874 C   0  0  0  0  0  0  0  0  0  0  0  0
  -29.5567  -19.1903   15.4610 C   0  0  0  0  0  0  0  0  0  0  0  0
  -17.4853  -26.5036   23.6299 C   0  0  0  0  0  0  0  0  0  0  0  0
  -23.1455  -28.3422   19.3713 C   0  0  0  0  0  0  0  0  0  0  0  0
  -24.1056  -25.5916   19.8785 C   0  0  0  0  0  0  0  0  0  0  0  0
  -18.6402  -25.6236   23.1586 C   0  0  0  0  0  0  0  0  0  0  0  0
  -26.3759  -17.9518   14.4483 C   0  0  0  0  0  0  0  0  0  0  0  0
  -19.9719  -26.1820   23.6502 C   0  0  0  0  0  0  0  0  0  0  0  0
  -25.6814  -17.6060   15.7666 C   0  0  0  0  0  0  0  0  0  0  0  0
  -27.8716  -17.6485   14.5018 C   0  0  0  0  0  0  0  0  0  0  0  0
  -27.8942  -17.9206   16.9512 C   0  0  0  0  0  0  0  0  0  0  0  0
  -20.2245  -27.5847   23.0844 C   0  0  1  0  0  0  0  0  0  0  0  0
  -22.2093  -27.2426   19.8630 C   0  0  1  0  0  0  0  0  0  0  0  0
  -26.3942  -18.2615   16.9647 C   0  0  2  0  0  0  0  0  0  0  0  0
  -31.9286  -28.4739   19.1578 C   0  0  0  0  0  0  0  0  0  0  0  0
  -22.9689  -21.0520   15.2693 C   0  0  0  0  0  0  0  0  0  0  0  0
  -21.6254  -22.9493   21.4714 C   0  0  0  0  0  0  0  0  0  0  0  0
  -22.1655  -21.1110   19.8598 C   0  0  0  0  0  0  0  0  0  0  0  0
  -20.0797  -22.4483   19.5703 C   0  0  0  0  0  0  0  0  0  0  0  0
  -24.2702  -24.5613   14.5858 C   0  0  0  0  0  0  0  0  0  0  0  0
  -28.0697  -23.5675   15.1095 C   0  0  0  0  0  0  0  0  0  0  0  0
  -31.1762  -20.7102   16.5681 C   0  0  0  0  0  0  0  0  0  0  0  0
  -29.5553  -28.2893   19.9744 C   0  0  0  0  0  0  0  0  0  1  0  0
  -30.8814  -27.5588   19.7802 C   0  0  1  0  0  0  0  0  0  0  0  0
  -22.3144  -23.5085   19.0468 C   0  0  1  0  0  0  0  0  0  0  0  0
  -23.0534  -22.5594   15.4520 C   0  0  2  0  0  0  0  0  0  0  0  0
  -21.5637  -22.5265   19.9901 C   0  0  0  0  0  0  0  0  0  0  0  0
  -25.1686  -16.6760   18.4023 N   0  0  0  0  0  0  0  0  0  0  0  0
  -30.9174  -25.1750   19.2689 N   0  0  0  0  0  0  0  0  0  0  0  0
  -25.7364  -17.8879   18.2802 N   0  0  0  0  0  0  0  0  0  0  0  0
  -22.7031  -25.8994   19.5533 N   0  0  0  0  0  0  0  0  0  0  0  0
  -28.4880  -18.3006   15.6597 N   0  0  0  0  0  0  0  0  0  0  0  0
  -26.1608  -19.9017   19.4530 N   0  0  0  0  0  0  0  0  0  0  0  0
  -23.9364  -17.3862   22.4730 N   0  0  0  0  0  0  0  0  0  0  0  0
  -20.6647  -27.5028   21.7082 N   0  0  0  0  0  0  0  0  0  0  0  0
  -22.2497  -23.1477   17.6347 N   0  0  0  0  0  0  0  0  0  0  0  0
  -30.0788  -19.7697   16.6109 N   0  0  0  0  0  0  0  0  0  0  0  0
  -24.0968  -23.0870   14.5279 N   0  3  0  0  0  0  0  0  0  0  0  0
  -24.9289  -19.4223   22.1156 O   0  0  0  0  0  0  0  0  0  0  0  0
  -22.9320  -27.1544   22.1091 O   0  0  0  0  0  0  0  0  0  0  0  0
  -20.6063  -25.1446   18.8678 O   0  0  0  0  0  0  0  0  0  0  0  0
  -24.5402  -22.9991   17.3050 O   0  0  0  0  0  0  0  0  0  0  0  0
  -30.0083  -19.4531   14.3412 O   0  0  0  0  0  0  0  0  0  0  0  0
  -22.0147  -12.2180   21.6778 O   0  0  0  0  0  0  0  0  0  0  0  0
  -29.0447  -22.5988   15.5200 O   0  0  0  0  0  0  0  0  0  0  0  0
  -28.6049  -27.3931   20.5488 O   0  0  0  0  0  0  0  0  0  1  0  0
  -24.2141   -7.2535   20.7182 F   0  0  0  0  0  0  0  0  0  0  0  0
  -22.7678  -10.5724   23.7676 F   0  0  0  0  0  0  0  0  0  0  0  0
  -31.6237  -22.7223   18.3963 S   0  0  0  0  0  0  0  0  0  0  0  0
  1  2  1  0  0  0  0
  1  5  2  0  0  0  0
  2  6  2  0  0  0  0
  3  8  2  0  0  0  0
  3 16  1  0  0  0  0
  4  9  1  0  0  0  0
  4 16  2  0  0  0  0
  5 18  1  0  0  0  0
  6 20  1  0  0  0  0
  7 10  2  0  0  0  0
  7 19  1  0  0  0  0
  8 22  1  0  0  0  0
  9 22  2  0  0  0  0
 10 23  1  0  0  0  0
 11 12  2  0  0  0  0
 11 24  1  0  0  0  0
 12 26  1  0  0  0  0
 13 21  1  0  0  0  0
 13 23  2  0  0  0  0
 14 25  1  0  0  0  0
 14 30  2  0  0  0  0
 15 26  2  0  0  0  0
 15 27  1  0  0  0  0
 16 28  1  0  0  0  0
 17 28  1  0  0  0  0
 17 31  2  0  0  0  0
 17 33  1  0  0  0  0
 18 20  2  0  0  0  0
 18 38  1  0  0  0  0
 19 21  2  0  0  0  0
 19 39  1  0  0  0  0
 20 47  1  0  0  0  0
 21 40  1  0  0  0  0
 22 79  1  0  0  0  0
 23 81  1  0  0  0  0
 24 27  2  0  0  0  0
 24 79  1  0  0  0  0
 25 29  2  0  0  0  0
 25 80  1  0  0  0  0
 26 82  1  0  0  0  0
 27 83  1  0  0  0  0
 28 63  2  0  0  0  0
 29 57  1  0  0  0  0
 29 84  1  0  0  0  0
 30 64  1  0  0  0  0
 30 84  1  0  0  0  0
 31 65  1  0  0  0  0
 31 68  1  0  0  0  0
 32 59  1  0  0  0  0
 32 64  2  0  0  0  0
 33 69  1  0  0  0  0
 33 74  2  0  0  0  0
 34 48  1  0  0  0  0
 34 70  1  0  0  0  0
 34 75  2  0  0  0  0
 35 60  1  0  0  0  0
 35 66  1  0  0  0  0
 35 76  2  0  0  0  0
 36 61  1  0  0  0  0
 36 71  1  0  0  0  0
 36 77  2  0  0  0  0
 37 67  1  0  0  0  0
 37 72  1  0  0  0  0
 37 78  2  0  0  0  0
 38 41  1  0  0  0  0
 39 48  1  0  0  0  0
 40 66  1  0  0  0  0
 41 43  1  0  0  0  0
 42 44  1  0  0  0  0
 42 45  1  0  0  0  0
 43 47  1  0  0  0  0
 44 49  1  0  0  0  0
 45 67  1  0  0  0  0
 46 49  1  0  0  0  0
 46 67  1  0  0  0  0
 47 70  1  0  0  0  0
 48 66  1  0  0  0  0
 49 65  1  0  0  0  0
 50 59  1  0  0  0  0
 51 61  1  0  0  0  0
 52 62  1  0  0  0  0
 53 62  1  0  0  0  0
 54 62  1  0  0  0  0
 55 73  1  0  0  0  0
 56 80  1  0  0  0  0
 57 72  1  0  0  0  0
 58 59  1  0  0  0  0
 58 81  1  0  0  0  0
 60 62  1  0  0  0  0
 60 71  1  0  0  0  0
 61 73  1  0  0  0  0
 63 65  1  0  0  0  0
M  CHG  1  73   1
M  ISO  4  37 100  58 101  72 100  81 101
M  END
> <Batch ID>
0107

> <Smiles>
CNC(C)C(=O)NC(C(=O)N1Cc2cc([101O:1][101CH2:1]C(C)=CNc3cc(OC)c(C[100NH:0][100C:0](=O)N4CCCC(n5nc(-c6ccc(Oc7ccc(F)cc7F)cc6)c(C(N)=O)c5N)C4)s3)ccc2CC1C(=O)NC1CCCc2ccccc21)C(C)(C)C

> <Shape>
0.209

> <Color>
0.082

> <Negative vol penalty>
0.000

$$$$

  -OEChem-04052301173D

 89 98  0     1  0  0  0  0  0999 V2000
  -23.1565   -7.4549   24.2411 C   0  0  0  0  0  0  0  0  0  0  0  0
  -24.1774   -8.3350   24.5854 C   0  0  0  0  0  0  0  0  0  0  0  0
  -24.2703  -29.8551   24.1912 C   0  0  0  0  0  0  0  0  0  0  0  0
  -23.1252  -30.6315   22.2105 C   0  0  0  0  0  0  0  0  0  0  0  0
  -22.6489   -7.4516   22.9425 C   0  0  0  0  0  0  0  0  0  0  0  0
  -24.6921   -9.2117   23.6310 C   0  0  0  0  0  0  0  0  0  0  0  0
  -27.4812  -15.7810   23.0131 C   0  0  0  0  0  0  0  0  0  0  0  0
  -23.0464  -29.5053   24.7616 C   0  0  0  0  0  0  0  0  0  0  0  0
  -21.9014  -30.2816   22.7809 C   0  0  0  0  0  0  0  0  0  0  0  0
  -28.5979  -16.4323   22.4909 C   0  0  0  0  0  0  0  0  0  0  0  0
  -20.0949  -27.4669   23.2655 C   0  0  0  0  0  0  0  0  0  0  0  0
  -19.1787  -26.7868   22.4634 C   0  0  0  0  0  0  0  0  0  0  0  0
  -27.5890  -16.3926   20.3001 C   0  0  0  0  0  0  0  0  0  0  0  0
  -30.3042  -24.7684   18.1617 C   0  0  0  0  0  0  0  0  0  0  0  0
  -30.2873  -24.9925   20.5672 C   0  0  0  0  0  0  0  0  0  0  0  0
  -17.5855  -28.5780   22.7644 C   0  0  0  0  0  0  0  0  0  0  0  0
  -24.3097  -30.4183   22.9156 C   0  0  0  0  0  0  0  0  0  0  0  0
  -26.5129  -31.7012   22.8277 C   0  0  0  0  0  0  0  0  0  0  0  0
  -23.1510   -8.3355   21.9743 C   0  0  0  0  0  0  0  0  0  0  0  0
  -26.4130  -15.4203   22.1793 C   0  0  0  0  0  0  0  0  0  0  0  0
  -24.1916   -9.2194   22.3179 C   0  0  0  0  0  0  0  0  0  0  0  0
  -26.4588  -15.7391   20.8146 C   0  0  0  0  0  0  0  0  0  0  0  0
  -30.7122  -23.4406   18.2883 C   0  0  0  0  0  0  0  0  0  0  0  0
  -30.9076  -22.8887   19.5543 C   0  0  0  0  0  0  0  0  0  0  0  0
  -30.0918  -25.5444   19.3012 C   0  0  0  0  0  0  0  0  0  0  0  0
  -21.8620  -29.7185   24.0564 C   0  0  0  0  0  0  0  0  0  0  0  0
  -28.6531  -16.7356   21.1337 C   0  0  0  0  0  0  0  0  0  0  0  0
  -19.7565  -28.7026   23.8172 C   0  0  0  0  0  0  0  0  0  0  0  0
  -30.6952  -23.6647   20.6938 C   0  0  0  0  0  0  0  0  0  0  0  0
  -17.9240  -27.3423   22.2128 C   0  0  0  0  0  0  0  0  0  0  0  0
  -18.5018  -29.2581   23.5666 C   0  0  0  0  0  0  0  0  0  0  0  0
  -25.5736  -30.7804   22.3261 C   0  0  0  0  0  0  0  0  0  0  0  0
  -27.5333  -31.6860   21.9084 C   0  0  0  0  0  0  0  0  0  0  0  0
  -31.1137  -19.3371   20.6901 C   0  0  0  0  0  0  0  0  0  0  0  0
  -30.5872  -20.5416   20.3611 C   0  0  0  0  0  0  0  0  0  0  0  0
  -32.5022  -19.0265   20.2146 C   0  0  0  0  0  0  0  0  0  0  0  0
  -26.4671  -32.4990   24.0181 C   0  0  0  0  0  0  0  0  0  0  0  0
  -25.0589  -12.6727   21.3302 C   0  0  0  0  0  0  0  0  0  0  0  0
  -22.9252  -14.6267   19.8634 C   0  0  0  0  0  0  0  0  0  0  0  0
  -22.2629  -17.6764   18.4824 C   0  0  0  0  0  0  0  0  0  0  0  0
  -29.4387  -27.5952   17.9919 C   0  0  0  0  0  0  0  0  0  0  0  0
  -22.6030   -8.2625   20.5710 C   0  0  0  0  0  0  0  0  0  0  0  0
  -25.2040  -14.7421   22.7630 C   0  0  0  0  0  0  0  0  0  0  0  0
  -25.3294  -15.3916   19.8807 C   0  0  0  0  0  0  0  0  0  0  0  0
  -33.1130  -19.9374   19.1789 C   0  0  0  0  0  0  0  0  0  0  0  0
  -22.9457   -9.4820   19.7192 C   0  0  0  0  0  0  0  0  0  0  0  0
  -28.3725  -30.9120   17.2575 C   0  0  0  0  0  0  0  0  0  0  0  0
  -24.4216   -9.8384   19.8665 C   0  0  0  0  0  0  0  0  0  0  0  0
  -27.6245  -31.3406   18.5220 C   0  0  0  0  0  0  0  0  0  0  0  0
  -32.7634  -21.3880   19.4495 C   0  0  0  0  0  0  0  0  0  0  0  0
  -28.1449  -29.4358   16.9369 C   0  0  0  0  0  0  0  0  0  0  0  0
  -27.6815  -28.9384   19.3048 C   0  0  0  0  0  0  0  0  0  0  0  0
  -24.7590  -10.2027   21.3173 C   0  0  1  0  0  0  0  0  0  0  0  0
  -24.3985  -13.9623   21.7282 C   0  0  1  0  0  0  0  0  0  0  0  0
  -27.9325  -30.4015   19.7047 C   0  0  2  0  0  0  0  0  0  0  0  0
  -30.9323  -22.6334   17.0501 C   0  0  0  0  0  0  0  0  0  0  0  0
  -29.1275  -20.8298   20.6562 C   0  0  0  0  0  0  0  0  0  0  0  0
  -20.4427  -18.9640   17.3307 C   0  0  0  0  0  0  0  0  0  0  0  0
  -23.4434  -13.0593   17.2973 C   0  0  0  0  0  0  0  0  0  0  0  0
  -22.3741  -14.9294   16.0216 C   0  0  0  0  0  0  0  0  0  0  0  0
  -21.0448  -13.6442   17.6961 C   0  0  0  0  0  0  0  0  0  0  0  0
  -22.2048  -19.7274   20.6153 C   0  0  0  0  0  0  0  0  0  0  0  0
  -30.6378  -24.0125   23.0457 C   0  0  0  0  0  0  0  0  0  0  0  0
  -30.4470  -18.2555   21.4911 C   0  0  0  0  0  0  0  0  0  1  0  0
  -22.8182  -15.2586   18.4966 C   0  0  1  0  0  0  0  0  0  0  0  0
  -21.0973  -18.6321   18.6627 C   0  0  2  0  0  0  0  0  0  0  0  0
  -22.4424  -14.2279   17.3949 C   0  0  0  0  0  0  0  0  0  0  0  0
  -25.9626  -30.2211   21.1772 N   0  0  0  0  0  0  0  0  0  0  0  0
  -27.1577  -30.7921   20.9493 N   0  0  0  0  0  0  0  0  0  0  0  0
  -31.3219  -21.5351   19.6876 N   0  0  0  0  0  0  0  0  0  0  0  0
  -24.1718  -14.7234   20.4979 N   0  0  0  0  0  0  0  0  0  0  0  0
  -28.4610  -28.6065   18.1018 N   0  0  0  0  0  0  0  0  0  0  0  0
  -28.7062  -32.3503   21.8351 N   0  0  0  0  0  0  0  0  0  0  0  0
  -25.8937  -33.7758   23.9452 N   0  0  0  0  0  0  0  0  0  0  0  0
  -29.6778  -26.8934   19.1730 N   0  0  0  0  0  0  0  0  0  0  0  0
  -24.3124  -11.5461   21.6180 N   0  0  0  0  0  0  0  0  0  0  0  0
  -21.8732  -16.3620   18.6299 N   0  0  0  0  0  0  0  0  0  0  0  0
  -21.5613  -19.9029   19.2879 N   0  3  0  0  0  0  0  0  0  0  0  0
  -33.0920  -18.0154   20.5927 O   0  0  0  0  0  0  0  0  0  0  0  0
  -26.9360  -32.0981   25.1103 O   0  0  0  0  0  0  0  0  0  0  0  0
  -26.1634  -12.6980   20.7999 O   0  0  0  0  0  0  0  0  0  0  0  0
  -21.9371  -14.0741   20.3532 O   0  0  0  0  0  0  0  0  0  0  0  0
  -23.4042  -18.0576   18.2318 O   0  0  0  0  0  0  0  0  0  0  0  0
  -30.0405  -27.3864   16.9353 O   0  0  0  0  0  0  0  0  0  0  0  0
  -20.6676  -29.3770   24.6126 O   0  0  0  0  0  0  0  0  0  0  0  0
  -30.8788  -23.1447   21.9403 O   0  0  0  0  0  0  0  0  0  0  0  0
  -29.7422  -17.3707   20.6213 O   0  0  0  0  0  0  0  0  0  1  0  0
  -17.0447  -26.6897   21.4413 F   0  0  0  0  0  0  0  0  0  0  0  0
  -18.1714  -30.4455   24.0928 F   0  0  0  0  0  0  0  0  0  0  0  0
  1  2  1  0  0  0  0
  1  5  2  0  0  0  0
  2  6  2  0  0  0  0
  3  8  2  0  0  0  0
  3 17  1  0  0  0  0
  4  9  1  0  0  0  0
  4 17  2  0  0  0  0
  5 19  1  0  0  0  0
  6 21  1  0  0  0  0
  7 10  2  0  0  0  0
  7 20  1  0  0  0  0
  8 26  1  0  0  0  0
  9 26  2  0  0  0  0
 10 27  1  0  0  0  0
 11 12  2  0  0  0  0
 11 28  1  0  0  0  0
 12 30  1  0  0  0  0
 13 22  1  0  0  0  0
 13 27  2  0  0  0  0
 14 23  2  0  0  0  0
 14 25  1  0  0  0  0
 15 25  2  0  0  0  0
 15 29  1  0  0  0  0
 16 30  2  0  0  0  0
 16 31  1  0  0  0  0
 17 32  1  0  0  0  0
 18 32  1  0  0  0  0
 18 33  2  0  0  0  0
 18 37  1  0  0  0  0
 19 21  2  0  0  0  0
 19 42  1  0  0  0  0
 20 22  2  0  0  0  0
 20 43  1  0  0  0  0
 21 53  1  0  0  0  0
 22 44  1  0  0  0  0
 23 24  1  0  0  0  0
 23 56  1  0  0  0  0
 24 29  2  0  0  0  0
 24 70  1  0  0  0  0
 25 75  1  0  0  0  0
 26 85  1  0  0  0  0
 27 87  1  0  0  0  0
 28 31  2  0  0  0  0
 28 85  1  0  0  0  0
 29 86  1  0  0  0  0
 30 88  1  0  0  0  0
 31 89  1  0  0  0  0
 32 68  2  0  0  0  0
 33 69  1  0  0  0  0
 33 73  1  0  0  0  0
 34 35  2  0  0  0  0
 34 36  1  0  0  0  0
 34 64  1  0  0  0  0
 35 57  1  0  0  0  0
 35 70  1  0  0  0  0
 36 45  1  0  0  0  0
 36 79  2  0  0  0  0
 37 74  1  0  0  0  0
 37 80  2  0  0  0  0
 38 54  1  0  0  0  0
 38 76  1  0  0  0  0
 38 81  2  0  0  0  0
 39 65  1  0  0  0  0
 39 71  1  0  0  0  0
 39 82  2  0  0  0  0
 40 66  1  0  0  0  0
 40 77  1  0  0  0  0
 40 83  2  0  0  0  0
 41 72  1  0  0  0  0
 41 75  1  0  0  0  0
 41 84  2  0  0  0  0
 42 46  1  0  0  0  0
 43 54  1  0  0  0  0
 44 71  1  0  0  0  0
 45 50  1  0  0  0  0
 46 48  1  0  0  0  0
 47 49  1  0  0  0  0
 47 51  1  0  0  0  0
 48 53  1  0  0  0  0
 49 55  1  0  0  0  0
 50 70  1  0  0  0  0
 51 72  1  0  0  0  0
 52 55  1  0  0  0  0
 52 72  1  0  0  0  0
 53 76  1  0  0  0  0
 54 71  1  0  0  0  0
 55 69  1  0  0  0  0
 58 66  1  0  0  0  0
 59 67  1  0  0  0  0
 60 67  1  0  0  0  0
 61 67  1  0  0  0  0
 62 78  1  0  0  0  0
 63 86  1  0  0  0  0
 64 87  1  0  0  0  0
 65 67  1  0  0  0  0
 65 77  1  0  0  0  0
 66 78  1  0  0  0  0
 68 69  1  0  0  0  0
M  CHG  1  78   1
M  ISO  4  41 100  64 101  75 100  87 101
M  END
> <Batch ID>
0107

> <Smiles>
CNC(C)C(=O)NC(C(=O)N1Cc2cc([101O:1][101CH2:1]C3=C(C)N(c4c(C)cc([100NH:0][100C:0](=O)N5CCCC(n6nc(-c7ccc(Oc8ccc(F)cc8F)cc7)c(C(N)=O)c6N)C5)cc4OC)CCC3=O)ccc2CC1C(=O)NC1CCCc2ccccc21)C(C)(C)C

> <Shape>
0.286

> <Color>
0.065

> <Negative vol penalty>
0.000

$$$$

  -OEChem-04052301173D

 87 96  0     1  0  0  0  0  0999 V2000
  -20.6571  -14.4054   18.4703 C   0  0  0  0  0  0  0  0  0  0  0  0
  -21.4718  -15.5330   18.4643 C   0  0  0  0  0  0  0  0  0  0  0  0
  -25.3842  -26.7909   21.1145 C   0  0  0  0  0  0  0  0  0  0  0  0
  -26.0695  -29.0804   20.7599 C   0  0  0  0  0  0  0  0  0  0  0  0
  -20.9480  -13.3412   19.3228 C   0  0  0  0  0  0  0  0  0  0  0  0
  -22.5773  -15.5976   19.3117 C   0  0  0  0  0  0  0  0  0  0  0  0
  -26.7169  -17.3438   16.9752 C   0  0  0  0  0  0  0  0  0  0  0  0
  -29.0510  -22.9007   18.6526 C   0  0  0  0  0  0  0  0  0  0  0  0
  -30.3077  -22.8840   19.2577 C   0  0  0  0  0  0  0  0  0  0  0  0
  -24.4085  -27.2221   22.0132 C   0  0  0  0  0  0  0  0  0  0  0  0
  -25.0937  -29.5116   21.6585 C   0  0  0  0  0  0  0  0  0  0  0  0
  -26.8007  -18.7207   16.7728 C   0  0  0  0  0  0  0  0  0  0  0  0
  -21.3224  -28.5962   21.8694 C   0  0  0  0  0  0  0  0  0  0  0  0
  -20.0479  -28.0405   21.7584 C   0  0  0  0  0  0  0  0  0  0  0  0
  -28.2541  -18.9078   18.6890 C   0  0  0  0  0  0  0  0  0  0  0  0
  -28.0055  -23.0228   20.8272 C   0  0  0  0  0  0  0  0  0  0  0  0
  -20.2206  -27.1936   24.0145 C   0  0  0  0  0  0  0  0  0  0  0  0
  -26.2148  -27.7200   20.4879 C   0  0  0  0  0  0  0  0  0  0  0  0
  -27.0825  -27.1022   18.1699 C   0  0  0  0  0  0  0  0  0  0  0  0
  -22.0631  -13.3887   20.1741 C   0  0  0  0  0  0  0  0  0  0  0  0
  -27.3934  -16.7391   18.0443 C   0  0  0  0  0  0  0  0  0  0  0  0
  -22.8826  -14.5336   20.1774 C   0  0  0  0  0  0  0  0  0  0  0  0
  -28.1793  -17.5228   18.9013 C   0  0  0  0  0  0  0  0  0  0  0  0
  -29.2621  -23.0060   21.4323 C   0  0  0  0  0  0  0  0  0  0  0  0
  -27.8999  -22.9702   19.4373 C   0  0  0  0  0  0  0  0  0  0  0  0
  -30.4132  -22.9366   20.6475 C   0  0  0  0  0  0  0  0  0  0  0  0
  -24.2632  -28.5824   22.2852 C   0  0  0  0  0  0  0  0  0  0  0  0
  -27.5671  -19.5033   17.6314 C   0  0  0  0  0  0  0  0  0  0  0  0
  -22.0461  -28.4506   23.0529 C   0  0  0  0  0  0  0  0  0  0  0  0
  -19.4970  -27.3392   22.8309 C   0  0  0  0  0  0  0  0  0  0  0  0
  -21.4952  -27.7493   24.1255 C   0  0  0  0  0  0  0  0  0  0  0  0
  -27.2233  -27.2752   19.5599 C   0  0  0  0  0  0  0  0  0  0  0  0
  -28.3167  -26.6688   17.7511 C   0  0  0  0  0  0  0  0  0  0  0  0
  -25.3662  -23.0581   19.4789 C   0  0  0  0  0  0  0  0  0  0  0  0
  -25.9384  -27.3143   17.3322 C   0  0  0  0  0  0  0  0  0  0  0  0
  -26.5081  -15.0955   20.6169 C   0  0  0  0  0  0  0  0  0  0  0  0
  -29.7068  -14.7055   20.9889 C   0  0  0  0  0  0  0  0  0  0  0  0
  -32.8584  -15.8491   20.3513 C   0  0  0  0  0  0  0  0  0  0  0  0
  -32.7015  -23.8999   21.0039 C   0  0  0  0  0  0  0  0  0  0  0  0
  -22.3102  -12.2336   21.1120 C   0  0  0  0  0  0  0  0  0  0  0  0
  -27.3143  -15.2490   18.2332 C   0  0  0  0  0  0  0  0  0  0  0  0
  -28.9413  -16.9194   20.0518 C   0  0  0  0  0  0  0  0  0  0  0  0
  -24.2869  -23.0744   18.4224 C   0  0  0  0  0  0  0  0  0  0  0  0
  -23.7149  -12.2238   21.7094 C   0  0  0  0  0  0  0  0  0  0  0  0
  -25.0286  -23.4902   17.1662 C   0  0  0  0  0  0  0  0  0  0  0  0
  -32.9631  -26.8972   18.8497 C   0  0  0  0  0  0  0  0  0  0  0  0
  -24.0909  -13.6140   22.2122 C   0  0  0  0  0  0  0  0  0  0  0  0
  -31.5129  -27.3650   18.7416 C   0  0  0  0  0  0  0  0  0  0  0  0
  -33.2262  -26.1665   20.1629 C   0  0  0  0  0  0  0  0  0  0  0  0
  -30.8468  -25.4861   20.2933 C   0  0  0  0  0  0  0  0  0  0  0  0
  -24.1050  -14.6307   21.0642 C   0  0  1  0  0  0  0  0  0  0  0  0
  -27.6304  -14.8099   19.6596 C   0  0  1  0  0  0  0  0  0  0  0  0
  -30.5461  -26.1897   18.9614 C   0  0  1  0  0  0  0  0  0  0  0  0
  -26.4292  -22.9226   17.3682 C   0  0  2  0  0  0  0  0  0  0  0  0
  -29.3458  -23.0655   22.9230 C   0  0  0  0  0  0  0  0  0  0  0  0
  -32.5906  -20.6308   20.9803 C   0  0  0  0  0  0  0  0  0  0  0  0
  -35.2708  -15.3406   20.8196 C   0  0  0  0  0  0  0  0  0  0  0  0
  -29.3838  -15.7936   23.8211 C   0  0  0  0  0  0  0  0  0  0  0  0
  -31.8603  -16.1542   23.8903 C   0  0  0  0  0  0  0  0  0  0  0  0
  -30.9443  -13.8495   23.6221 C   0  0  0  0  0  0  0  0  0  0  0  0
  -33.4642  -15.5034   17.4751 C   0  0  0  0  0  0  0  0  0  0  0  0
  -26.5222  -21.4885   16.8420 C   0  0  0  0  0  0  0  0  0  1  0  0
  -32.1386  -21.7043   21.9496 C   0  0  0  0  0  0  0  0  0  0  0  0
  -30.8031  -15.4721   21.6884 C   0  0  1  0  0  0  0  0  0  0  0  0
  -34.1075  -15.1393   19.8609 C   0  0  2  0  0  0  0  0  0  0  0  0
  -30.7321  -15.3293   23.2351 C   0  0  0  0  0  0  0  0  0  0  0  0
  -28.4501  -26.9759   19.9951 N   0  0  0  0  0  0  0  0  0  0  0  0
  -29.0914  -26.6105   18.8721 N   0  0  0  0  0  0  0  0  0  0  0  0
  -26.6100  -22.9902   18.8157 N   0  0  0  0  0  0  0  0  0  0  0  0
  -28.8271  -15.4589   20.1987 N   0  0  0  0  0  0  0  0  0  0  0  0
  -32.2611  -25.0890   20.3874 N   0  0  0  0  0  0  0  0  0  0  0  0
  -28.8040  -26.3357   16.5371 N   0  0  0  0  0  0  0  0  0  0  0  0
  -24.7497  -27.7612   17.9253 N   0  0  0  0  0  0  0  0  0  0  0  0
  -25.3127  -14.4900   20.2793 N   0  0  0  0  0  0  0  0  0  0  0  0
  -32.0587  -15.0146   21.1031 N   0  0  0  0  0  0  0  0  0  0  0  0
  -31.7221  -22.9199   21.2538 N   0  0  0  0  0  0  0  0  0  0  0  0
  -34.5065  -15.6585   18.5222 N   0  3  0  0  0  0  0  0  0  0  0  0
  -25.1073  -23.0728   20.6736 O   0  0  0  0  0  0  0  0  0  0  0  0
  -25.9646  -27.0979   16.0969 O   0  0  0  0  0  0  0  0  0  0  0  0
  -26.7119  -15.8110   21.5907 O   0  0  0  0  0  0  0  0  0  0  0  0
  -29.6380  -13.4822   21.1323 O   0  0  0  0  0  0  0  0  0  0  0  0
  -32.6181  -17.0271   20.0962 O   0  0  0  0  0  0  0  0  0  0  0  0
  -33.8763  -23.7430   21.3587 O   0  0  0  0  0  0  0  0  0  0  0  0
  -23.3110  -29.0036   23.1619 O   0  0  0  0  0  0  0  0  0  0  0  0
  -27.6501  -20.8476   17.4365 O   0  0  0  0  0  0  0  0  0  1  0  0
  -18.2724  -26.8069   22.7247 F   0  0  0  0  0  0  0  0  0  0  0  0
  -22.1852  -27.6071   25.2655 F   0  0  0  0  0  0  0  0  0  0  0  0
  1  2  1  0  0  0  0
  1  5  2  0  0  0  0
  2  6  2  0  0  0  0
  3 10  2  0  0  0  0
  3 18  1  0  0  0  0
  4 11  1  0  0  0  0
  4 18  2  0  0  0  0
  5 20  1  0  0  0  0
  6 22  1  0  0  0  0
  7 12  2  0  0  0  0
  7 21  1  0  0  0  0
  8  9  2  0  0  0  0
  8 25  1  0  0  0  0
  9 26  1  0  0  0  0
 10 27  1  0  0  0  0
 11 27  2  0  0  0  0
 12 28  1  0  0  0  0
 13 14  2  0  0  0  0
 13 29  1  0  0  0  0
 14 30  1  0  0  0  0
 15 23  1  0  0  0  0
 15 28  2  0  0  0  0
 16 24  1  0  0  0  0
 16 25  2  0  0  0  0
 17 30  2  0  0  0  0
 17 31  1  0  0  0  0
 18 32  1  0  0  0  0
 19 32  1  0  0  0  0
 19 33  2  0  0  0  0
 19 35  1  0  0  0  0
 20 22  2  0  0  0  0
 20 40  1  0  0  0  0
 21 23  2  0  0  0  0
 21 41  1  0  0  0  0
 22 51  1  0  0  0  0
 23 42  1  0  0  0  0
 24 26  2  0  0  0  0
 24 55  1  0  0  0  0
 25 69  1  0  0  0  0
 26 76  1  0  0  0  0
 27 84  1  0  0  0  0
 28 85  1  0  0  0  0
 29 31  2  0  0  0  0
 29 84  1  0  0  0  0
 30 86  1  0  0  0  0
 31 87  1  0  0  0  0
 32 67  2  0  0  0  0
 33 68  1  0  0  0  0
 33 72  1  0  0  0  0
 34 43  1  0  0  0  0
 34 69  1  0  0  0  0
 34 78  2  0  0  0  0
 35 73  1  0  0  0  0
 35 79  2  0  0  0  0
 36 52  1  0  0  0  0
 36 74  1  0  0  0  0
 36 80  2  0  0  0  0
 37 64  1  0  0  0  0
 37 70  1  0  0  0  0
 37 81  2  0  0  0  0
 38 65  1  0  0  0  0
 38 75  1  0  0  0  0
 38 82  2  0  0  0  0
 39 71  1  0  0  0  0
 39 76  1  0  0  0  0
 39 83  2  0  0  0  0
 40 44  1  0  0  0  0
 41 52  1  0  0  0  0
 42 70  1  0  0  0  0
 43 45  1  0  0  0  0
 44 47  1  0  0  0  0
 45 54  1  0  0  0  0
 46 48  1  0  0  0  0
 46 49  1  0  0  0  0
 47 51  1  0  0  0  0
 48 53  1  0  0  0  0
 49 71  1  0  0  0  0
 50 53  1  0  0  0  0
 50 71  1  0  0  0  0
 51 74  1  0  0  0  0
 52 70  1  0  0  0  0
 53 68  1  0  0  0  0
 54 62  1  0  0  0  0
 54 69  1  0  0  0  0
 56 63  1  0  0  0  0
 57 65  1  0  0  0  0
 58 66  1  0  0  0  0
 59 66  1  0  0  0  0
 60 66  1  0  0  0  0
 61 77  1  0  0  0  0
 62 85  1  0  0  0  0
 63 76  1  0  0  0  0
 64 66  1  0  0  0  0
 64 75  1  0  0  0  0
 65 77  1  0  0  0  0
 67 68  1  0  0  0  0
M  CHG  1  77   1
M  ISO  4  39 100  62 101  76 100  85 101
M  END
> <Batch ID>
0107

> <Smiles>
CC[100N:0](c1ccc(N2C(=O)CCC2[101CH2:1][101O:1]c2ccc3c(c2)CN(C(=O)C(NC(=O)C(C)NC)C(C)(C)C)C(C(=O)NC2CCCc4ccccc42)C3)cc1C)[100C:0](=O)N1CCCC(n2nc(-c3ccc(Oc4ccc(F)cc4F)cc3)c(C(N)=O)c2N)C1

> <Shape>
0.223

> <Color>
0.053

> <Negative vol penalty>
0.000

$$$$

  -OEChem-04052301173D

 86 94  0     1  0  0  0  0  0999 V2000
  -28.4639  -36.9178   22.1618 C   0  0  0  0  0  0  0  0  0  0  0  0
  -28.8204  -35.5794   22.0312 C   0  0  0  0  0  0  0  0  0  0  0  0
  -26.1784  -12.8800   21.4316 C   0  0  0  0  0  0  0  0  0  0  0  0
  -25.9409  -13.3205   19.0680 C   0  0  0  0  0  0  0  0  0  0  0  0
  -27.2164  -37.2580   22.6832 C   0  0  0  0  0  0  0  0  0  0  0  0
  -27.9299  -34.5804   22.4230 C   0  0  0  0  0  0  0  0  0  0  0  0
  -27.1755  -29.0911   19.8145 C   0  0  0  0  0  0  0  0  0  0  0  0
  -24.4279  -19.0612   18.6397 C   0  0  0  0  0  0  0  0  0  0  0  0
  -24.9853  -12.1576   21.4168 C   0  0  0  0  0  0  0  0  0  0  0  0
  -24.7478  -12.5980   19.0532 C   0  0  0  0  0  0  0  0  0  0  0  0
  -27.6619  -27.8248   20.1365 C   0  0  0  0  0  0  0  0  0  0  0  0
  -24.9809  -19.7530   19.7173 C   0  0  0  0  0  0  0  0  0  0  0  0
  -23.9509   -9.0752   20.4883 C   0  0  0  0  0  0  0  0  0  0  0  0
  -23.9270   -7.8494   21.1534 C   0  0  0  0  0  0  0  0  0  0  0  0
  -25.6129  -27.3441   21.3154 C   0  0  0  0  0  0  0  0  0  0  0  0
  -26.4485  -19.4284   17.3671 C   0  0  0  0  0  0  0  0  0  0  0  0
  -22.1642   -8.6637   22.5910 C   0  0  0  0  0  0  0  0  0  0  0  0
  -26.6562  -13.4615   20.2571 C   0  0  0  0  0  0  0  0  0  0  0  0
  -29.1864  -13.7113   20.0486 C   0  0  0  0  0  0  0  0  0  0  0  0
  -26.3064  -36.2626   23.0725 C   0  0  0  0  0  0  0  0  0  0  0  0
  -25.9064  -29.4981   20.2506 C   0  0  0  0  0  0  0  0  0  0  0  0
  -26.6695  -34.9077   22.9513 C   0  0  0  0  0  0  0  0  0  0  0  0
  -25.1117  -28.6151   20.9955 C   0  0  0  0  0  0  0  0  0  0  0  0
  -25.1618  -18.8988   17.4646 C   0  0  0  0  0  0  0  0  0  0  0  0
  -27.0015  -20.1203   18.4447 C   0  0  0  0  0  0  0  0  0  0  0  0
  -24.2700  -12.0166   20.2277 C   0  0  0  0  0  0  0  0  0  0  0  0
  -26.8818  -26.9521   20.8895 C   0  0  0  0  0  0  0  0  0  0  0  0
  -26.2676  -20.2826   19.6198 C   0  0  0  0  0  0  0  0  0  0  0  0
  -23.0815  -10.0954   20.8746 C   0  0  0  0  0  0  0  0  0  0  0  0
  -23.0337   -7.6436   22.2047 C   0  0  0  0  0  0  0  0  0  0  0  0
  -22.1881   -9.8896   21.9259 C   0  0  0  0  0  0  0  0  0  0  0  0
  -27.8883  -14.2083   20.2718 C   0  0  0  0  0  0  0  0  0  0  0  0
  -30.0007  -14.8105   20.1708 C   0  0  0  0  0  0  0  0  0  0  0  0
  -30.0896  -21.5809   16.9832 C   0  0  0  0  0  0  0  0  0  0  0  0
  -28.8602  -21.0773   17.1126 C   0  0  0  0  0  0  0  0  0  0  0  0
  -29.6175  -12.3753   19.7568 C   0  0  0  0  0  0  0  0  0  0  0  0
  -24.8184  -31.8161   22.1340 C   0  0  0  0  0  0  0  0  0  0  0  0
  -26.9937  -23.3323   20.9871 C   0  0  0  0  0  0  0  0  0  0  0  0
  -21.9262  -30.7264   21.1491 C   0  0  0  0  0  0  0  0  0  0  0  0
  -20.0729  -28.1444   19.9059 C   0  0  0  0  0  0  0  0  0  0  0  0
  -29.1937  -20.6258   19.4600 C   0  0  0  0  0  0  0  0  0  0  0  0
  -24.9880  -36.6797   23.6748 C   0  0  0  0  0  0  0  0  0  0  0  0
  -25.3853  -30.8575   19.8723 C   0  0  0  0  0  0  0  0  0  0  0  0
  -23.7342  -28.9963   21.4706 C   0  0  0  0  0  0  0  0  0  0  0  0
  -23.9553  -35.5563   23.7175 C   0  0  0  0  0  0  0  0  0  0  0  0
  -30.2934  -19.0398   22.3694 C   0  0  0  0  0  0  0  0  0  0  0  0
  -24.5838  -34.2735   24.2525 C   0  0  0  0  0  0  0  0  0  0  0  0
  -29.9251  -17.5726   22.1515 C   0  0  0  0  0  0  0  0  0  0  0  0
  -29.1956  -19.9620   21.8514 C   0  0  0  0  0  0  0  0  0  0  0  0
  -28.4864  -18.2825   20.1782 C   0  0  0  0  0  0  0  0  0  0  0  0
  -25.7212  -33.7950   23.3421 C   0  0  1  0  0  0  0  0  0  0  0  0
  -24.2870  -31.3574   20.8056 C   0  0  1  0  0  0  0  0  0  0  0  0
  -29.5692  -17.3053   20.6784 C   0  0  2  0  0  0  0  0  0  0  0  0
  -25.6695  -21.8935   22.5686 C   0  0  0  0  0  0  0  0  0  0  0  0
  -17.7289  -27.5431   19.2415 C   0  0  0  0  0  0  0  0  0  0  0  0
  -21.1601  -30.4712   24.0916 C   0  0  0  0  0  0  0  0  0  0  0  0
  -19.2469  -29.0142   23.3952 C   0  0  0  0  0  0  0  0  0  0  0  0
  -19.3558  -31.3825   22.6191 C   0  0  0  0  0  0  0  0  0  0  0  0
  -20.8776  -27.6179   17.1070 C   0  0  0  0  0  0  0  0  0  0  0  0
  -26.3926  -24.6734   21.3629 C   0  0  0  0  0  0  0  0  0  1  0  0
  -26.0888  -22.1140   21.1263 C   0  0  2  0  0  0  0  0  0  0  0  0
  -20.9524  -29.6832   21.6417 C   0  0  1  0  0  0  0  0  0  0  0  0
  -19.0704  -28.0806   18.7678 C   0  0  2  0  0  0  0  0  0  0  0  0
  -20.2055  -30.1310   22.9297 C   0  0  0  0  0  0  0  0  0  0  0  0
  -27.8740  -15.5211   20.5174 N   0  0  0  0  0  0  0  0  0  0  0  0
  -29.1732  -15.8583   20.4493 N   0  0  0  0  0  0  0  0  0  0  0  0
  -23.2718  -30.3385   21.0805 N   0  0  0  0  0  0  0  0  0  0  0  0
  -28.8832  -19.6736   20.4512 N   0  0  0  0  0  0  0  0  0  0  0  0
  -24.6026  -18.1985   16.3756 N   0  0  0  0  0  0  0  0  0  0  0  0
  -31.3367  -14.9734   20.0662 N   0  0  0  0  0  0  0  0  0  0  0  0
  -28.6496  -11.3656   19.6666 N   0  0  0  0  0  0  0  0  0  0  0  0
  -25.1867  -33.1476   22.1633 N   0  0  0  0  0  0  0  0  0  0  0  0
  -20.0745  -29.3807   20.5165 N   0  0  0  0  0  0  0  0  0  0  0  0
  -28.3389  -20.6638   18.3278 N   0  0  0  0  0  0  0  0  0  0  0  0
  -19.5752  -27.1935   17.6819 N   0  3  0  0  0  0  0  0  0  0  0  0
  -30.8268  -12.0826   19.5974 O   0  0  0  0  0  0  0  0  0  0  0  0
  -24.8877  -31.0212   23.0641 O   0  0  0  0  0  0  0  0  0  0  0  0
  -28.1476  -23.2376   20.5679 O   0  0  0  0  0  0  0  0  0  0  0  0
  -21.5073  -31.8419   20.8301 O   0  0  0  0  0  0  0  0  0  0  0  0
  -20.7810  -27.1915   20.2241 O   0  0  0  0  0  0  0  0  0  0  0  0
  -30.1498  -21.4029   19.5804 O   0  0  0  0  0  0  0  0  0  0  0  0
  -23.1058  -11.3116   20.2129 O   0  0  0  0  0  0  0  0  0  0  0  0
  -27.3544  -25.7158   21.2057 O   0  0  0  0  0  0  0  0  0  1  0  0
  -26.7917  -20.9612   20.6905 O   0  0  0  0  0  0  0  0  0  0  0  0
  -23.0098   -6.4659   22.8423 F   0  0  0  0  0  0  0  0  0  0  0  0
  -21.3497  -10.8654   22.3008 F   0  0  0  0  0  0  0  0  0  0  0  0
  1  2  1  0  0  0  0
  1  5  2  0  0  0  0
  2  6  2  0  0  0  0
  3  9  2  0  0  0  0
  3 18  1  0  0  0  0
  4 10  1  0  0  0  0
  4 18  2  0  0  0  0
  5 20  1  0  0  0  0
  6 22  1  0  0  0  0
  7 11  2  0  0  0  0
  7 21  1  0  0  0  0
  8 12  2  0  0  0  0
  8 24  1  0  0  0  0
  9 26  1  0  0  0  0
 10 26  2  0  0  0  0
 11 27  1  0  0  0  0
 12 28  1  0  0  0  0
 13 14  2  0  0  0  0
 13 29  1  0  0  0  0
 14 30  1  0  0  0  0
 15 23  1  0  0  0  0
 15 27  2  0  0  0  0
 16 24  2  0  0  0  0
 16 25  1  0  0  0  0
 17 30  2  0  0  0  0
 17 31  1  0  0  0  0
 18 32  1  0  0  0  0
 19 32  1  0  0  0  0
 19 33  2  0  0  0  0
 19 36  1  0  0  0  0
 20 22  2  0  0  0  0
 20 42  1  0  0  0  0
 21 23  2  0  0  0  0
 21 43  1  0  0  0  0
 22 51  1  0  0  0  0
 23 44  1  0  0  0  0
 24 69  1  0  0  0  0
 25 28  2  0  0  0  0
 25 74  1  0  0  0  0
 26 82  1  0  0  0  0
 27 83  1  0  0  0  0
 28 84  1  0  0  0  0
 29 31  2  0  0  0  0
 29 82  1  0  0  0  0
 30 85  1  0  0  0  0
 31 86  1  0  0  0  0
 32 65  2  0  0  0  0
 33 66  1  0  0  0  0
 33 70  1  0  0  0  0
 34 35  2  0  0  0  0
 35 74  1  0  0  0  0
 36 71  1  0  0  0  0
 36 76  2  0  0  0  0
 37 52  1  0  0  0  0
 37 72  1  0  0  0  0
 37 77  2  0  0  0  0
 38 60  1  0  0  0  0
 38 61  1  0  0  0  0
 38 78  2  0  0  0  0
 39 62  1  0  0  0  0
 39 67  1  0  0  0  0
 39 79  2  0  0  0  0
 40 63  1  0  0  0  0
 40 73  1  0  0  0  0
 40 80  2  0  0  0  0
 41 68  1  0  0  0  0
 41 74  1  0  0  0  0
 41 81  2  0  0  0  0
 42 45  1  0  0  0  0
 43 52  1  0  0  0  0
 44 67  1  0  0  0  0
 45 47  1  0  0  0  0
 46 48  1  0  0  0  0
 46 49  1  0  0  0  0
 47 51  1  0  0  0  0
 48 53  1  0  0  0  0
 49 68  1  0  0  0  0
 50 53  1  0  0  0  0
 50 68  1  0  0  0  0
 51 72  1  0  0  0  0
 52 67  1  0  0  0  0
 53 66  1  0  0  0  0
 54 61  1  0  0  0  0
 55 63  1  0  0  0  0
 56 64  1  0  0  0  0
 57 64  1  0  0  0  0
 58 64  1  0  0  0  0
 59 75  1  0  0  0  0
 60 83  1  0  0  0  0
 61 84  1  0  0  0  0
 62 64  1  0  0  0  0
 62 73  1  0  0  0  0
 63 75  1  0  0  0  0
 65 66  1  0  0  0  0
M  CHG  1  75   1
M  ISO  4  41 100  60 101  74 100  83 101
M  END
> <Batch ID>
0107

> <Smiles>
C=C[100N:0](c1cc(N)ccc1OC(C)C(=O)[101CH2:1][101O:1]c1ccc2c(c1)CN(C(=O)C(NC(=O)C(C)NC)C(C)(C)C)C(C(=O)NC1CCCc3ccccc31)C2)[100C:0](=O)N1CCCC(n2nc(-c3ccc(Oc4ccc(F)cc4F)cc3)c(C(N)=O)c2N)C1

> <Shape>
0.312

> <Color>
0.080

> <Negative vol penalty>
0.000

$$$$

  -OEChem-04052301173D

 87 96  0     1  0  0  0  0  0999 V2000
  -17.6891  -26.0555   25.8161 C   0  0  0  0  0  0  0  0  0  0  0  0
  -18.5593  -25.0330   25.4519 C   0  0  0  0  0  0  0  0  0  0  0  0
  -27.7011  -18.4149   15.7606 C   0  0  0  0  0  0  0  0  0  0  0  0
  -29.1296  -13.6019   19.7677 C   0  0  0  0  0  0  0  0  0  0  0  0
  -27.8324  -14.7453   21.4550 C   0  0  0  0  0  0  0  0  0  0  0  0
  -17.6203  -27.2173   25.0484 C   0  0  0  0  0  0  0  0  0  0  0  0
  -19.3605  -25.1712   24.3190 C   0  0  0  0  0  0  0  0  0  0  0  0
  -25.0457  -23.0295   23.5467 C   0  0  0  0  0  0  0  0  0  0  0  0
  -26.5875  -18.7222   16.5422 C   0  0  0  0  0  0  0  0  0  0  0  0
  -28.8422  -19.2144   15.8275 C   0  0  0  0  0  0  0  0  0  0  0  0
  -28.1530  -12.6090   19.6897 C   0  0  0  0  0  0  0  0  0  0  0  0
  -26.8558  -13.7524   21.3770 C   0  0  0  0  0  0  0  0  0  0  0  0
  -25.5411  -21.8910   22.9125 C   0  0  0  0  0  0  0  0  0  0  0  0
  -24.2972  -12.9332   19.3269 C   0  0  0  0  0  0  0  0  0  0  0  0
  -22.9640  -13.3402   19.2765 C   0  0  0  0  0  0  0  0  0  0  0  0
  -25.9541  -23.1877   20.9207 C   0  0  0  0  0  0  0  0  0  0  0  0
  -27.7558  -20.6286   17.4574 C   0  0  0  0  0  0  0  0  0  0  0  0
  -22.5139  -12.1175   21.3111 C   0  0  0  0  0  0  0  0  0  0  0  0
  -28.9693  -14.6700   20.6504 C   0  0  0  0  0  0  0  0  0  0  0  0
  -31.3317  -15.5308   21.0816 C   0  0  0  0  0  0  0  0  0  0  0  0
  -18.4280  -27.3739   23.9110 C   0  0  0  0  0  0  0  0  0  0  0  0
  -24.9906  -24.2553   22.8679 C   0  0  0  0  0  0  0  0  0  0  0  0
  -19.3014  -26.3357   23.5346 C   0  0  0  0  0  0  0  0  0  0  0  0
  -25.4600  -24.3408   21.5494 C   0  0  0  0  0  0  0  0  0  0  0  0
  -26.6147  -19.8290   17.3905 C   0  0  0  0  0  0  0  0  0  0  0  0
  -28.8695  -20.3213   16.6758 C   0  0  0  0  0  0  0  0  0  0  0  0
  -27.0161  -12.6843   20.4943 C   0  0  0  0  0  0  0  0  0  0  0  0
  -25.9927  -21.9694   21.5983 C   0  0  0  0  0  0  0  0  0  0  0  0
  -24.7388  -12.1183   20.3693 C   0  0  0  0  0  0  0  0  0  0  0  0
  -22.0724  -12.9324   20.2687 C   0  0  0  0  0  0  0  0  0  0  0  0
  -23.8472  -11.7105   21.3614 C   0  0  0  0  0  0  0  0  0  0  0  0
  -29.9781  -15.6956   20.7318 C   0  0  0  0  0  0  0  0  0  0  0  0
  -31.8612  -16.7962   21.0108 C   0  0  0  0  0  0  0  0  0  0  0  0
  -23.8651  -18.3766   19.1093 C   0  0  0  0  0  0  0  0  0  0  0  0
  -32.2118  -21.5399   15.7918 C   0  0  0  0  0  0  0  0  0  0  0  0
  -30.9029  -21.3126   15.6620 C   0  0  0  0  0  0  0  0  0  0  0  0
  -32.0466  -14.3403   21.4386 C   0  0  0  0  0  0  0  0  0  0  0  0
  -22.6610  -26.2359   21.9996 C   0  0  0  0  0  0  0  0  0  0  0  0
  -25.1359  -28.1236   21.0866 C   0  0  0  0  0  0  0  0  0  0  0  0
  -28.4008  -28.3542   20.1200 C   0  0  0  0  0  0  0  0  0  0  0  0
  -30.4422  -21.6855   18.0017 C   0  0  0  0  0  0  0  0  0  0  0  0
  -18.2843  -28.6280   23.0857 C   0  0  0  0  0  0  0  0  0  0  0  0
  -24.4783  -25.4800   23.5751 C   0  0  0  0  0  0  0  0  0  0  0  0
  -25.4412  -25.6376   20.7835 C   0  0  0  0  0  0  0  0  0  0  0  0
  -23.9181  -17.3677   20.2302 C   0  0  0  0  0  0  0  0  0  0  0  0
  -19.4386  -28.8522   22.1123 C   0  0  0  0  0  0  0  0  0  0  0  0
  -25.4065  -17.2709   20.5517 C   0  0  0  0  0  0  0  0  0  0  0  0
  -30.6668  -21.3968   21.4737 C   0  0  0  0  0  0  0  0  0  0  0  0
  -19.7612  -27.5644   21.3610 C   0  0  0  0  0  0  0  0  0  0  0  0
  -30.6409  -19.8888   21.7211 C   0  0  0  0  0  0  0  0  0  0  0  0
  -29.6946  -21.7862   20.3661 C   0  0  0  0  0  0  0  0  0  0  0  0
  -29.9096  -19.5598   19.3076 C   0  0  0  0  0  0  0  0  0  0  0  0
  -20.2045  -26.4587   22.3265 C   0  0  1  0  0  0  0  0  0  0  0  0
  -23.9910  -26.5630   22.6174 C   0  0  1  0  0  0  0  0  0  0  0  0
  -30.8832  -19.1107   20.4157 C   0  0  2  0  0  0  0  0  0  0  0  0
  -25.9607  -18.6460   20.1922 C   0  0  2  0  0  0  0  0  0  0  0  0
  -30.1298  -30.0260   19.4039 C   0  0  0  0  0  0  0  0  0  0  0  0
  -23.8257  -28.2970   18.3364 C   0  0  0  0  0  0  0  0  0  0  0  0
  -26.0012  -29.1422   17.4303 C   0  0  0  0  0  0  0  0  0  0  0  0
  -24.7854  -30.4498   19.1724 C   0  0  0  0  0  0  0  0  0  0  0  0
  -30.1516  -27.6998   22.4146 C   0  0  0  0  0  0  0  0  0  0  0  0
  -25.4157  -20.1593   18.2316 C   0  0  0  0  0  0  0  0  0  0  0  0
  -25.9363  -19.6018   21.3806 C   0  0  0  0  0  0  0  0  0  1  0  0
  -25.9389  -28.2952   19.8198 C   0  0  1  0  0  0  0  0  0  0  0  0
  -29.5239  -29.2685   20.5751 C   0  0  2  0  0  0  0  0  0  0  0  0
  -25.1365  -29.0210   18.7032 C   0  0  0  0  0  0  0  0  0  0  0  0
  -29.6669  -16.9656   20.4592 N   0  0  0  0  0  0  0  0  0  0  0  0
  -30.8325  -17.6103   20.6377 N   0  0  0  0  0  0  0  0  0  0  0  0
  -25.0692  -19.0772   19.1304 N   0  0  0  0  0  0  0  0  0  0  0  0
  -24.9252  -26.8057   21.5161 N   0  0  0  0  0  0  0  0  0  0  0  0
  -29.9543  -21.0223   19.1453 N   0  0  0  0  0  0  0  0  0  0  0  0
  -33.1016  -17.2807   21.2319 N   0  0  0  0  0  0  0  0  0  0  0  0
  -32.0961  -13.9705   22.7896 N   0  0  0  0  0  0  0  0  0  0  0  0
  -21.5760  -26.6675   22.7385 N   0  0  0  0  0  0  0  0  0  0  0  0
  -27.1716  -28.9729   20.2066 N   0  0  0  0  0  0  0  0  0  0  0  0
  -30.0548  -21.1508   16.7455 N   0  0  0  0  0  0  0  0  0  0  0  0
  -30.6025  -28.4769   21.2315 N   0  3  0  0  0  0  0  0  0  0  0  0
  -22.9078  -18.5400   18.3676 O   0  0  0  0  0  0  0  0  0  0  0  0
  -32.6382  -13.6347   20.5868 O   0  0  0  0  0  0  0  0  0  0  0  0
  -22.6220  -25.6375   20.9309 O   0  0  0  0  0  0  0  0  0  0  0  0
  -24.7173  -29.1224   21.6772 O   0  0  0  0  0  0  0  0  0  0  0  0
  -28.5949  -27.2071   19.7236 O   0  0  0  0  0  0  0  0  0  0  0  0
  -31.1543  -22.6943   18.0883 O   0  0  0  0  0  0  0  0  0  0  0  0
  -26.0629  -11.7157   20.4183 O   0  0  0  0  0  0  0  0  0  0  0  0
  -26.4761  -20.8595   20.9767 O   0  0  0  0  0  0  0  0  0  1  0  0
  -20.7925  -13.3246   20.2210 F   0  0  0  0  0  0  0  0  0  0  0  0
  -24.2658  -10.9286   22.3660 F   0  0  0  0  0  0  0  0  0  0  0  0
  1  2  1  0  0  0  0
  1  6  2  0  0  0  0
  2  7  2  0  0  0  0
  3  9  1  0  0  0  0
  3 10  2  0  0  0  0
  4 11  2  0  0  0  0
  4 19  1  0  0  0  0
  5 12  1  0  0  0  0
  5 19  2  0  0  0  0
  6 21  1  0  0  0  0
  7 23  1  0  0  0  0
  8 13  2  0  0  0  0
  8 22  1  0  0  0  0
  9 25  2  0  0  0  0
 10 26  1  0  0  0  0
 11 27  1  0  0  0  0
 12 27  2  0  0  0  0
 13 28  1  0  0  0  0
 14 15  2  0  0  0  0
 14 29  1  0  0  0  0
 15 30  1  0  0  0  0
 16 24  1  0  0  0  0
 16 28  2  0  0  0  0
 17 25  1  0  0  0  0
 17 26  2  0  0  0  0
 18 30  2  0  0  0  0
 18 31  1  0  0  0  0
 19 32  1  0  0  0  0
 20 32  1  0  0  0  0
 20 33  2  0  0  0  0
 20 37  1  0  0  0  0
 21 23  2  0  0  0  0
 21 42  1  0  0  0  0
 22 24  2  0  0  0  0
 22 43  1  0  0  0  0
 23 53  1  0  0  0  0
 24 44  1  0  0  0  0
 25 62  1  0  0  0  0
 26 76  1  0  0  0  0
 27 84  1  0  0  0  0
 28 85  1  0  0  0  0
 29 31  2  0  0  0  0
 29 84  1  0  0  0  0
 30 86  1  0  0  0  0
 31 87  1  0  0  0  0
 32 67  2  0  0  0  0
 33 68  1  0  0  0  0
 33 72  1  0  0  0  0
 34 45  1  0  0  0  0
 34 69  1  0  0  0  0
 34 78  2  0  0  0  0
 35 36  2  0  0  0  0
 36 76  1  0  0  0  0
 37 73  1  0  0  0  0
 37 79  2  0  0  0  0
 38 54  1  0  0  0  0
 38 74  1  0  0  0  0
 38 80  2  0  0  0  0
 39 64  1  0  0  0  0
 39 70  1  0  0  0  0
 39 81  2  0  0  0  0
 40 65  1  0  0  0  0
 40 75  1  0  0  0  0
 40 82  2  0  0  0  0
 41 71  1  0  0  0  0
 41 76  1  0  0  0  0
 41 83  2  0  0  0  0
 42 46  1  0  0  0  0
 43 54  1  0  0  0  0
 44 70  1  0  0  0  0
 45 47  1  0  0  0  0
 46 49  1  0  0  0  0
 47 56  1  0  0  0  0
 48 50  1  0  0  0  0
 48 51  1  0  0  0  0
 49 53  1  0  0  0  0
 50 55  1  0  0  0  0
 51 71  1  0  0  0  0
 52 55  1  0  0  0  0
 52 71  1  0  0  0  0
 53 74  1  0  0  0  0
 54 70  1  0  0  0  0
 55 68  1  0  0  0  0
 56 63  1  0  0  0  0
 56 69  1  0  0  0  0
 57 65  1  0  0  0  0
 58 66  1  0  0  0  0
 59 66  1  0  0  0  0
 60 66  1  0  0  0  0
 61 77  1  0  0  0  0
 62 69  1  0  0  0  0
 63 85  1  0  0  0  0
 64 66  1  0  0  0  0
 64 75  1  0  0  0  0
 65 77  1  0  0  0  0
 67 68  1  0  0  0  0
M  CHG  1  77   1
M  ISO  4  41 100  63 101  76 100  85 101
M  END
> <Batch ID>
0107

> <Smiles>
C=C[100N:0](c1cccc(CN2C(=O)CCC2[101CH2:1][101O:1]c2ccc3c(c2)CN(C(=O)C(NC(=O)C(C)NC)C(C)(C)C)C(C(=O)NC2CCCc4ccccc42)C3)c1)[100C:0](=O)N1CCCC(n2nc(-c3ccc(Oc4ccc(F)cc4F)cc3)c(C(N)=O)c2N)C1

> <Shape>
0.211

> <Color>
0.061

> <Negative vol penalty>
0.000

$$$$

  -OEChem-04052301173D

 86 94  0     1  0  0  0  0  0999 V2000
  -22.9351  -32.3842   14.2682 C   0  0  0  0  0  0  0  0  0  0  0  0
  -23.9179  -31.6196   14.8886 C   0  0  0  0  0  0  0  0  0  0  0  0
  -23.0269  -24.0075   24.5468 C   0  0  0  0  0  0  0  0  0  0  0  0
  -24.0070  -23.2111   22.4871 C   0  0  0  0  0  0  0  0  0  0  0  0
  -22.4492  -33.5324   14.8923 C   0  0  0  0  0  0  0  0  0  0  0  0
  -24.4162  -32.0034   16.1330 C   0  0  0  0  0  0  0  0  0  0  0  0
  -24.8075  -28.1141   19.3526 C   0  0  0  0  0  0  0  0  0  0  0  0
  -22.5196  -25.1199   23.8753 C   0  0  0  0  0  0  0  0  0  0  0  0
  -23.4996  -24.3235   21.8156 C   0  0  0  0  0  0  0  0  0  0  0  0
  -25.8962  -27.2588   19.1884 C   0  0  0  0  0  0  0  0  0  0  0  0
  -19.9152  -25.8256   21.8377 C   0  0  0  0  0  0  0  0  0  0  0  0
  -18.5922  -26.1877   22.0908 C   0  0  0  0  0  0  0  0  0  0  0  0
  -27.0436  -28.3838   20.9876 C   0  0  0  0  0  0  0  0  0  0  0  0
  -29.5459  -17.1549   19.1050 C   0  0  0  0  0  0  0  0  0  0  0  0
  -19.3345  -28.3466   22.8816 C   0  0  0  0  0  0  0  0  0  0  0  0
  -23.7707  -23.0531   23.8527 C   0  0  0  0  0  0  0  0  0  0  0  0
  -25.1926  -21.9024   25.6308 C   0  0  0  0  0  0  0  0  0  0  0  0
  -22.9349  -33.9251   16.1495 C   0  0  0  0  0  0  0  0  0  0  0  0
  -24.8332  -29.1195   20.3298 C   0  0  0  0  0  0  0  0  0  0  0  0
  -23.9374  -33.1587   16.7740 C   0  0  0  0  0  0  0  0  0  0  0  0
  -25.9530  -29.2490   21.1638 C   0  0  0  0  0  0  0  0  0  0  0  0
  -28.6728  -16.0838   19.4523 C   0  0  0  0  0  0  0  0  0  0  0  0
  -22.7559  -25.2779   22.5098 C   0  0  0  0  0  0  0  0  0  0  0  0
  -27.0157  -27.3954   20.0041 C   0  0  0  0  0  0  0  0  0  0  0  0
  -20.9479  -26.7238   22.1067 C   0  0  0  0  0  0  0  0  0  0  0  0
  -18.3018  -27.4483   22.6127 C   0  0  0  0  0  0  0  0  0  0  0  0
  -20.6575  -27.9844   22.6286 C   0  0  0  0  0  0  0  0  0  0  0  0
  -24.2955  -21.9042   24.5459 C   0  0  0  0  0  0  0  0  0  0  0  0
  -27.9775  -16.3387   20.6138 C   0  0  0  0  0  0  0  0  0  0  0  0
  -29.4843  -18.1880   20.0144 C   0  0  0  0  0  0  0  0  0  0  0  0
  -25.3769  -20.5728   25.9217 C   0  0  0  0  0  0  0  0  0  0  0  0
  -25.8044  -23.0041   26.3146 C   0  0  0  0  0  0  0  0  0  0  0  0
  -26.9781  -15.4931   21.3160 C   0  0  0  0  0  0  0  0  0  0  0  0
  -24.6961  -32.2948   20.2855 C   0  0  0  0  0  0  0  0  0  0  0  0
  -24.5924  -31.9466   23.5090 C   0  0  0  0  0  0  0  0  0  0  0  0
  -29.6426  -21.8915   20.0300 C   0  0  0  0  0  0  0  0  0  0  0  0
  -25.3044  -30.0283   26.2402 C   0  0  0  0  0  0  0  0  0  0  0  0
  -24.9448  -15.5810   22.7236 C   0  0  0  0  0  0  0  0  0  0  0  0
  -22.4130  -35.2000   16.7635 C   0  0  0  0  0  0  0  0  0  0  0  0
  -23.6399  -30.0168   20.5120 C   0  0  0  0  0  0  0  0  0  0  0  0
  -26.0220  -30.2990   22.2413 C   0  0  0  0  0  0  0  0  0  0  0  0
  -22.7255  -35.3317   18.2519 C   0  0  0  0  0  0  0  0  0  0  0  0
  -23.1444  -16.3384   25.6701 C   0  0  0  0  0  0  0  0  0  0  0  0
  -24.1850  -34.9814   18.5239 C   0  0  0  0  0  0  0  0  0  0  0  0
  -23.3282  -17.8504   25.8270 C   0  0  0  0  0  0  0  0  0  0  0  0
  -22.9884  -15.9348   24.2046 C   0  0  0  0  0  0  0  0  0  0  0  0
  -24.2229  -17.9318   23.4654 C   0  0  0  0  0  0  0  0  0  0  0  0
  -24.4854  -33.5287   18.1352 C   0  0  1  0  0  0  0  0  0  0  0  0
  -23.9834  -31.3361   21.1969 C   0  0  1  0  0  0  0  0  0  0  0  0
  -24.4545  -18.3807   24.9173 C   0  0  1  0  0  0  0  0  0  0  0  0
  -28.5392  -14.8452   18.6477 C   0  0  0  0  0  0  0  0  0  0  0  0
  -25.1357  -30.0259   28.7440 C   0  0  0  0  0  0  0  0  0  0  0  0
  -26.9539  -33.8722   23.6675 C   0  0  0  0  0  0  0  0  0  0  0  0
  -27.3358  -33.1004   26.0184 C   0  0  0  0  0  0  0  0  0  0  0  0
  -25.1967  -34.2307   25.4105 C   0  0  0  0  0  0  0  0  0  0  0  0
  -23.5662  -27.6330   26.2367 C   0  0  0  0  0  0  0  0  0  0  0  0
  -30.2403  -19.4851   20.0078 C   0  0  0  0  0  0  0  0  0  0  0  0
  -28.6257  -22.8620   19.4562 C   0  0  0  0  0  0  0  0  0  0  0  0
  -28.8646  -24.2959   19.9154 C   0  0  0  0  0  0  0  0  0  0  0  0
  -27.8082  -25.2450   19.3686 C   0  0  0  0  0  0  0  0  0  1  0  0
  -25.6227  -31.8708   24.6098 C   0  0  1  0  0  0  0  0  0  0  0  0
  -24.4623  -29.6305   27.4390 C   0  0  2  0  0  0  0  0  0  0  0  0
  -26.2771  -33.2499   24.9051 C   0  0  0  0  0  0  0  0  0  0  0  0
  -23.9352  -20.6733   24.1727 N   0  0  0  0  0  0  0  0  0  0  0  0
  -24.6093  -19.8857   25.0279 N   0  0  0  0  0  0  0  0  0  0  0  0
  -24.8328  -31.1563   22.3760 N   0  0  0  0  0  0  0  0  0  0  0  0
  -24.0988  -16.4673   23.4130 N   0  0  0  0  0  0  0  0  0  0  0  0
  -26.1193  -19.9360   26.8522 N   0  0  0  0  0  0  0  0  0  0  0  0
  -27.0384  -23.4776   25.8485 N   0  0  0  0  0  0  0  0  0  0  0  0
  -26.0005  -16.1849   22.0317 N   0  0  0  0  0  0  0  0  0  0  0  0
  -23.9859  -32.6214   19.1461 N   0  0  0  0  0  0  0  0  0  0  0  0
  -29.4088  -20.5931   19.6012 N   0  0  0  0  0  0  0  0  0  0  0  0
  -24.9507  -31.2703   25.7571 N   0  0  0  0  0  0  0  0  0  0  0  0
  -24.2424  -28.1566   27.4514 N   0  3  0  0  0  0  0  0  0  0  0  0
  -25.2803  -23.5419   27.3194 O   0  0  0  0  0  0  0  0  0  0  0  0
  -27.0404  -14.2723   21.1997 O   0  0  0  0  0  0  0  0  0  0  0  0
  -25.8075  -32.7088   20.5941 O   0  0  0  0  0  0  0  0  0  0  0  0
  -23.6069  -32.6746   23.6521 O   0  0  0  0  0  0  0  0  0  0  0  0
  -30.5535  -22.2334   20.7794 O   0  0  0  0  0  0  0  0  0  0  0  0
  -26.1901  -29.3106   25.7808 O   0  0  0  0  0  0  0  0  0  0  0  0
  -24.7960  -14.3553   22.7526 O   0  0  0  0  0  0  0  0  0  0  0  0
  -22.2608  -26.3630   21.8542 O   0  0  0  0  0  0  0  0  0  0  0  0
  -28.0799  -26.5622   19.8456 O   0  0  0  0  0  0  0  0  0  1  0  0
  -17.0312  -27.7965   22.8542 F   0  0  0  0  0  0  0  0  0  0  0  0
  -21.6453  -28.8521   22.8879 F   0  0  0  0  0  0  0  0  0  0  0  0
  -28.3777  -17.8644   21.2805 S   0  0  0  0  0  0  0  0  0  0  0  0
  1  2  1  0  0  0  0
  1  5  2  0  0  0  0
  2  6  2  0  0  0  0
  3  8  2  0  0  0  0
  3 16  1  0  0  0  0
  4  9  1  0  0  0  0
  4 16  2  0  0  0  0
  5 18  1  0  0  0  0
  6 20  1  0  0  0  0
  7 10  2  0  0  0  0
  7 19  1  0  0  0  0
  8 23  1  0  0  0  0
  9 23  2  0  0  0  0
 10 24  1  0  0  0  0
 11 12  2  0  0  0  0
 11 25  1  0  0  0  0
 12 26  1  0  0  0  0
 13 21  1  0  0  0  0
 13 24  2  0  0  0  0
 14 22  1  0  0  0  0
 14 30  2  0  0  0  0
 15 26  2  0  0  0  0
 15 27  1  0  0  0  0
 16 28  1  0  0  0  0
 17 28  1  0  0  0  0
 17 31  2  0  0  0  0
 17 32  1  0  0  0  0
 18 20  2  0  0  0  0
 18 39  1  0  0  0  0
 19 21  2  0  0  0  0
 19 40  1  0  0  0  0
 20 48  1  0  0  0  0
 21 41  1  0  0  0  0
 22 29  2  0  0  0  0
 22 51  1  0  0  0  0
 23 82  1  0  0  0  0
 24 83  1  0  0  0  0
 25 27  2  0  0  0  0
 25 82  1  0  0  0  0
 26 84  1  0  0  0  0
 27 85  1  0  0  0  0
 28 64  2  0  0  0  0
 29 33  1  0  0  0  0
 29 86  1  0  0  0  0
 30 57  1  0  0  0  0
 30 86  1  0  0  0  0
 31 65  1  0  0  0  0
 31 68  1  0  0  0  0
 32 69  1  0  0  0  0
 32 75  2  0  0  0  0
 33 70  1  0  0  0  0
 33 76  2  0  0  0  0
 34 49  1  0  0  0  0
 34 71  1  0  0  0  0
 34 77  2  0  0  0  0
 35 61  1  0  0  0  0
 35 66  1  0  0  0  0
 35 78  2  0  0  0  0
 36 58  1  0  0  0  0
 36 72  1  0  0  0  0
 36 79  2  0  0  0  0
 37 62  1  0  0  0  0
 37 73  1  0  0  0  0
 37 80  2  0  0  0  0
 38 67  1  0  0  0  0
 38 70  1  0  0  0  0
 38 81  2  0  0  0  0
 39 42  1  0  0  0  0
 40 49  1  0  0  0  0
 41 66  1  0  0  0  0
 42 44  1  0  0  0  0
 43 45  1  0  0  0  0
 43 46  1  0  0  0  0
 44 48  1  0  0  0  0
 45 50  1  0  0  0  0
 46 67  1  0  0  0  0
 47 50  1  0  0  0  0
 47 67  1  0  0  0  0
 48 71  1  0  0  0  0
 49 66  1  0  0  0  0
 50 65  1  0  0  0  0
 52 62  1  0  0  0  0
 53 63  1  0  0  0  0
 54 63  1  0  0  0  0
 55 63  1  0  0  0  0
 56 74  1  0  0  0  0
 57 72  1  0  0  0  0
 58 59  1  0  0  0  0
 59 60  1  0  0  0  0
 60 83  1  0  0  0  0
 61 63  1  0  0  0  0
 61 73  1  0  0  0  0
 62 74  1  0  0  0  0
 64 65  1  0  0  0  0
M  CHG  1  74   1
M  ISO  4  38 100  60 101  70 100  83 101
M  END
> <Batch ID>
0107

> <Smiles>
CNC(C)C(=O)NC(C(=O)N1Cc2cc([101O:1][101CH2:1]CCC(=O)NCc3cc(C)c(C(=O)[100NH:0][100C:0](=O)N4CCCC(n5nc(-c6ccc(Oc7ccc(F)cc7F)cc6)c(C(N)=O)c5N)C4)s3)ccc2CC1C(=O)NC1CCCc2ccccc21)C(C)(C)C

> <Shape>
0.236

> <Color>
0.079

> <Negative vol penalty>
0.000

$$$$

  -OEChem-04052301173D

 85 93  0     1  0  0  0  0  0999 V2000
  -32.1408  -27.4935   14.6842 C   0  0  0  0  0  0  0  0  0  0  0  0
  -31.6505  -26.7680   15.7652 C   0  0  0  0  0  0  0  0  0  0  0  0
  -21.7000  -18.1460   20.3733 C   0  0  0  0  0  0  0  0  0  0  0  0
  -23.8543  -19.1489   19.9374 C   0  0  0  0  0  0  0  0  0  0  0  0
  -32.1643  -28.8866   14.7342 C   0  0  0  0  0  0  0  0  0  0  0  0
  -31.1844  -27.4353   16.8974 C   0  0  0  0  0  0  0  0  0  0  0  0
  -26.8035  -25.5488   18.5986 C   0  0  0  0  0  0  0  0  0  0  0  0
  -30.6058  -16.2013   21.0134 C   0  0  0  0  0  0  0  0  0  0  0  0
  -21.2606  -19.3390   20.9470 C   0  0  0  0  0  0  0  0  0  0  0  0
  -23.4149  -20.3420   20.5111 C   0  0  0  0  0  0  0  0  0  0  0  0
  -26.8620  -24.3634   19.3301 C   0  0  0  0  0  0  0  0  0  0  0  0
  -30.4651  -17.5709   21.2373 C   0  0  0  0  0  0  0  0  0  0  0  0
  -22.7425  -23.7650   21.5352 C   0  0  0  0  0  0  0  0  0  0  0  0
  -23.0336  -24.9533   20.8654 C   0  0  0  0  0  0  0  0  0  0  0  0
  -26.6878  -25.6259   21.3783 C   0  0  0  0  0  0  0  0  0  0  0  0
  -29.1500  -15.7454   22.8868 C   0  0  0  0  0  0  0  0  0  0  0  0
  -21.7966  -24.1726   18.9426 C   0  0  0  0  0  0  0  0  0  0  0  0
  -22.9969  -18.0508   19.8686 C   0  0  0  0  0  0  0  0  0  0  0  0
  -23.3550  -16.4387   17.9243 C   0  0  0  0  0  0  0  0  0  0  0  0
  -31.6894  -29.5716   15.8637 C   0  0  0  0  0  0  0  0  0  0  0  0
  -26.6975  -26.7845   19.2529 C   0  0  0  0  0  0  0  0  0  0  0  0
  -31.2029  -28.8388   16.9632 C   0  0  0  0  0  0  0  0  0  0  0  0
  -26.6256  -26.8253   20.6527 C   0  0  0  0  0  0  0  0  0  0  0  0
  -29.9482  -15.2886   21.8381 C   0  0  0  0  0  0  0  0  0  0  0  0
  -29.0093  -17.1149   23.1108 C   0  0  0  0  0  0  0  0  0  0  0  0
  -22.1180  -20.4371   21.0158 C   0  0  0  0  0  0  0  0  0  0  0  0
  -26.8071  -24.4020   20.7203 C   0  0  0  0  0  0  0  0  0  0  0  0
  -29.6669  -18.0277   22.2860 C   0  0  0  0  0  0  0  0  0  0  0  0
  -21.9784  -22.7804   20.9087 C   0  0  0  0  0  0  0  0  0  0  0  0
  -22.5607  -25.1572   19.5691 C   0  0  0  0  0  0  0  0  0  0  0  0
  -21.5054  -22.9842   19.6124 C   0  0  0  0  0  0  0  0  0  0  0  0
  -23.4515  -16.8185   19.2764 C   0  0  0  0  0  0  0  0  0  0  0  0
  -23.9271  -15.1910   17.8764 C   0  0  0  0  0  0  0  0  0  0  0  0
  -22.7980  -17.1502   16.8110 C   0  0  0  0  0  0  0  0  0  0  0  0
  -28.5061  -29.3926   19.4276 C   0  0  0  0  0  0  0  0  0  0  0  0
  -25.9674  -30.5700   21.0681 C   0  0  0  0  0  0  0  0  0  0  0  0
  -23.1995  -29.9430   22.9634 C   0  0  0  0  0  0  0  0  0  0  0  0
  -27.9221  -12.6817   21.7857 C   0  0  0  0  0  0  0  0  0  0  0  0
  -31.7788  -31.0769   15.8906 C   0  0  0  0  0  0  0  0  0  0  0  0
  -26.6086  -28.0522   18.4483 C   0  0  0  0  0  0  0  0  0  0  0  0
  -26.4913  -28.1247   21.4023 C   0  0  0  0  0  0  0  0  0  0  0  0
  -30.9193  -31.7188   16.9767 C   0  0  0  0  0  0  0  0  0  0  0  0
  -24.7105  -11.3125   20.5558 C   0  0  0  0  0  0  0  0  0  0  0  0
  -31.1066  -30.9921   18.3048 C   0  0  0  0  0  0  0  0  0  0  0  0
  -23.9928  -12.5587   20.0400 C   0  0  0  0  0  0  0  0  0  0  0  0
  -25.6849  -11.6445   21.6819 C   0  0  0  0  0  0  0  0  0  0  0  0
  -25.9583  -13.9437   20.8142 C   0  0  0  0  0  0  0  0  0  0  0  0
  -30.6656  -29.5273   18.1991 C   0  0  1  0  0  0  0  0  0  0  0  0
  -27.0190  -29.2912   19.2382 C   0  0  1  0  0  0  0  0  0  0  0  0
  -25.0032  -13.6506   19.6473 C   0  0  2  0  0  0  0  0  0  0  0  0
  -29.8476  -11.8283   19.1816 C   0  0  0  0  0  0  0  0  0  0  0  0
  -21.3470  -31.1089   24.1907 C   0  0  0  0  0  0  0  0  0  0  0  0
  -27.9089  -31.2912   23.3087 C   0  0  0  0  0  0  0  0  0  0  0  0
  -25.9415  -31.5536   24.8346 C   0  0  0  0  0  0  0  0  0  0  0  0
  -26.1718  -33.0267   22.8347 C   0  0  0  0  0  0  0  0  0  0  0  0
  -21.1256  -28.6691   21.2797 C   0  0  0  0  0  0  0  0  0  0  0  0
  -30.0989  -13.8244   21.5981 C   0  0  0  0  0  0  0  0  0  0  0  0
  -28.2129  -21.3188   21.9737 C   0  0  0  0  0  0  0  0  0  0  0  0
  -29.0081  -13.0411   19.5287 C   0  0  0  0  0  0  0  0  0  0  0  0
  -27.6024  -22.1656   20.8679 C   0  0  0  0  0  0  0  0  0  1  0  0
  -28.9955  -20.1384   21.4200 C   0  0  0  0  0  0  0  0  0  0  0  0
  -25.5511  -30.5963   22.5189 C   0  0  1  0  0  0  0  0  0  0  0  0
  -21.7795  -30.4730   22.8787 C   0  0  2  0  0  0  0  0  0  0  0  0
  -26.3978  -31.5924   23.3605 C   0  0  0  0  0  0  0  0  0  0  0  0
  -24.0386  -15.8873   20.0329 N   0  0  0  0  0  0  0  0  0  0  0  0
  -24.3161  -14.9100   19.1531 N   0  0  0  0  0  0  0  0  0  0  0  0
  -26.4146  -29.3375   20.5712 N   0  0  0  0  0  0  0  0  0  0  0  0
  -26.6056  -12.7148   21.2972 N   0  0  0  0  0  0  0  0  0  0  0  0
  -28.1978  -17.5636   24.1757 N   0  0  0  0  0  0  0  0  0  0  0  0
  -24.1303  -14.3176   16.8672 N   0  0  0  0  0  0  0  0  0  0  0  0
  -22.2512  -18.4209   17.0362 N   0  0  0  0  0  0  0  0  0  0  0  0
  -29.2225  -29.4293   18.2465 N   0  0  0  0  0  0  0  0  0  0  0  0
  -24.1188  -30.8737   22.5277 N   0  0  0  0  0  0  0  0  0  0  0  0
  -28.9199  -13.2416   20.9735 N   0  0  0  0  0  0  0  0  0  0  0  0
  -20.8325  -29.3680   22.5574 N   0  3  0  0  0  0  0  0  0  0  0  0
  -22.7708  -16.6664   15.6540 O   0  0  0  0  0  0  0  0  0  0  0  0
  -28.9692  -29.4359   20.5613 O   0  0  0  0  0  0  0  0  0  0  0  0
  -25.8916  -31.6031   20.3983 O   0  0  0  0  0  0  0  0  0  0  0  0
  -23.4667  -28.8174   23.3784 O   0  0  0  0  0  0  0  0  0  0  0  0
  -28.1916  -12.1719   22.8808 O   0  0  0  0  0  0  0  0  0  0  0  0
  -21.6895  -21.6015   21.5753 O   0  0  0  0  0  0  0  0  0  0  0  0
  -26.8647  -23.2465   21.4368 O   0  0  0  0  0  0  0  0  0  1  0  0
  -29.5411  -19.3773   22.4891 O   0  0  0  0  0  0  0  0  0  0  0  0
  -22.8390  -26.2990   18.9265 F   0  0  0  0  0  0  0  0  0  0  0  0
  -20.7699  -22.0425   19.0058 F   0  0  0  0  0  0  0  0  0  0  0  0
  1  2  1  0  0  0  0
  1  5  2  0  0  0  0
  2  6  2  0  0  0  0
  3  9  2  0  0  0  0
  3 18  1  0  0  0  0
  4 10  1  0  0  0  0
  4 18  2  0  0  0  0
  5 20  1  0  0  0  0
  6 22  1  0  0  0  0
  7 11  2  0  0  0  0
  7 21  1  0  0  0  0
  8 12  2  0  0  0  0
  8 24  1  0  0  0  0
  9 26  1  0  0  0  0
 10 26  2  0  0  0  0
 11 27  1  0  0  0  0
 12 28  1  0  0  0  0
 13 14  2  0  0  0  0
 13 29  1  0  0  0  0
 14 30  1  0  0  0  0
 15 23  1  0  0  0  0
 15 27  2  0  0  0  0
 16 24  2  0  0  0  0
 16 25  1  0  0  0  0
 17 30  2  0  0  0  0
 17 31  1  0  0  0  0
 18 32  1  0  0  0  0
 19 32  1  0  0  0  0
 19 33  2  0  0  0  0
 19 34  1  0  0  0  0
 20 22  2  0  0  0  0
 20 39  1  0  0  0  0
 21 23  2  0  0  0  0
 21 40  1  0  0  0  0
 22 48  1  0  0  0  0
 23 41  1  0  0  0  0
 24 57  1  0  0  0  0
 25 28  2  0  0  0  0
 25 69  1  0  0  0  0
 26 81  1  0  0  0  0
 27 82  1  0  0  0  0
 28 83  1  0  0  0  0
 29 31  2  0  0  0  0
 29 81  1  0  0  0  0
 30 84  1  0  0  0  0
 31 85  1  0  0  0  0
 32 65  2  0  0  0  0
 33 66  1  0  0  0  0
 33 70  1  0  0  0  0
 34 71  1  0  0  0  0
 34 76  2  0  0  0  0
 35 49  1  0  0  0  0
 35 72  1  0  0  0  0
 35 77  2  0  0  0  0
 36 62  1  0  0  0  0
 36 67  1  0  0  0  0
 36 78  2  0  0  0  0
 37 63  1  0  0  0  0
 37 73  1  0  0  0  0
 37 79  2  0  0  0  0
 38 68  1  0  0  0  0
 38 74  1  0  0  0  0
 38 80  2  0  0  0  0
 39 42  1  0  0  0  0
 40 49  1  0  0  0  0
 41 67  1  0  0  0  0
 42 44  1  0  0  0  0
 43 45  1  0  0  0  0
 43 46  1  0  0  0  0
 44 48  1  0  0  0  0
 45 50  1  0  0  0  0
 46 68  1  0  0  0  0
 47 50  1  0  0  0  0
 47 68  1  0  0  0  0
 48 72  1  0  0  0  0
 49 67  1  0  0  0  0
 50 66  1  0  0  0  0
 51 59  1  0  0  0  0
 52 63  1  0  0  0  0
 53 64  1  0  0  0  0
 54 64  1  0  0  0  0
 55 64  1  0  0  0  0
 56 75  1  0  0  0  0
 57 74  1  0  0  0  0
 58 60  1  0  0  0  0
 58 61  1  0  0  0  0
 59 74  1  0  0  0  0
 60 82  1  0  0  0  0
 61 83  1  0  0  0  0
 62 64  1  0  0  0  0
 62 73  1  0  0  0  0
 63 75  1  0  0  0  0
 65 66  1  0  0  0  0
M  CHG  1  75   1
M  ISO  4  38 100  60 101  74 100  82 101
M  END
> <Batch ID>
0107

> <Smiles>
CC[100N:0](Cc1ccc(OCC[101CH2:1][101O:1]c2ccc3c(c2)CN(C(=O)C(NC(=O)C(C)NC)C(C)(C)C)C(C(=O)NC2CCCc4ccccc42)C3)c(N)c1)[100C:0](=O)N1CCCC(n2nc(-c3ccc(Oc4ccc(F)cc4F)cc3)c(C(N)=O)c2N)C1

> <Shape>
0.207

> <Color>
0.066

> <Negative vol penalty>
0.000

$$$$

  -OEChem-04052301173D

 89 98  0     1  0  0  0  0  0999 V2000
  -28.5682  -33.6660   25.8531 C   0  0  0  0  0  0  0  0  0  0  0  0
  -28.4169  -32.3384   25.4658 C   0  0  0  0  0  0  0  0  0  0  0  0
  -24.0589  -11.2175   23.7933 C   0  0  0  0  0  0  0  0  0  0  0  0
  -24.0906  -13.6012   24.1860 C   0  0  0  0  0  0  0  0  0  0  0  0
  -27.4705  -34.5255   25.8356 C   0  0  0  0  0  0  0  0  0  0  0  0
  -27.1675  -31.8693   25.0618 C   0  0  0  0  0  0  0  0  0  0  0  0
  -27.4196  -29.0270   20.8782 C   0  0  0  0  0  0  0  0  0  0  0  0
  -23.5497  -11.0129   25.0756 C   0  0  0  0  0  0  0  0  0  0  0  0
  -23.5813  -13.3966   25.4684 C   0  0  0  0  0  0  0  0  0  0  0  0
  -27.8572  -27.7117   21.0274 C   0  0  0  0  0  0  0  0  0  0  0  0
  -20.5589  -11.2498   26.6351 C   0  0  0  0  0  0  0  0  0  0  0  0
  -19.4965  -10.3571   26.7759 C   0  0  0  0  0  0  0  0  0  0  0  0
  -32.0675  -19.5327   21.8147 C   0  0  0  0  0  0  0  0  0  0  0  0
  -32.2005  -17.2810   20.9493 C   0  0  0  0  0  0  0  0  0  0  0  0
  -25.5694  -26.9494   20.9614 C   0  0  0  0  0  0  0  0  0  0  0  0
  -30.0457  -18.3209   21.2845 C   0  0  0  0  0  0  0  0  0  0  0  0
  -20.8361   -8.9961   28.2557 C   0  0  0  0  0  0  0  0  0  0  0  0
  -24.3295  -12.5116   23.3485 C   0  0  0  0  0  0  0  0  0  0  0  0
  -32.8301  -18.4354   21.4146 C   0  0  0  0  0  0  0  0  0  0  0  0
  -24.1224  -12.9286   20.8403 C   0  0  0  0  0  0  0  0  0  0  0  0
  -26.2091  -34.0691   25.4218 C   0  0  0  0  0  0  0  0  0  0  0  0
  -26.0507  -29.3149   20.7802 C   0  0  0  0  0  0  0  0  0  0  0  0
  -26.0516  -32.7231   25.0399 C   0  0  0  0  0  0  0  0  0  0  0  0
  -25.1172  -28.2690   20.8084 C   0  0  0  0  0  0  0  0  0  0  0  0
  -30.6753  -19.4754   21.7498 C   0  0  0  0  0  0  0  0  0  0  0  0
  -30.8083  -17.2237   20.8843 C   0  0  0  0  0  0  0  0  0  0  0  0
  -23.3109  -12.1025   25.9132 C   0  0  0  0  0  0  0  0  0  0  0  0
  -26.9319  -26.6729   21.0720 C   0  0  0  0  0  0  0  0  0  0  0  0
  -21.7601  -11.0156   27.3046 C   0  0  0  0  0  0  0  0  0  0  0  0
  -19.6350   -9.2303   27.5862 C   0  0  0  0  0  0  0  0  0  0  0  0
  -21.8986   -9.8888   28.1149 C   0  0  0  0  0  0  0  0  0  0  0  0
  -24.8561  -12.7235   22.0241 C   0  0  0  0  0  0  0  0  0  0  0  0
  -25.0783  -13.0774   19.8653 C   0  0  0  0  0  0  0  0  0  0  0  0
  -28.6669  -23.6248   20.3069 C   0  0  0  0  0  0  0  0  0  0  0  0
  -28.1890  -24.8732   20.2648 C   0  0  0  0  0  0  0  0  0  1  0  0
  -34.2817  -18.4953   21.4824 C   0  0  0  0  0  0  0  0  0  0  0  0
  -22.7036  -12.9800   20.6399 C   0  0  0  0  0  0  0  0  0  0  0  0
  -23.9826  -30.9963   22.5121 C   0  0  0  0  0  0  0  0  0  0  0  0
  -21.9701  -30.3103   20.0622 C   0  0  0  0  0  0  0  0  0  0  0  0
  -21.1692  -28.2525   17.4602 C   0  0  0  0  0  0  0  0  0  0  0  0
  -30.7760  -14.8745   19.9752 C   0  0  0  0  0  0  0  0  0  0  0  0
  -25.0420  -35.0234   25.4647 C   0  0  0  0  0  0  0  0  0  0  0  0
  -25.5964  -30.7365   20.5927 C   0  0  0  0  0  0  0  0  0  0  0  0
  -23.6376  -28.5231   20.6870 C   0  0  0  0  0  0  0  0  0  0  0  0
  -29.5814  -23.0215   19.2830 C   0  0  0  0  0  0  0  0  0  0  0  0
  -23.8330  -34.5432   24.6659 C   0  0  0  0  0  0  0  0  0  0  0  0
  -29.5497  -11.7558   18.7722 C   0  0  0  0  0  0  0  0  0  0  0  0
  -23.5386  -33.0781   24.9720 C   0  0  0  0  0  0  0  0  0  0  0  0
  -28.1378  -11.6715   19.3569 C   0  0  0  0  0  0  0  0  0  0  0  0
  -30.5279  -12.4127   19.7444 C   0  0  0  0  0  0  0  0  0  0  0  0
  -28.6948  -13.6376   20.8439 C   0  0  0  0  0  0  0  0  0  0  0  0
  -30.3113  -21.9359   20.0583 C   0  0  0  0  0  0  0  0  0  0  0  0
  -24.7177  -32.1832   24.5716 C   0  0  1  0  0  0  0  0  0  0  0  0
  -28.4444  -22.6337   21.4176 C   0  0  1  0  0  0  0  0  0  0  0  0
  -24.1492  -30.9624   21.0192 C   0  0  1  0  0  0  0  0  0  0  0  0
  -27.6599  -13.0420   19.8755 C   0  0  2  0  0  0  0  0  0  0  0  0
  -26.4140  -21.6761   20.3181 C   0  0  0  0  0  0  0  0  0  0  0  0
  -19.4464  -27.9262   15.6649 C   0  0  0  0  0  0  0  0  0  0  0  0
  -20.0194  -29.2142   22.1366 C   0  0  0  0  0  0  0  0  0  0  0  0
  -18.7933  -28.0706   20.2773 C   0  0  0  0  0  0  0  0  0  0  0  0
  -18.9581  -30.5594   20.3150 C   0  0  0  0  0  0  0  0  0  0  0  0
  -23.1816  -28.5588   15.3119 C   0  0  0  0  0  0  0  0  0  0  0  0
  -29.8548  -20.6554   22.1803 C   0  0  0  0  0  0  0  0  0  0  0  0
  -26.9921  -22.2086   21.5899 C   0  0  0  0  0  0  0  0  0  0  0  0
  -21.0072  -29.1900   19.7513 C   0  0  1  0  0  0  0  0  0  0  0  0
  -20.7868  -28.5499   16.0215 C   0  0  2  0  0  0  0  0  0  0  0  0
  -19.7222  -29.2536   20.6243 C   0  0  0  0  0  0  0  0  0  0  0  0
  -26.1763  -12.7398   21.8219 N   0  0  0  0  0  0  0  0  0  0  0  0
  -26.2797  -12.9567   20.4997 N   0  0  0  0  0  0  0  0  0  0  0  0
  -23.2427  -29.9305   20.5116 N   0  0  0  0  0  0  0  0  0  0  0  0
  -30.0109  -13.7086   20.1899 N   0  0  0  0  0  0  0  0  0  0  0  0
  -25.0000  -13.2982   18.5359 N   0  0  0  0  0  0  0  0  0  0  0  0
  -34.8600  -19.6702   21.9540 N   0  0  0  0  0  0  0  0  0  0  0  0
  -21.8654  -12.8075   21.7498 N   0  0  0  0  0  0  0  0  0  0  0  0
  -30.1682  -16.0513   20.4114 N   0  0  0  0  0  0  0  0  0  0  0  0
  -24.7303  -31.9743   23.1396 N   0  0  0  0  0  0  0  0  0  0  0  0
  -20.7577  -29.2529   18.3153 N   0  0  0  0  0  0  0  0  0  0  0  0
  -29.2743  -21.4161   21.0311 N   0  3  2  0  0  0  0  0  0  0  0  0
  -21.8181  -28.0124   15.0897 N   0  3  0  0  0  0  0  0  0  0  0  0
  -34.9876  -17.5389   21.1171 O   0  0  0  0  0  0  0  0  0  0  0  0
  -22.1941  -13.1569   19.5073 O   0  0  0  0  0  0  0  0  0  0  0  0
  -23.2301  -30.1954   23.0543 O   0  0  0  0  0  0  0  0  0  0  0  0
  -21.6088  -31.4793   19.9051 O   0  0  0  0  0  0  0  0  0  0  0  0
  -21.7693  -27.2328   17.7927 O   0  0  0  0  0  0  0  0  0  0  0  0
  -31.8765  -14.8352   19.4189 O   0  0  0  0  0  0  0  0  0  0  0  0
  -22.8137  -11.9033   27.1644 O   0  0  0  0  0  0  0  0  0  0  0  0
  -27.3563  -25.3882   21.2182 O   0  0  0  0  0  0  0  0  0  1  0  0
  -18.6141   -8.3739   27.7225 F   0  0  0  0  0  0  0  0  0  0  0  0
  -23.0497   -9.6591   28.7615 F   0  0  0  0  0  0  0  0  0  0  0  0
  1  2  1  0  0  0  0
  1  5  2  0  0  0  0
  2  6  2  0  0  0  0
  3  8  2  0  0  0  0
  3 18  1  0  0  0  0
  4  9  1  0  0  0  0
  4 18  2  0  0  0  0
  5 21  1  0  0  0  0
  6 23  1  0  0  0  0
  7 10  2  0  0  0  0
  7 22  1  0  0  0  0
  8 27  1  0  0  0  0
  9 27  2  0  0  0  0
 10 28  1  0  0  0  0
 11 12  2  0  0  0  0
 11 29  1  0  0  0  0
 12 30  1  0  0  0  0
 13 19  1  0  0  0  0
 13 25  2  0  0  0  0
 14 19  2  0  0  0  0
 14 26  1  0  0  0  0
 15 24  1  0  0  0  0
 15 28  2  0  0  0  0
 16 25  1  0  0  0  0
 16 26  2  0  0  0  0
 17 30  2  0  0  0  0
 17 31  1  0  0  0  0
 18 32  1  0  0  0  0
 19 36  1  0  0  0  0
 20 32  1  0  0  0  0
 20 33  2  0  0  0  0
 20 37  1  0  0  0  0
 21 23  2  0  0  0  0
 21 42  1  0  0  0  0
 22 24  2  0  0  0  0
 22 43  1  0  0  0  0
 23 53  1  0  0  0  0
 24 44  1  0  0  0  0
 25 63  1  0  0  0  0
 26 75  1  0  0  0  0
 27 86  1  0  0  0  0
 28 87  1  0  0  0  0
 29 31  2  0  0  0  0
 29 86  1  0  0  0  0
 30 88  1  0  0  0  0
 31 89  1  0  0  0  0
 32 68  2  0  0  0  0
 33 69  1  0  0  0  0
 33 72  1  0  0  0  0
 34 35  2  0  0  0  0
 34 45  1  0  0  0  0
 34 54  1  0  0  0  0
 35 87  1  0  0  0  0
 36 73  1  0  0  0  0
 36 80  2  0  0  0  0
 37 74  1  0  0  0  0
 37 81  2  0  0  0  0
 38 55  1  0  0  0  0
 38 76  1  0  0  0  0
 38 82  2  0  0  0  0
 39 65  1  0  0  0  0
 39 70  1  0  0  0  0
 39 83  2  0  0  0  0
 40 66  1  0  0  0  0
 40 77  1  0  0  0  0
 40 84  2  0  0  0  0
 41 71  1  0  0  0  0
 41 75  1  0  0  0  0
 41 85  2  0  0  0  0
 42 46  1  0  0  0  0
 43 55  1  0  0  0  0
 44 70  1  0  0  0  0
 45 52  1  0  0  0  0
 46 48  1  0  0  0  0
 47 49  1  0  0  0  0
 47 50  1  0  0  0  0
 48 53  1  0  0  0  0
 49 56  1  0  0  0  0
 50 71  1  0  0  0  0
 51 56  1  0  0  0  0
 51 71  1  0  0  0  0
 52 78  1  0  0  0  0
 53 76  1  0  0  0  0
 54 64  1  0  0  0  0
 54 78  1  0  0  0  0
 55 70  1  0  0  0  0
 56 69  1  0  0  0  0
 57 64  1  0  0  0  0
 58 66  1  0  0  0  0
 59 67  1  0  0  0  0
 60 67  1  0  0  0  0
 61 67  1  0  0  0  0
 62 79  1  0  0  0  0
 63 78  1  0  0  0  0
 65 67  1  0  0  0  0
 65 77  1  0  0  0  0
 66 79  1  0  0  0  0
 68 69  1  0  0  0  0
M  CHG  2  78   1  79   1
M  ISO  4  35 101  41 100  75 100  87 101
M  END
> <Batch ID>
0107

> <Smiles>
CCC1C(=[101CH:1][101O:1]c2ccc3c(c2)CN(C(=O)C(NC(=O)C(C)NC)C(C)(C)C)C(C(=O)NC2CCCc4ccccc42)C3)CCN1Cc1cc([100NH:0][100C:0](=O)N2CCCC(n3nc(-c4ccc(Oc5ccc(F)cc5F)cc4)c(C(N)=O)c3N)C2)cc(C(N)=O)c1

> <Shape>
0.268

> <Color>
0.086

> <Negative vol penalty>
0.000

$$$$

  -OEChem-04052301173D

 87 95  0     1  0  0  0  0  0999 V2000
  -31.5063  -24.5449   18.6668 C   0  0  0  0  0  0  0  0  0  0  0  0
  -30.1342  -24.3521   18.7926 C   0  0  0  0  0  0  0  0  0  0  0  0
  -28.8877  -16.3336   22.3728 C   0  0  0  0  0  0  0  0  0  0  0  0
  -26.6108  -16.9531   21.8541 C   0  0  0  0  0  0  0  0  0  0  0  0
  -32.1834  -25.3467   19.5847 C   0  0  0  0  0  0  0  0  0  0  0  0
  -29.4387  -24.9602   19.8371 C   0  0  0  0  0  0  0  0  0  0  0  0
  -23.7127  -27.1266   19.6779 C   0  0  0  0  0  0  0  0  0  0  0  0
  -28.6386  -15.0384   21.9192 C   0  0  0  0  0  0  0  0  0  0  0  0
  -26.3617  -15.6578   21.4005 C   0  0  0  0  0  0  0  0  0  0  0  0
  -22.4953  -26.5911   20.0961 C   0  0  0  0  0  0  0  0  0  0  0  0
  -28.4055  -13.4412   18.9480 C   0  0  0  0  0  0  0  0  0  0  0  0
  -29.3587  -12.8503   18.1187 C   0  0  0  0  0  0  0  0  0  0  0  0
  -22.6947  -27.7838   22.1834 C   0  0  0  0  0  0  0  0  0  0  0  0
  -20.2548  -21.9120   25.8719 C   0  0  0  0  0  0  0  0  0  0  0  0
  -21.7650  -22.9784   24.3165 C   0  0  0  0  0  0  0  0  0  0  0  0
  -29.6597  -11.0751   19.7297 C   0  0  0  0  0  0  0  0  0  0  0  0
  -27.8737  -17.2910   22.3403 C   0  0  0  0  0  0  0  0  0  0  0  0
  -28.5991  -19.7198   22.0527 C   0  0  0  0  0  0  0  0  0  0  0  0
  -31.4943  -25.9728   20.6353 C   0  0  0  0  0  0  0  0  0  0  0  0
  -24.4368  -27.9875   20.5150 C   0  0  0  0  0  0  0  0  0  0  0  0
  -30.1075  -25.7701   20.7706 C   0  0  0  0  0  0  0  0  0  0  0  0
  -23.9199  -28.3309   21.7724 C   0  0  0  0  0  0  0  0  0  0  0  0
  -21.2305  -21.9807   26.8663 C   0  0  0  0  0  0  0  0  0  0  0  0
  -22.4734  -22.5483   26.5859 C   0  0  0  0  0  0  0  0  0  0  0  0
  -20.5221  -22.4108   24.5969 C   0  0  0  0  0  0  0  0  0  0  0  0
  -22.7407  -23.0471   25.3109 C   0  0  0  0  0  0  0  0  0  0  0  0
  -27.3756  -14.7004   21.4330 C   0  0  0  0  0  0  0  0  0  0  0  0
  -21.9875  -26.9174   21.3502 C   0  0  0  0  0  0  0  0  0  0  0  0
  -28.0794  -12.8491   20.1682 C   0  0  0  0  0  0  0  0  0  0  0  0
  -29.9858  -11.6672   18.5095 C   0  0  0  0  0  0  0  0  0  0  0  0
  -28.7065  -11.6661   20.5590 C   0  0  0  0  0  0  0  0  0  0  0  0
  -28.1302  -18.6291   22.8092 C   0  0  0  0  0  0  0  0  0  0  0  0
  -28.6748  -20.7546   22.9526 C   0  0  0  0  0  0  0  0  0  0  0  0
  -28.9360  -19.7911   20.6609 C   0  0  0  0  0  0  0  0  0  0  0  0
  -27.2995  -27.8931   21.8934 C   0  0  0  0  0  0  0  0  0  0  0  0
  -19.6019  -24.3519   22.2657 C   0  0  0  0  0  0  0  0  0  0  0  0
  -26.5482  -30.9257   22.7661 C   0  0  0  0  0  0  0  0  0  0  0  0
  -24.1232  -33.2463   23.3834 C   0  0  0  0  0  0  0  0  0  0  0  0
  -25.8468  -21.8914   28.1064 C   0  0  0  0  0  0  0  0  0  0  0  0
  -32.2771  -26.7922   21.6304 C   0  0  0  0  0  0  0  0  0  0  0  0
  -25.7355  -28.5778   20.0383 C   0  0  0  0  0  0  0  0  0  0  0  0
  -24.6485  -29.2667   22.7008 C   0  0  0  0  0  0  0  0  0  0  0  0
  -31.4044  -27.7034   22.4897 C   0  0  0  0  0  0  0  0  0  0  0  0
  -29.3621  -21.6273   27.6063 C   0  0  0  0  0  0  0  0  0  0  0  0
  -30.1970  -26.9387   23.0228 C   0  0  0  0  0  0  0  0  0  0  0  0
  -29.4873  -20.9274   26.2519 C   0  0  0  0  0  0  0  0  0  0  0  0
  -28.1743  -21.0984   28.4072 C   0  0  0  0  0  0  0  0  0  0  0  0
  -27.0083  -20.4318   26.3408 C   0  0  0  0  0  0  0  0  0  0  0  0
  -29.3139  -26.4328   21.8757 C   0  0  1  0  0  0  0  0  0  0  0  0
  -26.6375  -29.0377   21.1796 C   0  0  1  0  0  0  0  0  0  0  0  0
  -28.1586  -20.9708   25.4733 C   0  0  2  0  0  0  0  0  0  0  0  0
  -21.5658  -20.0785   28.4649 C   0  0  0  0  0  0  0  0  0  0  0  0
  -18.7217  -22.1986   21.3401 C   0  0  0  0  0  0  0  0  0  0  0  0
  -23.8153  -35.6263   24.1170 C   0  0  0  0  0  0  0  0  0  0  0  0
  -27.1562  -30.1147   25.6440 C   0  0  0  0  0  0  0  0  0  0  0  0
  -25.9467  -32.1705   26.4052 C   0  0  0  0  0  0  0  0  0  0  0  0
  -27.9963  -32.3802   24.9989 C   0  0  0  0  0  0  0  0  0  0  0  0
  -22.7979  -33.9803   20.8410 C   0  0  0  0  0  0  0  0  0  0  0  0
  -20.9189  -21.4388   28.2230 C   0  0  0  0  0  0  0  0  0  0  0  0
  -23.5175  -22.6195   27.6557 C   0  0  0  0  0  0  0  0  0  0  0  0
  -20.4467  -25.1083   21.2570 C   0  0  0  0  0  0  0  0  0  1  0  0
  -19.7454  -22.8363   22.2642 C   0  0  2  0  0  0  0  0  0  0  0  0
  -25.8501  -31.5566   23.9466 C   0  0  1  0  0  0  0  0  0  0  0  0
  -23.9692  -34.6871   22.9308 C   0  0  2  0  0  0  0  0  0  0  0  0
  -26.7243  -31.5363   25.2322 C   0  0  0  0  0  0  0  0  0  0  0  0
  -27.9228  -18.9419   24.0911 N   0  0  0  0  0  0  0  0  0  0  0  0
  -28.2630  -20.2408   24.1470 N   0  0  0  0  0  0  0  0  0  0  0  0
  -25.9174  -29.8130   22.1918 N   0  0  0  0  0  0  0  0  0  0  0  0
  -26.9455  -21.1686   27.6128 N   0  0  0  0  0  0  0  0  0  0  0  0
  -23.9931  -23.6255   25.0075 N   0  0  0  0  0  0  0  0  0  0  0  0
  -29.0528  -22.0449   22.8308 N   0  0  0  0  0  0  0  0  0  0  0  0
  -28.8000  -18.6349   19.8804 N   0  0  0  0  0  0  0  0  0  0  0  0
  -19.5536  -22.3427   23.6103 N   0  0  0  0  0  0  0  0  0  0  0  0
  -28.5087  -27.5116   21.3442 N   0  0  0  0  0  0  0  0  0  0  0  0
  -25.4490  -32.8921   23.5177 N   0  0  0  0  0  0  0  0  0  0  0  0
  -24.7241  -21.9126   27.2880 N   0  0  0  0  0  0  0  0  0  0  0  0
  -22.7692  -34.8307   22.0588 N   0  3  0  0  0  0  0  0  0  0  0  0
  -29.3612  -20.8445   20.1288 O   0  0  0  0  0  0  0  0  0  0  0  0
  -26.7543  -27.3942   22.8709 O   0  0  0  0  0  0  0  0  0  0  0  0
  -18.8376  -24.9384   23.0325 O   0  0  0  0  0  0  0  0  0  0  0  0
  -27.6103  -31.4069   22.3636 O   0  0  0  0  0  0  0  0  0  0  0  0
  -23.1634  -32.5099   23.6000 O   0  0  0  0  0  0  0  0  0  0  0  0
  -25.8670  -22.4790   29.1932 O   0  0  0  0  0  0  0  0  0  0  0  0
  -27.1323  -13.4366   20.9901 O   0  0  0  0  0  0  0  0  0  0  0  0
  -20.7998  -26.3957   21.7612 O   0  0  0  0  0  0  0  0  0  1  0  0
  -30.9000  -11.0990   17.7123 F   0  0  0  0  0  0  0  0  0  0  0  0
  -28.3966  -11.0919   21.7295 F   0  0  0  0  0  0  0  0  0  0  0  0
  1  2  1  0  0  0  0
  1  5  2  0  0  0  0
  2  6  2  0  0  0  0
  3  8  2  0  0  0  0
  3 17  1  0  0  0  0
  4  9  1  0  0  0  0
  4 17  2  0  0  0  0
  5 19  1  0  0  0  0
  6 21  1  0  0  0  0
  7 10  2  0  0  0  0
  7 20  1  0  0  0  0
  8 27  1  0  0  0  0
  9 27  2  0  0  0  0
 10 28  1  0  0  0  0
 11 12  2  0  0  0  0
 11 29  1  0  0  0  0
 12 30  1  0  0  0  0
 13 22  1  0  0  0  0
 13 28  2  0  0  0  0
 14 23  1  0  0  0  0
 14 25  2  0  0  0  0
 15 25  1  0  0  0  0
 15 26  2  0  0  0  0
 16 30  2  0  0  0  0
 16 31  1  0  0  0  0
 17 32  1  0  0  0  0
 18 32  1  0  0  0  0
 18 33  2  0  0  0  0
 18 34  1  0  0  0  0
 19 21  2  0  0  0  0
 19 40  1  0  0  0  0
 20 22  2  0  0  0  0
 20 41  1  0  0  0  0
 21 49  1  0  0  0  0
 22 42  1  0  0  0  0
 23 24  2  0  0  0  0
 23 59  1  0  0  0  0
 24 26  1  0  0  0  0
 24 60  1  0  0  0  0
 25 73  1  0  0  0  0
 26 70  1  0  0  0  0
 27 84  1  0  0  0  0
 28 85  1  0  0  0  0
 29 31  2  0  0  0  0
 29 84  1  0  0  0  0
 30 86  1  0  0  0  0
 31 87  1  0  0  0  0
 32 66  2  0  0  0  0
 33 67  1  0  0  0  0
 33 71  1  0  0  0  0
 34 72  1  0  0  0  0
 34 78  2  0  0  0  0
 35 50  1  0  0  0  0
 35 74  1  0  0  0  0
 35 79  2  0  0  0  0
 36 61  1  0  0  0  0
 36 62  1  0  0  0  0
 36 80  2  0  0  0  0
 37 63  1  0  0  0  0
 37 68  1  0  0  0  0
 37 81  2  0  0  0  0
 38 64  1  0  0  0  0
 38 75  1  0  0  0  0
 38 82  2  0  0  0  0
 39 69  1  0  0  0  0
 39 76  1  0  0  0  0
 39 83  2  0  0  0  0
 40 43  1  0  0  0  0
 41 50  1  0  0  0  0
 42 68  1  0  0  0  0
 43 45  1  0  0  0  0
 44 46  1  0  0  0  0
 44 47  1  0  0  0  0
 45 49  1  0  0  0  0
 46 51  1  0  0  0  0
 47 69  1  0  0  0  0
 48 51  1  0  0  0  0
 48 69  1  0  0  0  0
 49 74  1  0  0  0  0
 50 68  1  0  0  0  0
 51 67  1  0  0  0  0
 52 59  1  0  0  0  0
 53 62  1  0  0  0  0
 54 64  1  0  0  0  0
 55 65  1  0  0  0  0
 56 65  1  0  0  0  0
 57 65  1  0  0  0  0
 58 77  1  0  0  0  0
 60 76  1  0  0  0  0
 61 85  1  0  0  0  0
 62 73  1  0  0  0  0
 63 65  1  0  0  0  0
 63 75  1  0  0  0  0
 64 77  1  0  0  0  0
 66 67  1  0  0  0  0
M  CHG  1  77   1
M  ISO  4  39 100  61 101  76 100  85 101
M  END
> <Batch ID>
0107

> <Smiles>
CCc1cc(NC(C)C(=O)[101CH2:1][101O:1]c2ccc3c(c2)CN(C(=O)C(NC(=O)C(C)NC)C(C)(C)C)C(C(=O)NC2CCCc4ccccc42)C3)cc(N)c1C[100NH:0][100C:0](=O)N1CCCC(n2nc(-c3ccc(Oc4ccc(F)cc4F)cc3)c(C(N)=O)c2N)C1

> <Shape>
0.234

> <Color>
0.064

> <Negative vol penalty>
0.000

$$$$

  -OEChem-04052301173D

 85 93  0     1  0  0  0  0  0999 V2000
  -30.0589  -35.0666   18.1937 C   0  0  0  0  0  0  0  0  0  0  0  0
  -30.0367  -33.7099   18.5007 C   0  0  0  0  0  0  0  0  0  0  0  0
  -24.7978   -8.8049   21.7226 C   0  0  0  0  0  0  0  0  0  0  0  0
  -23.2756  -10.0324   20.3037 C   0  0  0  0  0  0  0  0  0  0  0  0
  -29.4619  -35.9851   19.0562 C   0  0  0  0  0  0  0  0  0  0  0  0
  -29.4184  -33.2710   19.6709 C   0  0  0  0  0  0  0  0  0  0  0  0
  -26.5008  -29.2009   18.9178 C   0  0  0  0  0  0  0  0  0  0  0  0
  -23.7221   -8.3579   22.4899 C   0  0  0  0  0  0  0  0  0  0  0  0
  -22.1999   -9.5854   21.0710 C   0  0  0  0  0  0  0  0  0  0  0  0
  -27.1436  -27.9690   18.8040 C   0  0  0  0  0  0  0  0  0  0  0  0
  -21.3142   -5.9948   22.2658 C   0  0  0  0  0  0  0  0  0  0  0  0
  -21.2837   -4.6447   22.6150 C   0  0  0  0  0  0  0  0  0  0  0  0
  -26.5962  -27.4779   21.1015 C   0  0  0  0  0  0  0  0  0  0  0  0
  -24.9557  -19.7179   17.4299 C   0  0  0  0  0  0  0  0  0  0  0  0
  -26.8248  -18.6267   18.5037 C   0  0  0  0  0  0  0  0  0  0  0  0
  -21.3124   -5.2490   24.9541 C   0  0  0  0  0  0  0  0  0  0  0  0
  -24.5745   -9.6422   20.6295 C   0  0  0  0  0  0  0  0  0  0  0  0
  -26.2387   -9.4805   18.7029 C   0  0  0  0  0  0  0  0  0  0  0  0
  -28.8275  -35.5563   20.2327 C   0  0  0  0  0  0  0  0  0  0  0  0
  -25.9093  -29.5858   20.1296 C   0  0  0  0  0  0  0  0  0  0  0  0
  -28.8135  -34.1848   20.5506 C   0  0  0  0  0  0  0  0  0  0  0  0
  -25.9443  -28.7141   21.2273 C   0  0  0  0  0  0  0  0  0  0  0  0
  -25.2346  -17.3263   17.2318 C   0  0  0  0  0  0  0  0  0  0  0  0
  -24.5187  -18.4873   16.9399 C   0  0  0  0  0  0  0  0  0  0  0  0
  -26.3877  -17.3960   18.0137 C   0  0  0  0  0  0  0  0  0  0  0  0
  -22.4232   -8.7481   22.1641 C   0  0  0  0  0  0  0  0  0  0  0  0
  -27.1939  -27.1085   19.8968 C   0  0  0  0  0  0  0  0  0  0  0  0
  -21.3438   -6.9720   23.2607 C   0  0  0  0  0  0  0  0  0  0  0  0
  -26.1088  -19.7876   18.2118 C   0  0  0  0  0  0  0  0  0  0  0  0
  -21.2828   -4.2718   23.9591 C   0  0  0  0  0  0  0  0  0  0  0  0
  -21.3429   -6.5991   24.6048 C   0  0  0  0  0  0  0  0  0  0  0  0
  -25.6853  -10.1047   19.8369 C   0  0  0  0  0  0  0  0  0  0  0  0
  -27.2638  -10.3107   18.3199 C   0  0  0  0  0  0  0  0  0  0  0  0
  -25.8600   -8.2596   18.0536 C   0  0  0  0  0  0  0  0  0  0  0  0
  -26.3703  -31.9553   22.1977 C   0  0  0  0  0  0  0  0  0  0  0  0
  -27.5261  -23.5038   19.9121 C   0  0  0  0  0  0  0  0  0  0  0  0
  -23.7204  -30.7220   23.6046 C   0  0  0  0  0  0  0  0  0  0  0  0
  -21.6935  -28.0213   24.0994 C   0  0  0  0  0  0  0  0  0  0  0  0
  -28.2940  -16.1464   19.0866 C   0  0  0  0  0  0  0  0  0  0  0  0
  -28.2372  -36.5911   21.1577 C   0  0  0  0  0  0  0  0  0  0  0  0
  -25.1966  -30.9067   20.2282 C   0  0  0  0  0  0  0  0  0  0  0  0
  -25.3071  -29.0716   22.5444 C   0  0  0  0  0  0  0  0  0  0  0  0
  -27.2759  -36.0076   22.1900 C   0  0  0  0  0  0  0  0  0  0  0  0
  -30.3976  -13.4608   20.1060 C   0  0  0  0  0  0  0  0  0  0  0  0
  -27.8785  -34.7654   22.8385 C   0  0  0  0  0  0  0  0  0  0  0  0
  -29.4799  -12.2377   20.0436 C   0  0  0  0  0  0  0  0  0  0  0  0
  -29.6526  -14.7048   20.5868 C   0  0  0  0  0  0  0  0  0  0  0  0
  -27.5089  -13.7974   19.7804 C   0  0  0  0  0  0  0  0  0  0  0  0
  -28.1310  -33.6674   21.7982 C   0  0  1  0  0  0  0  0  0  0  0  0
  -25.0750  -31.4145   21.6617 C   0  0  1  0  0  0  0  0  0  0  0  0
  -28.1990  -12.5346   19.2394 C   0  0  2  0  0  0  0  0  0  0  0  0
  -24.7649  -16.0054   16.7058 C   0  0  0  0  0  0  0  0  0  0  0  0
  -19.6254  -27.3096   25.3298 C   0  0  0  0  0  0  0  0  0  0  0  0
  -25.3156  -30.5855   26.2021 C   0  0  0  0  0  0  0  0  0  0  0  0
  -23.5736  -29.0326   27.1088 C   0  0  0  0  0  0  0  0  0  0  0  0
  -22.9534  -31.3623   26.4681 C   0  0  0  0  0  0  0  0  0  0  0  0
  -20.2740  -27.3858   21.5815 C   0  0  0  0  0  0  0  0  0  0  0  0
  -27.0241  -22.2890   20.6786 C   0  0  0  0  0  0  0  0  0  0  0  0
  -27.3277  -24.8405   20.5999 C   0  0  0  0  0  0  0  0  0  1  0  0
  -27.2392  -20.9817   19.9299 C   0  0  0  0  0  0  0  0  0  0  0  0
  -23.4594  -29.6720   24.6574 C   0  0  1  0  0  0  0  0  0  0  0  0
  -20.1848  -27.8681   24.0306 C   0  0  2  0  0  0  0  0  0  0  0  0
  -23.8392  -30.1569   26.0850 C   0  0  0  0  0  0  0  0  0  0  0  0
  -26.3074  -11.2434   20.1538 N   0  0  0  0  0  0  0  0  0  0  0  0
  -27.2623  -11.3413   19.2132 N   0  0  0  0  0  0  0  0  0  0  0  0
  -24.6276  -30.3767   22.5928 N   0  0  0  0  0  0  0  0  0  0  0  0
  -28.4532  -14.9258   19.7761 N   0  0  0  0  0  0  0  0  0  0  0  0
  -23.3488  -18.4381   16.1501 N   0  0  0  0  0  0  0  0  0  0  0  0
  -28.1573  -10.2522   17.3096 N   0  0  0  0  0  0  0  0  0  0  0  0
  -24.7842   -7.5300   18.5778 N   0  0  0  0  0  0  0  0  0  0  0  0
  -27.1305  -16.2295   18.3224 N   0  0  0  0  0  0  0  0  0  0  0  0
  -26.8932  -32.9990   21.4583 N   0  0  0  0  0  0  0  0  0  0  0  0
  -22.0603  -29.2854   24.5103 N   0  0  0  0  0  0  0  0  0  0  0  0
  -19.8077  -26.9465   22.9219 N   0  3  0  0  0  0  0  0  0  0  0  0
  -26.4683   -7.8199   17.0485 O   0  0  0  0  0  0  0  0  0  0  0  0
  -26.8585  -31.4631   23.2082 O   0  0  0  0  0  0  0  0  0  0  0  0
  -28.0611  -23.4172   18.8080 O   0  0  0  0  0  0  0  0  0  0  0  0
  -23.1354  -31.8058   23.6733 O   0  0  0  0  0  0  0  0  0  0  0  0
  -22.4690  -27.1095   23.8205 O   0  0  0  0  0  0  0  0  0  0  0  0
  -29.1416  -17.0408   19.1463 O   0  0  0  0  0  0  0  0  0  0  0  0
  -21.3733   -8.3120   22.9125 O   0  0  0  0  0  0  0  0  0  0  0  0
  -27.8212  -25.9057   19.7886 O   0  0  0  0  0  0  0  0  0  1  0  0
  -26.5375  -20.9968   18.6930 O   0  0  0  0  0  0  0  0  0  0  0  0
  -21.2519   -2.9753   24.2943 F   0  0  0  0  0  0  0  0  0  0  0  0
  -21.3701   -7.5335   25.5651 F   0  0  0  0  0  0  0  0  0  0  0  0
  1  2  1  0  0  0  0
  1  5  2  0  0  0  0
  2  6  2  0  0  0  0
  3  8  2  0  0  0  0
  3 17  1  0  0  0  0
  4  9  1  0  0  0  0
  4 17  2  0  0  0  0
  5 19  1  0  0  0  0
  6 21  1  0  0  0  0
  7 10  2  0  0  0  0
  7 20  1  0  0  0  0
  8 26  1  0  0  0  0
  9 26  2  0  0  0  0
 10 27  1  0  0  0  0
 11 12  2  0  0  0  0
 11 28  1  0  0  0  0
 12 30  1  0  0  0  0
 13 22  1  0  0  0  0
 13 27  2  0  0  0  0
 14 24  2  0  0  0  0
 14 29  1  0  0  0  0
 15 25  1  0  0  0  0
 15 29  2  0  0  0  0
 16 30  2  0  0  0  0
 16 31  1  0  0  0  0
 17 32  1  0  0  0  0
 18 32  1  0  0  0  0
 18 33  2  0  0  0  0
 18 34  1  0  0  0  0
 19 21  2  0  0  0  0
 19 40  1  0  0  0  0
 20 22  2  0  0  0  0
 20 41  1  0  0  0  0
 21 49  1  0  0  0  0
 22 42  1  0  0  0  0
 23 24  1  0  0  0  0
 23 25  2  0  0  0  0
 23 52  1  0  0  0  0
 24 68  1  0  0  0  0
 25 71  1  0  0  0  0
 26 81  1  0  0  0  0
 27 82  1  0  0  0  0
 28 31  2  0  0  0  0
 28 81  1  0  0  0  0
 29 83  1  0  0  0  0
 30 84  1  0  0  0  0
 31 85  1  0  0  0  0
 32 64  2  0  0  0  0
 33 65  1  0  0  0  0
 33 69  1  0  0  0  0
 34 70  1  0  0  0  0
 34 75  2  0  0  0  0
 35 50  1  0  0  0  0
 35 72  1  0  0  0  0
 35 76  2  0  0  0  0
 36 58  1  0  0  0  0
 36 59  1  0  0  0  0
 36 77  2  0  0  0  0
 37 61  1  0  0  0  0
 37 66  1  0  0  0  0
 37 78  2  0  0  0  0
 38 62  1  0  0  0  0
 38 73  1  0  0  0  0
 38 79  2  0  0  0  0
 39 67  1  0  0  0  0
 39 71  1  0  0  0  0
 39 80  2  0  0  0  0
 40 43  1  0  0  0  0
 41 50  1  0  0  0  0
 42 66  1  0  0  0  0
 43 45  1  0  0  0  0
 44 46  1  0  0  0  0
 44 47  1  0  0  0  0
 45 49  1  0  0  0  0
 46 51  1  0  0  0  0
 47 67  1  0  0  0  0
 48 51  1  0  0  0  0
 48 67  1  0  0  0  0
 49 72  1  0  0  0  0
 50 66  1  0  0  0  0
 51 65  1  0  0  0  0
 53 62  1  0  0  0  0
 54 63  1  0  0  0  0
 55 63  1  0  0  0  0
 56 63  1  0  0  0  0
 57 74  1  0  0  0  0
 58 60  1  0  0  0  0
 59 82  1  0  0  0  0
 60 83  1  0  0  0  0
 61 63  1  0  0  0  0
 61 73  1  0  0  0  0
 62 74  1  0  0  0  0
 64 65  1  0  0  0  0
M  CHG  1  74   1
M  ISO  4  39 100  59 101  71 100  82 101
M  END
> <Batch ID>
0107

> <Smiles>
CNC(C)C(=O)NC(C(=O)N1Cc2cc([101O:1][101CH2:1]C(=O)CCOc3cc(N)c(C)c([100NH:0][100C:0](=O)N4CCCC(n5nc(-c6ccc(Oc7ccc(F)cc7F)cc6)c(C(N)=O)c5N)C4)c3)ccc2CC1C(=O)NC1CCCc2ccccc21)C(C)(C)C

> <Shape>
0.252

> <Color>
0.106

> <Negative vol penalty>
0.000

$$$$

  -OEChem-04052301173D

 88 97  0     1  0  0  0  0  0999 V2000
  -27.8204  -36.5759   27.2074 C   0  0  0  0  0  0  0  0  0  0  0  0
  -27.7791  -35.1886   27.3023 C   0  0  0  0  0  0  0  0  0  0  0  0
  -23.1317   -9.9935   19.8455 C   0  0  0  0  0  0  0  0  0  0  0  0
  -24.4826   -9.4308   21.7678 C   0  0  0  0  0  0  0  0  0  0  0  0
  -26.8877  -37.2476   26.4183 C   0  0  0  0  0  0  0  0  0  0  0  0
  -26.8042  -34.4722   26.6090 C   0  0  0  0  0  0  0  0  0  0  0  0
  -28.6269  -29.4384   21.7893 C   0  0  0  0  0  0  0  0  0  0  0  0
  -30.4285  -19.4353   21.9565 C   0  0  0  0  0  0  0  0  0  0  0  0
  -30.2459  -20.5034   21.0782 C   0  0  0  0  0  0  0  0  0  0  0  0
  -22.5648   -8.7193   19.8708 C   0  0  0  0  0  0  0  0  0  0  0  0
  -23.9157   -8.1566   21.7932 C   0  0  0  0  0  0  0  0  0  0  0  0
  -28.8932  -28.3144   21.0071 C   0  0  0  0  0  0  0  0  0  0  0  0
  -21.0348   -6.7343   22.8412 C   0  0  0  0  0  0  0  0  0  0  0  0
  -20.6284   -6.2320   24.0773 C   0  0  0  0  0  0  0  0  0  0  0  0
  -26.5309  -28.0513   20.5616 C   0  0  0  0  0  0  0  0  0  0  0  0
  -27.8591  -20.3883   21.4343 C   0  0  0  0  0  0  0  0  0  0  0  0
  -22.1535   -4.3753   23.8243 C   0  0  0  0  0  0  0  0  0  0  0  0
  -24.0906  -10.3492   20.7939 C   0  0  0  0  0  0  0  0  0  0  0  0
  -24.0073  -12.8969   20.8943 C   0  0  0  0  0  0  0  0  0  0  0  0
  -25.9068  -36.5384   25.7073 C   0  0  0  0  0  0  0  0  0  0  0  0
  -27.3113  -29.8827   21.9482 C   0  0  0  0  0  0  0  0  0  0  0  0
  -25.8566  -35.1351   25.8107 C   0  0  0  0  0  0  0  0  0  0  0  0
  -26.2592  -29.1839   21.3338 C   0  0  0  0  0  0  0  0  0  0  0  0
  -29.3263  -18.8436   22.5737 C   0  0  0  0  0  0  0  0  0  0  0  0
  -28.0416  -19.3201   22.3126 C   0  0  0  0  0  0  0  0  0  0  0  0
  -28.9612  -20.9799   20.8171 C   0  0  0  0  0  0  0  0  0  0  0  0
  -22.9567   -7.8008   20.8447 C   0  0  0  0  0  0  0  0  0  0  0  0
  -27.8478  -27.6225   20.3950 C   0  0  0  0  0  0  0  0  0  0  0  0
  -22.0006   -6.0571   22.0965 C   0  0  0  0  0  0  0  0  0  0  0  0
  -21.1877   -5.0525   24.5689 C   0  0  0  0  0  0  0  0  0  0  0  0
  -22.5599   -4.8776   22.5881 C   0  0  0  0  0  0  0  0  0  0  0  0
  -24.6770  -11.6651   20.7679 C   0  0  0  0  0  0  0  0  0  0  0  0
  -25.0022  -13.8395   20.8047 C   0  0  0  0  0  0  0  0  0  0  0  0
  -27.7519  -24.1770   19.3239 C   0  0  0  0  0  0  0  0  0  0  0  0
  -28.1841  -23.2985   20.2611 C   0  0  0  0  0  0  0  0  0  0  0  0
  -27.8693  -23.7848   17.8792 C   0  0  0  0  0  0  0  0  0  0  0  0
  -22.6106  -13.1651   21.0765 C   0  0  0  0  0  0  0  0  0  0  0  0
  -24.9947  -32.4162   23.4617 C   0  0  0  0  0  0  0  0  0  0  0  0
  -23.9828  -31.8705   20.6176 C   0  0  0  0  0  0  0  0  0  0  0  0
  -22.5912  -32.0609   17.5089 C   0  0  0  0  0  0  0  0  0  0  0  0
  -30.0899  -15.6895   22.1605 C   0  0  0  0  0  0  0  0  0  0  0  0
  -24.8906  -37.3116   24.9048 C   0  0  0  0  0  0  0  0  0  0  0  0
  -26.9720  -31.0523   22.8318 C   0  0  0  0  0  0  0  0  0  0  0  0
  -24.8566  -29.6779   21.5609 C   0  0  0  0  0  0  0  0  0  0  0  0
  -28.3303  -22.3860   17.5471 C   0  0  0  0  0  0  0  0  0  0  0  0
  -24.1223  -36.4517   23.9045 C   0  0  0  0  0  0  0  0  0  0  0  0
  -29.8564  -13.3848   19.4567 C   0  0  0  0  0  0  0  0  0  0  0  0
  -23.6445  -35.1624   24.5651 C   0  0  0  0  0  0  0  0  0  0  0  0
  -28.4357  -12.8294   19.5712 C   0  0  0  0  0  0  0  0  0  0  0  0
  -29.3151  -21.8585   18.5757 C   0  0  0  0  0  0  0  0  0  0  0  0
  -30.4763  -13.6363   20.8295 C   0  0  0  0  0  0  0  0  0  0  0  0
  -28.2485  -13.9276   21.8422 C   0  0  0  0  0  0  0  0  0  0  0  0
  -24.8296  -34.3210   25.0540 C   0  0  1  0  0  0  0  0  0  0  0  0
  -25.7881  -31.8831   22.3051 C   0  0  1  0  0  0  0  0  0  0  0  0
  -27.5610  -13.7104   20.4834 C   0  0  2  0  0  0  0  0  0  0  0  0
  -26.8465  -18.7016   22.9605 C   0  0  0  0  0  0  0  0  0  0  0  0
  -28.1432  -23.6780   21.7287 C   0  0  0  0  0  0  0  0  0  0  0  0
  -20.4381  -32.6152   16.3452 C   0  0  0  0  0  0  0  0  0  0  0  0
  -22.8288  -29.1820   21.4802 C   0  0  0  0  0  0  0  0  0  0  0  0
  -21.1880  -29.3625   19.5978 C   0  0  0  0  0  0  0  0  0  0  0  0
  -21.1762  -31.0583   21.4272 C   0  0  0  0  0  0  0  0  0  0  0  0
  -23.8401  -34.2854   16.0086 C   0  0  0  0  0  0  0  0  0  0  0  0
  -29.5467  -17.7007   23.5093 C   0  0  0  0  0  0  0  0  0  0  0  0
  -27.1135  -25.5138   19.5754 C   0  0  0  0  0  0  0  0  0  1  0  0
  -23.0558  -31.0723   19.7363 C   0  0  1  0  0  0  0  0  0  0  0  0
  -21.7750  -33.1493   16.8353 C   0  0  2  0  0  0  0  0  0  0  0  0
  -22.0902  -30.1699   20.5553 C   0  0  0  0  0  0  0  0  0  0  0  0
  -25.9955  -11.8089   20.6099 N   0  0  0  0  0  0  0  0  0  0  0  0
  -26.1622  -13.1422   20.6363 N   0  0  0  0  0  0  0  0  0  0  0  0
  -28.7761  -22.0671   19.9244 N   0  0  0  0  0  0  0  0  0  0  0  0
  -24.8208  -31.1462   21.4742 N   0  0  0  0  0  0  0  0  0  0  0  0
  -29.5980  -14.4793   21.6443 N   0  0  0  0  0  0  0  0  0  0  0  0
  -24.9893  -15.1885   20.8542 N   0  0  0  0  0  0  0  0  0  0  0  0
  -22.1109  -13.2468   22.3834 N   0  0  0  0  0  0  0  0  0  0  0  0
  -25.4495  -33.6284   23.9447 N   0  0  0  0  0  0  0  0  0  0  0  0
  -22.3837  -32.0364   18.8718 N   0  0  0  0  0  0  0  0  0  0  0  0
  -29.1903  -16.4308   22.9167 N   0  0  0  0  0  0  0  0  0  0  0  0
  -22.5159  -33.7047   15.6676 N   0  3  0  0  0  0  0  0  0  0  0  0
  -27.5446  -24.5659   16.9852 O   0  0  0  0  0  0  0  0  0  0  0  0
  -21.8258  -13.3111   20.1089 O   0  0  0  0  0  0  0  0  0  0  0  0
  -24.0389  -31.7766   23.8848 O   0  0  0  0  0  0  0  0  0  0  0  0
  -23.9626  -33.1029   20.5546 O   0  0  0  0  0  0  0  0  0  0  0  0
  -23.3354  -31.3055   16.8876 O   0  0  0  0  0  0  0  0  0  0  0  0
  -31.2436  -16.0829   21.9577 O   0  0  0  0  0  0  0  0  0  0  0  0
  -22.4036   -6.5575   20.8698 O   0  0  0  0  0  0  0  0  0  0  0  0
  -28.1153  -26.5286   19.6291 O   0  0  0  0  0  0  0  0  0  1  0  0
  -20.7984   -4.5711   25.7567 F   0  0  0  0  0  0  0  0  0  0  0  0
  -23.4889   -4.2232   21.8779 F   0  0  0  0  0  0  0  0  0  0  0  0
  1  2  1  0  0  0  0
  1  5  2  0  0  0  0
  2  6  2  0  0  0  0
  3 10  2  0  0  0  0
  3 18  1  0  0  0  0
  4 11  1  0  0  0  0
  4 18  2  0  0  0  0
  5 20  1  0  0  0  0
  6 22  1  0  0  0  0
  7 12  2  0  0  0  0
  7 21  1  0  0  0  0
  8  9  2  0  0  0  0
  8 24  1  0  0  0  0
  9 26  1  0  0  0  0
 10 27  1  0  0  0  0
 11 27  2  0  0  0  0
 12 28  1  0  0  0  0
 13 14  2  0  0  0  0
 13 29  1  0  0  0  0
 14 30  1  0  0  0  0
 15 23  1  0  0  0  0
 15 28  2  0  0  0  0
 16 25  1  0  0  0  0
 16 26  2  0  0  0  0
 17 30  2  0  0  0  0
 17 31  1  0  0  0  0
 18 32  1  0  0  0  0
 19 32  1  0  0  0  0
 19 33  2  0  0  0  0
 19 37  1  0  0  0  0
 20 22  2  0  0  0  0
 20 42  1  0  0  0  0
 21 23  2  0  0  0  0
 21 43  1  0  0  0  0
 22 53  1  0  0  0  0
 23 44  1  0  0  0  0
 24 25  2  0  0  0  0
 24 63  1  0  0  0  0
 25 56  1  0  0  0  0
 26 70  1  0  0  0  0
 27 85  1  0  0  0  0
 28 86  1  0  0  0  0
 29 31  2  0  0  0  0
 29 85  1  0  0  0  0
 30 87  1  0  0  0  0
 31 88  1  0  0  0  0
 32 68  2  0  0  0  0
 33 69  1  0  0  0  0
 33 73  1  0  0  0  0
 34 35  2  0  0  0  0
 34 36  1  0  0  0  0
 34 64  1  0  0  0  0
 35 57  1  0  0  0  0
 35 70  1  0  0  0  0
 36 45  1  0  0  0  0
 36 79  2  0  0  0  0
 37 74  1  0  0  0  0
 37 80  2  0  0  0  0
 38 54  1  0  0  0  0
 38 75  1  0  0  0  0
 38 81  2  0  0  0  0
 39 65  1  0  0  0  0
 39 71  1  0  0  0  0
 39 82  2  0  0  0  0
 40 66  1  0  0  0  0
 40 76  1  0  0  0  0
 40 83  2  0  0  0  0
 41 72  1  0  0  0  0
 41 77  1  0  0  0  0
 41 84  2  0  0  0  0
 42 46  1  0  0  0  0
 43 54  1  0  0  0  0
 44 71  1  0  0  0  0
 45 50  1  0  0  0  0
 46 48  1  0  0  0  0
 47 49  1  0  0  0  0
 47 51  1  0  0  0  0
 48 53  1  0  0  0  0
 49 55  1  0  0  0  0
 50 70  1  0  0  0  0
 51 72  1  0  0  0  0
 52 55  1  0  0  0  0
 52 72  1  0  0  0  0
 53 75  1  0  0  0  0
 54 71  1  0  0  0  0
 55 69  1  0  0  0  0
 58 66  1  0  0  0  0
 59 67  1  0  0  0  0
 60 67  1  0  0  0  0
 61 67  1  0  0  0  0
 62 78  1  0  0  0  0
 63 77  1  0  0  0  0
 64 86  1  0  0  0  0
 65 67  1  0  0  0  0
 65 76  1  0  0  0  0
 66 78  1  0  0  0  0
 68 69  1  0  0  0  0
M  CHG  1  78   1
M  ISO  4  41 100  64 101  77 100  86 101
M  END
> <Batch ID>
0107

> <Smiles>
CNC(C)C(=O)NC(C(=O)N1Cc2cc([101O:1][101CH2:1]C3=C(C)N(c4ccc(C[100NH:0][100C:0](=O)N5CCCC(n6nc(-c7ccc(Oc8ccc(F)cc8F)cc7)c(C(N)=O)c6N)C5)c(C)c4)CCC3=O)ccc2CC1C(=O)NC1CCCc2ccccc21)C(C)(C)C

> <Shape>
0.367

> <Color>
0.182

> <Negative vol penalty>
0.000

$$$$

  -OEChem-04052301173D

 89 98  0     1  0  0  0  0  0999 V2000
  -26.2509  -31.8628   24.1835 C   0  0  0  0  0  0  0  0  0  0  0  0
  -26.5160  -30.5017   24.2949 C   0  0  0  0  0  0  0  0  0  0  0  0
  -19.7633  -23.5561   18.9903 C   0  0  0  0  0  0  0  0  0  0  0  0
  -20.6001  -23.3995   21.2513 C   0  0  0  0  0  0  0  0  0  0  0  0
  -25.6828  -32.3678   23.0147 C   0  0  0  0  0  0  0  0  0  0  0  0
  -26.2122  -29.6445   23.2379 C   0  0  0  0  0  0  0  0  0  0  0  0
  -29.3340  -24.6621   21.5243 C   0  0  0  0  0  0  0  0  0  0  0  0
  -28.3909  -14.4375   20.0246 C   0  0  0  0  0  0  0  0  0  0  0  0
  -28.2247  -15.7047   20.5833 C   0  0  0  0  0  0  0  0  0  0  0  0
  -18.8602  -24.5400   19.3927 C   0  0  0  0  0  0  0  0  0  0  0  0
  -19.6971  -24.3835   21.6537 C   0  0  0  0  0  0  0  0  0  0  0  0
  -29.1435  -23.3038   21.7743 C   0  0  0  0  0  0  0  0  0  0  0  0
  -19.4530  -27.7506   21.5010 C   0  0  0  0  0  0  0  0  0  0  0  0
  -19.9306  -28.7674   22.3278 C   0  0  0  0  0  0  0  0  0  0  0  0
  -27.9908  -23.0838   19.6667 C   0  0  0  0  0  0  0  0  0  0  0  0
  -26.3015  -13.7293   21.0094 C   0  0  0  0  0  0  0  0  0  0  0  0
  -18.3397  -28.1300   24.0307 C   0  0  0  0  0  0  0  0  0  0  0  0
  -20.6333  -22.9858   19.9197 C   0  0  0  0  0  0  0  0  0  0  0  0
  -22.8783  -22.1608   19.0325 C   0  0  0  0  0  0  0  0  0  0  0  0
  -25.3807  -31.5178   21.9391 C   0  0  0  0  0  0  0  0  0  0  0  0
  -28.8440  -25.2447   20.3467 C   0  0  0  0  0  0  0  0  0  0  0  0
  -25.6383  -30.1383   22.0541 C   0  0  0  0  0  0  0  0  0  0  0  0
  -28.1787  -24.4492   19.4029 C   0  0  0  0  0  0  0  0  0  0  0  0
  -26.1354  -14.9965   21.5683 C   0  0  0  0  0  0  0  0  0  0  0  0
  -27.4292  -13.4498   20.2376 C   0  0  0  0  0  0  0  0  0  0  0  0
  -27.0970  -15.9842   21.3552 C   0  0  0  0  0  0  0  0  0  0  0  0
  -18.8271  -24.9537   20.7244 C   0  0  0  0  0  0  0  0  0  0  0  0
  -28.4693  -22.5150   20.8468 C   0  0  0  0  0  0  0  0  0  0  0  0
  -18.4187  -26.9235   21.9390 C   0  0  0  0  0  0  0  0  0  0  0  0
  -19.3740  -28.9571   23.5926 C   0  0  0  0  0  0  0  0  0  0  0  0
  -17.8620  -27.1132   23.2039 C   0  0  0  0  0  0  0  0  0  0  0  0
  -21.5660  -21.9690   19.5047 C   0  0  0  0  0  0  0  0  0  0  0  0
  -23.3393  -20.8929   18.7750 C   0  0  0  0  0  0  0  0  0  0  0  0
  -26.7204  -11.0600   19.7875 C   0  0  0  0  0  0  0  0  0  0  0  0
  -23.6147  -23.3764   18.8437 C   0  0  0  0  0  0  0  0  0  0  0  0
  -26.7295  -27.5232   19.6827 C   0  0  0  0  0  0  0  0  0  0  0  0
  -27.7787  -27.0707   16.6468 C   0  0  0  0  0  0  0  0  0  0  0  0
  -27.8112  -18.3602   21.7890 C   0  0  0  0  0  0  0  0  0  0  0  0
  -29.2441  -24.9968   14.3668 C   0  0  0  0  0  0  0  0  0  0  0  0
  -22.9832  -15.5003   20.8506 C   0  0  0  0  0  0  0  0  0  0  0  0
  -24.7237  -32.1027   20.7139 C   0  0  0  0  0  0  0  0  0  0  0  0
  -29.0811  -26.7058   20.0796 C   0  0  0  0  0  0  0  0  0  0  0  0
  -27.6509  -25.0220   18.1138 C   0  0  0  0  0  0  0  0  0  0  0  0
  -27.3719   -9.8835   19.0967 C   0  0  0  0  0  0  0  0  0  0  0  0
  -24.7776  -31.1834   19.4964 C   0  0  0  0  0  0  0  0  0  0  0  0
  -28.3823  -10.5347   18.1737 C   0  0  0  0  0  0  0  0  0  0  0  0
  -21.2050  -16.5128   17.9369 C   0  0  0  0  0  0  0  0  0  0  0  0
  -24.3784  -29.7626   19.8821 C   0  0  0  0  0  0  0  0  0  0  0  0
  -21.2388  -18.0408   18.0003 C   0  0  0  0  0  0  0  0  0  0  0  0
  -28.7897  -11.7849   18.9250 C   0  0  0  0  0  0  0  0  0  0  0  0
  -21.0705  -15.8932   19.3261 C   0  0  0  0  0  0  0  0  0  0  0  0
  -22.1139  -17.8683   20.3674 C   0  0  0  0  0  0  0  0  0  0  0  0
  -25.3457  -29.1803   20.9197 C   0  0  1  0  0  0  0  0  0  0  0  0
  -28.0894  -27.2999   19.0841 C   0  0  1  0  0  0  0  0  0  0  0  0
  -22.3048  -18.5373   18.9954 C   0  0  2  0  0  0  0  0  0  0  0  0
  -29.9338  -24.8927   11.9562 C   0  0  0  0  0  0  0  0  0  0  0  0
  -24.8656  -26.6686   15.8331 C   0  0  0  0  0  0  0  0  0  0  0  0
  -25.6763  -25.6530   13.6931 C   0  0  0  0  0  0  0  0  0  0  0  0
  -26.2188  -28.0282   14.2285 C   0  0  0  0  0  0  0  0  0  0  0  0
  -32.0912  -24.6127   15.0777 C   0  0  0  0  0  0  0  0  0  0  0  0
  -24.9168  -15.2688   22.3890 C   0  0  0  0  0  0  0  0  0  0  0  0
  -27.2678  -19.5655   22.5479 C   0  0  0  0  0  0  0  0  0  0  0  0
  -28.1691  -20.7873   22.4532 C   0  0  0  0  0  0  0  0  0  1  0  0
  -27.3779  -26.1752   15.4994 C   0  0  1  0  0  0  0  0  0  0  0  0
  -30.3700  -25.2255   13.3746 C   0  0  2  0  0  0  0  0  0  0  0  0
  -26.0428  -26.6205   14.8386 C   0  0  0  0  0  0  0  0  0  0  0  0
  -21.2159  -20.6807   19.5456 N   0  0  0  0  0  0  0  0  0  0  0  0
  -22.3149  -20.0515   19.0958 N   0  0  0  0  0  0  0  0  0  0  0  0
  -27.5980  -12.1549   19.6638 N   0  0  0  0  0  0  0  0  0  0  0  0
  -27.9022  -26.4570   17.9014 N   0  0  0  0  0  0  0  0  0  0  0  0
  -22.1119  -16.4043   20.2207 N   0  0  0  0  0  0  0  0  0  0  0  0
  -24.5169  -20.4268   18.3076 N   0  0  0  0  0  0  0  0  0  0  0  0
  -22.9906  -24.5913   19.1580 N   0  0  0  0  0  0  0  0  0  0  0  0
  -26.9460  -17.2764   21.9120 N   0  0  0  0  0  0  0  0  0  0  0  0
  -26.5751  -28.7580   20.2836 N   0  0  0  0  0  0  0  0  0  0  0  0
  -28.5159  -26.1468   14.5870 N   0  0  0  0  0  0  0  0  0  0  0  0
  -23.9449  -16.0684   21.6770 N   0  0  0  0  0  0  0  0  0  0  0  0
  -31.5437  -24.3736   13.7175 N   0  3  0  0  0  0  0  0  0  0  0  0
  -25.6517  -10.9689   20.3740 O   0  0  0  0  0  0  0  0  0  0  0  0
  -24.7855  -23.3860   18.3936 O   0  0  0  0  0  0  0  0  0  0  0  0
  -25.8824  -26.6412   19.6039 O   0  0  0  0  0  0  0  0  0  0  0  0
  -27.9820  -28.2690   16.4363 O   0  0  0  0  0  0  0  0  0  0  0  0
  -28.8714  -18.4001   21.1735 O   0  0  0  0  0  0  0  0  0  0  0  0
  -29.0296  -23.9060   14.8910 O   0  0  0  0  0  0  0  0  0  0  0  0
  -22.9128  -14.2779   20.6842 O   0  0  0  0  0  0  0  0  0  0  0  0
  -17.9461  -25.9140   21.1173 O   0  0  0  0  0  0  0  0  0  0  0  0
  -28.2814  -21.1891   21.0886 O   0  0  0  0  0  0  0  0  0  1  0  0
  -19.8337  -29.9326   24.3871 F   0  0  0  0  0  0  0  0  0  0  0  0
  -16.8690  -26.3210   23.6306 F   0  0  0  0  0  0  0  0  0  0  0  0
  1  2  1  0  0  0  0
  1  5  2  0  0  0  0
  2  6  2  0  0  0  0
  3 10  2  0  0  0  0
  3 18  1  0  0  0  0
  4 11  1  0  0  0  0
  4 18  2  0  0  0  0
  5 20  1  0  0  0  0
  6 22  1  0  0  0  0
  7 12  2  0  0  0  0
  7 21  1  0  0  0  0
  8  9  2  0  0  0  0
  8 25  1  0  0  0  0
  9 26  1  0  0  0  0
 10 27  1  0  0  0  0
 11 27  2  0  0  0  0
 12 28  1  0  0  0  0
 13 14  2  0  0  0  0
 13 29  1  0  0  0  0
 14 30  1  0  0  0  0
 15 23  1  0  0  0  0
 15 28  2  0  0  0  0
 16 24  1  0  0  0  0
 16 25  2  0  0  0  0
 17 30  2  0  0  0  0
 17 31  1  0  0  0  0
 18 32  1  0  0  0  0
 19 32  1  0  0  0  0
 19 33  2  0  0  0  0
 19 35  1  0  0  0  0
 20 22  2  0  0  0  0
 20 41  1  0  0  0  0
 21 23  2  0  0  0  0
 21 42  1  0  0  0  0
 22 53  1  0  0  0  0
 23 43  1  0  0  0  0
 24 26  2  0  0  0  0
 24 61  1  0  0  0  0
 25 69  1  0  0  0  0
 26 74  1  0  0  0  0
 27 86  1  0  0  0  0
 28 87  1  0  0  0  0
 29 31  2  0  0  0  0
 29 86  1  0  0  0  0
 30 88  1  0  0  0  0
 31 89  1  0  0  0  0
 32 67  2  0  0  0  0
 33 68  1  0  0  0  0
 33 72  1  0  0  0  0
 34 44  1  0  0  0  0
 34 69  1  0  0  0  0
 34 79  2  0  0  0  0
 35 73  1  0  0  0  0
 35 80  2  0  0  0  0
 36 54  1  0  0  0  0
 36 75  1  0  0  0  0
 36 81  2  0  0  0  0
 37 64  1  0  0  0  0
 37 70  1  0  0  0  0
 37 82  2  0  0  0  0
 38 62  1  0  0  0  0
 38 74  1  0  0  0  0
 38 83  2  0  0  0  0
 39 65  1  0  0  0  0
 39 76  1  0  0  0  0
 39 84  2  0  0  0  0
 40 71  1  0  0  0  0
 40 77  1  0  0  0  0
 40 85  2  0  0  0  0
 41 45  1  0  0  0  0
 42 54  1  0  0  0  0
 43 70  1  0  0  0  0
 44 46  1  0  0  0  0
 45 48  1  0  0  0  0
 46 50  1  0  0  0  0
 47 49  1  0  0  0  0
 47 51  1  0  0  0  0
 48 53  1  0  0  0  0
 49 55  1  0  0  0  0
 50 69  1  0  0  0  0
 51 71  1  0  0  0  0
 52 55  1  0  0  0  0
 52 71  1  0  0  0  0
 53 75  1  0  0  0  0
 54 70  1  0  0  0  0
 55 68  1  0  0  0  0
 56 65  1  0  0  0  0
 57 66  1  0  0  0  0
 58 66  1  0  0  0  0
 59 66  1  0  0  0  0
 60 78  1  0  0  0  0
 61 77  1  0  0  0  0
 62 63  1  0  0  0  0
 63 87  1  0  0  0  0
 64 66  1  0  0  0  0
 64 76  1  0  0  0  0
 65 78  1  0  0  0  0
 67 68  1  0  0  0  0
M  CHG  1  78   1
M  ISO  4  40 100  63 101  77 100  87 101
M  END
> <Batch ID>
0107

> <Smiles>
CNC(C)C(=O)NC(C(=O)N1Cc2cc([101O:1][101CH2:1]CC(=O)Nc3ccc(N4CCCC4=O)cc3C[100NH:0][100C:0](=O)N3CCCC(n4nc(-c5ccc(Oc6ccc(F)cc6F)cc5)c(C(N)=O)c4N)C3)ccc2CC1C(=O)NC1CCCc2ccccc21)C(C)(C)C

> <Shape>
0.221

> <Color>
0.050

> <Negative vol penalty>
0.000

$$$$

  -OEChem-04052301173D

 85 93  0     1  0  0  0  0  0999 V2000
  -41.7220  -26.5766   22.3289 C   0  0  0  0  0  0  0  0  0  0  0  0
  -40.3756  -26.2446   22.4405 C   0  0  0  0  0  0  0  0  0  0  0  0
  -23.1526   -9.8659   19.9622 C   0  0  0  0  0  0  0  0  0  0  0  0
  -23.8261   -9.9637   22.2804 C   0  0  0  0  0  0  0  0  0  0  0  0
  -42.4182  -26.2762   21.1589 C   0  0  0  0  0  0  0  0  0  0  0  0
  -39.7244  -25.6129   21.3816 C   0  0  0  0  0  0  0  0  0  0  0  0
  -36.8254  -21.7521   22.9097 C   0  0  0  0  0  0  0  0  0  0  0  0
  -22.4394   -8.6949   20.2188 C   0  0  0  0  0  0  0  0  0  0  0  0
  -23.1129   -8.7928   22.5370 C   0  0  0  0  0  0  0  0  0  0  0  0
  -35.5893  -22.0677   23.4722 C   0  0  0  0  0  0  0  0  0  0  0  0
  -23.5368   -5.4686   22.0881 C   0  0  0  0  0  0  0  0  0  0  0  0
  -24.1596   -4.4860   22.8576 C   0  0  0  0  0  0  0  0  0  0  0  0
  -34.5122  -21.5626   21.3736 C   0  0  0  0  0  0  0  0  0  0  0  0
  -31.7347  -16.5788   22.2174 C   0  0  0  0  0  0  0  0  0  0  0  0
  -22.3910   -4.6478   24.4957 C   0  0  0  0  0  0  0  0  0  0  0  0
  -23.8460  -10.5003   20.9930 C   0  0  0  0  0  0  0  0  0  0  0  0
  -24.1062  -13.0315   20.8114 C   0  0  0  0  0  0  0  0  0  0  0  0
  -41.7777  -25.6317   20.0888 C   0  0  0  0  0  0  0  0  0  0  0  0
  -36.9155  -21.3492   21.5696 C   0  0  0  0  0  0  0  0  0  0  0  0
  -40.4124  -25.3047   20.1957 C   0  0  0  0  0  0  0  0  0  0  0  0
  -35.7503  -21.2400   20.7973 C   0  0  0  0  0  0  0  0  0  0  0  0
  -30.2355  -16.1521   24.0633 C   0  0  0  0  0  0  0  0  0  0  0  0
  -30.5984  -17.3696   24.6395 C   0  0  0  0  0  0  0  0  0  0  0  0
  -30.8037  -15.7568   22.8523 C   0  0  0  0  0  0  0  0  0  0  0  0
  -32.0976  -17.7962   22.7936 C   0  0  0  0  0  0  0  0  0  0  0  0
  -22.4196   -8.1584   21.5062 C   0  0  0  0  0  0  0  0  0  0  0  0
  -34.4328  -21.9757   22.7033 C   0  0  0  0  0  0  0  0  0  0  0  0
  -22.3411   -6.0410   22.5225 C   0  0  0  0  0  0  0  0  0  0  0  0
  -31.5295  -18.1916   24.0045 C   0  0  0  0  0  0  0  0  0  0  0  0
  -23.5867   -4.0756   24.0614 C   0  0  0  0  0  0  0  0  0  0  0  0
  -21.7683   -5.6306   23.7262 C   0  0  0  0  0  0  0  0  0  0  0  0
  -24.5833  -11.7096   20.7284 C   0  0  0  0  0  0  0  0  0  0  0  0
  -25.1851  -13.8082   20.4661 C   0  0  0  0  0  0  0  0  0  0  0  0
  -22.8043  -13.5141   21.1689 C   0  0  0  0  0  0  0  0  0  0  0  0
  -38.3398  -22.5012   18.9719 C   0  0  0  0  0  0  0  0  0  0  0  0
  -37.3077  -19.7246   17.6498 C   0  0  0  0  0  0  0  0  0  0  0  0
  -35.0832  -17.1372   17.7118 C   0  0  0  0  0  0  0  0  0  0  0  0
  -30.9283  -14.0036   21.0476 C   0  0  0  0  0  0  0  0  0  0  0  0
  -42.5596  -25.3699   18.8261 C   0  0  0  0  0  0  0  0  0  0  0  0
  -38.2533  -20.9865   20.9855 C   0  0  0  0  0  0  0  0  0  0  0  0
  -35.7908  -20.7928   19.3596 C   0  0  0  0  0  0  0  0  0  0  0  0
  -41.8917  -24.3623   17.8939 C   0  0  0  0  0  0  0  0  0  0  0  0
  -29.3950  -13.0212   17.9880 C   0  0  0  0  0  0  0  0  0  0  0  0
  -40.4093  -24.6844   17.7338 C   0  0  0  0  0  0  0  0  0  0  0  0
  -27.9509  -12.7117   18.3891 C   0  0  0  0  0  0  0  0  0  0  0  0
  -30.3871  -12.5991   19.0702 C   0  0  0  0  0  0  0  0  0  0  0  0
  -28.6592  -12.8154   20.8129 C   0  0  0  0  0  0  0  0  0  0  0  0
  -39.6773  -24.5965   19.0784 C   0  0  1  0  0  0  0  0  0  0  0  0
  -38.2864  -21.0822   19.4632 C   0  0  1  0  0  0  0  0  0  0  0  0
  -27.6184  -13.2819   19.7820 C   0  0  2  0  0  0  0  0  0  0  0  0
  -29.2356  -15.2725   24.7467 C   0  0  0  0  0  0  0  0  0  0  0  0
  -34.4667  -15.0396   16.4801 C   0  0  0  0  0  0  0  0  0  0  0  0
  -36.0094  -21.3986   15.4538 C   0  0  0  0  0  0  0  0  0  0  0  0
  -34.6518  -19.3918   14.8231 C   0  0  0  0  0  0  0  0  0  0  0  0
  -37.1391  -19.3175   14.6491 C   0  0  0  0  0  0  0  0  0  0  0  0
  -35.6063  -15.4506   20.0868 C   0  0  0  0  0  0  0  0  0  0  0  0
  -29.9920  -17.8001   25.9373 C   0  0  0  0  0  0  0  0  0  0  0  0
  -31.6116  -21.7480   24.9616 C   0  0  0  0  0  0  0  0  0  0  0  0
  -33.0679  -22.0543   24.6493 C   0  0  0  0  0  0  0  0  0  1  0  0
  -31.1135  -20.5241   24.2089 C   0  0  0  0  0  0  0  0  0  0  0  0
  -36.0548  -19.2828   16.9328 C   0  0  1  0  0  0  0  0  0  0  0  0
  -35.2823  -15.6353   17.6171 C   0  0  2  0  0  0  0  0  0  0  0  0
  -35.9629  -19.8580   15.4912 C   0  0  0  0  0  0  0  0  0  0  0  0
  -25.8653  -11.6463   20.3591 N   0  0  0  0  0  0  0  0  0  0  0  0
  -26.2030  -12.9382   20.2069 N   0  0  0  0  0  0  0  0  0  0  0  0
  -37.1232  -20.4553   18.8321 N   0  0  0  0  0  0  0  0  0  0  0  0
  -30.0111  -13.1801   20.3610 N   0  0  0  0  0  0  0  0  0  0  0  0
  -33.0414  -18.6179   22.1393 N   0  0  0  0  0  0  0  0  0  0  0  0
  -25.3528  -15.1436   20.3617 N   0  0  0  0  0  0  0  0  0  0  0  0
  -21.8120  -12.5800   21.4958 N   0  0  0  0  0  0  0  0  0  0  0  0
  -30.4479  -14.5254   22.2482 N   0  0  0  0  0  0  0  0  0  0  0  0
  -39.4309  -23.2146   19.4303 N   0  0  0  0  0  0  0  0  0  0  0  0
  -36.0404  -17.8254   16.9966 N   0  0  0  0  0  0  0  0  0  0  0  0
  -34.8678  -14.9766   18.8881 N   0  3  0  0  0  0  0  0  0  0  0  0
  -22.5245  -14.7369   21.1815 O   0  0  0  0  0  0  0  0  0  0  0  0
  -37.4574  -22.9174   18.2305 O   0  0  0  0  0  0  0  0  0  0  0  0
  -38.4094  -19.4261   17.1820 O   0  0  0  0  0  0  0  0  0  0  0  0
  -34.1678  -17.6487   18.3528 O   0  0  0  0  0  0  0  0  0  0  0  0
  -32.0468  -14.2512   20.5899 O   0  0  0  0  0  0  0  0  0  0  0  0
  -28.6585  -18.2346   25.7094 O   0  0  0  0  0  0  0  0  0  0  0  0
  -21.7236   -7.0159   21.7570 O   0  0  0  0  0  0  0  0  0  0  0  0
  -33.2252  -22.2838   23.2496 O   0  0  0  0  0  0  0  0  0  1  0  0
  -31.8854  -19.3874   24.5720 O   0  0  0  0  0  0  0  0  0  0  0  0
  -24.1841   -3.1308   24.7994 F   0  0  0  0  0  0  0  0  0  0  0  0
  -20.6191   -6.1759   24.1481 F   0  0  0  0  0  0  0  0  0  0  0  0
  1  2  1  0  0  0  0
  1  5  2  0  0  0  0
  2  6  2  0  0  0  0
  3  8  2  0  0  0  0
  3 16  1  0  0  0  0
  4  9  1  0  0  0  0
  4 16  2  0  0  0  0
  5 18  1  0  0  0  0
  6 20  1  0  0  0  0
  7 10  2  0  0  0  0
  7 19  1  0  0  0  0
  8 26  1  0  0  0  0
  9 26  2  0  0  0  0
 10 27  1  0  0  0  0
 11 12  2  0  0  0  0
 11 28  1  0  0  0  0
 12 30  1  0  0  0  0
 13 21  1  0  0  0  0
 13 27  2  0  0  0  0
 14 24  1  0  0  0  0
 14 25  2  0  0  0  0
 15 30  2  0  0  0  0
 15 31  1  0  0  0  0
 16 32  1  0  0  0  0
 17 32  1  0  0  0  0
 17 33  2  0  0  0  0
 17 34  1  0  0  0  0
 18 20  2  0  0  0  0
 18 39  1  0  0  0  0
 19 21  2  0  0  0  0
 19 40  1  0  0  0  0
 20 48  1  0  0  0  0
 21 41  1  0  0  0  0
 22 23  1  0  0  0  0
 22 24  2  0  0  0  0
 22 51  1  0  0  0  0
 23 29  2  0  0  0  0
 23 57  1  0  0  0  0
 24 71  1  0  0  0  0
 25 29  1  0  0  0  0
 25 68  1  0  0  0  0
 26 81  1  0  0  0  0
 27 82  1  0  0  0  0
 28 31  2  0  0  0  0
 28 81  1  0  0  0  0
 29 83  1  0  0  0  0
 30 84  1  0  0  0  0
 31 85  1  0  0  0  0
 32 64  2  0  0  0  0
 33 65  1  0  0  0  0
 33 69  1  0  0  0  0
 34 70  1  0  0  0  0
 34 75  2  0  0  0  0
 35 49  1  0  0  0  0
 35 72  1  0  0  0  0
 35 76  2  0  0  0  0
 36 61  1  0  0  0  0
 36 66  1  0  0  0  0
 36 77  2  0  0  0  0
 37 62  1  0  0  0  0
 37 73  1  0  0  0  0
 37 78  2  0  0  0  0
 38 67  1  0  0  0  0
 38 71  1  0  0  0  0
 38 79  2  0  0  0  0
 39 42  1  0  0  0  0
 40 49  1  0  0  0  0
 41 66  1  0  0  0  0
 42 44  1  0  0  0  0
 43 45  1  0  0  0  0
 43 46  1  0  0  0  0
 44 48  1  0  0  0  0
 45 50  1  0  0  0  0
 46 67  1  0  0  0  0
 47 50  1  0  0  0  0
 47 67  1  0  0  0  0
 48 72  1  0  0  0  0
 49 66  1  0  0  0  0
 50 65  1  0  0  0  0
 52 62  1  0  0  0  0
 53 63  1  0  0  0  0
 54 63  1  0  0  0  0
 55 63  1  0  0  0  0
 56 74  1  0  0  0  0
 57 80  1  0  0  0  0
 58 59  1  0  0  0  0
 58 60  1  0  0  0  0
 59 82  1  0  0  0  0
 60 83  1  0  0  0  0
 61 63  1  0  0  0  0
 61 73  1  0  0  0  0
 62 74  1  0  0  0  0
 64 65  1  0  0  0  0
M  CHG  1  74   1
M  ISO  4  38 100  59 101  71 100  82 101
M  END
> <Batch ID>
0107

> <Smiles>
CNC(C)C(=O)NC(C(=O)N1Cc2cc([101O:1][101CH2:1]CCOc3c(N)cc([100NH:0][100C:0](=O)N4CCCC(n5nc(-c6ccc(Oc7ccc(F)cc7F)cc6)c(C(N)=O)c5N)C4)c(C)c3CO)ccc2CC1C(=O)NC1CCCc2ccccc21)C(C)(C)C

> <Shape>
0.164

> <Color>
0.177

> <Negative vol penalty>
0.000

$$$$

  -OEChem-04052301173D

 89 97  0     1  0  0  0  0  0999 V2000
  -25.1013  -15.9555   24.5092 C   0  0  0  0  0  0  0  0  0  0  0  0
  -26.1764  -16.8181   24.3203 C   0  0  0  0  0  0  0  0  0  0  0  0
  -26.3705  -11.9976   21.4342 C   0  0  0  0  0  0  0  0  0  0  0  0
  -25.9220  -13.7017   19.7813 C   0  0  0  0  0  0  0  0  0  0  0  0
  -23.8885  -16.2042   23.8682 C   0  0  0  0  0  0  0  0  0  0  0  0
  -26.0394  -17.9294   23.4893 C   0  0  0  0  0  0  0  0  0  0  0  0
  -28.3257  -24.6804   22.7733 C   0  0  0  0  0  0  0  0  0  0  0  0
  -32.3420  -22.6133   17.7867 C   0  0  0  0  0  0  0  0  0  0  0  0
  -25.0463  -11.5675   21.3500 C   0  0  0  0  0  0  0  0  0  0  0  0
  -24.5978  -13.2715   19.6971 C   0  0  0  0  0  0  0  0  0  0  0  0
  -28.9077  -25.5262   21.8300 C   0  0  0  0  0  0  0  0  0  0  0  0
  -31.6429  -23.7233   17.3127 C   0  0  0  0  0  0  0  0  0  0  0  0
  -21.6905  -10.2529   21.8337 C   0  0  0  0  0  0  0  0  0  0  0  0
  -21.0145   -9.9929   23.0258 C   0  0  0  0  0  0  0  0  0  0  0  0
  -26.7412  -25.8996   20.8370 C   0  0  0  0  0  0  0  0  0  0  0  0
  -21.3525  -12.2831   23.7170 C   0  0  0  0  0  0  0  0  0  0  0  0
  -26.8083  -13.0648   20.6498 C   0  0  0  0  0  0  0  0  0  0  0  0
  -29.2677  -13.0564   19.9725 C   0  0  0  0  0  0  0  0  0  0  0  0
  -23.7336  -17.3245   23.0365 C   0  0  0  0  0  0  0  0  0  0  0  0
  -26.9464  -24.4290   22.7487 C   0  0  0  0  0  0  0  0  0  0  0  0
  -24.8237  -18.1927   22.8355 C   0  0  0  0  0  0  0  0  0  0  0  0
  -26.1438  -25.0523   21.7827 C   0  0  0  0  0  0  0  0  0  0  0  0
  -31.7219  -21.7188   18.6591 C   0  0  0  0  0  0  0  0  0  0  0  0
  -30.4027  -21.9345   19.0576 C   0  0  0  0  0  0  0  0  0  0  0  0
  -24.1599  -12.2044   20.4815 C   0  0  0  0  0  0  0  0  0  0  0  0
  -28.1159  -26.1336   20.8599 C   0  0  0  0  0  0  0  0  0  0  0  0
  -30.3237  -23.9390   17.7112 C   0  0  0  0  0  0  0  0  0  0  0  0
  -22.1976  -11.5280   21.5833 C   0  0  0  0  0  0  0  0  0  0  0  0
  -29.7036  -23.0446   18.5837 C   0  0  0  0  0  0  0  0  0  0  0  0
  -20.8455  -11.0080   23.9674 C   0  0  0  0  0  0  0  0  0  0  0  0
  -22.0286  -12.5431   22.5249 C   0  0  0  0  0  0  0  0  0  0  0  0
  -28.1759  -13.5100   20.7367 C   0  0  0  0  0  0  0  0  0  0  0  0
  -30.3362  -13.7860   20.4335 C   0  0  0  0  0  0  0  0  0  0  0  0
  -29.3121  -12.0644   18.9383 C   0  0  0  0  0  0  0  0  0  0  0  0
  -25.1449  -21.8411   22.3470 C   0  0  0  0  0  0  0  0  0  0  0  0
  -22.7310  -23.8881   23.0576 C   0  0  0  0  0  0  0  0  0  0  0  0
  -30.4479  -20.8302   21.3281 C   0  0  0  0  0  0  0  0  0  0  0  0
  -21.5928  -27.1040   23.1525 C   0  0  0  0  0  0  0  0  0  0  0  0
  -30.7979  -19.1180   23.0877 C   0  0  0  0  0  0  0  0  0  0  0  0
  -22.4178  -17.5260   22.3275 C   0  0  0  0  0  0  0  0  0  0  0  0
  -26.3300  -23.5352   23.7897 C   0  0  0  0  0  0  0  0  0  0  0  0
  -24.6551  -24.8312   21.7258 C   0  0  0  0  0  0  0  0  0  0  0  0
  -22.2409  -18.9319   21.7596 C   0  0  0  0  0  0  0  0  0  0  0  0
  -31.9430  -16.0028   24.3610 C   0  0  0  0  0  0  0  0  0  0  0  0
  -23.4994  -19.3700   21.0173 C   0  0  0  0  0  0  0  0  0  0  0  0
  -31.2095  -14.9682   23.5046 C   0  0  0  0  0  0  0  0  0  0  0  0
  -31.0656  -17.2177   24.6563 C   0  0  0  0  0  0  0  0  0  0  0  0
  -29.7411  -16.8245   22.6168 C   0  0  0  0  0  0  0  0  0  0  0  0
  -24.7067  -19.4224   21.9613 C   0  0  1  0  0  0  0  0  0  0  0  0
  -24.9921  -22.9454   23.3544 C   0  0  1  0  0  0  0  0  0  0  0  0
  -30.6064  -15.6105   22.2402 C   0  0  2  0  0  0  0  0  0  0  0  0
  -32.4925  -20.5382   19.1523 C   0  0  0  0  0  0  0  0  0  0  0  0
  -25.3897  -23.2498   16.7457 C   0  0  0  0  0  0  0  0  0  0  0  0
  -19.5660  -28.4596   23.7457 C   0  0  0  0  0  0  0  0  0  0  0  0
  -21.3799  -22.9951   20.4717 C   0  0  0  0  0  0  0  0  0  0  0  0
  -19.8999  -25.0081   20.6317 C   0  0  0  0  0  0  0  0  0  0  0  0
  -19.8322  -23.2673   22.4171 C   0  0  0  0  0  0  0  0  0  0  0  0
  -23.0630  -28.6038   25.2378 C   0  0  0  0  0  0  0  0  0  0  0  0
  -29.7292  -20.9714   19.9991 C   0  0  0  0  0  0  0  0  0  0  0  0
  -26.5149  -23.7945   17.6070 C   0  0  0  0  0  0  0  0  0  0  0  0
  -29.0943  -27.3501   17.5927 C   0  0  0  0  0  0  0  0  0  0  0  0
  -27.3910  -22.6825   18.1631 C   0  0  0  0  0  0  0  0  0  0  0  0
  -28.0569  -27.0262   18.6563 C   0  0  0  0  0  0  0  0  0  1  0  0
  -30.2003  -26.3078   17.5407 C   0  0  0  0  0  0  0  0  0  0  0  0
  -21.8346  -24.8027   22.2583 C   0  0  1  0  0  0  0  0  0  0  0  0
  -20.8862  -27.8908   24.2417 C   0  0  2  0  0  0  0  0  0  0  0  0
  -20.7650  -24.0212   21.4443 C   0  0  0  0  0  0  0  0  0  0  0  0
  -28.5193  -14.4545   21.6165 N   0  0  0  0  0  0  0  0  0  0  0  0
  -29.8389  -14.6003   21.4081 N   0  0  0  0  0  0  0  0  0  0  0  0
  -24.1003  -23.9440   22.7614 N   0  0  0  0  0  0  0  0  0  0  0  0
  -30.5313  -17.7765   23.4126 N   0  0  0  0  0  0  0  0  0  0  0  0
  -31.6433  -13.8040   20.0963 N   0  0  0  0  0  0  0  0  0  0  0  0
  -28.1229  -11.4106   18.5881 N   0  0  0  0  0  0  0  0  0  0  0  0
  -24.6613  -20.6191   22.7739 N   0  0  0  0  0  0  0  0  0  0  0  0
  -30.2765  -19.5497   21.8637 N   0  0  0  0  0  0  0  0  0  0  0  0
  -21.2800  -25.7622   23.2071 N   0  0  0  0  0  0  0  0  0  0  0  0
  -21.7416  -29.0210   24.7022 N   0  3  0  0  0  0  0  0  0  0  0  0
  -30.3779  -11.7548   18.3537 O   0  0  0  0  0  0  0  0  0  0  0  0
  -25.6619  -22.0804   21.2620 O   0  0  0  0  0  0  0  0  0  0  0  0
  -22.2354  -23.1564   23.9183 O   0  0  0  0  0  0  0  0  0  0  0  0
  -31.0760  -21.7433   21.8573 O   0  0  0  0  0  0  0  0  0  0  0  0
  -22.3438  -27.6281   22.3329 O   0  0  0  0  0  0  0  0  0  0  0  0
  -31.4706  -19.8601   23.8102 O   0  0  0  0  0  0  0  0  0  0  0  0
  -22.8678  -11.7848   20.3990 O   0  0  0  0  0  0  0  0  0  0  0  0
  -28.6815  -26.9590   19.9375 O   0  0  0  0  0  0  0  0  0  1  0  0
  -29.6486  -25.0337   17.2374 O   0  0  0  0  0  0  0  0  0  0  0  0
  -28.4136  -23.2614   18.9701 O   0  0  0  0  0  0  0  0  0  0  0  0
  -20.1950  -10.7585   25.1114 F   0  0  0  0  0  0  0  0  0  0  0  0
  -22.5125  -13.7704   22.2894 F   0  0  0  0  0  0  0  0  0  0  0  0
  1  2  1  0  0  0  0
  1  5  2  0  0  0  0
  2  6  2  0  0  0  0
  3  9  2  0  0  0  0
  3 17  1  0  0  0  0
  4 10  1  0  0  0  0
  4 17  2  0  0  0  0
  5 19  1  0  0  0  0
  6 21  1  0  0  0  0
  7 11  2  0  0  0  0
  7 20  1  0  0  0  0
  8 12  1  0  0  0  0
  8 23  2  0  0  0  0
  9 25  1  0  0  0  0
 10 25  2  0  0  0  0
 11 26  1  0  0  0  0
 12 27  2  0  0  0  0
 13 14  2  0  0  0  0
 13 28  1  0  0  0  0
 14 30  1  0  0  0  0
 15 22  1  0  0  0  0
 15 26  2  0  0  0  0
 16 30  2  0  0  0  0
 16 31  1  0  0  0  0
 17 32  1  0  0  0  0
 18 32  1  0  0  0  0
 18 33  2  0  0  0  0
 18 34  1  0  0  0  0
 19 21  2  0  0  0  0
 19 40  1  0  0  0  0
 20 22  2  0  0  0  0
 20 41  1  0  0  0  0
 21 49  1  0  0  0  0
 22 42  1  0  0  0  0
 23 24  1  0  0  0  0
 23 52  1  0  0  0  0
 24 29  2  0  0  0  0
 24 59  1  0  0  0  0
 25 84  1  0  0  0  0
 26 85  1  0  0  0  0
 27 29  1  0  0  0  0
 27 86  1  0  0  0  0
 28 31  2  0  0  0  0
 28 84  1  0  0  0  0
 29 87  1  0  0  0  0
 30 88  1  0  0  0  0
 31 89  1  0  0  0  0
 32 68  2  0  0  0  0
 33 69  1  0  0  0  0
 33 72  1  0  0  0  0
 34 73  1  0  0  0  0
 34 78  2  0  0  0  0
 35 50  1  0  0  0  0
 35 74  1  0  0  0  0
 35 79  2  0  0  0  0
 36 65  1  0  0  0  0
 36 70  1  0  0  0  0
 36 80  2  0  0  0  0
 37 59  1  0  0  0  0
 37 75  1  0  0  0  0
 37 81  2  0  0  0  0
 38 66  1  0  0  0  0
 38 76  1  0  0  0  0
 38 82  2  0  0  0  0
 39 71  1  0  0  0  0
 39 75  1  0  0  0  0
 39 83  2  0  0  0  0
 40 43  1  0  0  0  0
 41 50  1  0  0  0  0
 42 70  1  0  0  0  0
 43 45  1  0  0  0  0
 44 46  1  0  0  0  0
 44 47  1  0  0  0  0
 45 49  1  0  0  0  0
 46 51  1  0  0  0  0
 47 71  1  0  0  0  0
 48 51  1  0  0  0  0
 48 71  1  0  0  0  0
 49 74  1  0  0  0  0
 50 70  1  0  0  0  0
 51 69  1  0  0  0  0
 53 60  1  0  0  0  0
 54 66  1  0  0  0  0
 55 67  1  0  0  0  0
 56 67  1  0  0  0  0
 57 67  1  0  0  0  0
 58 77  1  0  0  0  0
 60 62  1  0  0  0  0
 61 63  1  0  0  0  0
 61 64  1  0  0  0  0
 62 87  1  0  0  0  0
 63 85  1  0  0  0  0
 64 86  1  0  0  0  0
 65 67  1  0  0  0  0
 65 76  1  0  0  0  0
 66 77  1  0  0  0  0
 68 69  1  0  0  0  0
M  CHG  1  77   1
M  ISO  4  39 100  63 101  75 100  85 101
M  END
> <Batch ID>
0107

> <Smiles>
CCCOc1c(OCC[101CH2:1][101O:1]c2ccc3c(c2)CN(C(=O)C(NC(=O)C(C)NC)C(C)(C)C)C(C(=O)NC2CCCc4ccccc42)C3)ccc(C)c1CC(=O)[100NH:0][100C:0](=O)N1CCCC(n2nc(-c3ccc(Oc4ccc(F)cc4F)cc3)c(C(N)=O)c2N)C1

> <Shape>
0.205

> <Color>
0.055

> <Negative vol penalty>
0.000

$$$$

  -OEChem-04052301173D

 90 99  0     1  0  0  0  0  0999 V2000
  -27.7986  -36.1419   23.8431 C   0  0  0  0  0  0  0  0  0  0  0  0
  -26.9674  -35.4000   24.6762 C   0  0  0  0  0  0  0  0  0  0  0  0
  -22.5164  -10.2488   20.3171 C   0  0  0  0  0  0  0  0  0  0  0  0
  -23.7925  -12.1058   21.1889 C   0  0  0  0  0  0  0  0  0  0  0  0
  -27.5331  -36.2093   22.4760 C   0  0  0  0  0  0  0  0  0  0  0  0
  -25.8695  -34.7259   24.1429 C   0  0  0  0  0  0  0  0  0  0  0  0
  -25.0381  -27.8582   19.9639 C   0  0  0  0  0  0  0  0  0  0  0  0
  -23.2010   -9.3796   21.1664 C   0  0  0  0  0  0  0  0  0  0  0  0
  -24.4771  -11.2366   22.0382 C   0  0  0  0  0  0  0  0  0  0  0  0
  -26.0718  -27.0302   19.5256 C   0  0  0  0  0  0  0  0  0  0  0  0
  -23.1068   -8.4958   24.4288 C   0  0  0  0  0  0  0  0  0  0  0  0
  -22.3583   -7.5482   25.1269 C   0  0  0  0  0  0  0  0  0  0  0  0
  -27.6436  -28.2444   20.9052 C   0  0  0  0  0  0  0  0  0  0  0  0
  -25.9694  -20.5379   19.3810 C   0  0  0  0  0  0  0  0  0  0  0  0
  -27.7738  -19.4153   20.5303 C   0  0  0  0  0  0  0  0  0  0  0  0
  -23.6098   -5.7762   24.0635 C   0  0  0  0  0  0  0  0  0  0  0  0
  -22.8121  -11.6119   20.3283 C   0  0  0  0  0  0  0  0  0  0  0  0
  -25.7774  -18.1934   19.9316 C   0  0  0  0  0  0  0  0  0  0  0  0
  -20.7188  -12.7496   19.4165 C   0  0  0  0  0  0  0  0  0  0  0  0
  -26.4370  -35.5277   21.9242 C   0  0  0  0  0  0  0  0  0  0  0  0
  -25.3007  -28.8739   20.8873 C   0  0  0  0  0  0  0  0  0  0  0  0
  -25.5883  -34.7852   22.7673 C   0  0  0  0  0  0  0  0  0  0  0  0
  -26.6099  -29.0689   21.3573 C   0  0  0  0  0  0  0  0  0  0  0  0
  -25.2400  -19.3491   19.3649 C   0  0  0  0  0  0  0  0  0  0  0  0
  -27.2363  -20.5710   19.9636 C   0  0  0  0  0  0  0  0  0  0  0  0
  -24.1814   -9.8735   22.0270 C   0  0  0  0  0  0  0  0  0  0  0  0
  -27.3713  -27.2230   19.9949 C   0  0  0  0  0  0  0  0  0  0  0  0
  -24.1067   -8.0836   23.5479 C   0  0  0  0  0  0  0  0  0  0  0  0
  -22.6098   -6.1884   24.9443 C   0  0  0  0  0  0  0  0  0  0  0  0
  -27.0443  -18.2264   20.5143 C   0  0  0  0  0  0  0  0  0  0  0  0
  -24.3582   -6.7238   23.3653 C   0  0  0  0  0  0  0  0  0  0  0  0
  -22.1057  -12.5102   19.4507 C   0  0  0  0  0  0  0  0  0  0  0  0
  -20.5551  -13.6769   18.4166 C   0  0  0  0  0  0  0  0  0  0  0  0
  -28.3878  -24.0367   19.2046 C   0  0  0  0  0  0  0  0  0  0  0  0
  -27.5419  -23.0048   19.4419 C   0  0  0  0  0  0  0  0  0  0  0  0
  -29.8491  -23.8319   19.4834 C   0  0  0  0  0  0  0  0  0  0  0  0
  -25.0338  -16.9405   19.9259 C   0  0  0  0  0  0  0  0  0  0  0  0
  -19.6722  -12.1844   20.2170 C   0  0  0  0  0  0  0  0  0  0  0  0
  -23.6853  -16.8491   19.3204 C   0  0  0  0  0  0  0  0  0  0  0  0
  -23.9368  -31.6891   22.9587 C   0  0  0  0  0  0  0  0  0  0  0  0
  -25.9703  -30.2000   24.7074 C   0  0  0  0  0  0  0  0  0  0  0  0
  -23.8115  -28.0486   26.2398 C   0  0  0  0  0  0  0  0  0  0  0  0
  -26.1629  -35.6688   20.4478 C   0  0  0  0  0  0  0  0  0  0  0  0
  -24.2296  -29.8286   21.3401 C   0  0  0  0  0  0  0  0  0  0  0  0
  -26.8520  -30.1961   22.3235 C   0  0  0  0  0  0  0  0  0  0  0  0
  -30.3213  -22.4537   19.8791 C   0  0  0  0  0  0  0  0  0  0  0  0
  -25.1957  -34.6199   19.9049 C   0  0  0  0  0  0  0  0  0  0  0  0
  -24.7623  -14.8346   16.5858 C   0  0  0  0  0  0  0  0  0  0  0  0
  -23.9844  -34.4851   20.8223 C   0  0  0  0  0  0  0  0  0  0  0  0
  -23.4097  -14.5046   15.9399 C   0  0  0  0  0  0  0  0  0  0  0  0
  -29.2679  -21.7048   20.6765 C   0  0  0  0  0  0  0  0  0  0  0  0
  -24.8080  -16.2567   17.1331 C   0  0  0  0  0  0  0  0  0  0  0  0
  -22.3520  -16.3352   17.3105 C   0  0  0  0  0  0  0  0  0  0  0  0
  -24.4019  -34.0199   22.2225 C   0  0  1  0  0  0  0  0  0  0  0  0
  -24.3931  -30.2678   22.8062 C   0  0  1  0  0  0  0  0  0  0  0  0
  -22.1843  -14.8856   16.8058 C   0  0  2  0  0  0  0  0  0  0  0  0
  -26.0507  -23.1868   19.2347 C   0  0  0  0  0  0  0  0  0  0  0  0
  -22.7970  -18.9006   19.7077 C   0  0  0  0  0  0  0  0  0  0  0  0
  -23.6344  -26.2898   24.4586 C   0  0  0  0  0  0  0  0  0  0  0  0
  -23.8313  -32.4177   26.6477 C   0  0  0  0  0  0  0  0  0  0  0  0
  -22.4921  -31.2217   24.9029 C   0  0  0  0  0  0  0  0  0  0  0  0
  -24.5905  -32.4099   24.2648 C   0  0  0  0  0  0  0  0  0  0  0  0
  -20.5418  -26.6657   26.1191 C   0  0  0  0  0  0  0  0  0  0  0  0
  -23.8856  -19.3417   18.7342 C   0  0  0  0  0  0  0  0  0  0  0  0
  -28.0253  -25.3810   18.6396 C   0  0  0  0  0  0  0  0  0  1  0  0
  -24.7371  -30.2517   25.5735 C   0  0  1  0  0  0  0  0  0  0  0  0
  -22.9945  -26.8877   25.7019 C   0  0  2  0  0  0  0  0  0  0  0  0
  -23.9239  -31.5610   25.3692 C   0  0  0  0  0  0  0  0  0  0  0  0
  -22.7753  -13.2274   18.5445 N   0  0  0  0  0  0  0  0  0  0  0  0
  -25.4946  -15.8343   20.4409 N   0  0  0  0  0  0  0  0  0  0  0  0
  -21.8050  -13.9266   17.9314 N   0  0  0  0  0  0  0  0  0  0  0  0
  -27.9786  -21.7801   19.9802 N   0  0  0  0  0  0  0  0  0  0  0  0
  -23.6398  -16.5127   17.9760 N   0  0  0  0  0  0  0  0  0  0  0  0
  -25.7724  -30.2426   23.3220 N   0  0  0  0  0  0  0  0  0  0  0  0
  -19.4652  -14.2949   17.9139 N   0  0  0  0  0  0  0  0  0  0  0  0
  -19.0478  -11.0121   19.7696 N   0  0  0  0  0  0  0  0  0  0  0  0
  -24.6727  -32.5982   22.2229 N   0  0  0  0  0  0  0  0  0  0  0  0
  -23.9878  -29.0325   25.2900 N   0  0  0  0  0  0  0  0  0  0  0  0
  -21.6190  -27.3411   25.3507 N   0  3  0  0  0  0  0  0  0  0  0  0
  -30.6536  -24.7521   19.3393 O   0  0  0  0  0  0  0  0  0  0  0  0
  -19.2905  -12.7126   21.2889 O   0  0  0  0  0  0  0  0  0  0  0  0
  -22.7496  -17.0746   20.0767 O   0  0  0  0  0  0  0  0  0  0  0  0
  -22.9860  -31.9434   23.6887 O   0  0  0  0  0  0  0  0  0  0  0  0
  -27.0797  -30.1184   25.2420 O   0  0  0  0  0  0  0  0  0  0  0  0
  -24.2463  -28.0812   27.3889 O   0  0  0  0  0  0  0  0  0  0  0  0
  -24.8494   -9.0256   22.8561 O   0  0  0  0  0  0  0  0  0  0  0  0
  -28.3749  -26.4082   19.5664 O   0  0  0  0  0  0  0  0  0  1  0  0
  -21.8920   -5.2786   25.6160 F   0  0  0  0  0  0  0  0  0  0  0  0
  -27.5718  -17.1223   21.0622 F   0  0  0  0  0  0  0  0  0  0  0  0
  -25.3184   -6.3218   22.5213 F   0  0  0  0  0  0  0  0  0  0  0  0
  1  2  1  0  0  0  0
  1  5  2  0  0  0  0
  2  6  2  0  0  0  0
  3  8  2  0  0  0  0
  3 17  1  0  0  0  0
  4  9  1  0  0  0  0
  4 17  2  0  0  0  0
  5 20  1  0  0  0  0
  6 22  1  0  0  0  0
  7 10  2  0  0  0  0
  7 21  1  0  0  0  0
  8 26  1  0  0  0  0
  9 26  2  0  0  0  0
 10 27  1  0  0  0  0
 11 12  2  0  0  0  0
 11 28  1  0  0  0  0
 12 29  1  0  0  0  0
 13 23  1  0  0  0  0
 13 27  2  0  0  0  0
 14 24  1  0  0  0  0
 14 25  2  0  0  0  0
 15 25  1  0  0  0  0
 15 30  2  0  0  0  0
 16 29  2  0  0  0  0
 16 31  1  0  0  0  0
 17 32  1  0  0  0  0
 18 24  2  0  0  0  0
 18 30  1  0  0  0  0
 18 37  1  0  0  0  0
 19 32  1  0  0  0  0
 19 33  2  0  0  0  0
 19 38  1  0  0  0  0
 20 22  2  0  0  0  0
 20 43  1  0  0  0  0
 21 23  2  0  0  0  0
 21 44  1  0  0  0  0
 22 54  1  0  0  0  0
 23 45  1  0  0  0  0
 24 64  1  0  0  0  0
 25 72  1  0  0  0  0
 26 86  1  0  0  0  0
 27 87  1  0  0  0  0
 28 31  2  0  0  0  0
 28 86  1  0  0  0  0
 29 88  1  0  0  0  0
 30 89  1  0  0  0  0
 31 90  1  0  0  0  0
 32 69  2  0  0  0  0
 33 71  1  0  0  0  0
 33 75  1  0  0  0  0
 34 35  2  0  0  0  0
 34 36  1  0  0  0  0
 34 65  1  0  0  0  0
 35 57  1  0  0  0  0
 35 72  1  0  0  0  0
 36 46  1  0  0  0  0
 36 80  2  0  0  0  0
 37 39  1  0  0  0  0
 37 70  2  0  0  0  0
 38 76  1  0  0  0  0
 38 81  2  0  0  0  0
 39 73  1  0  0  0  0
 39 82  2  0  0  0  0
 40 55  1  0  0  0  0
 40 77  1  0  0  0  0
 40 83  2  0  0  0  0
 41 66  1  0  0  0  0
 41 74  1  0  0  0  0
 41 84  2  0  0  0  0
 42 67  1  0  0  0  0
 42 78  1  0  0  0  0
 42 85  2  0  0  0  0
 43 47  1  0  0  0  0
 44 55  1  0  0  0  0
 45 74  1  0  0  0  0
 46 51  1  0  0  0  0
 47 49  1  0  0  0  0
 48 50  1  0  0  0  0
 48 52  1  0  0  0  0
 49 54  1  0  0  0  0
 50 56  1  0  0  0  0
 51 72  1  0  0  0  0
 52 73  1  0  0  0  0
 53 56  1  0  0  0  0
 53 73  1  0  0  0  0
 54 77  1  0  0  0  0
 55 74  1  0  0  0  0
 56 71  1  0  0  0  0
 58 64  1  0  0  0  0
 59 67  1  0  0  0  0
 60 68  1  0  0  0  0
 61 68  1  0  0  0  0
 62 68  1  0  0  0  0
 63 79  1  0  0  0  0
 65 87  1  0  0  0  0
 66 68  1  0  0  0  0
 66 78  1  0  0  0  0
 67 79  1  0  0  0  0
 69 71  1  0  0  0  0
M  CHG  1  79   1
M  ISO  4  37 100  39 100  65 101  87 101
M  END
> <Batch ID>
0107

> <Smiles>
CCc1cc(N2CCC(=O)C([101CH2:1][101O:1]c3ccc4c(c3)CN(C(=O)C(NC(=O)C(C)NC)C(C)(C)C)C(C(=O)NC3CCCc5ccccc53)C4)=C2C)cc(F)c1[100C:0](=N)[100C:0](=O)N1CCCC(n2nc(-c3ccc(Oc4ccc(F)cc4F)cc3)c(C(N)=O)c2N)C1

> <Shape>
0.237

> <Color>
0.085

> <Negative vol penalty>
0.000

$$$$

  -OEChem-04052301173D

 86 94  0     1  0  0  0  0  0999 V2000
  -18.2238  -27.9327   22.5390 C   0  0  0  0  0  0  0  0  0  0  0  0
  -18.3256  -26.6763   21.9503 C   0  0  0  0  0  0  0  0  0  0  0  0
  -27.5110  -23.1326   20.1459 C   0  0  0  0  0  0  0  0  0  0  0  0
  -29.5834  -23.2735   18.9121 C   0  0  0  0  0  0  0  0  0  0  0  0
  -19.3286  -28.4931   23.1788 C   0  0  0  0  0  0  0  0  0  0  0  0
  -19.5327  -25.9800   22.0002 C   0  0  0  0  0  0  0  0  0  0  0  0
  -20.2693  -19.9179   22.4638 C   0  0  0  0  0  0  0  0  0  0  0  0
  -27.4602  -24.5245   20.2195 C   0  0  0  0  0  0  0  0  0  0  0  0
  -29.5326  -24.6655   18.9857 C   0  0  0  0  0  0  0  0  0  0  0  0
  -20.5320  -18.9298   21.5160 C   0  0  0  0  0  0  0  0  0  0  0  0
  -28.9016  -26.9760   22.0463 C   0  0  0  0  0  0  0  0  0  0  0  0
  -28.5775  -27.5477   23.2766 C   0  0  0  0  0  0  0  0  0  0  0  0
  -24.8240  -14.1239   21.2134 C   0  0  0  0  0  0  0  0  0  0  0  0
  -22.8849  -19.0719   22.0289 C   0  0  0  0  0  0  0  0  0  0  0  0
  -23.6349  -13.2836   19.2855 C   0  0  0  0  0  0  0  0  0  0  0  0
  -26.6479  -28.6039   22.2775 C   0  0  0  0  0  0  0  0  0  0  0  0
  -28.5727  -22.5070   19.4922 C   0  0  0  0  0  0  0  0  0  0  0  0
  -25.9434  -13.3758   20.8491 C   0  0  0  0  0  0  0  0  0  0  0  0
  -25.9087  -12.5816   19.7030 C   0  0  0  0  0  0  0  0  0  0  0  0
  -28.0820  -20.2503   18.4086 C   0  0  0  0  0  0  0  0  0  0  0  0
  -20.5471  -27.7991   23.2449 C   0  0  0  0  0  0  0  0  0  0  0  0
  -21.3153  -20.4992   23.1948 C   0  0  0  0  0  0  0  0  0  0  0  0
  -20.6552  -26.5322   22.6404 C   0  0  0  0  0  0  0  0  0  0  0  0
  -22.6325  -20.0654   22.9872 C   0  0  0  0  0  0  0  0  0  0  0  0
  -24.7544  -12.5355   18.9211 C   0  0  0  0  0  0  0  0  0  0  0  0
  -28.4709  -25.2910   19.6395 C   0  0  0  0  0  0  0  0  0  0  0  0
  -21.8403  -18.5087   21.2964 C   0  0  0  0  0  0  0  0  0  0  0  0
  -28.0989  -27.2183   20.9315 C   0  0  0  0  0  0  0  0  0  0  0  0
  -23.6697  -14.0778   20.4316 C   0  0  0  0  0  0  0  0  0  0  0  0
  -27.4507  -28.3616   23.3922 C   0  0  0  0  0  0  0  0  0  0  0  0
  -26.9720  -28.0322   21.0472 C   0  0  0  0  0  0  0  0  0  0  0  0
  -28.6260  -21.0692   19.4162 C   0  0  0  0  0  0  0  0  0  0  0  0
  -28.4006  -18.9717   18.7959 C   0  0  0  0  0  0  0  0  0  0  0  0
  -27.0820  -11.8001   19.3204 C   0  0  0  0  0  0  0  0  0  0  0  0
  -27.1546  -13.4479   21.7063 C   0  0  0  0  0  0  0  0  0  0  0  0
  -27.3539  -20.6131   17.2279 C   0  0  0  0  0  0  0  0  0  0  0  0
  -22.4947  -23.4378   23.4735 C   0  0  0  0  0  0  0  0  0  0  0  0
  -24.3237  -22.0655   25.7743 C   0  0  0  0  0  0  0  0  0  0  0  0
  -25.7364  -19.2307   27.0452 C   0  0  0  0  0  0  0  0  0  0  0  0
  -28.8306  -15.0086   22.6439 C   0  0  0  0  0  0  0  0  0  0  0  0
  -21.7273  -28.4658   23.9063 C   0  0  0  0  0  0  0  0  0  0  0  0
  -21.0124  -21.5450   24.2325 C   0  0  0  0  0  0  0  0  0  0  0  0
  -23.7888  -20.6432   23.7602 C   0  0  0  0  0  0  0  0  0  0  0  0
  -22.8628  -27.5020   24.2406 C   0  0  0  0  0  0  0  0  0  0  0  0
  -31.5091  -17.3058   22.4314 C   0  0  0  0  0  0  0  0  0  0  0  0
  -23.1598  -26.5940   23.0514 C   0  0  0  0  0  0  0  0  0  0  0  0
  -30.9584  -18.4209   21.5382 C   0  0  0  0  0  0  0  0  0  0  0  0
  -30.4390  -16.7499   23.3698 C   0  0  0  0  0  0  0  0  0  0  0  0
  -28.6492  -17.4367   21.8261 C   0  0  0  0  0  0  0  0  0  0  0  0
  -21.9405  -25.7351   22.6950 C   0  0  1  0  0  0  0  0  0  0  0  0
  -22.2107  -22.4328   24.5538 C   0  0  1  0  0  0  0  0  0  0  0  0
  -29.6701  -17.9814   20.8140 C   0  0  1  0  0  0  0  0  0  0  0  0
  -28.3483  -12.5520   19.0449 C   0  0  0  0  0  0  0  0  0  0  0  0
  -27.2086  -18.4303   28.9131 C   0  0  0  0  0  0  0  0  0  0  0  0
  -26.7643  -23.1913   24.3299 C   0  0  0  0  0  0  0  0  0  0  0  0
  -28.1876  -21.6079   25.6472 C   0  0  0  0  0  0  0  0  0  0  0  0
  -26.8578  -23.3604   26.8233 C   0  0  0  0  0  0  0  0  0  0  0  0
  -23.6120  -17.4740   28.1221 C   0  0  0  0  0  0  0  0  0  0  0  0
  -21.0808  -16.5717   20.1443 C   0  0  0  0  0  0  0  0  0  1  0  0
  -21.7285  -15.2627   19.7363 C   0  0  0  0  0  0  0  0  0  0  0  0
  -25.6670  -21.3771   25.8031 C   0  0  1  0  0  0  0  0  0  0  0  0
  -25.7784  -18.6714   28.4558 C   0  0  2  0  0  0  0  0  0  0  0  0
  -26.8478  -22.3744   25.6348 C   0  0  0  0  0  0  0  0  0  0  0  0
  -29.2432  -20.3694   20.3720 N   0  0  0  0  0  0  0  0  0  0  0  0
  -29.0889  -19.0974   19.9667 N   0  0  0  0  0  0  0  0  0  0  0  0
  -23.4421  -21.6675   24.7594 N   0  0  0  0  0  0  0  0  0  0  0  0
  -29.2565  -16.3478   22.6059 N   0  0  0  0  0  0  0  0  0  0  0  0
  -24.6962  -11.7387   17.7557 N   0  0  0  0  0  0  0  0  0  0  0  0
  -28.1562  -17.7633   18.2460 N   0  0  0  0  0  0  0  0  0  0  0  0
  -27.1142  -21.9719   16.9819 N   0  0  0  0  0  0  0  0  0  0  0  0
  -27.7179  -14.7165   21.8473 N   0  0  0  0  0  0  0  0  0  0  0  0
  -21.8124  -24.6303   23.6210 N   0  0  0  0  0  0  0  0  0  0  0  0
  -25.7055  -20.6092   27.0430 N   0  0  0  0  0  0  0  0  0  0  0  0
  -25.0393  -17.3791   28.5229 N   0  3  0  0  0  0  0  0  0  0  0  0
  -27.1010  -10.5765   19.2050 O   0  0  0  0  0  0  0  0  0  0  0  0
  -27.5581  -12.4281   22.2585 O   0  0  0  0  0  0  0  0  0  0  0  0
  -26.9143  -19.7567   16.4236 O   0  0  0  0  0  0  0  0  0  0  0  0
  -23.2761  -23.1530   22.5735 O   0  0  0  0  0  0  0  0  0  0  0  0
  -24.0636  -22.9197   26.6254 O   0  0  0  0  0  0  0  0  0  0  0  0
  -25.7350  -18.5163   26.0452 O   0  0  0  0  0  0  0  0  0  0  0  0
  -29.4133  -14.1396   23.3001 O   0  0  0  0  0  0  0  0  0  0  0  0
  -28.4215  -26.6493   19.7109 O   0  0  0  0  0  0  0  0  0  0  0  0
  -22.0996  -17.5448   20.3714 O   0  0  0  0  0  0  0  0  0  1  0  0
  -22.5704  -14.8125   20.7907 O   0  0  0  0  0  0  0  0  0  0  0  0
  -27.1387  -28.9093   24.5741 F   0  0  0  0  0  0  0  0  0  0  0  0
  -26.1964  -28.2676   19.9800 F   0  0  0  0  0  0  0  0  0  0  0  0
  1  2  1  0  0  0  0
  1  5  2  0  0  0  0
  2  6  2  0  0  0  0
  3  8  2  0  0  0  0
  3 17  1  0  0  0  0
  4  9  1  0  0  0  0
  4 17  2  0  0  0  0
  5 21  1  0  0  0  0
  6 23  1  0  0  0  0
  7 10  2  0  0  0  0
  7 22  1  0  0  0  0
  8 26  1  0  0  0  0
  9 26  2  0  0  0  0
 10 27  1  0  0  0  0
 11 12  2  0  0  0  0
 11 28  1  0  0  0  0
 12 30  1  0  0  0  0
 13 18  1  0  0  0  0
 13 29  2  0  0  0  0
 14 24  1  0  0  0  0
 14 27  2  0  0  0  0
 15 25  2  0  0  0  0
 15 29  1  0  0  0  0
 16 30  2  0  0  0  0
 16 31  1  0  0  0  0
 17 32  1  0  0  0  0
 18 19  2  0  0  0  0
 18 35  1  0  0  0  0
 19 25  1  0  0  0  0
 19 34  1  0  0  0  0
 20 32  1  0  0  0  0
 20 33  2  0  0  0  0
 20 36  1  0  0  0  0
 21 23  2  0  0  0  0
 21 41  1  0  0  0  0
 22 24  2  0  0  0  0
 22 42  1  0  0  0  0
 23 50  1  0  0  0  0
 24 43  1  0  0  0  0
 25 68  1  0  0  0  0
 26 82  1  0  0  0  0
 27 83  1  0  0  0  0
 28 31  2  0  0  0  0
 28 82  1  0  0  0  0
 29 84  1  0  0  0  0
 30 85  1  0  0  0  0
 31 86  1  0  0  0  0
 32 64  2  0  0  0  0
 33 65  1  0  0  0  0
 33 69  1  0  0  0  0
 34 53  1  0  0  0  0
 34 75  2  0  0  0  0
 35 71  1  0  0  0  0
 35 76  2  0  0  0  0
 36 70  1  0  0  0  0
 36 77  2  0  0  0  0
 37 51  1  0  0  0  0
 37 72  1  0  0  0  0
 37 78  2  0  0  0  0
 38 61  1  0  0  0  0
 38 66  1  0  0  0  0
 38 79  2  0  0  0  0
 39 62  1  0  0  0  0
 39 73  1  0  0  0  0
 39 80  2  0  0  0  0
 40 67  1  0  0  0  0
 40 71  1  0  0  0  0
 40 81  2  0  0  0  0
 41 44  1  0  0  0  0
 42 51  1  0  0  0  0
 43 66  1  0  0  0  0
 44 46  1  0  0  0  0
 45 47  1  0  0  0  0
 45 48  1  0  0  0  0
 46 50  1  0  0  0  0
 47 52  1  0  0  0  0
 48 67  1  0  0  0  0
 49 52  1  0  0  0  0
 49 67  1  0  0  0  0
 50 72  1  0  0  0  0
 51 66  1  0  0  0  0
 52 65  1  0  0  0  0
 54 62  1  0  0  0  0
 55 63  1  0  0  0  0
 56 63  1  0  0  0  0
 57 63  1  0  0  0  0
 58 74  1  0  0  0  0
 59 60  1  0  0  0  0
 59 83  1  0  0  0  0
 60 84  1  0  0  0  0
 61 63  1  0  0  0  0
 61 73  1  0  0  0  0
 62 74  1  0  0  0  0
 64 65  1  0  0  0  0
M  CHG  1  74   1
M  ISO  4  40 100  59 101  71 100  83 101
M  END
> <Batch ID>
0107

> <Smiles>
CNC(C)C(=O)NC(C(=O)N1Cc2cc([101O:1][101CH2:1]COc3cc(N)c(C(C)=O)c(C(=O)[100NH:0][100C:0](=O)N4CCCC(n5nc(-c6ccc(Oc7ccc(F)cc7F)cc6)c(C(N)=O)c5N)C4)c3)ccc2CC1C(=O)NC1CCCc2ccccc21)C(C)(C)C

> <Shape>
0.213

> <Color>
0.070

> <Negative vol penalty>
0.000

$$$$

  -OEChem-04052301173D

 85 93  0     1  0  0  0  0  0999 V2000
  -28.0292  -33.0505   26.7275 C   0  0  0  0  0  0  0  0  0  0  0  0
  -28.1775  -31.9239   25.9249 C   0  0  0  0  0  0  0  0  0  0  0  0
  -23.3839  -11.8085   23.3186 C   0  0  0  0  0  0  0  0  0  0  0  0
  -23.3494  -14.2160   23.1187 C   0  0  0  0  0  0  0  0  0  0  0  0
  -26.7567  -33.4600   27.1238 C   0  0  0  0  0  0  0  0  0  0  0  0
  -27.0535  -31.2054   25.5191 C   0  0  0  0  0  0  0  0  0  0  0  0
  -27.2061  -29.9682   20.6109 C   0  0  0  0  0  0  0  0  0  0  0  0
  -22.6248  -11.8945   24.4856 C   0  0  0  0  0  0  0  0  0  0  0  0
  -22.5902  -14.3020   24.2857 C   0  0  0  0  0  0  0  0  0  0  0  0
  -28.0154  -28.8917   20.2505 C   0  0  0  0  0  0  0  0  0  0  0  0
  -19.3819  -12.3668   25.3186 C   0  0  0  0  0  0  0  0  0  0  0  0
  -18.3078  -11.4882   25.4594 C   0  0  0  0  0  0  0  0  0  0  0  0
  -31.6760  -19.7505   20.9987 C   0  0  0  0  0  0  0  0  0  0  0  0
  -31.9674  -17.3649   20.7520 C   0  0  0  0  0  0  0  0  0  0  0  0
  -26.0716  -27.4654   20.1694 C   0  0  0  0  0  0  0  0  0  0  0  0
  -29.7957  -18.3602   20.3912 C   0  0  0  0  0  0  0  0  0  0  0  0
  -19.3127  -10.5802   27.4601 C   0  0  0  0  0  0  0  0  0  0  0  0
  -23.7463  -12.9692   22.6352 C   0  0  0  0  0  0  0  0  0  0  0  0
  -32.4970  -18.6235   21.0367 C   0  0  0  0  0  0  0  0  0  0  0  0
  -24.0529  -12.7649   20.1109 C   0  0  0  0  0  0  0  0  0  0  0  0
  -25.6158  -32.7518   26.7147 C   0  0  0  0  0  0  0  0  0  0  0  0
  -25.8226  -29.7986   20.7641 C   0  0  0  0  0  0  0  0  0  0  0  0
  -25.7646  -31.6050   25.9115 C   0  0  0  0  0  0  0  0  0  0  0  0
  -25.2467  -28.5419   20.5293 C   0  0  0  0  0  0  0  0  0  0  0  0
  -30.3253  -19.6188   20.6760 C   0  0  0  0  0  0  0  0  0  0  0  0
  -30.6168  -17.2332   20.4292 C   0  0  0  0  0  0  0  0  0  0  0  0
  -22.2279  -13.1412   24.9692 C   0  0  0  0  0  0  0  0  0  0  0  0
  -27.4486  -27.6394   20.0325 C   0  0  0  0  0  0  0  0  0  0  0  0
  -20.4216  -12.3521   26.2485 C   0  0  0  0  0  0  0  0  0  0  0  0
  -18.2731  -10.5950   26.5301 C   0  0  0  0  0  0  0  0  0  0  0  0
  -20.3869  -11.4588   27.3192 C   0  0  0  0  0  0  0  0  0  0  0  0
  -24.5309  -12.8811   21.4299 C   0  0  0  0  0  0  0  0  0  0  0  0
  -25.1870  -12.7178   19.3376 C   0  0  0  0  0  0  0  0  0  0  0  0
  -34.8585  -17.9785   20.8868 C   0  0  0  0  0  0  0  0  0  0  0  0
  -33.9055  -18.7615   21.3732 C   0  0  0  0  0  0  0  0  0  0  0  0
  -22.7043  -12.7050   19.6279 C   0  0  0  0  0  0  0  0  0  0  0  0
  -23.7785  -30.1086   23.1786 C   0  0  0  0  0  0  0  0  0  0  0  0
  -21.5705  -29.5409   20.8710 C   0  0  0  0  0  0  0  0  0  0  0  0
  -29.8502  -22.0826   20.8912 C   0  0  0  0  0  0  0  0  0  0  0  0
  -20.8494  -28.1922   17.8201 C   0  0  0  0  0  0  0  0  0  0  0  0
  -30.7552  -14.7357   20.1303 C   0  0  0  0  0  0  0  0  0  0  0  0
  -24.2644  -33.2053   27.2074 C   0  0  0  0  0  0  0  0  0  0  0  0
  -24.9599  -30.9760   21.1273 C   0  0  0  0  0  0  0  0  0  0  0  0
  -23.7640  -28.3120   20.6609 C   0  0  0  0  0  0  0  0  0  0  0  0
  -23.0984  -32.6061   26.4254 C   0  0  0  0  0  0  0  0  0  0  0  0
  -29.7792  -11.3694   19.5034 C   0  0  0  0  0  0  0  0  0  0  0  0
  -23.2969  -31.1054   26.2374 C   0  0  0  0  0  0  0  0  0  0  0  0
  -28.2779  -11.3659   19.8004 C   0  0  0  0  0  0  0  0  0  0  0  0
  -30.5445  -12.2817   20.4604 C   0  0  0  0  0  0  0  0  0  0  0  0
  -28.5343  -13.6529   20.8449 C   0  0  0  0  0  0  0  0  0  0  0  0
  -24.5678  -30.8137   25.4304 C   0  0  1  0  0  0  0  0  0  0  0  0
  -23.6305  -30.5712   21.7567 C   0  0  1  0  0  0  0  0  0  0  0  0
  -27.7130  -12.7984   19.8656 C   0  0  2  0  0  0  0  0  0  0  0  0
  -18.9497  -27.8516   16.2162 C   0  0  0  0  0  0  0  0  0  0  0  0
  -20.4856  -27.3005   22.6355 C   0  0  0  0  0  0  0  0  0  0  0  0
  -19.2663  -26.4118   20.6375 C   0  0  0  0  0  0  0  0  0  0  0  0
  -18.7323  -28.6860   21.5126 C   0  0  0  0  0  0  0  0  0  0  0  0
  -22.1977  -29.7670   15.7080 C   0  0  0  0  0  0  0  0  0  0  0  0
  -28.6457  -23.0013   20.7391 C   0  0  0  0  0  0  0  0  0  0  0  0
  -29.0309  -24.4042   20.2828 C   0  0  0  0  0  0  0  0  0  0  0  0
  -27.8077  -25.2892   20.0923 C   0  0  0  0  0  0  0  0  0  1  0  0
  -20.9167  -28.3070   20.2974 C   0  0  1  0  0  0  0  0  0  0  0  0
  -20.1058  -28.7528   16.6213 C   0  0  2  0  0  0  0  0  0  0  0  0
  -19.8784  -27.6799   21.2701 C   0  0  0  0  0  0  0  0  0  0  0  0
  -25.8648  -12.9061   21.4946 N   0  0  0  0  0  0  0  0  0  0  0  0
  -26.2346  -12.8048   20.2066 N   0  0  0  0  0  0  0  0  0  0  0  0
  -22.9634  -29.4930   21.0241 N   0  0  0  0  0  0  0  0  0  0  0  0
  -29.9558  -13.6227   20.4664 N   0  0  0  0  0  0  0  0  0  0  0  0
  -25.3804  -12.6107   18.0058 N   0  0  0  0  0  0  0  0  0  0  0  0
  -21.6580  -12.7666   20.5584 N   0  0  0  0  0  0  0  0  0  0  0  0
  -29.4917  -20.7617   20.6372 N   0  0  0  0  0  0  0  0  0  0  0  0
  -30.0787  -15.9550   20.1386 N   0  0  0  0  0  0  0  0  0  0  0  0
  -24.3372  -31.0504   24.0214 N   0  0  0  0  0  0  0  0  0  0  0  0
  -20.3637  -28.7010   19.0061 N   0  0  0  0  0  0  0  0  0  0  0  0
  -21.0266  -28.8879   15.4574 N   0  3  0  0  0  0  0  0  0  0  0  0
  -22.4352  -12.5836   18.4088 O   0  0  0  0  0  0  0  0  0  0  0  0
  -23.4116  -28.9811   23.4884 O   0  0  0  0  0  0  0  0  0  0  0  0
  -20.8721  -30.5140   21.1655 O   0  0  0  0  0  0  0  0  0  0  0  0
  -30.9589  -22.5080   21.1981 O   0  0  0  0  0  0  0  0  0  0  0  0
  -21.7667  -27.3810   17.7152 O   0  0  0  0  0  0  0  0  0  0  0  0
  -31.9452  -14.6126   19.8289 O   0  0  0  0  0  0  0  0  0  0  0  0
  -21.4869  -13.2255   26.1078 O   0  0  0  0  0  0  0  0  0  0  0  0
  -28.2363  -26.5867   19.6813 O   0  0  0  0  0  0  0  0  0  1  0  0
  -17.2408   -9.7524   26.6661 F   0  0  0  0  0  0  0  0  0  0  0  0
  -21.3822  -11.4408   28.2164 F   0  0  0  0  0  0  0  0  0  0  0  0
  1  2  1  0  0  0  0
  1  5  2  0  0  0  0
  2  6  2  0  0  0  0
  3  8  2  0  0  0  0
  3 18  1  0  0  0  0
  4  9  1  0  0  0  0
  4 18  2  0  0  0  0
  5 21  1  0  0  0  0
  6 23  1  0  0  0  0
  7 10  2  0  0  0  0
  7 22  1  0  0  0  0
  8 27  1  0  0  0  0
  9 27  2  0  0  0  0
 10 28  1  0  0  0  0
 11 12  2  0  0  0  0
 11 29  1  0  0  0  0
 12 30  1  0  0  0  0
 13 19  1  0  0  0  0
 13 25  2  0  0  0  0
 14 19  2  0  0  0  0
 14 26  1  0  0  0  0
 15 24  1  0  0  0  0
 15 28  2  0  0  0  0
 16 25  1  0  0  0  0
 16 26  2  0  0  0  0
 17 30  2  0  0  0  0
 17 31  1  0  0  0  0
 18 32  1  0  0  0  0
 19 35  1  0  0  0  0
 20 32  1  0  0  0  0
 20 33  2  0  0  0  0
 20 36  1  0  0  0  0
 21 23  2  0  0  0  0
 21 42  1  0  0  0  0
 22 24  2  0  0  0  0
 22 43  1  0  0  0  0
 23 51  1  0  0  0  0
 24 44  1  0  0  0  0
 25 71  1  0  0  0  0
 26 72  1  0  0  0  0
 27 82  1  0  0  0  0
 28 83  1  0  0  0  0
 29 31  2  0  0  0  0
 29 82  1  0  0  0  0
 30 84  1  0  0  0  0
 31 85  1  0  0  0  0
 32 65  2  0  0  0  0
 33 66  1  0  0  0  0
 33 69  1  0  0  0  0
 34 35  2  0  0  0  0
 36 70  1  0  0  0  0
 36 76  2  0  0  0  0
 37 52  1  0  0  0  0
 37 73  1  0  0  0  0
 37 77  2  0  0  0  0
 38 62  1  0  0  0  0
 38 67  1  0  0  0  0
 38 78  2  0  0  0  0
 39 59  1  0  0  0  0
 39 71  1  0  0  0  0
 39 79  2  0  0  0  0
 40 63  1  0  0  0  0
 40 74  1  0  0  0  0
 40 80  2  0  0  0  0
 41 68  1  0  0  0  0
 41 72  1  0  0  0  0
 41 81  2  0  0  0  0
 42 45  1  0  0  0  0
 43 52  1  0  0  0  0
 44 67  1  0  0  0  0
 45 47  1  0  0  0  0
 46 48  1  0  0  0  0
 46 49  1  0  0  0  0
 47 51  1  0  0  0  0
 48 53  1  0  0  0  0
 49 68  1  0  0  0  0
 50 53  1  0  0  0  0
 50 68  1  0  0  0  0
 51 73  1  0  0  0  0
 52 67  1  0  0  0  0
 53 66  1  0  0  0  0
 54 63  1  0  0  0  0
 55 64  1  0  0  0  0
 56 64  1  0  0  0  0
 57 64  1  0  0  0  0
 58 75  1  0  0  0  0
 59 60  1  0  0  0  0
 60 61  1  0  0  0  0
 61 83  1  0  0  0  0
 62 64  1  0  0  0  0
 62 74  1  0  0  0  0
 63 75  1  0  0  0  0
 65 66  1  0  0  0  0
M  CHG  1  75   1
M  ISO  4  41 100  61 101  72 100  83 101
M  END
> <Batch ID>
0107

> <Smiles>
C=Cc1cc(NC(=O)CC[101CH2:1][101O:1]c2ccc3c(c2)CN(C(=O)C(NC(=O)C(C)NC)C(C)(C)C)C(C(=O)NC2CCCc4ccccc42)C3)cc([100NH:0][100C:0](=O)N2CCCC(n3nc(-c4ccc(Oc5ccc(F)cc5F)cc4)c(C(N)=O)c3N)C2)c1

> <Shape>
0.278

> <Color>
0.113

> <Negative vol penalty>
0.000

$$$$

  -OEChem-04052301173D

 85 93  0     1  0  0  0  0  0999 V2000
  -18.7054  -28.2170   22.3112 C   0  0  0  0  0  0  0  0  0  0  0  0
  -19.7088  -28.3647   21.3589 C   0  0  0  0  0  0  0  0  0  0  0  0
  -27.2263  -12.3225   21.6369 C   0  0  0  0  0  0  0  0  0  0  0  0
  -26.8503  -13.6513   19.6545 C   0  0  0  0  0  0  0  0  0  0  0  0
  -18.8169  -27.2333   23.2928 C   0  0  0  0  0  0  0  0  0  0  0  0
  -20.8249  -27.5293   21.3884 C   0  0  0  0  0  0  0  0  0  0  0  0
  -25.5414  -24.3580   17.0279 C   0  0  0  0  0  0  0  0  0  0  0  0
  -26.3542  -11.3491   21.1499 C   0  0  0  0  0  0  0  0  0  0  0  0
  -25.9781  -12.6778   19.1674 C   0  0  0  0  0  0  0  0  0  0  0  0
  -26.9168  -24.2211   16.8458 C   0  0  0  0  0  0  0  0  0  0  0  0
  -23.0135  -10.8847   20.9281 C   0  0  0  0  0  0  0  0  0  0  0  0
  -22.0760  -10.3539   21.8140 C   0  0  0  0  0  0  0  0  0  0  0  0
  -26.9644  -22.5048   18.5402 C   0  0  0  0  0  0  0  0  0  0  0  0
  -28.0200  -25.9496   22.2740 C   0  0  0  0  0  0  0  0  0  0  0  0
  -30.2488  -24.3638   21.7259 C   0  0  0  0  0  0  0  0  0  0  0  0
  -23.0083   -8.1502   21.4803 C   0  0  0  0  0  0  0  0  0  0  0  0
  -27.4744  -13.4737   20.8892 C   0  0  0  0  0  0  0  0  0  0  0  0
  -29.7644  -14.5590   21.1812 C   0  0  0  0  0  0  0  0  0  0  0  0
  -19.9303  -26.3790   23.3286 C   0  0  0  0  0  0  0  0  0  0  0  0
  -24.8677  -23.5756   17.9769 C   0  0  0  0  0  0  0  0  0  0  0  0
  -20.9520  -26.5341   22.3723 C   0  0  0  0  0  0  0  0  0  0  0  0
  -25.5799  -22.6318   18.7307 C   0  0  0  0  0  0  0  0  0  0  0  0
  -28.4618  -25.0187   23.2141 C   0  0  0  0  0  0  0  0  0  0  0  0
  -29.5763  -24.2258   22.9401 C   0  0  0  0  0  0  0  0  0  0  0  0
  -25.7300  -11.5267   19.9151 C   0  0  0  0  0  0  0  0  0  0  0  0
  -27.6290  -23.2965   17.6040 C   0  0  0  0  0  0  0  0  0  0  0  0
  -23.9484  -10.0482   20.3182 C   0  0  0  0  0  0  0  0  0  0  0  0
  -28.6926  -26.0876   21.0598 C   0  0  0  0  0  0  0  0  0  0  0  0
  -29.8070  -25.2947   20.7857 C   0  0  0  0  0  0  0  0  0  0  0  0
  -22.0734   -8.9867   22.0902 C   0  0  0  0  0  0  0  0  0  0  0  0
  -23.9459   -8.6810   20.5943 C   0  0  0  0  0  0  0  0  0  0  0  0
  -28.3748  -14.4799   21.3921 C   0  0  0  0  0  0  0  0  0  0  0  0
  -30.1515  -15.6869   21.8628 C   0  0  0  0  0  0  0  0  0  0  0  0
  -30.6282  -13.6907   20.4358 C   0  0  0  0  0  0  0  0  0  0  0  0
  -23.1998  -24.1881   20.6126 C   0  0  0  0  0  0  0  0  0  0  0  0
  -22.6199  -20.9979   20.5186 C   0  0  0  0  0  0  0  0  0  0  0  0
  -23.6033  -17.9042   19.4658 C   0  0  0  0  0  0  0  0  0  0  0  0
  -29.4335  -20.9632   23.1247 C   0  0  0  0  0  0  0  0  0  0  0  0
  -20.0293  -25.3614   24.4373 C   0  0  0  0  0  0  0  0  0  0  0  0
  -23.3794  -23.7164   18.1425 C   0  0  0  0  0  0  0  0  0  0  0  0
  -24.9004  -21.7535   19.7481 C   0  0  0  0  0  0  0  0  0  0  0  0
  -21.0649  -24.2715   24.1730 C   0  0  0  0  0  0  0  0  0  0  0  0
  -27.6222  -18.5772   25.1553 C   0  0  0  0  0  0  0  0  0  0  0  0
  -22.3717  -24.8850   23.6802 C   0  0  0  0  0  0  0  0  0  0  0  0
  -27.7751  -17.2979   24.3305 C   0  0  0  0  0  0  0  0  0  0  0  0
  -27.4453  -19.7970   24.2558 C   0  0  0  0  0  0  0  0  0  0  0  0
  -28.6842  -18.7066   22.4256 C   0  0  0  0  0  0  0  0  0  0  0  0
  -22.1662  -25.6309   22.3563 C   0  0  1  0  0  0  0  0  0  0  0  0
  -22.8806  -23.2303   19.4997 C   0  0  1  0  0  0  0  0  0  0  0  0
  -28.8893  -17.4404   23.2768 C   0  0  2  0  0  0  0  0  0  0  0  0
  -27.7266  -24.8897   24.5074 C   0  0  0  0  0  0  0  0  0  0  0  0
  -22.9464  -15.4847   19.5762 C   0  0  0  0  0  0  0  0  0  0  0  0
  -23.6388  -20.8548   23.3911 C   0  0  0  0  0  0  0  0  0  0  0  0
  -23.8575  -18.3759   23.1163 C   0  0  0  0  0  0  0  0  0  0  0  0
  -21.6170  -19.4567   22.9305 C   0  0  0  0  0  0  0  0  0  0  0  0
  -23.3108  -17.7296   16.5259 C   0  0  0  0  0  0  0  0  0  0  0  0
  -27.1056  -27.7707   20.5079 C   0  0  0  0  0  0  0  0  0  0  0  0
  -30.0672  -23.2226   23.9313 C   0  0  0  0  0  0  0  0  0  0  0  0
  -31.1061  -24.2774   17.5732 C   0  0  0  0  0  0  0  0  0  0  0  0
  -29.6926  -24.3211   17.0142 C   0  0  0  0  0  0  0  0  0  1  0  0
  -31.1162  -24.2561   19.0936 C   0  0  0  0  0  0  0  0  0  0  0  0
  -23.3024  -19.7704   21.0723 C   0  0  1  0  0  0  0  0  0  0  0  0
  -22.8396  -16.7809   18.7879 C   0  0  2  0  0  0  0  0  0  0  0  0
  -23.1173  -19.6322   22.6098 C   0  0  0  0  0  0  0  0  0  0  0  0
  -27.9104  -15.4780   22.1485 N   0  0  0  0  0  0  0  0  0  0  0  0
  -29.0145  -16.1948   22.4191 N   0  0  0  0  0  0  0  0  0  0  0  0
  -23.4449  -21.9330   19.8778 N   0  0  0  0  0  0  0  0  0  0  0  0
  -28.5482  -19.8849   23.2884 N   0  0  0  0  0  0  0  0  0  0  0  0
  -31.3501  -16.2838   22.0347 N   0  0  0  0  0  0  0  0  0  0  0  0
  -30.0662  -12.5770   19.7969 N   0  0  0  0  0  0  0  0  0  0  0  0
  -22.0866  -24.6945   21.2557 N   0  0  0  0  0  0  0  0  0  0  0  0
  -22.7929  -18.6390   20.3050 N   0  0  0  0  0  0  0  0  0  0  0  0
  -29.2326  -22.0426   23.9763 N   0  0  0  0  0  0  0  0  0  0  0  0
  -23.3756  -16.5433   17.4178 N   0  3  0  0  0  0  0  0  0  0  0  0
  -31.8643  -13.8871   20.3529 O   0  0  0  0  0  0  0  0  0  0  0  0
  -24.3696  -24.4472   20.8697 O   0  0  0  0  0  0  0  0  0  0  0  0
  -21.3987  -21.1190   20.6436 O   0  0  0  0  0  0  0  0  0  0  0  0
  -24.8001  -18.1069   19.2731 O   0  0  0  0  0  0  0  0  0  0  0  0
  -30.3400  -20.9621   22.2848 O   0  0  0  0  0  0  0  0  0  0  0  0
  -24.8791  -10.5769   19.4394 O   0  0  0  0  0  0  0  0  0  0  0  0
  -28.2514  -27.0003   20.1500 O   0  0  0  0  0  0  0  0  0  0  0  0
  -28.9717  -23.1614   17.4286 O   0  0  0  0  0  0  0  0  0  1  0  0
  -30.4766  -25.4214   19.5966 O   0  0  0  0  0  0  0  0  0  0  0  0
  -21.1741   -8.4773   22.9421 F   0  0  0  0  0  0  0  0  0  0  0  0
  -24.8423   -7.8726   20.0123 F   0  0  0  0  0  0  0  0  0  0  0  0
  1  2  1  0  0  0  0
  1  5  2  0  0  0  0
  2  6  2  0  0  0  0
  3  8  2  0  0  0  0
  3 17  1  0  0  0  0
  4  9  1  0  0  0  0
  4 17  2  0  0  0  0
  5 19  1  0  0  0  0
  6 21  1  0  0  0  0
  7 10  2  0  0  0  0
  7 20  1  0  0  0  0
  8 25  1  0  0  0  0
  9 25  2  0  0  0  0
 10 26  1  0  0  0  0
 11 12  2  0  0  0  0
 11 27  1  0  0  0  0
 12 30  1  0  0  0  0
 13 22  1  0  0  0  0
 13 26  2  0  0  0  0
 14 23  2  0  0  0  0
 14 28  1  0  0  0  0
 15 24  2  0  0  0  0
 15 29  1  0  0  0  0
 16 30  2  0  0  0  0
 16 31  1  0  0  0  0
 17 32  1  0  0  0  0
 18 32  1  0  0  0  0
 18 33  2  0  0  0  0
 18 34  1  0  0  0  0
 19 21  2  0  0  0  0
 19 39  1  0  0  0  0
 20 22  2  0  0  0  0
 20 40  1  0  0  0  0
 21 48  1  0  0  0  0
 22 41  1  0  0  0  0
 23 24  1  0  0  0  0
 23 51  1  0  0  0  0
 24 58  1  0  0  0  0
 25 80  1  0  0  0  0
 26 82  1  0  0  0  0
 27 31  2  0  0  0  0
 27 80  1  0  0  0  0
 28 29  2  0  0  0  0
 28 81  1  0  0  0  0
 29 83  1  0  0  0  0
 30 84  1  0  0  0  0
 31 85  1  0  0  0  0
 32 65  2  0  0  0  0
 33 66  1  0  0  0  0
 33 69  1  0  0  0  0
 34 70  1  0  0  0  0
 34 75  2  0  0  0  0
 35 49  1  0  0  0  0
 35 71  1  0  0  0  0
 35 76  2  0  0  0  0
 36 62  1  0  0  0  0
 36 67  1  0  0  0  0
 36 77  2  0  0  0  0
 37 63  1  0  0  0  0
 37 72  1  0  0  0  0
 37 78  2  0  0  0  0
 38 68  1  0  0  0  0
 38 73  1  0  0  0  0
 38 79  2  0  0  0  0
 39 42  1  0  0  0  0
 40 49  1  0  0  0  0
 41 67  1  0  0  0  0
 42 44  1  0  0  0  0
 43 45  1  0  0  0  0
 43 46  1  0  0  0  0
 44 48  1  0  0  0  0
 45 50  1  0  0  0  0
 46 68  1  0  0  0  0
 47 50  1  0  0  0  0
 47 68  1  0  0  0  0
 48 71  1  0  0  0  0
 49 67  1  0  0  0  0
 50 66  1  0  0  0  0
 52 63  1  0  0  0  0
 53 64  1  0  0  0  0
 54 64  1  0  0  0  0
 55 64  1  0  0  0  0
 56 74  1  0  0  0  0
 57 81  1  0  0  0  0
 58 73  1  0  0  0  0
 59 60  1  0  0  0  0
 59 61  1  0  0  0  0
 60 82  1  0  0  0  0
 61 83  1  0  0  0  0
 62 64  1  0  0  0  0
 62 72  1  0  0  0  0
 63 74  1  0  0  0  0
 65 66  1  0  0  0  0
M  CHG  1  74   1
M  ISO  4  38 100  60 101  73 100  82 101
M  END
> <Batch ID>
0107

> <Smiles>
CNC(C)C(=O)NC(C(=O)N1Cc2cc([101O:1][101CH2:1]CCOc3cc(C[100NH:0][100C:0](=O)N4CCCC(n5nc(-c6ccc(Oc7ccc(F)cc7F)cc6)c(C(N)=O)c5N)C4)c(C)cc3OC)ccc2CC1C(=O)NC1CCCc2ccccc21)C(C)(C)C

> <Shape>
0.184

> <Color>
0.081

> <Negative vol penalty>
0.000

$$$$

  -OEChem-04052301173D

 87 95  0     1  0  0  0  0  0999 V2000
  -29.3590  -31.9749   26.3886 C   0  0  0  0  0  0  0  0  0  0  0  0
  -29.0215  -30.8249   25.6822 C   0  0  0  0  0  0  0  0  0  0  0  0
  -24.2647   -8.3704   20.7535 C   0  0  0  0  0  0  0  0  0  0  0  0
  -23.3112  -10.5772   20.9937 C   0  0  0  0  0  0  0  0  0  0  0  0
  -28.3785  -32.9187   26.6911 C   0  0  0  0  0  0  0  0  0  0  0  0
  -27.7029  -30.6176   25.2788 C   0  0  0  0  0  0  0  0  0  0  0  0
  -27.3674  -28.9994   20.4919 C   0  0  0  0  0  0  0  0  0  0  0  0
  -23.3743   -7.8816   21.7094 C   0  0  0  0  0  0  0  0  0  0  0  0
  -22.4207  -10.0884   21.9496 C   0  0  0  0  0  0  0  0  0  0  0  0
  -27.6442  -27.6539   20.2538 C   0  0  0  0  0  0  0  0  0  0  0  0
  -20.1256   -6.9538   21.8436 C   0  0  0  0  0  0  0  0  0  0  0  0
  -19.4777   -5.7492   21.5700 C   0  0  0  0  0  0  0  0  0  0  0  0
  -28.1284  -17.4301   19.5536 C   0  0  0  0  0  0  0  0  0  0  0  0
  -25.2788  -27.1851   20.1883 C   0  0  0  0  0  0  0  0  0  0  0  0
  -30.2501  -17.3364   20.7054 C   0  0  0  0  0  0  0  0  0  0  0  0
  -20.4609   -4.7712   23.5484 C   0  0  0  0  0  0  0  0  0  0  0  0
  -24.2332   -9.7183   20.3957 C   0  0  0  0  0  0  0  0  0  0  0  0
  -28.1489  -18.8228   19.6291 C   0  0  0  0  0  0  0  0  0  0  0  0
  -24.9547  -10.2899   18.0165 C   0  0  0  0  0  0  0  0  0  0  0  0
  -27.0490  -32.7275   26.2828 C   0  0  0  0  0  0  0  0  0  0  0  0
  -26.0421  -29.4467   20.5911 C   0  0  0  0  0  0  0  0  0  0  0  0
  -26.7034  -31.5591   25.5772 C   0  0  0  0  0  0  0  0  0  0  0  0
  -24.9878  -28.5372   20.4252 C   0  0  0  0  0  0  0  0  0  0  0  0
  -29.1790  -16.6869   20.0918 C   0  0  0  0  0  0  0  0  0  0  0  0
  -30.2707  -18.7290   20.7809 C   0  0  0  0  0  0  0  0  0  0  0  0
  -22.4523   -8.7406   22.3075 C   0  0  0  0  0  0  0  0  0  0  0  0
  -26.5999  -26.7460   20.1048 C   0  0  0  0  0  0  0  0  0  0  0  0
  -20.9412   -7.0671   22.9695 C   0  0  0  0  0  0  0  0  0  0  0  0
  -29.2201  -19.4722   20.2427 C   0  0  0  0  0  0  0  0  0  0  0  0
  -19.6454   -4.6579   22.4224 C   0  0  0  0  0  0  0  0  0  0  0  0
  -21.1088   -5.9758   23.8219 C   0  0  0  0  0  0  0  0  0  0  0  0
  -25.1531  -10.2239   19.4087 C   0  0  0  0  0  0  0  0  0  0  0  0
  -26.1135  -10.8444   17.5305 C   0  0  0  0  0  0  0  0  0  0  0  0
  -27.0387  -19.5745   19.0589 C   0  0  0  0  0  0  0  0  0  0  0  0
  -26.6651  -19.5691   17.7607 C   0  0  0  0  0  0  0  0  0  0  0  0
  -23.8241   -9.8861   17.2328 C   0  0  0  0  0  0  0  0  0  0  0  0
  -24.2990  -30.8082   22.8740 C   0  0  0  0  0  0  0  0  0  0  0  0
  -28.3744  -23.5612   19.5562 C   0  0  0  0  0  0  0  0  0  0  0  0
  -22.0853  -31.0264   20.5130 C   0  0  0  0  0  0  0  0  0  0  0  0
  -20.8914  -29.8441   17.5425 C   0  0  0  0  0  0  0  0  0  0  0  0
  -30.2550  -14.4141   19.9410 C   0  0  0  0  0  0  0  0  0  0  0  0
  -26.0148  -33.7531   26.6741 C   0  0  0  0  0  0  0  0  0  0  0  0
  -25.7600  -30.9060   20.8217 C   0  0  0  0  0  0  0  0  0  0  0  0
  -23.5473  -28.9703   20.5026 C   0  0  0  0  0  0  0  0  0  0  0  0
  -24.7132  -33.6375   25.8848 C   0  0  0  0  0  0  0  0  0  0  0  0
  -30.7892  -11.2012   18.5026 C   0  0  0  0  0  0  0  0  0  0  0  0
  -24.2548  -32.1840   25.8214 C   0  0  0  0  0  0  0  0  0  0  0  0
  -29.3857  -10.5943   18.4394 C   0  0  0  0  0  0  0  0  0  0  0  0
  -30.9858  -12.0459   19.7602 C   0  0  0  0  0  0  0  0  0  0  0  0
  -28.5648  -12.4755   19.9140 C   0  0  0  0  0  0  0  0  0  0  0  0
  -25.2887  -31.3103   25.1009 C   0  0  1  0  0  0  0  0  0  0  0  0
  -24.3780  -31.1609   21.4155 C   0  0  1  0  0  0  0  0  0  0  0  0
  -28.2979  -11.6690   18.6326 C   0  0  2  0  0  0  0  0  0  0  0  0
  -25.5228  -20.3649   17.2178 C   0  0  0  0  0  0  0  0  0  0  0  0
  -19.0457  -30.1991   15.8798 C   0  0  0  0  0  0  0  0  0  0  0  0
  -20.1291  -29.6247   22.3888 C   0  0  0  0  0  0  0  0  0  0  0  0
  -18.6694  -29.1621   20.4080 C   0  0  0  0  0  0  0  0  0  0  0  0
  -19.1466  -31.5163   21.0808 C   0  0  0  0  0  0  0  0  0  0  0  0
  -22.8057  -30.5032   15.3838 C   0  0  0  0  0  0  0  0  0  0  0  0
  -29.7991  -23.0346   19.4673 C   0  0  0  0  0  0  0  0  0  0  0  0
  -28.2407  -25.0527   19.7942 C   0  0  0  0  0  0  0  0  0  1  0  0
  -29.8655  -21.5309   19.2423 C   0  0  0  0  0  0  0  0  0  0  0  0
  -20.9740  -30.1403   20.0042 C   0  0  1  0  0  0  0  0  0  0  0  0
  -20.4711  -30.5575   16.2702 C   0  0  2  0  0  0  0  0  0  0  0  0
  -19.7568  -30.1021   20.9709 C   0  0  0  0  0  0  0  0  0  0  0  0
  -26.3443  -10.6984   19.7828 N   0  0  0  0  0  0  0  0  0  0  0  0
  -26.9049  -11.0678   18.6186 N   0  0  0  0  0  0  0  0  0  0  0  0
  -23.3229  -30.4065   20.7360 N   0  0  0  0  0  0  0  0  0  0  0  0
  -29.9210  -13.0448   19.8748 N   0  0  0  0  0  0  0  0  0  0  0  0
  -31.3622  -19.3717   21.4053 N   0  0  0  0  0  0  0  0  0  0  0  0
  -26.5226  -11.1577   16.2827 N   0  0  0  0  0  0  0  0  0  0  0  0
  -22.7167   -9.3351   17.8920 N   0  0  0  0  0  0  0  0  0  0  0  0
  -29.1583  -15.2722   20.0152 N   0  0  0  0  0  0  0  0  0  0  0  0
  -25.1966  -31.4955   23.6685 N   0  0  0  0  0  0  0  0  0  0  0  0
  -20.6561  -30.6144   18.6616 N   0  0  0  0  0  0  0  0  0  0  0  0
  -21.3744  -30.1850   15.1449 N   0  3  0  0  0  0  0  0  0  0  0  0
  -23.8031   -9.9952   15.9833 O   0  0  0  0  0  0  0  0  0  0  0  0
  -23.4829  -29.9753   23.2507 O   0  0  0  0  0  0  0  0  0  0  0  0
  -27.3896  -22.8334   19.4413 O   0  0  0  0  0  0  0  0  0  0  0  0
  -21.8653  -32.2259   20.6987 O   0  0  0  0  0  0  0  0  0  0  0  0
  -21.3763  -28.7147   17.5438 O   0  0  0  0  0  0  0  0  0  0  0  0
  -31.4267  -14.7987   19.9050 O   0  0  0  0  0  0  0  0  0  0  0  0
  -21.5831   -8.2639   23.2401 O   0  0  0  0  0  0  0  0  0  0  0  0
  -26.8673  -25.4320   19.8729 O   0  0  0  0  0  0  0  0  0  1  0  0
  -29.2462  -20.8400   20.3201 O   0  0  0  0  0  0  0  0  0  0  0  0
  -19.0219   -3.5017   22.1605 F   0  0  0  0  0  0  0  0  0  0  0  0
  -21.8901   -6.0790   24.9058 F   0  0  0  0  0  0  0  0  0  0  0  0
  1  2  1  0  0  0  0
  1  5  2  0  0  0  0
  2  6  2  0  0  0  0
  3  8  2  0  0  0  0
  3 17  1  0  0  0  0
  4  9  1  0  0  0  0
  4 17  2  0  0  0  0
  5 20  1  0  0  0  0
  6 22  1  0  0  0  0
  7 10  2  0  0  0  0
  7 21  1  0  0  0  0
  8 26  1  0  0  0  0
  9 26  2  0  0  0  0
 10 27  1  0  0  0  0
 11 12  2  0  0  0  0
 11 28  1  0  0  0  0
 12 30  1  0  0  0  0
 13 18  1  0  0  0  0
 13 24  2  0  0  0  0
 14 23  1  0  0  0  0
 14 27  2  0  0  0  0
 15 24  1  0  0  0  0
 15 25  2  0  0  0  0
 16 30  2  0  0  0  0
 16 31  1  0  0  0  0
 17 32  1  0  0  0  0
 18 29  2  0  0  0  0
 18 34  1  0  0  0  0
 19 32  1  0  0  0  0
 19 33  2  0  0  0  0
 19 36  1  0  0  0  0
 20 22  2  0  0  0  0
 20 42  1  0  0  0  0
 21 23  2  0  0  0  0
 21 43  1  0  0  0  0
 22 51  1  0  0  0  0
 23 44  1  0  0  0  0
 24 73  1  0  0  0  0
 25 29  1  0  0  0  0
 25 70  1  0  0  0  0
 26 83  1  0  0  0  0
 27 84  1  0  0  0  0
 28 31  2  0  0  0  0
 28 83  1  0  0  0  0
 29 85  1  0  0  0  0
 30 86  1  0  0  0  0
 31 87  1  0  0  0  0
 32 66  2  0  0  0  0
 33 67  1  0  0  0  0
 33 71  1  0  0  0  0
 34 35  2  0  0  0  0
 35 54  1  0  0  0  0
 36 72  1  0  0  0  0
 36 77  2  0  0  0  0
 37 52  1  0  0  0  0
 37 74  1  0  0  0  0
 37 78  2  0  0  0  0
 38 60  1  0  0  0  0
 38 61  1  0  0  0  0
 38 79  2  0  0  0  0
 39 63  1  0  0  0  0
 39 68  1  0  0  0  0
 39 80  2  0  0  0  0
 40 64  1  0  0  0  0
 40 75  1  0  0  0  0
 40 81  2  0  0  0  0
 41 69  1  0  0  0  0
 41 73  1  0  0  0  0
 41 82  2  0  0  0  0
 42 45  1  0  0  0  0
 43 52  1  0  0  0  0
 44 68  1  0  0  0  0
 45 47  1  0  0  0  0
 46 48  1  0  0  0  0
 46 49  1  0  0  0  0
 47 51  1  0  0  0  0
 48 53  1  0  0  0  0
 49 69  1  0  0  0  0
 50 53  1  0  0  0  0
 50 69  1  0  0  0  0
 51 74  1  0  0  0  0
 52 68  1  0  0  0  0
 53 67  1  0  0  0  0
 55 64  1  0  0  0  0
 56 65  1  0  0  0  0
 57 65  1  0  0  0  0
 58 65  1  0  0  0  0
 59 76  1  0  0  0  0
 60 62  1  0  0  0  0
 61 84  1  0  0  0  0
 62 85  1  0  0  0  0
 63 65  1  0  0  0  0
 63 75  1  0  0  0  0
 64 76  1  0  0  0  0
 66 67  1  0  0  0  0
M  CHG  1  76   1
M  ISO  4  41 100  61 101  73 100  84 101
M  END
> <Batch ID>
0107

> <Smiles>
CC=Cc1cc([100NH:0][100C:0](=O)N2CCCC(n3nc(-c4ccc(Oc5ccc(F)cc5F)cc4)c(C(N)=O)c3N)C2)cc(N)c1OCCC(=O)[101CH2:1][101O:1]c1ccc2c(c1)CN(C(=O)C(NC(=O)C(C)NC)C(C)(C)C)C(C(=O)NC1CCCc3ccccc31)C2

> <Shape>
0.314

> <Color>
0.095

> <Negative vol penalty>
0.000

$$$$

  -OEChem-04052301173D

 90100  0     1  0  0  0  0  0999 V2000
  -28.6410  -36.6462   21.7793 C   0  0  0  0  0  0  0  0  0  0  0  0
  -28.6367  -35.2729   22.0016 C   0  0  0  0  0  0  0  0  0  0  0  0
  -31.7668  -20.0059   24.0264 C   0  0  0  0  0  0  0  0  0  0  0  0
  -23.0358  -12.1441   22.9669 C   0  0  0  0  0  0  0  0  0  0  0  0
  -24.2732  -10.0767   22.7880 C   0  0  0  0  0  0  0  0  0  0  0  0
  -27.5128  -37.4047   22.0885 C   0  0  0  0  0  0  0  0  0  0  0  0
  -27.5045  -34.6575   22.5343 C   0  0  0  0  0  0  0  0  0  0  0  0
  -26.3057  -30.3706   20.1197 C   0  0  0  0  0  0  0  0  0  0  0  0
  -30.8793  -20.9603   24.5243 C   0  0  0  0  0  0  0  0  0  0  0  0
  -22.3871  -11.6576   24.1019 C   0  0  0  0  0  0  0  0  0  0  0  0
  -23.6246   -9.5903   23.9230 C   0  0  0  0  0  0  0  0  0  0  0  0
  -27.0569  -29.2364   20.4249 C   0  0  0  0  0  0  0  0  0  0  0  0
  -20.6184   -8.2469   24.6909 C   0  0  0  0  0  0  0  0  0  0  0  0
  -20.1322   -6.9403   24.6494 C   0  0  0  0  0  0  0  0  0  0  0  0
  -29.0374  -19.7845   23.4984 C   0  0  0  0  0  0  0  0  0  0  0  0
  -29.4510  -17.7357   22.2200 C   0  0  0  0  0  0  0  0  0  0  0  0
  -25.2963  -28.4708   21.8856 C   0  0  0  0  0  0  0  0  0  0  0  0
  -31.7006  -16.8919   21.9856 C   0  0  0  0  0  0  0  0  0  0  0  0
  -21.5444   -6.3553   26.5204 C   0  0  0  0  0  0  0  0  0  0  0  0
  -31.3014  -18.9270   23.2571 C   0  0  0  0  0  0  0  0  0  0  0  0
  -29.9163  -18.8147   22.9892 C   0  0  0  0  0  0  0  0  0  0  0  0
  -23.9788  -11.3536   22.3099 C   0  0  0  0  0  0  0  0  0  0  0  0
  -24.0550  -12.2597   19.9265 C   0  0  0  0  0  0  0  0  0  0  0  0
  -26.3627  -36.7969   22.6163 C   0  0  0  0  0  0  0  0  0  0  0  0
  -25.0467  -30.5690   20.7045 C   0  0  0  0  0  0  0  0  0  0  0  0
  -26.3603  -35.4088   22.8522 C   0  0  0  0  0  0  0  0  0  0  0  0
  -24.5300  -29.6070   21.5842 C   0  0  0  0  0  0  0  0  0  0  0  0
  -29.5172  -20.8498   24.2608 C   0  0  0  0  0  0  0  0  0  0  0  0
  -32.1804  -17.9572   22.7480 C   0  0  0  0  0  0  0  0  0  0  0  0
  -30.3385  -16.7813   21.7221 C   0  0  0  0  0  0  0  0  0  0  0  0
  -22.6815  -10.3807   24.5800 C   0  0  0  0  0  0  0  0  0  0  0  0
  -26.5535  -28.2878   21.3102 C   0  0  0  0  0  0  0  0  0  0  0  0
  -21.5677   -8.6079   25.6471 C   0  0  0  0  0  0  0  0  0  0  0  0
  -20.5952   -5.9944   25.5641 C   0  0  0  0  0  0  0  0  0  0  0  0
  -22.0307   -7.6620   26.5619 C   0  0  0  0  0  0  0  0  0  0  0  0
  -24.6488  -11.8554   21.1372 C   0  0  0  0  0  0  0  0  0  0  0  0
  -25.1109  -12.6501   19.1397 C   0  0  0  0  0  0  0  0  0  0  0  0
  -28.3527  -25.9189   23.3251 C   0  0  0  0  0  0  0  0  0  0  0  0
  -27.6346  -26.9742   22.9154 C   0  0  0  0  0  0  0  0  0  1  0  0
  -22.6725  -12.2807   19.5471 C   0  0  0  0  0  0  0  0  0  0  0  0
  -23.7852  -32.7692   22.6207 C   0  0  0  0  0  0  0  0  0  0  0  0
  -21.0492  -31.1138   22.0761 C   0  0  0  0  0  0  0  0  0  0  0  0
  -19.5734  -28.1648   21.1975 C   0  0  0  0  0  0  0  0  0  0  0  0
  -30.5978  -14.6666   20.3779 C   0  0  0  0  0  0  0  0  0  0  0  0
  -25.1842  -37.6653   22.9791 C   0  0  0  0  0  0  0  0  0  0  0  0
  -24.2373  -31.7846   20.3443 C   0  0  0  0  0  0  0  0  0  0  0  0
  -23.1751  -29.7631   22.2231 C   0  0  0  0  0  0  0  0  0  0  0  0
  -28.7312  -25.7037   24.7655 C   0  0  0  0  0  0  0  0  0  0  0  0
  -28.8218  -24.8415   22.3851 C   0  0  0  0  0  0  0  0  0  0  0  0
  -23.8918  -36.8808   23.1905 C   0  0  0  0  0  0  0  0  0  0  0  0
  -29.7709  -11.8000   18.4348 C   0  0  0  0  0  0  0  0  0  0  0  0
  -24.1460  -35.6597   24.0686 C   0  0  0  0  0  0  0  0  0  0  0  0
  -28.3077  -11.5293   18.7925 C   0  0  0  0  0  0  0  0  0  0  0  0
  -30.5676  -12.2935   19.6411 C   0  0  0  0  0  0  0  0  0  0  0  0
  -28.5244  -13.1781   20.6955 C   0  0  0  0  0  0  0  0  0  0  0  0
  -28.3001  -24.3198   25.2398 C   0  0  0  0  0  0  0  0  0  0  0  0
  -28.3897  -23.4645   22.8779 C   0  0  0  0  0  0  0  0  0  0  0  0
  -25.1425  -34.7012   23.4055 C   0  0  1  0  0  0  0  0  0  0  0  0
  -23.1888  -32.1372   21.3949 C   0  0  1  0  0  0  0  0  0  0  0  0
  -27.6664  -12.7409   19.4970 C   0  0  2  0  0  0  0  0  0  0  0  0
  -33.6565  -18.0167   22.9940 C   0  0  0  0  0  0  0  0  0  0  0  0
  -17.3198  -27.1084   20.8771 C   0  0  0  0  0  0  0  0  0  0  0  0
  -20.7148  -30.9151   25.1024 C   0  0  0  0  0  0  0  0  0  0  0  0
  -19.0373  -29.0947   24.7275 C   0  0  0  0  0  0  0  0  0  0  0  0
  -18.6034  -31.3885   23.8484 C   0  0  0  0  0  0  0  0  0  0  0  0
  -20.1098  -27.6125   18.3398 C   0  0  0  0  0  0  0  0  0  0  0  0
  -28.5640  -21.8769   24.7970 C   0  0  0  0  0  0  0  0  0  0  0  0
  -20.3568  -29.9460   22.7362 C   0  0  1  0  0  0  0  0  0  0  0  0
  -18.4676  -27.8476   20.2070 C   0  0  2  0  0  0  0  0  0  0  0  0
  -19.7045  -30.3338   24.0933 C   0  0  0  0  0  0  0  0  0  0  0  0
  -25.9788  -11.9774   21.1252 N   0  0  0  0  0  0  0  0  0  0  0  0
  -26.2295  -12.4628   19.8973 N   0  0  0  0  0  0  0  0  0  0  0  0
  -22.4246  -30.9717   21.8441 N   0  0  0  0  0  0  0  0  0  0  0  0
  -29.9025  -13.4450   20.2548 N   0  0  0  0  0  0  0  0  0  0  0  0
  -25.1825  -13.1318   17.8806 N   0  0  0  0  0  0  0  0  0  0  0  0
  -22.1298  -11.1416   18.9368 N   0  0  0  0  0  0  0  0  0  0  0  0
  -29.8531  -15.6991   20.9470 N   0  0  0  0  0  0  0  0  0  0  0  0
  -24.4894  -33.9310   22.3687 N   0  0  0  0  0  0  0  0  0  0  0  0
  -19.4188  -29.4179   21.7516 N   0  0  0  0  0  0  0  0  0  0  0  0
  -28.8576  -23.2670   24.3047 N   0  3  0  0  0  0  0  0  0  0  0  0
  -18.9914  -26.9980   19.1003 N   0  3  0  0  0  0  0  0  0  0  0  0
  -21.9443  -13.2858   19.7286 O   0  0  0  0  0  0  0  0  0  0  0  0
  -23.6174  -32.2425   23.7144 O   0  0  0  0  0  0  0  0  0  0  0  0
  -20.3924  -32.1123   21.7708 O   0  0  0  0  0  0  0  0  0  0  0  0
  -20.4813  -27.3780   21.4566 O   0  0  0  0  0  0  0  0  0  0  0  0
  -31.7588  -14.7953   19.9811 O   0  0  0  0  0  0  0  0  0  0  0  0
  -22.0489   -9.9057   25.6876 O   0  0  0  0  0  0  0  0  0  0  0  0
  -27.2849  -27.1802   21.6104 O   0  0  0  0  0  0  0  0  0  1  0  0
  -20.1271   -4.7401   25.5251 F   0  0  0  0  0  0  0  0  0  0  0  0
  -22.9417   -8.0031   27.4836 F   0  0  0  0  0  0  0  0  0  0  0  0
  1  2  1  0  0  0  0
  1  6  2  0  0  0  0
  2  7  2  0  0  0  0
  3  9  2  0  0  0  0
  3 20  1  0  0  0  0
  4 10  2  0  0  0  0
  4 22  1  0  0  0  0
  5 11  1  0  0  0  0
  5 22  2  0  0  0  0
  6 24  1  0  0  0  0
  7 26  1  0  0  0  0
  8 12  2  0  0  0  0
  8 25  1  0  0  0  0
  9 28  1  0  0  0  0
 10 31  1  0  0  0  0
 11 31  2  0  0  0  0
 12 32  1  0  0  0  0
 13 14  2  0  0  0  0
 13 33  1  0  0  0  0
 14 34  1  0  0  0  0
 15 21  1  0  0  0  0
 15 28  2  0  0  0  0
 16 21  1  0  0  0  0
 16 30  2  0  0  0  0
 17 27  1  0  0  0  0
 17 32  2  0  0  0  0
 18 29  2  0  0  0  0
 18 30  1  0  0  0  0
 19 34  2  0  0  0  0
 19 35  1  0  0  0  0
 20 21  2  0  0  0  0
 20 29  1  0  0  0  0
 22 36  1  0  0  0  0
 23 36  1  0  0  0  0
 23 37  2  0  0  0  0
 23 40  1  0  0  0  0
 24 26  2  0  0  0  0
 24 45  1  0  0  0  0
 25 27  2  0  0  0  0
 25 46  1  0  0  0  0
 26 58  1  0  0  0  0
 27 47  1  0  0  0  0
 28 67  1  0  0  0  0
 29 61  1  0  0  0  0
 30 77  1  0  0  0  0
 31 87  1  0  0  0  0
 32 88  1  0  0  0  0
 33 35  2  0  0  0  0
 33 87  1  0  0  0  0
 34 89  1  0  0  0  0
 35 90  1  0  0  0  0
 36 71  2  0  0  0  0
 37 72  1  0  0  0  0
 37 75  1  0  0  0  0
 38 39  2  0  0  0  0
 38 48  1  0  0  0  0
 38 49  1  0  0  0  0
 39 88  1  0  0  0  0
 40 76  1  0  0  0  0
 40 82  2  0  0  0  0
 41 59  1  0  0  0  0
 41 78  1  0  0  0  0
 41 83  2  0  0  0  0
 42 68  1  0  0  0  0
 42 73  1  0  0  0  0
 42 84  2  0  0  0  0
 43 69  1  0  0  0  0
 43 79  1  0  0  0  0
 43 85  2  0  0  0  0
 44 74  1  0  0  0  0
 44 77  1  0  0  0  0
 44 86  2  0  0  0  0
 45 50  1  0  0  0  0
 46 59  1  0  0  0  0
 47 73  1  0  0  0  0
 48 56  1  0  0  0  0
 49 57  1  0  0  0  0
 50 52  1  0  0  0  0
 51 53  1  0  0  0  0
 51 54  1  0  0  0  0
 52 58  1  0  0  0  0
 53 60  1  0  0  0  0
 54 74  1  0  0  0  0
 55 60  1  0  0  0  0
 55 74  1  0  0  0  0
 56 80  1  0  0  0  0
 57 80  1  0  0  0  0
 58 78  1  0  0  0  0
 59 73  1  0  0  0  0
 60 72  1  0  0  0  0
 62 69  1  0  0  0  0
 63 70  1  0  0  0  0
 64 70  1  0  0  0  0
 65 70  1  0  0  0  0
 66 81  1  0  0  0  0
 67 80  1  0  0  0  0
 68 70  1  0  0  0  0
 68 79  1  0  0  0  0
 69 81  1  0  0  0  0
 71 72  1  0  0  0  0
M  CHG  2  80   1  81   1
M  ISO  4  39 101  44 100  77 100  88 101
M  END
> <Batch ID>
0107

> <Smiles>
CNC(C)C(=O)NC(C(=O)N1Cc2cc([101O:1][101CH:1]=C3CCN(Cc4ccc5c(C)cc([100NH:0][100C:0](=O)N6CCCC(n7nc(-c8ccc(Oc9ccc(F)cc9F)cc8)c(C(N)=O)c7N)C6)cc5c4)CC3)ccc2CC1C(=O)NC1CCCc2ccccc21)C(C)(C)C

> <Shape>
0.268

> <Color>
0.092

> <Negative vol penalty>
0.000

$$$$

  -OEChem-04052301173D

 85 94  0     1  0  0  0  0  0999 V2000
  -34.3641  -11.6145   18.6993 C   0  0  0  0  0  0  0  0  0  0  0  0
  -33.7751  -12.8476   18.4385 C   0  0  0  0  0  0  0  0  0  0  0  0
  -24.7841  -28.8613   22.1754 C   0  0  0  0  0  0  0  0  0  0  0  0
  -24.5336  -30.4817   20.4010 C   0  0  0  0  0  0  0  0  0  0  0  0
  -33.6015  -10.4496   18.6261 C   0  0  0  0  0  0  0  0  0  0  0  0
  -32.4233  -12.9163   18.1033 C   0  0  0  0  0  0  0  0  0  0  0  0
  -28.4840  -17.3647   19.5868 C   0  0  0  0  0  0  0  0  0  0  0  0
  -26.6355  -22.3114   20.2002 C   0  0  0  0  0  0  0  0  0  0  0  0
  -27.0767  -22.6153   17.8444 C   0  0  0  0  0  0  0  0  0  0  0  0
  -27.9261  -22.7484   20.4983 C   0  0  0  0  0  0  0  0  0  0  0  0
  -28.3673  -23.0524   18.1424 C   0  0  0  0  0  0  0  0  0  0  0  0
  -24.3788  -29.8178   23.1062 C   0  0  0  0  0  0  0  0  0  0  0  0
  -24.1283  -31.4383   21.3317 C   0  0  0  0  0  0  0  0  0  0  0  0
  -28.0064  -18.4683   18.8814 C   0  0  0  0  0  0  0  0  0  0  0  0
  -21.4757  -31.1929   24.1617 C   0  0  0  0  0  0  0  0  0  0  0  0
  -20.5456  -30.8055   25.1262 C   0  0  0  0  0  0  0  0  0  0  0  0
  -26.0552  -17.2046   18.2373 C   0  0  0  0  0  0  0  0  0  0  0  0
  -22.1299  -31.3421   26.8696 C   0  0  0  0  0  0  0  0  0  0  0  0
  -24.8616  -29.1932   20.8228 C   0  0  0  0  0  0  0  0  0  0  0  0
  -24.4609  -27.3056   19.1543 C   0  0  0  0  0  0  0  0  0  0  0  0
  -32.2374  -10.5050   18.2993 C   0  0  0  0  0  0  0  0  0  0  0  0
  -27.7549  -16.1672   19.6138 C   0  0  0  0  0  0  0  0  0  0  0  0
  -31.6420  -11.7509   18.0244 C   0  0  0  0  0  0  0  0  0  0  0  0
  -26.5245  -16.0880   18.9459 C   0  0  0  0  0  0  0  0  0  0  0  0
  -26.2108  -22.2448   18.8732 C   0  0  0  0  0  0  0  0  0  0  0  0
  -28.7921  -23.1189   19.4694 C   0  0  0  0  0  0  0  0  0  0  0  0
  -24.0509  -31.1063   22.6844 C   0  0  0  0  0  0  0  0  0  0  0  0
  -26.7932  -18.3875   18.2041 C   0  0  0  0  0  0  0  0  0  0  0  0
  -22.7330  -31.6549   24.5511 C   0  0  0  0  0  0  0  0  0  0  0  0
  -20.8727  -30.8801   26.4802 C   0  0  0  0  0  0  0  0  0  0  0  0
  -23.0601  -31.7295   25.9050 C   0  0  0  0  0  0  0  0  0  0  0  0
  -25.2808  -28.2057   19.8609 C   0  0  0  0  0  0  0  0  0  0  0  0
  -25.3330  -26.5869   18.3737 C   0  0  0  0  0  0  0  0  0  0  0  0
  -23.7452  -21.9461   19.3840 C   0  0  0  0  0  0  0  0  0  0  0  0
  -23.0381  -27.1344   19.1995 C   0  0  0  0  0  0  0  0  0  0  0  0
  -28.2950  -13.1896   18.6411 C   0  0  0  0  0  0  0  0  0  0  0  0
  -25.4716  -12.6063   20.1279 C   0  0  0  0  0  0  0  0  0  0  0  0
  -22.4855  -13.8162   21.2532 C   0  0  0  0  0  0  0  0  0  0  0  0
  -30.8318  -24.4952   18.9829 C   0  0  0  0  0  0  0  0  0  0  0  0
  -31.4650   -9.2145   18.1862 C   0  0  0  0  0  0  0  0  0  0  0  0
  -28.2709  -14.9943   20.4014 C   0  0  0  0  0  0  0  0  0  0  0  0
  -25.6936  -14.8319   18.9606 C   0  0  0  0  0  0  0  0  0  0  0  0
  -22.5740  -21.3406   18.6471 C   0  0  0  0  0  0  0  0  0  0  0  0
  -29.9509   -9.4085   18.1909 C   0  0  0  0  0  0  0  0  0  0  0  0
  -23.0507  -21.2891   17.2079 C   0  0  0  0  0  0  0  0  0  0  0  0
  -29.9246  -27.2598   16.6967 C   0  0  0  0  0  0  0  0  0  0  0  0
  -29.5542  -10.5359   17.2431 C   0  0  0  0  0  0  0  0  0  0  0  0
  -28.5980  -27.7536   17.2710 C   0  0  0  0  0  0  0  0  0  0  0  0
  -30.8181  -26.6540   17.7748 C   0  0  0  0  0  0  0  0  0  0  0  0
  -28.8289  -26.0538   19.1255 C   0  0  0  0  0  0  0  0  0  0  0  0
  -30.1727  -11.8688   17.6818 C   0  0  1  0  0  0  0  0  0  0  0  0
  -27.6941  -13.6611   19.9351 C   0  0  1  0  0  0  0  0  0  0  0  0
  -27.8942  -26.6318   18.0523 C   0  0  1  0  0  0  0  0  0  0  0  0
  -24.5569  -21.0883   17.3325 C   0  0  2  0  0  0  0  0  0  0  0  0
  -20.3703  -13.0922   22.3928 C   0  0  0  0  0  0  0  0  0  0  0  0
  -24.5064  -11.3388   17.5257 C   0  0  0  0  0  0  0  0  0  0  0  0
  -22.1642  -11.5057   18.3945 C   0  0  0  0  0  0  0  0  0  0  0  0
  -23.8417  -10.1044   19.5967 C   0  0  0  0  0  0  0  0  0  0  0  0
  -30.8736  -22.8496   20.8055 C   0  0  0  0  0  0  0  0  0  0  0  0
  -22.9620  -15.6288   23.5437 C   0  0  0  0  0  0  0  0  0  0  0  0
  -24.9086  -19.6009   17.4093 C   0  0  0  0  0  0  0  0  0  1  0  0
  -24.0206  -12.6237   19.7118 C   0  0  1  0  0  0  0  0  0  0  0  0
  -21.7701  -13.6555   22.5824 C   0  0  2  0  0  0  0  0  0  0  0  0
  -23.6496  -11.4163   18.8051 C   0  0  0  0  0  0  0  0  0  0  0  0
  -26.5744  -28.0729   19.5563 N   0  0  0  0  0  0  0  0  0  0  0  0
  -26.5740  -27.0808   18.6497 N   0  0  0  0  0  0  0  0  0  0  0  0
  -24.8859  -21.7957   18.5670 N   0  0  0  0  0  0  0  0  0  0  0  0
  -26.2438  -13.7102   19.7395 N   0  0  0  0  0  0  0  0  0  0  0  0
  -30.1156  -25.6299   18.5497 N   0  0  0  0  0  0  0  0  0  0  0  0
  -25.1518  -25.5869   17.4852 N   0  0  0  0  0  0  0  0  0  0  0  0
  -22.2931  -27.9562   20.0562 N   0  0  0  0  0  0  0  0  0  0  0  0
  -29.4358  -12.4255   18.7961 N   0  0  0  0  0  0  0  0  0  0  0  0
  -23.2436  -12.7068   20.9438 N   0  0  0  0  0  0  0  0  0  0  0  0
  -30.1269  -23.5709   19.7773 N   0  0  0  0  0  0  0  0  0  0  0  0
  -21.6576  -14.9715   23.2726 N   0  3  0  0  0  0  0  0  0  0  0  0
  -23.6313  -22.4299   20.5010 O   0  0  0  0  0  0  0  0  0  0  0  0
  -22.4467  -26.2669   18.5130 O   0  0  0  0  0  0  0  0  0  0  0  0
  -27.7621  -13.4952   17.5808 O   0  0  0  0  0  0  0  0  0  0  0  0
  -25.9023  -11.6518   20.7800 O   0  0  0  0  0  0  0  0  0  0  0  0
  -22.3794  -14.8236   20.5571 O   0  0  0  0  0  0  0  0  0  0  0  0
  -32.0325  -24.3422   18.7271 O   0  0  0  0  0  0  0  0  0  0  0  0
  -23.6551  -32.0399   23.5923 O   0  0  0  0  0  0  0  0  0  0  0  0
  -26.3250  -19.4630   17.5142 O   0  0  0  0  0  0  0  0  0  1  0  0
  -19.9788  -30.5095   27.4064 F   0  0  0  0  0  0  0  0  0  0  0  0
  -24.2659  -32.1736   26.2852 F   0  0  0  0  0  0  0  0  0  0  0  0
  1  2  1  0  0  0  0
  1  5  2  0  0  0  0
  2  6  2  0  0  0  0
  3 12  2  0  0  0  0
  3 19  1  0  0  0  0
  4 13  1  0  0  0  0
  4 19  2  0  0  0  0
  5 21  1  0  0  0  0
  6 23  1  0  0  0  0
  7 14  2  0  0  0  0
  7 22  1  0  0  0  0
  8 10  2  0  0  0  0
  8 25  1  0  0  0  0
  9 11  1  0  0  0  0
  9 25  2  0  0  0  0
 10 26  1  0  0  0  0
 11 26  2  0  0  0  0
 12 27  1  0  0  0  0
 13 27  2  0  0  0  0
 14 28  1  0  0  0  0
 15 16  2  0  0  0  0
 15 29  1  0  0  0  0
 16 30  1  0  0  0  0
 17 24  1  0  0  0  0
 17 28  2  0  0  0  0
 18 30  2  0  0  0  0
 18 31  1  0  0  0  0
 19 32  1  0  0  0  0
 20 32  1  0  0  0  0
 20 33  2  0  0  0  0
 20 35  1  0  0  0  0
 21 23  2  0  0  0  0
 21 40  1  0  0  0  0
 22 24  2  0  0  0  0
 22 41  1  0  0  0  0
 23 51  1  0  0  0  0
 24 42  1  0  0  0  0
 25 67  1  0  0  0  0
 26 74  1  0  0  0  0
 27 82  1  0  0  0  0
 28 83  1  0  0  0  0
 29 31  2  0  0  0  0
 29 82  1  0  0  0  0
 30 84  1  0  0  0  0
 31 85  1  0  0  0  0
 32 65  2  0  0  0  0
 33 66  1  0  0  0  0
 33 70  1  0  0  0  0
 34 43  1  0  0  0  0
 34 67  1  0  0  0  0
 34 76  2  0  0  0  0
 35 71  1  0  0  0  0
 35 77  2  0  0  0  0
 36 52  1  0  0  0  0
 36 72  1  0  0  0  0
 36 78  2  0  0  0  0
 37 62  1  0  0  0  0
 37 68  1  0  0  0  0
 37 79  2  0  0  0  0
 38 63  1  0  0  0  0
 38 73  1  0  0  0  0
 38 80  2  0  0  0  0
 39 69  1  0  0  0  0
 39 74  1  0  0  0  0
 39 81  2  0  0  0  0
 40 44  1  0  0  0  0
 41 52  1  0  0  0  0
 42 68  1  0  0  0  0
 43 45  1  0  0  0  0
 44 47  1  0  0  0  0
 45 54  1  0  0  0  0
 46 48  1  0  0  0  0
 46 49  1  0  0  0  0
 47 51  1  0  0  0  0
 48 53  1  0  0  0  0
 49 69  1  0  0  0  0
 50 53  1  0  0  0  0
 50 69  1  0  0  0  0
 51 72  1  0  0  0  0
 52 68  1  0  0  0  0
 53 66  1  0  0  0  0
 54 61  1  0  0  0  0
 54 67  1  0  0  0  0
 55 63  1  0  0  0  0
 56 64  1  0  0  0  0
 57 64  1  0  0  0  0
 58 64  1  0  0  0  0
 59 74  1  0  0  0  0
 60 75  1  0  0  0  0
 61 83  1  0  0  0  0
 62 64  1  0  0  0  0
 62 73  1  0  0  0  0
 63 75  1  0  0  0  0
 65 66  1  0  0  0  0
M  CHG  1  75   1
M  ISO  4  39 100  61 101  74 100  83 101
M  END
> <Batch ID>
0107

> <Smiles>
CNC(C)C(=O)NC(C(=O)N1Cc2cc([101O:1][101CH2:1]C3CCC(=O)N3c3ccc([100N:0](C)[100C:0](=O)N4CCCC(n5nc(-c6ccc(Oc7ccc(F)cc7F)cc6)c(C(N)=O)c5N)C4)cc3)ccc2CC1C(=O)NC1CCCc2ccccc21)C(C)(C)C

> <Shape>
0.222

> <Color>
0.071

> <Negative vol penalty>
0.000

$$$$

  -OEChem-04052301173D

 83 91  0     1  0  0  0  0  0999 V2000
  -29.9574  -26.8912   24.2270 C   0  0  0  0  0  0  0  0  0  0  0  0
  -30.0709  -28.1472   23.6417 C   0  0  0  0  0  0  0  0  0  0  0  0
  -28.2204  -14.3711   21.3007 C   0  0  0  0  0  0  0  0  0  0  0  0
  -26.3095  -15.2582   20.1180 C   0  0  0  0  0  0  0  0  0  0  0  0
  -29.3372  -25.8556   23.5312 C   0  0  0  0  0  0  0  0  0  0  0  0
  -29.5536  -28.3712   22.3653 C   0  0  0  0  0  0  0  0  0  0  0  0
  -22.8256  -29.5563   18.8179 C   0  0  0  0  0  0  0  0  0  0  0  0
  -23.5966  -23.4296   24.0740 C   0  0  0  0  0  0  0  0  0  0  0  0
  -22.3107  -23.9700   24.0603 C   0  0  0  0  0  0  0  0  0  0  0  0
  -27.6540  -13.0971   21.2603 C   0  0  0  0  0  0  0  0  0  0  0  0
  -25.7431  -13.9841   20.0775 C   0  0  0  0  0  0  0  0  0  0  0  0
  -21.5675  -29.0469   19.1367 C   0  0  0  0  0  0  0  0  0  0  0  0
  -23.6269  -11.0309   19.9790 C   0  0  0  0  0  0  0  0  0  0  0  0
  -22.2727  -10.9132   20.2919 C   0  0  0  0  0  0  0  0  0  0  0  0
  -21.9920  -29.4767   21.4721 C   0  0  0  0  0  0  0  0  0  0  0  0
  -23.2763  -22.6105   21.8238 C   0  0  0  0  0  0  0  0  0  0  0  0
  -22.7016  -11.8210   22.4894 C   0  0  0  0  0  0  0  0  0  0  0  0
  -27.5481  -15.4517   20.7296 C   0  0  0  0  0  0  0  0  0  0  0  0
  -28.9912  -17.3478   19.8184 C   0  0  0  0  0  0  0  0  0  0  0  0
  -28.8235  -26.0647   22.2407 C   0  0  0  0  0  0  0  0  0  0  0  0
  -23.6821  -30.0204   19.8265 C   0  0  0  0  0  0  0  0  0  0  0  0
  -28.9029  -27.3452   21.6565 C   0  0  0  0  0  0  0  0  0  0  0  0
  -23.2594  -29.9939   21.1632 C   0  0  0  0  0  0  0  0  0  0  0  0
  -21.9904  -23.1508   21.8101 C   0  0  0  0  0  0  0  0  0  0  0  0
  -24.0794  -22.7499   22.9557 C   0  0  0  0  0  0  0  0  0  0  0  0
  -21.5077  -23.8306   22.9284 C   0  0  0  0  0  0  0  0  0  0  0  0
  -26.4154  -12.9036   20.6487 C   0  0  0  0  0  0  0  0  0  0  0  0
  -21.1517  -29.0044   20.4642 C   0  0  0  0  0  0  0  0  0  0  0  0
  -24.5185  -11.5435   20.9213 C   0  0  0  0  0  0  0  0  0  0  0  0
  -21.8101  -11.3082   21.5470 C   0  0  0  0  0  0  0  0  0  0  0  0
  -24.0558  -11.9386   22.1765 C   0  0  0  0  0  0  0  0  0  0  0  0
  -28.1324  -16.7681   20.7715 C   0  0  0  0  0  0  0  0  0  0  0  0
  -29.2625  -18.5987   20.3165 C   0  0  0  0  0  0  0  0  0  0  0  0
  -29.4982  -16.8041   18.5924 C   0  0  0  0  0  0  0  0  0  0  0  0
  -26.5604  -29.1851   20.8853 C   0  0  0  0  0  0  0  0  0  0  0  0
  -26.2255  -31.8375   22.7225 C   0  0  0  0  0  0  0  0  0  0  0  0
  -24.1331  -34.0793   24.2200 C   0  0  0  0  0  0  0  0  0  0  0  0
  -26.3106  -22.2493   24.0129 C   0  0  0  0  0  0  0  0  0  0  0  0
  -28.1551  -24.9107   21.5358 C   0  0  0  0  0  0  0  0  0  0  0  0
  -25.0253  -30.5916   19.4636 C   0  0  0  0  0  0  0  0  0  0  0  0
  -24.1331  -30.4987   22.2814 C   0  0  0  0  0  0  0  0  0  0  0  0
  -28.0377  -25.1215   20.0298 C   0  0  0  0  0  0  0  0  0  0  0  0
  -29.6111  -20.9880   24.4522 C   0  0  0  0  0  0  0  0  0  0  0  0
  -27.4497  -26.4947   19.7415 C   0  0  0  0  0  0  0  0  0  0  0  0
  -29.6866  -19.8193   23.4670 C   0  0  0  0  0  0  0  0  0  0  0  0
  -28.2296  -21.0997   25.0948 C   0  0  0  0  0  0  0  0  0  0  0  0
  -27.1830  -19.9836   23.1640 C   0  0  0  0  0  0  0  0  0  0  0  0
  -28.3750  -27.6042   20.2570 C   0  0  1  0  0  0  0  0  0  0  0  0
  -26.0196  -30.5617   20.6203 C   0  0  1  0  0  0  0  0  0  0  0  0
  -28.5360  -19.8703   22.4428 C   0  0  2  0  0  0  0  0  0  0  0  0
  -21.1512  -22.9859   20.5849 C   0  0  0  0  0  0  0  0  0  0  0  0
  -24.1514  -36.1155   25.6866 C   0  0  0  0  0  0  0  0  0  0  0  0
  -26.8354  -30.0845   25.1443 C   0  0  0  0  0  0  0  0  0  0  0  0
  -25.9205  -31.9021   26.6029 C   0  0  0  0  0  0  0  0  0  0  0  0
  -27.9261  -32.3346   25.1841 C   0  0  0  0  0  0  0  0  0  0  0  0
  -22.8150  -35.7280   22.1455 C   0  0  0  0  0  0  0  0  0  0  0  0
  -18.5387  -26.0958   23.3298 C   0  0  0  0  0  0  0  0  0  0  0  0
  -18.7365  -26.7789   21.9758 C   0  0  0  0  0  0  0  0  0  0  0  0
  -19.8091  -25.4173   23.8357 C   0  0  0  0  0  0  0  0  0  0  0  0
  -19.7836  -27.8828   22.0536 C   0  0  0  0  0  0  0  0  0  1  0  0
  -25.6561  -32.1254   24.0907 C   0  0  1  0  0  0  0  0  0  0  0  0
  -24.1427  -35.5969   24.2571 C   0  0  2  0  0  0  0  0  0  0  0  0
  -26.5686  -31.6003   25.2348 C   0  0  0  0  0  0  0  0  0  0  0  0
  -27.8754  -17.5837   21.7975 N   0  0  0  0  0  0  0  0  0  0  0  0
  -28.5768  -18.6886   21.4920 N   0  0  0  0  0  0  0  0  0  0  0  0
  -25.4401  -31.0420   21.8763 N   0  0  0  0  0  0  0  0  0  0  0  0
  -27.1904  -21.1475   24.0640 N   0  0  0  0  0  0  0  0  0  0  0  0
  -30.0185  -19.6194   19.8592 N   0  0  0  0  0  0  0  0  0  0  0  0
  -29.1194  -15.5041   18.2308 N   0  0  0  0  0  0  0  0  0  0  0  0
  -25.3855  -22.2007   22.9706 N   0  0  0  0  0  0  0  0  0  0  0  0
  -20.2329  -24.3742   22.9322 N   0  0  0  0  0  0  0  0  0  0  0  0
  -27.6913  -28.8746   20.1545 N   0  0  0  0  0  0  0  0  0  0  0  0
  -25.4086  -33.5624   24.1356 N   0  0  0  0  0  0  0  0  0  0  0  0
  -22.9380  -36.1395   23.5676 N   0  3  0  0  0  0  0  0  0  0  0  0
  -30.2775  -17.4459   17.8479 O   0  0  0  0  0  0  0  0  0  0  0  0
  -25.9944  -28.4590   21.6941 O   0  0  0  0  0  0  0  0  0  0  0  0
  -27.3235  -32.3072   22.4133 O   0  0  0  0  0  0  0  0  0  0  0  0
  -23.0978  -33.4185   24.2653 O   0  0  0  0  0  0  0  0  0  0  0  0
  -26.3908  -23.1816   24.8169 O   0  0  0  0  0  0  0  0  0  0  0  0
  -25.8625  -11.6605   20.6089 O   0  0  0  0  0  0  0  0  0  0  0  0
  -19.9245  -28.5071   20.7782 O   0  0  0  0  0  0  0  0  0  1  0  0
  -20.5093  -11.1966   21.8468 F   0  0  0  0  0  0  0  0  0  0  0  0
  -24.9074  -12.4330   23.0855 F   0  0  0  0  0  0  0  0  0  0  0  0
  1  2  1  0  0  0  0
  1  5  2  0  0  0  0
  2  6  2  0  0  0  0
  3 10  2  0  0  0  0
  3 18  1  0  0  0  0
  4 11  1  0  0  0  0
  4 18  2  0  0  0  0
  5 20  1  0  0  0  0
  6 22  1  0  0  0  0
  7 12  2  0  0  0  0
  7 21  1  0  0  0  0
  8  9  2  0  0  0  0
  8 25  1  0  0  0  0
  9 26  1  0  0  0  0
 10 27  1  0  0  0  0
 11 27  2  0  0  0  0
 12 28  1  0  0  0  0
 13 14  2  0  0  0  0
 13 29  1  0  0  0  0
 14 30  1  0  0  0  0
 15 23  1  0  0  0  0
 15 28  2  0  0  0  0
 16 24  1  0  0  0  0
 16 25  2  0  0  0  0
 17 30  2  0  0  0  0
 17 31  1  0  0  0  0
 18 32  1  0  0  0  0
 19 32  1  0  0  0  0
 19 33  2  0  0  0  0
 19 34  1  0  0  0  0
 20 22  2  0  0  0  0
 20 39  1  0  0  0  0
 21 23  2  0  0  0  0
 21 40  1  0  0  0  0
 22 48  1  0  0  0  0
 23 41  1  0  0  0  0
 24 26  2  0  0  0  0
 24 51  1  0  0  0  0
 25 70  1  0  0  0  0
 26 71  1  0  0  0  0
 27 80  1  0  0  0  0
 28 81  1  0  0  0  0
 29 31  2  0  0  0  0
 29 80  1  0  0  0  0
 30 82  1  0  0  0  0
 31 83  1  0  0  0  0
 32 64  2  0  0  0  0
 33 65  1  0  0  0  0
 33 68  1  0  0  0  0
 34 69  1  0  0  0  0
 34 75  2  0  0  0  0
 35 49  1  0  0  0  0
 35 72  1  0  0  0  0
 35 76  2  0  0  0  0
 36 61  1  0  0  0  0
 36 66  1  0  0  0  0
 36 77  2  0  0  0  0
 37 62  1  0  0  0  0
 37 73  1  0  0  0  0
 37 78  2  0  0  0  0
 38 67  1  0  0  0  0
 38 70  1  0  0  0  0
 38 79  2  0  0  0  0
 39 42  1  0  0  0  0
 40 49  1  0  0  0  0
 41 66  1  0  0  0  0
 42 44  1  0  0  0  0
 43 45  1  0  0  0  0
 43 46  1  0  0  0  0
 44 48  1  0  0  0  0
 45 50  1  0  0  0  0
 46 67  1  0  0  0  0
 47 50  1  0  0  0  0
 47 67  1  0  0  0  0
 48 72  1  0  0  0  0
 49 66  1  0  0  0  0
 50 65  1  0  0  0  0
 52 62  1  0  0  0  0
 53 63  1  0  0  0  0
 54 63  1  0  0  0  0
 55 63  1  0  0  0  0
 56 74  1  0  0  0  0
 57 58  1  0  0  0  0
 57 59  1  0  0  0  0
 58 60  1  0  0  0  0
 59 71  1  0  0  0  0
 60 81  1  0  0  0  0
 61 63  1  0  0  0  0
 61 73  1  0  0  0  0
 62 74  1  0  0  0  0
 64 65  1  0  0  0  0
M  CHG  1  74   1
M  ISO  4  38 100  60 101  70 100  81 101
M  END
> <Batch ID>
0107

> <Smiles>
CNC(C)C(=O)NC(C(=O)N1Cc2cc([101O:1][101CH2:1]CCCNc3ccc([100NH:0][100C:0](=O)N4CCCC(n5nc(-c6ccc(Oc7ccc(F)cc7F)cc6)c(C(N)=O)c5N)C4)cc3C)ccc2CC1C(=O)NC1CCCc2ccccc21)C(C)(C)C

> <Shape>
0.284

> <Color>
0.082

> <Negative vol penalty>
0.000

$$$$

  -OEChem-04052301173D

 87 96  0     1  0  0  0  0  0999 V2000
  -18.0248  -24.9521   20.9152 C   0  0  0  0  0  0  0  0  0  0  0  0
  -19.3207  -24.9977   20.4113 C   0  0  0  0  0  0  0  0  0  0  0  0
  -24.0125  -11.8418   23.9386 C   0  0  0  0  0  0  0  0  0  0  0  0
  -24.5474   -9.8163   22.7353 C   0  0  0  0  0  0  0  0  0  0  0  0
  -17.6048  -25.9047   21.8427 C   0  0  0  0  0  0  0  0  0  0  0  0
  -20.1971  -25.9966   20.8338 C   0  0  0  0  0  0  0  0  0  0  0  0
  -24.8106  -24.2061   21.9086 C   0  0  0  0  0  0  0  0  0  0  0  0
  -31.0634  -19.5714   18.2574 C   0  0  0  0  0  0  0  0  0  0  0  0
  -30.7561  -18.2124   18.3227 C   0  0  0  0  0  0  0  0  0  0  0  0
  -23.5903  -11.0822   25.0296 C   0  0  0  0  0  0  0  0  0  0  0  0
  -24.1252   -9.0566   23.8263 C   0  0  0  0  0  0  0  0  0  0  0  0
  -25.6536  -23.9316   20.8326 C   0  0  0  0  0  0  0  0  0  0  0  0
  -21.1943   -8.0245   25.1587 C   0  0  0  0  0  0  0  0  0  0  0  0
  -20.3804   -6.9208   24.9038 C   0  0  0  0  0  0  0  0  0  0  0  0
  -26.7881  -26.0296   21.1939 C   0  0  0  0  0  0  0  0  0  0  0  0
  -28.7164  -20.1114   18.4496 C   0  0  0  0  0  0  0  0  0  0  0  0
  -22.0350   -5.4704   25.9018 C   0  0  0  0  0  0  0  0  0  0  0  0
  -24.4910  -11.2089   22.7914 C   0  0  0  0  0  0  0  0  0  0  0  0
  -24.1586  -12.9040   20.9142 C   0  0  0  0  0  0  0  0  0  0  0  0
  -18.4795  -26.9100   22.2840 C   0  0  0  0  0  0  0  0  0  0  0  0
  -24.9431  -25.4014   22.6297 C   0  0  0  0  0  0  0  0  0  0  0  0
  -19.7880  -26.9643   21.7670 C   0  0  0  0  0  0  0  0  0  0  0  0
  -25.9472  -26.3157   22.2803 C   0  0  0  0  0  0  0  0  0  0  0  0
  -30.0435  -20.5209   18.3209 C   0  0  0  0  0  0  0  0  0  0  0  0
  -29.4289  -17.8028   18.4513 C   0  0  0  0  0  0  0  0  0  0  0  0
  -23.6467   -9.6897   24.9735 C   0  0  0  0  0  0  0  0  0  0  0  0
  -26.6407  -24.8447   20.4733 C   0  0  0  0  0  0  0  0  0  0  0  0
  -22.4285   -7.8512   25.7850 C   0  0  0  0  0  0  0  0  0  0  0  0
  -20.8008   -5.6437   25.2754 C   0  0  0  0  0  0  0  0  0  0  0  0
  -28.4090  -18.7523   18.5148 C   0  0  0  0  0  0  0  0  0  0  0  0
  -22.8489   -6.5742   26.1566 C   0  0  0  0  0  0  0  0  0  0  0  0
  -24.9267  -11.9930   21.6638 C   0  0  0  0  0  0  0  0  0  0  0  0
  -25.0255  -13.3822   19.9623 C   0  0  0  0  0  0  0  0  0  0  0  0
  -30.4570  -24.6445   17.7262 C   0  0  0  0  0  0  0  0  0  0  0  0
  -29.7453  -24.2073   18.7736 C   0  0  0  0  0  0  0  0  0  0  0  0
  -31.4083  -23.7420   17.0465 C   0  0  0  0  0  0  0  0  0  0  0  0
  -22.7843  -13.2840   21.0649 C   0  0  0  0  0  0  0  0  0  0  0  0
  -23.0695  -27.9100   23.1779 C   0  0  0  0  0  0  0  0  0  0  0  0
  -25.4807  -28.7849   25.1636 C   0  0  0  0  0  0  0  0  0  0  0  0
  -29.0879  -28.7716   25.0911 C   0  0  0  0  0  0  0  0  0  0  0  0
  -30.0141  -15.3526   18.4675 C   0  0  0  0  0  0  0  0  0  0  0  0
  -17.9655  -27.9459   23.2522 C   0  0  0  0  0  0  0  0  0  0  0  0
  -24.0432  -25.6705   23.8045 C   0  0  0  0  0  0  0  0  0  0  0  0
  -26.1440  -27.6042   23.0349 C   0  0  0  0  0  0  0  0  0  0  0  0
  -31.5296  -22.3078   17.4974 C   0  0  0  0  0  0  0  0  0  0  0  0
  -19.0729  -28.7481   23.9307 C   0  0  0  0  0  0  0  0  0  0  0  0
  -29.6519  -11.8146   18.6353 C   0  0  0  0  0  0  0  0  0  0  0  0
  -20.1012  -29.2125   22.9042 C   0  0  0  0  0  0  0  0  0  0  0  0
  -28.3271  -11.6205   19.3765 C   0  0  0  0  0  0  0  0  0  0  0  0
  -30.4354  -13.0088   19.1774 C   0  0  0  0  0  0  0  0  0  0  0  0
  -28.3618  -14.0769   19.9700 C   0  0  0  0  0  0  0  0  0  0  0  0
  -20.7759  -28.0176   22.2196 C   0  0  1  0  0  0  0  0  0  0  0  0
  -29.8302  -22.7893   19.2993 C   0  0  2  0  0  0  0  0  0  0  0  0
  -23.9340  -27.1533   24.1463 C   0  0  1  0  0  0  0  0  0  0  0  0
  -27.5072  -12.9250   19.4162 C   0  0  2  0  0  0  0  0  0  0  0  0
  -30.7057  -22.7118   20.5548 C   0  0  0  0  0  0  0  0  0  0  0  0
  -30.7569  -28.6574   26.9616 C   0  0  0  0  0  0  0  0  0  0  0  0
  -25.4619  -31.8305   24.9791 C   0  0  0  0  0  0  0  0  0  0  0  0
  -27.9287  -31.8020   25.4059 C   0  0  0  0  0  0  0  0  0  0  0  0
  -26.3561  -30.9212   27.1304 C   0  0  0  0  0  0  0  0  0  0  0  0
  -30.4142  -26.4002   23.9179 C   0  0  0  0  0  0  0  0  0  0  0  0
  -28.7824  -25.1239   19.4778 C   0  0  0  0  0  0  0  0  0  1  0  0
  -26.7479  -29.5920   25.0157 C   0  0  1  0  0  0  0  0  0  0  0  0
  -30.0096  -27.8722   25.8949 C   0  0  2  0  0  0  0  0  0  0  0  0
  -26.6126  -31.0220   25.6109 C   0  0  0  0  0  0  0  0  0  0  0  0
  -26.1848  -11.8964   21.2257 N   0  0  0  0  0  0  0  0  0  0  0  0
  -26.2138  -12.7529   20.1905 N   0  0  0  0  0  0  0  0  0  0  0  0
  -30.3526  -21.8870   18.2559 N   0  0  2  0  0  0  0  0  0  0  0  0
  -25.2351  -27.8247   24.1719 N   0  0  0  0  0  0  0  0  0  0  0  0
  -29.5967  -14.2093   19.1812 N   0  0  0  0  0  0  0  0  0  0  0  0
  -24.8797  -14.2754   18.9606 N   0  0  0  0  0  0  0  0  0  0  0  0
  -22.0377  -12.6960   22.0950 N   0  0  0  0  0  0  0  0  0  0  0  0
  -29.1200  -16.4215   18.5169 N   0  0  0  0  0  0  0  0  0  0  0  0
  -21.7750  -27.4348   23.0894 N   0  0  0  0  0  0  0  0  0  0  0  0
  -27.8123  -28.7939   25.6143 N   0  0  0  0  0  0  0  0  0  0  0  0
  -31.0105  -27.2245   25.0006 N   0  3  0  0  0  0  0  0  0  0  0  0
  -32.1170  -24.1862   16.1431 O   0  0  0  0  0  0  0  0  0  0  0  0
  -22.2303  -14.1079   20.2983 O   0  0  0  0  0  0  0  0  0  0  0  0
  -23.5415  -28.8559   22.5582 O   0  0  0  0  0  0  0  0  0  0  0  0
  -24.7397  -28.9938   26.1275 O   0  0  0  0  0  0  0  0  0  0  0  0
  -29.4629  -29.3951   24.1006 O   0  0  0  0  0  0  0  0  0  0  0  0
  -31.0732  -15.3719   17.8350 O   0  0  0  0  0  0  0  0  0  0  0  0
  -23.2350   -8.9481   26.0380 O   0  0  0  0  0  0  0  0  0  0  0  0
  -27.4644  -24.5795   19.4231 O   0  0  0  0  0  0  0  0  0  1  0  0
  -20.0184   -4.5840   25.0320 F   0  0  0  0  0  0  0  0  0  0  0  0
  -27.1299  -18.3699   18.6380 F   0  0  0  0  0  0  0  0  0  0  0  0
  -24.0330   -6.4015   26.7597 F   0  0  0  0  0  0  0  0  0  0  0  0
  1  2  1  0  0  0  0
  1  5  2  0  0  0  0
  2  6  2  0  0  0  0
  3 10  2  0  0  0  0
  3 18  1  0  0  0  0
  4 11  1  0  0  0  0
  4 18  2  0  0  0  0
  5 20  1  0  0  0  0
  6 22  1  0  0  0  0
  7 12  2  0  0  0  0
  7 21  1  0  0  0  0
  8  9  2  0  0  0  0
  8 24  1  0  0  0  0
  9 25  1  0  0  0  0
 10 26  1  0  0  0  0
 11 26  2  0  0  0  0
 12 27  1  0  0  0  0
 13 14  2  0  0  0  0
 13 28  1  0  0  0  0
 14 29  1  0  0  0  0
 15 23  1  0  0  0  0
 15 27  2  0  0  0  0
 16 24  2  0  0  0  0
 16 30  1  0  0  0  0
 17 29  2  0  0  0  0
 17 31  1  0  0  0  0
 18 32  1  0  0  0  0
 19 32  1  0  0  0  0
 19 33  2  0  0  0  0
 19 37  1  0  0  0  0
 20 22  2  0  0  0  0
 20 42  1  0  0  0  0
 21 23  2  0  0  0  0
 21 43  1  0  0  0  0
 22 52  1  0  0  0  0
 23 44  1  0  0  0  0
 24 68  1  0  0  0  0
 25 30  2  0  0  0  0
 25 73  1  0  0  0  0
 26 83  1  0  0  0  0
 27 84  1  0  0  0  0
 28 31  2  0  0  0  0
 28 83  1  0  0  0  0
 29 85  1  0  0  0  0
 30 86  1  0  0  0  0
 31 87  1  0  0  0  0
 32 66  2  0  0  0  0
 33 67  1  0  0  0  0
 33 71  1  0  0  0  0
 34 35  2  0  0  0  0
 34 36  1  0  0  0  0
 35 53  1  0  0  0  0
 35 62  1  0  0  0  0
 36 45  1  0  0  0  0
 36 77  2  0  0  0  0
 37 72  1  0  0  0  0
 37 78  2  0  0  0  0
 38 54  1  0  0  0  0
 38 74  1  0  0  0  0
 38 79  2  0  0  0  0
 39 63  1  0  0  0  0
 39 69  1  0  0  0  0
 39 80  2  0  0  0  0
 40 64  1  0  0  0  0
 40 75  1  0  0  0  0
 40 81  2  0  0  0  0
 41 70  1  0  0  0  0
 41 73  1  0  0  0  0
 41 82  2  0  0  0  0
 42 46  1  0  0  0  0
 43 54  1  0  0  0  0
 44 69  1  0  0  0  0
 45 68  1  0  0  0  0
 46 48  1  0  0  0  0
 47 49  1  0  0  0  0
 47 50  1  0  0  0  0
 48 52  1  0  0  0  0
 49 55  1  0  0  0  0
 50 70  1  0  0  0  0
 51 55  1  0  0  0  0
 51 70  1  0  0  0  0
 52 74  1  0  0  0  0
 53 56  1  0  0  0  0
 53 68  1  0  0  0  0
 54 69  1  0  0  0  0
 55 67  1  0  0  0  0
 57 64  1  0  0  0  0
 58 65  1  0  0  0  0
 59 65  1  0  0  0  0
 60 65  1  0  0  0  0
 61 76  1  0  0  0  0
 62 84  1  0  0  0  0
 63 65  1  0  0  0  0
 63 75  1  0  0  0  0
 64 76  1  0  0  0  0
 66 67  1  0  0  0  0
M  CHG  1  76   1
M  ISO  4  41 100  62 101  73 100  84 101
M  END
> <Batch ID>
0107

> <Smiles>
CNC(C)C(=O)NC(C(=O)N1Cc2cc([101O:1][101CH2:1]C3=C(C)N(c4ccc([100NH:0][100C:0](=O)N5CCCC(n6nc(-c7ccc(Oc8ccc(F)cc8F)cc7)c(C(N)=O)c6N)C5)c(F)c4)CC(=O)C3)ccc2CC1C(=O)NC1CCCc2ccccc21)C(C)(C)C

> <Shape>
0.277

> <Color>
0.132

> <Negative vol penalty>
0.000

$$$$

  -OEChem-04052301173D

 88 97  0     1  0  0  0  0  0999 V2000
  -20.8039  -36.2300   20.4841 C   0  0  0  0  0  0  0  0  0  0  0  0
  -21.6807  -35.4948   19.6929 C   0  0  0  0  0  0  0  0  0  0  0  0
  -24.7362  -10.5476   23.7908 C   0  0  0  0  0  0  0  0  0  0  0  0
  -24.6283   -9.3242   21.7103 C   0  0  0  0  0  0  0  0  0  0  0  0
  -20.7475  -36.0007   21.8582 C   0  0  0  0  0  0  0  0  0  0  0  0
  -22.5024  -34.5305   20.2755 C   0  0  0  0  0  0  0  0  0  0  0  0
  -25.5213  -28.1860   18.8791 C   0  0  0  0  0  0  0  0  0  0  0  0
  -24.4099   -9.3861   24.4908 C   0  0  0  0  0  0  0  0  0  0  0  0
  -24.3021   -8.1626   22.4102 C   0  0  0  0  0  0  0  0  0  0  0  0
  -26.7648  -27.5560   18.9045 C   0  0  0  0  0  0  0  0  0  0  0  0
  -21.5623   -6.8161   23.8633 C   0  0  0  0  0  0  0  0  0  0  0  0
  -20.5223   -6.0306   23.3663 C   0  0  0  0  0  0  0  0  0  0  0  0
  -26.5245  -27.1908   21.2769 C   0  0  0  0  0  0  0  0  0  0  0  0
  -30.2867  -20.2164   21.0737 C   0  0  0  0  0  0  0  0  0  0  0  0
  -29.7539  -20.3298   18.7199 C   0  0  0  0  0  0  0  0  0  0  0  0
  -22.0446   -4.1706   23.1209 C   0  0  0  0  0  0  0  0  0  0  0  0
  -24.8454  -10.5167   22.4005 C   0  0  0  0  0  0  0  0  0  0  0  0
  -24.4614  -12.9256   21.6539 C   0  0  0  0  0  0  0  0  0  0  0  0
  -21.5620  -35.0265   22.4566 C   0  0  0  0  0  0  0  0  0  0  0  0
  -24.7737  -28.3331   20.0563 C   0  0  0  0  0  0  0  0  0  0  0  0
  -22.4578  -34.2889   21.6591 C   0  0  0  0  0  0  0  0  0  0  0  0
  -25.2707  -27.8208   21.2633 C   0  0  0  0  0  0  0  0  0  0  0  0
  -30.0409  -18.8434   21.0632 C   0  0  0  0  0  0  0  0  0  0  0  0
  -29.5081  -18.9567   18.7094 C   0  0  0  0  0  0  0  0  0  0  0  0
  -30.1431  -20.9596   19.9020 C   0  0  0  0  0  0  0  0  0  0  0  0
  -29.6517  -18.2136   19.8811 C   0  0  0  0  0  0  0  0  0  0  0  0
  -24.1929   -8.1936   23.8005 C   0  0  0  0  0  0  0  0  0  0  0  0
  -27.2678  -27.0608   20.1040 C   0  0  0  0  0  0  0  0  0  0  0  0
  -22.8434   -6.2789   23.9890 C   0  0  0  0  0  0  0  0  0  0  0  0
  -20.7634   -4.7078   22.9952 C   0  0  0  0  0  0  0  0  0  0  0  0
  -23.0846   -4.9562   23.6179 C   0  0  0  0  0  0  0  0  0  0  0  0
  -25.1818  -11.7163   21.6768 C   0  0  0  0  0  0  0  0  0  0  0  0
  -25.1910  -13.7443   20.8269 C   0  0  0  0  0  0  0  0  0  0  0  0
  -29.8100  -24.6267   19.3067 C   0  0  0  0  0  0  0  0  0  0  0  0
  -29.4519  -23.3488   19.5813 C   0  0  0  0  0  0  0  0  0  0  0  0
  -31.2724  -24.9676   19.3093 C   0  0  0  0  0  0  0  0  0  0  0  0
  -23.2419  -13.2774   22.3207 C   0  0  0  0  0  0  0  0  0  0  0  0
  -23.6949  -30.8080   21.7340 C   0  0  0  0  0  0  0  0  0  0  0  0
  -22.2108  -28.4946   23.4569 C   0  0  0  0  0  0  0  0  0  0  0  0
  -23.0397  -25.2259   24.7397 C   0  0  0  0  0  0  0  0  0  0  0  0
  -30.0509  -15.8493   19.1085 C   0  0  0  0  0  0  0  0  0  0  0  0
  -21.4996  -34.8472   23.9528 C   0  0  0  0  0  0  0  0  0  0  0  0
  -23.4222  -28.9914   20.0073 C   0  0  0  0  0  0  0  0  0  0  0  0
  -24.4982  -27.9352   22.5512 C   0  0  0  0  0  0  0  0  0  0  0  0
  -32.2729  -23.8498   19.4785 C   0  0  0  0  0  0  0  0  0  0  0  0
  -22.1349  -33.5465   24.4375 C   0  0  0  0  0  0  0  0  0  0  0  0
  -29.0766  -12.7038   17.7542 C   0  0  0  0  0  0  0  0  0  0  0  0
  -23.4913  -33.3348   23.7726 C   0  0  0  0  0  0  0  0  0  0  0  0
  -27.9172  -12.2660   18.6521 C   0  0  0  0  0  0  0  0  0  0  0  0
  -31.7341  -22.7413   20.3658 C   0  0  0  0  0  0  0  0  0  0  0  0
  -30.1625  -13.4317   18.5446 C   0  0  0  0  0  0  0  0  0  0  0  0
  -28.5292  -14.1215   20.2551 C   0  0  0  0  0  0  0  0  0  0  0  0
  -23.3473  -33.2170   22.2505 C   0  0  1  0  0  0  0  0  0  0  0  0
  -22.9768  -29.5428   21.3582 C   0  0  1  0  0  0  0  0  0  0  0  0
  -27.3805  -13.4412   19.4927 C   0  0  2  0  0  0  0  0  0  0  0  0
  -30.2028  -18.0745   22.3345 C   0  0  0  0  0  0  0  0  0  0  0  0
  -29.0915  -18.3102   17.4280 C   0  0  0  0  0  0  0  0  0  0  0  0
  -27.9842  -22.9736   19.6519 C   0  0  0  0  0  0  0  0  0  0  0  0
  -21.5715  -23.2612   25.2705 C   0  0  0  0  0  0  0  0  0  0  0  0
  -22.2043  -29.6330   26.2877 C   0  0  0  0  0  0  0  0  0  0  0  0
  -22.3074  -27.2872   27.1565 C   0  0  0  0  0  0  0  0  0  0  0  0
  -20.3472  -28.0295   25.8039 C   0  0  0  0  0  0  0  0  0  0  0  0
  -24.6052  -23.4331   22.9807 C   0  0  0  0  0  0  0  0  0  0  0  0
  -28.8886  -25.7586   18.9494 C   0  0  0  0  0  0  0  0  0  1  0  0
  -22.5728  -27.6611   24.6624 C   0  0  1  0  0  0  0  0  0  0  0  0
  -22.5028  -23.8938   24.2481 C   0  0  2  0  0  0  0  0  0  0  0  0
  -21.8778  -28.1624   25.9597 C   0  0  0  0  0  0  0  0  0  0  0  0
  -26.2843  -11.7586   20.9240 N   0  0  0  0  0  0  0  0  0  0  0  0
  -26.2621  -13.0043   20.4203 N   0  0  0  0  0  0  0  0  0  0  0  0
  -30.3931  -22.3562   19.9118 N   0  0  0  0  0  0  0  0  0  0  0  0
  -23.1846  -28.5927   22.4529 N   0  0  0  0  0  0  0  0  0  0  0  0
  -29.5810  -14.5347   19.3129 N   0  0  0  0  0  0  0  0  0  0  0  0
  -25.0143  -15.0177   20.4150 N   0  0  0  0  0  0  0  0  0  0  0  0
  -22.0277  -13.0382   21.6628 N   0  0  0  0  0  0  0  0  0  0  0  0
  -29.4008  -16.8190   19.8711 N   0  0  0  0  0  0  0  0  0  0  0  0
  -22.8644  -31.9016   21.8888 N   0  0  0  0  0  0  0  0  0  0  0  0
  -22.2600  -26.2798   24.3124 N   0  0  0  0  0  0  0  0  0  0  0  0
  -23.6244  -22.9483   23.9857 N   0  3  0  0  0  0  0  0  0  0  0  0
  -31.6509  -26.1237   19.1220 O   0  0  0  0  0  0  0  0  0  0  0  0
  -23.2299  -13.8039   23.4592 O   0  0  0  0  0  0  0  0  0  0  0  0
  -24.9121  -30.7929   21.8746 O   0  0  0  0  0  0  0  0  0  0  0  0
  -21.1021  -29.0329   23.4046 O   0  0  0  0  0  0  0  0  0  0  0  0
  -24.0476  -25.3216   25.4364 O   0  0  0  0  0  0  0  0  0  0  0  0
  -30.9442  -16.1000   18.2954 O   0  0  0  0  0  0  0  0  0  0  0  0
  -23.8747   -7.0599   24.4832 O   0  0  0  0  0  0  0  0  0  0  0  0
  -28.4815  -26.4460   20.1318 O   0  0  0  0  0  0  0  0  0  1  0  0
  -19.7643   -3.9531   22.5195 F   0  0  0  0  0  0  0  0  0  0  0  0
  -24.3130   -4.4342   23.7375 F   0  0  0  0  0  0  0  0  0  0  0  0
  1  2  1  0  0  0  0
  1  5  2  0  0  0  0
  2  6  2  0  0  0  0
  3  8  2  0  0  0  0
  3 17  1  0  0  0  0
  4  9  1  0  0  0  0
  4 17  2  0  0  0  0
  5 19  1  0  0  0  0
  6 21  1  0  0  0  0
  7 10  2  0  0  0  0
  7 20  1  0  0  0  0
  8 27  1  0  0  0  0
  9 27  2  0  0  0  0
 10 28  1  0  0  0  0
 11 12  2  0  0  0  0
 11 29  1  0  0  0  0
 12 30  1  0  0  0  0
 13 22  1  0  0  0  0
 13 28  2  0  0  0  0
 14 23  2  0  0  0  0
 14 25  1  0  0  0  0
 15 24  1  0  0  0  0
 15 25  2  0  0  0  0
 16 30  2  0  0  0  0
 16 31  1  0  0  0  0
 17 32  1  0  0  0  0
 18 32  1  0  0  0  0
 18 33  2  0  0  0  0
 18 37  1  0  0  0  0
 19 21  2  0  0  0  0
 19 42  1  0  0  0  0
 20 22  2  0  0  0  0
 20 43  1  0  0  0  0
 21 53  1  0  0  0  0
 22 44  1  0  0  0  0
 23 26  1  0  0  0  0
 23 56  1  0  0  0  0
 24 26  2  0  0  0  0
 24 57  1  0  0  0  0
 25 70  1  0  0  0  0
 26 75  1  0  0  0  0
 27 85  1  0  0  0  0
 28 86  1  0  0  0  0
 29 31  2  0  0  0  0
 29 85  1  0  0  0  0
 30 87  1  0  0  0  0
 31 88  1  0  0  0  0
 32 68  2  0  0  0  0
 33 69  1  0  0  0  0
 33 73  1  0  0  0  0
 34 35  2  0  0  0  0
 34 36  1  0  0  0  0
 34 64  1  0  0  0  0
 35 58  1  0  0  0  0
 35 70  1  0  0  0  0
 36 45  1  0  0  0  0
 36 79  2  0  0  0  0
 37 74  1  0  0  0  0
 37 80  2  0  0  0  0
 38 54  1  0  0  0  0
 38 76  1  0  0  0  0
 38 81  2  0  0  0  0
 39 65  1  0  0  0  0
 39 71  1  0  0  0  0
 39 82  2  0  0  0  0
 40 66  1  0  0  0  0
 40 77  1  0  0  0  0
 40 83  2  0  0  0  0
 41 72  1  0  0  0  0
 41 75  1  0  0  0  0
 41 84  2  0  0  0  0
 42 46  1  0  0  0  0
 43 54  1  0  0  0  0
 44 71  1  0  0  0  0
 45 50  1  0  0  0  0
 46 48  1  0  0  0  0
 47 49  1  0  0  0  0
 47 51  1  0  0  0  0
 48 53  1  0  0  0  0
 49 55  1  0  0  0  0
 50 70  1  0  0  0  0
 51 72  1  0  0  0  0
 52 55  1  0  0  0  0
 52 72  1  0  0  0  0
 53 76  1  0  0  0  0
 54 71  1  0  0  0  0
 55 69  1  0  0  0  0
 59 66  1  0  0  0  0
 60 67  1  0  0  0  0
 61 67  1  0  0  0  0
 62 67  1  0  0  0  0
 63 78  1  0  0  0  0
 64 86  1  0  0  0  0
 65 67  1  0  0  0  0
 65 77  1  0  0  0  0
 66 78  1  0  0  0  0
 68 69  1  0  0  0  0
M  CHG  1  78   1
M  ISO  4  41 100  64 101  75 100  86 101
M  END
> <Batch ID>
0107

> <Smiles>
CNC(C)C(=O)NC(C(=O)N1Cc2cc([101O:1][101CH2:1]C3=C(C)N(c4cc(C)c([100NH:0][100C:0](=O)N5CCCC(n6nc(-c7ccc(Oc8ccc(F)cc8F)cc7)c(C(N)=O)c6N)C5)c(C)c4)CCC3=O)ccc2CC1C(=O)NC1CCCc2ccccc21)C(C)(C)C

> <Shape>
0.289

> <Color>
0.150

> <Negative vol penalty>
0.000

$$$$

  -OEChem-04052301173D

 86 94  0     1  0  0  0  0  0999 V2000
  -29.4475  -34.3324   25.7301 C   0  0  0  0  0  0  0  0  0  0  0  0
  -29.6398  -33.2321   24.9007 C   0  0  0  0  0  0  0  0  0  0  0  0
  -24.4982  -14.1117   14.9047 C   0  0  0  0  0  0  0  0  0  0  0  0
  -23.8021  -11.9972   15.8435 C   0  0  0  0  0  0  0  0  0  0  0  0
  -28.2501  -34.4757   26.4298 C   0  0  0  0  0  0  0  0  0  0  0  0
  -28.6351  -32.2738   24.7715 C   0  0  0  0  0  0  0  0  0  0  0  0
  -27.2238  -29.0744   19.7438 C   0  0  0  0  0  0  0  0  0  0  0  0
  -23.9932  -13.7266   13.6628 C   0  0  0  0  0  0  0  0  0  0  0  0
  -23.2971  -11.6121   14.6017 C   0  0  0  0  0  0  0  0  0  0  0  0
  -27.5537  -27.7848   19.3293 C   0  0  0  0  0  0  0  0  0  0  0  0
  -23.2087  -13.1546   10.1584 C   0  0  0  0  0  0  0  0  0  0  0  0
  -23.9979  -13.3932    9.0334 C   0  0  0  0  0  0  0  0  0  0  0  0
  -25.4615  -26.9720   20.2132 C   0  0  0  0  0  0  0  0  0  0  0  0
  -31.0585  -19.1091   19.5054 C   0  0  0  0  0  0  0  0  0  0  0  0
  -32.6076  -17.5743   18.4657 C   0  0  0  0  0  0  0  0  0  0  0  0
  -33.1322  -19.9300   18.5765 C   0  0  0  0  0  0  0  0  0  0  0  0
  -25.7392  -11.9972    9.9588 C   0  0  0  0  0  0  0  0  0  0  0  0
  -24.4027  -13.2470   15.9951 C   0  0  0  0  0  0  0  0  0  0  0  0
  -24.2380  -14.3243   18.3016 C   0  0  0  0  0  0  0  0  0  0  0  0
  -27.2265  -33.5237   26.3016 C   0  0  0  0  0  0  0  0  0  0  0  0
  -26.0131  -29.3211   20.4069 C   0  0  0  0  0  0  0  0  0  0  0  0
  -27.4234  -32.4038   25.4712 C   0  0  0  0  0  0  0  0  0  0  0  0
  -25.1174  -28.2661   20.6328 C   0  0  0  0  0  0  0  0  0  0  0  0
  -31.4000  -17.8123   19.1219 C   0  0  0  0  0  0  0  0  0  0  0  0
  -23.3927  -12.4768   13.5113 C   0  0  0  0  0  0  0  0  0  0  0  0
  -26.6738  -26.7329   19.5665 C   0  0  0  0  0  0  0  0  0  0  0  0
  -23.6847  -12.3373   11.1837 C   0  0  0  0  0  0  0  0  0  0  0  0
  -31.9245  -20.1680   19.2327 C   0  0  0  0  0  0  0  0  0  0  0  0
  -25.2631  -12.8145    8.9335 C   0  0  0  0  0  0  0  0  0  0  0  0
  -33.4737  -18.6331   18.1930 C   0  0  0  0  0  0  0  0  0  0  0  0
  -24.9499  -11.7586   11.0839 C   0  0  0  0  0  0  0  0  0  0  0  0
  -24.9247  -13.6440   17.2780 C   0  0  0  0  0  0  0  0  0  0  0  0
  -25.1663  -14.4630   19.3044 C   0  0  0  0  0  0  0  0  0  0  0  0
  -22.8823  -14.7891   18.3423 C   0  0  0  0  0  0  0  0  0  0  0  0
  -25.2126  -30.4075   23.2849 C   0  0  0  0  0  0  0  0  0  0  0  0
  -22.2102  -30.2994   22.0618 C   0  0  0  0  0  0  0  0  0  0  0  0
  -20.0589  -28.9574   19.7776 C   0  0  0  0  0  0  0  0  0  0  0  0
  -30.9898  -15.4099   19.6275 C   0  0  0  0  0  0  0  0  0  0  0  0
  -25.9680  -33.6969   27.1146 C   0  0  0  0  0  0  0  0  0  0  0  0
  -25.6601  -30.7225   20.8239 C   0  0  0  0  0  0  0  0  0  0  0  0
  -23.7960  -28.4817   21.3226 C   0  0  0  0  0  0  0  0  0  0  0  0
  -24.8072  -32.8308   26.6323 C   0  0  0  0  0  0  0  0  0  0  0  0
  -29.3877  -12.2041   20.5030 C   0  0  0  0  0  0  0  0  0  0  0  0
  -25.2761  -31.4010   26.3818 C   0  0  0  0  0  0  0  0  0  0  0  0
  -28.0363  -12.2946   19.7961 C   0  0  0  0  0  0  0  0  0  0  0  0
  -30.4666  -12.9926   19.7664 C   0  0  0  0  0  0  0  0  0  0  0  0
  -28.7560  -14.5107   18.8180 C   0  0  0  0  0  0  0  0  0  0  0  0
  -26.3476  -31.3558   25.2857 C   0  0  1  0  0  0  0  0  0  0  0  0
  -24.6299  -30.7698   21.9481 C   0  0  1  0  0  0  0  0  0  0  0  0
  -27.6382  -13.7617   19.5593 C   0  0  1  0  0  0  0  0  0  0  0  0
  -26.8866  -17.8351   18.7564 C   0  0  0  0  0  0  0  0  0  0  0  0
  -17.6596  -29.0381   19.0467 C   0  0  0  0  0  0  0  0  0  0  0  0
  -21.4184  -28.6220   24.4845 C   0  0  0  0  0  0  0  0  0  0  0  0
  -19.3433  -27.9514   23.2546 C   0  0  0  0  0  0  0  0  0  0  0  0
  -19.7375  -30.3495   23.8173 C   0  0  0  0  0  0  0  0  0  0  0  0
  -20.7947  -29.8946   17.0685 C   0  0  0  0  0  0  0  0  0  0  0  0
  -28.3402  -17.4942   18.4590 C   0  0  0  0  0  0  0  0  0  0  0  0
  -28.5545  -23.6425   19.3717 C   0  0  0  0  0  0  0  0  0  0  0  0
  -30.0249  -23.2393   19.3606 C   0  0  0  0  0  0  0  0  0  0  0  0
  -29.0978  -17.0180   19.6927 C   0  0  0  0  0  0  0  0  0  0  0  0
  -28.3796  -25.1353   19.1261 C   0  0  0  0  0  0  0  0  0  1  0  0
  -30.2031  -21.7553   19.6486 C   0  0  0  0  0  0  0  0  0  0  0  0
  -21.1175  -29.2596   22.0007 C   0  0  1  0  0  0  0  0  0  0  0  0
  -19.0562  -29.6025   18.8379 C   0  0  2  0  0  0  0  0  0  0  0  0
  -20.4298  -29.0409   23.3780 C   0  0  0  0  0  0  0  0  0  0  0  0
  -26.1914  -13.3698   17.6009 N   0  0  0  0  0  0  0  0  0  0  0  0
  -26.3081  -13.8804   18.8385 N   0  0  0  0  0  0  0  0  0  0  0  0
  -23.4991  -29.8687   21.7169 N   0  0  0  0  0  0  0  0  0  0  0  0
  -30.0445  -14.3708   19.5138 N   0  0  0  0  0  0  0  0  0  0  0  0
  -25.1091  -15.0253   20.5303 N   0  0  0  0  0  0  0  0  0  0  0  0
  -22.0649  -14.5636   17.2264 N   0  0  0  0  0  0  0  0  0  0  0  0
  -25.7390  -31.4804   23.9786 N   0  0  0  0  0  0  0  0  0  0  0  0
  -20.2097  -29.6832   20.9402 N   0  0  0  0  0  0  0  0  0  0  0  0
  -30.5033  -16.7159   19.4024 N   0  0  0  0  0  0  0  0  0  0  0  0
  -19.4505  -29.3688   17.4199 N   0  3  0  0  0  0  0  0  0  0  0  0
  -22.4146  -15.4013   19.3323 O   0  0  0  0  0  0  0  0  0  0  0  0
  -25.1853  -29.2412   23.6598 O   0  0  0  0  0  0  0  0  0  0  0  0
  -21.9291  -31.4530   22.3961 O   0  0  0  0  0  0  0  0  0  0  0  0
  -20.6467  -27.9120   19.5088 O   0  0  0  0  0  0  0  0  0  0  0  0
  -32.1673  -15.1899   19.9351 O   0  0  0  0  0  0  0  0  0  0  0  0
  -22.8996  -12.1007   12.2997 O   0  0  0  0  0  0  0  0  0  0  0  0
  -26.9936  -25.4730   19.1636 O   0  0  0  0  0  0  0  0  0  1  0  0
  -31.5886  -21.4425   19.6092 O   0  0  0  0  0  0  0  0  0  0  0  0
  -26.0203  -13.0425    7.8524 F   0  0  0  0  0  0  0  0  0  0  0  0
  -34.6326  -18.4051   17.5609 F   0  0  0  0  0  0  0  0  0  0  0  0
  -25.4122  -10.9717   12.0651 F   0  0  0  0  0  0  0  0  0  0  0  0
  1  2  1  0  0  0  0
  1  5  2  0  0  0  0
  2  6  2  0  0  0  0
  3  8  2  0  0  0  0
  3 18  1  0  0  0  0
  4  9  1  0  0  0  0
  4 18  2  0  0  0  0
  5 20  1  0  0  0  0
  6 22  1  0  0  0  0
  7 10  2  0  0  0  0
  7 21  1  0  0  0  0
  8 25  1  0  0  0  0
  9 25  2  0  0  0  0
 10 26  1  0  0  0  0
 11 12  2  0  0  0  0
 11 27  1  0  0  0  0
 12 29  1  0  0  0  0
 13 23  1  0  0  0  0
 13 26  2  0  0  0  0
 14 24  2  0  0  0  0
 14 28  1  0  0  0  0
 15 24  1  0  0  0  0
 15 30  2  0  0  0  0
 16 28  2  0  0  0  0
 16 30  1  0  0  0  0
 17 29  2  0  0  0  0
 17 31  1  0  0  0  0
 18 32  1  0  0  0  0
 19 32  1  0  0  0  0
 19 33  2  0  0  0  0
 19 34  1  0  0  0  0
 20 22  2  0  0  0  0
 20 39  1  0  0  0  0
 21 23  2  0  0  0  0
 21 40  1  0  0  0  0
 22 48  1  0  0  0  0
 23 41  1  0  0  0  0
 24 74  1  0  0  0  0
 25 81  1  0  0  0  0
 26 82  1  0  0  0  0
 27 31  2  0  0  0  0
 27 81  1  0  0  0  0
 28 83  1  0  0  0  0
 29 84  1  0  0  0  0
 30 85  1  0  0  0  0
 31 86  1  0  0  0  0
 32 66  2  0  0  0  0
 33 67  1  0  0  0  0
 33 70  1  0  0  0  0
 34 71  1  0  0  0  0
 34 76  2  0  0  0  0
 35 49  1  0  0  0  0
 35 72  1  0  0  0  0
 35 77  2  0  0  0  0
 36 63  1  0  0  0  0
 36 68  1  0  0  0  0
 36 78  2  0  0  0  0
 37 64  1  0  0  0  0
 37 73  1  0  0  0  0
 37 79  2  0  0  0  0
 38 69  1  0  0  0  0
 38 74  1  0  0  0  0
 38 80  2  0  0  0  0
 39 42  1  0  0  0  0
 40 49  1  0  0  0  0
 41 68  1  0  0  0  0
 42 44  1  0  0  0  0
 43 45  1  0  0  0  0
 43 46  1  0  0  0  0
 44 48  1  0  0  0  0
 45 50  1  0  0  0  0
 46 69  1  0  0  0  0
 47 50  1  0  0  0  0
 47 69  1  0  0  0  0
 48 72  1  0  0  0  0
 49 68  1  0  0  0  0
 50 67  1  0  0  0  0
 51 57  1  0  0  0  0
 52 64  1  0  0  0  0
 53 65  1  0  0  0  0
 54 65  1  0  0  0  0
 55 65  1  0  0  0  0
 56 75  1  0  0  0  0
 57 60  1  0  0  0  0
 58 59  1  0  0  0  0
 58 61  1  0  0  0  0
 59 62  1  0  0  0  0
 60 74  1  0  0  0  0
 61 82  1  0  0  0  0
 62 83  1  0  0  0  0
 63 65  1  0  0  0  0
 63 73  1  0  0  0  0
 64 75  1  0  0  0  0
 66 67  1  0  0  0  0
M  CHG  1  75   1
M  ISO  4  38 100  61 101  74 100  82 101
M  END
> <Batch ID>
0107

> <Smiles>
CCC[100N:0](c1cc(F)cc(OCCC[101CH2:1][101O:1]c2ccc3c(c2)CN(C(=O)C(NC(=O)C(C)NC)C(C)(C)C)C(C(=O)NC2CCCc4ccccc42)C3)c1)[100C:0](=O)N1CCCC(n2nc(-c3ccc(Oc4ccc(F)cc4F)cc3)c(C(N)=O)c2N)C1

> <Shape>
0.237

> <Color>
0.097

> <Negative vol penalty>
0.000

$$$$

  -OEChem-04052301173D

 82 90  0     1  0  0  0  0  0999 V2000
  -24.1071  -32.2592   24.7398 C   0  0  0  0  0  0  0  0  0  0  0  0
  -24.8643  -31.1405   25.0723 C   0  0  0  0  0  0  0  0  0  0  0  0
  -22.9987   -9.8929   19.9830 C   0  0  0  0  0  0  0  0  0  0  0  0
  -23.7187   -9.9508   22.2885 C   0  0  0  0  0  0  0  0  0  0  0  0
  -22.7155  -32.1763   24.7179 C   0  0  0  0  0  0  0  0  0  0  0  0
  -24.2301  -29.9384   25.3842 C   0  0  0  0  0  0  0  0  0  0  0  0
  -26.4044  -25.9549   23.1371 C   0  0  0  0  0  0  0  0  0  0  0  0
  -22.2308   -8.7598   20.2512 C   0  0  0  0  0  0  0  0  0  0  0  0
  -22.9508   -8.8177   22.5568 C   0  0  0  0  0  0  0  0  0  0  0  0
  -27.5838  -25.4708   23.7014 C   0  0  0  0  0  0  0  0  0  0  0  0
  -21.4646   -5.7295   23.7667 C   0  0  0  0  0  0  0  0  0  0  0  0
  -22.0483   -4.7157   24.5265 C   0  0  0  0  0  0  0  0  0  0  0  0
  -31.9176  -18.7515   22.3225 C   0  0  0  0  0  0  0  0  0  0  0  0
  -31.8187  -17.4769   21.6933 C   0  0  0  0  0  0  0  0  0  0  0  0
  -26.3370  -23.7117   24.7832 C   0  0  0  0  0  0  0  0  0  0  0  0
  -23.7782   -4.4621   22.8592 C   0  0  0  0  0  0  0  0  0  0  0  0
  -23.7426  -10.4884   21.0016 C   0  0  0  0  0  0  0  0  0  0  0  0
  -24.1300  -13.0032   20.8184 C   0  0  0  0  0  0  0  0  0  0  0  0
  -22.0643  -30.9700   25.0202 C   0  0  0  0  0  0  0  0  0  0  0  0
  -25.1789  -25.3265   23.4007 C   0  0  0  0  0  0  0  0  0  0  0  0
  -22.8285  -29.8396   25.3676 C   0  0  0  0  0  0  0  0  0  0  0  0
  -25.1438  -24.1882   24.2189 C   0  0  0  0  0  0  0  0  0  0  0  0
  -22.2068   -8.2222   21.5381 C   0  0  0  0  0  0  0  0  0  0  0  0
  -27.5498  -24.3508   24.5270 C   0  0  0  0  0  0  0  0  0  0  0  0
  -22.0377   -6.1095   22.5531 C   0  0  0  0  0  0  0  0  0  0  0  0
  -23.2051   -4.0821   24.0728 C   0  0  0  0  0  0  0  0  0  0  0  0
  -23.1945   -5.4758   22.0993 C   0  0  0  0  0  0  0  0  0  0  0  0
  -24.5365  -11.6587   20.7250 C   0  0  0  0  0  0  0  0  0  0  0  0
  -25.2410  -13.7239   20.4542 C   0  0  0  0  0  0  0  0  0  0  0  0
  -30.7639  -19.0868   22.9963 C   0  0  0  0  0  0  0  0  0  0  0  0
  -30.5931  -16.8864   21.9105 C   0  0  0  0  0  0  0  0  0  0  0  0
  -29.4103  -22.9407   24.3822 C   0  0  0  0  0  0  0  0  0  1  0  0
  -22.8615  -13.5517   21.2003 C   0  0  0  0  0  0  0  0  0  0  0  0
  -30.5553  -22.3963   24.8160 C   0  0  0  0  0  0  0  0  0  0  0  0
  -31.2258  -21.3566   23.9705 C   0  0  0  0  0  0  0  0  0  0  0  0
  -22.4565  -26.2101   24.7834 C   0  0  0  0  0  0  0  0  0  0  0  0
  -21.4514  -23.2957   23.7744 C   0  0  0  0  0  0  0  0  0  0  0  0
  -22.2620  -20.1152   22.8394 C   0  0  0  0  0  0  0  0  0  0  0  0
  -30.7206  -14.6821   20.6976 C   0  0  0  0  0  0  0  0  0  0  0  0
  -20.5564  -30.9416   25.0293 C   0  0  0  0  0  0  0  0  0  0  0  0
  -23.9193  -25.8450   22.7628 C   0  0  0  0  0  0  0  0  0  0  0  0
  -23.8567  -23.4651   24.5169 C   0  0  0  0  0  0  0  0  0  0  0  0
  -19.9737  -29.5308   25.0075 C   0  0  0  0  0  0  0  0  0  0  0  0
  -29.6060  -12.2227   18.3769 C   0  0  0  0  0  0  0  0  0  0  0  0
  -20.6872  -28.6427   26.0219 C   0  0  0  0  0  0  0  0  0  0  0  0
  -28.1543  -11.9673   18.7886 C   0  0  0  0  0  0  0  0  0  0  0  0
  -30.5039  -12.4693   19.5879 C   0  0  0  0  0  0  0  0  0  0  0  0
  -28.5861  -13.2636   20.9146 C   0  0  0  0  0  0  0  0  0  0  0  0
  -22.1780  -28.5113   25.6878 C   0  0  1  0  0  0  0  0  0  0  0  0
  -22.6563  -25.4333   23.5129 C   0  0  1  0  0  0  0  0  0  0  0  0
  -27.6310  -13.0741   19.7249 C   0  0  2  0  0  0  0  0  0  0  0  0
  -31.2046  -22.7015   26.1300 C   0  0  0  0  0  0  0  0  0  0  0  0
  -21.2224  -17.9520   22.1063 C   0  0  0  0  0  0  0  0  0  0  0  0
  -20.6044  -22.7308   26.6508 C   0  0  0  0  0  0  0  0  0  0  0  0
  -20.4741  -20.3009   26.0616 C   0  0  0  0  0  0  0  0  0  0  0  0
  -18.9877  -21.9424   24.9132 C   0  0  0  0  0  0  0  0  0  0  0  0
  -23.6697  -20.1865   20.2370 C   0  0  0  0  0  0  0  0  0  0  0  0
  -21.4537  -21.9031   24.3574 C   0  0  1  0  0  0  0  0  0  0  0  0
  -21.8274  -19.2720   21.6542 C   0  0  2  0  0  0  0  0  0  0  0  0
  -20.4041  -21.7338   25.4919 C   0  0  0  0  0  0  0  0  0  0  0  0
  -25.8066  -11.5301   20.3321 N   0  0  0  0  0  0  0  0  0  0  0  0
  -26.2077  -12.8031   20.1754 N   0  0  0  0  0  0  0  0  0  0  0  0
  -22.6511  -24.0143   23.8747 N   0  0  0  0  0  0  0  0  0  0  0  0
  -29.9477  -13.5333   20.4266 N   0  0  0  0  0  0  0  0  0  0  0  0
  -25.4756  -15.0491   20.3484 N   0  0  0  0  0  0  0  0  0  0  0  0
  -21.8284  -12.6693   21.5443 N   0  0  0  0  0  0  0  0  0  0  0  0
  -30.4321  -20.2404   23.7479 N   0  0  0  0  0  0  0  0  0  0  0  0
  -30.0752  -15.6402   21.4787 N   0  0  0  0  0  0  0  0  0  0  0  0
  -22.3716  -27.5770   24.5996 N   0  0  0  0  0  0  0  0  0  0  0  0
  -21.2720  -20.9901   23.2341 N   0  0  0  0  0  0  0  0  0  0  0  0
  -22.9925  -18.9777   20.7729 N   0  3  0  0  0  0  0  0  0  0  0  0
  -22.6455  -14.7872   21.2196 O   0  0  0  0  0  0  0  0  0  0  0  0
  -32.3441  -21.5854   23.5199 O   0  0  0  0  0  0  0  0  0  0  0  0
  -22.3833  -25.6134   25.8513 O   0  0  0  0  0  0  0  0  0  0  0  0
  -20.4251  -23.7271   23.2431 O   0  0  0  0  0  0  0  0  0  0  0  0
  -23.3676  -20.0059   23.3649 O   0  0  0  0  0  0  0  0  0  0  0  0
  -31.8604  -14.8189   20.2457 O   0  0  0  0  0  0  0  0  0  0  0  0
  -21.4575   -7.1166   21.8003 O   0  0  0  0  0  0  0  0  0  0  0  0
  -28.6994  -23.8766   25.0796 O   0  0  0  0  0  0  0  0  0  1  0  0
  -23.7663   -3.1097   24.8032 F   0  0  0  0  0  0  0  0  0  0  0  0
  -23.7503   -5.8374   20.9348 F   0  0  0  0  0  0  0  0  0  0  0  0
  -29.5682  -17.8676   22.8692 S   0  0  0  0  0  0  0  0  0  0  0  0
  1  2  1  0  0  0  0
  1  5  2  0  0  0  0
  2  6  2  0  0  0  0
  3  8  2  0  0  0  0
  3 17  1  0  0  0  0
  4  9  1  0  0  0  0
  4 17  2  0  0  0  0
  5 19  1  0  0  0  0
  6 21  1  0  0  0  0
  7 10  2  0  0  0  0
  7 20  1  0  0  0  0
  8 23  1  0  0  0  0
  9 23  2  0  0  0  0
 10 24  1  0  0  0  0
 11 12  2  0  0  0  0
 11 25  1  0  0  0  0
 12 26  1  0  0  0  0
 13 14  1  0  0  0  0
 13 30  2  0  0  0  0
 14 31  2  0  0  0  0
 15 22  1  0  0  0  0
 15 24  2  0  0  0  0
 16 26  2  0  0  0  0
 16 27  1  0  0  0  0
 17 28  1  0  0  0  0
 18 28  1  0  0  0  0
 18 29  2  0  0  0  0
 18 33  1  0  0  0  0
 19 21  2  0  0  0  0
 19 40  1  0  0  0  0
 20 22  2  0  0  0  0
 20 41  1  0  0  0  0
 21 49  1  0  0  0  0
 22 42  1  0  0  0  0
 23 78  1  0  0  0  0
 24 79  1  0  0  0  0
 25 27  2  0  0  0  0
 25 78  1  0  0  0  0
 26 80  1  0  0  0  0
 27 81  1  0  0  0  0
 28 61  2  0  0  0  0
 29 62  1  0  0  0  0
 29 65  1  0  0  0  0
 30 67  1  0  0  0  0
 30 82  1  0  0  0  0
 31 68  1  0  0  0  0
 31 82  1  0  0  0  0
 32 34  2  0  0  0  0
 32 79  1  0  0  0  0
 33 66  1  0  0  0  0
 33 72  2  0  0  0  0
 34 35  1  0  0  0  0
 34 52  1  0  0  0  0
 35 67  1  0  0  0  0
 35 73  2  0  0  0  0
 36 50  1  0  0  0  0
 36 69  1  0  0  0  0
 36 74  2  0  0  0  0
 37 58  1  0  0  0  0
 37 63  1  0  0  0  0
 37 75  2  0  0  0  0
 38 59  1  0  0  0  0
 38 70  1  0  0  0  0
 38 76  2  0  0  0  0
 39 64  1  0  0  0  0
 39 68  1  0  0  0  0
 39 77  2  0  0  0  0
 40 43  1  0  0  0  0
 41 50  1  0  0  0  0
 42 63  1  0  0  0  0
 43 45  1  0  0  0  0
 44 46  1  0  0  0  0
 44 47  1  0  0  0  0
 45 49  1  0  0  0  0
 46 51  1  0  0  0  0
 47 64  1  0  0  0  0
 48 51  1  0  0  0  0
 48 64  1  0  0  0  0
 49 69  1  0  0  0  0
 50 63  1  0  0  0  0
 51 62  1  0  0  0  0
 53 59  1  0  0  0  0
 54 60  1  0  0  0  0
 55 60  1  0  0  0  0
 56 60  1  0  0  0  0
 57 71  1  0  0  0  0
 58 60  1  0  0  0  0
 58 70  1  0  0  0  0
 59 71  1  0  0  0  0
 61 62  1  0  0  0  0
M  CHG  1  71   1
M  ISO  4  32 101  39 100  68 100  79 101
M  END
> <Batch ID>
0107

> <Smiles>
CNC(C)C(=O)NC(C(=O)N1Cc2cc([101O:1][101CH:1]=C(C)C(=O)Nc3ccc([100NH:0][100C:0](=O)N4CCCC(n5nc(-c6ccc(Oc7ccc(F)cc7F)cc6)c(C(N)=O)c5N)C4)s3)ccc2CC1C(=O)NC1CCCc2ccccc21)C(C)(C)C

> <Shape>
0.200

> <Color>
0.193

> <Negative vol penalty>
0.000

$$$$

  -OEChem-04052301173D

 85 93  0     1  0  0  0  0  0999 V2000
  -36.7723  -30.7190   21.6115 C   0  0  0  0  0  0  0  0  0  0  0  0
  -35.6193  -29.9429   21.5518 C   0  0  0  0  0  0  0  0  0  0  0  0
  -23.0216   -9.8949   19.8427 C   0  0  0  0  0  0  0  0  0  0  0  0
  -23.9657   -9.5484   22.0395 C   0  0  0  0  0  0  0  0  0  0  0  0
  -36.8421  -31.7950   22.4953 C   0  0  0  0  0  0  0  0  0  0  0  0
  -34.5355  -30.2419   22.3768 C   0  0  0  0  0  0  0  0  0  0  0  0
  -30.1164  -30.0967   19.9080 C   0  0  0  0  0  0  0  0  0  0  0  0
  -22.3011   -8.7068   19.9650 C   0  0  0  0  0  0  0  0  0  0  0  0
  -23.2451   -8.3604   22.1618 C   0  0  0  0  0  0  0  0  0  0  0  0
  -29.5687  -28.8396   19.6562 C   0  0  0  0  0  0  0  0  0  0  0  0
  -20.0771   -7.4339   22.8870 C   0  0  0  0  0  0  0  0  0  0  0  0
  -19.4180   -7.1987   24.0935 C   0  0  0  0  0  0  0  0  0  0  0  0
  -28.0857  -29.1153   21.5387 C   0  0  0  0  0  0  0  0  0  0  0  0
  -29.1056  -19.6866   20.9245 C   0  0  0  0  0  0  0  0  0  0  0  0
  -31.5457  -18.3682   20.6235 C   0  0  0  0  0  0  0  0  0  0  0  0
  -20.7162   -5.1858   24.4103 C   0  0  0  0  0  0  0  0  0  0  0  0
  -23.8539  -10.3157   20.8800 C   0  0  0  0  0  0  0  0  0  0  0  0
  -24.1836  -12.8323   21.1361 C   0  0  0  0  0  0  0  0  0  0  0  0
  -35.7550  -32.1132   23.3246 C   0  0  0  0  0  0  0  0  0  0  0  0
  -29.6596  -30.8693   20.9854 C   0  0  0  0  0  0  0  0  0  0  0  0
  -34.5913  -31.3224   23.2735 C   0  0  0  0  0  0  0  0  0  0  0  0
  -28.6275  -30.3830   21.8005 C   0  0  0  0  0  0  0  0  0  0  0  0
  -29.3660  -18.5263   21.6535 C   0  0  0  0  0  0  0  0  0  0  0  0
  -30.5860  -17.8671   21.5031 C   0  0  0  0  0  0  0  0  0  0  0  0
  -22.4128   -7.9395   21.1245 C   0  0  0  0  0  0  0  0  0  0  0  0
  -28.5552  -28.3475   20.4734 C   0  0  0  0  0  0  0  0  0  0  0  0
  -21.0557   -6.5450   22.4420 C   0  0  0  0  0  0  0  0  0  0  0  0
  -30.0653  -20.1877   20.0449 C   0  0  0  0  0  0  0  0  0  0  0  0
  -19.7376   -6.0747   24.8553 C   0  0  0  0  0  0  0  0  0  0  0  0
  -31.2853  -19.5286   19.8945 C   0  0  0  0  0  0  0  0  0  0  0  0
  -21.3753   -5.4210   23.2037 C   0  0  0  0  0  0  0  0  0  0  0  0
  -24.5989  -11.5426   20.7540 C   0  0  0  0  0  0  0  0  0  0  0  0
  -25.2422  -13.6445   20.8101 C   0  0  0  0  0  0  0  0  0  0  0  0
  -22.9512  -13.2581   21.7324 C   0  0  0  0  0  0  0  0  0  0  0  0
  -30.9834  -32.0366   23.6291 C   0  0  0  0  0  0  0  0  0  0  0  0
  -28.1062  -33.4980   23.9578 C   0  0  0  0  0  0  0  0  0  0  0  0
  -24.7732  -33.5315   23.2251 C   0  0  0  0  0  0  0  0  0  0  0  0
  -30.7226  -14.6943   20.7172 C   0  0  0  0  0  0  0  0  0  0  0  0
  -35.8948  -33.2570   24.2977 C   0  0  0  0  0  0  0  0  0  0  0  0
  -30.2423  -32.2347   21.2275 C   0  0  0  0  0  0  0  0  0  0  0  0
  -28.0878  -31.1817   22.9578 C   0  0  0  0  0  0  0  0  0  0  0  0
  -34.5631  -33.7358   24.8702 C   0  0  0  0  0  0  0  0  0  0  0  0
  -29.3956  -12.7032   18.0807 C   0  0  0  0  0  0  0  0  0  0  0  0
  -33.7165  -32.5483   25.3174 C   0  0  0  0  0  0  0  0  0  0  0  0
  -27.9983  -12.3253   18.5754 C   0  0  0  0  0  0  0  0  0  0  0  0
  -30.4073  -12.7432   19.2239 C   0  0  0  0  0  0  0  0  0  0  0  0
  -28.6244  -13.2197   20.8573 C   0  0  0  0  0  0  0  0  0  0  0  0
  -33.3855  -31.6302   24.1347 C   0  0  1  0  0  0  0  0  0  0  0  0
  -30.0564  -32.7178   22.6625 C   0  0  1  0  0  0  0  0  0  0  0  0
  -27.5577  -13.2209   19.7489 C   0  0  2  0  0  0  0  0  0  0  0  0
  -28.3232  -18.0077   22.5885 C   0  0  0  0  0  0  0  0  0  0  0  0
  -22.6718  -34.8296   23.6682 C   0  0  0  0  0  0  0  0  0  0  0  0
  -27.9529  -32.2902   26.7556 C   0  0  0  0  0  0  0  0  0  0  0  0
  -25.5030  -32.8061   26.7684 C   0  0  0  0  0  0  0  0  0  0  0  0
  -27.1650  -34.6585   26.5970 C   0  0  0  0  0  0  0  0  0  0  0  0
  -24.4064  -34.1417   20.3525 C   0  0  0  0  0  0  0  0  0  0  0  0
  -30.8879  -16.6224   22.2711 C   0  0  0  0  0  0  0  0  0  0  0  0
  -28.4447  -24.7493   20.0659 C   0  0  0  0  0  0  0  0  0  0  0  0
  -29.3446  -23.6740   19.4669 C   0  0  0  0  0  0  0  0  0  0  0  0
  -28.8735  -26.1453   19.6338 C   0  0  0  0  0  0  0  0  0  1  0  0
  -28.9432  -22.2815   19.9325 C   0  0  0  0  0  0  0  0  0  0  0  0
  -26.7932  -33.1391   24.6107 C   0  0  1  0  0  0  0  0  0  0  0  0
  -23.8601  -34.6420   22.7378 C   0  0  2  0  0  0  0  0  0  0  0  0
  -26.8648  -33.2074   26.1624 C   0  0  0  0  0  0  0  0  0  0  0  0
  -25.8255  -11.5312   20.2256 N   0  0  0  0  0  0  0  0  0  0  0  0
  -26.1901  -12.8239   20.2733 N   0  0  0  0  0  0  0  0  0  0  0  0
  -28.6943  -32.5083   23.1575 N   0  0  0  0  0  0  0  0  0  0  0  0
  -29.9302  -13.6108   20.3035 N   0  0  0  0  0  0  0  0  0  0  0  0
  -25.4453  -14.9734   20.9332 N   0  0  0  0  0  0  0  0  0  0  0  0
  -21.9705  -12.2934   22.0009 N   0  0  0  0  0  0  0  0  0  0  0  0
  -32.3234  -32.2004   23.3339 N   0  0  0  0  0  0  0  0  0  0  0  0
  -25.7898  -34.0178   24.0196 N   0  0  0  0  0  0  0  0  0  0  0  0
  -30.1935  -15.4698   21.7417 N   0  0  0  0  0  0  0  0  0  0  0  0
  -23.3450  -34.3285   21.3750 N   0  3  0  0  0  0  0  0  0  0  0  0
  -22.7198  -14.4608   22.0035 O   0  0  0  0  0  0  0  0  0  0  0  0
  -30.5176  -31.4100   24.5735 O   0  0  0  0  0  0  0  0  0  0  0  0
  -28.5885  -34.6178   24.1449 O   0  0  0  0  0  0  0  0  0  0  0  0
  -24.5997  -32.3502   22.9333 O   0  0  0  0  0  0  0  0  0  0  0  0
  -31.8177  -14.9547   20.2076 O   0  0  0  0  0  0  0  0  0  0  0  0
  -21.7097   -6.7803   21.2442 O   0  0  0  0  0  0  0  0  0  0  0  0
  -28.0193  -27.1205   20.2302 O   0  0  0  0  0  0  0  0  0  1  0  0
  -29.8074  -21.3283   19.3297 O   0  0  0  0  0  0  0  0  0  0  0  0
  -19.1057   -5.8498   26.0147 F   0  0  0  0  0  0  0  0  0  0  0  0
  -32.2110  -20.0053   19.0508 F   0  0  0  0  0  0  0  0  0  0  0  0
  -22.3154   -4.5642   22.7820 F   0  0  0  0  0  0  0  0  0  0  0  0
  1  2  1  0  0  0  0
  1  5  2  0  0  0  0
  2  6  2  0  0  0  0
  3  8  2  0  0  0  0
  3 17  1  0  0  0  0
  4  9  1  0  0  0  0
  4 17  2  0  0  0  0
  5 19  1  0  0  0  0
  6 21  1  0  0  0  0
  7 10  2  0  0  0  0
  7 20  1  0  0  0  0
  8 25  1  0  0  0  0
  9 25  2  0  0  0  0
 10 26  1  0  0  0  0
 11 12  2  0  0  0  0
 11 27  1  0  0  0  0
 12 29  1  0  0  0  0
 13 22  1  0  0  0  0
 13 26  2  0  0  0  0
 14 23  2  0  0  0  0
 14 28  1  0  0  0  0
 15 24  2  0  0  0  0
 15 30  1  0  0  0  0
 16 29  2  0  0  0  0
 16 31  1  0  0  0  0
 17 32  1  0  0  0  0
 18 32  1  0  0  0  0
 18 33  2  0  0  0  0
 18 34  1  0  0  0  0
 19 21  2  0  0  0  0
 19 39  1  0  0  0  0
 20 22  2  0  0  0  0
 20 40  1  0  0  0  0
 21 48  1  0  0  0  0
 22 41  1  0  0  0  0
 23 24  1  0  0  0  0
 23 51  1  0  0  0  0
 24 57  1  0  0  0  0
 25 80  1  0  0  0  0
 26 81  1  0  0  0  0
 27 31  2  0  0  0  0
 27 80  1  0  0  0  0
 28 30  2  0  0  0  0
 28 82  1  0  0  0  0
 29 83  1  0  0  0  0
 30 84  1  0  0  0  0
 31 85  1  0  0  0  0
 32 65  2  0  0  0  0
 33 66  1  0  0  0  0
 33 69  1  0  0  0  0
 34 70  1  0  0  0  0
 34 75  2  0  0  0  0
 35 49  1  0  0  0  0
 35 71  1  0  0  0  0
 35 76  2  0  0  0  0
 36 62  1  0  0  0  0
 36 67  1  0  0  0  0
 36 77  2  0  0  0  0
 37 63  1  0  0  0  0
 37 72  1  0  0  0  0
 37 78  2  0  0  0  0
 38 68  1  0  0  0  0
 38 73  1  0  0  0  0
 38 79  2  0  0  0  0
 39 42  1  0  0  0  0
 40 49  1  0  0  0  0
 41 67  1  0  0  0  0
 42 44  1  0  0  0  0
 43 45  1  0  0  0  0
 43 46  1  0  0  0  0
 44 48  1  0  0  0  0
 45 50  1  0  0  0  0
 46 68  1  0  0  0  0
 47 50  1  0  0  0  0
 47 68  1  0  0  0  0
 48 71  1  0  0  0  0
 49 67  1  0  0  0  0
 50 66  1  0  0  0  0
 52 63  1  0  0  0  0
 53 64  1  0  0  0  0
 54 64  1  0  0  0  0
 55 64  1  0  0  0  0
 56 74  1  0  0  0  0
 57 73  1  0  0  0  0
 58 59  1  0  0  0  0
 58 60  1  0  0  0  0
 59 61  1  0  0  0  0
 60 81  1  0  0  0  0
 61 82  1  0  0  0  0
 62 64  1  0  0  0  0
 62 72  1  0  0  0  0
 63 74  1  0  0  0  0
 65 66  1  0  0  0  0
M  CHG  1  74   1
M  ISO  4  38 100  60 101  73 100  81 101
M  END
> <Batch ID>
0107

> <Smiles>
CNC(C)C(=O)NC(C(=O)N1Cc2cc([101O:1][101CH2:1]CCCOc3cc(C)c(C[100NH:0][100C:0](=O)N4CCCC(n5nc(-c6ccc(Oc7ccc(F)cc7F)cc6)c(C(N)=O)c5N)C4)cc3F)ccc2CC1C(=O)NC1CCCc2ccccc21)C(C)(C)C

> <Shape>
0.306

> <Color>
0.223

> <Negative vol penalty>
0.000

$$$$

  -OEChem-04052301173D

 85 93  0     1  0  0  0  0  0999 V2000
  -37.2586  -25.9333   19.6799 C   0  0  0  0  0  0  0  0  0  0  0  0
  -36.2130  -25.0738   20.0015 C   0  0  0  0  0  0  0  0  0  0  0  0
  -21.7940  -21.0784   21.1933 C   0  0  0  0  0  0  0  0  0  0  0  0
  -23.9373  -21.1265   22.3074 C   0  0  0  0  0  0  0  0  0  0  0  0
  -30.3628  -13.0833   18.6310 C   0  0  0  0  0  0  0  0  0  0  0  0
  -37.0628  -27.3131   19.7203 C   0  0  0  0  0  0  0  0  0  0  0  0
  -34.9712  -25.5937   20.3649 C   0  0  0  0  0  0  0  0  0  0  0  0
  -31.1248  -23.1964   18.1060 C   0  0  0  0  0  0  0  0  0  0  0  0
  -21.3828  -22.1846   21.9368 C   0  0  0  0  0  0  0  0  0  0  0  0
  -23.5261  -22.2328   23.0509 C   0  0  0  0  0  0  0  0  0  0  0  0
  -30.7513  -21.9588   18.6280 C   0  0  0  0  0  0  0  0  0  0  0  0
  -21.8420  -25.5341   21.8804 C   0  0  0  0  0  0  0  0  0  0  0  0
  -30.7061  -11.8865   19.2600 C   0  0  0  0  0  0  0  0  0  0  0  0
  -21.1881  -26.5634   21.2033 C   0  0  0  0  0  0  0  0  0  0  0  0
  -28.9231  -23.0110   19.7984 C   0  0  0  0  0  0  0  0  0  0  0  0
  -28.4924  -11.7555   20.2188 C   0  0  0  0  0  0  0  0  0  0  0  0
  -19.2445  -26.2500   22.6037 C   0  0  0  0  0  0  0  0  0  0  0  0
  -23.0713  -20.5493   21.3787 C   0  0  0  0  0  0  0  0  0  0  0  0
  -29.0843  -13.6161   18.7960 C   0  0  0  0  0  0  0  0  0  0  0  0
  -24.1458  -19.4146   19.3624 C   0  0  0  0  0  0  0  0  0  0  0  0
  -35.8152  -27.8501   20.0750 C   0  0  0  0  0  0  0  0  0  0  0  0
  -30.4056  -24.3543   18.4354 C   0  0  0  0  0  0  0  0  0  0  0  0
  -34.7589  -26.9821   20.4115 C   0  0  0  0  0  0  0  0  0  0  0  0
  -29.2880  -24.2617   19.2771 C   0  0  0  0  0  0  0  0  0  0  0  0
  -28.1491  -12.9522   19.5899 C   0  0  0  0  0  0  0  0  0  0  0  0
  -22.2488  -22.7618   22.8655 C   0  0  0  0  0  0  0  0  0  0  0  0
  -29.6520  -21.8664   19.4767 C   0  0  0  0  0  0  0  0  0  0  0  0
  -21.1971  -24.8626   22.9192 C   0  0  0  0  0  0  0  0  0  0  0  0
  -29.7709  -11.2226   20.0539 C   0  0  0  0  0  0  0  0  0  0  0  0
  -19.8894  -26.9214   21.5650 C   0  0  0  0  0  0  0  0  0  0  0  0
  -19.8983  -25.2206   23.2808 C   0  0  0  0  0  0  0  0  0  0  0  0
  -23.4966  -19.4063   20.6114 C   0  0  0  0  0  0  0  0  0  0  0  0
  -24.3320  -18.0871   19.0633 C   0  0  0  0  0  0  0  0  0  0  0  0
  -29.1352  -18.3725   19.3832 C   0  0  0  0  0  0  0  0  0  0  0  0
  -28.9466  -19.6662   19.1131 C   0  0  0  0  0  0  0  0  0  1  0  0
  -28.7515  -14.8921   18.1127 C   0  0  0  0  0  0  0  0  0  0  0  0
  -24.5450  -20.5233   18.5455 C   0  0  0  0  0  0  0  0  0  0  0  0
  -28.7422  -17.3414   18.3848 C   0  0  0  0  0  0  0  0  0  0  0  0
  -31.0984  -27.0796   19.9174 C   0  0  0  0  0  0  0  0  0  0  0  0
  -28.0891  -27.8840   19.0122 C   0  0  0  0  0  0  0  0  0  0  0  0
  -24.9635  -26.8555   18.1071 C   0  0  0  0  0  0  0  0  0  0  0  0
  -25.8128  -12.9244   20.5319 C   0  0  0  0  0  0  0  0  0  0  0  0
  -35.6650  -29.3489   20.1505 C   0  0  0  0  0  0  0  0  0  0  0  0
  -30.8052  -25.6776   17.8427 C   0  0  0  0  0  0  0  0  0  0  0  0
  -28.4703  -25.4717   19.6455 C   0  0  0  0  0  0  0  0  0  0  0  0
  -34.2115  -29.8145   20.1825 C   0  0  0  0  0  0  0  0  0  0  0  0
  -22.4741  -13.9233   21.2615 C   0  0  0  0  0  0  0  0  0  0  0  0
  -33.4084  -28.9889   21.1826 C   0  0  0  0  0  0  0  0  0  0  0  0
  -22.4959  -15.4395   21.0546 C   0  0  0  0  0  0  0  0  0  0  0  0
  -23.7789  -13.4154   21.8725 C   0  0  0  0  0  0  0  0  0  0  0  0
  -25.0188  -15.3346   20.9514 C   0  0  0  0  0  0  0  0  0  0  0  0
  -33.3902  -27.5076   20.7865 C   0  0  1  0  0  0  0  0  0  0  0  0
  -30.3104  -26.8702   18.6553 C   0  0  1  0  0  0  0  0  0  0  0  0
  -23.7507  -15.8843   20.2781 C   0  0  2  0  0  0  0  0  0  0  0  0
  -22.7065  -27.7441   17.4638 C   0  0  0  0  0  0  0  0  0  0  0  0
  -27.5257  -28.5609   21.9336 C   0  0  0  0  0  0  0  0  0  0  0  0
  -25.0800  -28.5162   21.3998 C   0  0  0  0  0  0  0  0  0  0  0  0
  -26.5681  -30.1788   20.2845 C   0  0  0  0  0  0  0  0  0  0  0  0
  -25.0869  -25.5684   15.4449 C   0  0  0  0  0  0  0  0  0  0  0  0
  -26.7155  -27.7432   19.6225 C   0  0  1  0  0  0  0  0  0  0  0  0
  -24.0601  -27.2687   16.9592 C   0  0  2  0  0  0  0  0  0  0  0  0
  -26.4887  -28.7271   20.8049 C   0  0  0  0  0  0  0  0  0  0  0  0
  -23.2844  -18.1713   21.0740 N   0  0  0  0  0  0  0  0  0  0  0  0
  -23.8032  -17.3914   20.1104 N   0  0  0  0  0  0  0  0  0  0  0  0
  -28.9047  -26.7440   19.0456 N   0  0  0  0  0  0  0  0  0  0  0  0
  -24.9238  -13.8722   21.0816 N   0  0  0  0  0  0  0  0  0  0  0  0
  -24.8948  -17.4587   18.0093 N   0  0  0  0  0  0  0  0  0  0  0  0
  -24.2773  -21.8208   19.0030 N   0  0  0  0  0  0  0  0  0  0  0  0
  -26.8446  -13.4746   19.7721 N   0  0  0  0  0  0  0  0  0  0  0  0
  -29.0134  -16.0526   18.8399 N   0  0  0  0  0  0  0  0  0  0  0  0
  -32.4492  -27.2838   19.7100 N   0  0  0  0  0  0  0  0  0  0  0  0
  -25.7644  -27.8964   18.5269 N   0  0  0  0  0  0  0  0  0  0  0  0
  -23.8402  -26.1213   16.0340 N   0  3  0  0  0  0  0  0  0  0  0  0
  -28.2539  -14.8564   16.9905 O   0  0  0  0  0  0  0  0  0  0  0  0
  -25.1073  -20.3677   17.4351 O   0  0  0  0  0  0  0  0  0  0  0  0
  -28.2447  -17.6312   17.3016 O   0  0  0  0  0  0  0  0  0  0  0  0
  -30.5232  -27.0590   20.9993 O   0  0  0  0  0  0  0  0  0  0  0  0
  -28.4234  -28.9635   18.5176 O   0  0  0  0  0  0  0  0  0  0  0  0
  -24.9565  -25.7236   18.5860 O   0  0  0  0  0  0  0  0  0  0  0  0
  -25.6538  -11.7124   20.6987 O   0  0  0  0  0  0  0  0  0  0  0  0
  -21.8479  -23.8414   23.5910 O   0  0  0  0  0  0  0  0  0  0  0  0
  -29.2857  -20.6597   19.9881 O   0  0  0  0  0  0  0  0  0  1  0  0
  -30.1002  -10.0725   20.6566 F   0  0  0  0  0  0  0  0  0  0  0  0
  -19.2622  -27.9110   20.9157 F   0  0  0  0  0  0  0  0  0  0  0  0
  -19.2741  -24.5800   24.2787 F   0  0  0  0  0  0  0  0  0  0  0  0
  1  2  1  0  0  0  0
  1  6  2  0  0  0  0
  2  7  2  0  0  0  0
  3  9  2  0  0  0  0
  3 18  1  0  0  0  0
  4 10  1  0  0  0  0
  4 18  2  0  0  0  0
  5 13  2  0  0  0  0
  5 19  1  0  0  0  0
  6 21  1  0  0  0  0
  7 23  1  0  0  0  0
  8 11  2  0  0  0  0
  8 22  1  0  0  0  0
  9 26  1  0  0  0  0
 10 26  2  0  0  0  0
 11 27  1  0  0  0  0
 12 14  2  0  0  0  0
 12 28  1  0  0  0  0
 13 29  1  0  0  0  0
 14 30  1  0  0  0  0
 15 24  1  0  0  0  0
 15 27  2  0  0  0  0
 16 25  1  0  0  0  0
 16 29  2  0  0  0  0
 17 30  2  0  0  0  0
 17 31  1  0  0  0  0
 18 32  1  0  0  0  0
 19 25  2  0  0  0  0
 19 36  1  0  0  0  0
 20 32  1  0  0  0  0
 20 33  2  0  0  0  0
 20 37  1  0  0  0  0
 21 23  2  0  0  0  0
 21 43  1  0  0  0  0
 22 24  2  0  0  0  0
 22 44  1  0  0  0  0
 23 52  1  0  0  0  0
 24 45  1  0  0  0  0
 25 69  1  0  0  0  0
 26 81  1  0  0  0  0
 27 82  1  0  0  0  0
 28 31  2  0  0  0  0
 28 81  1  0  0  0  0
 29 83  1  0  0  0  0
 30 84  1  0  0  0  0
 31 85  1  0  0  0  0
 32 63  2  0  0  0  0
 33 64  1  0  0  0  0
 33 67  1  0  0  0  0
 34 35  2  0  0  0  0
 34 38  1  0  0  0  0
 35 82  1  0  0  0  0
 36 70  1  0  0  0  0
 36 74  2  0  0  0  0
 37 68  1  0  0  0  0
 37 75  2  0  0  0  0
 38 70  1  0  0  0  0
 38 76  2  0  0  0  0
 39 53  1  0  0  0  0
 39 71  1  0  0  0  0
 39 77  2  0  0  0  0
 40 60  1  0  0  0  0
 40 65  1  0  0  0  0
 40 78  2  0  0  0  0
 41 61  1  0  0  0  0
 41 72  1  0  0  0  0
 41 79  2  0  0  0  0
 42 66  1  0  0  0  0
 42 69  1  0  0  0  0
 42 80  2  0  0  0  0
 43 46  1  0  0  0  0
 44 53  1  0  0  0  0
 45 65  1  0  0  0  0
 46 48  1  0  0  0  0
 47 49  1  0  0  0  0
 47 50  1  0  0  0  0
 48 52  1  0  0  0  0
 49 54  1  0  0  0  0
 50 66  1  0  0  0  0
 51 54  1  0  0  0  0
 51 66  1  0  0  0  0
 52 71  1  0  0  0  0
 53 65  1  0  0  0  0
 54 64  1  0  0  0  0
 55 61  1  0  0  0  0
 56 62  1  0  0  0  0
 57 62  1  0  0  0  0
 58 62  1  0  0  0  0
 59 73  1  0  0  0  0
 60 62  1  0  0  0  0
 60 72  1  0  0  0  0
 61 73  1  0  0  0  0
 63 64  1  0  0  0  0
M  CHG  1  73   1
M  ISO  4  35 101  42 100  69 100  82 101
M  END
> <Batch ID>
0107

> <Smiles>
CNC(C)C(=O)NC(C(=O)N1Cc2cc([101O:1][101CH:1]=CC(=O)NC(=O)c3ccc(F)cc3[100NH:0][100C:0](=O)N3CCCC(n4nc(-c5ccc(Oc6ccc(F)cc6F)cc5)c(C(N)=O)c4N)C3)ccc2CC1C(=O)NC1CCCc2ccccc21)C(C)(C)C

> <Shape>
0.234

> <Color>
0.048

> <Negative vol penalty>
0.000

$$$$

  -OEChem-04052301173D

 87 96  0     1  0  0  0  0  0999 V2000
  -22.2229   -5.8906   25.2113 C   0  0  0  0  0  0  0  0  0  0  0  0
  -23.4044   -6.1241   24.5149 C   0  0  0  0  0  0  0  0  0  0  0  0
  -21.9727  -29.3713   24.0428 C   0  0  0  0  0  0  0  0  0  0  0  0
  -21.2848  -28.3906   21.9447 C   0  0  0  0  0  0  0  0  0  0  0  0
  -21.0060   -6.3146   24.6790 C   0  0  0  0  0  0  0  0  0  0  0  0
  -23.3695   -6.7808   23.2853 C   0  0  0  0  0  0  0  0  0  0  0  0
  -28.2694  -24.7728   16.8577 C   0  0  0  0  0  0  0  0  0  0  0  0
  -27.0080  -12.9112   22.2508 C   0  0  0  0  0  0  0  0  0  0  0  0
  -28.0185  -23.4008   16.9292 C   0  0  0  0  0  0  0  0  0  0  0  0
  -20.7772  -28.9557   24.6290 C   0  0  0  0  0  0  0  0  0  0  0  0
  -20.0893  -27.9748   22.5309 C   0  0  0  0  0  0  0  0  0  0  0  0
  -27.8448  -13.9742   21.9100 C   0  0  0  0  0  0  0  0  0  0  0  0
  -17.1189  -29.3504   23.3767 C   0  0  0  0  0  0  0  0  0  0  0  0
  -15.9396  -29.5588   22.6617 C   0  0  0  0  0  0  0  0  0  0  0  0
  -29.3797  -23.2094   18.9374 C   0  0  0  0  0  0  0  0  0  0  0  0
  -26.8815  -14.0355   19.6927 C   0  0  0  0  0  0  0  0  0  0  0  0
  -15.5190  -27.1796   22.6620 C   0  0  0  0  0  0  0  0  0  0  0  0
  -22.2264  -29.0889   22.7006 C   0  0  0  0  0  0  0  0  0  0  0  0
  -23.9314  -30.8393   21.9680 C   0  0  0  0  0  0  0  0  0  0  0  0
  -20.9572   -6.9853   23.4468 C   0  0  0  0  0  0  0  0  0  0  0  0
  -29.0835  -25.3418   17.8224 C   0  0  0  0  0  0  0  0  0  0  0  0
  -26.0930  -12.4159   21.3177 C   0  0  0  0  0  0  0  0  0  0  0  0
  -22.1507   -7.2129   22.7354 C   0  0  0  0  0  0  0  0  0  0  0  0
  -29.6332  -24.5679   18.8518 C   0  0  0  0  0  0  0  0  0  0  0  0
  -26.0322  -12.9791   20.0324 C   0  0  0  0  0  0  0  0  0  0  0  0
  -28.5698  -22.6248   17.9613 C   0  0  0  0  0  0  0  0  0  0  0  0
  -19.8356  -28.2574   23.8732 C   0  0  0  0  0  0  0  0  0  0  0  0
  -27.7818  -14.5347   20.6340 C   0  0  0  0  0  0  0  0  0  0  0  0
  -17.4983  -28.0566   23.7344 C   0  0  0  0  0  0  0  0  0  0  0  0
  -15.1396  -28.4734   22.3043 C   0  0  0  0  0  0  0  0  0  0  0  0
  -16.6983  -26.9712   23.3770 C   0  0  0  0  0  0  0  0  0  0  0  0
  -23.4609  -29.5185   22.0942 C   0  0  0  0  0  0  0  0  0  0  0  0
  -25.1389  -30.7137   21.3256 C   0  0  0  0  0  0  0  0  0  0  0  0
  -23.3308  -32.0697   22.3934 C   0  0  0  0  0  0  0  0  0  0  0  0
  -23.3677   -9.9482   20.5698 C   0  0  0  0  0  0  0  0  0  0  0  0
  -22.5357  -12.6094   19.2908 C   0  0  0  0  0  0  0  0  0  0  0  0
  -28.7522  -20.3191   18.9578 C   0  0  0  0  0  0  0  0  0  0  0  0
  -21.7913  -15.8157   18.3948 C   0  0  0  0  0  0  0  0  0  0  0  0
  -29.9489  -28.4085   20.6108 C   0  0  0  0  0  0  0  0  0  0  0  0
  -19.6133   -7.3828   22.8894 C   0  0  0  0  0  0  0  0  0  0  0  0
  -25.2152  -11.2321   21.6210 C   0  0  0  0  0  0  0  0  0  0  0  0
  -29.4615  -26.7827   17.9761 C   0  0  0  0  0  0  0  0  0  0  0  0
  -30.4307  -25.4177   19.7925 C   0  0  0  0  0  0  0  0  0  0  0  0
  -25.0566  -12.3912   19.0499 C   0  0  0  0  0  0  0  0  0  0  0  0
  -19.7010   -8.4040   21.7582 C   0  0  0  0  0  0  0  0  0  0  0  0
  -27.2624  -26.7516   19.0268 C   0  0  0  0  0  0  0  0  0  0  0  0
  -20.7724   -7.9955   20.7521 C   0  0  0  0  0  0  0  0  0  0  0  0
  -26.0600  -27.4287   19.6831 C   0  0  0  0  0  0  0  0  0  0  0  0
  -28.3916  -26.4918   20.0256 C   0  0  0  0  0  0  0  0  0  0  0  0
  -27.6129  -28.3729   21.4320 C   0  0  0  0  0  0  0  0  0  0  0  0
  -22.1564   -7.9440   21.4105 C   0  0  1  0  0  0  0  0  0  0  0  0
  -23.8296  -11.3223   20.9568 C   0  0  1  0  0  0  0  0  0  0  0  0
  -26.4882  -28.6994   20.4374 C   0  0  2  0  0  0  0  0  0  0  0  0
  -30.6696  -26.6659   18.9230 C   0  0  2  0  0  0  0  0  0  0  0  0
  -20.0171  -17.1836   17.2641 C   0  0  0  0  0  0  0  0  0  0  0  0
  -23.4707  -11.5735   16.5785 C   0  0  0  0  0  0  0  0  0  0  0  0
  -22.4070  -13.5801   15.5248 C   0  0  0  0  0  0  0  0  0  0  0  0
  -21.0027  -11.9325   16.7641 C   0  0  0  0  0  0  0  0  0  0  0  0
  -32.2577  -28.3643   19.7471 C   0  0  0  0  0  0  0  0  0  0  0  0
  -21.3223  -17.4318   20.8294 C   0  0  0  0  0  0  0  0  0  0  0  0
  -28.2205  -18.9269   18.6465 C   0  0  0  0  0  0  0  0  0  0  0  0
  -28.6912  -17.8804   19.6505 C   0  0  0  0  0  0  0  0  0  0  0  0
  -28.1091  -16.5076   19.3464 C   0  0  0  0  0  0  0  0  0  1  0  0
  -22.5356  -13.4737   18.0553 C   0  0  1  0  0  0  0  0  0  0  0  0
  -20.5391  -16.6514   18.5897 C   0  0  2  0  0  0  0  0  0  0  0  0
  -22.3737  -12.6430   16.7510 C   0  0  0  0  0  0  0  0  0  0  0  0
  -24.3009  -28.6199   21.5737 N   0  0  0  0  0  0  0  0  0  0  0  0
  -25.3113  -29.3774   21.1140 N   0  0  0  0  0  0  0  0  0  0  0  0
  -23.7747  -12.1166   19.7178 N   0  0  0  0  0  0  0  0  0  0  0  0
  -28.7364  -27.7186   20.7569 N   0  0  0  0  0  0  0  0  0  0  0  0
  -26.0593  -31.6170   20.9266 N   0  0  0  0  0  0  0  0  0  0  0  0
  -22.4820  -32.7417   21.5033 N   0  0  0  0  0  0  0  0  0  0  0  0
  -28.2965  -21.2374   18.0160 N   0  0  0  0  0  0  0  0  0  0  0  0
  -22.6896   -9.2798   21.5712 N   0  0  0  0  0  0  0  0  0  0  0  0
  -21.4951  -14.4760   18.2583 N   0  0  0  0  0  0  0  0  0  0  0  0
  -30.8860  -27.8770   19.7120 N   0  0  0  0  0  0  0  0  0  0  0  0
  -20.8235  -17.8105   19.4822 N   0  3  0  0  0  0  0  0  0  0  0  0
  -23.5535  -32.5671   23.5232 O   0  0  0  0  0  0  0  0  0  0  0  0
  -23.6070   -9.5248   19.4450 O   0  0  0  0  0  0  0  0  0  0  0  0
  -21.4670  -12.3714   19.8604 O   0  0  0  0  0  0  0  0  0  0  0  0
  -29.4791  -20.5382   19.9210 O   0  0  0  0  0  0  0  0  0  0  0  0
  -22.9191  -16.3032   18.3628 O   0  0  0  0  0  0  0  0  0  0  0  0
  -30.1861  -29.4392   21.2539 O   0  0  0  0  0  0  0  0  0  0  0  0
  -18.6691  -27.8514   24.4450 O   0  0  0  0  0  0  0  0  0  0  0  0
  -28.5984  -15.5752   20.3095 O   0  0  0  0  0  0  0  0  0  1  0  0
  -14.0063  -28.6739   21.6190 F   0  0  0  0  0  0  0  0  0  0  0  0
  -17.0570  -25.7261   23.7188 F   0  0  0  0  0  0  0  0  0  0  0  0
  1  2  1  0  0  0  0
  1  5  2  0  0  0  0
  2  6  2  0  0  0  0
  3 10  2  0  0  0  0
  3 18  1  0  0  0  0
  4 11  1  0  0  0  0
  4 18  2  0  0  0  0
  5 20  1  0  0  0  0
  6 23  1  0  0  0  0
  7  9  2  0  0  0  0
  7 21  1  0  0  0  0
  8 12  2  0  0  0  0
  8 22  1  0  0  0  0
  9 26  1  0  0  0  0
 10 27  1  0  0  0  0
 11 27  2  0  0  0  0
 12 28  1  0  0  0  0
 13 14  2  0  0  0  0
 13 29  1  0  0  0  0
 14 30  1  0  0  0  0
 15 24  1  0  0  0  0
 15 26  2  0  0  0  0
 16 25  1  0  0  0  0
 16 28  2  0  0  0  0
 17 30  2  0  0  0  0
 17 31  1  0  0  0  0
 18 32  1  0  0  0  0
 19 32  1  0  0  0  0
 19 33  2  0  0  0  0
 19 34  1  0  0  0  0
 20 23  2  0  0  0  0
 20 40  1  0  0  0  0
 21 24  2  0  0  0  0
 21 42  1  0  0  0  0
 22 25  2  0  0  0  0
 22 41  1  0  0  0  0
 23 51  1  0  0  0  0
 24 43  1  0  0  0  0
 25 44  1  0  0  0  0
 26 73  1  0  0  0  0
 27 84  1  0  0  0  0
 28 85  1  0  0  0  0
 29 31  2  0  0  0  0
 29 84  1  0  0  0  0
 30 86  1  0  0  0  0
 31 87  1  0  0  0  0
 32 67  2  0  0  0  0
 33 68  1  0  0  0  0
 33 71  1  0  0  0  0
 34 72  1  0  0  0  0
 34 78  2  0  0  0  0
 35 52  1  0  0  0  0
 35 74  1  0  0  0  0
 35 79  2  0  0  0  0
 36 64  1  0  0  0  0
 36 69  1  0  0  0  0
 36 80  2  0  0  0  0
 37 61  1  0  0  0  0
 37 73  1  0  0  0  0
 37 81  2  0  0  0  0
 38 65  1  0  0  0  0
 38 75  1  0  0  0  0
 38 82  2  0  0  0  0
 39 70  1  0  0  0  0
 39 76  1  0  0  0  0
 39 83  2  0  0  0  0
 40 45  1  0  0  0  0
 41 52  1  0  0  0  0
 42 54  1  0  0  0  0
 43 54  1  0  0  0  0
 44 69  1  0  0  0  0
 45 47  1  0  0  0  0
 46 48  1  0  0  0  0
 46 49  1  0  0  0  0
 47 51  1  0  0  0  0
 48 53  1  0  0  0  0
 49 70  1  0  0  0  0
 50 53  1  0  0  0  0
 50 70  1  0  0  0  0
 51 74  1  0  0  0  0
 52 69  1  0  0  0  0
 53 68  1  0  0  0  0
 54 76  1  0  0  0  0
 55 65  1  0  0  0  0
 56 66  1  0  0  0  0
 57 66  1  0  0  0  0
 58 66  1  0  0  0  0
 59 76  1  0  0  0  0
 60 77  1  0  0  0  0
 61 62  1  0  0  0  0
 62 63  1  0  0  0  0
 63 85  1  0  0  0  0
 64 66  1  0  0  0  0
 64 75  1  0  0  0  0
 65 77  1  0  0  0  0
 67 68  1  0  0  0  0
M  CHG  1  77   1
M  ISO  4  39 100  63 101  76 100  85 101
M  END
> <Batch ID>
0107

> <Smiles>
CNC(C)C(=O)NC(C(=O)N1Cc2cc([101O:1][101CH2:1]CCC(=O)Nc3ccc4c(c3)CC([100N:0](C)[100C:0](=O)N3CCCC(n5nc(-c6ccc(Oc7ccc(F)cc7F)cc6)c(C(N)=O)c5N)C3)C4)ccc2CC1C(=O)NC1CCCc2ccccc21)C(C)(C)C

> <Shape>
0.315

> <Color>
0.062

> <Negative vol penalty>
0.000

$$$$

  -OEChem-04052301173D

 86 94  0     1  0  0  0  0  0999 V2000
  -16.4708  -26.1061   24.4701 C   0  0  0  0  0  0  0  0  0  0  0  0
  -17.5153  -25.8237   23.5957 C   0  0  0  0  0  0  0  0  0  0  0  0
  -22.9078  -11.4308   18.4378 C   0  0  0  0  0  0  0  0  0  0  0  0
  -22.7370  -10.3945   20.6136 C   0  0  0  0  0  0  0  0  0  0  0  0
  -16.1606  -27.4298   24.7793 C   0  0  0  0  0  0  0  0  0  0  0  0
  -18.2497  -26.8650   23.0293 C   0  0  0  0  0  0  0  0  0  0  0  0
  -23.2396  -26.0087   23.1421 C   0  0  0  0  0  0  0  0  0  0  0  0
  -21.8536  -10.6411   17.9789 C   0  0  0  0  0  0  0  0  0  0  0  0
  -21.6827   -9.6048   20.1547 C   0  0  0  0  0  0  0  0  0  0  0  0
  -23.7573  -25.1340   22.1878 C   0  0  0  0  0  0  0  0  0  0  0  0
  -18.3735   -9.9649   19.5715 C   0  0  0  0  0  0  0  0  0  0  0  0
  -17.2538   -9.8400   20.3938 C   0  0  0  0  0  0  0  0  0  0  0  0
  -24.4841  -27.0163   20.8657 C   0  0  0  0  0  0  0  0  0  0  0  0
  -29.9166  -19.9006   18.4110 C   0  0  0  0  0  0  0  0  0  0  0  0
  -28.6307  -19.2610   20.3538 C   0  0  0  0  0  0  0  0  0  0  0  0
  -17.5874   -7.4488   20.4847 C   0  0  0  0  0  0  0  0  0  0  0  0
  -23.3496  -11.3075   19.7552 C   0  0  0  0  0  0  0  0  0  0  0  0
  -30.3956  -17.8224   19.5460 C   0  0  0  0  0  0  0  0  0  0  0  0
  -24.3515  -13.3936   20.8284 C   0  0  0  0  0  0  0  0  0  0  0  0
  -16.8977  -28.4875   24.2239 C   0  0  0  0  0  0  0  0  0  0  0  0
  -23.3308  -27.3961   22.9598 C   0  0  0  0  0  0  0  0  0  0  0  0
  -17.9483  -28.2041   23.3303 C   0  0  0  0  0  0  0  0  0  0  0  0
  -23.9691  -27.9064   21.8204 C   0  0  0  0  0  0  0  0  0  0  0  0
  -30.6645  -18.7284   18.5201 C   0  0  0  0  0  0  0  0  0  0  0  0
  -28.8997  -20.1670   19.3279 C   0  0  0  0  0  0  0  0  0  0  0  0
  -21.2410   -9.7282   18.8373 C   0  0  0  0  0  0  0  0  0  0  0  0
  -24.3771  -25.6378   21.0480 C   0  0  0  0  0  0  0  0  0  0  0  0
  -19.1002   -8.8318   19.2057 C   0  0  0  0  0  0  0  0  0  0  0  0
  -16.8607   -8.5819   20.8504 C   0  0  0  0  0  0  0  0  0  0  0  0
  -29.3787  -18.0887   20.4629 C   0  0  0  0  0  0  0  0  0  0  0  0
  -18.7072   -7.5738   19.6624 C   0  0  0  0  0  0  0  0  0  0  0  0
  -24.4389  -12.1225   20.2296 C   0  0  0  0  0  0  0  0  0  0  0  0
  -25.6541  -13.7376   21.0955 C   0  0  0  0  0  0  0  0  0  0  0  0
  -31.1793  -16.5677   19.6822 C   0  0  0  0  0  0  0  0  0  0  0  0
  -23.1961  -14.1919   21.1174 C   0  0  0  0  0  0  0  0  0  0  0  0
  -21.2293  -29.7604   22.6477 C   0  0  0  0  0  0  0  0  0  0  0  0
  -26.4965  -23.0231   19.7147 C   0  0  0  0  0  0  0  0  0  0  0  0
  -23.8883  -31.6155   22.7504 C   0  0  0  0  0  0  0  0  0  0  0  0
  -27.2575  -31.8786   22.2748 C   0  0  0  0  0  0  0  0  0  0  0  0
  -30.9927  -14.1003   19.6581 C   0  0  0  0  0  0  0  0  0  0  0  0
  -16.4949  -29.9036   24.5511 C   0  0  0  0  0  0  0  0  0  0  0  0
  -22.7911  -28.3262   24.0115 C   0  0  0  0  0  0  0  0  0  0  0  0
  -24.1107  -29.3877   21.5873 C   0  0  0  0  0  0  0  0  0  0  0  0
  -17.5623  -30.9370   24.2005 C   0  0  0  0  0  0  0  0  0  0  0  0
  -29.8979  -10.9793   20.9063 C   0  0  0  0  0  0  0  0  0  0  0  0
  -18.1132  -30.6817   22.8011 C   0  0  0  0  0  0  0  0  0  0  0  0
  -28.3718  -11.1029   20.8996 C   0  0  0  0  0  0  0  0  0  0  0  0
  -30.5282  -11.6654   19.6951 C   0  0  0  0  0  0  0  0  0  0  0  0
  -28.6008  -13.1811   19.4809 C   0  0  0  0  0  0  0  0  0  0  0  0
  -18.7840  -29.3054   22.7149 C   0  0  1  0  0  0  0  0  0  0  0  0
  -22.4831  -29.7207   23.4747 C   0  0  1  0  0  0  0  0  0  0  0  0
  -27.9237  -12.5669   20.7167 C   0  0  1  0  0  0  0  0  0  0  0  0
  -31.7479  -18.4681   17.5247 C   0  0  0  0  0  0  0  0  0  0  0  0
  -29.1421  -33.5305   22.4040 C   0  0  0  0  0  0  0  0  0  0  0  0
  -22.9517  -32.8845   20.1384 C   0  0  0  0  0  0  0  0  0  0  0  0
  -25.2634  -33.7963   19.8336 C   0  0  0  0  0  0  0  0  0  0  0  0
  -23.8980  -34.4958   21.8006 C   0  0  0  0  0  0  0  0  0  0  0  0
  -28.6660  -30.2863   24.3338 C   0  0  0  0  0  0  0  0  0  0  0  0
  -27.0886  -21.6898   20.1195 C   0  0  0  0  0  0  0  0  0  0  0  0
  -25.3526  -23.5206   20.5768 C   0  0  0  0  0  0  0  0  0  1  0  0
  -24.8545  -32.1567   21.7245 C   0  0  1  0  0  0  0  0  0  0  0  0
  -28.3553  -32.4616   23.1463 C   0  0  2  0  0  0  0  0  0  0  0  0
  -24.2377  -33.3054   20.8774 C   0  0  0  0  0  0  0  0  0  0  0  0
  -25.6976  -11.6885   20.1223 N   0  0  0  0  0  0  0  0  0  0  0  0
  -26.4130  -12.6926   20.6572 N   0  0  0  0  0  0  0  0  0  0  0  0
  -23.5614  -30.2564   22.6413 N   0  0  0  0  0  0  0  0  0  0  0  0
  -30.0608  -13.0494   19.5985 N   0  0  0  0  0  0  0  0  0  0  0  0
  -26.2129  -14.8292   21.6600 N   0  0  0  0  0  0  0  0  0  0  0  0
  -21.9335  -13.6876   20.7773 N   0  0  0  0  0  0  0  0  0  0  0  0
  -28.1554  -21.3330   19.2197 N   0  0  0  0  0  0  0  0  0  0  0  0
  -30.4427  -15.3857   19.6001 N   0  0  0  0  0  0  0  0  0  0  0  0
  -20.0971  -29.3443   23.3220 N   0  0  0  0  0  0  0  0  0  0  0  0
  -26.0583  -32.5345   22.4569 N   0  0  0  0  0  0  0  0  0  0  0  0
  -29.3017  -31.3919   23.5720 N   0  3  0  0  0  0  0  0  0  0  0  0
  -32.3981  -16.6354   19.8153 O   0  0  0  0  0  0  0  0  0  0  0  0
  -23.2821  -15.3261   21.6463 O   0  0  0  0  0  0  0  0  0  0  0  0
  -21.2845  -30.1418   21.4844 O   0  0  0  0  0  0  0  0  0  0  0  0
  -26.9080  -23.6689   18.7517 O   0  0  0  0  0  0  0  0  0  0  0  0
  -23.4456  -32.3691   23.6208 O   0  0  0  0  0  0  0  0  0  0  0  0
  -27.4458  -30.9380   21.5065 O   0  0  0  0  0  0  0  0  0  0  0  0
  -32.2061  -13.9118   19.7902 O   0  0  0  0  0  0  0  0  0  0  0  0
  -20.2121   -8.9576   18.3900 O   0  0  0  0  0  0  0  0  0  0  0  0
  -24.8826  -24.7862   20.1146 O   0  0  0  0  0  0  0  0  0  1  0  0
  -15.7863   -8.4622   21.6413 F   0  0  0  0  0  0  0  0  0  0  0  0
  -29.1104  -17.2258   21.4533 F   0  0  0  0  0  0  0  0  0  0  0  0
  -19.4020   -6.4817   19.3153 F   0  0  0  0  0  0  0  0  0  0  0  0
  1  2  1  0  0  0  0
  1  5  2  0  0  0  0
  2  6  2  0  0  0  0
  3  8  2  0  0  0  0
  3 17  1  0  0  0  0
  4  9  1  0  0  0  0
  4 17  2  0  0  0  0
  5 20  1  0  0  0  0
  6 22  1  0  0  0  0
  7 10  2  0  0  0  0
  7 21  1  0  0  0  0
  8 26  1  0  0  0  0
  9 26  2  0  0  0  0
 10 27  1  0  0  0  0
 11 12  2  0  0  0  0
 11 28  1  0  0  0  0
 12 29  1  0  0  0  0
 13 23  1  0  0  0  0
 13 27  2  0  0  0  0
 14 24  2  0  0  0  0
 14 25  1  0  0  0  0
 15 25  2  0  0  0  0
 15 30  1  0  0  0  0
 16 29  2  0  0  0  0
 16 31  1  0  0  0  0
 17 32  1  0  0  0  0
 18 24  1  0  0  0  0
 18 30  2  0  0  0  0
 18 34  1  0  0  0  0
 19 32  1  0  0  0  0
 19 33  2  0  0  0  0
 19 35  1  0  0  0  0
 20 22  2  0  0  0  0
 20 41  1  0  0  0  0
 21 23  2  0  0  0  0
 21 42  1  0  0  0  0
 22 50  1  0  0  0  0
 23 43  1  0  0  0  0
 24 53  1  0  0  0  0
 25 70  1  0  0  0  0
 26 82  1  0  0  0  0
 27 83  1  0  0  0  0
 28 31  2  0  0  0  0
 28 82  1  0  0  0  0
 29 84  1  0  0  0  0
 30 85  1  0  0  0  0
 31 86  1  0  0  0  0
 32 64  2  0  0  0  0
 33 65  1  0  0  0  0
 33 68  1  0  0  0  0
 34 71  1  0  0  0  0
 34 75  2  0  0  0  0
 35 69  1  0  0  0  0
 35 76  2  0  0  0  0
 36 51  1  0  0  0  0
 36 72  1  0  0  0  0
 36 77  2  0  0  0  0
 37 59  1  0  0  0  0
 37 60  1  0  0  0  0
 37 78  2  0  0  0  0
 38 61  1  0  0  0  0
 38 66  1  0  0  0  0
 38 79  2  0  0  0  0
 39 62  1  0  0  0  0
 39 73  1  0  0  0  0
 39 80  2  0  0  0  0
 40 67  1  0  0  0  0
 40 71  1  0  0  0  0
 40 81  2  0  0  0  0
 41 44  1  0  0  0  0
 42 51  1  0  0  0  0
 43 66  1  0  0  0  0
 44 46  1  0  0  0  0
 45 47  1  0  0  0  0
 45 48  1  0  0  0  0
 46 50  1  0  0  0  0
 47 52  1  0  0  0  0
 48 67  1  0  0  0  0
 49 52  1  0  0  0  0
 49 67  1  0  0  0  0
 50 72  1  0  0  0  0
 51 66  1  0  0  0  0
 52 65  1  0  0  0  0
 54 62  1  0  0  0  0
 55 63  1  0  0  0  0
 56 63  1  0  0  0  0
 57 63  1  0  0  0  0
 58 74  1  0  0  0  0
 59 70  1  0  0  0  0
 60 83  1  0  0  0  0
 61 63  1  0  0  0  0
 61 73  1  0  0  0  0
 62 74  1  0  0  0  0
 64 65  1  0  0  0  0
M  CHG  1  74   1
M  ISO  4  40 100  60 101  71 100  83 101
M  END
> <Batch ID>
0107

> <Smiles>
CNC(C)C(=O)NC(C(=O)N1Cc2cc([101O:1][101CH2:1]C(=O)CNc3cc(C)c(C(=O)[100NH:0][100C:0](=O)N4CCCC(n5nc(-c6ccc(Oc7ccc(F)cc7F)cc6)c(C(N)=O)c5N)C4)c(F)c3)ccc2CC1C(=O)NC1CCCc2ccccc21)C(C)(C)C

> <Shape>
0.270

> <Color>
0.094

> <Negative vol penalty>
0.000

$$$$

  -OEChem-04052301173D

 85 93  0     1  0  0  0  0  0999 V2000
  -32.2740  -24.6274   21.0079 C   0  0  0  0  0  0  0  0  0  0  0  0
  -32.2058  -25.9423   20.5615 C   0  0  0  0  0  0  0  0  0  0  0  0
  -26.4082  -12.7536   20.5677 C   0  0  0  0  0  0  0  0  0  0  0  0
  -24.6131  -14.3591   20.7597 C   0  0  0  0  0  0  0  0  0  0  0  0
  -31.4112  -23.6700   20.4786 C   0  0  0  0  0  0  0  0  0  0  0  0
  -31.2667  -26.3028   19.5945 C   0  0  0  0  0  0  0  0  0  0  0  0
  -23.7494  -27.8068   18.8993 C   0  0  0  0  0  0  0  0  0  0  0  0
  -25.5848  -11.7679   21.1117 C   0  0  0  0  0  0  0  0  0  0  0  0
  -23.7896  -13.3734   21.3037 C   0  0  0  0  0  0  0  0  0  0  0  0
  -22.6785  -27.2514   19.5982 C   0  0  0  0  0  0  0  0  0  0  0  0
  -23.8408   -8.7404   22.1154 C   0  0  0  0  0  0  0  0  0  0  0  0
  -23.8326   -7.4893   21.4988 C   0  0  0  0  0  0  0  0  0  0  0  0
  -23.8808  -22.1325   22.9920 C   0  0  0  0  0  0  0  0  0  0  0  0
  -23.9369  -27.4207   21.6492 C   0  0  0  0  0  0  0  0  0  0  0  0
  -25.8592  -23.1852   21.3305 C   0  0  0  0  0  0  0  0  0  0  0  0
  -23.0677   -8.5064   19.4452 C   0  0  0  0  0  0  0  0  0  0  0  0
  -25.9224  -14.0493   20.3917 C   0  0  0  0  0  0  0  0  0  0  0  0
  -25.2269  -21.9191   23.2887 C   0  0  0  0  0  0  0  0  0  0  0  0
  -26.9208  -15.3969   18.4696 C   0  0  0  0  0  0  0  0  0  0  0  0
  -30.4699  -24.0171   19.4956 C   0  0  0  0  0  0  0  0  0  0  0  0
  -24.9282  -28.1639   19.5696 C   0  0  0  0  0  0  0  0  0  0  0  0
  -30.3711  -25.3560   19.0654 C   0  0  0  0  0  0  0  0  0  0  0  0
  -25.0204  -27.9828   20.9570 C   0  0  0  0  0  0  0  0  0  0  0  0
  -26.2161  -22.4455   22.4580 C   0  0  0  0  0  0  0  0  0  0  0  0
  -24.5130  -23.3985   21.0338 C   0  0  0  0  0  0  0  0  0  0  0  0
  -24.2756  -12.0777   21.4797 C   0  0  0  0  0  0  0  0  0  0  0  0
  -22.7732  -27.0556   20.9729 C   0  0  0  0  0  0  0  0  0  0  0  0
  -23.4623   -9.8745   21.3969 C   0  0  0  0  0  0  0  0  0  0  0  0
  -23.5238  -22.8722   21.8645 C   0  0  0  0  0  0  0  0  0  0  0  0
  -23.4461   -7.3723   20.1637 C   0  0  0  0  0  0  0  0  0  0  0  0
  -23.0758   -9.7575   20.0618 C   0  0  0  0  0  0  0  0  0  0  0  0
  -26.7726  -15.0681   19.8303 C   0  0  0  0  0  0  0  0  0  0  0  0
  -27.8353  -16.4216   18.4615 C   0  0  0  0  0  0  0  0  0  0  0  0
  -25.2194  -19.8761   24.6457 C   0  0  0  0  0  0  0  0  0  0  0  0
  -25.5678  -21.1424   24.4733 C   0  0  0  0  0  0  0  0  0  0  0  0
  -26.2883  -14.8270   17.3159 C   0  0  0  0  0  0  0  0  0  0  0  0
  -27.9670  -27.2457   19.4071 C   0  0  0  0  0  0  0  0  0  0  0  0
  -28.4065  -29.6712   21.5158 C   0  0  0  0  0  0  0  0  0  0  0  0
  -27.0733  -31.7081   23.9075 C   0  0  0  0  0  0  0  0  0  0  0  0
  -29.4278  -20.4976   22.5483 C   0  0  0  0  0  0  0  0  0  0  0  0
  -29.5552  -22.9426   18.9627 C   0  0  0  0  0  0  0  0  0  0  0  0
  -26.0644  -28.7866   18.8056 C   0  0  0  0  0  0  0  0  0  0  0  0
  -26.2564  -28.3681   21.7267 C   0  0  0  0  0  0  0  0  0  0  0  0
  -28.9044  -23.3199   17.6360 C   0  0  0  0  0  0  0  0  0  0  0  0
  -31.5533  -18.1418   20.9330 C   0  0  0  0  0  0  0  0  0  0  0  0
  -28.2948  -24.7105   17.7330 C   0  0  0  0  0  0  0  0  0  0  0  0
  -30.5825  -17.1166   20.3445 C   0  0  0  0  0  0  0  0  0  0  0  0
  -31.0719  -18.6635   22.2851 C   0  0  0  0  0  0  0  0  0  0  0  0
  -28.7280  -18.1767   21.6994 C   0  0  0  0  0  0  0  0  0  0  0  0
  -29.3784  -25.7649   17.9922 C   0  0  1  0  0  0  0  0  0  0  0  0
  -27.4100  -28.6375   19.5088 C   0  0  1  0  0  0  0  0  0  0  0  0
  -29.1426  -17.6633   20.3099 C   0  0  2  0  0  0  0  0  0  0  0  0
  -27.6875  -33.5667   25.4778 C   0  0  0  0  0  0  0  0  0  0  0  0
  -29.8010  -27.6639   23.3423 C   0  0  0  0  0  0  0  0  0  0  0  0
  -29.5367  -29.2962   25.2221 C   0  0  0  0  0  0  0  0  0  0  0  0
  -30.9009  -29.9068   23.2249 C   0  0  0  0  0  0  0  0  0  0  0  0
  -25.1427  -33.5652   22.6494 C   0  0  0  0  0  0  0  0  0  0  0  0
  -27.6683  -22.2367   22.7453 C   0  0  0  0  0  0  0  0  0  0  0  0
  -20.3325  -24.5623   21.9105 C   0  0  0  0  0  0  0  0  0  0  0  0
  -20.8939  -25.5983   20.9494 C   0  0  0  0  0  0  0  0  0  1  0  0
  -21.4317  -23.7501   22.5772 C   0  0  0  0  0  0  0  0  0  0  0  0
  -28.3833  -29.7975   23.0200 C   0  0  1  0  0  0  0  0  0  0  0  0
  -27.1430  -33.2119   24.1029 C   0  0  2  0  0  0  0  0  0  0  0  0
  -29.6328  -29.1569   23.6878 C   0  0  0  0  0  0  0  0  0  0  0  0
  -27.5322  -15.8227   20.6288 N   0  0  0  0  0  0  0  0  0  0  0  0
  -28.1666  -16.6358   19.7671 N   0  0  0  0  0  0  0  0  0  0  0  0
  -27.3426  -28.9674   20.9339 N   0  0  0  0  0  0  0  0  0  0  0  0
  -29.7008  -19.1689   22.1834 N   0  0  0  0  0  0  0  0  0  0  0  0
  -24.1658  -24.1491   19.8894 N   0  0  0  0  0  0  0  0  0  0  0  0
  -28.3803  -17.1513   17.4651 N   0  0  0  0  0  0  0  0  0  0  0  0
  -25.3741  -13.7813   17.5033 N   0  0  0  0  0  0  0  0  0  0  0  0
  -28.7442  -27.0314   18.2848 N   0  0  0  0  0  0  0  0  0  0  0  0
  -28.2139  -31.2176   23.3078 N   0  0  0  0  0  0  0  0  0  0  0  0
  -28.1038  -20.8979   22.4156 N   0  0  0  0  0  0  0  0  0  0  0  0
  -25.7876  -33.8157   23.9641 N   0  3  0  0  0  0  0  0  0  0  0  0
  -26.5390  -15.2220   16.1521 O   0  0  0  0  0  0  0  0  0  0  0  0
  -27.7119  -26.4274   20.2829 O   0  0  0  0  0  0  0  0  0  0  0  0
  -29.3306  -30.1844   20.8800 O   0  0  0  0  0  0  0  0  0  0  0  0
  -26.1055  -31.0353   24.2557 O   0  0  0  0  0  0  0  0  0  0  0  0
  -30.3003  -21.2714   22.9566 O   0  0  0  0  0  0  0  0  0  0  0  0
  -23.4717  -11.1160   22.0103 O   0  0  0  0  0  0  0  0  0  0  0  0
  -21.7296  -26.5131   21.6573 O   0  0  0  0  0  0  0  0  0  1  0  0
  -22.1957  -23.0707   21.5901 O   0  0  0  0  0  0  0  0  0  0  0  0
  -23.4398   -6.1710   19.5712 F   0  0  0  0  0  0  0  0  0  0  0  0
  -22.7124  -10.8437   19.3661 F   0  0  0  0  0  0  0  0  0  0  0  0
  1  2  1  0  0  0  0
  1  5  2  0  0  0  0
  2  6  2  0  0  0  0
  3  8  2  0  0  0  0
  3 17  1  0  0  0  0
  4  9  1  0  0  0  0
  4 17  2  0  0  0  0
  5 20  1  0  0  0  0
  6 22  1  0  0  0  0
  7 10  2  0  0  0  0
  7 21  1  0  0  0  0
  8 26  1  0  0  0  0
  9 26  2  0  0  0  0
 10 27  1  0  0  0  0
 11 12  2  0  0  0  0
 11 28  1  0  0  0  0
 12 30  1  0  0  0  0
 13 18  1  0  0  0  0
 13 29  2  0  0  0  0
 14 23  1  0  0  0  0
 14 27  2  0  0  0  0
 15 24  1  0  0  0  0
 15 25  2  0  0  0  0
 16 30  2  0  0  0  0
 16 31  1  0  0  0  0
 17 32  1  0  0  0  0
 18 24  2  0  0  0  0
 18 35  1  0  0  0  0
 19 32  1  0  0  0  0
 19 33  2  0  0  0  0
 19 36  1  0  0  0  0
 20 22  2  0  0  0  0
 20 41  1  0  0  0  0
 21 23  2  0  0  0  0
 21 42  1  0  0  0  0
 22 50  1  0  0  0  0
 23 43  1  0  0  0  0
 24 58  1  0  0  0  0
 25 29  1  0  0  0  0
 25 69  1  0  0  0  0
 26 81  1  0  0  0  0
 27 82  1  0  0  0  0
 28 31  2  0  0  0  0
 28 81  1  0  0  0  0
 29 83  1  0  0  0  0
 30 84  1  0  0  0  0
 31 85  1  0  0  0  0
 32 65  2  0  0  0  0
 33 66  1  0  0  0  0
 33 70  1  0  0  0  0
 34 35  2  0  0  0  0
 36 71  1  0  0  0  0
 36 76  2  0  0  0  0
 37 51  1  0  0  0  0
 37 72  1  0  0  0  0
 37 77  2  0  0  0  0
 38 62  1  0  0  0  0
 38 67  1  0  0  0  0
 38 78  2  0  0  0  0
 39 63  1  0  0  0  0
 39 73  1  0  0  0  0
 39 79  2  0  0  0  0
 40 68  1  0  0  0  0
 40 74  1  0  0  0  0
 40 80  2  0  0  0  0
 41 44  1  0  0  0  0
 42 51  1  0  0  0  0
 43 67  1  0  0  0  0
 44 46  1  0  0  0  0
 45 47  1  0  0  0  0
 45 48  1  0  0  0  0
 46 50  1  0  0  0  0
 47 52  1  0  0  0  0
 48 68  1  0  0  0  0
 49 52  1  0  0  0  0
 49 68  1  0  0  0  0
 50 72  1  0  0  0  0
 51 67  1  0  0  0  0
 52 66  1  0  0  0  0
 53 63  1  0  0  0  0
 54 64  1  0  0  0  0
 55 64  1  0  0  0  0
 56 64  1  0  0  0  0
 57 75  1  0  0  0  0
 58 74  1  0  0  0  0
 59 60  1  0  0  0  0
 59 61  1  0  0  0  0
 60 82  1  0  0  0  0
 61 83  1  0  0  0  0
 62 64  1  0  0  0  0
 62 73  1  0  0  0  0
 63 75  1  0  0  0  0
 65 66  1  0  0  0  0
M  CHG  1  75   1
M  ISO  4  40 100  60 101  74 100  82 101
M  END
> <Batch ID>
0107

> <Smiles>
C=Cc1cc(OCC[101CH2:1][101O:1]c2ccc3c(c2)CN(C(=O)C(NC(=O)C(C)NC)C(C)(C)C)C(C(=O)NC2CCCc4ccccc42)C3)c(N)cc1C[100NH:0][100C:0](=O)N1CCCC(n2nc(-c3ccc(Oc4ccc(F)cc4F)cc3)c(C(N)=O)c2N)C1

> <Shape>
0.251

> <Color>
0.067

> <Negative vol penalty>
0.000

$$$$

  -OEChem-04052301173D

 84 92  0     1  0  0  0  0  0999 V2000
  -22.0387  -29.9268   24.5617 C   0  0  0  0  0  0  0  0  0  0  0  0
  -23.2252  -29.2089   24.4507 C   0  0  0  0  0  0  0  0  0  0  0  0
  -24.5954   -9.7580   21.5467 C   0  0  0  0  0  0  0  0  0  0  0  0
  -24.8947  -10.9145   23.6467 C   0  0  0  0  0  0  0  0  0  0  0  0
  -21.1605  -29.9912   23.4807 C   0  0  0  0  0  0  0  0  0  0  0  0
  -23.5337  -28.5541   23.2589 C   0  0  0  0  0  0  0  0  0  0  0  0
  -29.0952  -27.7905   20.8109 C   0  0  0  0  0  0  0  0  0  0  0  0
  -24.3144   -8.5785   22.2362 C   0  0  0  0  0  0  0  0  0  0  0  0
  -24.6136   -9.7350   24.3363 C   0  0  0  0  0  0  0  0  0  0  0  0
  -29.9879  -26.7197   20.8265 C   0  0  0  0  0  0  0  0  0  0  0  0
  -21.6896   -7.2165   23.8758 C   0  0  0  0  0  0  0  0  0  0  0  0
  -20.6010   -6.4579   23.4458 C   0  0  0  0  0  0  0  0  0  0  0  0
  -29.1455  -25.9939   18.6858 C   0  0  0  0  0  0  0  0  0  0  0  0
  -29.7661  -20.0626   21.2573 C   0  0  0  0  0  0  0  0  0  0  0  0
  -27.4042  -21.3889   21.9241 C   0  0  0  0  0  0  0  0  0  0  0  0
  -22.0722   -4.5901   23.0167 C   0  0  0  0  0  0  0  0  0  0  0  0
  -24.8855  -10.9260   22.2519 C   0  0  0  0  0  0  0  0  0  0  0  0
  -24.2578  -13.1290   21.1292 C   0  0  0  0  0  0  0  0  0  0  0  0
  -21.4630  -29.3449   22.2718 C   0  0  0  0  0  0  0  0  0  0  0  0
  -28.2119  -27.9651   19.7359 C   0  0  0  0  0  0  0  0  0  0  0  0
  -22.6582  -28.6089   22.1611 C   0  0  0  0  0  0  0  0  0  0  0  0
  -28.2443  -27.0692   18.6577 C   0  0  0  0  0  0  0  0  0  0  0  0
  -28.5388  -19.4150   21.1159 C   0  0  0  0  0  0  0  0  0  0  0  0
  -24.3235   -8.5670   23.6310 C   0  0  0  0  0  0  0  0  0  0  0  0
  -30.0112  -25.8196   19.7652 C   0  0  0  0  0  0  0  0  0  0  0  0
  -22.9695   -6.6621   23.8762 C   0  0  0  0  0  0  0  0  0  0  0  0
  -29.8125  -21.3733   21.7321 C   0  0  0  0  0  0  0  0  0  0  0  0
  -28.6315  -22.0365   22.0655 C   0  0  0  0  0  0  0  0  0  0  0  0
  -20.7923   -5.1446   23.0163 C   0  0  0  0  0  0  0  0  0  0  0  0
  -27.3578  -20.0781   21.4493 C   0  0  0  0  0  0  0  0  0  0  0  0
  -23.1608   -5.3488   23.4468 C   0  0  0  0  0  0  0  0  0  0  0  0
  -25.1764  -12.1446   21.5402 C   0  0  0  0  0  0  0  0  0  0  0  0
  -25.0280  -14.0757   20.4991 C   0  0  0  0  0  0  0  0  0  0  0  0
  -22.8355  -13.1829   21.3017 C   0  0  0  0  0  0  0  0  0  0  0  0
  -25.0498  -27.9933   19.4127 C   0  0  0  0  0  0  0  0  0  0  0  0
  -25.7590  -28.8615   16.3687 C   0  0  0  0  0  0  0  0  0  0  0  0
  -28.0163  -28.8684   13.8092 C   0  0  0  0  0  0  0  0  0  0  0  0
  -29.5722  -17.2842   20.2568 C   0  0  0  0  0  0  0  0  0  0  0  0
  -20.4605  -29.4038   21.1465 C   0  0  0  0  0  0  0  0  0  0  0  0
  -27.2734  -29.1405   19.7216 C   0  0  0  0  0  0  0  0  0  0  0  0
  -27.3306  -27.2239   17.4704 C   0  0  0  0  0  0  0  0  0  0  0  0
  -21.0378  -28.9931   19.7943 C   0  0  0  0  0  0  0  0  0  0  0  0
  -29.8773  -13.9471   19.0534 C   0  0  0  0  0  0  0  0  0  0  0  0
  -21.8506  -27.7093   19.9286 C   0  0  0  0  0  0  0  0  0  0  0  0
  -28.6059  -13.2616   19.5593 C   0  0  0  0  0  0  0  0  0  0  0  0
  -30.4187  -14.9557   20.0650 C   0  0  0  0  0  0  0  0  0  0  0  0
  -28.1751  -15.2690   21.0330 C   0  0  0  0  0  0  0  0  0  0  0  0
  -23.0398  -27.9058   20.8765 C   0  0  1  0  0  0  0  0  0  0  0  0
  -26.0637  -28.9283   18.8166 C   0  0  1  0  0  0  0  0  0  0  0  0
  -27.5560  -14.2914   20.0208 C   0  0  2  0  0  0  0  0  0  0  0  0
  -28.2961  -29.6205   11.4315 C   0  0  0  0  0  0  0  0  0  0  0  0
  -24.0049  -26.5470   15.4327 C   0  0  0  0  0  0  0  0  0  0  0  0
  -25.0623  -26.7511   13.1725 C   0  0  0  0  0  0  0  0  0  0  0  0
  -23.7473  -28.6529   14.1087 C   0  0  0  0  0  0  0  0  0  0  0  0
  -30.2902  -30.6277   14.5113 C   0  0  0  0  0  0  0  0  0  0  0  0
  -27.4117  -23.9218   22.8488 C   0  0  0  0  0  0  0  0  0  0  0  0
  -32.6222  -23.4267   20.7668 C   0  0  0  0  0  0  0  0  0  0  0  0
  -31.7416  -24.6580   20.9108 C   0  0  0  0  0  0  0  0  0  1  0  0
  -31.8034  -22.1478   20.6872 C   0  0  0  0  0  0  0  0  0  0  0  0
  -26.0205  -28.1213   15.0793 C   0  0  1  0  0  0  0  0  0  0  0  0
  -28.4993  -29.9799   12.8951 C   0  0  2  0  0  0  0  0  0  0  0  0
  -24.7248  -27.5138   14.4714 C   0  0  0  0  0  0  0  0  0  0  0  0
  -26.4340  -12.4386   21.1996 N   0  0  0  0  0  0  0  0  0  0  0  0
  -26.3111  -13.6184   20.5679 N   0  0  0  0  0  0  0  0  0  0  0  0
  -26.4267  -28.3854   17.5060 N   0  0  0  0  0  0  0  0  0  0  0  0
  -29.3700  -15.9016   20.4528 N   0  0  0  0  0  0  0  0  0  0  0  0
  -24.7261  -15.2463   19.8983 N   0  0  0  0  0  0  0  0  0  0  0  0
  -22.2033  -12.1270   21.9724 N   0  0  0  0  0  0  0  0  0  0  0  0
  -28.4934  -18.0837   20.6328 N   0  0  0  0  0  0  0  0  0  0  0  0
  -24.1074  -28.6177   20.2073 N   0  0  0  0  0  0  0  0  0  0  0  0
  -26.7085  -29.0615   14.2012 N   0  0  0  0  0  0  0  0  0  0  0  0
  -29.9496  -30.2404   13.1181 N   0  3  0  0  0  0  0  0  0  0  0  0
  -22.1436  -14.1311   20.8594 O   0  0  0  0  0  0  0  0  0  0  0  0
  -25.1167  -26.7943   19.1685 O   0  0  0  0  0  0  0  0  0  0  0  0
  -24.9962  -29.8309   16.3656 O   0  0  0  0  0  0  0  0  0  0  0  0
  -28.7267  -27.9213   14.1391 O   0  0  0  0  0  0  0  0  0  0  0  0
  -30.6143  -17.7242   19.7643 O   0  0  0  0  0  0  0  0  0  0  0  0
  -24.0492   -7.4163   24.3042 O   0  0  0  0  0  0  0  0  0  0  0  0
  -28.6633  -23.3163   22.5311 O   0  0  0  0  0  0  0  0  0  0  0  0
  -30.8811  -24.7732   19.7783 O   0  0  0  0  0  0  0  0  0  1  0  0
  -31.0241  -21.9998   21.8664 O   0  0  0  0  0  0  0  0  0  0  0  0
  -19.7466   -4.4157   22.6048 F   0  0  0  0  0  0  0  0  0  0  0  0
  -26.1724  -19.4657   21.3184 F   0  0  0  0  0  0  0  0  0  0  0  0
  -24.3879   -4.8103   23.4460 F   0  0  0  0  0  0  0  0  0  0  0  0
  1  2  1  0  0  0  0
  1  5  2  0  0  0  0
  2  6  2  0  0  0  0
  3  8  2  0  0  0  0
  3 17  1  0  0  0  0
  4  9  1  0  0  0  0
  4 17  2  0  0  0  0
  5 19  1  0  0  0  0
  6 21  1  0  0  0  0
  7 10  2  0  0  0  0
  7 20  1  0  0  0  0
  8 24  1  0  0  0  0
  9 24  2  0  0  0  0
 10 25  1  0  0  0  0
 11 12  2  0  0  0  0
 11 26  1  0  0  0  0
 12 29  1  0  0  0  0
 13 22  1  0  0  0  0
 13 25  2  0  0  0  0
 14 23  2  0  0  0  0
 14 27  1  0  0  0  0
 15 28  1  0  0  0  0
 15 30  2  0  0  0  0
 16 29  2  0  0  0  0
 16 31  1  0  0  0  0
 17 32  1  0  0  0  0
 18 32  1  0  0  0  0
 18 33  2  0  0  0  0
 18 34  1  0  0  0  0
 19 21  2  0  0  0  0
 19 39  1  0  0  0  0
 20 22  2  0  0  0  0
 20 40  1  0  0  0  0
 21 48  1  0  0  0  0
 22 41  1  0  0  0  0
 23 30  1  0  0  0  0
 23 69  1  0  0  0  0
 24 78  1  0  0  0  0
 25 80  1  0  0  0  0
 26 31  2  0  0  0  0
 26 78  1  0  0  0  0
 27 28  2  0  0  0  0
 27 81  1  0  0  0  0
 28 79  1  0  0  0  0
 29 82  1  0  0  0  0
 30 83  1  0  0  0  0
 31 84  1  0  0  0  0
 32 63  2  0  0  0  0
 33 64  1  0  0  0  0
 33 67  1  0  0  0  0
 34 68  1  0  0  0  0
 34 73  2  0  0  0  0
 35 49  1  0  0  0  0
 35 70  1  0  0  0  0
 35 74  2  0  0  0  0
 36 60  1  0  0  0  0
 36 65  1  0  0  0  0
 36 75  2  0  0  0  0
 37 61  1  0  0  0  0
 37 71  1  0  0  0  0
 37 76  2  0  0  0  0
 38 66  1  0  0  0  0
 38 69  1  0  0  0  0
 38 77  2  0  0  0  0
 39 42  1  0  0  0  0
 40 49  1  0  0  0  0
 41 65  1  0  0  0  0
 42 44  1  0  0  0  0
 43 45  1  0  0  0  0
 43 46  1  0  0  0  0
 44 48  1  0  0  0  0
 45 50  1  0  0  0  0
 46 66  1  0  0  0  0
 47 50  1  0  0  0  0
 47 66  1  0  0  0  0
 48 70  1  0  0  0  0
 49 65  1  0  0  0  0
 50 64  1  0  0  0  0
 51 61  1  0  0  0  0
 52 62  1  0  0  0  0
 53 62  1  0  0  0  0
 54 62  1  0  0  0  0
 55 72  1  0  0  0  0
 56 79  1  0  0  0  0
 57 58  1  0  0  0  0
 57 59  1  0  0  0  0
 58 80  1  0  0  0  0
 59 81  1  0  0  0  0
 60 62  1  0  0  0  0
 60 71  1  0  0  0  0
 61 72  1  0  0  0  0
 63 64  1  0  0  0  0
M  CHG  1  72   1
M  ISO  4  38 100  58 101  69 100  80 101
M  END
> <Batch ID>
0107

> <Smiles>
CNC(C)C(=O)NC(C(=O)N1Cc2cc([101O:1][101CH2:1]CCOc3cc([100NH:0][100C:0](=O)N4CCCC(n5nc(-c6ccc(Oc7ccc(F)cc7F)cc6)c(C(N)=O)c5N)C4)c(F)cc3OC)ccc2CC1C(=O)NC1CCCc2ccccc21)C(C)(C)C

> <Shape>
0.253

> <Color>
0.109

> <Negative vol penalty>
0.000

$$$$

  -OEChem-04052301173D

 86 95  0     1  0  0  0  0  0999 V2000
  -26.8441  -38.0497   26.0118 C   0  0  0  0  0  0  0  0  0  0  0  0
  -26.9371  -36.8116   26.6395 C   0  0  0  0  0  0  0  0  0  0  0  0
  -22.6106  -11.4447   21.3766 C   0  0  0  0  0  0  0  0  0  0  0  0
  -24.1480   -9.6422   21.8502 C   0  0  0  0  0  0  0  0  0  0  0  0
  -25.9870  -38.2163   24.9248 C   0  0  0  0  0  0  0  0  0  0  0  0
  -26.1722  -35.7396   26.1810 C   0  0  0  0  0  0  0  0  0  0  0  0
  -29.2930  -29.6385   23.9611 C   0  0  0  0  0  0  0  0  0  0  0  0
  -21.7550  -10.9770   22.3740 C   0  0  0  0  0  0  0  0  0  0  0  0
  -23.2925   -9.1745   22.8477 C   0  0  0  0  0  0  0  0  0  0  0  0
  -29.8036  -28.3631   23.7184 C   0  0  0  0  0  0  0  0  0  0  0  0
  -20.4313   -7.3833   23.0377 C   0  0  0  0  0  0  0  0  0  0  0  0
  -20.1796   -6.0122   23.0852 C   0  0  0  0  0  0  0  0  0  0  0  0
  -27.5888  -27.5719   23.1554 C   0  0  0  0  0  0  0  0  0  0  0  0
  -30.4947  -17.9653   20.6749 C   0  0  0  0  0  0  0  0  0  0  0  0
  -28.0995  -18.1686   20.9162 C   0  0  0  0  0  0  0  0  0  0  0  0
  -21.0912   -5.9225   25.3209 C   0  0  0  0  0  0  0  0  0  0  0  0
  -23.8071  -10.7772   21.1146 C   0  0  0  0  0  0  0  0  0  0  0  0
  -24.4009  -11.4033   18.7140 C   0  0  0  0  0  0  0  0  0  0  0  0
  -25.2184  -37.1433   24.4468 C   0  0  0  0  0  0  0  0  0  0  0  0
  -27.9291  -29.8895   23.7868 C   0  0  0  0  0  0  0  0  0  0  0  0
  -25.3030  -35.8923   25.0874 C   0  0  0  0  0  0  0  0  0  0  0  0
  -27.0737  -28.8505   23.3850 C   0  0  0  0  0  0  0  0  0  0  0  0
  -29.4929  -20.1409   20.9914 C   0  0  0  0  0  0  0  0  0  0  0  0
  -29.2319  -17.3756   20.7303 C   0  0  0  0  0  0  0  0  0  0  0  0
  -30.6253  -19.3479   20.8055 C   0  0  0  0  0  0  0  0  0  0  0  0
  -22.0959   -9.8420   23.1096 C   0  0  0  0  0  0  0  0  0  0  0  0
  -28.9535  -27.3324   23.3167 C   0  0  0  0  0  0  0  0  0  0  0  0
  -21.0130   -8.0241   24.1317 C   0  0  0  0  0  0  0  0  0  0  0  0
  -20.5096   -5.2818   24.2269 C   0  0  0  0  0  0  0  0  0  0  0  0
  -28.2300  -19.5513   21.0468 C   0  0  0  0  0  0  0  0  0  0  0  0
  -21.3429   -7.2937   25.2733 C   0  0  0  0  0  0  0  0  0  0  0  0
  -24.6910  -11.2595   20.0840 C   0  0  0  0  0  0  0  0  0  0  0  0
  -25.5612  -11.8940   18.1670 C   0  0  0  0  0  0  0  0  0  0  0  0
  -29.7619  -24.3539   21.4768 C   0  0  0  0  0  0  0  0  0  0  0  0
  -29.3052  -25.5648   21.8252 C   0  0  0  0  0  0  0  0  0  1  0  0
  -23.1907  -11.1188   17.9997 C   0  0  0  0  0  0  0  0  0  0  0  0
  -25.1365  -32.3914   23.9175 C   0  0  0  0  0  0  0  0  0  0  0  0
  -24.6706  -30.6655   21.4246 C   0  0  0  0  0  0  0  0  0  0  0  0
  -24.7495  -28.8195   18.5569 C   0  0  0  0  0  0  0  0  0  0  0  0
  -30.1197  -15.0401   20.4091 C   0  0  0  0  0  0  0  0  0  0  0  0
  -24.2708  -37.3839   23.2984 C   0  0  0  0  0  0  0  0  0  0  0  0
  -27.3254  -31.2325   24.0962 C   0  0  0  0  0  0  0  0  0  0  0  0
  -25.6079  -29.1581   23.2438 C   0  0  0  0  0  0  0  0  0  0  0  0
  -29.5891  -23.7813   20.0987 C   0  0  0  0  0  0  0  0  0  0  0  0
  -30.4704  -23.4405   22.4366 C   0  0  0  0  0  0  0  0  0  0  0  0
  -23.7744  -36.0998   22.6389 C   0  0  0  0  0  0  0  0  0  0  0  0
  -30.3072  -11.8661   18.8068 C   0  0  0  0  0  0  0  0  0  0  0  0
  -23.3359  -35.0917   23.6963 C   0  0  0  0  0  0  0  0  0  0  0  0
  -28.8609  -11.3661   18.8223 C   0  0  0  0  0  0  0  0  0  0  0  0
  -28.9247  -22.4035   20.1560 C   0  0  0  0  0  0  0  0  0  0  0  0
  -29.7945  -22.0688   22.4813 C   0  0  0  0  0  0  0  0  0  0  0  0
  -30.6549  -12.6359   20.0796 C   0  0  0  0  0  0  0  0  0  0  0  0
  -28.2902  -13.2324   20.4280 C   0  0  0  0  0  0  0  0  0  0  0  0
  -24.5080  -34.6990   24.6039 C   0  0  1  0  0  0  0  0  0  0  0  0
  -26.1619  -31.6015   23.1586 C   0  0  1  0  0  0  0  0  0  0  0  0
  -27.8737  -12.5068   19.1382 C   0  0  2  0  0  0  0  0  0  0  0  0
  -23.4856  -28.4417   16.4222 C   0  0  0  0  0  0  0  0  0  0  0  0
  -22.5752  -29.0607   22.9536 C   0  0  0  0  0  0  0  0  0  0  0  0
  -21.9433  -27.9627   20.7941 C   0  0  0  0  0  0  0  0  0  0  0  0
  -21.6696  -30.4273   21.0650 C   0  0  0  0  0  0  0  0  0  0  0  0
  -27.0546  -29.6679   16.9061 C   0  0  0  0  0  0  0  0  0  0  0  0
  -23.9923  -29.4563   20.8319 C   0  0  1  0  0  0  0  0  0  0  0  0
  -24.6056  -29.2166   17.0988 C   0  0  2  0  0  0  0  0  0  0  0  0
  -22.5719  -29.2256   21.4207 C   0  0  0  0  0  0  0  0  0  0  0  0
  -25.9379  -11.6288   20.3886 N   0  0  0  0  0  0  0  0  0  0  0  0
  -26.4417  -12.0094   19.2022 N   0  0  0  0  0  0  0  0  0  0  0  0
  -29.6046  -21.5306   21.1238 N   0  0  0  0  0  0  0  0  0  0  0  0
  -25.4293  -30.4606   22.5834 N   0  0  0  0  0  0  0  0  0  0  0  0
  -29.6793  -13.7031   20.3124 N   0  0  0  0  0  0  0  0  0  0  0  0
  -31.9141  -19.9241   20.7466 N   0  0  0  0  0  0  0  0  0  0  0  0
  -25.9042  -12.2336   16.9062 N   0  0  0  0  0  0  0  0  0  0  0  0
  -22.0939  -10.6199   18.7156 N   0  0  0  0  0  0  0  0  0  0  0  0
  -29.0990  -15.9711   20.5984 N   0  0  0  0  0  0  0  0  0  0  0  0
  -25.3726  -33.7529   23.9318 N   0  0  0  0  0  0  0  0  0  0  0  0
  -24.0165  -29.6429   19.3852 N   0  0  0  0  0  0  0  0  0  0  0  0
  -25.8732  -28.9502   16.3619 N   0  3  0  0  0  0  0  0  0  0  0  0
  -23.0903  -11.2861   16.7606 O   0  0  0  0  0  0  0  0  0  0  0  0
  -24.1985  -31.8099   24.4501 O   0  0  0  0  0  0  0  0  0  0  0  0
  -24.5287  -31.7640   20.8802 O   0  0  0  0  0  0  0  0  0  0  0  0
  -25.4399  -27.8713   18.9241 O   0  0  0  0  0  0  0  0  0  0  0  0
  -31.3117  -15.3400   20.3028 O   0  0  0  0  0  0  0  0  0  0  0  0
  -21.2614   -9.3855   24.0832 O   0  0  0  0  0  0  0  0  0  0  0  0
  -29.4594  -26.0908   23.0771 O   0  0  0  0  0  0  0  0  0  1  0  0
  -20.2664   -3.9654   24.2730 F   0  0  0  0  0  0  0  0  0  0  0  0
  -27.1346  -20.3035   21.2249 F   0  0  0  0  0  0  0  0  0  0  0  0
  -21.9008   -7.9039   26.3279 F   0  0  0  0  0  0  0  0  0  0  0  0
  1  2  1  0  0  0  0
  1  5  2  0  0  0  0
  2  6  2  0  0  0  0
  3  8  2  0  0  0  0
  3 17  1  0  0  0  0
  4  9  1  0  0  0  0
  4 17  2  0  0  0  0
  5 19  1  0  0  0  0
  6 21  1  0  0  0  0
  7 10  2  0  0  0  0
  7 20  1  0  0  0  0
  8 26  1  0  0  0  0
  9 26  2  0  0  0  0
 10 27  1  0  0  0  0
 11 12  2  0  0  0  0
 11 28  1  0  0  0  0
 12 29  1  0  0  0  0
 13 22  1  0  0  0  0
 13 27  2  0  0  0  0
 14 24  1  0  0  0  0
 14 25  2  0  0  0  0
 15 24  2  0  0  0  0
 15 30  1  0  0  0  0
 16 29  2  0  0  0  0
 16 31  1  0  0  0  0
 17 32  1  0  0  0  0
 18 32  1  0  0  0  0
 18 33  2  0  0  0  0
 18 36  1  0  0  0  0
 19 21  2  0  0  0  0
 19 41  1  0  0  0  0
 20 22  2  0  0  0  0
 20 42  1  0  0  0  0
 21 54  1  0  0  0  0
 22 43  1  0  0  0  0
 23 25  1  0  0  0  0
 23 30  2  0  0  0  0
 23 67  1  0  0  0  0
 24 73  1  0  0  0  0
 25 70  1  0  0  0  0
 26 82  1  0  0  0  0
 27 83  1  0  0  0  0
 28 31  2  0  0  0  0
 28 82  1  0  0  0  0
 29 84  1  0  0  0  0
 30 85  1  0  0  0  0
 31 86  1  0  0  0  0
 32 65  2  0  0  0  0
 33 66  1  0  0  0  0
 33 71  1  0  0  0  0
 34 35  2  0  0  0  0
 34 44  1  0  0  0  0
 34 45  1  0  0  0  0
 35 83  1  0  0  0  0
 36 72  1  0  0  0  0
 36 77  2  0  0  0  0
 37 55  1  0  0  0  0
 37 74  1  0  0  0  0
 37 78  2  0  0  0  0
 38 62  1  0  0  0  0
 38 68  1  0  0  0  0
 38 79  2  0  0  0  0
 39 63  1  0  0  0  0
 39 75  1  0  0  0  0
 39 80  2  0  0  0  0
 40 69  1  0  0  0  0
 40 73  1  0  0  0  0
 40 81  2  0  0  0  0
 41 46  1  0  0  0  0
 42 55  1  0  0  0  0
 43 68  1  0  0  0  0
 44 50  1  0  0  0  0
 45 51  1  0  0  0  0
 46 48  1  0  0  0  0
 47 49  1  0  0  0  0
 47 52  1  0  0  0  0
 48 54  1  0  0  0  0
 49 56  1  0  0  0  0
 50 67  1  0  0  0  0
 51 67  1  0  0  0  0
 52 69  1  0  0  0  0
 53 56  1  0  0  0  0
 53 69  1  0  0  0  0
 54 74  1  0  0  0  0
 55 68  1  0  0  0  0
 56 66  1  0  0  0  0
 57 63  1  0  0  0  0
 58 64  1  0  0  0  0
 59 64  1  0  0  0  0
 60 64  1  0  0  0  0
 61 76  1  0  0  0  0
 62 64  1  0  0  0  0
 62 75  1  0  0  0  0
 63 76  1  0  0  0  0
 65 66  1  0  0  0  0
M  CHG  1  76   1
M  ISO  4  35 101  40 100  73 100  83 101
M  END
> <Batch ID>
0107

> <Smiles>
CNC(C)C(=O)NC(C(=O)N1Cc2cc([101O:1][101CH:1]=C3CCN(c4c(N)cc([100NH:0][100C:0](=O)N5CCCC(n6nc(-c7ccc(Oc8ccc(F)cc8F)cc7)c(C(N)=O)c6N)C5)cc4F)CC3)ccc2CC1C(=O)NC1CCCc2ccccc21)C(C)(C)C

> <Shape>
0.329

> <Color>
0.072

> <Negative vol penalty>
0.000

$$$$

  -OEChem-04052301173D

 84 92  0     1  0  0  0  0  0999 V2000
  -29.2943  -22.6819   19.7666 C   0  0  0  0  0  0  0  0  0  0  0  0
  -28.0841  -22.9648   20.3917 C   0  0  0  0  0  0  0  0  0  0  0  0
  -23.5819  -12.5724   21.6292 C   0  0  0  0  0  0  0  0  0  0  0  0
  -24.4852  -11.8400   19.5115 C   0  0  0  0  0  0  0  0  0  0  0  0
  -30.4173  -23.4622   20.0387 C   0  0  0  0  0  0  0  0  0  0  0  0
  -27.9964  -24.0275   21.2902 C   0  0  0  0  0  0  0  0  0  0  0  0
  -23.8551  -26.8498   20.5627 C   0  0  0  0  0  0  0  0  0  0  0  0
  -22.5484  -11.6434   21.5096 C   0  0  0  0  0  0  0  0  0  0  0  0
  -23.4517  -10.9109   19.3920 C   0  0  0  0  0  0  0  0  0  0  0  0
  -22.6490  -26.3480   21.0498 C   0  0  0  0  0  0  0  0  0  0  0  0
  -19.8756   -9.2163   21.9348 C   0  0  0  0  0  0  0  0  0  0  0  0
  -19.5547   -8.4551   23.0587 C   0  0  0  0  0  0  0  0  0  0  0  0
  -22.8378  -27.7835   22.9793 C   0  0  0  0  0  0  0  0  0  0  0  0
  -22.0132  -21.7555   23.1299 C   0  0  0  0  0  0  0  0  0  0  0  0
  -24.7748  -22.0818   23.3535 C   0  0  0  0  0  0  0  0  0  0  0  0
  -21.7981   -7.5589   23.0923 C   0  0  0  0  0  0  0  0  0  0  0  0
  -24.5503  -12.6708   20.6301 C   0  0  0  0  0  0  0  0  0  0  0  0
  -26.8739  -13.4327   21.3567 C   0  0  0  0  0  0  0  0  0  0  0  0
  -30.3409  -24.5410   20.9336 C   0  0  0  0  0  0  0  0  0  0  0  0
  -24.5683  -27.8160   21.2869 C   0  0  0  0  0  0  0  0  0  0  0  0
  -29.1197  -24.8222   21.5755 C   0  0  0  0  0  0  0  0  0  0  0  0
  -24.0515  -28.2979   22.4980 C   0  0  0  0  0  0  0  0  0  0  0  0
  -22.8738  -20.9292   22.4074 C   0  0  0  0  0  0  0  0  0  0  0  0
  -24.2546  -21.0923   22.5192 C   0  0  0  0  0  0  0  0  0  0  0  0
  -23.9141  -22.9081   24.0760 C   0  0  0  0  0  0  0  0  0  0  0  0
  -22.4833  -10.8126   20.3911 C   0  0  0  0  0  0  0  0  0  0  0  0
  -22.1416  -26.8127   22.2596 C   0  0  0  0  0  0  0  0  0  0  0  0
  -21.1578   -9.1488   21.3896 C   0  0  0  0  0  0  0  0  0  0  0  0
  -22.5333  -22.7451   23.9642 C   0  0  0  0  0  0  0  0  0  0  0  0
  -20.5160   -7.6264   23.6374 C   0  0  0  0  0  0  0  0  0  0  0  0
  -22.1190   -8.3201   21.9683 C   0  0  0  0  0  0  0  0  0  0  0  0
  -25.6178  -13.6307   20.7527 C   0  0  0  0  0  0  0  0  0  0  0  0
  -27.5175  -14.6376   21.2136 C   0  0  0  0  0  0  0  0  0  0  0  0
  -27.4109  -12.2641   21.9905 C   0  0  0  0  0  0  0  0  0  0  0  0
  -27.4386  -27.9331   22.6475 C   0  0  0  0  0  0  0  0  0  0  0  0
  -26.6397  -31.0351   23.1587 C   0  0  0  0  0  0  0  0  0  0  0  0
  -24.1784  -33.3726   23.5122 C   0  0  0  0  0  0  0  0  0  0  0  0
  -25.1362  -20.2039   20.3678 C   0  0  0  0  0  0  0  0  0  0  0  0
  -31.5933  -25.3268   21.2319 C   0  0  0  0  0  0  0  0  0  0  0  0
  -25.8545  -28.3666   20.7347 C   0  0  0  0  0  0  0  0  0  0  0  0
  -24.7684  -29.3492   23.3037 C   0  0  0  0  0  0  0  0  0  0  0  0
  -31.3241  -26.6668   21.9118 C   0  0  0  0  0  0  0  0  0  0  0  0
  -27.7155  -18.4761   18.3747 C   0  0  0  0  0  0  0  0  0  0  0  0
  -30.3281  -26.4952   23.0543 C   0  0  0  0  0  0  0  0  0  0  0  0
  -27.5263  -17.0122   18.7687 C   0  0  0  0  0  0  0  0  0  0  0  0
  -26.4098  -19.2605   18.4639 C   0  0  0  0  0  0  0  0  0  0  0  0
  -25.5547  -17.7045   20.1896 C   0  0  0  0  0  0  0  0  0  0  0  0
  -28.9787  -25.9819   22.5374 C   0  0  1  0  0  0  0  0  0  0  0  0
  -26.7538  -28.9736   21.8072 C   0  0  1  0  0  0  0  0  0  0  0  0
  -26.8614  -16.8977   20.1514 C   0  0  1  0  0  0  0  0  0  0  0  0
  -22.2892  -19.8771   21.5220 C   0  0  0  0  0  0  0  0  0  0  0  0
  -23.8333  -35.8176   23.9599 C   0  0  0  0  0  0  0  0  0  0  0  0
  -27.2750  -30.5822   26.1086 C   0  0  0  0  0  0  0  0  0  0  0  0
  -26.0341  -32.6937   26.6282 C   0  0  0  0  0  0  0  0  0  0  0  0
  -28.0733  -32.7684   25.1932 C   0  0  0  0  0  0  0  0  0  0  0  0
  -26.2746  -19.6172   22.4961 C   0  0  0  0  0  0  0  0  0  0  0  0
  -22.8289  -33.7773   20.9095 C   0  0  0  0  0  0  0  0  0  0  0  0
  -19.8754  -25.1462   24.5396 C   0  0  0  0  0  0  0  0  0  0  0  0
  -20.8053  -26.2862   24.1552 C   0  0  0  0  0  0  0  0  0  1  0  0
  -20.4041  -23.7989   24.0734 C   0  0  0  0  0  0  0  0  0  0  0  0
  -25.9365  -31.7904   24.2606 C   0  0  1  0  0  0  0  0  0  0  0  0
  -23.9977  -34.7467   22.8927 C   0  0  2  0  0  0  0  0  0  0  0  0
  -26.8169  -31.9374   25.5336 C   0  0  0  0  0  0  0  0  0  0  0  0
  -25.4702  -14.8644   20.2625 N   0  0  0  0  0  0  0  0  0  0  0  0
  -26.6418  -15.4524   20.5584 N   0  0  0  0  0  0  0  0  0  0  0  0
  -26.0253  -29.8518   22.7250 N   0  0  0  0  0  0  0  0  0  0  0  0
  -25.7755  -19.0978   19.7727 N   0  0  0  0  0  0  0  0  0  0  0  0
  -24.4538  -23.9066   24.9159 N   0  0  0  0  0  0  0  0  0  0  0  0
  -28.7414  -15.0690   21.5857 N   0  0  0  0  0  0  0  0  0  0  0  0
  -26.6156  -11.1116   22.0507 N   0  0  0  0  0  0  0  0  0  0  0  0
  -28.2290  -27.0585   21.9264 N   0  0  0  0  0  0  0  0  0  0  0  0
  -25.5107  -33.0587   23.6788 N   0  0  0  0  0  0  0  0  0  0  0  0
  -25.1615  -20.2474   21.7786 N   0  0  0  0  0  0  0  0  0  0  0  0
  -22.7914  -34.7658   22.0179 N   0  3  0  0  0  0  0  0  0  0  0  0
  -28.5556  -12.2475   22.5031 O   0  0  0  0  0  0  0  0  0  0  0  0
  -27.2642  -27.9252   23.8604 O   0  0  0  0  0  0  0  0  0  0  0  0
  -27.6916  -31.4825   22.6949 O   0  0  0  0  0  0  0  0  0  0  0  0
  -23.2323  -32.6516   23.8212 O   0  0  0  0  0  0  0  0  0  0  0  0
  -24.6113  -21.0961   19.6908 O   0  0  0  0  0  0  0  0  0  0  0  0
  -21.4751   -9.9058   20.2742 O   0  0  0  0  0  0  0  0  0  0  0  0
  -20.9649  -26.3241   22.7376 O   0  0  0  0  0  0  0  0  0  1  0  0
  -21.6709  -23.5465   24.6661 O   0  0  0  0  0  0  0  0  0  0  0  0
  -20.2081   -6.8966   24.7176 F   0  0  0  0  0  0  0  0  0  0  0  0
  -23.3528   -8.2520   21.4497 F   0  0  0  0  0  0  0  0  0  0  0  0
  1  2  1  0  0  0  0
  1  5  2  0  0  0  0
  2  6  2  0  0  0  0
  3  8  2  0  0  0  0
  3 17  1  0  0  0  0
  4  9  1  0  0  0  0
  4 17  2  0  0  0  0
  5 19  1  0  0  0  0
  6 21  1  0  0  0  0
  7 10  2  0  0  0  0
  7 20  1  0  0  0  0
  8 26  1  0  0  0  0
  9 26  2  0  0  0  0
 10 27  1  0  0  0  0
 11 12  2  0  0  0  0
 11 28  1  0  0  0  0
 12 30  1  0  0  0  0
 13 22  1  0  0  0  0
 13 27  2  0  0  0  0
 14 23  2  0  0  0  0
 14 29  1  0  0  0  0
 15 24  2  0  0  0  0
 15 25  1  0  0  0  0
 16 30  2  0  0  0  0
 16 31  1  0  0  0  0
 17 32  1  0  0  0  0
 18 32  1  0  0  0  0
 18 33  2  0  0  0  0
 18 34  1  0  0  0  0
 19 21  2  0  0  0  0
 19 39  1  0  0  0  0
 20 22  2  0  0  0  0
 20 40  1  0  0  0  0
 21 48  1  0  0  0  0
 22 41  1  0  0  0  0
 23 24  1  0  0  0  0
 23 51  1  0  0  0  0
 24 73  1  0  0  0  0
 25 29  2  0  0  0  0
 25 68  1  0  0  0  0
 26 80  1  0  0  0  0
 27 81  1  0  0  0  0
 28 31  2  0  0  0  0
 28 80  1  0  0  0  0
 29 82  1  0  0  0  0
 30 83  1  0  0  0  0
 31 84  1  0  0  0  0
 32 64  2  0  0  0  0
 33 65  1  0  0  0  0
 33 69  1  0  0  0  0
 34 70  1  0  0  0  0
 34 75  2  0  0  0  0
 35 49  1  0  0  0  0
 35 71  1  0  0  0  0
 35 76  2  0  0  0  0
 36 61  1  0  0  0  0
 36 66  1  0  0  0  0
 36 77  2  0  0  0  0
 37 62  1  0  0  0  0
 37 72  1  0  0  0  0
 37 78  2  0  0  0  0
 38 67  1  0  0  0  0
 38 73  1  0  0  0  0
 38 79  2  0  0  0  0
 39 42  1  0  0  0  0
 40 49  1  0  0  0  0
 41 66  1  0  0  0  0
 42 44  1  0  0  0  0
 43 45  1  0  0  0  0
 43 46  1  0  0  0  0
 44 48  1  0  0  0  0
 45 50  1  0  0  0  0
 46 67  1  0  0  0  0
 47 50  1  0  0  0  0
 47 67  1  0  0  0  0
 48 71  1  0  0  0  0
 49 66  1  0  0  0  0
 50 65  1  0  0  0  0
 52 62  1  0  0  0  0
 53 63  1  0  0  0  0
 54 63  1  0  0  0  0
 55 63  1  0  0  0  0
 56 73  1  0  0  0  0
 57 74  1  0  0  0  0
 58 59  1  0  0  0  0
 58 60  1  0  0  0  0
 59 81  1  0  0  0  0
 60 82  1  0  0  0  0
 61 63  1  0  0  0  0
 61 72  1  0  0  0  0
 62 74  1  0  0  0  0
 64 65  1  0  0  0  0
M  CHG  1  74   1
M  ISO  4  38 100  59 101  73 100  81 101
M  END
> <Batch ID>
0107

> <Smiles>
CNC(C)C(=O)NC(C(=O)N1Cc2cc([101O:1][101CH2:1]CCOc3cc(C)c([100N:0](C)[100C:0](=O)N4CCCC(n5nc(-c6ccc(Oc7ccc(F)cc7F)cc6)c(C(N)=O)c5N)C4)cc3N)ccc2CC1C(=O)NC1CCCc2ccccc21)C(C)(C)C

> <Shape>
0.237

> <Color>
0.047

> <Negative vol penalty>
0.000

$$$$

  -OEChem-04052301173D

 88 97  0     1  0  0  0  0  0999 V2000
  -33.4603  -25.1954   18.3312 C   0  0  0  0  0  0  0  0  0  0  0  0
  -32.1809  -25.4846   17.8679 C   0  0  0  0  0  0  0  0  0  0  0  0
  -27.3304  -16.6100   21.2563 C   0  0  0  0  0  0  0  0  0  0  0  0
  -27.0018  -17.0821   18.9098 C   0  0  0  0  0  0  0  0  0  0  0  0
  -33.7259  -25.2153   19.6998 C   0  0  0  0  0  0  0  0  0  0  0  0
  -31.1659  -25.7929   18.7730 C   0  0  0  0  0  0  0  0  0  0  0  0
  -25.2725  -29.8176   19.3947 C   0  0  0  0  0  0  0  0  0  0  0  0
  -18.7401  -22.9005   22.9113 C   0  0  0  0  0  0  0  0  0  0  0  0
  -19.0697  -24.2522   23.0108 C   0  0  0  0  0  0  0  0  0  0  0  0
  -28.6621  -17.0111   21.1506 C   0  0  0  0  0  0  0  0  0  0  0  0
  -28.3336  -17.4832   18.8040 C   0  0  0  0  0  0  0  0  0  0  0  0
  -23.9255  -29.7092   19.7374 C   0  0  0  0  0  0  0  0  0  0  0  0
  -30.1778  -20.2139   19.5541 C   0  0  0  0  0  0  0  0  0  0  0  0
  -30.4450  -21.3905   18.8542 C   0  0  0  0  0  0  0  0  0  0  0  0
  -24.5197  -29.7908   22.0740 C   0  0  0  0  0  0  0  0  0  0  0  0
  -17.9088  -24.6879   20.9372 C   0  0  0  0  0  0  0  0  0  0  0  0
  -31.8165  -20.1529   17.2972 C   0  0  0  0  0  0  0  0  0  0  0  0
  -26.5002  -16.6454   20.1359 C   0  0  0  0  0  0  0  0  0  0  0  0
  -24.6464  -14.9652   20.6338 C   0  0  0  0  0  0  0  0  0  0  0  0
  -32.7160  -25.5333   20.6216 C   0  0  0  0  0  0  0  0  0  0  0  0
  -26.2558  -29.9025   20.3908 C   0  0  0  0  0  0  0  0  0  0  0  0
  -31.4179  -25.8157   20.1553 C   0  0  0  0  0  0  0  0  0  0  0  0
  -25.8783  -29.9028   21.7412 C   0  0  0  0  0  0  0  0  0  0  0  0
  -17.9949  -22.4424   21.8247 C   0  0  0  0  0  0  0  0  0  0  0  0
  -18.6540  -25.1459   22.0238 C   0  0  0  0  0  0  0  0  0  0  0  0
  -17.5792  -23.3361   20.8377 C   0  0  0  0  0  0  0  0  0  0  0  0
  -29.1637  -17.4477   19.9244 C   0  0  0  0  0  0  0  0  0  0  0  0
  -23.5491  -29.6929   21.0773 C   0  0  0  0  0  0  0  0  0  0  0  0
  -30.7300  -19.0068   19.1255 C   0  0  0  0  0  0  0  0  0  0  0  0
  -31.2643  -21.3601   17.7258 C   0  0  0  0  0  0  0  0  0  0  0  0
  -31.5493  -18.9763   17.9971 C   0  0  0  0  0  0  0  0  0  0  0  0
  -25.1246  -16.2307   20.2444 C   0  0  0  0  0  0  0  0  0  0  0  0
  -23.2791  -15.0820   20.5758 C   0  0  0  0  0  0  0  0  0  0  0  0
  -20.5753  -28.2960   22.5701 C   0  0  0  0  0  0  0  0  0  0  0  0
  -20.3017  -27.0309   22.1683 C   0  0  0  0  0  0  0  0  0  0  0  0
  -19.4328  -29.1546   23.0308 C   0  0  0  0  0  0  0  0  0  0  0  0
  -25.3732  -13.7892   21.0140 C   0  0  0  0  0  0  0  0  0  0  0  0
  -28.7398  -28.1145   21.2490 C   0  0  0  0  0  0  0  0  0  0  0  0
  -29.3140  -30.5774   23.2804 C   0  0  0  0  0  0  0  0  0  0  0  0
  -27.3694  -32.7276   25.4281 C   0  0  0  0  0  0  0  0  0  0  0  0
  -19.7055  -19.7537   21.0856 C   0  0  0  0  0  0  0  0  0  0  0  0
  -33.0393  -25.4958   22.0942 C   0  0  0  0  0  0  0  0  0  0  0  0
  -27.7024  -30.0459   20.0042 C   0  0  0  0  0  0  0  0  0  0  0  0
  -26.8935  -30.0117   22.8484 C   0  0  0  0  0  0  0  0  0  0  0  0
  -18.0649  -28.5282   23.1557 C   0  0  0  0  0  0  0  0  0  0  0  0
  -32.0002  -26.1987   22.9640 C   0  0  0  0  0  0  0  0  0  0  0  0
  -19.8181  -17.4650   18.2845 C   0  0  0  0  0  0  0  0  0  0  0  0
  -30.5912  -25.7805   22.5555 C   0  0  0  0  0  0  0  0  0  0  0  0
  -21.1595  -16.7669   18.5158 C   0  0  0  0  0  0  0  0  0  0  0  0
  -17.8473  -27.4395   22.1195 C   0  0  0  0  0  0  0  0  0  0  0  0
  -19.8926  -18.9429   18.6566 C   0  0  0  0  0  0  0  0  0  0  0  0
  -21.6924  -18.5083   20.2832 C   0  0  0  0  0  0  0  0  0  0  0  0
  -30.2965  -26.1789   21.1044 C   0  0  1  0  0  0  0  0  0  0  0  0
  -28.6617  -29.6082   21.1068 C   0  0  1  0  0  0  0  0  0  0  0  0
  -21.6762  -17.0061   19.9469 C   0  0  2  0  0  0  0  0  0  0  0  0
  -21.4148  -26.1495   21.6357 C   0  0  0  0  0  0  0  0  0  0  0  0
  -27.8121  -35.0636   26.2310 C   0  0  0  0  0  0  0  0  0  0  0  0
  -30.5297  -29.1997   25.7164 C   0  0  0  0  0  0  0  0  0  0  0  0
  -29.5391  -31.0025   27.1435 C   0  0  0  0  0  0  0  0  0  0  0  0
  -31.2325  -31.5795   25.4050 C   0  0  0  0  0  0  0  0  0  0  0  0
  -24.7757  -33.7012   24.3870 C   0  0  0  0  0  0  0  0  0  0  0  0
  -17.6567  -20.9894   21.7432 C   0  0  0  0  0  0  0  0  0  0  0  0
  -21.9318  -28.9376   22.6488 C   0  0  0  0  0  0  0  0  0  1  0  0
  -28.8988  -30.9187   24.6911 C   0  0  1  0  0  0  0  0  0  0  0  0
  -27.0784  -34.2022   25.2149 C   0  0  2  0  0  0  0  0  0  0  0  0
  -30.0335  -30.6594   25.7220 C   0  0  0  0  0  0  0  0  0  0  0  0
  -24.1410  -17.0884   19.9599 N   0  0  0  0  0  0  0  0  0  0  0  0
  -23.0311  -16.3605   20.1706 N   0  0  0  0  0  0  0  0  0  0  0  0
  -18.9910  -26.5204   22.1245 N   0  0  0  0  0  0  0  0  0  0  0  0
  -28.2958  -30.1436   22.4197 N   0  0  0  0  0  0  0  0  0  0  0  0
  -20.3734  -19.1005   20.0365 N   0  0  0  0  0  0  0  0  0  0  0  0
  -16.8235  -22.8900   19.7312 N   0  0  0  0  0  0  0  0  0  0  0  0
  -22.2769  -14.2148   20.8323 N   0  0  0  0  0  0  0  0  0  0  0  0
  -25.7303  -12.8725   20.0158 N   0  0  0  0  0  0  0  0  0  0  0  0
  -29.9984  -27.5925   21.0189 N   0  0  0  0  0  0  0  0  0  0  0  0
  -28.4280  -32.2991   24.6554 N   0  0  0  0  0  0  0  0  0  0  0  0
  -18.4652  -20.2931   20.7673 N   0  0  0  0  0  0  0  0  0  0  0  0
  -25.6172  -34.4656   25.3433 N   0  3  0  0  0  0  0  0  0  0  0  0
  -19.6159  -30.3282   23.3531 O   0  0  0  0  0  0  0  0  0  0  0  0
  -25.6821  -13.5501   22.2060 O   0  0  0  0  0  0  0  0  0  0  0  0
  -27.7331  -27.4825   21.5471 O   0  0  0  0  0  0  0  0  0  0  0  0
  -30.4969  -30.6983   22.9522 O   0  0  0  0  0  0  0  0  0  0  0  0
  -26.7247  -32.0270   26.2052 O   0  0  0  0  0  0  0  0  0  0  0  0
  -20.1774  -19.8450   22.2241 O   0  0  0  0  0  0  0  0  0  0  0  0
  -30.4631  -17.8394   19.8209 O   0  0  0  0  0  0  0  0  0  0  0  0
  -22.2351  -29.5866   21.4146 O   0  0  0  0  0  0  0  0  0  1  0  0
  -31.5196  -22.4898   17.0530 F   0  0  0  0  0  0  0  0  0  0  0  0
  -32.0817  -17.8195   17.5799 F   0  0  0  0  0  0  0  0  0  0  0  0
  1  2  1  0  0  0  0
  1  5  2  0  0  0  0
  2  6  2  0  0  0  0
  3 10  2  0  0  0  0
  3 18  1  0  0  0  0
  4 11  1  0  0  0  0
  4 18  2  0  0  0  0
  5 20  1  0  0  0  0
  6 22  1  0  0  0  0
  7 12  2  0  0  0  0
  7 21  1  0  0  0  0
  8  9  2  0  0  0  0
  8 24  1  0  0  0  0
  9 25  1  0  0  0  0
 10 27  1  0  0  0  0
 11 27  2  0  0  0  0
 12 28  1  0  0  0  0
 13 14  2  0  0  0  0
 13 29  1  0  0  0  0
 14 30  1  0  0  0  0
 15 23  1  0  0  0  0
 15 28  2  0  0  0  0
 16 25  2  0  0  0  0
 16 26  1  0  0  0  0
 17 30  2  0  0  0  0
 17 31  1  0  0  0  0
 18 32  1  0  0  0  0
 19 32  1  0  0  0  0
 19 33  2  0  0  0  0
 19 37  1  0  0  0  0
 20 22  2  0  0  0  0
 20 42  1  0  0  0  0
 21 23  2  0  0  0  0
 21 43  1  0  0  0  0
 22 53  1  0  0  0  0
 23 44  1  0  0  0  0
 24 26  2  0  0  0  0
 24 62  1  0  0  0  0
 25 69  1  0  0  0  0
 26 72  1  0  0  0  0
 27 85  1  0  0  0  0
 28 86  1  0  0  0  0
 29 31  2  0  0  0  0
 29 85  1  0  0  0  0
 30 87  1  0  0  0  0
 31 88  1  0  0  0  0
 32 67  2  0  0  0  0
 33 68  1  0  0  0  0
 33 73  1  0  0  0  0
 34 35  2  0  0  0  0
 34 36  1  0  0  0  0
 34 63  1  0  0  0  0
 35 56  1  0  0  0  0
 35 69  1  0  0  0  0
 36 45  1  0  0  0  0
 36 79  2  0  0  0  0
 37 74  1  0  0  0  0
 37 80  2  0  0  0  0
 38 54  1  0  0  0  0
 38 75  1  0  0  0  0
 38 81  2  0  0  0  0
 39 64  1  0  0  0  0
 39 70  1  0  0  0  0
 39 82  2  0  0  0  0
 40 65  1  0  0  0  0
 40 76  1  0  0  0  0
 40 83  2  0  0  0  0
 41 71  1  0  0  0  0
 41 77  1  0  0  0  0
 41 84  2  0  0  0  0
 42 46  1  0  0  0  0
 43 54  1  0  0  0  0
 44 70  1  0  0  0  0
 45 50  1  0  0  0  0
 46 48  1  0  0  0  0
 47 49  1  0  0  0  0
 47 51  1  0  0  0  0
 48 53  1  0  0  0  0
 49 55  1  0  0  0  0
 50 69  1  0  0  0  0
 51 71  1  0  0  0  0
 52 55  1  0  0  0  0
 52 71  1  0  0  0  0
 53 75  1  0  0  0  0
 54 70  1  0  0  0  0
 55 68  1  0  0  0  0
 57 65  1  0  0  0  0
 58 66  1  0  0  0  0
 59 66  1  0  0  0  0
 60 66  1  0  0  0  0
 61 78  1  0  0  0  0
 62 77  1  0  0  0  0
 63 86  1  0  0  0  0
 64 66  1  0  0  0  0
 64 76  1  0  0  0  0
 65 78  1  0  0  0  0
 67 68  1  0  0  0  0
M  CHG  1  78   1
M  ISO  4  41 100  63 101  77 100  86 101
M  END
> <Batch ID>
0107

> <Smiles>
CNC(C)C(=O)NC(C(=O)N1Cc2cc([101O:1][101CH2:1]C3=C(C)N(c4ccc(C[100NH:0][100C:0](=O)N5CCCC(n6nc(-c7ccc(Oc8ccc(F)cc8F)cc7)c(C(N)=O)c6N)C5)c(N)c4)CCC3=O)ccc2CC1C(=O)NC1CCCc2ccccc21)C(C)(C)C

> <Shape>
0.253

> <Color>
0.071

> <Negative vol penalty>
0.000

$$$$

  -OEChem-04052301173D

 90 99  0     1  0  0  0  0  0999 V2000
  -16.2858  -27.8138   20.9015 C   0  0  0  0  0  0  0  0  0  0  0  0
  -17.2546  -28.3007   20.0299 C   0  0  0  0  0  0  0  0  0  0  0  0
  -25.2300  -12.3957   18.5254 C   0  0  0  0  0  0  0  0  0  0  0  0
  -25.4709  -14.0775   20.2431 C   0  0  0  0  0  0  0  0  0  0  0  0
  -16.3419  -28.1388   22.2562 C   0  0  0  0  0  0  0  0  0  0  0  0
  -18.2795  -29.1139   20.5123 C   0  0  0  0  0  0  0  0  0  0  0  0
  -25.1879  -27.2266   19.7356 C   0  0  0  0  0  0  0  0  0  0  0  0
  -25.1631  -11.4049   19.5049 C   0  0  0  0  0  0  0  0  0  0  0  0
  -25.4040  -13.0867   21.2226 C   0  0  0  0  0  0  0  0  0  0  0  0
  -26.5381  -27.0381   19.4398 C   0  0  0  0  0  0  0  0  0  0  0  0
  -22.8599  -10.1808   21.6566 C   0  0  0  0  0  0  0  0  0  0  0  0
  -21.8724   -9.2046   21.5247 C   0  0  0  0  0  0  0  0  0  0  0  0
  -27.1017  -29.0268   20.6951 C   0  0  0  0  0  0  0  0  0  0  0  0
  -28.4571  -23.4968   21.4860 C   0  0  0  0  0  0  0  0  0  0  0  0
  -27.1652  -21.8247   20.3147 C   0  0  0  0  0  0  0  0  0  0  0  0
  -29.4274  -22.3098   19.6188 C   0  0  0  0  0  0  0  0  0  0  0  0
  -23.5758   -7.4936   21.4354 C   0  0  0  0  0  0  0  0  0  0  0  0
  -25.3840  -13.7320   18.8945 C   0  0  0  0  0  0  0  0  0  0  0  0
  -24.4732  -15.0710   16.9234 C   0  0  0  0  0  0  0  0  0  0  0  0
  -17.3734  -28.9484   22.7571 C   0  0  0  0  0  0  0  0  0  0  0  0
  -24.7906  -28.3086   20.5261 C   0  0  0  0  0  0  0  0  0  0  0  0
  -18.3486  -29.4511   21.8747 C   0  0  0  0  0  0  0  0  0  0  0  0
  -25.7520  -29.2137   21.0050 C   0  0  0  0  0  0  0  0  0  0  0  0
  -27.2724  -22.7778   21.3275 C   0  0  0  0  0  0  0  0  0  0  0  0
  -29.5346  -23.2628   20.6316 C   0  0  0  0  0  0  0  0  0  0  0  0
  -28.2427  -21.5907   19.4603 C   0  0  0  0  0  0  0  0  0  0  0  0
  -25.2500  -11.7503   20.8535 C   0  0  0  0  0  0  0  0  0  0  0  0
  -27.4926  -27.9362   19.9182 C   0  0  0  0  0  0  0  0  0  0  0  0
  -24.2054   -9.8135   21.6778 C   0  0  0  0  0  0  0  0  0  0  0  0
  -22.2303   -7.8610   21.4141 C   0  0  0  0  0  0  0  0  0  0  0  0
  -24.5633   -8.4699   21.5672 C   0  0  0  0  0  0  0  0  0  0  0  0
  -25.4537  -14.7559   17.8832 C   0  0  0  0  0  0  0  0  0  0  0  0
  -25.0165  -16.1081   16.2052 C   0  0  0  0  0  0  0  0  0  0  0  0
  -33.3830  -23.5233   19.7728 C   0  0  0  0  0  0  0  0  0  0  0  0
  -23.1864  -14.4792   16.7010 C   0  0  0  0  0  0  0  0  0  0  0  0
  -21.9651  -30.1486   22.1713 C   0  0  0  0  0  0  0  0  0  0  0  0
  -24.3019  -30.1432   24.1587 C   0  0  0  0  0  0  0  0  0  0  0  0
  -26.9586  -29.5509   26.2149 C   0  0  0  0  0  0  0  0  0  0  0  0
  -29.1071  -20.2673   17.4987 C   0  0  0  0  0  0  0  0  0  0  0  0
  -17.3656  -29.3114   24.2210 C   0  0  0  0  0  0  0  0  0  0  0  0
  -23.3409  -28.5853   20.8186 C   0  0  0  0  0  0  0  0  0  0  0  0
  -25.2748  -30.3827   21.8227 C   0  0  0  0  0  0  0  0  0  0  0  0
  -33.7433  -23.0853   21.1742 C   0  0  0  0  0  0  0  0  0  0  0  0
  -32.7695  -24.9001   19.6371 C   0  0  0  0  0  0  0  0  0  0  0  0
  -18.6961  -29.8718   24.7168 C   0  0  0  0  0  0  0  0  0  0  0  0
  -32.5110  -22.7756   22.0145 C   0  0  0  0  0  0  0  0  0  0  0  0
  -29.2378  -17.9077   14.8356 C   0  0  0  0  0  0  0  0  0  0  0  0
  -19.2269  -30.9233   23.7475 C   0  0  0  0  0  0  0  0  0  0  0  0
  -28.1887  -16.8635   15.2245 C   0  0  0  0  0  0  0  0  0  0  0  0
  -31.4808  -23.9107   22.0531 C   0  0  0  0  0  0  0  0  0  0  0  0
  -29.9840  -18.4439   16.0560 C   0  0  0  0  0  0  0  0  0  0  0  0
  -28.0772  -17.9105   17.5220 C   0  0  0  0  0  0  0  0  0  0  0  0
  -19.4901  -30.3158   22.3643 C   0  0  1  0  0  0  0  0  0  0  0  0
  -23.1108  -29.1809   22.2191 C   0  0  1  0  0  0  0  0  0  0  0  0
  -27.2548  -17.3886   16.3325 C   0  0  2  0  0  0  0  0  0  0  0  0
  -31.2365  -24.8637   19.7138 C   0  0  2  0  0  0  0  0  0  0  0  0
  -25.5877  -24.4696   22.1356 C   0  0  0  0  0  0  0  0  0  0  0  0
  -26.4510  -22.6995   23.7094 C   0  0  0  0  0  0  0  0  0  0  0  0
  -27.7940  -30.0113   28.5360 C   0  0  0  0  0  0  0  0  0  0  0  0
  -24.9719  -33.0057   23.3457 C   0  0  0  0  0  0  0  0  0  0  0  0
  -26.5889  -33.0942   25.2550 C   0  0  0  0  0  0  0  0  0  0  0  0
  -24.1577  -32.7520   25.6967 C   0  0  0  0  0  0  0  0  0  0  0  0
  -27.0674  -26.6674   26.8728 C   0  0  0  0  0  0  0  0  0  0  0  0
  -30.6945  -26.2841   19.8931 C   0  0  0  0  0  0  0  0  0  0  0  0
  -29.2439  -26.3963   19.4497 C   0  0  0  0  0  0  0  0  0  1  0  0
  -26.1205  -23.0281   22.2411 C   0  0  0  0  0  0  0  0  0  0  0  0
  -25.5118  -30.8689   24.6905 C   0  0  1  0  0  0  0  0  0  0  0  0
  -27.0334  -29.0430   27.6436 C   0  0  2  0  0  0  0  0  0  0  0  0
  -25.3099  -32.4101   24.7270 C   0  0  0  0  0  0  0  0  0  0  0  0
  -26.5378  -15.5301   17.7861 N   0  0  0  0  0  0  0  0  0  0  0  0
  -26.2418  -16.3418   16.7568 N   0  0  0  0  0  0  0  0  0  0  0  0
  -30.7260  -23.9862   20.7913 N   0  0  3  0  0  0  0  0  0  0  0  0
  -24.2427  -29.9423   22.7743 N   0  0  0  0  0  0  0  0  0  0  0  0
  -29.0353  -18.9277   17.0614 N   0  0  0  0  0  0  0  0  0  0  0  0
  -24.5609  -16.8337   15.1620 N   0  0  0  0  0  0  0  0  0  0  0  0
  -22.0806  -15.0100   17.3791 N   0  0  0  0  0  0  0  0  0  0  0  0
  -28.1335  -20.6221   18.4318 N   0  0  0  0  0  0  0  0  0  0  0  0
  -20.7278  -29.5658   22.3689 N   0  0  0  0  0  0  0  0  0  0  0  0
  -25.8064  -30.2739   25.9896 N   0  0  0  0  0  0  0  0  0  0  0  0
  -27.7223  -27.7223   27.6884 N   0  3  0  0  0  0  0  0  0  0  0  0
  -33.5465  -22.7881   18.8006 O   0  0  0  0  0  0  0  0  0  0  0  0
  -23.0246  -13.4979   15.9365 O   0  0  0  0  0  0  0  0  0  0  0  0
  -22.1861  -31.3373   21.9715 O   0  0  0  0  0  0  0  0  0  0  0  0
  -23.4288  -29.7685   24.9464 O   0  0  0  0  0  0  0  0  0  0  0  0
  -27.8365  -29.3315   25.3832 O   0  0  0  0  0  0  0  0  0  0  0  0
  -29.9518  -21.0500   17.0562 O   0  0  0  0  0  0  0  0  0  0  0  0
  -25.1845  -10.7838   21.8096 O   0  0  0  0  0  0  0  0  0  0  0  0
  -28.8095  -27.7437   19.6294 O   0  0  0  0  0  0  0  0  0  1  0  0
  -21.2819   -6.9234   21.2891 F   0  0  0  0  0  0  0  0  0  0  0  0
  -25.8542   -8.1107   21.5881 F   0  0  0  0  0  0  0  0  0  0  0  0
  1  2  1  0  0  0  0
  1  5  2  0  0  0  0
  2  6  2  0  0  0  0
  3  8  2  0  0  0  0
  3 18  1  0  0  0  0
  4  9  1  0  0  0  0
  4 18  2  0  0  0  0
  5 20  1  0  0  0  0
  6 22  1  0  0  0  0
  7 10  2  0  0  0  0
  7 21  1  0  0  0  0
  8 27  1  0  0  0  0
  9 27  2  0  0  0  0
 10 28  1  0  0  0  0
 11 12  2  0  0  0  0
 11 29  1  0  0  0  0
 12 30  1  0  0  0  0
 13 23  1  0  0  0  0
 13 28  2  0  0  0  0
 14 24  1  0  0  0  0
 14 25  2  0  0  0  0
 15 24  2  0  0  0  0
 15 26  1  0  0  0  0
 16 25  1  0  0  0  0
 16 26  2  0  0  0  0
 17 30  2  0  0  0  0
 17 31  1  0  0  0  0
 18 32  1  0  0  0  0
 19 32  1  0  0  0  0
 19 33  2  0  0  0  0
 19 35  1  0  0  0  0
 20 22  2  0  0  0  0
 20 40  1  0  0  0  0
 21 23  2  0  0  0  0
 21 41  1  0  0  0  0
 22 53  1  0  0  0  0
 23 42  1  0  0  0  0
 24 66  1  0  0  0  0
 25 72  1  0  0  0  0
 26 77  1  0  0  0  0
 27 87  1  0  0  0  0
 28 88  1  0  0  0  0
 29 31  2  0  0  0  0
 29 87  1  0  0  0  0
 30 89  1  0  0  0  0
 31 90  1  0  0  0  0
 32 70  2  0  0  0  0
 33 71  1  0  0  0  0
 33 75  1  0  0  0  0
 34 43  1  0  0  0  0
 34 44  1  0  0  0  0
 34 81  2  0  0  0  0
 35 76  1  0  0  0  0
 35 82  2  0  0  0  0
 36 54  1  0  0  0  0
 36 78  1  0  0  0  0
 36 83  2  0  0  0  0
 37 67  1  0  0  0  0
 37 73  1  0  0  0  0
 37 84  2  0  0  0  0
 38 68  1  0  0  0  0
 38 79  1  0  0  0  0
 38 85  2  0  0  0  0
 39 74  1  0  0  0  0
 39 77  1  0  0  0  0
 39 86  2  0  0  0  0
 40 45  1  0  0  0  0
 41 54  1  0  0  0  0
 42 73  1  0  0  0  0
 43 46  1  0  0  0  0
 44 56  1  0  0  0  0
 45 48  1  0  0  0  0
 46 50  1  0  0  0  0
 47 49  1  0  0  0  0
 47 51  1  0  0  0  0
 48 53  1  0  0  0  0
 49 55  1  0  0  0  0
 50 72  1  0  0  0  0
 51 74  1  0  0  0  0
 52 55  1  0  0  0  0
 52 74  1  0  0  0  0
 53 78  1  0  0  0  0
 54 73  1  0  0  0  0
 55 71  1  0  0  0  0
 56 64  1  0  0  0  0
 56 72  1  0  0  0  0
 57 66  1  0  0  0  0
 58 66  1  0  0  0  0
 59 68  1  0  0  0  0
 60 69  1  0  0  0  0
 61 69  1  0  0  0  0
 62 69  1  0  0  0  0
 63 80  1  0  0  0  0
 64 65  1  0  0  0  0
 65 88  1  0  0  0  0
 67 69  1  0  0  0  0
 67 79  1  0  0  0  0
 68 80  1  0  0  0  0
 70 71  1  0  0  0  0
M  CHG  1  80   1
M  ISO  4  39 100  65 101  77 100  88 101
M  END
> <Batch ID>
0107

> <Smiles>
CNC(C)C(=O)NC(C(=O)N1Cc2cc([101O:1][101CH2:1]CC3CC(=O)CCCN3c3cc([100NH:0][100C:0](=O)N4CCCC(n5nc(-c6ccc(Oc7ccc(F)cc7F)cc6)c(C(N)=O)c5N)C4)cc(C(C)C)c3)ccc2CC1C(=O)NC1CCCc2ccccc21)C(C)(C)C

> <Shape>
0.269

> <Color>
0.079

> <Negative vol penalty>
0.000

$$$$
